310939798
  -OEChem-07211613022D

 27 29  0     0  0  0  0  0  0999 V2000
    2.1434    3.2447    0.0000 Cl  0  0  0  0  0  0  0  0  0  0  0  0
    0.1594    1.5947    0.0000 S   0  0  0  0  0  0  0  0  0  0  0  0
   -2.1434   -2.5303    0.0000 S   0  0  0  0  0  0  0  0  0  0  0  0
    2.1434   -1.7053    0.0000 O   0  0  0  0  0  0  0  0  0  0  0  0
   -1.7309   -1.8158    0.0000 O   0  0  0  0  0  0  0  0  0  0  0  0
   -2.5559   -3.2447    0.0000 O   0  0  0  0  0  0  0  0  0  0  0  0
    0.6443    0.9273    0.0000 N   0  0  0  0  0  0  0  0  0  0  0  0
    0.6443    2.2622    0.0000 N   0  0  0  0  0  0  0  0  0  0  0  0
    2.1434   -0.0553    0.0000 N   0  0  0  0  0  0  0  0  0  0  0  0
    0.7145   -1.7053    0.0000 N   0  0  0  0  0  0  0  0  0  0  0  0
   -1.4289   -2.9428    0.0000 N   0  0  0  0  0  0  0  0  0  0  0  0
    1.4289    1.1822    0.0000 C   0  0  0  0  0  0  0  0  0  0  0  0
    1.4289    2.0072    0.0000 C   0  0  0  0  0  0  0  0  0  0  0  0
    2.1434    0.7697    0.0000 C   0  0  0  0  0  0  0  0  0  0  0  0
    2.1434    2.4197    0.0000 C   0  0  0  0  0  0  0  0  0  0  0  0
    2.8579    1.1822    0.0000 C   0  0  0  0  0  0  0  0  0  0  0  0
    2.8579    2.0072    0.0000 C   0  0  0  0  0  0  0  0  0  0  0  0
    1.4289   -1.2928    0.0000 C   0  0  0  0  0  0  0  0  0  0  0  0
    1.4289   -0.4678    0.0000 C   0  0  0  0  0  0  0  0  0  0  0  0
   -0.7145   -2.5303    0.0000 C   0  0  0  0  0  0  0  0  0  0  0  0
    3.5724    0.7697    0.0000 C   0  0  0  0  0  0  0  0  0  0  0  0
    0.0000   -1.2928    0.0000 C   0  0  0  0  0  0  0  0  0  0  0  0
    0.7145   -2.5303    0.0000 C   0  0  0  0  0  0  0  0  0  0  0  0
   -0.7145   -1.7053    0.0000 C   0  0  0  0  0  0  0  0  0  0  0  0
    0.0000   -2.9428    0.0000 C   0  0  0  0  0  0  0  0  0  0  0  0
   -2.8579   -2.1178    0.0000 C   0  0  0  0  0  0  0  0  0  0  0  0
   -3.5724   -2.5303    0.0000 C   0  0  0  0  0  0  0  0  0  0  0  0
  1 15  1  0  0  0  0
  2  7  1  0  0  0  0
  2  8  1  0  0  0  0
  3  5  2  0  0  0  0
  3  6  2  0  0  0  0
  3 11  1  0  0  0  0
  3 26  1  0  0  0  0
  4 18  2  0  0  0  0
  7 12  2  0  0  0  0
  8 13  2  0  0  0  0
  9 14  1  0  0  0  0
  9 19  1  0  0  0  0
 10 18  1  0  0  0  0
 10 22  1  0  0  0  0
 10 23  1  0  0  0  0
 11 20  1  0  0  0  0
 12 13  1  0  0  0  0
 12 14  1  0  0  0  0
 13 15  1  0  0  0  0
 14 16  2  0  0  0  0
 15 17  2  0  0  0  0
 16 17  1  0  0  0  0
 16 21  1  0  0  0  0
 18 19  1  0  0  0  0
 20 24  1  0  0  0  0
 20 25  1  0  0  0  0
 22 24  1  0  0  0  0
 23 25  1  0  0  0  0
 26 27  2  0  0  0  0
M  END
> <PUBCHEM_COMPOUND_ID_TYPE>
0

> <PUBCHEM_TOTAL_CHARGE>
0

> <PUBCHEM_SUBSTANCE_ID>
310939798

> <PUBCHEM_SUBSTANCE_VERSION>
1

> <PUBCHEM_EXT_DATASOURCE_NAME>
4488

> <PUBCHEM_EXT_DATASOURCE_REGID>
SCHEMBL16117728

> <PUBCHEM_SUBSTANCE_COMMENT>
InChI=1S/C16H20ClN5O3S2/c1-3-27(24,25)21-11-4-6-22(7-5-11)13(23)9-18-14-10(2)8-12(17)15-16(14)20-26-19-15/h3,8,11,18,21H,1,4-7,9H2,2H3
InChIKey=NQCZKSXZTIQHCI-UHFFFAOYSA-N

> <PUBCHEM_SUBSTANCE_SYNONYM>
SCHEMBL16117728

> <PUBCHEM_XREF_EXT_ID>
SCHEMBL16117728

> <PUBCHEM_EXT_DATASOURCE_URL>
https://www.surechembl.org/

> <PUBCHEM_EXT_SUBSTANCE_URL>
https://www.surechembl.org/chemical/SCHEMBL16117728

> <PUBCHEM_CID_ASSOCIATIONS>
117607016  1

> <PUBCHEM_COORDINATE_TYPE>
1
3

$$$$
