310946890
  -OEChem-07211613022D

 31 35  0     1  0  0  0  0  0999 V2000
    0.6318    2.1848    0.0000 O   0  0  0  0  0  0  0  0  0  0  0  0
   -2.5270   -1.2196    0.0000 O   0  0  0  0  0  0  0  0  0  0  0  0
   -1.0354    1.0968    0.0000 N   0  0  0  0  0  0  0  0  0  0  0  0
   -0.5440    0.4299    0.0000 N   0  0  0  0  0  0  0  0  0  0  0  0
   -0.7722   -1.0266    0.0000 N   0  0  0  0  0  0  0  0  0  0  0  0
   -3.2641    0.0088    0.0000 N   0  0  0  0  0  0  0  0  0  0  0  0
    1.8427   -3.0448    0.0000 N   0  0  0  0  0  0  0  0  0  0  0  0
   -2.7727    2.8692    0.0000 N   0  0  0  0  0  0  0  0  0  0  0  0
    3.2641   -3.2378    0.0000 N   0  0  0  0  0  0  0  0  0  0  0  0
   -1.8075    0.8511    0.0000 C   0  0  0  0  0  0  0  0  0  0  0  0
   -0.7897    1.8865    0.0000 C   0  0  3  0  0  0  0  0  0  0  0  0
   -1.8251    0.0263    0.0000 C   0  0  0  0  0  0  0  0  0  0  0  0
   -1.0354   -0.2369    0.0000 C   0  0  0  0  0  0  0  0  0  0  0  0
   -2.5270   -0.3773    0.0000 C   0  0  0  0  0  0  0  0  0  0  0  0
   -2.5622    1.2372    0.0000 C   0  0  0  0  0  0  0  0  0  0  0  0
    0.0175    1.6233    0.0000 C   0  0  0  0  0  0  0  0  0  0  0  0
   -0.9477    2.6937    0.0000 C   0  0  0  0  0  0  0  0  0  0  0  0
   -1.5970    1.7285    0.0000 C   0  0  0  0  0  0  0  0  0  0  0  0
   -0.1053   -1.5180    0.0000 C   0  0  0  0  0  0  0  0  0  0  0  0
   -3.2465    0.8511    0.0000 C   0  0  0  0  0  0  0  0  0  0  0  0
   -0.3334    3.2378    0.0000 C   0  0  0  0  0  0  0  0  0  0  0  0
    0.6318   -1.2196    0.0000 C   0  0  0  0  0  0  0  0  0  0  0  0
    1.3161   -1.7110    0.0000 C   0  0  0  0  0  0  0  0  0  0  0  0
    1.1758   -2.5182    0.0000 C   0  0  0  0  0  0  0  0  0  0  0  0
   -0.2106   -2.3428    0.0000 C   0  0  0  0  0  0  0  0  0  0  0  0
   -2.1761    2.2550    0.0000 C   0  0  0  0  0  0  0  0  0  0  0  0
    0.4563    2.9746    0.0000 C   0  0  0  0  0  0  0  0  0  0  0  0
    0.4387   -2.8341    0.0000 C   0  0  0  0  0  0  0  0  0  0  0  0
    2.0532   -1.4127    0.0000 C   0  0  0  0  0  0  0  0  0  0  0  0
    2.5972   -2.7289    0.0000 C   0  0  0  0  0  0  0  0  0  0  0  0
    2.7376   -1.9041    0.0000 C   0  0  0  0  0  0  0  0  0  0  0  0
  1 16  1  0  0  0  0
  1 27  1  0  0  0  0
  2 14  2  0  0  0  0
  3  4  1  0  0  0  0
  3 10  1  0  0  0  0
  3 11  1  0  0  0  0
  4 13  2  0  0  0  0
  5 13  1  0  0  0  0
  5 19  1  0  0  0  0
  6 14  1  0  0  0  0
  6 20  1  0  0  0  0
  7 24  1  0  0  0  0
  7 30  2  0  0  0  0
  8 26  3  0  0  0  0
  9 30  1  0  0  0  0
 10 12  2  0  0  0  0
 10 15  1  0  0  0  0
 11 16  1  0  0  0  0
 11 17  1  0  0  0  0
 11 18  1  1  0  0  0
 12 13  1  0  0  0  0
 12 14  1  0  0  0  0
 15 20  2  0  0  0  0
 17 21  1  0  0  0  0
 18 26  1  0  0  0  0
 19 22  1  0  0  0  0
 19 25  2  0  0  0  0
 21 27  1  0  0  0  0
 22 23  2  0  0  0  0
 23 24  1  0  0  0  0
 23 29  1  0  0  0  0
 24 28  2  0  0  0  0
 25 28  1  0  0  0  0
 29 31  2  0  0  0  0
 30 31  1  0  0  0  0
M  END
> <PUBCHEM_COMPOUND_ID_TYPE>
0

> <PUBCHEM_TOTAL_CHARGE>
0

> <PUBCHEM_SUBSTANCE_ID>
310946890

> <PUBCHEM_SUBSTANCE_VERSION>
1

> <PUBCHEM_EXT_DATASOURCE_NAME>
4488

> <PUBCHEM_EXT_DATASOURCE_REGID>
SCHEMBL16125014

> <PUBCHEM_SUBSTANCE_COMMENT>
InChI=1S/C22H21N7O2/c23-9-8-22(7-1-11-31-13-22)29-17-6-10-25-21(30)19(17)20(28-29)26-15-3-4-16-14(12-15)2-5-18(24)27-16/h2-6,10,12H,1,7-8,11,13H2,(H2,24,27)(H,25,30)(H,26,28)/t22-/m0/s1
InChIKey=NYSKMMCRKBVWOB-QFIPXVFZSA-N

> <PUBCHEM_SUBSTANCE_SYNONYM>
SCHEMBL16125014

> <PUBCHEM_XREF_EXT_ID>
SCHEMBL16125014

> <PUBCHEM_EXT_DATASOURCE_URL>
https://www.surechembl.org/

> <PUBCHEM_EXT_SUBSTANCE_URL>
https://www.surechembl.org/chemical/SCHEMBL16125014

> <PUBCHEM_CID_ASSOCIATIONS>
117612748  1

> <PUBCHEM_COORDINATE_TYPE>
1
3

> <PUBCHEM_BONDANNOTATIONS>
11  18  5

$$$$
