310931159
  -OEChem-07211613022D

 25 27  0     0  0  0  0  0  0999 V2000
    0.6753   -2.3850    0.0000 S   0  0  0  0  0  0  0  0  0  0  0  0
    0.7145    0.1670    0.0000 O   0  0  0  0  0  0  0  0  0  0  0  0
    3.5724   -1.4830    0.0000 O   0  0  0  0  0  0  0  0  0  0  0  0
    4.2869   -2.7205    0.0000 O   0  0  0  0  0  0  0  0  0  0  0  0
    1.3427   -3.5410    0.0000 N   0  0  0  0  0  0  0  0  0  0  0  0
    2.8579   -0.2455    0.0000 N   0  0  0  0  0  0  0  0  0  0  0  0
    2.1435   -2.3080    0.0000 C   0  0  0  0  0  0  0  0  0  0  0  0
    1.4290   -2.7205    0.0000 C   0  0  0  0  0  0  0  0  0  0  0  0
    2.1435   -1.4830    0.0000 C   0  0  0  0  0  0  0  0  0  0  0  0
    1.4290   -1.0705    0.0000 C   0  0  0  0  0  0  0  0  0  0  0  0
    2.8579   -2.7205    0.0000 C   0  0  0  0  0  0  0  0  0  0  0  0
    1.4290   -0.2455    0.0000 C   0  0  0  0  0  0  0  0  0  0  0  0
    0.1232   -2.9981    0.0000 C   0  0  0  0  0  0  0  0  0  0  0  0
    2.8579   -1.0705    0.0000 C   0  0  0  0  0  0  0  0  0  0  0  0
    0.5357   -3.7126    0.0000 C   0  0  0  0  0  0  0  0  0  0  0  0
    2.1435    0.1670    0.0000 C   0  0  0  0  0  0  0  0  0  0  0  0
    3.5724   -2.3080    0.0000 C   0  0  0  0  0  0  0  0  0  0  0  0
    0.0000   -0.2455    0.0000 C   0  0  0  0  0  0  0  0  0  0  0  0
   -0.6973   -2.9118    0.0000 C   0  0  0  0  0  0  0  0  0  0  0  0
   -0.7145    0.1670    0.0000 C   0  0  0  0  0  0  0  0  0  0  0  0
   -0.7145    0.9920    0.0000 C   0  0  0  0  0  0  0  0  0  0  0  0
   -1.4290   -0.2455    0.0000 C   0  0  0  0  0  0  0  0  0  0  0  0
   -1.4290    1.4045    0.0000 C   0  0  0  0  0  0  0  0  0  0  0  0
   -2.1435    0.1670    0.0000 C   0  0  0  0  0  0  0  0  0  0  0  0
   -2.1435    0.9920    0.0000 C   0  0  0  0  0  0  0  0  0  0  0  0
  1  8  1  0  0  0  0
  1 13  1  0  0  0  0
  2 12  1  0  0  0  0
  2 18  1  0  0  0  0
  3 17  2  0  0  0  0
  4 17  1  0  0  0  0
  5  8  2  0  0  0  0
  5 15  1  0  0  0  0
  6 14  2  0  0  0  0
  6 16  1  0  0  0  0
  7  8  1  0  0  0  0
  7  9  1  0  0  0  0
  7 11  2  3  0  0  0
  9 10  2  0  0  0  0
  9 14  1  0  0  0  0
 10 12  1  0  0  0  0
 11 17  1  0  0  0  0
 12 16  2  0  0  0  0
 13 15  2  0  0  0  0
 13 19  1  0  0  0  0
 18 20  1  0  0  0  0
 20 21  2  0  0  0  0
 20 22  1  0  0  0  0
 21 23  1  0  0  0  0
 22 24  2  0  0  0  0
 23 25  2  0  0  0  0
 24 25  1  0  0  0  0
M  END
> <PUBCHEM_COMPOUND_ID_TYPE>
0

> <PUBCHEM_TOTAL_CHARGE>
0

> <PUBCHEM_SUBSTANCE_ID>
310931159

> <PUBCHEM_SUBSTANCE_VERSION>
1

> <PUBCHEM_EXT_DATASOURCE_NAME>
4488

> <PUBCHEM_EXT_DATASOURCE_REGID>
SCHEMBL16108467

> <PUBCHEM_SUBSTANCE_COMMENT>
InChI=1S/C19H16N2O3S/c1-13-9-21-19(25-13)17(8-18(22)23)15-7-16(11-20-10-15)24-12-14-5-3-2-4-6-14/h2-11H,12H2,1H3,(H,22,23)/b17-8+
InChIKey=URSNGFWUNAPVRM-CAOOACKPSA-N

> <PUBCHEM_SUBSTANCE_SYNONYM>
SCHEMBL16108467

> <PUBCHEM_XREF_EXT_ID>
SCHEMBL16108467

> <PUBCHEM_EXT_DATASOURCE_URL>
https://www.surechembl.org/

> <PUBCHEM_EXT_SUBSTANCE_URL>
https://www.surechembl.org/chemical/SCHEMBL16108467

> <PUBCHEM_CID_ASSOCIATIONS>
117600026  1

> <PUBCHEM_COORDINATE_TYPE>
1
3

> <PUBCHEM_BONDANNOTATIONS>
7  11  1

$$$$
