310942866
  -OEChem-07211613022D

 66 71  0     1  0  0  0  0  0999 V2000
   -4.9152    3.1294    0.0000 F   0  0  0  0  0  0  0  0  0  0  0  0
   -4.9152   -0.2041    0.0000 F   0  0  0  0  0  0  0  0  0  0  0  0
    2.1090    0.9014    0.0000 O   0  0  0  0  0  0  0  0  0  0  0  0
   -2.1600    0.9864    0.0000 O   0  0  0  0  0  0  0  0  0  0  0  0
   -1.3266   -0.4592    0.0000 O   0  0  0  0  0  0  0  0  0  0  0  0
    0.4252    4.1839    0.0000 O   0  0  0  0  0  0  0  0  0  0  0  0
    4.1864    1.1961    0.0000 O   0  0  0  0  0  0  0  0  0  0  0  0
    3.6840    0.3697    0.0000 O   0  0  0  0  0  0  0  0  0  0  0  0
    3.5376    0.9014    0.0000 O   0  0  0  0  0  0  0  0  0  0  0  0
   -2.5341    0.0510    0.0000 O   0  0  0  0  0  0  0  0  0  0  0  0
    3.5716   -6.0717    0.0000 O   0  0  0  0  0  0  0  0  0  0  0  0
    5.6295   -4.0138    0.0000 O   0  0  0  0  0  0  0  0  0  0  0  0
   -0.9014    1.7178    0.0000 N   0  0  0  0  0  0  0  0  0  0  0  0
   -2.4831    3.1975    0.0000 N   0  0  0  0  0  0  0  0  0  0  0  0
   -2.7723    1.8709    0.0000 N   0  0  0  0  0  0  0  0  0  0  0  0
    2.1430    3.0273    0.0000 N   0  0  0  0  0  0  0  0  0  0  0  0
    2.6022   -0.3061    0.0000 N   0  0  0  0  0  0  0  0  0  0  0  0
    4.4390   -4.8812    0.0000 N   0  0  0  0  0  0  0  0  0  0  0  0
   -2.1600    2.4491    0.0000 C   0  0  0  0  0  0  0  0  0  0  0  0
   -1.3266    2.4321    0.0000 C   0  0  3  0  0  0  0  0  0  0  0  0
   -3.4865    2.2960    0.0000 C   0  0  0  0  0  0  0  0  0  0  0  0
   -0.7484    3.0273    0.0000 C   0  0  0  0  0  0  0  0  0  0  0  0
   -3.2995    3.1124    0.0000 C   0  0  0  0  0  0  0  0  0  0  0  0
   -4.2009    1.8878    0.0000 C   0  0  0  0  0  0  0  0  0  0  0  0
   -1.3096    0.9864    0.0000 C   0  0  0  0  0  0  0  0  0  0  0  0
    0.3571    1.7178    0.0000 C   0  0  0  0  0  0  0  0  0  0  0  0
    1.1735    2.1090    0.0000 C   0  0  3  0  0  0  0  0  0  0  0  0
   -2.0580    4.1329    0.0000 C   0  0  0  0  0  0  0  0  0  0  0  0
    1.8878    1.7178    0.0000 C   0  0  3  0  0  0  0  0  0  0  0  0
   -4.9322    2.2960    0.0000 C   0  0  0  0  0  0  0  0  0  0  0  0
    1.3266    2.9254    0.0000 C   0  0  0  0  0  0  0  0  0  0  0  0
   -0.9184    0.2892    0.0000 C   0  0  3  0  0  0  0  0  0  0  0  0
   -0.9524    3.7927    0.0000 C   0  0  0  0  0  0  0  0  0  0  0  0
    0.0680    2.8062    0.0000 C   0  0  0  0  0  0  0  0  0  0  0  0
   -4.2179    1.0545    0.0000 C   0  0  0  0  0  0  0  0  0  0  0  0
    2.4831    2.2960    0.0000 C   0  0  0  0  0  0  0  0  0  0  0  0
   -2.6532    4.7111    0.0000 C   0  0  0  0  0  0  0  0  0  0  0  0
    3.6840    0.9057    0.0000 C   0  0  0  0  0  0  0  0  0  0  0  0
   -4.9152    0.6463    0.0000 C   0  0  0  0  0  0  0  0  0  0  0  0
   -5.6295    1.8709    0.0000 C   0  0  0  0  0  0  0  0  0  0  0  0
   -0.3742    4.4050    0.0000 C   0  0  0  0  0  0  0  0  0  0  0  0
    0.6463    3.4015    0.0000 C   0  0  0  0  0  0  0  0  0  0  0  0
   -5.6125    1.0375    0.0000 C   0  0  0  0  0  0  0  0  0  0  0  0
   -2.4491    5.5275    0.0000 C   0  0  0  0  0  0  0  0  0  0  0  0
   -3.4355    4.5071    0.0000 C   0  0  0  0  0  0  0  0  0  0  0  0
    2.7893    0.4932    0.0000 C   0  0  0  0  0  0  0  0  0  0  0  0
   -0.1021    0.2721    0.0000 C   0  0  0  0  0  0  0  0  0  0  0  0
    4.1976    1.7544    0.0000 C   0  0  0  0  0  0  0  0  0  0  0  0
   -2.1259   -0.6463    0.0000 C   0  0  0  0  0  0  0  0  0  0  0  0
   -2.9933    6.0717    0.0000 C   0  0  0  0  0  0  0  0  0  0  0  0
   -4.0138    5.0853    0.0000 C   0  0  0  0  0  0  0  0  0  0  0  0
   -3.8097    5.8847    0.0000 C   0  0  0  0  0  0  0  0  0  0  0  0
    4.7001    1.7767    0.0000 C   0  0  0  0  0  0  0  0  0  0  0  0
    3.6840    1.7544    0.0000 C   0  0  0  0  0  0  0  0  0  0  0  0
    4.1864    2.3015    0.0000 C   0  0  0  0  0  0  0  0  0  0  0  0
   -2.5172   -1.3946    0.0000 C   0  0  0  0  0  0  0  0  0  0  0  0
    3.3165   -0.7143    0.0000 C   0  0  0  0  0  0  0  0  0  0  0  0
    3.1124   -1.5307    0.0000 C   0  0  0  0  0  0  0  0  0  0  0  0
    4.3200   -5.6635    0.0000 C   0  0  0  0  0  0  0  0  0  0  0  0
    5.2384   -4.7792    0.0000 C   0  0  0  0  0  0  0  0  0  0  0  0
    5.0513   -6.0548    0.0000 C   0  0  0  0  0  0  0  0  0  0  0  0
    5.6295   -5.4935    0.0000 C   0  0  0  0  0  0  0  0  0  0  0  0
    3.8607   -4.3029    0.0000 C   0  0  0  0  0  0  0  0  0  0  0  0
    3.6907   -2.1090    0.0000 C   0  0  0  0  0  0  0  0  0  0  0  0
    4.0649   -3.4865    0.0000 C   0  0  0  0  0  0  0  0  0  0  0  0
    3.4865   -2.9083    0.0000 C   0  0  0  0  0  0  0  0  0  0  0  0
  1 30  1  0  0  0  0
  2 39  1  0  0  0  0
 29  3  1  1  0  0  0
  3 46  1  0  0  0  0
  4 25  2  0  0  0  0
  5 32  1  0  0  0  0
  5 49  1  0  0  0  0
  6 41  1  0  0  0  0
  6 42  1  0  0  0  0
  7 38  1  0  0  0  0
  7 48  1  0  0  0  0
  8 38  2  0  0  0  0
  9 46  2  0  0  0  0
 10 49  2  0  0  0  0
 11 59  2  0  0  0  0
 12 60  2  0  0  0  0
 20 13  1  1  0  0  0
 13 25  1  0  0  0  0
 13 26  1  0  0  0  0
 14 19  1  0  0  0  0
 14 23  1  0  0  0  0
 14 28  1  0  0  0  0
 15 19  2  0  0  0  0
 15 21  1  0  0  0  0
 16 31  1  0  0  0  0
 16 36  1  0  0  0  0
 16 38  1  0  0  0  0
 17 46  1  0  0  0  0
 17 57  1  0  0  0  0
 18 59  1  0  0  0  0
 18 60  1  0  0  0  0
 18 63  1  0  0  0  0
 19 20  1  0  0  0  0
 20 22  1  0  0  0  0
 21 23  2  0  0  0  0
 21 24  1  0  0  0  0
 22 33  1  0  0  0  0
 22 34  1  0  0  0  0
 24 30  2  0  0  0  0
 24 35  1  0  0  0  0
 25 32  1  0  0  0  0
 27 26  1  6  0  0  0
 27 29  1  0  0  0  0
 27 31  1  0  0  0  0
 28 37  1  0  0  0  0
 29 36  1  0  0  0  0
 30 40  1  0  0  0  0
 32 47  1  6  0  0  0
 33 41  1  0  0  0  0
 34 42  1  0  0  0  0
 35 39  2  0  0  0  0
 37 44  2  0  0  0  0
 37 45  1  0  0  0  0
 39 43  1  0  0  0  0
 40 43  2  0  0  0  0
 44 50  1  0  0  0  0
 45 51  2  0  0  0  0
 48 53  1  0  0  0  0
 48 54  1  0  0  0  0
 48 55  1  0  0  0  0
 49 56  1  0  0  0  0
 50 52  2  0  0  0  0
 51 52  1  0  0  0  0
 57 58  1  0  0  0  0
 58 64  1  0  0  0  0
 59 61  1  0  0  0  0
 60 62  1  0  0  0  0
 61 62  2  0  0  0  0
 63 65  1  0  0  0  0
 64 66  1  0  0  0  0
 65 66  1  0  0  0  0
M  END
> <PUBCHEM_COMPOUND_ID_TYPE>
0

> <PUBCHEM_TOTAL_CHARGE>
0

> <PUBCHEM_SUBSTANCE_ID>
310942866

> <PUBCHEM_SUBSTANCE_VERSION>
1

> <PUBCHEM_EXT_DATASOURCE_NAME>
4488

> <PUBCHEM_EXT_DATASOURCE_REGID>
SCHEMBL16120924

> <PUBCHEM_SUBSTANCE_COMMENT>
InChI=1S/C48H60F2N6O10/c1-31(64-32(2)57)45(60)56(43(34-19-23-63-24-20-34)44-52-39(37-25-36(49)15-16-38(37)50)29-53(44)26-33-13-9-8-10-14-33)28-35-27-54(47(62)66-48(3,4)5)30-40(35)65-46(61)51-21-11-6-7-12-22-55-41(58)17-18-42(55)59/h8-10,13-18,25,29,31,34-35,40,43H,6-7,11-12,19-24,26-28,30H2,1-5H3,(H,51,61)/t31-,35-,40+,43+/m0/s1
InChIKey=SUFNTEBTDADGLP-OQZNQAFVSA-N

> <PUBCHEM_SUBSTANCE_SYNONYM>
SCHEMBL16120924

> <PUBCHEM_XREF_EXT_ID>
SCHEMBL16120924

> <PUBCHEM_EXT_DATASOURCE_URL>
https://www.surechembl.org/

> <PUBCHEM_EXT_SUBSTANCE_URL>
https://www.surechembl.org/chemical/SCHEMBL16120924

> <PUBCHEM_CID_ASSOCIATIONS>
117609354  1

> <PUBCHEM_COORDINATE_TYPE>
1
3

> <PUBCHEM_BONDANNOTATIONS>
20  13  5
27  26  6
29  3  5
32  47  6

$$$$
