310940008
  -OEChem-07211613022D

 12 12  0     0  0  0  0  0  0999 V2000
   -8.0825   -8.0538    0.0000 Cl  0  0  0  0  0  0  0  0  0  0  0  0
   -8.0825   -6.4038    0.0000 Cl  0  0  0  0  0  0  0  0  0  0  0  0
   -5.2246   -8.0538    0.0000 O   0  0  0  0  0  0  0  0  0  0  0  0
   -4.5101   -6.8163    0.0000 N   0  0  0  0  0  0  0  0  0  0  0  0
   -5.9391   -7.6413    0.0000 C   0  0  0  0  0  0  0  0  0  0  0  0
   -5.9391   -6.8163    0.0000 C   0  0  0  0  0  0  0  0  0  0  0  0
   -7.3680   -7.6413    0.0000 C   0  0  0  0  0  0  0  0  0  0  0  0
   -7.3680   -6.8163    0.0000 C   0  0  0  0  0  0  0  0  0  0  0  0
   -6.6535   -8.0538    0.0000 C   0  0  0  0  0  0  0  0  0  0  0  0
   -6.6535   -6.4038    0.0000 C   0  0  0  0  0  0  0  0  0  0  0  0
   -5.2246   -6.4038    0.0000 C   0  0  0  0  0  0  0  0  0  0  0  0
   -4.5101   -7.6413    0.0000 C   0  0  0  0  0  0  0  0  0  0  0  0
  1  7  1  0  0  0  0
  2  8  1  0  0  0  0
  3  5  1  0  0  0  0
  3 12  1  0  0  0  0
  4 11  1  0  0  0  0
  5  6  1  0  0  0  0
  5  9  2  0  0  0  0
  6 10  2  0  0  0  0
  6 11  1  0  0  0  0
  7  8  2  0  0  0  0
  7  9  1  0  0  0  0
  8 10  1  0  0  0  0
M  END
> <PUBCHEM_COMPOUND_ID_TYPE>
0

> <PUBCHEM_TOTAL_CHARGE>
0

> <PUBCHEM_SUBSTANCE_ID>
310940008

> <PUBCHEM_SUBSTANCE_VERSION>
1

> <PUBCHEM_EXT_DATASOURCE_NAME>
4488

> <PUBCHEM_EXT_DATASOURCE_REGID>
SCHEMBL16117938

> <PUBCHEM_SUBSTANCE_COMMENT>
InChI=1S/C8H9Cl2NO/c1-12-8-3-7(10)6(9)2-5(8)4-11/h2-3H,4,11H2,1H3
InChIKey=LQPLYIVGXQPUPT-UHFFFAOYSA-N

> <PUBCHEM_SUBSTANCE_SYNONYM>
SCHEMBL16117938

> <PUBCHEM_XREF_EXT_ID>
SCHEMBL16117938

> <PUBCHEM_EXT_DATASOURCE_URL>
https://www.surechembl.org/

> <PUBCHEM_EXT_SUBSTANCE_URL>
https://www.surechembl.org/chemical/SCHEMBL16117938

> <PUBCHEM_CID_ASSOCIATIONS>
82627734  1

> <PUBCHEM_COORDINATE_TYPE>
1
3

$$$$
