310945964
  -OEChem-07211613022D

 38 40  0     1  0  0  0  0  0999 V2000
    5.2308    0.9769    0.0000 O   0  0  0  0  0  0  0  0  0  0  0  0
    4.0946   -0.9769    0.0000 O   0  0  0  0  0  0  0  0  0  0  0  0
    1.7112    0.9630    0.0000 O   0  0  0  0  0  0  0  0  0  0  0  0
   -0.4642   -1.1016    0.0000 O   0  0  0  0  0  0  0  0  0  0  0  0
    3.8728   -2.7643    0.0000 O   0  0  0  0  0  0  0  0  0  0  0  0
   -2.6258    0.9630    0.0000 O   0  0  0  0  0  0  0  0  0  0  0  0
   -4.7873   -0.2702    0.0000 O   0  0  0  0  0  0  0  0  0  0  0  0
    2.4318   -0.2702    0.0000 N   0  0  0  0  0  0  0  0  0  0  0  0
    0.2702    0.1455    0.0000 N   0  0  0  0  0  0  0  0  0  0  0  0
   -1.9053   -0.2702    0.0000 N   0  0  0  0  0  0  0  0  0  0  0  0
    4.8151    0.3118    0.0000 C   0  0  3  0  0  0  0  0  0  0  0  0
    4.0807   -0.1177    0.0000 C   0  0  0  0  0  0  0  0  0  0  0  0
    4.4271    0.9907    0.0000 C   0  0  0  0  0  0  0  0  0  0  0  0
    3.3601    0.2840    0.0000 C   0  0  3  0  0  0  0  0  0  0  0  0
    5.5218   -0.1177    0.0000 C   0  0  0  0  0  0  0  0  0  0  0  0
    3.3740    1.3649    0.0000 C   0  0  0  0  0  0  0  0  0  0  0  0
    1.7112    0.1455    0.0000 C   0  0  0  0  0  0  0  0  0  0  0  0
    1.0045   -0.2425    0.0000 C   0  0  3  0  0  0  0  0  0  0  0  0
    2.6396    1.7944    0.0000 C   0  0  0  0  0  0  0  0  0  0  0  0
    0.9769   -1.0739    0.0000 C   0  0  0  0  0  0  0  0  0  0  0  0
    1.7251   -1.4896    0.0000 C   0  0  0  0  0  0  0  0  0  0  0  0
   -0.4503   -0.2286    0.0000 C   0  0  0  0  0  0  0  0  0  0  0  0
    1.9053    1.4480    0.0000 C   0  0  0  0  0  0  0  0  0  0  0  0
    2.5565    2.5980    0.0000 C   0  0  0  0  0  0  0  0  0  0  0  0
   -1.1848    0.1732    0.0000 C   0  0  3  0  0  0  0  0  0  0  0  0
    1.7251   -2.3210    0.0000 C   0  0  0  0  0  0  0  0  0  0  0  0
    2.4318   -1.1016    0.0000 C   0  0  0  0  0  0  0  0  0  0  0  0
    1.3510    2.0438    0.0000 C   0  0  0  0  0  0  0  0  0  0  0  0
    1.7528    2.7643    0.0000 C   0  0  0  0  0  0  0  0  0  0  0  0
    3.1523   -2.3070    0.0000 C   0  0  0  0  0  0  0  0  0  0  0  0
    2.4318   -2.7227    0.0000 C   0  0  0  0  0  0  0  0  0  0  0  0
    3.1523   -1.5034    0.0000 C   0  0  0  0  0  0  0  0  0  0  0  0
   -2.6258    0.1455    0.0000 C   0  0  0  0  0  0  0  0  0  0  0  0
   -1.1708    0.9907    0.0000 C   0  0  0  0  0  0  0  0  0  0  0  0
   -3.3325   -0.2425    0.0000 C   0  0  0  0  0  0  0  0  0  0  0  0
    4.6211   -2.3348    0.0000 C   0  0  0  0  0  0  0  0  0  0  0  0
   -4.0946    0.1593    0.0000 C   0  0  0  0  0  0  0  0  0  0  0  0
   -5.5218    0.1593    0.0000 C   0  0  0  0  0  0  0  0  0  0  0  0
  1 11  1  0  0  0  0
  1 13  1  0  0  0  0
  2 12  2  0  0  0  0
  3 17  2  0  0  0  0
  4 22  2  0  0  0  0
  5 30  1  0  0  0  0
  5 36  1  0  0  0  0
  6 33  2  0  0  0  0
  7 37  1  0  0  0  0
  7 38  1  0  0  0  0
 14  8  1  1  0  0  0
  8 17  1  0  0  0  0
 18  9  1  6  0  0  0
  9 22  1  0  0  0  0
 10 25  1  0  0  0  0
 10 33  1  0  0  0  0
 11 12  1  1  0  0  0
 11 13  1  0  0  0  0
 11 15  1  6  0  0  0
 12 14  1  0  0  0  0
 14 16  1  0  0  0  0
 16 19  1  0  0  0  0
 17 18  1  0  0  0  0
 18 20  1  0  0  0  0
 19 23  1  0  0  0  0
 19 24  1  0  0  0  0
 20 21  1  0  0  0  0
 21 26  2  0  0  0  0
 21 27  1  0  0  0  0
 22 25  1  0  0  0  0
 23 28  1  0  0  0  0
 24 29  1  0  0  0  0
 25 34  1  1  0  0  0
 26 31  1  0  0  0  0
 27 32  2  0  0  0  0
 28 29  1  0  0  0  0
 30 31  2  0  0  0  0
 30 32  1  0  0  0  0
 33 35  1  0  0  0  0
 35 37  1  0  0  0  0
M  END
> <PUBCHEM_COMPOUND_ID_TYPE>
0

> <PUBCHEM_TOTAL_CHARGE>
0

> <PUBCHEM_SUBSTANCE_ID>
310945964

> <PUBCHEM_SUBSTANCE_VERSION>
1

> <PUBCHEM_EXT_DATASOURCE_NAME>
4488

> <PUBCHEM_EXT_DATASOURCE_REGID>
SCHEMBL16124069

> <PUBCHEM_SUBSTANCE_COMMENT>
InChI=1S/C28H41N3O7/c1-18(29-24(32)13-14-36-3)26(34)31-23(16-20-9-11-21(37-4)12-10-20)27(35)30-22(15-19-7-5-6-8-19)25(33)28(2)17-38-28/h9-12,18-19,22-23H,5-8,13-17H2,1-4H3,(H,29,32)(H,30,35)(H,31,34)/t18-,22-,23-,28+/m0/s1
InChIKey=QHXZBGYRHADXPY-IFSSTPPCSA-N

> <PUBCHEM_SUBSTANCE_SYNONYM>
SCHEMBL16124069

> <PUBCHEM_XREF_EXT_ID>
SCHEMBL16124069

> <PUBCHEM_EXT_DATASOURCE_URL>
https://www.surechembl.org/

> <PUBCHEM_EXT_SUBSTANCE_URL>
https://www.surechembl.org/chemical/SCHEMBL16124069

> <PUBCHEM_CID_ASSOCIATIONS>
117611940  1

> <PUBCHEM_COORDINATE_TYPE>
1
3

> <PUBCHEM_BONDANNOTATIONS>
11  12  5
11  15  6
25  34  5
14  8  5
18  9  6

$$$$
