310933962
  -OEChem-07211613022D

 21 23  0     0  0  0  0  0  0999 V2000
    1.5192   -0.4557    0.0000 O   0  0  0  0  0  0  0  0  0  0  0  0
    0.6728   -1.6060    0.0000 O   0  0  0  0  0  0  0  0  0  0  0  0
    2.0834   -2.5609    0.0000 N   0  0  0  0  0  0  0  0  0  0  0  0
    2.8648   -2.8214    0.0000 N   0  0  0  0  0  0  0  0  0  0  0  0
    2.0834   -1.7362    0.0000 C   0  0  0  0  0  0  0  0  0  0  0  0
    3.3422   -2.1486    0.0000 C   0  0  0  0  0  0  0  0  0  0  0  0
    1.4107   -3.0384    0.0000 C   0  0  0  0  0  0  0  0  0  0  0  0
    2.8648   -1.4758    0.0000 C   0  0  0  0  0  0  0  0  0  0  0  0
    1.4107   -1.2587    0.0000 C   0  0  0  0  0  0  0  0  0  0  0  0
    4.1669   -2.1486    0.0000 C   0  0  0  0  0  0  0  0  0  0  0  0
    1.4975   -3.8631    0.0000 C   0  0  0  0  0  0  0  0  0  0  0  0
    0.6728   -2.6911    0.0000 C   0  0  0  0  0  0  0  0  0  0  0  0
    4.6009   -1.4324    0.0000 C   0  0  0  0  0  0  0  0  0  0  0  0
    0.8247   -4.3405    0.0000 C   0  0  0  0  0  0  0  0  0  0  0  0
    0.0000   -3.1686    0.0000 C   0  0  0  0  0  0  0  0  0  0  0  0
    5.4039   -1.4324    0.0000 C   0  0  0  0  0  0  0  0  0  0  0  0
    4.1886   -0.7162    0.0000 C   0  0  0  0  0  0  0  0  0  0  0  0
    0.0651   -3.9933    0.0000 C   0  0  0  0  0  0  0  0  0  0  0  0
    5.8380   -0.7162    0.0000 C   0  0  0  0  0  0  0  0  0  0  0  0
    4.5792    0.0000    0.0000 C   0  0  0  0  0  0  0  0  0  0  0  0
    5.4257    0.0000    0.0000 C   0  0  0  0  0  0  0  0  0  0  0  0
  1  9  2  0  0  0  0
  2  9  1  0  0  0  0
  3  4  1  0  0  0  0
  3  5  1  0  0  0  0
  3  7  1  0  0  0  0
  4  6  2  0  0  0  0
  5  8  2  0  0  0  0
  5  9  1  0  0  0  0
  6  8  1  0  0  0  0
  6 10  1  0  0  0  0
  7 11  2  0  0  0  0
  7 12  1  0  0  0  0
 10 13  1  0  0  0  0
 11 14  1  0  0  0  0
 12 15  2  0  0  0  0
 13 16  2  0  0  0  0
 13 17  1  0  0  0  0
 14 18  2  0  0  0  0
 15 18  1  0  0  0  0
 16 19  1  0  0  0  0
 17 20  2  0  0  0  0
 19 21  2  0  0  0  0
 20 21  1  0  0  0  0
M  END
> <PUBCHEM_COMPOUND_ID_TYPE>
0

> <PUBCHEM_TOTAL_CHARGE>
0

> <PUBCHEM_SUBSTANCE_ID>
310933962

> <PUBCHEM_SUBSTANCE_VERSION>
1

> <PUBCHEM_EXT_DATASOURCE_NAME>
4488

> <PUBCHEM_EXT_DATASOURCE_REGID>
SCHEMBL16111401

> <PUBCHEM_SUBSTANCE_COMMENT>
InChI=1S/C17H14N2O2/c20-17(21)16-12-14(11-13-7-3-1-4-8-13)18-19(16)15-9-5-2-6-10-15/h1-10,12H,11H2,(H,20,21)
InChIKey=IMVPKVMTOAPYMS-UHFFFAOYSA-N

> <PUBCHEM_SUBSTANCE_SYNONYM>
SCHEMBL16111401

> <PUBCHEM_XREF_EXT_ID>
SCHEMBL16111401

> <PUBCHEM_EXT_DATASOURCE_URL>
https://www.surechembl.org/

> <PUBCHEM_EXT_SUBSTANCE_URL>
https://www.surechembl.org/chemical/SCHEMBL16111401

> <PUBCHEM_CID_ASSOCIATIONS>
117602278  1

> <PUBCHEM_COORDINATE_TYPE>
1
3

$$$$
