310941615
  -OEChem-07211613022D

 26 29  0     0  0  0  0  0  0999 V2000
   -2.9821   -1.7340    0.0000 Cl  0  0  0  0  0  0  0  0  0  0  0  0
    0.8041    1.7340    0.0000 S   0  0  0  0  0  0  0  0  0  0  0  0
   -1.5414   -0.9130    0.0000 O   0  0  0  0  0  0  0  0  0  0  0  0
   -0.1173   -0.9130    0.0000 O   0  0  0  0  0  0  0  0  0  0  0  0
    3.6857    0.7288    0.0000 O   0  0  0  0  0  0  0  0  0  0  0  0
    0.6534    0.3937    0.0000 N   0  0  0  0  0  0  0  0  0  0  0  0
    2.0439    0.9465    0.0000 N   0  0  0  0  0  0  0  0  0  0  0  0
    2.1611   -1.2482    0.0000 N   0  0  0  0  0  0  0  0  0  0  0  0
   -0.8041    0.3267    0.0000 C   0  0  0  0  0  0  0  0  0  0  0  0
   -0.1173    0.7622    0.0000 C   0  0  0  0  0  0  0  0  0  0  0  0
   -2.2617   -0.4943    0.0000 C   0  0  0  0  0  0  0  0  0  0  0  0
   -2.2617    0.3267    0.0000 C   0  0  0  0  0  0  0  0  0  0  0  0
   -0.8544   -0.4775    0.0000 C   0  0  0  0  0  0  0  0  0  0  0  0
   -1.5414    0.7455    0.0000 C   0  0  0  0  0  0  0  0  0  0  0  0
    1.2062    1.0471    0.0000 C   0  0  0  0  0  0  0  0  0  0  0  0
   -2.9653   -0.8962    0.0000 C   0  0  0  0  0  0  0  0  0  0  0  0
   -0.0167    1.5664    0.0000 C   0  0  0  0  0  0  0  0  0  0  0  0
   -2.9653    0.7288    0.0000 C   0  0  0  0  0  0  0  0  0  0  0  0
    2.3454    0.1759    0.0000 C   0  0  0  0  0  0  0  0  0  0  0  0
   -3.6857   -0.4943    0.0000 C   0  0  0  0  0  0  0  0  0  0  0  0
    3.1664    0.0586    0.0000 C   0  0  0  0  0  0  0  0  0  0  0  0
   -3.6857    0.3267    0.0000 C   0  0  0  0  0  0  0  0  0  0  0  0
    1.8596   -0.4943    0.0000 C   0  0  0  0  0  0  0  0  0  0  0  0
    3.4846   -0.7119    0.0000 C   0  0  0  0  0  0  0  0  0  0  0  0
    2.9821   -1.3654    0.0000 C   0  0  0  0  0  0  0  0  0  0  0  0
    3.3339    1.4994    0.0000 C   0  0  0  0  0  0  0  0  0  0  0  0
  1 16  1  0  0  0  0
  2 15  1  0  0  0  0
  2 17  1  0  0  0  0
  3 11  1  0  0  0  0
  3 13  1  0  0  0  0
  4 13  2  0  0  0  0
  5 21  1  0  0  0  0
  5 26  1  0  0  0  0
  6 10  1  0  0  0  0
  6 15  2  0  0  0  0
  7 15  1  0  0  0  0
  7 19  1  0  0  0  0
  8 23  1  0  0  0  0
  8 25  2  0  0  0  0
  9 10  1  0  0  0  0
  9 13  1  0  0  0  0
  9 14  2  0  0  0  0
 10 17  2  0  0  0  0
 11 12  1  0  0  0  0
 11 16  2  0  0  0  0
 12 14  1  0  0  0  0
 12 18  2  0  0  0  0
 16 20  1  0  0  0  0
 18 22  1  0  0  0  0
 19 21  1  0  0  0  0
 19 23  2  0  0  0  0
 20 22  2  0  0  0  0
 21 24  2  0  0  0  0
 24 25  1  0  0  0  0
M  END
> <PUBCHEM_COMPOUND_ID_TYPE>
0

> <PUBCHEM_TOTAL_CHARGE>
0

> <PUBCHEM_SUBSTANCE_ID>
310941615

> <PUBCHEM_SUBSTANCE_VERSION>
1

> <PUBCHEM_EXT_DATASOURCE_NAME>
4488

> <PUBCHEM_EXT_DATASOURCE_REGID>
SCHEMBL16119646

> <PUBCHEM_SUBSTANCE_COMMENT>
InChI=1S/C18H12ClN3O3S/c1-24-15-5-6-20-8-13(15)21-18-22-14(9-26-18)11-7-10-3-2-4-12(19)16(10)25-17(11)23/h2-9H,1H3,(H,21,22)
InChIKey=UEJIXAAJNQIZHI-UHFFFAOYSA-N

> <PUBCHEM_SUBSTANCE_SYNONYM>
SCHEMBL16119646

> <PUBCHEM_XREF_EXT_ID>
SCHEMBL16119646

> <PUBCHEM_EXT_DATASOURCE_URL>
https://www.surechembl.org/

> <PUBCHEM_EXT_SUBSTANCE_URL>
https://www.surechembl.org/chemical/SCHEMBL16119646

> <PUBCHEM_CID_ASSOCIATIONS>
117608407  1

> <PUBCHEM_COORDINATE_TYPE>
1
3

$$$$
