310949173
  -OEChem-07211613022D

 14 14  0     0  0  0  0  0  0999 V2000
    0.8270    0.6693    0.0000 Cl  0  0  0  0  0  0  0  0  0  0  0  0
   -2.2311   -1.0284    0.0000 Cl  0  0  0  0  0  0  0  0  0  0  0  0
   -2.0134    0.7020    0.0000 F   0  0  0  0  0  0  0  0  0  0  0  0
    1.5236   -0.5714    0.0000 O   0  0  0  0  0  0  0  0  0  0  0  0
   -0.5986   -0.9958    0.0000 N   0  0  0  0  0  0  0  0  0  0  0  0
   -0.5986    1.5508    0.0000 N   0  0  0  0  0  0  0  0  0  0  0  0
    0.0979   -0.5714    0.0000 C   0  0  0  0  0  0  0  0  0  0  0  0
    0.1088    0.2776    0.0000 C   0  0  0  0  0  0  0  0  0  0  0  0
   -0.6095    0.7020    0.0000 C   0  0  0  0  0  0  0  0  0  0  0  0
   -1.3059    0.2776    0.0000 C   0  0  0  0  0  0  0  0  0  0  0  0
   -1.3169   -0.5714    0.0000 C   0  0  0  0  0  0  0  0  0  0  0  0
    0.8053   -0.9631    0.0000 C   0  0  0  0  0  0  0  0  0  0  0  0
    0.8162   -1.5508    0.0000 C   0  0  0  0  0  0  0  0  0  0  0  0
    2.2311   -0.9958    0.0000 C   0  0  0  0  0  0  0  0  0  0  0  0
  1  8  1  0  0  0  0
  2 11  1  0  0  0  0
  3 10  1  0  0  0  0
  4 12  1  0  0  0  0
  4 14  1  0  0  0  0
  5  7  2  0  0  0  0
  5 11  1  0  0  0  0
  6  9  1  0  0  0  0
  7  8  1  0  0  0  0
  7 12  1  0  0  0  0
  8  9  2  0  0  0  0
  9 10  1  0  0  0  0
 10 11  2  0  0  0  0
 12 13  2  0  0  0  0
M  END
> <PUBCHEM_COMPOUND_ID_TYPE>
0

> <PUBCHEM_TOTAL_CHARGE>
0

> <PUBCHEM_SUBSTANCE_ID>
310949173

> <PUBCHEM_SUBSTANCE_VERSION>
1

> <PUBCHEM_EXT_DATASOURCE_NAME>
4488

> <PUBCHEM_EXT_DATASOURCE_REGID>
SCHEMBL16127363

> <PUBCHEM_SUBSTANCE_COMMENT>
InChI=1S/C8H7Cl2FN2O/c1-3(14-2)7-4(9)6(12)5(11)8(10)13-7/h1H2,2H3,(H2,12,13)
InChIKey=QMDSELFWBRSPHE-UHFFFAOYSA-N

> <PUBCHEM_SUBSTANCE_SYNONYM>
SCHEMBL16127363

> <PUBCHEM_XREF_EXT_ID>
SCHEMBL16127363

> <PUBCHEM_EXT_DATASOURCE_URL>
https://www.surechembl.org/

> <PUBCHEM_EXT_SUBSTANCE_URL>
https://www.surechembl.org/chemical/SCHEMBL16127363

> <PUBCHEM_CID_ASSOCIATIONS>
117614666  1

> <PUBCHEM_COORDINATE_TYPE>
1
3

$$$$
