310929522
  -OEChem-07211613022D

 27 28  0     0  0  0  0  0  0999 V2000
   10.5777   -3.6861    0.0000 Cl  0  0  0  0  0  0  0  0  0  0  0  0
   12.0201   -1.2421    0.0000 Cl  0  0  0  0  0  0  0  0  0  0  0  0
   10.5777   -0.4007    0.0000 O   0  0  0  0  0  0  0  0  0  0  0  0
    0.0000   -1.6428    0.0000 O   0  0  0  0  0  0  0  0  0  0  0  0
    9.1754   -1.2421    0.0000 N   0  0  0  0  0  0  0  0  0  0  0  0
    9.8965   -1.6428    0.0000 C   0  0  0  0  0  0  0  0  0  0  0  0
    9.8965   -2.4441    0.0000 C   0  0  0  0  0  0  0  0  0  0  0  0
   10.5777   -1.2421    0.0000 C   0  0  0  0  0  0  0  0  0  0  0  0
   10.5777   -2.8447    0.0000 C   0  0  0  0  0  0  0  0  0  0  0  0
   11.2989   -1.6428    0.0000 C   0  0  0  0  0  0  0  0  0  0  0  0
   11.2989   -2.4441    0.0000 C   0  0  0  0  0  0  0  0  0  0  0  0
    9.2154   -2.8849    0.0000 C   0  0  0  0  0  0  0  0  0  0  0  0
    8.4942   -1.6428    0.0000 C   0  0  0  0  0  0  0  0  0  0  0  0
    8.4942   -2.4441    0.0000 C   0  0  0  0  0  0  0  0  0  0  0  0
    7.7730   -1.2421    0.0000 C   0  0  0  0  0  0  0  0  0  0  0  0
    9.8565    0.0000    0.0000 C   0  0  0  0  0  0  0  0  0  0  0  0
    7.0518   -1.6428    0.0000 C   0  0  0  0  0  0  0  0  0  0  0  0
    9.1754   -0.4407    0.0000 C   0  0  0  0  0  0  0  0  0  0  0  0
    6.3706   -1.2421    0.0000 C   0  0  0  0  0  0  0  0  0  0  0  0
    5.6495   -1.6428    0.0000 C   0  0  0  0  0  0  0  0  0  0  0  0
    4.9282   -1.2421    0.0000 C   0  0  0  0  0  0  0  0  0  0  0  0
    4.2471   -1.6428    0.0000 C   0  0  0  0  0  0  0  0  0  0  0  0
    3.5259   -1.2421    0.0000 C   0  0  0  0  0  0  0  0  0  0  0  0
    2.8047   -1.6428    0.0000 C   0  0  0  0  0  0  0  0  0  0  0  0
    2.1236   -1.2421    0.0000 C   0  0  0  0  0  0  0  0  0  0  0  0
    1.4023   -1.6428    0.0000 C   0  0  0  0  0  0  0  0  0  0  0  0
    0.6812   -1.2421    0.0000 C   0  0  0  0  0  0  0  0  0  0  0  0
  1  9  1  0  0  0  0
  2 10  1  0  0  0  0
  3  8  1  0  0  0  0
  3 16  1  0  0  0  0
  4 27  1  0  0  0  0
  5  6  2  0  0  0  0
  5 13  1  0  0  0  0
  6  7  1  0  0  0  0
  6  8  1  0  0  0  0
  7  9  1  0  0  0  0
  7 12  2  0  0  0  0
  8 10  2  0  0  0  0
  9 11  2  0  0  0  0
 10 11  1  0  0  0  0
 12 14  1  0  0  0  0
 13 14  2  0  0  0  0
 13 15  1  0  0  0  0
 15 17  1  0  0  0  0
 16 18  1  0  0  0  0
 17 19  1  0  0  0  0
 19 20  1  0  0  0  0
 20 21  1  0  0  0  0
 21 22  1  0  0  0  0
 22 23  1  0  0  0  0
 23 24  1  0  0  0  0
 24 25  1  0  0  0  0
 25 26  1  0  0  0  0
 26 27  1  0  0  0  0
M  END
> <PUBCHEM_COMPOUND_ID_TYPE>
0

> <PUBCHEM_TOTAL_CHARGE>
0

> <PUBCHEM_SUBSTANCE_ID>
310929522

> <PUBCHEM_SUBSTANCE_VERSION>
1

> <PUBCHEM_EXT_DATASOURCE_NAME>
4488

> <PUBCHEM_EXT_DATASOURCE_REGID>
SCHEMBL16106702

> <PUBCHEM_SUBSTANCE_COMMENT>
InChI=1S/C22H31Cl2NO2/c1-2-27-22-20(24)16-19(23)18-14-13-17(25-21(18)22)12-10-8-6-4-3-5-7-9-11-15-26/h13-14,16,26H,2-12,15H2,1H3
InChIKey=ZVAGGISDAZTVCA-UHFFFAOYSA-N

> <PUBCHEM_SUBSTANCE_SYNONYM>
SCHEMBL16106702

> <PUBCHEM_XREF_EXT_ID>
SCHEMBL16106702

> <PUBCHEM_EXT_DATASOURCE_URL>
https://www.surechembl.org/

> <PUBCHEM_EXT_SUBSTANCE_URL>
https://www.surechembl.org/chemical/SCHEMBL16106702

> <PUBCHEM_CID_ASSOCIATIONS>
85472453  1

> <PUBCHEM_COORDINATE_TYPE>
1
3

$$$$
