310946376
  -OEChem-07211613022D

 53 57  0     1  0  0  0  0  0999 V2000
  -11.8203    4.6114    0.0000 I   0  0  0  0  0  0  0  0  0  0  0  0
  -10.3915    7.0858    0.0000 I   0  0  0  0  0  0  0  0  0  0  0  0
   -6.1056    4.6114    0.0000 P   0  0  0  0  0  0  0  0  0  0  0  0
  -11.8203    6.2611    0.0000 O   0  0  0  0  0  0  0  0  0  0  0  0
   -6.8199    5.0237    0.0000 O   0  0  0  0  0  0  0  0  0  0  0  0
   -5.3912    5.0237    0.0000 O   0  0  0  0  0  0  0  0  0  0  0  0
   -5.5765    5.5239    0.0000 O   0  0  0  0  0  0  0  0  0  0  0  0
   -6.1056    3.7864    0.0000 O   0  0  0  0  0  0  0  0  0  0  0  0
   -8.9630    7.1256    0.0000 O   0  0  0  0  0  0  0  0  0  0  0  0
  -14.6777    4.6114    0.0000 O   0  0  0  0  0  0  0  0  0  0  0  0
   -9.6772    5.8884    0.0000 O   0  0  0  0  0  0  0  0  0  0  0  0
  -15.3921    9.0050    0.0000 O   0  0  0  0  0  0  0  0  0  0  0  0
   -8.2486    5.8884    0.0000 N   0  0  0  0  0  0  0  0  0  0  0  0
  -11.1060    5.8486    0.0000 C   0  0  0  0  0  0  0  0  0  0  0  0
  -11.1060    5.0237    0.0000 C   0  0  0  0  0  0  0  0  0  0  0  0
  -10.3915    6.2611    0.0000 C   0  0  0  0  0  0  0  0  0  0  0  0
   -9.6772    5.0237    0.0000 C   0  0  0  0  0  0  0  0  0  0  0  0
  -10.3915    4.6114    0.0000 C   0  0  0  0  0  0  0  0  0  0  0  0
   -9.6772    5.8486    0.0000 C   0  0  0  0  0  0  0  0  0  0  0  0
   -8.2486    5.0237    0.0000 C   0  0  3  0  0  0  0  0  0  0  0  0
   -8.9630    4.6114    0.0000 C   0  0  0  0  0  0  0  0  0  0  0  0
  -12.5347    5.8486    0.0000 C   0  0  0  0  0  0  0  0  0  0  0  0
   -7.5343    4.6114    0.0000 C   0  0  0  0  0  0  0  0  0  0  0  0
   -4.5294    4.5261    0.0000 C   0  0  0  0  0  0  0  0  0  0  0  0
   -4.5813    5.5222    0.0000 C   0  0  0  0  0  0  0  0  0  0  0  0
  -13.2489    6.2611    0.0000 C   0  0  0  0  0  0  0  0  0  0  0  0
  -12.5347    5.0237    0.0000 C   0  0  0  0  0  0  0  0  0  0  0  0
  -13.9633    5.0237    0.0000 C   0  0  0  0  0  0  0  0  0  0  0  0
   -8.9630    6.3009    0.0000 C   0  0  0  0  0  0  0  0  0  0  0  0
  -13.9633    5.8486    0.0000 C   0  0  0  0  0  0  0  0  0  0  0  0
  -13.2489    4.6114    0.0000 C   0  0  0  0  0  0  0  0  0  0  0  0
   -4.5294    3.5308    0.0000 C   0  0  0  0  0  0  0  0  0  0  0  0
   -4.0852    4.6594    0.0000 C   0  0  0  0  0  0  0  0  0  0  0  0
   -3.6673    5.0237    0.0000 C   0  0  0  0  0  0  0  0  0  0  0  0
   -4.0821    6.3833    0.0000 C   0  0  0  0  0  0  0  0  0  0  0  0
   -9.6772    7.5382    0.0000 C   0  0  0  0  0  0  0  0  0  0  0  0
   -3.6673    3.0332    0.0000 C   0  0  0  0  0  0  0  0  0  0  0  0
   -3.0899    4.6576    0.0000 C   0  0  0  0  0  0  0  0  0  0  0  0
   -2.8054    4.5261    0.0000 C   0  0  0  0  0  0  0  0  0  0  0  0
   -3.0867    6.3814    0.0000 C   0  0  0  0  0  0  0  0  0  0  0  0
  -15.3921    5.0237    0.0000 C   0  0  0  0  0  0  0  0  0  0  0  0
  -15.3921    6.0191    0.0000 C   0  0  0  0  0  0  0  0  0  0  0  0
   -2.8054    3.5308    0.0000 C   0  0  0  0  0  0  0  0  0  0  0  0
   -2.5907    5.5186    0.0000 C   0  0  0  0  0  0  0  0  0  0  0  0
  -14.5300    6.5167    0.0000 C   0  0  0  0  0  0  0  0  0  0  0  0
  -16.2539    6.5167    0.0000 C   0  0  0  0  0  0  0  0  0  0  0  0
  -15.3921    8.0096    0.0000 C   0  0  0  0  0  0  0  0  0  0  0  0
   -9.6772    8.3629    0.0000 C   0  0  0  0  0  0  0  0  0  0  0  0
  -10.3915    7.9505    0.0000 C   0  0  0  0  0  0  0  0  0  0  0  0
  -10.3915    7.1256    0.0000 C   0  0  0  0  0  0  0  0  0  0  0  0
  -14.5300    7.5120    0.0000 C   0  0  0  0  0  0  0  0  0  0  0  0
  -16.2539    7.5120    0.0000 C   0  0  0  0  0  0  0  0  0  0  0  0
  -16.2539    9.5026    0.0000 C   0  0  0  0  0  0  0  0  0  0  0  0
  1 15  1  0  0  0  0
  2 16  1  0  0  0  0
  3  5  1  0  0  0  0
  3  6  1  0  0  0  0
  3  7  1  0  0  0  0
  3  8  2  0  0  0  0
  4 14  1  0  0  0  0
  4 22  1  0  0  0  0
  5 23  1  0  0  0  0
  6 24  1  0  0  0  0
  7 25  1  0  0  0  0
  9 29  1  0  0  0  0
  9 36  1  0  0  0  0
 10 28  1  0  0  0  0
 10 41  1  0  0  0  0
 11 29  2  0  0  0  0
 12 47  1  0  0  0  0
 12 53  1  0  0  0  0
 20 13  1  6  0  0  0
 13 29  1  0  0  0  0
 14 15  2  0  0  0  0
 14 16  1  0  0  0  0
 15 18  1  0  0  0  0
 16 19  2  0  0  0  0
 17 18  2  0  0  0  0
 17 19  1  0  0  0  0
 17 21  1  0  0  0  0
 20 21  1  0  0  0  0
 20 23  1  0  0  0  0
 22 26  2  0  0  0  0
 22 27  1  0  0  0  0
 24 32  2  0  0  0  0
 24 34  1  0  0  0  0
 25 33  2  0  0  0  0
 25 35  1  0  0  0  0
 26 30  1  0  0  0  0
 27 31  2  0  0  0  0
 28 30  2  0  0  0  0
 28 31  1  0  0  0  0
 32 37  1  0  0  0  0
 33 38  1  0  0  0  0
 34 39  2  0  0  0  0
 35 40  2  0  0  0  0
 36 48  1  0  0  0  0
 36 49  1  0  0  0  0
 36 50  1  0  0  0  0
 37 43  2  0  0  0  0
 38 44  2  0  0  0  0
 39 43  1  0  0  0  0
 40 44  1  0  0  0  0
 41 42  1  0  0  0  0
 42 45  2  0  0  0  0
 42 46  1  0  0  0  0
 45 51  1  0  0  0  0
 46 52  2  0  0  0  0
 47 51  2  0  0  0  0
 47 52  1  0  0  0  0
M  END
> <PUBCHEM_COMPOUND_ID_TYPE>
0

> <PUBCHEM_TOTAL_CHARGE>
0

> <PUBCHEM_SUBSTANCE_ID>
310946376

> <PUBCHEM_SUBSTANCE_VERSION>
1

> <PUBCHEM_EXT_DATASOURCE_NAME>
4488

> <PUBCHEM_EXT_DATASOURCE_REGID>
SCHEMBL16124495

> <PUBCHEM_SUBSTANCE_COMMENT>
InChI=1S/C40H40I2NO9P/c1-40(2,3)50-39(44)43-30(27-48-53(45,51-34-11-7-5-8-12-34)52-35-13-9-6-10-14-35)23-29-24-36(41)38(37(42)25-29)49-33-21-19-32(20-22-33)47-26-28-15-17-31(46-4)18-16-28/h5-22,24-25,30H,23,26-27H2,1-4H3,(H,43,44)/t30-/m0/s1
InChIKey=FIMJJSFKRKSETG-PMERELPUSA-N

> <PUBCHEM_SUBSTANCE_SYNONYM>
SCHEMBL16124495

> <PUBCHEM_XREF_EXT_ID>
SCHEMBL16124495

> <PUBCHEM_EXT_DATASOURCE_URL>
https://www.surechembl.org/

> <PUBCHEM_EXT_SUBSTANCE_URL>
https://www.surechembl.org/chemical/SCHEMBL16124495

> <PUBCHEM_CID_ASSOCIATIONS>
117612298  1

> <PUBCHEM_COORDINATE_TYPE>
1
3

> <PUBCHEM_BONDANNOTATIONS>
20  13  6

$$$$
