310941983
  -OEChem-07211613022D

 17 19  0     0  0  0  0  0  0999 V2000
   -2.7480    0.7620    0.0000 F   0  0  0  0  0  0  0  0  0  0  0  0
    2.7480    0.6302    0.0000 O   0  0  0  0  0  0  0  0  0  0  0  0
   -0.4030   -1.5975    0.0000 N   0  0  0  0  0  0  0  0  0  0  0  0
    0.0073   -0.2931    0.0000 C   0  0  0  0  0  0  0  0  0  0  0  0
   -0.8428   -0.2784    0.0000 C   0  0  0  0  0  0  0  0  0  0  0  0
    0.2711   -1.0699    0.0000 C   0  0  0  0  0  0  0  0  0  0  0  0
   -1.1212   -1.0846    0.0000 C   0  0  0  0  0  0  0  0  0  0  0  0
    0.5642    0.3224    0.0000 C   0  0  0  0  0  0  0  0  0  0  0  0
   -1.3996    0.3224    0.0000 C   0  0  0  0  0  0  0  0  0  0  0  0
    1.3703    0.1758    0.0000 C   0  0  0  0  0  0  0  0  0  0  0  0
    1.0773   -1.2458    0.0000 C   0  0  0  0  0  0  0  0  0  0  0  0
   -1.9272   -1.2604    0.0000 C   0  0  0  0  0  0  0  0  0  0  0  0
   -2.2057    0.1612    0.0000 C   0  0  0  0  0  0  0  0  0  0  0  0
    1.6195   -0.6448    0.0000 C   0  0  0  0  0  0  0  0  0  0  0  0
   -2.4549   -0.6448    0.0000 C   0  0  0  0  0  0  0  0  0  0  0  0
    1.8979    0.8060    0.0000 C   0  0  0  0  0  0  0  0  0  0  0  0
    1.6488    1.5975    0.0000 C   0  0  0  0  0  0  0  0  0  0  0  0
  1 13  1  0  0  0  0
  2 16  2  0  0  0  0
  3  6  1  0  0  0  0
  3  7  1  0  0  0  0
  4  5  1  0  0  0  0
  4  6  2  0  0  0  0
  4  8  1  0  0  0  0
  5  7  1  0  0  0  0
  5  9  2  0  0  0  0
  6 11  1  0  0  0  0
  7 12  2  0  0  0  0
  8 10  2  0  0  0  0
  9 13  1  0  0  0  0
 10 14  1  0  0  0  0
 10 16  1  0  0  0  0
 11 14  2  0  0  0  0
 12 15  1  0  0  0  0
 13 15  2  0  0  0  0
 16 17  1  0  0  0  0
M  END
> <PUBCHEM_COMPOUND_ID_TYPE>
0

> <PUBCHEM_TOTAL_CHARGE>
0

> <PUBCHEM_SUBSTANCE_ID>
310941983

> <PUBCHEM_SUBSTANCE_VERSION>
1

> <PUBCHEM_EXT_DATASOURCE_NAME>
4488

> <PUBCHEM_EXT_DATASOURCE_REGID>
SCHEMBL16120017

> <PUBCHEM_SUBSTANCE_COMMENT>
InChI=1S/C14H10FNO/c1-8(17)9-2-4-13-11(6-9)12-7-10(15)3-5-14(12)16-13/h2-7,16H,1H3
InChIKey=AGYZEMKKEGQQRU-UHFFFAOYSA-N

> <PUBCHEM_SUBSTANCE_SYNONYM>
SCHEMBL16120017

> <PUBCHEM_XREF_EXT_ID>
SCHEMBL16120017

> <PUBCHEM_EXT_DATASOURCE_URL>
https://www.surechembl.org/

> <PUBCHEM_EXT_SUBSTANCE_URL>
https://www.surechembl.org/chemical/SCHEMBL16120017

> <PUBCHEM_CID_ASSOCIATIONS>
117608686  1

> <PUBCHEM_COORDINATE_TYPE>
1
3

$$$$
