310945036
  -OEChem-07211613022D

 29 32  0     0  0  0  0  0  0999 V2000
   -3.7337   -1.8774    0.0000 F   0  0  0  0  0  0  0  0  0  0  0  0
    4.4529    0.8409    0.0000 O   0  0  0  0  0  0  0  0  0  0  0  0
   -0.1481   -1.5284    0.0000 O   0  0  0  0  0  0  0  0  0  0  0  0
   -3.0356    1.0313    0.0000 O   0  0  0  0  0  0  0  0  0  0  0  0
    2.6971   -0.4495    0.0000 N   0  0  0  0  0  0  0  0  0  0  0  0
    4.3365   -0.5976    0.0000 N   0  0  0  0  0  0  0  0  0  0  0  0
   -0.8990   -0.2591    0.0000 N   0  0  0  0  0  0  0  0  0  0  0  0
   -3.7337   -0.2168    0.0000 N   0  0  0  0  0  0  0  0  0  0  0  0
    1.8933   -0.1957    0.0000 C   0  0  0  0  0  0  0  0  0  0  0  0
    3.1519    0.2380    0.0000 C   0  0  0  0  0  0  0  0  0  0  0  0
    1.8933    0.6293    0.0000 C   0  0  0  0  0  0  0  0  0  0  0  0
    2.6654    0.8832    0.0000 C   0  0  0  0  0  0  0  0  0  0  0  0
    1.1952   -0.6293    0.0000 C   0  0  0  0  0  0  0  0  0  0  0  0
    3.9769    0.1428    0.0000 C   0  0  0  0  0  0  0  0  0  0  0  0
    0.4760   -0.2274    0.0000 C   0  0  0  0  0  0  0  0  0  0  0  0
    1.1635    1.0207    0.0000 C   0  0  0  0  0  0  0  0  0  0  0  0
    3.0356   -1.2005    0.0000 C   0  0  0  0  0  0  0  0  0  0  0  0
    0.4654    0.5976    0.0000 C   0  0  0  0  0  0  0  0  0  0  0  0
   -0.1375   -0.6822    0.0000 C   0  0  0  0  0  0  0  0  0  0  0  0
    3.8606   -1.2745    0.0000 C   0  0  0  0  0  0  0  0  0  0  0  0
   -1.5971   -0.6188    0.0000 C   0  0  0  0  0  0  0  0  0  0  0  0
   -3.0250   -0.6293    0.0000 C   0  0  0  0  0  0  0  0  0  0  0  0
   -2.3163   -0.2274    0.0000 C   0  0  0  0  0  0  0  0  0  0  0  0
   -3.0356   -1.4543    0.0000 C   0  0  0  0  0  0  0  0  0  0  0  0
   -1.6077   -1.4543    0.0000 C   0  0  0  0  0  0  0  0  0  0  0  0
   -2.3058   -1.8668    0.0000 C   0  0  0  0  0  0  0  0  0  0  0  0
   -3.7442    0.6188    0.0000 C   0  0  0  0  0  0  0  0  0  0  0  0
   -4.4529    1.0418    0.0000 C   0  0  0  0  0  0  0  0  0  0  0  0
   -4.4106    1.8774    0.0000 C   0  0  0  0  0  0  0  0  0  0  0  0
  1 24  1  0  0  0  0
  2 14  2  0  0  0  0
  3 19  2  0  0  0  0
  4 27  2  0  0  0  0
  5  9  1  0  0  0  0
  5 10  1  0  0  0  0
  5 17  1  0  0  0  0
  6 14  1  0  0  0  0
  6 20  1  0  0  0  0
  7 19  1  0  0  0  0
  7 21  1  0  0  0  0
  8 22  1  0  0  0  0
  8 27  1  0  0  0  0
  9 11  2  0  0  0  0
  9 13  1  0  0  0  0
 10 12  2  0  0  0  0
 10 14  1  0  0  0  0
 11 12  1  0  0  0  0
 11 16  1  0  0  0  0
 13 15  2  0  0  0  0
 15 18  1  0  0  0  0
 15 19  1  0  0  0  0
 16 18  2  0  0  0  0
 17 20  1  0  0  0  0
 21 23  2  0  0  0  0
 21 25  1  0  0  0  0
 22 23  1  0  0  0  0
 22 24  2  0  0  0  0
 24 26  1  0  0  0  0
 25 26  2  0  0  0  0
 27 28  1  0  0  0  0
 28 29  2  0  0  0  0
M  END
> <PUBCHEM_COMPOUND_ID_TYPE>
0

> <PUBCHEM_TOTAL_CHARGE>
0

> <PUBCHEM_SUBSTANCE_ID>
310945036

> <PUBCHEM_SUBSTANCE_VERSION>
1

> <PUBCHEM_EXT_DATASOURCE_NAME>
4488

> <PUBCHEM_EXT_DATASOURCE_REGID>
SCHEMBL16123124

> <PUBCHEM_SUBSTANCE_COMMENT>
InChI=1S/C21H17FN4O3/c1-2-19(27)25-16-11-14(5-6-15(16)22)24-20(28)13-4-3-12-9-18-21(29)23-7-8-26(18)17(12)10-13/h2-6,9-11H,1,7-8H2,(H,23,29)(H,24,28)(H,25,27)
InChIKey=XVGJEBALAPHJDQ-UHFFFAOYSA-N

> <PUBCHEM_SUBSTANCE_SYNONYM>
SCHEMBL16123124

> <PUBCHEM_XREF_EXT_ID>
SCHEMBL16123124

> <PUBCHEM_EXT_DATASOURCE_URL>
https://www.surechembl.org/

> <PUBCHEM_EXT_SUBSTANCE_URL>
https://www.surechembl.org/chemical/SCHEMBL16123124

> <PUBCHEM_CID_ASSOCIATIONS>
117611164  1

> <PUBCHEM_COORDINATE_TYPE>
1
3

$$$$
