310944875
  -OEChem-07211613022D

 34 38  0     0  0  0  0  0  0999 V2000
    0.0088    2.3955    0.0000 Cl  0  0  0  0  0  0  0  0  0  0  0  0
   -3.3081   -1.4302    0.0000 S   0  0  0  0  0  0  0  0  0  0  0  0
    3.1677   -2.5885    0.0000 O   0  0  0  0  0  0  0  0  0  0  0  0
   -3.4484   -2.7640    0.0000 N   0  0  0  0  0  0  0  0  0  0  0  0
    3.8521    2.7640    0.0000 N   0  0  0  0  0  0  0  0  0  0  0  0
    0.3071    0.7107    0.0000 C   0  0  0  0  0  0  0  0  0  0  0  0
    0.2720   -0.1141    0.0000 C   0  0  0  0  0  0  0  0  0  0  0  0
    0.9915    1.1319    0.0000 C   0  0  0  0  0  0  0  0  0  0  0  0
   -0.4651    1.1495    0.0000 C   0  0  0  0  0  0  0  0  0  0  0  0
   -0.4124   -0.5352    0.0000 C   0  0  0  0  0  0  0  0  0  0  0  0
    1.0091   -0.5352    0.0000 C   0  0  0  0  0  0  0  0  0  0  0  0
    1.0091    1.9743    0.0000 C   0  0  0  0  0  0  0  0  0  0  0  0
    1.7111    0.7283    0.0000 C   0  0  0  0  0  0  0  0  0  0  0  0
   -1.2022    0.9213    0.0000 C   0  0  0  0  0  0  0  0  0  0  0  0
   -0.6406    1.9217    0.0000 C   0  0  0  0  0  0  0  0  0  0  0  0
   -1.1495   -0.1316    0.0000 C   0  0  0  0  0  0  0  0  0  0  0  0
   -0.4299   -1.3776    0.0000 C   0  0  0  0  0  0  0  0  0  0  0  0
   -1.8514   -1.3776    0.0000 C   0  0  0  0  0  0  0  0  0  0  0  0
    1.0091   -1.3776    0.0000 C   0  0  0  0  0  0  0  0  0  0  0  0
    1.6935   -0.1316    0.0000 C   0  0  0  0  0  0  0  0  0  0  0  0
   -1.3952    1.7286    0.0000 C   0  0  0  0  0  0  0  0  0  0  0  0
    1.7111    2.3779    0.0000 C   0  0  0  0  0  0  0  0  0  0  0  0
    2.4306    1.9743    0.0000 C   0  0  0  0  0  0  0  0  0  0  0  0
   -1.8163   -0.5352    0.0000 C   0  0  0  0  0  0  0  0  0  0  0  0
   -1.1144   -1.7812    0.0000 C   0  0  0  0  0  0  0  0  0  0  0  0
    2.4130    1.1319    0.0000 C   0  0  0  0  0  0  0  0  0  0  0  0
   -2.5534   -1.7812    0.0000 C   0  0  0  0  0  0  0  0  0  0  0  0
    1.7286   -1.7812    0.0000 C   0  0  0  0  0  0  0  0  0  0  0  0
    2.4130   -0.5352    0.0000 C   0  0  0  0  0  0  0  0  0  0  0  0
    2.4130   -1.3601    0.0000 C   0  0  0  0  0  0  0  0  0  0  0  0
   -2.6587   -2.6236    0.0000 C   0  0  0  0  0  0  0  0  0  0  0  0
    3.1501    2.3955    0.0000 C   0  0  0  0  0  0  0  0  0  0  0  0
    3.1501   -1.7812    0.0000 C   0  0  0  0  0  0  0  0  0  0  0  0
   -3.8521   -2.0621    0.0000 C   0  0  0  0  0  0  0  0  0  0  0  0
  1 12  1  0  0  0  0
  2 27  1  0  0  0  0
  2 34  1  0  0  0  0
  3 33  2  0  0  0  0
  4 31  1  0  0  0  0
  4 34  2  0  0  0  0
  5 32  3  0  0  0  0
  6  7  2  0  0  0  0
  6  8  1  0  0  0  0
  6  9  1  0  0  0  0
  7 10  1  0  0  0  0
  7 11  1  0  0  0  0
  8 12  1  0  0  0  0
  8 13  2  0  0  0  0
  9 14  1  0  0  0  0
  9 15  1  0  0  0  0
 10 16  2  0  0  0  0
 10 17  1  0  0  0  0
 11 19  2  0  0  0  0
 11 20  1  0  0  0  0
 12 22  2  0  0  0  0
 13 26  1  0  0  0  0
 14 21  1  0  0  0  0
 15 21  1  0  0  0  0
 16 24  1  0  0  0  0
 17 25  2  0  0  0  0
 18 24  2  0  0  0  0
 18 25  1  0  0  0  0
 18 27  1  0  0  0  0
 19 28  1  0  0  0  0
 20 29  2  0  0  0  0
 22 23  1  0  0  0  0
 23 26  2  0  0  0  0
 23 32  1  0  0  0  0
 27 31  2  0  0  0  0
 28 30  2  0  0  0  0
 29 30  1  0  0  0  0
 30 33  1  0  0  0  0
M  END
> <PUBCHEM_COMPOUND_ID_TYPE>
0

> <PUBCHEM_TOTAL_CHARGE>
0

> <PUBCHEM_SUBSTANCE_ID>
310944875

> <PUBCHEM_SUBSTANCE_VERSION>
1

> <PUBCHEM_EXT_DATASOURCE_NAME>
4488

> <PUBCHEM_EXT_DATASOURCE_REGID>
SCHEMBL16122959

> <PUBCHEM_SUBSTANCE_COMMENT>
InChI=1S/C29H21ClN2OS/c30-26-14-20(15-31)6-13-25(26)29(22-2-1-3-22)28(23-7-4-19(17-33)5-8-23)24-11-9-21(10-12-24)27-16-32-18-34-27/h4-14,16-18,22H,1-3H2/b29-28+
InChIKey=BFLIIRBRKSXHRP-ZQHSETAFSA-N

> <PUBCHEM_SUBSTANCE_SYNONYM>
SCHEMBL16122959

> <PUBCHEM_XREF_EXT_ID>
SCHEMBL16122959

> <PUBCHEM_EXT_DATASOURCE_URL>
https://www.surechembl.org/

> <PUBCHEM_EXT_SUBSTANCE_URL>
https://www.surechembl.org/chemical/SCHEMBL16122959

> <PUBCHEM_CID_ASSOCIATIONS>
117611069  1

> <PUBCHEM_COORDINATE_TYPE>
1
3

$$$$
