310946784
  -OEChem-07211613022D

 39 42  0     1  0  0  0  0  0999 V2000
    2.0938   -4.6666    0.0000 F   0  0  0  0  0  0  0  0  0  0  0  0
    3.4272   -4.1783    0.0000 F   0  0  0  0  0  0  0  0  0  0  0  0
    2.9013   -4.8168    0.0000 F   0  0  0  0  0  0  0  0  0  0  0  0
   -2.0188    1.2676    0.0000 O   0  0  0  0  0  0  0  0  0  0  0  0
   -2.6948   -2.9201    0.0000 O   0  0  0  0  0  0  0  0  0  0  0  0
   -1.0235    3.2018    0.0000 O   0  0  0  0  0  0  0  0  0  0  0  0
   -2.4131    2.8450    0.0000 O   0  0  0  0  0  0  0  0  0  0  0  0
    2.8638   -2.6384    0.0000 O   0  0  0  0  0  0  0  0  0  0  0  0
   -1.2488   -0.5727    0.0000 N   0  0  0  0  0  0  0  0  0  0  0  0
   -0.7230   -1.2488    0.0000 N   0  0  0  0  0  0  0  0  0  0  0  0
   -0.9296   -2.7323    0.0000 N   0  0  0  0  0  0  0  0  0  0  0  0
   -3.4272   -1.6807    0.0000 N   0  0  0  0  0  0  0  0  0  0  0  0
    1.1361    0.0469    0.0000 N   0  0  0  0  0  0  0  0  0  0  0  0
   -1.0235    0.2347    0.0000 C   0  0  3  0  0  0  0  0  0  0  0  0
   -2.0000   -0.8357    0.0000 C   0  0  0  0  0  0  0  0  0  0  0  0
   -2.0188   -1.6620    0.0000 C   0  0  0  0  0  0  0  0  0  0  0  0
   -1.2300   -1.9437    0.0000 C   0  0  0  0  0  0  0  0  0  0  0  0
   -2.6948   -2.0750    0.0000 C   0  0  0  0  0  0  0  0  0  0  0  0
   -1.8498    0.4601    0.0000 C   0  0  0  0  0  0  0  0  0  0  0  0
   -0.4413    0.7793    0.0000 C   0  0  0  0  0  0  0  0  0  0  0  0
   -2.7323   -0.4413    0.0000 C   0  0  0  0  0  0  0  0  0  0  0  0
   -0.4601   -0.3474    0.0000 C   0  0  0  0  0  0  0  0  0  0  0  0
   -1.4366    1.8498    0.0000 C   0  0  3  0  0  0  0  0  0  0  0  0
   -0.5915    1.6056    0.0000 C   0  0  0  0  0  0  0  0  0  0  0  0
   -3.4084   -0.8544    0.0000 C   0  0  0  0  0  0  0  0  0  0  0  0
   -0.1220   -2.8638    0.0000 C   0  0  0  0  0  0  0  0  0  0  0  0
   -1.6056    2.6197    0.0000 C   0  0  0  0  0  0  0  0  0  0  0  0
    0.3286   -0.1596    0.0000 C   0  0  0  0  0  0  0  0  0  0  0  0
    0.1784   -3.6338    0.0000 C   0  0  0  0  0  0  0  0  0  0  0  0
    0.4225   -2.2441    0.0000 C   0  0  0  0  0  0  0  0  0  0  0  0
    1.4929   -3.1267    0.0000 C   0  0  0  0  0  0  0  0  0  0  0  0
    1.0047   -3.7464    0.0000 C   0  0  0  0  0  0  0  0  0  0  0  0
    1.2300   -2.3755    0.0000 C   0  0  0  0  0  0  0  0  0  0  0  0
    2.3192   -3.2582    0.0000 C   0  0  3  0  0  0  0  0  0  0  0  0
    2.6197   -4.0469    0.0000 C   0  0  0  0  0  0  0  0  0  0  0  0
   -1.2488    4.0281    0.0000 C   0  0  0  0  0  0  0  0  0  0  0  0
   -1.4178    4.8168    0.0000 C   0  0  0  0  0  0  0  0  0  0  0  0
   -2.0376    4.2158    0.0000 C   0  0  0  0  0  0  0  0  0  0  0  0
   -0.6103    4.5727    0.0000 C   0  0  0  0  0  0  0  0  0  0  0  0
  1 35  1  0  0  0  0
  2 35  1  0  0  0  0
  3 35  1  0  0  0  0
  4 19  1  0  0  0  0
  4 23  1  0  0  0  0
  5 18  2  0  0  0  0
  6 27  1  0  0  0  0
  6 36  1  0  0  0  0
  7 27  2  0  0  0  0
 34  8  1  1  0  0  0
  9 10  1  0  0  0  0
  9 14  1  0  0  0  0
  9 15  1  0  0  0  0
 10 17  2  0  0  0  0
 11 17  1  0  0  0  0
 11 26  1  0  0  0  0
 12 18  1  0  0  0  0
 12 25  1  0  0  0  0
 13 28  3  0  0  0  0
 14 19  1  0  0  0  0
 14 20  1  0  0  0  0
 14 22  1  6  0  0  0
 15 16  2  0  0  0  0
 15 21  1  0  0  0  0
 16 17  1  0  0  0  0
 16 18  1  0  0  0  0
 20 24  1  0  0  0  0
 21 25  2  0  0  0  0
 22 28  1  0  0  0  0
 23 24  1  0  0  0  0
 23 27  1  6  0  0  0
 26 29  2  0  0  0  0
 26 30  1  0  0  0  0
 29 32  1  0  0  0  0
 30 33  2  0  0  0  0
 31 32  2  0  0  0  0
 31 33  1  0  0  0  0
 31 34  1  0  0  0  0
 34 35  1  0  0  0  0
 36 37  1  0  0  0  0
 36 38  1  0  0  0  0
 36 39  1  0  0  0  0
M  END
> <PUBCHEM_COMPOUND_ID_TYPE>
0

> <PUBCHEM_TOTAL_CHARGE>
0

> <PUBCHEM_SUBSTANCE_ID>
310946784

> <PUBCHEM_SUBSTANCE_VERSION>
1

> <PUBCHEM_EXT_DATASOURCE_NAME>
4488

> <PUBCHEM_EXT_DATASOURCE_REGID>
SCHEMBL16124908

> <PUBCHEM_SUBSTANCE_COMMENT>
InChI=1S/C26H28F3N5O5/c1-24(2,3)39-23(37)18-8-10-25(11-12-30,14-38-18)34-17-9-13-31-22(36)19(17)21(33-34)32-16-6-4-15(5-7-16)20(35)26(27,28)29/h4-7,9,13,18,20,35H,8,10-11,14H2,1-3H3,(H,31,36)(H,32,33)/t18-,20+,25-/m0/s1
InChIKey=PCBXBEAUPXYULI-NNPDTBDGSA-N

> <PUBCHEM_SUBSTANCE_SYNONYM>
SCHEMBL16124908

> <PUBCHEM_XREF_EXT_ID>
SCHEMBL16124908

> <PUBCHEM_EXT_DATASOURCE_URL>
https://www.surechembl.org/

> <PUBCHEM_EXT_SUBSTANCE_URL>
https://www.surechembl.org/chemical/SCHEMBL16124908

> <PUBCHEM_CID_ASSOCIATIONS>
117612645  1

> <PUBCHEM_COORDINATE_TYPE>
1
3

> <PUBCHEM_BONDANNOTATIONS>
14  22  6
23  27  6
34  8  5

$$$$
