310939766
  -OEChem-07211613022D

 15 16  0     0  0  0  0  0  0999 V2000
    1.9078  -11.5888    0.0000 Cl  0  0  0  0  0  0  0  0  0  0  0  0
    0.4789  -14.0638    0.0000 O   0  0  0  0  0  0  0  0  0  0  0  0
    2.6223  -12.8263    0.0000 C   0  0  0  0  0  0  0  0  0  0  0  0
    1.9078  -14.0638    0.0000 C   0  0  0  0  0  0  0  0  0  0  0  0
    3.3368  -12.4138    0.0000 C   0  0  0  0  0  0  0  0  0  0  0  0
    1.9078  -12.4138    0.0000 C   0  0  0  0  0  0  0  0  0  0  0  0
    2.6223  -13.6513    0.0000 C   0  0  0  0  0  0  0  0  0  0  0  0
    1.1933  -13.6513    0.0000 C   0  0  0  0  0  0  0  0  0  0  0  0
    1.9078  -14.8888    0.0000 C   0  0  0  0  0  0  0  0  0  0  0  0
    1.1933  -12.8263    0.0000 C   0  0  0  0  0  0  0  0  0  0  0  0
    4.1618  -12.4138    0.0000 C   0  0  0  0  0  0  0  0  0  0  0  0
    3.7493  -11.6993    0.0000 C   0  0  0  0  0  0  0  0  0  0  0  0
    2.7328  -14.8888    0.0000 C   0  0  0  0  0  0  0  0  0  0  0  0
    1.0828  -14.8888    0.0000 C   0  0  0  0  0  0  0  0  0  0  0  0
    1.9078  -15.7138    0.0000 C   0  0  0  0  0  0  0  0  0  0  0  0
  1  6  1  0  0  0  0
  2  8  1  0  0  0  0
  3  5  1  0  0  0  0
  3  6  2  0  0  0  0
  3  7  1  0  0  0  0
  4  7  2  0  0  0  0
  4  8  1  0  0  0  0
  4  9  1  0  0  0  0
  5 11  1  0  0  0  0
  5 12  1  0  0  0  0
  6 10  1  0  0  0  0
  8 10  2  0  0  0  0
  9 13  1  0  0  0  0
  9 14  1  0  0  0  0
  9 15  1  0  0  0  0
 11 12  1  0  0  0  0
M  END
> <PUBCHEM_COMPOUND_ID_TYPE>
0

> <PUBCHEM_TOTAL_CHARGE>
0

> <PUBCHEM_SUBSTANCE_ID>
310939766

> <PUBCHEM_SUBSTANCE_VERSION>
1

> <PUBCHEM_EXT_DATASOURCE_NAME>
4488

> <PUBCHEM_EXT_DATASOURCE_REGID>
SCHEMBL16117696

> <PUBCHEM_SUBSTANCE_COMMENT>
InChI=1S/C13H17ClO/c1-13(2,3)10-6-9(8-4-5-8)11(14)7-12(10)15/h6-8,15H,4-5H2,1-3H3
InChIKey=RVWBHUDWJJQCMY-UHFFFAOYSA-N

> <PUBCHEM_SUBSTANCE_SYNONYM>
SCHEMBL16117696

> <PUBCHEM_XREF_EXT_ID>
SCHEMBL16117696

> <PUBCHEM_EXT_DATASOURCE_URL>
https://www.surechembl.org/

> <PUBCHEM_EXT_SUBSTANCE_URL>
https://www.surechembl.org/chemical/SCHEMBL16117696

> <PUBCHEM_CID_ASSOCIATIONS>
117606988  1

> <PUBCHEM_COORDINATE_TYPE>
1
3

> <PUBCHEM_BONDANNOTATIONS>
9  13  3
9  14  3

$$$$
