310938118
  -OEChem-07211613022D

 30 31  0     1  0  0  0  0  0999 V2000
    7.3926   -2.9343    0.0000 O   0  0  0  0  0  0  0  0  0  0  0  0
    5.6980   -1.1932    0.0000 O   0  0  0  0  0  0  0  0  0  0  0  0
    5.9951    0.2045    0.0000 O   0  0  0  0  0  0  0  0  0  0  0  0
    3.2676   -4.3632    0.0000 O   0  0  0  0  0  0  0  0  0  0  0  0
    3.2676   -2.9343    0.0000 O   0  0  0  0  0  0  0  0  0  0  0  0
    7.3926   -1.5053    0.0000 N   0  0  0  0  0  0  0  0  0  0  0  0
    4.5051   -3.6487    0.0000 N   0  0  0  0  0  0  0  0  0  0  0  0
    6.1551   -3.6487    0.0000 N   0  0  0  0  0  0  0  0  0  0  0  0
    8.2131   -1.4191    0.0000 C   0  0  0  0  0  0  0  0  0  0  0  0
    7.0570   -0.7516    0.0000 C   0  0  3  0  0  0  0  0  0  0  0  0
    8.3846   -0.6121    0.0000 C   0  0  0  0  0  0  0  0  0  0  0  0
    6.9801   -2.2198    0.0000 C   0  0  0  0  0  0  0  0  0  0  0  0
    7.6701   -0.1996    0.0000 C   0  0  0  0  0  0  0  0  0  0  0  0
    6.2501   -0.5801    0.0000 C   0  0  0  0  0  0  0  0  0  0  0  0
    8.8262   -1.9711    0.0000 C   0  0  0  0  0  0  0  0  0  0  0  0
    9.1692   -0.3572    0.0000 C   0  0  0  0  0  0  0  0  0  0  0  0
    6.1551   -2.2198    0.0000 C   0  0  0  0  0  0  0  0  0  0  0  0
    5.7426   -2.9343    0.0000 C   0  0  3  0  0  0  0  0  0  0  0  0
    4.9176   -2.9343    0.0000 C   0  0  3  0  0  0  0  0  0  0  0  0
    9.6108   -1.7162    0.0000 C   0  0  0  0  0  0  0  0  0  0  0  0
    9.7823   -0.9092    0.0000 C   0  0  0  0  0  0  0  0  0  0  0  0
    4.5051   -2.2198    0.0000 C   0  0  3  0  0  0  0  0  0  0  0  0
    3.6801   -3.6487    0.0000 C   0  0  0  0  0  0  0  0  0  0  0  0
    2.4426   -4.3632    0.0000 C   0  0  0  0  0  0  0  0  0  0  0  0
    3.6801   -2.2198    0.0000 C   0  0  0  0  0  0  0  0  0  0  0  0
    4.9176   -1.5053    0.0000 C   0  0  0  0  0  0  0  0  0  0  0  0
    1.6176   -4.3632    0.0000 C   0  0  0  0  0  0  0  0  0  0  0  0
    2.4426   -5.1882    0.0000 C   0  0  0  0  0  0  0  0  0  0  0  0
    2.4426   -3.5382    0.0000 C   0  0  0  0  0  0  0  0  0  0  0  0
    3.2676   -1.5053    0.0000 C   0  0  0  0  0  0  0  0  0  0  0  0
  1 12  2  0  0  0  0
  2 14  2  0  0  0  0
  3 14  1  0  0  0  0
  4 23  1  0  0  0  0
  4 24  1  0  0  0  0
  5 23  2  0  0  0  0
  6  9  1  0  0  0  0
  6 10  1  0  0  0  0
  6 12  1  0  0  0  0
 19  7  1  1  0  0  0
  7 23  1  0  0  0  0
  8 18  1  0  0  0  0
  9 11  1  0  0  0  0
  9 15  2  0  0  0  0
 10 13  1  0  0  0  0
 10 14  1  0  0  0  0
 11 13  1  0  0  0  0
 11 16  2  0  0  0  0
 12 17  1  0  0  0  0
 15 20  1  0  0  0  0
 16 21  1  0  0  0  0
 17 18  1  0  0  0  0
 18 19  1  0  0  0  0
 19 22  1  0  0  0  0
 20 21  2  0  0  0  0
 22 25  1  0  0  0  0
 22 26  1  6  0  0  0
 24 27  1  0  0  0  0
 24 28  1  0  0  0  0
 24 29  1  0  0  0  0
 25 30  1  0  0  0  0
M  END
> <PUBCHEM_COMPOUND_ID_TYPE>
0

> <PUBCHEM_TOTAL_CHARGE>
0

> <PUBCHEM_SUBSTANCE_ID>
310938118

> <PUBCHEM_SUBSTANCE_VERSION>
1

> <PUBCHEM_EXT_DATASOURCE_NAME>
4488

> <PUBCHEM_EXT_DATASOURCE_REGID>
SCHEMBL16115968

> <PUBCHEM_SUBSTANCE_COMMENT>
InChI=1S/C22H33N3O5/c1-6-13(2)19(24-21(29)30-22(3,4)5)15(23)12-18(26)25-16-10-8-7-9-14(16)11-17(25)20(27)28/h7-10,13,15,17,19H,6,11-12,23H2,1-5H3,(H,24,29)(H,27,28)/t13-,15?,17?,19-/m0/s1
InChIKey=VOBOASBXRJEKJZ-LZNLVDOCSA-N

> <PUBCHEM_SUBSTANCE_SYNONYM>
SCHEMBL16115968

> <PUBCHEM_XREF_EXT_ID>
SCHEMBL16115968

> <PUBCHEM_EXT_DATASOURCE_URL>
https://www.surechembl.org/

> <PUBCHEM_EXT_SUBSTANCE_URL>
https://www.surechembl.org/chemical/SCHEMBL16115968

> <PUBCHEM_CID_ASSOCIATIONS>
117605679  1

> <PUBCHEM_COORDINATE_TYPE>
1
3

> <PUBCHEM_BONDANNOTATIONS>
22  26  6
19  7  5

$$$$
