310938195
  -OEChem-07211613022D

 30 35  0     0  0  0  0  0  0999 V2000
    0.0836   -4.5594    0.0000 F   0  0  0  0  0  0  0  0  0  0  0  0
    3.6392   -1.6314    0.0000 O   0  0  0  0  0  0  0  0  0  0  0  0
    0.9621   -6.0235    0.0000 N   0  0  0  0  0  0  0  0  0  0  0  0
    2.1751   -5.2706    0.0000 N   0  0  0  0  0  0  0  0  0  0  0  0
    0.0000   -6.9019    0.0000 N   0  0  0  0  0  0  0  0  0  0  0  0
    3.4300   -4.5594    0.0000 N   0  0  0  0  0  0  0  0  0  0  0  0
    2.1751   -3.8483    0.0000 N   0  0  0  0  0  0  0  0  0  0  0  0
    4.7268   -2.3843    0.0000 C   0  0  0  0  0  0  0  0  0  0  0  0
    1.3804   -5.2706    0.0000 C   0  0  0  0  0  0  0  0  0  0  0  0
    3.8901   -2.3843    0.0000 C   0  0  0  0  0  0  0  0  0  0  0  0
    1.3385   -6.7345    0.0000 C   0  0  0  0  0  0  0  0  0  0  0  0
    4.9359   -1.6314    0.0000 C   0  0  0  0  0  0  0  0  0  0  0  0
    4.3085   -1.1294    0.0000 C   0  0  0  0  0  0  0  0  0  0  0  0
    0.6693   -7.3202    0.0000 C   0  0  0  0  0  0  0  0  0  0  0  0
    3.8483   -3.8483    0.0000 C   0  0  0  0  0  0  0  0  0  0  0  0
    0.9203   -4.5594    0.0000 C   0  0  0  0  0  0  0  0  0  0  0  0
    2.5935   -4.5594    0.0000 C   0  0  0  0  0  0  0  0  0  0  0  0
    3.4300   -3.1372    0.0000 C   0  0  0  0  0  0  0  0  0  0  0  0
    0.1255   -6.0653    0.0000 C   0  0  0  0  0  0  0  0  0  0  0  0
    5.1450   -3.1372    0.0000 C   0  0  0  0  0  0  0  0  0  0  0  0
    4.6849   -3.8483    0.0000 C   0  0  0  0  0  0  0  0  0  0  0  0
    2.0915   -6.9856    0.0000 C   0  0  0  0  0  0  0  0  0  0  0  0
    5.6888   -1.2967    0.0000 C   0  0  0  0  0  0  0  0  0  0  0  0
    1.3804   -3.8483    0.0000 C   0  0  0  0  0  0  0  0  0  0  0  0
    4.3921   -0.3347    0.0000 C   0  0  0  0  0  0  0  0  0  0  0  0
    0.8784   -8.1150    0.0000 C   0  0  0  0  0  0  0  0  0  0  0  0
    2.3006   -7.7803    0.0000 C   0  0  0  0  0  0  0  0  0  0  0  0
    5.8143   -0.5020    0.0000 C   0  0  0  0  0  0  0  0  0  0  0  0
    5.1450    0.0000    0.0000 C   0  0  0  0  0  0  0  0  0  0  0  0
    1.6314   -8.3659    0.0000 C   0  0  0  0  0  0  0  0  0  0  0  0
  1 16  1  0  0  0  0
  2 10  1  0  0  0  0
  2 13  1  0  0  0  0
  3  9  1  0  0  0  0
  3 11  1  0  0  0  0
  3 19  1  0  0  0  0
  4  9  2  0  0  0  0
  4 17  1  0  0  0  0
  5 14  1  0  0  0  0
  5 19  2  0  0  0  0
  6 15  1  0  0  0  0
  6 17  1  0  0  0  0
  7 17  2  0  0  0  0
  7 24  1  0  0  0  0
  8 10  2  0  0  0  0
  8 12  1  0  0  0  0
  8 20  1  0  0  0  0
  9 16  1  0  0  0  0
 10 18  1  0  0  0  0
 11 14  2  0  0  0  0
 11 22  1  0  0  0  0
 12 13  2  0  0  0  0
 12 23  1  0  0  0  0
 13 25  1  0  0  0  0
 14 26  1  0  0  0  0
 15 18  2  0  0  0  0
 15 21  1  0  0  0  0
 16 24  2  0  0  0  0
 20 21  2  0  0  0  0
 22 27  2  0  0  0  0
 23 28  2  0  0  0  0
 25 29  2  0  0  0  0
 26 30  2  0  0  0  0
 27 30  1  0  0  0  0
 28 29  1  0  0  0  0
M  END
> <PUBCHEM_COMPOUND_ID_TYPE>
0

> <PUBCHEM_TOTAL_CHARGE>
0

> <PUBCHEM_SUBSTANCE_ID>
310938195

> <PUBCHEM_SUBSTANCE_VERSION>
1

> <PUBCHEM_EXT_DATASOURCE_NAME>
4488

> <PUBCHEM_EXT_DATASOURCE_REGID>
SCHEMBL16116050

> <PUBCHEM_SUBSTANCE_COMMENT>
InChI=1S/C23H14FN5O/c24-17-12-25-23(28-22(17)29-13-26-18-6-2-3-7-19(18)29)27-14-9-10-16-15-5-1-4-8-20(15)30-21(16)11-14/h1-13H,(H,25,27,28)
InChIKey=KTXXEIVOBGOPRL-UHFFFAOYSA-N

> <PUBCHEM_SUBSTANCE_SYNONYM>
SCHEMBL16116050

> <PUBCHEM_XREF_EXT_ID>
SCHEMBL16116050

> <PUBCHEM_EXT_DATASOURCE_URL>
https://www.surechembl.org/

> <PUBCHEM_EXT_SUBSTANCE_URL>
https://www.surechembl.org/chemical/SCHEMBL16116050

> <PUBCHEM_CID_ASSOCIATIONS>
86300537  1

> <PUBCHEM_COORDINATE_TYPE>
1
3

$$$$
