310938644
  -OEChem-07211613022D

 29 31  0     0  0  0  0  0  0999 V2000
   -3.4281   -2.7187    0.0000 Cl  0  0  0  0  0  0  0  0  0  0  0  0
    1.5734   -0.6562    0.0000 S   0  0  0  0  0  0  0  0  0  0  0  0
    0.1444   -3.1312    0.0000 O   0  0  0  0  0  0  0  0  0  0  0  0
    0.8589   -4.3687    0.0000 O   0  0  0  0  0  0  0  0  0  0  0  0
   -3.4281   -5.1937    0.0000 O   0  0  0  0  0  0  0  0  0  0  0  0
    0.8589   -1.8937    0.0000 N   0  0  0  0  0  0  0  0  0  0  0  0
    2.2878   -1.8937    0.0000 N   0  0  0  0  0  0  0  0  0  0  0  0
    2.2878   -4.3687    0.0000 N   0  0  0  0  0  0  0  0  0  0  0  0
    3.7169   -5.1937    0.0000 N   0  0  0  0  0  0  0  0  0  0  0  0
    4.4312   -3.9562    0.0000 N   0  0  0  0  0  0  0  0  0  0  0  0
    1.5734   -3.1312    0.0000 C   0  0  0  0  0  0  0  0  0  0  0  0
    0.8589   -2.7187    0.0000 C   0  0  0  0  0  0  0  0  0  0  0  0
    1.5734   -3.9562    0.0000 C   0  0  0  0  0  0  0  0  0  0  0  0
    1.5734   -1.4812    0.0000 C   0  0  0  0  0  0  0  0  0  0  0  0
    2.2878   -2.7187    0.0000 C   0  0  0  0  0  0  0  0  0  0  0  0
   -1.2845   -3.1312    0.0000 C   0  0  0  0  0  0  0  0  0  0  0  0
   -0.5701   -2.7187    0.0000 C   0  0  0  0  0  0  0  0  0  0  0  0
   -2.7135   -3.1312    0.0000 C   0  0  0  0  0  0  0  0  0  0  0  0
   -2.7135   -3.9562    0.0000 C   0  0  0  0  0  0  0  0  0  0  0  0
   -1.9990   -2.7187    0.0000 C   0  0  0  0  0  0  0  0  0  0  0  0
   -1.2845   -3.9562    0.0000 C   0  0  0  0  0  0  0  0  0  0  0  0
   -1.9990   -4.3687    0.0000 C   0  0  0  0  0  0  0  0  0  0  0  0
    3.0023   -3.9562    0.0000 C   0  0  0  0  0  0  0  0  0  0  0  0
    3.7169   -4.3687    0.0000 C   0  0  0  0  0  0  0  0  0  0  0  0
   -3.4281   -4.3687    0.0000 C   0  0  0  0  0  0  0  0  0  0  0  0
    0.8589   -0.2437    0.0000 C   0  0  0  0  0  0  0  0  0  0  0  0
    4.4312   -5.6062    0.0000 C   0  0  0  0  0  0  0  0  0  0  0  0
    5.1458   -4.3687    0.0000 C   0  0  0  0  0  0  0  0  0  0  0  0
    5.1458   -5.1937    0.0000 C   0  0  0  0  0  0  0  0  0  0  0  0
  1 18  1  0  0  0  0
  2 14  1  0  0  0  0
  2 26  1  0  0  0  0
  3 12  1  0  0  0  0
  3 17  1  0  0  0  0
  4 13  2  0  0  0  0
  5 25  1  0  0  0  0
  6 12  2  0  0  0  0
  6 14  1  0  0  0  0
  7 14  2  0  0  0  0
  7 15  1  0  0  0  0
  8 13  1  0  0  0  0
  8 23  1  0  0  0  0
  9 24  2  0  0  0  0
  9 27  1  0  0  0  0
 10 24  1  0  0  0  0
 10 28  2  0  0  0  0
 11 12  1  0  0  0  0
 11 13  1  0  0  0  0
 11 15  2  0  0  0  0
 16 17  1  0  0  0  0
 16 20  2  0  0  0  0
 16 21  1  0  0  0  0
 18 19  2  0  0  0  0
 18 20  1  0  0  0  0
 19 22  1  0  0  0  0
 19 25  1  0  0  0  0
 21 22  2  0  0  0  0
 23 24  1  0  0  0  0
 27 29  2  0  0  0  0
 28 29  1  0  0  0  0
M  END
> <PUBCHEM_COMPOUND_ID_TYPE>
0

> <PUBCHEM_TOTAL_CHARGE>
0

> <PUBCHEM_SUBSTANCE_ID>
310938644

> <PUBCHEM_SUBSTANCE_VERSION>
1

> <PUBCHEM_EXT_DATASOURCE_NAME>
4488

> <PUBCHEM_EXT_DATASOURCE_REGID>
SCHEMBL16116558

> <PUBCHEM_SUBSTANCE_COMMENT>
InChI=1S/C19H18ClN5O3S/c1-29-19-24-8-14(17(27)23-9-16-21-5-2-6-22-16)18(25-19)28-11-12-3-4-13(10-26)15(20)7-12/h2-8,26H,9-11H2,1H3,(H,23,27)
InChIKey=ZRYVGACWBSILHJ-UHFFFAOYSA-N

> <PUBCHEM_SUBSTANCE_SYNONYM>
SCHEMBL16116558

> <PUBCHEM_XREF_EXT_ID>
SCHEMBL16116558

> <PUBCHEM_EXT_DATASOURCE_URL>
https://www.surechembl.org/

> <PUBCHEM_EXT_SUBSTANCE_URL>
https://www.surechembl.org/chemical/SCHEMBL16116558

> <PUBCHEM_CID_ASSOCIATIONS>
117606076  1

> <PUBCHEM_COORDINATE_TYPE>
1
3

$$$$
