310946368
  -OEChem-07211613022D

 14 14  0     0  0  0  0  0  0999 V2000
   -4.1297    2.2962    0.0000 I   0  0  0  0  0  0  0  0  0  0  0  0
   -5.5586   -0.1787    0.0000 I   0  0  0  0  0  0  0  0  0  0  0  0
   -5.5586    1.4712    0.0000 O   0  0  0  0  0  0  0  0  0  0  0  0
   -1.2719    2.2962    0.0000 O   0  0  0  0  0  0  0  0  0  0  0  0
   -4.1297    1.4712    0.0000 C   0  0  0  0  0  0  0  0  0  0  0  0
   -4.8441    1.0587    0.0000 C   0  0  0  0  0  0  0  0  0  0  0  0
   -3.4152    1.0587    0.0000 C   0  0  0  0  0  0  0  0  0  0  0  0
   -4.8441    0.2337    0.0000 C   0  0  0  0  0  0  0  0  0  0  0  0
   -3.4152    0.2337    0.0000 C   0  0  0  0  0  0  0  0  0  0  0  0
   -4.1297   -0.1787    0.0000 C   0  0  0  0  0  0  0  0  0  0  0  0
   -2.7007    1.4712    0.0000 C   0  0  0  0  0  0  0  0  0  0  0  0
   -1.9864    1.0587    0.0000 C   0  0  0  0  0  0  0  0  0  0  0  0
   -1.2719    1.4712    0.0000 C   0  0  0  0  0  0  0  0  0  0  0  0
   -0.5574    1.0587    0.0000 C   0  0  0  0  0  0  0  0  0  0  0  0
  1  5  1  0  0  0  0
  2  8  1  0  0  0  0
  3  6  1  0  0  0  0
  4 13  2  0  0  0  0
  5  6  1  0  0  0  0
  5  7  2  0  0  0  0
  6  8  2  0  0  0  0
  7  9  1  0  0  0  0
  7 11  1  0  0  0  0
  8 10  1  0  0  0  0
  9 10  2  0  0  0  0
 11 12  1  0  0  0  0
 12 13  1  0  0  0  0
 13 14  1  0  0  0  0
M  END
> <PUBCHEM_COMPOUND_ID_TYPE>
0

> <PUBCHEM_TOTAL_CHARGE>
0

> <PUBCHEM_SUBSTANCE_ID>
310946368

> <PUBCHEM_SUBSTANCE_VERSION>
1

> <PUBCHEM_EXT_DATASOURCE_NAME>
4488

> <PUBCHEM_EXT_DATASOURCE_REGID>
SCHEMBL16124487

> <PUBCHEM_SUBSTANCE_COMMENT>
InChI=1S/C10H10I2O2/c1-6(13)2-3-7-4-5-8(11)10(14)9(7)12/h4-5,14H,2-3H2,1H3
InChIKey=KDVHLGBGNJDOSC-UHFFFAOYSA-N

> <PUBCHEM_SUBSTANCE_SYNONYM>
SCHEMBL16124487

> <PUBCHEM_XREF_EXT_ID>
SCHEMBL16124487

> <PUBCHEM_EXT_DATASOURCE_URL>
https://www.surechembl.org/

> <PUBCHEM_EXT_SUBSTANCE_URL>
https://www.surechembl.org/chemical/SCHEMBL16124487

> <PUBCHEM_CID_ASSOCIATIONS>
117612290  1

> <PUBCHEM_COORDINATE_TYPE>
1
3

$$$$
