310943349
  -OEChem-07211613022D

 23 25  0     0  0  0  0  0  0999 V2000
   -1.9572    1.2091    0.0000 Cl  0  0  0  0  0  0  0  0  0  0  0  0
   -2.4710   -0.7557    0.0000 S   0  0  0  0  0  0  0  0  0  0  0  0
    0.2947    1.7682    0.0000 F   0  0  0  0  0  0  0  0  0  0  0  0
    1.7758    1.7682    0.0000 F   0  0  0  0  0  0  0  0  0  0  0  0
    1.8665    1.1637    0.0000 F   0  0  0  0  0  0  0  0  0  0  0  0
    1.8967   -1.5415    0.0000 F   0  0  0  0  0  0  0  0  0  0  0  0
    3.2418   -0.5894    0.0000 F   0  0  0  0  0  0  0  0  0  0  0  0
    2.5012   -1.7682    0.0000 F   0  0  0  0  0  0  0  0  0  0  0  0
   -0.5365    0.4383    0.0000 N   0  0  0  0  0  0  0  0  0  0  0  0
   -0.5516   -0.8161    0.0000 N   0  0  0  0  0  0  0  0  0  0  0  0
    0.2796    0.1663    0.0000 C   0  0  0  0  0  0  0  0  0  0  0  0
    1.0050    0.5592    0.0000 C   0  0  0  0  0  0  0  0  0  0  0  0
    0.2494   -0.6045    0.0000 C   0  0  0  0  0  0  0  0  0  0  0  0
   -1.0352   -0.1965    0.0000 C   0  0  0  0  0  0  0  0  0  0  0  0
    1.7305   -0.6045    0.0000 C   0  0  0  0  0  0  0  0  0  0  0  0
    1.0352    1.3450    0.0000 C   0  0  0  0  0  0  0  0  0  0  0  0
    1.7456    0.1663    0.0000 C   0  0  0  0  0  0  0  0  0  0  0  0
    1.0202   -0.9974    0.0000 C   0  0  0  0  0  0  0  0  0  0  0  0
   -1.8665   -0.1965    0.0000 C   0  0  0  0  0  0  0  0  0  0  0  0
    2.4861   -1.0126    0.0000 C   0  0  0  0  0  0  0  0  0  0  0  0
   -2.3048    0.4685    0.0000 C   0  0  0  0  0  0  0  0  0  0  0  0
   -3.1359    0.3174    0.0000 C   0  0  0  0  0  0  0  0  0  0  0  0
   -3.2418   -0.4534    0.0000 C   0  0  0  0  0  0  0  0  0  0  0  0
  1 21  1  0  0  0  0
  2 19  1  0  0  0  0
  2 23  1  0  0  0  0
  3 16  1  0  0  0  0
  4 16  1  0  0  0  0
  5 16  1  0  0  0  0
  6 20  1  0  0  0  0
  7 20  1  0  0  0  0
  8 20  1  0  0  0  0
  9 11  1  0  0  0  0
  9 14  2  0  0  0  0
 10 13  1  0  0  0  0
 10 14  1  0  0  0  0
 11 12  1  0  0  0  0
 11 13  2  0  0  0  0
 12 16  1  0  0  0  0
 12 17  2  0  0  0  0
 13 18  1  0  0  0  0
 14 19  1  0  0  0  0
 15 17  1  0  0  0  0
 15 18  2  0  0  0  0
 15 20  1  0  0  0  0
 19 21  2  0  0  0  0
 21 22  1  0  0  0  0
 22 23  2  0  0  0  0
M  END
> <PUBCHEM_COMPOUND_ID_TYPE>
0

> <PUBCHEM_TOTAL_CHARGE>
0

> <PUBCHEM_SUBSTANCE_ID>
310943349

> <PUBCHEM_SUBSTANCE_VERSION>
1

> <PUBCHEM_EXT_DATASOURCE_NAME>
4488

> <PUBCHEM_EXT_DATASOURCE_REGID>
SCHEMBL16121412

> <PUBCHEM_SUBSTANCE_COMMENT>
InChI=1S/C13H5ClF6N2S/c14-7-1-2-23-10(7)11-21-8-4-5(12(15,16)17)3-6(9(8)22-11)13(18,19)20/h1-4H,(H,21,22)
InChIKey=SKCFDAJPVADDEC-UHFFFAOYSA-N

> <PUBCHEM_SUBSTANCE_SYNONYM>
SCHEMBL16121412

> <PUBCHEM_XREF_EXT_ID>
SCHEMBL16121412

> <PUBCHEM_EXT_DATASOURCE_URL>
https://www.surechembl.org/

> <PUBCHEM_EXT_SUBSTANCE_URL>
https://www.surechembl.org/chemical/SCHEMBL16121412

> <PUBCHEM_CID_ASSOCIATIONS>
117609773  1

> <PUBCHEM_COORDINATE_TYPE>
1
3

$$$$
