310949027
  -OEChem-07211613022D

 25 26  0     0  0  0  0  0  0999 V2000
   -0.8579    1.0434    0.0000 F   0  0  0  0  0  0  0  0  0  0  0  0
   -0.8579   -2.2954    0.0000 F   0  0  0  0  0  0  0  0  0  0  0  0
    2.8519    1.4607    0.0000 O   0  0  0  0  0  0  0  0  0  0  0  0
    2.8519   -1.0279    0.0000 O   0  0  0  0  0  0  0  0  0  0  0  0
    1.3680   -0.2087    0.0000 N   0  0  0  0  0  0  0  0  0  0  0  0
    0.6260    1.0434    0.0000 N   0  0  0  0  0  0  0  0  0  0  0  0
    1.3680    2.2954    0.0000 N   0  0  0  0  0  0  0  0  0  0  0  0
    0.5951    0.1778    0.0000 C   0  0  0  0  0  0  0  0  0  0  0  0
   -0.1314   -0.2241    0.0000 C   0  0  0  0  0  0  0  0  0  0  0  0
    2.0790    0.1932    0.0000 C   0  0  0  0  0  0  0  0  0  0  0  0
    2.0944    1.0125    0.0000 C   0  0  0  0  0  0  0  0  0  0  0  0
    1.3371    1.4298    0.0000 C   0  0  0  0  0  0  0  0  0  0  0  0
   -0.8733    0.1778    0.0000 C   0  0  0  0  0  0  0  0  0  0  0  0
   -0.1468   -1.0588    0.0000 C   0  0  0  0  0  0  0  0  0  0  0  0
   -0.8733   -1.4762    0.0000 C   0  0  0  0  0  0  0  0  0  0  0  0
   -1.6307   -1.0588    0.0000 C   0  0  0  0  0  0  0  0  0  0  0  0
   -1.5999   -0.2396    0.0000 C   0  0  0  0  0  0  0  0  0  0  0  0
    2.8519   -0.2087    0.0000 C   0  0  0  0  0  0  0  0  0  0  0  0
   -2.3418   -1.4452    0.0000 C   0  0  0  0  0  0  0  0  0  0  0  0
    3.2538   -0.0077    0.0000 C   0  0  0  0  0  0  0  0  0  0  0  0
    3.2538    1.1670    0.0000 C   0  0  0  0  0  0  0  0  0  0  0  0
   -2.9137   -1.6153    0.0000 C   0  0  0  0  0  0  0  0  0  0  0  0
   -2.9446   -2.0481    0.0000 C   0  0  0  0  0  0  0  0  0  0  0  0
   -3.2383   -1.6926    0.0000 C   0  0  0  0  0  0  0  0  0  0  0  0
   -3.2538   -2.1099    0.0000 C   0  0  0  0  0  0  0  0  0  0  0  0
  1 13  1  0  0  0  0
  2 15  1  0  0  0  0
  3 11  1  0  0  0  0
  3 21  1  0  0  0  0
  4 18  2  0  0  0  0
  5  8  2  0  0  0  0
  5 10  1  0  0  0  0
  6  8  1  0  0  0  0
  6 12  2  0  0  0  0
  7 12  1  0  0  0  0
  8  9  1  0  0  0  0
  9 13  2  0  0  0  0
  9 14  1  0  0  0  0
 10 11  2  0  0  0  0
 10 18  1  0  0  0  0
 11 12  1  0  0  0  0
 13 17  1  0  0  0  0
 14 15  2  0  0  0  0
 15 16  1  0  0  0  0
 16 17  2  0  0  0  0
 16 19  1  0  0  0  0
 18 20  1  0  0  0  0
 19 22  3  0  0  0  0
 22 23  1  0  0  0  0
 23 24  1  0  0  0  0
 24 25  1  0  0  0  0
M  END
> <PUBCHEM_COMPOUND_ID_TYPE>
0

> <PUBCHEM_TOTAL_CHARGE>
0

> <PUBCHEM_SUBSTANCE_ID>
310949027

> <PUBCHEM_SUBSTANCE_VERSION>
1

> <PUBCHEM_EXT_DATASOURCE_NAME>
4488

> <PUBCHEM_EXT_DATASOURCE_REGID>
SCHEMBL16127217

> <PUBCHEM_SUBSTANCE_COMMENT>
InChI=1S/C18H17F2N3O2/c1-4-5-6-7-11-8-14(20)12(9-13(11)19)18-22-15(10(2)24)16(25-3)17(21)23-18/h8-9H,4-5H2,1-3H3,(H2,21,22,23)
InChIKey=NOPUZCQCYRZANV-UHFFFAOYSA-N

> <PUBCHEM_SUBSTANCE_SYNONYM>
SCHEMBL16127217

> <PUBCHEM_XREF_EXT_ID>
SCHEMBL16127217

> <PUBCHEM_EXT_DATASOURCE_URL>
https://www.surechembl.org/

> <PUBCHEM_EXT_SUBSTANCE_URL>
https://www.surechembl.org/chemical/SCHEMBL16127217

> <PUBCHEM_CID_ASSOCIATIONS>
117614532  1

> <PUBCHEM_COORDINATE_TYPE>
1
3

$$$$
