310935623
  -OEChem-07211613022D

 51 57  0     0  0  0  0  0  0999 V2000
    1.5249   -1.0396    0.0000 S   0  0  0  0  0  0  0  0  0  0  0  0
    1.2700   -1.8242    0.0000 O   0  0  0  0  0  0  0  0  0  0  0  0
    0.7403   -0.7846    0.0000 O   0  0  0  0  0  0  0  0  0  0  0  0
    4.7079   -1.2375    0.0000 O   0  0  0  0  0  0  0  0  0  0  0  0
    8.2802    0.8250    0.0000 O   0  0  0  0  0  0  0  0  0  0  0  0
    7.5658    2.0625    0.0000 O   0  0  0  0  0  0  0  0  0  0  0  0
    1.7798   -0.2549    0.0000 N   0  0  0  0  0  0  0  0  0  0  0  0
    3.2789   -0.4125    0.0000 N   0  0  0  0  0  0  0  0  0  0  0  0
    3.9934    0.8250    0.0000 N   0  0  0  0  0  0  0  0  0  0  0  0
    4.6065    3.8520    0.0000 N   0  0  0  0  0  0  0  0  0  0  0  0
    6.8513    0.8250    0.0000 N   0  0  0  0  0  0  0  0  0  0  0  0
    2.3464    5.7457    0.0000 N   0  0  0  0  0  0  0  0  0  0  0  0
    2.5645    0.0000    0.0000 C   0  0  0  0  0  0  0  0  0  0  0  0
    2.5645    0.8250    0.0000 C   0  0  0  0  0  0  0  0  0  0  0  0
    3.2789    1.2375    0.0000 C   0  0  0  0  0  0  0  0  0  0  0  0
    3.2789    2.0625    0.0000 C   0  0  0  0  0  0  0  0  0  0  0  0
    3.9934    0.0000    0.0000 C   0  0  0  0  0  0  0  0  0  0  0  0
    1.7798    1.0799    0.0000 C   0  0  0  0  0  0  0  0  0  0  0  0
    1.2949    0.4125    0.0000 C   0  0  0  0  0  0  0  0  0  0  0  0
    3.9934    3.3000    0.0000 C   0  0  0  0  0  0  0  0  0  0  0  0
    3.2789    3.7125    0.0000 C   0  0  0  0  0  0  0  0  0  0  0  0
    2.3095   -1.2945    0.0000 C   0  0  0  0  0  0  0  0  0  0  0  0
    3.9934    2.4750    0.0000 C   0  0  0  0  0  0  0  0  0  0  0  0
    4.7079   -0.4125    0.0000 C   0  0  0  0  0  0  0  0  0  0  0  0
    2.5645    2.4750    0.0000 C   0  0  0  0  0  0  0  0  0  0  0  0
    3.4505    4.5195    0.0000 C   0  0  0  0  0  0  0  0  0  0  0  0
    2.5645    3.3000    0.0000 C   0  0  0  0  0  0  0  0  0  0  0  0
    4.2709    4.6057    0.0000 C   0  0  0  0  0  0  0  0  0  0  0  0
    5.4223    0.0000    0.0000 C   0  0  0  0  0  0  0  0  0  0  0  0
    2.4810   -2.1015    0.0000 C   0  0  0  0  0  0  0  0  0  0  0  0
    2.9226   -0.7425    0.0000 C   0  0  0  0  0  0  0  0  0  0  0  0
    5.4135    3.6805    0.0000 C   0  0  0  0  0  0  0  0  0  0  0  0
    2.8984    5.1326    0.0000 C   0  0  0  0  0  0  0  0  0  0  0  0
    6.1368   -0.4125    0.0000 C   0  0  0  0  0  0  0  0  0  0  0  0
    5.4223    0.8250    0.0000 C   0  0  0  0  0  0  0  0  0  0  0  0
    5.9655    4.2936    0.0000 C   0  0  0  0  0  0  0  0  0  0  0  0
    3.2657   -2.3564    0.0000 C   0  0  0  0  0  0  0  0  0  0  0  0
    3.7072   -0.9974    0.0000 C   0  0  0  0  0  0  0  0  0  0  0  0
    3.8788   -1.8044    0.0000 C   0  0  0  0  0  0  0  0  0  0  0  0
    6.8513    0.0000    0.0000 C   0  0  0  0  0  0  0  0  0  0  0  0
    6.1368    1.2375    0.0000 C   0  0  0  0  0  0  0  0  0  0  0  0
    6.7725    4.1221    0.0000 C   0  0  0  0  0  0  0  0  0  0  0  0
    5.7106    5.0782    0.0000 C   0  0  0  0  0  0  0  0  0  0  0  0
    7.5658    1.2375    0.0000 C   0  0  0  0  0  0  0  0  0  0  0  0
    7.3245    4.7352    0.0000 C   0  0  0  0  0  0  0  0  0  0  0  0
    6.2626    5.6913    0.0000 C   0  0  0  0  0  0  0  0  0  0  0  0
    7.0696    5.5198    0.0000 C   0  0  0  0  0  0  0  0  0  0  0  0
    8.9947    1.2375    0.0000 C   0  0  0  0  0  0  0  0  0  0  0  0
    9.7092    1.6500    0.0000 C   0  0  0  0  0  0  0  0  0  0  0  0
    9.4072    0.5230    0.0000 C   0  0  0  0  0  0  0  0  0  0  0  0
    8.5822    1.9520    0.0000 C   0  0  0  0  0  0  0  0  0  0  0  0
  1  2  2  0  0  0  0
  1  3  2  0  0  0  0
  1  7  1  0  0  0  0
  1 22  1  0  0  0  0
  4 24  2  0  0  0  0
  5 44  1  0  0  0  0
  5 48  1  0  0  0  0
  6 44  2  0  0  0  0
  7 13  1  0  0  0  0
  7 19  1  0  0  0  0
  8 13  1  0  0  0  0
  8 17  2  0  0  0  0
  9 15  2  0  0  0  0
  9 17  1  0  0  0  0
 10 20  1  0  0  0  0
 10 28  1  0  0  0  0
 10 32  1  0  0  0  0
 11 40  1  0  0  0  0
 11 41  1  0  0  0  0
 11 44  1  0  0  0  0
 12 33  3  0  0  0  0
 13 14  2  0  0  0  0
 14 15  1  0  0  0  0
 14 18  1  0  0  0  0
 15 16  1  0  0  0  0
 16 23  1  0  0  0  0
 16 25  2  0  0  0  0
 17 24  1  0  0  0  0
 18 19  2  0  0  0  0
 20 21  1  0  0  0  0
 20 23  2  0  0  0  0
 21 26  1  0  0  0  0
 21 27  2  0  0  0  0
 22 30  2  0  0  0  0
 22 31  1  0  0  0  0
 24 29  1  0  0  0  0
 25 27  1  0  0  0  0
 26 28  2  0  0  0  0
 26 33  1  0  0  0  0
 29 34  2  0  0  0  0
 29 35  1  0  0  0  0
 30 37  1  0  0  0  0
 31 38  2  0  0  0  0
 32 36  1  0  0  0  0
 34 40  1  0  0  0  0
 35 41  1  0  0  0  0
 36 42  2  0  0  0  0
 36 43  1  0  0  0  0
 37 39  2  0  0  0  0
 38 39  1  0  0  0  0
 42 45  1  0  0  0  0
 43 46  2  0  0  0  0
 45 47  2  0  0  0  0
 46 47  1  0  0  0  0
 48 49  1  0  0  0  0
 48 50  1  0  0  0  0
 48 51  1  0  0  0  0
M  END
> <PUBCHEM_COMPOUND_ID_TYPE>
0

> <PUBCHEM_TOTAL_CHARGE>
0

> <PUBCHEM_SUBSTANCE_ID>
310935623

> <PUBCHEM_SUBSTANCE_VERSION>
1

> <PUBCHEM_EXT_DATASOURCE_NAME>
4488

> <PUBCHEM_EXT_DATASOURCE_REGID>
SCHEMBL16113200

> <PUBCHEM_SUBSTANCE_COMMENT>
InChI=1S/C39H34N6O5S/c1-39(2,3)50-38(47)43-19-16-27(17-20-43)35(46)36-41-34(32-18-21-45(37(32)42-36)51(48,49)30-12-8-5-9-13-30)28-14-15-31-29(23-40)25-44(33(31)22-28)24-26-10-6-4-7-11-26/h4-16,18,21-22,25H,17,19-20,24H2,1-3H3
InChIKey=AAXFIDVZPRWWLY-UHFFFAOYSA-N

> <PUBCHEM_SUBSTANCE_SYNONYM>
SCHEMBL16113200

> <PUBCHEM_XREF_EXT_ID>
SCHEMBL16113200

> <PUBCHEM_EXT_DATASOURCE_URL>
https://www.surechembl.org/

> <PUBCHEM_EXT_SUBSTANCE_URL>
https://www.surechembl.org/chemical/SCHEMBL16113200

> <PUBCHEM_CID_ASSOCIATIONS>
117603640  1

> <PUBCHEM_COORDINATE_TYPE>
1
3

$$$$
