310949668
  -OEChem-07211613022D

 23 24  0     0  0  0  0  0  0999 V2000
   -1.4445   -1.4579    0.0000 O   0  0  0  0  0  0  0  0  0  0  0  0
   -2.1566   -1.8745    0.0000 O   0  0  0  0  0  0  0  0  0  0  0  0
   -3.6078   -1.8745    0.0000 O   0  0  0  0  0  0  0  0  0  0  0  0
    3.6078    0.5979    0.0000 O   0  0  0  0  0  0  0  0  0  0  0  0
    2.8957    1.8610    0.0000 O   0  0  0  0  0  0  0  0  0  0  0  0
   -0.7054   -0.2083    0.0000 N   0  0  0  0  0  0  0  0  0  0  0  0
   -2.1566   -0.1949    0.0000 C   0  0  0  0  0  0  0  0  0  0  0  0
   -2.8553   -0.6248    0.0000 C   0  0  0  0  0  0  0  0  0  0  0  0
   -1.4176   -0.5979    0.0000 C   0  0  0  0  0  0  0  0  0  0  0  0
    2.1701    0.5979    0.0000 C   0  0  0  0  0  0  0  0  0  0  0  0
    0.7189   -0.2083    0.0000 C   0  0  0  0  0  0  0  0  0  0  0  0
    1.4445    1.0145    0.0000 C   0  0  0  0  0  0  0  0  0  0  0  0
   -2.8957   -1.4311    0.0000 C   0  0  0  0  0  0  0  0  0  0  0  0
   -2.1566    0.6114    0.0000 C   0  0  0  0  0  0  0  0  0  0  0  0
    0.7323    0.5979    0.0000 C   0  0  0  0  0  0  0  0  0  0  0  0
   -3.5810   -0.2083    0.0000 C   0  0  0  0  0  0  0  0  0  0  0  0
    0.0336   -0.6248    0.0000 C   0  0  0  0  0  0  0  0  0  0  0  0
    2.1701   -0.2217    0.0000 C   0  0  0  0  0  0  0  0  0  0  0  0
    1.4579   -0.6248    0.0000 C   0  0  0  0  0  0  0  0  0  0  0  0
    2.8688    1.0279    0.0000 C   0  0  0  0  0  0  0  0  0  0  0  0
   -2.8688    1.0279    0.0000 C   0  0  0  0  0  0  0  0  0  0  0  0
   -3.5810    0.6114    0.0000 C   0  0  0  0  0  0  0  0  0  0  0  0
    1.4445    1.8745    0.0000 C   0  0  0  0  0  0  0  0  0  0  0  0
  1  9  2  0  0  0  0
  2 13  2  0  0  0  0
  3 13  1  0  0  0  0
  4 20  2  0  0  0  0
  5 20  1  0  0  0  0
  6  9  1  0  0  0  0
  6 17  1  0  0  0  0
  7  8  2  0  0  0  0
  7  9  1  0  0  0  0
  7 14  1  0  0  0  0
  8 13  1  0  0  0  0
  8 16  1  0  0  0  0
 10 12  2  0  0  0  0
 10 18  1  0  0  0  0
 10 20  1  0  0  0  0
 11 15  2  0  0  0  0
 11 17  1  0  0  0  0
 11 19  1  0  0  0  0
 12 15  1  0  0  0  0
 12 23  1  0  0  0  0
 14 21  2  0  0  0  0
 16 22  2  0  0  0  0
 18 19  2  0  0  0  0
 21 22  1  0  0  0  0
M  END
> <PUBCHEM_COMPOUND_ID_TYPE>
0

> <PUBCHEM_TOTAL_CHARGE>
0

> <PUBCHEM_SUBSTANCE_ID>
310949668

> <PUBCHEM_SUBSTANCE_VERSION>
1

> <PUBCHEM_EXT_DATASOURCE_NAME>
4488

> <PUBCHEM_EXT_DATASOURCE_REGID>
SCHEMBL16127866

> <PUBCHEM_SUBSTANCE_COMMENT>
InChI=1S/C17H15NO5/c1-10-8-11(6-7-12(10)16(20)21)9-18-15(19)13-4-2-3-5-14(13)17(22)23/h2-8H,9H2,1H3,(H,18,19)(H,20,21)(H,22,23)
InChIKey=KKOBRWRPWKYSLO-UHFFFAOYSA-N

> <PUBCHEM_SUBSTANCE_SYNONYM>
SCHEMBL16127866

> <PUBCHEM_XREF_EXT_ID>
SCHEMBL16127866

> <PUBCHEM_EXT_DATASOURCE_URL>
https://www.surechembl.org/

> <PUBCHEM_EXT_SUBSTANCE_URL>
https://www.surechembl.org/chemical/SCHEMBL16127866

> <PUBCHEM_CID_ASSOCIATIONS>
85472198  1

> <PUBCHEM_COORDINATE_TYPE>
1
3

$$$$
