310934939
  -OEChem-07211613022D

 19 20  0     0  0  0  0  0  0999 V2000
    4.9255   -0.7060    0.0000 F   0  0  0  0  0  0  0  0  0  0  0  0
    3.6941   -1.4448    0.0000 O   0  0  0  0  0  0  0  0  0  0  0  0
    3.6941   -2.8568    0.0000 O   0  0  0  0  0  0  0  0  0  0  0  0
    0.0000   -2.1508    0.0000 O   0  0  0  0  0  0  0  0  0  0  0  0
    2.4792   -2.1508    0.0000 C   0  0  0  0  0  0  0  0  0  0  0  0
    2.8896   -1.4284    0.0000 C   0  0  0  0  0  0  0  0  0  0  0  0
    3.3001   -2.1508    0.0000 C   0  0  0  0  0  0  0  0  0  0  0  0
    3.8583   -1.5762    0.0000 C   0  0  0  0  0  0  0  0  0  0  0  0
    2.0523   -2.8568    0.0000 C   0  0  0  0  0  0  0  0  0  0  0  0
    2.0523   -1.4448    0.0000 C   0  0  0  0  0  0  0  0  0  0  0  0
    2.4628   -0.7224    0.0000 C   0  0  0  0  0  0  0  0  0  0  0  0
    4.1046   -0.7060    0.0000 C   0  0  0  0  0  0  0  0  0  0  0  0
    1.2478   -2.8568    0.0000 C   0  0  0  0  0  0  0  0  0  0  0  0
    1.2478   -1.4448    0.0000 C   0  0  0  0  0  0  0  0  0  0  0  0
    0.8209   -2.1508    0.0000 C   0  0  0  0  0  0  0  0  0  0  0  0
    2.8732   -0.0164    0.0000 C   0  0  0  0  0  0  0  0  0  0  0  0
    3.6777    0.0000    0.0000 C   0  0  0  0  0  0  0  0  0  0  0  0
    4.1210   -2.1180    0.0000 C   0  0  0  0  0  0  0  0  0  0  0  0
    4.5150   -1.4448    0.0000 C   0  0  0  0  0  0  0  0  0  0  0  0
  1 12  1  0  0  0  0
  2  7  1  0  0  0  0
  2 19  1  0  0  0  0
  3  7  2  0  0  0  0
  4 15  1  0  0  0  0
  5  6  1  0  0  0  0
  5  7  1  0  0  0  0
  5  9  1  0  0  0  0
  5 10  1  0  0  0  0
  6  8  1  0  0  0  0
  6 11  2  0  0  0  0
  8 12  2  0  0  0  0
  8 18  1  0  0  0  0
  9 13  1  0  0  0  0
 10 14  1  0  0  0  0
 11 16  1  0  0  0  0
 12 17  1  0  0  0  0
 13 15  1  0  0  0  0
 14 15  1  0  0  0  0
 16 17  2  0  0  0  0
M  END
> <PUBCHEM_COMPOUND_ID_TYPE>
0

> <PUBCHEM_TOTAL_CHARGE>
0

> <PUBCHEM_SUBSTANCE_ID>
310934939

> <PUBCHEM_SUBSTANCE_VERSION>
1

> <PUBCHEM_EXT_DATASOURCE_NAME>
4488

> <PUBCHEM_EXT_DATASOURCE_REGID>
SCHEMBL16112453

> <PUBCHEM_SUBSTANCE_COMMENT>
InChI=1S/C15H19FO3/c1-10-12(4-3-5-13(10)16)15(14(18)19-2)8-6-11(17)7-9-15/h3-5,11,17H,6-9H2,1-2H3
InChIKey=ANCWRFQFRBRWHN-UHFFFAOYSA-N

> <PUBCHEM_SUBSTANCE_SYNONYM>
SCHEMBL16112453

> <PUBCHEM_XREF_EXT_ID>
SCHEMBL16112453

> <PUBCHEM_EXT_DATASOURCE_URL>
https://www.surechembl.org/

> <PUBCHEM_EXT_SUBSTANCE_URL>
https://www.surechembl.org/chemical/SCHEMBL16112453

> <PUBCHEM_CID_ASSOCIATIONS>
117603061  1

> <PUBCHEM_COORDINATE_TYPE>
1
3

$$$$
