310932276
  -OEChem-07211613022D

 28 31  0     1  0  0  0  0  0999 V2000
    2.5125   -0.7500    0.0000 O   0  0  0  0  0  0  0  0  0  0  0  0
    4.8750   -7.5001    0.0000 O   0  5  0  0  0  0  0  0  0  0  0  0
    6.3000   -3.9375    0.0000 N   0  0  0  0  0  0  0  0  0  0  0  0
    6.2250   -3.1125    0.0000 N   0  0  0  0  0  0  0  0  0  0  0  0
    3.7500   -2.9250    0.0000 N   0  0  0  0  0  0  0  0  0  0  0  0
    3.7500   -1.4625    0.0000 N   0  0  0  0  0  0  0  0  0  0  0  0
    5.0250   -6.6751    0.0000 N   0  3  0  0  0  0  0  0  0  0  0  0
    2.5125   -2.1750    0.0000 N   0  0  0  0  0  0  0  0  0  0  0  0
    4.9875   -3.6750    0.0000 C   0  0  0  0  0  0  0  0  0  0  0  0
    5.5500   -4.2750    0.0000 C   0  0  0  0  0  0  0  0  0  0  0  0
    5.4000   -2.9250    0.0000 C   0  0  0  0  0  0  0  0  0  0  0  0
    5.3625   -5.0625    0.0000 C   0  0  0  0  0  0  0  0  0  0  0  0
    4.9875   -2.1750    0.0000 C   0  0  0  0  0  0  0  0  0  0  0  0
    4.1250   -3.6375    0.0000 C   0  0  0  0  0  0  0  0  0  0  0  0
    4.1625   -2.1750    0.0000 C   0  0  0  0  0  0  0  0  0  0  0  0
    4.6125   -5.3250    0.0000 C   0  0  0  0  0  0  0  0  0  0  0  0
    6.0000   -5.6250    0.0000 C   0  0  0  0  0  0  0  0  0  0  0  0
    2.9250   -1.4625    0.0000 C   0  0  0  0  0  0  0  0  0  0  0  0
    4.3875   -6.1125    0.0000 C   0  0  0  0  0  0  0  0  0  0  0  0
    5.8125   -6.4500    0.0000 C   0  0  0  0  0  0  0  0  0  0  0  0
    1.6500   -2.1750    0.0000 C   0  0  3  0  0  0  0  0  0  0  0  0
    1.2375   -1.4625    0.0000 C   0  0  0  0  0  0  0  0  0  0  0  0
    0.4125   -1.4625    0.0000 C   0  0  0  0  0  0  0  0  0  0  0  0
    1.6500   -0.7125    0.0000 C   0  0  0  0  0  0  0  0  0  0  0  0
    1.2375   -2.9250    0.0000 C   0  0  0  0  0  0  0  0  0  0  0  0
    0.0000   -0.7125    0.0000 C   0  0  0  0  0  0  0  0  0  0  0  0
    1.2375    0.0000    0.0000 C   0  0  0  0  0  0  0  0  0  0  0  0
    0.4125    0.0000    0.0000 C   0  0  0  0  0  0  0  0  0  0  0  0
  1 18  2  0  0  0  0
  2  7  1  0  0  0  0
  3  4  1  0  0  0  0
  3 10  2  0  0  0  0
  4 11  1  0  0  0  0
  5 14  1  0  0  0  0
  5 15  2  0  0  0  0
  6 15  1  0  0  0  0
  6 18  1  0  0  0  0
  7 19  2  0  0  0  0
  7 20  1  0  0  0  0
  8 18  1  0  0  0  0
  8 21  1  0  0  0  0
  9 10  1  0  0  0  0
  9 11  1  0  0  0  0
  9 14  2  0  0  0  0
 10 12  1  0  0  0  0
 11 13  2  0  0  0  0
 12 16  2  0  0  0  0
 12 17  1  0  0  0  0
 13 15  1  0  0  0  0
 16 19  1  0  0  0  0
 17 20  2  0  0  0  0
 21 22  1  0  0  0  0
 21 25  1  6  0  0  0
 22 23  2  0  0  0  0
 22 24  1  0  0  0  0
 23 26  1  0  0  0  0
 24 27  2  0  0  0  0
 26 28  2  0  0  0  0
 27 28  1  0  0  0  0
M  CHG  2   2  -1   7   1
M  END
> <PUBCHEM_COMPOUND_ID_TYPE>
0

> <PUBCHEM_TOTAL_CHARGE>
0

> <PUBCHEM_SUBSTANCE_ID>
310932276

> <PUBCHEM_SUBSTANCE_VERSION>
1

> <PUBCHEM_EXT_DATASOURCE_NAME>
4488

> <PUBCHEM_EXT_DATASOURCE_REGID>
SCHEMBL16109636

> <PUBCHEM_SUBSTANCE_COMMENT>
InChI=1S/C20H18N6O2/c1-13(14-5-3-2-4-6-14)22-20(27)23-18-11-17-16(12-21-18)19(25-24-17)15-7-9-26(28)10-8-15/h2-13H,1H3,(H,24,25)(H2,21,22,23,27)/t13-/m1/s1
InChIKey=DOXGMCJRXCQGHF-CYBMUJFWSA-N

> <PUBCHEM_SUBSTANCE_SYNONYM>
SCHEMBL16109636

> <PUBCHEM_XREF_EXT_ID>
SCHEMBL16109636

> <PUBCHEM_EXT_DATASOURCE_URL>
https://www.surechembl.org/

> <PUBCHEM_EXT_SUBSTANCE_URL>
https://www.surechembl.org/chemical/SCHEMBL16109636

> <PUBCHEM_CID_ASSOCIATIONS>
71555018  1

> <PUBCHEM_COORDINATE_TYPE>
1
3

> <PUBCHEM_BONDANNOTATIONS>
21  25  6

$$$$
