310941674
  -OEChem-07211613022D

 18 20  0     0  0  0  0  0  0999 V2000
    2.9395   -0.8023    0.0000 Br  0  0  0  0  0  0  0  0  0  0  0  0
   -2.9395   -0.6824    0.0000 Cl  0  0  0  0  0  0  0  0  0  0  0  0
    1.4398   -0.6374    0.0000 S   0  0  0  0  0  0  0  0  0  0  0  0
   -1.0498   -0.6824    0.0000 O   0  0  0  0  0  0  0  0  0  0  0  0
    0.1499   -1.4023    0.0000 O   0  0  0  0  0  0  0  0  0  0  0  0
    1.4548    0.6824    0.0000 N   0  0  0  0  0  0  0  0  0  0  0  0
    0.1800    0.0225    0.0000 C   0  0  0  0  0  0  0  0  0  0  0  0
    0.9899    0.0075    0.0000 C   0  0  0  0  0  0  0  0  0  0  0  0
   -1.4548    0.0225    0.0000 C   0  0  0  0  0  0  0  0  0  0  0  0
   -1.0648    0.6974    0.0000 C   0  0  0  0  0  0  0  0  0  0  0  0
   -0.2550   -0.6974    0.0000 C   0  0  0  0  0  0  0  0  0  0  0  0
   -0.2399    0.6824    0.0000 C   0  0  0  0  0  0  0  0  0  0  0  0
   -2.2946    0.0225    0.0000 C   0  0  0  0  0  0  0  0  0  0  0  0
    2.2046   -0.4275    0.0000 C   0  0  0  0  0  0  0  0  0  0  0  0
   -1.4548    1.4023    0.0000 C   0  0  0  0  0  0  0  0  0  0  0  0
    2.2346    0.4124    0.0000 C   0  0  0  0  0  0  0  0  0  0  0  0
   -2.6845    0.6674    0.0000 C   0  0  0  0  0  0  0  0  0  0  0  0
   -2.2946    1.4023    0.0000 C   0  0  0  0  0  0  0  0  0  0  0  0
  1 14  1  0  0  0  0
  2 13  1  0  0  0  0
  3  8  1  0  0  0  0
  3 14  1  0  0  0  0
  4  9  1  0  0  0  0
  4 11  1  0  0  0  0
  5 11  2  0  0  0  0
  6  8  2  0  0  0  0
  6 16  1  0  0  0  0
  7  8  1  0  0  0  0
  7 11  1  0  0  0  0
  7 12  2  0  0  0  0
  9 10  1  0  0  0  0
  9 13  2  0  0  0  0
 10 12  1  0  0  0  0
 10 15  2  0  0  0  0
 13 17  1  0  0  0  0
 14 16  2  0  0  0  0
 15 18  1  0  0  0  0
 17 18  2  0  0  0  0
M  END
> <PUBCHEM_COMPOUND_ID_TYPE>
0

> <PUBCHEM_TOTAL_CHARGE>
0

> <PUBCHEM_SUBSTANCE_ID>
310941674

> <PUBCHEM_SUBSTANCE_VERSION>
1

> <PUBCHEM_EXT_DATASOURCE_NAME>
4488

> <PUBCHEM_EXT_DATASOURCE_REGID>
SCHEMBL16119705

> <PUBCHEM_SUBSTANCE_COMMENT>
InChI=1S/C12H5BrClNO2S/c13-9-5-15-11(18-9)7-4-6-2-1-3-8(14)10(6)17-12(7)16/h1-5H
InChIKey=DSTDPXKTQOAYEY-UHFFFAOYSA-N

> <PUBCHEM_SUBSTANCE_SYNONYM>
SCHEMBL16119705

> <PUBCHEM_XREF_EXT_ID>
SCHEMBL16119705

> <PUBCHEM_EXT_DATASOURCE_URL>
https://www.surechembl.org/

> <PUBCHEM_EXT_SUBSTANCE_URL>
https://www.surechembl.org/chemical/SCHEMBL16119705

> <PUBCHEM_CID_ASSOCIATIONS>
117608454  1

> <PUBCHEM_COORDINATE_TYPE>
1
3

$$$$
