310947353
  -OEChem-07211613022D

 38 41  0     1  0  0  0  0  0999 V2000
    5.1071    0.4846    0.0000 O   0  0  0  0  0  0  0  0  0  0  0  0
   -2.1753    2.4894    0.0000 O   0  0  0  0  0  0  0  0  0  0  0  0
    3.7268    0.1148    0.0000 O   0  0  0  0  0  0  0  0  0  0  0  0
   -5.0332    1.6644    0.0000 O   0  0  0  0  0  0  0  0  0  0  0  0
    0.7528    0.1719    0.0000 N   0  0  0  0  0  0  0  0  0  0  0  0
    1.2377    0.8395    0.0000 N   0  0  0  0  0  0  0  0  0  0  0  0
   -2.8897    1.2520    0.0000 N   0  0  0  0  0  0  0  0  0  0  0  0
   -0.0319    0.4269    0.0000 C   0  0  0  0  0  0  0  0  0  0  0  0
   -0.0319    1.2520    0.0000 C   0  0  0  0  0  0  0  0  0  0  0  0
    0.7528    1.5069    0.0000 C   0  0  0  0  0  0  0  0  0  0  0  0
   -0.7464    1.6644    0.0000 C   0  0  0  0  0  0  0  0  0  0  0  0
   -1.4608    1.2520    0.0000 C   0  0  0  0  0  0  0  0  0  0  0  0
   -0.7464    0.0144    0.0000 C   0  0  0  0  0  0  0  0  0  0  0  0
    0.9663   -0.6249    0.0000 C   0  0  0  0  0  0  0  0  0  0  0  0
   -1.4608    0.4269    0.0000 C   0  0  0  0  0  0  0  0  0  0  0  0
    1.7632   -0.8384    0.0000 C   0  0  0  0  0  0  0  0  0  0  0  0
    4.1538   -1.4790    0.0000 C   0  0  0  0  0  0  0  0  0  0  0  0
    3.3569   -1.2655    0.0000 C   0  0  0  0  0  0  0  0  0  0  0  0
   -2.1753    1.6644    0.0000 C   0  0  0  0  0  0  0  0  0  0  0  0
    4.7372   -0.8957    0.0000 C   0  0  0  0  0  0  0  0  0  0  0  0
    1.9768   -1.6353    0.0000 C   0  0  0  0  0  0  0  0  0  0  0  0
    2.3466   -0.2550    0.0000 C   0  0  0  0  0  0  0  0  0  0  0  0
    1.1652    2.2213    0.0000 C   0  0  0  0  0  0  0  0  0  0  0  0
    2.7736   -1.8489    0.0000 C   0  0  0  0  0  0  0  0  0  0  0  0
    3.1435   -0.4686    0.0000 C   0  0  0  0  0  0  0  0  0  0  0  0
    4.5238   -0.0988    0.0000 C   0  0  0  0  0  0  0  0  0  0  0  0
    4.3674   -2.2760    0.0000 C   0  0  0  0  0  0  0  0  0  0  0  0
    5.5341   -1.1091    0.0000 C   0  0  0  0  0  0  0  0  0  0  0  0
    5.1643   -2.4894    0.0000 C   0  0  0  0  0  0  0  0  0  0  0  0
    5.7477   -1.9060    0.0000 C   0  0  0  0  0  0  0  0  0  0  0  0
    4.8936    1.2815    0.0000 C   0  0  0  0  0  0  0  0  0  0  0  0
   -3.6042    1.6644    0.0000 C   0  0  3  0  0  0  0  0  0  0  0  0
   -4.3187    1.2520    0.0000 C   0  0  0  0  0  0  0  0  0  0  0  0
    4.0967    1.4950    0.0000 C   0  0  0  0  0  0  0  0  0  0  0  0
    5.4769    1.8649    0.0000 C   0  0  0  0  0  0  0  0  0  0  0  0
    4.6800    2.0784    0.0000 C   0  0  0  0  0  0  0  0  0  0  0  0
   -3.6042    2.4894    0.0000 C   0  0  0  0  0  0  0  0  0  0  0  0
   -5.7477    1.2520    0.0000 C   0  0  0  0  0  0  0  0  0  0  0  0
  1 26  1  0  0  0  0
  1 31  1  0  0  0  0
  2 19  2  0  0  0  0
  3 26  2  0  0  0  0
  4 33  1  0  0  0  0
  4 38  1  0  0  0  0
  5  6  1  0  0  0  0
  5  8  1  0  0  0  0
  5 14  1  0  0  0  0
  6 10  2  0  0  0  0
  7 19  1  0  0  0  0
  7 32  1  0  0  0  0
  8  9  1  0  0  0  0
  8 13  2  0  0  0  0
  9 10  1  0  0  0  0
  9 11  2  0  0  0  0
 10 23  1  0  0  0  0
 11 12  1  0  0  0  0
 12 15  2  0  0  0  0
 12 19  1  0  0  0  0
 13 15  1  0  0  0  0
 14 16  1  0  0  0  0
 16 21  2  0  0  0  0
 16 22  1  0  0  0  0
 17 18  1  0  0  0  0
 17 20  1  0  0  0  0
 17 27  2  0  0  0  0
 18 24  2  0  0  0  0
 18 25  1  0  0  0  0
 20 26  1  0  0  0  0
 20 28  2  0  0  0  0
 21 24  1  0  0  0  0
 22 25  2  0  0  0  0
 27 29  1  0  0  0  0
 28 30  1  0  0  0  0
 29 30  2  0  0  0  0
 31 34  1  0  0  0  0
 31 35  1  0  0  0  0
 31 36  1  0  0  0  0
 32 33  1  0  0  0  0
 32 37  1  6  0  0  0
M  END
> <PUBCHEM_COMPOUND_ID_TYPE>
0

> <PUBCHEM_TOTAL_CHARGE>
0

> <PUBCHEM_SUBSTANCE_ID>
310947353

> <PUBCHEM_SUBSTANCE_VERSION>
1

> <PUBCHEM_EXT_DATASOURCE_NAME>
4488

> <PUBCHEM_EXT_DATASOURCE_REGID>
SCHEMBL16125508

> <PUBCHEM_SUBSTANCE_COMMENT>
InChI=1S/C31H35N3O4/c1-20(19-37-6)32-29(35)24-15-16-28-27(17-24)21(2)33-34(28)18-22-11-13-23(14-12-22)25-9-7-8-10-26(25)30(36)38-31(3,4)5/h7-17,20H,18-19H2,1-6H3,(H,32,35)/t20-/m0/s1
InChIKey=COIDNVIOFYNUNL-FQEVSTJZSA-N

> <PUBCHEM_SUBSTANCE_SYNONYM>
SCHEMBL16125508

> <PUBCHEM_XREF_EXT_ID>
SCHEMBL16125508

> <PUBCHEM_EXT_DATASOURCE_URL>
https://www.surechembl.org/

> <PUBCHEM_EXT_SUBSTANCE_URL>
https://www.surechembl.org/chemical/SCHEMBL16125508

> <PUBCHEM_CID_ASSOCIATIONS>
117613098  1

> <PUBCHEM_COORDINATE_TYPE>
1
3

> <PUBCHEM_BONDANNOTATIONS>
32  37  6

$$$$
