310948097
  -OEChem-07211613022D

 22 24  0     0  0  0  0  0  0999 V2000
   -1.7441   -1.7549    0.0000 O   0  0  0  0  0  0  0  0  0  0  0  0
    1.0941    0.0216    0.0000 N   0  0  0  0  0  0  0  0  0  0  0  0
    2.0041   -1.2999    0.0000 N   0  0  0  0  0  0  0  0  0  0  0  0
    2.8058   -1.2999    0.0000 N   0  0  0  0  0  0  0  0  0  0  0  0
    3.8023   -0.0650    0.0000 N   0  0  0  0  0  0  0  0  0  0  0  0
    2.4807    1.7549    0.0000 N   0  0  0  0  0  0  0  0  0  0  0  0
    1.7658   -0.4117    0.0000 C   0  0  0  0  0  0  0  0  0  0  0  0
    2.4374    0.0650    0.0000 C   0  0  0  0  0  0  0  0  0  0  0  0
    3.0874   -0.4767    0.0000 C   0  0  0  0  0  0  0  0  0  0  0  0
    0.3792   -0.4117    0.0000 C   0  0  0  0  0  0  0  0  0  0  0  0
   -1.0291   -1.2999    0.0000 C   0  0  0  0  0  0  0  0  0  0  0  0
    2.4590    0.9533    0.0000 C   0  0  0  0  0  0  0  0  0  0  0  0
    0.3575   -1.2999    0.0000 C   0  0  0  0  0  0  0  0  0  0  0  0
   -0.3358    0.0000    0.0000 C   0  0  0  0  0  0  0  0  0  0  0  0
   -0.3142   -1.7333    0.0000 C   0  0  0  0  0  0  0  0  0  0  0  0
   -1.0074   -0.4117    0.0000 C   0  0  0  0  0  0  0  0  0  0  0  0
   -2.4590   -1.2783    0.0000 C   0  0  0  0  0  0  0  0  0  0  0  0
   -2.4590   -0.4117    0.0000 C   0  0  0  0  0  0  0  0  0  0  0  0
   -3.1307   -1.7333    0.0000 C   0  0  0  0  0  0  0  0  0  0  0  0
   -3.1307    0.0216    0.0000 C   0  0  0  0  0  0  0  0  0  0  0  0
   -3.8023   -1.2999    0.0000 C   0  0  0  0  0  0  0  0  0  0  0  0
   -3.8023   -0.3900    0.0000 C   0  0  0  0  0  0  0  0  0  0  0  0
  1 11  1  0  0  0  0
  1 17  1  0  0  0  0
  2  7  1  0  0  0  0
  2 10  1  0  0  0  0
  3  4  1  0  0  0  0
  3  7  2  0  0  0  0
  4  9  1  0  0  0  0
  5  9  1  0  0  0  0
  6 12  3  0  0  0  0
  7  8  1  0  0  0  0
  8  9  2  0  0  0  0
  8 12  1  0  0  0  0
 10 13  2  0  0  0  0
 10 14  1  0  0  0  0
 11 15  2  0  0  0  0
 11 16  1  0  0  0  0
 13 15  1  0  0  0  0
 14 16  2  0  0  0  0
 17 18  2  0  0  0  0
 17 19  1  0  0  0  0
 18 20  1  0  0  0  0
 19 21  2  0  0  0  0
 20 22  2  0  0  0  0
 21 22  1  0  0  0  0
M  END
> <PUBCHEM_COMPOUND_ID_TYPE>
0

> <PUBCHEM_TOTAL_CHARGE>
0

> <PUBCHEM_SUBSTANCE_ID>
310948097

> <PUBCHEM_SUBSTANCE_VERSION>
1

> <PUBCHEM_EXT_DATASOURCE_NAME>
4488

> <PUBCHEM_EXT_DATASOURCE_REGID>
SCHEMBL16126273

> <PUBCHEM_SUBSTANCE_COMMENT>
InChI=1S/C16H13N5O/c17-10-14-15(18)20-21-16(14)19-11-6-8-13(9-7-11)22-12-4-2-1-3-5-12/h1-9H,(H4,18,19,20,21)
InChIKey=OCSFCEHCHXBDIL-UHFFFAOYSA-N

> <PUBCHEM_SUBSTANCE_SYNONYM>
SCHEMBL16126273

> <PUBCHEM_XREF_EXT_ID>
SCHEMBL16126273

> <PUBCHEM_EXT_DATASOURCE_URL>
https://www.surechembl.org/

> <PUBCHEM_EXT_SUBSTANCE_URL>
https://www.surechembl.org/chemical/SCHEMBL16126273

> <PUBCHEM_CID_ASSOCIATIONS>
90463198  1

> <PUBCHEM_COORDINATE_TYPE>
1
3

$$$$
