310939412
  -OEChem-07211613022D

 61 66  0     1  0  0  0  0  0999 V2000
    4.7439    5.6137    0.0000 O   0  0  0  0  0  0  0  0  0  0  0  0
    3.4367    4.4902    0.0000 O   0  0  0  0  0  0  0  0  0  0  0  0
    1.6886    4.2110    0.0000 O   0  0  0  0  0  0  0  0  0  0  0  0
    0.6738    4.5101    0.0000 O   0  0  0  0  0  0  0  0  0  0  0  0
   -1.6382    5.0838    0.0000 O   0  0  0  0  0  0  0  0  0  0  0  0
    2.1602    7.4643    0.0000 O   0  0  0  0  0  0  0  0  0  0  0  0
    3.0977    7.3405    0.0000 O   0  0  0  0  0  0  0  0  0  0  0  0
    0.9184    7.5716    0.0000 O   0  0  0  0  0  0  0  0  0  0  0  0
    0.2597    4.2110    0.0000 O   0  0  0  0  0  0  0  0  0  0  0  0
    2.0078    4.4902    0.0000 O   0  0  0  0  0  0  0  0  0  0  0  0
   -2.3527    6.3213    0.0000 O   0  0  0  0  0  0  0  0  0  0  0  0
   -3.0672    4.2588    0.0000 O   0  0  0  0  0  0  0  0  0  0  0  0
   -2.3527    3.0213    0.0000 O   0  0  0  0  0  0  0  0  0  0  0  0
   -4.4961    3.4338    0.0000 O   0  0  0  0  0  0  0  0  0  0  0  0
   -5.2106    2.1963    0.0000 O   0  0  0  0  0  0  0  0  0  0  0  0
    2.5942    5.3738    0.0000 C   0  0  3  0  0  0  0  0  0  0  0  0
    3.4367    5.3152    0.0000 C   0  0  3  0  0  0  0  0  0  0  0  0
    2.2655    6.1569    0.0000 C   0  0  3  0  0  0  0  0  0  0  0  0
    0.8873    5.3070    0.0000 C   0  0  3  0  0  0  0  0  0  0  0  0
    1.6886    5.0360    0.0000 C   0  0  3  0  0  0  0  0  0  0  0  0
    0.3557    6.7912    0.0000 C   0  0  0  0  0  0  0  0  0  0  0  0
    0.4040    6.0823    0.0000 C   0  0  0  0  0  0  0  0  0  0  0  0
    3.9326    5.7637    0.0000 C   0  0  3  0  0  0  0  0  0  0  0  0
    1.7477    6.7499    0.0000 C   0  0  0  0  0  0  0  0  0  0  0  0
    2.8842    6.5436    0.0000 C   0  0  3  0  0  0  0  0  0  0  0  0
   -0.9238    5.4963    0.0000 C   0  0  3  0  0  0  0  0  0  0  0  0
    0.9184    6.7466    0.0000 C   0  0  3  0  0  0  0  0  0  0  0  0
   -0.2093    5.0838    0.0000 C   0  0  0  0  0  0  0  0  0  0  0  0
   -0.3404    6.0796    0.0000 C   0  0  0  0  0  0  0  0  0  0  0  0
    4.2336    5.1017    0.0000 C   0  0  0  0  0  0  0  0  0  0  0  0
    3.6209    6.4405    0.0000 C   0  0  0  0  0  0  0  0  0  0  0  0
    2.4790    6.9538    0.0000 C   0  0  0  0  0  0  0  0  0  0  0  0
    0.6175    7.2498    0.0000 C   0  0  0  0  0  0  0  0  0  0  0  0
   -0.3588    7.2037    0.0000 C   0  0  0  0  0  0  0  0  0  0  0  0
    2.7222    4.0777    0.0000 C   0  0  0  0  0  0  0  0  0  0  0  0
    0.9741    3.7985    0.0000 C   0  0  0  0  0  0  0  0  0  0  0  0
   -1.5071    6.0796    0.0000 C   0  0  0  0  0  0  0  0  0  0  0  0
   -0.9238    6.6630    0.0000 C   0  0  0  0  0  0  0  0  0  0  0  0
   -2.3527    5.4963    0.0000 C   0  0  0  0  0  0  0  0  0  0  0  0
    0.9741    2.9735    0.0000 C   0  0  0  0  0  0  0  0  0  0  0  0
   -3.0672    5.0838    0.0000 C   0  0  3  0  0  0  0  0  0  0  0  0
    2.7222    3.2527    0.0000 C   0  0  0  0  0  0  0  0  0  0  0  0
    0.2597    2.5610    0.0000 C   0  0  0  0  0  0  0  0  0  0  0  0
    1.6886    2.5610    0.0000 C   0  0  0  0  0  0  0  0  0  0  0  0
   -3.7817    5.4963    0.0000 C   0  0  3  0  0  0  0  0  0  0  0  0
   -4.4961    5.0838    0.0000 C   0  0  0  0  0  0  0  0  0  0  0  0
    0.2597    1.7360    0.0000 C   0  0  0  0  0  0  0  0  0  0  0  0
    1.6886    1.7360    0.0000 C   0  0  0  0  0  0  0  0  0  0  0  0
   -3.0672    3.4338    0.0000 C   0  0  0  0  0  0  0  0  0  0  0  0
    0.9741    1.3235    0.0000 C   0  0  0  0  0  0  0  0  0  0  0  0
   -3.9952    6.2931    0.0000 C   0  0  0  0  0  0  0  0  0  0  0  0
   -5.2106    5.4963    0.0000 C   0  0  0  0  0  0  0  0  0  0  0  0
   -4.4961    4.2588    0.0000 C   0  0  0  0  0  0  0  0  0  0  0  0
   -3.7817    3.0213    0.0000 C   0  0  0  0  0  0  0  0  0  0  0  0
   -5.9251    5.0838    0.0000 C   0  0  0  0  0  0  0  0  0  0  0  0
   -5.2106    3.8463    0.0000 C   0  0  0  0  0  0  0  0  0  0  0  0
   -5.9251    4.2588    0.0000 C   0  0  0  0  0  0  0  0  0  0  0  0
   -5.2106    3.0213    0.0000 C   0  0  0  0  0  0  0  0  0  0  0  0
   -5.9251    3.4338    0.0000 C   0  0  0  0  0  0  0  0  0  0  0  0
   -6.6395    3.0213    0.0000 C   0  0  0  0  0  0  0  0  0  0  0  0
   -7.3540    3.4338    0.0000 C   0  0  0  0  0  0  0  0  0  0  0  0
  1 23  1  0  0  0  0
  1 30  1  0  0  0  0
 17  2  1  6  0  0  0
  2 35  1  0  0  0  0
 20  3  1  6  0  0  0
  3 36  1  0  0  0  0
 19  4  1  6  0  0  0
 26  5  1  6  0  0  0
  5 39  1  0  0  0  0
  6 24  2  0  0  0  0
 25  7  1  1  0  0  0
 27  8  1  1  0  0  0
  9 36  2  0  0  0  0
 10 35  2  0  0  0  0
 11 39  2  0  0  0  0
 41 12  1  6  0  0  0
 12 49  1  0  0  0  0
 13 49  2  0  0  0  0
 14 54  1  0  0  0  0
 14 58  1  0  0  0  0
 15 58  2  0  0  0  0
 16 17  1  0  0  0  0
 16 18  1  0  0  0  0
 16 20  1  1  0  0  0
 17 23  1  0  0  0  0
 17 30  1  0  0  0  0
 18 24  1  0  0  0  0
 18 25  1  0  0  0  0
 18 32  1  1  0  0  0
 19 20  1  0  0  0  0
 19 21  1  0  0  0  0
 19 28  1  0  0  0  0
 21 22  1  0  0  0  0
 21 33  1  0  0  0  0
 21 34  1  0  0  0  0
 22 27  1  0  0  0  0
 22 29  2  0  0  0  0
 23 31  1  1  0  0  0
 24 27  1  0  0  0  0
 25 31  1  0  0  0  0
 26 28  1  0  0  0  0
 26 29  1  0  0  0  0
 26 37  1  1  0  0  0
 29 38  1  0  0  0  0
 35 42  1  0  0  0  0
 36 40  1  0  0  0  0
 39 41  1  0  0  0  0
 40 43  2  0  0  0  0
 40 44  1  0  0  0  0
 41 45  1  0  0  0  0
 43 47  1  0  0  0  0
 44 48  2  0  0  0  0
 45 46  1  0  0  0  0
 45 51  1  6  0  0  0
 46 52  2  0  0  0  0
 46 53  1  0  0  0  0
 47 50  2  0  0  0  0
 48 50  1  0  0  0  0
 49 54  1  0  0  0  0
 52 55  1  0  0  0  0
 53 56  2  0  0  0  0
 55 57  2  0  0  0  0
 56 57  1  0  0  0  0
 58 59  1  0  0  0  0
 59 60  1  0  0  0  0
 60 61  1  0  0  0  0
M  END
> <PUBCHEM_COMPOUND_ID_TYPE>
0

> <PUBCHEM_TOTAL_CHARGE>
0

> <PUBCHEM_SUBSTANCE_ID>
310939412

> <PUBCHEM_SUBSTANCE_VERSION>
1

> <PUBCHEM_EXT_DATASOURCE_NAME>
4488

> <PUBCHEM_EXT_DATASOURCE_REGID>
SCHEMBL16117334

> <PUBCHEM_SUBSTANCE_COMMENT>
InChI=1S/C46H56O15/c1-9-16-32(49)56-22-33(50)58-36(25(2)28-17-12-10-13-18-28)41(54)61-43(7)23-46(55)39(59-40(53)29-19-14-11-15-20-29)37-44(8,38(52)35(51)34(26(43)3)42(46,5)6)30(48)21-31-45(37,24-57-31)60-27(4)47/h10-15,17-20,25,30-31,35-37,39,48,51,55H,9,16,21-24H2,1-8H3/t25-,30-,31+,35+,36+,37-,39-,43-,44+,45-,46-/m0/s1
InChIKey=HJHYUZDULRMACL-YZAJFDPJSA-N

> <PUBCHEM_SUBSTANCE_SYNONYM>
SCHEMBL16117334

> <PUBCHEM_XREF_EXT_ID>
SCHEMBL16117334

> <PUBCHEM_EXT_DATASOURCE_URL>
https://www.surechembl.org/

> <PUBCHEM_EXT_SUBSTANCE_URL>
https://www.surechembl.org/chemical/SCHEMBL16117334

> <PUBCHEM_CID_ASSOCIATIONS>
117606739  1

> <PUBCHEM_COORDINATE_TYPE>
1
3

> <PUBCHEM_BONDANNOTATIONS>
41  12  6
16  20  5
18  32  5
17  2  6
23  31  5
26  37  5
20  3  6
19  4  6
45  51  6
26  5  6
25  7  5
27  8  5

$$$$
