310944279
  -OEChem-07211613022D

 30 32  0     0  0  0  0  0  0999 V2000
   -3.4062   -1.2765    0.0000 Cl  0  0  0  0  0  0  0  0  0  0  0  0
   -2.5344    1.6377    0.0000 O   0  0  0  0  0  0  0  0  0  0  0  0
   -0.3674   -1.2641    0.0000 O   0  0  0  0  0  0  0  0  0  0  0  0
    1.0648    1.2267    0.0000 O   0  0  0  0  0  0  0  0  0  0  0  0
    4.6640   -0.8531    0.0000 O   0  0  0  0  0  0  0  0  0  0  0  0
   -0.3549    0.3923    0.0000 N   0  0  0  0  0  0  0  0  0  0  0  0
    1.8120   -0.0187    0.0000 N   0  0  0  0  0  0  0  0  0  0  0  0
    3.2443   -0.8531    0.0000 N   0  0  0  0  0  0  0  0  0  0  0  0
   -2.5095   -0.0187    0.0000 C   0  0  0  0  0  0  0  0  0  0  0  0
   -3.2443    0.4047    0.0000 C   0  0  0  0  0  0  0  0  0  0  0  0
   -2.5219   -0.8531    0.0000 C   0  0  0  0  0  0  0  0  0  0  0  0
   -1.0773   -0.0187    0.0000 C   0  0  0  0  0  0  0  0  0  0  0  0
   -1.7996    0.3799    0.0000 C   0  0  0  0  0  0  0  0  0  0  0  0
   -1.0897   -0.8407    0.0000 C   0  0  0  0  0  0  0  0  0  0  0  0
   -3.2318    1.2267    0.0000 C   0  0  0  0  0  0  0  0  0  0  0  0
   -1.7872   -1.2641    0.0000 C   0  0  0  0  0  0  0  0  0  0  0  0
   -3.9541   -0.0187    0.0000 C   0  0  0  0  0  0  0  0  0  0  0  0
    1.0648    0.3799    0.0000 C   0  0  0  0  0  0  0  0  0  0  0  0
   -3.9666    1.6253    0.0000 C   0  0  0  0  0  0  0  0  0  0  0  0
    0.3674   -0.0187    0.0000 C   0  0  0  0  0  0  0  0  0  0  0  0
   -4.6640    0.4047    0.0000 C   0  0  0  0  0  0  0  0  0  0  0  0
    2.5095    0.3923    0.0000 C   0  0  0  0  0  0  0  0  0  0  0  0
    1.8120   -0.8531    0.0000 C   0  0  0  0  0  0  0  0  0  0  0  0
   -4.6640    1.2143    0.0000 C   0  0  0  0  0  0  0  0  0  0  0  0
    3.2318   -0.0187    0.0000 C   0  0  0  0  0  0  0  0  0  0  0  0
    2.5219   -1.2641    0.0000 C   0  0  0  0  0  0  0  0  0  0  0  0
    3.9541   -1.2641    0.0000 C   0  0  0  0  0  0  0  0  0  0  0  0
    3.9541   -2.0985    0.0000 C   0  0  0  0  0  0  0  0  0  0  0  0
   -2.5219    2.4721    0.0000 C   0  0  0  0  0  0  0  0  0  0  0  0
    3.2193   -2.4721    0.0000 C   0  0  0  0  0  0  0  0  0  0  0  0
  1 11  1  0  0  0  0
  2 15  1  0  0  0  0
  2 29  1  0  0  0  0
  3 14  1  0  0  0  0
  4 18  2  0  0  0  0
  5 27  2  0  0  0  0
  6 12  1  0  0  0  0
  6 20  1  0  0  0  0
  7 18  1  0  0  0  0
  7 22  1  0  0  0  0
  7 23  1  0  0  0  0
  8 25  1  0  0  0  0
  8 26  1  0  0  0  0
  8 27  1  0  0  0  0
  9 10  1  0  0  0  0
  9 11  2  0  0  0  0
  9 13  1  0  0  0  0
 10 15  1  0  0  0  0
 10 17  2  0  0  0  0
 11 16  1  0  0  0  0
 12 13  2  0  0  0  0
 12 14  1  0  0  0  0
 14 16  2  0  0  0  0
 15 19  2  0  0  0  0
 17 21  1  0  0  0  0
 18 20  1  0  0  0  0
 19 24  1  0  0  0  0
 21 24  2  0  0  0  0
 22 25  1  0  0  0  0
 23 26  1  0  0  0  0
 27 28  1  0  0  0  0
 28 30  2  0  0  0  0
M  END
> <PUBCHEM_COMPOUND_ID_TYPE>
0

> <PUBCHEM_TOTAL_CHARGE>
0

> <PUBCHEM_SUBSTANCE_ID>
310944279

> <PUBCHEM_SUBSTANCE_VERSION>
1

> <PUBCHEM_EXT_DATASOURCE_NAME>
4488

> <PUBCHEM_EXT_DATASOURCE_REGID>
SCHEMBL16122354

> <PUBCHEM_SUBSTANCE_COMMENT>
InChI=1S/C22H24ClN3O4/c1-3-21(28)25-8-10-26(11-9-25)22(29)14-24-18-12-16(17(23)13-19(18)27)15-6-4-5-7-20(15)30-2/h3-7,12-13,24,27H,1,8-11,14H2,2H3
InChIKey=YXTZITHYBOIUJE-UHFFFAOYSA-N

> <PUBCHEM_SUBSTANCE_SYNONYM>
SCHEMBL16122354

> <PUBCHEM_XREF_EXT_ID>
SCHEMBL16122354

> <PUBCHEM_EXT_DATASOURCE_URL>
https://www.surechembl.org/

> <PUBCHEM_EXT_SUBSTANCE_URL>
https://www.surechembl.org/chemical/SCHEMBL16122354

> <PUBCHEM_CID_ASSOCIATIONS>
117610547  1

> <PUBCHEM_COORDINATE_TYPE>
1
3

$$$$
