310944190
  -OEChem-07211613022D

 35 40  0     1  0  0  0  0  0999 V2000
    2.6070   -1.0285    0.0000 O   0  0  0  0  0  0  0  0  0  0  0  0
    1.0120    1.2485    0.0000 O   0  0  0  0  0  0  0  0  0  0  0  0
    5.0930   -0.4895    0.0000 O   0  0  0  0  0  0  0  0  0  0  0  0
    6.0170    0.6545    0.0000 O   0  0  0  0  0  0  0  0  0  0  0  0
   -1.9030   -1.7765    0.0000 O   0  0  0  0  0  0  0  0  0  0  0  0
    3.1350    0.3465    0.0000 N   0  0  0  0  0  0  0  0  0  0  0  0
   -0.1980   -0.5115    0.0000 N   0  0  0  0  0  0  0  0  0  0  0  0
   -4.7520    0.6985    0.0000 N   0  0  0  0  0  0  0  0  0  0  0  0
   -3.3220    0.6985    0.0000 N   0  0  0  0  0  0  0  0  0  0  0  0
   -4.7520    1.5235    0.0000 N   0  0  0  0  0  0  0  0  0  0  0  0
   -5.5330    1.7765    0.0000 N   0  0  0  0  0  0  0  0  0  0  0  0
   -6.0170    1.1165    0.0000 N   0  0  0  0  0  0  0  0  0  0  0  0
    1.7930    0.2035    0.0000 C   0  0  0  0  0  0  0  0  0  0  0  0
    2.5190   -0.1705    0.0000 C   0  0  0  0  0  0  0  0  0  0  0  0
    1.0340   -0.0055    0.0000 C   0  0  0  0  0  0  0  0  0  0  0  0
    1.3970   -0.5005    0.0000 C   0  0  0  0  0  0  0  0  0  0  0  0
    0.2090    0.2145    0.0000 C   0  0  3  0  0  0  0  0  0  0  0  0
    0.5940   -0.2585    0.0000 C   0  0  3  0  0  0  0  0  0  0  0  0
    1.9800    1.0285    0.0000 C   0  0  0  0  0  0  0  0  0  0  0  0
    3.9380    0.1815    0.0000 C   0  0  0  0  0  0  0  0  0  0  0  0
    2.7940    1.1165    0.0000 C   0  0  0  0  0  0  0  0  0  0  0  0
    4.5540    0.7425    0.0000 C   0  0  0  0  0  0  0  0  0  0  0  0
    0.2200    1.0505    0.0000 C   0  0  0  0  0  0  0  0  0  0  0  0
    0.6050    0.5775    0.0000 C   0  0  0  0  0  0  0  0  0  0  0  0
   -1.1880   -0.5335    0.0000 C   0  0  0  0  0  0  0  0  0  0  0  0
    4.2900   -0.5665    0.0000 C   0  0  0  0  0  0  0  0  0  0  0  0
    5.2470    0.3245    0.0000 C   0  0  0  0  0  0  0  0  0  0  0  0
   -1.8810   -0.9405    0.0000 C   0  0  3  0  0  0  0  0  0  0  0  0
   -2.6070   -0.5225    0.0000 C   0  0  0  0  0  0  0  0  0  0  0  0
    4.4770    1.5785    0.0000 C   0  0  0  0  0  0  0  0  0  0  0  0
   -4.0370    0.2915    0.0000 C   0  0  0  0  0  0  0  0  0  0  0  0
   -2.6070    0.2915    0.0000 C   0  0  0  0  0  0  0  0  0  0  0  0
   -3.3110   -0.9405    0.0000 C   0  0  0  0  0  0  0  0  0  0  0  0
   -4.0370   -0.5335    0.0000 C   0  0  0  0  0  0  0  0  0  0  0  0
   -5.5220    0.4565    0.0000 C   0  0  0  0  0  0  0  0  0  0  0  0
  1 14  2  0  0  0  0
  2 23  1  0  0  0  0
  2 24  1  0  0  0  0
  3 26  1  0  0  0  0
  3 27  1  0  0  0  0
  4 27  2  0  0  0  0
 28  5  1  6  0  0  0
  6 14  1  0  0  0  0
  6 20  1  0  0  0  0
  6 21  1  0  0  0  0
  7 17  1  0  0  0  0
  7 18  1  0  0  0  0
  7 25  1  0  0  0  0
  8 10  1  0  0  0  0
  8 31  1  0  0  0  0
  8 35  1  0  0  0  0
  9 31  1  0  0  0  0
  9 32  2  0  0  0  0
 10 11  2  0  0  0  0
 11 12  1  0  0  0  0
 12 35  2  0  0  0  0
 13 14  1  0  0  0  0
 13 15  1  0  0  0  0
 13 16  1  0  0  0  0
 13 19  1  0  0  0  0
 15 17  1  0  0  0  0
 16 18  1  0  0  0  0
 17 23  1  0  0  0  0
 18 24  1  0  0  0  0
 19 21  1  0  0  0  0
 20 22  2  0  0  0  0
 20 26  1  0  0  0  0
 22 27  1  0  0  0  0
 22 30  1  0  0  0  0
 25 28  1  0  0  0  0
 28 29  1  0  0  0  0
 29 32  1  0  0  0  0
 29 33  2  0  0  0  0
 31 34  2  0  0  0  0
 33 34  1  0  0  0  0
M  END
> <PUBCHEM_COMPOUND_ID_TYPE>
0

> <PUBCHEM_TOTAL_CHARGE>
0

> <PUBCHEM_SUBSTANCE_ID>
310944190

> <PUBCHEM_SUBSTANCE_VERSION>
1

> <PUBCHEM_EXT_DATASOURCE_NAME>
4488

> <PUBCHEM_EXT_DATASOURCE_REGID>
SCHEMBL16122265

> <PUBCHEM_SUBSTANCE_COMMENT>
InChI=1S/C23H27N7O5/c1-14-18(12-35-21(14)32)28-5-4-23(22(28)33)6-16-10-34-11-17(7-23)29(16)9-19(31)15-2-3-20(24-8-15)30-13-25-26-27-30/h2-3,8,13,16-17,19,31H,4-7,9-12H2,1H3/t16?,17?,19-,23?/m0/s1
InChIKey=DRDQGLPHZPNINC-CQECULCQSA-N

> <PUBCHEM_SUBSTANCE_SYNONYM>
SCHEMBL16122265

> <PUBCHEM_XREF_EXT_ID>
SCHEMBL16122265

> <PUBCHEM_EXT_DATASOURCE_URL>
https://www.surechembl.org/

> <PUBCHEM_EXT_SUBSTANCE_URL>
https://www.surechembl.org/chemical/SCHEMBL16122265

> <PUBCHEM_CID_ASSOCIATIONS>
117610462  1

> <PUBCHEM_COORDINATE_TYPE>
1
3

> <PUBCHEM_BONDANNOTATIONS>
28  5  6

$$$$
