310933978
  -OEChem-07211613022D

 39 43  0     1  0  0  0  0  0999 V2000
   -8.5736   -1.6821    0.0000 Cl  0  0  0  0  0  0  0  0  0  0  0  0
   -8.5736   -3.3321    0.0000 F   0  0  0  0  0  0  0  0  0  0  0  0
   -5.0013    0.3804    0.0000 O   0  0  0  0  0  0  0  0  0  0  0  0
   -2.1434   -2.9196    0.0000 O   0  0  0  0  0  0  0  0  0  0  0  0
   -1.4290   -1.6821    0.0000 O   0  0  0  0  0  0  0  0  0  0  0  0
   -8.5736    1.6179    0.0000 N   0  0  0  0  0  0  0  0  0  0  0  0
   -5.7158    1.6179    0.0000 N   0  0  0  0  0  0  0  0  0  0  0  0
   -7.9062    2.1029    0.0000 N   0  0  0  0  0  0  0  0  0  0  0  0
   -8.1611    2.8875    0.0000 N   0  0  0  0  0  0  0  0  0  0  0  0
   -8.9861    2.8875    0.0000 N   0  0  0  0  0  0  0  0  0  0  0  0
   -5.0013   -0.4446    0.0000 N   0  0  0  0  0  0  0  0  0  0  0  0
   -7.1447    0.7929    0.0000 C   0  0  0  0  0  0  0  0  0  0  0  0
   -7.8592    0.3804    0.0000 C   0  0  0  0  0  0  0  0  0  0  0  0
   -6.4302    0.3804    0.0000 C   0  0  0  0  0  0  0  0  0  0  0  0
   -8.5736    0.7929    0.0000 C   0  0  0  0  0  0  0  0  0  0  0  0
   -6.4302   -0.4446    0.0000 C   0  0  3  0  0  0  0  0  0  0  0  0
   -5.7158    0.7929    0.0000 C   0  0  0  0  0  0  0  0  0  0  0  0
   -7.8592   -0.4446    0.0000 C   0  0  0  0  0  0  0  0  0  0  0  0
   -7.1447    1.6179    0.0000 C   0  0  0  0  0  0  0  0  0  0  0  0
   -9.2881    0.3804    0.0000 C   0  0  0  0  0  0  0  0  0  0  0  0
   -8.5736   -0.8571    0.0000 C   0  0  0  0  0  0  0  0  0  0  0  0
   -7.1447   -0.8571    0.0000 C   0  0  0  0  0  0  0  0  0  0  0  0
   -6.4302    2.0304    0.0000 C   0  0  0  0  0  0  0  0  0  0  0  0
   -9.2881   -0.4446    0.0000 C   0  0  0  0  0  0  0  0  0  0  0  0
   -5.7158   -0.8571    0.0000 C   0  0  0  0  0  0  0  0  0  0  0  0
   -9.2411    2.1029    0.0000 C   0  0  0  0  0  0  0  0  0  0  0  0
   -7.1447   -1.6821    0.0000 C   0  0  0  0  0  0  0  0  0  0  0  0
   -4.2868   -0.8571    0.0000 C   0  0  0  0  0  0  0  0  0  0  0  0
   -7.8592   -2.0946    0.0000 C   0  0  0  0  0  0  0  0  0  0  0  0
   -6.4302   -2.0946    0.0000 C   0  0  0  0  0  0  0  0  0  0  0  0
   -7.8592   -2.9196    0.0000 C   0  0  0  0  0  0  0  0  0  0  0  0
   -4.2868   -1.6821    0.0000 C   0  0  0  0  0  0  0  0  0  0  0  0
   -3.5724   -0.4446    0.0000 C   0  0  0  0  0  0  0  0  0  0  0  0
   -2.8579   -1.6821    0.0000 C   0  0  0  0  0  0  0  0  0  0  0  0
   -6.4302   -2.9196    0.0000 C   0  0  0  0  0  0  0  0  0  0  0  0
   -7.1447   -3.3321    0.0000 C   0  0  0  0  0  0  0  0  0  0  0  0
   -3.5724   -2.0946    0.0000 C   0  0  0  0  0  0  0  0  0  0  0  0
   -2.8579   -0.8571    0.0000 C   0  0  0  0  0  0  0  0  0  0  0  0
   -2.1434   -2.0946    0.0000 C   0  0  0  0  0  0  0  0  0  0  0  0
  1 21  1  0  0  0  0
  2 31  1  0  0  0  0
  3 17  2  0  0  0  0
  4 39  2  0  0  0  0
  5 39  1  0  0  0  0
  6  8  1  0  0  0  0
  6 15  1  0  0  0  0
  6 26  1  0  0  0  0
  7 17  1  0  0  0  0
  7 23  1  0  0  0  0
  8  9  2  0  0  0  0
  9 10  1  0  0  0  0
 10 26  2  0  0  0  0
 11 25  1  0  0  0  0
 11 28  1  0  0  0  0
 12 13  1  0  0  0  0
 12 14  2  0  0  0  0
 12 19  1  0  0  0  0
 13 15  1  0  0  0  0
 13 18  2  0  0  0  0
 14 16  1  0  0  0  0
 14 17  1  0  0  0  0
 15 20  2  0  0  0  0
 16 22  1  0  0  0  0
 16 25  1  6  0  0  0
 18 21  1  0  0  0  0
 19 23  2  0  0  0  0
 20 24  1  0  0  0  0
 21 24  2  0  0  0  0
 22 27  1  0  0  0  0
 27 29  1  0  0  0  0
 27 30  2  0  0  0  0
 28 32  2  0  0  0  0
 28 33  1  0  0  0  0
 29 31  2  0  0  0  0
 30 35  1  0  0  0  0
 31 36  1  0  0  0  0
 32 37  1  0  0  0  0
 33 38  2  0  0  0  0
 34 37  2  0  0  0  0
 34 38  1  0  0  0  0
 34 39  1  0  0  0  0
 35 36  2  0  0  0  0
M  END
> <PUBCHEM_COMPOUND_ID_TYPE>
0

> <PUBCHEM_TOTAL_CHARGE>
0

> <PUBCHEM_SUBSTANCE_ID>
310933978

> <PUBCHEM_SUBSTANCE_VERSION>
1

> <PUBCHEM_EXT_DATASOURCE_NAME>
4488

> <PUBCHEM_EXT_DATASOURCE_REGID>
SCHEMBL16111418

> <PUBCHEM_SUBSTANCE_COMMENT>
InChI=1S/C28H22ClFN6O3/c29-20-6-9-25(36-16-33-34-35-36)24(14-20)23-10-11-31-27(37)26(23)19(12-17-2-1-3-21(30)13-17)15-32-22-7-4-18(5-8-22)28(38)39/h1-11,13-14,16,19,32H,12,15H2,(H,31,37)(H,38,39)/t19-/m0/s1
InChIKey=ASFDNXXAUDVJTN-IBGZPJMESA-N

> <PUBCHEM_SUBSTANCE_SYNONYM>
SCHEMBL16111418

> <PUBCHEM_XREF_EXT_ID>
SCHEMBL16111418

> <PUBCHEM_EXT_DATASOURCE_URL>
https://www.surechembl.org/

> <PUBCHEM_EXT_SUBSTANCE_URL>
https://www.surechembl.org/chemical/SCHEMBL16111418

> <PUBCHEM_CID_ASSOCIATIONS>
117602291  1

> <PUBCHEM_COORDINATE_TYPE>
1
3

> <PUBCHEM_BONDANNOTATIONS>
16  25  6

$$$$
