310939002
  -OEChem-07211613022D

 28 32  0     0  0  0  0  0  0999 V2000
   -0.9807   14.4157    0.0000 F   0  0  0  0  0  0  0  0  0  0  0  0
   -1.0531   17.2266    0.0000 O   0  0  0  0  0  0  0  0  0  0  0  0
   -0.9807   15.8447    0.0000 N   0  0  0  0  0  0  0  0  0  0  0  0
   -2.9647   16.6697    0.0000 N   0  0  0  0  0  0  0  0  0  0  0  0
    2.8714   10.9448    0.0000 N   0  0  0  0  0  0  0  0  0  0  0  0
   -2.2502   16.2572    0.0000 C   0  0  0  0  0  0  0  0  0  0  0  0
   -1.4656   16.5121    0.0000 C   0  0  0  0  0  0  0  0  0  0  0  0
   -2.2502   15.4322    0.0000 C   0  0  0  0  0  0  0  0  0  0  0  0
   -1.4656   15.1772    0.0000 C   0  0  0  0  0  0  0  0  0  0  0  0
    0.2568   15.1302    0.0000 C   0  0  0  0  0  0  0  0  0  0  0  0
    1.4943   12.9868    0.0000 C   0  0  0  0  0  0  0  0  0  0  0  0
    1.0818   13.7013    0.0000 C   0  0  0  0  0  0  0  0  0  0  0  0
   -0.1557   15.8447    0.0000 C   0  0  0  0  0  0  0  0  0  0  0  0
    2.7318   12.2723    0.0000 C   0  0  0  0  0  0  0  0  0  0  0  0
    2.3193   11.5579    0.0000 C   0  0  0  0  0  0  0  0  0  0  0  0
   -0.1557   14.4157    0.0000 C   0  0  0  0  0  0  0  0  0  0  0  0
    2.3193   12.9868    0.0000 C   0  0  0  0  0  0  0  0  0  0  0  0
    0.2568   13.7013    0.0000 C   0  0  0  0  0  0  0  0  0  0  0  0
   -2.9647   15.0197    0.0000 C   0  0  0  0  0  0  0  0  0  0  0  0
    1.0818   15.1302    0.0000 C   0  0  0  0  0  0  0  0  0  0  0  0
    1.4943   14.4157    0.0000 C   0  0  0  0  0  0  0  0  0  0  0  0
    1.0818   12.2723    0.0000 C   0  0  0  0  0  0  0  0  0  0  0  0
    1.4943   11.5579    0.0000 C   0  0  0  0  0  0  0  0  0  0  0  0
    3.5388   12.1008    0.0000 C   0  0  0  0  0  0  0  0  0  0  0  0
    3.6250   11.2803    0.0000 C   0  0  0  0  0  0  0  0  0  0  0  0
   -3.6791   16.2572    0.0000 C   0  0  0  0  0  0  0  0  0  0  0  0
   -3.6791   15.4322    0.0000 C   0  0  0  0  0  0  0  0  0  0  0  0
    2.4589   10.2303    0.0000 C   0  0  0  0  0  0  0  0  0  0  0  0
  1 16  1  0  0  0  0
  2  7  2  0  0  0  0
  3  7  1  0  0  0  0
  3  9  1  0  0  0  0
  3 13  1  0  0  0  0
  4  6  2  0  0  0  0
  4 26  1  0  0  0  0
  5 15  1  0  0  0  0
  5 25  1  0  0  0  0
  5 28  1  0  0  0  0
  6  7  1  0  0  0  0
  6  8  1  0  0  0  0
  8  9  1  0  0  0  0
  8 19  2  0  0  0  0
 10 13  1  0  0  0  0
 10 16  1  0  0  0  0
 10 20  2  0  0  0  0
 11 12  1  0  0  0  0
 11 17  2  0  0  0  0
 11 22  1  0  0  0  0
 12 18  1  0  0  0  0
 12 21  2  0  0  0  0
 14 15  2  0  0  0  0
 14 17  1  0  0  0  0
 14 24  1  0  0  0  0
 15 23  1  0  0  0  0
 16 18  2  0  0  0  0
 19 27  1  0  0  0  0
 20 21  1  0  0  0  0
 22 23  2  0  0  0  0
 24 25  2  0  0  0  0
 26 27  2  0  0  0  0
M  END
> <PUBCHEM_COMPOUND_ID_TYPE>
0

> <PUBCHEM_TOTAL_CHARGE>
0

> <PUBCHEM_SUBSTANCE_ID>
310939002

> <PUBCHEM_SUBSTANCE_VERSION>
1

> <PUBCHEM_EXT_DATASOURCE_NAME>
4488

> <PUBCHEM_EXT_DATASOURCE_REGID>
SCHEMBL16116921

> <PUBCHEM_SUBSTANCE_COMMENT>
InChI=1S/C23H18FN3O/c1-26-10-8-17-11-15(6-7-21(17)26)16-4-5-18(20(24)12-16)13-27-14-19-3-2-9-25-22(19)23(27)28/h2-12H,13-14H2,1H3
InChIKey=FYGNMXDKAPNFRT-UHFFFAOYSA-N

> <PUBCHEM_SUBSTANCE_SYNONYM>
SCHEMBL16116921

> <PUBCHEM_XREF_EXT_ID>
SCHEMBL16116921

> <PUBCHEM_EXT_DATASOURCE_URL>
https://www.surechembl.org/

> <PUBCHEM_EXT_SUBSTANCE_URL>
https://www.surechembl.org/chemical/SCHEMBL16116921

> <PUBCHEM_CID_ASSOCIATIONS>
117606386  1

> <PUBCHEM_COORDINATE_TYPE>
1
3

$$$$
