310937568
  -OEChem-07211613022D

 46 50  0     1  0  0  0  0  0999 V2000
    9.2960    2.2453    0.0000 F   0  0  0  0  0  0  0  0  0  0  0  0
    8.1437    2.4278    0.0000 F   0  0  0  0  0  0  0  0  0  0  0  0
    9.4785    3.3977    0.0000 F   0  0  0  0  0  0  0  0  0  0  0  0
    8.8479    6.5086    0.0000 F   0  0  0  0  0  0  0  0  0  0  0  0
    7.7587    6.0905    0.0000 F   0  0  0  0  0  0  0  0  0  0  0  0
    9.2661    5.4194    0.0000 F   0  0  0  0  0  0  0  0  0  0  0  0
    4.9879    2.3151    0.0000 F   0  0  0  0  0  0  0  0  0  0  0  0
    4.4582    1.2756    0.0000 F   0  0  0  0  0  0  0  0  0  0  0  0
    3.9483    2.8448    0.0000 F   0  0  0  0  0  0  0  0  0  0  0  0
    5.7878    3.3607    0.0000 O   0  0  0  0  0  0  0  0  0  0  0  0
    4.3677    2.9802    0.0000 O   0  0  0  0  0  0  0  0  0  0  0  0
    4.8946    4.3527    0.0000 N   0  0  0  0  0  0  0  0  0  0  0  0
    2.7512    2.2902    0.0000 N   0  0  3  0  0  0  0  0  0  0  0  0
    2.7512    5.5902    0.0000 N   0  0  0  0  0  0  0  0  0  0  0  0
    2.0367    4.3527    0.0000 N   0  0  0  0  0  0  0  0  0  0  0  0
    6.2003    4.0751    0.0000 C   0  0  3  0  0  0  0  0  0  0  0  0
    5.6483    4.6882    0.0000 C   0  0  3  0  0  0  0  0  0  0  0  0
    7.0208    4.1614    0.0000 C   0  0  0  0  0  0  0  0  0  0  0  0
    3.4656    4.3527    0.0000 C   0  0  0  0  0  0  0  0  0  0  0  0
    4.9808    3.5322    0.0000 C   0  0  0  0  0  0  0  0  0  0  0  0
    2.7512    4.7652    0.0000 C   0  0  0  0  0  0  0  0  0  0  0  0
    4.1801    4.7652    0.0000 C   0  0  0  0  0  0  0  0  0  0  0  0
    2.7512    3.1152    0.0000 C   0  0  0  0  0  0  0  0  0  0  0  0
    8.3262    3.5802    0.0000 C   0  0  0  0  0  0  0  0  0  0  0  0
    8.1768    5.0013    0.0000 C   0  0  0  0  0  0  0  0  0  0  0  0
    7.3563    4.9151    0.0000 C   0  0  0  0  0  0  0  0  0  0  0  0
    7.5057    3.4939    0.0000 C   0  0  0  0  0  0  0  0  0  0  0  0
    3.4186    1.8053    0.0000 C   0  0  3  0  0  0  0  0  0  0  0  0
    3.4656    3.5277    0.0000 C   0  0  0  0  0  0  0  0  0  0  0  0
    8.6617    4.3339    0.0000 C   0  0  0  0  0  0  0  0  0  0  0  0
    8.8111    2.9127    0.0000 C   0  0  0  0  0  0  0  0  0  0  0  0
    8.5124    5.7550    0.0000 C   0  0  0  0  0  0  0  0  0  0  0  0
    4.2032    2.0602    0.0000 C   0  0  0  0  0  0  0  0  0  0  0  0
    2.0367    3.5277    0.0000 C   0  0  0  0  0  0  0  0  0  0  0  0
    2.0837    1.8053    0.0000 C   0  0  0  0  0  0  0  0  0  0  0  0
    5.8198    5.4952    0.0000 C   0  0  0  0  0  0  0  0  0  0  0  0
    3.1637    1.0206    0.0000 C   0  0  0  0  0  0  0  0  0  0  0  0
    2.0367    6.0027    0.0000 C   0  0  0  0  0  0  0  0  0  0  0  0
    2.3387    1.0206    0.0000 C   0  0  0  0  0  0  0  0  0  0  0  0
    3.4656    6.0027    0.0000 C   0  0  0  0  0  0  0  0  0  0  0  0
    1.3222    5.5902    0.0000 C   0  0  0  0  0  0  0  0  0  0  0  0
    2.0367    6.8277    0.0000 C   0  0  0  0  0  0  0  0  0  0  0  0
    0.6078    6.0027    0.0000 C   0  0  0  0  0  0  0  0  0  0  0  0
    1.3222    7.2402    0.0000 C   0  0  0  0  0  0  0  0  0  0  0  0
    4.1801    5.5902    0.0000 C   0  0  0  0  0  0  0  0  0  0  0  0
    0.6078    6.8277    0.0000 C   0  0  0  0  0  0  0  0  0  0  0  0
  1 31  1  0  0  0  0
  2 31  1  0  0  0  0
  3 31  1  0  0  0  0
  4 32  1  0  0  0  0
  5 32  1  0  0  0  0
  6 32  1  0  0  0  0
  7 33  1  0  0  0  0
  8 33  1  0  0  0  0
  9 33  1  0  0  0  0
 10 16  1  0  0  0  0
 10 20  1  0  0  0  0
 11 20  2  0  0  0  0
 12 17  1  0  0  0  0
 12 20  1  0  0  0  0
 12 22  1  0  0  0  0
 13 23  1  0  0  0  0
 13 28  1  0  0  0  0
 13 35  1  0  0  0  0
 14 21  1  0  0  0  0
 14 38  1  0  0  0  0
 14 40  1  0  0  0  0
 15 21  2  0  0  0  0
 15 34  1  0  0  0  0
 16 17  1  0  0  0  0
 16 18  1  1  0  0  0
 17 36  1  1  0  0  0
 18 26  2  0  0  0  0
 18 27  1  0  0  0  0
 19 21  1  0  0  0  0
 19 22  1  0  0  0  0
 19 29  2  0  0  0  0
 23 29  1  0  0  0  0
 23 34  2  0  0  0  0
 24 27  2  0  0  0  0
 24 30  1  0  0  0  0
 24 31  1  0  0  0  0
 25 26  1  0  0  0  0
 25 30  2  0  0  0  0
 25 32  1  0  0  0  0
 28 33  1  0  0  0  0
 28 37  1  0  0  0  0
 35 39  1  0  0  0  0
 37 39  1  0  0  0  0
 38 41  1  0  0  0  0
 38 42  1  0  0  0  0
 40 45  1  0  0  0  0
 41 43  1  0  0  0  0
 42 44  1  0  0  0  0
 43 46  1  0  0  0  0
 44 46  1  0  0  0  0
M  END
> <PUBCHEM_COMPOUND_ID_TYPE>
0

> <PUBCHEM_TOTAL_CHARGE>
0

> <PUBCHEM_SUBSTANCE_ID>
310937568

> <PUBCHEM_SUBSTANCE_VERSION>
1

> <PUBCHEM_EXT_DATASOURCE_NAME>
4488

> <PUBCHEM_EXT_DATASOURCE_REGID>
SCHEMBL16115347

> <PUBCHEM_SUBSTANCE_COMMENT>
InChI=1S/C31H35F9N4O2/c1-3-42(23-8-5-4-6-9-23)27-20(14-24(16-41-27)43-11-7-10-25(43)31(38,39)40)17-44-18(2)26(46-28(44)45)19-12-21(29(32,33)34)15-22(13-19)30(35,36)37/h12-16,18,23,25-26H,3-11,17H2,1-2H3/t18-,25?,26-/m0/s1
InChIKey=DYXCWJISYNDSQB-XLXODUMSSA-N

> <PUBCHEM_SUBSTANCE_SYNONYM>
SCHEMBL16115347

> <PUBCHEM_XREF_EXT_ID>
SCHEMBL16115347

> <PUBCHEM_EXT_DATASOURCE_URL>
https://www.surechembl.org/

> <PUBCHEM_EXT_SUBSTANCE_URL>
https://www.surechembl.org/chemical/SCHEMBL16115347

> <PUBCHEM_CID_ASSOCIATIONS>
85472407  1

> <PUBCHEM_COORDINATE_TYPE>
1
3

> <PUBCHEM_BONDANNOTATIONS>
16  18  5
17  36  5

$$$$
