310942237
  -OEChem-07211613022D

 20 21  0     1  0  0  0  0  0999 V2000
    0.3625    1.4374    0.0000 Cl  0  0  0  0  0  0  0  0  0  0  0  0
   -1.0874   -1.0499    0.0000 F   0  0  0  0  0  0  0  0  0  0  0  0
    0.3500   -0.2250    0.0000 O   0  0  0  0  0  0  0  0  0  0  0  0
    2.5373    0.2000    0.0000 N   0  0  0  0  0  0  0  0  0  0  0  0
   -3.2496    0.2250    0.0000 N   0  0  0  0  0  0  0  0  0  0  0  0
    3.2496    1.4748    0.0000 N   0  0  0  0  0  0  0  0  0  0  0  0
   -0.3750    0.2000    0.0000 C   0  0  0  0  0  0  0  0  0  0  0  0
   -1.0874   -0.2125    0.0000 C   0  0  0  0  0  0  0  0  0  0  0  0
   -1.7998    0.2000    0.0000 C   0  0  0  0  0  0  0  0  0  0  0  0
   -0.3625    1.0374    0.0000 C   0  0  0  0  0  0  0  0  0  0  0  0
   -1.7873    1.0249    0.0000 C   0  0  0  0  0  0  0  0  0  0  0  0
    1.0749    0.2000    0.0000 C   0  0  0  0  0  0  0  0  0  0  0  0
   -2.5247   -0.2125    0.0000 C   0  0  3  0  0  0  0  0  0  0  0  0
   -1.0749    1.4374    0.0000 C   0  0  0  0  0  0  0  0  0  0  0  0
    1.8123   -0.2250    0.0000 C   0  0  0  0  0  0  0  0  0  0  0  0
    1.0999    1.0374    0.0000 C   0  0  0  0  0  0  0  0  0  0  0  0
    2.5247    1.0374    0.0000 C   0  0  0  0  0  0  0  0  0  0  0  0
   -2.5247   -1.0624    0.0000 C   0  0  0  0  0  0  0  0  0  0  0  0
    1.8123    1.4498    0.0000 C   0  0  0  0  0  0  0  0  0  0  0  0
   -3.2246   -1.4748    0.0000 C   0  0  0  0  0  0  0  0  0  0  0  0
  1 10  1  0  0  0  0
  2  8  1  0  0  0  0
  3  7  1  0  0  0  0
  3 12  1  0  0  0  0
  4 15  1  0  0  0  0
  4 17  2  0  0  0  0
 13  5  1  1  0  0  0
  6 17  1  0  0  0  0
  7  8  2  0  0  0  0
  7 10  1  0  0  0  0
  8  9  1  0  0  0  0
  9 11  2  0  0  0  0
  9 13  1  0  0  0  0
 10 14  2  0  0  0  0
 11 14  1  0  0  0  0
 12 15  2  0  0  0  0
 12 16  1  0  0  0  0
 13 18  1  0  0  0  0
 16 19  2  0  0  0  0
 17 19  1  0  0  0  0
 18 20  1  0  0  0  0
M  END
> <PUBCHEM_COMPOUND_ID_TYPE>
0

> <PUBCHEM_TOTAL_CHARGE>
0

> <PUBCHEM_SUBSTANCE_ID>
310942237

> <PUBCHEM_SUBSTANCE_VERSION>
1

> <PUBCHEM_EXT_DATASOURCE_NAME>
4488

> <PUBCHEM_EXT_DATASOURCE_REGID>
SCHEMBL16120272

> <PUBCHEM_SUBSTANCE_COMMENT>
InChI=1S/C14H15ClFN3O/c1-2-11(17)9-4-5-10(15)14(13(9)16)20-8-3-6-12(18)19-7-8/h3-7,11H,2,17H2,1H3,(H2,18,19)/t11-/m1/s1
InChIKey=RESHIEYFPOUJGU-LLVKDONJSA-N

> <PUBCHEM_SUBSTANCE_SYNONYM>
SCHEMBL16120272

> <PUBCHEM_XREF_EXT_ID>
SCHEMBL16120272

> <PUBCHEM_EXT_DATASOURCE_URL>
https://www.surechembl.org/

> <PUBCHEM_EXT_SUBSTANCE_URL>
https://www.surechembl.org/chemical/SCHEMBL16120272

> <PUBCHEM_CID_ASSOCIATIONS>
117608888  1

> <PUBCHEM_COORDINATE_TYPE>
1
3

> <PUBCHEM_BONDANNOTATIONS>
13  5  5

$$$$
