310940573
  -OEChem-07211613022D

 27 30  0     0  0  0  0  0  0999 V2000
    0.6676    2.2904    0.0000 F   0  0  0  0  0  0  0  0  0  0  0  0
    0.9757    1.2017    0.0000 F   0  0  0  0  0  0  0  0  0  0  0  0
   -0.1130    0.8936    0.0000 F   0  0  0  0  0  0  0  0  0  0  0  0
   -1.9617   -2.1261    0.0000 O   0  0  0  0  0  0  0  0  0  0  0  0
    1.9617   -1.7358    0.0000 O   0  0  0  0  0  0  0  0  0  0  0  0
    0.2773   -1.9001    0.0000 N   0  0  0  0  0  0  0  0  0  0  0  0
   -1.2223   -0.8936    0.0000 N   0  0  0  0  0  0  0  0  0  0  0  0
   -0.5238   -2.9888    0.0000 N   0  0  0  0  0  0  0  0  0  0  0  0
    0.2568   -3.2559    0.0000 N   0  0  0  0  0  0  0  0  0  0  0  0
   -0.5033   -2.1466    0.0000 C   0  0  0  0  0  0  0  0  0  0  0  0
   -1.2428   -1.7152    0.0000 C   0  0  0  0  0  0  0  0  0  0  0  0
    0.7292   -2.5574    0.0000 C   0  0  0  0  0  0  0  0  0  0  0  0
   -1.1606    1.5920    0.0000 C   0  0  0  0  0  0  0  0  0  0  0  0
   -0.4417    2.0234    0.0000 C   0  0  0  0  0  0  0  0  0  0  0  0
   -1.2223    0.7703    0.0000 C   0  0  0  0  0  0  0  0  0  0  0  0
    0.2568    1.5920    0.0000 C   0  0  0  0  0  0  0  0  0  0  0  0
    0.6471   -1.1401    0.0000 C   0  0  0  0  0  0  0  0  0  0  0  0
   -0.4827   -0.4827    0.0000 C   0  0  0  0  0  0  0  0  0  0  0  0
   -1.9207   -0.4622    0.0000 C   0  0  0  0  0  0  0  0  0  0  0  0
    1.6125   -2.4753    0.0000 C   0  0  0  0  0  0  0  0  0  0  0  0
   -0.4622    0.3184    0.0000 C   0  0  0  0  0  0  0  0  0  0  0  0
   -1.9001    0.3800    0.0000 C   0  0  0  0  0  0  0  0  0  0  0  0
   -1.8796    2.0234    0.0000 C   0  0  0  0  0  0  0  0  0  0  0  0
   -0.4211    2.8451    0.0000 C   0  0  0  0  0  0  0  0  0  0  0  0
    1.4688   -1.0785    0.0000 C   0  0  0  0  0  0  0  0  0  0  0  0
   -1.8591    2.8656    0.0000 C   0  0  0  0  0  0  0  0  0  0  0  0
   -1.1401    3.2559    0.0000 C   0  0  0  0  0  0  0  0  0  0  0  0
  1 16  1  0  0  0  0
  2 16  1  0  0  0  0
  3 16  1  0  0  0  0
  4 11  2  0  0  0  0
  5 20  1  0  0  0  0
  5 25  1  0  0  0  0
  6 10  1  0  0  0  0
  6 12  1  0  0  0  0
  6 17  1  0  0  0  0
  7 11  1  0  0  0  0
  7 18  1  0  0  0  0
  7 19  1  0  0  0  0
  8  9  1  0  0  0  0
  8 10  2  0  0  0  0
  9 12  2  0  0  0  0
 10 11  1  0  0  0  0
 12 20  1  0  0  0  0
 13 14  2  0  0  0  0
 13 15  1  0  0  0  0
 13 23  1  0  0  0  0
 14 16  1  0  0  0  0
 14 24  1  0  0  0  0
 15 21  1  0  0  0  0
 15 22  1  0  0  0  0
 17 25  1  0  0  0  0
 18 21  1  0  0  0  0
 19 22  1  0  0  0  0
 23 26  2  0  0  0  0
 24 27  2  0  0  0  0
 26 27  1  0  0  0  0
M  END
> <PUBCHEM_COMPOUND_ID_TYPE>
0

> <PUBCHEM_TOTAL_CHARGE>
0

> <PUBCHEM_SUBSTANCE_ID>
310940573

> <PUBCHEM_SUBSTANCE_VERSION>
1

> <PUBCHEM_EXT_DATASOURCE_NAME>
4488

> <PUBCHEM_EXT_DATASOURCE_REGID>
SCHEMBL16118527

> <PUBCHEM_SUBSTANCE_COMMENT>
InChI=1S/C18H19F3N4O2/c19-18(20,21)14-4-2-1-3-13(14)12-5-7-24(8-6-12)17(26)16-23-22-15-11-27-10-9-25(15)16/h1-4,12H,5-11H2
InChIKey=YUPXTCRXDQSIJN-UHFFFAOYSA-N

> <PUBCHEM_SUBSTANCE_SYNONYM>
SCHEMBL16118527

> <PUBCHEM_XREF_EXT_ID>
SCHEMBL16118527

> <PUBCHEM_EXT_DATASOURCE_URL>
https://www.surechembl.org/

> <PUBCHEM_EXT_SUBSTANCE_URL>
https://www.surechembl.org/chemical/SCHEMBL16118527

> <PUBCHEM_CID_ASSOCIATIONS>
117607571  1

> <PUBCHEM_COORDINATE_TYPE>
1
3

$$$$
