310947848
  -OEChem-07211613022D

 12 12  0     0  0  0  0  0  0999 V2000
   -1.6394   -8.3924    0.0000 O   0  0  0  0  0  0  0  0  0  0  0  0
   -2.4240   -9.4723    0.0000 N   0  0  0  0  0  0  0  0  0  0  0  0
   -2.4240   -8.6473    0.0000 C   0  0  0  0  0  0  0  0  0  0  0  0
   -3.1385   -8.2348    0.0000 C   0  0  0  0  0  0  0  0  0  0  0  0
   -3.8530   -6.1723    0.0000 C   0  0  0  0  0  0  0  0  0  0  0  0
   -1.1545   -9.0598    0.0000 C   0  0  0  0  0  0  0  0  0  0  0  0
   -1.6394   -9.7273    0.0000 C   0  0  0  0  0  0  0  0  0  0  0  0
   -3.1385   -7.4098    0.0000 C   0  0  0  0  0  0  0  0  0  0  0  0
   -3.8530   -6.9973    0.0000 C   0  0  0  0  0  0  0  0  0  0  0  0
   -3.0280   -6.1723    0.0000 C   0  0  0  0  0  0  0  0  0  0  0  0
   -4.6780   -6.1723    0.0000 C   0  0  0  0  0  0  0  0  0  0  0  0
   -3.8530   -5.3473    0.0000 C   0  0  0  0  0  0  0  0  0  0  0  0
  1  3  1  0  0  0  0
  1  6  1  0  0  0  0
  2  3  2  0  0  0  0
  2  7  1  0  0  0  0
  3  4  1  0  0  0  0
  4  8  1  0  0  0  0
  5  9  1  0  0  0  0
  5 10  1  0  0  0  0
  5 11  1  0  0  0  0
  5 12  1  0  0  0  0
  6  7  2  0  0  0  0
  8  9  1  0  0  0  0
M  END
> <PUBCHEM_COMPOUND_ID_TYPE>
0

> <PUBCHEM_TOTAL_CHARGE>
0

> <PUBCHEM_SUBSTANCE_ID>
310947848

> <PUBCHEM_SUBSTANCE_VERSION>
1

> <PUBCHEM_EXT_DATASOURCE_NAME>
4488

> <PUBCHEM_EXT_DATASOURCE_REGID>
SCHEMBL16126022

> <PUBCHEM_SUBSTANCE_COMMENT>
InChI=1S/C10H17NO/c1-10(2,3)6-4-5-9-11-7-8-12-9/h7-8H,4-6H2,1-3H3
InChIKey=AEFYGYYMINDXBN-UHFFFAOYSA-N

> <PUBCHEM_SUBSTANCE_SYNONYM>
SCHEMBL16126022

> <PUBCHEM_XREF_EXT_ID>
SCHEMBL16126022

> <PUBCHEM_EXT_DATASOURCE_URL>
https://www.surechembl.org/

> <PUBCHEM_EXT_SUBSTANCE_URL>
https://www.surechembl.org/chemical/SCHEMBL16126022

> <PUBCHEM_CID_ASSOCIATIONS>
117613512  1

> <PUBCHEM_COORDINATE_TYPE>
1
3

> <PUBCHEM_BONDANNOTATIONS>
5  10  3
5  11  3

$$$$
