310936594
  -OEChem-07211613022D

 23 25  0     0  0  0  0  0  0999 V2000
    0.0000   -2.0900    0.0000 F   0  0  0  0  0  0  0  0  0  0  0  0
    3.2449   -3.5749    0.0000 O   0  0  0  0  0  0  0  0  0  0  0  0
    4.5099   -2.8599    0.0000 N   0  0  0  0  0  0  0  0  0  0  0  0
    6.9849    0.0000    0.0000 N   0  0  0  0  0  0  0  0  0  0  0  0
    6.9849   -1.4025    0.0000 N   0  0  0  0  0  0  0  0  0  0  0  0
    8.2499   -0.7150    0.0000 N   0  0  0  0  0  0  0  0  0  0  0  0
    3.2724   -2.1450    0.0000 C   0  0  0  0  0  0  0  0  0  0  0  0
    3.6849   -2.8599    0.0000 C   0  0  0  0  0  0  0  0  0  0  0  0
    2.4474   -2.1175    0.0000 C   0  0  0  0  0  0  0  0  0  0  0  0
    4.5099   -1.4300    0.0000 C   0  0  0  0  0  0  0  0  0  0  0  0
    3.6849   -1.4300    0.0000 C   0  0  0  0  0  0  0  0  0  0  0  0
    4.8949   -2.1450    0.0000 C   0  0  0  0  0  0  0  0  0  0  0  0
    4.9224   -0.7150    0.0000 C   0  0  0  0  0  0  0  0  0  0  0  0
    5.7474   -0.7150    0.0000 C   0  0  0  0  0  0  0  0  0  0  0  0
    2.0350   -2.8324    0.0000 C   0  0  0  0  0  0  0  0  0  0  0  0
    2.0625   -1.4025    0.0000 C   0  0  0  0  0  0  0  0  0  0  0  0
    0.8250   -2.1175    0.0000 C   0  0  0  0  0  0  0  0  0  0  0  0
    1.2100   -2.8324    0.0000 C   0  0  0  0  0  0  0  0  0  0  0  0
    1.2375   -1.4025    0.0000 C   0  0  0  0  0  0  0  0  0  0  0  0
    6.1874    0.0000    0.0000 C   0  0  0  0  0  0  0  0  0  0  0  0
    6.1874   -1.4025    0.0000 C   0  0  0  0  0  0  0  0  0  0  0  0
    7.4249   -0.7150    0.0000 C   0  0  0  0  0  0  0  0  0  0  0  0
    3.6574   -4.2899    0.0000 C   0  0  0  0  0  0  0  0  0  0  0  0
  1 17  1  0  0  0  0
  2  8  1  0  0  0  0
  2 23  1  0  0  0  0
  3  8  2  0  0  0  0
  3 12  1  0  0  0  0
  4 20  1  0  0  0  0
  4 22  2  0  0  0  0
  5 21  2  0  0  0  0
  5 22  1  0  0  0  0
  6 22  1  0  0  0  0
  7  8  1  0  0  0  0
  7  9  1  0  0  0  0
  7 11  2  0  0  0  0
  9 15  2  0  0  0  0
  9 16  1  0  0  0  0
 10 11  1  0  0  0  0
 10 12  2  0  0  0  0
 10 13  1  0  0  0  0
 13 14  1  0  0  0  0
 14 20  2  0  0  0  0
 14 21  1  0  0  0  0
 15 18  1  0  0  0  0
 16 19  2  0  0  0  0
 17 18  2  0  0  0  0
 17 19  1  0  0  0  0
M  END
> <PUBCHEM_COMPOUND_ID_TYPE>
0

> <PUBCHEM_TOTAL_CHARGE>
0

> <PUBCHEM_SUBSTANCE_ID>
310936594

> <PUBCHEM_SUBSTANCE_VERSION>
1

> <PUBCHEM_EXT_DATASOURCE_NAME>
4488

> <PUBCHEM_EXT_DATASOURCE_REGID>
SCHEMBL16114254

> <PUBCHEM_SUBSTANCE_COMMENT>
InChI=1S/C17H15FN4O/c1-23-16-15(13-2-4-14(18)5-3-13)7-11(8-20-16)6-12-9-21-17(19)22-10-12/h2-5,7-10H,6H2,1H3,(H2,19,21,22)
InChIKey=JDESNMUBTYEMIT-UHFFFAOYSA-N

> <PUBCHEM_SUBSTANCE_SYNONYM>
SCHEMBL16114254

> <PUBCHEM_XREF_EXT_ID>
SCHEMBL16114254

> <PUBCHEM_EXT_DATASOURCE_URL>
https://www.surechembl.org/

> <PUBCHEM_EXT_SUBSTANCE_URL>
https://www.surechembl.org/chemical/SCHEMBL16114254

> <PUBCHEM_CID_ASSOCIATIONS>
117604513  1

> <PUBCHEM_COORDINATE_TYPE>
1
3

$$$$
