310939021
  -OEChem-07211613022D

 52 55  0     1  0  0  0  0  0999 V2000
   -3.7580    1.0514    0.0000 Cl  0  0  0  0  0  0  0  0  0  0  0  0
    4.6831    3.3943    0.0000 S   0  0  0  0  0  0  0  0  0  0  0  0
    1.1887    0.7128    0.0000 O   0  0  0  0  0  0  0  0  0  0  0  0
    0.0616    1.2358    0.0000 O   0  0  0  0  0  0  0  0  0  0  0  0
    3.0301   -1.6516    0.0000 O   0  0  0  0  0  0  0  0  0  0  0  0
    1.6011   -3.3016    0.0000 O   0  0  0  0  0  0  0  0  0  0  0  0
   -1.1538    1.2078    0.0000 O   0  0  0  0  0  0  0  0  0  0  0  0
    0.4604    2.4105    0.0000 O   0  0  0  0  0  0  0  0  0  0  0  0
    3.7446   -2.8892    0.0000 O   0  0  0  0  0  0  0  0  0  0  0  0
    1.3830   -4.2193    0.0000 O   0  0  0  0  0  0  0  0  0  0  0  0
    2.9183    1.9653    0.0000 O   0  0  0  0  0  0  0  0  0  0  0  0
   -5.5081   -0.6987    0.0000 O   0  0  0  0  0  0  0  0  0  0  0  0
    2.3156   -2.8892    0.0000 N   0  0  0  0  0  0  0  0  0  0  0  0
   -2.1642    0.6244    0.0000 N   0  0  0  0  0  0  0  0  0  0  0  0
    1.6807    2.6798    0.0000 N   0  0  0  0  0  0  0  0  0  0  0  0
    0.7761   -0.0016    0.0000 C   0  0  3  0  0  0  0  0  0  0  0  0
    1.6011   -0.0016    0.0000 C   0  0  3  0  0  0  0  0  0  0  0  0
    0.0616    0.4108    0.0000 C   0  0  3  0  0  0  0  0  0  0  0  0
    2.3156   -0.4142    0.0000 C   0  0  3  0  0  0  0  0  0  0  0  0
    2.3156   -1.2392    0.0000 C   0  0  3  0  0  0  0  0  0  0  0  0
    0.7761   -0.8266    0.0000 C   0  0  0  0  0  0  0  0  0  0  0  0
   -0.6528   -0.0016    0.0000 C   0  0  0  0  0  0  0  0  0  0  0  0
    1.6011   -2.4766    0.0000 C   0  0  3  0  0  0  0  0  0  0  0  0
    1.6011   -1.6516    0.0000 C   0  0  0  0  0  0  0  0  0  0  0  0
    3.0301   -0.0016    0.0000 C   0  0  0  0  0  0  0  0  0  0  0  0
   -1.3672    0.4108    0.0000 C   0  0  0  0  0  0  0  0  0  0  0  0
    0.7761    1.6484    0.0000 C   0  0  0  0  0  0  0  0  0  0  0  0
    3.0301   -2.4766    0.0000 C   0  0  0  0  0  0  0  0  0  0  0  0
    0.6686   -2.9817    0.0000 C   0  0  3  0  0  0  0  0  0  0  0  0
    1.5731    1.8618    0.0000 C   0  0  3  0  0  0  0  0  0  0  0  0
   -2.7476    0.0410    0.0000 C   0  0  0  0  0  0  0  0  0  0  0  0
   -3.5444    0.2545    0.0000 C   0  0  0  0  0  0  0  0  0  0  0  0
   -0.0459   -2.5693    0.0000 C   0  0  0  0  0  0  0  0  0  0  0  0
    0.6686   -3.8067    0.0000 C   0  0  0  0  0  0  0  0  0  0  0  0
   -2.5340   -0.7559    0.0000 C   0  0  0  0  0  0  0  0  0  0  0  0
   -4.1278   -0.3289    0.0000 C   0  0  0  0  0  0  0  0  0  0  0  0
   -3.1173   -1.3393    0.0000 C   0  0  0  0  0  0  0  0  0  0  0  0
   -2.3777    1.4212    0.0000 C   0  0  0  0  0  0  0  0  0  0  0  0
   -3.9143   -1.1257    0.0000 C   0  0  0  0  0  0  0  0  0  0  0  0
    2.3020    1.4409    0.0000 C   0  0  0  0  0  0  0  0  0  0  0  0
    2.5057    2.6798    0.0000 C   0  0  0  0  0  0  0  0  0  0  0  0
   -0.7604   -2.9817    0.0000 C   0  0  0  0  0  0  0  0  0  0  0  0
   -2.9039   -2.5693    0.0000 C   0  0  0  0  0  0  0  0  0  0  0  0
   -4.9247   -0.1153    0.0000 C   0  0  0  0  0  0  0  0  0  0  0  0
   -2.1894   -2.9817    0.0000 C   0  0  0  0  0  0  0  0  0  0  0  0
    1.1367    3.3001    0.0000 C   0  0  0  0  0  0  0  0  0  0  0  0
   -1.4749   -2.5693    0.0000 C   0  0  0  0  0  0  0  0  0  0  0  0
    2.9183    3.3943    0.0000 C   0  0  0  0  0  0  0  0  0  0  0  0
   -2.1894   -3.8067    0.0000 C   0  0  0  0  0  0  0  0  0  0  0  0
    5.5081    3.3943    0.0000 C   0  0  0  0  0  0  0  0  0  0  0  0
    5.5081    4.2193    0.0000 C   0  0  0  0  0  0  0  0  0  0  0  0
    5.5081    2.5693    0.0000 C   0  0  0  0  0  0  0  0  0  0  0  0
  1 32  1  0  0  0  0
  2 48  1  0  0  0  0
  2 50  1  0  0  0  0
  3 16  1  0  0  0  0
 17  3  1  1  0  0  0
 18  4  1  6  0  0  0
  4 27  1  0  0  0  0
  5 20  1  0  0  0  0
  5 28  1  0  0  0  0
 23  6  1  6  0  0  0
  7 26  2  0  0  0  0
  8 27  2  0  0  0  0
  9 28  2  0  0  0  0
 10 34  1  0  0  0  0
 11 41  2  0  0  0  0
 12 44  1  0  0  0  0
 13 23  1  0  0  0  0
 13 28  1  0  0  0  0
 14 26  1  0  0  0  0
 14 31  1  0  0  0  0
 14 38  1  0  0  0  0
 15 30  1  0  0  0  0
 15 41  1  0  0  0  0
 15 46  1  0  0  0  0
 16 17  1  0  0  0  0
 16 18  1  0  0  0  0
 16 21  1  1  0  0  0
 17 19  1  0  0  0  0
 18 22  1  0  0  0  0
 19 20  1  0  0  0  0
 19 25  1  6  0  0  0
 20 24  1  0  0  0  0
 22 26  1  0  0  0  0
 23 24  1  0  0  0  0
 23 29  1  0  0  0  0
 27 30  1  0  0  0  0
 29 33  1  0  0  0  0
 29 34  1  6  0  0  0
 30 40  1  1  0  0  0
 31 32  1  0  0  0  0
 31 35  2  0  0  0  0
 32 36  2  0  0  0  0
 33 42  2  0  0  0  0
 35 37  1  0  0  0  0
 36 39  1  0  0  0  0
 36 44  1  0  0  0  0
 37 39  2  0  0  0  0
 37 43  1  0  0  0  0
 41 48  1  0  0  0  0
 42 47  1  0  0  0  0
 43 45  1  0  0  0  0
 45 47  2  0  0  0  0
 45 49  1  0  0  0  0
 50 51  1  0  0  0  0
 50 52  1  0  0  0  0
M  END
> <PUBCHEM_COMPOUND_ID_TYPE>
0

> <PUBCHEM_TOTAL_CHARGE>
0

> <PUBCHEM_SUBSTANCE_ID>
310939021

> <PUBCHEM_SUBSTANCE_VERSION>
1

> <PUBCHEM_EXT_DATASOURCE_NAME>
4488

> <PUBCHEM_EXT_DATASOURCE_REGID>
SCHEMBL16116940

> <PUBCHEM_SUBSTANCE_COMMENT>
InChI=1S/C37H52ClN3O10S/c1-20(2)52-19-31(45)40(7)23(5)34(46)50-29-15-30(44)41(8)27-14-24(13-25(17-42)32(27)38)12-21(3)10-9-11-26(18-43)37(48)16-28(49-35(47)39-37)22(4)33-36(29,6)51-33/h9-11,13-14,20,22-23,26,28-29,33,42-43,48H,12,15-19H2,1-8H3,(H,39,47)/b11-9+,21-10+/t22-,23+,26+,28?,29+,33+,36+,37+/m1/s1
InChIKey=DPQLTFGXDVYSSL-FRQRUWQDSA-N

> <PUBCHEM_SUBSTANCE_SYNONYM>
SCHEMBL16116940

> <PUBCHEM_XREF_EXT_ID>
SCHEMBL16116940

> <PUBCHEM_EXT_DATASOURCE_URL>
https://www.surechembl.org/

> <PUBCHEM_EXT_SUBSTANCE_URL>
https://www.surechembl.org/chemical/SCHEMBL16116940

> <PUBCHEM_CID_ASSOCIATIONS>
117606400  1

> <PUBCHEM_COORDINATE_TYPE>
1
3

> <PUBCHEM_BONDANNOTATIONS>
16  21  5
19  25  6
29  34  6
17  3  5
30  40  5
18  4  6
50  51  3
50  52  3
23  6  6

$$$$
