310939788
  -OEChem-07211613022D

 29 31  0     0  0  0  0  0  0999 V2000
    1.4289    3.0385    0.0000 Cl  0  0  0  0  0  0  0  0  0  0  0  0
   -2.8579   -2.7365    0.0000 S   0  0  0  0  0  0  0  0  0  0  0  0
    1.4289   -1.9115    0.0000 O   0  0  0  0  0  0  0  0  0  0  0  0
   -2.4454   -2.0220    0.0000 O   0  0  0  0  0  0  0  0  0  0  0  0
   -3.2704   -3.4510    0.0000 O   0  0  0  0  0  0  0  0  0  0  0  0
    0.0000   -1.9115    0.0000 N   0  0  0  0  0  0  0  0  0  0  0  0
   -2.1434   -3.1490    0.0000 N   0  0  0  0  0  0  0  0  0  0  0  0
    1.4289   -0.2615    0.0000 N   0  0  0  0  0  0  0  0  0  0  0  0
    2.1434    1.8010    0.0000 C   0  0  0  0  0  0  0  0  0  0  0  0
    2.8579    2.2135    0.0000 C   0  0  0  0  0  0  0  0  0  0  0  0
    1.4289    2.2135    0.0000 C   0  0  0  0  0  0  0  0  0  0  0  0
    1.4289    0.5635    0.0000 C   0  0  0  0  0  0  0  0  0  0  0  0
    2.1434    0.9760    0.0000 C   0  0  0  0  0  0  0  0  0  0  0  0
   -1.4289   -2.7365    0.0000 C   0  0  0  0  0  0  0  0  0  0  0  0
    0.7145   -1.4990    0.0000 C   0  0  0  0  0  0  0  0  0  0  0  0
    0.7145    1.8010    0.0000 C   0  0  0  0  0  0  0  0  0  0  0  0
    0.7145    0.9760    0.0000 C   0  0  0  0  0  0  0  0  0  0  0  0
   -0.7145   -1.4990    0.0000 C   0  0  0  0  0  0  0  0  0  0  0  0
    0.0000   -2.7365    0.0000 C   0  0  0  0  0  0  0  0  0  0  0  0
   -1.4289   -1.9115    0.0000 C   0  0  0  0  0  0  0  0  0  0  0  0
   -0.7145   -3.1490    0.0000 C   0  0  0  0  0  0  0  0  0  0  0  0
    0.7145   -0.6740    0.0000 C   0  0  0  0  0  0  0  0  0  0  0  0
    2.8579    3.0385    0.0000 C   0  0  0  0  0  0  0  0  0  0  0  0
    3.5724    1.8010    0.0000 C   0  0  0  0  0  0  0  0  0  0  0  0
   -3.5724   -2.3240    0.0000 C   0  0  0  0  0  0  0  0  0  0  0  0
    3.5724    3.4510    0.0000 C   0  0  0  0  0  0  0  0  0  0  0  0
    4.2868    2.2135    0.0000 C   0  0  0  0  0  0  0  0  0  0  0  0
    4.2868    3.0385    0.0000 C   0  0  0  0  0  0  0  0  0  0  0  0
   -4.2868   -2.7365    0.0000 C   0  0  0  0  0  0  0  0  0  0  0  0
  1 11  1  0  0  0  0
  2  4  2  0  0  0  0
  2  5  2  0  0  0  0
  2  7  1  0  0  0  0
  2 25  1  0  0  0  0
  3 15  2  0  0  0  0
  6 15  1  0  0  0  0
  6 18  1  0  0  0  0
  6 19  1  0  0  0  0
  7 14  1  0  0  0  0
  8 12  1  0  0  0  0
  8 22  1  0  0  0  0
  9 10  1  0  0  0  0
  9 11  2  0  0  0  0
  9 13  1  0  0  0  0
 10 23  2  0  0  0  0
 10 24  1  0  0  0  0
 11 16  1  0  0  0  0
 12 13  2  0  0  0  0
 12 17  1  0  0  0  0
 14 20  1  0  0  0  0
 14 21  1  0  0  0  0
 15 22  1  0  0  0  0
 16 17  2  0  0  0  0
 18 20  1  0  0  0  0
 19 21  1  0  0  0  0
 23 26  1  0  0  0  0
 24 27  2  0  0  0  0
 25 29  2  0  0  0  0
 26 28  2  0  0  0  0
 27 28  1  0  0  0  0
M  END
> <PUBCHEM_COMPOUND_ID_TYPE>
0

> <PUBCHEM_TOTAL_CHARGE>
0

> <PUBCHEM_SUBSTANCE_ID>
310939788

> <PUBCHEM_SUBSTANCE_VERSION>
1

> <PUBCHEM_EXT_DATASOURCE_NAME>
4488

> <PUBCHEM_EXT_DATASOURCE_REGID>
SCHEMBL16117718

> <PUBCHEM_SUBSTANCE_COMMENT>
InChI=1S/C21H24ClN3O3S/c1-2-29(27,28)24-17-10-12-25(13-11-17)21(26)15-23-18-8-9-20(22)19(14-18)16-6-4-3-5-7-16/h2-9,14,17,23-24H,1,10-13,15H2
InChIKey=BKUYQNZSOODATQ-UHFFFAOYSA-N

> <PUBCHEM_SUBSTANCE_SYNONYM>
SCHEMBL16117718

> <PUBCHEM_XREF_EXT_ID>
SCHEMBL16117718

> <PUBCHEM_EXT_DATASOURCE_URL>
https://www.surechembl.org/

> <PUBCHEM_EXT_SUBSTANCE_URL>
https://www.surechembl.org/chemical/SCHEMBL16117718

> <PUBCHEM_CID_ASSOCIATIONS>
117607006  1

> <PUBCHEM_COORDINATE_TYPE>
1
3

$$$$
