310932281
  -OEChem-07211613022D

 24 26  0     1  0  0  0  0  0999 V2000
   -0.7145    0.4125    0.0000 O   0  0  0  0  0  0  0  0  0  0  0  0
    2.7637    2.2444    0.0000 O   0  5  0  0  0  0  0  0  0  0  0  0
    1.4583    2.8256    0.0000 O   0  0  0  0  0  0  0  0  0  0  0  0
    1.4681    0.0770    0.0000 N   0  0  3  0  0  0  0  0  0  0  0  0
    1.9432    2.1582    0.0000 N   0  3  0  0  0  0  0  0  0  0  0  0
    0.8007    1.2330    0.0000 C   0  0  3  0  0  0  0  0  0  0  0  0
    0.7145    0.4125    0.0000 C   0  0  3  0  0  0  0  0  0  0  0  0
    1.6077    1.4045    0.0000 C   0  0  3  0  0  0  0  0  0  0  0  0
    0.1876    1.7850    0.0000 C   0  0  0  0  0  0  0  0  0  0  0  0
    2.0202    0.6901    0.0000 C   0  0  0  0  0  0  0  0  0  0  0  0
    0.0000    0.0000    0.0000 C   0  0  0  0  0  0  0  0  0  0  0  0
    0.3591    2.5920    0.0000 C   0  0  0  0  0  0  0  0  0  0  0  0
   -0.5970    1.5301    0.0000 C   0  0  0  0  0  0  0  0  0  0  0  0
    1.6397   -0.7300    0.0000 C   0  0  0  0  0  0  0  0  0  0  0  0
   -0.2540    3.1440    0.0000 C   0  0  0  0  0  0  0  0  0  0  0  0
   -1.2101    2.0821    0.0000 C   0  0  0  0  0  0  0  0  0  0  0  0
   -1.0386    2.8891    0.0000 C   0  0  0  0  0  0  0  0  0  0  0  0
   -1.4290    0.0000    0.0000 C   0  0  0  0  0  0  0  0  0  0  0  0
   -2.1434    0.4125    0.0000 C   0  0  0  0  0  0  0  0  0  0  0  0
   -2.1434    1.2375    0.0000 C   0  0  0  0  0  0  0  0  0  0  0  0
   -2.8579    0.0000    0.0000 C   0  0  0  0  0  0  0  0  0  0  0  0
   -2.8579    1.6500    0.0000 C   0  0  0  0  0  0  0  0  0  0  0  0
   -3.5724    0.4125    0.0000 C   0  0  0  0  0  0  0  0  0  0  0  0
   -3.5724    1.2375    0.0000 C   0  0  0  0  0  0  0  0  0  0  0  0
  1 11  1  0  0  0  0
  1 18  1  0  0  0  0
  2  5  1  0  0  0  0
  3  5  2  0  0  0  0
  4  7  1  0  0  0  0
  4 10  1  0  0  0  0
  4 14  1  0  0  0  0
  8  5  1  6  0  0  0
  6  7  1  0  0  0  0
  6  8  1  0  0  0  0
  6  9  1  1  0  0  0
  7 11  1  1  0  0  0
  8 10  1  0  0  0  0
  9 12  2  0  0  0  0
  9 13  1  0  0  0  0
 12 15  1  0  0  0  0
 13 16  2  0  0  0  0
 15 17  2  0  0  0  0
 16 17  1  0  0  0  0
 18 19  1  0  0  0  0
 19 20  2  0  0  0  0
 19 21  1  0  0  0  0
 20 22  1  0  0  0  0
 21 23  2  0  0  0  0
 22 24  2  0  0  0  0
 23 24  1  0  0  0  0
M  CHG  2   2  -1   5   1
M  END
> <PUBCHEM_COMPOUND_ID_TYPE>
0

> <PUBCHEM_TOTAL_CHARGE>
0

> <PUBCHEM_SUBSTANCE_ID>
310932281

> <PUBCHEM_SUBSTANCE_VERSION>
1

> <PUBCHEM_EXT_DATASOURCE_NAME>
4488

> <PUBCHEM_EXT_DATASOURCE_REGID>
SCHEMBL16109641

> <PUBCHEM_SUBSTANCE_COMMENT>
InChI=1S/C19H22N2O3/c1-20-12-17(21(22)23)19(16-10-6-3-7-11-16)18(20)14-24-13-15-8-4-2-5-9-15/h2-11,17-19H,12-14H2,1H3/t17-,18+,19+/m1/s1
InChIKey=QUQZRIFILHDRPP-QYZOEREBSA-N

> <PUBCHEM_SUBSTANCE_SYNONYM>
SCHEMBL16109641

> <PUBCHEM_XREF_EXT_ID>
SCHEMBL16109641

> <PUBCHEM_EXT_DATASOURCE_URL>
https://www.surechembl.org/

> <PUBCHEM_EXT_SUBSTANCE_URL>
https://www.surechembl.org/chemical/SCHEMBL16109641

> <PUBCHEM_CID_ASSOCIATIONS>
117600845  1

> <PUBCHEM_COORDINATE_TYPE>
1
3

> <PUBCHEM_BONDANNOTATIONS>
8  5  6
6  9  5
7  11  5

$$$$
