310935686
  -OEChem-07211613022D

 36 39  0     0  0  0  0  0  0999 V2000
    5.4832   -8.9889    0.0000 F   0  0  0  0  0  0  0  0  0  0  0  0
    0.6741   -1.6630    0.0000 F   0  0  0  0  0  0  0  0  0  0  0  0
    0.0000   -2.8764    0.0000 F   0  0  0  0  0  0  0  0  0  0  0  0
    3.0113   -6.0675    0.0000 O   0  0  0  0  0  0  0  0  0  0  0  0
    5.4832   -5.8428    0.0000 O   0  0  0  0  0  0  0  0  0  0  0  0
    2.8764   -0.4045    0.0000 O   0  0  0  0  0  0  0  0  0  0  0  0
    4.2697   -0.4045    0.0000 O   0  0  0  0  0  0  0  0  0  0  0  0
    4.9888   -1.6180    0.0000 O   0  0  0  0  0  0  0  0  0  0  0  0
    2.1124   -4.8990    0.0000 N   0  0  0  0  0  0  0  0  0  0  0  0
    1.4382   -3.6854    0.0000 N   0  0  0  0  0  0  0  0  0  0  0  0
    5.2136   -4.4945    0.0000 N   0  0  0  0  0  0  0  0  0  0  0  0
    3.5506   -4.8990    0.0000 C   0  0  0  0  0  0  0  0  0  0  0  0
    4.1349   -5.4383    0.0000 C   0  0  0  0  0  0  0  0  0  0  0  0
    2.8315   -5.3034    0.0000 C   0  0  0  0  0  0  0  0  0  0  0  0
    3.8203   -6.1574    0.0000 C   0  0  0  0  0  0  0  0  0  0  0  0
    2.8764   -3.6854    0.0000 C   0  0  0  0  0  0  0  0  0  0  0  0
    3.5506   -4.0450    0.0000 C   0  0  0  0  0  0  0  0  0  0  0  0
    2.1124   -4.0899    0.0000 C   0  0  0  0  0  0  0  0  0  0  0  0
    4.2248   -6.8765    0.0000 C   0  0  0  0  0  0  0  0  0  0  0  0
    4.9439   -5.2585    0.0000 C   0  0  0  0  0  0  0  0  0  0  0  0
    2.8764   -2.8315    0.0000 C   0  0  0  0  0  0  0  0  0  0  0  0
    3.5506   -2.4270    0.0000 C   0  0  0  0  0  0  0  0  0  0  0  0
    3.5506   -1.6180    0.0000 C   0  0  0  0  0  0  0  0  0  0  0  0
    2.1574   -2.4270    0.0000 C   0  0  0  0  0  0  0  0  0  0  0  0
    5.0787   -6.8765    0.0000 C   0  0  0  0  0  0  0  0  0  0  0  0
    3.8203   -7.5956    0.0000 C   0  0  0  0  0  0  0  0  0  0  0  0
    2.8764   -1.2135    0.0000 C   0  0  0  0  0  0  0  0  0  0  0  0
    2.1574   -1.6180    0.0000 C   0  0  0  0  0  0  0  0  0  0  0  0
    5.4832   -7.5956    0.0000 C   0  0  0  0  0  0  0  0  0  0  0  0
    4.2697   -8.2698    0.0000 C   0  0  0  0  0  0  0  0  0  0  0  0
    4.2697   -1.2135    0.0000 C   0  0  0  0  0  0  0  0  0  0  0  0
    5.0787   -8.2698    0.0000 C   0  0  0  0  0  0  0  0  0  0  0  0
    1.4382   -2.8764    0.0000 C   0  0  0  0  0  0  0  0  0  0  0  0
    5.9776   -4.3147    0.0000 C   0  0  0  0  0  0  0  0  0  0  0  0
    0.7191   -2.4720    0.0000 C   0  0  0  0  0  0  0  0  0  0  0  0
    2.1574    0.0000    0.0000 C   0  0  0  0  0  0  0  0  0  0  0  0
  1 32  1  0  0  0  0
  2 35  1  0  0  0  0
  3 35  1  0  0  0  0
  4 14  1  0  0  0  0
  4 15  1  0  0  0  0
  5 20  2  0  0  0  0
  6 27  1  0  0  0  0
  6 36  1  0  0  0  0
  7 31  2  0  0  0  0
  8 31  1  0  0  0  0
  9 14  1  0  0  0  0
  9 18  2  0  0  0  0
 10 18  1  0  0  0  0
 10 33  1  0  0  0  0
 11 20  1  0  0  0  0
 11 34  1  0  0  0  0
 12 13  1  0  0  0  0
 12 14  2  0  0  0  0
 12 17  1  0  0  0  0
 13 15  2  0  0  0  0
 13 20  1  0  0  0  0
 15 19  1  0  0  0  0
 16 17  2  0  0  0  0
 16 18  1  0  0  0  0
 16 21  1  0  0  0  0
 19 25  2  0  0  0  0
 19 26  1  0  0  0  0
 21 22  2  0  0  0  0
 21 24  1  0  0  0  0
 22 23  1  0  0  0  0
 23 27  2  0  0  0  0
 23 31  1  0  0  0  0
 24 28  2  0  0  0  0
 25 29  1  0  0  0  0
 26 30  2  0  0  0  0
 27 28  1  0  0  0  0
 29 32  2  0  0  0  0
 30 32  1  0  0  0  0
 33 35  1  0  0  0  0
M  END
> <PUBCHEM_COMPOUND_ID_TYPE>
0

> <PUBCHEM_TOTAL_CHARGE>
0

> <PUBCHEM_SUBSTANCE_ID>
310935686

> <PUBCHEM_SUBSTANCE_VERSION>
1

> <PUBCHEM_EXT_DATASOURCE_NAME>
4488

> <PUBCHEM_EXT_DATASOURCE_REGID>
SCHEMBL16113269

> <PUBCHEM_SUBSTANCE_COMMENT>
InChI=1S/C25H20F3N3O5/c1-29-23(32)20-17-10-15(13-5-8-18(35-2)16(9-13)25(33)34)22(30-11-19(27)28)31-24(17)36-21(20)12-3-6-14(26)7-4-12/h3-10,19H,11H2,1-2H3,(H,29,32)(H,30,31)(H,33,34)
InChIKey=MYUOOVGIRPKXJQ-UHFFFAOYSA-N

> <PUBCHEM_SUBSTANCE_SYNONYM>
SCHEMBL16113269

> <PUBCHEM_XREF_EXT_ID>
SCHEMBL16113269

> <PUBCHEM_EXT_DATASOURCE_URL>
https://www.surechembl.org/

> <PUBCHEM_EXT_SUBSTANCE_URL>
https://www.surechembl.org/chemical/SCHEMBL16113269

> <PUBCHEM_CID_ASSOCIATIONS>
117603695  1

> <PUBCHEM_COORDINATE_TYPE>
1
3

$$$$
