310931480
  -OEChem-07211613022D

 26 28  0     0  0  0  0  0  0999 V2000
    3.2015   -1.1903    0.0000 O   0  0  0  0  0  0  0  0  0  0  0  0
    5.7052   -0.4515    0.0000 O   0  0  0  0  0  0  0  0  0  0  0  0
    4.3508    0.0000    0.0000 O   0  0  0  0  0  0  0  0  0  0  0  0
    0.4515   -4.0634    0.0000 O   0  0  0  0  0  0  0  0  0  0  0  0
    0.8209   -8.2089    0.0000 O   0  0  0  0  0  0  0  0  0  0  0  0
    3.8582   -2.4626    0.0000 N   0  0  0  0  0  0  0  0  0  0  0  0
    4.6380   -2.7500    0.0000 N   0  0  0  0  0  0  0  0  0  0  0  0
    3.2835   -3.7761    0.0000 N   0  0  0  0  0  0  0  0  0  0  0  0
    1.2724   -5.2127    0.0000 N   0  0  0  0  0  0  0  0  0  0  0  0
    3.8582   -1.6418    0.0000 C   0  0  0  0  0  0  0  0  0  0  0  0
    4.6380   -1.3955    0.0000 C   0  0  0  0  0  0  0  0  0  0  0  0
    3.2015   -2.9552    0.0000 C   0  0  0  0  0  0  0  0  0  0  0  0
    5.1306   -2.0522    0.0000 C   0  0  0  0  0  0  0  0  0  0  0  0
    4.9254   -0.6157    0.0000 C   0  0  0  0  0  0  0  0  0  0  0  0
    2.4626   -2.5858    0.0000 C   0  0  0  0  0  0  0  0  0  0  0  0
    1.8880   -3.8992    0.0000 C   0  0  0  0  0  0  0  0  0  0  0  0
    2.6268   -4.2686    0.0000 C   0  0  0  0  0  0  0  0  0  0  0  0
    1.7649   -3.1194    0.0000 C   0  0  0  0  0  0  0  0  0  0  0  0
    1.1903   -4.3918    0.0000 C   0  0  0  0  0  0  0  0  0  0  0  0
    2.4626   -1.5187    0.0000 C   0  0  0  0  0  0  0  0  0  0  0  0
    0.6157   -5.7052    0.0000 C   0  0  0  0  0  0  0  0  0  0  0  0
    0.6978   -6.5261    0.0000 C   0  0  0  0  0  0  0  0  0  0  0  0
    0.0000   -7.0186    0.0000 C   0  0  0  0  0  0  0  0  0  0  0  0
    1.4365   -6.8955    0.0000 C   0  0  0  0  0  0  0  0  0  0  0  0
    0.0821   -7.8395    0.0000 C   0  0  0  0  0  0  0  0  0  0  0  0
    1.5187   -7.7164    0.0000 C   0  0  0  0  0  0  0  0  0  0  0  0
  1 10  1  0  0  0  0
  1 20  1  0  0  0  0
  2 14  2  0  0  0  0
  3 14  1  0  0  0  0
  4 19  2  0  0  0  0
  5 25  1  0  0  0  0
  5 26  1  0  0  0  0
  6  7  1  0  0  0  0
  6 10  1  0  0  0  0
  6 12  1  0  0  0  0
  7 13  2  0  0  0  0
  8 12  1  0  0  0  0
  8 17  2  0  0  0  0
  9 19  1  0  0  0  0
  9 21  1  0  0  0  0
 10 11  2  0  0  0  0
 11 13  1  0  0  0  0
 11 14  1  0  0  0  0
 12 15  2  0  0  0  0
 15 18  1  0  0  0  0
 16 17  1  0  0  0  0
 16 18  2  0  0  0  0
 16 19  1  0  0  0  0
 21 22  1  0  0  0  0
 22 23  1  0  0  0  0
 22 24  1  0  0  0  0
 23 25  1  0  0  0  0
 24 26  1  0  0  0  0
M  END
> <PUBCHEM_COMPOUND_ID_TYPE>
0

> <PUBCHEM_TOTAL_CHARGE>
0

> <PUBCHEM_SUBSTANCE_ID>
310931480

> <PUBCHEM_SUBSTANCE_VERSION>
1

> <PUBCHEM_EXT_DATASOURCE_NAME>
4488

> <PUBCHEM_EXT_DATASOURCE_REGID>
SCHEMBL16108805

> <PUBCHEM_SUBSTANCE_COMMENT>
InChI=1S/C17H20N4O5/c1-25-16-13(17(23)24)10-20-21(16)14-3-2-12(9-18-14)15(22)19-8-11-4-6-26-7-5-11/h2-3,9-11H,4-8H2,1H3,(H,19,22)(H,23,24)
InChIKey=AKMSGMXGNBRCOF-UHFFFAOYSA-N

> <PUBCHEM_SUBSTANCE_SYNONYM>
SCHEMBL16108805

> <PUBCHEM_XREF_EXT_ID>
SCHEMBL16108805

> <PUBCHEM_EXT_DATASOURCE_URL>
https://www.surechembl.org/

> <PUBCHEM_EXT_SUBSTANCE_URL>
https://www.surechembl.org/chemical/SCHEMBL16108805

> <PUBCHEM_CID_ASSOCIATIONS>
117600245  1

> <PUBCHEM_COORDINATE_TYPE>
1
3

$$$$
