310948669
  -OEChem-07211613022D

 23 23  0     0  0  0  0  0  0999 V2000
   -1.6352    2.5971    0.0000 Br  0  0  0  0  0  0  0  0  0  0  0  0
    0.4947    0.5221    0.0000 Br  0  0  0  0  0  0  0  0  0  0  0  0
   -1.6490   -0.7145    0.0000 S   0  0  0  0  0  0  0  0  0  0  0  0
   -1.7452   -1.5252    0.0000 O   0  0  0  0  0  0  0  0  0  0  0  0
   -2.4734   -0.6596    0.0000 O   0  0  0  0  0  0  0  0  0  0  0  0
    1.0444   -1.3603    0.0000 O   0  0  0  0  0  0  0  0  0  0  0  0
    0.3298   -2.5971    0.0000 O   0  0  0  0  0  0  0  0  0  0  0  0
   -0.8382   -0.6596    0.0000 N   0  0  0  0  0  0  0  0  0  0  0  0
   -1.6490    0.1237    0.0000 C   0  0  0  0  0  0  0  0  0  0  0  0
   -0.3848   -1.3466    0.0000 C   0  0  0  0  0  0  0  0  0  0  0  0
   -0.9344    0.5359    0.0000 C   0  0  0  0  0  0  0  0  0  0  0  0
    0.3298   -1.7452    0.0000 C   0  0  0  0  0  0  0  0  0  0  0  0
   -2.3497    0.5359    0.0000 C   0  0  0  0  0  0  0  0  0  0  0  0
   -0.9344    1.3466    0.0000 C   0  0  0  0  0  0  0  0  0  0  0  0
   -1.6352    1.7589    0.0000 C   0  0  0  0  0  0  0  0  0  0  0  0
   -2.3497    1.3603    0.0000 C   0  0  0  0  0  0  0  0  0  0  0  0
   -1.0856   -1.8001    0.0000 C   0  0  0  0  0  0  0  0  0  0  0  0
    0.2062   -0.7558    0.0000 C   0  0  0  0  0  0  0  0  0  0  0  0
   -0.1924    0.1237    0.0000 C   0  0  0  0  0  0  0  0  0  0  0  0
    1.7589   -1.7727    0.0000 C   0  0  0  0  0  0  0  0  0  0  0  0
    1.2230   -2.4047    0.0000 C   0  0  0  0  0  0  0  0  0  0  0  0
    2.2948   -2.4185    0.0000 C   0  0  0  0  0  0  0  0  0  0  0  0
    2.4734   -1.3466    0.0000 C   0  0  0  0  0  0  0  0  0  0  0  0
  1 15  1  0  0  0  0
  2 19  1  0  0  0  0
  3  4  2  0  0  0  0
  3  5  2  0  0  0  0
  3  8  1  0  0  0  0
  3  9  1  0  0  0  0
  6 12  1  0  0  0  0
  6 20  1  0  0  0  0
  7 12  2  0  0  0  0
  8 10  1  0  0  0  0
  9 11  2  0  0  0  0
  9 13  1  0  0  0  0
 10 12  1  0  0  0  0
 10 17  1  0  0  0  0
 10 18  1  0  0  0  0
 11 14  1  0  0  0  0
 11 19  1  0  0  0  0
 13 16  2  0  0  0  0
 14 15  2  0  0  0  0
 15 16  1  0  0  0  0
 20 21  1  0  0  0  0
 20 22  1  0  0  0  0
 20 23  1  0  0  0  0
M  END
> <PUBCHEM_COMPOUND_ID_TYPE>
0

> <PUBCHEM_TOTAL_CHARGE>
0

> <PUBCHEM_SUBSTANCE_ID>
310948669

> <PUBCHEM_SUBSTANCE_VERSION>
1

> <PUBCHEM_EXT_DATASOURCE_NAME>
4488

> <PUBCHEM_EXT_DATASOURCE_REGID>
SCHEMBL16126853

> <PUBCHEM_SUBSTANCE_COMMENT>
InChI=1S/C15H21Br2NO4S/c1-14(2,3)22-13(19)15(4,5)18-23(20,21)12-7-6-11(17)8-10(12)9-16/h6-8,18H,9H2,1-5H3
InChIKey=ZSZLFEHTNXYOII-UHFFFAOYSA-N

> <PUBCHEM_SUBSTANCE_SYNONYM>
SCHEMBL16126853

> <PUBCHEM_XREF_EXT_ID>
SCHEMBL16126853

> <PUBCHEM_EXT_DATASOURCE_URL>
https://www.surechembl.org/

> <PUBCHEM_EXT_SUBSTANCE_URL>
https://www.surechembl.org/chemical/SCHEMBL16126853

> <PUBCHEM_CID_ASSOCIATIONS>
117614210  1

> <PUBCHEM_COORDINATE_TYPE>
1
3

$$$$
