310942884
  -OEChem-07211613022D

 41 45  0     1  0  0  0  0  0999 V2000
   -2.8706    0.0451    0.0000 F   0  0  0  0  0  0  0  0  0  0  0  0
   -2.8706   -3.2949    0.0000 F   0  0  0  0  0  0  0  0  0  0  0  0
    3.5927   -1.8685    0.0000 F   0  0  0  0  0  0  0  0  0  0  0  0
   -0.3431   -1.7422    0.0000 O   0  0  0  0  0  0  0  0  0  0  0  0
    2.1484    1.4172    0.0000 O   0  0  0  0  0  0  0  0  0  0  0  0
   -0.5597   -2.9699    0.0000 O   0  0  0  0  0  0  0  0  0  0  0  0
   -0.5416    0.1896    0.0000 N   0  0  0  0  0  0  0  0  0  0  0  0
    1.0291   -1.3630    0.0000 N   0  0  0  0  0  0  0  0  0  0  0  0
   -0.6860   -1.1284    0.0000 N   0  0  0  0  0  0  0  0  0  0  0  0
    2.2748   -3.5476    0.0000 N   0  0  0  0  0  0  0  0  0  0  0  0
   -0.1264   -0.4965    0.0000 C   0  0  0  0  0  0  0  0  0  0  0  0
    0.7041   -0.6048    0.0000 C   0  0  3  0  0  0  0  0  0  0  0  0
   -1.4443   -0.7853    0.0000 C   0  0  0  0  0  0  0  0  0  0  0  0
    1.1915    0.0812    0.0000 C   0  0  0  0  0  0  0  0  0  0  0  0
   -1.3360    0.0451    0.0000 C   0  0  0  0  0  0  0  0  0  0  0  0
   -2.1484   -1.2006    0.0000 C   0  0  0  0  0  0  0  0  0  0  0  0
    0.4513   -1.9408    0.0000 C   0  0  0  0  0  0  0  0  0  0  0  0
   -0.1986    0.9840    0.0000 C   0  0  0  0  0  0  0  0  0  0  0  0
    1.8596   -1.4533    0.0000 C   0  0  0  0  0  0  0  0  0  0  0  0
   -2.8706   -0.7853    0.0000 C   0  0  0  0  0  0  0  0  0  0  0  0
    2.1665   -2.1935    0.0000 C   0  0  3  0  0  0  0  0  0  0  0  0
   -2.1665   -2.0492    0.0000 C   0  0  0  0  0  0  0  0  0  0  0  0
    0.8486    0.8034    0.0000 C   0  0  0  0  0  0  0  0  0  0  0  0
    2.0220   -0.0090    0.0000 C   0  0  0  0  0  0  0  0  0  0  0  0
   -0.6860    1.6158    0.0000 C   0  0  0  0  0  0  0  0  0  0  0  0
    0.2347   -2.7532    0.0000 C   0  0  3  0  0  0  0  0  0  0  0  0
   -2.8525   -2.4463    0.0000 C   0  0  0  0  0  0  0  0  0  0  0  0
    2.9789   -2.3921    0.0000 C   0  0  3  0  0  0  0  0  0  0  0  0
   -3.5746   -1.2006    0.0000 C   0  0  0  0  0  0  0  0  0  0  0  0
    1.7512   -2.9157    0.0000 C   0  0  0  0  0  0  0  0  0  0  0  0
    1.3360    1.4895    0.0000 C   0  0  0  0  0  0  0  0  0  0  0  0
    2.4914    0.6590    0.0000 C   0  0  0  0  0  0  0  0  0  0  0  0
   -3.5927   -2.0311    0.0000 C   0  0  0  0  0  0  0  0  0  0  0  0
   -0.3611    2.3921    0.0000 C   0  0  0  0  0  0  0  0  0  0  0  0
   -1.4985    1.5617    0.0000 C   0  0  0  0  0  0  0  0  0  0  0  0
    3.0330   -3.2226    0.0000 C   0  0  0  0  0  0  0  0  0  0  0  0
   -0.8305    3.0421    0.0000 C   0  0  0  0  0  0  0  0  0  0  0  0
    0.8124   -3.3129    0.0000 C   0  0  0  0  0  0  0  0  0  0  0  0
   -1.9679    2.1935    0.0000 C   0  0  0  0  0  0  0  0  0  0  0  0
   -1.6429    2.9518    0.0000 C   0  0  0  0  0  0  0  0  0  0  0  0
   -0.6139    3.5476    0.0000 C   0  0  0  0  0  0  0  0  0  0  0  0
  1 20  1  0  0  0  0
  2 27  1  0  0  0  0
 28  3  1  1  0  0  0
  4 17  2  0  0  0  0
  5 31  1  0  0  0  0
  5 32  1  0  0  0  0
 26  6  1  6  0  0  0
  7 11  1  0  0  0  0
  7 15  1  0  0  0  0
  7 18  1  0  0  0  0
 12  8  1  1  0  0  0
  8 17  1  0  0  0  0
  8 19  1  0  0  0  0
  9 11  2  0  0  0  0
  9 13  1  0  0  0  0
 10 30  1  0  0  0  0
 10 36  1  0  0  0  0
 11 12  1  0  0  0  0
 12 14  1  0  0  0  0
 13 15  2  0  0  0  0
 13 16  1  0  0  0  0
 14 23  1  0  0  0  0
 14 24  1  0  0  0  0
 16 20  2  0  0  0  0
 16 22  1  0  0  0  0
 17 26  1  0  0  0  0
 18 25  1  0  0  0  0
 21 19  1  1  0  0  0
 20 29  1  0  0  0  0
 21 28  1  0  0  0  0
 21 30  1  0  0  0  0
 22 27  2  0  0  0  0
 23 31  1  0  0  0  0
 24 32  1  0  0  0  0
 25 34  1  0  0  0  0
 25 35  2  0  0  0  0
 26 38  1  0  0  0  0
 27 33  1  0  0  0  0
 28 36  1  0  0  0  0
 29 33  2  0  0  0  0
 34 37  2  0  0  0  0
 35 39  1  0  0  0  0
 37 40  1  0  0  0  0
 37 41  1  0  0  0  0
 39 40  2  0  0  0  0
M  END
> <PUBCHEM_COMPOUND_ID_TYPE>
0

> <PUBCHEM_TOTAL_CHARGE>
0

> <PUBCHEM_SUBSTANCE_ID>
310942884

> <PUBCHEM_SUBSTANCE_VERSION>
1

> <PUBCHEM_EXT_DATASOURCE_NAME>
4488

> <PUBCHEM_EXT_DATASOURCE_REGID>
SCHEMBL16120942

> <PUBCHEM_SUBSTANCE_COMMENT>
InChI=1S/C31H37F3N4O3/c1-19-4-3-5-21(12-19)16-37-18-28(25-13-24(32)6-7-26(25)33)36-30(37)29(22-8-10-41-11-9-22)38(31(40)20(2)39)17-23-14-35-15-27(23)34/h3-7,12-13,18,20,22-23,27,29,35,39H,8-11,14-17H2,1-2H3/t20-,23-,27-,29+/m0/s1
InChIKey=ZPGJOLURTDPTMV-QRRTUWSLSA-N

> <PUBCHEM_SUBSTANCE_SYNONYM>
SCHEMBL16120942

> <PUBCHEM_XREF_EXT_ID>
SCHEMBL16120942

> <PUBCHEM_EXT_DATASOURCE_URL>
https://www.surechembl.org/

> <PUBCHEM_EXT_SUBSTANCE_URL>
https://www.surechembl.org/chemical/SCHEMBL16120942

> <PUBCHEM_CID_ASSOCIATIONS>
117609370  1

> <PUBCHEM_COORDINATE_TYPE>
1
3

> <PUBCHEM_BONDANNOTATIONS>
21  19  5
28  3  5
26  6  6
12  8  5

$$$$
