310937904
  -OEChem-07211613022D

 29 32  0     0  0  0  0  0  0999 V2000
    2.2920   -0.8489    0.0000 F   0  0  0  0  0  0  0  0  0  0  0  0
    2.9994   -2.0939    0.0000 F   0  0  0  0  0  0  0  0  0  0  0  0
    2.9994   -0.4245    0.0000 F   0  0  0  0  0  0  0  0  0  0  0  0
    0.0000   -4.9236    0.0000 F   0  0  0  0  0  0  0  0  0  0  0  0
    1.2451   -5.6593    0.0000 F   0  0  0  0  0  0  0  0  0  0  0  0
    0.4245   -4.2162    0.0000 F   0  0  0  0  0  0  0  0  0  0  0  0
    5.0934    0.0000    0.0000 O   0  0  0  0  0  0  0  0  0  0  0  0
    4.4426   -1.2451    0.0000 N   0  0  0  0  0  0  0  0  0  0  0  0
    5.1217   -3.2824    0.0000 N   0  0  0  0  0  0  0  0  0  0  0  0
    6.6497   -2.3486    0.0000 N   0  0  0  0  0  0  0  0  0  0  0  0
    7.1025   -1.6695    0.0000 N   0  0  0  0  0  0  0  0  0  0  0  0
    4.4426   -2.0939    0.0000 C   0  0  0  0  0  0  0  0  0  0  0  0
    5.1217   -2.5184    0.0000 C   0  0  0  0  0  0  0  0  0  0  0  0
    5.8574   -2.0939    0.0000 C   0  0  0  0  0  0  0  0  0  0  0  0
    5.8574   -1.2451    0.0000 C   0  0  0  0  0  0  0  0  0  0  0  0
    5.1217   -0.8206    0.0000 C   0  0  0  0  0  0  0  0  0  0  0  0
    3.7069   -2.5184    0.0000 C   0  0  0  0  0  0  0  0  0  0  0  0
    3.7069   -3.2824    0.0000 C   0  0  0  0  0  0  0  0  0  0  0  0
    6.6497   -0.9904    0.0000 C   0  0  0  0  0  0  0  0  0  0  0  0
    3.7069   -0.8489    0.0000 C   0  0  0  0  0  0  0  0  0  0  0  0
    4.4426   -3.7069    0.0000 C   0  0  0  0  0  0  0  0  0  0  0  0
    2.9712   -3.7069    0.0000 C   0  0  0  0  0  0  0  0  0  0  0  0
    2.9994   -1.2733    0.0000 C   0  0  0  0  0  0  0  0  0  0  0  0
    2.9712   -4.5275    0.0000 C   0  0  0  0  0  0  0  0  0  0  0  0
    2.2637   -3.3107    0.0000 C   0  0  0  0  0  0  0  0  0  0  0  0
    1.5563   -4.5275    0.0000 C   0  0  0  0  0  0  0  0  0  0  0  0
    0.8206   -4.9519    0.0000 C   0  0  0  0  0  0  0  0  0  0  0  0
    2.2637   -4.9519    0.0000 C   0  0  0  0  0  0  0  0  0  0  0  0
    1.5563   -3.7069    0.0000 C   0  0  0  0  0  0  0  0  0  0  0  0
  1 23  1  0  0  0  0
  2 23  1  0  0  0  0
  3 23  1  0  0  0  0
  4 27  1  0  0  0  0
  5 27  1  0  0  0  0
  6 27  1  0  0  0  0
  7 16  2  0  0  0  0
  8 12  1  0  0  0  0
  8 16  1  0  0  0  0
  8 20  1  0  0  0  0
  9 13  2  0  0  0  0
  9 21  1  0  0  0  0
 10 11  1  0  0  0  0
 10 14  1  0  0  0  0
 11 19  2  0  0  0  0
 12 13  1  0  0  0  0
 12 17  2  0  0  0  0
 13 14  1  0  0  0  0
 14 15  2  0  0  0  0
 15 16  1  0  0  0  0
 15 19  1  0  0  0  0
 17 18  1  0  0  0  0
 18 21  2  0  0  0  0
 18 22  1  0  0  0  0
 20 23  1  0  0  0  0
 22 24  2  0  0  0  0
 22 25  1  0  0  0  0
 24 28  1  0  0  0  0
 25 29  2  0  0  0  0
 26 27  1  0  0  0  0
 26 28  2  0  0  0  0
 26 29  1  0  0  0  0
M  END
> <PUBCHEM_COMPOUND_ID_TYPE>
0

> <PUBCHEM_TOTAL_CHARGE>
0

> <PUBCHEM_SUBSTANCE_ID>
310937904

> <PUBCHEM_SUBSTANCE_VERSION>
1

> <PUBCHEM_EXT_DATASOURCE_NAME>
4488

> <PUBCHEM_EXT_DATASOURCE_REGID>
SCHEMBL16115733

> <PUBCHEM_SUBSTANCE_COMMENT>
InChI=1S/C18H10F6N4O/c19-17(20,21)8-28-13-5-10(9-1-3-11(4-2-9)18(22,23)24)6-25-15(13)14-12(16(28)29)7-26-27-14/h1-7H,8H2,(H,26,27)
InChIKey=CQHSVUYTDIHWTN-UHFFFAOYSA-N

> <PUBCHEM_SUBSTANCE_SYNONYM>
SCHEMBL16115733

> <PUBCHEM_XREF_EXT_ID>
SCHEMBL16115733

> <PUBCHEM_EXT_DATASOURCE_URL>
https://www.surechembl.org/

> <PUBCHEM_EXT_SUBSTANCE_URL>
https://www.surechembl.org/chemical/SCHEMBL16115733

> <PUBCHEM_CID_ASSOCIATIONS>
86299022  1

> <PUBCHEM_COORDINATE_TYPE>
1
3

$$$$
