310947713
  -OEChem-07211613022D

 39 42  0     1  0  0  0  0  0999 V2000
   -3.3553   -2.2827    0.0000 Cl  0  0  0  0  0  0  0  0  0  0  0  0
    1.9114   -3.5203    0.0000 Cl  0  0  0  0  0  0  0  0  0  0  0  0
   -1.6639    1.8702    0.0000 S   0  0  0  0  0  0  0  0  0  0  0  0
   -3.0802   -0.6051    0.0000 F   0  0  0  0  0  0  0  0  0  0  0  0
    1.2101   -0.6188    0.0000 O   0  0  0  0  0  0  0  0  0  0  0  0
    0.4950    1.4576    0.0000 O   0  0  0  0  0  0  0  0  0  0  0  0
   -2.3652    2.2964    0.0000 O   0  0  0  0  0  0  0  0  0  0  0  0
   -2.2414    1.2926    0.0000 O   0  0  0  0  0  0  0  0  0  0  0  0
    3.3553    0.6325    0.0000 O   0  0  0  0  0  0  0  0  0  0  0  0
   -0.2200    0.2200    0.0000 N   0  0  0  0  0  0  0  0  0  0  0  0
    2.6402   -0.6051    0.0000 N   0  0  0  0  0  0  0  0  0  0  0  0
   -0.2200   -0.6051    0.0000 C   0  0  3  0  0  0  0  0  0  0  0  0
    1.2101    0.2338    0.0000 C   0  0  3  0  0  0  0  0  0  0  0  0
    0.4813    0.6188    0.0000 C   0  0  0  0  0  0  0  0  0  0  0  0
    0.4950   -1.0176    0.0000 C   0  0  3  0  0  0  0  0  0  0  0  0
   -0.9351    0.6463    0.0000 C   0  0  3  0  0  0  0  0  0  0  0  0
   -0.9488   -1.0314    0.0000 C   0  0  0  0  0  0  0  0  0  0  0  0
   -1.6914    0.1926    0.0000 C   0  0  0  0  0  0  0  0  0  0  0  0
    0.4675   -1.8702    0.0000 C   0  0  0  0  0  0  0  0  0  0  0  0
   -0.9351    1.4713    0.0000 C   0  0  0  0  0  0  0  0  0  0  0  0
    1.9114    0.6325    0.0000 C   0  0  0  0  0  0  0  0  0  0  0  0
   -2.4614    0.2063    0.0000 C   0  0  0  0  0  0  0  0  0  0  0  0
   -2.0627   -0.4675    0.0000 C   0  0  0  0  0  0  0  0  0  0  0  0
    1.4164    1.0038    0.0000 C   0  0  0  0  0  0  0  0  0  0  0  0
   -1.6363   -0.6188    0.0000 C   0  0  0  0  0  0  0  0  0  0  0  0
   -1.6639    2.7365    0.0000 C   0  0  0  0  0  0  0  0  0  0  0  0
   -0.9488   -1.8564    0.0000 C   0  0  0  0  0  0  0  0  0  0  0  0
    1.1964   -2.2689    0.0000 C   0  0  0  0  0  0  0  0  0  0  0  0
   -0.2200   -2.2689    0.0000 C   0  0  0  0  0  0  0  0  0  0  0  0
   -2.3652   -1.0314    0.0000 C   0  0  0  0  0  0  0  0  0  0  0  0
    2.6127    0.2200    0.0000 C   0  0  0  0  0  0  0  0  0  0  0  0
   -2.3652   -1.8564    0.0000 C   0  0  0  0  0  0  0  0  0  0  0  0
   -1.6502   -2.2689    0.0000 C   0  0  0  0  0  0  0  0  0  0  0  0
    1.1964   -3.0802    0.0000 C   0  0  0  0  0  0  0  0  0  0  0  0
   -0.2200   -3.0940    0.0000 C   0  0  0  0  0  0  0  0  0  0  0  0
    0.4950   -3.5065    0.0000 C   0  0  0  0  0  0  0  0  0  0  0  0
   -1.8839    3.5203    0.0000 C   0  0  0  0  0  0  0  0  0  0  0  0
   -2.3789    3.1078    0.0000 C   0  0  0  0  0  0  0  0  0  0  0  0
   -0.9213    3.1352    0.0000 C   0  0  0  0  0  0  0  0  0  0  0  0
  1 32  1  0  0  0  0
  2 34  1  0  0  0  0
  3  7  2  0  0  0  0
  3  8  2  0  0  0  0
  3 20  1  0  0  0  0
  3 26  1  0  0  0  0
  4 30  1  0  0  0  0
  5 13  1  0  0  0  0
 15  5  1  6  0  0  0
  6 14  2  0  0  0  0
  9 31  2  0  0  0  0
 12 10  1  1  0  0  0
 10 14  1  0  0  0  0
 10 16  1  0  0  0  0
 11 31  1  0  0  0  0
 12 15  1  0  0  0  0
 12 17  1  0  0  0  0
 13 14  1  0  0  0  0
 13 21  1  1  0  0  0
 13 24  1  6  0  0  0
 15 19  1  0  0  0  0
 16 18  1  0  0  0  0
 16 20  1  1  0  0  0
 17 25  2  0  0  0  0
 17 27  1  0  0  0  0
 18 22  1  0  0  0  0
 18 23  1  0  0  0  0
 19 28  1  0  0  0  0
 19 29  2  0  0  0  0
 21 31  1  0  0  0  0
 22 23  1  0  0  0  0
 25 30  1  0  0  0  0
 26 37  1  0  0  0  0
 26 38  1  0  0  0  0
 26 39  1  0  0  0  0
 27 33  2  0  0  0  0
 28 34  2  0  0  0  0
 29 35  1  0  0  0  0
 30 32  2  0  0  0  0
 32 33  1  0  0  0  0
 34 36  1  0  0  0  0
 35 36  2  0  0  0  0
M  END
> <PUBCHEM_COMPOUND_ID_TYPE>
0

> <PUBCHEM_TOTAL_CHARGE>
0

> <PUBCHEM_SUBSTANCE_ID>
310947713

> <PUBCHEM_SUBSTANCE_VERSION>
1

> <PUBCHEM_EXT_DATASOURCE_NAME>
4488

> <PUBCHEM_EXT_DATASOURCE_REGID>
SCHEMBL16125884

> <PUBCHEM_SUBSTANCE_COMMENT>
InChI=1S/C28H33Cl2FN2O5S/c1-27(2,3)39(36,37)15-22(16-8-9-16)33-24(17-10-11-20(30)21(31)13-17)25(18-6-5-7-19(29)12-18)38-28(4,26(33)35)14-23(32)34/h5-7,10-13,16,22,24-25H,8-9,14-15H2,1-4H3,(H2,32,34)/t22-,24-,25-,28-/m1/s1
InChIKey=KENBSHJJBLHWDE-ZYWWQZICSA-N

> <PUBCHEM_SUBSTANCE_SYNONYM>
SCHEMBL16125884

> <PUBCHEM_XREF_EXT_ID>
SCHEMBL16125884

> <PUBCHEM_EXT_DATASOURCE_URL>
https://www.surechembl.org/

> <PUBCHEM_EXT_SUBSTANCE_URL>
https://www.surechembl.org/chemical/SCHEMBL16125884

> <PUBCHEM_CID_ASSOCIATIONS>
117613419  1

> <PUBCHEM_COORDINATE_TYPE>
1
3

> <PUBCHEM_BONDANNOTATIONS>
12  10  5
13  21  5
13  24  6
16  20  5
15  5  6

$$$$
