310937508
  -OEChem-07211613022D

 41 45  0     1  0  0  0  0  0999 V2000
    5.5773   -5.3914    0.0000 F   0  0  0  0  0  0  0  0  0  0  0  0
    7.0026   -5.2365    0.0000 F   0  0  0  0  0  0  0  0  0  0  0  0
    5.4843   -4.5858    0.0000 F   0  0  0  0  0  0  0  0  0  0  0  0
    9.2955   -3.5943    0.0000 F   0  0  0  0  0  0  0  0  0  0  0  0
    8.4589   -2.4168    0.0000 F   0  0  0  0  0  0  0  0  0  0  0  0
    8.6139   -4.0590    0.0000 F   0  0  0  0  0  0  0  0  0  0  0  0
    6.1970   -1.3014    0.0000 O   0  0  0  0  0  0  0  0  0  0  0  0
    5.5463    0.0000    0.0000 O   0  0  0  0  0  0  0  0  0  0  0  0
    0.2479   -0.8366    0.0000 O   0  0  0  0  0  0  0  0  0  0  0  0
    4.8647   -1.3014    0.0000 N   0  0  0  0  0  0  0  0  0  0  0  0
    2.6957   -1.3633    0.0000 N   0  0  0  0  0  0  0  0  0  0  0  0
    4.3999   -2.6957    0.0000 N   0  0  0  0  0  0  0  0  0  0  0  0
    3.0366   -2.9436    0.0000 N   0  0  0  0  0  0  0  0  0  0  0  0
    0.0000   -1.6112    0.0000 N   0  0  0  0  0  0  0  0  0  0  0  0
    5.9491   -2.0760    0.0000 C   0  0  3  0  0  0  0  0  0  0  0  0
    5.1126   -2.0760    0.0000 C   0  0  3  0  0  0  0  0  0  0  0  0
    6.4139   -2.7576    0.0000 C   0  0  0  0  0  0  0  0  0  0  0  0
    5.5463   -0.8366    0.0000 C   0  0  0  0  0  0  0  0  0  0  0  0
    3.4703   -1.6112    0.0000 C   0  0  0  0  0  0  0  0  0  0  0  0
    4.0900   -1.0535    0.0000 C   0  0  0  0  0  0  0  0  0  0  0  0
    6.5688   -4.1520    0.0000 C   0  0  0  0  0  0  0  0  0  0  0  0
    7.7153   -3.3154    0.0000 C   0  0  0  0  0  0  0  0  0  0  0  0
    3.6252   -2.4168    0.0000 C   0  0  0  0  0  0  0  0  0  0  0  0
    7.2505   -2.6647    0.0000 C   0  0  0  0  0  0  0  0  0  0  0  0
    6.1041   -3.5013    0.0000 C   0  0  0  0  0  0  0  0  0  0  0  0
    2.1070   -1.8901    0.0000 C   0  0  0  0  0  0  0  0  0  0  0  0
    1.3323   -1.6422    0.0000 C   0  0  0  0  0  0  0  0  0  0  0  0
    7.4054   -4.0900    0.0000 C   0  0  0  0  0  0  0  0  0  0  0  0
    6.2590   -4.9266    0.0000 C   0  0  0  0  0  0  0  0  0  0  0  0
    8.5519   -3.2535    0.0000 C   0  0  0  0  0  0  0  0  0  0  0  0
    2.2309   -2.7267    0.0000 C   0  0  0  0  0  0  0  0  0  0  0  0
    1.0845   -0.8366    0.0000 C   0  0  0  0  0  0  0  0  0  0  0  0
    0.6507   -2.1070    0.0000 C   0  0  0  0  0  0  0  0  0  0  0  0
    4.6478   -2.7576    0.0000 C   0  0  0  0  0  0  0  0  0  0  0  0
    5.0196   -2.1380    0.0000 C   0  0  0  0  0  0  0  0  0  0  0  0
    4.5548   -3.4703    0.0000 C   0  0  0  0  0  0  0  0  0  0  0  0
    1.5492   -0.2169    0.0000 C   0  0  0  0  0  0  0  0  0  0  0  0
    0.6507   -2.9126    0.0000 C   0  0  0  0  0  0  0  0  0  0  0  0
    5.7942   -2.4168    0.0000 C   0  0  0  0  0  0  0  0  0  0  0  0
    5.3295   -3.7492    0.0000 C   0  0  0  0  0  0  0  0  0  0  0  0
    5.9491   -3.1914    0.0000 C   0  0  0  0  0  0  0  0  0  0  0  0
  1 29  1  0  0  0  0
  2 29  1  0  0  0  0
  3 29  1  0  0  0  0
  4 30  1  0  0  0  0
  5 30  1  0  0  0  0
  6 30  1  0  0  0  0
 15  7  1  1  0  0  0
  7 18  1  0  0  0  0
  8 18  2  0  0  0  0
  9 14  1  0  0  0  0
  9 32  1  0  0  0  0
 10 16  1  0  0  0  0
 10 18  1  0  0  0  0
 10 20  1  0  0  0  0
 11 19  2  0  0  0  0
 11 26  1  0  0  0  0
 12 23  1  0  0  0  0
 12 35  1  0  0  0  0
 12 36  1  0  0  0  0
 13 23  2  0  0  0  0
 13 31  1  0  0  0  0
 14 33  2  0  0  0  0
 15 16  1  0  0  0  0
 15 17  1  0  0  0  0
 16 34  1  6  0  0  0
 17 24  2  0  0  0  0
 17 25  1  0  0  0  0
 19 20  1  0  0  0  0
 19 23  1  0  0  0  0
 21 25  2  0  0  0  0
 21 28  1  0  0  0  0
 21 29  1  0  0  0  0
 22 24  1  0  0  0  0
 22 28  2  0  0  0  0
 22 30  1  0  0  0  0
 26 27  1  0  0  0  0
 26 31  2  0  0  0  0
 27 32  2  0  0  0  0
 27 33  1  0  0  0  0
 32 37  1  0  0  0  0
 33 38  1  0  0  0  0
 35 39  1  0  0  0  0
 36 40  1  0  0  0  0
 39 41  1  0  0  0  0
 40 41  1  0  0  0  0
M  END
> <PUBCHEM_COMPOUND_ID_TYPE>
0

> <PUBCHEM_TOTAL_CHARGE>
0

> <PUBCHEM_SUBSTANCE_ID>
310937508

> <PUBCHEM_SUBSTANCE_VERSION>
1

> <PUBCHEM_EXT_DATASOURCE_NAME>
4488

> <PUBCHEM_EXT_DATASOURCE_REGID>
SCHEMBL16115280

> <PUBCHEM_SUBSTANCE_COMMENT>
InChI=1S/C27H27F6N5O3/c1-14-22(16(3)41-36-14)20-12-34-24(37-7-5-4-6-8-37)21(35-20)13-38-15(2)23(40-25(38)39)17-9-18(26(28,29)30)11-19(10-17)27(31,32)33/h9-12,15,23H,4-8,13H2,1-3H3/t15-,23+/m0/s1
InChIKey=TWONUBNUUKTVEE-NPMXOYFQSA-N

> <PUBCHEM_SUBSTANCE_SYNONYM>
SCHEMBL16115280

> <PUBCHEM_XREF_EXT_ID>
SCHEMBL16115280

> <PUBCHEM_EXT_DATASOURCE_URL>
https://www.surechembl.org/

> <PUBCHEM_EXT_SUBSTANCE_URL>
https://www.surechembl.org/chemical/SCHEMBL16115280

> <PUBCHEM_CID_ASSOCIATIONS>
117605240  1

> <PUBCHEM_COORDINATE_TYPE>
1
3

> <PUBCHEM_BONDANNOTATIONS>
16  34  6
15  7  5

$$$$
