310940972
  -OEChem-07211613022D

 45 48  0     1  0  0  0  0  0999 V2000
   -6.1628   -1.0029    0.0000 F   0  0  0  0  0  0  0  0  0  0  0  0
   -6.1628   -1.8278    0.0000 F   0  0  0  0  0  0  0  0  0  0  0  0
   -5.4511   -2.2322    0.0000 F   0  0  0  0  0  0  0  0  0  0  0  0
    5.8555   -1.0029    0.0000 O   0  0  0  0  0  0  0  0  0  0  0  0
    4.7394    0.9381    0.0000 O   0  0  0  0  0  0  0  0  0  0  0  0
    2.3777   -1.0029    0.0000 O   0  0  0  0  0  0  0  0  0  0  0  0
    0.2426    1.0676    0.0000 O   0  0  0  0  0  0  0  0  0  0  0  0
   -1.8925   -1.0029    0.0000 O   0  0  0  0  0  0  0  0  0  0  0  0
    4.5129    2.7174    0.0000 O   0  0  0  0  0  0  0  0  0  0  0  0
    3.0895    0.2426    0.0000 N   0  0  0  0  0  0  0  0  0  0  0  0
    0.9544   -0.1617    0.0000 N   0  0  0  0  0  0  0  0  0  0  0  0
   -3.3160   -0.1617    0.0000 N   0  0  0  0  0  0  0  0  0  0  0  0
   -1.1808    0.2426    0.0000 N   0  0  0  0  0  0  0  0  0  0  0  0
    5.4511   -0.2912    0.0000 C   0  0  3  0  0  0  0  0  0  0  0  0
    4.6747    0.0971    0.0000 C   0  0  0  0  0  0  0  0  0  0  0  0
    5.0628   -0.9705    0.0000 C   0  0  0  0  0  0  0  0  0  0  0  0
    4.0600   -0.2588    0.0000 C   0  0  3  0  0  0  0  0  0  0  0  0
    6.1628    0.1294    0.0000 C   0  0  0  0  0  0  0  0  0  0  0  0
    4.0438   -1.3264    0.0000 C   0  0  0  0  0  0  0  0  0  0  0  0
    2.3939   -0.1294    0.0000 C   0  0  0  0  0  0  0  0  0  0  0  0
    1.6661    0.2750    0.0000 C   0  0  3  0  0  0  0  0  0  0  0  0
    3.3160   -1.7470    0.0000 C   0  0  0  0  0  0  0  0  0  0  0  0
    1.6822    1.0999    0.0000 C   0  0  0  0  0  0  0  0  0  0  0  0
    2.5557   -1.4396    0.0000 C   0  0  0  0  0  0  0  0  0  0  0  0
    3.2189   -2.5719    0.0000 C   0  0  0  0  0  0  0  0  0  0  0  0
    0.2426    0.2426    0.0000 C   0  0  0  0  0  0  0  0  0  0  0  0
    2.3777    1.5043    0.0000 C   0  0  0  0  0  0  0  0  0  0  0  0
   -4.7556   -0.9705    0.0000 C   0  0  0  0  0  0  0  0  0  0  0  0
   -5.4673   -1.3911    0.0000 C   0  0  0  0  0  0  0  0  0  0  0  0
   -0.4367   -0.1294    0.0000 C   0  0  3  0  0  0  0  0  0  0  0  0
    2.0219   -2.0542    0.0000 C   0  0  0  0  0  0  0  0  0  0  0  0
    2.4263   -2.7336    0.0000 C   0  0  0  0  0  0  0  0  0  0  0  0
   -4.7394   -0.1294    0.0000 C   0  0  0  0  0  0  0  0  0  0  0  0
   -4.0277   -1.3749    0.0000 C   0  0  0  0  0  0  0  0  0  0  0  0
   -4.0438    0.2588    0.0000 C   0  0  0  0  0  0  0  0  0  0  0  0
   -3.3160   -0.9705    0.0000 C   0  0  0  0  0  0  0  0  0  0  0  0
   -1.8925   -0.1132    0.0000 C   0  0  0  0  0  0  0  0  0  0  0  0
    3.1057    1.0999    0.0000 C   0  0  0  0  0  0  0  0  0  0  0  0
    2.3939    2.3293    0.0000 C   0  0  0  0  0  0  0  0  0  0  0  0
   -2.6204    0.2588    0.0000 C   0  0  0  0  0  0  0  0  0  0  0  0
    3.8174    2.3454    0.0000 C   0  0  0  0  0  0  0  0  0  0  0  0
    3.8012    1.5043    0.0000 C   0  0  0  0  0  0  0  0  0  0  0  0
    3.0895    2.7336    0.0000 C   0  0  0  0  0  0  0  0  0  0  0  0
   -0.4529   -0.9544    0.0000 C   0  0  0  0  0  0  0  0  0  0  0  0
    5.2570    2.3293    0.0000 C   0  0  0  0  0  0  0  0  0  0  0  0
  1 29  1  0  0  0  0
  2 29  1  0  0  0  0
  3 29  1  0  0  0  0
  4 14  1  0  0  0  0
  4 16  1  0  0  0  0
  5 15  2  0  0  0  0
  6 20  2  0  0  0  0
  7 26  2  0  0  0  0
  8 37  2  0  0  0  0
  9 41  1  0  0  0  0
  9 45  1  0  0  0  0
 17 10  1  6  0  0  0
 10 20  1  0  0  0  0
 21 11  1  1  0  0  0
 11 26  1  0  0  0  0
 12 35  1  0  0  0  0
 12 36  1  0  0  0  0
 12 40  1  0  0  0  0
 13 30  1  0  0  0  0
 13 37  1  0  0  0  0
 14 15  1  6  0  0  0
 14 16  1  0  0  0  0
 14 18  1  1  0  0  0
 15 17  1  0  0  0  0
 17 19  1  0  0  0  0
 19 22  1  0  0  0  0
 20 21  1  0  0  0  0
 21 23  1  0  0  0  0
 22 24  1  0  0  0  0
 22 25  1  0  0  0  0
 23 27  1  0  0  0  0
 24 31  1  0  0  0  0
 25 32  1  0  0  0  0
 26 30  1  0  0  0  0
 27 38  2  0  0  0  0
 27 39  1  0  0  0  0
 28 29  1  0  0  0  0
 28 33  1  0  0  0  0
 28 34  1  0  0  0  0
 30 44  1  6  0  0  0
 31 32  1  0  0  0  0
 33 35  1  0  0  0  0
 34 36  1  0  0  0  0
 37 40  1  0  0  0  0
 38 42  1  0  0  0  0
 39 43  2  0  0  0  0
 41 42  2  0  0  0  0
 41 43  1  0  0  0  0
M  END
> <PUBCHEM_COMPOUND_ID_TYPE>
0

> <PUBCHEM_TOTAL_CHARGE>
0

> <PUBCHEM_SUBSTANCE_ID>
310940972

> <PUBCHEM_SUBSTANCE_VERSION>
1

> <PUBCHEM_EXT_DATASOURCE_NAME>
4488

> <PUBCHEM_EXT_DATASOURCE_REGID>
SCHEMBL16118931

> <PUBCHEM_SUBSTANCE_COMMENT>
InChI=1S/C32H45F3N4O6/c1-20(36-27(40)18-39-14-12-23(13-15-39)32(33,34)35)29(42)38-26(17-22-8-10-24(44-3)11-9-22)30(43)37-25(16-21-6-4-5-7-21)28(41)31(2)19-45-31/h8-11,20-21,23,25-26H,4-7,12-19H2,1-3H3,(H,36,40)(H,37,43)(H,38,42)/t20-,25-,26-,31+/m0/s1
InChIKey=UTRDGGOVIPDGEM-SGOONUSTSA-N

> <PUBCHEM_SUBSTANCE_SYNONYM>
SCHEMBL16118931

> <PUBCHEM_XREF_EXT_ID>
SCHEMBL16118931

> <PUBCHEM_EXT_DATASOURCE_URL>
https://www.surechembl.org/

> <PUBCHEM_EXT_SUBSTANCE_URL>
https://www.surechembl.org/chemical/SCHEMBL16118931

> <PUBCHEM_CID_ASSOCIATIONS>
117607880  1

> <PUBCHEM_COORDINATE_TYPE>
1
3

> <PUBCHEM_BONDANNOTATIONS>
17  10  6
21  11  5
14  15  6
14  18  5
30  44  6

$$$$
