310937358
  -OEChem-07211613022D

 41 44  0     1  0  0  0  0  0999 V2000
   -3.1293    4.4082    0.0000 F   0  0  0  0  0  0  0  0  0  0  0  0
   -2.6444    3.7408    0.0000 F   0  0  0  0  0  0  0  0  0  0  0  0
   -2.7937    5.1619    0.0000 F   0  0  0  0  0  0  0  0  0  0  0  0
    0.3388    6.9279    0.0000 F   0  0  0  0  0  0  0  0  0  0  0  0
   -0.4817    6.8417    0.0000 F   0  0  0  0  0  0  0  0  0  0  0  0
    0.8237    6.2605    0.0000 F   0  0  0  0  0  0  0  0  0  0  0  0
    1.1270    3.3321    0.0000 O   0  0  0  0  0  0  0  0  0  0  0  0
    2.1665    2.2925    0.0000 O   0  0  0  0  0  0  0  0  0  0  0  0
   -0.7144   -1.2375    0.0000 O   0  0  0  0  0  0  0  0  0  0  0  0
   -2.1434    2.0625    0.0000 O   0  0  0  0  0  0  0  0  0  0  0  0
    0.7144    2.0625    0.0000 N   0  0  0  0  0  0  0  0  0  0  0  0
    0.7144   -0.4125    0.0000 N   0  0  3  0  0  0  0  0  0  0  0  0
   -0.7144   -0.4125    0.0000 N   0  0  3  0  0  0  0  0  0  0  0  0
   -2.8579    0.8250    0.0000 N   0  0  0  0  0  0  0  0  0  0  0  0
    0.3020    3.3321    0.0000 C   0  0  3  0  0  0  0  0  0  0  0  0
    0.0470    2.5474    0.0000 C   0  0  3  0  0  0  0  0  0  0  0  0
   -0.1830    3.9995    0.0000 C   0  0  0  0  0  0  0  0  0  0  0  0
    1.3819    2.5474    0.0000 C   0  0  0  0  0  0  0  0  0  0  0  0
    0.0000    0.8250    0.0000 C   0  0  0  0  0  0  0  0  0  0  0  0
    0.0000    0.0000    0.0000 C   0  0  0  0  0  0  0  0  0  0  0  0
    0.7144    1.2375    0.0000 C   0  0  0  0  0  0  0  0  0  0  0  0
   -1.4884    4.5807    0.0000 C   0  0  0  0  0  0  0  0  0  0  0  0
   -0.3323    5.4206    0.0000 C   0  0  0  0  0  0  0  0  0  0  0  0
    0.1526    4.7532    0.0000 C   0  0  0  0  0  0  0  0  0  0  0  0
   -1.0034    3.9133    0.0000 C   0  0  0  0  0  0  0  0  0  0  0  0
   -1.1528    5.3343    0.0000 C   0  0  0  0  0  0  0  0  0  0  0  0
   -2.3088    4.4944    0.0000 C   0  0  0  0  0  0  0  0  0  0  0  0
    0.0032    6.1743    0.0000 C   0  0  0  0  0  0  0  0  0  0  0  0
   -0.7144    1.2375    0.0000 C   0  0  0  0  0  0  0  0  0  0  0  0
   -1.4290    0.8250    0.0000 C   0  0  0  0  0  0  0  0  0  0  0  0
   -1.4290    0.0000    0.0000 C   0  0  0  0  0  0  0  0  0  0  0  0
    0.7144   -1.2375    0.0000 C   0  0  0  0  0  0  0  0  0  0  0  0
   -0.7376    2.2925    0.0000 C   0  0  0  0  0  0  0  0  0  0  0  0
   -2.1434    1.2375    0.0000 C   0  0  0  0  0  0  0  0  0  0  0  0
    1.4290    0.0000    0.0000 C   0  0  0  0  0  0  0  0  0  0  0  0
    1.4290   -1.6500    0.0000 C   0  0  0  0  0  0  0  0  0  0  0  0
    0.0000   -1.6500    0.0000 C   0  0  0  0  0  0  0  0  0  0  0  0
    1.4290   -2.4750    0.0000 C   0  0  0  0  0  0  0  0  0  0  0  0
    0.0000   -2.4750    0.0000 C   0  0  0  0  0  0  0  0  0  0  0  0
    2.1434   -0.4125    0.0000 C   0  0  0  0  0  0  0  0  0  0  0  0
    0.7144   -2.8875    0.0000 C   0  0  0  0  0  0  0  0  0  0  0  0
  1 27  1  0  0  0  0
  2 27  1  0  0  0  0
  3 27  1  0  0  0  0
  4 28  1  0  0  0  0
  5 28  1  0  0  0  0
  6 28  1  0  0  0  0
 15  7  1  1  0  0  0
  7 18  1  0  0  0  0
  8 18  2  0  0  0  0
  9 13  1  0  0  0  0
 10 34  2  0  0  0  0
 11 16  1  0  0  0  0
 11 18  1  0  0  0  0
 11 21  1  0  0  0  0
 12 20  1  0  0  0  0
 12 32  1  0  0  0  0
 12 35  1  0  0  0  0
 13 20  1  0  0  0  0
 13 31  1  0  0  0  0
 14 34  1  0  0  0  0
 15 16  1  0  0  0  0
 15 17  1  0  0  0  0
 16 33  1  1  0  0  0
 17 24  2  0  0  0  0
 17 25  1  0  0  0  0
 19 20  2  0  0  0  0
 19 21  1  0  0  0  0
 19 29  1  0  0  0  0
 22 25  2  0  0  0  0
 22 26  1  0  0  0  0
 22 27  1  0  0  0  0
 23 24  1  0  0  0  0
 23 26  2  0  0  0  0
 23 28  1  0  0  0  0
 29 30  2  0  0  0  0
 30 31  1  0  0  0  0
 30 34  1  0  0  0  0
 32 36  1  0  0  0  0
 32 37  1  0  0  0  0
 35 40  1  0  0  0  0
 36 38  1  0  0  0  0
 37 39  1  0  0  0  0
 38 41  1  0  0  0  0
 39 41  1  0  0  0  0
M  END
> <PUBCHEM_COMPOUND_ID_TYPE>
0

> <PUBCHEM_TOTAL_CHARGE>
0

> <PUBCHEM_SUBSTANCE_ID>
310937358

> <PUBCHEM_SUBSTANCE_VERSION>
1

> <PUBCHEM_EXT_DATASOURCE_NAME>
4488

> <PUBCHEM_EXT_DATASOURCE_REGID>
SCHEMBL16115114

> <PUBCHEM_SUBSTANCE_COMMENT>
InChI=1S/C27H32F6N4O4/c1-3-35(21-7-5-4-6-8-21)24-18(9-17(23(34)38)14-37(24)40)13-36-15(2)22(41-25(36)39)16-10-19(26(28,29)30)12-20(11-16)27(31,32)33/h9-12,15,21-22,40H,3-8,13-14H2,1-2H3,(H2,34,38)/t15-,22-/m0/s1
InChIKey=QOVPSGWMRFKMFV-NYHFZMIOSA-N

> <PUBCHEM_SUBSTANCE_SYNONYM>
SCHEMBL16115114

> <PUBCHEM_XREF_EXT_ID>
SCHEMBL16115114

> <PUBCHEM_EXT_DATASOURCE_URL>
https://www.surechembl.org/

> <PUBCHEM_EXT_SUBSTANCE_URL>
https://www.surechembl.org/chemical/SCHEMBL16115114

> <PUBCHEM_CID_ASSOCIATIONS>
117605130  1

> <PUBCHEM_COORDINATE_TYPE>
1
3

> <PUBCHEM_BONDANNOTATIONS>
16  33  5
15  7  5

$$$$
