310946049
  -OEChem-07211613022D

 16 15  0     1  0  0  0  0  0999 V2000
    1.4706    0.8070    0.0000 O   0  0  0  0  0  0  0  0  0  0  0  0
   -2.7978   -0.0180    0.0000 O   0  0  0  0  0  0  0  0  0  0  0  0
   -1.3810    1.6320    0.0000 O   0  0  0  0  0  0  0  0  0  0  0  0
    0.7533   -0.4304    0.0000 O   0  0  0  0  0  0  0  0  0  0  0  0
   -0.6636    0.4125    0.0000 N   0  0  0  0  0  0  0  0  0  0  0  0
   -2.1163    0.3946    0.0000 C   0  0  0  0  0  0  0  0  0  0  0  0
   -1.3810    0.8070    0.0000 C   0  0  0  0  0  0  0  0  0  0  0  0
    0.0538    0.8070    0.0000 C   0  0  3  0  0  0  0  0  0  0  0  0
    0.7533    0.4484    0.0000 C   0  0  0  0  0  0  0  0  0  0  0  0
   -2.8875    0.5919    0.0000 C   0  0  0  0  0  0  0  0  0  0  0  0
   -2.0804   -0.4484    0.0000 C   0  0  0  0  0  0  0  0  0  0  0  0
    0.0538    1.6320    0.0000 C   0  0  0  0  0  0  0  0  0  0  0  0
    2.1522    0.4125    0.0000 C   0  0  0  0  0  0  0  0  0  0  0  0
    2.1522   -0.4125    0.0000 C   0  0  0  0  0  0  0  0  0  0  0  0
    2.8875   -0.8070    0.0000 C   0  0  0  0  0  0  0  0  0  0  0  0
    2.8875   -1.6320    0.0000 C   0  0  0  0  0  0  0  0  0  0  0  0
  1  9  1  0  0  0  0
  1 13  1  0  0  0  0
  2  6  1  0  0  0  0
  3  7  2  0  0  0  0
  4  9  2  0  0  0  0
  5  7  1  0  0  0  0
  5  8  1  0  0  0  0
  6  7  1  0  0  0  0
  6 10  1  0  0  0  0
  6 11  1  0  0  0  0
  8  9  1  0  0  0  0
  8 12  1  6  0  0  0
 13 14  1  0  0  0  0
 14 15  1  0  0  0  0
 15 16  1  0  0  0  0
M  END
> <PUBCHEM_COMPOUND_ID_TYPE>
0

> <PUBCHEM_TOTAL_CHARGE>
0

> <PUBCHEM_SUBSTANCE_ID>
310946049

> <PUBCHEM_SUBSTANCE_VERSION>
1

> <PUBCHEM_EXT_DATASOURCE_NAME>
4488

> <PUBCHEM_EXT_DATASOURCE_REGID>
SCHEMBL16124155

> <PUBCHEM_SUBSTANCE_COMMENT>
InChI=1S/C11H21NO4/c1-5-6-7-16-9(13)8(2)12-10(14)11(3,4)15/h8,15H,5-7H2,1-4H3,(H,12,14)/t8-/m1/s1
InChIKey=IZCDFKNXXLTHJE-MRVPVSSYSA-N

> <PUBCHEM_SUBSTANCE_SYNONYM>
SCHEMBL16124155

> <PUBCHEM_XREF_EXT_ID>
SCHEMBL16124155

> <PUBCHEM_EXT_DATASOURCE_URL>
https://www.surechembl.org/

> <PUBCHEM_EXT_SUBSTANCE_URL>
https://www.surechembl.org/chemical/SCHEMBL16124155

> <PUBCHEM_CID_ASSOCIATIONS>
117612020  1

> <PUBCHEM_COORDINATE_TYPE>
1
3

> <PUBCHEM_BONDANNOTATIONS>
8  12  6

$$$$
