310939770
  -OEChem-07211613022D

 16 17  0     0  0  0  0  0  0999 V2000
   -2.7558   -2.9938    0.0000 Cl  0  0  0  0  0  0  0  0  0  0  0  0
   -4.1848   -5.4688    0.0000 O   0  0  0  0  0  0  0  0  0  0  0  0
   -1.3269   -3.8188    0.0000 C   0  0  0  0  0  0  0  0  0  0  0  0
   -2.0413   -4.2313    0.0000 C   0  0  0  0  0  0  0  0  0  0  0  0
   -2.7558   -5.4688    0.0000 C   0  0  0  0  0  0  0  0  0  0  0  0
   -0.5019   -3.8188    0.0000 C   0  0  0  0  0  0  0  0  0  0  0  0
   -0.9144   -3.1044    0.0000 C   0  0  0  0  0  0  0  0  0  0  0  0
   -2.7558   -3.8188    0.0000 C   0  0  0  0  0  0  0  0  0  0  0  0
   -2.0413   -5.0563    0.0000 C   0  0  0  0  0  0  0  0  0  0  0  0
   -3.4703   -5.0563    0.0000 C   0  0  0  0  0  0  0  0  0  0  0  0
   -2.7558   -6.2938    0.0000 C   0  0  0  0  0  0  0  0  0  0  0  0
   -3.4703   -4.2313    0.0000 C   0  0  0  0  0  0  0  0  0  0  0  0
   -0.9144   -4.5333    0.0000 C   0  0  0  0  0  0  0  0  0  0  0  0
   -1.9308   -6.2938    0.0000 C   0  0  0  0  0  0  0  0  0  0  0  0
   -3.5808   -6.2938    0.0000 C   0  0  0  0  0  0  0  0  0  0  0  0
   -2.7558   -7.1188    0.0000 C   0  0  0  0  0  0  0  0  0  0  0  0
  1  8  1  0  0  0  0
  2 10  1  0  0  0  0
  3  4  1  0  0  0  0
  3  6  1  0  0  0  0
  3  7  1  0  0  0  0
  3 13  1  0  0  0  0
  4  8  2  0  0  0  0
  4  9  1  0  0  0  0
  5  9  2  0  0  0  0
  5 10  1  0  0  0  0
  5 11  1  0  0  0  0
  6  7  1  0  0  0  0
  8 12  1  0  0  0  0
 10 12  2  0  0  0  0
 11 14  1  0  0  0  0
 11 15  1  0  0  0  0
 11 16  1  0  0  0  0
M  END
> <PUBCHEM_COMPOUND_ID_TYPE>
0

> <PUBCHEM_TOTAL_CHARGE>
0

> <PUBCHEM_SUBSTANCE_ID>
310939770

> <PUBCHEM_SUBSTANCE_VERSION>
1

> <PUBCHEM_EXT_DATASOURCE_NAME>
4488

> <PUBCHEM_EXT_DATASOURCE_REGID>
SCHEMBL16117700

> <PUBCHEM_SUBSTANCE_COMMENT>
InChI=1S/C14H19ClO/c1-13(2,3)10-7-9(14(4)5-6-14)11(15)8-12(10)16/h7-8,16H,5-6H2,1-4H3
InChIKey=RABMKFDURYTQMP-UHFFFAOYSA-N

> <PUBCHEM_SUBSTANCE_SYNONYM>
SCHEMBL16117700

> <PUBCHEM_XREF_EXT_ID>
SCHEMBL16117700

> <PUBCHEM_EXT_DATASOURCE_URL>
https://www.surechembl.org/

> <PUBCHEM_EXT_SUBSTANCE_URL>
https://www.surechembl.org/chemical/SCHEMBL16117700

> <PUBCHEM_CID_ASSOCIATIONS>
117606992  1

> <PUBCHEM_COORDINATE_TYPE>
1
3

> <PUBCHEM_BONDANNOTATIONS>
11  14  3
11  15  3

$$$$
