310939281
  -OEChem-07211613022D

 29 31  0     0  0  0  0  0  0999 V2000
    3.9740   -2.5006    0.0000 S   0  0  0  0  0  0  0  0  0  0  0  0
    0.2615    1.0717    0.0000 F   0  0  0  0  0  0  0  0  0  0  0  0
    0.2615   -1.7862    0.0000 F   0  0  0  0  0  0  0  0  0  0  0  0
    1.0865   -0.3572    0.0000 O   0  0  0  0  0  0  0  0  0  0  0  0
    4.6885   -2.0881    0.0000 O   0  0  0  0  0  0  0  0  0  0  0  0
    3.2595   -2.9131    0.0000 O   0  0  0  0  0  0  0  0  0  0  0  0
    3.5615   -1.7862    0.0000 N   0  0  0  0  0  0  0  0  0  0  0  0
   -2.2135    1.0717    0.0000 N   0  0  0  0  0  0  0  0  0  0  0  0
   -3.4510    3.2151    0.0000 N   0  0  0  0  0  0  0  0  0  0  0  0
   -4.6885    2.5006    0.0000 N   0  0  0  0  0  0  0  0  0  0  0  0
    0.2615   -0.3572    0.0000 C   0  0  0  0  0  0  0  0  0  0  0  0
   -0.1510    0.3572    0.0000 C   0  0  0  0  0  0  0  0  0  0  0  0
   -0.9760    0.3572    0.0000 C   0  0  0  0  0  0  0  0  0  0  0  0
   -0.1510   -1.0717    0.0000 C   0  0  0  0  0  0  0  0  0  0  0  0
    1.4990   -1.0717    0.0000 C   0  0  0  0  0  0  0  0  0  0  0  0
   -1.3885   -0.3572    0.0000 C   0  0  0  0  0  0  0  0  0  0  0  0
   -0.9760   -1.0717    0.0000 C   0  0  0  0  0  0  0  0  0  0  0  0
    2.7365   -1.7862    0.0000 C   0  0  0  0  0  0  0  0  0  0  0  0
    2.3240   -1.0717    0.0000 C   0  0  0  0  0  0  0  0  0  0  0  0
   -1.3885    1.0717    0.0000 C   0  0  0  0  0  0  0  0  0  0  0  0
    1.0865   -1.7862    0.0000 C   0  0  0  0  0  0  0  0  0  0  0  0
    2.3240   -2.5006    0.0000 C   0  0  0  0  0  0  0  0  0  0  0  0
   -2.6260    1.7862    0.0000 C   0  0  0  0  0  0  0  0  0  0  0  0
    1.4990   -2.5006    0.0000 C   0  0  0  0  0  0  0  0  0  0  0  0
   -3.4510    1.7862    0.0000 C   0  0  0  0  0  0  0  0  0  0  0  0
   -2.2135    2.5006    0.0000 C   0  0  0  0  0  0  0  0  0  0  0  0
   -3.8635    2.5006    0.0000 C   0  0  0  0  0  0  0  0  0  0  0  0
   -2.6260    3.2151    0.0000 C   0  0  0  0  0  0  0  0  0  0  0  0
    4.3865   -3.2151    0.0000 C   0  0  0  0  0  0  0  0  0  0  0  0
  1  5  2  0  0  0  0
  1  6  2  0  0  0  0
  1  7  1  0  0  0  0
  1 29  1  0  0  0  0
  2 12  1  0  0  0  0
  3 14  1  0  0  0  0
  4 11  1  0  0  0  0
  4 15  1  0  0  0  0
  7 18  1  0  0  0  0
  8 20  1  0  0  0  0
  8 23  1  0  0  0  0
  9 27  1  0  0  0  0
  9 28  2  0  0  0  0
 10 27  1  0  0  0  0
 11 12  2  0  0  0  0
 11 14  1  0  0  0  0
 12 13  1  0  0  0  0
 13 16  2  0  0  0  0
 13 20  1  0  0  0  0
 14 17  2  0  0  0  0
 15 19  1  0  0  0  0
 15 21  2  0  0  0  0
 16 17  1  0  0  0  0
 18 19  2  0  0  0  0
 18 22  1  0  0  0  0
 21 24  1  0  0  0  0
 22 24  2  0  0  0  0
 23 25  1  0  0  0  0
 23 26  2  0  0  0  0
 25 27  2  0  0  0  0
 26 28  1  0  0  0  0
M  END
> <PUBCHEM_COMPOUND_ID_TYPE>
0

> <PUBCHEM_TOTAL_CHARGE>
0

> <PUBCHEM_SUBSTANCE_ID>
310939281

> <PUBCHEM_SUBSTANCE_VERSION>
1

> <PUBCHEM_EXT_DATASOURCE_NAME>
4488

> <PUBCHEM_EXT_DATASOURCE_REGID>
SCHEMBL16117202

> <PUBCHEM_SUBSTANCE_COMMENT>
InChI=1S/C19H18F2N4O3S/c1-29(26,27)25-14-3-2-4-15(9-14)28-19-16(20)6-5-12(18(19)21)11-24-13-7-8-23-17(22)10-13/h2-10,25H,11H2,1H3,(H3,22,23,24)
InChIKey=XWPBVVSZIQBADK-UHFFFAOYSA-N

> <PUBCHEM_SUBSTANCE_SYNONYM>
SCHEMBL16117202

> <PUBCHEM_XREF_EXT_ID>
SCHEMBL16117202

> <PUBCHEM_EXT_DATASOURCE_URL>
https://www.surechembl.org/

> <PUBCHEM_EXT_SUBSTANCE_URL>
https://www.surechembl.org/chemical/SCHEMBL16117202

> <PUBCHEM_CID_ASSOCIATIONS>
117606624  1

> <PUBCHEM_COORDINATE_TYPE>
1
3

$$$$
