310938034
  -OEChem-07211613022D

 23 25  0     0  0  0  0  0  0999 V2000
    6.0658   -2.9723    0.0000 F   0  0  0  0  0  0  0  0  0  0  0  0
    5.7321   -1.6074    0.0000 F   0  0  0  0  0  0  0  0  0  0  0  0
    2.5476   -4.5190    0.0000 O   0  0  0  0  0  0  0  0  0  0  0  0
    4.1551   -1.9714    0.0000 O   0  0  0  0  0  0  0  0  0  0  0  0
    1.3041   -4.1247    0.0000 N   0  0  0  0  0  0  0  0  0  0  0  0
    1.7894   -2.5173    0.0000 N   0  0  0  0  0  0  0  0  0  0  0  0
    2.0624   -5.1863    0.0000 N   0  0  0  0  0  0  0  0  0  0  0  0
    2.3353   -3.0936    0.0000 C   0  0  0  0  0  0  0  0  0  0  0  0
    2.8206   -1.5771    0.0000 C   0  0  0  0  0  0  0  0  0  0  0  0
    2.0624   -3.8821    0.0000 C   0  0  0  0  0  0  0  0  0  0  0  0
    3.3665   -2.1534    0.0000 C   0  0  0  0  0  0  0  0  0  0  0  0
    1.3041   -4.9436    0.0000 C   0  0  0  0  0  0  0  0  0  0  0  0
    3.0632   -0.7886    0.0000 C   0  0  0  0  0  0  0  0  0  0  0  0
    3.1239   -2.9419    0.0000 C   0  0  0  0  0  0  0  0  0  0  0  0
    0.6369   -5.3985    0.0000 C   0  0  0  0  0  0  0  0  0  0  0  0
    2.0017   -1.7287    0.0000 C   0  0  0  0  0  0  0  0  0  0  0  0
    2.9116    0.0000    0.0000 C   0  0  0  0  0  0  0  0  0  0  0  0
    3.7001   -0.2426    0.0000 C   0  0  0  0  0  0  0  0  0  0  0  0
    0.1516   -4.7313    0.0000 C   0  0  0  0  0  0  0  0  0  0  0  0
    0.0000   -5.8838    0.0000 C   0  0  0  0  0  0  0  0  0  0  0  0
    1.1221   -6.0658    0.0000 C   0  0  0  0  0  0  0  0  0  0  0  0
    4.7010   -2.5476    0.0000 C   0  0  0  0  0  0  0  0  0  0  0  0
    5.5198   -2.3657    0.0000 C   0  0  0  0  0  0  0  0  0  0  0  0
  1 23  1  0  0  0  0
  2 23  1  0  0  0  0
  3  7  1  0  0  0  0
  3 10  1  0  0  0  0
  4 11  1  0  0  0  0
  4 22  1  0  0  0  0
  5 10  2  0  0  0  0
  5 12  1  0  0  0  0
  6  8  1  0  0  0  0
  6 16  2  0  0  0  0
  7 12  2  0  0  0  0
  8 10  1  0  0  0  0
  8 14  2  0  0  0  0
  9 11  2  0  0  0  0
  9 13  1  0  0  0  0
  9 16  1  0  0  0  0
 11 14  1  0  0  0  0
 12 15  1  0  0  0  0
 13 17  1  0  0  0  0
 13 18  1  0  0  0  0
 15 19  1  0  0  0  0
 15 20  1  0  0  0  0
 15 21  1  0  0  0  0
 17 18  1  0  0  0  0
 22 23  1  0  0  0  0
M  END
> <PUBCHEM_COMPOUND_ID_TYPE>
0

> <PUBCHEM_TOTAL_CHARGE>
0

> <PUBCHEM_SUBSTANCE_ID>
310938034

> <PUBCHEM_SUBSTANCE_VERSION>
1

> <PUBCHEM_EXT_DATASOURCE_NAME>
4488

> <PUBCHEM_EXT_DATASOURCE_REGID>
SCHEMBL16115874

> <PUBCHEM_SUBSTANCE_COMMENT>
InChI=1S/C16H19F2N3O2/c1-16(2,3)15-20-14(23-21-15)11-6-12(22-8-13(17)18)10(7-19-11)9-4-5-9/h6-7,9,13H,4-5,8H2,1-3H3
InChIKey=UAWJZDSNZLBNHZ-UHFFFAOYSA-N

> <PUBCHEM_SUBSTANCE_SYNONYM>
SCHEMBL16115874

> <PUBCHEM_XREF_EXT_ID>
SCHEMBL16115874

> <PUBCHEM_EXT_DATASOURCE_URL>
https://www.surechembl.org/

> <PUBCHEM_EXT_SUBSTANCE_URL>
https://www.surechembl.org/chemical/SCHEMBL16115874

> <PUBCHEM_CID_ASSOCIATIONS>
86276091  1

> <PUBCHEM_COORDINATE_TYPE>
1
3

$$$$
