310949539
  -OEChem-07211613022D

 43 47  0     1  0  0  0  0  0999 V2000
   -2.0944   -0.6961    0.0000 F   0  0  0  0  0  0  0  0  0  0  0  0
   -2.9148   -1.5040    0.0000 F   0  0  0  0  0  0  0  0  0  0  0  0
   -3.7103   -0.6837    0.0000 F   0  0  0  0  0  0  0  0  0  0  0  0
   -1.4854   -0.6837    0.0000 O   0  0  0  0  0  0  0  0  0  0  0  0
    4.4934    0.2113    0.0000 O   0  0  0  0  0  0  0  0  0  0  0  0
    5.8110    0.6464    0.0000 O   0  0  0  0  0  0  0  0  0  0  0  0
    1.4730    0.3107    0.0000 N   0  0  0  0  0  0  0  0  0  0  0  0
    1.9577    0.9820    0.0000 N   0  0  0  0  0  0  0  0  0  0  0  0
   -2.1939    0.5718    0.0000 N   0  0  0  0  0  0  0  0  0  0  0  0
    0.6774    0.5718    0.0000 C   0  0  0  0  0  0  0  0  0  0  0  0
    0.6899    1.4046    0.0000 C   0  0  0  0  0  0  0  0  0  0  0  0
    1.4605    1.6531    0.0000 C   0  0  0  0  0  0  0  0  0  0  0  0
   -0.7644    0.5718    0.0000 C   0  0  0  0  0  0  0  0  0  0  0  0
   -0.0435    0.1616    0.0000 C   0  0  0  0  0  0  0  0  0  0  0  0
   -0.0311    1.8023    0.0000 C   0  0  0  0  0  0  0  0  0  0  0  0
   -1.4730    0.1741    0.0000 C   0  0  0  0  0  0  0  0  0  0  0  0
    1.6842   -0.4848    0.0000 C   0  0  0  0  0  0  0  0  0  0  0  0
   -2.9024    0.1616    0.0000 C   0  0  3  0  0  0  0  0  0  0  0  0
   -0.7395    1.3922    0.0000 C   0  0  0  0  0  0  0  0  0  0  0  0
    2.4922   -0.6961    0.0000 C   0  0  0  0  0  0  0  0  0  0  0  0
   -2.9148   -0.6837    0.0000 C   0  0  0  0  0  0  0  0  0  0  0  0
   -3.6357    0.5718    0.0000 C   0  0  0  0  0  0  0  0  0  0  0  0
    4.0832   -1.1187    0.0000 C   0  0  0  0  0  0  0  0  0  0  0  0
    1.8831    2.3617    0.0000 C   0  0  0  0  0  0  0  0  0  0  0  0
    4.8911   -1.3424    0.0000 C   0  0  0  0  0  0  0  0  0  0  0  0
   -4.3443    0.1616    0.0000 C   0  0  0  0  0  0  0  0  0  0  0  0
    2.7159   -1.5040    0.0000 C   0  0  0  0  0  0  0  0  0  0  0  0
    3.0764   -0.1243    0.0000 C   0  0  0  0  0  0  0  0  0  0  0  0
    5.4754   -0.7582    0.0000 C   0  0  0  0  0  0  0  0  0  0  0  0
   -3.6233    1.3922    0.0000 C   0  0  0  0  0  0  0  0  0  0  0  0
   -5.0776    0.5718    0.0000 C   0  0  0  0  0  0  0  0  0  0  0  0
    3.4990   -1.7153    0.0000 C   0  0  0  0  0  0  0  0  0  0  0  0
    3.8720   -0.3356    0.0000 C   0  0  0  0  0  0  0  0  0  0  0  0
    5.1025   -2.1503    0.0000 C   0  0  0  0  0  0  0  0  0  0  0  0
   -4.3319    1.8023    0.0000 C   0  0  0  0  0  0  0  0  0  0  0  0
   -5.0528    1.3922    0.0000 C   0  0  0  0  0  0  0  0  0  0  0  0
    5.2517    0.0373    0.0000 C   0  0  0  0  0  0  0  0  0  0  0  0
   -5.7737    0.1616    0.0000 C   0  0  0  0  0  0  0  0  0  0  0  0
    6.2709   -0.9820    0.0000 C   0  0  0  0  0  0  0  0  0  0  0  0
    5.8980   -2.3617    0.0000 C   0  0  0  0  0  0  0  0  0  0  0  0
    6.4822   -1.7775    0.0000 C   0  0  0  0  0  0  0  0  0  0  0  0
   -6.4822    0.5469    0.0000 C   0  0  0  0  0  0  0  0  0  0  0  0
   -5.7613   -0.6712    0.0000 C   0  0  0  0  0  0  0  0  0  0  0  0
  1 21  1  0  0  0  0
  2 21  1  0  0  0  0
  3 21  1  0  0  0  0
  4 16  2  0  0  0  0
  5 37  2  0  0  0  0
  6 37  1  0  0  0  0
  7  8  1  0  0  0  0
  7 10  1  0  0  0  0
  7 17  1  0  0  0  0
  8 12  2  0  0  0  0
  9 16  1  0  0  0  0
 18  9  1  1  0  0  0
 10 11  1  0  0  0  0
 10 14  2  0  0  0  0
 11 12  1  0  0  0  0
 11 15  2  0  0  0  0
 12 24  1  0  0  0  0
 13 14  1  0  0  0  0
 13 16  1  0  0  0  0
 13 19  2  0  0  0  0
 15 19  1  0  0  0  0
 17 20  1  0  0  0  0
 18 21  1  0  0  0  0
 18 22  1  0  0  0  0
 20 27  2  0  0  0  0
 20 28  1  0  0  0  0
 22 26  2  0  0  0  0
 22 30  1  0  0  0  0
 23 25  1  0  0  0  0
 23 32  2  0  0  0  0
 23 33  1  0  0  0  0
 25 29  1  0  0  0  0
 25 34  2  0  0  0  0
 26 31  1  0  0  0  0
 27 32  1  0  0  0  0
 28 33  2  0  0  0  0
 29 37  1  0  0  0  0
 29 39  2  0  0  0  0
 30 35  2  0  0  0  0
 31 36  2  0  0  0  0
 31 38  1  0  0  0  0
 34 40  1  0  0  0  0
 35 36  1  0  0  0  0
 38 42  1  0  0  0  0
 38 43  1  0  0  0  0
 39 41  1  0  0  0  0
 40 41  2  0  0  0  0
M  END
> <PUBCHEM_COMPOUND_ID_TYPE>
0

> <PUBCHEM_TOTAL_CHARGE>
0

> <PUBCHEM_SUBSTANCE_ID>
310949539

> <PUBCHEM_SUBSTANCE_VERSION>
1

> <PUBCHEM_EXT_DATASOURCE_NAME>
4488

> <PUBCHEM_EXT_DATASOURCE_REGID>
SCHEMBL16127734

> <PUBCHEM_SUBSTANCE_COMMENT>
InChI=1S/C34H30F3N3O3/c1-20(2)24-7-6-8-25(17-24)31(34(35,36)37)38-32(41)26-15-16-27-21(3)39-40(30(27)18-26)19-22-11-13-23(14-12-22)28-9-4-5-10-29(28)33(42)43/h4-18,20,31H,19H2,1-3H3,(H,38,41)(H,42,43)/t31-/m1/s1
InChIKey=NAUUWKWTHKWQEA-WJOKGBTCSA-N

> <PUBCHEM_SUBSTANCE_SYNONYM>
SCHEMBL16127734

> <PUBCHEM_XREF_EXT_ID>
SCHEMBL16127734

> <PUBCHEM_EXT_DATASOURCE_URL>
https://www.surechembl.org/

> <PUBCHEM_EXT_SUBSTANCE_URL>
https://www.surechembl.org/chemical/SCHEMBL16127734

> <PUBCHEM_CID_ASSOCIATIONS>
71577977  1

> <PUBCHEM_COORDINATE_TYPE>
1
3

> <PUBCHEM_BONDANNOTATIONS>
18  9  5

$$$$
