310943774
  -OEChem-07211613022D

 35 38  0     0  0  0  0  0  0999 V2000
    4.3097    1.9286    0.0000 F   0  0  0  0  0  0  0  0  0  0  0  0
    5.3891    1.6112    0.0000 F   0  0  0  0  0  0  0  0  0  0  0  0
    5.0399    0.5318    0.0000 F   0  0  0  0  0  0  0  0  0  0  0  0
   -2.5160   -1.2461    0.0000 O   0  0  0  0  0  0  0  0  0  0  0  0
    1.8017    2.0715    0.0000 O   0  0  0  0  0  0  0  0  0  0  0  0
   -5.3891    2.0874    0.0000 O   0  0  0  0  0  0  0  0  0  0  0  0
   -3.9605    1.2461    0.0000 N   0  0  0  0  0  0  0  0  0  0  0  0
   -3.2620   -0.0080    0.0000 N   0  0  0  0  0  0  0  0  0  0  0  0
    1.0715    0.8334    0.0000 N   0  0  0  0  0  0  0  0  0  0  0  0
    3.9446   -0.0080    0.0000 N   0  0  0  0  0  0  0  0  0  0  0  0
   -1.8017    0.8334    0.0000 C   0  0  0  0  0  0  0  0  0  0  0  0
   -1.0873    1.2461    0.0000 C   0  0  0  0  0  0  0  0  0  0  0  0
   -3.2303    0.8493    0.0000 C   0  0  0  0  0  0  0  0  0  0  0  0
   -2.5318    1.2461    0.0000 C   0  0  0  0  0  0  0  0  0  0  0  0
   -1.0873    2.0874    0.0000 C   0  0  0  0  0  0  0  0  0  0  0  0
    0.3413    1.2620    0.0000 C   0  0  0  0  0  0  0  0  0  0  0  0
   -0.3730    0.8334    0.0000 C   0  0  0  0  0  0  0  0  0  0  0  0
   -1.8176    0.0080    0.0000 C   0  0  0  0  0  0  0  0  0  0  0  0
   -2.5318   -0.4048    0.0000 C   0  0  0  0  0  0  0  0  0  0  0  0
    2.5160    0.8334    0.0000 C   0  0  0  0  0  0  0  0  0  0  0  0
    3.9446    0.8334    0.0000 C   0  0  0  0  0  0  0  0  0  0  0  0
    1.7699    1.2302    0.0000 C   0  0  0  0  0  0  0  0  0  0  0  0
    4.6748    1.2302    0.0000 C   0  0  0  0  0  0  0  0  0  0  0  0
    3.2145    1.2461    0.0000 C   0  0  0  0  0  0  0  0  0  0  0  0
   -0.3730    2.4684    0.0000 C   0  0  0  0  0  0  0  0  0  0  0  0
    0.3413    2.0715    0.0000 C   0  0  0  0  0  0  0  0  0  0  0  0
    2.5160   -0.0080    0.0000 C   0  0  0  0  0  0  0  0  0  0  0  0
   -3.9764    2.0874    0.0000 C   0  0  0  0  0  0  0  0  0  0  0  0
   -4.6748    0.8493    0.0000 C   0  0  0  0  0  0  0  0  0  0  0  0
    3.2303   -0.4207    0.0000 C   0  0  0  0  0  0  0  0  0  0  0  0
   -1.8176    2.4684    0.0000 C   0  0  0  0  0  0  0  0  0  0  0  0
   -4.6907    2.5001    0.0000 C   0  0  0  0  0  0  0  0  0  0  0  0
   -5.3891    1.2461    0.0000 C   0  0  0  0  0  0  0  0  0  0  0  0
   -3.2462   -1.6588    0.0000 C   0  0  0  0  0  0  0  0  0  0  0  0
   -3.2462   -2.5001    0.0000 C   0  0  0  0  0  0  0  0  0  0  0  0
  1 23  1  0  0  0  0
  2 23  1  0  0  0  0
  3 23  1  0  0  0  0
  4 19  1  0  0  0  0
  4 34  1  0  0  0  0
  5 22  2  0  0  0  0
  6 32  1  0  0  0  0
  6 33  1  0  0  0  0
  7 13  1  0  0  0  0
  7 28  1  0  0  0  0
  7 29  1  0  0  0  0
  8 13  1  0  0  0  0
  8 19  2  0  0  0  0
  9 16  1  0  0  0  0
  9 22  1  0  0  0  0
 10 21  1  0  0  0  0
 10 30  2  0  0  0  0
 11 12  1  0  0  0  0
 11 14  1  0  0  0  0
 11 18  2  0  0  0  0
 12 15  1  0  0  0  0
 12 17  2  0  0  0  0
 13 14  2  0  0  0  0
 15 25  2  0  0  0  0
 15 31  1  0  0  0  0
 16 17  1  0  0  0  0
 16 26  2  0  0  0  0
 18 19  1  0  0  0  0
 20 22  1  0  0  0  0
 20 24  1  0  0  0  0
 20 27  2  0  0  0  0
 21 23  1  0  0  0  0
 21 24  2  0  0  0  0
 25 26  1  0  0  0  0
 27 30  1  0  0  0  0
 28 32  1  0  0  0  0
 29 33  1  0  0  0  0
 34 35  1  0  0  0  0
M  END
> <PUBCHEM_COMPOUND_ID_TYPE>
0

> <PUBCHEM_TOTAL_CHARGE>
0

> <PUBCHEM_SUBSTANCE_ID>
310943774

> <PUBCHEM_SUBSTANCE_VERSION>
1

> <PUBCHEM_EXT_DATASOURCE_NAME>
4488

> <PUBCHEM_EXT_DATASOURCE_REGID>
SCHEMBL16121843

> <PUBCHEM_SUBSTANCE_COMMENT>
InChI=1S/C25H25F3N4O3/c1-3-35-23-14-18(13-22(31-23)32-8-10-34-11-9-32)20-15-19(5-4-16(20)2)30-24(33)17-6-7-29-21(12-17)25(26,27)28/h4-7,12-15H,3,8-11H2,1-2H3,(H,30,33)
InChIKey=YOOGGUOGZRQVCH-UHFFFAOYSA-N

> <PUBCHEM_SUBSTANCE_SYNONYM>
SCHEMBL16121843

> <PUBCHEM_XREF_EXT_ID>
SCHEMBL16121843

> <PUBCHEM_EXT_DATASOURCE_URL>
https://www.surechembl.org/

> <PUBCHEM_EXT_SUBSTANCE_URL>
https://www.surechembl.org/chemical/SCHEMBL16121843

> <PUBCHEM_CID_ASSOCIATIONS>
117610136  1

> <PUBCHEM_COORDINATE_TYPE>
1
3

$$$$
