310942938
  -OEChem-07211613022D

 12 12  0     0  0  0  0  0  0999 V2000
   -1.0970    0.0759    0.0000 O   0  0  0  0  0  0  0  0  0  0  0  0
    0.2553   -0.1311    0.0000 N   0  0  0  0  0  0  0  0  0  0  0  0
   -0.4761   -0.4899    0.0000 C   0  0  0  0  0  0  0  0  0  0  0  0
    0.2415    0.6831    0.0000 C   0  0  0  0  0  0  0  0  0  0  0  0
    1.0143   -0.5037    0.0000 C   0  0  0  0  0  0  0  0  0  0  0  0
   -0.6831   -1.2902    0.0000 C   0  0  0  0  0  0  0  0  0  0  0  0
   -0.4623    1.0970    0.0000 C   0  0  0  0  0  0  0  0  0  0  0  0
    1.1937   -1.2902    0.0000 C   0  0  0  0  0  0  0  0  0  0  0  0
   -0.1587   -1.9250    0.0000 C   0  0  0  0  0  0  0  0  0  0  0  0
    0.6693   -1.9250    0.0000 C   0  0  0  0  0  0  0  0  0  0  0  0
   -1.1937    0.6693    0.0000 C   0  0  0  0  0  0  0  0  0  0  0  0
   -0.4761    1.9250    0.0000 C   0  0  0  0  0  0  0  0  0  0  0  0
  1  3  2  0  0  0  0
  2  3  1  0  0  0  0
  2  4  1  0  0  0  0
  2  5  1  0  0  0  0
  3  6  1  0  0  0  0
  4  7  2  0  0  0  0
  5  8  1  0  0  0  0
  6  9  1  0  0  0  0
  7 11  1  0  0  0  0
  7 12  1  0  0  0  0
  8 10  1  0  0  0  0
  9 10  1  0  0  0  0
M  END
> <PUBCHEM_COMPOUND_ID_TYPE>
0

> <PUBCHEM_TOTAL_CHARGE>
0

> <PUBCHEM_SUBSTANCE_ID>
310942938

> <PUBCHEM_SUBSTANCE_VERSION>
1

> <PUBCHEM_EXT_DATASOURCE_NAME>
4488

> <PUBCHEM_EXT_DATASOURCE_REGID>
SCHEMBL16120996

> <PUBCHEM_SUBSTANCE_COMMENT>
InChI=1S/C10H17NO/c1-9(2)8-11-7-5-3-4-6-10(11)12/h8H,3-7H2,1-2H3
InChIKey=GFFYMDHYRONCRJ-UHFFFAOYSA-N

> <PUBCHEM_SUBSTANCE_SYNONYM>
SCHEMBL16120996

> <PUBCHEM_XREF_EXT_ID>
SCHEMBL16120996

> <PUBCHEM_EXT_DATASOURCE_URL>
https://www.surechembl.org/

> <PUBCHEM_EXT_SUBSTANCE_URL>
https://www.surechembl.org/chemical/SCHEMBL16120996

> <PUBCHEM_CID_ASSOCIATIONS>
13790904  1

> <PUBCHEM_COORDINATE_TYPE>
1
3

$$$$
