310941073
  -OEChem-07211613022D

 50 54  0     1  0  0  0  0  0999 V2000
    5.0553    0.3007    0.0000 O   0  0  0  0  0  0  0  0  0  0  0  0
    3.9366   -1.6431    0.0000 O   0  0  0  0  0  0  0  0  0  0  0  0
    1.7970    0.4125    0.0000 O   0  0  0  0  0  0  0  0  0  0  0  0
   -0.3566   -1.6431    0.0000 O   0  0  0  0  0  0  0  0  0  0  0  0
   -1.7830    0.8180    0.0000 O   0  0  0  0  0  0  0  0  0  0  0  0
    3.9366   -3.2933    0.0000 O   0  0  0  0  0  0  0  0  0  0  0  0
   -2.4962    0.4125    0.0000 O   0  0  0  0  0  0  0  0  0  0  0  0
   -5.3489    0.4125    0.0000 O   0  0  0  0  0  0  0  0  0  0  0  0
    2.5101   -0.8320    0.0000 N   0  0  0  0  0  0  0  0  0  0  0  0
    0.3706   -0.4125    0.0000 N   0  0  0  0  0  0  0  0  0  0  0  0
   -1.7690   -0.8320    0.0000 N   0  0  0  0  0  0  0  0  0  0  0  0
   -3.9225   -0.4125    0.0000 N   0  0  0  0  0  0  0  0  0  0  0  0
    4.6357   -0.3566    0.0000 C   0  0  3  0  0  0  0  0  0  0  0  0
    3.9366   -0.7901    0.0000 C   0  0  0  0  0  0  0  0  0  0  0  0
    4.2582    0.3146    0.0000 C   0  0  0  0  0  0  0  0  0  0  0  0
    3.2093   -0.3845    0.0000 C   0  0  3  0  0  0  0  0  0  0  0  0
    5.3489   -0.7901    0.0000 C   0  0  0  0  0  0  0  0  0  0  0  0
    3.2233    0.9300    0.0000 C   0  0  0  0  0  0  0  0  0  0  0  0
    1.7970   -0.4125    0.0000 C   0  0  0  0  0  0  0  0  0  0  0  0
    1.0837   -0.7901    0.0000 C   0  0  3  0  0  0  0  0  0  0  0  0
    2.5101    1.3495    0.0000 C   0  0  0  0  0  0  0  0  0  0  0  0
    1.0698   -1.6291    0.0000 C   0  0  0  0  0  0  0  0  0  0  0  0
   -0.3286   -0.7761    0.0000 C   0  0  0  0  0  0  0  0  0  0  0  0
    1.8110    0.9300    0.0000 C   0  0  0  0  0  0  0  0  0  0  0  0
    2.5101    2.1465    0.0000 C   0  0  0  0  0  0  0  0  0  0  0  0
    1.8110   -2.0347    0.0000 C   0  0  0  0  0  0  0  0  0  0  0  0
   -1.0698   -0.3845    0.0000 C   0  0  3  0  0  0  0  0  0  0  0  0
    1.0978    1.3355    0.0000 C   0  0  0  0  0  0  0  0  0  0  0  0
    1.7830    2.5521    0.0000 C   0  0  0  0  0  0  0  0  0  0  0  0
    2.5101   -1.6431    0.0000 C   0  0  0  0  0  0  0  0  0  0  0  0
    1.8110   -2.8598    0.0000 C   0  0  0  0  0  0  0  0  0  0  0  0
   -1.0558    0.4405    0.0000 C   0  0  0  0  0  0  0  0  0  0  0  0
    1.0978    2.1465    0.0000 C   0  0  0  0  0  0  0  0  0  0  0  0
   -2.4962   -0.4125    0.0000 C   0  0  0  0  0  0  0  0  0  0  0  0
    3.2233   -2.8458    0.0000 C   0  0  0  0  0  0  0  0  0  0  0  0
    3.2233   -2.0347    0.0000 C   0  0  0  0  0  0  0  0  0  0  0  0
    2.5101   -3.2513    0.0000 C   0  0  0  0  0  0  0  0  0  0  0  0
   -3.1814   -0.7901    0.0000 C   0  0  0  0  0  0  0  0  0  0  0  0
   -1.7690    1.6571    0.0000 C   0  0  0  0  0  0  0  0  0  0  0  0
   -2.4822    2.0906    0.0000 C   0  0  0  0  0  0  0  0  0  0  0  0
   -3.9085    0.4265    0.0000 C   0  0  0  0  0  0  0  0  0  0  0  0
   -4.6078   -0.7901    0.0000 C   0  0  0  0  0  0  0  0  0  0  0  0
   -4.6357    0.8460    0.0000 C   0  0  0  0  0  0  0  0  0  0  0  0
   -5.3349   -0.3985    0.0000 C   0  0  0  0  0  0  0  0  0  0  0  0
   -2.4822    2.8877    0.0000 C   0  0  0  0  0  0  0  0  0  0  0  0
   -3.1954    1.6711    0.0000 C   0  0  0  0  0  0  0  0  0  0  0  0
    4.6637   -2.8598    0.0000 C   0  0  0  0  0  0  0  0  0  0  0  0
   -3.2093    3.2933    0.0000 C   0  0  0  0  0  0  0  0  0  0  0  0
   -3.8945    2.0766    0.0000 C   0  0  0  0  0  0  0  0  0  0  0  0
   -3.8945    2.9017    0.0000 C   0  0  0  0  0  0  0  0  0  0  0  0
  1 13  1  0  0  0  0
  1 15  1  0  0  0  0
  2 14  2  0  0  0  0
  3 19  2  0  0  0  0
  4 23  2  0  0  0  0
  5 32  1  0  0  0  0
  5 39  1  0  0  0  0
  6 35  1  0  0  0  0
  6 47  1  0  0  0  0
  7 34  2  0  0  0  0
  8 43  1  0  0  0  0
  8 44  1  0  0  0  0
 16  9  1  1  0  0  0
  9 19  1  0  0  0  0
 20 10  1  6  0  0  0
 10 23  1  0  0  0  0
 27 11  1  1  0  0  0
 11 34  1  0  0  0  0
 12 38  1  0  0  0  0
 12 41  1  0  0  0  0
 12 42  1  0  0  0  0
 13 14  1  1  0  0  0
 13 15  1  0  0  0  0
 13 17  1  6  0  0  0
 14 16  1  0  0  0  0
 16 18  1  0  0  0  0
 18 21  1  0  0  0  0
 19 20  1  0  0  0  0
 20 22  1  0  0  0  0
 21 24  2  0  0  0  0
 21 25  1  0  0  0  0
 22 26  1  0  0  0  0
 23 27  1  0  0  0  0
 24 28  1  0  0  0  0
 25 29  2  0  0  0  0
 26 30  2  0  0  0  0
 26 31  1  0  0  0  0
 27 32  1  0  0  0  0
 28 33  2  0  0  0  0
 29 33  1  0  0  0  0
 30 36  1  0  0  0  0
 31 37  2  0  0  0  0
 34 38  1  0  0  0  0
 35 36  2  0  0  0  0
 35 37  1  0  0  0  0
 39 40  1  0  0  0  0
 40 45  2  0  0  0  0
 40 46  1  0  0  0  0
 41 43  1  0  0  0  0
 42 44  1  0  0  0  0
 45 48  1  0  0  0  0
 46 49  2  0  0  0  0
 48 50  2  0  0  0  0
 49 50  1  0  0  0  0
M  END
> <PUBCHEM_COMPOUND_ID_TYPE>
0

> <PUBCHEM_TOTAL_CHARGE>
0

> <PUBCHEM_SUBSTANCE_ID>
310941073

> <PUBCHEM_SUBSTANCE_VERSION>
1

> <PUBCHEM_EXT_DATASOURCE_NAME>
4488

> <PUBCHEM_EXT_DATASOURCE_REGID>
SCHEMBL16119033

> <PUBCHEM_SUBSTANCE_COMMENT>
InChI=1S/C38H46N4O8/c1-38(26-50-38)35(44)31(21-27-9-5-3-6-10-27)40-36(45)32(22-28-13-15-30(47-2)16-14-28)41-37(46)33(25-49-24-29-11-7-4-8-12-29)39-34(43)23-42-17-19-48-20-18-42/h3-16,31-33H,17-26H2,1-2H3,(H,39,43)(H,40,45)(H,41,46)/t31-,32-,33-,38+/m0/s1
InChIKey=LFKBRFPCKSHKCJ-ZZUYEWEESA-N

> <PUBCHEM_SUBSTANCE_SYNONYM>
SCHEMBL16119033

> <PUBCHEM_XREF_EXT_ID>
SCHEMBL16119033

> <PUBCHEM_EXT_DATASOURCE_URL>
https://www.surechembl.org/

> <PUBCHEM_EXT_SUBSTANCE_URL>
https://www.surechembl.org/chemical/SCHEMBL16119033

> <PUBCHEM_CID_ASSOCIATIONS>
117607964  1

> <PUBCHEM_COORDINATE_TYPE>
1
3

> <PUBCHEM_BONDANNOTATIONS>
20  10  6
27  11  5
13  14  5
13  17  6
16  9  5

$$$$
