310948365
  -OEChem-07211613022D

 33 35  0     0  0  0  0  0  0999 V2000
    0.3346   -1.2757    0.0000 Br  0  0  0  0  0  0  0  0  0  0  0  0
   -2.2725   -0.4810    0.0000 F   0  0  0  0  0  0  0  0  0  0  0  0
   -1.7288   -1.4151    0.0000 F   0  0  0  0  0  0  0  0  0  0  0  0
    4.0014    1.7916    0.0000 F   0  0  0  0  0  0  0  0  0  0  0  0
    2.8024    1.8334    0.0000 F   0  0  0  0  0  0  0  0  0  0  0  0
    3.9038    0.6204    0.0000 F   0  0  0  0  0  0  0  0  0  0  0  0
   -2.5514    1.2060    0.0000 O   0  0  0  0  0  0  0  0  0  0  0  0
    2.7466    0.6762    0.0000 O   0  0  0  0  0  0  0  0  0  0  0  0
   -4.0014   -1.2757    0.0000 O   0  0  0  0  0  0  0  0  0  0  0  0
   -1.1014    1.2199    0.0000 N   0  0  0  0  0  0  0  0  0  0  0  0
   -1.7707    1.7079    0.0000 N   0  0  0  0  0  0  0  0  0  0  0  0
   -1.5197    2.5026    0.0000 N   0  0  0  0  0  0  0  0  0  0  0  0
   -1.1014    0.3974    0.0000 C   0  0  0  0  0  0  0  0  0  0  0  0
   -0.4322    1.7358    0.0000 C   0  0  0  0  0  0  0  0  0  0  0  0
   -1.8125   -0.0209    0.0000 C   0  0  0  0  0  0  0  0  0  0  0  0
    0.3764    1.4570    0.0000 C   0  0  0  0  0  0  0  0  0  0  0  0
   -2.5653    0.3695    0.0000 C   0  0  0  0  0  0  0  0  0  0  0  0
   -0.3764   -0.0209    0.0000 C   0  0  0  0  0  0  0  0  0  0  0  0
   -0.6692    2.5026    0.0000 C   0  0  0  0  0  0  0  0  0  0  0  0
   -1.8125   -0.8435    0.0000 C   0  0  0  0  0  0  0  0  0  0  0  0
   -0.3904   -0.8435    0.0000 C   0  0  0  0  0  0  0  0  0  0  0  0
    0.5577    0.6483    0.0000 C   0  0  0  0  0  0  0  0  0  0  0  0
    0.9899    2.0007    0.0000 C   0  0  0  0  0  0  0  0  0  0  0  0
   -3.2624   -0.0209    0.0000 C   0  0  0  0  0  0  0  0  0  0  0  0
   -1.1014   -1.2618    0.0000 C   0  0  0  0  0  0  0  0  0  0  0  0
   -3.2624   -0.8296    0.0000 C   0  0  0  0  0  0  0  0  0  0  0  0
    1.9519    0.9550    0.0000 C   0  0  0  0  0  0  0  0  0  0  0  0
   -2.5375   -1.2618    0.0000 C   0  0  0  0  0  0  0  0  0  0  0  0
    1.3524    0.3974    0.0000 C   0  0  0  0  0  0  0  0  0  0  0  0
    1.7846    1.7636    0.0000 C   0  0  0  0  0  0  0  0  0  0  0  0
    3.3740    1.2339    0.0000 C   0  0  0  0  0  0  0  0  0  0  0  0
   -2.5375   -2.0843    0.0000 C   0  0  0  0  0  0  0  0  0  0  0  0
   -1.8264   -2.5026    0.0000 C   0  0  0  0  0  0  0  0  0  0  0  0
  1 21  1  0  0  0  0
  2 28  1  0  0  0  0
  3 28  1  0  0  0  0
  4 31  1  0  0  0  0
  5 31  1  0  0  0  0
  6 31  1  0  0  0  0
  7 17  2  0  0  0  0
  8 27  1  0  0  0  0
  8 31  1  0  0  0  0
  9 26  2  0  0  0  0
 10 11  1  0  0  0  0
 10 13  1  0  0  0  0
 10 14  1  0  0  0  0
 11 12  2  0  0  0  0
 12 19  1  0  0  0  0
 13 15  2  0  0  0  0
 13 18  1  0  0  0  0
 14 16  1  0  0  0  0
 14 19  2  0  0  0  0
 15 17  1  0  0  0  0
 15 20  1  0  0  0  0
 16 22  2  0  0  0  0
 16 23  1  0  0  0  0
 17 24  1  0  0  0  0
 18 21  2  0  0  0  0
 20 25  2  0  0  0  0
 21 25  1  0  0  0  0
 22 29  1  0  0  0  0
 23 30  2  0  0  0  0
 24 26  1  0  0  0  0
 26 28  1  0  0  0  0
 27 29  2  0  0  0  0
 27 30  1  0  0  0  0
 28 32  1  0  0  0  0
 32 33  1  0  0  0  0
M  END
> <PUBCHEM_COMPOUND_ID_TYPE>
0

> <PUBCHEM_TOTAL_CHARGE>
0

> <PUBCHEM_SUBSTANCE_ID>
310948365

> <PUBCHEM_SUBSTANCE_VERSION>
1

> <PUBCHEM_EXT_DATASOURCE_NAME>
4488

> <PUBCHEM_EXT_DATASOURCE_REGID>
SCHEMBL16126545

> <PUBCHEM_SUBSTANCE_COMMENT>
InChI=1S/C21H15BrF5N3O3/c1-2-20(23,24)19(32)10-18(31)15-8-5-13(22)9-16(15)30-17(11-28-29-30)12-3-6-14(7-4-12)33-21(25,26)27/h3-9,11H,2,10H2,1H3
InChIKey=QELTZLLRQOLNSG-UHFFFAOYSA-N

> <PUBCHEM_SUBSTANCE_SYNONYM>
SCHEMBL16126545

> <PUBCHEM_XREF_EXT_ID>
SCHEMBL16126545

> <PUBCHEM_EXT_DATASOURCE_URL>
https://www.surechembl.org/

> <PUBCHEM_EXT_SUBSTANCE_URL>
https://www.surechembl.org/chemical/SCHEMBL16126545

> <PUBCHEM_CID_ASSOCIATIONS>
117613929  1

> <PUBCHEM_COORDINATE_TYPE>
1
3

$$$$
