310932202
  -OEChem-07211613022D

 34 38  0     1  0  0  0  0  0999 V2000
    0.0000   -6.4722    0.0000 Cl  0  0  0  0  0  0  0  0  0  0  0  0
    7.8636   -2.8801    0.0000 F   0  0  0  0  0  0  0  0  0  0  0  0
    1.4238   -4.0127    0.0000 F   0  0  0  0  0  0  0  0  0  0  0  0
    6.4074   -3.6891    0.0000 O   0  0  0  0  0  0  0  0  0  0  0  0
    3.5920   -1.9416    0.0000 O   0  0  0  0  0  0  0  0  0  0  0  0
    6.5045   -0.4207    0.0000 O   0  0  0  0  0  0  0  0  0  0  0  0
    2.8478   -4.0127    0.0000 O   0  0  0  0  0  0  0  0  0  0  0  0
    5.0159   -2.0064    0.0000 N   0  0  0  0  0  0  0  0  0  0  0  0
    3.5597   -5.2424    0.0000 N   0  0  0  0  0  0  0  0  0  0  0  0
    4.3687   -0.7767    0.0000 N   0  0  0  0  0  0  0  0  0  0  0  0
    5.0159   -2.8154    0.0000 C   0  0  3  0  0  0  0  0  0  0  0  0
    5.7278   -2.4271    0.0000 C   0  0  0  0  0  0  0  0  0  0  0  0
    4.9836   -3.6567    0.0000 C   0  0  0  0  0  0  0  0  0  0  0  0
    6.4398   -2.8478    0.0000 C   0  0  0  0  0  0  0  0  0  0  0  0
    5.6955   -4.0775    0.0000 C   0  0  0  0  0  0  0  0  0  0  0  0
    4.2716   -3.2037    0.0000 C   0  0  0  0  0  0  0  0  0  0  0  0
    5.7602   -1.5857    0.0000 C   0  0  0  0  0  0  0  0  0  0  0  0
    7.1841   -2.4594    0.0000 C   0  0  0  0  0  0  0  0  0  0  0  0
    4.2716   -4.0451    0.0000 C   0  0  0  0  0  0  0  0  0  0  0  0
    6.4722   -1.2297    0.0000 C   0  0  0  0  0  0  0  0  0  0  0  0
    5.6631   -4.9189    0.0000 C   0  0  0  0  0  0  0  0  0  0  0  0
    4.2716   -4.8218    0.0000 C   0  0  0  0  0  0  0  0  0  0  0  0
    4.3363   -1.5857    0.0000 C   0  0  0  0  0  0  0  0  0  0  0  0
    7.1517   -1.6827    0.0000 C   0  0  0  0  0  0  0  0  0  0  0  0
    3.5920   -2.7831    0.0000 C   0  0  0  0  0  0  0  0  0  0  0  0
    4.9512   -5.2748    0.0000 C   0  0  0  0  0  0  0  0  0  0  0  0
    2.8478   -4.8218    0.0000 C   0  0  0  0  0  0  0  0  0  0  0  0
    2.1358   -5.2424    0.0000 C   0  0  0  0  0  0  0  0  0  0  0  0
    1.4238   -4.8218    0.0000 C   0  0  0  0  0  0  0  0  0  0  0  0
    2.1358   -6.0515    0.0000 C   0  0  0  0  0  0  0  0  0  0  0  0
    5.8249    0.0000    0.0000 C   0  0  0  0  0  0  0  0  0  0  0  0
    0.7120   -5.2424    0.0000 C   0  0  0  0  0  0  0  0  0  0  0  0
    0.7120   -6.0515    0.0000 C   0  0  0  0  0  0  0  0  0  0  0  0
    1.4238   -6.4722    0.0000 C   0  0  0  0  0  0  0  0  0  0  0  0
  1 33  1  0  0  0  0
  2 18  1  0  0  0  0
  3 29  1  0  0  0  0
  4 14  1  0  0  0  0
  4 15  1  0  0  0  0
  5 23  1  0  0  0  0
  5 25  1  0  0  0  0
  6 20  1  0  0  0  0
  6 31  1  0  0  0  0
  7 27  2  0  0  0  0
 11  8  1  6  0  0  0
  8 23  2  0  0  0  0
  9 22  1  0  0  0  0
  9 27  1  0  0  0  0
 10 23  1  0  0  0  0
 11 12  1  0  0  0  0
 11 13  1  0  0  0  0
 11 16  1  0  0  0  0
 12 14  2  0  0  0  0
 12 17  1  0  0  0  0
 13 15  2  0  0  0  0
 13 19  1  0  0  0  0
 14 18  1  0  0  0  0
 15 21  1  0  0  0  0
 16 25  1  0  0  0  0
 17 20  2  0  0  0  0
 18 24  2  0  0  0  0
 19 22  2  0  0  0  0
 20 24  1  0  0  0  0
 21 26  2  0  0  0  0
 22 26  1  0  0  0  0
 27 28  1  0  0  0  0
 28 29  2  0  0  0  0
 28 30  1  0  0  0  0
 29 32  1  0  0  0  0
 30 34  2  0  0  0  0
 32 33  2  0  0  0  0
 33 34  1  0  0  0  0
M  END
> <PUBCHEM_COMPOUND_ID_TYPE>
0

> <PUBCHEM_TOTAL_CHARGE>
0

> <PUBCHEM_SUBSTANCE_ID>
310932202

> <PUBCHEM_SUBSTANCE_VERSION>
1

> <PUBCHEM_EXT_DATASOURCE_NAME>
4488

> <PUBCHEM_EXT_DATASOURCE_REGID>
SCHEMBL16109559

> <PUBCHEM_SUBSTANCE_COMMENT>
InChI=1S/C24H18ClF2N3O4/c1-32-14-10-17-21(19(27)11-14)34-20-5-3-13(9-16(20)24(17)6-7-33-23(28)30-24)29-22(31)15-4-2-12(25)8-18(15)26/h2-5,8-11H,6-7H2,1H3,(H2,28,30)(H,29,31)/t24-/m0/s1
InChIKey=HGOPCTNQRGCZFZ-DEOSSOPVSA-N

> <PUBCHEM_SUBSTANCE_SYNONYM>
SCHEMBL16109559

> <PUBCHEM_XREF_EXT_ID>
SCHEMBL16109559

> <PUBCHEM_EXT_DATASOURCE_URL>
https://www.surechembl.org/

> <PUBCHEM_EXT_SUBSTANCE_URL>
https://www.surechembl.org/chemical/SCHEMBL16109559

> <PUBCHEM_CID_ASSOCIATIONS>
117600794  1

> <PUBCHEM_COORDINATE_TYPE>
1
3

> <PUBCHEM_BONDANNOTATIONS>
11  8  6

$$$$
