310949833
  -OEChem-07211613022D

 46 46  0     0  0  0  0  0  0999 V2000
    9.0556    0.8691    0.0000 N   0  0  0  0  0  0  0  0  0  0  0  0
    9.7323   -0.8558    0.0000 N   0  0  0  0  0  0  0  0  0  0  0  0
    4.0004    0.2057    0.0000 N   0  0  0  0  0  0  0  0  0  0  0  0
    8.1402    0.1393    0.0000 C   0  0  0  0  0  0  0  0  0  0  0  0
    8.5382   -0.9089    0.0000 C   0  0  0  0  0  0  0  0  0  0  0  0
    7.0256    0.7497    0.0000 C   0  0  0  0  0  0  0  0  0  0  0  0
    2.6736    0.1791    0.0000 C   0  0  0  0  0  0  0  0  0  0  0  0
   10.0243    0.2455    0.0000 C   0  0  0  0  0  0  0  0  0  0  0  0
    6.0438    0.1924    0.0000 C   0  0  0  0  0  0  0  0  0  0  0  0
    4.9823    0.7497    0.0000 C   0  0  0  0  0  0  0  0  0  0  0  0
    1.9438   -0.6037    0.0000 C   0  0  0  0  0  0  0  0  0  0  0  0
    1.9571    0.9089    0.0000 C   0  0  0  0  0  0  0  0  0  0  0  0
    1.2008   -0.2322    0.0000 C   0  0  0  0  0  0  0  0  0  0  0  0
    1.3070    0.5241    0.0000 C   0  0  0  0  0  0  0  0  0  0  0  0
    0.5374   -0.6037    0.0000 C   0  0  0  0  0  0  0  0  0  0  0  0
    0.5506    0.9089    0.0000 C   0  0  0  0  0  0  0  0  0  0  0  0
   -0.2190   -0.2322    0.0000 C   0  0  0  0  0  0  0  0  0  0  0  0
   -0.1261    0.5241    0.0000 C   0  0  0  0  0  0  0  0  0  0  0  0
   -0.8823   -0.6037    0.0000 C   0  0  0  0  0  0  0  0  0  0  0  0
   -0.8691    0.9089    0.0000 C   0  0  0  0  0  0  0  0  0  0  0  0
   -1.6254   -0.2322    0.0000 C   0  0  0  0  0  0  0  0  0  0  0  0
   -1.5458    0.5241    0.0000 C   0  0  0  0  0  0  0  0  0  0  0  0
   -2.2756    0.9089    0.0000 C   0  0  0  0  0  0  0  0  0  0  0  0
   -2.2888   -0.6037    0.0000 C   0  0  0  0  0  0  0  0  0  0  0  0
   -2.9389    0.5241    0.0000 C   0  0  0  0  0  0  0  0  0  0  0  0
   -3.0185   -0.2190    0.0000 C   0  0  0  0  0  0  0  0  0  0  0  0
   -3.6687    0.8823    0.0000 C   0  0  0  0  0  0  0  0  0  0  0  0
   -3.7218   -0.5771    0.0000 C   0  0  0  0  0  0  0  0  0  0  0  0
   -4.5046    0.8957    0.0000 C   0  0  0  0  0  0  0  0  0  0  0  0
   -4.5577   -0.5771    0.0000 C   0  0  0  0  0  0  0  0  0  0  0  0
   -5.1813    0.4976    0.0000 C   0  0  0  0  0  0  0  0  0  0  0  0
   -5.2742   -0.1924    0.0000 C   0  0  0  0  0  0  0  0  0  0  0  0
   -5.7386    0.8823    0.0000 C   0  0  0  0  0  0  0  0  0  0  0  0
   -5.8049   -0.5771    0.0000 C   0  0  0  0  0  0  0  0  0  0  0  0
   -6.5745    0.8957    0.0000 C   0  0  0  0  0  0  0  0  0  0  0  0
   -6.6408   -0.5771    0.0000 C   0  0  0  0  0  0  0  0  0  0  0  0
   -7.1053    0.4976    0.0000 C   0  0  0  0  0  0  0  0  0  0  0  0
   -7.1848   -0.2057    0.0000 C   0  0  0  0  0  0  0  0  0  0  0  0
   -7.8350    0.8823    0.0000 C   0  0  0  0  0  0  0  0  0  0  0  0
   -7.8482   -0.5771    0.0000 C   0  0  0  0  0  0  0  0  0  0  0  0
   -8.4984    0.4976    0.0000 C   0  0  0  0  0  0  0  0  0  0  0  0
   -8.6046   -0.2057    0.0000 C   0  0  0  0  0  0  0  0  0  0  0  0
   -9.2414    0.8823    0.0000 C   0  0  0  0  0  0  0  0  0  0  0  0
   -9.2680   -0.5771    0.0000 C   0  0  0  0  0  0  0  0  0  0  0  0
   -9.9712    0.4976    0.0000 C   0  0  0  0  0  0  0  0  0  0  0  0
  -10.0243   -0.1924    0.0000 C   0  0  0  0  0  0  0  0  0  0  0  0
  1  4  1  0  0  0  0
  1  8  2  0  0  0  0
  2  5  1  0  0  0  0
  2  8  1  0  0  0  0
  3  7  1  0  0  0  0
  3 10  1  0  0  0  0
  4  5  2  0  0  0  0
  4  6  1  0  0  0  0
  6  9  1  0  0  0  0
  7 11  1  0  0  0  0
  7 12  1  0  0  0  0
  9 10  1  0  0  0  0
 11 13  1  0  0  0  0
 12 14  1  0  0  0  0
 13 15  1  0  0  0  0
 14 16  1  0  0  0  0
 15 17  1  0  0  0  0
 16 18  1  0  0  0  0
 17 19  1  0  0  0  0
 18 20  1  0  0  0  0
 19 21  1  0  0  0  0
 20 22  1  0  0  0  0
 21 24  1  0  0  0  0
 22 23  1  0  0  0  0
 23 25  1  0  0  0  0
 24 26  1  0  0  0  0
 25 27  1  0  0  0  0
 26 28  1  0  0  0  0
 27 29  2  0  0  0  0
 28 30  2  0  0  0  0
 29 31  1  0  0  0  0
 30 32  1  0  0  0  0
 31 33  1  0  0  0  0
 32 34  1  0  0  0  0
 33 35  2  0  0  0  0
 34 36  2  0  0  0  0
 35 37  1  0  0  0  0
 36 38  1  0  0  0  0
 37 39  1  0  0  0  0
 38 40  1  0  0  0  0
 39 41  1  0  0  0  0
 40 42  1  0  0  0  0
 41 43  1  0  0  0  0
 42 44  1  0  0  0  0
 43 45  1  0  0  0  0
 44 46  1  0  0  0  0
M  END
> <PUBCHEM_COMPOUND_ID_TYPE>
0

> <PUBCHEM_TOTAL_CHARGE>
0

> <PUBCHEM_SUBSTANCE_ID>
310949833

> <PUBCHEM_SUBSTANCE_VERSION>
1

> <PUBCHEM_EXT_DATASOURCE_NAME>
4488

> <PUBCHEM_EXT_DATASOURCE_REGID>
SCHEMBL16128035

> <PUBCHEM_SUBSTANCE_COMMENT>
InChI=1S/C43H77N3/c1-3-5-7-9-11-13-15-17-19-21-23-25-27-29-31-33-36-42(45-39-35-38-43-40-44-41-46-43)37-34-32-30-28-26-24-22-20-18-16-14-12-10-8-6-4-2/h11-14,17-20,40-42,45H,3-10,15-16,21-39H2,1-2H3,(H,44,46)/b13-11-,14-12-,19-17-,20-18-
InChIKey=LSACIKIXWQPENW-MAZCIEHSSA-N

> <PUBCHEM_SUBSTANCE_SYNONYM>
SCHEMBL16128035

> <PUBCHEM_XREF_EXT_ID>
SCHEMBL16128035

> <PUBCHEM_EXT_DATASOURCE_URL>
https://www.surechembl.org/

> <PUBCHEM_EXT_SUBSTANCE_URL>
https://www.surechembl.org/chemical/SCHEMBL16128035

> <PUBCHEM_CID_ASSOCIATIONS>
71554451  1

> <PUBCHEM_COORDINATE_TYPE>
1
3

$$$$
