310947464
  -OEChem-07211613022D

 23 24  0     0  0  0  0  0  0999 V2000
   -3.0508    6.8099    0.0000 O   0  0  0  0  0  0  0  0  0  0  0  0
    0.6320    3.5100    0.0000 O   0  0  0  0  0  0  0  0  0  0  0  0
   -0.6055    2.7956    0.0000 O   0  0  0  0  0  0  0  0  0  0  0  0
   -3.7652    5.5725    0.0000 N   0  0  0  0  0  0  0  0  0  0  0  0
   -3.0508    5.9849    0.0000 C   0  0  0  0  0  0  0  0  0  0  0  0
   -2.3363    5.5725    0.0000 C   0  0  0  0  0  0  0  0  0  0  0  0
   -3.7652    4.7475    0.0000 C   0  0  0  0  0  0  0  0  0  0  0  0
   -2.3363    4.7475    0.0000 C   0  0  0  0  0  0  0  0  0  0  0  0
   -1.6219    5.9849    0.0000 C   0  0  0  0  0  0  0  0  0  0  0  0
   -0.9074    4.7475    0.0000 C   0  0  0  0  0  0  0  0  0  0  0  0
   -4.4796    5.9849    0.0000 C   0  0  0  0  0  0  0  0  0  0  0  0
   -1.6219    4.3349    0.0000 C   0  0  0  0  0  0  0  0  0  0  0  0
   -0.9074    5.5725    0.0000 C   0  0  0  0  0  0  0  0  0  0  0  0
   -4.4796    4.3349    0.0000 C   0  0  0  0  0  0  0  0  0  0  0  0
   -3.0508    4.3349    0.0000 C   0  0  0  0  0  0  0  0  0  0  0  0
   -0.1930    4.3349    0.0000 C   0  0  0  0  0  0  0  0  0  0  0  0
   -4.4796    3.5100    0.0000 C   0  0  0  0  0  0  0  0  0  0  0  0
   -3.0508    3.5100    0.0000 C   0  0  0  0  0  0  0  0  0  0  0  0
   -0.1930    3.5100    0.0000 C   0  0  0  0  0  0  0  0  0  0  0  0
   -4.4796    6.8099    0.0000 C   0  0  0  0  0  0  0  0  0  0  0  0
   -3.7652    3.0975    0.0000 C   0  0  0  0  0  0  0  0  0  0  0  0
   -5.1941    7.2224    0.0000 C   0  0  0  0  0  0  0  0  0  0  0  0
    1.1034    4.3265    0.0000 C   0  0  0  0  0  0  0  0  0  0  0  0
  1  5  2  0  0  0  0
  2 19  1  0  0  0  0
  2 23  1  0  0  0  0
  3 19  2  0  0  0  0
  4  5  1  0  0  0  0
  4  7  1  0  0  0  0
  4 11  1  0  0  0  0
  5  6  1  0  0  0  0
  6  8  2  0  0  0  0
  6  9  1  0  0  0  0
  7 14  2  0  0  0  0
  7 15  1  0  0  0  0
  8 12  1  0  0  0  0
  9 13  2  0  0  0  0
 10 12  2  0  0  0  0
 10 13  1  0  0  0  0
 10 16  1  0  0  0  0
 11 20  1  0  0  0  0
 14 17  1  0  0  0  0
 15 18  2  0  0  0  0
 16 19  1  0  0  0  0
 17 21  2  0  0  0  0
 18 21  1  0  0  0  0
 20 22  1  0  0  0  0
M  END
> <PUBCHEM_COMPOUND_ID_TYPE>
0

> <PUBCHEM_TOTAL_CHARGE>
0

> <PUBCHEM_SUBSTANCE_ID>
310947464

> <PUBCHEM_SUBSTANCE_VERSION>
1

> <PUBCHEM_EXT_DATASOURCE_NAME>
4488

> <PUBCHEM_EXT_DATASOURCE_REGID>
SCHEMBL16125625

> <PUBCHEM_SUBSTANCE_COMMENT>
InChI=1S/C19H21NO3/c1-3-13-20(17-7-5-4-6-8-17)19(22)16-11-9-15(10-12-16)14-18(21)23-2/h4-12H,3,13-14H2,1-2H3
InChIKey=GUHMUZZEAIQSCC-UHFFFAOYSA-N

> <PUBCHEM_SUBSTANCE_SYNONYM>
SCHEMBL16125625

> <PUBCHEM_XREF_EXT_ID>
SCHEMBL16125625

> <PUBCHEM_EXT_DATASOURCE_URL>
https://www.surechembl.org/

> <PUBCHEM_EXT_SUBSTANCE_URL>
https://www.surechembl.org/chemical/SCHEMBL16125625

> <PUBCHEM_CID_ASSOCIATIONS>
117613195  1

> <PUBCHEM_COORDINATE_TYPE>
1
3

$$$$
