310947891
  -OEChem-07211613022D

 24 27  0     0  0  0  0  0  0999 V2000
   -0.7621    0.9149    0.0000 N   0  0  0  0  0  0  0  0  0  0  0  0
    1.2643    1.8414    0.0000 N   0  0  0  0  0  0  0  0  0  0  0  0
    0.6668   -1.5601    0.0000 N   0  0  0  0  0  0  0  0  0  0  0  0
    2.0957   -2.3851    0.0000 N   0  0  0  0  0  0  0  0  0  0  0  0
   -0.0947    1.3999    0.0000 C   0  0  0  0  0  0  0  0  0  0  0  0
   -0.3496    2.1845    0.0000 C   0  0  0  0  0  0  0  0  0  0  0  0
   -1.4296    1.3999    0.0000 C   0  0  0  0  0  0  0  0  0  0  0  0
   -1.1746    2.1845    0.0000 C   0  0  0  0  0  0  0  0  0  0  0  0
    0.7123    1.2283    0.0000 C   0  0  0  0  0  0  0  0  0  0  0  0
   -2.2366    1.2283    0.0000 C   0  0  0  0  0  0  0  0  0  0  0  0
    0.2024    2.7976    0.0000 C   0  0  0  0  0  0  0  0  0  0  0  0
   -1.7267    2.7976    0.0000 C   0  0  0  0  0  0  0  0  0  0  0  0
   -0.7621    0.0899    0.0000 C   0  0  0  0  0  0  0  0  0  0  0  0
   -2.7886    1.8414    0.0000 C   0  0  0  0  0  0  0  0  0  0  0  0
   -2.5336    2.6260    0.0000 C   0  0  0  0  0  0  0  0  0  0  0  0
    1.0094    2.6260    0.0000 C   0  0  0  0  0  0  0  0  0  0  0  0
    0.9258    0.4314    0.0000 C   0  0  0  0  0  0  0  0  0  0  0  0
   -0.0477   -0.3226    0.0000 C   0  0  0  0  0  0  0  0  0  0  0  0
   -3.5855    1.6279    0.0000 C   0  0  0  0  0  0  0  0  0  0  0  0
   -0.0477   -1.1476    0.0000 C   0  0  0  0  0  0  0  0  0  0  0  0
    0.6668   -2.3851    0.0000 C   0  0  0  0  0  0  0  0  0  0  0  0
    1.3813   -1.1476    0.0000 C   0  0  0  0  0  0  0  0  0  0  0  0
    1.3813   -2.7976    0.0000 C   0  0  0  0  0  0  0  0  0  0  0  0
    2.0957   -1.5601    0.0000 C   0  0  0  0  0  0  0  0  0  0  0  0
  1  5  1  0  0  0  0
  1  7  1  0  0  0  0
  1 13  1  0  0  0  0
  2  9  2  0  0  0  0
  2 16  1  0  0  0  0
  3 20  1  0  0  0  0
  3 21  1  0  0  0  0
  3 22  1  0  0  0  0
  4 23  1  0  0  0  0
  4 24  1  0  0  0  0
  5  6  2  0  0  0  0
  5  9  1  0  0  0  0
  6  8  1  0  0  0  0
  6 11  1  0  0  0  0
  7  8  1  0  0  0  0
  7 10  2  0  0  0  0
  8 12  2  0  0  0  0
  9 17  1  0  0  0  0
 10 14  1  0  0  0  0
 11 16  2  0  0  0  0
 12 15  1  0  0  0  0
 13 18  1  0  0  0  0
 14 15  2  0  0  0  0
 14 19  1  0  0  0  0
 18 20  1  0  0  0  0
 21 23  1  0  0  0  0
 22 24  1  0  0  0  0
M  END
> <PUBCHEM_COMPOUND_ID_TYPE>
0

> <PUBCHEM_TOTAL_CHARGE>
0

> <PUBCHEM_SUBSTANCE_ID>
310947891

> <PUBCHEM_SUBSTANCE_VERSION>
1

> <PUBCHEM_EXT_DATASOURCE_NAME>
4488

> <PUBCHEM_EXT_DATASOURCE_REGID>
SCHEMBL16126065

> <PUBCHEM_SUBSTANCE_COMMENT>
InChI=1S/C20H26N4/c1-15-4-5-17-18-6-7-22-16(2)20(18)24(19(17)14-15)11-3-10-23-12-8-21-9-13-23/h4-7,14,21H,3,8-13H2,1-2H3
InChIKey=YWYFEYAMANHCHL-UHFFFAOYSA-N

> <PUBCHEM_SUBSTANCE_SYNONYM>
SCHEMBL16126065

> <PUBCHEM_XREF_EXT_ID>
SCHEMBL16126065

> <PUBCHEM_EXT_DATASOURCE_URL>
https://www.surechembl.org/

> <PUBCHEM_EXT_SUBSTANCE_URL>
https://www.surechembl.org/chemical/SCHEMBL16126065

> <PUBCHEM_CID_ASSOCIATIONS>
117613555  1

> <PUBCHEM_COORDINATE_TYPE>
1
3

$$$$
