310930028
  -OEChem-07211613022D

 36 40  0     1  0  0  0  0  0999 V2000
   -3.3014   -2.6767    0.0000 O   0  0  0  0  0  0  0  0  0  0  0  0
   -3.9296   -0.6188    0.0000 O   0  0  0  0  0  0  0  0  0  0  0  0
   -4.1083   -2.8483    0.0000 O   0  0  0  0  0  0  0  0  0  0  0  0
   -4.6440    0.6188    0.0000 O   0  0  0  0  0  0  0  0  0  0  0  0
    2.3680    1.5653    0.0000 N   0  0  0  0  0  0  0  0  0  0  0  0
    0.3572   -0.6188    0.0000 C   0  0  3  0  0  0  0  0  0  0  0  0
    0.3572    0.2063    0.0000 C   0  0  3  0  0  0  0  0  0  0  0  0
   -0.3572   -1.0313    0.0000 C   0  0  3  0  0  0  0  0  0  0  0  0
    1.1419    0.4612    0.0000 C   0  0  3  0  0  0  0  0  0  0  0  0
   -1.0717   -0.6188    0.0000 C   0  0  0  0  0  0  0  0  0  0  0  0
    1.1419   -0.8737    0.0000 C   0  0  0  0  0  0  0  0  0  0  0  0
   -0.3572    0.6188    0.0000 C   0  0  0  0  0  0  0  0  0  0  0  0
   -1.7862   -1.0313    0.0000 C   0  0  0  0  0  0  0  0  0  0  0  0
    1.6268   -0.2063    0.0000 C   0  0  0  0  0  0  0  0  0  0  0  0
   -0.3572   -1.8563    0.0000 C   0  0  0  0  0  0  0  0  0  0  0  0
   -1.0717    0.2063    0.0000 C   0  0  0  0  0  0  0  0  0  0  0  0
   -1.7862   -1.8563    0.0000 C   0  0  0  0  0  0  0  0  0  0  0  0
    0.3572    1.0313    0.0000 C   0  0  0  0  0  0  0  0  0  0  0  0
    1.7550    1.0132    0.0000 C   0  0  0  0  0  0  0  0  0  0  0  0
    0.9703    1.2681    0.0000 C   0  0  0  0  0  0  0  0  0  0  0  0
   -3.2151   -1.8563    0.0000 C   0  0  3  0  0  0  0  0  0  0  0  0
   -1.0717   -2.2688    0.0000 C   0  0  0  0  0  0  0  0  0  0  0  0
   -2.5006   -0.6188    0.0000 C   0  0  0  0  0  0  0  0  0  0  0  0
   -3.2151   -1.0313    0.0000 C   0  0  3  0  0  0  0  0  0  0  0  0
   -2.5006   -2.2688    0.0000 C   0  0  0  0  0  0  0  0  0  0  0  0
   -3.9688   -1.5207    0.0000 C   0  0  0  0  0  0  0  0  0  0  0  0
    0.1857    1.5231    0.0000 C   0  0  0  0  0  0  0  0  0  0  0  0
   -4.5208   -2.1338    0.0000 C   0  0  0  0  0  0  0  0  0  0  0  0
   -3.9296    0.2063    0.0000 C   0  0  3  0  0  0  0  0  0  0  0  0
   -3.2151    0.6188    0.0000 C   0  0  0  0  0  0  0  0  0  0  0  0
   -4.6440    1.4438    0.0000 C   0  0  0  0  0  0  0  0  0  0  0  0
   -5.3586    1.8563    0.0000 C   0  0  0  0  0  0  0  0  0  0  0  0
   -6.0730    1.4438    0.0000 C   0  0  0  0  0  0  0  0  0  0  0  0
   -5.3586    2.6812    0.0000 C   0  0  0  0  0  0  0  0  0  0  0  0
    0.3572   -1.4438    0.0000 H   0  0  0  0  0  0  0  0  0  0  0  0
   -0.3572   -0.2063    0.0000 H   0  0  0  0  0  0  0  0  0  0  0  0
  1  3  1  0  0  0  0
  1 21  1  0  0  0  0
  2 24  1  0  0  0  0
  2 29  1  0  0  0  0
  3 28  1  0  0  0  0
  4 29  1  0  0  0  0
  4 31  1  0  0  0  0
  5 19  3  0  0  0  0
  6  7  1  0  0  0  0
  6  8  1  0  0  0  0
  6 11  1  0  0  0  0
  6 35  1  6  0  0  0
  7  9  1  0  0  0  0
  7 12  1  0  0  0  0
  7 18  1  1  0  0  0
  8 10  1  0  0  0  0
  8 15  1  0  0  0  0
  8 36  1  1  0  0  0
  9 14  1  0  0  0  0
  9 19  1  1  0  0  0
  9 20  1  6  0  0  0
 10 13  1  0  0  0  0
 10 16  2  0  0  0  0
 11 14  1  0  0  0  0
 12 16  1  0  0  0  0
 13 17  2  0  0  0  0
 13 23  1  0  0  0  0
 15 22  1  0  0  0  0
 17 22  1  0  0  0  0
 17 25  1  0  0  0  0
 20 27  1  0  0  0  0
 21 24  1  0  0  0  0
 21 25  1  0  0  0  0
 21 26  1  0  0  0  0
 23 24  1  0  0  0  0
 26 28  1  0  0  0  0
 29 30  1  0  0  0  0
 31 32  1  0  0  0  0
 32 33  1  0  0  0  0
 32 34  1  0  0  0  0
M  END
> <PUBCHEM_COMPOUND_ID_TYPE>
0

> <PUBCHEM_TOTAL_CHARGE>
0

> <PUBCHEM_SUBSTANCE_ID>
310930028

> <PUBCHEM_SUBSTANCE_VERSION>
1

> <PUBCHEM_EXT_DATASOURCE_NAME>
4488

> <PUBCHEM_EXT_DATASOURCE_REGID>
SCHEMBL16107267

> <PUBCHEM_SUBSTANCE_COMMENT>
InChI=1S/C29H43NO4/c1-6-28(18-30)12-10-25-23-8-7-21-16-29(13-14-32-34-29)26(33-20(4)31-17-19(2)3)15-24(21)22(23)9-11-27(25,28)5/h9,19-20,23,25-26H,6-8,10-17H2,1-5H3/t20?,23-,25+,26?,27+,28-,29?/m1/s1
InChIKey=PCWVWRAPDBJAJF-NWGZZKISSA-N

> <PUBCHEM_SUBSTANCE_SYNONYM>
SCHEMBL16107267

> <PUBCHEM_XREF_EXT_ID>
SCHEMBL16107267

> <PUBCHEM_EXT_DATASOURCE_URL>
https://www.surechembl.org/

> <PUBCHEM_EXT_SUBSTANCE_URL>
https://www.surechembl.org/chemical/SCHEMBL16107267

> <PUBCHEM_CID_ASSOCIATIONS>
117599274  1

> <PUBCHEM_COORDINATE_TYPE>
1
3

> <PUBCHEM_BONDANNOTATIONS>
6  35  6
7  18  5
8  36  5
9  19  5
9  20  6

$$$$
