310933542
  -OEChem-07211613022D

 45 51  0     1  0  0  0  0  0999 V2000
   -6.0599   -1.8524    0.0000 Cl  0  0  0  0  0  0  0  0  0  0  0  0
   -4.4190   -2.0249    0.0000 F   0  0  0  0  0  0  0  0  0  0  0  0
   -2.2296   -1.2330    0.0000 O   0  0  0  0  0  0  0  0  0  0  0  0
   -1.4289    0.8250    0.0000 O   0  0  0  0  0  0  0  0  0  0  0  0
   -0.7145    1.2375    0.0000 O   0  0  0  0  0  0  0  0  0  0  0  0
   -0.7145   -0.4125    0.0000 N   0  0  0  0  0  0  0  0  0  0  0  0
    0.7145    1.2375    0.0000 N   0  0  0  0  0  0  0  0  0  0  0  0
   -3.0366   -1.4045    0.0000 N   0  0  0  0  0  0  0  0  0  0  0  0
    0.7145   -3.7125    0.0000 N   0  0  0  0  0  0  0  0  0  0  0  0
    2.1434   -3.7125    0.0000 N   0  0  0  0  0  0  0  0  0  0  0  0
    0.0470    5.0224    0.0000 N   0  0  0  0  0  0  0  0  0  0  0  0
    1.3819    5.0224    0.0000 N   0  0  0  0  0  0  0  0  0  0  0  0
    0.0000    0.0000    0.0000 C   0  0  3  0  0  0  0  0  0  0  0  0
    0.7145   -0.4125    0.0000 C   0  0  0  0  0  0  0  0  0  0  0  0
    0.7145   -1.2375    0.0000 C   0  0  0  0  0  0  0  0  0  0  0  0
   -1.4289   -0.0000    0.0000 C   0  0  0  0  0  0  0  0  0  0  0  0
    1.4289   -1.6500    0.0000 C   0  0  0  0  0  0  0  0  0  0  0  0
    0.0000    0.8250    0.0000 C   0  0  0  0  0  0  0  0  0  0  0  0
   -2.1434   -0.4125    0.0000 C   0  0  3  0  0  0  0  0  0  0  0  0
   -0.7145   -1.2375    0.0000 C   0  0  0  0  0  0  0  0  0  0  0  0
    0.0000   -1.6500    0.0000 C   0  0  0  0  0  0  0  0  0  0  0  0
    1.4289    0.0000    0.0000 C   0  0  0  0  0  0  0  0  0  0  0  0
    1.4289   -2.4750    0.0000 C   0  0  0  0  0  0  0  0  0  0  0  0
   -3.4491   -0.6900    0.0000 C   0  0  0  0  0  0  0  0  0  0  0  0
    2.1434   -1.2375    0.0000 C   0  0  0  0  0  0  0  0  0  0  0  0
   -2.8971   -0.0769    0.0000 C   0  0  0  0  0  0  0  0  0  0  0  0
   -4.2696   -0.6038    0.0000 C   0  0  0  0  0  0  0  0  0  0  0  0
    2.1434   -0.4125    0.0000 C   0  0  0  0  0  0  0  0  0  0  0  0
   -4.7545   -1.2712    0.0000 C   0  0  0  0  0  0  0  0  0  0  0  0
    0.7145    2.0625    0.0000 C   0  0  0  0  0  0  0  0  0  0  0  0
    0.7145   -2.8875    0.0000 C   0  0  0  0  0  0  0  0  0  0  0  0
    2.1434   -2.8875    0.0000 C   0  0  0  0  0  0  0  0  0  0  0  0
   -4.6052    0.1499    0.0000 C   0  0  0  0  0  0  0  0  0  0  0  0
   -5.5750   -1.1850    0.0000 C   0  0  0  0  0  0  0  0  0  0  0  0
   -0.0000    2.4750    0.0000 C   0  0  0  0  0  0  0  0  0  0  0  0
    1.4289    2.4750    0.0000 C   0  0  0  0  0  0  0  0  0  0  0  0
    0.7145    3.7125    0.0000 C   0  0  0  0  0  0  0  0  0  0  0  0
   -5.4256    0.2361    0.0000 C   0  0  0  0  0  0  0  0  0  0  0  0
   -5.9106   -0.4313    0.0000 C   0  0  0  0  0  0  0  0  0  0  0  0
   -0.0000    3.3000    0.0000 C   0  0  0  0  0  0  0  0  0  0  0  0
    1.4289    3.3000    0.0000 C   0  0  0  0  0  0  0  0  0  0  0  0
    0.7145    4.5375    0.0000 C   0  0  0  0  0  0  0  0  0  0  0  0
    1.4289   -4.1250    0.0000 C   0  0  0  0  0  0  0  0  0  0  0  0
    0.3020    5.8070    0.0000 C   0  0  0  0  0  0  0  0  0  0  0  0
    1.1270    5.8070    0.0000 C   0  0  0  0  0  0  0  0  0  0  0  0
  1 34  1  0  0  0  0
  2 29  1  0  0  0  0
  3  8  1  0  0  0  0
  3 19  1  0  0  0  0
  4 16  2  0  0  0  0
  5 18  2  0  0  0  0
  6 13  1  0  0  0  0
  6 16  1  0  0  0  0
  6 20  1  0  0  0  0
  7 18  1  0  0  0  0
  7 30  1  0  0  0  0
  8 24  2  0  0  0  0
  9 31  2  0  0  0  0
  9 43  1  0  0  0  0
 10 32  1  0  0  0  0
 10 43  2  0  0  0  0
 11 42  2  0  0  0  0
 11 44  1  0  0  0  0
 12 42  1  0  0  0  0
 12 45  1  0  0  0  0
 13 14  1  0  0  0  0
 13 18  1  1  0  0  0
 14 15  2  0  0  0  0
 14 22  1  0  0  0  0
 15 17  1  0  0  0  0
 15 21  1  0  0  0  0
 16 19  1  0  0  0  0
 17 23  1  0  0  0  0
 17 25  2  0  0  0  0
 19 26  1  0  0  0  0
 20 21  1  0  0  0  0
 22 28  2  0  0  0  0
 23 31  1  0  0  0  0
 23 32  2  0  0  0  0
 24 26  1  0  0  0  0
 24 27  1  0  0  0  0
 25 28  1  0  0  0  0
 27 29  2  0  0  0  0
 27 33  1  0  0  0  0
 29 34  1  0  0  0  0
 30 35  2  0  0  0  0
 30 36  1  0  0  0  0
 33 38  2  0  0  0  0
 34 39  2  0  0  0  0
 35 40  1  0  0  0  0
 36 41  2  0  0  0  0
 37 40  2  0  0  0  0
 37 41  1  0  0  0  0
 37 42  1  0  0  0  0
 38 39  1  0  0  0  0
 44 45  2  0  0  0  0
M  END
> <PUBCHEM_COMPOUND_ID_TYPE>
0

> <PUBCHEM_TOTAL_CHARGE>
0

> <PUBCHEM_SUBSTANCE_ID>
310933542

> <PUBCHEM_SUBSTANCE_VERSION>
1

> <PUBCHEM_EXT_DATASOURCE_NAME>
4488

> <PUBCHEM_EXT_DATASOURCE_REGID>
SCHEMBL16110965

> <PUBCHEM_SUBSTANCE_COMMENT>
InChI=1S/C33H25ClFN7O3/c34-26-6-2-5-25(29(26)35)27-15-28(45-41-27)33(44)42-14-11-23-22(20-16-36-18-37-17-20)3-1-4-24(23)30(42)32(43)40-21-9-7-19(8-10-21)31-38-12-13-39-31/h1-10,12-13,16-18,28,30H,11,14-15H2,(H,38,39)(H,40,43)/t28?,30-/m1/s1
InChIKey=YKOLINSURWXMBE-FUJFQHJFSA-N

> <PUBCHEM_SUBSTANCE_SYNONYM>
SCHEMBL16110965

> <PUBCHEM_XREF_EXT_ID>
SCHEMBL16110965

> <PUBCHEM_EXT_DATASOURCE_URL>
https://www.surechembl.org/

> <PUBCHEM_EXT_SUBSTANCE_URL>
https://www.surechembl.org/chemical/SCHEMBL16110965

> <PUBCHEM_CID_ASSOCIATIONS>
117601930  1

> <PUBCHEM_COORDINATE_TYPE>
1
3

> <PUBCHEM_BONDANNOTATIONS>
13  18  5

$$$$
