310949303
  -OEChem-07211613022D

 30 35  0     0  0  0  0  0  0999 V2000
    1.9345    0.6375    0.0000 O   0  0  0  0  0  0  0  0  0  0  0  0
   -0.8500   -0.3884    0.0000 N   0  0  0  0  0  0  0  0  0  0  0  0
    1.3190   -1.0772    0.0000 N   0  0  0  0  0  0  0  0  0  0  0  0
   -3.0044   -1.0332    0.0000 N   0  0  0  0  0  0  0  0  0  0  0  0
   -0.2638    0.2418    0.0000 C   0  0  0  0  0  0  0  0  0  0  0  0
   -0.5129    1.0039    0.0000 C   0  0  0  0  0  0  0  0  0  0  0  0
   -1.6414    0.2418    0.0000 C   0  0  0  0  0  0  0  0  0  0  0  0
   -1.3483    1.0332    0.0000 C   0  0  0  0  0  0  0  0  0  0  0  0
    0.8500    1.4435    0.0000 C   0  0  0  0  0  0  0  0  0  0  0  0
    1.1138    0.6815    0.0000 C   0  0  0  0  0  0  0  0  0  0  0  0
   -0.8647   -1.3996    0.0000 C   0  0  0  0  0  0  0  0  0  0  0  0
    0.0440    1.6194    0.0000 C   0  0  0  0  0  0  0  0  0  0  0  0
    0.5423    0.0513    0.0000 C   0  0  0  0  0  0  0  0  0  0  0  0
    1.4948    1.9272    0.0000 C   0  0  0  0  0  0  0  0  0  0  0  0
    2.1983    1.4582    0.0000 C   0  0  0  0  0  0  0  0  0  0  0  0
   -0.1319   -1.8246    0.0000 C   0  0  0  0  0  0  0  0  0  0  0  0
   -1.5828   -1.8246    0.0000 C   0  0  0  0  0  0  0  0  0  0  0  0
   -2.4328    0.0806    0.0000 C   0  0  0  0  0  0  0  0  0  0  0  0
   -1.9199    1.6194    0.0000 C   0  0  0  0  0  0  0  0  0  0  0  0
    1.6268    2.7332    0.0000 C   0  0  0  0  0  0  0  0  0  0  0  0
   -2.9604    0.6668    0.0000 C   0  0  0  0  0  0  0  0  0  0  0  0
   -2.7259    1.4435    0.0000 C   0  0  0  0  0  0  0  0  0  0  0  0
    2.9165    1.7660    0.0000 C   0  0  0  0  0  0  0  0  0  0  0  0
   -0.1465   -2.6746    0.0000 C   0  0  0  0  0  0  0  0  0  0  0  0
   -1.5682   -2.6600    0.0000 C   0  0  0  0  0  0  0  0  0  0  0  0
    0.5862   -1.4289    0.0000 C   0  0  0  0  0  0  0  0  0  0  0  0
   -2.3009   -1.4142    0.0000 C   0  0  0  0  0  0  0  0  0  0  0  0
   -0.8353   -3.0703    0.0000 C   0  0  0  0  0  0  0  0  0  0  0  0
    2.3595    3.0703    0.0000 C   0  0  0  0  0  0  0  0  0  0  0  0
    3.0044    2.5867    0.0000 C   0  0  0  0  0  0  0  0  0  0  0  0
  1 10  1  0  0  0  0
  1 15  1  0  0  0  0
  2  5  1  0  0  0  0
  2  7  1  0  0  0  0
  2 11  1  0  0  0  0
  3 26  3  0  0  0  0
  4 27  3  0  0  0  0
  5  6  2  0  0  0  0
  5 13  1  0  0  0  0
  6  8  1  0  0  0  0
  6 12  1  0  0  0  0
  7  8  2  0  0  0  0
  7 18  1  0  0  0  0
  8 19  1  0  0  0  0
  9 10  1  0  0  0  0
  9 12  2  0  0  0  0
  9 14  1  0  0  0  0
 10 13  2  0  0  0  0
 11 16  2  0  0  0  0
 11 17  1  0  0  0  0
 14 15  2  0  0  0  0
 14 20  1  0  0  0  0
 15 23  1  0  0  0  0
 16 24  1  0  0  0  0
 16 26  1  0  0  0  0
 17 25  2  0  0  0  0
 17 27  1  0  0  0  0
 18 21  2  0  0  0  0
 19 22  2  0  0  0  0
 20 29  2  0  0  0  0
 21 22  1  0  0  0  0
 23 30  2  0  0  0  0
 24 28  2  0  0  0  0
 25 28  1  0  0  0  0
 29 30  1  0  0  0  0
M  END
> <PUBCHEM_COMPOUND_ID_TYPE>
0

> <PUBCHEM_TOTAL_CHARGE>
0

> <PUBCHEM_SUBSTANCE_ID>
310949303

> <PUBCHEM_SUBSTANCE_VERSION>
1

> <PUBCHEM_EXT_DATASOURCE_NAME>
4488

> <PUBCHEM_EXT_DATASOURCE_REGID>
SCHEMBL16127493

> <PUBCHEM_SUBSTANCE_COMMENT>
InChI=1S/C26H13N3O/c27-14-16-6-5-7-17(15-28)26(16)29-22-10-3-1-8-18(22)20-12-21-19-9-2-4-11-24(19)30-25(21)13-23(20)29/h1-13H
InChIKey=LQGUQFMJYQVBKT-UHFFFAOYSA-N

> <PUBCHEM_SUBSTANCE_SYNONYM>
SCHEMBL16127493

> <PUBCHEM_XREF_EXT_ID>
SCHEMBL16127493

> <PUBCHEM_EXT_DATASOURCE_URL>
https://www.surechembl.org/

> <PUBCHEM_EXT_SUBSTANCE_URL>
https://www.surechembl.org/chemical/SCHEMBL16127493

> <PUBCHEM_CID_ASSOCIATIONS>
117614787  1

> <PUBCHEM_COORDINATE_TYPE>
1
3

$$$$
