310935887
  -OEChem-07211613022D

 29 31  0     0  0  0  0  0  0999 V2000
    7.5550   -4.2941    0.0000 Cl  0  0  0  0  0  0  0  0  0  0  0  0
    7.1999   -0.7103    0.0000 F   0  0  0  0  0  0  0  0  0  0  0  0
    5.9730    0.0000    0.0000 F   0  0  0  0  0  0  0  0  0  0  0  0
    6.7801    0.0000    0.0000 F   0  0  0  0  0  0  0  0  0  0  0  0
    5.1335   -1.4206    0.0000 O   0  0  0  0  0  0  0  0  0  0  0  0
    0.8072   -5.9730    0.0000 O   0  0  0  0  0  0  0  0  0  0  0  0
    0.0000   -4.8107    0.0000 O   0  0  0  0  0  0  0  0  0  0  0  0
    2.6475   -4.2941    0.0000 N   0  0  0  0  0  0  0  0  0  0  0  0
    3.9067   -2.1309    0.0000 N   0  0  0  0  0  0  0  0  0  0  0  0
    2.1632   -4.9399    0.0000 N   0  0  0  0  0  0  0  0  0  0  0  0
    1.3883   -3.8744    0.0000 N   0  0  0  0  0  0  0  0  0  0  0  0
    5.1335   -2.8412    0.0000 C   0  0  0  0  0  0  0  0  0  0  0  0
    4.7138   -2.1309    0.0000 C   0  0  0  0  0  0  0  0  0  0  0  0
    3.9067   -3.5515    0.0000 C   0  0  0  0  0  0  0  0  0  0  0  0
    5.9407   -2.8735    0.0000 C   0  0  0  0  0  0  0  0  0  0  0  0
    4.7138   -3.5515    0.0000 C   0  0  0  0  0  0  0  0  0  0  0  0
    3.4869   -4.2941    0.0000 C   0  0  0  0  0  0  0  0  0  0  0  0
    3.4869   -2.8412    0.0000 C   0  0  0  0  0  0  0  0  0  0  0  0
    1.3883   -4.6816    0.0000 C   0  0  0  0  0  0  0  0  0  0  0  0
    6.3605   -3.5838    0.0000 C   0  0  0  0  0  0  0  0  0  0  0  0
    2.1632   -3.6161    0.0000 C   0  0  0  0  0  0  0  0  0  0  0  0
    6.3927   -2.1632    0.0000 C   0  0  0  0  0  0  0  0  0  0  0  0
    0.7426   -5.1658    0.0000 C   0  0  0  0  0  0  0  0  0  0  0  0
    7.1676   -3.5838    0.0000 C   0  0  0  0  0  0  0  0  0  0  0  0
    5.9730   -1.4206    0.0000 C   0  0  0  0  0  0  0  0  0  0  0  0
    6.3927   -0.7103    0.0000 C   0  0  0  0  0  0  0  0  0  0  0  0
    7.1999   -2.1632    0.0000 C   0  0  0  0  0  0  0  0  0  0  0  0
    7.5873   -2.8735    0.0000 C   0  0  0  0  0  0  0  0  0  0  0  0
    0.1615   -6.4573    0.0000 C   0  0  0  0  0  0  0  0  0  0  0  0
  1 24  1  0  0  0  0
  2 26  1  0  0  0  0
  3 26  1  0  0  0  0
  4 26  1  0  0  0  0
  5 13  1  0  0  0  0
  5 25  1  0  0  0  0
  6 23  1  0  0  0  0
  6 29  1  0  0  0  0
  7 23  2  0  0  0  0
  8 10  1  0  0  0  0
  8 17  1  0  0  0  0
  8 21  1  0  0  0  0
  9 13  2  0  0  0  0
  9 18  1  0  0  0  0
 10 19  2  0  0  0  0
 11 19  1  0  0  0  0
 11 21  2  0  0  0  0
 12 13  1  0  0  0  0
 12 15  1  0  0  0  0
 12 16  2  0  0  0  0
 14 16  1  0  0  0  0
 14 17  1  0  0  0  0
 14 18  2  0  0  0  0
 15 20  1  0  0  0  0
 15 22  2  0  0  0  0
 19 23  1  0  0  0  0
 20 24  2  0  0  0  0
 22 27  1  0  0  0  0
 24 28  1  0  0  0  0
 25 26  1  0  0  0  0
 27 28  2  0  0  0  0
M  END
> <PUBCHEM_COMPOUND_ID_TYPE>
0

> <PUBCHEM_TOTAL_CHARGE>
0

> <PUBCHEM_SUBSTANCE_ID>
310935887

> <PUBCHEM_SUBSTANCE_VERSION>
1

> <PUBCHEM_EXT_DATASOURCE_NAME>
4488

> <PUBCHEM_EXT_DATASOURCE_REGID>
SCHEMBL16113480

> <PUBCHEM_SUBSTANCE_COMMENT>
InChI=1S/C18H14ClF3N4O3/c1-28-17(27)15-24-10-26(25-15)8-11-5-14(12-3-2-4-13(19)6-12)16(23-7-11)29-9-18(20,21)22/h2-7,10H,8-9H2,1H3
InChIKey=NDAPCEVJLJVIBJ-UHFFFAOYSA-N

> <PUBCHEM_SUBSTANCE_SYNONYM>
SCHEMBL16113480

> <PUBCHEM_XREF_EXT_ID>
SCHEMBL16113480

> <PUBCHEM_EXT_DATASOURCE_URL>
https://www.surechembl.org/

> <PUBCHEM_EXT_SUBSTANCE_URL>
https://www.surechembl.org/chemical/SCHEMBL16113480

> <PUBCHEM_CID_ASSOCIATIONS>
117603875  1

> <PUBCHEM_COORDINATE_TYPE>
1
3

$$$$
