310933413
  -OEChem-07211613022D

 21 23  0     0  0  0  0  0  0999 V2000
    3.3339   -2.0964    0.0000 F   0  0  0  0  0  0  0  0  0  0  0  0
    4.6583    0.4361    0.0000 F   0  0  0  0  0  0  0  0  0  0  0  0
    1.1062   -0.1252    0.0000 O   0  0  0  0  0  0  0  0  0  0  0  0
    0.8454   -3.1030    0.0000 O   0  0  0  0  0  0  0  0  0  0  0  0
    2.2050   -2.6634    0.0000 O   0  0  0  0  0  0  0  0  0  0  0  0
    1.7684    1.1410    0.0000 O   0  0  0  0  0  0  0  0  0  0  0  0
    1.1407   -0.9495    0.0000 C   0  0  0  0  0  0  0  0  0  0  0  0
    1.1445   -1.7057    0.0000 C   0  0  0  0  0  0  0  0  0  0  0  0
    0.7366   -0.2235    0.0000 C   0  0  0  0  0  0  0  0  0  0  0  0
    0.6709   -1.5755    0.0000 C   0  0  0  0  0  0  0  0  0  0  0  0
    2.0411   -1.1462    0.0000 C   0  0  0  0  0  0  0  0  0  0  0  0
    0.5275   -2.3166    0.0000 C   0  0  0  0  0  0  0  0  0  0  0  0
    1.9537   -1.8322    0.0000 C   0  0  0  0  0  0  0  0  0  0  0  0
    1.3983   -2.4907    0.0000 C   0  0  0  0  0  0  0  0  0  0  0  0
    1.8029    0.3168    0.0000 C   0  0  0  0  0  0  0  0  0  0  0  0
    2.5339   -0.0655    0.0000 C   0  0  0  0  0  0  0  0  0  0  0  0
    3.2306    0.3764    0.0000 C   0  0  0  0  0  0  0  0  0  0  0  0
    2.5684   -0.8898    0.0000 C   0  0  0  0  0  0  0  0  0  0  0  0
    3.2995   -1.2721    0.0000 C   0  0  0  0  0  0  0  0  0  0  0  0
    3.9616   -0.0059    0.0000 C   0  0  0  0  0  0  0  0  0  0  0  0
    3.9961   -0.8301    0.0000 C   0  0  0  0  0  0  0  0  0  0  0  0
  1 19  1  0  0  0  0
  2 20  1  0  0  0  0
  3  7  1  0  0  0  0
  3 15  1  0  0  0  0
  4 14  2  0  0  0  0
  5 14  1  0  0  0  0
  6 15  2  0  0  0  0
  7  9  1  0  0  0  0
  7 10  1  0  0  0  0
  7 11  1  0  0  0  0
  8  9  1  0  0  0  0
  8 12  1  0  0  0  0
  8 13  1  0  0  0  0
  8 14  1  0  0  0  0
 10 12  1  0  0  0  0
 11 13  1  0  0  0  0
 15 16  1  0  0  0  0
 16 17  2  0  0  0  0
 16 18  1  0  0  0  0
 17 20  1  0  0  0  0
 18 19  2  0  0  0  0
 19 21  1  0  0  0  0
 20 21  2  0  0  0  0
M  END
> <PUBCHEM_COMPOUND_ID_TYPE>
0

> <PUBCHEM_TOTAL_CHARGE>
0

> <PUBCHEM_SUBSTANCE_ID>
310933413

> <PUBCHEM_SUBSTANCE_VERSION>
1

> <PUBCHEM_EXT_DATASOURCE_NAME>
4488

> <PUBCHEM_EXT_DATASOURCE_REGID>
SCHEMBL16110829

> <PUBCHEM_SUBSTANCE_COMMENT>
InChI=1S/C15H14F2O4/c16-10-5-9(6-11(17)7-10)12(18)21-15-3-1-14(8-15,2-4-15)13(19)20/h5-7H,1-4,8H2,(H,19,20)
InChIKey=HYFAQZOJCBTJLF-UHFFFAOYSA-N

> <PUBCHEM_SUBSTANCE_SYNONYM>
SCHEMBL16110829

> <PUBCHEM_XREF_EXT_ID>
SCHEMBL16110829

> <PUBCHEM_EXT_DATASOURCE_URL>
https://www.surechembl.org/

> <PUBCHEM_EXT_SUBSTANCE_URL>
https://www.surechembl.org/chemical/SCHEMBL16110829

> <PUBCHEM_CID_ASSOCIATIONS>
117601820  1

> <PUBCHEM_COORDINATE_TYPE>
1
3

$$$$
