310930859
  -OEChem-07211613022D

 28 31  0     0  0  0  0  0  0999 V2000
    6.4624   -2.1761    0.0000 S   0  0  0  0  0  0  0  0  0  0  0  0
    5.6711   -1.7145    0.0000 O   0  0  0  0  0  0  0  0  0  0  0  0
    7.1548   -2.5718    0.0000 O   0  0  0  0  0  0  0  0  0  0  0  0
    3.9565   -6.4954    0.0000 O   0  0  0  0  0  0  0  0  0  0  0  0
    1.4178   -5.3414    0.0000 N   0  0  0  0  0  0  0  0  0  0  0  0
    2.2091   -6.4294    0.0000 N   0  0  0  0  0  0  0  0  0  0  0  0
    3.9565   -5.0446    0.0000 N   0  0  0  0  0  0  0  0  0  0  0  0
    0.0000   -6.1986    0.0000 N   0  0  0  0  0  0  0  0  0  0  0  0
    6.0337   -2.9015    0.0000 C   0  0  0  0  0  0  0  0  0  0  0  0
    1.4178   -6.1986    0.0000 C   0  0  0  0  0  0  0  0  0  0  0  0
    2.7037   -5.7700    0.0000 C   0  0  0  0  0  0  0  0  0  0  0  0
    6.8910   -1.4507    0.0000 C   0  0  0  0  0  0  0  0  0  0  0  0
    2.2091   -5.1105    0.0000 C   0  0  0  0  0  0  0  0  0  0  0  0
    3.5280   -5.7700    0.0000 C   0  0  0  0  0  0  0  0  0  0  0  0
    5.2095   -2.8685    0.0000 C   0  0  0  0  0  0  0  0  0  0  0  0
    6.4294   -3.6268    0.0000 C   0  0  0  0  0  0  0  0  0  0  0  0
    5.2095   -4.3193    0.0000 C   0  0  0  0  0  0  0  0  0  0  0  0
    0.6594   -6.5943    0.0000 C   0  0  0  0  0  0  0  0  0  0  0  0
    0.6594   -4.9457    0.0000 C   0  0  0  0  0  0  0  0  0  0  0  0
    4.7808   -3.5939    0.0000 C   0  0  0  0  0  0  0  0  0  0  0  0
    6.0337   -4.3193    0.0000 C   0  0  0  0  0  0  0  0  0  0  0  0
    6.4954   -0.7253    0.0000 C   0  0  0  0  0  0  0  0  0  0  0  0
    7.7153   -1.4178    0.0000 C   0  0  0  0  0  0  0  0  0  0  0  0
    4.7808   -5.0446    0.0000 C   0  0  0  0  0  0  0  0  0  0  0  0
    0.0000   -5.3414    0.0000 C   0  0  0  0  0  0  0  0  0  0  0  0
    6.8910    0.0000    0.0000 C   0  0  0  0  0  0  0  0  0  0  0  0
    8.1110   -0.7253    0.0000 C   0  0  0  0  0  0  0  0  0  0  0  0
    7.7483    0.0000    0.0000 C   0  0  0  0  0  0  0  0  0  0  0  0
  1  2  2  0  0  0  0
  1  3  2  0  0  0  0
  1  9  1  0  0  0  0
  1 12  1  0  0  0  0
  4 14  2  0  0  0  0
  5 10  1  0  0  0  0
  5 13  1  0  0  0  0
  5 19  1  0  0  0  0
  6 10  2  0  0  0  0
  6 11  1  0  0  0  0
  7 14  1  0  0  0  0
  7 24  1  0  0  0  0
  8 18  2  0  0  0  0
  8 25  1  0  0  0  0
  9 15  2  0  0  0  0
  9 16  1  0  0  0  0
 10 18  1  0  0  0  0
 11 13  2  0  0  0  0
 11 14  1  0  0  0  0
 12 22  2  0  0  0  0
 12 23  1  0  0  0  0
 15 20  1  0  0  0  0
 16 21  2  0  0  0  0
 17 20  2  0  0  0  0
 17 21  1  0  0  0  0
 17 24  1  0  0  0  0
 19 25  2  0  0  0  0
 22 26  1  0  0  0  0
 23 27  2  0  0  0  0
 26 28  2  0  0  0  0
 27 28  1  0  0  0  0
M  END
> <PUBCHEM_COMPOUND_ID_TYPE>
0

> <PUBCHEM_TOTAL_CHARGE>
0

> <PUBCHEM_SUBSTANCE_ID>
310930859

> <PUBCHEM_SUBSTANCE_VERSION>
1

> <PUBCHEM_EXT_DATASOURCE_NAME>
4488

> <PUBCHEM_EXT_DATASOURCE_REGID>
SCHEMBL16108157

> <PUBCHEM_SUBSTANCE_COMMENT>
InChI=1S/C20H16N4O3S/c25-20(18-14-24-11-10-21-13-19(24)23-18)22-12-15-6-8-17(9-7-15)28(26,27)16-4-2-1-3-5-16/h1-11,13-14H,12H2,(H,22,25)
InChIKey=WGKBQKZIWDZABS-UHFFFAOYSA-N

> <PUBCHEM_SUBSTANCE_SYNONYM>
SCHEMBL16108157

> <PUBCHEM_XREF_EXT_ID>
SCHEMBL16108157

> <PUBCHEM_EXT_DATASOURCE_URL>
https://www.surechembl.org/

> <PUBCHEM_EXT_SUBSTANCE_URL>
https://www.surechembl.org/chemical/SCHEMBL16108157

> <PUBCHEM_CID_ASSOCIATIONS>
68277703  1

> <PUBCHEM_COORDINATE_TYPE>
1
3

$$$$
