310935825
  -OEChem-07211613022D

 25 27  0     0  0  0  0  0  0999 V2000
    3.6931   -4.3128    0.0000 O   0  0  0  0  0  0  0  0  0  0  0  0
    6.2213   -4.3128    0.0000 O   0  0  0  0  0  0  0  0  0  0  0  0
    1.2641   -1.4624    0.0000 N   0  0  0  0  0  0  0  0  0  0  0  0
    2.5034   -3.5939    0.0000 N   0  0  0  0  0  0  0  0  0  0  0  0
    0.7932   -2.1316    0.0000 N   0  0  0  0  0  0  0  0  0  0  0  0
    0.0248   -1.0410    0.0000 N   0  0  0  0  0  0  0  0  0  0  0  0
    0.0000   -1.8590    0.0000 N   0  0  0  0  0  0  0  0  0  0  0  0
    3.7427   -2.9000    0.0000 C   0  0  0  0  0  0  0  0  0  0  0  0
    4.5606   -2.9000    0.0000 C   0  0  0  0  0  0  0  0  0  0  0  0
    3.2966   -3.5939    0.0000 C   0  0  0  0  0  0  0  0  0  0  0  0
    2.5034   -2.1812    0.0000 C   0  0  0  0  0  0  0  0  0  0  0  0
    3.2966   -2.1812    0.0000 C   0  0  0  0  0  0  0  0  0  0  0  0
    2.0820   -1.4624    0.0000 C   0  0  0  0  0  0  0  0  0  0  0  0
    2.0573   -2.9000    0.0000 C   0  0  0  0  0  0  0  0  0  0  0  0
    5.1307   -3.7674    0.0000 C   0  0  0  0  0  0  0  0  0  0  0  0
    0.7932   -0.7932    0.0000 C   0  0  0  0  0  0  0  0  0  0  0  0
    4.9820   -2.1812    0.0000 C   0  0  0  0  0  0  0  0  0  0  0  0
    5.7999   -3.5939    0.0000 C   0  0  0  0  0  0  0  0  0  0  0  0
    5.7999   -2.1812    0.0000 C   0  0  0  0  0  0  0  0  0  0  0  0
    6.2213   -2.9000    0.0000 C   0  0  0  0  0  0  0  0  0  0  0  0
    1.0658    0.0000    0.0000 C   0  0  0  0  0  0  0  0  0  0  0  0
    4.5110   -4.3128    0.0000 C   0  0  0  0  0  0  0  0  0  0  0  0
    7.0392   -4.3128    0.0000 C   0  0  0  0  0  0  0  0  0  0  0  0
    4.9572   -3.6188    0.0000 C   0  0  0  0  0  0  0  0  0  0  0  0
    7.4358   -3.5939    0.0000 C   0  0  0  0  0  0  0  0  0  0  0  0
  1 10  1  0  0  0  0
  1 22  1  0  0  0  0
  2 18  1  0  0  0  0
  2 23  1  0  0  0  0
  3  5  1  0  0  0  0
  3 13  1  0  0  0  0
  3 16  1  0  0  0  0
  4 10  1  0  0  0  0
  4 14  2  0  0  0  0
  5  7  2  0  0  0  0
  6  7  1  0  0  0  0
  6 16  2  0  0  0  0
  8  9  1  0  0  0  0
  8 10  2  0  0  0  0
  8 12  1  0  0  0  0
  9 15  1  0  0  0  0
  9 17  2  0  0  0  0
 11 12  2  0  0  0  0
 11 13  1  0  0  0  0
 11 14  1  0  0  0  0
 15 18  2  0  0  0  0
 16 21  1  0  0  0  0
 17 19  1  0  0  0  0
 18 20  1  0  0  0  0
 19 20  2  0  0  0  0
 22 24  1  0  0  0  0
 23 25  1  0  0  0  0
M  END
> <PUBCHEM_COMPOUND_ID_TYPE>
0

> <PUBCHEM_TOTAL_CHARGE>
0

> <PUBCHEM_SUBSTANCE_ID>
310935825

> <PUBCHEM_SUBSTANCE_VERSION>
1

> <PUBCHEM_EXT_DATASOURCE_NAME>
4488

> <PUBCHEM_EXT_DATASOURCE_REGID>
SCHEMBL16113415

> <PUBCHEM_SUBSTANCE_COMMENT>
InChI=1S/C18H21N5O2/c1-4-24-16-8-6-7-15(10-16)17-9-14(11-19-18(17)25-5-2)12-23-13(3)20-21-22-23/h6-11H,4-5,12H2,1-3H3
InChIKey=VOPIGWZCFANWFQ-UHFFFAOYSA-N

> <PUBCHEM_SUBSTANCE_SYNONYM>
SCHEMBL16113415

> <PUBCHEM_XREF_EXT_ID>
SCHEMBL16113415

> <PUBCHEM_EXT_DATASOURCE_URL>
https://www.surechembl.org/

> <PUBCHEM_EXT_SUBSTANCE_URL>
https://www.surechembl.org/chemical/SCHEMBL16113415

> <PUBCHEM_CID_ASSOCIATIONS>
117603815  1

> <PUBCHEM_COORDINATE_TYPE>
1
3

$$$$
