310940289
  -OEChem-07211613022D

  9  9  0     1  0  0  0  0  0999 V2000
   -1.2321    0.9611    0.0000 O   0  0  0  0  0  0  0  0  0  0  0  0
    1.3143   -1.2731    0.0000 N   0  0  0  0  0  0  0  0  0  0  0  0
   -0.6407   -0.3697    0.0000 C   0  0  3  0  0  0  0  0  0  0  0  0
   -1.3143    0.1232    0.0000 C   0  0  0  0  0  0  0  0  0  0  0  0
    0.0822   -0.0247    0.0000 C   0  0  0  0  0  0  0  0  0  0  0  0
   -0.3285   -1.0924    0.0000 C   0  0  0  0  0  0  0  0  0  0  0  0
    0.1807    0.7967    0.0000 C   0  0  0  0  0  0  0  0  0  0  0  0
   -0.4929    1.2731    0.0000 C   0  0  0  0  0  0  0  0  0  0  0  0
    0.4764   -1.2074    0.0000 C   0  0  0  0  0  0  0  0  0  0  0  0
  1  4  1  0  0  0  0
  1  8  1  0  0  0  0
  2  9  3  0  0  0  0
  3  4  1  0  0  0  0
  3  5  1  0  0  0  0
  3  6  1  1  0  0  0
  5  7  1  0  0  0  0
  6  9  1  0  0  0  0
  7  8  1  0  0  0  0
M  END
> <PUBCHEM_COMPOUND_ID_TYPE>
0

> <PUBCHEM_TOTAL_CHARGE>
0

> <PUBCHEM_SUBSTANCE_ID>
310940289

> <PUBCHEM_SUBSTANCE_VERSION>
1

> <PUBCHEM_EXT_DATASOURCE_NAME>
4488

> <PUBCHEM_EXT_DATASOURCE_REGID>
SCHEMBL16118232

> <PUBCHEM_SUBSTANCE_COMMENT>
InChI=1S/C7H11NO/c8-4-3-7-2-1-5-9-6-7/h7H,1-3,5-6H2/t7-/m0/s1
InChIKey=XSWUJVPKHBPWCO-ZETCQYMHSA-N

> <PUBCHEM_SUBSTANCE_SYNONYM>
SCHEMBL16118232

> <PUBCHEM_XREF_EXT_ID>
SCHEMBL16118232

> <PUBCHEM_EXT_DATASOURCE_URL>
https://www.surechembl.org/

> <PUBCHEM_EXT_SUBSTANCE_URL>
https://www.surechembl.org/chemical/SCHEMBL16118232

> <PUBCHEM_CID_ASSOCIATIONS>
44141777  1

> <PUBCHEM_COORDINATE_TYPE>
1
3

> <PUBCHEM_BONDANNOTATIONS>
3  6  5

$$$$
