310945317
  -OEChem-07211613022D

 30 35  0     0  0  0  0  0  0999 V2000
   -3.5761   -2.0448    0.0000 Br  0  0  0  0  0  0  0  0  0  0  0  0
   -0.8017   -0.4414    0.0000 O   0  0  0  0  0  0  0  0  0  0  0  0
    4.0445    1.8106    0.0000 O   0  0  0  0  0  0  0  0  0  0  0  0
   -2.9095    1.5764    0.0000 O   0  5  0  0  0  0  0  0  0  0  0  0
   -4.0445    0.7657    0.0000 O   0  0  0  0  0  0  0  0  0  0  0  0
    2.2610    0.5495    0.0000 N   0  0  0  0  0  0  0  0  0  0  0  0
    3.9184    0.3874    0.0000 N   0  0  0  0  0  0  0  0  0  0  0  0
   -1.4502    0.7296    0.0000 N   0  0  0  0  0  0  0  0  0  0  0  0
   -3.2518    0.8377    0.0000 N   0  3  0  0  0  0  0  0  0  0  0  0
    2.5673   -0.1892    0.0000 C   0  0  0  0  0  0  0  0  0  0  0  0
    1.4323    0.8377    0.0000 C   0  0  0  0  0  0  0  0  0  0  0  0
    2.7294    1.2521    0.0000 C   0  0  0  0  0  0  0  0  0  0  0  0
    1.4502    1.6485    0.0000 C   0  0  0  0  0  0  0  0  0  0  0  0
    2.2610    1.9006    0.0000 C   0  0  0  0  0  0  0  0  0  0  0  0
    3.5401    1.1260    0.0000 C   0  0  0  0  0  0  0  0  0  0  0  0
    3.4140   -0.2973    0.0000 C   0  0  0  0  0  0  0  0  0  0  0  0
    0.0090    0.8197    0.0000 C   0  0  0  0  0  0  0  0  0  0  0  0
    0.7296    0.4054    0.0000 C   0  0  0  0  0  0  0  0  0  0  0  0
    1.7745   -0.3513    0.0000 C   0  0  0  0  0  0  0  0  0  0  0  0
    2.6933   -1.0179    0.0000 C   0  0  0  0  0  0  0  0  0  0  0  0
   -0.7117    0.4054    0.0000 C   0  0  0  0  0  0  0  0  0  0  0  0
   -2.0268    0.1171    0.0000 C   0  0  0  0  0  0  0  0  0  0  0  0
   -1.6124   -0.5855    0.0000 C   0  0  0  0  0  0  0  0  0  0  0  0
    0.7296    2.0448    0.0000 C   0  0  0  0  0  0  0  0  0  0  0  0
    1.9006   -1.1440    0.0000 C   0  0  0  0  0  0  0  0  0  0  0  0
    0.0270    1.6485    0.0000 C   0  0  0  0  0  0  0  0  0  0  0  0
   -2.8555    0.1171    0.0000 C   0  0  0  0  0  0  0  0  0  0  0  0
   -2.0268   -1.3242    0.0000 C   0  0  0  0  0  0  0  0  0  0  0  0
   -3.2518   -0.5855    0.0000 C   0  0  0  0  0  0  0  0  0  0  0  0
   -2.8555   -1.3242    0.0000 C   0  0  0  0  0  0  0  0  0  0  0  0
  1 30  1  0  0  0  0
  2 21  1  0  0  0  0
  2 23  1  0  0  0  0
  3 15  2  0  0  0  0
  4  9  1  0  0  0  0
  5  9  2  0  0  0  0
  6 10  1  0  0  0  0
  6 11  1  0  0  0  0
  6 12  1  0  0  0  0
  7 15  1  0  0  0  0
  7 16  1  0  0  0  0
  8 21  2  0  0  0  0
  8 22  1  0  0  0  0
  9 27  1  0  0  0  0
 10 16  1  0  0  0  0
 10 19  1  0  0  0  0
 10 20  1  0  0  0  0
 11 13  1  0  0  0  0
 11 18  2  0  0  0  0
 12 14  2  0  0  0  0
 12 15  1  0  0  0  0
 13 14  1  0  0  0  0
 13 24  2  0  0  0  0
 17 18  1  0  0  0  0
 17 21  1  0  0  0  0
 17 26  2  0  0  0  0
 19 25  1  0  0  0  0
 20 25  1  0  0  0  0
 22 23  2  0  0  0  0
 22 27  1  0  0  0  0
 23 28  1  0  0  0  0
 24 26  1  0  0  0  0
 27 29  2  0  0  0  0
 28 30  2  0  0  0  0
 29 30  1  0  0  0  0
M  CHG  2   4  -1   9   1
M  END
> <PUBCHEM_COMPOUND_ID_TYPE>
0

> <PUBCHEM_TOTAL_CHARGE>
0

> <PUBCHEM_SUBSTANCE_ID>
310945317

> <PUBCHEM_SUBSTANCE_VERSION>
1

> <PUBCHEM_EXT_DATASOURCE_NAME>
4488

> <PUBCHEM_EXT_DATASOURCE_REGID>
SCHEMBL16123415

> <PUBCHEM_SUBSTANCE_COMMENT>
InChI=1S/C21H15BrN4O4/c22-13-8-15(26(28)29)18-17(9-13)30-20(24-18)12-3-2-11-6-16-19(27)23-10-21(4-1-5-21)25(16)14(11)7-12/h2-3,6-9H,1,4-5,10H2,(H,23,27)
InChIKey=KLORLJYZAJTCMI-UHFFFAOYSA-N

> <PUBCHEM_SUBSTANCE_SYNONYM>
SCHEMBL16123415

> <PUBCHEM_XREF_EXT_ID>
SCHEMBL16123415

> <PUBCHEM_EXT_DATASOURCE_URL>
https://www.surechembl.org/

> <PUBCHEM_EXT_SUBSTANCE_URL>
https://www.surechembl.org/chemical/SCHEMBL16123415

> <PUBCHEM_CID_ASSOCIATIONS>
117611375  1

> <PUBCHEM_COORDINATE_TYPE>
1
3

$$$$
