310943659
  -OEChem-07211613022D

 36 39  0     0  0  0  0  0  0999 V2000
   -2.1477   -1.3617    0.0000 F   0  0  0  0  0  0  0  0  0  0  0  0
   -3.5328   -1.5018    0.0000 F   0  0  0  0  0  0  0  0  0  0  0  0
   -2.8481   -0.2101    0.0000 O   0  0  0  0  0  0  0  0  0  0  0  0
   -4.2798    2.2800    0.0000 O   0  0  0  0  0  0  0  0  0  0  0  0
    1.4162   -0.2101    0.0000 O   0  0  0  0  0  0  0  0  0  0  0  0
    4.2643   -1.8597    0.0000 O   0  0  0  0  0  0  0  0  0  0  0  0
   -2.8481    1.4551    0.0000 N   0  0  0  0  0  0  0  0  0  0  0  0
   -1.4318   -0.2101    0.0000 N   0  0  0  0  0  0  0  0  0  0  0  0
    0.7004    2.7002    0.0000 N   0  0  0  0  0  0  0  0  0  0  0  0
    2.1321    1.0350    0.0000 N   0  0  0  0  0  0  0  0  0  0  0  0
    4.2643   -1.0350    0.0000 N   0  0  0  0  0  0  0  0  0  0  0  0
   -0.7004    1.0505    0.0000 C   0  0  0  0  0  0  0  0  0  0  0  0
   -2.1321    1.0505    0.0000 C   0  0  0  0  0  0  0  0  0  0  0  0
   -0.0156    1.4551    0.0000 C   0  0  0  0  0  0  0  0  0  0  0  0
   -2.1477    0.2101    0.0000 C   0  0  0  0  0  0  0  0  0  0  0  0
   -1.4474    1.4551    0.0000 C   0  0  0  0  0  0  0  0  0  0  0  0
    0.0000    2.2956    0.0000 C   0  0  0  0  0  0  0  0  0  0  0  0
   -0.7159    0.2256    0.0000 C   0  0  0  0  0  0  0  0  0  0  0  0
    0.7315    1.0505    0.0000 C   0  0  0  0  0  0  0  0  0  0  0  0
    1.4162    1.4551    0.0000 C   0  0  0  0  0  0  0  0  0  0  0  0
    2.8481   -0.1945    0.0000 C   0  0  0  0  0  0  0  0  0  0  0  0
    2.1477    0.2412    0.0000 C   0  0  0  0  0  0  0  0  0  0  0  0
    1.4318    2.2800    0.0000 C   0  0  0  0  0  0  0  0  0  0  0  0
    3.5639   -1.4396    0.0000 C   0  0  0  0  0  0  0  0  0  0  0  0
   -3.5483    1.0505    0.0000 C   0  0  0  0  0  0  0  0  0  0  0  0
   -2.8636    2.2956    0.0000 C   0  0  0  0  0  0  0  0  0  0  0  0
    3.5639   -2.2488    0.0000 C   0  0  0  0  0  0  0  0  0  0  0  0
    2.8481   -1.0194    0.0000 C   0  0  0  0  0  0  0  0  0  0  0  0
    3.5483    0.2101    0.0000 C   0  0  0  0  0  0  0  0  0  0  0  0
   -2.8481   -1.0350    0.0000 C   0  0  0  0  0  0  0  0  0  0  0  0
   -0.7315    2.6846    0.0000 C   0  0  0  0  0  0  0  0  0  0  0  0
   -4.2643    1.4551    0.0000 C   0  0  0  0  0  0  0  0  0  0  0  0
   -3.5639    2.7002    0.0000 C   0  0  0  0  0  0  0  0  0  0  0  0
    4.2643   -0.1945    0.0000 C   0  0  0  0  0  0  0  0  0  0  0  0
    2.8481   -2.7002    0.0000 C   0  0  0  0  0  0  0  0  0  0  0  0
    4.2798   -2.6846    0.0000 C   0  0  0  0  0  0  0  0  0  0  0  0
  1 30  1  0  0  0  0
  2 30  1  0  0  0  0
  3 15  1  0  0  0  0
  3 30  1  0  0  0  0
  4 32  1  0  0  0  0
  4 33  1  0  0  0  0
  5 22  2  0  0  0  0
  6 27  1  0  0  0  0
  7 13  1  0  0  0  0
  7 25  1  0  0  0  0
  7 26  1  0  0  0  0
  8 15  1  0  0  0  0
  8 18  2  0  0  0  0
  9 17  2  0  0  0  0
  9 23  1  0  0  0  0
 10 20  1  0  0  0  0
 10 22  1  0  0  0  0
 11 24  2  0  0  0  0
 11 34  1  0  0  0  0
 12 14  1  0  0  0  0
 12 16  2  0  0  0  0
 12 18  1  0  0  0  0
 13 15  2  0  0  0  0
 13 16  1  0  0  0  0
 14 17  1  0  0  0  0
 14 19  2  0  0  0  0
 17 31  1  0  0  0  0
 19 20  1  0  0  0  0
 20 23  2  0  0  0  0
 21 22  1  0  0  0  0
 21 28  2  0  0  0  0
 21 29  1  0  0  0  0
 24 27  1  0  0  0  0
 24 28  1  0  0  0  0
 25 32  1  0  0  0  0
 26 33  1  0  0  0  0
 27 35  1  0  0  0  0
 27 36  1  0  0  0  0
 29 34  2  0  0  0  0
M  END
> <PUBCHEM_COMPOUND_ID_TYPE>
0

> <PUBCHEM_TOTAL_CHARGE>
0

> <PUBCHEM_SUBSTANCE_ID>
310943659

> <PUBCHEM_SUBSTANCE_VERSION>
1

> <PUBCHEM_EXT_DATASOURCE_NAME>
4488

> <PUBCHEM_EXT_DATASOURCE_REGID>
SCHEMBL16121727

> <PUBCHEM_SUBSTANCE_COMMENT>
InChI=1S/C25H27F2N5O4/c1-15-19(17-10-20(32-6-8-35-9-7-32)23(30-13-17)36-24(26)27)12-18(14-29-15)31-22(33)16-4-5-28-21(11-16)25(2,3)34/h4-5,10-14,24,34H,6-9H2,1-3H3,(H,31,33)
InChIKey=KCAUUMYHLOPFHT-UHFFFAOYSA-N

> <PUBCHEM_SUBSTANCE_SYNONYM>
SCHEMBL16121727

> <PUBCHEM_XREF_EXT_ID>
SCHEMBL16121727

> <PUBCHEM_EXT_DATASOURCE_URL>
https://www.surechembl.org/

> <PUBCHEM_EXT_SUBSTANCE_URL>
https://www.surechembl.org/chemical/SCHEMBL16121727

> <PUBCHEM_CID_ASSOCIATIONS>
117610049  1

> <PUBCHEM_COORDINATE_TYPE>
1
3

$$$$
