310938384
  -OEChem-07211613022D

 53 54  0     1  0  0  0  0  0999 V2000
   11.8927   -4.8319    0.0000 O   0  0  0  0  0  0  0  0  0  0  0  0
    9.4545   -6.5360    0.0000 O   0  0  0  0  0  0  0  0  0  0  0  0
   13.6892   -7.2027    0.0000 O   0  0  0  0  0  0  0  0  0  0  0  0
    7.6580   -4.1652    0.0000 O   0  0  0  0  0  0  0  0  0  0  0  0
   14.3308   -7.7213    0.0000 O   0  0  0  0  0  0  0  0  0  0  0  0
   15.7423   -7.9436    0.0000 O   0  0  0  0  0  0  0  0  0  0  0  0
    4.7066   -4.5356    0.0000 O   0  0  0  0  0  0  0  0  0  0  0  0
   12.4059   -6.1655    0.0000 N   0  0  0  0  0  0  0  0  0  0  0  0
   10.3528   -5.4246    0.0000 N   0  0  0  0  0  0  0  0  0  0  0  0
   14.5874   -6.0914    0.0000 N   0  0  0  0  0  0  0  0  0  0  0  0
    8.1713   -5.4987    0.0000 N   0  0  0  0  0  0  0  0  0  0  0  0
    6.1181   -4.7579    0.0000 N   0  0  0  0  0  0  0  0  0  0  0  0
    5.8615   -6.3878    0.0000 N   0  0  0  0  0  0  0  0  0  0  0  0
    5.7332   -7.2027    0.0000 N   0  3  0  0  0  0  0  0  0  0  0  0
    7.6580   -8.7586    0.0000 N   0  0  0  0  0  0  0  0  0  0  0  0
    5.6048   -8.0177    0.0000 N   0  5  0  0  0  0  0  0  0  0  0  0
   10.9944   -5.9433    0.0000 C   0  0  3  0  0  0  0  0  0  0  0  0
   13.1759   -5.8692    0.0000 C   0  0  3  0  0  0  0  0  0  0  0  0
   11.7643   -5.6469    0.0000 C   0  0  0  0  0  0  0  0  0  0  0  0
    9.5828   -5.7210    0.0000 C   0  0  0  0  0  0  0  0  0  0  0  0
   13.8175   -6.3878    0.0000 C   0  0  0  0  0  0  0  0  0  0  0  0
    8.9412   -5.2024    0.0000 C   0  0  3  0  0  0  0  0  0  0  0  0
   10.8661   -6.7582    0.0000 C   0  0  0  0  0  0  0  0  0  0  0  0
   13.3042   -5.0542    0.0000 C   0  0  0  0  0  0  0  0  0  0  0  0
   15.2290   -6.6100    0.0000 C   0  0  3  0  0  0  0  0  0  0  0  0
    7.5297   -4.9801    0.0000 C   0  0  0  0  0  0  0  0  0  0  0  0
   14.0741   -4.7579    0.0000 C   0  0  0  0  0  0  0  0  0  0  0  0
    6.7597   -5.2765    0.0000 C   0  0  3  0  0  0  0  0  0  0  0  0
    9.0696   -4.3874    0.0000 C   0  0  0  0  0  0  0  0  0  0  0  0
   15.9990   -6.3137    0.0000 C   0  0  0  0  0  0  0  0  0  0  0  0
   15.1007   -7.4250    0.0000 C   0  0  0  0  0  0  0  0  0  0  0  0
   16.6406   -6.8323    0.0000 C   0  0  0  0  0  0  0  0  0  0  0  0
   14.2025   -3.9429    0.0000 C   0  0  0  0  0  0  0  0  0  0  0  0
   14.7158   -5.2765    0.0000 C   0  0  0  0  0  0  0  0  0  0  0  0
    9.8395   -4.0911    0.0000 C   0  0  0  0  0  0  0  0  0  0  0  0
   11.5077   -7.2768    0.0000 C   0  0  0  0  0  0  0  0  0  0  0  0
   10.0961   -7.0546    0.0000 C   0  0  0  0  0  0  0  0  0  0  0  0
    6.6314   -6.0914    0.0000 C   0  0  0  0  0  0  0  0  0  0  0  0
    5.3482   -5.0542    0.0000 C   0  0  0  0  0  0  0  0  0  0  0  0
   17.4105   -6.5360    0.0000 C   0  0  0  0  0  0  0  0  0  0  0  0
   16.5123   -7.6473    0.0000 C   0  0  0  0  0  0  0  0  0  0  0  0
   14.9724   -3.6466    0.0000 C   0  0  0  0  0  0  0  0  0  0  0  0
   15.4857   -4.9801    0.0000 C   0  0  0  0  0  0  0  0  0  0  0  0
   15.6140   -4.1652    0.0000 C   0  0  0  0  0  0  0  0  0  0  0  0
    7.2730   -6.6100    0.0000 C   0  0  0  0  0  0  0  0  0  0  0  0
   18.0521   -7.0546    0.0000 C   0  0  0  0  0  0  0  0  0  0  0  0
   17.1539   -8.1659    0.0000 C   0  0  0  0  0  0  0  0  0  0  0  0
   10.4811   -4.6097    0.0000 C   0  0  0  0  0  0  0  0  0  0  0  0
    9.9678   -3.2761    0.0000 C   0  0  0  0  0  0  0  0  0  0  0  0
    5.2199   -5.8692    0.0000 C   0  0  0  0  0  0  0  0  0  0  0  0
   17.9238   -7.8695    0.0000 C   0  0  0  0  0  0  0  0  0  0  0  0
    7.1447   -7.4250    0.0000 C   0  0  0  0  0  0  0  0  0  0  0  0
    7.7863   -7.9436    0.0000 C   0  0  0  0  0  0  0  0  0  0  0  0
  1 19  2  0  0  0  0
  2 20  2  0  0  0  0
  3 21  2  0  0  0  0
  4 26  2  0  0  0  0
  5 31  2  0  0  0  0
  6 31  1  0  0  0  0
  7 39  2  0  0  0  0
 18  8  1  1  0  0  0
  8 19  1  0  0  0  0
 17  9  1  6  0  0  0
  9 20  1  0  0  0  0
 10 21  1  0  0  0  0
 25 10  1  1  0  0  0
 22 11  1  1  0  0  0
 11 26  1  0  0  0  0
 28 12  1  6  0  0  0
 12 39  1  0  0  0  0
 13 14  2  0  0  0  0
 13 50  1  0  0  0  0
 14 16  2  0  0  0  0
 15 53  1  0  0  0  0
 17 19  1  0  0  0  0
 17 23  1  0  0  0  0
 18 21  1  0  0  0  0
 18 24  1  0  0  0  0
 20 22  1  0  0  0  0
 22 29  1  0  0  0  0
 23 36  1  0  0  0  0
 23 37  1  0  0  0  0
 24 27  1  0  0  0  0
 25 30  1  0  0  0  0
 25 31  1  0  0  0  0
 26 28  1  0  0  0  0
 27 33  2  0  0  0  0
 27 34  1  0  0  0  0
 28 38  1  0  0  0  0
 29 35  1  0  0  0  0
 30 32  1  0  0  0  0
 32 40  2  0  0  0  0
 32 41  1  0  0  0  0
 33 42  1  0  0  0  0
 34 43  2  0  0  0  0
 35 48  1  0  0  0  0
 35 49  1  0  0  0  0
 38 45  1  0  0  0  0
 39 50  1  0  0  0  0
 40 46  1  0  0  0  0
 41 47  2  0  0  0  0
 42 44  2  0  0  0  0
 43 44  1  0  0  0  0
 45 52  1  0  0  0  0
 46 51  2  0  0  0  0
 47 51  1  0  0  0  0
 52 53  1  0  0  0  0
M  CHG  2  14   1  16  -1
M  END
> <PUBCHEM_COMPOUND_ID_TYPE>
0

> <PUBCHEM_TOTAL_CHARGE>
0

> <PUBCHEM_SUBSTANCE_ID>
310938384

> <PUBCHEM_SUBSTANCE_VERSION>
1

> <PUBCHEM_EXT_DATASOURCE_NAME>
4488

> <PUBCHEM_EXT_DATASOURCE_REGID>
SCHEMBL16116271

> <PUBCHEM_SUBSTANCE_COMMENT>
InChI=1S/C37H53N9O7/c1-23(2)19-28(42-33(48)27(17-11-12-18-38)41-31(47)22-40-46-39)35(50)45-32(24(3)4)36(51)43-29(20-25-13-7-5-8-14-25)34(49)44-30(37(52)53)21-26-15-9-6-10-16-26/h5-10,13-16,23-24,27-30,32H,11-12,17-22,38H2,1-4H3,(H,41,47)(H,42,48)(H,43,51)(H,44,49)(H,45,50)(H,52,53)/t27-,28-,29-,30-,32-/m0/s1
InChIKey=JRBVTDGHXUDVQL-ANQBNUITSA-N

> <PUBCHEM_SUBSTANCE_SYNONYM>
SCHEMBL16116271

> <PUBCHEM_XREF_EXT_ID>
SCHEMBL16116271

> <PUBCHEM_EXT_DATASOURCE_URL>
https://www.surechembl.org/

> <PUBCHEM_EXT_SUBSTANCE_URL>
https://www.surechembl.org/chemical/SCHEMBL16116271

> <PUBCHEM_CID_ASSOCIATIONS>
117605863  1

> <PUBCHEM_COORDINATE_TYPE>
1
3

> <PUBCHEM_BONDANNOTATIONS>
25  10  5
22  11  5
28  12  6
18  8  5
17  9  6

$$$$
