310949506
  -OEChem-07211613022D

 26 27  0     0  0  0  0  0  0999 V2000
    3.9225    0.4125    0.0000 O   0  0  0  0  0  0  0  0  0  0  0  0
    2.4975    0.4125    0.0000 O   0  0  0  0  0  0  0  0  0  0  0  0
   -3.2024    1.2074    0.0000 O   0  0  0  0  0  0  0  0  0  0  0  0
    1.0875   -2.0925    0.0000 O   0  0  0  0  0  0  0  0  0  0  0  0
   -3.9075   -0.0375    0.0000 O   0  0  0  0  0  0  0  0  0  0  0  0
    1.7924   -0.8475    0.0000 N   0  0  0  0  0  0  0  0  0  0  0  0
    0.3675   -0.8475    0.0000 N   0  0  0  0  0  0  0  0  0  0  0  0
    3.2024   -0.8325    0.0000 C   0  0  0  0  0  0  0  0  0  0  0  0
    2.5125   -1.2675    0.0000 C   0  0  0  0  0  0  0  0  0  0  0  0
    3.2174   -0.0075    0.0000 C   0  0  0  0  0  0  0  0  0  0  0  0
    3.9225   -1.2525    0.0000 C   0  0  0  0  0  0  0  0  0  0  0  0
    2.5125   -2.0925    0.0000 C   0  0  0  0  0  0  0  0  0  0  0  0
   -2.4675   -0.0375    0.0000 C   0  0  0  0  0  0  0  0  0  0  0  0
    1.0875   -1.2375    0.0000 C   0  0  0  0  0  0  0  0  0  0  0  0
   -1.0725   -0.8475    0.0000 C   0  0  0  0  0  0  0  0  0  0  0  0
   -3.2024    0.3975    0.0000 C   0  0  0  0  0  0  0  0  0  0  0  0
    3.9225   -2.0775    0.0000 C   0  0  0  0  0  0  0  0  0  0  0  0
   -1.7924    0.3675    0.0000 C   0  0  0  0  0  0  0  0  0  0  0  0
   -2.4825   -0.8475    0.0000 C   0  0  0  0  0  0  0  0  0  0  0  0
    3.2024   -2.4825    0.0000 C   0  0  0  0  0  0  0  0  0  0  0  0
   -1.0725   -0.0375    0.0000 C   0  0  0  0  0  0  0  0  0  0  0  0
   -1.7625   -1.2675    0.0000 C   0  0  0  0  0  0  0  0  0  0  0  0
   -0.3675   -1.2525    0.0000 C   0  0  0  0  0  0  0  0  0  0  0  0
    3.9225    1.2675    0.0000 C   0  0  0  0  0  0  0  0  0  0  0  0
   -3.9225    1.6275    0.0000 C   0  0  0  0  0  0  0  0  0  0  0  0
   -3.9225    2.4825    0.0000 C   0  0  0  0  0  0  0  0  0  0  0  0
  1 10  1  0  0  0  0
  1 24  1  0  0  0  0
  2 10  2  0  0  0  0
  3 16  1  0  0  0  0
  3 25  1  0  0  0  0
  4 14  2  0  0  0  0
  5 16  2  0  0  0  0
  6  9  1  0  0  0  0
  6 14  1  0  0  0  0
  7 14  1  0  0  0  0
  7 23  1  0  0  0  0
  8  9  1  0  0  0  0
  8 10  1  0  0  0  0
  8 11  2  0  0  0  0
  9 12  2  0  0  0  0
 11 17  1  0  0  0  0
 12 20  1  0  0  0  0
 13 16  1  0  0  0  0
 13 18  2  0  0  0  0
 13 19  1  0  0  0  0
 15 21  2  0  0  0  0
 15 22  1  0  0  0  0
 15 23  1  0  0  0  0
 17 20  2  0  0  0  0
 18 21  1  0  0  0  0
 19 22  2  0  0  0  0
 25 26  1  0  0  0  0
M  END
> <PUBCHEM_COMPOUND_ID_TYPE>
0

> <PUBCHEM_TOTAL_CHARGE>
0

> <PUBCHEM_SUBSTANCE_ID>
310949506

> <PUBCHEM_SUBSTANCE_VERSION>
1

> <PUBCHEM_EXT_DATASOURCE_NAME>
4488

> <PUBCHEM_EXT_DATASOURCE_REGID>
SCHEMBL16127701

> <PUBCHEM_SUBSTANCE_COMMENT>
InChI=1S/C19H20N2O5/c1-3-26-17(22)14-10-8-13(9-11-14)12-20-19(24)21-16-7-5-4-6-15(16)18(23)25-2/h4-11H,3,12H2,1-2H3,(H2,20,21,24)
InChIKey=OJGJZMKULFCXOF-UHFFFAOYSA-N

> <PUBCHEM_SUBSTANCE_SYNONYM>
SCHEMBL16127701

> <PUBCHEM_XREF_EXT_ID>
SCHEMBL16127701

> <PUBCHEM_EXT_DATASOURCE_URL>
https://www.surechembl.org/

> <PUBCHEM_EXT_SUBSTANCE_URL>
https://www.surechembl.org/chemical/SCHEMBL16127701

> <PUBCHEM_CID_ASSOCIATIONS>
117614943  1

> <PUBCHEM_COORDINATE_TYPE>
1
3

$$$$
