310949642
  -OEChem-07211613022D

 27 28  0     0  0  0  0  0  0999 V2000
   -2.1333   -1.8682    0.0000 F   0  0  0  0  0  0  0  0  0  0  0  0
   -0.7156   -1.8682    0.0000 F   0  0  0  0  0  0  0  0  0  0  0  0
   -1.4178   -2.2924    0.0000 F   0  0  0  0  0  0  0  0  0  0  0  0
   -3.5643    0.6228    0.0000 F   0  0  0  0  0  0  0  0  0  0  0  0
   -3.5643    1.4576    0.0000 F   0  0  0  0  0  0  0  0  0  0  0  0
   -2.8488    1.8682    0.0000 F   0  0  0  0  0  0  0  0  0  0  0  0
    1.4178    1.8682    0.0000 O   0  0  0  0  0  0  0  0  0  0  0  0
    2.1333    2.2924    0.0000 O   0  0  0  0  0  0  0  0  0  0  0  0
    3.5643    2.2924    0.0000 O   0  0  0  0  0  0  0  0  0  0  0  0
    0.7023    0.6228    0.0000 N   0  0  0  0  0  0  0  0  0  0  0  0
   -1.4311   -0.6228    0.0000 C   0  0  0  0  0  0  0  0  0  0  0  0
   -2.1465    0.6228    0.0000 C   0  0  0  0  0  0  0  0  0  0  0  0
   -1.4443   -1.4708    0.0000 C   0  0  0  0  0  0  0  0  0  0  0  0
   -2.8885    1.0468    0.0000 C   0  0  0  0  0  0  0  0  0  0  0  0
   -0.7288    0.6228    0.0000 C   0  0  0  0  0  0  0  0  0  0  0  0
   -2.1465   -0.1987    0.0000 C   0  0  0  0  0  0  0  0  0  0  0  0
   -0.7288   -0.2120    0.0000 C   0  0  0  0  0  0  0  0  0  0  0  0
   -1.4443    1.0203    0.0000 C   0  0  0  0  0  0  0  0  0  0  0  0
    2.1465    0.6095    0.0000 C   0  0  0  0  0  0  0  0  0  0  0  0
   -0.0132    1.0335    0.0000 C   0  0  0  0  0  0  0  0  0  0  0  0
    1.4178    1.0203    0.0000 C   0  0  0  0  0  0  0  0  0  0  0  0
    2.8488    1.0335    0.0000 C   0  0  0  0  0  0  0  0  0  0  0  0
    2.1333   -0.1987    0.0000 C   0  0  0  0  0  0  0  0  0  0  0  0
    2.8753    1.8682    0.0000 C   0  0  0  0  0  0  0  0  0  0  0  0
    3.5511    0.6228    0.0000 C   0  0  0  0  0  0  0  0  0  0  0  0
    2.8620   -0.6095    0.0000 C   0  0  0  0  0  0  0  0  0  0  0  0
    3.5511   -0.2120    0.0000 C   0  0  0  0  0  0  0  0  0  0  0  0
  1 13  1  0  0  0  0
  2 13  1  0  0  0  0
  3 13  1  0  0  0  0
  4 14  1  0  0  0  0
  5 14  1  0  0  0  0
  6 14  1  0  0  0  0
  7 21  2  0  0  0  0
  8 24  2  0  0  0  0
  9 24  1  0  0  0  0
 10 20  1  0  0  0  0
 10 21  1  0  0  0  0
 11 13  1  0  0  0  0
 11 16  2  0  0  0  0
 11 17  1  0  0  0  0
 12 14  1  0  0  0  0
 12 16  1  0  0  0  0
 12 18  2  0  0  0  0
 15 17  2  0  0  0  0
 15 18  1  0  0  0  0
 15 20  1  0  0  0  0
 19 21  1  0  0  0  0
 19 22  1  0  0  0  0
 19 23  2  0  0  0  0
 22 24  1  0  0  0  0
 22 25  2  0  0  0  0
 23 26  1  0  0  0  0
 25 27  1  0  0  0  0
 26 27  2  0  0  0  0
M  END
> <PUBCHEM_COMPOUND_ID_TYPE>
0

> <PUBCHEM_TOTAL_CHARGE>
0

> <PUBCHEM_SUBSTANCE_ID>
310949642

> <PUBCHEM_SUBSTANCE_VERSION>
1

> <PUBCHEM_EXT_DATASOURCE_NAME>
4488

> <PUBCHEM_EXT_DATASOURCE_REGID>
SCHEMBL16127840

> <PUBCHEM_SUBSTANCE_COMMENT>
InChI=1S/C17H11F6NO3/c18-16(19,20)10-5-9(6-11(7-10)17(21,22)23)8-24-14(25)12-3-1-2-4-13(12)15(26)27/h1-7H,8H2,(H,24,25)(H,26,27)
InChIKey=MDMGLXZWFQZZAL-UHFFFAOYSA-N

> <PUBCHEM_SUBSTANCE_SYNONYM>
SCHEMBL16127840

> <PUBCHEM_XREF_EXT_ID>
SCHEMBL16127840

> <PUBCHEM_EXT_DATASOURCE_URL>
https://www.surechembl.org/

> <PUBCHEM_EXT_SUBSTANCE_URL>
https://www.surechembl.org/chemical/SCHEMBL16127840

> <PUBCHEM_CID_ASSOCIATIONS>
85471796  1

> <PUBCHEM_COORDINATE_TYPE>
1
3

$$$$
