310948983
  -OEChem-07211613022D

 31 34  0     1  0  0  0  0  0999 V2000
   -0.1753   -4.8144    0.0000 Cl  0  0  0  0  0  0  0  0  0  0  0  0
    1.1649    3.7628    0.0000 F   0  0  0  0  0  0  0  0  0  0  0  0
    1.4123    2.6701    0.0000 F   0  0  0  0  0  0  0  0  0  0  0  0
    0.3402    2.4433    0.0000 F   0  0  0  0  0  0  0  0  0  0  0  0
   -1.5567   -1.5154    0.0000 O   0  0  0  0  0  0  0  0  0  0  0  0
    2.0103   -2.7732    0.0000 O   0  0  0  0  0  0  0  0  0  0  0  0
    1.2886   -1.5361    0.0000 O   0  0  0  0  0  0  0  0  0  0  0  0
   -0.7938   -0.2577    0.0000 N   0  0  0  0  0  0  0  0  0  0  0  0
   -0.1134   -1.4948    0.0000 N   0  0  0  0  0  0  0  0  0  0  0  0
   -1.1855    1.0618    0.0000 C   0  0  3  0  0  0  0  0  0  0  0  0
   -0.3608    1.0000    0.0000 C   0  0  3  0  0  0  0  0  0  0  0  0
   -0.7113    2.3402    0.0000 C   0  0  0  0  0  0  0  0  0  0  0  0
   -0.6907    3.1649    0.0000 C   0  0  0  0  0  0  0  0  0  0  0  0
   -1.3917    1.8454    0.0000 C   0  0  0  0  0  0  0  0  0  0  0  0
   -0.0721    1.8041    0.0000 C   0  0  0  0  0  0  0  0  0  0  0  0
    0.0309    3.5566    0.0000 C   0  0  0  0  0  0  0  0  0  0  0  0
   -1.4536    0.2783    0.0000 C   0  0  0  0  0  0  0  0  0  0  0  0
   -0.1340    0.2371    0.0000 C   0  0  0  0  0  0  0  0  0  0  0  0
   -0.8350   -1.0618    0.0000 C   0  0  0  0  0  0  0  0  0  0  0  0
    0.7319    3.1030    0.0000 C   0  0  0  0  0  0  0  0  0  0  0  0
   -0.1340   -2.3196    0.0000 C   0  0  0  0  0  0  0  0  0  0  0  0
   -1.3712    3.5773    0.0000 C   0  0  0  0  0  0  0  0  0  0  0  0
    0.5670   -2.7319    0.0000 C   0  0  0  0  0  0  0  0  0  0  0  0
    0.0721    4.3814    0.0000 C   0  0  0  0  0  0  0  0  0  0  0  0
   -1.3299    4.4226    0.0000 C   0  0  0  0  0  0  0  0  0  0  0  0
   -0.8350   -2.7319    0.0000 C   0  0  0  0  0  0  0  0  0  0  0  0
   -0.6083    4.8144    0.0000 C   0  0  0  0  0  0  0  0  0  0  0  0
    0.5464   -3.5773    0.0000 C   0  0  0  0  0  0  0  0  0  0  0  0
    1.2886   -2.3402    0.0000 C   0  0  0  0  0  0  0  0  0  0  0  0
   -0.1340   -3.9690    0.0000 C   0  0  0  0  0  0  0  0  0  0  0  0
   -0.8557   -3.5566    0.0000 C   0  0  0  0  0  0  0  0  0  0  0  0
  1 30  1  0  0  0  0
  2 20  1  0  0  0  0
  3 20  1  0  0  0  0
  4 20  1  0  0  0  0
  5 19  2  0  0  0  0
  6 29  2  0  0  0  0
  7 29  1  0  0  0  0
  8 17  1  0  0  0  0
  8 18  1  0  0  0  0
  8 19  1  0  0  0  0
  9 19  1  0  0  0  0
  9 21  1  0  0  0  0
 10 11  1  0  0  0  0
 10 14  1  1  0  0  0
 10 17  1  0  0  0  0
 11 15  1  0  0  0  0
 11 18  1  0  0  0  0
 12 13  1  0  0  0  0
 12 14  1  1  0  0  0
 12 15  1  0  0  0  0
 13 16  2  0  0  0  0
 13 22  1  0  0  0  0
 16 20  1  0  0  0  0
 16 24  1  0  0  0  0
 21 23  1  0  0  0  0
 21 26  2  0  0  0  0
 22 25  2  0  0  0  0
 23 28  2  0  0  0  0
 23 29  1  0  0  0  0
 24 27  2  0  0  0  0
 25 27  1  0  0  0  0
 26 31  1  0  0  0  0
 28 30  1  0  0  0  0
 30 31  2  0  0  0  0
M  END
> <PUBCHEM_COMPOUND_ID_TYPE>
0

> <PUBCHEM_TOTAL_CHARGE>
0

> <PUBCHEM_SUBSTANCE_ID>
310948983

> <PUBCHEM_SUBSTANCE_VERSION>
1

> <PUBCHEM_EXT_DATASOURCE_NAME>
4488

> <PUBCHEM_EXT_DATASOURCE_REGID>
SCHEMBL16127171

> <PUBCHEM_SUBSTANCE_COMMENT>
InChI=1S/C22H20ClF3N2O3/c23-15-5-6-19(17(9-15)20(29)30)27-21(31)28-10-13-7-12(8-14(13)11-28)16-3-1-2-4-18(16)22(24,25)26/h1-6,9,12-14H,7-8,10-11H2,(H,27,31)(H,29,30)/t12-,13-,14?/m1/s1
InChIKey=ZURQJVZWXQJVGJ-ZFXTZCCVSA-N

> <PUBCHEM_SUBSTANCE_SYNONYM>
SCHEMBL16127171

> <PUBCHEM_XREF_EXT_ID>
SCHEMBL16127171

> <PUBCHEM_EXT_DATASOURCE_URL>
https://www.surechembl.org/

> <PUBCHEM_EXT_SUBSTANCE_URL>
https://www.surechembl.org/chemical/SCHEMBL16127171

> <PUBCHEM_CID_ASSOCIATIONS>
117614492  1

> <PUBCHEM_COORDINATE_TYPE>
1
3

> <PUBCHEM_BONDANNOTATIONS>
10  14  5
12  14  5

$$$$
