310947470
  -OEChem-07211613022D

 26 28  0     0  0  0  0  0  0999 V2000
    3.1937   -3.7011    0.0000 O   0  0  0  0  0  0  0  0  0  0  0  0
   -1.7058   -3.5722    0.0000 O   0  0  0  0  0  0  0  0  0  0  0  0
    2.1832   -2.6908    0.0000 O   0  0  0  0  0  0  0  0  0  0  0  0
   -0.2766   -4.3972    0.0000 N   0  0  0  0  0  0  0  0  0  0  0  0
   -2.4201   -4.8098    0.0000 N   0  0  0  0  0  0  0  0  0  0  0  0
    0.9929   -3.9847    0.0000 C   0  0  0  0  0  0  0  0  0  0  0  0
    0.5078   -4.6522    0.0000 C   0  0  0  0  0  0  0  0  0  0  0  0
    1.8133   -4.0709    0.0000 C   0  0  0  0  0  0  0  0  0  0  0  0
    0.5078   -3.3172    0.0000 C   0  0  0  0  0  0  0  0  0  0  0  0
   -0.2766   -3.5722    0.0000 C   0  0  0  0  0  0  0  0  0  0  0  0
    0.8434   -5.4058    0.0000 C   0  0  0  0  0  0  0  0  0  0  0  0
   -0.9913   -4.8098    0.0000 C   0  0  0  0  0  0  0  0  0  0  0  0
    2.3966   -3.4876    0.0000 C   0  0  0  0  0  0  0  0  0  0  0  0
   -1.7058   -4.3972    0.0000 C   0  0  0  0  0  0  0  0  0  0  0  0
    2.1488   -4.8246    0.0000 C   0  0  0  0  0  0  0  0  0  0  0  0
    1.6639   -5.4920    0.0000 C   0  0  0  0  0  0  0  0  0  0  0  0
   -2.4201   -5.6347    0.0000 C   0  0  0  0  0  0  0  0  0  0  0  0
   -3.1347   -4.3972    0.0000 C   0  0  0  0  0  0  0  0  0  0  0  0
   -3.1347   -6.0472    0.0000 C   0  0  0  0  0  0  0  0  0  0  0  0
   -1.7058   -6.0472    0.0000 C   0  0  0  0  0  0  0  0  0  0  0  0
   -3.1347   -6.8722    0.0000 C   0  0  0  0  0  0  0  0  0  0  0  0
   -1.7058   -6.8722    0.0000 C   0  0  0  0  0  0  0  0  0  0  0  0
   -3.1347   -3.5722    0.0000 C   0  0  0  0  0  0  0  0  0  0  0  0
   -2.4201   -7.2847    0.0000 C   0  0  0  0  0  0  0  0  0  0  0  0
    3.9713   -2.9233    0.0000 C   0  0  0  0  0  0  0  0  0  0  0  0
   -3.8491   -3.1598    0.0000 C   0  0  0  0  0  0  0  0  0  0  0  0
  1 13  1  0  0  0  0
  1 25  1  0  0  0  0
  2 14  2  0  0  0  0
  3 13  2  0  0  0  0
  4  7  1  0  0  0  0
  4 10  1  0  0  0  0
  4 12  1  0  0  0  0
  5 14  1  0  0  0  0
  5 17  1  0  0  0  0
  5 18  1  0  0  0  0
  6  7  2  0  0  0  0
  6  8  1  0  0  0  0
  6  9  1  0  0  0  0
  7 11  1  0  0  0  0
  8 13  1  0  0  0  0
  8 15  2  0  0  0  0
  9 10  2  0  0  0  0
 11 16  2  0  0  0  0
 12 14  1  0  0  0  0
 15 16  1  0  0  0  0
 17 19  2  0  0  0  0
 17 20  1  0  0  0  0
 18 23  1  0  0  0  0
 19 21  1  0  0  0  0
 20 22  2  0  0  0  0
 21 24  2  0  0  0  0
 22 24  1  0  0  0  0
 23 26  1  0  0  0  0
M  END
> <PUBCHEM_COMPOUND_ID_TYPE>
0

> <PUBCHEM_TOTAL_CHARGE>
0

> <PUBCHEM_SUBSTANCE_ID>
310947470

> <PUBCHEM_SUBSTANCE_VERSION>
1

> <PUBCHEM_EXT_DATASOURCE_NAME>
4488

> <PUBCHEM_EXT_DATASOURCE_REGID>
SCHEMBL16125631

> <PUBCHEM_SUBSTANCE_COMMENT>
InChI=1S/C21H22N2O3/c1-3-13-23(16-8-5-4-6-9-16)20(24)15-22-14-12-17-18(21(25)26-2)10-7-11-19(17)22/h4-12,14H,3,13,15H2,1-2H3
InChIKey=LEHTZIFFZVSJBP-UHFFFAOYSA-N

> <PUBCHEM_SUBSTANCE_SYNONYM>
SCHEMBL16125631

> <PUBCHEM_XREF_EXT_ID>
SCHEMBL16125631

> <PUBCHEM_EXT_DATASOURCE_URL>
https://www.surechembl.org/

> <PUBCHEM_EXT_SUBSTANCE_URL>
https://www.surechembl.org/chemical/SCHEMBL16125631

> <PUBCHEM_CID_ASSOCIATIONS>
117613201  1

> <PUBCHEM_COORDINATE_TYPE>
1
3

$$$$
