310945561
  -OEChem-07211613022D

 20 22  0     0  0  0  0  0  0999 V2000
   -2.4194    1.0672    0.0000 O   0  0  0  0  0  0  0  0  0  0  0  0
    0.4020    0.3070    0.0000 N   0  0  0  0  0  0  0  0  0  0  0  0
    2.4194    1.2426    0.0000 N   0  0  0  0  0  0  0  0  0  0  0  0
   -0.3435   -1.7543    0.0000 N   0  0  0  0  0  0  0  0  0  0  0  0
    1.0598    0.8186    0.0000 C   0  0  0  0  0  0  0  0  0  0  0  0
    0.8113    1.5788    0.0000 C   0  0  0  0  0  0  0  0  0  0  0  0
   -0.2704    0.8040    0.0000 C   0  0  0  0  0  0  0  0  0  0  0  0
   -0.0220    1.5934    0.0000 C   0  0  0  0  0  0  0  0  0  0  0  0
    1.8639    0.6139    0.0000 C   0  0  0  0  0  0  0  0  0  0  0  0
   -1.0598    0.6432    0.0000 C   0  0  0  0  0  0  0  0  0  0  0  0
   -0.5628    2.1928    0.0000 C   0  0  0  0  0  0  0  0  0  0  0  0
    1.3668    2.1928    0.0000 C   0  0  0  0  0  0  0  0  0  0  0  0
    0.3874   -0.5263    0.0000 C   0  0  0  0  0  0  0  0  0  0  0  0
   -1.6153    1.2572    0.0000 C   0  0  0  0  0  0  0  0  0  0  0  0
   -1.3522    2.0320    0.0000 C   0  0  0  0  0  0  0  0  0  0  0  0
    2.1708    2.0173    0.0000 C   0  0  0  0  0  0  0  0  0  0  0  0
    2.2001   -0.2631    0.0000 C   0  0  0  0  0  0  0  0  0  0  0  0
   -0.3289   -0.9356    0.0000 C   0  0  0  0  0  0  0  0  0  0  0  0
   -1.0452   -2.1782    0.0000 C   0  0  0  0  0  0  0  0  0  0  0  0
    0.3874   -2.1928    0.0000 C   0  0  0  0  0  0  0  0  0  0  0  0
  1 14  1  0  0  0  0
  2  5  1  0  0  0  0
  2  7  1  0  0  0  0
  2 13  1  0  0  0  0
  3  9  2  0  0  0  0
  3 16  1  0  0  0  0
  4 18  1  0  0  0  0
  4 19  1  0  0  0  0
  4 20  1  0  0  0  0
  5  6  2  0  0  0  0
  5  9  1  0  0  0  0
  6  8  1  0  0  0  0
  6 12  1  0  0  0  0
  7  8  2  0  0  0  0
  7 10  1  0  0  0  0
  8 11  1  0  0  0  0
  9 17  1  0  0  0  0
 10 14  2  0  0  0  0
 11 15  2  0  0  0  0
 12 16  2  0  0  0  0
 13 18  1  0  0  0  0
 14 15  1  0  0  0  0
M  END
> <PUBCHEM_COMPOUND_ID_TYPE>
0

> <PUBCHEM_TOTAL_CHARGE>
0

> <PUBCHEM_SUBSTANCE_ID>
310945561

> <PUBCHEM_SUBSTANCE_VERSION>
1

> <PUBCHEM_EXT_DATASOURCE_NAME>
4488

> <PUBCHEM_EXT_DATASOURCE_REGID>
SCHEMBL16123659

> <PUBCHEM_SUBSTANCE_COMMENT>
InChI=1S/C16H19N3O/c1-11-16-14(6-7-17-11)13-5-4-12(20)10-15(13)19(16)9-8-18(2)3/h4-7,10,20H,8-9H2,1-3H3
InChIKey=RUCCFFAOEDTSFX-UHFFFAOYSA-N

> <PUBCHEM_SUBSTANCE_SYNONYM>
SCHEMBL16123659

> <PUBCHEM_XREF_EXT_ID>
SCHEMBL16123659

> <PUBCHEM_EXT_DATASOURCE_URL>
https://www.surechembl.org/

> <PUBCHEM_EXT_SUBSTANCE_URL>
https://www.surechembl.org/chemical/SCHEMBL16123659

> <PUBCHEM_CID_ASSOCIATIONS>
117611595  1

> <PUBCHEM_COORDINATE_TYPE>
1
3

$$$$
