310938993
  -OEChem-07211613022D

 27 31  0     0  0  0  0  0  0999 V2000
   -0.9761   15.2984    0.0000 F   0  0  0  0  0  0  0  0  0  0  0  0
   -1.0486   18.1093    0.0000 O   0  0  0  0  0  0  0  0  0  0  0  0
   -0.9761   16.7274    0.0000 N   0  0  0  0  0  0  0  0  0  0  0  0
   -2.9602   15.9024    0.0000 N   0  0  0  0  0  0  0  0  0  0  0  0
    2.8759   11.8274    0.0000 N   0  0  0  0  0  0  0  0  0  0  0  0
   -2.2457   17.1399    0.0000 C   0  0  0  0  0  0  0  0  0  0  0  0
   -1.4611   17.3948    0.0000 C   0  0  0  0  0  0  0  0  0  0  0  0
   -2.2457   16.3149    0.0000 C   0  0  0  0  0  0  0  0  0  0  0  0
   -1.4611   16.0599    0.0000 C   0  0  0  0  0  0  0  0  0  0  0  0
    0.2614   16.0129    0.0000 C   0  0  0  0  0  0  0  0  0  0  0  0
   -0.1511   16.7274    0.0000 C   0  0  0  0  0  0  0  0  0  0  0  0
    1.0864   14.5840    0.0000 C   0  0  0  0  0  0  0  0  0  0  0  0
    1.4989   13.8695    0.0000 C   0  0  0  0  0  0  0  0  0  0  0  0
   -0.1511   15.2984    0.0000 C   0  0  0  0  0  0  0  0  0  0  0  0
   -2.9602   17.5524    0.0000 C   0  0  0  0  0  0  0  0  0  0  0  0
    2.7364   13.1550    0.0000 C   0  0  0  0  0  0  0  0  0  0  0  0
    0.2614   14.5840    0.0000 C   0  0  0  0  0  0  0  0  0  0  0  0
    2.3239   12.4405    0.0000 C   0  0  0  0  0  0  0  0  0  0  0  0
    1.0864   16.0129    0.0000 C   0  0  0  0  0  0  0  0  0  0  0  0
    2.3239   13.8695    0.0000 C   0  0  0  0  0  0  0  0  0  0  0  0
    1.4989   15.2984    0.0000 C   0  0  0  0  0  0  0  0  0  0  0  0
    1.0864   13.1550    0.0000 C   0  0  0  0  0  0  0  0  0  0  0  0
    1.4989   12.4405    0.0000 C   0  0  0  0  0  0  0  0  0  0  0  0
   -3.6746   17.1399    0.0000 C   0  0  0  0  0  0  0  0  0  0  0  0
   -3.6746   16.3149    0.0000 C   0  0  0  0  0  0  0  0  0  0  0  0
    3.5433   12.9835    0.0000 C   0  0  0  0  0  0  0  0  0  0  0  0
    3.6296   12.1630    0.0000 C   0  0  0  0  0  0  0  0  0  0  0  0
  1 14  1  0  0  0  0
  2  7  2  0  0  0  0
  3  7  1  0  0  0  0
  3  9  1  0  0  0  0
  3 11  1  0  0  0  0
  4  8  2  0  0  0  0
  4 25  1  0  0  0  0
  5 18  1  0  0  0  0
  5 27  1  0  0  0  0
  6  7  1  0  0  0  0
  6  8  1  0  0  0  0
  6 15  2  0  0  0  0
  8  9  1  0  0  0  0
 10 11  1  0  0  0  0
 10 14  1  0  0  0  0
 10 19  2  0  0  0  0
 12 13  1  0  0  0  0
 12 17  1  0  0  0  0
 12 21  2  0  0  0  0
 13 20  2  0  0  0  0
 13 22  1  0  0  0  0
 14 17  2  0  0  0  0
 15 24  1  0  0  0  0
 16 18  2  0  0  0  0
 16 20  1  0  0  0  0
 16 26  1  0  0  0  0
 18 23  1  0  0  0  0
 19 21  1  0  0  0  0
 22 23  2  0  0  0  0
 24 25  2  0  0  0  0
 26 27  2  0  0  0  0
M  END
> <PUBCHEM_COMPOUND_ID_TYPE>
0

> <PUBCHEM_TOTAL_CHARGE>
0

> <PUBCHEM_SUBSTANCE_ID>
310938993

> <PUBCHEM_SUBSTANCE_VERSION>
1

> <PUBCHEM_EXT_DATASOURCE_NAME>
4488

> <PUBCHEM_EXT_DATASOURCE_REGID>
SCHEMBL16116912

> <PUBCHEM_SUBSTANCE_COMMENT>
InChI=1S/C22H16FN3O/c23-19-11-15(14-5-6-20-16(10-14)7-9-25-20)3-4-17(19)12-26-13-21-18(22(26)27)2-1-8-24-21/h1-11,25H,12-13H2
InChIKey=VMOJGMBYEMMRCE-UHFFFAOYSA-N

> <PUBCHEM_SUBSTANCE_SYNONYM>
SCHEMBL16116912

> <PUBCHEM_XREF_EXT_ID>
SCHEMBL16116912

> <PUBCHEM_EXT_DATASOURCE_URL>
https://www.surechembl.org/

> <PUBCHEM_EXT_SUBSTANCE_URL>
https://www.surechembl.org/chemical/SCHEMBL16116912

> <PUBCHEM_CID_ASSOCIATIONS>
117606377  1

> <PUBCHEM_COORDINATE_TYPE>
1
3

$$$$
