310947701
  -OEChem-07211613022D

 44 48  0     1  0  0  0  0  0999 V2000
    0.8451   -3.5412    0.0000 Cl  0  0  0  0  0  0  0  0  0  0  0  0
   -4.4492   -2.2980    0.0000 Cl  0  0  0  0  0  0  0  0  0  0  0  0
   -2.7450    1.8649    0.0000 S   0  0  0  0  0  0  0  0  0  0  0  0
    0.1327   -0.6356    0.0000 O   0  0  0  0  0  0  0  0  0  0  0  0
   -0.5937    1.4458    0.0000 O   0  0  0  0  0  0  0  0  0  0  0  0
   -3.3317    1.2782    0.0000 O   0  0  0  0  0  0  0  0  0  0  0  0
   -3.4714    2.2700    0.0000 O   0  0  0  0  0  0  0  0  0  0  0  0
    4.4492   -0.6356    0.0000 O   0  0  0  0  0  0  0  0  0  0  0  0
    3.7368   -1.8789    0.0000 O   0  0  0  0  0  0  0  0  0  0  0  0
   -1.3061    0.2025    0.0000 N   0  0  0  0  0  0  0  0  0  0  0  0
    2.2980    0.6216    0.0000 N   0  0  0  0  0  0  0  0  0  0  0  0
   -1.3061   -0.6216    0.0000 C   0  0  3  0  0  0  0  0  0  0  0  0
    0.1187    0.2165    0.0000 C   0  0  3  0  0  0  0  0  0  0  0  0
   -0.6077    0.6077    0.0000 C   0  0  0  0  0  0  0  0  0  0  0  0
   -0.5658   -1.0407    0.0000 C   0  0  3  0  0  0  0  0  0  0  0  0
   -2.0326    0.6356    0.0000 C   0  0  3  0  0  0  0  0  0  0  0  0
   -2.8009    0.1746    0.0000 C   0  0  0  0  0  0  0  0  0  0  0  0
   -2.0465   -1.0407    0.0000 C   0  0  0  0  0  0  0  0  0  0  0  0
   -0.5797   -1.8789    0.0000 C   0  0  0  0  0  0  0  0  0  0  0  0
   -2.0186    1.4458    0.0000 C   0  0  0  0  0  0  0  0  0  0  0  0
    0.8451    0.6077    0.0000 C   0  0  0  0  0  0  0  0  0  0  0  0
   -3.5552    0.2025    0.0000 C   0  0  0  0  0  0  0  0  0  0  0  0
   -3.1501   -0.4820    0.0000 C   0  0  0  0  0  0  0  0  0  0  0  0
    0.3562    1.0128    0.0000 C   0  0  0  0  0  0  0  0  0  0  0  0
   -2.7450    2.7171    0.0000 C   0  0  0  0  0  0  0  0  0  0  0  0
    1.5855    0.2165    0.0000 C   0  0  0  0  0  0  0  0  0  0  0  0
   -2.7450   -0.6356    0.0000 C   0  0  0  0  0  0  0  0  0  0  0  0
   -2.0326   -1.8649    0.0000 C   0  0  0  0  0  0  0  0  0  0  0  0
    0.1327   -2.2980    0.0000 C   0  0  0  0  0  0  0  0  0  0  0  0
   -1.3061   -2.2840    0.0000 C   0  0  0  0  0  0  0  0  0  0  0  0
    0.1187   -3.1082    0.0000 C   0  0  0  0  0  0  0  0  0  0  0  0
   -3.4435   -1.0407    0.0000 C   0  0  0  0  0  0  0  0  0  0  0  0
   -2.7310   -2.2700    0.0000 C   0  0  0  0  0  0  0  0  0  0  0  0
   -3.4574   -1.8649    0.0000 C   0  0  0  0  0  0  0  0  0  0  0  0
    1.5715   -0.6216    0.0000 C   0  0  0  0  0  0  0  0  0  0  0  0
   -1.3061   -3.1082    0.0000 C   0  0  0  0  0  0  0  0  0  0  0  0
   -0.5797   -3.5273    0.0000 C   0  0  0  0  0  0  0  0  0  0  0  0
   -2.7450    3.5412    0.0000 C   0  0  0  0  0  0  0  0  0  0  0  0
   -3.4714    3.0943    0.0000 C   0  0  0  0  0  0  0  0  0  0  0  0
   -2.0046    3.1221    0.0000 C   0  0  0  0  0  0  0  0  0  0  0  0
    3.0104    0.2025    0.0000 C   0  0  0  0  0  0  0  0  0  0  0  0
    2.3119   -1.0407    0.0000 C   0  0  0  0  0  0  0  0  0  0  0  0
    3.0104   -0.6216    0.0000 C   0  0  0  0  0  0  0  0  0  0  0  0
    3.7228   -1.0407    0.0000 C   0  0  0  0  0  0  0  0  0  0  0  0
  1 31  1  0  0  0  0
  2 34  1  0  0  0  0
  3  6  2  0  0  0  0
  3  7  2  0  0  0  0
  3 20  1  0  0  0  0
  3 25  1  0  0  0  0
  4 13  1  0  0  0  0
 15  4  1  6  0  0  0
  5 14  2  0  0  0  0
  8 44  2  0  0  0  0
  9 44  1  0  0  0  0
 12 10  1  1  0  0  0
 10 14  1  0  0  0  0
 10 16  1  0  0  0  0
 11 26  1  0  0  0  0
 11 41  2  0  0  0  0
 12 15  1  0  0  0  0
 12 18  1  0  0  0  0
 13 14  1  0  0  0  0
 13 21  1  6  0  0  0
 13 24  1  1  0  0  0
 15 19  1  0  0  0  0
 16 17  1  0  0  0  0
 16 20  1  1  0  0  0
 17 22  1  0  0  0  0
 17 23  1  0  0  0  0
 18 27  2  0  0  0  0
 18 28  1  0  0  0  0
 19 29  1  0  0  0  0
 19 30  2  0  0  0  0
 21 26  1  0  0  0  0
 22 23  1  0  0  0  0
 25 38  1  0  0  0  0
 25 39  1  0  0  0  0
 25 40  1  0  0  0  0
 26 35  2  0  0  0  0
 27 32  1  0  0  0  0
 28 33  2  0  0  0  0
 29 31  2  0  0  0  0
 30 36  1  0  0  0  0
 31 37  1  0  0  0  0
 32 34  2  0  0  0  0
 33 34  1  0  0  0  0
 35 42  1  0  0  0  0
 36 37  2  0  0  0  0
 41 43  1  0  0  0  0
 42 43  2  0  0  0  0
 43 44  1  0  0  0  0
M  END
> <PUBCHEM_COMPOUND_ID_TYPE>
0

> <PUBCHEM_TOTAL_CHARGE>
0

> <PUBCHEM_SUBSTANCE_ID>
310947701

> <PUBCHEM_SUBSTANCE_VERSION>
1

> <PUBCHEM_EXT_DATASOURCE_NAME>
4488

> <PUBCHEM_EXT_DATASOURCE_REGID>
SCHEMBL16125872

> <PUBCHEM_SUBSTANCE_COMMENT>
InChI=1S/C33H36Cl2N2O6S/c1-32(2,3)44(41,42)19-27(20-8-9-20)37-28(21-10-13-24(34)14-11-21)29(22-6-5-7-25(35)16-22)43-33(4,31(37)40)17-26-15-12-23(18-36-26)30(38)39/h5-7,10-16,18,20,27-29H,8-9,17,19H2,1-4H3,(H,38,39)/t27-,28-,29-,33+/m1/s1
InChIKey=OTQRFDJHHZHHNT-LNHQPZRBSA-N

> <PUBCHEM_SUBSTANCE_SYNONYM>
SCHEMBL16125872

> <PUBCHEM_XREF_EXT_ID>
SCHEMBL16125872

> <PUBCHEM_EXT_DATASOURCE_URL>
https://www.surechembl.org/

> <PUBCHEM_EXT_SUBSTANCE_URL>
https://www.surechembl.org/chemical/SCHEMBL16125872

> <PUBCHEM_CID_ASSOCIATIONS>
73386676  1

> <PUBCHEM_COORDINATE_TYPE>
1
3

> <PUBCHEM_BONDANNOTATIONS>
12  10  5
13  21  6
13  24  5
16  20  5
15  4  6

$$$$
