310933121
  -OEChem-07211613022D

 26 28  0     0  0  0  0  0  0999 V2000
    0.8250   -0.7333    0.0000 S   0  0  0  0  0  0  0  0  0  0  0  0
    1.1916    0.0000    0.0000 F   0  0  0  0  0  0  0  0  0  0  0  0
    0.0000   -0.8250    0.0000 F   0  0  0  0  0  0  0  0  0  0  0  0
    1.6499   -0.6722    0.0000 F   0  0  0  0  0  0  0  0  0  0  0  0
    0.4889   -1.4972    0.0000 F   0  0  0  0  0  0  0  0  0  0  0  0
    0.3667   -0.0611    0.0000 F   0  0  0  0  0  0  0  0  0  0  0  0
    3.7888   -5.9276    0.0000 O   0  0  0  0  0  0  0  0  0  0  0  0
    5.5915   -3.8805    0.0000 O   0  0  0  0  0  0  0  0  0  0  0  0
    6.8443   -4.5832    0.0000 O   0  0  0  0  0  0  0  0  0  0  0  0
    3.5749   -3.4221    0.0000 N   0  0  0  0  0  0  0  0  0  0  0  0
    3.1471   -4.7054    0.0000 N   0  0  0  0  0  0  0  0  0  0  0  0
    5.5915   -5.2859    0.0000 N   0  0  0  0  0  0  0  0  0  0  0  0
    1.3139   -1.4361    0.0000 C   0  0  0  0  0  0  0  0  0  0  0  0
    0.9777   -2.1694    0.0000 C   0  0  0  0  0  0  0  0  0  0  0  0
    2.1388   -1.3444    0.0000 C   0  0  0  0  0  0  0  0  0  0  0  0
    2.2916   -2.7805    0.0000 C   0  0  0  0  0  0  0  0  0  0  0  0
    1.4361   -2.8416    0.0000 C   0  0  0  0  0  0  0  0  0  0  0  0
    2.5971   -2.0166    0.0000 C   0  0  0  0  0  0  0  0  0  0  0  0
    4.7666   -5.2859    0.0000 C   0  0  0  0  0  0  0  0  0  0  0  0
    2.7499   -3.4221    0.0000 C   0  0  0  0  0  0  0  0  0  0  0  0
    3.8193   -4.2165    0.0000 C   0  0  0  0  0  0  0  0  0  0  0  0
    4.6137   -4.4915    0.0000 C   0  0  0  0  0  0  0  0  0  0  0  0
    3.9415   -5.1332    0.0000 C   0  0  0  0  0  0  0  0  0  0  0  0
    4.6137   -6.1110    0.0000 C   0  0  0  0  0  0  0  0  0  0  0  0
    2.5055   -4.2165    0.0000 C   0  0  0  0  0  0  0  0  0  0  0  0
    6.0193   -4.5832    0.0000 C   0  0  0  0  0  0  0  0  0  0  0  0
  1  2  1  0  0  0  0
  1  3  1  0  0  0  0
  1  4  1  0  0  0  0
  1  5  1  0  0  0  0
  1  6  1  0  0  0  0
  1 13  1  0  0  0  0
  7 23  1  0  0  0  0
  7 24  1  0  0  0  0
  8 26  2  0  0  0  0
  9 26  1  0  0  0  0
 10 20  1  0  0  0  0
 10 21  2  0  0  0  0
 11 21  1  0  0  0  0
 11 25  1  0  0  0  0
 12 19  1  0  0  0  0
 12 26  1  0  0  0  0
 13 14  2  0  0  0  0
 13 15  1  0  0  0  0
 14 17  1  0  0  0  0
 15 18  2  0  0  0  0
 16 17  2  0  0  0  0
 16 18  1  0  0  0  0
 16 20  1  0  0  0  0
 19 22  1  0  0  0  0
 19 23  1  0  0  0  0
 19 24  1  0  0  0  0
 20 25  2  0  0  0  0
 21 22  1  0  0  0  0
M  END
> <PUBCHEM_COMPOUND_ID_TYPE>
0

> <PUBCHEM_TOTAL_CHARGE>
0

> <PUBCHEM_SUBSTANCE_ID>
310933121

> <PUBCHEM_SUBSTANCE_VERSION>
1

> <PUBCHEM_EXT_DATASOURCE_NAME>
4488

> <PUBCHEM_EXT_DATASOURCE_REGID>
SCHEMBL16110524

> <PUBCHEM_SUBSTANCE_COMMENT>
InChI=1S/C14H14F5N3O3S/c15-26(16,17,18,19)10-3-1-9(2-4-10)11-6-20-12(21-11)5-14(7-25-8-14)22-13(23)24/h1-4,6,22H,5,7-8H2,(H,20,21)(H,23,24)
InChIKey=AWRPGWOVCAOAPX-UHFFFAOYSA-N

> <PUBCHEM_SUBSTANCE_SYNONYM>
SCHEMBL16110524

> <PUBCHEM_XREF_EXT_ID>
SCHEMBL16110524

> <PUBCHEM_EXT_DATASOURCE_URL>
https://www.surechembl.org/

> <PUBCHEM_EXT_SUBSTANCE_URL>
https://www.surechembl.org/chemical/SCHEMBL16110524

> <PUBCHEM_CID_ASSOCIATIONS>
117601577  1

> <PUBCHEM_COORDINATE_TYPE>
1
3

$$$$
