310936169
  -OEChem-07211613022D

 42 47  0     1  0  0  0  0  0999 V2000
    7.3920   -2.5410    0.0000 Cl  0  0  0  0  0  0  0  0  0  0  0  0
    6.5010   -1.1220    0.0000 O   0  0  0  0  0  0  0  0  0  0  0  0
    8.6130   -4.8180    0.0000 O   0  0  0  0  0  0  0  0  0  0  0  0
    7.2270   -3.1680    0.0000 O   0  0  0  0  0  0  0  0  0  0  0  0
    7.9200   -1.9470    0.0000 O   0  0  0  0  0  0  0  0  0  0  0  0
    4.3890   -3.1680    0.0000 N   0  0  0  0  0  0  0  0  0  0  0  0
    3.7620   -3.7290    0.0000 N   0  0  0  0  0  0  0  0  0  0  0  0
    8.6130   -3.2010    0.0000 N   0  0  0  0  0  0  0  0  0  0  0  0
    0.4290   -6.6000    0.0000 N   0  0  0  0  0  0  0  0  0  0  0  0
    5.8080   -3.1680    0.0000 C   0  0  0  0  0  0  0  0  0  0  0  0
    5.0820   -3.5640    0.0000 C   0  0  0  0  0  0  0  0  0  0  0  0
    5.8080   -2.3430    0.0000 C   0  0  0  0  0  0  0  0  0  0  0  0
    6.5010   -3.5970    0.0000 C   0  0  0  0  0  0  0  0  0  0  0  0
    5.0820   -1.9470    0.0000 C   0  0  0  0  0  0  0  0  0  0  0  0
    6.5010   -1.9470    0.0000 C   0  0  3  0  0  0  0  0  0  0  0  0
    4.0920   -4.4880    0.0000 C   0  0  0  0  0  0  0  0  0  0  0  0
    4.9170   -4.3890    0.0000 C   0  0  0  0  0  0  0  0  0  0  0  0
    7.3590   -3.3330    0.0000 C   0  0  0  0  0  0  0  0  0  0  0  0
    4.3890   -2.3430    0.0000 C   0  0  0  0  0  0  0  0  0  0  0  0
    7.8870   -3.5970    0.0000 C   0  0  0  0  0  0  0  0  0  0  0  0
    6.5010   -4.3890    0.0000 C   0  0  0  0  0  0  0  0  0  0  0  0
    3.6960   -5.1810    0.0000 C   0  0  0  0  0  0  0  0  0  0  0  0
    7.8870   -4.4220    0.0000 C   0  0  0  0  0  0  0  0  0  0  0  0
    7.2270   -2.3430    0.0000 C   0  0  0  0  0  0  0  0  0  0  0  0
    7.1940   -4.8180    0.0000 C   0  0  0  0  0  0  0  0  0  0  0  0
    5.0820   -1.1220    0.0000 C   0  0  0  0  0  0  0  0  0  0  0  0
    5.8080   -0.7260    0.0000 C   0  0  0  0  0  0  0  0  0  0  0  0
    2.8710   -5.1810    0.0000 C   0  0  0  0  0  0  0  0  0  0  0  0
    4.0920   -5.9070    0.0000 C   0  0  0  0  0  0  0  0  0  0  0  0
    2.4750   -5.9070    0.0000 C   0  0  0  0  0  0  0  0  0  0  0  0
    9.3390   -3.5970    0.0000 C   0  0  0  0  0  0  0  0  0  0  0  0
    9.3390   -4.4220    0.0000 C   0  0  0  0  0  0  0  0  0  0  0  0
    3.6960   -6.6000    0.0000 C   0  0  0  0  0  0  0  0  0  0  0  0
    2.8710   -6.6000    0.0000 C   0  0  0  0  0  0  0  0  0  0  0  0
    1.6500   -5.9070    0.0000 C   0  0  0  0  0  0  0  0  0  0  0  0
    5.0820   -0.2970    0.0000 C   0  0  0  0  0  0  0  0  0  0  0  0
    6.2370    0.0000    0.0000 C   0  0  0  0  0  0  0  0  0  0  0  0
    5.3790   -1.4190    0.0000 C   0  0  0  0  0  0  0  0  0  0  0  0
    1.2210   -6.6000    0.0000 C   0  0  0  0  0  0  0  0  0  0  0  0
    1.2210   -5.1810    0.0000 C   0  0  0  0  0  0  0  0  0  0  0  0
    0.4290   -5.1810    0.0000 C   0  0  0  0  0  0  0  0  0  0  0  0
    0.0000   -5.9070    0.0000 C   0  0  0  0  0  0  0  0  0  0  0  0
  1 18  1  0  0  0  0
 15  2  1  6  0  0  0
  2 27  1  0  0  0  0
  3 23  1  0  0  0  0
  3 32  1  0  0  0  0
  4 24  2  0  0  0  0
  5 24  1  0  0  0  0
  6  7  1  0  0  0  0
  6 11  1  0  0  0  0
  6 19  1  0  0  0  0
  7 16  2  0  0  0  0
  8 20  1  0  0  0  0
  8 31  1  0  0  0  0
  9 39  1  0  0  0  0
  9 42  2  0  0  0  0
 10 11  1  0  0  0  0
 10 12  2  0  0  0  0
 10 13  1  0  0  0  0
 11 17  2  0  0  0  0
 12 14  1  0  0  0  0
 12 15  1  0  0  0  0
 13 18  2  0  0  0  0
 13 21  1  0  0  0  0
 14 19  2  0  0  0  0
 14 26  1  0  0  0  0
 15 24  1  0  0  0  0
 16 17  1  0  0  0  0
 16 22  1  0  0  0  0
 18 20  1  0  0  0  0
 20 23  2  0  0  0  0
 21 25  2  0  0  0  0
 22 28  1  0  0  0  0
 22 29  2  0  0  0  0
 23 25  1  0  0  0  0
 27 36  1  0  0  0  0
 27 37  1  0  0  0  0
 27 38  1  0  0  0  0
 28 30  2  0  0  0  0
 29 33  1  0  0  0  0
 30 34  1  0  0  0  0
 30 35  1  0  0  0  0
 31 32  1  0  0  0  0
 33 34  2  0  0  0  0
 35 39  2  0  0  0  0
 35 40  1  0  0  0  0
 40 41  2  0  0  0  0
 41 42  1  0  0  0  0
M  END
> <PUBCHEM_COMPOUND_ID_TYPE>
0

> <PUBCHEM_TOTAL_CHARGE>
0

> <PUBCHEM_SUBSTANCE_ID>
310936169

> <PUBCHEM_SUBSTANCE_VERSION>
1

> <PUBCHEM_EXT_DATASOURCE_NAME>
4488

> <PUBCHEM_EXT_DATASOURCE_REGID>
SCHEMBL16113779

> <PUBCHEM_SUBSTANCE_COMMENT>
InChI=1S/C33H31ClN4O4/c1-19-18-38-25(16-24(37-38)21-8-5-7-20(15-21)22-9-6-12-35-17-22)28(27(19)31(32(39)40)42-33(2,3)4)23-10-11-26-30(29(23)34)36-13-14-41-26/h5-12,15-18,31,36H,13-14H2,1-4H3,(H,39,40)/t31-/m0/s1
InChIKey=BKIBDBSJHHXSKA-HKBQPEDESA-N

> <PUBCHEM_SUBSTANCE_SYNONYM>
SCHEMBL16113779

> <PUBCHEM_XREF_EXT_ID>
SCHEMBL16113779

> <PUBCHEM_EXT_DATASOURCE_URL>
https://www.surechembl.org/

> <PUBCHEM_EXT_SUBSTANCE_URL>
https://www.surechembl.org/chemical/SCHEMBL16113779

> <PUBCHEM_CID_ASSOCIATIONS>
86299874  1

> <PUBCHEM_COORDINATE_TYPE>
1
3

> <PUBCHEM_BONDANNOTATIONS>
15  2  6

$$$$
