310931629
  -OEChem-07211613022D

 33 36  0     1  0  0  0  0  0999 V2000
    8.0916   -0.7298    0.0000 F   0  0  0  0  0  0  0  0  0  0  0  0
    5.7435   -2.0626    0.0000 O   0  0  0  0  0  0  0  0  0  0  0  0
    1.6183   -3.7761    0.0000 O   0  0  0  0  0  0  0  0  0  0  0  0
    5.3627   -3.4588    0.0000 N   0  0  0  0  0  0  0  0  0  0  0  0
    5.7752   -4.1886    0.0000 N   0  0  0  0  0  0  0  0  0  0  0  0
    4.0934   -4.0300    0.0000 N   0  0  0  0  0  0  0  0  0  0  0  0
    1.7770   -2.3481    0.0000 N   0  0  0  0  0  0  0  0  0  0  0  0
    1.1423   -0.8567    0.0000 N   0  0  3  0  0  0  0  0  0  0  0  0
    9.5196   -0.7298    0.0000 N   0  0  0  0  0  0  0  0  0  0  0  0
    6.6637   -3.1732    0.0000 C   0  0  0  0  0  0  0  0  0  0  0  0
    5.9022   -2.8559    0.0000 C   0  0  0  0  0  0  0  0  0  0  0  0
    7.3618   -2.7607    0.0000 C   0  0  0  0  0  0  0  0  0  0  0  0
    4.5694   -3.3636    0.0000 C   0  0  0  0  0  0  0  0  0  0  0  0
    6.5685   -3.9982    0.0000 C   0  0  0  0  0  0  0  0  0  0  0  0
    8.0916   -3.1732    0.0000 C   0  0  0  0  0  0  0  0  0  0  0  0
    7.3618   -1.9674    0.0000 C   0  0  0  0  0  0  0  0  0  0  0  0
    2.9194   -3.2050    0.0000 C   0  0  0  0  0  0  0  0  0  0  0  0
    2.0943   -3.1097    0.0000 C   0  0  0  0  0  0  0  0  0  0  0  0
    8.0916   -1.5549    0.0000 C   0  0  0  0  0  0  0  0  0  0  0  0
    4.2204   -2.6020    0.0000 C   0  0  0  0  0  0  0  0  0  0  0  0
    8.7897   -1.9674    0.0000 C   0  0  0  0  0  0  0  0  0  0  0  0
    8.7897   -2.7607    0.0000 C   0  0  0  0  0  0  0  0  0  0  0  0
    3.2366   -3.9665    0.0000 C   0  0  0  0  0  0  0  0  0  0  0  0
    3.3953   -2.5386    0.0000 C   0  0  0  0  0  0  0  0  0  0  0  0
    0.9837   -2.2530    0.0000 C   0  0  3  0  0  0  0  0  0  0  0  0
    2.2847   -1.7136    0.0000 C   0  0  0  0  0  0  0  0  0  0  0  0
    8.0916   -3.9982    0.0000 C   0  0  0  0  0  0  0  0  0  0  0  0
    0.6347   -1.4914    0.0000 C   0  0  0  0  0  0  0  0  0  0  0  0
    9.5196   -1.5549    0.0000 C   0  0  0  0  0  0  0  0  0  0  0  0
    1.9674   -0.9520    0.0000 C   0  0  0  0  0  0  0  0  0  0  0  0
    0.5077   -2.9194    0.0000 C   0  0  0  0  0  0  0  0  0  0  0  0
    0.7933   -0.0952    0.0000 C   0  0  0  0  0  0  0  0  0  0  0  0
    0.0000    0.0000    0.0000 C   0  0  0  0  0  0  0  0  0  0  0  0
  1 19  1  0  0  0  0
  2 11  1  0  0  0  0
  3 18  2  0  0  0  0
  4  5  1  0  0  0  0
  4 11  1  0  0  0  0
  4 13  1  0  0  0  0
  5 14  2  0  0  0  0
  6 13  1  0  0  0  0
  6 23  2  0  0  0  0
  7 18  1  0  0  0  0
  7 25  1  0  0  0  0
  7 26  1  0  0  0  0
  8 28  1  0  0  0  0
  8 30  1  0  0  0  0
  8 32  1  0  0  0  0
  9 29  3  0  0  0  0
 10 11  2  0  0  0  0
 10 12  1  0  0  0  0
 10 14  1  0  0  0  0
 12 15  1  0  0  0  0
 12 16  2  0  0  0  0
 13 20  2  0  0  0  0
 15 22  2  0  0  0  0
 15 27  1  0  0  0  0
 16 19  1  0  0  0  0
 17 18  1  0  0  0  0
 17 23  1  0  0  0  0
 17 24  2  0  0  0  0
 19 21  2  0  0  0  0
 20 24  1  0  0  0  0
 21 22  1  0  0  0  0
 21 29  1  0  0  0  0
 25 28  1  0  0  0  0
 25 31  1  1  0  0  0
 26 30  1  0  0  0  0
 32 33  1  0  0  0  0
M  END
> <PUBCHEM_COMPOUND_ID_TYPE>
0

> <PUBCHEM_TOTAL_CHARGE>
0

> <PUBCHEM_SUBSTANCE_ID>
310931629

> <PUBCHEM_SUBSTANCE_VERSION>
1

> <PUBCHEM_EXT_DATASOURCE_NAME>
4488

> <PUBCHEM_EXT_DATASOURCE_REGID>
SCHEMBL16108955

> <PUBCHEM_SUBSTANCE_COMMENT>
InChI=1S/C24H25FN6O2/c1-4-29-7-8-30(16(3)14-29)23(32)17-5-6-22(27-12-17)31-24(33)20(13-28-31)19-10-21(25)18(11-26)9-15(19)2/h5-6,9-10,12-13,16,33H,4,7-8,14H2,1-3H3/t16-/m0/s1
InChIKey=ZESMXBFMRPIQSH-INIZCTEOSA-N

> <PUBCHEM_SUBSTANCE_SYNONYM>
SCHEMBL16108955

> <PUBCHEM_XREF_EXT_ID>
SCHEMBL16108955

> <PUBCHEM_EXT_DATASOURCE_URL>
https://www.surechembl.org/

> <PUBCHEM_EXT_SUBSTANCE_URL>
https://www.surechembl.org/chemical/SCHEMBL16108955

> <PUBCHEM_CID_ASSOCIATIONS>
117600346  1

> <PUBCHEM_COORDINATE_TYPE>
1
3

> <PUBCHEM_BONDANNOTATIONS>
25  31  5

$$$$
