310949282
  -OEChem-07211613022D

 39 43  0     0  0  0  0  0  0999 V2000
   -0.0091    0.1729    0.0000 N   0  0  0  0  0  0  0  0  0  0  0  0
    2.1561   -0.3002    0.0000 N   0  0  0  0  0  0  0  0  0  0  0  0
   -0.0819   -3.9028    0.0000 N   0  0  0  0  0  0  0  0  0  0  0  0
   -0.0455   -0.6095    0.0000 C   0  0  0  0  0  0  0  0  0  0  0  0
    0.4093    1.4283    0.0000 C   0  0  0  0  0  0  0  0  0  0  0  0
    0.7369   -1.0280    0.0000 C   0  0  0  0  0  0  0  0  0  0  0  0
    0.6641    0.7005    0.0000 C   0  0  0  0  0  0  0  0  0  0  0  0
   -0.7551   -1.0280    0.0000 C   0  0  0  0  0  0  0  0  0  0  0  0
    0.6823   -1.8467    0.0000 C   0  0  0  0  0  0  0  0  0  0  0  0
   -0.4458    1.4829    0.0000 C   0  0  0  0  0  0  0  0  0  0  0  0
   -0.0273   -2.2288    0.0000 C   0  0  0  0  0  0  0  0  0  0  0  0
   -0.7914   -1.8467    0.0000 C   0  0  0  0  0  0  0  0  0  0  0  0
    0.9734    2.0469    0.0000 C   0  0  0  0  0  0  0  0  0  0  0  0
    1.7921    1.9014    0.0000 C   0  0  0  0  0  0  0  0  0  0  0  0
   -0.7369    0.7005    0.0000 C   0  0  0  0  0  0  0  0  0  0  0  0
    1.5011    0.5368    0.0000 C   0  0  0  0  0  0  0  0  0  0  0  0
   -1.0462    2.0651    0.0000 C   0  0  0  0  0  0  0  0  0  0  0  0
   -1.8467    1.9014    0.0000 C   0  0  0  0  0  0  0  0  0  0  0  0
    2.0469    1.1008    0.0000 C   0  0  0  0  0  0  0  0  0  0  0  0
    1.4465   -0.6459    0.0000 C   0  0  0  0  0  0  0  0  0  0  0  0
    2.3562    2.5382    0.0000 C   0  0  0  0  0  0  0  0  0  0  0  0
   -0.0637   -3.1022    0.0000 C   0  0  0  0  0  0  0  0  0  0  0  0
   -1.5557    0.5368    0.0000 C   0  0  0  0  0  0  0  0  0  0  0  0
   -1.5011   -0.5914    0.0000 C   0  0  0  0  0  0  0  0  0  0  0  0
   -2.1197    1.1008    0.0000 C   0  0  0  0  0  0  0  0  0  0  0  0
   -2.4472    2.5200    0.0000 C   0  0  0  0  0  0  0  0  0  0  0  0
    1.4829   -2.2652    0.0000 C   0  0  0  0  0  0  0  0  0  0  0  0
   -1.5011   -2.2470    0.0000 C   0  0  0  0  0  0  0  0  0  0  0  0
   -0.2274    0.3730    0.0000 C   0  0  0  0  0  0  0  0  0  0  0  0
    3.1931    2.3744    0.0000 C   0  0  0  0  0  0  0  0  0  0  0  0
    2.1197    3.2660    0.0000 C   0  0  0  0  0  0  0  0  0  0  0  0
   -2.1924    3.2842    0.0000 C   0  0  0  0  0  0  0  0  0  0  0  0
   -3.1749    2.3562    0.0000 C   0  0  0  0  0  0  0  0  0  0  0  0
    3.7572    2.9566    0.0000 C   0  0  0  0  0  0  0  0  0  0  0  0
    2.6655    3.8846    0.0000 C   0  0  0  0  0  0  0  0  0  0  0  0
   -2.7201    3.9028    0.0000 C   0  0  0  0  0  0  0  0  0  0  0  0
   -3.7572    2.9203    0.0000 C   0  0  0  0  0  0  0  0  0  0  0  0
    3.4661    3.7390    0.0000 C   0  0  0  0  0  0  0  0  0  0  0  0
   -3.4843    3.7208    0.0000 C   0  0  0  0  0  0  0  0  0  0  0  0
  1  4  1  0  0  0  0
  1  7  1  0  0  0  0
  2 20  3  0  0  0  0
  3 22  3  0  0  0  0
  4  6  2  0  0  0  0
  4  8  1  0  0  0  0
  5  7  2  0  0  0  0
  5 10  1  0  0  0  0
  5 13  1  0  0  0  0
  6  9  1  0  0  0  0
  6 20  1  0  0  0  0
  7 16  1  0  0  0  0
  8 12  2  0  0  0  0
  8 24  1  0  0  0  0
  9 11  2  0  0  0  0
  9 27  1  0  0  0  0
 10 15  2  0  0  0  0
 10 17  1  0  0  0  0
 11 12  1  0  0  0  0
 11 22  1  0  0  0  0
 12 28  1  0  0  0  0
 13 14  2  0  0  0  0
 14 19  1  0  0  0  0
 14 21  1  0  0  0  0
 15 23  1  0  0  0  0
 15 29  1  0  0  0  0
 16 19  2  0  0  0  0
 17 18  2  0  0  0  0
 18 25  1  0  0  0  0
 18 26  1  0  0  0  0
 21 30  2  0  0  0  0
 21 31  1  0  0  0  0
 23 25  2  0  0  0  0
 26 32  2  0  0  0  0
 26 33  1  0  0  0  0
 30 34  1  0  0  0  0
 31 35  2  0  0  0  0
 32 36  1  0  0  0  0
 33 37  2  0  0  0  0
 34 38  2  0  0  0  0
 35 38  1  0  0  0  0
 36 39  2  0  0  0  0
 37 39  1  0  0  0  0
M  END
> <PUBCHEM_COMPOUND_ID_TYPE>
0

> <PUBCHEM_TOTAL_CHARGE>
0

> <PUBCHEM_SUBSTANCE_ID>
310949282

> <PUBCHEM_SUBSTANCE_VERSION>
1

> <PUBCHEM_EXT_DATASOURCE_NAME>
4488

> <PUBCHEM_EXT_DATASOURCE_REGID>
SCHEMBL16127472

> <PUBCHEM_SUBSTANCE_COMMENT>
InChI=1S/C36H29N3/c1-23-15-16-29(27-11-7-5-8-12-27)19-31(23)32-20-30(28-13-9-6-10-14-28)17-18-35(32)39-36-25(3)24(2)33(21-37)26(4)34(36)22-38/h5-20,39H,1-4H3
InChIKey=XKZRDVWMIMOGTL-UHFFFAOYSA-N

> <PUBCHEM_SUBSTANCE_SYNONYM>
SCHEMBL16127472

> <PUBCHEM_XREF_EXT_ID>
SCHEMBL16127472

> <PUBCHEM_EXT_DATASOURCE_URL>
https://www.surechembl.org/

> <PUBCHEM_EXT_SUBSTANCE_URL>
https://www.surechembl.org/chemical/SCHEMBL16127472

> <PUBCHEM_CID_ASSOCIATIONS>
117614768  1

> <PUBCHEM_COORDINATE_TYPE>
1
3

$$$$
