310948753
  -OEChem-07211613022D

 37 41  0     1  0  0  0  0  0999 V2000
   -2.4119    4.0816    0.0000 O   0  0  0  0  0  0  0  0  0  0  0  0
   -0.9001   -3.7793    0.0000 O   0  0  0  0  0  0  0  0  0  0  0  0
    0.3367   -3.0647    0.0000 O   0  0  0  0  0  0  0  0  0  0  0  0
    0.1581    3.1059    0.0000 N   0  0  0  0  0  0  0  0  0  0  0  0
   -0.3917    2.4875    0.0000 N   0  0  0  0  0  0  0  0  0  0  0  0
   -1.8759    2.4325    0.0000 N   0  0  0  0  0  0  0  0  0  0  0  0
   -1.3537    5.0436    0.0000 N   0  0  0  0  0  0  0  0  0  0  0  0
   -0.8864   -0.9345    0.0000 N   0  0  3  0  0  0  0  0  0  0  0  0
    0.3367    0.9345    0.0000 N   0  0  0  0  0  0  0  0  0  0  0  0
   -1.0651    3.6556    0.0000 C   0  0  0  0  0  0  0  0  0  0  0  0
   -0.2680    3.8205    0.0000 C   0  0  0  0  0  0  0  0  0  0  0  0
   -1.1476    2.8310    0.0000 C   0  0  0  0  0  0  0  0  0  0  0  0
    0.9689    3.0235    0.0000 C   0  0  3  0  0  0  0  0  0  0  0  0
   -1.6285    4.2603    0.0000 C   0  0  0  0  0  0  0  0  0  0  0  0
   -0.0069    4.6039    0.0000 C   0  0  0  0  0  0  0  0  0  0  0  0
   -1.8896    1.6079    0.0000 C   0  0  0  0  0  0  0  0  0  0  0  0
    1.2987    2.2813    0.0000 C   0  0  3  0  0  0  0  0  0  0  0  0
   -1.1750    0.3848    0.0000 C   0  0  0  0  0  0  0  0  0  0  0  0
   -0.5428    5.2086    0.0000 C   0  0  0  0  0  0  0  0  0  0  0  0
    1.4498    3.6831    0.0000 C   0  0  0  0  0  0  0  0  0  0  0  0
   -1.8759   -0.0275    0.0000 C   0  0  0  0  0  0  0  0  0  0  0  0
   -1.1750    1.1956    0.0000 C   0  0  0  0  0  0  0  0  0  0  0  0
   -2.5905    1.1956    0.0000 C   0  0  0  0  0  0  0  0  0  0  0  0
   -0.5703   -0.1787    0.0000 C   0  0  0  0  0  0  0  0  0  0  0  0
   -2.5905    0.3848    0.0000 C   0  0  0  0  0  0  0  0  0  0  0  0
    2.1233    2.1851    0.0000 C   0  0  0  0  0  0  0  0  0  0  0  0
   -1.7110   -0.8383    0.0000 C   0  0  0  0  0  0  0  0  0  0  0  0
    0.8039    1.6217    0.0000 C   0  0  0  0  0  0  0  0  0  0  0  0
    2.2607    3.6007    0.0000 C   0  0  0  0  0  0  0  0  0  0  0  0
    2.5905    2.8723    0.0000 C   0  0  0  0  0  0  0  0  0  0  0  0
   -0.4878   -1.6354    0.0000 C   0  0  0  0  0  0  0  0  0  0  0  0
   -0.8864   -2.3638    0.0000 C   0  0  0  0  0  0  0  0  0  0  0  0
   -0.5016   -3.0510    0.0000 C   0  0  0  0  0  0  0  0  0  0  0  0
   -0.4878   -4.4939    0.0000 C   0  0  0  0  0  0  0  0  0  0  0  0
   -0.9139   -5.2086    0.0000 C   0  0  0  0  0  0  0  0  0  0  0  0
   -0.0619   -5.2086    0.0000 C   0  0  0  0  0  0  0  0  0  0  0  0
    0.3504   -4.4664    0.0000 C   0  0  0  0  0  0  0  0  0  0  0  0
  1 14  2  0  0  0  0
  2 33  1  0  0  0  0
  2 34  1  0  0  0  0
  3 33  2  0  0  0  0
  4  5  1  0  0  0  0
  4 11  1  0  0  0  0
 13  4  1  1  0  0  0
  5 12  2  0  0  0  0
  6 12  1  0  0  0  0
  6 16  1  0  0  0  0
  7 14  1  0  0  0  0
  7 19  1  0  0  0  0
  8 24  1  0  0  0  0
  8 27  1  0  0  0  0
  8 31  1  0  0  0  0
  9 28  3  0  0  0  0
 10 11  2  0  0  0  0
 10 12  1  0  0  0  0
 10 14  1  0  0  0  0
 11 15  1  0  0  0  0
 13 17  1  0  0  0  0
 13 20  1  0  0  0  0
 15 19  2  0  0  0  0
 16 22  1  0  0  0  0
 16 23  2  0  0  0  0
 17 26  1  0  0  0  0
 17 28  1  6  0  0  0
 18 21  1  0  0  0  0
 18 22  2  0  0  0  0
 18 24  1  0  0  0  0
 20 29  1  0  0  0  0
 21 25  2  0  0  0  0
 21 27  1  0  0  0  0
 23 25  1  0  0  0  0
 26 30  1  0  0  0  0
 29 30  1  0  0  0  0
 31 32  1  0  0  0  0
 32 33  1  0  0  0  0
 34 35  1  0  0  0  0
 34 36  1  0  0  0  0
 34 37  1  0  0  0  0
M  END
> <PUBCHEM_COMPOUND_ID_TYPE>
0

> <PUBCHEM_TOTAL_CHARGE>
0

> <PUBCHEM_SUBSTANCE_ID>
310948753

> <PUBCHEM_SUBSTANCE_VERSION>
1

> <PUBCHEM_EXT_DATASOURCE_NAME>
4488

> <PUBCHEM_EXT_DATASOURCE_REGID>
SCHEMBL16126937

> <PUBCHEM_SUBSTANCE_COMMENT>
InChI=1S/C28H34N6O3/c1-28(2,3)37-24(35)11-13-33-16-19-8-9-21(14-20(19)17-33)31-26-25-23(10-12-30-27(25)36)34(32-26)22-7-5-4-6-18(22)15-29/h8-10,12,14,18,22H,4-7,11,13,16-17H2,1-3H3,(H,30,36)(H,31,32)/t18-,22+/m1/s1
InChIKey=LZALLRNSRIVLQC-GCJKJVERSA-N

> <PUBCHEM_SUBSTANCE_SYNONYM>
SCHEMBL16126937

> <PUBCHEM_XREF_EXT_ID>
SCHEMBL16126937

> <PUBCHEM_EXT_DATASOURCE_URL>
https://www.surechembl.org/

> <PUBCHEM_EXT_SUBSTANCE_URL>
https://www.surechembl.org/chemical/SCHEMBL16126937

> <PUBCHEM_CID_ASSOCIATIONS>
117614295  1

> <PUBCHEM_COORDINATE_TYPE>
1
3

> <PUBCHEM_BONDANNOTATIONS>
17  28  6
13  4  5

$$$$
