310928801
  -OEChem-07211613022D

 13 14  0     0  0  0  0  0  0999 V2000
    0.0797   -1.5510    0.0000 Cl  0  0  0  0  0  0  0  0  0  0  0  0
   -1.3492   -0.7260    0.0000 O   0  0  0  0  0  0  0  0  0  0  0  0
    1.8337    1.5510    0.0000 O   0  0  0  0  0  0  0  0  0  0  0  0
    0.7942   -0.3135    0.0000 C   0  0  0  0  0  0  0  0  0  0  0  0
    0.7942    0.5115    0.0000 C   0  0  0  0  0  0  0  0  0  0  0  0
    0.0797   -0.7260    0.0000 C   0  0  0  0  0  0  0  0  0  0  0  0
   -0.6348   -0.3135    0.0000 C   0  0  0  0  0  0  0  0  0  0  0  0
    1.5788    0.7664    0.0000 C   0  0  0  0  0  0  0  0  0  0  0  0
    1.5788   -0.5685    0.0000 C   0  0  0  0  0  0  0  0  0  0  0  0
    0.0797    0.9240    0.0000 C   0  0  0  0  0  0  0  0  0  0  0  0
   -0.6348    0.5115    0.0000 C   0  0  0  0  0  0  0  0  0  0  0  0
    2.0637    0.0990    0.0000 C   0  0  0  0  0  0  0  0  0  0  0  0
   -2.0637   -0.3135    0.0000 C   0  0  0  0  0  0  0  0  0  0  0  0
  1  6  1  0  0  0  0
  2  7  1  0  0  0  0
  2 13  1  0  0  0  0
  3  8  2  0  0  0  0
  4  5  2  0  0  0  0
  4  6  1  0  0  0  0
  4  9  1  0  0  0  0
  5  8  1  0  0  0  0
  5 10  1  0  0  0  0
  6  7  2  0  0  0  0
  7 11  1  0  0  0  0
  8 12  1  0  0  0  0
  9 12  1  0  0  0  0
 10 11  2  0  0  0  0
M  END
> <PUBCHEM_COMPOUND_ID_TYPE>
0

> <PUBCHEM_TOTAL_CHARGE>
0

> <PUBCHEM_SUBSTANCE_ID>
310928801

> <PUBCHEM_SUBSTANCE_VERSION>
1

> <PUBCHEM_EXT_DATASOURCE_NAME>
11752

> <PUBCHEM_EXT_DATASOURCE_REGID>
BD255699

> <PUBCHEM_SUBSTANCE_SYNONYM>
4-Chloro-5-methoxy-2,3-dihydro-1H-inden-1-one
944109-65-3

> <PUBCHEM_GENERIC_REGISTRY_NAME>
944109-65-3

> <PUBCHEM_XREF_EXT_ID>
BD255699

> <PUBCHEM_EXT_DATASOURCE_URL>
http://www.bidepharmatech.com/en/index.html

> <PUBCHEM_EXT_SUBSTANCE_URL>
http://www.bidepharmatech.com/en/goodsview_goodscode_BD255699.html

> <PUBCHEM_CID_ASSOCIATIONS>
24778124  1

> <PUBCHEM_COORDINATE_TYPE>
1
3

$$$$
