310944962
  -OEChem-07211613022D

 37 41  0     1  0  0  0  0  0999 V2000
    2.8588   -2.9431    0.0000 S   0  0  0  0  0  0  0  0  0  0  0  0
    4.4990   -3.3263    0.0000 O   0  0  0  0  0  0  0  0  0  0  0  0
   -2.7515    1.2723    0.0000 O   0  0  0  0  0  0  0  0  0  0  0  0
   -0.5901    3.3263    0.0000 O   0  0  0  0  0  0  0  0  0  0  0  0
    3.4413   -0.8737    0.0000 N   0  0  0  0  0  0  0  0  0  0  0  0
    0.0689   -1.2109    0.0000 N   0  0  0  0  0  0  0  0  0  0  0  0
    4.9281   -1.9927    0.0000 N   0  0  0  0  0  0  0  0  0  0  0  0
   -1.3106    2.0847    0.0000 N   0  0  0  0  0  0  0  0  0  0  0  0
   -4.8975    0.8584    0.0000 N   0  0  0  0  0  0  0  0  0  0  0  0
    2.2610   -1.7475    0.0000 C   0  0  0  0  0  0  0  0  0  0  0  0
    3.0734   -1.6248    0.0000 C   0  0  0  0  0  0  0  0  0  0  0  0
    1.4945   -1.3182    0.0000 C   0  0  0  0  0  0  0  0  0  0  0  0
    2.1077   -2.5445    0.0000 C   0  0  0  0  0  0  0  0  0  0  0  0
    3.4413   -2.3453    0.0000 C   0  0  0  0  0  0  0  0  0  0  0  0
    0.7588   -1.6708    0.0000 C   0  0  0  0  0  0  0  0  0  0  0  0
    1.3719   -2.9431    0.0000 C   0  0  0  0  0  0  0  0  0  0  0  0
    4.2996   -2.5139    0.0000 C   0  0  0  0  0  0  0  0  0  0  0  0
    1.5712   -0.5059    0.0000 C   0  0  0  0  0  0  0  0  0  0  0  0
    0.6821   -2.4986    0.0000 C   0  0  0  0  0  0  0  0  0  0  0  0
    0.1456   -0.3679    0.0000 C   0  0  0  0  0  0  0  0  0  0  0  0
    0.8661   -0.0307    0.0000 C   0  0  0  0  0  0  0  0  0  0  0  0
   -0.5901    0.0460    0.0000 C   0  0  0  0  0  0  0  0  0  0  0  0
    4.2384   -0.6745    0.0000 C   0  0  0  0  0  0  0  0  0  0  0  0
    4.9128   -1.1497    0.0000 C   0  0  3  0  0  0  0  0  0  0  0  0
   -0.5901    0.8431    0.0000 C   0  0  0  0  0  0  0  0  0  0  0  0
   -1.3106    1.2723    0.0000 C   0  0  0  0  0  0  0  0  0  0  0  0
   -1.2953   -0.3679    0.0000 C   0  0  0  0  0  0  0  0  0  0  0  0
   -2.0157    0.8584    0.0000 C   0  0  0  0  0  0  0  0  0  0  0  0
   -2.0157    0.0307    0.0000 C   0  0  0  0  0  0  0  0  0  0  0  0
    5.6332   -0.7511    0.0000 C   0  0  0  0  0  0  0  0  0  0  0  0
   -0.5901    2.4832    0.0000 C   0  0  0  0  0  0  0  0  0  0  0  0
   -3.4413    0.8584    0.0000 C   0  0  0  0  0  0  0  0  0  0  0  0
    0.1456    2.1000    0.0000 C   0  0  0  0  0  0  0  0  0  0  0  0
   -4.1770    1.2723    0.0000 C   0  0  0  0  0  0  0  0  0  0  0  0
    0.8201    2.5905    0.0000 C   0  0  0  0  0  0  0  0  0  0  0  0
   -4.8821    0.0153    0.0000 C   0  0  0  0  0  0  0  0  0  0  0  0
   -5.6332    1.2570    0.0000 C   0  0  0  0  0  0  0  0  0  0  0  0
  1 13  1  0  0  0  0
  1 14  1  0  0  0  0
  2 17  2  0  0  0  0
  3 28  1  0  0  0  0
  3 32  1  0  0  0  0
  4 31  2  0  0  0  0
  5 11  1  0  0  0  0
  5 23  1  0  0  0  0
  6 15  1  0  0  0  0
  6 20  2  0  0  0  0
  7 17  1  0  0  0  0
  7 24  1  0  0  0  0
  8 26  1  0  0  0  0
  8 31  1  0  0  0  0
  9 34  1  0  0  0  0
  9 36  1  0  0  0  0
  9 37  1  0  0  0  0
 10 11  1  0  0  0  0
 10 12  1  0  0  0  0
 10 13  2  0  0  0  0
 11 14  2  0  0  0  0
 12 15  2  0  0  0  0
 12 18  1  0  0  0  0
 13 16  1  0  0  0  0
 14 17  1  0  0  0  0
 15 19  1  0  0  0  0
 16 19  2  0  0  0  0
 18 21  2  0  0  0  0
 20 21  1  0  0  0  0
 20 22  1  0  0  0  0
 22 25  2  0  0  0  0
 22 27  1  0  0  0  0
 23 24  1  0  0  0  0
 24 30  1  1  0  0  0
 25 26  1  0  0  0  0
 26 28  2  0  0  0  0
 27 29  2  0  0  0  0
 28 29  1  0  0  0  0
 31 33  1  0  0  0  0
 32 34  1  0  0  0  0
 33 35  2  0  0  0  0
M  END
> <PUBCHEM_COMPOUND_ID_TYPE>
0

> <PUBCHEM_TOTAL_CHARGE>
0

> <PUBCHEM_SUBSTANCE_ID>
310944962

> <PUBCHEM_SUBSTANCE_VERSION>
1

> <PUBCHEM_EXT_DATASOURCE_NAME>
4488

> <PUBCHEM_EXT_DATASOURCE_REGID>
SCHEMBL16123050

> <PUBCHEM_SUBSTANCE_COMMENT>
InChI=1S/C28H29N5O3S/c1-5-24(34)32-21-14-17(6-10-22(21)36-13-12-33(3)4)19-8-7-18-20(31-19)9-11-23-25(18)26-27(37-23)28(35)30-16(2)15-29-26/h5-11,14,16,29H,1,12-13,15H2,2-4H3,(H,30,35)(H,32,34)/t16-/m1/s1
InChIKey=IUTKLESKJIAAJU-MRXNPFEDSA-N

> <PUBCHEM_SUBSTANCE_SYNONYM>
SCHEMBL16123050

> <PUBCHEM_XREF_EXT_ID>
SCHEMBL16123050

> <PUBCHEM_EXT_DATASOURCE_URL>
https://www.surechembl.org/

> <PUBCHEM_EXT_SUBSTANCE_URL>
https://www.surechembl.org/chemical/SCHEMBL16123050

> <PUBCHEM_CID_ASSOCIATIONS>
117611113  1

> <PUBCHEM_COORDINATE_TYPE>
1
3

> <PUBCHEM_BONDANNOTATIONS>
24  30  5

$$$$
