310943295
  -OEChem-07211613022D

 38 42  0     0  0  0  0  0  0999 V2000
    4.2878    2.1478    0.0000 F   0  0  0  0  0  0  0  0  0  0  0  0
    5.3617    1.8210    0.0000 F   0  0  0  0  0  0  0  0  0  0  0  0
    5.0193    0.7471    0.0000 F   0  0  0  0  0  0  0  0  0  0  0  0
    1.7820    2.2723    0.0000 O   0  0  0  0  0  0  0  0  0  0  0  0
   -5.3617    2.2879    0.0000 O   0  0  0  0  0  0  0  0  0  0  0  0
   -3.2139    0.2179    0.0000 N   0  0  0  0  0  0  0  0  0  0  0  0
   -3.9299    1.4474    0.0000 N   0  0  0  0  0  0  0  0  0  0  0  0
   -2.4980   -1.0272    0.0000 N   0  0  0  0  0  0  0  0  0  0  0  0
    1.0817    1.0428    0.0000 N   0  0  0  0  0  0  0  0  0  0  0  0
    3.9299    0.2179    0.0000 N   0  0  0  0  0  0  0  0  0  0  0  0
   -2.4980   -2.6926    0.0000 N   0  0  0  0  0  0  0  0  0  0  0  0
   -1.7820    1.0428    0.0000 C   0  0  0  0  0  0  0  0  0  0  0  0
   -1.0817    1.4630    0.0000 C   0  0  0  0  0  0  0  0  0  0  0  0
   -3.2139    1.0428    0.0000 C   0  0  0  0  0  0  0  0  0  0  0  0
   -2.4980   -0.1868    0.0000 C   0  0  0  0  0  0  0  0  0  0  0  0
   -2.5135    1.4474    0.0000 C   0  0  0  0  0  0  0  0  0  0  0  0
   -1.7976    0.2179    0.0000 C   0  0  0  0  0  0  0  0  0  0  0  0
   -1.0661    2.2879    0.0000 C   0  0  0  0  0  0  0  0  0  0  0  0
   -0.3502    1.0584    0.0000 C   0  0  0  0  0  0  0  0  0  0  0  0
    0.3502    1.4786    0.0000 C   0  0  0  0  0  0  0  0  0  0  0  0
    2.4980    1.0428    0.0000 C   0  0  0  0  0  0  0  0  0  0  0  0
    3.9299    1.0428    0.0000 C   0  0  0  0  0  0  0  0  0  0  0  0
    1.7665    1.4319    0.0000 C   0  0  0  0  0  0  0  0  0  0  0  0
   -0.3813    2.6770    0.0000 C   0  0  0  0  0  0  0  0  0  0  0  0
    0.3502    2.2723    0.0000 C   0  0  0  0  0  0  0  0  0  0  0  0
    4.6458    1.4474    0.0000 C   0  0  0  0  0  0  0  0  0  0  0  0
    3.1984    1.4474    0.0000 C   0  0  0  0  0  0  0  0  0  0  0  0
   -3.9454    2.2879    0.0000 C   0  0  0  0  0  0  0  0  0  0  0  0
   -4.6302    1.0428    0.0000 C   0  0  0  0  0  0  0  0  0  0  0  0
   -3.2139   -1.4319    0.0000 C   0  0  0  0  0  0  0  0  0  0  0  0
   -1.7820   -1.4474    0.0000 C   0  0  0  0  0  0  0  0  0  0  0  0
    2.4980    0.2179    0.0000 C   0  0  0  0  0  0  0  0  0  0  0  0
   -1.7976    2.6770    0.0000 C   0  0  0  0  0  0  0  0  0  0  0  0
    3.2295   -0.1868    0.0000 C   0  0  0  0  0  0  0  0  0  0  0  0
   -4.6614    2.6926    0.0000 C   0  0  0  0  0  0  0  0  0  0  0  0
   -5.3617    1.4474    0.0000 C   0  0  0  0  0  0  0  0  0  0  0  0
   -3.2139   -2.2723    0.0000 C   0  0  0  0  0  0  0  0  0  0  0  0
   -1.7976   -2.2723    0.0000 C   0  0  0  0  0  0  0  0  0  0  0  0
  1 26  1  0  0  0  0
  2 26  1  0  0  0  0
  3 26  1  0  0  0  0
  4 23  2  0  0  0  0
  5 35  1  0  0  0  0
  5 36  1  0  0  0  0
  6 14  2  0  0  0  0
  6 15  1  0  0  0  0
  7 14  1  0  0  0  0
  7 28  1  0  0  0  0
  7 29  1  0  0  0  0
  8 15  1  0  0  0  0
  8 30  1  0  0  0  0
  8 31  1  0  0  0  0
  9 20  1  0  0  0  0
  9 23  1  0  0  0  0
 10 22  1  0  0  0  0
 10 34  2  0  0  0  0
 11 37  1  0  0  0  0
 11 38  1  0  0  0  0
 12 13  1  0  0  0  0
 12 16  2  0  0  0  0
 12 17  1  0  0  0  0
 13 18  1  0  0  0  0
 13 19  2  0  0  0  0
 14 16  1  0  0  0  0
 15 17  2  0  0  0  0
 18 24  2  0  0  0  0
 18 33  1  0  0  0  0
 19 20  1  0  0  0  0
 20 25  2  0  0  0  0
 21 23  1  0  0  0  0
 21 27  1  0  0  0  0
 21 32  2  0  0  0  0
 22 26  1  0  0  0  0
 22 27  2  0  0  0  0
 24 25  1  0  0  0  0
 28 35  1  0  0  0  0
 29 36  1  0  0  0  0
 30 37  1  0  0  0  0
 31 38  1  0  0  0  0
 32 34  1  0  0  0  0
M  END
> <PUBCHEM_COMPOUND_ID_TYPE>
0

> <PUBCHEM_TOTAL_CHARGE>
0

> <PUBCHEM_SUBSTANCE_ID>
310943295

> <PUBCHEM_SUBSTANCE_VERSION>
1

> <PUBCHEM_EXT_DATASOURCE_NAME>
4488

> <PUBCHEM_EXT_DATASOURCE_REGID>
SCHEMBL16121357

> <PUBCHEM_SUBSTANCE_COMMENT>
InChI=1S/C27H29F3N6O2/c1-18-2-3-21(33-26(37)19-4-5-32-23(14-19)27(28,29)30)17-22(18)20-15-24(35-8-6-31-7-9-35)34-25(16-20)36-10-12-38-13-11-36/h2-5,14-17,31H,6-13H2,1H3,(H,33,37)
InChIKey=RNUZVMFZRCWURM-UHFFFAOYSA-N

> <PUBCHEM_SUBSTANCE_SYNONYM>
SCHEMBL16121357

> <PUBCHEM_XREF_EXT_ID>
SCHEMBL16121357

> <PUBCHEM_EXT_DATASOURCE_URL>
https://www.surechembl.org/

> <PUBCHEM_EXT_SUBSTANCE_URL>
https://www.surechembl.org/chemical/SCHEMBL16121357

> <PUBCHEM_CID_ASSOCIATIONS>
117609720  1

> <PUBCHEM_COORDINATE_TYPE>
1
3

$$$$
