310939848
  -OEChem-07211613022D

 17 18  0     0  0  0  0  0  0999 V2000
   -0.0403    0.4528    0.0000 N   0  0  0  0  0  0  0  0  0  0  0  0
    1.3887    0.4629    0.0000 N   0  0  0  0  0  0  0  0  0  0  0  0
   -1.7006    1.2679    0.0000 N   0  0  0  0  0  0  0  0  0  0  0  0
    0.6742   -0.7446    0.0000 C   0  0  0  0  0  0  0  0  0  0  0  0
    0.6843   -1.5699    0.0000 C   0  0  0  0  0  0  0  0  0  0  0  0
   -0.0403   -0.3422    0.0000 C   0  0  0  0  0  0  0  0  0  0  0  0
    1.3887   -0.3321    0.0000 C   0  0  0  0  0  0  0  0  0  0  0  0
   -0.0201   -1.9824    0.0000 C   0  0  0  0  0  0  0  0  0  0  0  0
   -0.7446   -0.7547    0.0000 C   0  0  0  0  0  0  0  0  0  0  0  0
    1.4088   -1.9723    0.0000 C   0  0  0  0  0  0  0  0  0  0  0  0
    2.1132   -0.7446    0.0000 C   0  0  0  0  0  0  0  0  0  0  0  0
   -0.7346   -1.5799    0.0000 C   0  0  0  0  0  0  0  0  0  0  0  0
    2.1132   -1.5699    0.0000 C   0  0  0  0  0  0  0  0  0  0  0  0
   -0.8654    0.4831    0.0000 C   0  0  0  0  0  0  0  0  0  0  0  0
   -0.8755    1.2981    0.0000 C   0  0  0  0  0  0  0  0  0  0  0  0
   -2.1132    0.5535    0.0000 C   0  0  0  0  0  0  0  0  0  0  0  0
   -2.1132    1.9824    0.0000 C   0  0  0  0  0  0  0  0  0  0  0  0
  1  6  1  0  0  0  0
  1 14  1  0  0  0  0
  2  7  1  0  0  0  0
  3 15  1  0  0  0  0
  3 16  1  0  0  0  0
  3 17  1  0  0  0  0
  4  5  1  0  0  0  0
  4  6  1  0  0  0  0
  4  7  2  0  0  0  0
  5  8  1  0  0  0  0
  5 10  2  0  0  0  0
  6  9  2  0  0  0  0
  7 11  1  0  0  0  0
  8 12  2  0  0  0  0
  9 12  1  0  0  0  0
 10 13  1  0  0  0  0
 11 13  2  0  0  0  0
 14 15  1  0  0  0  0
M  END
> <PUBCHEM_COMPOUND_ID_TYPE>
0

> <PUBCHEM_TOTAL_CHARGE>
0

> <PUBCHEM_SUBSTANCE_ID>
310939848

> <PUBCHEM_SUBSTANCE_VERSION>
1

> <PUBCHEM_EXT_DATASOURCE_NAME>
4488

> <PUBCHEM_EXT_DATASOURCE_REGID>
SCHEMBL16117778

> <PUBCHEM_SUBSTANCE_COMMENT>
InChI=1S/C14H19N3/c1-17(2)10-9-16-13-8-4-6-11-5-3-7-12(15)14(11)13/h3-8,16H,9-10,15H2,1-2H3
InChIKey=MHYMQRIKFHLKAN-UHFFFAOYSA-N

> <PUBCHEM_SUBSTANCE_SYNONYM>
SCHEMBL16117778

> <PUBCHEM_XREF_EXT_ID>
SCHEMBL16117778

> <PUBCHEM_EXT_DATASOURCE_URL>
https://www.surechembl.org/

> <PUBCHEM_EXT_SUBSTANCE_URL>
https://www.surechembl.org/chemical/SCHEMBL16117778

> <PUBCHEM_CID_ASSOCIATIONS>
117607065  1

> <PUBCHEM_COORDINATE_TYPE>
1
3

$$$$
