310948263
  -OEChem-07211613022D

 30 33  0     1  0  0  0  0  0999 V2000
   -1.2217   -3.1105    0.0000 Cl  0  0  0  0  0  0  0  0  0  0  0  0
   -0.1124   -1.8813    0.0000 F   0  0  0  0  0  0  0  0  0  0  0  0
   -3.2905    1.4466    0.0000 O   0  0  0  0  0  0  0  0  0  0  0  0
   -0.5322    1.3116    0.0000 N   0  0  0  0  0  0  0  0  0  0  0  0
   -0.8619    0.5472    0.0000 N   0  0  0  0  0  0  0  0  0  0  0  0
   -2.2410    0.0225    0.0000 N   0  0  0  0  0  0  0  0  0  0  0  0
   -2.5708    2.6908    0.0000 N   0  0  0  0  0  0  0  0  0  0  0  0
    2.7058    2.0012    0.0000 N   0  0  0  0  0  0  0  0  0  0  0  0
    0.3523   -0.6821    0.0000 N   0  0  0  0  0  0  0  0  0  0  0  0
   -1.8364    1.4616    0.0000 C   0  0  0  0  0  0  0  0  0  0  0  0
   -1.1468    1.8663    0.0000 C   0  0  0  0  0  0  0  0  0  0  0  0
   -1.6864    0.6671    0.0000 C   0  0  0  0  0  0  0  0  0  0  0  0
    0.2774    1.4915    0.0000 C   0  0  3  0  0  0  0  0  0  0  0  0
   -2.5558    1.8813    0.0000 C   0  0  0  0  0  0  0  0  0  0  0  0
   -1.1318    2.6908    0.0000 C   0  0  0  0  0  0  0  0  0  0  0  0
    0.8320    0.8919    0.0000 C   0  0  3  0  0  0  0  0  0  0  0  0
    0.5472    2.2711    0.0000 C   0  0  0  0  0  0  0  0  0  0  0  0
   -1.9863   -0.7420    0.0000 C   0  0  0  0  0  0  0  0  0  0  0  0
   -1.8514    3.1105    0.0000 C   0  0  0  0  0  0  0  0  0  0  0  0
    1.6415    1.0418    0.0000 C   0  0  0  0  0  0  0  0  0  0  0  0
    1.8964    1.8364    0.0000 C   0  0  3  0  0  0  0  0  0  0  0  0
    1.3417    2.4359    0.0000 C   0  0  0  0  0  0  0  0  0  0  0  0
    0.5772    0.0825    0.0000 C   0  0  0  0  0  0  0  0  0  0  0  0
   -1.1767   -0.9219    0.0000 C   0  0  0  0  0  0  0  0  0  0  0  0
   -2.5109   -1.3867    0.0000 C   0  0  0  0  0  0  0  0  0  0  0  0
   -0.9219   -1.7015    0.0000 C   0  0  0  0  0  0  0  0  0  0  0  0
   -1.4616   -2.3310    0.0000 C   0  0  0  0  0  0  0  0  0  0  0  0
   -2.2711   -2.1361    0.0000 C   0  0  0  0  0  0  0  0  0  0  0  0
    3.2905    1.3716    0.0000 C   0  0  0  0  0  0  0  0  0  0  0  0
    2.9607    2.7957    0.0000 C   0  0  0  0  0  0  0  0  0  0  0  0
  1 27  1  0  0  0  0
  2 26  1  0  0  0  0
  3 14  2  0  0  0  0
  4  5  1  0  0  0  0
  4 11  1  0  0  0  0
 13  4  1  1  0  0  0
  5 12  2  0  0  0  0
  6 12  1  0  0  0  0
  6 18  1  0  0  0  0
  7 14  1  0  0  0  0
  7 19  1  0  0  0  0
 21  8  1  6  0  0  0
  8 29  1  0  0  0  0
  8 30  1  0  0  0  0
  9 23  3  0  0  0  0
 10 11  2  0  0  0  0
 10 12  1  0  0  0  0
 10 14  1  0  0  0  0
 11 15  1  0  0  0  0
 13 16  1  0  0  0  0
 13 17  1  0  0  0  0
 15 19  2  0  0  0  0
 16 20  1  0  0  0  0
 16 23  1  6  0  0  0
 17 22  1  0  0  0  0
 18 24  1  0  0  0  0
 18 25  2  0  0  0  0
 20 21  1  0  0  0  0
 21 22  1  0  0  0  0
 24 26  2  0  0  0  0
 25 28  1  0  0  0  0
 26 27  1  0  0  0  0
 27 28  2  0  0  0  0
M  END
> <PUBCHEM_COMPOUND_ID_TYPE>
0

> <PUBCHEM_TOTAL_CHARGE>
0

> <PUBCHEM_SUBSTANCE_ID>
310948263

> <PUBCHEM_SUBSTANCE_VERSION>
1

> <PUBCHEM_EXT_DATASOURCE_NAME>
4488

> <PUBCHEM_EXT_DATASOURCE_REGID>
SCHEMBL16126440

> <PUBCHEM_SUBSTANCE_COMMENT>
InChI=1S/C21H22ClFN6O/c1-28(2)14-4-6-17(12(9-14)11-24)29-18-7-8-25-21(30)19(18)20(27-29)26-13-3-5-15(22)16(23)10-13/h3,5,7-8,10,12,14,17H,4,6,9H2,1-2H3,(H,25,30)(H,26,27)/t12-,14+,17+/m1/s1
InChIKey=IQXZRRUBMFUKJU-IFIJOSMWSA-N

> <PUBCHEM_SUBSTANCE_SYNONYM>
SCHEMBL16126440

> <PUBCHEM_XREF_EXT_ID>
SCHEMBL16126440

> <PUBCHEM_EXT_DATASOURCE_URL>
https://www.surechembl.org/

> <PUBCHEM_EXT_SUBSTANCE_URL>
https://www.surechembl.org/chemical/SCHEMBL16126440

> <PUBCHEM_CID_ASSOCIATIONS>
117613843  1

> <PUBCHEM_COORDINATE_TYPE>
1
3

> <PUBCHEM_BONDANNOTATIONS>
16  23  6
13  4  5
21  8  6

$$$$
