310935241
  -OEChem-07211613022D

 34 37  0     0  0  0  0  0  0999 V2000
    0.0000    0.0000    0.0000 F   0  0  0  0  0  0  0  0  0  0  0  0
    1.2964   -3.6143    0.0000 O   0  0  0  0  0  0  0  0  0  0  0  0
    3.8107   -2.5143    0.0000 O   0  0  0  0  0  0  0  0  0  0  0  0
    3.3001   -7.4251    0.0000 O   0  0  0  0  0  0  0  0  0  0  0  0
    4.2036   -6.3644    0.0000 O   0  0  0  0  0  0  0  0  0  0  0  0
    6.2072   -4.1251    0.0000 O   0  0  0  0  0  0  0  0  0  0  0  0
    6.9144   -5.3822    0.0000 O   0  0  0  0  0  0  0  0  0  0  0  0
    2.7500   -1.5714    0.0000 N   0  0  0  0  0  0  0  0  0  0  0  0
    2.6322   -3.7322    0.0000 C   0  0  0  0  0  0  0  0  0  0  0  0
    2.4357   -2.9464    0.0000 C   0  0  0  0  0  0  0  0  0  0  0  0
    1.8857   -4.1643    0.0000 C   0  0  0  0  0  0  0  0  0  0  0  0
    1.6500   -2.8679    0.0000 C   0  0  0  0  0  0  0  0  0  0  0  0
    3.3393   -4.9501    0.0000 C   0  0  0  0  0  0  0  0  0  0  0  0
    3.3393   -4.1643    0.0000 C   0  0  0  0  0  0  0  0  0  0  0  0
    2.5929   -5.3822    0.0000 C   0  0  0  0  0  0  0  0  0  0  0  0
    1.9250   -4.9893    0.0000 C   0  0  0  0  0  0  0  0  0  0  0  0
    1.2179   -2.1214    0.0000 C   0  0  0  0  0  0  0  0  0  0  0  0
    2.9857   -2.3179    0.0000 C   0  0  0  0  0  0  0  0  0  0  0  0
    4.0465   -5.3822    0.0000 C   0  0  0  0  0  0  0  0  0  0  0  0
    2.5929   -6.2072    0.0000 C   0  0  0  0  0  0  0  0  0  0  0  0
    0.3929   -2.1214    0.0000 C   0  0  0  0  0  0  0  0  0  0  0  0
    1.6107   -1.4143    0.0000 C   0  0  0  0  0  0  0  0  0  0  0  0
    4.7536   -4.9501    0.0000 C   0  0  0  0  0  0  0  0  0  0  0  0
    4.0465   -6.2072    0.0000 C   0  0  0  0  0  0  0  0  0  0  0  0
    5.4607   -5.3822    0.0000 C   0  0  0  0  0  0  0  0  0  0  0  0
    3.3001   -6.6394    0.0000 C   0  0  0  0  0  0  0  0  0  0  0  0
    0.0000   -1.4143    0.0000 C   0  0  0  0  0  0  0  0  0  0  0  0
    1.2179   -0.7071    0.0000 C   0  0  0  0  0  0  0  0  0  0  0  0
    0.3929   -0.7071    0.0000 C   0  0  0  0  0  0  0  0  0  0  0  0
    4.7536   -6.6001    0.0000 C   0  0  0  0  0  0  0  0  0  0  0  0
    5.4607   -6.2072    0.0000 C   0  0  0  0  0  0  0  0  0  0  0  0
    6.2072   -4.9501    0.0000 C   0  0  0  0  0  0  0  0  0  0  0  0
    3.3001   -0.9429    0.0000 C   0  0  0  0  0  0  0  0  0  0  0  0
    4.0072   -7.8572    0.0000 C   0  0  0  0  0  0  0  0  0  0  0  0
  1 29  1  0  0  0  0
  2 11  1  0  0  0  0
  2 12  1  0  0  0  0
  3 18  2  0  0  0  0
  4 26  1  0  0  0  0
  4 34  1  0  0  0  0
  5 26  2  0  0  0  0
  6 32  2  0  0  0  0
  7 32  1  0  0  0  0
  8 18  1  0  0  0  0
  8 33  1  0  0  0  0
  9 10  1  0  0  0  0
  9 11  2  0  0  0  0
  9 14  1  0  0  0  0
 10 12  2  0  0  0  0
 10 18  1  0  0  0  0
 11 16  1  0  0  0  0
 12 17  1  0  0  0  0
 13 14  2  0  0  0  0
 13 15  1  0  0  0  0
 13 19  1  0  0  0  0
 15 16  2  0  0  0  0
 15 20  1  0  0  0  0
 17 21  2  0  0  0  0
 17 22  1  0  0  0  0
 19 23  1  0  0  0  0
 19 24  2  0  0  0  0
 20 26  1  0  0  0  0
 21 27  1  0  0  0  0
 22 28  2  0  0  0  0
 23 25  2  0  0  0  0
 24 30  1  0  0  0  0
 25 31  1  0  0  0  0
 25 32  1  0  0  0  0
 27 29  2  0  0  0  0
 28 29  1  0  0  0  0
 30 31  2  0  0  0  0
M  END
> <PUBCHEM_COMPOUND_ID_TYPE>
0

> <PUBCHEM_TOTAL_CHARGE>
0

> <PUBCHEM_SUBSTANCE_ID>
310935241

> <PUBCHEM_SUBSTANCE_VERSION>
1

> <PUBCHEM_EXT_DATASOURCE_NAME>
4488

> <PUBCHEM_EXT_DATASOURCE_REGID>
SCHEMBL16112769

> <PUBCHEM_SUBSTANCE_COMMENT>
InChI=1S/C26H20FNO6/c1-28-25(30)23-20-13-19(15-4-3-5-16(10-15)26(31)32)17(12-22(29)33-2)11-21(20)34-24(23)14-6-8-18(27)9-7-14/h3-11,13H,12H2,1-2H3,(H,28,30)(H,31,32)
InChIKey=DSOLAASJKRUEDU-UHFFFAOYSA-N

> <PUBCHEM_SUBSTANCE_SYNONYM>
SCHEMBL16112769

> <PUBCHEM_XREF_EXT_ID>
SCHEMBL16112769

> <PUBCHEM_EXT_DATASOURCE_URL>
https://www.surechembl.org/

> <PUBCHEM_EXT_SUBSTANCE_URL>
https://www.surechembl.org/chemical/SCHEMBL16112769

> <PUBCHEM_CID_ASSOCIATIONS>
117603318  1

> <PUBCHEM_COORDINATE_TYPE>
1
3

$$$$
