310944229
  -OEChem-07211613022D

 12 12  0     0  0  0  0  0  0999 V2000
   -0.3423    2.0255    0.0000 F   0  0  0  0  0  0  0  0  0  0  0  0
    1.8230    1.5925    0.0000 N   0  0  0  0  0  0  0  0  0  0  0  0
   -0.3981   -2.0255    0.0000 N   0  0  0  0  0  0  0  0  0  0  0  0
   -0.3841    1.2293    0.0000 C   0  0  0  0  0  0  0  0  0  0  0  0
    0.3841    0.8382    0.0000 C   0  0  0  0  0  0  0  0  0  0  0  0
   -1.0826    0.8382    0.0000 C   0  0  0  0  0  0  0  0  0  0  0  0
   -0.3562   -0.3912    0.0000 C   0  0  0  0  0  0  0  0  0  0  0  0
    0.3702    0.0140    0.0000 C   0  0  0  0  0  0  0  0  0  0  0  0
   -1.0826    0.0279    0.0000 C   0  0  0  0  0  0  0  0  0  0  0  0
    1.1105    1.2293    0.0000 C   0  0  0  0  0  0  0  0  0  0  0  0
   -0.3841   -1.2154    0.0000 C   0  0  0  0  0  0  0  0  0  0  0  0
   -1.8230    1.2154    0.0000 C   0  0  0  0  0  0  0  0  0  0  0  0
  1  4  1  0  0  0  0
  2 10  3  0  0  0  0
  3 11  3  0  0  0  0
  4  5  2  0  0  0  0
  4  6  1  0  0  0  0
  5  8  1  0  0  0  0
  5 10  1  0  0  0  0
  6  9  2  0  0  0  0
  6 12  1  0  0  0  0
  7  8  2  0  0  0  0
  7  9  1  0  0  0  0
  7 11  1  0  0  0  0
M  END
> <PUBCHEM_COMPOUND_ID_TYPE>
0

> <PUBCHEM_TOTAL_CHARGE>
0

> <PUBCHEM_SUBSTANCE_ID>
310944229

> <PUBCHEM_SUBSTANCE_VERSION>
1

> <PUBCHEM_EXT_DATASOURCE_NAME>
4488

> <PUBCHEM_EXT_DATASOURCE_REGID>
SCHEMBL16122304

> <PUBCHEM_SUBSTANCE_COMMENT>
InChI=1S/C9H5FN2/c1-6-2-7(4-11)3-8(5-12)9(6)10/h2-3H,1H3
InChIKey=UYNFCTIXUWZQGZ-UHFFFAOYSA-N

> <PUBCHEM_SUBSTANCE_SYNONYM>
SCHEMBL16122304

> <PUBCHEM_XREF_EXT_ID>
SCHEMBL16122304

> <PUBCHEM_EXT_DATASOURCE_URL>
https://www.surechembl.org/

> <PUBCHEM_EXT_SUBSTANCE_URL>
https://www.surechembl.org/chemical/SCHEMBL16122304

> <PUBCHEM_CID_ASSOCIATIONS>
117610500  1

> <PUBCHEM_COORDINATE_TYPE>
1
3

$$$$
