310943226
  -OEChem-07211613022D

 35 38  0     0  0  0  0  0  0999 V2000
    4.6779    1.1110    0.0000 F   0  0  0  0  0  0  0  0  0  0  0  0
    5.4380    0.6725    0.0000 F   0  0  0  0  0  0  0  0  0  0  0  0
   -3.9616   -1.4472    0.0000 O   0  0  0  0  0  0  0  0  0  0  0  0
    1.7834    1.0379    0.0000 O   0  0  0  0  0  0  0  0  0  0  0  0
   -5.3503    1.0379    0.0000 O   0  0  0  0  0  0  0  0  0  0  0  0
   -3.9324    0.2339    0.0000 N   0  0  0  0  0  0  0  0  0  0  0  0
   -1.7834   -1.0087    0.0000 N   0  0  0  0  0  0  0  0  0  0  0  0
   -2.4998   -1.4180    0.0000 N   0  0  0  0  0  0  0  0  0  0  0  0
   -0.3508    1.4618    0.0000 N   0  0  0  0  0  0  0  0  0  0  0  0
    1.0671   -0.1754    0.0000 N   0  0  0  0  0  0  0  0  0  0  0  0
    3.9324   -1.0087    0.0000 N   0  0  0  0  0  0  0  0  0  0  0  0
   -1.7834   -0.1754    0.0000 C   0  0  0  0  0  0  0  0  0  0  0  0
   -1.0818    0.2339    0.0000 C   0  0  0  0  0  0  0  0  0  0  0  0
   -3.2014   -0.1754    0.0000 C   0  0  0  0  0  0  0  0  0  0  0  0
   -3.2161   -0.9940    0.0000 C   0  0  0  0  0  0  0  0  0  0  0  0
   -2.4851    0.2339    0.0000 C   0  0  0  0  0  0  0  0  0  0  0  0
   -1.0671    1.0525    0.0000 C   0  0  0  0  0  0  0  0  0  0  0  0
   -0.3362   -0.1754    0.0000 C   0  0  0  0  0  0  0  0  0  0  0  0
    0.3508    0.2339    0.0000 C   0  0  0  0  0  0  0  0  0  0  0  0
    2.4998   -0.1754    0.0000 C   0  0  0  0  0  0  0  0  0  0  0  0
    1.7834    0.2047    0.0000 C   0  0  0  0  0  0  0  0  0  0  0  0
    3.9324   -0.1754    0.0000 C   0  0  0  0  0  0  0  0  0  0  0  0
    0.3655    1.0525    0.0000 C   0  0  0  0  0  0  0  0  0  0  0  0
    4.6925    0.2485    0.0000 C   0  0  0  0  0  0  0  0  0  0  0  0
    3.2161    0.2339    0.0000 C   0  0  0  0  0  0  0  0  0  0  0  0
   -3.9324    1.0525    0.0000 C   0  0  0  0  0  0  0  0  0  0  0  0
   -4.6340   -0.1754    0.0000 C   0  0  0  0  0  0  0  0  0  0  0  0
    2.4998   -0.9940    0.0000 C   0  0  0  0  0  0  0  0  0  0  0  0
   -1.7981    1.4472    0.0000 C   0  0  0  0  0  0  0  0  0  0  0  0
    3.2745   -1.4180    0.0000 C   0  0  0  0  0  0  0  0  0  0  0  0
   -4.6340    1.4618    0.0000 C   0  0  0  0  0  0  0  0  0  0  0  0
   -5.3503    0.2193    0.0000 C   0  0  0  0  0  0  0  0  0  0  0  0
   -4.7217   -1.0087    0.0000 C   0  0  0  0  0  0  0  0  0  0  0  0
    5.4380   -0.1901    0.0000 C   0  0  0  0  0  0  0  0  0  0  0  0
   -5.4380   -1.4618    0.0000 C   0  0  0  0  0  0  0  0  0  0  0  0
  1 24  1  0  0  0  0
  2 24  1  0  0  0  0
  3 15  1  0  0  0  0
  3 33  1  0  0  0  0
  4 21  2  0  0  0  0
  5 31  1  0  0  0  0
  5 32  1  0  0  0  0
  6 14  1  0  0  0  0
  6 26  1  0  0  0  0
  6 27  1  0  0  0  0
  7  8  1  0  0  0  0
  7 12  2  0  0  0  0
  8 15  2  0  0  0  0
  9 17  1  0  0  0  0
  9 23  2  0  0  0  0
 10 19  1  0  0  0  0
 10 21  1  0  0  0  0
 11 22  2  0  0  0  0
 11 30  1  0  0  0  0
 12 13  1  0  0  0  0
 12 16  1  0  0  0  0
 13 17  2  0  0  0  0
 13 18  1  0  0  0  0
 14 15  1  0  0  0  0
 14 16  2  0  0  0  0
 17 29  1  0  0  0  0
 18 19  2  0  0  0  0
 19 23  1  0  0  0  0
 20 21  1  0  0  0  0
 20 25  2  0  0  0  0
 20 28  1  0  0  0  0
 22 24  1  0  0  0  0
 22 25  1  0  0  0  0
 24 34  1  0  0  0  0
 26 31  1  0  0  0  0
 27 32  1  0  0  0  0
 28 30  2  0  0  0  0
 33 35  1  0  0  0  0
M  END
> <PUBCHEM_COMPOUND_ID_TYPE>
0

> <PUBCHEM_TOTAL_CHARGE>
0

> <PUBCHEM_SUBSTANCE_ID>
310943226

> <PUBCHEM_SUBSTANCE_VERSION>
1

> <PUBCHEM_EXT_DATASOURCE_NAME>
4488

> <PUBCHEM_EXT_DATASOURCE_REGID>
SCHEMBL16121287

> <PUBCHEM_SUBSTANCE_COMMENT>
InChI=1S/C24H26F2N6O3/c1-4-35-23-20(32-7-9-34-10-8-32)13-19(30-31-23)18-12-17(14-28-15(18)2)29-22(33)16-5-6-27-21(11-16)24(3,25)26/h5-6,11-14H,4,7-10H2,1-3H3,(H,29,33)
InChIKey=GAIGZMYWYVKPKA-UHFFFAOYSA-N

> <PUBCHEM_SUBSTANCE_SYNONYM>
SCHEMBL16121287

> <PUBCHEM_XREF_EXT_ID>
SCHEMBL16121287

> <PUBCHEM_EXT_DATASOURCE_URL>
https://www.surechembl.org/

> <PUBCHEM_EXT_SUBSTANCE_URL>
https://www.surechembl.org/chemical/SCHEMBL16121287

> <PUBCHEM_CID_ASSOCIATIONS>
117609651  1

> <PUBCHEM_COORDINATE_TYPE>
1
3

$$$$
