310941602
  -OEChem-07211613022D

 26 29  0     0  0  0  0  0  0999 V2000
   -3.5342   -2.7801    0.0000 Cl  0  0  0  0  0  0  0  0  0  0  0  0
   -0.5524    0.5524    0.0000 S   0  0  0  0  0  0  0  0  0  0  0  0
   -2.0784   -1.9556    0.0000 O   0  0  0  0  0  0  0  0  0  0  0  0
   -0.6402   -1.9556    0.0000 O   0  0  0  0  0  0  0  0  0  0  0  0
    0.1316   -0.6051    0.0000 N   0  0  0  0  0  0  0  0  0  0  0  0
    1.4996   -0.0789    0.0000 N   0  0  0  0  0  0  0  0  0  0  0  0
   -1.3594   -0.6928    0.0000 C   0  0  0  0  0  0  0  0  0  0  0  0
   -0.6577   -0.2718    0.0000 C   0  0  0  0  0  0  0  0  0  0  0  0
   -2.8151   -1.5171    0.0000 C   0  0  0  0  0  0  0  0  0  0  0  0
   -2.7976   -0.6928    0.0000 C   0  0  0  0  0  0  0  0  0  0  0  0
   -1.3944   -1.5171    0.0000 C   0  0  0  0  0  0  0  0  0  0  0  0
   -2.0609   -0.2894    0.0000 C   0  0  0  0  0  0  0  0  0  0  0  0
    0.6752    0.0263    0.0000 C   0  0  0  0  0  0  0  0  0  0  0  0
   -3.5167   -1.9381    0.0000 C   0  0  0  0  0  0  0  0  0  0  0  0
   -3.4991   -0.2894    0.0000 C   0  0  0  0  0  0  0  0  0  0  0  0
    0.2543    0.7279    0.0000 C   0  0  0  0  0  0  0  0  0  0  0  0
   -4.2358   -1.5347    0.0000 C   0  0  0  0  0  0  0  0  0  0  0  0
    2.0433    0.5700    0.0000 C   0  0  0  0  0  0  0  0  0  0  0  0
   -4.2358   -0.6928    0.0000 C   0  0  0  0  0  0  0  0  0  0  0  0
    2.8677    0.4472    0.0000 C   0  0  0  0  0  0  0  0  0  0  0  0
    1.7451    1.3067    0.0000 C   0  0  0  0  0  0  0  0  0  0  0  0
    3.3763    1.0963    0.0000 C   0  0  0  0  0  0  0  0  0  0  0  0
    2.2538    2.0082    0.0000 C   0  0  0  0  0  0  0  0  0  0  0  0
    3.0782    1.8329    0.0000 C   0  0  0  0  0  0  0  0  0  0  0  0
    4.2358    0.9559    0.0000 C   0  0  0  0  0  0  0  0  0  0  0  0
    1.9556    2.7801    0.0000 C   0  0  0  0  0  0  0  0  0  0  0  0
  1 14  1  0  0  0  0
  2  8  1  0  0  0  0
  2 16  1  0  0  0  0
  3  9  1  0  0  0  0
  3 11  1  0  0  0  0
  4 11  2  0  0  0  0
  5  8  2  0  0  0  0
  5 13  1  0  0  0  0
  6 13  1  0  0  0  0
  6 18  1  0  0  0  0
  7  8  1  0  0  0  0
  7 11  1  0  0  0  0
  7 12  2  0  0  0  0
  9 10  1  0  0  0  0
  9 14  2  0  0  0  0
 10 12  1  0  0  0  0
 10 15  2  0  0  0  0
 13 16  2  0  0  0  0
 14 17  1  0  0  0  0
 15 19  1  0  0  0  0
 17 19  2  0  0  0  0
 18 20  2  0  0  0  0
 18 21  1  0  0  0  0
 20 22  1  0  0  0  0
 21 23  2  0  0  0  0
 22 24  2  0  0  0  0
 22 25  1  0  0  0  0
 23 24  1  0  0  0  0
 23 26  1  0  0  0  0
M  END
> <PUBCHEM_COMPOUND_ID_TYPE>
0

> <PUBCHEM_TOTAL_CHARGE>
0

> <PUBCHEM_SUBSTANCE_ID>
310941602

> <PUBCHEM_SUBSTANCE_VERSION>
1

> <PUBCHEM_EXT_DATASOURCE_NAME>
4488

> <PUBCHEM_EXT_DATASOURCE_REGID>
SCHEMBL16119633

> <PUBCHEM_SUBSTANCE_COMMENT>
InChI=1S/C20H15ClN2O2S/c1-11-6-12(2)8-14(7-11)22-17-10-26-19(23-17)15-9-13-4-3-5-16(21)18(13)25-20(15)24/h3-10,22H,1-2H3
InChIKey=DFCZDEVTKZMJSJ-UHFFFAOYSA-N

> <PUBCHEM_SUBSTANCE_SYNONYM>
SCHEMBL16119633

> <PUBCHEM_XREF_EXT_ID>
SCHEMBL16119633

> <PUBCHEM_EXT_DATASOURCE_URL>
https://www.surechembl.org/

> <PUBCHEM_EXT_SUBSTANCE_URL>
https://www.surechembl.org/chemical/SCHEMBL16119633

> <PUBCHEM_CID_ASSOCIATIONS>
117608401  1

> <PUBCHEM_COORDINATE_TYPE>
1
3

$$$$
