310937864
  -OEChem-07211613022D

 24 26  0     0  0  0  0  0  0999 V2000
    2.4003   -4.5397    0.0000 S   0  0  0  0  0  0  0  0  0  0  0  0
    6.3138   -2.2177    0.0000 O   0  0  0  0  0  0  0  0  0  0  0  0
    2.2177   -2.9482    0.0000 O   0  0  0  0  0  0  0  0  0  0  0  0
    1.9045   -3.8874    0.0000 O   0  0  0  0  0  0  0  0  0  0  0  0
    2.8699   -5.2180    0.0000 O   0  0  0  0  0  0  0  0  0  0  0  0
    5.0354   -1.8263    0.0000 N   0  0  0  0  0  0  0  0  0  0  0  0
    4.4614   -3.9135    0.0000 N   0  0  0  0  0  0  0  0  0  0  0  0
    5.8181   -2.8960    0.0000 N   0  0  0  0  0  0  0  0  0  0  0  0
    3.0526   -4.0701    0.0000 C   0  0  0  0  0  0  0  0  0  0  0  0
    4.3832   -3.1047    0.0000 C   0  0  0  0  0  0  0  0  0  0  0  0
    2.9742   -3.2613    0.0000 C   0  0  0  0  0  0  0  0  0  0  0  0
    5.0354   -2.6351    0.0000 C   0  0  0  0  0  0  0  0  0  0  0  0
    3.6265   -2.7656    0.0000 C   0  0  0  0  0  0  0  0  0  0  0  0
    5.8181   -1.5654    0.0000 C   0  0  0  0  0  0  0  0  0  0  0  0
    3.8092   -4.4092    0.0000 C   0  0  0  0  0  0  0  0  0  0  0  0
    6.0790   -0.7827    0.0000 C   0  0  0  0  0  0  0  0  0  0  0  0
    1.5654   -3.4178    0.0000 C   0  0  0  0  0  0  0  0  0  0  0  0
    0.8088   -3.1047    0.0000 C   0  0  0  0  0  0  0  0  0  0  0  0
    1.7220   -5.0093    0.0000 C   0  0  0  0  0  0  0  0  0  0  0  0
    6.8878   -1.0436    0.0000 C   0  0  0  0  0  0  0  0  0  0  0  0
    6.3399    0.0000    0.0000 C   0  0  0  0  0  0  0  0  0  0  0  0
    5.2963   -0.5218    0.0000 C   0  0  0  0  0  0  0  0  0  0  0  0
    0.0000   -3.2091    0.0000 C   0  0  0  0  0  0  0  0  0  0  0  0
    0.2870   -2.4525    0.0000 C   0  0  0  0  0  0  0  0  0  0  0  0
  1  4  2  0  0  0  0
  1  5  2  0  0  0  0
  1  9  1  0  0  0  0
  1 19  1  0  0  0  0
  2  8  1  0  0  0  0
  2 14  1  0  0  0  0
  3 11  1  0  0  0  0
  3 17  1  0  0  0  0
  6 12  1  0  0  0  0
  6 14  2  0  0  0  0
  7 10  1  0  0  0  0
  7 15  2  0  0  0  0
  8 12  2  0  0  0  0
  9 11  2  0  0  0  0
  9 15  1  0  0  0  0
 10 12  1  0  0  0  0
 10 13  2  0  0  0  0
 11 13  1  0  0  0  0
 14 16  1  0  0  0  0
 16 20  1  0  0  0  0
 16 21  1  0  0  0  0
 16 22  1  0  0  0  0
 17 18  1  0  0  0  0
 18 23  1  0  0  0  0
 18 24  1  0  0  0  0
 23 24  1  0  0  0  0
M  END
> <PUBCHEM_COMPOUND_ID_TYPE>
0

> <PUBCHEM_TOTAL_CHARGE>
0

> <PUBCHEM_SUBSTANCE_ID>
310937864

> <PUBCHEM_SUBSTANCE_VERSION>
1

> <PUBCHEM_EXT_DATASOURCE_NAME>
4488

> <PUBCHEM_EXT_DATASOURCE_REGID>
SCHEMBL16115688

> <PUBCHEM_SUBSTANCE_COMMENT>
InChI=1S/C16H21N3O4S/c1-16(2,3)15-18-14(19-23-15)11-7-12(22-9-10-5-6-10)13(8-17-11)24(4,20)21/h7-8,10H,5-6,9H2,1-4H3
InChIKey=OABRLYVFUBJJPZ-UHFFFAOYSA-N

> <PUBCHEM_SUBSTANCE_SYNONYM>
SCHEMBL16115688

> <PUBCHEM_XREF_EXT_ID>
SCHEMBL16115688

> <PUBCHEM_EXT_DATASOURCE_URL>
https://www.surechembl.org/

> <PUBCHEM_EXT_SUBSTANCE_URL>
https://www.surechembl.org/chemical/SCHEMBL16115688

> <PUBCHEM_CID_ASSOCIATIONS>
86275946  1

> <PUBCHEM_COORDINATE_TYPE>
1
3

$$$$
