310931625
  -OEChem-07211613022D

 32 36  0     0  0  0  0  0  0999 V2000
    5.2893   -1.5716    0.0000 O   0  0  0  0  0  0  0  0  0  0  0  0
    1.1787   -3.2944    0.0000 O   0  0  0  0  0  0  0  0  0  0  0  0
    4.9266   -2.9923    0.0000 N   0  0  0  0  0  0  0  0  0  0  0  0
    5.3195   -3.6874    0.0000 N   0  0  0  0  0  0  0  0  0  0  0  0
    1.3601   -1.8739    0.0000 N   0  0  0  0  0  0  0  0  0  0  0  0
    3.6571   -3.5362    0.0000 N   0  0  0  0  0  0  0  0  0  0  0  0
    0.2115   -0.3324    0.0000 N   0  0  0  0  0  0  0  0  0  0  0  0
    9.0674   -0.2418    0.0000 N   0  0  0  0  0  0  0  0  0  0  0  0
    6.2263   -2.6900    0.0000 C   0  0  0  0  0  0  0  0  0  0  0  0
    5.4707   -2.3575    0.0000 C   0  0  0  0  0  0  0  0  0  0  0  0
    4.1106   -2.9015    0.0000 C   0  0  0  0  0  0  0  0  0  0  0  0
    6.9517   -2.2970    0.0000 C   0  0  0  0  0  0  0  0  0  0  0  0
    6.1356   -3.5061    0.0000 C   0  0  0  0  0  0  0  0  0  0  0  0
    2.5087   -2.7202    0.0000 C   0  0  0  0  0  0  0  0  0  0  0  0
    1.6925   -2.6296    0.0000 C   0  0  0  0  0  0  0  0  0  0  0  0
    6.9517   -1.4508    0.0000 C   0  0  0  0  0  0  0  0  0  0  0  0
    1.9042   -1.2090    0.0000 C   0  0  0  0  0  0  0  0  0  0  0  0
    3.8083   -2.1157    0.0000 C   0  0  0  0  0  0  0  0  0  0  0  0
    2.8109   -3.4758    0.0000 C   0  0  0  0  0  0  0  0  0  0  0  0
    2.9620   -2.0552    0.0000 C   0  0  0  0  0  0  0  0  0  0  0  0
    7.6468   -2.6900    0.0000 C   0  0  0  0  0  0  0  0  0  0  0  0
    0.5138   -1.8437    0.0000 C   0  0  0  0  0  0  0  0  0  0  0  0
    7.6468   -1.0578    0.0000 C   0  0  0  0  0  0  0  0  0  0  0  0
    8.3722   -1.4508    0.0000 C   0  0  0  0  0  0  0  0  0  0  0  0
    1.1486   -1.4205    0.0000 C   0  0  0  0  0  0  0  0  0  0  0  0
    1.7530   -0.3929    0.0000 C   0  0  0  0  0  0  0  0  0  0  0  0
    8.3722   -2.2970    0.0000 C   0  0  0  0  0  0  0  0  0  0  0  0
    0.0000   -1.1486    0.0000 C   0  0  0  0  0  0  0  0  0  0  0  0
    0.4836   -1.0277    0.0000 C   0  0  0  0  0  0  0  0  0  0  0  0
    0.9974    0.0000    0.0000 C   0  0  0  0  0  0  0  0  0  0  0  0
    6.2263   -1.0578    0.0000 C   0  0  0  0  0  0  0  0  0  0  0  0
    9.0674   -1.0578    0.0000 C   0  0  0  0  0  0  0  0  0  0  0  0
  1 10  1  0  0  0  0
  2 15  2  0  0  0  0
  3  4  1  0  0  0  0
  3 10  1  0  0  0  0
  3 11  1  0  0  0  0
  4 13  2  0  0  0  0
  5 15  1  0  0  0  0
  5 17  1  0  0  0  0
  5 22  1  0  0  0  0
  6 11  1  0  0  0  0
  6 19  2  0  0  0  0
  7 28  1  0  0  0  0
  7 29  1  0  0  0  0
  7 30  1  0  0  0  0
  8 32  3  0  0  0  0
  9 10  2  0  0  0  0
  9 12  1  0  0  0  0
  9 13  1  0  0  0  0
 11 18  2  0  0  0  0
 12 16  2  0  0  0  0
 12 21  1  0  0  0  0
 14 15  1  0  0  0  0
 14 19  1  0  0  0  0
 14 20  2  0  0  0  0
 16 23  1  0  0  0  0
 16 31  1  0  0  0  0
 17 25  1  0  0  0  0
 17 26  1  0  0  0  0
 18 20  1  0  0  0  0
 21 27  2  0  0  0  0
 22 28  1  0  0  0  0
 23 24  2  0  0  0  0
 24 27  1  0  0  0  0
 24 32  1  0  0  0  0
 25 29  1  0  0  0  0
 26 30  1  0  0  0  0
M  END
> <PUBCHEM_COMPOUND_ID_TYPE>
0

> <PUBCHEM_TOTAL_CHARGE>
0

> <PUBCHEM_SUBSTANCE_ID>
310931625

> <PUBCHEM_SUBSTANCE_VERSION>
1

> <PUBCHEM_EXT_DATASOURCE_NAME>
4488

> <PUBCHEM_EXT_DATASOURCE_REGID>
SCHEMBL16108951

> <PUBCHEM_SUBSTANCE_COMMENT>
InChI=1S/C24H24N6O2/c1-16-12-17(13-25)2-4-20(16)21-15-27-30(24(21)32)22-5-3-18(14-26-22)23(31)29-11-10-28-8-6-19(29)7-9-28/h2-5,12,14-15,19,32H,6-11H2,1H3
InChIKey=CQKRDSBTOIEUIY-UHFFFAOYSA-N

> <PUBCHEM_SUBSTANCE_SYNONYM>
SCHEMBL16108951

> <PUBCHEM_XREF_EXT_ID>
SCHEMBL16108951

> <PUBCHEM_EXT_DATASOURCE_URL>
https://www.surechembl.org/

> <PUBCHEM_EXT_SUBSTANCE_URL>
https://www.surechembl.org/chemical/SCHEMBL16108951

> <PUBCHEM_CID_ASSOCIATIONS>
117600342  1

> <PUBCHEM_COORDINATE_TYPE>
1
3

$$$$
