310948054
  -OEChem-07211613022D

 27 29  0     0  0  0  0  0  0999 V2000
    3.2423    0.5126    0.0000 Br  0  0  0  0  0  0  0  0  0  0  0  0
   -1.7736   -2.1754    0.0000 F   0  0  0  0  0  0  0  0  0  0  0  0
   -2.5772   -1.3717    0.0000 F   0  0  0  0  0  0  0  0  0  0  0  0
   -1.7736   -0.5681    0.0000 F   0  0  0  0  0  0  0  0  0  0  0  0
   -0.3603    0.0831    0.0000 O   0  0  0  0  0  0  0  0  0  0  0  0
   -3.2284    1.7320    0.0000 O   0  0  0  0  0  0  0  0  0  0  0  0
    0.2771   -1.9814    0.0000 N   0  0  0  0  0  0  0  0  0  0  0  0
   -0.5404   -2.1477    0.0000 N   0  0  0  0  0  0  0  0  0  0  0  0
    0.3741   -1.1500    0.0000 C   0  0  0  0  0  0  0  0  0  0  0  0
    1.0946   -0.7344    0.0000 C   0  0  0  0  0  0  0  0  0  0  0  0
   -0.9422   -1.4411    0.0000 C   0  0  0  0  0  0  0  0  0  0  0  0
   -0.4018   -0.8175    0.0000 C   0  0  0  0  0  0  0  0  0  0  0  0
    1.0946    0.0970    0.0000 C   0  0  0  0  0  0  0  0  0  0  0  0
   -1.7736   -1.3579    0.0000 C   0  0  0  0  0  0  0  0  0  0  0  0
    1.8013   -1.1362    0.0000 C   0  0  0  0  0  0  0  0  0  0  0  0
    1.8151    0.4988    0.0000 C   0  0  0  0  0  0  0  0  0  0  0  0
    2.5356    0.0970    0.0000 C   0  0  0  0  0  0  0  0  0  0  0  0
    0.3741    0.4988    0.0000 C   0  0  0  0  0  0  0  0  0  0  0  0
    2.5218   -0.7344    0.0000 C   0  0  0  0  0  0  0  0  0  0  0  0
    0.9145   -2.5218    0.0000 C   0  0  0  0  0  0  0  0  0  0  0  0
   -1.0808    0.5126    0.0000 C   0  0  0  0  0  0  0  0  0  0  0  0
   -1.0808    1.3440    0.0000 C   0  0  0  0  0  0  0  0  0  0  0  0
   -1.7874    0.1109    0.0000 C   0  0  0  0  0  0  0  0  0  0  0  0
   -2.5080    1.3440    0.0000 C   0  0  0  0  0  0  0  0  0  0  0  0
   -1.8013    1.7320    0.0000 C   0  0  0  0  0  0  0  0  0  0  0  0
   -2.5080    0.5126    0.0000 C   0  0  0  0  0  0  0  0  0  0  0  0
   -3.2423    2.5218    0.0000 C   0  0  0  0  0  0  0  0  0  0  0  0
  1 17  1  0  0  0  0
  2 14  1  0  0  0  0
  3 14  1  0  0  0  0
  4 14  1  0  0  0  0
  5 18  1  0  0  0  0
  5 21  1  0  0  0  0
  6 24  1  0  0  0  0
  6 27  1  0  0  0  0
  7  8  1  0  0  0  0
  7  9  1  0  0  0  0
  7 20  1  0  0  0  0
  8 11  2  0  0  0  0
  9 10  1  0  0  0  0
  9 12  2  0  0  0  0
 10 13  2  0  0  0  0
 10 15  1  0  0  0  0
 11 12  1  0  0  0  0
 11 14  1  0  0  0  0
 13 16  1  0  0  0  0
 13 18  1  0  0  0  0
 15 19  2  0  0  0  0
 16 17  2  0  0  0  0
 17 19  1  0  0  0  0
 21 22  2  0  0  0  0
 21 23  1  0  0  0  0
 22 25  1  0  0  0  0
 23 26  2  0  0  0  0
 24 25  2  0  0  0  0
 24 26  1  0  0  0  0
M  END
> <PUBCHEM_COMPOUND_ID_TYPE>
0

> <PUBCHEM_TOTAL_CHARGE>
0

> <PUBCHEM_SUBSTANCE_ID>
310948054

> <PUBCHEM_SUBSTANCE_VERSION>
1

> <PUBCHEM_EXT_DATASOURCE_NAME>
4488

> <PUBCHEM_EXT_DATASOURCE_REGID>
SCHEMBL16126229

> <PUBCHEM_SUBSTANCE_COMMENT>
InChI=1S/C19H16BrF3N2O2/c1-25-17(10-18(24-25)19(21,22)23)16-8-3-13(20)9-12(16)11-27-15-6-4-14(26-2)5-7-15/h3-10H,11H2,1-2H3
InChIKey=CQZGONGPXUSOPL-UHFFFAOYSA-N

> <PUBCHEM_SUBSTANCE_SYNONYM>
SCHEMBL16126229

> <PUBCHEM_XREF_EXT_ID>
SCHEMBL16126229

> <PUBCHEM_EXT_DATASOURCE_URL>
https://www.surechembl.org/

> <PUBCHEM_EXT_SUBSTANCE_URL>
https://www.surechembl.org/chemical/SCHEMBL16126229

> <PUBCHEM_CID_ASSOCIATIONS>
117613679  1

> <PUBCHEM_COORDINATE_TYPE>
1
3

$$$$
