310932039
  -OEChem-07211613022D

 32 36  0     0  0  0  0  0  0999 V2000
    4.8661   -2.8794    0.0000 O   0  0  0  0  0  0  0  0  0  0  0  0
    0.7487   -4.5782    0.0000 O   0  0  0  0  0  0  0  0  0  0  0  0
    0.9214   -3.1673    0.0000 N   0  0  0  0  0  0  0  0  0  0  0  0
    4.4918   -4.2614    0.0000 N   0  0  0  0  0  0  0  0  0  0  0  0
    0.9790   -0.8062    0.0000 N   0  0  0  0  0  0  0  0  0  0  0  0
    4.8949   -4.9813    0.0000 N   0  0  0  0  0  0  0  0  0  0  0  0
    3.2249   -4.8373    0.0000 N   0  0  0  0  0  0  0  0  0  0  0  0
    8.6381   -1.5261    0.0000 N   0  0  0  0  0  0  0  0  0  0  0  0
    0.7774   -1.8140    0.0000 C   0  0  0  0  0  0  0  0  0  0  0  0
    1.3245   -2.4475    0.0000 C   0  0  0  0  0  0  0  0  0  0  0  0
    0.2879   -1.2669    0.0000 C   0  0  0  0  0  0  0  0  0  0  0  0
    1.4397   -1.5261    0.0000 C   0  0  0  0  0  0  0  0  0  0  0  0
    0.0000   -2.1595    0.0000 C   0  0  0  0  0  0  0  0  0  0  0  0
    5.7875   -4.0023    0.0000 C   0  0  0  0  0  0  0  0  0  0  0  0
    5.0389   -3.6568    0.0000 C   0  0  0  0  0  0  0  0  0  0  0  0
    1.2381   -3.9160    0.0000 C   0  0  0  0  0  0  0  0  0  0  0  0
    3.6856   -4.1751    0.0000 C   0  0  0  0  0  0  0  0  0  0  0  0
    0.0864   -2.9946    0.0000 C   0  0  0  0  0  0  0  0  0  0  0  0
    2.0732   -4.0023    0.0000 C   0  0  0  0  0  0  0  0  0  0  0  0
    6.5073   -3.5992    0.0000 C   0  0  0  0  0  0  0  0  0  0  0  0
    5.7011   -4.8085    0.0000 C   0  0  0  0  0  0  0  0  0  0  0  0
    3.3688   -3.4264    0.0000 C   0  0  0  0  0  0  0  0  0  0  0  0
    6.5073   -2.7642    0.0000 C   0  0  0  0  0  0  0  0  0  0  0  0
    2.3899   -4.7797    0.0000 C   0  0  0  0  0  0  0  0  0  0  0  0
    2.5338   -3.3688    0.0000 C   0  0  0  0  0  0  0  0  0  0  0  0
    7.2272   -4.0023    0.0000 C   0  0  0  0  0  0  0  0  0  0  0  0
    1.1805    0.0000    0.0000 C   0  0  0  0  0  0  0  0  0  0  0  0
    7.2272   -2.3611    0.0000 C   0  0  0  0  0  0  0  0  0  0  0  0
    7.9182   -2.7642    0.0000 C   0  0  0  0  0  0  0  0  0  0  0  0
    7.9182   -3.5992    0.0000 C   0  0  0  0  0  0  0  0  0  0  0  0
    5.7875   -2.3611    0.0000 C   0  0  0  0  0  0  0  0  0  0  0  0
    8.6381   -2.3611    0.0000 C   0  0  0  0  0  0  0  0  0  0  0  0
  1 15  1  0  0  0  0
  2 16  2  0  0  0  0
  3 10  1  0  0  0  0
  3 16  1  0  0  0  0
  3 18  1  0  0  0  0
  4  6  1  0  0  0  0
  4 15  1  0  0  0  0
  4 17  1  0  0  0  0
  5 11  1  0  0  0  0
  5 12  1  0  0  0  0
  5 27  1  0  0  0  0
  6 21  2  0  0  0  0
  7 17  1  0  0  0  0
  7 24  2  0  0  0  0
  8 32  3  0  0  0  0
  9 10  1  0  0  0  0
  9 11  1  0  0  0  0
  9 12  1  0  0  0  0
  9 13  1  0  0  0  0
 13 18  1  0  0  0  0
 14 15  2  0  0  0  0
 14 20  1  0  0  0  0
 14 21  1  0  0  0  0
 16 19  1  0  0  0  0
 17 22  2  0  0  0  0
 19 24  1  0  0  0  0
 19 25  2  0  0  0  0
 20 23  2  0  0  0  0
 20 26  1  0  0  0  0
 22 25  1  0  0  0  0
 23 28  1  0  0  0  0
 23 31  1  0  0  0  0
 26 30  2  0  0  0  0
 28 29  2  0  0  0  0
 29 30  1  0  0  0  0
 29 32  1  0  0  0  0
M  END
> <PUBCHEM_COMPOUND_ID_TYPE>
0

> <PUBCHEM_TOTAL_CHARGE>
0

> <PUBCHEM_SUBSTANCE_ID>
310932039

> <PUBCHEM_SUBSTANCE_VERSION>
1

> <PUBCHEM_EXT_DATASOURCE_NAME>
4488

> <PUBCHEM_EXT_DATASOURCE_REGID>
SCHEMBL16109382

> <PUBCHEM_SUBSTANCE_COMMENT>
InChI=1S/C24H24N6O2/c1-16-9-17(10-25)3-5-19(16)20-12-27-30(23(20)32)21-6-4-18(11-26-21)22(31)29-8-7-24(15-29)13-28(2)14-24/h3-6,9,11-12,32H,7-8,13-15H2,1-2H3
InChIKey=RFESQVJVYBKEPQ-UHFFFAOYSA-N

> <PUBCHEM_SUBSTANCE_SYNONYM>
SCHEMBL16109382

> <PUBCHEM_XREF_EXT_ID>
SCHEMBL16109382

> <PUBCHEM_EXT_DATASOURCE_URL>
https://www.surechembl.org/

> <PUBCHEM_EXT_SUBSTANCE_URL>
https://www.surechembl.org/chemical/SCHEMBL16109382

> <PUBCHEM_CID_ASSOCIATIONS>
117600672  1

> <PUBCHEM_COORDINATE_TYPE>
1
3

$$$$
