310949457
  -OEChem-07211613022D

 10 11  0     0  0  0  0  0  0999 V2000
    1.2455    0.2506    0.0000 I   0  0  0  0  0  0  0  0  0  0  0  0
   -0.0810    1.1645    0.0000 O   0  0  0  0  0  0  0  0  0  0  0  0
    0.0810    0.3685    0.0000 C   0  0  0  0  0  0  0  0  0  0  0  0
   -0.6265   -0.0295    0.0000 C   0  0  0  0  0  0  0  0  0  0  0  0
    0.8181   -0.0295    0.0000 C   0  0  0  0  0  0  0  0  0  0  0  0
   -1.2455    0.5159    0.0000 C   0  0  0  0  0  0  0  0  0  0  0  0
   -0.6265   -0.8697    0.0000 C   0  0  0  0  0  0  0  0  0  0  0  0
    0.8034   -0.8550    0.0000 C   0  0  0  0  0  0  0  0  0  0  0  0
   -0.9213    1.2677    0.0000 C   0  0  0  0  0  0  0  0  0  0  0  0
    0.1105   -1.2677    0.0000 C   0  0  0  0  0  0  0  0  0  0  0  0
  1  5  1  0  0  0  0
  2  3  1  0  0  0  0
  2  9  1  0  0  0  0
  3  4  1  0  0  0  0
  3  5  2  0  0  0  0
  4  6  1  0  0  0  0
  4  7  2  0  0  0  0
  5  8  1  0  0  0  0
  6  9  1  0  0  0  0
  7 10  1  0  0  0  0
  8 10  2  0  0  0  0
M  END
> <PUBCHEM_COMPOUND_ID_TYPE>
0

> <PUBCHEM_TOTAL_CHARGE>
0

> <PUBCHEM_SUBSTANCE_ID>
310949457

> <PUBCHEM_SUBSTANCE_VERSION>
1

> <PUBCHEM_EXT_DATASOURCE_NAME>
4488

> <PUBCHEM_EXT_DATASOURCE_REGID>
SCHEMBL16127651

> <PUBCHEM_SUBSTANCE_COMMENT>
InChI=1S/C8H7IO/c9-7-3-1-2-6-4-5-10-8(6)7/h1-3H,4-5H2
InChIKey=IASDAJCCAFGOCE-UHFFFAOYSA-N

> <PUBCHEM_SUBSTANCE_SYNONYM>
SCHEMBL16127651

> <PUBCHEM_XREF_EXT_ID>
SCHEMBL16127651

> <PUBCHEM_EXT_DATASOURCE_URL>
https://www.surechembl.org/

> <PUBCHEM_EXT_SUBSTANCE_URL>
https://www.surechembl.org/chemical/SCHEMBL16127651

> <PUBCHEM_CID_ASSOCIATIONS>
33589431  1

> <PUBCHEM_COORDINATE_TYPE>
1
3

$$$$
