310942040
  -OEChem-07211613022D

 19 20  0     0  0  0  0  0  0999 V2000
    0.3785    1.0949    0.0000 O   0  0  0  0  0  0  0  0  0  0  0  0
    0.4461   -1.8113    0.0000 O   0  5  0  0  0  0  0  0  0  0  0  0
   -0.7705   -2.5547    0.0000 O   0  0  0  0  0  0  0  0  0  0  0  0
   -0.3785   -1.8113    0.0000 N   0  3  0  0  0  0  0  0  0  0  0  0
   -0.8651    1.7842    0.0000 N   0  0  0  0  0  0  0  0  0  0  0  0
   -0.4190   -0.3379    0.0000 C   0  0  0  0  0  0  0  0  0  0  0  0
   -0.8516    0.3649    0.0000 C   0  0  0  0  0  0  0  0  0  0  0  0
   -0.8110   -1.0679    0.0000 C   0  0  0  0  0  0  0  0  0  0  0  0
    0.4055   -0.3244    0.0000 C   0  0  0  0  0  0  0  0  0  0  0  0
   -0.4595    1.1084    0.0000 C   0  0  0  0  0  0  0  0  0  0  0  0
   -1.6490    0.3379    0.0000 C   0  0  0  0  0  0  0  0  0  0  0  0
   -1.6220   -1.0949    0.0000 C   0  0  0  0  0  0  0  0  0  0  0  0
   -2.0410   -0.3920    0.0000 C   0  0  0  0  0  0  0  0  0  0  0  0
    0.8380   -1.0273    0.0000 C   0  0  0  0  0  0  0  0  0  0  0  0
    0.7975    0.3920    0.0000 C   0  0  0  0  0  0  0  0  0  0  0  0
    1.6626   -1.0003    0.0000 C   0  0  0  0  0  0  0  0  0  0  0  0
    1.6085    0.4325    0.0000 C   0  0  0  0  0  0  0  0  0  0  0  0
    2.0410   -0.2569    0.0000 C   0  0  0  0  0  0  0  0  0  0  0  0
   -0.4461    2.5547    0.0000 C   0  0  0  0  0  0  0  0  0  0  0  0
  1 10  2  0  0  0  0
  2  4  1  0  0  0  0
  3  4  2  0  0  0  0
  4  8  1  0  0  0  0
  5 10  1  0  0  0  0
  5 19  1  0  0  0  0
  6  7  2  0  0  0  0
  6  8  1  0  0  0  0
  6  9  1  0  0  0  0
  7 10  1  0  0  0  0
  7 11  1  0  0  0  0
  8 12  2  0  0  0  0
  9 14  2  0  0  0  0
  9 15  1  0  0  0  0
 11 13  2  0  0  0  0
 12 13  1  0  0  0  0
 14 16  1  0  0  0  0
 15 17  2  0  0  0  0
 16 18  2  0  0  0  0
 17 18  1  0  0  0  0
M  CHG  2   2  -1   4   1
M  END
> <PUBCHEM_COMPOUND_ID_TYPE>
0

> <PUBCHEM_TOTAL_CHARGE>
0

> <PUBCHEM_SUBSTANCE_ID>
310942040

> <PUBCHEM_SUBSTANCE_VERSION>
1

> <PUBCHEM_EXT_DATASOURCE_NAME>
4488

> <PUBCHEM_EXT_DATASOURCE_REGID>
SCHEMBL16120074

> <PUBCHEM_SUBSTANCE_COMMENT>
InChI=1S/C14H12N2O3/c1-15-14(17)11-8-5-9-12(16(18)19)13(11)10-6-3-2-4-7-10/h2-9H,1H3,(H,15,17)
InChIKey=UBEZJQOUJRGBKK-UHFFFAOYSA-N

> <PUBCHEM_SUBSTANCE_SYNONYM>
SCHEMBL16120074

> <PUBCHEM_XREF_EXT_ID>
SCHEMBL16120074

> <PUBCHEM_EXT_DATASOURCE_URL>
https://www.surechembl.org/

> <PUBCHEM_EXT_SUBSTANCE_URL>
https://www.surechembl.org/chemical/SCHEMBL16120074

> <PUBCHEM_CID_ASSOCIATIONS>
117608725  1

> <PUBCHEM_COORDINATE_TYPE>
1
3

$$$$
