310934439
  -OEChem-07211613022D

 19 20  0     0  0  0  0  0  0999 V2000
    0.0250   -5.0000    0.0000 I   0  0  0  0  0  0  0  0  0  0  0  0
    3.3000   -0.7250    0.0000 S   0  0  0  0  0  0  0  0  0  0  0  0
    0.4000    0.0000    0.0000 O   0  0  0  0  0  0  0  0  0  0  0  0
    0.4000   -1.4250    0.0000 O   0  0  0  0  0  0  0  0  0  0  0  0
    0.0250   -2.1500    0.0000 O   0  0  0  0  0  0  0  0  0  0  0  0
    1.2250   -2.8500    0.0000 N   0  0  0  0  0  0  0  0  0  0  0  0
    1.6250   -0.7250    0.0000 C   0  0  0  0  0  0  0  0  0  0  0  0
    0.8000   -0.7250    0.0000 C   0  0  0  0  0  0  0  0  0  0  0  0
    1.2250   -1.4250    0.0000 C   0  0  0  0  0  0  0  0  0  0  0  0
    2.0500   -1.4250    0.0000 C   0  0  0  0  0  0  0  0  0  0  0  0
    2.0500    0.0000    0.0000 C   0  0  0  0  0  0  0  0  0  0  0  0
    1.6250   -2.1500    0.0000 C   0  0  0  0  0  0  0  0  0  0  0  0
    0.4250   -2.8750    0.0000 C   0  0  0  0  0  0  0  0  0  0  0  0
    1.6750   -3.5750    0.0000 C   0  0  0  0  0  0  0  0  0  0  0  0
    2.8750   -1.4250    0.0000 C   0  0  0  0  0  0  0  0  0  0  0  0
    2.8750    0.0000    0.0000 C   0  0  0  0  0  0  0  0  0  0  0  0
    0.0000   -3.5750    0.0000 C   0  0  0  0  0  0  0  0  0  0  0  0
    0.4250   -4.2750    0.0000 C   0  0  0  0  0  0  0  0  0  0  0  0
    1.2250   -4.2750    0.0000 C   0  0  0  0  0  0  0  0  0  0  0  0
  1 18  1  0  0  0  0
  2 15  1  0  0  0  0
  2 16  1  0  0  0  0
  3  8  2  0  0  0  0
  4  8  1  0  0  0  0
  5 13  2  0  0  0  0
  6 12  1  0  0  0  0
  6 13  1  0  0  0  0
  6 14  1  0  0  0  0
  7  8  1  0  0  0  0
  7  9  1  0  0  0  0
  7 10  1  0  0  0  0
  7 11  1  0  0  0  0
  9 12  1  0  0  0  0
 10 15  1  0  0  0  0
 11 16  1  0  0  0  0
 13 17  1  0  0  0  0
 14 19  2  0  0  0  0
 17 18  2  0  0  0  0
 18 19  1  0  0  0  0
M  END
> <PUBCHEM_COMPOUND_ID_TYPE>
0

> <PUBCHEM_TOTAL_CHARGE>
0

> <PUBCHEM_SUBSTANCE_ID>
310934439

> <PUBCHEM_SUBSTANCE_VERSION>
1

> <PUBCHEM_EXT_DATASOURCE_NAME>
4488

> <PUBCHEM_EXT_DATASOURCE_REGID>
SCHEMBL16111918

> <PUBCHEM_SUBSTANCE_COMMENT>
InChI=1S/C13H16INO3S/c14-10-1-5-15(11(16)9-10)6-2-13(12(17)18)3-7-19-8-4-13/h1,5,9H,2-4,6-8H2,(H,17,18)
InChIKey=VPLWVHWZRNRXAC-UHFFFAOYSA-N

> <PUBCHEM_SUBSTANCE_SYNONYM>
SCHEMBL16111918

> <PUBCHEM_XREF_EXT_ID>
SCHEMBL16111918

> <PUBCHEM_EXT_DATASOURCE_URL>
https://www.surechembl.org/

> <PUBCHEM_EXT_SUBSTANCE_URL>
https://www.surechembl.org/chemical/SCHEMBL16111918

> <PUBCHEM_CID_ASSOCIATIONS>
117602648  1

> <PUBCHEM_COORDINATE_TYPE>
1
3

$$$$
