310931330
  -OEChem-07211613022D

 29 32  0     0  0  0  0  0  0999 V2000
   -5.1659    2.2374    0.0000 S   0  0  0  0  0  0  0  0  0  0  0  0
   -5.1659    1.4124    0.0000 O   0  0  0  0  0  0  0  0  0  0  0  0
   -5.1659    3.0624    0.0000 O   0  0  0  0  0  0  0  0  0  0  0  0
   -1.8659    0.8085    0.0000 O   0  0  0  0  0  0  0  0  0  0  0  0
   -0.1435    2.1904    0.0000 N   0  0  0  0  0  0  0  0  0  0  0  0
   -4.3409    2.2374    0.0000 N   0  0  0  0  0  0  0  0  0  0  0  0
   -1.8659    2.2374    0.0000 N   0  0  0  0  0  0  0  0  0  0  0  0
    2.0701    1.1104    0.0000 N   0  0  0  0  0  0  0  0  0  0  0  0
   -0.6284    1.5229    0.0000 C   0  0  0  0  0  0  0  0  0  0  0  0
    0.6411    1.9354    0.0000 C   0  0  0  0  0  0  0  0  0  0  0  0
    0.6411    1.1104    0.0000 C   0  0  0  0  0  0  0  0  0  0  0  0
   -3.9284    2.9519    0.0000 C   0  0  0  0  0  0  0  0  0  0  0  0
   -5.9909    2.2374    0.0000 C   0  0  0  0  0  0  0  0  0  0  0  0
   -0.1435    0.8555    0.0000 C   0  0  0  0  0  0  0  0  0  0  0  0
   -3.1034    2.9519    0.0000 C   0  0  0  0  0  0  0  0  0  0  0  0
   -1.4534    1.5229    0.0000 C   0  0  0  0  0  0  0  0  0  0  0  0
    1.3556    2.3479    0.0000 C   0  0  0  0  0  0  0  0  0  0  0  0
    1.3556    0.6979    0.0000 C   0  0  0  0  0  0  0  0  0  0  0  0
   -2.6909    2.2374    0.0000 C   0  0  0  0  0  0  0  0  0  0  0  0
   -4.3409    3.6664    0.0000 C   0  0  0  0  0  0  0  0  0  0  0  0
   -6.4034    2.9519    0.0000 C   0  0  0  0  0  0  0  0  0  0  0  0
   -6.4034    1.5229    0.0000 C   0  0  0  0  0  0  0  0  0  0  0  0
   -2.6909    3.6664    0.0000 C   0  0  0  0  0  0  0  0  0  0  0  0
    2.0701    1.9354    0.0000 C   0  0  0  0  0  0  0  0  0  0  0  0
   -3.9284    4.3808    0.0000 C   0  0  0  0  0  0  0  0  0  0  0  0
   -3.1034    4.3808    0.0000 C   0  0  0  0  0  0  0  0  0  0  0  0
   -7.2284    2.9519    0.0000 C   0  0  0  0  0  0  0  0  0  0  0  0
   -7.2284    1.5229    0.0000 C   0  0  0  0  0  0  0  0  0  0  0  0
   -7.6409    2.2374    0.0000 C   0  0  0  0  0  0  0  0  0  0  0  0
  1  2  2  0  0  0  0
  1  3  2  0  0  0  0
  1  6  1  0  0  0  0
  1 13  1  0  0  0  0
  4 16  2  0  0  0  0
  5  9  1  0  0  0  0
  5 10  1  0  0  0  0
  6 12  1  0  0  0  0
  7 16  1  0  0  0  0
  7 19  1  0  0  0  0
  8 18  2  0  0  0  0
  8 24  1  0  0  0  0
  9 14  2  0  0  0  0
  9 16  1  0  0  0  0
 10 11  2  0  0  0  0
 10 17  1  0  0  0  0
 11 14  1  0  0  0  0
 11 18  1  0  0  0  0
 12 15  2  0  0  0  0
 12 20  1  0  0  0  0
 13 21  2  0  0  0  0
 13 22  1  0  0  0  0
 15 19  1  0  0  0  0
 15 23  1  0  0  0  0
 17 24  2  0  0  0  0
 20 25  2  0  0  0  0
 21 27  1  0  0  0  0
 22 28  2  0  0  0  0
 23 26  2  0  0  0  0
 25 26  1  0  0  0  0
 27 29  2  0  0  0  0
 28 29  1  0  0  0  0
M  END
> <PUBCHEM_COMPOUND_ID_TYPE>
0

> <PUBCHEM_TOTAL_CHARGE>
0

> <PUBCHEM_SUBSTANCE_ID>
310931330

> <PUBCHEM_SUBSTANCE_VERSION>
1

> <PUBCHEM_EXT_DATASOURCE_NAME>
4488

> <PUBCHEM_EXT_DATASOURCE_REGID>
SCHEMBL16108650

> <PUBCHEM_SUBSTANCE_COMMENT>
InChI=1S/C21H18N4O3S/c26-21(20-12-16-13-22-11-10-18(16)24-20)23-14-15-6-4-5-9-19(15)25-29(27,28)17-7-2-1-3-8-17/h1-13,24-25H,14H2,(H,23,26)
InChIKey=PEQYOIIVEMSAGG-UHFFFAOYSA-N

> <PUBCHEM_SUBSTANCE_SYNONYM>
SCHEMBL16108650

> <PUBCHEM_XREF_EXT_ID>
SCHEMBL16108650

> <PUBCHEM_EXT_DATASOURCE_URL>
https://www.surechembl.org/

> <PUBCHEM_EXT_SUBSTANCE_URL>
https://www.surechembl.org/chemical/SCHEMBL16108650

> <PUBCHEM_CID_ASSOCIATIONS>
117600140  1

> <PUBCHEM_COORDINATE_TYPE>
1
3

$$$$
