310942473
  -OEChem-07211613022D

 42 47  0     1  0  0  0  0  0999 V2000
    4.9432    2.0834    0.0000 Br  0  0  0  0  0  0  0  0  0  0  0  0
    1.8681    1.0378    0.0000 O   0  0  0  0  0  0  0  0  0  0  0  0
    2.3755   -1.0378    0.0000 O   0  0  0  0  0  0  0  0  0  0  0  0
    1.1147   -0.9609    0.0000 O   0  0  0  0  0  0  0  0  0  0  0  0
    3.2827    0.7150    0.0000 N   0  0  0  0  0  0  0  0  0  0  0  0
    3.9899   -0.6073    0.0000 N   0  0  0  0  0  0  0  0  0  0  0  0
   -0.3459    0.6073    0.0000 N   0  0  3  0  0  0  0  0  0  0  0  0
    5.4352   -0.5305    0.0000 N   0  0  0  0  0  0  0  0  0  0  0  0
    6.0810    0.7457    0.0000 N   0  0  0  0  0  0  0  0  0  0  0  0
   -2.7291   -0.8841    0.0000 N   0  0  0  0  0  0  0  0  0  0  0  0
   -3.4056   -2.0219    0.0000 N   0  0  0  0  0  0  0  0  0  0  0  0
    2.4831    0.5151    0.0000 C   0  0  3  0  0  0  0  0  0  0  0  0
    3.9438    0.2075    0.0000 C   0  0  0  0  0  0  0  0  0  0  0  0
    4.6357    0.6688    0.0000 C   0  0  0  0  0  0  0  0  0  0  0  0
    2.1449   -0.2383    0.0000 C   0  0  3  0  0  0  0  0  0  0  0  0
    4.4205    1.4530    0.0000 C   0  0  0  0  0  0  0  0  0  0  0  0
    1.1455    0.6381    0.0000 C   0  0  3  0  0  0  0  0  0  0  0  0
    3.5902    1.4837    0.0000 C   0  0  0  0  0  0  0  0  0  0  0  0
    1.3146   -0.1614    0.0000 C   0  0  3  0  0  0  0  0  0  0  0  0
    5.3891    0.2691    0.0000 C   0  0  0  0  0  0  0  0  0  0  0  0
    0.3767    1.0225    0.0000 C   0  0  0  0  0  0  0  0  0  0  0  0
   -0.5612   -0.2075    0.0000 C   0  0  0  0  0  0  0  0  0  0  0  0
    4.7741   -0.9917    0.0000 C   0  0  0  0  0  0  0  0  0  0  0  0
   -0.8380   -1.2839    0.0000 C   0  0  0  0  0  0  0  0  0  0  0  0
   -1.2531   -0.5920    0.0000 C   0  0  0  0  0  0  0  0  0  0  0  0
   -0.1307   -0.8841    0.0000 C   0  0  0  0  0  0  0  0  0  0  0  0
   -1.0839    1.0225    0.0000 C   0  0  0  0  0  0  0  0  0  0  0  0
   -3.5594   -0.6995    0.0000 C   0  0  0  0  0  0  0  0  0  0  0  0
   -3.9745   -1.4069    0.0000 C   0  0  0  0  0  0  0  0  0  0  0  0
   -2.6369   -1.6683    0.0000 C   0  0  0  0  0  0  0  0  0  0  0  0
   -4.8356   -0.0077    0.0000 C   0  0  0  0  0  0  0  0  0  0  0  0
   -1.0533   -2.0834    0.0000 C   0  0  0  0  0  0  0  0  0  0  0  0
   -3.9899    0.0077    0.0000 C   0  0  0  0  0  0  0  0  0  0  0  0
   -1.9296   -2.0834    0.0000 C   0  0  0  0  0  0  0  0  0  0  0  0
   -5.2507    0.6995    0.0000 C   0  0  0  0  0  0  0  0  0  0  0  0
   -4.8202   -1.4069    0.0000 C   0  0  0  0  0  0  0  0  0  0  0  0
   -5.2200   -0.7303    0.0000 C   0  0  0  0  0  0  0  0  0  0  0  0
   -1.0839    1.8373    0.0000 C   0  0  0  0  0  0  0  0  0  0  0  0
   -1.7912    0.5920    0.0000 C   0  0  0  0  0  0  0  0  0  0  0  0
   -6.0810    0.6842    0.0000 C   0  0  0  0  0  0  0  0  0  0  0  0
   -5.6505    1.4069    0.0000 C   0  0  0  0  0  0  0  0  0  0  0  0
   -4.8509    1.4069    0.0000 C   0  0  0  0  0  0  0  0  0  0  0  0
  1 16  1  0  0  0  0
 12  2  1  1  0  0  0
  2 17  1  0  0  0  0
 15  3  1  6  0  0  0
 19  4  1  6  0  0  0
  5 12  1  0  0  0  0
  5 13  1  0  0  0  0
  5 18  1  0  0  0  0
  6 13  1  0  0  0  0
  6 23  2  0  0  0  0
  7 21  1  0  0  0  0
 22  7  1  1  0  0  0
  7 27  1  0  0  0  0
  8 20  2  0  0  0  0
  8 23  1  0  0  0  0
  9 20  1  0  0  0  0
 10 28  1  0  0  0  0
 10 30  2  0  0  0  0
 11 29  1  0  0  0  0
 11 30  1  0  0  0  0
 12 15  1  0  0  0  0
 13 14  2  0  0  0  0
 14 16  1  0  0  0  0
 14 20  1  0  0  0  0
 15 19  1  0  0  0  0
 16 18  2  0  0  0  0
 17 19  1  0  0  0  0
 17 21  1  1  0  0  0
 22 25  1  0  0  0  0
 22 26  1  0  0  0  0
 24 25  1  0  0  0  0
 24 26  1  0  0  0  0
 24 32  1  6  0  0  0
 27 38  1  0  0  0  0
 27 39  1  0  0  0  0
 28 29  2  0  0  0  0
 28 33  1  0  0  0  0
 29 36  1  0  0  0  0
 30 34  1  0  0  0  0
 31 33  2  0  0  0  0
 31 35  1  0  0  0  0
 31 37  1  0  0  0  0
 32 34  1  0  0  0  0
 35 40  1  0  0  0  0
 35 41  1  0  0  0  0
 35 42  1  0  0  0  0
 36 37  2  0  0  0  0
M  END
> <PUBCHEM_COMPOUND_ID_TYPE>
0

> <PUBCHEM_TOTAL_CHARGE>
0

> <PUBCHEM_SUBSTANCE_ID>
310942473

> <PUBCHEM_SUBSTANCE_VERSION>
1

> <PUBCHEM_EXT_DATASOURCE_NAME>
4488

> <PUBCHEM_EXT_DATASOURCE_REGID>
SCHEMBL16120509

> <PUBCHEM_SUBSTANCE_COMMENT>
InChI=1S/C31H42BrN7O3/c1-16(2)38(14-23-26(40)27(41)30(42-23)39-13-20(32)25-28(33)34-15-35-29(25)39)19-10-17(11-19)6-9-24-36-21-8-7-18(31(3,4)5)12-22(21)37-24/h7-8,12-13,15-17,19,23,26-27,30,40-41H,6,9-11,14H2,1-5H3,(H,36,37)(H2,33,34,35)/t17-,19-,23-,26-,27-,30-/m1/s1
InChIKey=PUJONDOXVSQYQR-XENOUKJNSA-N

> <PUBCHEM_SUBSTANCE_SYNONYM>
SCHEMBL16120509

> <PUBCHEM_XREF_EXT_ID>
SCHEMBL16120509

> <PUBCHEM_EXT_DATASOURCE_URL>
https://www.surechembl.org/

> <PUBCHEM_EXT_SUBSTANCE_URL>
https://www.surechembl.org/chemical/SCHEMBL16120509

> <PUBCHEM_CID_ASSOCIATIONS>
78425883  1

> <PUBCHEM_COORDINATE_TYPE>
1
3

> <PUBCHEM_BONDANNOTATIONS>
17  21  5
12  2  5
24  32  6
15  3  6
19  4  6
22  7  5

$$$$
