310949878
  -OEChem-07211613022D

 29 33  0     1  0  0  0  0  0999 V2000
   -0.8639    1.5467    0.0000 N   0  0  0  0  0  0  0  0  0  0  0  0
   -0.8639    2.8844    0.0000 N   0  0  0  0  0  0  0  0  0  0  0  0
   -0.0975   -0.8082    0.0000 N   0  0  0  0  0  0  0  0  0  0  0  0
    1.7279    1.8115    0.0000 N   0  0  0  0  0  0  0  0  0  0  0  0
   -0.3902    2.2295    0.0000 C   0  0  0  0  0  0  0  0  0  0  0  0
   -1.6582    1.8254    0.0000 C   0  0  0  0  0  0  0  0  0  0  0  0
   -1.6443    2.6336    0.0000 C   0  0  0  0  0  0  0  0  0  0  0  0
   -0.6131    0.7803    0.0000 C   0  0  0  0  0  0  0  0  0  0  0  0
    0.4459    2.2156    0.0000 C   0  0  3  0  0  0  0  0  0  0  0  0
   -2.3828    1.4074    0.0000 C   0  0  0  0  0  0  0  0  0  0  0  0
   -2.3828    3.0377    0.0000 C   0  0  0  0  0  0  0  0  0  0  0  0
   -1.1427    0.1533    0.0000 C   0  0  0  0  0  0  0  0  0  0  0  0
    0.1951    0.5852    0.0000 C   0  0  0  0  0  0  0  0  0  0  0  0
    0.9476    1.5607    0.0000 C   0  0  0  0  0  0  0  0  0  0  0  0
    0.9336    2.8844    0.0000 C   0  0  0  0  0  0  0  0  0  0  0  0
   -3.0795    1.8115    0.0000 C   0  0  0  0  0  0  0  0  0  0  0  0
   -3.0795    2.6336    0.0000 C   0  0  0  0  0  0  0  0  0  0  0  0
   -0.9058   -0.6271    0.0000 C   0  0  0  0  0  0  0  0  0  0  0  0
    0.4459   -0.1811    0.0000 C   0  0  0  0  0  0  0  0  0  0  0  0
    1.7279    2.6336    0.0000 C   0  0  0  0  0  0  0  0  0  0  0  0
    0.1533   -1.5885    0.0000 C   0  0  0  0  0  0  0  0  0  0  0  0
    0.9614   -1.7697    0.0000 C   0  0  0  0  0  0  0  0  0  0  0  0
    1.1287   -2.5779    0.0000 C   0  0  0  0  0  0  0  0  0  0  0  0
    1.4352   -1.0869    0.0000 C   0  0  0  0  0  0  0  0  0  0  0  0
    1.7836   -3.0377    0.0000 C   0  0  0  0  0  0  0  0  0  0  0  0
    2.2574   -0.9336    0.0000 C   0  0  0  0  0  0  0  0  0  0  0  0
    2.9262   -1.3934    0.0000 C   0  0  0  0  0  0  0  0  0  0  0  0
    2.6197   -2.8844    0.0000 C   0  0  0  0  0  0  0  0  0  0  0  0
    3.0795   -2.2017    0.0000 C   0  0  0  0  0  0  0  0  0  0  0  0
  1  5  1  0  0  0  0
  1  6  1  0  0  0  0
  1  8  1  0  0  0  0
  2  5  2  0  0  0  0
  2  7  1  0  0  0  0
  3 18  1  0  0  0  0
  3 19  1  0  0  0  0
  3 21  1  0  0  0  0
  4 14  1  0  0  0  0
  4 20  1  0  0  0  0
  9  5  1  1  0  0  0
  6  7  1  0  0  0  0
  6 10  2  0  0  0  0
  7 11  2  0  0  0  0
  8 12  1  0  0  0  0
  8 13  1  0  0  0  0
  9 14  1  0  0  0  0
  9 15  1  0  0  0  0
 10 16  1  0  0  0  0
 11 17  1  0  0  0  0
 12 18  1  0  0  0  0
 13 19  1  0  0  0  0
 15 20  1  0  0  0  0
 16 17  2  0  0  0  0
 21 22  1  0  0  0  0
 22 23  1  0  0  0  0
 22 24  1  0  0  0  0
 23 25  1  0  0  0  0
 24 26  1  0  0  0  0
 25 28  1  0  0  0  0
 26 27  1  0  0  0  0
 27 29  1  0  0  0  0
 28 29  1  0  0  0  0
M  END
> <PUBCHEM_COMPOUND_ID_TYPE>
0

> <PUBCHEM_TOTAL_CHARGE>
0

> <PUBCHEM_SUBSTANCE_ID>
310949878

> <PUBCHEM_SUBSTANCE_VERSION>
1

> <PUBCHEM_EXT_DATASOURCE_NAME>
4488

> <PUBCHEM_EXT_DATASOURCE_REGID>
SCHEMBL16128089

> <PUBCHEM_SUBSTANCE_COMMENT>
InChI=1S/C25H38N4/c1-2-4-8-20(9-5-3-1)19-28-16-13-22(14-17-28)29-24-11-7-6-10-23(24)27-25(29)21-12-15-26-18-21/h6-7,10-11,20-22,26H,1-5,8-9,12-19H2/t21-/m0/s1
InChIKey=GCPLHBYCGYWPBA-NRFANRHFSA-N

> <PUBCHEM_SUBSTANCE_SYNONYM>
SCHEMBL16128089

> <PUBCHEM_XREF_EXT_ID>
SCHEMBL16128089

> <PUBCHEM_EXT_DATASOURCE_URL>
https://www.surechembl.org/

> <PUBCHEM_EXT_SUBSTANCE_URL>
https://www.surechembl.org/chemical/SCHEMBL16128089

> <PUBCHEM_CID_ASSOCIATIONS>
86272382  1

> <PUBCHEM_COORDINATE_TYPE>
1
3

> <PUBCHEM_BONDANNOTATIONS>
9  5  5

$$$$
