310939832
  -OEChem-07211613022D

 33 35  0     0  0  0  0  0  0999 V2000
    1.4289    2.6260    0.0000 Cl  0  0  0  0  0  0  0  0  0  0  0  0
   -2.8579   -3.1490    0.0000 S   0  0  0  0  0  0  0  0  0  0  0  0
    0.0000    0.1510    0.0000 O   0  0  0  0  0  0  0  0  0  0  0  0
    2.1434    3.0385    0.0000 O   0  0  0  0  0  0  0  0  0  0  0  0
    1.4289   -2.3240    0.0000 O   0  0  0  0  0  0  0  0  0  0  0  0
   -2.4454   -2.4345    0.0000 O   0  0  0  0  0  0  0  0  0  0  0  0
   -3.2704   -3.8635    0.0000 O   0  0  0  0  0  0  0  0  0  0  0  0
    1.4289   -0.6740    0.0000 N   0  0  0  0  0  0  0  0  0  0  0  0
    0.0000   -2.3240    0.0000 N   0  0  0  0  0  0  0  0  0  0  0  0
   -2.1434   -3.5615    0.0000 N   0  0  0  0  0  0  0  0  0  0  0  0
    2.1434    1.3885    0.0000 C   0  0  0  0  0  0  0  0  0  0  0  0
    2.8579    1.8010    0.0000 C   0  0  0  0  0  0  0  0  0  0  0  0
    1.4289    0.1510    0.0000 C   0  0  0  0  0  0  0  0  0  0  0  0
    1.4289    1.8010    0.0000 C   0  0  0  0  0  0  0  0  0  0  0  0
    0.7145    0.5635    0.0000 C   0  0  0  0  0  0  0  0  0  0  0  0
    2.1434    0.5635    0.0000 C   0  0  0  0  0  0  0  0  0  0  0  0
    2.8579    2.6260    0.0000 C   0  0  0  0  0  0  0  0  0  0  0  0
    0.7145    1.3885    0.0000 C   0  0  0  0  0  0  0  0  0  0  0  0
    3.5724    1.3885    0.0000 C   0  0  0  0  0  0  0  0  0  0  0  0
    0.7145   -1.9115    0.0000 C   0  0  0  0  0  0  0  0  0  0  0  0
    3.5724    3.0385    0.0000 C   0  0  0  0  0  0  0  0  0  0  0  0
    0.7145   -1.0865    0.0000 C   0  0  0  0  0  0  0  0  0  0  0  0
   -1.4289   -3.1490    0.0000 C   0  0  0  0  0  0  0  0  0  0  0  0
    4.2868    1.8010    0.0000 C   0  0  0  0  0  0  0  0  0  0  0  0
   -0.7145   -1.9115    0.0000 C   0  0  0  0  0  0  0  0  0  0  0  0
    0.0000   -3.1490    0.0000 C   0  0  0  0  0  0  0  0  0  0  0  0
    4.2868    2.6260    0.0000 C   0  0  0  0  0  0  0  0  0  0  0  0
   -1.4289   -2.3240    0.0000 C   0  0  0  0  0  0  0  0  0  0  0  0
   -0.7145   -3.5615    0.0000 C   0  0  0  0  0  0  0  0  0  0  0  0
   -3.5724   -2.7365    0.0000 C   0  0  0  0  0  0  0  0  0  0  0  0
   -0.7145    0.5635    0.0000 C   0  0  0  0  0  0  0  0  0  0  0  0
    2.1434    3.8635    0.0000 C   0  0  0  0  0  0  0  0  0  0  0  0
   -4.2868   -3.1490    0.0000 C   0  0  0  0  0  0  0  0  0  0  0  0
  1 14  1  0  0  0  0
  2  6  2  0  0  0  0
  2  7  2  0  0  0  0
  2 10  1  0  0  0  0
  2 30  1  0  0  0  0
  3 15  1  0  0  0  0
  3 31  1  0  0  0  0
  4 17  1  0  0  0  0
  4 32  1  0  0  0  0
  5 20  2  0  0  0  0
  8 13  1  0  0  0  0
  8 22  1  0  0  0  0
  9 20  1  0  0  0  0
  9 25  1  0  0  0  0
  9 26  1  0  0  0  0
 10 23  1  0  0  0  0
 11 12  1  0  0  0  0
 11 14  2  0  0  0  0
 11 16  1  0  0  0  0
 12 17  1  0  0  0  0
 12 19  2  0  0  0  0
 13 15  1  0  0  0  0
 13 16  2  0  0  0  0
 14 18  1  0  0  0  0
 15 18  2  0  0  0  0
 17 21  2  0  0  0  0
 19 24  1  0  0  0  0
 20 22  1  0  0  0  0
 21 27  1  0  0  0  0
 23 28  1  0  0  0  0
 23 29  1  0  0  0  0
 24 27  2  0  0  0  0
 25 28  1  0  0  0  0
 26 29  1  0  0  0  0
 30 33  2  0  0  0  0
M  END
> <PUBCHEM_COMPOUND_ID_TYPE>
0

> <PUBCHEM_TOTAL_CHARGE>
0

> <PUBCHEM_SUBSTANCE_ID>
310939832

> <PUBCHEM_SUBSTANCE_VERSION>
1

> <PUBCHEM_EXT_DATASOURCE_NAME>
4488

> <PUBCHEM_EXT_DATASOURCE_REGID>
SCHEMBL16117762

> <PUBCHEM_SUBSTANCE_COMMENT>
InChI=1S/C23H28ClN3O5S/c1-4-33(29,30)26-16-9-11-27(12-10-16)23(28)15-25-20-13-18(19(24)14-22(20)32-3)17-7-5-6-8-21(17)31-2/h4-8,13-14,16,25-26H,1,9-12,15H2,2-3H3
InChIKey=WPVMTCAJFUVSRD-UHFFFAOYSA-N

> <PUBCHEM_SUBSTANCE_SYNONYM>
SCHEMBL16117762

> <PUBCHEM_XREF_EXT_ID>
SCHEMBL16117762

> <PUBCHEM_EXT_DATASOURCE_URL>
https://www.surechembl.org/

> <PUBCHEM_EXT_SUBSTANCE_URL>
https://www.surechembl.org/chemical/SCHEMBL16117762

> <PUBCHEM_CID_ASSOCIATIONS>
117607049  1

> <PUBCHEM_COORDINATE_TYPE>
1
3

$$$$
