310947712
  -OEChem-07211613022D

 31 34  0     0  0  0  0  0  0999 V2000
   -0.2370   -0.3102    0.0000 S   0  0  0  0  0  0  0  0  0  0  0  0
   -3.1650   -0.4678    0.0000 O   0  0  0  0  0  0  0  0  0  0  0  0
    1.0729    1.7862    0.0000 O   0  0  0  0  0  0  0  0  0  0  0  0
    4.7854   -1.7862    0.0000 O   0  0  0  0  0  0  0  0  0  0  0  0
    6.0229   -1.0717    0.0000 O   0  0  0  0  0  0  0  0  0  0  0  0
   -0.2370    1.0247    0.0000 N   0  0  0  0  0  0  0  0  0  0  0  0
    2.3104    1.0717    0.0000 N   0  0  0  0  0  0  0  0  0  0  0  0
   -1.0216   -0.0553    0.0000 C   0  0  0  0  0  0  0  0  0  0  0  0
   -1.0216    0.7697    0.0000 C   0  0  0  0  0  0  0  0  0  0  0  0
    0.2479    0.3572    0.0000 C   0  0  0  0  0  0  0  0  0  0  0  0
   -1.7361   -0.4678    0.0000 C   0  0  0  0  0  0  0  0  0  0  0  0
   -2.4506   -0.0553    0.0000 C   0  0  0  0  0  0  0  0  0  0  0  0
   -1.7361    1.1822    0.0000 C   0  0  0  0  0  0  0  0  0  0  0  0
   -2.4506    0.7697    0.0000 C   0  0  0  0  0  0  0  0  0  0  0  0
    1.0729    0.3572    0.0000 C   0  0  0  0  0  0  0  0  0  0  0  0
    1.4854    1.0717    0.0000 C   0  0  0  0  0  0  0  0  0  0  0  0
    3.5479    0.3572    0.0000 C   0  0  0  0  0  0  0  0  0  0  0  0
    4.7854   -0.3572    0.0000 C   0  0  0  0  0  0  0  0  0  0  0  0
   -3.8795   -0.0553    0.0000 C   0  0  0  0  0  0  0  0  0  0  0  0
    2.7229    0.3572    0.0000 C   0  0  0  0  0  0  0  0  0  0  0  0
    3.9604   -0.3572    0.0000 C   0  0  0  0  0  0  0  0  0  0  0  0
   -4.5940   -0.4678    0.0000 C   0  0  0  0  0  0  0  0  0  0  0  0
    3.9604    1.0717    0.0000 C   0  0  0  0  0  0  0  0  0  0  0  0
    5.1979    0.3572    0.0000 C   0  0  0  0  0  0  0  0  0  0  0  0
    5.1979   -1.0717    0.0000 C   0  0  0  0  0  0  0  0  0  0  0  0
    4.7854    1.0717    0.0000 C   0  0  0  0  0  0  0  0  0  0  0  0
   -5.3085   -0.0553    0.0000 C   0  0  0  0  0  0  0  0  0  0  0  0
   -4.5940   -1.2928    0.0000 C   0  0  0  0  0  0  0  0  0  0  0  0
   -6.0229   -0.4678    0.0000 C   0  0  0  0  0  0  0  0  0  0  0  0
   -5.3085   -1.7053    0.0000 C   0  0  0  0  0  0  0  0  0  0  0  0
   -6.0229   -1.2928    0.0000 C   0  0  0  0  0  0  0  0  0  0  0  0
  1  8  1  0  0  0  0
  1 10  1  0  0  0  0
  2 12  1  0  0  0  0
  2 19  1  0  0  0  0
  3 16  2  0  0  0  0
  4 25  2  0  0  0  0
  5 25  1  0  0  0  0
  6  9  1  0  0  0  0
  6 10  2  0  0  0  0
  7 16  1  0  0  0  0
  7 20  1  0  0  0  0
  8  9  2  0  0  0  0
  8 11  1  0  0  0  0
  9 13  1  0  0  0  0
 10 15  1  0  0  0  0
 11 12  2  0  0  0  0
 12 14  1  0  0  0  0
 13 14  2  0  0  0  0
 15 16  1  0  0  0  0
 17 20  1  0  0  0  0
 17 21  2  0  0  0  0
 17 23  1  0  0  0  0
 18 21  1  0  0  0  0
 18 24  2  0  0  0  0
 18 25  1  0  0  0  0
 19 22  1  0  0  0  0
 22 27  2  0  0  0  0
 22 28  1  0  0  0  0
 23 26  2  0  0  0  0
 24 26  1  0  0  0  0
 27 29  1  0  0  0  0
 28 30  2  0  0  0  0
 29 31  2  0  0  0  0
 30 31  1  0  0  0  0
M  END
> <PUBCHEM_COMPOUND_ID_TYPE>
0

> <PUBCHEM_TOTAL_CHARGE>
0

> <PUBCHEM_SUBSTANCE_ID>
310947712

> <PUBCHEM_SUBSTANCE_VERSION>
1

> <PUBCHEM_EXT_DATASOURCE_NAME>
4488

> <PUBCHEM_EXT_DATASOURCE_REGID>
SCHEMBL16125883

> <PUBCHEM_SUBSTANCE_COMMENT>
InChI=1S/C24H20N2O4S/c27-22(25-14-17-7-4-8-18(11-17)24(28)29)13-23-26-20-10-9-19(12-21(20)31-23)30-15-16-5-2-1-3-6-16/h1-12H,13-15H2,(H,25,27)(H,28,29)
InChIKey=GJBXPGGWIDVEPU-UHFFFAOYSA-N

> <PUBCHEM_SUBSTANCE_SYNONYM>
SCHEMBL16125883

> <PUBCHEM_XREF_EXT_ID>
SCHEMBL16125883

> <PUBCHEM_EXT_DATASOURCE_URL>
https://www.surechembl.org/

> <PUBCHEM_EXT_SUBSTANCE_URL>
https://www.surechembl.org/chemical/SCHEMBL16125883

> <PUBCHEM_CID_ASSOCIATIONS>
117613418  1

> <PUBCHEM_COORDINATE_TYPE>
1
3

$$$$
