310949356
  -OEChem-07211613022D

 32 33  0     1  0  0  0  0  0999 V2000
    3.0261    0.8844    0.0000 O   0  0  0  0  0  0  0  0  0  0  0  0
    0.0000    2.2878    0.0000 O   0  0  0  0  0  0  0  0  0  0  0  0
   -3.5669    1.8785    0.0000 O   0  0  0  0  0  0  0  0  0  0  0  0
   -4.2686    0.6505    0.0000 O   0  0  0  0  0  0  0  0  0  0  0  0
    0.7016   -0.5774    0.0000 N   0  0  0  0  0  0  0  0  0  0  0  0
    0.7016    1.0745    0.0000 N   0  0  0  0  0  0  0  0  0  0  0  0
    1.4180    2.3024    0.0000 N   0  0  0  0  0  0  0  0  0  0  0  0
    2.2220    1.0745    0.0000 N   0  0  0  0  0  0  0  0  0  0  0  0
    0.0000    0.6652    0.0000 C   0  0  0  0  0  0  0  0  0  0  0  0
   -0.0147   -0.1535    0.0000 C   0  0  0  0  0  0  0  0  0  0  0  0
   -1.4326    0.6505    0.0000 C   0  0  0  0  0  0  0  0  0  0  0  0
   -0.7310    1.0598    0.0000 C   0  0  0  0  0  0  0  0  0  0  0  0
    0.7310    1.8931    0.0000 C   0  0  0  0  0  0  0  0  0  0  0  0
   -0.7163   -0.5774    0.0000 C   0  0  0  0  0  0  0  0  0  0  0  0
    2.1489    1.8931    0.0000 C   0  0  0  0  0  0  0  0  0  0  0  0
   -1.4326   -0.1681    0.0000 C   0  0  0  0  0  0  0  0  0  0  0  0
   -2.1489    1.0598    0.0000 C   0  0  3  0  0  0  0  0  0  0  0  0
    2.8799    2.2293    0.0000 C   0  0  0  0  0  0  0  0  0  0  0  0
    0.7016   -1.4107    0.0000 C   0  0  0  0  0  0  0  0  0  0  0  0
    1.4034   -0.1828    0.0000 C   0  0  0  0  0  0  0  0  0  0  0  0
    3.4354    1.6154    0.0000 C   0  0  0  0  0  0  0  0  0  0  0  0
   -2.8360    0.6652    0.0000 C   0  0  0  0  0  0  0  0  0  0  0  0
    1.5496    2.6679    0.0000 C   0  0  0  0  0  0  0  0  0  0  0  0
    0.0000   -1.8200    0.0000 C   0  0  0  0  0  0  0  0  0  0  0  0
    2.1343   -0.5774    0.0000 C   0  0  0  0  0  0  0  0  0  0  0  0
   -2.1343    1.8785    0.0000 C   0  0  0  0  0  0  0  0  0  0  0  0
   -3.5815    1.0452    0.0000 C   0  0  0  0  0  0  0  0  0  0  0  0
    4.2686    1.6885    0.0000 C   0  0  0  0  0  0  0  0  0  0  0  0
   -0.7310   -1.4253    0.0000 C   0  0  0  0  0  0  0  0  0  0  0  0
    0.0147   -2.6679    0.0000 C   0  0  0  0  0  0  0  0  0  0  0  0
    2.8360   -0.1681    0.0000 C   0  0  0  0  0  0  0  0  0  0  0  0
    2.1489   -1.4253    0.0000 C   0  0  0  0  0  0  0  0  0  0  0  0
  1  8  1  0  0  0  0
  1 21  1  0  0  0  0
  2 13  2  0  0  0  0
  3 27  2  0  0  0  0
  4 27  1  0  0  0  0
  5 10  1  0  0  0  0
  5 19  1  0  0  0  0
  5 20  1  0  0  0  0
  6  9  1  0  0  0  0
  6 13  1  0  0  0  0
  7 13  1  0  0  0  0
  7 15  1  0  0  0  0
  7 23  1  0  0  0  0
  8 15  2  0  0  0  0
  9 10  1  0  0  0  0
  9 12  2  0  0  0  0
 10 14  2  0  0  0  0
 11 12  1  0  0  0  0
 11 16  2  0  0  0  0
 11 17  1  0  0  0  0
 14 16  1  0  0  0  0
 15 18  1  0  0  0  0
 17 22  1  0  0  0  0
 17 26  1  1  0  0  0
 18 21  2  0  0  0  0
 19 24  1  0  0  0  0
 20 25  1  0  0  0  0
 21 28  1  0  0  0  0
 22 27  1  0  0  0  0
 24 29  1  0  0  0  0
 24 30  1  0  0  0  0
 25 31  1  0  0  0  0
 25 32  1  0  0  0  0
M  END
> <PUBCHEM_COMPOUND_ID_TYPE>
0

> <PUBCHEM_TOTAL_CHARGE>
0

> <PUBCHEM_SUBSTANCE_ID>
310949356

> <PUBCHEM_SUBSTANCE_VERSION>
1

> <PUBCHEM_EXT_DATASOURCE_NAME>
4488

> <PUBCHEM_EXT_DATASOURCE_REGID>
SCHEMBL16127548

> <PUBCHEM_SUBSTANCE_COMMENT>
InChI=1S/C24H36N4O4/c1-15(2)13-28(14-16(3)4)21-9-8-19(17(5)10-23(29)30)12-20(21)25-24(31)27(7)22-11-18(6)32-26-22/h8-9,11-12,15-17H,10,13-14H2,1-7H3,(H,25,31)(H,29,30)/t17-/m1/s1
InChIKey=DEBDNFIAZKOVCW-QGZVFWFLSA-N

> <PUBCHEM_SUBSTANCE_SYNONYM>
SCHEMBL16127548

> <PUBCHEM_XREF_EXT_ID>
SCHEMBL16127548

> <PUBCHEM_EXT_DATASOURCE_URL>
https://www.surechembl.org/

> <PUBCHEM_EXT_SUBSTANCE_URL>
https://www.surechembl.org/chemical/SCHEMBL16127548

> <PUBCHEM_CID_ASSOCIATIONS>
117614826  1

> <PUBCHEM_COORDINATE_TYPE>
1
3

> <PUBCHEM_BONDANNOTATIONS>
17  26  5

$$$$
