310946047
  -OEChem-07211613022D

 37 40  0     1  0  0  0  0  0999 V2000
    3.6399    1.5610    0.0000 O   0  0  0  0  0  0  0  0  0  0  0  0
    1.3883    1.5610    0.0000 O   0  0  0  0  0  0  0  0  0  0  0  0
   -2.7972    0.6078    0.0000 O   0  0  0  0  0  0  0  0  0  0  0  0
   -0.0484    1.5610    0.0000 O   0  0  0  0  0  0  0  0  0  0  0  0
    0.6700    1.1465    0.0000 O   0  0  0  0  0  0  0  0  0  0  0  0
   -2.9216   -2.5693    0.0000 O   0  0  0  0  0  0  0  0  0  0  0  0
    1.3883   -0.0828    0.0000 N   0  0  0  0  0  0  0  0  0  0  0  0
   -0.7667    0.3315    0.0000 N   0  0  0  0  0  0  0  0  0  0  0  0
   -1.5679    2.4036    0.0000 N   0  0  0  0  0  0  0  0  0  0  0  0
    2.8387    1.5748    0.0000 C   0  0  3  0  0  0  0  0  0  0  0  0
    2.0789    1.1051    0.0000 C   0  0  0  0  0  0  0  0  0  0  0  0
    3.2531    0.8841    0.0000 C   0  0  0  0  0  0  0  0  0  0  0  0
    2.0928    0.3315    0.0000 C   0  0  3  0  0  0  0  0  0  0  0  0
   -1.4850    1.5748    0.0000 C   0  0  3  0  0  0  0  0  0  0  0  0
   -2.2171    1.2432    0.0000 C   0  0  3  0  0  0  0  0  0  0  0  0
    2.8249    2.4036    0.0000 C   0  0  0  0  0  0  0  0  0  0  0  0
   -0.7390    1.1189    0.0000 C   0  0  0  0  0  0  0  0  0  0  0  0
    0.6700    0.3177    0.0000 C   0  0  0  0  0  0  0  0  0  0  0  0
   -0.0346   -0.0691    0.0000 C   0  0  3  0  0  0  0  0  0  0  0  0
    2.8111   -0.0691    0.0000 C   0  0  0  0  0  0  0  0  0  0  0  0
   -2.7835    1.8511    0.0000 C   0  0  0  0  0  0  0  0  0  0  0  0
    2.8249   -0.9117    0.0000 C   0  0  0  0  0  0  0  0  0  0  0  0
   -2.3828    2.5693    0.0000 C   0  0  0  0  0  0  0  0  0  0  0  0
   -0.0207   -0.9117    0.0000 C   0  0  0  0  0  0  0  0  0  0  0  0
   -1.9823    0.4559    0.0000 C   0  0  0  0  0  0  0  0  0  0  0  0
   -0.7528   -1.3261    0.0000 C   0  0  0  0  0  0  0  0  0  0  0  0
    3.5294   -1.3123    0.0000 C   0  0  0  0  0  0  0  0  0  0  0  0
    2.1066   -1.3261    0.0000 C   0  0  0  0  0  0  0  0  0  0  0  0
   -1.4988   -0.9255    0.0000 C   0  0  0  0  0  0  0  0  0  0  0  0
   -0.7667   -2.1411    0.0000 C   0  0  0  0  0  0  0  0  0  0  0  0
   -2.2032   -2.1411    0.0000 C   0  0  0  0  0  0  0  0  0  0  0  0
   -2.1894   -1.3123    0.0000 C   0  0  0  0  0  0  0  0  0  0  0  0
   -1.4711   -2.5555    0.0000 C   0  0  0  0  0  0  0  0  0  0  0  0
    3.5294   -2.1411    0.0000 C   0  0  0  0  0  0  0  0  0  0  0  0
    2.1066   -2.1411    0.0000 C   0  0  0  0  0  0  0  0  0  0  0  0
    2.8387   -2.5555    0.0000 C   0  0  0  0  0  0  0  0  0  0  0  0
   -3.6399   -2.1688    0.0000 C   0  0  0  0  0  0  0  0  0  0  0  0
  1 10  1  0  0  0  0
  1 12  1  0  0  0  0
  2 11  2  0  0  0  0
 15  3  1  6  0  0  0
  4 17  2  0  0  0  0
  5 18  2  0  0  0  0
  6 31  1  0  0  0  0
  6 37  1  0  0  0  0
 13  7  1  6  0  0  0
  7 18  1  0  0  0  0
  8 17  1  0  0  0  0
 19  8  1  6  0  0  0
  9 14  1  0  0  0  0
  9 23  1  0  0  0  0
 10 11  1  6  0  0  0
 10 12  1  0  0  0  0
 10 16  1  1  0  0  0
 11 13  1  0  0  0  0
 13 20  1  0  0  0  0
 14 15  1  0  0  0  0
 14 17  1  6  0  0  0
 15 21  1  0  0  0  0
 15 25  1  1  0  0  0
 18 19  1  0  0  0  0
 19 24  1  0  0  0  0
 20 22  1  0  0  0  0
 21 23  1  0  0  0  0
 22 27  2  0  0  0  0
 22 28  1  0  0  0  0
 24 26  1  0  0  0  0
 26 29  2  0  0  0  0
 26 30  1  0  0  0  0
 27 34  1  0  0  0  0
 28 35  2  0  0  0  0
 29 32  1  0  0  0  0
 30 33  2  0  0  0  0
 31 32  2  0  0  0  0
 31 33  1  0  0  0  0
 34 36  2  0  0  0  0
 35 36  1  0  0  0  0
M  END
> <PUBCHEM_COMPOUND_ID_TYPE>
0

> <PUBCHEM_TOTAL_CHARGE>
0

> <PUBCHEM_SUBSTANCE_ID>
310946047

> <PUBCHEM_SUBSTANCE_VERSION>
1

> <PUBCHEM_EXT_DATASOURCE_NAME>
4488

> <PUBCHEM_EXT_DATASOURCE_REGID>
SCHEMBL16124153

> <PUBCHEM_SUBSTANCE_COMMENT>
InChI=1S/C28H35N3O6/c1-27(35)13-14-29-23(27)26(34)31-22(16-19-9-11-20(36-3)12-10-19)25(33)30-21(24(32)28(2)17-37-28)15-18-7-5-4-6-8-18/h4-12,21-23,29,35H,13-17H2,1-3H3,(H,30,33)(H,31,34)/t21-,22-,23+,27+,28+/m0/s1
InChIKey=MGQXEWFQQFLJIX-BWVSMSPPSA-N

> <PUBCHEM_SUBSTANCE_SYNONYM>
SCHEMBL16124153

> <PUBCHEM_XREF_EXT_ID>
SCHEMBL16124153

> <PUBCHEM_EXT_DATASOURCE_URL>
https://www.surechembl.org/

> <PUBCHEM_EXT_SUBSTANCE_URL>
https://www.surechembl.org/chemical/SCHEMBL16124153

> <PUBCHEM_CID_ASSOCIATIONS>
117612018  1

> <PUBCHEM_COORDINATE_TYPE>
1
3

> <PUBCHEM_BONDANNOTATIONS>
10  11  6
10  16  5
14  17  6
15  25  5
15  3  6
13  7  6
19  8  6

$$$$
