310949557
  -OEChem-07211613022D

 30 35  0     1  0  0  0  0  0999 V2000
    1.1067   -2.6258    0.0000 S   0  0  0  0  0  0  0  0  0  0  0  0
   -1.2167    1.4435    0.0000 N   0  0  0  0  0  0  0  0  0  0  0  0
   -1.2167    2.7770    0.0000 N   0  0  0  0  0  0  0  0  0  0  0  0
   -0.4605   -0.9073    0.0000 N   0  0  0  0  0  0  0  0  0  0  0  0
    1.2441   -1.2923    0.0000 N   0  0  0  0  0  0  0  0  0  0  0  0
    1.3542    1.7047    0.0000 N   0  0  0  0  0  0  0  0  0  0  0  0
   -0.7355    2.1172    0.0000 C   0  0  0  0  0  0  0  0  0  0  0  0
   -2.0003    1.7185    0.0000 C   0  0  0  0  0  0  0  0  0  0  0  0
   -2.0003    2.5296    0.0000 C   0  0  0  0  0  0  0  0  0  0  0  0
   -0.9692    0.6736    0.0000 C   0  0  0  0  0  0  0  0  0  0  0  0
    0.1031    2.1034    0.0000 C   0  0  3  0  0  0  0  0  0  0  0  0
   -2.7014    1.2923    0.0000 C   0  0  0  0  0  0  0  0  0  0  0  0
   -2.7014    2.9282    0.0000 C   0  0  0  0  0  0  0  0  0  0  0  0
   -1.5191    0.0550    0.0000 C   0  0  0  0  0  0  0  0  0  0  0  0
   -0.1581    0.4812    0.0000 C   0  0  0  0  0  0  0  0  0  0  0  0
    0.6943   -1.8971    0.0000 C   0  0  0  0  0  0  0  0  0  0  0  0
    0.5568    1.4573    0.0000 C   0  0  0  0  0  0  0  0  0  0  0  0
    0.5568    2.7633    0.0000 C   0  0  0  0  0  0  0  0  0  0  0  0
    1.9041   -2.4471    0.0000 C   0  0  0  0  0  0  0  0  0  0  0  0
    2.0140   -1.6222    0.0000 C   0  0  0  0  0  0  0  0  0  0  0  0
   -1.2579   -0.7286    0.0000 C   0  0  0  0  0  0  0  0  0  0  0  0
    0.0893   -0.2887    0.0000 C   0  0  0  0  0  0  0  0  0  0  0  0
   -3.4163    1.6910    0.0000 C   0  0  0  0  0  0  0  0  0  0  0  0
   -0.1993   -1.6772    0.0000 C   0  0  0  0  0  0  0  0  0  0  0  0
   -3.4163    2.5296    0.0000 C   0  0  0  0  0  0  0  0  0  0  0  0
    1.3542    2.5158    0.0000 C   0  0  0  0  0  0  0  0  0  0  0  0
    2.5777   -2.9282    0.0000 C   0  0  0  0  0  0  0  0  0  0  0  0
    2.7839   -1.3198    0.0000 C   0  0  0  0  0  0  0  0  0  0  0  0
    3.3339   -2.5983    0.0000 C   0  0  0  0  0  0  0  0  0  0  0  0
    3.4163   -1.7872    0.0000 C   0  0  0  0  0  0  0  0  0  0  0  0
  1 16  1  0  0  0  0
  1 19  1  0  0  0  0
  2  7  1  0  0  0  0
  2  8  1  0  0  0  0
  2 10  1  0  0  0  0
  3  7  2  0  0  0  0
  3  9  1  0  0  0  0
  4 21  1  0  0  0  0
  4 22  1  0  0  0  0
  4 24  1  0  0  0  0
  5 16  2  0  0  0  0
  5 20  1  0  0  0  0
  6 17  1  0  0  0  0
  6 26  1  0  0  0  0
 11  7  1  6  0  0  0
  8  9  1  0  0  0  0
  8 12  2  0  0  0  0
  9 13  2  0  0  0  0
 10 14  1  0  0  0  0
 10 15  1  0  0  0  0
 11 17  1  0  0  0  0
 11 18  1  0  0  0  0
 12 23  1  0  0  0  0
 13 25  1  0  0  0  0
 14 21  1  0  0  0  0
 15 22  1  0  0  0  0
 16 24  1  0  0  0  0
 18 26  1  0  0  0  0
 19 20  2  0  0  0  0
 19 27  1  0  0  0  0
 20 28  1  0  0  0  0
 23 25  2  0  0  0  0
 27 29  2  0  0  0  0
 28 30  2  0  0  0  0
 29 30  1  0  0  0  0
M  END
> <PUBCHEM_COMPOUND_ID_TYPE>
0

> <PUBCHEM_TOTAL_CHARGE>
0

> <PUBCHEM_SUBSTANCE_ID>
310949557

> <PUBCHEM_SUBSTANCE_VERSION>
1

> <PUBCHEM_EXT_DATASOURCE_NAME>
4488

> <PUBCHEM_EXT_DATASOURCE_REGID>
SCHEMBL16127752

> <PUBCHEM_SUBSTANCE_COMMENT>
InChI=1S/C24H27N5S/c1-3-7-21-19(5-1)27-24(17-9-12-25-15-17)29(21)18-10-13-28(14-11-18)16-23-26-20-6-2-4-8-22(20)30-23/h1-8,17-18,25H,9-16H2/t17-/m1/s1
InChIKey=XHONVFWBTCFOCF-QGZVFWFLSA-N

> <PUBCHEM_SUBSTANCE_SYNONYM>
SCHEMBL16127752

> <PUBCHEM_XREF_EXT_ID>
SCHEMBL16127752

> <PUBCHEM_EXT_DATASOURCE_URL>
https://www.surechembl.org/

> <PUBCHEM_EXT_SUBSTANCE_URL>
https://www.surechembl.org/chemical/SCHEMBL16127752

> <PUBCHEM_CID_ASSOCIATIONS>
86275729  1

> <PUBCHEM_COORDINATE_TYPE>
1
3

> <PUBCHEM_BONDANNOTATIONS>
11  7  6

$$$$
