310941955
  -OEChem-07211613022D

 20 23  0     0  0  0  0  0  0999 V2000
    2.7646    1.8242    0.0000 S   0  0  0  0  0  0  0  0  0  0  0  0
   -0.7586   -1.1723    0.0000 N   0  0  0  0  0  0  0  0  0  0  0  0
   -0.3322    0.1191    0.0000 C   0  0  0  0  0  0  0  0  0  0  0  0
   -0.0940   -0.6708    0.0000 C   0  0  0  0  0  0  0  0  0  0  0  0
   -1.1598    0.1442    0.0000 C   0  0  0  0  0  0  0  0  0  0  0  0
   -1.4356   -0.6457    0.0000 C   0  0  0  0  0  0  0  0  0  0  0  0
    0.2319    0.7209    0.0000 C   0  0  0  0  0  0  0  0  0  0  0  0
    1.0219    0.5579    0.0000 C   0  0  0  0  0  0  0  0  0  0  0  0
    0.7209   -0.8463    0.0000 C   0  0  0  0  0  0  0  0  0  0  0  0
   -1.6989    0.7460    0.0000 C   0  0  0  0  0  0  0  0  0  0  0  0
   -2.2255   -0.8087    0.0000 C   0  0  0  0  0  0  0  0  0  0  0  0
    1.2601   -0.2571    0.0000 C   0  0  0  0  0  0  0  0  0  0  0  0
    1.5986    1.1848    0.0000 C   0  0  0  0  0  0  0  0  0  0  0  0
   -0.7836   -2.0123    0.0000 C   0  0  0  0  0  0  0  0  0  0  0  0
   -2.5013    0.5955    0.0000 C   0  0  0  0  0  0  0  0  0  0  0  0
   -2.7646   -0.1943    0.0000 C   0  0  0  0  0  0  0  0  0  0  0  0
    2.4261    1.0720    0.0000 C   0  0  0  0  0  0  0  0  0  0  0  0
    1.4356    1.9998    0.0000 C   0  0  0  0  0  0  0  0  0  0  0  0
    2.1377    2.4010    0.0000 C   0  0  0  0  0  0  0  0  0  0  0  0
   -1.4983   -2.4010    0.0000 C   0  0  0  0  0  0  0  0  0  0  0  0
  1 17  1  0  0  0  0
  1 19  1  0  0  0  0
  2  4  1  0  0  0  0
  2  6  1  0  0  0  0
  2 14  1  0  0  0  0
  3  4  2  0  0  0  0
  3  5  1  0  0  0  0
  3  7  1  0  0  0  0
  4  9  1  0  0  0  0
  5  6  2  0  0  0  0
  5 10  1  0  0  0  0
  6 11  1  0  0  0  0
  7  8  2  0  0  0  0
  8 12  1  0  0  0  0
  8 13  1  0  0  0  0
  9 12  2  0  0  0  0
 10 15  2  0  0  0  0
 11 16  2  0  0  0  0
 13 17  2  0  0  0  0
 13 18  1  0  0  0  0
 14 20  1  0  0  0  0
 15 16  1  0  0  0  0
 18 19  2  0  0  0  0
M  END
> <PUBCHEM_COMPOUND_ID_TYPE>
0

> <PUBCHEM_TOTAL_CHARGE>
0

> <PUBCHEM_SUBSTANCE_ID>
310941955

> <PUBCHEM_SUBSTANCE_VERSION>
1

> <PUBCHEM_EXT_DATASOURCE_NAME>
4488

> <PUBCHEM_EXT_DATASOURCE_REGID>
SCHEMBL16119988

> <PUBCHEM_SUBSTANCE_COMMENT>
InChI=1S/C18H15NS/c1-2-19-17-6-4-3-5-15(17)16-11-13(7-8-18(16)19)14-9-10-20-12-14/h3-12H,2H2,1H3
InChIKey=KITQVODXJUEAFR-UHFFFAOYSA-N

> <PUBCHEM_SUBSTANCE_SYNONYM>
SCHEMBL16119988

> <PUBCHEM_XREF_EXT_ID>
SCHEMBL16119988

> <PUBCHEM_EXT_DATASOURCE_URL>
https://www.surechembl.org/

> <PUBCHEM_EXT_SUBSTANCE_URL>
https://www.surechembl.org/chemical/SCHEMBL16119988

> <PUBCHEM_CID_ASSOCIATIONS>
86271435  1

> <PUBCHEM_COORDINATE_TYPE>
1
3

$$$$
