310944149
  -OEChem-07211613022D

 31 35  0     0  0  0  0  0  0999 V2000
    2.4846   -0.1049    0.0000 O   0  0  0  0  0  0  0  0  0  0  0  0
    5.0023   -1.6508    0.0000 O   0  0  0  0  0  0  0  0  0  0  0  0
    5.4661   -0.2595    0.0000 O   0  0  0  0  0  0  0  0  0  0  0  0
    2.8710   -1.5184    0.0000 N   0  0  0  0  0  0  0  0  0  0  0  0
    0.1326   -0.4141    0.0000 N   0  0  0  0  0  0  0  0  0  0  0  0
   -4.1520    1.2313    0.0000 N   0  0  0  0  0  0  0  0  0  0  0  0
   -2.7275    1.2313    0.0000 N   0  0  0  0  0  0  0  0  0  0  0  0
   -2.7275   -0.4141    0.0000 N   0  0  0  0  0  0  0  0  0  0  0  0
   -4.2403    2.0484    0.0000 N   0  0  0  0  0  0  0  0  0  0  0  0
   -5.0464    2.2251    0.0000 N   0  0  0  0  0  0  0  0  0  0  0  0
   -5.4661    1.5074    0.0000 N   0  0  0  0  0  0  0  0  0  0  0  0
    1.5460   -1.2313    0.0000 C   0  0  0  0  0  0  0  0  0  0  0  0
    2.2969   -0.9110    0.0000 C   0  0  0  0  0  0  0  0  0  0  0  0
    1.6453   -2.0484    0.0000 C   0  0  0  0  0  0  0  0  0  0  0  0
    3.6771   -1.4190    0.0000 C   0  0  0  0  0  0  0  0  0  0  0  0
    2.4515   -2.2251    0.0000 C   0  0  0  0  0  0  0  0  0  0  0  0
    0.8613   -1.6397    0.0000 C   0  0  0  0  0  0  0  0  0  0  0  0
    1.5570   -0.4141    0.0000 C   0  0  0  0  0  0  0  0  0  0  0  0
    0.1215   -1.2313    0.0000 C   0  0  0  0  0  0  0  0  0  0  0  0
    0.8282    0.0055    0.0000 C   0  0  0  0  0  0  0  0  0  0  0  0
    4.0637   -0.6901    0.0000 C   0  0  0  0  0  0  0  0  0  0  0  0
    4.2734   -2.0042    0.0000 C   0  0  0  0  0  0  0  0  0  0  0  0
    4.8587   -0.8447    0.0000 C   0  0  0  0  0  0  0  0  0  0  0  0
   -3.4453    0.8337    0.0000 C   0  0  0  0  0  0  0  0  0  0  0  0
   -2.0208    0.0166    0.0000 C   0  0  0  0  0  0  0  0  0  0  0  0
   -0.5963    0.0055    0.0000 C   0  0  0  0  0  0  0  0  0  0  0  0
   -2.0097    0.8337    0.0000 C   0  0  0  0  0  0  0  0  0  0  0  0
   -1.2809   -0.4031    0.0000 C   0  0  0  0  0  0  0  0  0  0  0  0
   -3.4453    0.0055    0.0000 C   0  0  0  0  0  0  0  0  0  0  0  0
   -4.9139    0.9110    0.0000 C   0  0  0  0  0  0  0  0  0  0  0  0
   -1.2809    1.2533    0.0000 C   0  0  0  0  0  0  0  0  0  0  0  0
  1 13  2  0  0  0  0
  2 22  1  0  0  0  0
  2 23  1  0  0  0  0
  3 23  2  0  0  0  0
  4 13  1  0  0  0  0
  4 15  1  0  0  0  0
  4 16  1  0  0  0  0
  5 19  1  0  0  0  0
  5 20  1  0  0  0  0
  5 26  1  0  0  0  0
  6  9  1  0  0  0  0
  6 24  1  0  0  0  0
  6 30  1  0  0  0  0
  7 24  2  0  0  0  0
  7 27  1  0  0  0  0
  8 25  1  0  0  0  0
  8 29  2  0  0  0  0
  9 10  2  0  0  0  0
 10 11  1  0  0  0  0
 11 30  2  0  0  0  0
 12 13  1  0  0  0  0
 12 14  1  0  0  0  0
 12 17  1  0  0  0  0
 12 18  1  0  0  0  0
 14 16  1  0  0  0  0
 15 21  2  0  0  0  0
 15 22  1  0  0  0  0
 17 19  1  0  0  0  0
 18 20  1  0  0  0  0
 21 23  1  0  0  0  0
 24 29  1  0  0  0  0
 25 27  2  0  0  0  0
 25 28  1  0  0  0  0
 26 28  1  0  0  0  0
 27 31  1  0  0  0  0
M  END
> <PUBCHEM_COMPOUND_ID_TYPE>
0

> <PUBCHEM_TOTAL_CHARGE>
0

> <PUBCHEM_SUBSTANCE_ID>
310944149

> <PUBCHEM_SUBSTANCE_VERSION>
1

> <PUBCHEM_EXT_DATASOURCE_NAME>
4488

> <PUBCHEM_EXT_DATASOURCE_REGID>
SCHEMBL16122224

> <PUBCHEM_SUBSTANCE_COMMENT>
InChI=1S/C20H24N8O3/c1-14-16(21-11-17(23-14)28-13-22-24-25-28)2-6-26-7-3-20(4-8-26)5-9-27(19(20)30)15-10-18(29)31-12-15/h10-11,13H,2-9,12H2,1H3
InChIKey=OVTFQVPYWPAALY-UHFFFAOYSA-N

> <PUBCHEM_SUBSTANCE_SYNONYM>
SCHEMBL16122224

> <PUBCHEM_XREF_EXT_ID>
SCHEMBL16122224

> <PUBCHEM_EXT_DATASOURCE_URL>
https://www.surechembl.org/

> <PUBCHEM_EXT_SUBSTANCE_URL>
https://www.surechembl.org/chemical/SCHEMBL16122224

> <PUBCHEM_CID_ASSOCIATIONS>
117610430  1

> <PUBCHEM_COORDINATE_TYPE>
1
3

$$$$
