310931929
  -OEChem-07211613022D

 27 29  0     0  0  0  0  0  0999 V2000
    3.9696   -2.7177    0.0000 O   0  0  0  0  0  0  0  0  0  0  0  0
    8.4279   -2.8093    0.0000 O   0  0  0  0  0  0  0  0  0  0  0  0
    4.8857   -1.5879    0.0000 N   0  0  0  0  0  0  0  0  0  0  0  0
    4.7941   -0.7634    0.0000 N   0  0  0  0  0  0  0  0  0  0  0  0
    6.2903   -1.5879    0.0000 N   0  0  0  0  0  0  0  0  0  0  0  0
    7.7255   -4.0307    0.0000 N   0  0  0  0  0  0  0  0  0  0  0  0
    0.0000   -2.4428    0.0000 N   0  0  0  0  0  0  0  0  0  0  0  0
    3.5727   -1.3130    0.0000 C   0  0  0  0  0  0  0  0  0  0  0  0
    4.1528   -1.9237    0.0000 C   0  0  0  0  0  0  0  0  0  0  0  0
    2.7788   -1.4046    0.0000 C   0  0  0  0  0  0  0  0  0  0  0  0
    5.5880   -1.9848    0.0000 C   0  0  0  0  0  0  0  0  0  0  0  0
    3.9696   -0.6107    0.0000 C   0  0  0  0  0  0  0  0  0  0  0  0
    2.2596   -0.7634    0.0000 C   0  0  0  0  0  0  0  0  0  0  0  0
    2.4428   -2.1680    0.0000 C   0  0  0  0  0  0  0  0  0  0  0  0
    5.5880   -2.8093    0.0000 C   0  0  0  0  0  0  0  0  0  0  0  0
    6.9926   -2.8093    0.0000 C   0  0  0  0  0  0  0  0  0  0  0  0
    1.4657   -0.8550    0.0000 C   0  0  0  0  0  0  0  0  0  0  0  0
    1.1298   -1.5879    0.0000 C   0  0  0  0  0  0  0  0  0  0  0  0
    6.9926   -1.9848    0.0000 C   0  0  0  0  0  0  0  0  0  0  0  0
    6.2903   -3.2063    0.0000 C   0  0  0  0  0  0  0  0  0  0  0  0
    1.6184   -2.2596    0.0000 C   0  0  0  0  0  0  0  0  0  0  0  0
    7.7255   -3.2063    0.0000 C   0  0  0  0  0  0  0  0  0  0  0  0
    2.5956    0.0000    0.0000 C   0  0  0  0  0  0  0  0  0  0  0  0
    0.3054   -1.6795    0.0000 C   0  0  0  0  0  0  0  0  0  0  0  0
    8.4279   -4.4582    0.0000 C   0  0  0  0  0  0  0  0  0  0  0  0
    9.1607   -4.0307    0.0000 C   0  0  0  0  0  0  0  0  0  0  0  0
    9.1302   -3.2063    0.0000 C   0  0  0  0  0  0  0  0  0  0  0  0
  1  9  1  0  0  0  0
  2 22  2  0  0  0  0
  3  4  1  0  0  0  0
  3  9  1  0  0  0  0
  3 11  1  0  0  0  0
  4 12  2  0  0  0  0
  5 11  2  0  0  0  0
  5 19  1  0  0  0  0
  6 22  1  0  0  0  0
  6 25  1  0  0  0  0
  7 24  3  0  0  0  0
  8  9  2  0  0  0  0
  8 10  1  0  0  0  0
  8 12  1  0  0  0  0
 10 13  1  0  0  0  0
 10 14  2  0  0  0  0
 11 15  1  0  0  0  0
 13 17  2  0  0  0  0
 13 23  1  0  0  0  0
 14 21  1  0  0  0  0
 15 20  2  0  0  0  0
 16 19  2  0  0  0  0
 16 20  1  0  0  0  0
 16 22  1  0  0  0  0
 17 18  1  0  0  0  0
 18 21  2  0  0  0  0
 18 24  1  0  0  0  0
 25 26  1  0  0  0  0
 26 27  1  0  0  0  0
M  END
> <PUBCHEM_COMPOUND_ID_TYPE>
0

> <PUBCHEM_TOTAL_CHARGE>
0

> <PUBCHEM_SUBSTANCE_ID>
310931929

> <PUBCHEM_SUBSTANCE_VERSION>
1

> <PUBCHEM_EXT_DATASOURCE_NAME>
4488

> <PUBCHEM_EXT_DATASOURCE_REGID>
SCHEMBL16109265

> <PUBCHEM_SUBSTANCE_COMMENT>
InChI=1S/C20H19N5O2/c1-3-8-22-19(26)15-5-7-18(23-11-15)25-20(27)17(12-24-25)16-6-4-14(10-21)9-13(16)2/h4-7,9,11-12,27H,3,8H2,1-2H3,(H,22,26)
InChIKey=MVUHNPANESKMDK-UHFFFAOYSA-N

> <PUBCHEM_SUBSTANCE_SYNONYM>
SCHEMBL16109265

> <PUBCHEM_XREF_EXT_ID>
SCHEMBL16109265

> <PUBCHEM_EXT_DATASOURCE_URL>
https://www.surechembl.org/

> <PUBCHEM_EXT_SUBSTANCE_URL>
https://www.surechembl.org/chemical/SCHEMBL16109265

> <PUBCHEM_CID_ASSOCIATIONS>
117600580  1

> <PUBCHEM_COORDINATE_TYPE>
1
3

$$$$
