310929244
  -OEChem-07211613022D

 50 55  0     0  0  0  0  0  0999 V2000
    0.8107   -4.1076    0.0000 S   0  0  0  0  0  0  0  0  0  0  0  0
    2.2159   -4.1617    0.0000 O   0  0  0  0  0  0  0  0  0  0  0  0
    5.0264   -6.6478    0.0000 O   0  0  0  0  0  0  0  0  0  0  0  0
    1.6754   -4.1076    0.0000 O   0  0  0  0  0  0  0  0  0  0  0  0
    0.0000   -4.1076    0.0000 O   0  0  0  0  0  0  0  0  0  0  0  0
    4.3778   -2.0538    0.0000 O   0  0  0  0  0  0  0  0  0  0  0  0
    0.8107   -6.5937    0.0000 O   0  0  0  0  0  0  0  0  0  0  0  0
    0.8107   -3.2969    0.0000 N   0  0  0  0  0  0  0  0  0  0  0  0
    3.6752   -3.2969    0.0000 N   0  0  0  0  0  0  0  0  0  0  0  0
    0.8107   -4.9723    0.0000 N   0  0  0  0  0  0  0  0  0  0  0  0
    5.0804   -3.2969    0.0000 N   0  0  0  0  0  0  0  0  0  0  0  0
    2.8645   -7.8368    0.0000 N   0  0  0  0  0  0  0  0  0  0  0  0
    3.5130   -9.0799    0.0000 N   0  0  0  0  0  0  0  0  0  0  0  0
    1.5133   -2.9185    0.0000 C   0  0  0  0  0  0  0  0  0  0  0  0
    2.2159   -3.2969    0.0000 C   0  0  0  0  0  0  0  0  0  0  0  0
    2.9185   -2.9185    0.0000 C   0  0  0  0  0  0  0  0  0  0  0  0
    2.2159   -1.6214    0.0000 C   0  0  0  0  0  0  0  0  0  0  0  0
    1.5133   -2.0538    0.0000 C   0  0  0  0  0  0  0  0  0  0  0  0
    2.9726   -2.0538    0.0000 C   0  0  0  0  0  0  0  0  0  0  0  0
    4.3778   -4.5400    0.0000 C   0  0  0  0  0  0  0  0  0  0  0  0
    4.3778   -5.4048    0.0000 C   0  0  0  0  0  0  0  0  0  0  0  0
    2.2159   -0.8107    0.0000 C   0  0  0  0  0  0  0  0  0  0  0  0
    5.0804   -4.1617    0.0000 C   0  0  0  0  0  0  0  0  0  0  0  0
    5.0804   -5.8371    0.0000 C   0  0  0  0  0  0  0  0  0  0  0  0
    4.3778   -2.9185    0.0000 C   0  0  0  0  0  0  0  0  0  0  0  0
    5.7831   -4.5940    0.0000 C   0  0  0  0  0  0  0  0  0  0  0  0
    5.7831   -5.4048    0.0000 C   0  0  0  0  0  0  0  0  0  0  0  0
    3.6752   -4.1076    0.0000 C   0  0  0  0  0  0  0  0  0  0  0  0
    3.6752   -5.7831    0.0000 C   0  0  0  0  0  0  0  0  0  0  0  0
    4.3238   -7.0262    0.0000 C   0  0  0  0  0  0  0  0  0  0  0  0
    1.5133   -5.3507    0.0000 C   0  0  0  0  0  0  0  0  0  0  0  0
    0.0540   -5.3507    0.0000 C   0  0  0  0  0  0  0  0  0  0  0  0
    3.0807   -0.8107    0.0000 C   0  0  0  0  0  0  0  0  0  0  0  0
    2.2159    0.0000    0.0000 C   0  0  0  0  0  0  0  0  0  0  0  0
    1.4053   -0.8107    0.0000 C   0  0  0  0  0  0  0  0  0  0  0  0
    3.1347   -4.7021    0.0000 C   0  0  0  0  0  0  0  0  0  0  0  0
    2.9185   -5.3507    0.0000 C   0  0  0  0  0  0  0  0  0  0  0  0
    4.3238   -7.8909    0.0000 C   0  0  0  0  0  0  0  0  0  0  0  0
    0.0540   -6.2154    0.0000 C   0  0  0  0  0  0  0  0  0  0  0  0
    1.5133   -6.2154    0.0000 C   0  0  0  0  0  0  0  0  0  0  0  0
    2.9726   -4.5400    0.0000 C   0  0  0  0  0  0  0  0  0  0  0  0
    3.5671   -8.2692    0.0000 C   0  0  0  0  0  0  0  0  0  0  0  0
    3.6212   -6.5937    0.0000 C   0  0  0  0  0  0  0  0  0  0  0  0
    2.8645   -6.9721    0.0000 C   0  0  0  0  0  0  0  0  0  0  0  0
    4.2157   -9.5123    0.0000 C   0  0  0  0  0  0  0  0  0  0  0  0
    4.9723   -9.1340    0.0000 C   0  0  0  0  0  0  0  0  0  0  0  0
    4.2157  -10.3771    0.0000 C   0  0  0  0  0  0  0  0  0  0  0  0
    5.6749   -9.5664    0.0000 C   0  0  0  0  0  0  0  0  0  0  0  0
    4.9183  -10.8094    0.0000 C   0  0  0  0  0  0  0  0  0  0  0  0
    5.6209  -10.4311    0.0000 C   0  0  0  0  0  0  0  0  0  0  0  0
  1  4  2  0  0  0  0
  1  5  2  0  0  0  0
  1  8  1  0  0  0  0
  1 10  1  0  0  0  0
  2 15  1  0  0  0  0
  2 41  1  0  0  0  0
  3 24  1  0  0  0  0
  3 30  1  0  0  0  0
  6 25  2  0  0  0  0
  7 39  1  0  0  0  0
  7 40  1  0  0  0  0
  8 14  1  0  0  0  0
  9 16  1  0  0  0  0
  9 25  1  0  0  0  0
 10 31  1  0  0  0  0
 10 32  1  0  0  0  0
 11 23  1  0  0  0  0
 11 25  1  0  0  0  0
 12 42  1  0  0  0  0
 12 44  2  0  0  0  0
 13 42  1  0  0  0  0
 13 45  1  0  0  0  0
 14 15  1  0  0  0  0
 14 18  2  0  0  0  0
 15 16  2  0  0  0  0
 16 19  1  0  0  0  0
 17 18  1  0  0  0  0
 17 19  2  0  0  0  0
 17 22  1  0  0  0  0
 20 21  2  0  0  0  0
 20 23  1  0  0  0  0
 20 28  1  0  0  0  0
 21 24  1  0  0  0  0
 21 29  1  0  0  0  0
 22 33  1  0  0  0  0
 22 34  1  0  0  0  0
 22 35  1  0  0  0  0
 23 26  2  0  0  0  0
 24 27  2  0  0  0  0
 26 27  1  0  0  0  0
 28 36  2  0  0  0  0
 29 37  2  0  0  0  0
 30 38  1  0  0  0  0
 30 43  2  0  0  0  0
 31 40  1  0  0  0  0
 32 39  1  0  0  0  0
 36 37  1  0  0  0  0
 38 42  2  0  0  0  0
 43 44  1  0  0  0  0
 45 46  2  0  0  0  0
 45 47  1  0  0  0  0
 46 48  1  0  0  0  0
 47 49  2  0  0  0  0
 48 50  2  0  0  0  0
 49 50  1  0  0  0  0
M  END
> <PUBCHEM_COMPOUND_ID_TYPE>
0

> <PUBCHEM_TOTAL_CHARGE>
0

> <PUBCHEM_SUBSTANCE_ID>
310929244

> <PUBCHEM_SUBSTANCE_VERSION>
1

> <PUBCHEM_EXT_DATASOURCE_NAME>
4488

> <PUBCHEM_EXT_DATASOURCE_REGID>
SCHEMBL16106408

> <PUBCHEM_SUBSTANCE_COMMENT>
InChI=1S/C37H40N6O6S/c1-37(2,3)25-22-31(35(47-4)32(23-25)42-50(45,46)43-18-20-48-21-19-43)41-36(44)40-30-14-15-33(29-13-9-8-12-28(29)30)49-27-16-17-38-34(24-27)39-26-10-6-5-7-11-26/h5-17,22-24,42H,18-21H2,1-4H3,(H,38,39)(H2,40,41,44)
InChIKey=VWZIUBUXROEOHM-UHFFFAOYSA-N

> <PUBCHEM_SUBSTANCE_SYNONYM>
SCHEMBL16106408

> <PUBCHEM_XREF_EXT_ID>
SCHEMBL16106408

> <PUBCHEM_EXT_DATASOURCE_URL>
https://www.surechembl.org/

> <PUBCHEM_EXT_SUBSTANCE_URL>
https://www.surechembl.org/chemical/SCHEMBL16106408

> <PUBCHEM_CID_ASSOCIATIONS>
86272831  1

> <PUBCHEM_COORDINATE_TYPE>
1
3

$$$$
