310941033
  -OEChem-07211613022D

 42 45  0     1  0  0  0  0  0999 V2000
    0.9775    2.7080    0.0000 F   0  0  0  0  0  0  0  0  0  0  0  0
    5.1628   -1.0137    0.0000 O   0  0  0  0  0  0  0  0  0  0  0  0
    4.0332    0.9413    0.0000 O   0  0  0  0  0  0  0  0  0  0  0  0
    1.6727   -0.9992    0.0000 O   0  0  0  0  0  0  0  0  0  0  0  0
   -0.4707    1.0572    0.0000 O   0  0  0  0  0  0  0  0  0  0  0  0
    3.8159    2.7080    0.0000 O   0  0  0  0  0  0  0  0  0  0  0  0
   -2.6140   -0.9992    0.0000 O   0  0  0  0  0  0  0  0  0  0  0  0
   -5.4813   -0.9992    0.0000 O   0  0  0  0  0  0  0  0  0  0  0  0
    2.3967    0.2317    0.0000 N   0  0  0  0  0  0  0  0  0  0  0  0
    0.2534   -0.1738    0.0000 N   0  0  0  0  0  0  0  0  0  0  0  0
   -1.9044    0.2317    0.0000 N   0  0  0  0  0  0  0  0  0  0  0  0
   -4.0476   -0.1738    0.0000 N   0  0  0  0  0  0  0  0  0  0  0  0
    4.7573   -0.2896    0.0000 C   0  0  3  0  0  0  0  0  0  0  0  0
    3.9897    0.1303    0.0000 C   0  0  0  0  0  0  0  0  0  0  0  0
    4.3662   -0.9847    0.0000 C   0  0  0  0  0  0  0  0  0  0  0  0
    3.3526   -0.2607    0.0000 C   0  0  3  0  0  0  0  0  0  0  0  0
    5.4813    0.1448    0.0000 C   0  0  0  0  0  0  0  0  0  0  0  0
    3.3526   -1.3324    0.0000 C   0  0  0  0  0  0  0  0  0  0  0  0
    1.6871   -0.1158    0.0000 C   0  0  0  0  0  0  0  0  0  0  0  0
    0.9630    0.2607    0.0000 C   0  0  3  0  0  0  0  0  0  0  0  0
    2.6139   -1.7523    0.0000 C   0  0  0  0  0  0  0  0  0  0  0  0
    0.9775    1.0862    0.0000 C   0  0  0  0  0  0  0  0  0  0  0  0
    1.6871    1.5061    0.0000 C   0  0  0  0  0  0  0  0  0  0  0  0
    1.6871    2.3316    0.0000 C   0  0  0  0  0  0  0  0  0  0  0  0
   -0.4707    0.2462    0.0000 C   0  0  0  0  0  0  0  0  0  0  0  0
    1.8609   -1.4337    0.0000 C   0  0  0  0  0  0  0  0  0  0  0  0
    2.5271   -2.5633    0.0000 C   0  0  0  0  0  0  0  0  0  0  0  0
    2.3967    1.1006    0.0000 C   0  0  0  0  0  0  0  0  0  0  0  0
    2.3822    2.7225    0.0000 C   0  0  0  0  0  0  0  0  0  0  0  0
    3.1208    2.3316    0.0000 C   0  0  0  0  0  0  0  0  0  0  0  0
   -1.1513   -0.1303    0.0000 C   0  0  3  0  0  0  0  0  0  0  0  0
    3.1208    1.5061    0.0000 C   0  0  0  0  0  0  0  0  0  0  0  0
    1.3251   -2.0419    0.0000 C   0  0  0  0  0  0  0  0  0  0  0  0
    1.7161   -2.7225    0.0000 C   0  0  0  0  0  0  0  0  0  0  0  0
   -2.5995   -0.1158    0.0000 C   0  0  0  0  0  0  0  0  0  0  0  0
   -1.1803   -0.9558    0.0000 C   0  0  0  0  0  0  0  0  0  0  0  0
   -3.3381    0.2607    0.0000 C   0  0  0  0  0  0  0  0  0  0  0  0
   -4.0332   -0.9702    0.0000 C   0  0  0  0  0  0  0  0  0  0  0  0
   -4.7718    0.2607    0.0000 C   0  0  0  0  0  0  0  0  0  0  0  0
    4.5545    2.3171    0.0000 C   0  0  0  0  0  0  0  0  0  0  0  0
   -4.7428   -1.3758    0.0000 C   0  0  0  0  0  0  0  0  0  0  0  0
   -5.4524   -0.1303    0.0000 C   0  0  0  0  0  0  0  0  0  0  0  0
  1 24  1  0  0  0  0
  2 13  1  0  0  0  0
  2 15  1  0  0  0  0
  3 14  2  0  0  0  0
  4 19  2  0  0  0  0
  5 25  2  0  0  0  0
  6 30  1  0  0  0  0
  6 40  1  0  0  0  0
  7 35  2  0  0  0  0
  8 41  1  0  0  0  0
  8 42  1  0  0  0  0
 16  9  1  6  0  0  0
  9 19  1  0  0  0  0
 20 10  1  1  0  0  0
 10 25  1  0  0  0  0
 11 31  1  0  0  0  0
 11 35  1  0  0  0  0
 12 37  1  0  0  0  0
 12 38  1  0  0  0  0
 12 39  1  0  0  0  0
 13 14  1  6  0  0  0
 13 15  1  0  0  0  0
 13 17  1  1  0  0  0
 14 16  1  0  0  0  0
 16 18  1  0  0  0  0
 18 21  1  0  0  0  0
 19 20  1  0  0  0  0
 20 22  1  0  0  0  0
 21 26  1  0  0  0  0
 21 27  1  0  0  0  0
 22 23  1  0  0  0  0
 23 24  1  0  0  0  0
 23 28  2  0  0  0  0
 24 29  2  0  0  0  0
 25 31  1  0  0  0  0
 26 33  1  0  0  0  0
 27 34  1  0  0  0  0
 28 32  1  0  0  0  0
 29 30  1  0  0  0  0
 30 32  2  0  0  0  0
 31 36  1  6  0  0  0
 33 34  1  0  0  0  0
 35 37  1  0  0  0  0
 38 41  1  0  0  0  0
 39 42  1  0  0  0  0
M  END
> <PUBCHEM_COMPOUND_ID_TYPE>
0

> <PUBCHEM_TOTAL_CHARGE>
0

> <PUBCHEM_SUBSTANCE_ID>
310941033

> <PUBCHEM_SUBSTANCE_VERSION>
1

> <PUBCHEM_EXT_DATASOURCE_NAME>
4488

> <PUBCHEM_EXT_DATASOURCE_REGID>
SCHEMBL16118992

> <PUBCHEM_SUBSTANCE_COMMENT>
InChI=1S/C30H43FN4O7/c1-19(32-26(36)17-35-10-12-41-13-11-35)28(38)34-25(15-21-8-9-22(40-3)16-23(21)31)29(39)33-24(14-20-6-4-5-7-20)27(37)30(2)18-42-30/h8-9,16,19-20,24-25H,4-7,10-15,17-18H2,1-3H3,(H,32,36)(H,33,39)(H,34,38)/t19-,24-,25-,30+/m0/s1
InChIKey=MBSAWVIVFFJPOY-DYJHIYBCSA-N

> <PUBCHEM_SUBSTANCE_SYNONYM>
SCHEMBL16118992

> <PUBCHEM_XREF_EXT_ID>
SCHEMBL16118992

> <PUBCHEM_EXT_DATASOURCE_URL>
https://www.surechembl.org/

> <PUBCHEM_EXT_SUBSTANCE_URL>
https://www.surechembl.org/chemical/SCHEMBL16118992

> <PUBCHEM_CID_ASSOCIATIONS>
117607927  1

> <PUBCHEM_COORDINATE_TYPE>
1
3

> <PUBCHEM_BONDANNOTATIONS>
20  10  5
13  14  6
13  17  5
31  36  6
16  9  6

$$$$
