310929107
  -OEChem-07211613022D

 56 59  0     0  0  0  0  0  0999 V2000
    4.1251   -4.1801    0.0000 Cl  0  0  0  0  0  0  0  0  0  0  0  0
    5.7201   -4.1801    0.0000 Cl  0  0  0  0  0  0  0  0  0  0  0  0
    4.0701   -6.9851    0.0000 S   0  0  0  0  0  0  0  0  0  0  0  0
    4.0701   -5.5550    0.0000 O   0  0  0  0  0  0  0  0  0  0  0  0
    6.6001   -2.7500    0.0000 O   0  0  0  0  0  0  0  0  0  0  0  0
    2.0350   -3.4100    0.0000 O   0  0  0  0  0  0  0  0  0  0  0  0
    4.0701   -6.1051    0.0000 O   0  0  0  0  0  0  0  0  0  0  0  0
    4.0701   -7.8101    0.0000 O   0  0  0  0  0  0  0  0  0  0  0  0
   11.4951   -2.8050    0.0000 O   0  0  0  0  0  0  0  0  0  0  0  0
    9.0201   -4.2351    0.0000 O   0  0  0  0  0  0  0  0  0  0  0  0
   11.9351   -0.7150    0.0000 O   0  0  0  0  0  0  0  0  0  0  0  0
   14.0251    0.0000    0.0000 O   0  0  0  0  0  0  0  0  0  0  0  0
   15.6751   -1.4850    0.0000 O   0  0  0  0  0  0  0  0  0  0  0  0
    3.3000   -4.1251    0.0000 N   0  0  0  0  0  0  0  0  0  0  0  0
    3.3000   -6.9851    0.0000 N   0  0  0  0  0  0  0  0  0  0  0  0
    3.3000   -2.7500    0.0000 N   0  0  0  0  0  0  0  0  0  0  0  0
    7.8101   -2.0350    0.0000 N   0  0  0  0  0  0  0  0  0  0  0  0
    9.0751   -1.3750    0.0000 N   0  0  0  0  0  0  0  0  0  0  0  0
    7.8101   -0.6600    0.0000 N   0  0  0  0  0  0  0  0  0  0  0  0
    3.2451   -5.5550    0.0000 C   0  0  0  0  0  0  0  0  0  0  0  0
    2.8600   -4.8951    0.0000 C   0  0  0  0  0  0  0  0  0  0  0  0
    2.8600   -6.2700    0.0000 C   0  0  0  0  0  0  0  0  0  0  0  0
    1.6500   -5.5550    0.0000 C   0  0  0  0  0  0  0  0  0  0  0  0
    2.0350   -4.8401    0.0000 C   0  0  0  0  0  0  0  0  0  0  0  0
    2.0350   -6.2700    0.0000 C   0  0  0  0  0  0  0  0  0  0  0  0
    0.8250   -5.5550    0.0000 C   0  0  0  0  0  0  0  0  0  0  0  0
    4.1251   -2.7500    0.0000 C   0  0  0  0  0  0  0  0  0  0  0  0
    4.5100   -3.4650    0.0000 C   0  0  0  0  0  0  0  0  0  0  0  0
    5.3350   -3.4650    0.0000 C   0  0  0  0  0  0  0  0  0  0  0  0
    5.7751   -2.7500    0.0000 C   0  0  0  0  0  0  0  0  0  0  0  0
    2.8600   -3.4650    0.0000 C   0  0  0  0  0  0  0  0  0  0  0  0
    4.5650   -2.0350    0.0000 C   0  0  0  0  0  0  0  0  0  0  0  0
    5.3350   -2.0350    0.0000 C   0  0  0  0  0  0  0  0  0  0  0  0
    6.9851   -2.0350    0.0000 C   0  0  0  0  0  0  0  0  0  0  0  0
    0.8250   -4.7300    0.0000 C   0  0  0  0  0  0  0  0  0  0  0  0
    0.0000   -5.5550    0.0000 C   0  0  0  0  0  0  0  0  0  0  0  0
    0.8250   -6.3800    0.0000 C   0  0  0  0  0  0  0  0  0  0  0  0
    8.2501   -1.3750    0.0000 C   0  0  0  0  0  0  0  0  0  0  0  0
    9.4601   -2.0900    0.0000 C   0  0  0  0  0  0  0  0  0  0  0  0
    6.5451   -1.3200    0.0000 C   0  0  0  0  0  0  0  0  0  0  0  0
    4.5100   -4.8401    0.0000 C   0  0  0  0  0  0  0  0  0  0  0  0
    4.8951   -6.9851    0.0000 C   0  0  0  0  0  0  0  0  0  0  0  0
   10.6701   -2.8050    0.0000 C   0  0  0  0  0  0  0  0  0  0  0  0
    7.0401   -0.6050    0.0000 C   0  0  0  0  0  0  0  0  0  0  0  0
   10.2851   -2.0900    0.0000 C   0  0  0  0  0  0  0  0  0  0  0  0
    9.0751   -2.8050    0.0000 C   0  0  0  0  0  0  0  0  0  0  0  0
    9.4601   -3.5200    0.0000 C   0  0  0  0  0  0  0  0  0  0  0  0
   10.2851   -3.5200    0.0000 C   0  0  0  0  0  0  0  0  0  0  0  0
   11.9351   -2.1450    0.0000 C   0  0  0  0  0  0  0  0  0  0  0  0
    9.4601   -4.9501    0.0000 C   0  0  0  0  0  0  0  0  0  0  0  0
   11.5501   -1.4300    0.0000 C   0  0  0  0  0  0  0  0  0  0  0  0
   12.7601   -0.7150    0.0000 C   0  0  0  0  0  0  0  0  0  0  0  0
   13.2001    0.0000    0.0000 C   0  0  0  0  0  0  0  0  0  0  0  0
   14.4102   -0.7150    0.0000 C   0  0  0  0  0  0  0  0  0  0  0  0
   15.2352   -0.7150    0.0000 C   0  0  0  0  0  0  0  0  0  0  0  0
   16.5001   -1.4300    0.0000 C   0  0  0  0  0  0  0  0  0  0  0  0
  1 28  1  0  0  0  0
  2 29  1  0  0  0  0
  3  7  2  0  0  0  0
  3  8  2  0  0  0  0
  3 15  1  0  0  0  0
  3 42  1  0  0  0  0
  4 20  1  0  0  0  0
  4 41  1  0  0  0  0
  5 30  1  0  0  0  0
  5 34  1  0  0  0  0
  6 31  2  0  0  0  0
  9 43  1  0  0  0  0
  9 49  1  0  0  0  0
 10 47  1  0  0  0  0
 10 50  1  0  0  0  0
 11 51  1  0  0  0  0
 11 52  1  0  0  0  0
 12 53  1  0  0  0  0
 12 54  1  0  0  0  0
 13 55  1  0  0  0  0
 13 56  1  0  0  0  0
 14 21  1  0  0  0  0
 14 31  1  0  0  0  0
 15 22  1  0  0  0  0
 16 27  1  0  0  0  0
 16 31  1  0  0  0  0
 17 34  2  0  0  0  0
 17 38  1  0  0  0  0
 18 38  1  0  0  0  0
 18 39  1  0  0  0  0
 19 38  2  0  0  0  0
 19 44  1  0  0  0  0
 20 21  2  0  0  0  0
 20 22  1  0  0  0  0
 21 24  1  0  0  0  0
 22 25  2  0  0  0  0
 23 24  2  0  0  0  0
 23 25  1  0  0  0  0
 23 26  1  0  0  0  0
 26 35  1  0  0  0  0
 26 36  1  0  0  0  0
 26 37  1  0  0  0  0
 27 28  1  0  0  0  0
 27 32  2  0  0  0  0
 28 29  2  0  0  0  0
 29 30  1  0  0  0  0
 30 33  2  0  0  0  0
 32 33  1  0  0  0  0
 34 40  1  0  0  0  0
 39 45  2  0  0  0  0
 39 46  1  0  0  0  0
 40 44  2  0  0  0  0
 43 45  1  0  0  0  0
 43 48  2  0  0  0  0
 46 47  2  0  0  0  0
 47 48  1  0  0  0  0
 49 51  1  0  0  0  0
 52 53  1  0  0  0  0
 54 55  1  0  0  0  0
M  END
> <PUBCHEM_COMPOUND_ID_TYPE>
0

> <PUBCHEM_TOTAL_CHARGE>
0

> <PUBCHEM_SUBSTANCE_ID>
310929107

> <PUBCHEM_SUBSTANCE_VERSION>
1

> <PUBCHEM_EXT_DATASOURCE_NAME>
4488

> <PUBCHEM_EXT_DATASOURCE_REGID>
SCHEMBL16106269

> <PUBCHEM_SUBSTANCE_COMMENT>
InChI=1S/C37H46Cl2N6O10S/c1-37(2,3)23-18-28(34(51-6)29(19-23)45-56(7,47)48)43-36(46)42-27-8-9-30(33(39)32(27)38)55-31-10-11-40-35(44-31)41-24-20-25(50-5)22-26(21-24)54-17-16-53-15-14-52-13-12-49-4/h8-11,18-22,45H,12-17H2,1-7H3,(H,40,41,44)(H2,42,43,46)
InChIKey=GPYGSYSPXHEXTJ-UHFFFAOYSA-N

> <PUBCHEM_SUBSTANCE_SYNONYM>
SCHEMBL16106269

> <PUBCHEM_XREF_EXT_ID>
SCHEMBL16106269

> <PUBCHEM_EXT_DATASOURCE_URL>
https://www.surechembl.org/

> <PUBCHEM_EXT_SUBSTANCE_URL>
https://www.surechembl.org/chemical/SCHEMBL16106269

> <PUBCHEM_CID_ASSOCIATIONS>
86274738  1

> <PUBCHEM_COORDINATE_TYPE>
1
3

$$$$
