310932861
  -OEChem-07211613022D

 24 26  0     0  0  0  0  0  0999 V2000
    0.0000   -1.8236    0.0000 F   0  0  0  0  0  0  0  0  0  0  0  0
    0.0000   -3.2490    0.0000 F   0  0  0  0  0  0  0  0  0  0  0  0
    0.8384   -1.8236    0.0000 F   0  0  0  0  0  0  0  0  0  0  0  0
    6.2256   -1.0691    0.0000 F   0  0  0  0  0  0  0  0  0  0  0  0
    5.2614    0.0000    0.0000 F   0  0  0  0  0  0  0  0  0  0  0  0
    5.5968   -1.6140    0.0000 F   0  0  0  0  0  0  0  0  0  0  0  0
    4.6325   -3.3748    0.0000 O   0  0  0  0  0  0  0  0  0  0  0  0
    3.3119   -2.7041    0.0000 N   0  0  0  0  0  0  0  0  0  0  0  0
    2.5364   -2.9346    0.0000 C   0  0  0  0  0  0  0  0  0  0  0  0
    2.5364   -3.7941    0.0000 C   0  0  0  0  0  0  0  0  0  0  0  0
    3.5635   -1.9285    0.0000 C   0  0  0  0  0  0  0  0  0  0  0  0
    3.8150   -3.3748    0.0000 C   0  0  0  0  0  0  0  0  0  0  0  0
    1.8027   -2.5573    0.0000 C   0  0  0  0  0  0  0  0  0  0  0  0
    1.1319   -2.9346    0.0000 C   0  0  0  0  0  0  0  0  0  0  0  0
    3.3119   -4.0246    0.0000 C   0  0  0  0  0  0  0  0  0  0  0  0
    1.8027   -4.1923    0.0000 C   0  0  0  0  0  0  0  0  0  0  0  0
    4.3809   -1.7608    0.0000 C   0  0  0  0  0  0  0  0  0  0  0  0
    4.6116   -0.9852    0.0000 C   0  0  0  0  0  0  0  0  0  0  0  0
    0.4192   -2.5364    0.0000 C   0  0  0  0  0  0  0  0  0  0  0  0
    1.1319   -3.7941    0.0000 C   0  0  0  0  0  0  0  0  0  0  0  0
    3.0185   -1.3206    0.0000 C   0  0  0  0  0  0  0  0  0  0  0  0
    5.4291   -0.7965    0.0000 C   0  0  0  0  0  0  0  0  0  0  0  0
    4.0875   -0.3563    0.0000 C   0  0  0  0  0  0  0  0  0  0  0  0
    3.2700   -0.5240    0.0000 C   0  0  0  0  0  0  0  0  0  0  0  0
  1 19  1  0  0  0  0
  2 19  1  0  0  0  0
  3 19  1  0  0  0  0
  4 22  1  0  0  0  0
  5 22  1  0  0  0  0
  6 22  1  0  0  0  0
  7 12  2  0  0  0  0
  8  9  1  0  0  0  0
  8 11  1  0  0  0  0
  8 12  1  0  0  0  0
  9 10  2  0  0  0  0
  9 13  1  0  0  0  0
 10 15  1  0  0  0  0
 10 16  1  0  0  0  0
 11 17  1  0  0  0  0
 11 21  2  0  0  0  0
 12 15  1  0  0  0  0
 13 14  2  0  0  0  0
 14 19  1  0  0  0  0
 14 20  1  0  0  0  0
 16 20  2  0  0  0  0
 17 18  2  0  0  0  0
 18 22  1  0  0  0  0
 18 23  1  0  0  0  0
 21 24  1  0  0  0  0
 23 24  2  0  0  0  0
M  END
> <PUBCHEM_COMPOUND_ID_TYPE>
0

> <PUBCHEM_TOTAL_CHARGE>
0

> <PUBCHEM_SUBSTANCE_ID>
310932861

> <PUBCHEM_SUBSTANCE_VERSION>
1

> <PUBCHEM_EXT_DATASOURCE_NAME>
4488

> <PUBCHEM_EXT_DATASOURCE_REGID>
SCHEMBL16110253

> <PUBCHEM_SUBSTANCE_COMMENT>
InChI=1S/C16H9F6NO/c17-15(18,19)10-2-1-3-12(7-10)23-13-8-11(16(20,21)22)5-4-9(13)6-14(23)24/h1-5,7-8H,6H2
InChIKey=YALHFMCGGYBDTC-UHFFFAOYSA-N

> <PUBCHEM_SUBSTANCE_SYNONYM>
SCHEMBL16110253

> <PUBCHEM_XREF_EXT_ID>
SCHEMBL16110253

> <PUBCHEM_EXT_DATASOURCE_URL>
https://www.surechembl.org/

> <PUBCHEM_EXT_SUBSTANCE_URL>
https://www.surechembl.org/chemical/SCHEMBL16110253

> <PUBCHEM_CID_ASSOCIATIONS>
117601345  1

> <PUBCHEM_COORDINATE_TYPE>
1
3

$$$$
