310943398
  -OEChem-07211613022D

 40 44  0     0  0  0  0  0  0999 V2000
    4.2607    2.3011    0.0000 F   0  0  0  0  0  0  0  0  0  0  0  0
    5.3444    2.0042    0.0000 F   0  0  0  0  0  0  0  0  0  0  0  0
    5.0476    0.9056    0.0000 F   0  0  0  0  0  0  0  0  0  0  0  0
    4.6467   -0.0446    0.0000 O   0  0  0  0  0  0  0  0  0  0  0  0
    1.7964    2.4198    0.0000 O   0  0  0  0  0  0  0  0  0  0  0  0
   -2.4941   -2.8652    0.0000 O   0  0  0  0  0  0  0  0  0  0  0  0
   -5.3444    2.4347    0.0000 O   0  0  0  0  0  0  0  0  0  0  0  0
   -2.4941   -0.8611    0.0000 N   0  0  0  0  0  0  0  0  0  0  0  0
    3.2215   -0.0446    0.0000 N   0  0  0  0  0  0  0  0  0  0  0  0
   -3.2066    0.3711    0.0000 N   0  0  0  0  0  0  0  0  0  0  0  0
   -3.9193    1.6182    0.0000 N   0  0  0  0  0  0  0  0  0  0  0  0
    1.0837    1.2025    0.0000 N   0  0  0  0  0  0  0  0  0  0  0  0
   -0.3414    2.8504    0.0000 N   0  0  0  0  0  0  0  0  0  0  0  0
   -1.7667    1.2025    0.0000 C   0  0  0  0  0  0  0  0  0  0  0  0
    3.9490    1.2025    0.0000 C   0  0  0  0  0  0  0  0  0  0  0  0
   -2.4792   -0.0297    0.0000 C   0  0  0  0  0  0  0  0  0  0  0  0
   -1.0689    1.6182    0.0000 C   0  0  0  0  0  0  0  0  0  0  0  0
    3.9045    0.3860    0.0000 C   0  0  0  0  0  0  0  0  0  0  0  0
    2.5089    1.2025    0.0000 C   0  0  0  0  0  0  0  0  0  0  0  0
   -3.1918    1.2025    0.0000 C   0  0  0  0  0  0  0  0  0  0  0  0
   -1.7815    0.3711    0.0000 C   0  0  0  0  0  0  0  0  0  0  0  0
    4.6467    1.6034    0.0000 C   0  0  0  0  0  0  0  0  0  0  0  0
   -2.5089    1.6034    0.0000 C   0  0  0  0  0  0  0  0  0  0  0  0
    3.1918    1.6034    0.0000 C   0  0  0  0  0  0  0  0  0  0  0  0
    1.7815    1.6034    0.0000 C   0  0  0  0  0  0  0  0  0  0  0  0
   -1.0541    2.4347    0.0000 C   0  0  0  0  0  0  0  0  0  0  0  0
    0.3563    1.6034    0.0000 C   0  0  0  0  0  0  0  0  0  0  0  0
    2.5089    0.3711    0.0000 C   0  0  0  0  0  0  0  0  0  0  0  0
   -0.3266    1.2025    0.0000 C   0  0  0  0  0  0  0  0  0  0  0  0
   -3.0731   -1.4549    0.0000 C   0  0  0  0  0  0  0  0  0  0  0  0
   -1.9151   -1.4401    0.0000 C   0  0  0  0  0  0  0  0  0  0  0  0
   -2.4792   -2.0190    0.0000 C   0  0  0  0  0  0  0  0  0  0  0  0
    0.3711    2.4347    0.0000 C   0  0  0  0  0  0  0  0  0  0  0  0
    3.2215   -0.8611    0.0000 C   0  0  0  0  0  0  0  0  0  0  0  0
   -3.9193    2.4347    0.0000 C   0  0  0  0  0  0  0  0  0  0  0  0
   -4.6170    1.2025    0.0000 C   0  0  0  0  0  0  0  0  0  0  0  0
   -1.7667    2.8652    0.0000 C   0  0  0  0  0  0  0  0  0  0  0  0
   -4.6319    2.8504    0.0000 C   0  0  0  0  0  0  0  0  0  0  0  0
   -5.3444    1.6034    0.0000 C   0  0  0  0  0  0  0  0  0  0  0  0
    3.9490   -1.2767    0.0000 C   0  0  0  0  0  0  0  0  0  0  0  0
  1 22  1  0  0  0  0
  2 22  1  0  0  0  0
  3 22  1  0  0  0  0
  4 18  2  0  0  0  0
  5 25  2  0  0  0  0
  6 32  1  0  0  0  0
  7 38  1  0  0  0  0
  7 39  1  0  0  0  0
  8 16  1  0  0  0  0
  8 30  1  0  0  0  0
  8 31  1  0  0  0  0
  9 18  1  0  0  0  0
  9 28  1  0  0  0  0
  9 34  1  0  0  0  0
 10 16  1  0  0  0  0
 10 20  2  0  0  0  0
 11 20  1  0  0  0  0
 11 35  1  0  0  0  0
 11 36  1  0  0  0  0
 12 25  1  0  0  0  0
 12 27  1  0  0  0  0
 13 26  2  0  0  0  0
 13 33  1  0  0  0  0
 14 17  1  0  0  0  0
 14 21  1  0  0  0  0
 14 23  2  0  0  0  0
 15 18  1  0  0  0  0
 15 22  1  0  0  0  0
 15 24  2  0  0  0  0
 16 21  2  0  0  0  0
 17 26  1  0  0  0  0
 17 29  2  0  0  0  0
 19 24  1  0  0  0  0
 19 25  1  0  0  0  0
 19 28  2  0  0  0  0
 20 23  1  0  0  0  0
 26 37  1  0  0  0  0
 27 29  1  0  0  0  0
 27 33  2  0  0  0  0
 30 32  1  0  0  0  0
 31 32  1  0  0  0  0
 34 40  1  0  0  0  0
 35 38  1  0  0  0  0
 36 39  1  0  0  0  0
M  END
> <PUBCHEM_COMPOUND_ID_TYPE>
0

> <PUBCHEM_TOTAL_CHARGE>
0

> <PUBCHEM_SUBSTANCE_ID>
310943398

> <PUBCHEM_SUBSTANCE_VERSION>
1

> <PUBCHEM_EXT_DATASOURCE_NAME>
4488

> <PUBCHEM_EXT_DATASOURCE_REGID>
SCHEMBL16121461

> <PUBCHEM_SUBSTANCE_COMMENT>
InChI=1S/C27H29F3N6O4/c1-3-34-13-18(8-22(26(34)39)27(28,29)30)25(38)32-19-11-21(16(2)31-12-19)17-9-23(35-4-6-40-7-5-35)33-24(10-17)36-14-20(37)15-36/h8-13,20,37H,3-7,14-15H2,1-2H3,(H,32,38)
InChIKey=PXAMBMNGEOUBFG-UHFFFAOYSA-N

> <PUBCHEM_SUBSTANCE_SYNONYM>
SCHEMBL16121461

> <PUBCHEM_XREF_EXT_ID>
SCHEMBL16121461

> <PUBCHEM_EXT_DATASOURCE_URL>
https://www.surechembl.org/

> <PUBCHEM_EXT_SUBSTANCE_URL>
https://www.surechembl.org/chemical/SCHEMBL16121461

> <PUBCHEM_CID_ASSOCIATIONS>
117609822  1

> <PUBCHEM_COORDINATE_TYPE>
1
3

$$$$
