310943260
  -OEChem-07211613022D

 33 37  0     0  0  0  0  0  0999 V2000
    3.9645   -0.4690    0.0000 O   0  0  0  0  0  0  0  0  0  0  0  0
   -3.0999   -0.1905    0.0000 O   0  0  0  0  0  0  0  0  0  0  0  0
    1.2092   -0.1905    0.0000 O   0  0  0  0  0  0  0  0  0  0  0  0
   -4.5362    2.2864    0.0000 O   0  0  0  0  0  0  0  0  0  0  0  0
   -3.0999    1.4657    0.0000 N   0  0  0  0  0  0  0  0  0  0  0  0
   -1.6635   -0.1905    0.0000 N   0  0  0  0  0  0  0  0  0  0  0  0
    1.9273    1.0553    0.0000 N   0  0  0  0  0  0  0  0  0  0  0  0
    3.3929    0.1465    0.0000 N   0  0  0  0  0  0  0  0  0  0  0  0
    0.4909    2.6968    0.0000 N   0  0  0  0  0  0  0  0  0  0  0  0
   -0.9307    1.0699    0.0000 C   0  0  0  0  0  0  0  0  0  0  0  0
   -0.2418    1.4657    0.0000 C   0  0  0  0  0  0  0  0  0  0  0  0
   -2.3670    1.0699    0.0000 C   0  0  0  0  0  0  0  0  0  0  0  0
   -2.3963    0.2199    0.0000 C   0  0  0  0  0  0  0  0  0  0  0  0
   -1.6635    1.4657    0.0000 C   0  0  0  0  0  0  0  0  0  0  0  0
    3.5395   -1.1725    0.0000 C   0  0  0  0  0  0  0  0  0  0  0  0
    3.8766   -1.9346    0.0000 C   0  0  0  0  0  0  0  0  0  0  0  0
   -0.2272    2.3010    0.0000 C   0  0  0  0  0  0  0  0  0  0  0  0
    2.6601   -0.1759    0.0000 C   0  0  0  0  0  0  0  0  0  0  0  0
    1.1945    1.4657    0.0000 C   0  0  0  0  0  0  0  0  0  0  0  0
    0.4909    1.0553    0.0000 C   0  0  0  0  0  0  0  0  0  0  0  0
   -0.9454    0.2199    0.0000 C   0  0  0  0  0  0  0  0  0  0  0  0
    1.9419    0.2345    0.0000 C   0  0  0  0  0  0  0  0  0  0  0  0
    2.7335   -0.9967    0.0000 C   0  0  0  0  0  0  0  0  0  0  0  0
    3.8033   -2.6968    0.0000 C   0  0  0  0  0  0  0  0  0  0  0  0
    4.5362   -2.4182    0.0000 C   0  0  0  0  0  0  0  0  0  0  0  0
    1.2092    2.2864    0.0000 C   0  0  0  0  0  0  0  0  0  0  0  0
   -3.0999    2.2864    0.0000 C   0  0  0  0  0  0  0  0  0  0  0  0
   -3.8180    1.0699    0.0000 C   0  0  0  0  0  0  0  0  0  0  0  0
   -0.9600    2.6968    0.0000 C   0  0  0  0  0  0  0  0  0  0  0  0
   -3.8472    2.6968    0.0000 C   0  0  0  0  0  0  0  0  0  0  0  0
   -4.5362    1.4657    0.0000 C   0  0  0  0  0  0  0  0  0  0  0  0
   -3.8033    0.2345    0.0000 C   0  0  0  0  0  0  0  0  0  0  0  0
   -4.5069   -0.2052    0.0000 C   0  0  0  0  0  0  0  0  0  0  0  0
  1  8  1  0  0  0  0
  1 15  1  0  0  0  0
  2 13  1  0  0  0  0
  2 32  1  0  0  0  0
  3 22  2  0  0  0  0
  4 30  1  0  0  0  0
  4 31  1  0  0  0  0
  5 12  1  0  0  0  0
  5 27  1  0  0  0  0
  5 28  1  0  0  0  0
  6 13  2  0  0  0  0
  6 21  1  0  0  0  0
  7 19  1  0  0  0  0
  7 22  1  0  0  0  0
  8 18  2  0  0  0  0
  9 17  1  0  0  0  0
  9 26  2  0  0  0  0
 10 11  1  0  0  0  0
 10 14  1  0  0  0  0
 10 21  2  0  0  0  0
 11 17  2  0  0  0  0
 11 20  1  0  0  0  0
 12 13  1  0  0  0  0
 12 14  2  0  0  0  0
 15 16  1  0  0  0  0
 15 23  2  0  0  0  0
 16 24  1  0  0  0  0
 16 25  1  0  0  0  0
 17 29  1  0  0  0  0
 18 22  1  0  0  0  0
 18 23  1  0  0  0  0
 19 20  2  0  0  0  0
 19 26  1  0  0  0  0
 24 25  1  0  0  0  0
 27 30  1  0  0  0  0
 28 31  1  0  0  0  0
 32 33  1  0  0  0  0
M  END
> <PUBCHEM_COMPOUND_ID_TYPE>
0

> <PUBCHEM_TOTAL_CHARGE>
0

> <PUBCHEM_SUBSTANCE_ID>
310943260

> <PUBCHEM_SUBSTANCE_VERSION>
1

> <PUBCHEM_EXT_DATASOURCE_NAME>
4488

> <PUBCHEM_EXT_DATASOURCE_REGID>
SCHEMBL16121322

> <PUBCHEM_SUBSTANCE_COMMENT>
InChI=1S/C24H27N5O4/c1-3-32-24-21(29-6-8-31-9-7-29)10-17(13-26-24)19-11-18(14-25-15(19)2)27-23(30)20-12-22(33-28-20)16-4-5-16/h10-14,16H,3-9H2,1-2H3,(H,27,30)
InChIKey=UOLXDFIAGUDKAE-UHFFFAOYSA-N

> <PUBCHEM_SUBSTANCE_SYNONYM>
SCHEMBL16121322

> <PUBCHEM_XREF_EXT_ID>
SCHEMBL16121322

> <PUBCHEM_EXT_DATASOURCE_URL>
https://www.surechembl.org/

> <PUBCHEM_EXT_SUBSTANCE_URL>
https://www.surechembl.org/chemical/SCHEMBL16121322

> <PUBCHEM_CID_ASSOCIATIONS>
117609685  1

> <PUBCHEM_COORDINATE_TYPE>
1
3

$$$$
