310942665
  -OEChem-07211613022D

 44 46  0     1  0  0  0  0  0999 V2000
    2.9398    1.2882    0.0000 P   0  0  0  0  0  0  0  0  0  0  0  0
    1.2002    3.4023    0.0000 F   0  0  0  0  0  0  0  0  0  0  0  0
   -1.9709    3.0279    0.0000 F   0  0  0  0  0  0  0  0  0  0  0  0
    2.3453   -1.2882    0.0000 O   0  0  0  0  0  0  0  0  0  0  0  0
   -0.6276    0.3193    0.0000 O   0  0  0  0  0  0  0  0  0  0  0  0
   -1.9929   -0.5615    0.0000 O   0  0  0  0  0  0  0  0  0  0  0  0
    0.2532   -3.9968    0.0000 O   0  0  0  0  0  0  0  0  0  0  0  0
    3.2041   -1.9929    0.0000 O   0  0  0  0  0  0  0  0  0  0  0  0
    3.2702   -3.4244    0.0000 O   0  0  0  0  0  0  0  0  0  0  0  0
   -3.3583   -0.6056    0.0000 O   0  0  0  0  0  0  0  0  0  0  0  0
    0.0771   -0.9800    0.0000 N   0  0  0  0  0  0  0  0  0  0  0  0
    1.5965    0.9800    0.0000 N   0  0  0  0  0  0  0  0  0  0  0  0
    0.3193    0.9800    0.0000 N   0  0  0  0  0  0  0  0  0  0  0  0
    2.0370   -2.8297    0.0000 N   0  0  0  0  0  0  0  0  0  0  0  0
    0.9359   -0.4074    0.0000 C   0  0  3  0  0  0  0  0  0  0  0  0
    0.9579    0.4735    0.0000 C   0  0  0  0  0  0  0  0  0  0  0  0
    1.6626   -0.8698    0.0000 C   0  0  0  0  0  0  0  0  0  0  0  0
    0.5395    1.8168    0.0000 C   0  0  0  0  0  0  0  0  0  0  0  0
    1.3543    1.7727    0.0000 C   0  0  0  0  0  0  0  0  0  0  0  0
   -0.6497   -0.5615    0.0000 C   0  0  0  0  0  0  0  0  0  0  0  0
    0.0771    2.5215    0.0000 C   0  0  0  0  0  0  0  0  0  0  0  0
    0.0991   -2.1250    0.0000 C   0  0  0  0  0  0  0  0  0  0  0  0
    0.7818   -2.5435    0.0000 C   0  0  3  0  0  0  0  0  0  0  0  0
    0.8258   -3.4023    0.0000 C   0  0  3  0  0  0  0  0  0  0  0  0
    2.3673    0.6937    0.0000 C   0  0  0  0  0  0  0  0  0  0  0  0
   -1.2882   -0.9800    0.0000 C   0  0  3  0  0  0  0  0  0  0  0  0
    0.4074    3.3142    0.0000 C   0  0  0  0  0  0  0  0  0  0  0  0
    2.3673   -0.4294    0.0000 C   0  0  0  0  0  0  0  0  0  0  0  0
    1.6847   -1.7287    0.0000 C   0  0  0  0  0  0  0  0  0  0  0  0
    1.4865   -2.1911    0.0000 C   0  0  0  0  0  0  0  0  0  0  0  0
   -0.6937    2.4113    0.0000 C   0  0  0  0  0  0  0  0  0  0  0  0
    1.6406   -3.5785    0.0000 C   0  0  0  0  0  0  0  0  0  0  0  0
    2.8077   -2.7417    0.0000 C   0  0  0  0  0  0  0  0  0  0  0  0
   -1.1561    3.0940    0.0000 C   0  0  0  0  0  0  0  0  0  0  0  0
   -0.0771    3.9968    0.0000 C   0  0  0  0  0  0  0  0  0  0  0  0
   -0.8479    3.8868    0.0000 C   0  0  0  0  0  0  0  0  0  0  0  0
    3.0500   -0.9139    0.0000 C   0  0  0  0  0  0  0  0  0  0  0  0
   -1.3103   -1.8388    0.0000 C   0  0  0  0  0  0  0  0  0  0  0  0
    2.7417   -1.2662    0.0000 C   0  0  0  0  0  0  0  0  0  0  0  0
   -2.6976   -0.9800    0.0000 C   0  0  0  0  0  0  0  0  0  0  0  0
    3.3583   -0.8258    0.0000 C   0  0  0  0  0  0  0  0  0  0  0  0
    2.1030   -1.7067    0.0000 C   0  0  0  0  0  0  0  0  0  0  0  0
    2.3012   -0.6056    0.0000 C   0  0  0  0  0  0  0  0  0  0  0  0
   -2.6756   -1.7727    0.0000 C   0  0  0  0  0  0  0  0  0  0  0  0
  1 25  1  0  0  0  0
  2 27  1  0  0  0  0
  3 34  1  0  0  0  0
  4 17  1  0  0  0  0
  4 37  1  0  0  0  0
  5 20  2  0  0  0  0
  6 26  1  0  0  0  0
  6 40  1  0  0  0  0
 24  7  1  1  0  0  0
  8 33  1  0  0  0  0
  8 39  1  0  0  0  0
  9 33  2  0  0  0  0
 10 40  2  0  0  0  0
 15 11  1  1  0  0  0
 11 20  1  0  0  0  0
 11 22  1  0  0  0  0
 12 16  1  0  0  0  0
 12 19  1  0  0  0  0
 12 25  1  0  0  0  0
 13 16  2  0  0  0  0
 13 18  1  0  0  0  0
 14 30  1  0  0  0  0
 14 32  1  0  0  0  0
 14 33  1  0  0  0  0
 15 16  1  0  0  0  0
 15 17  1  0  0  0  0
 17 28  1  0  0  0  0
 17 29  1  0  0  0  0
 18 19  2  0  0  0  0
 18 21  1  0  0  0  0
 20 26  1  0  0  0  0
 21 27  2  0  0  0  0
 21 31  1  0  0  0  0
 23 22  1  6  0  0  0
 23 24  1  0  0  0  0
 23 30  1  0  0  0  0
 24 32  1  0  0  0  0
 26 38  1  6  0  0  0
 27 35  1  0  0  0  0
 31 34  2  0  0  0  0
 34 36  1  0  0  0  0
 35 36  2  0  0  0  0
 39 41  1  0  0  0  0
 39 42  1  0  0  0  0
 39 43  1  0  0  0  0
 40 44  1  0  0  0  0
M  END
> <PUBCHEM_COMPOUND_ID_TYPE>
0

> <PUBCHEM_TOTAL_CHARGE>
0

> <PUBCHEM_SUBSTANCE_ID>
310942665

> <PUBCHEM_SUBSTANCE_VERSION>
1

> <PUBCHEM_EXT_DATASOURCE_NAME>
4488

> <PUBCHEM_EXT_DATASOURCE_REGID>
SCHEMBL16120711

> <PUBCHEM_SUBSTANCE_COMMENT>
InChI=1S/C30H43F2N4O7P/c1-17(42-18(2)37)27(39)36(13-19-12-34(15-24(19)38)28(40)43-29(3,4)5)25(30(6,7)41-8)26-33-23(14-35(26)16-44)21-11-20(31)9-10-22(21)32/h9-11,14,17,19,24-25,38H,12-13,15-16,44H2,1-8H3/t17-,19-,24+,25-/m0/s1
InChIKey=BIPXCVFJZAWAQJ-UJXVZYGKSA-N

> <PUBCHEM_SUBSTANCE_SYNONYM>
SCHEMBL16120711

> <PUBCHEM_XREF_EXT_ID>
SCHEMBL16120711

> <PUBCHEM_EXT_DATASOURCE_URL>
https://www.surechembl.org/

> <PUBCHEM_EXT_SUBSTANCE_URL>
https://www.surechembl.org/chemical/SCHEMBL16120711

> <PUBCHEM_CID_ASSOCIATIONS>
117609194  1

> <PUBCHEM_COORDINATE_TYPE>
1
3

> <PUBCHEM_BONDANNOTATIONS>
15  11  5
23  22  6
26  38  6
24  7  5

$$$$
