310949398
  -OEChem-07211613022D

 81 93  0     0  0  0  0  0  0999 V2000
    3.5713   -2.7316    0.0000 N   0  0  0  0  0  0  0  0  0  0  0  0
   -3.6895   -2.6607    0.0000 N   0  0  0  0  0  0  0  0  0  0  0  0
   -0.0710    3.5357    0.0000 N   0  0  0  0  0  0  0  0  0  0  0  0
    2.0813   -4.2926    0.0000 N   0  0  0  0  0  0  0  0  0  0  0  0
   -2.2705   -4.2689    0.0000 N   0  0  0  0  0  0  0  0  0  0  0  0
    2.1049    3.0628    0.0000 N   0  0  0  0  0  0  0  0  0  0  0  0
    4.3044   -0.7450    0.0000 N   0  0  0  0  0  0  0  0  0  0  0  0
   -4.3990   -0.6268    0.0000 N   0  0  0  0  0  0  0  0  0  0  0  0
   -2.2232    3.0391    0.0000 N   0  0  0  0  0  0  0  0  0  0  0  0
    4.3280   -2.3769    0.0000 C   0  0  0  0  0  0  0  0  0  0  0  0
    3.6658   -3.4885    0.0000 C   0  0  0  0  0  0  0  0  0  0  0  0
   -4.4463   -2.2823    0.0000 C   0  0  0  0  0  0  0  0  0  0  0  0
   -3.7841   -3.4412    0.0000 C   0  0  0  0  0  0  0  0  0  0  0  0
    0.5912    4.0324    0.0000 C   0  0  0  0  0  0  0  0  0  0  0  0
   -0.7568    4.0561    0.0000 C   0  0  0  0  0  0  0  0  0  0  0  0
    4.8957   -2.9681    0.0000 C   0  0  0  0  0  0  0  0  0  0  0  0
    4.4936   -3.6776    0.0000 C   0  0  0  0  0  0  0  0  0  0  0  0
   -4.9666   -2.8972    0.0000 C   0  0  0  0  0  0  0  0  0  0  0  0
   -4.5409   -3.5831    0.0000 C   0  0  0  0  0  0  0  0  0  0  0  0
    0.3311    4.8129    0.0000 C   0  0  0  0  0  0  0  0  0  0  0  0
   -0.5203    4.8365    0.0000 C   0  0  0  0  0  0  0  0  0  0  0  0
   -0.0946    2.7553    0.0000 C   0  0  0  0  0  0  0  0  0  0  0  0
   -3.0036   -2.2114    0.0000 C   0  0  0  0  0  0  0  0  0  0  0  0
    2.8144   -2.2350    0.0000 C   0  0  0  0  0  0  0  0  0  0  0  0
    0.6622    2.3059    0.0000 C   0  0  0  0  0  0  0  0  0  0  0  0
   -2.2705   -2.5897    0.0000 C   0  0  0  0  0  0  0  0  0  0  0  0
    2.1522   -2.6371    0.0000 C   0  0  0  0  0  0  0  0  0  0  0  0
   -0.7805    2.3296    0.0000 C   0  0  0  0  0  0  0  0  0  0  0  0
   -2.9800   -1.3835    0.0000 C   0  0  0  0  0  0  0  0  0  0  0  0
    2.8381   -1.4072    0.0000 C   0  0  0  0  0  0  0  0  0  0  0  0
   -0.0473    1.1234    0.0000 C   0  0  0  0  0  0  0  0  0  0  0  0
    1.4191   -1.4072    0.0000 C   0  0  0  0  0  0  0  0  0  0  0  0
   -1.5372   -1.3835    0.0000 C   0  0  0  0  0  0  0  0  0  0  0  0
   -0.0946    0.2720    0.0000 C   0  0  0  0  0  0  0  0  0  0  0  0
    0.6386   -0.9815    0.0000 C   0  0  0  0  0  0  0  0  0  0  0  0
   -0.8041   -0.9815    0.0000 C   0  0  0  0  0  0  0  0  0  0  0  0
    4.6355   -1.6201    0.0000 C   0  0  0  0  0  0  0  0  0  0  0  0
    3.0982   -4.1034    0.0000 C   0  0  0  0  0  0  0  0  0  0  0  0
   -4.6828   -1.5254    0.0000 C   0  0  0  0  0  0  0  0  0  0  0  0
   -3.2875   -4.0324    0.0000 C   0  0  0  0  0  0  0  0  0  0  0  0
    1.4663    3.9142    0.0000 C   0  0  0  0  0  0  0  0  0  0  0  0
   -1.6082    3.8905    0.0000 C   0  0  0  0  0  0  0  0  0  0  0  0
    5.6998   -2.8026    0.0000 C   0  0  0  0  0  0  0  0  0  0  0  0
    4.7065   -4.4817    0.0000 C   0  0  0  0  0  0  0  0  0  0  0  0
   -5.7235   -2.7316    0.0000 C   0  0  0  0  0  0  0  0  0  0  0  0
   -4.7774   -4.3636    0.0000 C   0  0  0  0  0  0  0  0  0  0  0  0
    0.8987    5.4041    0.0000 C   0  0  0  0  0  0  0  0  0  0  0  0
   -1.0406    5.4041    0.0000 C   0  0  0  0  0  0  0  0  0  0  0  0
    0.6386    1.4782    0.0000 C   0  0  0  0  0  0  0  0  0  0  0  0
   -1.5846   -2.2350    0.0000 C   0  0  0  0  0  0  0  0  0  0  0  0
    1.3954   -2.2114    0.0000 C   0  0  0  0  0  0  0  0  0  0  0  0
   -0.7805    1.5018    0.0000 C   0  0  0  0  0  0  0  0  0  0  0  0
    2.1286   -1.0052    0.0000 C   0  0  0  0  0  0  0  0  0  0  0  0
   -2.2705   -0.9815    0.0000 C   0  0  0  0  0  0  0  0  0  0  0  0
   -0.7805   -0.1537    0.0000 C   0  0  0  0  0  0  0  0  0  0  0  0
    0.6386   -0.1774    0.0000 C   0  0  0  0  0  0  0  0  0  0  0  0
   -0.1183   -1.3599    0.0000 C   0  0  0  0  0  0  0  0  0  0  0  0
    5.9599   -1.9985    0.0000 C   0  0  0  0  0  0  0  0  0  0  0  0
    4.1389   -5.0967    0.0000 C   0  0  0  0  0  0  0  0  0  0  0  0
   -6.0073   -1.9985    0.0000 C   0  0  0  0  0  0  0  0  0  0  0  0
   -4.2335   -4.9784    0.0000 C   0  0  0  0  0  0  0  0  0  0  0  0
    1.7265    5.2859    0.0000 C   0  0  0  0  0  0  0  0  0  0  0  0
   -1.9393    5.2859    0.0000 C   0  0  0  0  0  0  0  0  0  0  0  0
    5.4633   -1.4545    0.0000 C   0  0  0  0  0  0  0  0  0  0  0  0
    3.3347   -4.8838    0.0000 C   0  0  0  0  0  0  0  0  0  0  0  0
   -5.4869   -1.3599    0.0000 C   0  0  0  0  0  0  0  0  0  0  0  0
   -3.5003   -4.8129    0.0000 C   0  0  0  0  0  0  0  0  0  0  0  0
    1.9867    4.4817    0.0000 C   0  0  0  0  0  0  0  0  0  0  0  0
   -2.1522    4.4817    0.0000 C   0  0  0  0  0  0  0  0  0  0  0  0
    1.3954    2.7080    0.0000 C   0  0  0  0  0  0  0  0  0  0  0  0
   -2.2705   -3.4648    0.0000 C   0  0  0  0  0  0  0  0  0  0  0  0
    2.1049   -3.4885    0.0000 C   0  0  0  0  0  0  0  0  0  0  0  0
   -1.5372    2.7080    0.0000 C   0  0  0  0  0  0  0  0  0  0  0  0
   -3.7132   -0.9815    0.0000 C   0  0  0  0  0  0  0  0  0  0  0  0
    3.5713   -1.0525    0.0000 C   0  0  0  0  0  0  0  0  0  0  0  0
    6.8350   -1.8566    0.0000 C   0  0  0  0  0  0  0  0  0  0  0  0
    4.4227   -5.8772    0.0000 C   0  0  0  0  0  0  0  0  0  0  0  0
   -6.8350   -1.7856    0.0000 C   0  0  0  0  0  0  0  0  0  0  0  0
   -4.5173   -5.8062    0.0000 C   0  0  0  0  0  0  0  0  0  0  0  0
    2.3177    5.8772    0.0000 C   0  0  0  0  0  0  0  0  0  0  0  0
   -2.4596    5.8535    0.0000 C   0  0  0  0  0  0  0  0  0  0  0  0
  1 10  1  0  0  0  0
  1 11  1  0  0  0  0
  1 24  1  0  0  0  0
  2 12  1  0  0  0  0
  2 13  1  0  0  0  0
  2 23  1  0  0  0  0
  3 14  1  0  0  0  0
  3 15  1  0  0  0  0
  3 22  1  0  0  0  0
  4 72  3  0  0  0  0
  5 71  3  0  0  0  0
  6 70  3  0  0  0  0
  7 75  3  0  0  0  0
  8 74  3  0  0  0  0
  9 73  3  0  0  0  0
 10 16  2  0  0  0  0
 10 37  1  0  0  0  0
 11 17  2  0  0  0  0
 11 38  1  0  0  0  0
 12 18  2  0  0  0  0
 12 39  1  0  0  0  0
 13 19  2  0  0  0  0
 13 40  1  0  0  0  0
 14 20  2  0  0  0  0
 14 41  1  0  0  0  0
 15 21  2  0  0  0  0
 15 42  1  0  0  0  0
 16 17  1  0  0  0  0
 16 43  1  0  0  0  0
 17 44  1  0  0  0  0
 18 19  1  0  0  0  0
 18 45  1  0  0  0  0
 19 46  1  0  0  0  0
 20 21  1  0  0  0  0
 20 47  1  0  0  0  0
 21 48  1  0  0  0  0
 22 25  2  0  0  0  0
 22 28  1  0  0  0  0
 23 26  2  0  0  0  0
 23 29  1  0  0  0  0
 24 27  2  0  0  0  0
 24 30  1  0  0  0  0
 25 49  1  0  0  0  0
 25 70  1  0  0  0  0
 26 50  1  0  0  0  0
 26 71  1  0  0  0  0
 27 51  1  0  0  0  0
 27 72  1  0  0  0  0
 28 52  2  0  0  0  0
 28 73  1  0  0  0  0
 29 54  2  0  0  0  0
 29 74  1  0  0  0  0
 30 53  2  0  0  0  0
 30 75  1  0  0  0  0
 31 34  1  0  0  0  0
 31 49  2  0  0  0  0
 31 52  1  0  0  0  0
 32 35  1  0  0  0  0
 32 51  2  0  0  0  0
 32 53  1  0  0  0  0
 33 36  1  0  0  0  0
 33 50  2  0  0  0  0
 33 54  1  0  0  0  0
 34 55  2  0  0  0  0
 34 56  1  0  0  0  0
 35 56  2  0  0  0  0
 35 57  1  0  0  0  0
 36 55  1  0  0  0  0
 36 57  2  0  0  0  0
 37 64  2  0  0  0  0
 38 65  2  0  0  0  0
 39 66  2  0  0  0  0
 40 67  2  0  0  0  0
 41 68  2  0  0  0  0
 42 69  2  0  0  0  0
 43 58  2  0  0  0  0
 44 59  2  0  0  0  0
 45 60  2  0  0  0  0
 46 61  2  0  0  0  0
 47 62  2  0  0  0  0
 48 63  2  0  0  0  0
 58 64  1  0  0  0  0
 58 76  1  0  0  0  0
 59 65  1  0  0  0  0
 59 77  1  0  0  0  0
 60 66  1  0  0  0  0
 60 78  1  0  0  0  0
 61 67  1  0  0  0  0
 61 79  1  0  0  0  0
 62 68  1  0  0  0  0
 62 80  1  0  0  0  0
 63 69  1  0  0  0  0
 63 81  1  0  0  0  0
M  END
> <PUBCHEM_COMPOUND_ID_TYPE>
0

> <PUBCHEM_TOTAL_CHARGE>
0

> <PUBCHEM_SUBSTANCE_ID>
310949398

> <PUBCHEM_SUBSTANCE_VERSION>
1

> <PUBCHEM_EXT_DATASOURCE_NAME>
4488

> <PUBCHEM_EXT_DATASOURCE_REGID>
SCHEMBL16127590

> <PUBCHEM_SUBSTANCE_COMMENT>
InChI=1S/C72H45N9/c1-40-7-13-64-58(19-40)59-20-41(2)8-14-65(59)79(64)70-52(34-73)28-49(29-53(70)35-74)46-25-47(50-30-54(36-75)71(55(31-50)37-76)80-66-15-9-42(3)21-60(66)61-22-43(4)10-16-67(61)80)27-48(26-46)51-32-56(38-77)72(57(33-51)39-78)81-68-17-11-44(5)23-62(68)63-24-45(6)12-18-69(63)81/h7-33H,1-6H3
InChIKey=IXLSNWLTOKIRFW-UHFFFAOYSA-N

> <PUBCHEM_SUBSTANCE_SYNONYM>
SCHEMBL16127590

> <PUBCHEM_XREF_EXT_ID>
SCHEMBL16127590

> <PUBCHEM_EXT_DATASOURCE_URL>
https://www.surechembl.org/

> <PUBCHEM_EXT_SUBSTANCE_URL>
https://www.surechembl.org/chemical/SCHEMBL16127590

> <PUBCHEM_CID_ASSOCIATIONS>
117614850  1

> <PUBCHEM_COORDINATE_TYPE>
1
3

$$$$
