310933543
  -OEChem-07211613022D

 16 17  0     0  0  0  0  0  0999 V2000
    2.1421   -4.9817    0.0000 F   0  0  0  0  0  0  0  0  0  0  0  0
    2.1421   -1.6689    0.0000 O   0  0  0  0  0  0  0  0  0  0  0  0
    3.5619   -1.6689    0.0000 O   0  0  0  0  0  0  0  0  0  0  0  0
    2.1421   -2.4908    0.0000 C   0  0  0  0  0  0  0  0  0  0  0  0
    2.8395   -2.9143    0.0000 C   0  0  0  0  0  0  0  0  0  0  0  0
    2.8395   -3.7362    0.0000 C   0  0  0  0  0  0  0  0  0  0  0  0
    1.4198   -2.9143    0.0000 C   0  0  0  0  0  0  0  0  0  0  0  0
    2.1421   -4.1597    0.0000 C   0  0  0  0  0  0  0  0  0  0  0  0
    1.4198   -1.2454    0.0000 C   0  0  0  0  0  0  0  0  0  0  0  0
    1.4198   -3.7362    0.0000 C   0  0  0  0  0  0  0  0  0  0  0  0
    3.5619   -2.4908    0.0000 C   0  0  0  0  0  0  0  0  0  0  0  0
    1.4198   -0.3985    0.0000 C   0  0  0  0  0  0  0  0  0  0  0  0
    0.6974   -1.6440    0.0000 C   0  0  0  0  0  0  0  0  0  0  0  0
    0.6974    0.0000    0.0000 C   0  0  0  0  0  0  0  0  0  0  0  0
    0.0000   -1.2454    0.0000 C   0  0  0  0  0  0  0  0  0  0  0  0
    0.0000   -0.3985    0.0000 C   0  0  0  0  0  0  0  0  0  0  0  0
  1  8  1  0  0  0  0
  2  4  1  0  0  0  0
  2  9  1  0  0  0  0
  3 11  2  0  0  0  0
  4  5  2  0  0  0  0
  4  7  1  0  0  0  0
  5  6  1  0  0  0  0
  5 11  1  0  0  0  0
  6  8  2  0  0  0  0
  7 10  2  0  0  0  0
  8 10  1  0  0  0  0
  9 12  2  0  0  0  0
  9 13  1  0  0  0  0
 12 14  1  0  0  0  0
 13 15  2  0  0  0  0
 14 16  2  0  0  0  0
 15 16  1  0  0  0  0
M  END
> <PUBCHEM_COMPOUND_ID_TYPE>
0

> <PUBCHEM_TOTAL_CHARGE>
0

> <PUBCHEM_SUBSTANCE_ID>
310933543

> <PUBCHEM_SUBSTANCE_VERSION>
1

> <PUBCHEM_EXT_DATASOURCE_NAME>
4488

> <PUBCHEM_EXT_DATASOURCE_REGID>
SCHEMBL16110966

> <PUBCHEM_SUBSTANCE_COMMENT>
InChI=1S/C13H9FO2/c14-11-6-7-13(10(8-11)9-15)16-12-4-2-1-3-5-12/h1-9H
InChIKey=MEMHQFWXGSFFBI-UHFFFAOYSA-N

> <PUBCHEM_SUBSTANCE_SYNONYM>
SCHEMBL16110966

> <PUBCHEM_XREF_EXT_ID>
SCHEMBL16110966

> <PUBCHEM_EXT_DATASOURCE_URL>
https://www.surechembl.org/

> <PUBCHEM_EXT_SUBSTANCE_URL>
https://www.surechembl.org/chemical/SCHEMBL16110966

> <PUBCHEM_CID_ASSOCIATIONS>
43313250  1

> <PUBCHEM_COORDINATE_TYPE>
1
3

$$$$
