310928968
  -OEChem-07211613022D

 11 11  0     1  0  0  0  0  0999 V2000
    0.6529    1.7085    0.0000 O   0  0  0  0  0  0  0  0  0  0  0  0
    1.3673    0.4710    0.0000 O   0  0  0  0  0  0  0  0  0  0  0  0
   -1.3673    0.1935    0.0000 N   0  0  0  0  0  0  0  0  0  0  0  0
   -0.0616    0.4710    0.0000 C   0  0  3  0  0  0  0  0  0  0  0  0
   -0.1479   -0.3495    0.0000 C   0  0  3  0  0  0  0  0  0  0  0  0
    0.6529    0.8835    0.0000 C   0  0  0  0  0  0  0  0  0  0  0  0
   -0.8153    0.8066    0.0000 C   0  0  0  0  0  0  0  0  0  0  0  0
   -0.9548   -0.5210    0.0000 C   0  0  0  0  0  0  0  0  0  0  0  0
    0.4652   -0.9015    0.0000 C   0  0  0  0  0  0  0  0  0  0  0  0
    0.2937   -1.7085    0.0000 C   0  0  0  0  0  0  0  0  0  0  0  0
    1.2499   -0.6466    0.0000 C   0  0  0  0  0  0  0  0  0  0  0  0
  1  6  2  0  0  0  0
  2  6  1  0  0  0  0
  3  7  1  0  0  0  0
  3  8  1  0  0  0  0
  4  5  1  0  0  0  0
  4  6  1  6  0  0  0
  4  7  1  0  0  0  0
  5  8  1  0  0  0  0
  5  9  1  1  0  0  0
  9 10  1  0  0  0  0
  9 11  1  0  0  0  0
M  END
> <PUBCHEM_COMPOUND_ID_TYPE>
0

> <PUBCHEM_TOTAL_CHARGE>
0

> <PUBCHEM_SUBSTANCE_ID>
310928968

> <PUBCHEM_SUBSTANCE_VERSION>
1

> <PUBCHEM_EXT_DATASOURCE_NAME>
11752

> <PUBCHEM_EXT_DATASOURCE_REGID>
BD318690

> <PUBCHEM_SUBSTANCE_SYNONYM>
(3R,4R)-rel-4-Isopropylpyrrolidine-3-carboxylic acid
261896-36-0

> <PUBCHEM_GENERIC_REGISTRY_NAME>
261896-36-0

> <PUBCHEM_XREF_EXT_ID>
BD318690

> <PUBCHEM_EXT_DATASOURCE_URL>
http://www.bidepharmatech.com/en/index.html

> <PUBCHEM_EXT_SUBSTANCE_URL>
http://www.bidepharmatech.com/en/goodsview_goodscode_BD318690.html

> <PUBCHEM_CID_ASSOCIATIONS>
9793887  1

> <PUBCHEM_COORDINATE_TYPE>
1
3

> <PUBCHEM_BONDANNOTATIONS>
4  6  6
5  9  5

$$$$
