310944613
  -OEChem-07211613022D

 20 21  0     0  0  0  0  0  0999 V2000
    0.0129    2.8419    0.0000 F   0  0  0  0  0  0  0  0  0  0  0  0
    2.1911    2.3908    0.0000 N   0  0  0  0  0  0  0  0  0  0  0  0
   -2.1911    2.3393    0.0000 N   0  0  0  0  0  0  0  0  0  0  0  0
    0.0129    0.4318    0.0000 C   0  0  0  0  0  0  0  0  0  0  0  0
    0.0129   -0.3931    0.0000 C   0  0  0  0  0  0  0  0  0  0  0  0
    0.7347    1.6433    0.0000 C   0  0  0  0  0  0  0  0  0  0  0  0
   -0.7347    1.6433    0.0000 C   0  0  0  0  0  0  0  0  0  0  0  0
    0.0000    2.0299    0.0000 C   0  0  0  0  0  0  0  0  0  0  0  0
    0.7347    0.8313    0.0000 C   0  0  0  0  0  0  0  0  0  0  0  0
   -0.7217    0.8313    0.0000 C   0  0  0  0  0  0  0  0  0  0  0  0
   -0.7347   -0.8056    0.0000 C   0  0  0  0  0  0  0  0  0  0  0  0
    0.7347   -0.7926    0.0000 C   0  0  0  0  0  0  0  0  0  0  0  0
   -0.7089   -1.6046    0.0000 C   0  0  0  0  0  0  0  0  0  0  0  0
    0.7347   -1.6046    0.0000 C   0  0  0  0  0  0  0  0  0  0  0  0
    0.0129   -2.0041    0.0000 C   0  0  0  0  0  0  0  0  0  0  0  0
    1.4693    2.0299    0.0000 C   0  0  0  0  0  0  0  0  0  0  0  0
   -1.4693    2.0041    0.0000 C   0  0  0  0  0  0  0  0  0  0  0  0
   -1.4564   -0.4060    0.0000 C   0  0  0  0  0  0  0  0  0  0  0  0
    1.4822   -0.3802    0.0000 C   0  0  0  0  0  0  0  0  0  0  0  0
    0.0129   -2.8419    0.0000 C   0  0  0  0  0  0  0  0  0  0  0  0
  1  8  1  0  0  0  0
  2 16  3  0  0  0  0
  3 17  3  0  0  0  0
  4  5  1  0  0  0  0
  4  9  2  0  0  0  0
  4 10  1  0  0  0  0
  5 11  2  0  0  0  0
  5 12  1  0  0  0  0
  6  8  2  0  0  0  0
  6  9  1  0  0  0  0
  6 16  1  0  0  0  0
  7  8  1  0  0  0  0
  7 10  2  0  0  0  0
  7 17  1  0  0  0  0
 11 13  1  0  0  0  0
 11 18  1  0  0  0  0
 12 14  2  0  0  0  0
 12 19  1  0  0  0  0
 13 15  2  0  0  0  0
 14 15  1  0  0  0  0
 15 20  1  0  0  0  0
M  END
> <PUBCHEM_COMPOUND_ID_TYPE>
0

> <PUBCHEM_TOTAL_CHARGE>
0

> <PUBCHEM_SUBSTANCE_ID>
310944613

> <PUBCHEM_SUBSTANCE_VERSION>
1

> <PUBCHEM_EXT_DATASOURCE_NAME>
4488

> <PUBCHEM_EXT_DATASOURCE_REGID>
SCHEMBL16122691

> <PUBCHEM_SUBSTANCE_COMMENT>
InChI=1S/C17H13FN2/c1-10-4-11(2)16(12(3)5-10)13-6-14(8-19)17(18)15(7-13)9-20/h4-7H,1-3H3
InChIKey=RGOCYBQJXAHVPG-UHFFFAOYSA-N

> <PUBCHEM_SUBSTANCE_SYNONYM>
SCHEMBL16122691

> <PUBCHEM_XREF_EXT_ID>
SCHEMBL16122691

> <PUBCHEM_EXT_DATASOURCE_URL>
https://www.surechembl.org/

> <PUBCHEM_EXT_SUBSTANCE_URL>
https://www.surechembl.org/chemical/SCHEMBL16122691

> <PUBCHEM_CID_ASSOCIATIONS>
117610843  1

> <PUBCHEM_COORDINATE_TYPE>
1
3

$$$$
