310942388
  -OEChem-07211613022D

 25 28  0     0  0  0  0  0  0999 V2000
    0.5877   -0.6723    0.0000 N   0  0  0  0  0  0  0  0  0  0  0  0
   -0.8639   -0.6723    0.0000 N   0  0  0  0  0  0  0  0  0  0  0  0
   -0.1336    0.5654    0.0000 N   0  0  0  0  0  0  0  0  0  0  0  0
    2.0393   -0.6723    0.0000 N   0  0  0  0  0  0  0  0  0  0  0  0
   -3.8381    0.8238    0.0000 N   0  0  0  0  0  0  0  0  0  0  0  0
    4.2033    1.3759    0.0000 N   0  0  0  0  0  0  0  0  0  0  0  0
   -3.0456   -0.2538    0.0000 C   0  0  0  0  0  0  0  0  0  0  0  0
    1.3180   -0.2538    0.0000 C   0  0  0  0  0  0  0  0  0  0  0  0
   -0.1336   -0.2538    0.0000 C   0  0  0  0  0  0  0  0  0  0  0  0
   -1.5851   -0.2538    0.0000 C   0  0  0  0  0  0  0  0  0  0  0  0
   -3.0278    0.5654    0.0000 C   0  0  0  0  0  0  0  0  0  0  0  0
    1.3269    0.5654    0.0000 C   0  0  0  0  0  0  0  0  0  0  0  0
   -2.3064   -0.6634    0.0000 C   0  0  0  0  0  0  0  0  0  0  0  0
   -1.5851    0.5654    0.0000 C   0  0  0  0  0  0  0  0  0  0  0  0
   -2.3064    0.9752    0.0000 C   0  0  0  0  0  0  0  0  0  0  0  0
    0.5788    0.9752    0.0000 C   0  0  0  0  0  0  0  0  0  0  0  0
   -3.8291   -0.5120    0.0000 C   0  0  0  0  0  0  0  0  0  0  0  0
   -4.3190    0.1469    0.0000 C   0  0  0  0  0  0  0  0  0  0  0  0
    3.4997   -0.6723    0.0000 C   0  0  0  0  0  0  0  0  0  0  0  0
    2.0303    0.9752    0.0000 C   0  0  0  0  0  0  0  0  0  0  0  0
    2.7606   -0.2627    0.0000 C   0  0  0  0  0  0  0  0  0  0  0  0
    4.3190   -0.6812    0.0000 C   0  0  0  0  0  0  0  0  0  0  0  0
    3.9182   -1.3759    0.0000 C   0  0  0  0  0  0  0  0  0  0  0  0
    2.7785    0.5744    0.0000 C   0  0  0  0  0  0  0  0  0  0  0  0
    3.4908    0.9841    0.0000 C   0  0  0  0  0  0  0  0  0  0  0  0
  1  8  2  0  0  0  0
  1  9  1  0  0  0  0
  2  9  1  0  0  0  0
  2 10  1  0  0  0  0
  3  9  2  0  0  0  0
  3 16  1  0  0  0  0
  4  8  1  0  0  0  0
  4 21  1  0  0  0  0
  5 11  1  0  0  0  0
  5 18  1  0  0  0  0
  6 25  3  0  0  0  0
  7 11  2  0  0  0  0
  7 13  1  0  0  0  0
  7 17  1  0  0  0  0
  8 12  1  0  0  0  0
 10 13  2  0  0  0  0
 10 14  1  0  0  0  0
 11 15  1  0  0  0  0
 12 16  2  0  0  0  0
 12 20  1  0  0  0  0
 14 15  2  0  0  0  0
 17 18  2  0  0  0  0
 19 21  1  0  0  0  0
 19 22  1  0  0  0  0
 19 23  1  0  0  0  0
 20 24  2  0  0  0  0
 22 23  1  0  0  0  0
 24 25  1  0  0  0  0
M  END
> <PUBCHEM_COMPOUND_ID_TYPE>
0

> <PUBCHEM_TOTAL_CHARGE>
0

> <PUBCHEM_SUBSTANCE_ID>
310942388

> <PUBCHEM_SUBSTANCE_VERSION>
1

> <PUBCHEM_EXT_DATASOURCE_NAME>
4488

> <PUBCHEM_EXT_DATASOURCE_REGID>
SCHEMBL16120424

> <PUBCHEM_SUBSTANCE_COMMENT>
InChI=1S/C19H18N6/c20-8-1-2-15-12-23-19(25-18(15)22-11-13-3-4-13)24-16-5-6-17-14(10-16)7-9-21-17/h1-2,5-7,9-10,12-13,21H,3-4,11H2,(H2,22,23,24,25)/b2-1+
InChIKey=FMJSJPCZQIZLCU-OWOJBTEDSA-N

> <PUBCHEM_SUBSTANCE_SYNONYM>
SCHEMBL16120424

> <PUBCHEM_XREF_EXT_ID>
SCHEMBL16120424

> <PUBCHEM_EXT_DATASOURCE_URL>
https://www.surechembl.org/

> <PUBCHEM_EXT_SUBSTANCE_URL>
https://www.surechembl.org/chemical/SCHEMBL16120424

> <PUBCHEM_CID_ASSOCIATIONS>
90466479  1

> <PUBCHEM_COORDINATE_TYPE>
1
3

$$$$
