310943827
  -OEChem-07211613022D

 33 37  0     1  0  0  0  0  0999 V2000
    2.3341    0.7835    0.0000 O   0  0  0  0  0  0  0  0  0  0  0  0
    5.2928    0.6410    0.0000 O   0  0  0  0  0  0  0  0  0  0  0  0
    5.0627    2.0985    0.0000 O   0  0  0  0  0  0  0  0  0  0  0  0
   -0.3507   -2.0985    0.0000 O   0  0  0  0  0  0  0  0  0  0  0  0
    3.3751   -0.2575    0.0000 N   0  0  0  0  0  0  0  0  0  0  0  0
    0.4712   -0.6630    0.0000 N   0  0  0  0  0  0  0  0  0  0  0  0
   -4.0216   -1.3862    0.0000 N   0  0  0  0  0  0  0  0  0  0  0  0
   -1.9834   -0.6630    0.0000 N   0  0  0  0  0  0  0  0  0  0  0  0
   -2.7944   -2.0985    0.0000 N   0  0  0  0  0  0  0  0  0  0  0  0
   -4.5038   -0.7178    0.0000 N   0  0  0  0  0  0  0  0  0  0  0  0
   -5.2928   -0.9698    0.0000 N   0  0  0  0  0  0  0  0  0  0  0  0
   -5.2928   -1.7917    0.0000 N   0  0  0  0  0  0  0  0  0  0  0  0
    2.1149   -0.6520    0.0000 C   0  0  0  0  0  0  0  0  0  0  0  0
    3.3861   -1.0794    0.0000 C   0  0  0  0  0  0  0  0  0  0  0  0
    2.6081   -0.0055    0.0000 C   0  0  0  0  0  0  0  0  0  0  0  0
    2.5971   -1.3205    0.0000 C   0  0  0  0  0  0  0  0  0  0  0  0
    4.0326    0.2356    0.0000 C   0  0  0  0  0  0  0  0  0  0  0  0
    1.7094   -1.3753    0.0000 C   0  0  0  0  0  0  0  0  0  0  0  0
    1.7094    0.0493    0.0000 C   0  0  0  0  0  0  0  0  0  0  0  0
    4.1860   -1.3095    0.0000 C   0  0  0  0  0  0  0  0  0  0  0  0
    3.6053   -1.8793    0.0000 C   0  0  0  0  0  0  0  0  0  0  0  0
    4.0436    1.0684    0.0000 C   0  0  0  0  0  0  0  0  0  0  0  0
    0.8767   -1.3753    0.0000 C   0  0  0  0  0  0  0  0  0  0  0  0
    0.8767    0.0603    0.0000 C   0  0  0  0  0  0  0  0  0  0  0  0
    4.8216   -0.0055    0.0000 C   0  0  0  0  0  0  0  0  0  0  0  0
    4.7887    1.2985    0.0000 C   0  0  0  0  0  0  0  0  0  0  0  0
   -0.3397   -0.6520    0.0000 C   0  0  0  0  0  0  0  0  0  0  0  0
   -0.7561   -1.3753    0.0000 C   0  0  3  0  0  0  0  0  0  0  0  0
   -1.5780   -1.3753    0.0000 C   0  0  0  0  0  0  0  0  0  0  0  0
   -3.2107   -1.3862    0.0000 C   0  0  0  0  0  0  0  0  0  0  0  0
   -1.9834   -2.0875    0.0000 C   0  0  0  0  0  0  0  0  0  0  0  0
   -2.7944   -0.6520    0.0000 C   0  0  0  0  0  0  0  0  0  0  0  0
   -4.4928   -2.0327    0.0000 C   0  0  0  0  0  0  0  0  0  0  0  0
  1 15  2  0  0  0  0
  2 25  1  0  0  0  0
  2 26  1  0  0  0  0
  3 26  2  0  0  0  0
 28  4  1  6  0  0  0
  5 14  1  0  0  0  0
  5 15  1  0  0  0  0
  5 17  1  0  0  0  0
  6 23  1  0  0  0  0
  6 24  1  0  0  0  0
  6 27  1  0  0  0  0
  7 10  1  0  0  0  0
  7 30  1  0  0  0  0
  7 33  1  0  0  0  0
  8 29  2  0  0  0  0
  8 32  1  0  0  0  0
  9 30  1  0  0  0  0
  9 31  2  0  0  0  0
 10 11  2  0  0  0  0
 11 12  1  0  0  0  0
 12 33  2  0  0  0  0
 13 15  1  0  0  0  0
 13 16  1  0  0  0  0
 13 18  1  0  0  0  0
 13 19  1  0  0  0  0
 14 16  1  0  0  0  0
 14 20  1  0  0  0  0
 14 21  1  0  0  0  0
 17 22  2  0  0  0  0
 17 25  1  0  0  0  0
 18 23  1  0  0  0  0
 19 24  1  0  0  0  0
 22 26  1  0  0  0  0
 27 28  1  0  0  0  0
 28 29  1  0  0  0  0
 29 31  1  0  0  0  0
 30 32  2  0  0  0  0
M  END
> <PUBCHEM_COMPOUND_ID_TYPE>
0

> <PUBCHEM_TOTAL_CHARGE>
0

> <PUBCHEM_SUBSTANCE_ID>
310943827

> <PUBCHEM_SUBSTANCE_VERSION>
1

> <PUBCHEM_EXT_DATASOURCE_NAME>
4488

> <PUBCHEM_EXT_DATASOURCE_REGID>
SCHEMBL16121898

> <PUBCHEM_SUBSTANCE_COMMENT>
InChI=1S/C21H26N8O4/c1-20(2)12-21(19(32)29(20)14-7-18(31)33-11-14)3-5-27(6-4-21)10-16(30)15-8-23-17(9-22-15)28-13-24-25-26-28/h7-9,13,16,30H,3-6,10-12H2,1-2H3/t16-/m0/s1
InChIKey=CCCVVMGKORFVRI-INIZCTEOSA-N

> <PUBCHEM_SUBSTANCE_SYNONYM>
SCHEMBL16121898

> <PUBCHEM_XREF_EXT_ID>
SCHEMBL16121898

> <PUBCHEM_EXT_DATASOURCE_URL>
https://www.surechembl.org/

> <PUBCHEM_EXT_SUBSTANCE_URL>
https://www.surechembl.org/chemical/SCHEMBL16121898

> <PUBCHEM_CID_ASSOCIATIONS>
86270694  1

> <PUBCHEM_COORDINATE_TYPE>
1
3

> <PUBCHEM_BONDANNOTATIONS>
28  4  6

$$$$
