310948988
  -OEChem-07211613022D

 13 13  0     0  0  0  0  0  0999 V2000
    1.1246    1.0978    0.0000 S   0  0  0  0  0  0  0  0  0  0  0  0
    0.3963    0.6694    0.0000 O   0  0  0  0  0  0  0  0  0  0  0  0
    0.7069    1.8047    0.0000 O   0  0  0  0  0  0  0  0  0  0  0  0
    1.5530    1.8154    0.0000 O   0  0  0  0  0  0  0  0  0  0  0  0
    1.7350    0.5195    0.0000 N   0  0  0  0  0  0  0  0  0  0  0  0
    0.4177   -0.1553    0.0000 C   0  0  0  0  0  0  0  0  0  0  0  0
   -0.2784   -0.5837    0.0000 C   0  0  0  0  0  0  0  0  0  0  0  0
    1.1353   -0.5730    0.0000 C   0  0  0  0  0  0  0  0  0  0  0  0
   -0.2678   -1.4084    0.0000 C   0  0  0  0  0  0  0  0  0  0  0  0
   -1.0281   -0.1875    0.0000 C   0  0  0  0  0  0  0  0  0  0  0  0
    1.1567   -1.3762    0.0000 C   0  0  0  0  0  0  0  0  0  0  0  0
    0.4498   -1.8154    0.0000 C   0  0  0  0  0  0  0  0  0  0  0  0
   -1.7350   -0.6052    0.0000 C   0  0  0  0  0  0  0  0  0  0  0  0
  1  2  1  0  0  0  0
  1  3  2  0  0  0  0
  1  4  2  0  0  0  0
  1  5  1  0  0  0  0
  2  6  1  0  0  0  0
  6  7  1  0  0  0  0
  6  8  2  0  0  0  0
  7  9  2  0  0  0  0
  7 10  1  0  0  0  0
  8 11  1  0  0  0  0
  9 12  1  0  0  0  0
 10 13  1  0  0  0  0
 11 12  1  0  0  0  0
M  END
> <PUBCHEM_COMPOUND_ID_TYPE>
0

> <PUBCHEM_TOTAL_CHARGE>
0

> <PUBCHEM_SUBSTANCE_ID>
310948988

> <PUBCHEM_SUBSTANCE_VERSION>
1

> <PUBCHEM_EXT_DATASOURCE_NAME>
4488

> <PUBCHEM_EXT_DATASOURCE_REGID>
SCHEMBL16127176

> <PUBCHEM_SUBSTANCE_COMMENT>
InChI=1S/C8H13NO3S/c1-2-7-5-3-4-6-8(7)12-13(9,10)11/h5-6H,2-4H2,1H3,(H2,9,10,11)
InChIKey=KLJVYWGEFWSOAX-UHFFFAOYSA-N

> <PUBCHEM_SUBSTANCE_SYNONYM>
SCHEMBL16127176

> <PUBCHEM_XREF_EXT_ID>
SCHEMBL16127176

> <PUBCHEM_EXT_DATASOURCE_URL>
https://www.surechembl.org/

> <PUBCHEM_EXT_SUBSTANCE_URL>
https://www.surechembl.org/chemical/SCHEMBL16127176

> <PUBCHEM_CID_ASSOCIATIONS>
117614497  1

> <PUBCHEM_COORDINATE_TYPE>
1
3

$$$$
