310938072
  -OEChem-07211613022D

 28 31  0     0  0  0  0  0  0999 V2000
    2.7936    2.8536    0.0000 F   0  0  0  0  0  0  0  0  0  0  0  0
    2.7420    4.5028    0.0000 F   0  0  0  0  0  0  0  0  0  0  0  0
    3.5924    3.7040    0.0000 F   0  0  0  0  0  0  0  0  0  0  0  0
    0.2940    3.6009    0.0000 O   0  0  0  0  0  0  0  0  0  0  0  0
    3.2917    0.1205    0.0000 O   0  0  0  0  0  0  0  0  0  0  0  0
    1.5532    2.9254    0.0000 N   0  0  0  0  0  0  0  0  0  0  0  0
    0.2406    0.8414    0.0000 N   0  0  0  0  0  0  0  0  0  0  0  0
    2.8571    0.8217    0.0000 N   0  0  0  0  0  0  0  0  0  0  0  0
   -0.5232    1.1532    0.0000 N   0  0  0  0  0  0  0  0  0  0  0  0
    4.5509   -0.5550    0.0000 N   0  0  0  0  0  0  0  0  0  0  0  0
    1.9878    2.2242    0.0000 C   0  0  0  0  0  0  0  0  0  0  0  0
    1.5978    1.4972    0.0000 C   0  0  0  0  0  0  0  0  0  0  0  0
    0.7732    1.4714    0.0000 C   0  0  0  0  0  0  0  0  0  0  0  0
    0.3386    2.1727    0.0000 C   0  0  0  0  0  0  0  0  0  0  0  0
    0.7286    2.8997    0.0000 C   0  0  0  0  0  0  0  0  0  0  0  0
    2.8124    2.2499    0.0000 C   0  0  0  0  0  0  0  0  0  0  0  0
    3.2470    1.5487    0.0000 C   0  0  0  0  0  0  0  0  0  0  0  0
    2.0325    0.7959    0.0000 C   0  0  0  0  0  0  0  0  0  0  0  0
    1.9432    3.6524    0.0000 C   0  0  0  0  0  0  0  0  0  0  0  0
   -0.4626    1.9760    0.0000 C   0  0  0  0  0  0  0  0  0  0  0  0
    4.0716    1.5745    0.0000 C   0  0  0  0  0  0  0  0  0  0  0  0
    2.7678    3.6782    0.0000 C   0  0  0  0  0  0  0  0  0  0  0  0
    4.5063    0.8732    0.0000 C   0  0  0  0  0  0  0  0  0  0  0  0
    4.4616    2.3015    0.0000 C   0  0  0  0  0  0  0  0  0  0  0  0
    4.1163    0.1462    0.0000 C   0  0  0  0  0  0  0  0  0  0  0  0
    5.3308    0.8990    0.0000 C   0  0  0  0  0  0  0  0  0  0  0  0
    5.2862    2.3272    0.0000 C   0  0  0  0  0  0  0  0  0  0  0  0
    5.7208    1.6260    0.0000 C   0  0  0  0  0  0  0  0  0  0  0  0
  1 22  1  0  0  0  0
  2 22  1  0  0  0  0
  3 22  1  0  0  0  0
  4 15  2  0  0  0  0
  5 25  2  0  0  0  0
  6 11  1  0  0  0  0
  6 15  1  0  0  0  0
  6 19  1  0  0  0  0
  7  9  1  0  0  0  0
  7 13  1  0  0  0  0
  8 17  1  0  0  0  0
  8 18  2  0  0  0  0
  9 20  2  0  0  0  0
 10 25  1  0  0  0  0
 11 12  2  0  0  0  0
 11 16  1  0  0  0  0
 12 13  1  0  0  0  0
 12 18  1  0  0  0  0
 13 14  2  0  0  0  0
 14 15  1  0  0  0  0
 14 20  1  0  0  0  0
 16 17  2  0  0  0  0
 17 21  1  0  0  0  0
 19 22  1  0  0  0  0
 21 23  2  0  0  0  0
 21 24  1  0  0  0  0
 23 25  1  0  0  0  0
 23 26  1  0  0  0  0
 24 27  2  0  0  0  0
 26 28  2  0  0  0  0
 27 28  1  0  0  0  0
M  END
> <PUBCHEM_COMPOUND_ID_TYPE>
0

> <PUBCHEM_TOTAL_CHARGE>
0

> <PUBCHEM_SUBSTANCE_ID>
310938072

> <PUBCHEM_SUBSTANCE_VERSION>
1

> <PUBCHEM_EXT_DATASOURCE_NAME>
4488

> <PUBCHEM_EXT_DATASOURCE_REGID>
SCHEMBL16115914

> <PUBCHEM_SUBSTANCE_COMMENT>
InChI=1S/C18H12F3N5O2/c19-18(20,21)8-26-14-5-13(9-3-1-2-4-10(9)16(22)27)23-6-11(14)15-12(17(26)28)7-24-25-15/h1-7H,8H2,(H2,22,27)(H,24,25)
InChIKey=RUIUHKPSIDJOBY-UHFFFAOYSA-N

> <PUBCHEM_SUBSTANCE_SYNONYM>
SCHEMBL16115914

> <PUBCHEM_XREF_EXT_ID>
SCHEMBL16115914

> <PUBCHEM_EXT_DATASOURCE_URL>
https://www.surechembl.org/

> <PUBCHEM_EXT_SUBSTANCE_URL>
https://www.surechembl.org/chemical/SCHEMBL16115914

> <PUBCHEM_CID_ASSOCIATIONS>
86298882  1

> <PUBCHEM_COORDINATE_TYPE>
1
3

$$$$
