310938508
  -OEChem-07211613022D

 24 24  0     0  0  0  0  0  0999 V2000
    3.5967   -4.5709    0.0000 O   0  0  0  0  0  0  0  0  0  0  0  0
    4.2711   -3.3220    0.0000 O   0  0  0  0  0  0  0  0  0  0  0  0
    3.6218   -1.1989    0.0000 O   0  0  0  0  0  0  0  0  0  0  0  0
    0.0000   -4.9705    0.0000 O   0  0  0  0  0  0  0  0  0  0  0  0
    2.8474    0.0000    0.0000 O   0  0  0  0  0  0  0  0  0  0  0  0
    1.3988   -4.9955    0.0000 O   0  0  0  0  0  0  0  0  0  0  0  0
    2.8724   -3.3470    0.0000 N   0  0  0  0  0  0  0  0  0  0  0  0
    2.1980   -1.2489    0.0000 N   0  0  0  0  0  0  0  0  0  0  0  0
    0.7244   -3.7716    0.0000 N   0  0  0  0  0  0  0  0  0  0  0  0
    0.7244   -2.0981    0.0000 N   0  0  0  0  0  0  0  0  0  0  0  0
    2.8724   -2.4977    0.0000 C   0  0  0  0  0  0  0  0  0  0  0  0
    2.1980   -3.7716    0.0000 C   0  0  0  0  0  0  0  0  0  0  0  0
    2.1980   -2.0981    0.0000 C   0  0  0  0  0  0  0  0  0  0  0  0
    1.4487   -3.3470    0.0000 C   0  0  0  0  0  0  0  0  0  0  0  0
    3.5967   -3.7467    0.0000 C   0  0  0  0  0  0  0  0  0  0  0  0
    0.0500   -3.3470    0.0000 C   0  0  0  0  0  0  0  0  0  0  0  0
    1.4487   -0.8992    0.0000 C   0  0  0  0  0  0  0  0  0  0  0  0
    2.8974   -0.8242    0.0000 C   0  0  0  0  0  0  0  0  0  0  0  0
    0.7244   -4.5709    0.0000 C   0  0  0  0  0  0  0  0  0  0  0  0
    0.0500   -2.4977    0.0000 C   0  0  0  0  0  0  0  0  0  0  0  0
    0.7244   -1.2489    0.0000 C   0  0  0  0  0  0  0  0  0  0  0  0
    1.4487   -2.4977    0.0000 C   0  0  0  0  0  0  0  0  0  0  0  0
    2.3229   -2.2230    0.0000 C   0  0  0  0  0  0  0  0  0  0  0  0
    2.2979   -1.4237    0.0000 C   0  0  0  0  0  0  0  0  0  0  0  0
  1 15  2  0  0  0  0
  2 15  1  0  0  0  0
  3 18  2  0  0  0  0
  4 19  2  0  0  0  0
  5 18  1  0  0  0  0
  6 19  1  0  0  0  0
  7 11  1  0  0  0  0
  7 12  1  0  0  0  0
  7 15  1  0  0  0  0
  8 13  1  0  0  0  0
  8 17  1  0  0  0  0
  8 18  1  0  0  0  0
  9 14  1  0  0  0  0
  9 16  1  0  0  0  0
  9 19  1  0  0  0  0
 10 20  1  0  0  0  0
 10 21  1  0  0  0  0
 10 22  1  0  0  0  0
 11 13  1  0  0  0  0
 12 14  1  0  0  0  0
 16 20  1  0  0  0  0
 17 21  1  0  0  0  0
 22 23  1  0  0  0  0
 23 24  3  0  0  0  0
M  END
> <PUBCHEM_COMPOUND_ID_TYPE>
0

> <PUBCHEM_TOTAL_CHARGE>
0

> <PUBCHEM_SUBSTANCE_ID>
310938508

> <PUBCHEM_SUBSTANCE_VERSION>
1

> <PUBCHEM_EXT_DATASOURCE_NAME>
4488

> <PUBCHEM_EXT_DATASOURCE_REGID>
SCHEMBL16116415

> <PUBCHEM_SUBSTANCE_COMMENT>
InChI=1S/C14H22N4O6/c1-2-3-15-4-6-16(12(19)20)8-10-18(14(23)24)11-9-17(7-5-15)13(21)22/h1H,3-11H2,(H,19,20)(H,21,22)(H,23,24)
InChIKey=PTLBNWYQMDABSE-UHFFFAOYSA-N

> <PUBCHEM_SUBSTANCE_SYNONYM>
SCHEMBL16116415

> <PUBCHEM_XREF_EXT_ID>
SCHEMBL16116415

> <PUBCHEM_EXT_DATASOURCE_URL>
https://www.surechembl.org/

> <PUBCHEM_EXT_SUBSTANCE_URL>
https://www.surechembl.org/chemical/SCHEMBL16116415

> <PUBCHEM_CID_ASSOCIATIONS>
117605962  1

> <PUBCHEM_COORDINATE_TYPE>
1
3

$$$$
