310943606
  -OEChem-07211613022D

 35 38  0     0  0  0  0  0  0999 V2000
    4.6339    2.2658    0.0000 F   0  0  0  0  0  0  0  0  0  0  0  0
    5.3502    1.0379    0.0000 F   0  0  0  0  0  0  0  0  0  0  0  0
    1.7834    2.2512    0.0000 O   0  0  0  0  0  0  0  0  0  0  0  0
   -5.3502    2.2512    0.0000 O   0  0  0  0  0  0  0  0  0  0  0  0
   -1.0817   -2.6751    0.0000 O   0  0  0  0  0  0  0  0  0  0  0  0
   -3.9323    1.4472    0.0000 N   0  0  0  0  0  0  0  0  0  0  0  0
   -3.2160    0.2046    0.0000 N   0  0  0  0  0  0  0  0  0  0  0  0
   -0.3654    2.6751    0.0000 N   0  0  0  0  0  0  0  0  0  0  0  0
    1.0671    1.0379    0.0000 N   0  0  0  0  0  0  0  0  0  0  0  0
   -2.4997   -1.0233    0.0000 N   0  0  0  0  0  0  0  0  0  0  0  0
    3.9176    0.2046    0.0000 N   0  0  0  0  0  0  0  0  0  0  0  0
   -1.7834    1.0379    0.0000 C   0  0  0  0  0  0  0  0  0  0  0  0
   -1.0817    1.4472    0.0000 C   0  0  0  0  0  0  0  0  0  0  0  0
   -3.2160    1.0379    0.0000 C   0  0  0  0  0  0  0  0  0  0  0  0
   -2.4997    1.4472    0.0000 C   0  0  0  0  0  0  0  0  0  0  0  0
   -1.0671    2.2658    0.0000 C   0  0  0  0  0  0  0  0  0  0  0  0
   -1.7980    0.2046    0.0000 C   0  0  0  0  0  0  0  0  0  0  0  0
   -2.4997   -0.2046    0.0000 C   0  0  0  0  0  0  0  0  0  0  0  0
   -0.3654    1.0379    0.0000 C   0  0  0  0  0  0  0  0  0  0  0  0
    0.3362    1.4472    0.0000 C   0  0  0  0  0  0  0  0  0  0  0  0
    0.3654    2.2512    0.0000 C   0  0  0  0  0  0  0  0  0  0  0  0
    1.7688    1.4326    0.0000 C   0  0  0  0  0  0  0  0  0  0  0  0
    2.4997    1.0379    0.0000 C   0  0  0  0  0  0  0  0  0  0  0  0
   -3.9323    2.2658    0.0000 C   0  0  0  0  0  0  0  0  0  0  0  0
   -4.6339    1.0379    0.0000 C   0  0  0  0  0  0  0  0  0  0  0  0
    3.2160    1.4472    0.0000 C   0  0  0  0  0  0  0  0  0  0  0  0
    3.9323    1.0379    0.0000 C   0  0  0  0  0  0  0  0  0  0  0  0
   -1.7980    2.6605    0.0000 C   0  0  0  0  0  0  0  0  0  0  0  0
    2.4997    0.2046    0.0000 C   0  0  0  0  0  0  0  0  0  0  0  0
   -4.6339    2.6751    0.0000 C   0  0  0  0  0  0  0  0  0  0  0  0
   -5.3502    1.4326    0.0000 C   0  0  0  0  0  0  0  0  0  0  0  0
    4.6339    1.4472    0.0000 C   0  0  0  0  0  0  0  0  0  0  0  0
    3.2306   -0.1901    0.0000 C   0  0  0  0  0  0  0  0  0  0  0  0
   -1.7834   -1.4326    0.0000 C   0  0  0  0  0  0  0  0  0  0  0  0
   -1.7834   -2.2512    0.0000 C   0  0  0  0  0  0  0  0  0  0  0  0
  1 32  1  0  0  0  0
  2 32  1  0  0  0  0
  3 22  2  0  0  0  0
  4 30  1  0  0  0  0
  4 31  1  0  0  0  0
  5 35  1  0  0  0  0
  6 14  1  0  0  0  0
  6 24  1  0  0  0  0
  6 25  1  0  0  0  0
  7 14  2  0  0  0  0
  7 18  1  0  0  0  0
  8 16  2  0  0  0  0
  8 21  1  0  0  0  0
  9 20  1  0  0  0  0
  9 22  1  0  0  0  0
 10 18  1  0  0  0  0
 10 34  1  0  0  0  0
 11 27  1  0  0  0  0
 11 33  2  0  0  0  0
 12 13  1  0  0  0  0
 12 15  2  0  0  0  0
 12 17  1  0  0  0  0
 13 16  1  0  0  0  0
 13 19  2  0  0  0  0
 14 15  1  0  0  0  0
 16 28  1  0  0  0  0
 17 18  2  0  0  0  0
 19 20  1  0  0  0  0
 20 21  2  0  0  0  0
 22 23  1  0  0  0  0
 23 26  1  0  0  0  0
 23 29  2  0  0  0  0
 24 30  1  0  0  0  0
 25 31  1  0  0  0  0
 26 27  2  0  0  0  0
 27 32  1  0  0  0  0
 29 33  1  0  0  0  0
 34 35  1  0  0  0  0
M  END
> <PUBCHEM_COMPOUND_ID_TYPE>
0

> <PUBCHEM_TOTAL_CHARGE>
0

> <PUBCHEM_SUBSTANCE_ID>
310943606

> <PUBCHEM_SUBSTANCE_VERSION>
1

> <PUBCHEM_EXT_DATASOURCE_NAME>
4488

> <PUBCHEM_EXT_DATASOURCE_REGID>
SCHEMBL16121673

> <PUBCHEM_SUBSTANCE_COMMENT>
InChI=1S/C24H26F2N6O3/c1-15-19(13-18(14-29-15)30-24(34)16-2-3-27-20(10-16)23(25)26)17-11-21(28-4-7-33)31-22(12-17)32-5-8-35-9-6-32/h2-3,10-14,23,33H,4-9H2,1H3,(H,28,31)(H,30,34)
InChIKey=OSSSSQGZFADLFY-UHFFFAOYSA-N

> <PUBCHEM_SUBSTANCE_SYNONYM>
SCHEMBL16121673

> <PUBCHEM_XREF_EXT_ID>
SCHEMBL16121673

> <PUBCHEM_EXT_DATASOURCE_URL>
https://www.surechembl.org/

> <PUBCHEM_EXT_SUBSTANCE_URL>
https://www.surechembl.org/chemical/SCHEMBL16121673

> <PUBCHEM_CID_ASSOCIATIONS>
117609997  1

> <PUBCHEM_COORDINATE_TYPE>
1
3

$$$$
