310947173
  -OEChem-07211613022D

 22 23  0     0  0  0  0  0  0999 V2000
    0.8693    0.0765    0.0000 S   0  0  0  0  0  0  0  0  0  0  0  0
   -1.9885    1.7265    0.0000 O   0  0  0  0  0  0  0  0  0  0  0  0
    3.7272    2.5515    0.0000 O   0  0  0  0  0  0  0  0  0  0  0  0
   -2.7030    0.4890    0.0000 O   0  0  0  0  0  0  0  0  0  0  0  0
    0.1549    0.4890    0.0000 C   0  0  0  0  0  0  0  0  0  0  0  0
    1.5838    0.4890    0.0000 C   0  0  0  0  0  0  0  0  0  0  0  0
    3.0128    1.3140    0.0000 C   0  0  0  0  0  0  0  0  0  0  0  0
   -1.2741    1.3140    0.0000 C   0  0  0  0  0  0  0  0  0  0  0  0
    0.1549    1.3140    0.0000 C   0  0  0  0  0  0  0  0  0  0  0  0
   -0.5596    0.0765    0.0000 C   0  0  0  0  0  0  0  0  0  0  0  0
    1.5838    1.3140    0.0000 C   0  0  0  0  0  0  0  0  0  0  0  0
    2.2983    0.0765    0.0000 C   0  0  0  0  0  0  0  0  0  0  0  0
    2.2983    1.7265    0.0000 C   0  0  0  0  0  0  0  0  0  0  0  0
    3.0128    0.4890    0.0000 C   0  0  0  0  0  0  0  0  0  0  0  0
   -0.5596    1.7265    0.0000 C   0  0  0  0  0  0  0  0  0  0  0  0
   -1.2741    0.4890    0.0000 C   0  0  0  0  0  0  0  0  0  0  0  0
    3.7272    1.7265    0.0000 C   0  0  0  0  0  0  0  0  0  0  0  0
   -2.7030    1.3140    0.0000 C   0  0  0  0  0  0  0  0  0  0  0  0
    4.4417    1.3140    0.0000 C   0  0  0  0  0  0  0  0  0  0  0  0
   -3.4175    1.7265    0.0000 C   0  0  0  0  0  0  0  0  0  0  0  0
    5.1562    1.7265    0.0000 C   0  0  0  0  0  0  0  0  0  0  0  0
   -4.1320    1.3140    0.0000 C   0  0  0  0  0  0  0  0  0  0  0  0
  1  5  1  0  0  0  0
  1  6  1  0  0  0  0
  2  8  1  0  0  0  0
  2 18  1  0  0  0  0
  3 17  2  0  0  0  0
  4 18  2  0  0  0  0
  5  9  2  0  0  0  0
  5 10  1  0  0  0  0
  6 11  2  0  0  0  0
  6 12  1  0  0  0  0
  7 13  2  0  0  0  0
  7 14  1  0  0  0  0
  7 17  1  0  0  0  0
  8 15  2  0  0  0  0
  8 16  1  0  0  0  0
  9 15  1  0  0  0  0
 10 16  2  0  0  0  0
 11 13  1  0  0  0  0
 12 14  2  0  0  0  0
 17 19  1  0  0  0  0
 18 20  1  0  0  0  0
 19 21  1  0  0  0  0
 20 22  2  0  0  0  0
M  END
> <PUBCHEM_COMPOUND_ID_TYPE>
0

> <PUBCHEM_TOTAL_CHARGE>
0

> <PUBCHEM_SUBSTANCE_ID>
310947173

> <PUBCHEM_SUBSTANCE_VERSION>
1

> <PUBCHEM_EXT_DATASOURCE_NAME>
4488

> <PUBCHEM_EXT_DATASOURCE_REGID>
SCHEMBL16125327

> <PUBCHEM_SUBSTANCE_COMMENT>
InChI=1S/C18H16O3S/c1-3-17(19)13-5-9-15(10-6-13)22-16-11-7-14(8-12-16)21-18(20)4-2/h4-12H,2-3H2,1H3
InChIKey=WAGPZDGWECWXBM-UHFFFAOYSA-N

> <PUBCHEM_SUBSTANCE_SYNONYM>
SCHEMBL16125327

> <PUBCHEM_XREF_EXT_ID>
SCHEMBL16125327

> <PUBCHEM_EXT_DATASOURCE_URL>
https://www.surechembl.org/

> <PUBCHEM_EXT_SUBSTANCE_URL>
https://www.surechembl.org/chemical/SCHEMBL16125327

> <PUBCHEM_CID_ASSOCIATIONS>
117612999  1

> <PUBCHEM_COORDINATE_TYPE>
1
3

$$$$
