310944693
  -OEChem-07211613022D

 25 28  0     1  0  0  0  0  0999 V2000
    2.3799    1.3061    0.0000 O   0  0  0  0  0  0  0  0  0  0  0  0
    0.3606   -0.1042    0.0000 N   0  0  0  0  0  0  0  0  0  0  0  0
   -2.5721   -0.1522    0.0000 N   0  0  0  0  0  0  0  0  0  0  0  0
   -2.9087    0.6010    0.0000 N   0  0  0  0  0  0  0  0  0  0  0  0
    1.1298   -0.4567    0.0000 C   0  0  3  0  0  0  0  0  0  0  0  0
    0.4407    0.7613    0.0000 C   0  0  3  0  0  0  0  0  0  0  0  0
   -3.1812   -0.6971    0.0000 C   0  0  0  0  0  0  0  0  0  0  0  0
    1.7869    0.7292    0.0000 C   0  0  0  0  0  0  0  0  0  0  0  0
    1.0657    1.1298    0.0000 C   0  0  0  0  0  0  0  0  0  0  0  0
    1.7869   -0.1042    0.0000 C   0  0  0  0  0  0  0  0  0  0  0  0
   -0.5529   -0.7292    0.0000 C   0  0  0  0  0  0  0  0  0  0  0  0
    1.5785    0.1042    0.0000 C   0  0  0  0  0  0  0  0  0  0  0  0
    1.1298    0.8894    0.0000 C   0  0  0  0  0  0  0  0  0  0  0  0
   -3.9023   -0.2965    0.0000 C   0  0  0  0  0  0  0  0  0  0  0  0
   -1.2901   -0.3285    0.0000 C   0  0  3  0  0  0  0  0  0  0  0  0
   -1.9792   -0.7292    0.0000 C   0  0  0  0  0  0  0  0  0  0  0  0
   -3.7100    0.5209    0.0000 C   0  0  0  0  0  0  0  0  0  0  0  0
   -3.1972   -1.5305    0.0000 C   0  0  0  0  0  0  0  0  0  0  0  0
   -4.6075   -0.7131    0.0000 C   0  0  0  0  0  0  0  0  0  0  0  0
   -3.8862   -1.9311    0.0000 C   0  0  0  0  0  0  0  0  0  0  0  0
   -4.6075   -1.5305    0.0000 C   0  0  0  0  0  0  0  0  0  0  0  0
   -1.3061    0.5849    0.0000 C   0  0  0  0  0  0  0  0  0  0  0  0
    3.1812    1.0978    0.0000 C   0  0  0  0  0  0  0  0  0  0  0  0
    3.8862    1.4984    0.0000 C   0  0  0  0  0  0  0  0  0  0  0  0
    4.6075    1.9311    0.0000 C   0  0  0  0  0  0  0  0  0  0  0  0
  8  1  1  1  0  0  0
  1 23  1  0  0  0  0
  5  2  1  6  0  0  0
  6  2  1  6  0  0  0
  2 11  1  0  0  0  0
  3  4  1  0  0  0  0
  3  7  1  0  0  0  0
  3 16  1  0  0  0  0
  4 17  2  0  0  0  0
  5 10  1  0  0  0  0
  5 12  1  0  0  0  0
  6  9  1  0  0  0  0
  6 13  1  0  0  0  0
  7 14  2  0  0  0  0
  7 18  1  0  0  0  0
  8  9  1  0  0  0  0
  8 10  1  0  0  0  0
 11 15  1  0  0  0  0
 12 13  1  0  0  0  0
 14 17  1  0  0  0  0
 14 19  1  0  0  0  0
 15 16  1  0  0  0  0
 15 22  1  6  0  0  0
 18 20  2  0  0  0  0
 19 21  2  0  0  0  0
 20 21  1  0  0  0  0
 23 24  1  0  0  0  0
 24 25  3  0  0  0  0
M  END
> <PUBCHEM_COMPOUND_ID_TYPE>
0

> <PUBCHEM_TOTAL_CHARGE>
0

> <PUBCHEM_SUBSTANCE_ID>
310944693

> <PUBCHEM_SUBSTANCE_VERSION>
1

> <PUBCHEM_EXT_DATASOURCE_NAME>
4488

> <PUBCHEM_EXT_DATASOURCE_REGID>
SCHEMBL16122772

> <PUBCHEM_SUBSTANCE_COMMENT>
InChI=1S/C21H27N3O/c1-3-10-25-20-11-18-8-9-19(12-20)23(18)14-16(2)15-24-21-7-5-4-6-17(21)13-22-24/h1,4-7,13,16,18-20H,8-12,14-15H2,2H3/t16-,18-,19+,20+/m1/s1
InChIKey=PSFRVPFPCFPPPM-LMCOJAPRSA-N

> <PUBCHEM_SUBSTANCE_SYNONYM>
SCHEMBL16122772

> <PUBCHEM_XREF_EXT_ID>
SCHEMBL16122772

> <PUBCHEM_EXT_DATASOURCE_URL>
https://www.surechembl.org/

> <PUBCHEM_EXT_SUBSTANCE_URL>
https://www.surechembl.org/chemical/SCHEMBL16122772

> <PUBCHEM_CID_ASSOCIATIONS>
117610917  1

> <PUBCHEM_COORDINATE_TYPE>
1
3

> <PUBCHEM_BONDANNOTATIONS>
8  1  5
15  22  6
5  2  6
6  2  6

$$$$
