310930581
  -OEChem-07211613022D

 28 31  0     0  0  0  0  0  0999 V2000
    6.3605   -2.0035    0.0000 S   0  0  0  0  0  0  0  0  0  0  0  0
    7.0601    0.0000    0.0000 S   0  0  0  0  0  0  0  0  0  0  0  0
    2.1626   -6.2015    0.0000 O   0  0  0  0  0  0  0  0  0  0  0  0
    5.5972   -1.5265    0.0000 O   0  0  0  0  0  0  0  0  0  0  0  0
    7.0601   -2.3852    0.0000 O   0  0  0  0  0  0  0  0  0  0  0  0
    3.8799   -6.2650    0.0000 O   0  0  0  0  0  0  0  0  0  0  0  0
    7.6008   -1.2403    0.0000 N   0  0  0  0  0  0  0  0  0  0  0  0
    3.8799   -4.8340    0.0000 N   0  0  0  0  0  0  0  0  0  0  0  0
    0.0000   -5.9788    0.0000 N   0  0  0  0  0  0  0  0  0  0  0  0
    6.7739   -1.3039    0.0000 C   0  0  0  0  0  0  0  0  0  0  0  0
    5.9788   -2.7032    0.0000 C   0  0  0  0  0  0  0  0  0  0  0  0
    2.6714   -5.5336    0.0000 C   0  0  0  0  0  0  0  0  0  0  0  0
    1.3993   -5.9788    0.0000 C   0  0  0  0  0  0  0  0  0  0  0  0
    1.3993   -5.1202    0.0000 C   0  0  0  0  0  0  0  0  0  0  0  0
    6.4559   -0.5406    0.0000 C   0  0  0  0  0  0  0  0  0  0  0  0
    5.1202   -2.7032    0.0000 C   0  0  0  0  0  0  0  0  0  0  0  0
    6.3605   -3.4029    0.0000 C   0  0  0  0  0  0  0  0  0  0  0  0
    7.7916   -0.4135    0.0000 C   0  0  0  0  0  0  0  0  0  0  0  0
    2.1626   -4.8976    0.0000 C   0  0  0  0  0  0  0  0  0  0  0  0
    5.1202   -4.1343    0.0000 C   0  0  0  0  0  0  0  0  0  0  0  0
    3.4982   -5.5336    0.0000 C   0  0  0  0  0  0  0  0  0  0  0  0
    4.7385   -3.4029    0.0000 C   0  0  0  0  0  0  0  0  0  0  0  0
    5.9470   -4.1025    0.0000 C   0  0  0  0  0  0  0  0  0  0  0  0
    0.6679   -6.3605    0.0000 C   0  0  0  0  0  0  0  0  0  0  0  0
    0.6679   -4.7385    0.0000 C   0  0  0  0  0  0  0  0  0  0  0  0
    4.7068   -4.8340    0.0000 C   0  0  0  0  0  0  0  0  0  0  0  0
    0.0000   -5.1202    0.0000 C   0  0  0  0  0  0  0  0  0  0  0  0
    8.5230   -0.0954    0.0000 C   0  0  0  0  0  0  0  0  0  0  0  0
  1  4  2  0  0  0  0
  1  5  2  0  0  0  0
  1 10  1  0  0  0  0
  1 11  1  0  0  0  0
  2 15  1  0  0  0  0
  2 18  1  0  0  0  0
  3 12  1  0  0  0  0
  3 13  1  0  0  0  0
  6 21  2  0  0  0  0
  7 10  1  0  0  0  0
  7 18  2  0  0  0  0
  8 21  1  0  0  0  0
  8 26  1  0  0  0  0
  9 24  1  0  0  0  0
  9 27  2  0  0  0  0
 10 15  2  0  0  0  0
 11 16  2  0  0  0  0
 11 17  1  0  0  0  0
 12 19  2  0  0  0  0
 12 21  1  0  0  0  0
 13 14  1  0  0  0  0
 13 24  2  0  0  0  0
 14 19  1  0  0  0  0
 14 25  2  0  0  0  0
 16 22  1  0  0  0  0
 17 23  2  0  0  0  0
 18 28  1  0  0  0  0
 20 22  2  0  0  0  0
 20 23  1  0  0  0  0
 20 26  1  0  0  0  0
 25 27  1  0  0  0  0
M  END
> <PUBCHEM_COMPOUND_ID_TYPE>
0

> <PUBCHEM_TOTAL_CHARGE>
0

> <PUBCHEM_SUBSTANCE_ID>
310930581

> <PUBCHEM_SUBSTANCE_VERSION>
1

> <PUBCHEM_EXT_DATASOURCE_NAME>
4488

> <PUBCHEM_EXT_DATASOURCE_REGID>
SCHEMBL16107876

> <PUBCHEM_SUBSTANCE_COMMENT>
InChI=1S/C19H15N3O4S2/c1-12-22-18(11-27-12)28(24,25)15-4-2-13(3-5-15)9-21-19(23)16-8-14-6-7-20-10-17(14)26-16/h2-8,10-11H,9H2,1H3,(H,21,23)
InChIKey=SSSFHSMVALVOLA-UHFFFAOYSA-N

> <PUBCHEM_SUBSTANCE_SYNONYM>
SCHEMBL16107876

> <PUBCHEM_XREF_EXT_ID>
SCHEMBL16107876

> <PUBCHEM_EXT_DATASOURCE_URL>
https://www.surechembl.org/

> <PUBCHEM_EXT_SUBSTANCE_URL>
https://www.surechembl.org/chemical/SCHEMBL16107876

> <PUBCHEM_CID_ASSOCIATIONS>
117599665  1

> <PUBCHEM_COORDINATE_TYPE>
1
3

$$$$
