310943530
  -OEChem-07211613022D

 40 45  0     0  0  0  0  0  0999 V2000
   -3.2495    0.1218    0.0000 O   0  0  0  0  0  0  0  0  0  0  0  0
   -3.2647   -3.0440    0.0000 O   0  0  0  0  0  0  0  0  0  0  0  0
   -4.6344    2.6483    0.0000 O   0  0  0  0  0  0  0  0  0  0  0  0
    2.5798    2.3591    0.0000 O   0  0  0  0  0  0  0  0  0  0  0  0
    4.4974   -1.4916    0.0000 O   0  0  0  0  0  0  0  0  0  0  0  0
   -3.2190    1.7807    0.0000 N   0  0  0  0  0  0  0  0  0  0  0  0
   -1.8188    0.0913    0.0000 N   0  0  0  0  0  0  0  0  0  0  0  0
    0.4642    2.9070    0.0000 N   0  0  0  0  0  0  0  0  0  0  0  0
    1.8036    1.1567    0.0000 N   0  0  0  0  0  0  0  0  0  0  0  0
    4.6040    0.1674    0.0000 N   0  0  0  0  0  0  0  0  0  0  0  0
   -3.2190   -1.8568    0.0000 C   0  0  0  0  0  0  0  0  0  0  0  0
   -3.2647   -0.7001    0.0000 C   0  0  0  0  0  0  0  0  0  0  0  0
   -3.8125   -1.3089    0.0000 C   0  0  0  0  0  0  0  0  0  0  0  0
   -2.6711   -1.2480    0.0000 C   0  0  0  0  0  0  0  0  0  0  0  0
   -2.6711   -2.4656    0.0000 C   0  0  0  0  0  0  0  0  0  0  0  0
   -3.8125   -2.4351    0.0000 C   0  0  0  0  0  0  0  0  0  0  0  0
   -2.5341    0.5327    0.0000 C   0  0  0  0  0  0  0  0  0  0  0  0
   -2.5036    1.3698    0.0000 C   0  0  0  0  0  0  0  0  0  0  0  0
   -1.0730    1.3394    0.0000 C   0  0  0  0  0  0  0  0  0  0  0  0
   -0.3272    1.7198    0.0000 C   0  0  0  0  0  0  0  0  0  0  0  0
   -1.7883    1.7655    0.0000 C   0  0  0  0  0  0  0  0  0  0  0  0
   -1.1034    0.4870    0.0000 C   0  0  0  0  0  0  0  0  0  0  0  0
   -0.2663    2.5569    0.0000 C   0  0  0  0  0  0  0  0  0  0  0  0
    0.3729    1.2632    0.0000 C   0  0  0  0  0  0  0  0  0  0  0  0
    1.1034    1.6285    0.0000 C   0  0  0  0  0  0  0  0  0  0  0  0
   -3.2038    2.6178    0.0000 C   0  0  0  0  0  0  0  0  0  0  0  0
   -3.9191    1.4002    0.0000 C   0  0  0  0  0  0  0  0  0  0  0  0
    1.1644    2.4504    0.0000 C   0  0  0  0  0  0  0  0  0  0  0  0
    3.2190    1.0959    0.0000 C   0  0  0  0  0  0  0  0  0  0  0  0
    2.5188    1.5219    0.0000 C   0  0  0  0  0  0  0  0  0  0  0  0
    3.8582   -0.1979    0.0000 C   0  0  0  0  0  0  0  0  0  0  0  0
    3.7973   -1.0349    0.0000 C   0  0  0  0  0  0  0  0  0  0  0  0
    3.1733    0.2587    0.0000 C   0  0  0  0  0  0  0  0  0  0  0  0
   -3.9039    3.0440    0.0000 C   0  0  0  0  0  0  0  0  0  0  0  0
   -4.6496    1.8264    0.0000 C   0  0  0  0  0  0  0  0  0  0  0  0
   -0.9664    2.9831    0.0000 C   0  0  0  0  0  0  0  0  0  0  0  0
    3.9647    1.4611    0.0000 C   0  0  0  0  0  0  0  0  0  0  0  0
    4.6496    0.9893    0.0000 C   0  0  0  0  0  0  0  0  0  0  0  0
    3.0668   -1.4154    0.0000 C   0  0  0  0  0  0  0  0  0  0  0  0
    3.6147   -1.8416    0.0000 C   0  0  0  0  0  0  0  0  0  0  0  0
  1 12  1  0  0  0  0
  1 17  1  0  0  0  0
  2 15  1  0  0  0  0
  2 16  1  0  0  0  0
  3 34  1  0  0  0  0
  3 35  1  0  0  0  0
  4 30  2  0  0  0  0
  5 32  1  0  0  0  0
  6 18  1  0  0  0  0
  6 26  1  0  0  0  0
  6 27  1  0  0  0  0
  7 17  1  0  0  0  0
  7 22  2  0  0  0  0
  8 23  2  0  0  0  0
  8 28  1  0  0  0  0
  9 25  1  0  0  0  0
  9 30  1  0  0  0  0
 10 31  2  0  0  0  0
 10 38  1  0  0  0  0
 11 13  1  0  0  0  0
 11 14  1  0  0  0  0
 11 15  1  0  0  0  0
 11 16  1  0  0  0  0
 12 13  1  0  0  0  0
 12 14  1  0  0  0  0
 17 18  2  0  0  0  0
 18 21  1  0  0  0  0
 19 20  1  0  0  0  0
 19 21  2  0  0  0  0
 19 22  1  0  0  0  0
 20 23  1  0  0  0  0
 20 24  2  0  0  0  0
 23 36  1  0  0  0  0
 24 25  1  0  0  0  0
 25 28  2  0  0  0  0
 26 34  1  0  0  0  0
 27 35  1  0  0  0  0
 29 30  1  0  0  0  0
 29 33  2  0  0  0  0
 29 37  1  0  0  0  0
 31 32  1  0  0  0  0
 31 33  1  0  0  0  0
 32 39  1  0  0  0  0
 32 40  1  0  0  0  0
 37 38  2  0  0  0  0
M  END
> <PUBCHEM_COMPOUND_ID_TYPE>
0

> <PUBCHEM_TOTAL_CHARGE>
0

> <PUBCHEM_SUBSTANCE_ID>
310943530

> <PUBCHEM_SUBSTANCE_VERSION>
1

> <PUBCHEM_EXT_DATASOURCE_NAME>
4488

> <PUBCHEM_EXT_DATASOURCE_REGID>
SCHEMBL16121596

> <PUBCHEM_SUBSTANCE_COMMENT>
InChI=1S/C30H35N5O5/c1-19-24(12-22(16-32-19)34-27(36)20-4-5-31-26(11-20)29(2,3)37)21-10-25(35-6-8-38-9-7-35)28(33-15-21)40-23-13-30(14-23)17-39-18-30/h4-5,10-12,15-16,23,37H,6-9,13-14,17-18H2,1-3H3,(H,34,36)
InChIKey=ZODAQPSKPUMXIS-UHFFFAOYSA-N

> <PUBCHEM_SUBSTANCE_SYNONYM>
SCHEMBL16121596

> <PUBCHEM_XREF_EXT_ID>
SCHEMBL16121596

> <PUBCHEM_EXT_DATASOURCE_URL>
https://www.surechembl.org/

> <PUBCHEM_EXT_SUBSTANCE_URL>
https://www.surechembl.org/chemical/SCHEMBL16121596

> <PUBCHEM_CID_ASSOCIATIONS>
117609944  1

> <PUBCHEM_COORDINATE_TYPE>
1
3

$$$$
