310941863
  -OEChem-07211613022D

 22 25  0     0  0  0  0  0  0999 V2000
   -0.2004    0.4216    0.0000 O   0  0  0  0  0  0  0  0  0  0  0  0
    2.3152    0.4631    0.0000 N   0  0  0  0  0  0  0  0  0  0  0  0
    2.4396    1.8038    0.0000 N   0  0  0  0  0  0  0  0  0  0  0  0
    3.1998    1.4720    0.0000 N   0  0  0  0  0  0  0  0  0  0  0  0
    3.7389    0.1036    0.0000 N   0  0  0  0  0  0  0  0  0  0  0  0
    1.0574   -0.2696    0.0000 C   0  0  0  0  0  0  0  0  0  0  0  0
    1.8868    1.1680    0.0000 C   0  0  0  0  0  0  0  0  0  0  0  0
    0.6289    0.4354    0.0000 C   0  0  0  0  0  0  0  0  0  0  0  0
    0.6566   -1.0021    0.0000 C   0  0  0  0  0  0  0  0  0  0  0  0
    1.9005   -0.2557    0.0000 C   0  0  0  0  0  0  0  0  0  0  0  0
    1.0436    1.1541    0.0000 C   0  0  0  0  0  0  0  0  0  0  0  0
    3.0892    0.6566    0.0000 C   0  0  0  0  0  0  0  0  0  0  0  0
   -0.0346   -1.4168    0.0000 C   0  0  0  0  0  0  0  0  0  0  0  0
    0.6566   -1.8038    0.0000 C   0  0  0  0  0  0  0  0  0  0  0  0
   -0.6013   -0.2834    0.0000 C   0  0  0  0  0  0  0  0  0  0  0  0
   -1.4306   -0.2972    0.0000 C   0  0  0  0  0  0  0  0  0  0  0  0
   -1.8591    0.3939    0.0000 C   0  0  0  0  0  0  0  0  0  0  0  0
   -1.8315   -1.0159    0.0000 C   0  0  0  0  0  0  0  0  0  0  0  0
   -3.0755   -0.3386    0.0000 C   0  0  0  0  0  0  0  0  0  0  0  0
   -2.6884    0.3801    0.0000 C   0  0  0  0  0  0  0  0  0  0  0  0
   -2.6607   -1.0436    0.0000 C   0  0  0  0  0  0  0  0  0  0  0  0
   -3.7389   -0.3525    0.0000 C   0  0  0  0  0  0  0  0  0  0  0  0
  1  8  1  0  0  0  0
  1 15  1  0  0  0  0
  2  7  1  0  0  0  0
  2 10  1  0  0  0  0
  2 12  1  0  0  0  0
  3  4  1  0  0  0  0
  3  7  2  0  0  0  0
  4 12  2  0  0  0  0
  5 12  1  0  0  0  0
  6  8  1  0  0  0  0
  6  9  1  0  0  0  0
  6 10  2  0  0  0  0
  7 11  1  0  0  0  0
  8 11  2  0  0  0  0
  9 13  1  0  0  0  0
  9 14  1  0  0  0  0
 13 14  1  0  0  0  0
 16 15  1  1  0  0  0
 16 17  1  0  0  0  0
 16 18  1  0  0  0  0
 17 20  1  0  0  0  0
 18 21  1  0  0  0  0
 19 20  1  0  0  0  0
 19 21  1  0  0  0  0
 19 22  1  6  0  0  0
M  END
> <PUBCHEM_COMPOUND_ID_TYPE>
0

> <PUBCHEM_TOTAL_CHARGE>
0

> <PUBCHEM_SUBSTANCE_ID>
310941863

> <PUBCHEM_SUBSTANCE_VERSION>
1

> <PUBCHEM_EXT_DATASOURCE_NAME>
4488

> <PUBCHEM_EXT_DATASOURCE_REGID>
SCHEMBL16119895

> <PUBCHEM_SUBSTANCE_COMMENT>
InChI=1S/C17H24N4O/c1-11-2-4-12(5-3-11)10-22-15-8-16-19-20-17(18)21(16)9-14(15)13-6-7-13/h8-9,11-13H,2-7,10H2,1H3,(H2,18,20)/t11-,12-
InChIKey=DZJYPOCZBMZKCW-HAQNSBGRSA-N

> <PUBCHEM_SUBSTANCE_SYNONYM>
SCHEMBL16119895

> <PUBCHEM_XREF_EXT_ID>
SCHEMBL16119895

> <PUBCHEM_EXT_DATASOURCE_URL>
https://www.surechembl.org/

> <PUBCHEM_EXT_SUBSTANCE_URL>
https://www.surechembl.org/chemical/SCHEMBL16119895

> <PUBCHEM_CID_ASSOCIATIONS>
117608601  1

> <PUBCHEM_COORDINATE_TYPE>
1
3

> <PUBCHEM_BONDANNOTATIONS>
16  15  5
19  22  6

$$$$
