310937069
  -OEChem-07211613022D

 24 26  0     0  0  0  0  0  0999 V2000
    1.1737   -5.2996    0.0000 F   0  0  0  0  0  0  0  0  0  0  0  0
    4.1259   -4.8017    0.0000 O   0  0  0  0  0  0  0  0  0  0  0  0
    0.0000    0.0000    0.0000 O   0  0  0  0  0  0  0  0  0  0  0  0
    1.5294   -2.0273    0.0000 N   0  0  0  0  0  0  0  0  0  0  0  0
    3.5212   -3.4856    0.0000 N   0  0  0  0  0  0  0  0  0  0  0  0
    0.8892   -1.4938    0.0000 N   0  0  0  0  0  0  0  0  0  0  0  0
    2.0629   -0.8181    0.0000 N   0  0  0  0  0  0  0  0  0  0  0  0
    2.7032   -4.6594    0.0000 C   0  0  0  0  0  0  0  0  0  0  0  0
    2.5964   -5.4774    0.0000 C   0  0  0  0  0  0  0  0  0  0  0  0
    3.4856   -4.3393    0.0000 C   0  0  0  0  0  0  0  0  0  0  0  0
    2.0985   -3.3434    0.0000 C   0  0  0  0  0  0  0  0  0  0  0  0
    2.0273   -4.1614    0.0000 C   0  0  0  0  0  0  0  0  0  0  0  0
    1.8495   -5.7976    0.0000 C   0  0  0  0  0  0  0  0  0  0  0  0
    1.4227   -2.8454    0.0000 C   0  0  0  0  0  0  0  0  0  0  0  0
    2.8810   -3.0232    0.0000 C   0  0  0  0  0  0  0  0  0  0  0  0
    3.2722   -5.9754    0.0000 C   0  0  0  0  0  0  0  0  0  0  0  0
    1.2093   -0.7114    0.0000 C   0  0  0  0  0  0  0  0  0  0  0  0
    2.2408   -1.6361    0.0000 C   0  0  0  0  0  0  0  0  0  0  0  0
    1.7428   -6.6156    0.0000 C   0  0  0  0  0  0  0  0  0  0  0  0
    3.1655   -6.7935    0.0000 C   0  0  0  0  0  0  0  0  0  0  0  0
    2.4186   -7.1136    0.0000 C   0  0  0  0  0  0  0  0  0  0  0  0
    0.8181    0.0000    0.0000 C   0  0  0  0  0  0  0  0  0  0  0  0
    4.8728   -4.4815    0.0000 C   0  0  0  0  0  0  0  0  0  0  0  0
    4.9795   -3.6635    0.0000 C   0  0  0  0  0  0  0  0  0  0  0  0
  1 13  1  0  0  0  0
  2 10  1  0  0  0  0
  2 23  1  0  0  0  0
  3 22  1  0  0  0  0
  4  6  1  0  0  0  0
  4 14  1  0  0  0  0
  4 18  1  0  0  0  0
  5 10  2  0  0  0  0
  5 15  1  0  0  0  0
  6 17  2  0  0  0  0
  7 17  1  0  0  0  0
  7 18  2  0  0  0  0
  8  9  1  0  0  0  0
  8 10  1  0  0  0  0
  8 12  2  0  0  0  0
  9 13  1  0  0  0  0
  9 16  2  0  0  0  0
 11 12  1  0  0  0  0
 11 14  1  0  0  0  0
 11 15  2  0  0  0  0
 13 19  2  0  0  0  0
 16 20  1  0  0  0  0
 17 22  1  0  0  0  0
 19 21  1  0  0  0  0
 20 21  2  0  0  0  0
 23 24  1  0  0  0  0
M  END
> <PUBCHEM_COMPOUND_ID_TYPE>
0

> <PUBCHEM_TOTAL_CHARGE>
0

> <PUBCHEM_SUBSTANCE_ID>
310937069

> <PUBCHEM_SUBSTANCE_VERSION>
1

> <PUBCHEM_EXT_DATASOURCE_NAME>
4488

> <PUBCHEM_EXT_DATASOURCE_REGID>
SCHEMBL16114781

> <PUBCHEM_SUBSTANCE_COMMENT>
InChI=1S/C17H17FN4O2/c1-2-24-17-14(13-5-3-4-6-15(13)18)7-12(8-19-17)9-22-11-20-16(10-23)21-22/h3-8,11,23H,2,9-10H2,1H3
InChIKey=KPHWMPVCOCFKPP-UHFFFAOYSA-N

> <PUBCHEM_SUBSTANCE_SYNONYM>
SCHEMBL16114781

> <PUBCHEM_XREF_EXT_ID>
SCHEMBL16114781

> <PUBCHEM_EXT_DATASOURCE_URL>
https://www.surechembl.org/

> <PUBCHEM_EXT_SUBSTANCE_URL>
https://www.surechembl.org/chemical/SCHEMBL16114781

> <PUBCHEM_CID_ASSOCIATIONS>
117604911  1

> <PUBCHEM_COORDINATE_TYPE>
1
3

$$$$
