310938760
  -OEChem-07211613022D

 33 35  0     0  0  0  0  0  0999 V2000
   -6.0870  -11.4780    0.0000 F   0  0  0  0  0  0  0  0  0  0  0  0
   -5.3726  -10.2406    0.0000 F   0  0  0  0  0  0  0  0  0  0  0  0
   -6.0870  -10.6531    0.0000 F   0  0  0  0  0  0  0  0  0  0  0  0
    3.2010  -12.7156    0.0000 O   0  0  0  0  0  0  0  0  0  0  0  0
    1.7721  -10.2406    0.0000 O   0  0  0  0  0  0  0  0  0  0  0  0
   -1.8002  -11.4780    0.0000 O   0  0  0  0  0  0  0  0  0  0  0  0
   -3.2291  -11.4780    0.0000 N   0  0  0  0  0  0  0  0  0  0  0  0
    4.6300  -12.7156    0.0000 N   0  0  0  0  0  0  0  0  0  0  0  0
   -2.5147  -12.7156    0.0000 N   0  0  0  0  0  0  0  0  0  0  0  0
    2.4866  -11.4780    0.0000 N   0  0  0  0  0  0  0  0  0  0  0  0
   -1.0857  -12.7156    0.0000 N   0  0  0  0  0  0  0  0  0  0  0  0
   -4.6581  -11.4780    0.0000 C   0  0  0  0  0  0  0  0  0  0  0  0
    3.9155  -11.4780    0.0000 C   0  0  0  0  0  0  0  0  0  0  0  0
   -5.3726  -11.0655    0.0000 C   0  0  0  0  0  0  0  0  0  0  0  0
    3.9155  -12.3030    0.0000 C   0  0  0  0  0  0  0  0  0  0  0  0
    4.6300  -11.0655    0.0000 C   0  0  0  0  0  0  0  0  0  0  0  0
   -3.2291  -12.3030    0.0000 C   0  0  0  0  0  0  0  0  0  0  0  0
    1.0576  -11.4780    0.0000 C   0  0  0  0  0  0  0  0  0  0  0  0
   -3.9436  -11.0655    0.0000 C   0  0  0  0  0  0  0  0  0  0  0  0
   -4.6581  -12.3030    0.0000 C   0  0  0  0  0  0  0  0  0  0  0  0
    1.7721  -11.0655    0.0000 C   0  0  0  0  0  0  0  0  0  0  0  0
    3.2010  -11.0655    0.0000 C   0  0  0  0  0  0  0  0  0  0  0  0
   -0.3713  -12.3030    0.0000 C   0  0  0  0  0  0  0  0  0  0  0  0
   -3.9436  -12.7156    0.0000 C   0  0  0  0  0  0  0  0  0  0  0  0
    5.3443  -12.3030    0.0000 C   0  0  0  0  0  0  0  0  0  0  0  0
    5.3443  -11.4780    0.0000 C   0  0  0  0  0  0  0  0  0  0  0  0
   -1.8002  -12.3030    0.0000 C   0  0  0  0  0  0  0  0  0  0  0  0
    0.3432  -11.0655    0.0000 C   0  0  0  0  0  0  0  0  0  0  0  0
    1.0576  -12.3030    0.0000 C   0  0  0  0  0  0  0  0  0  0  0  0
   -0.3713  -11.4780    0.0000 C   0  0  0  0  0  0  0  0  0  0  0  0
    0.3432  -12.7156    0.0000 C   0  0  0  0  0  0  0  0  0  0  0  0
    4.6300  -10.2406    0.0000 C   0  0  0  0  0  0  0  0  0  0  0  0
    6.0589  -12.7156    0.0000 C   0  0  0  0  0  0  0  0  0  0  0  0
  1 14  1  0  0  0  0
  2 14  1  0  0  0  0
  3 14  1  0  0  0  0
  4 15  2  0  0  0  0
  5 21  2  0  0  0  0
  6 27  2  0  0  0  0
  7 17  2  0  0  0  0
  7 19  1  0  0  0  0
  8 15  1  0  0  0  0
  8 25  1  0  0  0  0
  9 17  1  0  0  0  0
  9 27  1  0  0  0  0
 10 21  1  0  0  0  0
 10 22  1  0  0  0  0
 11 23  1  0  0  0  0
 11 27  1  0  0  0  0
 12 14  1  0  0  0  0
 12 19  2  0  0  0  0
 12 20  1  0  0  0  0
 13 15  1  0  0  0  0
 13 16  2  0  0  0  0
 13 22  1  0  0  0  0
 16 26  1  0  0  0  0
 16 32  1  0  0  0  0
 17 24  1  0  0  0  0
 18 21  1  0  0  0  0
 18 28  2  0  0  0  0
 18 29  1  0  0  0  0
 20 24  2  0  0  0  0
 23 30  2  0  0  0  0
 23 31  1  0  0  0  0
 25 26  2  0  0  0  0
 25 33  1  0  0  0  0
 28 30  1  0  0  0  0
 29 31  2  0  0  0  0
M  END
> <PUBCHEM_COMPOUND_ID_TYPE>
0

> <PUBCHEM_TOTAL_CHARGE>
0

> <PUBCHEM_SUBSTANCE_ID>
310938760

> <PUBCHEM_SUBSTANCE_VERSION>
1

> <PUBCHEM_EXT_DATASOURCE_NAME>
4488

> <PUBCHEM_EXT_DATASOURCE_REGID>
SCHEMBL16116676

> <PUBCHEM_SUBSTANCE_COMMENT>
InChI=1S/C22H20F3N5O3/c1-12-9-13(2)28-20(32)17(12)11-27-19(31)14-3-6-16(7-4-14)29-21(33)30-18-8-5-15(10-26-18)22(23,24)25/h3-10H,11H2,1-2H3,(H,27,31)(H,28,32)(H2,26,29,30,33)
InChIKey=VNQYTEIEKYCYAI-UHFFFAOYSA-N

> <PUBCHEM_SUBSTANCE_SYNONYM>
SCHEMBL16116676

> <PUBCHEM_XREF_EXT_ID>
SCHEMBL16116676

> <PUBCHEM_EXT_DATASOURCE_URL>
https://www.surechembl.org/

> <PUBCHEM_EXT_SUBSTANCE_URL>
https://www.surechembl.org/chemical/SCHEMBL16116676

> <PUBCHEM_CID_ASSOCIATIONS>
117606173  1

> <PUBCHEM_COORDINATE_TYPE>
1
3

$$$$
