310942735
  -OEChem-07211613022D

 45 49  0     1  0  0  0  0  0999 V2000
   -4.4654    0.5100    0.0000 F   0  0  0  0  0  0  0  0  0  0  0  0
   -4.4654   -2.9359    0.0000 F   0  0  0  0  0  0  0  0  0  0  0  0
    1.5084   -2.7849    0.0000 O   0  0  0  0  0  0  0  0  0  0  0  0
    1.0072   -3.6093    0.0000 O   0  0  0  0  0  0  0  0  0  0  0  0
    2.1410    2.1208    0.0000 O   0  0  0  0  0  0  0  0  0  0  0  0
    1.1011    2.8753    0.0000 O   0  0  0  0  0  0  0  0  0  0  0  0
   -2.0798    0.5916    0.0000 N   0  0  0  0  0  0  0  0  0  0  0  0
   -2.3653   -0.7745    0.0000 N   0  0  0  0  0  0  0  0  0  0  0  0
   -0.5302   -0.9581    0.0000 N   0  0  0  0  0  0  0  0  0  0  0  0
    0.7952    1.6315    0.0000 N   0  0  0  0  0  0  0  0  0  0  0  0
   -1.7535   -0.1832    0.0000 C   0  0  0  0  0  0  0  0  0  0  0  0
   -3.0789   -0.3463    0.0000 C   0  0  0  0  0  0  0  0  0  0  0  0
   -0.9379   -0.2036    0.0000 C   0  0  3  0  0  0  0  0  0  0  0  0
   -3.7721   -0.7745    0.0000 C   0  0  0  0  0  0  0  0  0  0  0  0
   -2.8750    0.4897    0.0000 C   0  0  0  0  0  0  0  0  0  0  0  0
   -0.3670    0.4489    0.0000 C   0  0  0  0  0  0  0  0  0  0  0  0
   -1.6720    1.5703    0.0000 C   0  0  0  0  0  0  0  0  0  0  0  0
   -4.4654   -0.3463    0.0000 C   0  0  0  0  0  0  0  0  0  0  0  0
   -3.7925   -1.6513    0.0000 C   0  0  0  0  0  0  0  0  0  0  0  0
   -0.5709    1.2441    0.0000 C   0  0  0  0  0  0  0  0  0  0  0  0
    0.4282    0.1838    0.0000 C   0  0  0  0  0  0  0  0  0  0  0  0
   -2.2633    2.1820    0.0000 C   0  0  0  0  0  0  0  0  0  0  0  0
    1.0072   -3.0746    0.0000 C   0  0  0  0  0  0  0  0  0  0  0  0
   -4.4654   -2.0591    0.0000 C   0  0  0  0  0  0  0  0  0  0  0  0
   -5.1586   -0.7745    0.0000 C   0  0  0  0  0  0  0  0  0  0  0  0
    0.0204    1.8558    0.0000 C   0  0  0  0  0  0  0  0  0  0  0  0
    0.9991    0.8159    0.0000 C   0  0  0  0  0  0  0  0  0  0  0  0
   -5.1586   -1.6513    0.0000 C   0  0  0  0  0  0  0  0  0  0  0  0
    1.3661    2.2432    0.0000 C   0  0  0  0  0  0  0  0  0  0  0  0
   -2.0390    2.9976    0.0000 C   0  0  0  0  0  0  0  0  0  0  0  0
   -3.0177    1.9577    0.0000 C   0  0  0  0  0  0  0  0  0  0  0  0
    1.5196   -2.2280    0.0000 C   0  0  0  0  0  0  0  0  0  0  0  0
   -2.6099    3.6093    0.0000 C   0  0  0  0  0  0  0  0  0  0  0  0
   -3.5886    2.5490    0.0000 C   0  0  0  0  0  0  0  0  0  0  0  0
   -3.3643    3.3850    0.0000 C   0  0  0  0  0  0  0  0  0  0  0  0
    2.6914    2.7937    0.0000 C   0  0  0  0  0  0  0  0  0  0  0  0
    2.0209   -2.2057    0.0000 C   0  0  0  0  0  0  0  0  0  0  0  0
    1.0072   -2.2280    0.0000 C   0  0  0  0  0  0  0  0  0  0  0  0
    1.5084   -1.6821    0.0000 C   0  0  0  0  0  0  0  0  0  0  0  0
    3.5071    2.6510    0.0000 C   0  0  0  0  0  0  0  0  0  0  0  0
    3.8333    1.8965    0.0000 C   0  0  0  0  0  0  0  0  0  0  0  0
    4.0168    3.3239    0.0000 C   0  0  0  0  0  0  0  0  0  0  0  0
    4.6693    1.7946    0.0000 C   0  0  0  0  0  0  0  0  0  0  0  0
    4.8324    3.2219    0.0000 C   0  0  0  0  0  0  0  0  0  0  0  0
    5.1586    2.4471    0.0000 C   0  0  0  0  0  0  0  0  0  0  0  0
  1 18  1  0  0  0  0
  2 24  1  0  0  0  0
  3 23  1  0  0  0  0
  3 32  1  0  0  0  0
  4 23  2  0  0  0  0
  5 29  1  0  0  0  0
  5 36  1  0  0  0  0
  6 29  2  0  0  0  0
  7 11  1  0  0  0  0
  7 15  1  0  0  0  0
  7 17  1  0  0  0  0
  8 11  2  0  0  0  0
  8 12  1  0  0  0  0
 13  9  1  1  0  0  0
  9 23  1  0  0  0  0
 10 26  1  0  0  0  0
 10 27  1  0  0  0  0
 10 29  1  0  0  0  0
 11 13  1  0  0  0  0
 12 14  1  0  0  0  0
 12 15  2  0  0  0  0
 13 16  1  0  0  0  0
 14 18  2  0  0  0  0
 14 19  1  0  0  0  0
 16 20  1  0  0  0  0
 16 21  1  0  0  0  0
 17 22  1  0  0  0  0
 18 25  1  0  0  0  0
 19 24  2  0  0  0  0
 20 26  1  0  0  0  0
 21 27  1  0  0  0  0
 22 30  2  0  0  0  0
 22 31  1  0  0  0  0
 24 28  1  0  0  0  0
 25 28  2  0  0  0  0
 30 33  1  0  0  0  0
 31 34  2  0  0  0  0
 32 37  1  0  0  0  0
 32 38  1  0  0  0  0
 32 39  1  0  0  0  0
 33 35  2  0  0  0  0
 34 35  1  0  0  0  0
 36 40  1  0  0  0  0
 40 41  2  0  0  0  0
 40 42  1  0  0  0  0
 41 43  1  0  0  0  0
 42 44  2  0  0  0  0
 43 45  2  0  0  0  0
 44 45  1  0  0  0  0
M  END
> <PUBCHEM_COMPOUND_ID_TYPE>
0

> <PUBCHEM_TOTAL_CHARGE>
0

> <PUBCHEM_SUBSTANCE_ID>
310942735

> <PUBCHEM_SUBSTANCE_VERSION>
1

> <PUBCHEM_EXT_DATASOURCE_NAME>
4488

> <PUBCHEM_EXT_DATASOURCE_REGID>
SCHEMBL16120787

> <PUBCHEM_SUBSTANCE_COMMENT>
InChI=1S/C35H38F2N4O4/c1-35(2,3)45-33(42)39-31(26-16-18-40(19-17-26)34(43)44-23-25-12-8-5-9-13-25)32-38-30(28-20-27(36)14-15-29(28)37)22-41(32)21-24-10-6-4-7-11-24/h4-15,20,22,26,31H,16-19,21,23H2,1-3H3,(H,39,42)/t31-/m1/s1
InChIKey=UUVTYDLMPIDQCX-WJOKGBTCSA-N

> <PUBCHEM_SUBSTANCE_SYNONYM>
SCHEMBL16120787

> <PUBCHEM_XREF_EXT_ID>
SCHEMBL16120787

> <PUBCHEM_EXT_DATASOURCE_URL>
https://www.surechembl.org/

> <PUBCHEM_EXT_SUBSTANCE_URL>
https://www.surechembl.org/chemical/SCHEMBL16120787

> <PUBCHEM_CID_ASSOCIATIONS>
117609255  1

> <PUBCHEM_COORDINATE_TYPE>
1
3

> <PUBCHEM_BONDANNOTATIONS>
13  9  5

$$$$
