310930669
  -OEChem-07211613022D

 29 32  0     0  0  0  0  0  0999 V2000
    2.8650   -2.4759    0.0000 S   0  0  0  0  0  0  0  0  0  0  0  0
    3.3248   -3.2541    0.0000 O   0  0  0  0  0  0  0  0  0  0  0  0
    2.4759   -1.7685    0.0000 O   0  0  0  0  0  0  0  0  0  0  0  0
    7.1802    0.0000    0.0000 O   0  0  0  0  0  0  0  0  0  0  0  0
    9.3378   -1.2380    0.0000 N   0  0  0  0  0  0  0  0  0  0  0  0
    8.5950   -2.4759    0.0000 N   0  0  0  0  0  0  0  0  0  0  0  0
   10.1159   -2.3344    0.0000 N   0  0  0  0  0  0  0  0  0  0  0  0
    6.4728   -1.2380    0.0000 N   0  0  0  0  0  0  0  0  0  0  0  0
    1.4148   -4.1030    0.0000 N   0  0  0  0  0  0  0  0  0  0  0  0
    3.5724   -2.0515    0.0000 C   0  0  0  0  0  0  0  0  0  0  0  0
    2.1576   -2.8650    0.0000 C   0  0  0  0  0  0  0  0  0  0  0  0
    9.3378   -2.0868    0.0000 C   0  0  0  0  0  0  0  0  0  0  0  0
    7.8876   -1.2380    0.0000 C   0  0  0  0  0  0  0  0  0  0  0  0
    4.3152   -2.4759    0.0000 C   0  0  0  0  0  0  0  0  0  0  0  0
    3.6078   -1.2380    0.0000 C   0  0  0  0  0  0  0  0  0  0  0  0
    1.4148   -2.4759    0.0000 C   0  0  0  0  0  0  0  0  0  0  0  0
    8.5950   -0.8135    0.0000 C   0  0  0  0  0  0  0  0  0  0  0  0
    2.1222   -3.7139    0.0000 C   0  0  0  0  0  0  0  0  0  0  0  0
    5.0226   -1.2380    0.0000 C   0  0  0  0  0  0  0  0  0  0  0  0
    7.1802   -0.8135    0.0000 C   0  0  0  0  0  0  0  0  0  0  0  0
    7.8876   -2.0868    0.0000 C   0  0  0  0  0  0  0  0  0  0  0  0
    5.0226   -2.0515    0.0000 C   0  0  0  0  0  0  0  0  0  0  0  0
    4.3152   -0.8135    0.0000 C   0  0  0  0  0  0  0  0  0  0  0  0
   10.1159   -0.9904    0.0000 C   0  0  0  0  0  0  0  0  0  0  0  0
    0.7074   -2.8650    0.0000 C   0  0  0  0  0  0  0  0  0  0  0  0
   10.6111   -1.6624    0.0000 C   0  0  0  0  0  0  0  0  0  0  0  0
    5.7654   -0.8135    0.0000 C   0  0  0  0  0  0  0  0  0  0  0  0
    0.6720   -3.7139    0.0000 C   0  0  0  0  0  0  0  0  0  0  0  0
    0.0000   -2.4406    0.0000 C   0  0  0  0  0  0  0  0  0  0  0  0
  1  2  2  0  0  0  0
  1  3  2  0  0  0  0
  1 10  1  0  0  0  0
  1 11  1  0  0  0  0
  4 20  2  0  0  0  0
  5 12  1  0  0  0  0
  5 17  1  0  0  0  0
  5 24  1  0  0  0  0
  6 12  1  0  0  0  0
  6 21  2  0  0  0  0
  7 12  2  0  0  0  0
  7 26  1  0  0  0  0
  8 20  1  0  0  0  0
  8 27  1  0  0  0  0
  9 18  1  0  0  0  0
  9 28  2  0  0  0  0
 10 14  2  0  0  0  0
 10 15  1  0  0  0  0
 11 16  1  0  0  0  0
 11 18  2  0  0  0  0
 13 17  2  0  0  0  0
 13 20  1  0  0  0  0
 13 21  1  0  0  0  0
 14 22  1  0  0  0  0
 15 23  2  0  0  0  0
 16 25  2  0  0  0  0
 19 22  2  0  0  0  0
 19 23  1  0  0  0  0
 19 27  1  0  0  0  0
 24 26  2  0  0  0  0
 25 28  1  0  0  0  0
 25 29  1  0  0  0  0
M  END
> <PUBCHEM_COMPOUND_ID_TYPE>
0

> <PUBCHEM_TOTAL_CHARGE>
0

> <PUBCHEM_SUBSTANCE_ID>
310930669

> <PUBCHEM_SUBSTANCE_VERSION>
1

> <PUBCHEM_EXT_DATASOURCE_NAME>
4488

> <PUBCHEM_EXT_DATASOURCE_REGID>
SCHEMBL16107966

> <PUBCHEM_SUBSTANCE_COMMENT>
InChI=1S/C20H17N5O3S/c1-14-8-18(12-21-9-14)29(27,28)17-4-2-15(3-5-17)10-23-19(26)16-11-24-20-22-6-7-25(20)13-16/h2-9,11-13H,10H2,1H3,(H,23,26)
InChIKey=WJCQYBPGEVHCRG-UHFFFAOYSA-N

> <PUBCHEM_SUBSTANCE_SYNONYM>
SCHEMBL16107966

> <PUBCHEM_XREF_EXT_ID>
SCHEMBL16107966

> <PUBCHEM_EXT_DATASOURCE_URL>
https://www.surechembl.org/

> <PUBCHEM_EXT_SUBSTANCE_URL>
https://www.surechembl.org/chemical/SCHEMBL16107966

> <PUBCHEM_CID_ASSOCIATIONS>
117599721  1

> <PUBCHEM_COORDINATE_TYPE>
1
3

$$$$
