310940213
  -OEChem-07211613022D

 35 39  0     0  0  0  0  0  0999 V2000
   -1.2332   -4.1334    0.0000 Cl  0  0  0  0  0  0  0  0  0  0  0  0
   -0.1276   -2.8917    0.0000 F   0  0  0  0  0  0  0  0  0  0  0  0
   -3.3254    0.4592    0.0000 O   0  0  0  0  0  0  0  0  0  0  0  0
   -0.5357    0.3231    0.0000 N   0  0  0  0  0  0  0  0  0  0  0  0
   -0.8760   -0.4422    0.0000 N   0  0  0  0  0  0  0  0  0  0  0  0
   -2.2708   -0.9696    0.0000 N   0  0  0  0  0  0  0  0  0  0  0  0
   -2.6110    1.7180    0.0000 N   0  0  0  0  0  0  0  0  0  0  0  0
    0.9270    2.9087    0.0000 N   0  0  0  0  0  0  0  0  0  0  0  0
    2.4409    0.2041    0.0000 N   0  0  0  0  0  0  0  0  0  0  0  0
    0.2466    0.5102    0.0000 C   0  0  0  0  0  0  0  0  0  0  0  0
   -1.1652    0.8846    0.0000 C   0  0  0  0  0  0  0  0  0  0  0  0
   -1.8796    0.4762    0.0000 C   0  0  0  0  0  0  0  0  0  0  0  0
   -1.7095   -0.3231    0.0000 C   0  0  0  0  0  0  0  0  0  0  0  0
   -2.5940    0.9186    0.0000 C   0  0  0  0  0  0  0  0  0  0  0  0
   -0.2976    1.0886    0.0000 C   0  0  0  0  0  0  0  0  0  0  0  0
    1.0801    0.7314    0.0000 C   0  0  0  0  0  0  0  0  0  0  0  0
   -1.1482    1.7180    0.0000 C   0  0  0  0  0  0  0  0  0  0  0  0
    0.8250   -0.1361    0.0000 C   0  0  0  0  0  0  0  0  0  0  0  0
   -1.8965    2.1262    0.0000 C   0  0  0  0  0  0  0  0  0  0  0  0
   -0.0765    1.8881    0.0000 C   0  0  0  0  0  0  0  0  0  0  0  0
    1.2843    1.5308    0.0000 C   0  0  0  0  0  0  0  0  0  0  0  0
    0.7059    2.0922    0.0000 C   0  0  0  0  0  0  0  0  0  0  0  0
   -2.0156   -1.7350    0.0000 C   0  0  0  0  0  0  0  0  0  0  0  0
    1.6415    0.0510    0.0000 C   0  0  0  0  0  0  0  0  0  0  0  0
   -1.1992   -1.9391    0.0000 C   0  0  0  0  0  0  0  0  0  0  0  0
   -2.5430   -2.3644    0.0000 C   0  0  0  0  0  0  0  0  0  0  0  0
   -0.9441   -2.7216    0.0000 C   0  0  0  0  0  0  0  0  0  0  0  0
   -1.5053   -3.3339    0.0000 C   0  0  0  0  0  0  0  0  0  0  0  0
   -2.3048   -3.1468    0.0000 C   0  0  0  0  0  0  0  0  0  0  0  0
    1.7095    3.1468    0.0000 C   0  0  0  0  0  0  0  0  0  0  0  0
    2.3389    2.5515    0.0000 C   0  0  0  0  0  0  0  0  0  0  0  0
    1.9646    3.9293    0.0000 C   0  0  0  0  0  0  0  0  0  0  0  0
    2.7641    4.1334    0.0000 C   0  0  0  0  0  0  0  0  0  0  0  0
    3.1213    2.7727    0.0000 C   0  0  0  0  0  0  0  0  0  0  0  0
    3.3254    3.5720    0.0000 C   0  0  0  0  0  0  0  0  0  0  0  0
  1 28  1  0  0  0  0
  2 27  1  0  0  0  0
  3 14  2  0  0  0  0
  4  5  1  0  0  0  0
  4 10  1  0  0  0  0
  4 11  1  0  0  0  0
  5 13  2  0  0  0  0
  6 13  1  0  0  0  0
  6 23  1  0  0  0  0
  7 14  1  0  0  0  0
  7 19  1  0  0  0  0
 22  8  1  1  0  0  0
  8 30  1  0  0  0  0
  9 24  3  0  0  0  0
 10 15  1  0  0  0  0
 10 16  1  0  0  0  0
 10 18  1  6  0  0  0
 11 12  2  0  0  0  0
 11 17  1  0  0  0  0
 12 13  1  0  0  0  0
 12 14  1  0  0  0  0
 15 20  1  0  0  0  0
 16 21  1  0  0  0  0
 17 19  2  0  0  0  0
 18 24  1  0  0  0  0
 20 22  1  0  0  0  0
 21 22  1  0  0  0  0
 23 25  1  0  0  0  0
 23 26  2  0  0  0  0
 25 27  2  0  0  0  0
 26 29  1  0  0  0  0
 27 28  1  0  0  0  0
 28 29  2  0  0  0  0
 30 31  1  0  0  0  0
 30 32  1  0  0  0  0
 31 34  1  0  0  0  0
 32 33  1  0  0  0  0
 33 35  1  0  0  0  0
 34 35  1  0  0  0  0
M  END
> <PUBCHEM_COMPOUND_ID_TYPE>
0

> <PUBCHEM_TOTAL_CHARGE>
0

> <PUBCHEM_SUBSTANCE_ID>
310940213

> <PUBCHEM_SUBSTANCE_VERSION>
1

> <PUBCHEM_EXT_DATASOURCE_NAME>
4488

> <PUBCHEM_EXT_DATASOURCE_REGID>
SCHEMBL16118147

> <PUBCHEM_SUBSTANCE_COMMENT>
InChI=1S/C26H30ClFN6O/c27-20-7-6-19(16-21(20)28)32-24-23-22(10-15-30-25(23)35)34(33-24)26(13-14-29)11-8-18(9-12-26)31-17-4-2-1-3-5-17/h6-7,10,15-18,31H,1-5,8-9,11-13H2,(H,30,35)(H,32,33)/t18-,26+
InChIKey=AZXMOJFOZVXJNF-SKUGRUHMSA-N

> <PUBCHEM_SUBSTANCE_SYNONYM>
SCHEMBL16118147

> <PUBCHEM_XREF_EXT_ID>
SCHEMBL16118147

> <PUBCHEM_EXT_DATASOURCE_URL>
https://www.surechembl.org/

> <PUBCHEM_EXT_SUBSTANCE_URL>
https://www.surechembl.org/chemical/SCHEMBL16118147

> <PUBCHEM_CID_ASSOCIATIONS>
86275049  1

> <PUBCHEM_COORDINATE_TYPE>
1
3

> <PUBCHEM_BONDANNOTATIONS>
10  18  6
22  8  5

$$$$
