310929232
  -OEChem-07211613022D

 39 42  0     0  0  0  0  0  0999 V2000
    9.1464   -0.7891    0.0000 Cl  0  0  0  0  0  0  0  0  0  0  0  0
    4.1249   -6.3845    0.0000 S   0  0  0  0  0  0  0  0  0  0  0  0
    6.6357   -2.1163    0.0000 O   0  0  0  0  0  0  0  0  0  0  0  0
    4.1249   -4.9498    0.0000 O   0  0  0  0  0  0  0  0  0  0  0  0
    2.0804   -2.7977    0.0000 O   0  0  0  0  0  0  0  0  0  0  0  0
    4.1249   -5.4520    0.0000 O   0  0  0  0  0  0  0  0  0  0  0  0
    4.1249   -7.1736    0.0000 O   0  0  0  0  0  0  0  0  0  0  0  0
    3.2999   -3.5151    0.0000 N   0  0  0  0  0  0  0  0  0  0  0  0
    3.2999   -2.0804    0.0000 N   0  0  0  0  0  0  0  0  0  0  0  0
    3.2999   -6.3845    0.0000 N   0  0  0  0  0  0  0  0  0  0  0  0
    7.8552   -1.4347    0.0000 N   0  0  0  0  0  0  0  0  0  0  0  0
    7.9269   -0.0359    0.0000 N   0  0  0  0  0  0  0  0  0  0  0  0
    3.2999   -4.9498    0.0000 C   0  0  0  0  0  0  0  0  0  0  0  0
    2.9054   -4.2324    0.0000 C   0  0  0  0  0  0  0  0  0  0  0  0
    2.9054   -5.6672    0.0000 C   0  0  0  0  0  0  0  0  0  0  0  0
    1.6499   -4.9498    0.0000 C   0  0  0  0  0  0  0  0  0  0  0  0
    4.5553   -2.7619    0.0000 C   0  0  0  0  0  0  0  0  0  0  0  0
    5.3802   -2.7977    0.0000 C   0  0  0  0  0  0  0  0  0  0  0  0
    4.1607   -2.0804    0.0000 C   0  0  0  0  0  0  0  0  0  0  0  0
    5.8107   -2.1163    0.0000 C   0  0  0  0  0  0  0  0  0  0  0  0
    2.0804   -4.2324    0.0000 C   0  0  0  0  0  0  0  0  0  0  0  0
    2.0445   -5.6313    0.0000 C   0  0  0  0  0  0  0  0  0  0  0  0
    0.8250   -4.9498    0.0000 C   0  0  0  0  0  0  0  0  0  0  0  0
    2.9054   -2.7977    0.0000 C   0  0  0  0  0  0  0  0  0  0  0  0
    4.5911   -1.3630    0.0000 C   0  0  0  0  0  0  0  0  0  0  0  0
    5.4161   -1.3989    0.0000 C   0  0  0  0  0  0  0  0  0  0  0  0
    4.1249   -3.4792    0.0000 C   0  0  0  0  0  0  0  0  0  0  0  0
    5.7748   -3.5151    0.0000 C   0  0  0  0  0  0  0  0  0  0  0  0
    7.0661   -1.4347    0.0000 C   0  0  0  0  0  0  0  0  0  0  0  0
    4.5194   -4.2324    0.0000 C   0  0  0  0  0  0  0  0  0  0  0  0
    5.3444   -4.2324    0.0000 C   0  0  0  0  0  0  0  0  0  0  0  0
    0.8250   -4.0890    0.0000 C   0  0  0  0  0  0  0  0  0  0  0  0
    0.0000   -4.9140    0.0000 C   0  0  0  0  0  0  0  0  0  0  0  0
    0.8250   -5.7389    0.0000 C   0  0  0  0  0  0  0  0  0  0  0  0
    6.6357   -0.6815    0.0000 C   0  0  0  0  0  0  0  0  0  0  0  0
    4.6988   -4.3759    0.0000 C   0  0  0  0  0  0  0  0  0  0  0  0
    4.9498   -6.3845    0.0000 C   0  0  0  0  0  0  0  0  0  0  0  0
    8.3214   -0.7533    0.0000 C   0  0  0  0  0  0  0  0  0  0  0  0
    7.1019    0.0000    0.0000 C   0  0  0  0  0  0  0  0  0  0  0  0
  1 38  1  0  0  0  0
  2  6  2  0  0  0  0
  2  7  2  0  0  0  0
  2 10  1  0  0  0  0
  2 37  1  0  0  0  0
  3 20  1  0  0  0  0
  3 29  1  0  0  0  0
  4 13  1  0  0  0  0
  4 36  1  0  0  0  0
  5 24  2  0  0  0  0
  8 14  1  0  0  0  0
  8 24  1  0  0  0  0
  9 19  1  0  0  0  0
  9 24  1  0  0  0  0
 10 15  1  0  0  0  0
 11 29  2  0  0  0  0
 11 38  1  0  0  0  0
 12 38  2  0  0  0  0
 12 39  1  0  0  0  0
 13 14  2  0  0  0  0
 13 15  1  0  0  0  0
 14 21  1  0  0  0  0
 15 22  2  0  0  0  0
 16 21  2  0  0  0  0
 16 22  1  0  0  0  0
 16 23  1  0  0  0  0
 17 18  2  0  0  0  0
 17 19  1  0  0  0  0
 17 27  1  0  0  0  0
 18 20  1  0  0  0  0
 18 28  1  0  0  0  0
 19 25  2  0  0  0  0
 20 26  2  0  0  0  0
 23 32  1  0  0  0  0
 23 33  1  0  0  0  0
 23 34  1  0  0  0  0
 25 26  1  0  0  0  0
 27 30  2  0  0  0  0
 28 31  2  0  0  0  0
 29 35  1  0  0  0  0
 30 31  1  0  0  0  0
 35 39  2  0  0  0  0
M  END
> <PUBCHEM_COMPOUND_ID_TYPE>
0

> <PUBCHEM_TOTAL_CHARGE>
0

> <PUBCHEM_SUBSTANCE_ID>
310929232

> <PUBCHEM_SUBSTANCE_VERSION>
1

> <PUBCHEM_EXT_DATASOURCE_NAME>
4488

> <PUBCHEM_EXT_DATASOURCE_REGID>
SCHEMBL16106395

> <PUBCHEM_SUBSTANCE_COMMENT>
InChI=1S/C27H28ClN5O5S/c1-27(2,3)16-14-20(24(37-4)21(15-16)33-39(5,35)36)31-26(34)30-19-10-11-22(18-9-7-6-8-17(18)19)38-23-12-13-29-25(28)32-23/h6-15,33H,1-5H3,(H2,30,31,34)
InChIKey=XLVOGAWHUOMBQZ-UHFFFAOYSA-N

> <PUBCHEM_SUBSTANCE_SYNONYM>
SCHEMBL16106395

> <PUBCHEM_XREF_EXT_ID>
SCHEMBL16106395

> <PUBCHEM_EXT_DATASOURCE_URL>
https://www.surechembl.org/

> <PUBCHEM_EXT_SUBSTANCE_URL>
https://www.surechembl.org/chemical/SCHEMBL16106395

> <PUBCHEM_CID_ASSOCIATIONS>
117598671  1

> <PUBCHEM_COORDINATE_TYPE>
1
3

$$$$
