310948052
  -OEChem-07211613022D

 50 56  0     0  0  0  0  0  0999 V2000
    3.6163   -2.3070    0.0000 S   0  0  0  0  0  0  0  0  0  0  0  0
   -3.9627    0.5612    0.0000 F   0  0  0  0  0  0  0  0  0  0  0  0
   -2.7989    0.7413    0.0000 F   0  0  0  0  0  0  0  0  0  0  0  0
    3.5609    3.0274    0.0000 F   0  0  0  0  0  0  0  0  0  0  0  0
    4.1151    2.0575    0.0000 F   0  0  0  0  0  0  0  0  0  0  0  0
    3.6163    0.5612    0.0000 F   0  0  0  0  0  0  0  0  0  0  0  0
   -1.1500    0.5750    0.0000 O   0  0  0  0  0  0  0  0  0  0  0  0
    2.5771    2.5563    0.0000 O   0  0  0  0  0  0  0  0  0  0  0  0
    3.2006    1.4063    0.0000 O   0  0  0  0  0  0  0  0  0  0  0  0
   -4.6139   -0.6166    0.0000 O   0  0  0  0  0  0  0  0  0  0  0  0
    2.9097   -2.7226    0.0000 O   0  0  0  0  0  0  0  0  0  0  0  0
    4.3506   -1.8913    0.0000 O   0  0  0  0  0  0  0  0  0  0  0  0
    4.8633   -0.1455    0.0000 O   0  0  0  0  0  0  0  0  0  0  0  0
   -1.8289   -1.5310    0.0000 N   0  0  0  0  0  0  0  0  0  0  0  0
   -2.6187   -1.2539    0.0000 N   0  0  0  0  0  0  0  0  0  0  0  0
   -0.7343    1.8359    0.0000 N   0  0  0  0  0  0  0  0  0  0  0  0
   -3.5332   -1.4063    0.0000 N   0  0  0  0  0  0  0  0  0  0  0  0
   -4.2121   -1.8774    0.0000 N   0  0  0  0  0  0  0  0  0  0  0  0
   -0.0693   -0.1178    0.0000 C   0  0  0  0  0  0  0  0  0  0  0  0
   -0.4850   -0.8659    0.0000 C   0  0  0  0  0  0  0  0  0  0  0  0
   -0.4711    0.5750    0.0000 C   0  0  0  0  0  0  0  0  0  0  0  0
   -1.3301   -0.8382    0.0000 C   0  0  0  0  0  0  0  0  0  0  0  0
   -0.0831    1.2678    0.0000 C   0  0  0  0  0  0  0  0  0  0  0  0
   -2.6048   -0.4226    0.0000 C   0  0  0  0  0  0  0  0  0  0  0  0
   -3.2837    0.0762    0.0000 C   0  0  0  0  0  0  0  0  0  0  0  0
    0.7620    1.2539    0.0000 C   0  0  0  0  0  0  0  0  0  0  0  0
    1.1362   -0.8382    0.0000 C   0  0  0  0  0  0  0  0  0  0  0  0
    0.7343   -0.1455    0.0000 C   0  0  0  0  0  0  0  0  0  0  0  0
   -1.8289   -0.1732    0.0000 C   0  0  0  0  0  0  0  0  0  0  0  0
   -0.0693   -1.5588    0.0000 C   0  0  0  0  0  0  0  0  0  0  0  0
    1.9813   -0.8382    0.0000 C   0  0  0  0  0  0  0  0  0  0  0  0
    1.9675    1.9605    0.0000 C   0  0  0  0  0  0  0  0  0  0  0  0
   -1.4548    1.3093    0.0000 C   0  0  0  0  0  0  0  0  0  0  0  0
    2.3832    1.2678    0.0000 C   0  0  0  0  0  0  0  0  0  0  0  0
    0.7343   -1.5588    0.0000 C   0  0  0  0  0  0  0  0  0  0  0  0
    1.1639    1.9605    0.0000 C   0  0  0  0  0  0  0  0  0  0  0  0
   -3.7826   -0.6166    0.0000 C   0  0  0  0  0  0  0  0  0  0  0  0
    3.3115    2.2516    0.0000 C   0  0  0  0  0  0  0  0  0  0  0  0
    3.2006   -1.5726    0.0000 C   0  0  0  0  0  0  0  0  0  0  0  0
    1.1500    0.5473    0.0000 C   0  0  0  0  0  0  0  0  0  0  0  0
    2.3970   -1.5588    0.0000 C   0  0  0  0  0  0  0  0  0  0  0  0
    3.6163   -0.8521    0.0000 C   0  0  0  0  0  0  0  0  0  0  0  0
    1.9813    0.5473    0.0000 C   0  0  0  0  0  0  0  0  0  0  0  0
    2.3970   -0.1593    0.0000 C   0  0  0  0  0  0  0  0  0  0  0  0
    3.2006   -0.1593    0.0000 C   0  0  0  0  0  0  0  0  0  0  0  0
   -1.5657   -2.3347    0.0000 C   0  0  0  0  0  0  0  0  0  0  0  0
   -2.1892    1.7112    0.0000 C   0  0  0  0  0  0  0  0  0  0  0  0
    4.4476   -0.8659    0.0000 C   0  0  0  0  0  0  0  0  0  0  0  0
   -4.8633   -1.3925    0.0000 C   0  0  0  0  0  0  0  0  0  0  0  0
    4.0459   -3.0274    0.0000 C   0  0  0  0  0  0  0  0  0  0  0  0
  1 11  2  0  0  0  0
  1 12  2  0  0  0  0
  1 39  1  0  0  0  0
  1 50  1  0  0  0  0
  2 25  1  0  0  0  0
  3 25  1  0  0  0  0
  4 38  1  0  0  0  0
  5 38  1  0  0  0  0
  6 45  1  0  0  0  0
  7 21  1  0  0  0  0
  7 33  1  0  0  0  0
  8 32  1  0  0  0  0
  8 38  1  0  0  0  0
  9 34  1  0  0  0  0
  9 38  1  0  0  0  0
 10 37  1  0  0  0  0
 10 49  1  0  0  0  0
 13 48  1  0  0  0  0
 14 15  1  0  0  0  0
 14 22  1  0  0  0  0
 14 46  1  0  0  0  0
 15 24  2  0  0  0  0
 16 23  1  0  0  0  0
 16 33  2  0  0  0  0
 17 18  1  0  0  0  0
 17 37  2  0  0  0  0
 18 49  2  0  0  0  0
 19 20  2  0  0  0  0
 19 21  1  0  0  0  0
 19 28  1  0  0  0  0
 20 22  1  0  0  0  0
 20 30  1  0  0  0  0
 21 23  2  0  0  0  0
 22 29  2  0  0  0  0
 23 26  1  0  0  0  0
 24 25  1  0  0  0  0
 24 29  1  0  0  0  0
 25 37  1  0  0  0  0
 26 36  2  0  0  0  0
 26 40  1  0  0  0  0
 27 28  2  0  0  0  0
 27 31  1  0  0  0  0
 27 35  1  0  0  0  0
 30 35  2  0  0  0  0
 31 41  2  0  0  0  0
 31 44  1  0  0  0  0
 32 34  2  0  0  0  0
 32 36  1  0  0  0  0
 33 47  1  0  0  0  0
 34 43  1  0  0  0  0
 39 41  1  0  0  0  0
 39 42  2  0  0  0  0
 40 43  2  0  0  0  0
 42 45  1  0  0  0  0
 42 48  1  0  0  0  0
 44 45  2  0  0  0  0
M  END
> <PUBCHEM_COMPOUND_ID_TYPE>
0

> <PUBCHEM_TOTAL_CHARGE>
0

> <PUBCHEM_SUBSTANCE_ID>
310948052

> <PUBCHEM_SUBSTANCE_VERSION>
1

> <PUBCHEM_EXT_DATASOURCE_NAME>
4488

> <PUBCHEM_EXT_DATASOURCE_REGID>
SCHEMBL16126227

> <PUBCHEM_SUBSTANCE_COMMENT>
InChI=1S/C32H22F5N5O7S/c1-15-39-28(17-5-7-24-25(10-17)49-32(36,37)48-24)29(47-15)20-8-16(18-9-22(33)21(13-43)26(11-18)50(3,44)45)4-6-19(20)23-12-27(41-42(23)2)31(34,35)30-40-38-14-46-30/h4-12,14,43H,13H2,1-3H3
InChIKey=UDFMWIMOJAHXRS-UHFFFAOYSA-N

> <PUBCHEM_SUBSTANCE_SYNONYM>
SCHEMBL16126227

> <PUBCHEM_XREF_EXT_ID>
SCHEMBL16126227

> <PUBCHEM_EXT_DATASOURCE_URL>
https://www.surechembl.org/

> <PUBCHEM_EXT_SUBSTANCE_URL>
https://www.surechembl.org/chemical/SCHEMBL16126227

> <PUBCHEM_CID_ASSOCIATIONS>
86275881  1

> <PUBCHEM_COORDINATE_TYPE>
1
3

$$$$
