310949944
  -OEChem-07211613022D

 26 30  0     0  0  0  0  0  0999 V2000
   -0.6050    1.4024    0.0000 N   0  0  0  0  0  0  0  0  0  0  0  0
   -0.6050    2.7360    0.0000 N   0  0  0  0  0  0  0  0  0  0  0  0
    1.8699    2.0623    0.0000 N   0  0  0  0  0  0  0  0  0  0  0  0
    0.1512   -0.9624    0.0000 N   0  0  0  0  0  0  0  0  0  0  0  0
   -0.1237    2.0761    0.0000 C   0  0  0  0  0  0  0  0  0  0  0  0
   -1.4024    1.6636    0.0000 C   0  0  0  0  0  0  0  0  0  0  0  0
   -1.3886    2.4885    0.0000 C   0  0  0  0  0  0  0  0  0  0  0  0
   -0.3575    0.6325    0.0000 C   0  0  0  0  0  0  0  0  0  0  0  0
    0.7012    2.0623    0.0000 C   0  0  0  0  0  0  0  0  0  0  0  0
   -2.1036    1.2512    0.0000 C   0  0  0  0  0  0  0  0  0  0  0  0
   -2.1173    2.8873    0.0000 C   0  0  0  0  0  0  0  0  0  0  0  0
    1.2924    1.4849    0.0000 C   0  0  0  0  0  0  0  0  0  0  0  0
    1.2649    2.6398    0.0000 C   0  0  0  0  0  0  0  0  0  0  0  0
   -0.9075   -0.0137    0.0000 C   0  0  0  0  0  0  0  0  0  0  0  0
    0.4537    0.4262    0.0000 C   0  0  0  0  0  0  0  0  0  0  0  0
   -2.8185    1.6636    0.0000 C   0  0  0  0  0  0  0  0  0  0  0  0
   -2.8185    2.4885    0.0000 C   0  0  0  0  0  0  0  0  0  0  0  0
   -0.6462   -0.7837    0.0000 C   0  0  0  0  0  0  0  0  0  0  0  0
    0.7012   -0.3437    0.0000 C   0  0  0  0  0  0  0  0  0  0  0  0
    0.4124   -1.7461    0.0000 C   0  0  0  0  0  0  0  0  0  0  0  0
    1.2099   -1.9249    0.0000 C   0  0  0  0  0  0  0  0  0  0  0  0
    1.4711   -2.7086    0.0000 C   0  0  0  0  0  0  0  0  0  0  0  0
    1.7736   -1.3199    0.0000 C   0  0  0  0  0  0  0  0  0  0  0  0
    2.5711   -1.4849    0.0000 C   0  0  0  0  0  0  0  0  0  0  0  0
    2.2686   -2.8873    0.0000 C   0  0  0  0  0  0  0  0  0  0  0  0
    2.8185   -2.2824    0.0000 C   0  0  0  0  0  0  0  0  0  0  0  0
  1  5  1  0  0  0  0
  1  6  1  0  0  0  0
  1  8  1  0  0  0  0
  2  5  2  0  0  0  0
  2  7  1  0  0  0  0
  3 12  1  0  0  0  0
  3 13  1  0  0  0  0
  4 18  1  0  0  0  0
  4 19  1  0  0  0  0
  4 20  1  0  0  0  0
  5  9  1  0  0  0  0
  6  7  1  0  0  0  0
  6 10  2  0  0  0  0
  7 11  2  0  0  0  0
  8 14  1  0  0  0  0
  8 15  1  0  0  0  0
  9 12  1  0  0  0  0
  9 13  1  0  0  0  0
 10 16  1  0  0  0  0
 11 17  1  0  0  0  0
 14 18  1  0  0  0  0
 15 19  1  0  0  0  0
 16 17  2  0  0  0  0
 20 21  1  0  0  0  0
 21 22  1  0  0  0  0
 21 23  1  0  0  0  0
 22 25  1  0  0  0  0
 23 24  1  0  0  0  0
 24 26  1  0  0  0  0
 25 26  1  0  0  0  0
M  END
> <PUBCHEM_COMPOUND_ID_TYPE>
0

> <PUBCHEM_TOTAL_CHARGE>
0

> <PUBCHEM_SUBSTANCE_ID>
310949944

> <PUBCHEM_SUBSTANCE_VERSION>
1

> <PUBCHEM_EXT_DATASOURCE_NAME>
4488

> <PUBCHEM_EXT_DATASOURCE_REGID>
SCHEMBL16128171

> <PUBCHEM_SUBSTANCE_COMMENT>
InChI=1S/C22H32N4/c1-2-6-17(7-3-1)16-25-12-10-19(11-13-25)26-21-9-5-4-8-20(21)24-22(26)18-14-23-15-18/h4-5,8-9,17-19,23H,1-3,6-7,10-16H2
InChIKey=UCQFGDIFRPJDMC-UHFFFAOYSA-N

> <PUBCHEM_SUBSTANCE_SYNONYM>
SCHEMBL16128171

> <PUBCHEM_XREF_EXT_ID>
SCHEMBL16128171

> <PUBCHEM_EXT_DATASOURCE_URL>
https://www.surechembl.org/

> <PUBCHEM_EXT_SUBSTANCE_URL>
https://www.surechembl.org/chemical/SCHEMBL16128171

> <PUBCHEM_CID_ASSOCIATIONS>
86274052  1

> <PUBCHEM_COORDINATE_TYPE>
1
3

$$$$
