310931277
  -OEChem-07211613022D

 23 25  0     0  0  0  0  0  0999 V2000
    0.7417    0.0000    0.0000 Cl  0  0  0  0  0  0  0  0  0  0  0  0
    4.2829   -1.2442    0.0000 O   0  0  0  0  0  0  0  0  0  0  0  0
    5.0007   -3.3019    0.0000 O   0  0  0  0  0  0  0  0  0  0  0  0
    0.0000   -2.0577    0.0000 N   0  0  0  0  0  0  0  0  0  0  0  0
    3.5651   -2.4884    0.0000 C   0  0  0  0  0  0  0  0  0  0  0  0
    2.1534   -2.4884    0.0000 C   0  0  0  0  0  0  0  0  0  0  0  0
    4.2829   -2.0816    0.0000 C   0  0  0  0  0  0  0  0  0  0  0  0
    1.4356   -2.0816    0.0000 C   0  0  0  0  0  0  0  0  0  0  0  0
    2.8473   -2.0816    0.0000 C   0  0  0  0  0  0  0  0  0  0  0  0
    5.0007   -2.4884    0.0000 C   0  0  0  0  0  0  0  0  0  0  0  0
    5.7185   -2.0816    0.0000 C   0  0  0  0  0  0  0  0  0  0  0  0
    3.5651   -3.3019    0.0000 C   0  0  0  0  0  0  0  0  0  0  0  0
    2.1534   -3.3019    0.0000 C   0  0  0  0  0  0  0  0  0  0  0  0
    1.4356   -1.2442    0.0000 C   0  0  0  0  0  0  0  0  0  0  0  0
    0.7178   -2.4645    0.0000 C   0  0  0  0  0  0  0  0  0  0  0  0
    2.8473   -3.7326    0.0000 C   0  0  0  0  0  0  0  0  0  0  0  0
    0.7178   -0.8375    0.0000 C   0  0  0  0  0  0  0  0  0  0  0  0
    5.7424   -1.2442    0.0000 C   0  0  0  0  0  0  0  0  0  0  0  0
    6.4363   -2.4645    0.0000 C   0  0  0  0  0  0  0  0  0  0  0  0
    0.0000   -1.2203    0.0000 C   0  0  0  0  0  0  0  0  0  0  0  0
    6.4363   -0.8375    0.0000 C   0  0  0  0  0  0  0  0  0  0  0  0
    7.1541   -2.0577    0.0000 C   0  0  0  0  0  0  0  0  0  0  0  0
    7.1780   -1.2442    0.0000 C   0  0  0  0  0  0  0  0  0  0  0  0
  1 17  1  0  0  0  0
  2  7  2  0  0  0  0
  3 10  2  0  0  0  0
  4 15  1  0  0  0  0
  4 20  2  0  0  0  0
  5  7  1  0  0  0  0
  5  9  1  0  0  0  0
  5 12  2  0  0  0  0
  6  8  1  0  0  0  0
  6  9  2  0  0  0  0
  6 13  1  0  0  0  0
  7 10  1  0  0  0  0
  8 14  1  0  0  0  0
  8 15  2  0  0  0  0
 10 11  1  0  0  0  0
 11 18  1  0  0  0  0
 11 19  1  0  0  0  0
 12 16  1  0  0  0  0
 13 16  2  0  0  0  0
 14 17  2  0  0  0  0
 17 20  1  0  0  0  0
 18 21  1  0  0  0  0
 19 22  1  0  0  0  0
 21 23  1  0  0  0  0
 22 23  1  0  0  0  0
M  END
> <PUBCHEM_COMPOUND_ID_TYPE>
0

> <PUBCHEM_TOTAL_CHARGE>
0

> <PUBCHEM_SUBSTANCE_ID>
310931277

> <PUBCHEM_SUBSTANCE_VERSION>
1

> <PUBCHEM_EXT_DATASOURCE_NAME>
4488

> <PUBCHEM_EXT_DATASOURCE_REGID>
SCHEMBL16108592

> <PUBCHEM_SUBSTANCE_COMMENT>
InChI=1S/C19H18ClNO2/c20-17-10-16(11-21-12-17)14-7-4-8-15(9-14)19(23)18(22)13-5-2-1-3-6-13/h4,7-13H,1-3,5-6H2
InChIKey=NHSPAZHYUNAZRE-UHFFFAOYSA-N

> <PUBCHEM_SUBSTANCE_SYNONYM>
SCHEMBL16108592

> <PUBCHEM_XREF_EXT_ID>
SCHEMBL16108592

> <PUBCHEM_EXT_DATASOURCE_URL>
https://www.surechembl.org/

> <PUBCHEM_EXT_SUBSTANCE_URL>
https://www.surechembl.org/chemical/SCHEMBL16108592

> <PUBCHEM_CID_ASSOCIATIONS>
117600103  1

> <PUBCHEM_COORDINATE_TYPE>
1
3

$$$$
