310941906
  -OEChem-07211613022D

 23 23  0     0  0  0  0  0  0999 V2000
    2.0426    1.4513    0.0000 O   0  0  0  0  0  0  0  0  0  0  0  0
    2.0426    2.8130    0.0000 O   0  0  0  0  0  0  0  0  0  0  0  0
    0.7884   -0.6988    0.0000 N   0  0  0  0  0  0  0  0  0  0  0  0
   -0.4301    1.4513    0.0000 C   0  0  0  0  0  0  0  0  0  0  0  0
    0.8242    0.7346    0.0000 C   0  0  0  0  0  0  0  0  0  0  0  0
    1.2184    1.4871    0.0000 C   0  0  0  0  0  0  0  0  0  0  0  0
    0.8242    2.1680    0.0000 C   0  0  0  0  0  0  0  0  0  0  0  0
   -1.2901    1.4871    0.0000 C   0  0  0  0  0  0  0  0  0  0  0  0
   -0.0358    0.7705    0.0000 C   0  0  0  0  0  0  0  0  0  0  0  0
    0.0000    2.1322    0.0000 C   0  0  0  0  0  0  0  0  0  0  0  0
    1.2542    0.0179    0.0000 C   0  0  0  0  0  0  0  0  0  0  0  0
    1.2184    2.8848    0.0000 C   0  0  0  0  0  0  0  0  0  0  0  0
   -1.6484    0.7346    0.0000 C   0  0  0  0  0  0  0  0  0  0  0  0
   -2.0784    1.4513    0.0000 C   0  0  0  0  0  0  0  0  0  0  0  0
   -1.6484    2.1680    0.0000 C   0  0  0  0  0  0  0  0  0  0  0  0
    0.0000   -0.6988    0.0000 C   0  0  0  0  0  0  0  0  0  0  0  0
    1.2542   -1.4513    0.0000 C   0  0  0  0  0  0  0  0  0  0  0  0
   -0.4301   -1.4155    0.0000 C   0  0  0  0  0  0  0  0  0  0  0  0
    0.8242   -2.1680    0.0000 C   0  0  0  0  0  0  0  0  0  0  0  0
   -1.2184   -1.4513    0.0000 C   0  0  0  0  0  0  0  0  0  0  0  0
    1.2542   -2.8489    0.0000 C   0  0  0  0  0  0  0  0  0  0  0  0
   -1.6484   -0.7346    0.0000 C   0  0  0  0  0  0  0  0  0  0  0  0
    2.0784   -2.8848    0.0000 C   0  0  0  0  0  0  0  0  0  0  0  0
  1  6  1  0  0  0  0
  2 12  2  0  0  0  0
  3 11  1  0  0  0  0
  3 16  1  0  0  0  0
  3 17  1  0  0  0  0
  4  8  1  0  0  0  0
  4  9  2  0  0  0  0
  4 10  1  0  0  0  0
  5  6  2  0  0  0  0
  5  9  1  0  0  0  0
  5 11  1  0  0  0  0
  6  7  1  0  0  0  0
  7 10  2  0  0  0  0
  7 12  1  0  0  0  0
  8 13  1  0  0  0  0
  8 14  1  0  0  0  0
  8 15  1  0  0  0  0
 16 18  1  0  0  0  0
 17 19  1  0  0  0  0
 18 20  1  0  0  0  0
 19 21  1  0  0  0  0
 20 22  1  0  0  0  0
 21 23  1  0  0  0  0
M  END
> <PUBCHEM_COMPOUND_ID_TYPE>
0

> <PUBCHEM_TOTAL_CHARGE>
0

> <PUBCHEM_SUBSTANCE_ID>
310941906

> <PUBCHEM_SUBSTANCE_VERSION>
1

> <PUBCHEM_EXT_DATASOURCE_NAME>
4488

> <PUBCHEM_EXT_DATASOURCE_REGID>
SCHEMBL16119938

> <PUBCHEM_SUBSTANCE_COMMENT>
InChI=1S/C20H33NO2/c1-6-8-10-21(11-9-7-2)14-16-12-18(20(3,4)5)13-17(15-22)19(16)23/h12-13,15,23H,6-11,14H2,1-5H3
InChIKey=RAFLOHXAFSHEQV-UHFFFAOYSA-N

> <PUBCHEM_SUBSTANCE_SYNONYM>
SCHEMBL16119938

> <PUBCHEM_XREF_EXT_ID>
SCHEMBL16119938

> <PUBCHEM_EXT_DATASOURCE_URL>
https://www.surechembl.org/

> <PUBCHEM_EXT_SUBSTANCE_URL>
https://www.surechembl.org/chemical/SCHEMBL16119938

> <PUBCHEM_CID_ASSOCIATIONS>
117608638  1

> <PUBCHEM_COORDINATE_TYPE>
1
3

$$$$
