310944860
  -OEChem-07211613022D

  8  7  0     0  0  0  0  0  0999 V2000
    0.7261    1.2566    0.0000 S   0  0  0  0  0  0  0  0  0  0  0  0
    1.0426   -1.2566    0.0000 O   0  0  0  0  0  0  0  0  0  0  0  0
   -0.2048    0.9588    0.0000 N   0  0  0  0  0  0  0  0  0  0  0  0
    1.3218    0.4933    0.0000 N   0  0  0  0  0  0  0  0  0  0  0  0
   -0.1861    0.0838    0.0000 C   0  0  0  0  0  0  0  0  0  0  0  0
    0.7447   -0.2513    0.0000 C   0  0  0  0  0  0  0  0  0  0  0  0
   -0.8191   -0.3630    0.0000 C   0  0  0  0  0  0  0  0  0  0  0  0
   -1.3218   -0.1397    0.0000 C   0  0  0  0  0  0  0  0  0  0  0  0
  1  3  1  0  0  0  0
  2  6  1  0  0  0  0
  3  5  2  0  0  0  0
  4  6  2  3  0  0  0
  5  6  1  0  0  0  0
  5  7  1  0  0  0  0
  7  8  1  0  0  0  0
M  END
> <PUBCHEM_COMPOUND_ID_TYPE>
0

> <PUBCHEM_TOTAL_CHARGE>
0

> <PUBCHEM_SUBSTANCE_ID>
310944860

> <PUBCHEM_SUBSTANCE_VERSION>
1

> <PUBCHEM_EXT_DATASOURCE_NAME>
4488

> <PUBCHEM_EXT_DATASOURCE_REGID>
SCHEMBL16122942

> <PUBCHEM_SUBSTANCE_COMMENT>
InChI=1S/C4H8N2OS/c1-2-3(6-8)4(5)7/h8H,2H2,1H3,(H2,5,7)/b6-3-
InChIKey=FHGXFNQVAAMTEY-UTCJRWHESA-N

> <PUBCHEM_SUBSTANCE_SYNONYM>
SCHEMBL16122942

> <PUBCHEM_XREF_EXT_ID>
SCHEMBL16122942

> <PUBCHEM_EXT_DATASOURCE_URL>
https://www.surechembl.org/

> <PUBCHEM_EXT_SUBSTANCE_URL>
https://www.surechembl.org/chemical/SCHEMBL16122942

> <PUBCHEM_CID_ASSOCIATIONS>
117611056  1

> <PUBCHEM_COORDINATE_TYPE>
1
3

> <PUBCHEM_BONDANNOTATIONS>
7  8  3

$$$$
