310949085
  -OEChem-07211613022D

 24 25  0     0  0  0  0  0  0999 V2000
    0.5249   -1.4398    0.0000 F   0  0  0  0  0  0  0  0  0  0  0  0
   -0.8999   -2.2948    0.0000 F   0  0  0  0  0  0  0  0  0  0  0  0
   -2.3098   -2.2948    0.0000 F   0  0  0  0  0  0  0  0  0  0  0  0
   -2.3248   -0.6299    0.0000 F   0  0  0  0  0  0  0  0  0  0  0  0
   -3.0147   -1.0649    0.0000 F   0  0  0  0  0  0  0  0  0  0  0  0
    2.6098    1.4698    0.0000 O   0  0  0  0  0  0  0  0  0  0  0  0
    2.6398   -1.0199    0.0000 O   0  0  0  0  0  0  0  0  0  0  0  0
    1.2149   -0.1950    0.0000 N   0  0  0  0  0  0  0  0  0  0  0  0
    0.5099    1.0499    0.0000 N   0  0  0  0  0  0  0  0  0  0  0  0
    1.1999    2.2948    0.0000 N   0  0  0  0  0  0  0  0  0  0  0  0
   -0.2250   -0.2250    0.0000 C   0  0  0  0  0  0  0  0  0  0  0  0
    0.4799    0.1800    0.0000 C   0  0  0  0  0  0  0  0  0  0  0  0
   -0.2100   -1.0499    0.0000 C   0  0  0  0  0  0  0  0  0  0  0  0
   -1.6348   -1.0799    0.0000 C   0  0  0  0  0  0  0  0  0  0  0  0
   -0.9299   -1.4698    0.0000 C   0  0  0  0  0  0  0  0  0  0  0  0
   -2.3398   -1.4698    0.0000 C   0  0  0  0  0  0  0  0  0  0  0  0
    1.9048    0.1950    0.0000 C   0  0  0  0  0  0  0  0  0  0  0  0
    1.9197    1.0350    0.0000 C   0  0  0  0  0  0  0  0  0  0  0  0
   -0.9150    0.1800    0.0000 C   0  0  0  0  0  0  0  0  0  0  0  0
    1.1699    1.4549    0.0000 C   0  0  0  0  0  0  0  0  0  0  0  0
   -1.6348   -0.2400    0.0000 C   0  0  0  0  0  0  0  0  0  0  0  0
    2.6248   -0.1950    0.0000 C   0  0  0  0  0  0  0  0  0  0  0  0
    2.9997    0.0000    0.0000 C   0  0  0  0  0  0  0  0  0  0  0  0
    3.0147    1.1999    0.0000 C   0  0  0  0  0  0  0  0  0  0  0  0
  1 13  1  0  0  0  0
  2 15  1  0  0  0  0
  3 16  1  0  0  0  0
  4 16  1  0  0  0  0
  5 16  1  0  0  0  0
  6 18  1  0  0  0  0
  6 24  1  0  0  0  0
  7 22  2  0  0  0  0
  8 12  1  0  0  0  0
  8 17  2  0  0  0  0
  9 12  2  0  0  0  0
  9 20  1  0  0  0  0
 10 20  1  0  0  0  0
 11 12  1  0  0  0  0
 11 13  1  0  0  0  0
 11 19  2  0  0  0  0
 13 15  2  0  0  0  0
 14 15  1  0  0  0  0
 14 16  1  0  0  0  0
 14 21  2  0  0  0  0
 17 18  1  0  0  0  0
 17 22  1  0  0  0  0
 18 20  2  0  0  0  0
 19 21  1  0  0  0  0
 22 23  1  0  0  0  0
M  END
> <PUBCHEM_COMPOUND_ID_TYPE>
0

> <PUBCHEM_TOTAL_CHARGE>
0

> <PUBCHEM_SUBSTANCE_ID>
310949085

> <PUBCHEM_SUBSTANCE_VERSION>
1

> <PUBCHEM_EXT_DATASOURCE_NAME>
4488

> <PUBCHEM_EXT_DATASOURCE_REGID>
SCHEMBL16127275

> <PUBCHEM_SUBSTANCE_COMMENT>
InChI=1S/C14H10F5N3O2/c1-5(23)10-11(24-2)12(20)22-13(21-10)6-3-4-7(14(17,18)19)9(16)8(6)15/h3-4H,1-2H3,(H2,20,21,22)
InChIKey=GMVIMNABGNULJI-UHFFFAOYSA-N

> <PUBCHEM_SUBSTANCE_SYNONYM>
SCHEMBL16127275

> <PUBCHEM_XREF_EXT_ID>
SCHEMBL16127275

> <PUBCHEM_EXT_DATASOURCE_URL>
https://www.surechembl.org/

> <PUBCHEM_EXT_SUBSTANCE_URL>
https://www.surechembl.org/chemical/SCHEMBL16127275

> <PUBCHEM_CID_ASSOCIATIONS>
117614590  1

> <PUBCHEM_COORDINATE_TYPE>
1
3

$$$$
