310945412
  -OEChem-07211613022D

 22 24  0     0  0  0  0  0  0999 V2000
    2.8646    2.4177    0.0000 F   0  0  0  0  0  0  0  0  0  0  0  0
   -2.3079    0.8352    0.0000 O   0  0  0  0  0  0  0  0  0  0  0  0
    0.5202    0.0879    0.0000 N   0  0  0  0  0  0  0  0  0  0  0  0
    2.5570    1.0257    0.0000 N   0  0  0  0  0  0  0  0  0  0  0  0
   -0.2125   -1.9781    0.0000 N   0  0  0  0  0  0  0  0  0  0  0  0
    1.1942    0.5861    0.0000 C   0  0  0  0  0  0  0  0  0  0  0  0
    0.9304    1.3481    0.0000 C   0  0  0  0  0  0  0  0  0  0  0  0
    0.1099    1.3774    0.0000 C   0  0  0  0  0  0  0  0  0  0  0  0
   -0.1392    0.5861    0.0000 C   0  0  0  0  0  0  0  0  0  0  0  0
    2.0001    0.4103    0.0000 C   0  0  0  0  0  0  0  0  0  0  0  0
    1.4873    1.9781    0.0000 C   0  0  0  0  0  0  0  0  0  0  0  0
   -0.9451    0.4103    0.0000 C   0  0  0  0  0  0  0  0  0  0  0  0
   -0.4323    1.9635    0.0000 C   0  0  0  0  0  0  0  0  0  0  0  0
    2.3079    1.8023    0.0000 C   0  0  0  0  0  0  0  0  0  0  0  0
    0.5202   -0.7327    0.0000 C   0  0  0  0  0  0  0  0  0  0  0  0
   -1.5166    1.0257    0.0000 C   0  0  0  0  0  0  0  0  0  0  0  0
   -1.2382    1.8023    0.0000 C   0  0  0  0  0  0  0  0  0  0  0  0
    2.3225   -0.4835    0.0000 C   0  0  0  0  0  0  0  0  0  0  0  0
   -0.1832   -1.1429    0.0000 C   0  0  0  0  0  0  0  0  0  0  0  0
   -2.8646    1.4799    0.0000 C   0  0  0  0  0  0  0  0  0  0  0  0
    0.5348   -2.4177    0.0000 C   0  0  0  0  0  0  0  0  0  0  0  0
   -0.9304   -2.3885    0.0000 C   0  0  0  0  0  0  0  0  0  0  0  0
  1 14  1  0  0  0  0
  2 16  1  0  0  0  0
  2 20  1  0  0  0  0
  3  6  1  0  0  0  0
  3  9  1  0  0  0  0
  3 15  1  0  0  0  0
  4 10  2  0  0  0  0
  4 14  1  0  0  0  0
  5 19  1  0  0  0  0
  5 21  1  0  0  0  0
  5 22  1  0  0  0  0
  6  7  2  0  0  0  0
  6 10  1  0  0  0  0
  7  8  1  0  0  0  0
  7 11  1  0  0  0  0
  8  9  2  0  0  0  0
  8 13  1  0  0  0  0
  9 12  1  0  0  0  0
 10 18  1  0  0  0  0
 11 14  2  0  0  0  0
 12 16  2  0  0  0  0
 13 17  2  0  0  0  0
 15 19  1  0  0  0  0
 16 17  1  0  0  0  0
M  END
> <PUBCHEM_COMPOUND_ID_TYPE>
0

> <PUBCHEM_TOTAL_CHARGE>
0

> <PUBCHEM_SUBSTANCE_ID>
310945412

> <PUBCHEM_SUBSTANCE_VERSION>
1

> <PUBCHEM_EXT_DATASOURCE_NAME>
4488

> <PUBCHEM_EXT_DATASOURCE_REGID>
SCHEMBL16123510

> <PUBCHEM_SUBSTANCE_COMMENT>
InChI=1S/C17H20FN3O/c1-11-17-14(10-16(18)19-11)13-6-5-12(22-4)9-15(13)21(17)8-7-20(2)3/h5-6,9-10H,7-8H2,1-4H3
InChIKey=WORFJSLWHWAKTO-UHFFFAOYSA-N

> <PUBCHEM_SUBSTANCE_SYNONYM>
SCHEMBL16123510

> <PUBCHEM_XREF_EXT_ID>
SCHEMBL16123510

> <PUBCHEM_EXT_DATASOURCE_URL>
https://www.surechembl.org/

> <PUBCHEM_EXT_SUBSTANCE_URL>
https://www.surechembl.org/chemical/SCHEMBL16123510

> <PUBCHEM_CID_ASSOCIATIONS>
117611458  1

> <PUBCHEM_COORDINATE_TYPE>
1
3

$$$$
