310945375
  -OEChem-07211613022D

 25 26  0     0  0  0  0  0  0999 V2000
    4.5139    0.3733    0.0000 O   0  0  0  0  0  0  0  0  0  0  0  0
   -3.1077    1.4497    0.0000 O   0  0  0  0  0  0  0  0  0  0  0  0
    2.7257   -0.8768    0.0000 N   0  0  0  0  0  0  0  0  0  0  0  0
   -0.9549   -0.6164    0.0000 N   0  0  0  0  0  0  0  0  0  0  0  0
   -2.3959    0.2170    0.0000 N   0  0  0  0  0  0  0  0  0  0  0  0
    4.3751   -1.0504    0.0000 N   0  0  0  0  0  0  0  0  0  0  0  0
    1.9098   -0.6164    0.0000 C   0  0  0  0  0  0  0  0  0  0  0  0
    1.9271    0.2170    0.0000 C   0  0  0  0  0  0  0  0  0  0  0  0
    3.1945   -0.1996    0.0000 C   0  0  0  0  0  0  0  0  0  0  0  0
    0.4861   -0.6164    0.0000 C   0  0  0  0  0  0  0  0  0  0  0  0
    1.2153   -1.0330    0.0000 C   0  0  0  0  0  0  0  0  0  0  0  0
    2.7431    0.4427    0.0000 C   0  0  0  0  0  0  0  0  0  0  0  0
    1.1980    0.6164    0.0000 C   0  0  0  0  0  0  0  0  0  0  0  0
   -0.2431   -1.0156    0.0000 C   0  0  0  0  0  0  0  0  0  0  0  0
    0.5035    0.2170    0.0000 C   0  0  0  0  0  0  0  0  0  0  0  0
    4.0105   -0.3212    0.0000 C   0  0  0  0  0  0  0  0  0  0  0  0
   -1.6667   -1.0330    0.0000 C   0  0  0  0  0  0  0  0  0  0  0  0
   -2.4132   -0.6164    0.0000 C   0  0  0  0  0  0  0  0  0  0  0  0
   -0.2257   -1.4497    0.0000 C   0  0  0  0  0  0  0  0  0  0  0  0
   -3.0904   -1.0330    0.0000 C   0  0  0  0  0  0  0  0  0  0  0  0
   -3.1251    0.6164    0.0000 C   0  0  0  0  0  0  0  0  0  0  0  0
   -1.6493   -1.4497    0.0000 C   0  0  0  0  0  0  0  0  0  0  0  0
   -3.8195    0.2170    0.0000 C   0  0  0  0  0  0  0  0  0  0  0  0
   -3.0209   -1.4497    0.0000 C   0  0  0  0  0  0  0  0  0  0  0  0
   -4.5139    0.6684    0.0000 C   0  0  0  0  0  0  0  0  0  0  0  0
  1 16  2  0  0  0  0
  2 21  2  0  0  0  0
  3  7  1  0  0  0  0
  3  9  1  0  0  0  0
  4 14  1  0  0  0  0
  4 17  1  0  0  0  0
  5 18  1  0  0  0  0
  5 21  1  0  0  0  0
  6 16  1  0  0  0  0
  7  8  1  0  0  0  0
  7 11  2  0  0  0  0
  8 12  1  0  0  0  0
  8 13  2  0  0  0  0
  9 12  2  0  0  0  0
  9 16  1  0  0  0  0
 10 11  1  0  0  0  0
 10 14  1  0  0  0  0
 10 15  2  0  0  0  0
 13 15  1  0  0  0  0
 14 19  2  0  0  0  0
 17 18  2  0  0  0  0
 17 22  1  0  0  0  0
 18 20  1  0  0  0  0
 20 24  2  0  0  0  0
 21 23  1  0  0  0  0
 23 25  2  0  0  0  0
M  END
> <PUBCHEM_COMPOUND_ID_TYPE>
0

> <PUBCHEM_TOTAL_CHARGE>
0

> <PUBCHEM_SUBSTANCE_ID>
310945375

> <PUBCHEM_SUBSTANCE_VERSION>
1

> <PUBCHEM_EXT_DATASOURCE_NAME>
4488

> <PUBCHEM_EXT_DATASOURCE_REGID>
SCHEMBL16123473

> <PUBCHEM_SUBSTANCE_COMMENT>
InChI=1S/C19H20N4O2/c1-5-15(23-18(24)6-2)12(4)21-11(3)13-7-8-14-10-17(19(20)25)22-16(14)9-13/h5-10,21-22H,1-3H2,4H3,(H2,20,25)(H,23,24)/b15-12-
InChIKey=JYTWUJVAWTWKST-QINSGFPZSA-N

> <PUBCHEM_SUBSTANCE_SYNONYM>
SCHEMBL16123473

> <PUBCHEM_XREF_EXT_ID>
SCHEMBL16123473

> <PUBCHEM_EXT_DATASOURCE_URL>
https://www.surechembl.org/

> <PUBCHEM_EXT_SUBSTANCE_URL>
https://www.surechembl.org/chemical/SCHEMBL16123473

> <PUBCHEM_CID_ASSOCIATIONS>
117611429  1

> <PUBCHEM_COORDINATE_TYPE>
1
3

$$$$
