310943965
  -OEChem-07211613022D

 16 18  0     0  0  0  0  0  0999 V2000
   -0.8890    0.9052    0.0000 O   0  0  0  0  0  0  0  0  0  0  0  0
   -0.8243   -1.7780    0.0000 O   0  0  0  0  0  0  0  0  0  0  0  0
    0.5011   -1.7295    0.0000 O   0  0  0  0  0  0  0  0  0  0  0  0
   -0.2101    0.4364    0.0000 C   0  0  0  0  0  0  0  0  0  0  0  0
   -0.1778   -1.2446    0.0000 C   0  0  0  0  0  0  0  0  0  0  0  0
    0.1778    1.7295    0.0000 C   0  0  0  0  0  0  0  0  0  0  0  0
    0.4364    0.9536    0.0000 C   0  0  0  0  0  0  0  0  0  0  0  0
   -0.9052   -0.0161    0.0000 C   0  0  0  0  0  0  0  0  0  0  0  0
    0.5011    0.0161    0.0000 C   0  0  0  0  0  0  0  0  0  0  0  0
   -0.8728   -0.8405    0.0000 C   0  0  0  0  0  0  0  0  0  0  0  0
    0.5172   -0.8082    0.0000 C   0  0  0  0  0  0  0  0  0  0  0  0
   -0.6465    1.6972    0.0000 C   0  0  0  0  0  0  0  0  0  0  0  0
    0.2910   -2.5215    0.0000 C   0  0  0  0  0  0  0  0  0  0  0  0
   -0.5334   -2.5377    0.0000 C   0  0  0  0  0  0  0  0  0  0  0  0
   -0.0647    2.5377    0.0000 C   0  0  0  0  0  0  0  0  0  0  0  0
    0.9052    2.1498    0.0000 C   0  0  0  0  0  0  0  0  0  0  0  0
  1  4  1  0  0  0  0
  1 12  1  0  0  0  0
  2  5  1  0  0  0  0
  2 14  1  0  0  0  0
  3  5  1  0  0  0  0
  3 13  1  0  0  0  0
  4  7  1  0  0  0  0
  4  8  1  0  0  0  0
  4  9  1  0  0  0  0
  5 10  1  0  0  0  0
  5 11  1  0  0  0  0
  6  7  1  0  0  0  0
  6 12  1  0  0  0  0
  6 15  1  0  0  0  0
  6 16  1  0  0  0  0
  8 10  1  0  0  0  0
  9 11  1  0  0  0  0
 13 14  1  0  0  0  0
M  END
> <PUBCHEM_COMPOUND_ID_TYPE>
0

> <PUBCHEM_TOTAL_CHARGE>
0

> <PUBCHEM_SUBSTANCE_ID>
310943965

> <PUBCHEM_SUBSTANCE_VERSION>
1

> <PUBCHEM_EXT_DATASOURCE_NAME>
4488

> <PUBCHEM_EXT_DATASOURCE_REGID>
SCHEMBL16122036

> <PUBCHEM_SUBSTANCE_COMMENT>
InChI=1S/C13H22O3/c1-11(2)9-12(16-10-11)3-5-13(6-4-12)14-7-8-15-13/h3-10H2,1-2H3
InChIKey=RSGIWLQSRCVFRK-UHFFFAOYSA-N

> <PUBCHEM_SUBSTANCE_SYNONYM>
SCHEMBL16122036

> <PUBCHEM_XREF_EXT_ID>
SCHEMBL16122036

> <PUBCHEM_EXT_DATASOURCE_URL>
https://www.surechembl.org/

> <PUBCHEM_EXT_SUBSTANCE_URL>
https://www.surechembl.org/chemical/SCHEMBL16122036

> <PUBCHEM_CID_ASSOCIATIONS>
117610272  1

> <PUBCHEM_COORDINATE_TYPE>
1
3

$$$$
