310945903
  -OEChem-07211613022D

 38 41  0     1  0  0  0  0  0999 V2000
    3.6504    1.3818    0.0000 O   0  0  0  0  0  0  0  0  0  0  0  0
    1.3955    1.4093    0.0000 O   0  0  0  0  0  0  0  0  0  0  0  0
    0.6806    0.9968    0.0000 O   0  0  0  0  0  0  0  0  0  0  0  0
   -0.0344    1.4093    0.0000 O   0  0  0  0  0  0  0  0  0  0  0  0
   -2.9216   -2.6742    0.0000 O   0  0  0  0  0  0  0  0  0  0  0  0
    1.3818   -0.2406    0.0000 N   0  0  0  0  0  0  0  0  0  0  0  0
   -0.7494    0.1993    0.0000 N   0  0  0  0  0  0  0  0  0  0  0  0
   -2.8941    1.4505    0.0000 N   0  0  0  0  0  0  0  0  0  0  0  0
   -2.1655    2.6879    0.0000 N   0  0  0  0  0  0  0  0  0  0  0  0
   -2.1793    0.2131    0.0000 N   0  0  0  0  0  0  0  0  0  0  0  0
    2.8392    1.3955    0.0000 C   0  0  3  0  0  0  0  0  0  0  0  0
    2.0830    0.9418    0.0000 C   0  0  0  0  0  0  0  0  0  0  0  0
    3.2379    0.7081    0.0000 C   0  0  0  0  0  0  0  0  0  0  0  0
    2.1105    0.1719    0.0000 C   0  0  3  0  0  0  0  0  0  0  0  0
    2.8392    2.2342    0.0000 C   0  0  0  0  0  0  0  0  0  0  0  0
    0.6668    0.1719    0.0000 C   0  0  0  0  0  0  0  0  0  0  0  0
    2.7979   -0.2268    0.0000 C   0  0  0  0  0  0  0  0  0  0  0  0
   -0.0344   -0.2131    0.0000 C   0  0  3  0  0  0  0  0  0  0  0  0
   -1.4643    1.4368    0.0000 C   0  0  0  0  0  0  0  0  0  0  0  0
    2.7979   -1.0656    0.0000 C   0  0  0  0  0  0  0  0  0  0  0  0
   -0.7769    1.0243    0.0000 C   0  0  0  0  0  0  0  0  0  0  0  0
   -0.0206   -1.0381    0.0000 C   0  0  0  0  0  0  0  0  0  0  0  0
   -2.1793    1.0518    0.0000 C   0  0  0  0  0  0  0  0  0  0  0  0
   -0.7631   -1.4368    0.0000 C   0  0  0  0  0  0  0  0  0  0  0  0
   -1.4505    2.2617    0.0000 C   0  0  0  0  0  0  0  0  0  0  0  0
   -2.8804    2.2755    0.0000 C   0  0  0  0  0  0  0  0  0  0  0  0
    3.5267   -1.4918    0.0000 C   0  0  0  0  0  0  0  0  0  0  0  0
    2.0968   -1.4780    0.0000 C   0  0  0  0  0  0  0  0  0  0  0  0
   -1.4505   -1.0518    0.0000 C   0  0  0  0  0  0  0  0  0  0  0  0
   -0.7769   -2.2617    0.0000 C   0  0  0  0  0  0  0  0  0  0  0  0
   -2.2205   -2.2480    0.0000 C   0  0  0  0  0  0  0  0  0  0  0  0
   -2.1930   -1.4368    0.0000 C   0  0  0  0  0  0  0  0  0  0  0  0
   -1.4780   -2.6742    0.0000 C   0  0  0  0  0  0  0  0  0  0  0  0
    3.5129   -2.3030    0.0000 C   0  0  0  0  0  0  0  0  0  0  0  0
    2.0830   -2.2892    0.0000 C   0  0  0  0  0  0  0  0  0  0  0  0
    2.8117   -2.7017    0.0000 C   0  0  0  0  0  0  0  0  0  0  0  0
   -3.6091    2.7017    0.0000 C   0  0  0  0  0  0  0  0  0  0  0  0
   -3.6504   -2.2617    0.0000 C   0  0  0  0  0  0  0  0  0  0  0  0
  1 11  1  0  0  0  0
  1 13  1  0  0  0  0
  2 12  2  0  0  0  0
  3 16  2  0  0  0  0
  4 21  2  0  0  0  0
  5 31  1  0  0  0  0
  5 38  1  0  0  0  0
 14  6  1  6  0  0  0
  6 16  1  0  0  0  0
 18  7  1  6  0  0  0
  7 21  1  0  0  0  0
  8 23  2  0  0  0  0
  8 26  1  0  0  0  0
  9 25  1  0  0  0  0
  9 26  2  0  0  0  0
 10 23  1  0  0  0  0
 11 12  1  6  0  0  0
 11 13  1  0  0  0  0
 11 15  1  1  0  0  0
 12 14  1  0  0  0  0
 14 17  1  0  0  0  0
 16 18  1  0  0  0  0
 17 20  1  0  0  0  0
 18 22  1  0  0  0  0
 19 21  1  0  0  0  0
 19 23  1  0  0  0  0
 19 25  2  0  0  0  0
 20 27  2  0  0  0  0
 20 28  1  0  0  0  0
 22 24  1  0  0  0  0
 24 29  2  0  0  0  0
 24 30  1  0  0  0  0
 26 37  1  0  0  0  0
 27 34  1  0  0  0  0
 28 35  2  0  0  0  0
 29 32  1  0  0  0  0
 30 33  2  0  0  0  0
 31 32  2  0  0  0  0
 31 33  1  0  0  0  0
 34 36  2  0  0  0  0
 35 36  1  0  0  0  0
M  END
> <PUBCHEM_COMPOUND_ID_TYPE>
0

> <PUBCHEM_TOTAL_CHARGE>
0

> <PUBCHEM_SUBSTANCE_ID>
310945903

> <PUBCHEM_SUBSTANCE_VERSION>
1

> <PUBCHEM_EXT_DATASOURCE_NAME>
4488

> <PUBCHEM_EXT_DATASOURCE_REGID>
SCHEMBL16124008

> <PUBCHEM_SUBSTANCE_COMMENT>
InChI=1S/C28H31N5O5/c1-17-30-15-21(25(29)31-17)26(35)33-23(14-19-9-11-20(37-3)12-10-19)27(36)32-22(24(34)28(2)16-38-28)13-18-7-5-4-6-8-18/h4-12,15,22-23H,13-14,16H2,1-3H3,(H,32,36)(H,33,35)(H2,29,30,31)/t22-,23-,28+/m0/s1
InChIKey=INUDRPAANGJBDB-UXWDXCIHSA-N

> <PUBCHEM_SUBSTANCE_SYNONYM>
SCHEMBL16124008

> <PUBCHEM_XREF_EXT_ID>
SCHEMBL16124008

> <PUBCHEM_EXT_DATASOURCE_URL>
https://www.surechembl.org/

> <PUBCHEM_EXT_SUBSTANCE_URL>
https://www.surechembl.org/chemical/SCHEMBL16124008

> <PUBCHEM_CID_ASSOCIATIONS>
117611887  1

> <PUBCHEM_COORDINATE_TYPE>
1
3

> <PUBCHEM_BONDANNOTATIONS>
11  12  6
11  15  5
14  6  6
18  7  6

$$$$
