310935454
  -OEChem-07211613022D

 39 42  0     0  0  0  0  0  0999 V2000
    3.4978    0.0000    0.0000 F   0  0  0  0  0  0  0  0  0  0  0  0
    0.8307   -8.7446    0.0000 F   0  0  0  0  0  0  0  0  0  0  0  0
    3.3229   -5.7715    0.0000 O   0  0  0  0  0  0  0  0  0  0  0  0
    1.0931   -4.1537    0.0000 O   0  0  0  0  0  0  0  0  0  0  0  0
    5.6403   -1.2680    0.0000 O   0  0  0  0  0  0  0  0  0  0  0  0
    5.6840   -2.0987    0.0000 O   0  0  0  0  0  0  0  0  0  0  0  0
    4.9407    0.0000    0.0000 O   0  0  0  0  0  0  0  0  0  0  0  0
    4.4160   -2.2736    0.0000 O   0  0  0  0  0  0  0  0  0  0  0  0
    0.7870   -5.5528    0.0000 N   0  0  0  0  0  0  0  0  0  0  0  0
    2.7545   -4.5472    0.0000 C   0  0  0  0  0  0  0  0  0  0  0  0
    2.1861   -5.1156    0.0000 C   0  0  0  0  0  0  0  0  0  0  0  0
    3.4978   -4.9844    0.0000 C   0  0  0  0  0  0  0  0  0  0  0  0
    2.4922   -5.9026    0.0000 C   0  0  0  0  0  0  0  0  0  0  0  0
    3.4978   -3.3229    0.0000 C   0  0  0  0  0  0  0  0  0  0  0  0
    2.7983   -3.7165    0.0000 C   0  0  0  0  0  0  0  0  0  0  0  0
    4.2412   -3.7602    0.0000 C   0  0  0  0  0  0  0  0  0  0  0  0
    4.2412   -4.5472    0.0000 C   0  0  0  0  0  0  0  0  0  0  0  0
    2.0550   -6.6022    0.0000 C   0  0  0  0  0  0  0  0  0  0  0  0
    3.4978   -2.4922    0.0000 C   0  0  0  0  0  0  0  0  0  0  0  0
    1.3554   -4.9407    0.0000 C   0  0  0  0  0  0  0  0  0  0  0  0
    4.1974   -2.0550    0.0000 C   0  0  0  0  0  0  0  0  0  0  0  0
    4.9407   -3.3229    0.0000 C   0  0  0  0  0  0  0  0  0  0  0  0
    4.1974   -1.2680    0.0000 C   0  0  0  0  0  0  0  0  0  0  0  0
    2.7545   -2.0550    0.0000 C   0  0  0  0  0  0  0  0  0  0  0  0
    2.4922   -7.3018    0.0000 C   0  0  0  0  0  0  0  0  0  0  0  0
    1.2680   -6.6022    0.0000 C   0  0  0  0  0  0  0  0  0  0  0  0
    3.4978   -0.8307    0.0000 C   0  0  0  0  0  0  0  0  0  0  0  0
    2.7545   -1.2680    0.0000 C   0  0  0  0  0  0  0  0  0  0  0  0
    4.9407   -0.8307    0.0000 C   0  0  0  0  0  0  0  0  0  0  0  0
    4.9407   -2.5360    0.0000 C   0  0  0  0  0  0  0  0  0  0  0  0
    2.0550   -8.0450    0.0000 C   0  0  0  0  0  0  0  0  0  0  0  0
    0.8307   -7.3018    0.0000 C   0  0  0  0  0  0  0  0  0  0  0  0
    1.2680   -8.0450    0.0000 C   0  0  0  0  0  0  0  0  0  0  0  0
    6.3835   -0.8307    0.0000 C   0  0  0  0  0  0  0  0  0  0  0  0
    0.0000   -5.3779    0.0000 C   0  0  0  0  0  0  0  0  0  0  0  0
    6.7771   -1.5741    0.0000 C   0  0  0  0  0  0  0  0  0  0  0  0
    7.0831   -0.4372    0.0000 C   0  0  0  0  0  0  0  0  0  0  0  0
    5.9463   -0.1312    0.0000 C   0  0  0  0  0  0  0  0  0  0  0  0
    5.8589   -1.4429    0.0000 C   0  0  0  0  0  0  0  0  0  0  0  0
  1 27  1  0  0  0  0
  2 33  1  0  0  0  0
  3 12  1  0  0  0  0
  3 13  1  0  0  0  0
  4 20  2  0  0  0  0
  5 29  1  0  0  0  0
  5 34  1  0  0  0  0
  6 30  1  0  0  0  0
  6 39  1  0  0  0  0
  7 29  2  0  0  0  0
  8 30  2  0  0  0  0
  9 20  1  0  0  0  0
  9 35  1  0  0  0  0
 10 11  1  0  0  0  0
 10 12  2  0  0  0  0
 10 15  1  0  0  0  0
 11 13  2  0  0  0  0
 11 20  1  0  0  0  0
 12 17  1  0  0  0  0
 13 18  1  0  0  0  0
 14 15  2  0  0  0  0
 14 16  1  0  0  0  0
 14 19  1  0  0  0  0
 16 17  2  0  0  0  0
 16 22  1  0  0  0  0
 18 25  2  0  0  0  0
 18 26  1  0  0  0  0
 19 21  2  0  0  0  0
 19 24  1  0  0  0  0
 21 23  1  0  0  0  0
 22 30  1  0  0  0  0
 23 27  2  0  0  0  0
 23 29  1  0  0  0  0
 24 28  2  0  0  0  0
 25 31  1  0  0  0  0
 26 32  2  0  0  0  0
 27 28  1  0  0  0  0
 31 33  2  0  0  0  0
 32 33  1  0  0  0  0
 34 36  1  0  0  0  0
 34 37  1  0  0  0  0
 34 38  1  0  0  0  0
M  END
> <PUBCHEM_COMPOUND_ID_TYPE>
0

> <PUBCHEM_TOTAL_CHARGE>
0

> <PUBCHEM_SUBSTANCE_ID>
310935454

> <PUBCHEM_SUBSTANCE_VERSION>
1

> <PUBCHEM_EXT_DATASOURCE_NAME>
4488

> <PUBCHEM_EXT_DATASOURCE_REGID>
SCHEMBL16112999

> <PUBCHEM_SUBSTANCE_COMMENT>
InChI=1S/C30H27F2NO6/c1-30(2,3)39-29(36)21-12-17(8-11-23(21)32)20-15-22-24(13-18(20)14-25(34)37-5)38-27(26(22)28(35)33-4)16-6-9-19(31)10-7-16/h6-13,15H,14H2,1-5H3,(H,33,35)
InChIKey=BYQCKPQUEYBFFZ-UHFFFAOYSA-N

> <PUBCHEM_SUBSTANCE_SYNONYM>
SCHEMBL16112999

> <PUBCHEM_XREF_EXT_ID>
SCHEMBL16112999

> <PUBCHEM_EXT_DATASOURCE_URL>
https://www.surechembl.org/

> <PUBCHEM_EXT_SUBSTANCE_URL>
https://www.surechembl.org/chemical/SCHEMBL16112999

> <PUBCHEM_CID_ASSOCIATIONS>
117603494  1

> <PUBCHEM_COORDINATE_TYPE>
1
3

$$$$
