310940713
  -OEChem-07211613022D

 42 47  0     1  0  0  0  0  0999 V2000
   -1.5033   -1.7169    0.0000 O   0  0  0  0  0  0  0  0  0  0  0  0
    3.1686   -4.6940    0.0000 O   0  0  0  0  0  0  0  0  0  0  0  0
    1.9159   -3.9865    0.0000 O   0  0  0  0  0  0  0  0  0  0  0  0
    1.5917    4.0750    0.0000 O   0  0  0  0  0  0  0  0  0  0  0  0
    1.4296   -1.8643    0.0000 N   0  0  0  0  0  0  0  0  0  0  0  0
    1.4296   -3.2055    0.0000 N   0  0  0  0  0  0  0  0  0  0  0  0
    0.5748    3.0728    0.0000 N   0  0  0  0  0  0  0  0  0  0  0  0
    1.9602    2.7044    0.0000 N   0  0  0  0  0  0  0  0  0  0  0  0
   -2.9475   -0.8769    0.0000 N   0  0  0  0  0  0  0  0  0  0  0  0
    1.8865   -2.5275    0.0000 C   0  0  0  0  0  0  0  0  0  0  0  0
    0.6485   -2.1297    0.0000 C   0  0  0  0  0  0  0  0  0  0  0  0
    0.6338   -2.9402    0.0000 C   0  0  0  0  0  0  0  0  0  0  0  0
    2.7707   -2.5275    0.0000 C   0  0  3  0  0  0  0  0  0  0  0  0
   -0.0590   -1.7169    0.0000 C   0  0  0  0  0  0  0  0  0  0  0  0
    1.6801   -1.0832    0.0000 C   0  0  0  0  0  0  0  0  0  0  0  0
    3.1686   -3.2202    0.0000 C   0  0  3  0  0  0  0  0  0  0  0  0
   -0.0590   -3.3529    0.0000 C   0  0  0  0  0  0  0  0  0  0  0  0
   -0.7812   -2.1149    0.0000 C   0  0  0  0  0  0  0  0  0  0  0  0
    1.0906   -0.4938    0.0000 C   0  0  0  0  0  0  0  0  0  0  0  0
    3.1686   -1.8202    0.0000 C   0  0  0  0  0  0  0  0  0  0  0  0
   -0.7812   -2.9402    0.0000 C   0  0  0  0  0  0  0  0  0  0  0  0
    2.7265   -3.9719    0.0000 C   0  0  0  0  0  0  0  0  0  0  0  0
    3.9939   -3.2497    0.0000 C   0  0  0  0  0  0  0  0  0  0  0  0
    1.3117    0.3021    0.0000 C   0  0  0  0  0  0  0  0  0  0  0  0
    0.7222    0.8916    0.0000 C   0  0  0  0  0  0  0  0  0  0  0  0
    3.9792   -1.8202    0.0000 C   0  0  0  0  0  0  0  0  0  0  0  0
    0.2948   -0.7001    0.0000 C   0  0  0  0  0  0  0  0  0  0  0  0
    4.3919   -2.5275    0.0000 C   0  0  0  0  0  0  0  0  0  0  0  0
    0.9285    1.7022    0.0000 C   0  0  0  0  0  0  0  0  0  0  0  0
   -0.0590    0.6706    0.0000 C   0  0  0  0  0  0  0  0  0  0  0  0
   -0.2653   -0.1253    0.0000 C   0  0  0  0  0  0  0  0  0  0  0  0
   -1.5033   -0.8769    0.0000 C   0  0  0  0  0  0  0  0  0  0  0  0
    0.3537    2.2770    0.0000 C   0  0  0  0  0  0  0  0  0  0  0  0
    1.7391    1.8939    0.0000 C   0  0  0  0  0  0  0  0  0  0  0  0
   -2.2402   -0.4642    0.0000 C   0  0  0  0  0  0  0  0  0  0  0  0
    1.3559    3.2939    0.0000 C   0  0  0  0  0  0  0  0  0  0  0  0
   -2.2254    0.3611    0.0000 C   0  0  0  0  0  0  0  0  0  0  0  0
   -3.6698   -0.4642    0.0000 C   0  0  0  0  0  0  0  0  0  0  0  0
   -2.9623    0.7738    0.0000 C   0  0  0  0  0  0  0  0  0  0  0  0
   -3.6550    0.3611    0.0000 C   0  0  0  0  0  0  0  0  0  0  0  0
    1.0022    4.6940    0.0000 C   0  0  0  0  0  0  0  0  0  0  0  0
   -4.3919    0.7590    0.0000 C   0  0  0  0  0  0  0  0  0  0  0  0
  1 18  1  0  0  0  0
  1 32  1  0  0  0  0
  2 22  2  0  0  0  0
  3 22  1  0  0  0  0
  4 36  1  0  0  0  0
  4 41  1  0  0  0  0
  5 10  1  0  0  0  0
  5 11  1  0  0  0  0
  5 15  1  0  0  0  0
  6 10  2  0  0  0  0
  6 12  1  0  0  0  0
  7 33  2  0  0  0  0
  7 36  1  0  0  0  0
  8 34  1  0  0  0  0
  8 36  2  0  0  0  0
  9 35  1  0  0  0  0
  9 38  2  0  0  0  0
 13 10  1  1  0  0  0
 11 12  1  0  0  0  0
 11 14  2  0  0  0  0
 12 17  2  0  0  0  0
 13 16  1  0  0  0  0
 13 20  1  0  0  0  0
 14 18  1  0  0  0  0
 15 19  1  0  0  0  0
 16 22  1  1  0  0  0
 16 23  1  0  0  0  0
 17 21  1  0  0  0  0
 18 21  2  0  0  0  0
 19 24  1  0  0  0  0
 19 27  2  0  0  0  0
 20 26  1  0  0  0  0
 23 28  1  0  0  0  0
 24 25  2  0  0  0  0
 25 29  1  0  0  0  0
 25 30  1  0  0  0  0
 26 28  1  0  0  0  0
 27 31  1  0  0  0  0
 29 33  1  0  0  0  0
 29 34  2  0  0  0  0
 30 31  2  0  0  0  0
 32 35  1  0  0  0  0
 35 37  2  0  0  0  0
 37 39  1  0  0  0  0
 38 40  1  0  0  0  0
 39 40  2  0  0  0  0
 40 42  1  0  0  0  0
M  END
> <PUBCHEM_COMPOUND_ID_TYPE>
0

> <PUBCHEM_TOTAL_CHARGE>
0

> <PUBCHEM_SUBSTANCE_ID>
310940713

> <PUBCHEM_SUBSTANCE_VERSION>
1

> <PUBCHEM_EXT_DATASOURCE_NAME>
4488

> <PUBCHEM_EXT_DATASOURCE_REGID>
SCHEMBL16118669

> <PUBCHEM_SUBSTANCE_COMMENT>
InChI=1S/C33H33N5O4/c1-21-10-11-25(34-16-21)20-42-26-12-13-29-30(15-26)38(31(37-29)27-8-3-4-9-28(27)32(39)40)19-22-6-5-7-23(14-22)24-17-35-33(41-2)36-18-24/h5-7,10-18,27-28H,3-4,8-9,19-20H2,1-2H3,(H,39,40)/t27-,28+/m0/s1
InChIKey=JDPNKVIOXJGWNR-WUFINQPMSA-N

> <PUBCHEM_SUBSTANCE_SYNONYM>
SCHEMBL16118669

> <PUBCHEM_XREF_EXT_ID>
SCHEMBL16118669

> <PUBCHEM_EXT_DATASOURCE_URL>
https://www.surechembl.org/

> <PUBCHEM_EXT_SUBSTANCE_URL>
https://www.surechembl.org/chemical/SCHEMBL16118669

> <PUBCHEM_CID_ASSOCIATIONS>
117607670  1

> <PUBCHEM_COORDINATE_TYPE>
1
3

> <PUBCHEM_BONDANNOTATIONS>
13  10  5
16  22  5

$$$$
