310929712
  -OEChem-07211613022D

 66 73  0     1  0  0  0  0  0999 V2000
    4.8053   -0.8940    0.0000 S   0  0  0  0  0  0  0  0  0  0  0  0
    4.4142   -2.5144    0.0000 O   0  0  0  0  0  0  0  0  0  0  0  0
    5.0288   -1.6763    0.0000 O   0  0  0  0  0  0  0  0  0  0  0  0
    4.5818   -0.1118    0.0000 O   0  0  0  0  0  0  0  0  0  0  0  0
    4.3025   -3.1291    0.0000 O   0  0  0  0  0  0  0  0  0  0  0  0
    4.3583    0.0000    0.0000 O   0  0  0  0  0  0  0  0  0  0  0  0
    5.4200   -5.4759    0.0000 O   0  0  0  0  0  0  0  0  0  0  0  0
    1.3969   -3.9672    0.0000 O   0  0  0  0  0  0  0  0  0  0  0  0
    6.3699   -8.3255    0.0000 O   0  0  0  0  0  0  0  0  0  0  0  0
    0.8940   -7.4874    0.0000 O   0  0  0  0  0  0  0  0  0  0  0  0
    0.0000   -6.6493    0.0000 O   0  0  0  0  0  0  0  0  0  0  0  0
    3.5202  -10.7841    0.0000 O   0  0  0  0  0  0  0  0  0  0  0  0
    2.9614   -2.9614    0.0000 N   0  0  0  0  0  0  0  0  0  0  0  0
    4.0231   -1.1175    0.0000 N   0  0  0  0  0  0  0  0  0  0  0  0
    2.6262   -4.2466    0.0000 N   0  0  0  0  0  0  0  0  0  0  0  0
    6.3699   -5.8670    0.0000 N   0  0  0  0  0  0  0  0  0  0  0  0
    0.8940   -5.8670    0.0000 N   0  0  0  0  0  0  0  0  0  0  0  0
    4.9730   -9.9459    0.0000 N   0  0  0  0  0  0  0  0  0  0  0  0
    3.0173   -2.1233    0.0000 C   0  0  3  0  0  0  0  0  0  0  0  0
    2.3468   -1.7322    0.0000 C   0  0  3  0  0  0  0  0  0  0  0  0
    3.0173   -1.2851    0.0000 C   0  0  0  0  0  0  0  0  0  0  0  0
    5.5876   -0.7264    0.0000 C   0  0  0  0  0  0  0  0  0  0  0  0
    3.7996   -1.8998    0.0000 C   0  0  0  0  0  0  0  0  0  0  0  0
    6.1464   -0.1118    0.0000 C   0  0  0  0  0  0  0  0  0  0  0  0
    6.3699   -0.8940    0.0000 C   0  0  0  0  0  0  0  0  0  0  0  0
    3.5761   -3.4643    0.0000 C   0  0  0  0  0  0  0  0  0  0  0  0
    1.5087   -1.7880    0.0000 C   0  0  0  0  0  0  0  0  0  0  0  0
    5.1965    0.0000    0.0000 C   0  0  0  0  0  0  0  0  0  0  0  0
    3.4643   -4.2466    0.0000 C   0  0  3  0  0  0  0  0  0  0  0  0
    4.2466   -4.4142    0.0000 C   0  0  0  0  0  0  0  0  0  0  0  0
    4.9171   -4.8053    0.0000 C   0  0  3  0  0  0  0  0  0  0  0  0
    1.8439   -4.6377    0.0000 C   0  0  0  0  0  0  0  0  0  0  0  0
    3.9113   -3.8554    0.0000 C   0  0  0  0  0  0  0  0  0  0  0  0
    1.1175   -2.4585    0.0000 C   0  0  0  0  0  0  0  0  0  0  0  0
    1.2851   -5.1965    0.0000 C   0  0  3  0  0  0  0  0  0  0  0  0
    5.6994   -6.2581    0.0000 C   0  0  0  0  0  0  0  0  0  0  0  0
    5.6994   -7.0963    0.0000 C   0  0  0  0  0  0  0  0  0  0  0  0
    0.6146   -4.6936    0.0000 C   0  0  0  0  0  0  0  0  0  0  0  0
    6.3699   -7.4874    0.0000 C   0  0  0  0  0  0  0  0  0  0  0  0
    7.0404   -7.0963    0.0000 C   0  0  0  0  0  0  0  0  0  0  0  0
    7.0404   -6.2581    0.0000 C   0  0  0  0  0  0  0  0  0  0  0  0
    3.9672   -0.7264    0.0000 C   0  0  0  0  0  0  0  0  0  0  0  0
    5.4200   -7.8785    0.0000 C   0  0  0  0  0  0  0  0  0  0  0  0
    7.8226   -7.4874    0.0000 C   0  0  0  0  0  0  0  0  0  0  0  0
    7.8226   -5.8670    0.0000 C   0  0  0  0  0  0  0  0  0  0  0  0
    0.7823   -6.6493    0.0000 C   0  0  0  0  0  0  0  0  0  0  0  0
    1.1175   -4.0231    0.0000 C   0  0  0  0  0  0  0  0  0  0  0  0
    0.0000   -4.1907    0.0000 C   0  0  0  0  0  0  0  0  0  0  0  0
    0.1118   -5.3641    0.0000 C   0  0  0  0  0  0  0  0  0  0  0  0
    8.4932   -7.0963    0.0000 C   0  0  0  0  0  0  0  0  0  0  0  0
    8.4932   -6.2581    0.0000 C   0  0  0  0  0  0  0  0  0  0  0  0
    4.9171   -8.4373    0.0000 C   0  0  0  0  0  0  0  0  0  0  0  0
    5.6435   -8.7167    0.0000 C   0  0  0  0  0  0  0  0  0  0  0  0
    1.2851   -8.1579    0.0000 C   0  0  3  0  0  0  0  0  0  0  0  0
    1.8439   -8.7725    0.0000 C   0  0  3  0  0  0  0  0  0  0  0  0
    4.2466   -8.9402    0.0000 C   0  0  0  0  0  0  0  0  0  0  0  0
    5.6435   -9.5548    0.0000 C   0  0  0  0  0  0  0  0  0  0  0  0
    0.6146   -8.5490    0.0000 C   0  0  0  0  0  0  0  0  0  0  0  0
    2.6262   -9.0519    0.0000 C   0  0  0  0  0  0  0  0  0  0  0  0
    1.5645   -9.4989    0.0000 C   0  0  0  0  0  0  0  0  0  0  0  0
    3.4643   -9.1078    0.0000 C   0  0  0  0  0  0  0  0  0  0  0  0
    0.7264   -9.4431    0.0000 C   0  0  0  0  0  0  0  0  0  0  0  0
    4.9730  -10.7841    0.0000 C   0  0  0  0  0  0  0  0  0  0  0  0
    4.2466   -9.5548    0.0000 C   0  0  0  0  0  0  0  0  0  0  0  0
    3.5202   -9.9459    0.0000 C   0  0  0  0  0  0  0  0  0  0  0  0
    4.2466  -11.1752    0.0000 C   0  0  0  0  0  0  0  0  0  0  0  0
  1  3  2  0  0  0  0
  1  4  2  0  0  0  0
  1 14  1  0  0  0  0
  1 22  1  0  0  0  0
  2 23  2  0  0  0  0
  5 26  2  0  0  0  0
  6 28  1  0  0  0  0
  6 42  1  0  0  0  0
  7 31  1  0  0  0  0
  7 36  1  0  0  0  0
  8 32  2  0  0  0  0
  9 39  1  0  0  0  0
  9 53  1  0  0  0  0
 10 46  1  0  0  0  0
 10 54  1  0  0  0  0
 11 46  2  0  0  0  0
 12 65  1  0  0  0  0
 12 66  1  0  0  0  0
 19 13  1  1  0  0  0
 13 26  1  0  0  0  0
 14 23  1  0  0  0  0
 15 29  1  0  0  0  0
 15 32  1  0  0  0  0
 15 33  1  0  0  0  0
 16 36  1  0  0  0  0
 16 41  2  0  0  0  0
 17 35  1  0  0  0  0
 17 46  1  0  0  0  0
 18 57  1  0  0  0  0
 18 63  1  0  0  0  0
 18 64  1  0  0  0  0
 19 20  1  0  0  0  0
 19 21  1  0  0  0  0
 19 23  1  6  0  0  0
 20 21  1  0  0  0  0
 20 27  1  6  0  0  0
 22 24  1  0  0  0  0
 22 25  1  0  0  0  0
 22 28  1  0  0  0  0
 24 25  1  0  0  0  0
 29 26  1  6  0  0  0
 27 34  2  0  0  0  0
 29 30  1  0  0  0  0
 31 30  1  1  0  0  0
 31 33  1  0  0  0  0
 32 35  1  0  0  0  0
 35 38  1  1  0  0  0
 36 37  2  0  0  0  0
 37 39  1  0  0  0  0
 37 43  1  0  0  0  0
 38 47  1  0  0  0  0
 38 48  1  0  0  0  0
 38 49  1  0  0  0  0
 39 40  2  0  0  0  0
 40 41  1  0  0  0  0
 40 44  1  0  0  0  0
 41 45  1  0  0  0  0
 43 52  1  0  0  0  0
 44 50  2  0  0  0  0
 45 51  2  0  0  0  0
 50 51  1  0  0  0  0
 52 56  1  0  0  0  0
 53 57  1  0  0  0  0
 54 55  1  0  0  0  0
 54 58  1  1  0  0  0
 55 59  1  0  0  0  0
 55 60  1  6  0  0  0
 56 61  1  0  0  0  0
 58 62  1  0  0  0  0
 59 61  1  0  0  0  0
 60 62  1  0  0  0  0
 63 66  1  0  0  0  0
 64 65  1  0  0  0  0
M  END
> <PUBCHEM_COMPOUND_ID_TYPE>
0

> <PUBCHEM_TOTAL_CHARGE>
0

> <PUBCHEM_SUBSTANCE_ID>
310929712

> <PUBCHEM_SUBSTANCE_VERSION>
1

> <PUBCHEM_EXT_DATASOURCE_NAME>
4488

> <PUBCHEM_EXT_DATASOURCE_REGID>
SCHEMBL16106905

> <PUBCHEM_SUBSTANCE_COMMENT>
InChI=1S/C48H68N6O11S/c1-6-32-28-48(32,44(57)52-66(59,60)47(19-20-47)30-61-5)51-41(55)37-27-33-29-54(37)43(56)40(46(2,3)4)50-45(58)65-38-18-12-14-31(38)13-8-7-9-16-35-39(63-26-23-53-21-24-62-25-22-53)34-15-10-11-17-36(34)49-42(35)64-33/h6,10-11,15,17,31-33,37-38,40H,1,7-9,12-14,16,18-30H2,2-5H3,(H,50,58)(H,51,55)(H,52,57)/t31-,32-,33-,37+,38-,40-,48-/m1/s1
InChIKey=OAHZWSJMNOLRIC-UCPWVXRUSA-N

> <PUBCHEM_SUBSTANCE_SYNONYM>
SCHEMBL16106905

> <PUBCHEM_XREF_EXT_ID>
SCHEMBL16106905

> <PUBCHEM_EXT_DATASOURCE_URL>
https://www.surechembl.org/

> <PUBCHEM_EXT_SUBSTANCE_URL>
https://www.surechembl.org/chemical/SCHEMBL16106905

> <PUBCHEM_CID_ASSOCIATIONS>
117599009  1

> <PUBCHEM_COORDINATE_TYPE>
1
3

> <PUBCHEM_BONDANNOTATIONS>
19  13  5
19  23  6
20  27  6
29  26  6
31  30  5
35  38  5
54  58  5
55  60  6

$$$$
