310942659
  -OEChem-07211613022D

 54 58  0     1  0  0  0  0  0999 V2000
   -7.5630   -0.2931    0.0000 I   0  0  0  0  0  0  0  0  0  0  0  0
    4.5892    2.8236    0.0000 F   0  0  0  0  0  0  0  0  0  0  0  0
    1.2724    2.9380    0.0000 F   0  0  0  0  0  0  0  0  0  0  0  0
    3.2025   -3.6099    0.0000 F   0  0  0  0  0  0  0  0  0  0  0  0
    2.4876    0.1358    0.0000 O   0  0  0  0  0  0  0  0  0  0  0  0
    1.0293   -0.6362    0.0000 O   0  0  0  0  0  0  0  0  0  0  0  0
    6.0047   -2.0802    0.0000 O   0  0  0  0  0  0  0  0  0  0  0  0
    0.2574   -1.8514    0.0000 O   0  0  0  0  0  0  0  0  0  0  0  0
   -6.1047    0.4789    0.0000 O   0  0  0  0  0  0  0  0  0  0  0  0
    4.6607    0.4789    0.0000 N   0  0  0  0  0  0  0  0  0  0  0  0
    3.1596   -1.1223    0.0000 N   0  0  0  0  0  0  0  0  0  0  0  0
    3.3311    0.6648    0.0000 N   0  0  0  0  0  0  0  0  0  0  0  0
    1.1723   -2.9094    0.0000 N   0  0  0  0  0  0  0  0  0  0  0  0
   -0.4003   -0.5790    0.0000 N   0  0  0  0  0  0  0  0  0  0  0  0
   -5.4328   -0.7935    0.0000 N   0  0  0  0  0  0  0  0  0  0  0  0
    3.9316    0.0930    0.0000 C   0  0  0  0  0  0  0  0  0  0  0  0
    3.8888   -0.7363    0.0000 C   0  0  3  0  0  0  0  0  0  0  0  0
    3.7029    1.4225    0.0000 C   0  0  0  0  0  0  0  0  0  0  0  0
    4.6036   -1.1795    0.0000 C   0  0  0  0  0  0  0  0  0  0  0  0
    4.5321    1.2938    0.0000 C   0  0  0  0  0  0  0  0  0  0  0  0
    3.3169    2.1516    0.0000 C   0  0  0  0  0  0  0  0  0  0  0  0
    2.4590   -0.6934    0.0000 C   0  0  0  0  0  0  0  0  0  0  0  0
    5.3899    0.0357    0.0000 C   0  0  0  0  0  0  0  0  0  0  0  0
    3.1167   -1.9658    0.0000 C   0  0  0  0  0  0  0  0  0  0  0  0
    3.7458    2.8522    0.0000 C   0  0  0  0  0  0  0  0  0  0  0  0
    2.4018   -2.3518    0.0000 C   0  0  3  0  0  0  0  0  0  0  0  0
    4.5750   -2.0087    0.0000 C   0  0  0  0  0  0  0  0  0  0  0  0
    5.3327   -0.7935    0.0000 C   0  0  0  0  0  0  0  0  0  0  0  0
    2.4876    2.1946    0.0000 C   0  0  0  0  0  0  0  0  0  0  0  0
    1.7442   -1.0651    0.0000 C   0  0  3  0  0  0  0  0  0  0  0  0
    6.0904    0.4217    0.0000 C   0  0  0  0  0  0  0  0  0  0  0  0
    2.1016    2.9237    0.0000 C   0  0  0  0  0  0  0  0  0  0  0  0
    2.4876   -3.1524    0.0000 C   0  0  3  0  0  0  0  0  0  0  0  0
    3.3741    3.5813    0.0000 C   0  0  0  0  0  0  0  0  0  0  0  0
    6.0476   -1.2510    0.0000 C   0  0  0  0  0  0  0  0  0  0  0  0
    5.2755   -2.4519    0.0000 C   0  0  0  0  0  0  0  0  0  0  0  0
    1.6298   -2.2089    0.0000 C   0  0  0  0  0  0  0  0  0  0  0  0
    2.5305    3.6099    0.0000 C   0  0  0  0  0  0  0  0  0  0  0  0
    6.1476    1.2510    0.0000 C   0  0  0  0  0  0  0  0  0  0  0  0
    6.8195   -0.0072    0.0000 C   0  0  0  0  0  0  0  0  0  0  0  0
    1.7585   -3.5099    0.0000 C   0  0  0  0  0  0  0  0  0  0  0  0
    1.7013   -1.8800    0.0000 C   0  0  0  0  0  0  0  0  0  0  0  0
    0.3002   -0.9936    0.0000 C   0  0  0  0  0  0  0  0  0  0  0  0
    6.8625    1.6227    0.0000 C   0  0  0  0  0  0  0  0  0  0  0  0
    7.5344    0.3789    0.0000 C   0  0  0  0  0  0  0  0  0  0  0  0
    7.5630    1.1938    0.0000 C   0  0  0  0  0  0  0  0  0  0  0  0
   -1.1151   -0.9508    0.0000 C   0  0  0  0  0  0  0  0  0  0  0  0
   -1.8586   -0.5219    0.0000 C   0  0  0  0  0  0  0  0  0  0  0  0
   -2.5448   -0.8936    0.0000 C   0  0  0  0  0  0  0  0  0  0  0  0
   -3.2882   -0.4647    0.0000 C   0  0  0  0  0  0  0  0  0  0  0  0
   -3.9888   -0.8364    0.0000 C   0  0  0  0  0  0  0  0  0  0  0  0
   -4.7179   -0.4074    0.0000 C   0  0  0  0  0  0  0  0  0  0  0  0
   -6.1476   -0.3646    0.0000 C   0  0  0  0  0  0  0  0  0  0  0  0
   -6.8482   -0.7220    0.0000 C   0  0  0  0  0  0  0  0  0  0  0  0
  1 54  1  0  0  0  0
  2 25  1  0  0  0  0
  3 32  1  0  0  0  0
 33  4  1  1  0  0  0
  5 22  2  0  0  0  0
  6 30  1  0  0  0  0
  6 43  1  0  0  0  0
  7 35  1  0  0  0  0
  7 36  1  0  0  0  0
  8 43  2  0  0  0  0
  9 53  2  0  0  0  0
 10 16  1  0  0  0  0
 10 20  1  0  0  0  0
 10 23  1  0  0  0  0
 17 11  1  1  0  0  0
 11 22  1  0  0  0  0
 11 24  1  0  0  0  0
 12 16  2  0  0  0  0
 12 18  1  0  0  0  0
 13 37  1  0  0  0  0
 13 41  1  0  0  0  0
 14 43  1  0  0  0  0
 14 47  1  0  0  0  0
 15 52  1  0  0  0  0
 15 53  1  0  0  0  0
 16 17  1  0  0  0  0
 17 19  1  0  0  0  0
 18 20  2  0  0  0  0
 18 21  1  0  0  0  0
 19 27  1  0  0  0  0
 19 28  1  0  0  0  0
 21 25  1  0  0  0  0
 21 29  2  0  0  0  0
 22 30  1  0  0  0  0
 23 31  1  0  0  0  0
 26 24  1  1  0  0  0
 25 34  2  0  0  0  0
 26 33  1  0  0  0  0
 26 37  1  0  0  0  0
 27 36  1  0  0  0  0
 28 35  1  0  0  0  0
 29 32  1  0  0  0  0
 30 42  1  6  0  0  0
 31 39  2  0  0  0  0
 31 40  1  0  0  0  0
 32 38  2  0  0  0  0
 33 41  1  0  0  0  0
 34 38  1  0  0  0  0
 39 44  1  0  0  0  0
 40 45  2  0  0  0  0
 44 46  2  0  0  0  0
 45 46  1  0  0  0  0
 47 48  1  0  0  0  0
 48 49  1  0  0  0  0
 49 50  1  0  0  0  0
 50 51  1  0  0  0  0
 51 52  1  0  0  0  0
 53 54  1  0  0  0  0
M  END
> <PUBCHEM_COMPOUND_ID_TYPE>
0

> <PUBCHEM_TOTAL_CHARGE>
0

> <PUBCHEM_SUBSTANCE_ID>
310942659

> <PUBCHEM_SUBSTANCE_VERSION>
1

> <PUBCHEM_EXT_DATASOURCE_NAME>
4488

> <PUBCHEM_EXT_DATASOURCE_REGID>
SCHEMBL16120705

> <PUBCHEM_SUBSTANCE_COMMENT>
InChI=1S/C39H50F3IN6O5/c1-26(54-39(52)46-16-8-3-2-7-15-45-35(50)20-43)38(51)49(24-29-21-44-22-33(29)42)36(28-13-17-53-18-14-28)37-47-34(31-19-30(40)11-12-32(31)41)25-48(37)23-27-9-5-4-6-10-27/h4-6,9-12,19,25-26,28-29,33,36,44H,2-3,7-8,13-18,20-24H2,1H3,(H,45,50)(H,46,52)/t26-,29-,33-,36+/m0/s1
InChIKey=IJSYTZSIFLFROT-GFCKMJFLSA-N

> <PUBCHEM_SUBSTANCE_SYNONYM>
SCHEMBL16120705

> <PUBCHEM_XREF_EXT_ID>
SCHEMBL16120705

> <PUBCHEM_EXT_DATASOURCE_URL>
https://www.surechembl.org/

> <PUBCHEM_EXT_SUBSTANCE_URL>
https://www.surechembl.org/chemical/SCHEMBL16120705

> <PUBCHEM_CID_ASSOCIATIONS>
86271265  1

> <PUBCHEM_COORDINATE_TYPE>
1
3

> <PUBCHEM_BONDANNOTATIONS>
17  11  5
26  24  5
30  42  6
33  4  5

$$$$
