310930372
  -OEChem-07211613022D

 23 24  0     0  0  0  0  0  0999 V2000
    1.3990   -4.9086    0.0000 Br  0  0  0  0  0  0  0  0  0  0  0  0
    1.3990    0.0000    0.0000 F   0  0  0  0  0  0  0  0  0  0  0  0
    3.5096   -2.0371    0.0000 O   0  0  0  0  0  0  0  0  0  0  0  0
    4.9331   -3.6815    0.0000 O   0  0  0  0  0  0  0  0  0  0  0  0
    0.0000   -2.4543    0.0000 O   0  0  0  0  0  0  0  0  0  0  0  0
    4.2214   -2.4543    0.0000 O   0  0  0  0  0  0  0  0  0  0  0  0
    2.7979   -3.2642    0.0000 C   0  0  0  0  0  0  0  0  0  0  0  0
    2.7979   -2.4543    0.0000 C   0  0  0  0  0  0  0  0  0  0  0  0
    3.5096   -3.6815    0.0000 C   0  0  0  0  0  0  0  0  0  0  0  0
    2.0861   -2.0371    0.0000 C   0  0  0  0  0  0  0  0  0  0  0  0
    2.0861   -3.6815    0.0000 C   0  0  0  0  0  0  0  0  0  0  0  0
    4.2214   -3.2642    0.0000 C   0  0  0  0  0  0  0  0  0  0  0  0
    1.3990   -2.4543    0.0000 C   0  0  0  0  0  0  0  0  0  0  0  0
    3.5096   -4.4914    0.0000 C   0  0  0  0  0  0  0  0  0  0  0  0
    2.1107   -1.2271    0.0000 C   0  0  0  0  0  0  0  0  0  0  0  0
    2.0861   -4.4914    0.0000 C   0  0  0  0  0  0  0  0  0  0  0  0
    0.6872   -2.0371    0.0000 C   0  0  0  0  0  0  0  0  0  0  0  0
    1.3990   -0.8099    0.0000 C   0  0  0  0  0  0  0  0  0  0  0  0
    2.7979   -4.9086    0.0000 C   0  0  0  0  0  0  0  0  0  0  0  0
    0.6872   -1.2271    0.0000 C   0  0  0  0  0  0  0  0  0  0  0  0
    5.6449   -3.2642    0.0000 C   0  0  0  0  0  0  0  0  0  0  0  0
    0.0000   -3.2642    0.0000 C   0  0  0  0  0  0  0  0  0  0  0  0
    5.6449   -2.4543    0.0000 C   0  0  0  0  0  0  0  0  0  0  0  0
  1 16  1  0  0  0  0
  2 18  1  0  0  0  0
  3  8  2  0  0  0  0
  4 12  1  0  0  0  0
  4 21  1  0  0  0  0
  5 17  1  0  0  0  0
  5 22  1  0  0  0  0
  6 12  2  0  0  0  0
  7  8  1  0  0  0  0
  7  9  2  0  0  0  0
  7 11  1  0  0  0  0
  8 10  1  0  0  0  0
  9 12  1  0  0  0  0
  9 14  1  0  0  0  0
 10 13  1  0  0  0  0
 10 15  2  0  0  0  0
 11 16  2  0  0  0  0
 13 17  2  0  0  0  0
 14 19  2  0  0  0  0
 15 18  1  0  0  0  0
 16 19  1  0  0  0  0
 17 20  1  0  0  0  0
 18 20  2  0  0  0  0
 21 23  1  0  0  0  0
M  END
> <PUBCHEM_COMPOUND_ID_TYPE>
0

> <PUBCHEM_TOTAL_CHARGE>
0

> <PUBCHEM_SUBSTANCE_ID>
310930372

> <PUBCHEM_SUBSTANCE_VERSION>
1

> <PUBCHEM_EXT_DATASOURCE_NAME>
4488

> <PUBCHEM_EXT_DATASOURCE_REGID>
SCHEMBL16107657

> <PUBCHEM_SUBSTANCE_COMMENT>
InChI=1S/C17H14BrFO4/c1-3-23-17(21)14-5-4-11(18)8-15(14)16(20)10-6-12(19)9-13(7-10)22-2/h4-9H,3H2,1-2H3
InChIKey=VYIWSOWKXQPCCW-UHFFFAOYSA-N

> <PUBCHEM_SUBSTANCE_SYNONYM>
SCHEMBL16107657

> <PUBCHEM_XREF_EXT_ID>
SCHEMBL16107657

> <PUBCHEM_EXT_DATASOURCE_URL>
https://www.surechembl.org/

> <PUBCHEM_EXT_SUBSTANCE_URL>
https://www.surechembl.org/chemical/SCHEMBL16107657

> <PUBCHEM_CID_ASSOCIATIONS>
117599527  1

> <PUBCHEM_COORDINATE_TYPE>
1
3

$$$$
