310936538
  -OEChem-07211613022D

 16 17  0     0  0  0  0  0  0999 V2000
    3.6991   -2.1245    0.0000 O   0  0  0  0  0  0  0  0  0  0  0  0
    0.0000   -4.2990    0.0000 O   0  0  0  0  0  0  0  0  0  0  0  0
    1.2497   -4.9988    0.0000 O   0  0  0  0  0  0  0  0  0  0  0  0
    1.2247   -3.5742    0.0000 N   0  0  0  0  0  0  0  0  0  0  0  0
    2.0495   -2.1495    0.0000 C   0  0  0  0  0  0  0  0  0  0  0  0
    2.4494   -1.4497    0.0000 C   0  0  0  0  0  0  0  0  0  0  0  0
    3.2742   -1.4247    0.0000 C   0  0  0  0  0  0  0  0  0  0  0  0
    1.2247   -2.1495    0.0000 C   0  0  0  0  0  0  0  0  0  0  0  0
    2.4744   -2.8743    0.0000 C   0  0  0  0  0  0  0  0  0  0  0  0
    0.7998   -2.8743    0.0000 C   0  0  0  0  0  0  0  0  0  0  0  0
    2.0495   -3.5742    0.0000 C   0  0  0  0  0  0  0  0  0  0  0  0
    2.0246   -0.7249    0.0000 C   0  0  0  0  0  0  0  0  0  0  0  0
    0.8248   -4.2990    0.0000 C   0  0  0  0  0  0  0  0  0  0  0  0
    3.6741   -0.6999    0.0000 C   0  0  0  0  0  0  0  0  0  0  0  0
    2.4244    0.0000    0.0000 C   0  0  0  0  0  0  0  0  0  0  0  0
    3.2492    0.0000    0.0000 C   0  0  0  0  0  0  0  0  0  0  0  0
  1  7  1  0  0  0  0
  2 13  2  0  0  0  0
  3 13  1  0  0  0  0
  4 10  1  0  0  0  0
  4 11  1  0  0  0  0
  4 13  1  0  0  0  0
  5  6  1  0  0  0  0
  5  8  2  0  0  0  0
  5  9  1  0  0  0  0
  6  7  1  0  0  0  0
  6 12  2  0  0  0  0
  7 14  2  0  0  0  0
  8 10  1  0  0  0  0
  9 11  1  0  0  0  0
 12 15  1  0  0  0  0
 14 16  1  0  0  0  0
 15 16  2  0  0  0  0
M  END
> <PUBCHEM_COMPOUND_ID_TYPE>
0

> <PUBCHEM_TOTAL_CHARGE>
0

> <PUBCHEM_SUBSTANCE_ID>
310936538

> <PUBCHEM_SUBSTANCE_VERSION>
1

> <PUBCHEM_EXT_DATASOURCE_NAME>
4488

> <PUBCHEM_EXT_DATASOURCE_REGID>
SCHEMBL16114190

> <PUBCHEM_SUBSTANCE_COMMENT>
InChI=1S/C12H13NO3/c14-11-4-2-1-3-10(11)9-5-7-13(8-6-9)12(15)16/h1-5,14H,6-8H2,(H,15,16)
InChIKey=UKPHRMZRHAQASH-UHFFFAOYSA-N

> <PUBCHEM_SUBSTANCE_SYNONYM>
SCHEMBL16114190

> <PUBCHEM_XREF_EXT_ID>
SCHEMBL16114190

> <PUBCHEM_EXT_DATASOURCE_URL>
https://www.surechembl.org/

> <PUBCHEM_EXT_SUBSTANCE_URL>
https://www.surechembl.org/chemical/SCHEMBL16114190

> <PUBCHEM_CID_ASSOCIATIONS>
117604460  1

> <PUBCHEM_COORDINATE_TYPE>
1
3

$$$$
