310930101
  -OEChem-07211613022D

 14 15  0     0  0  0  0  0  0999 V2000
    5.5720   -1.4487    0.0000 O   0  0  0  0  0  0  0  0  0  0  0  0
    5.3305    0.0000    0.0000 O   0  0  0  0  0  0  0  0  0  0  0  0
    0.0000   -1.8944    0.0000 O   0  0  0  0  0  0  0  0  0  0  0  0
    4.2904   -1.0215    0.0000 C   0  0  0  0  0  0  0  0  0  0  0  0
    4.2904   -1.8759    0.0000 C   0  0  0  0  0  0  0  0  0  0  0  0
    5.0705   -0.7801    0.0000 C   0  0  0  0  0  0  0  0  0  0  0  0
    5.0705   -2.1173    0.0000 C   0  0  0  0  0  0  0  0  0  0  0  0
    3.5660   -2.2845    0.0000 C   0  0  0  0  0  0  0  0  0  0  0  0
    3.5660   -0.6129    0.0000 C   0  0  0  0  0  0  0  0  0  0  0  0
    2.8603   -1.8759    0.0000 C   0  0  0  0  0  0  0  0  0  0  0  0
    2.8603   -1.0215    0.0000 C   0  0  0  0  0  0  0  0  0  0  0  0
    2.1545   -2.3031    0.0000 C   0  0  0  0  0  0  0  0  0  0  0  0
    1.4302   -1.8759    0.0000 C   0  0  0  0  0  0  0  0  0  0  0  0
    0.7244   -2.3031    0.0000 C   0  0  0  0  0  0  0  0  0  0  0  0
  1  6  1  0  0  0  0
  1  7  1  0  0  0  0
  2  6  2  0  0  0  0
  3 14  1  0  0  0  0
  4  5  2  0  0  0  0
  4  6  1  0  0  0  0
  4  9  1  0  0  0  0
  5  7  1  0  0  0  0
  5  8  1  0  0  0  0
  8 10  2  0  0  0  0
  9 11  2  0  0  0  0
 10 11  1  0  0  0  0
 10 12  1  0  0  0  0
 12 13  2  0  0  0  0
 13 14  1  0  0  0  0
M  END
> <PUBCHEM_COMPOUND_ID_TYPE>
0

> <PUBCHEM_TOTAL_CHARGE>
0

> <PUBCHEM_SUBSTANCE_ID>
310930101

> <PUBCHEM_SUBSTANCE_VERSION>
1

> <PUBCHEM_EXT_DATASOURCE_NAME>
4488

> <PUBCHEM_EXT_DATASOURCE_REGID>
SCHEMBL16107347

> <PUBCHEM_SUBSTANCE_COMMENT>
InChI=1S/C11H10O3/c12-5-1-2-8-3-4-10-9(6-8)7-14-11(10)13/h1-4,6,12H,5,7H2/b2-1+
InChIKey=ZGEPSOWDNLAPAD-OWOJBTEDSA-N

> <PUBCHEM_SUBSTANCE_SYNONYM>
SCHEMBL16107347

> <PUBCHEM_XREF_EXT_ID>
SCHEMBL16107347

> <PUBCHEM_EXT_DATASOURCE_URL>
https://www.surechembl.org/

> <PUBCHEM_EXT_SUBSTANCE_URL>
https://www.surechembl.org/chemical/SCHEMBL16107347

> <PUBCHEM_CID_ASSOCIATIONS>
117599332  1

> <PUBCHEM_COORDINATE_TYPE>
1
3

$$$$
