310934004
  -OEChem-07211613022D

 42 47  0     0  0  0  0  0  0999 V2000
    7.1572   -7.4812    0.0000 O   0  0  0  0  0  0  0  0  0  0  0  0
    6.0953   -8.4374    0.0000 O   0  0  0  0  0  0  0  0  0  0  0  0
   -2.8579   -0.4125    0.0000 O   0  0  0  0  0  0  0  0  0  0  0  0
    1.1270   -2.9196    0.0000 N   0  0  0  0  0  0  0  0  0  0  0  0
    0.3020   -2.9196    0.0000 N   0  0  0  0  0  0  0  0  0  0  0  0
    2.1889   -1.9634    0.0000 N   0  0  0  0  0  0  0  0  0  0  0  0
    0.7144    0.8250    0.0000 N   0  0  0  0  0  0  0  0  0  0  0  0
    4.6941   -5.8135    0.0000 N   0  0  0  0  0  0  0  0  0  0  0  0
   -2.1434    0.8250    0.0000 N   0  0  0  0  0  0  0  0  0  0  0  0
    5.7982   -7.0397    0.0000 N   0  0  0  0  0  0  0  0  0  0  0  0
    0.7144   -1.6500    0.0000 C   0  0  0  0  0  0  0  0  0  0  0  0
    1.3819   -2.1349    0.0000 C   0  0  0  0  0  0  0  0  0  0  0  0
    0.7144   -0.8250    0.0000 C   0  0  0  0  0  0  0  0  0  0  0  0
    0.0000   -0.4125    0.0000 C   0  0  0  0  0  0  0  0  0  0  0  0
    0.0470   -2.1349    0.0000 C   0  0  0  0  0  0  0  0  0  0  0  0
    0.0000    0.4125    0.0000 C   0  0  0  0  0  0  0  0  0  0  0  0
    2.4860   -3.3611    0.0000 C   0  0  0  0  0  0  0  0  0  0  0  0
    1.6790   -3.5327    0.0000 C   0  0  0  0  0  0  0  0  0  0  0  0
    1.4290   -0.4125    0.0000 C   0  0  0  0  0  0  0  0  0  0  0  0
    2.7409   -2.5765    0.0000 C   0  0  0  0  0  0  0  0  0  0  0  0
    3.0380   -3.9742    0.0000 C   0  0  0  0  0  0  0  0  0  0  0  0
   -0.7144   -0.8250    0.0000 C   0  0  0  0  0  0  0  0  0  0  0  0
   -0.7144    0.8250    0.0000 C   0  0  0  0  0  0  0  0  0  0  0  0
   -1.4290    0.4125    0.0000 C   0  0  0  0  0  0  0  0  0  0  0  0
    1.4290    0.4125    0.0000 C   0  0  0  0  0  0  0  0  0  0  0  0
   -1.4290   -0.4125    0.0000 C   0  0  0  0  0  0  0  0  0  0  0  0
    4.1421   -5.2004    0.0000 C   0  0  0  0  0  0  0  0  0  0  0  0
    3.8450   -3.8027    0.0000 C   0  0  0  0  0  0  0  0  0  0  0  0
    2.7831   -4.7588    0.0000 C   0  0  0  0  0  0  0  0  0  0  0  0
    4.3970   -4.4158    0.0000 C   0  0  0  0  0  0  0  0  0  0  0  0
    3.3351   -5.3719    0.0000 C   0  0  0  0  0  0  0  0  0  0  0  0
    4.4391   -6.5981    0.0000 C   0  0  0  0  0  0  0  0  0  0  0  0
    5.5011   -5.6419    0.0000 C   0  0  0  0  0  0  0  0  0  0  0  0
    4.9912   -7.2112    0.0000 C   0  0  0  0  0  0  0  0  0  0  0  0
    6.0531   -6.2550    0.0000 C   0  0  0  0  0  0  0  0  0  0  0  0
    6.3502   -7.6528    0.0000 C   0  0  0  0  0  0  0  0  0  0  0  0
   -2.8579    0.4125    0.0000 C   0  0  0  0  0  0  0  0  0  0  0  0
    7.7092   -8.0944    0.0000 C   0  0  0  0  0  0  0  0  0  0  0  0
   -3.5724    0.8250    0.0000 C   0  0  0  0  0  0  0  0  0  0  0  0
    8.2613   -8.7075    0.0000 C   0  0  0  0  0  0  0  0  0  0  0  0
    7.4543   -8.8789    0.0000 C   0  0  0  0  0  0  0  0  0  0  0  0
    8.5162   -7.9228    0.0000 C   0  0  0  0  0  0  0  0  0  0  0  0
  1 36  1  0  0  0  0
  1 38  1  0  0  0  0
  2 36  2  0  0  0  0
  3 37  2  0  0  0  0
  4  5  1  0  0  0  0
  4 12  1  0  0  0  0
  4 18  1  0  0  0  0
  5 15  2  0  0  0  0
  6 12  1  0  0  0  0
  6 20  2  0  0  0  0
  7 16  1  0  0  0  0
  7 25  2  0  0  0  0
  8 27  1  0  0  0  0
  8 32  1  0  0  0  0
  8 33  1  0  0  0  0
  9 24  1  0  0  0  0
  9 37  1  0  0  0  0
 10 34  1  0  0  0  0
 10 35  1  0  0  0  0
 10 36  1  0  0  0  0
 11 12  2  0  0  0  0
 11 13  1  0  0  0  0
 11 15  1  0  0  0  0
 13 14  1  0  0  0  0
 13 19  2  0  0  0  0
 14 16  1  0  0  0  0
 14 22  2  0  0  0  0
 16 23  2  0  0  0  0
 17 18  2  0  0  0  0
 17 20  1  0  0  0  0
 17 21  1  0  0  0  0
 19 25  1  0  0  0  0
 21 28  2  0  0  0  0
 21 29  1  0  0  0  0
 22 26  1  0  0  0  0
 23 24  1  0  0  0  0
 24 26  2  0  0  0  0
 27 30  2  0  0  0  0
 27 31  1  0  0  0  0
 28 30  1  0  0  0  0
 29 31  2  0  0  0  0
 32 34  1  0  0  0  0
 33 35  1  0  0  0  0
 37 39  1  0  0  0  0
 38 40  1  0  0  0  0
 38 41  1  0  0  0  0
 38 42  1  0  0  0  0
M  END
> <PUBCHEM_COMPOUND_ID_TYPE>
0

> <PUBCHEM_TOTAL_CHARGE>
0

> <PUBCHEM_SUBSTANCE_ID>
310934004

> <PUBCHEM_SUBSTANCE_VERSION>
1

> <PUBCHEM_EXT_DATASOURCE_NAME>
4488

> <PUBCHEM_EXT_DATASOURCE_REGID>
SCHEMBL16111448

> <PUBCHEM_SUBSTANCE_COMMENT>
InChI=1S/C32H33N7O3/c1-21(40)36-24-7-10-27-26(11-12-33-29(27)17-24)28-19-35-39-20-23(18-34-30(28)39)22-5-8-25(9-6-22)37-13-15-38(16-14-37)31(41)42-32(2,3)4/h5-12,17-20H,13-16H2,1-4H3,(H,36,40)
InChIKey=FGIGYVQAMQWMPE-UHFFFAOYSA-N

> <PUBCHEM_SUBSTANCE_SYNONYM>
SCHEMBL16111448

> <PUBCHEM_XREF_EXT_ID>
SCHEMBL16111448

> <PUBCHEM_EXT_DATASOURCE_URL>
https://www.surechembl.org/

> <PUBCHEM_EXT_SUBSTANCE_URL>
https://www.surechembl.org/chemical/SCHEMBL16111448

> <PUBCHEM_CID_ASSOCIATIONS>
117602308  1

> <PUBCHEM_COORDINATE_TYPE>
1
3

$$$$
