310936945
  -OEChem-07211613022D

 25 27  0     0  0  0  0  0  0999 V2000
    0.0000   -4.5279    0.0000 Cl  0  0  0  0  0  0  0  0  0  0  0  0
    3.5599   -5.8394    0.0000 O   0  0  0  0  0  0  0  0  0  0  0  0
    6.4327    0.0000    0.0000 O   0  0  0  0  0  0  0  0  0  0  0  0
    7.1509   -1.2491    0.0000 O   0  0  0  0  0  0  0  0  0  0  0  0
    2.8729   -3.7472    0.0000 N   0  0  0  0  0  0  0  0  0  0  0  0
    4.2781   -4.5591    0.0000 N   0  0  0  0  0  0  0  0  0  0  0  0
    2.8729   -4.5591    0.0000 C   0  0  0  0  0  0  0  0  0  0  0  0
    2.1234   -4.9651    0.0000 C   0  0  0  0  0  0  0  0  0  0  0  0
    3.5599   -4.9963    0.0000 C   0  0  0  0  0  0  0  0  0  0  0  0
    3.5599   -3.3100    0.0000 C   0  0  0  0  0  0  0  0  0  0  0  0
    4.2781   -3.7472    0.0000 C   0  0  0  0  0  0  0  0  0  0  0  0
    1.4364   -4.5591    0.0000 C   0  0  0  0  0  0  0  0  0  0  0  0
    3.5911   -2.4982    0.0000 C   0  0  0  0  0  0  0  0  0  0  0  0
    4.3093   -2.0610    0.0000 C   0  0  0  0  0  0  0  0  0  0  0  0
    2.1234   -5.8082    0.0000 C   0  0  0  0  0  0  0  0  0  0  0  0
    0.6870   -4.9338    0.0000 C   0  0  0  0  0  0  0  0  0  0  0  0
    5.7457   -1.2491    0.0000 C   0  0  0  0  0  0  0  0  0  0  0  0
    1.4052   -6.2141    0.0000 C   0  0  0  0  0  0  0  0  0  0  0  0
    4.3093   -1.2491    0.0000 C   0  0  0  0  0  0  0  0  0  0  0  0
    5.0275   -2.4982    0.0000 C   0  0  0  0  0  0  0  0  0  0  0  0
    0.6870   -5.7770    0.0000 C   0  0  0  0  0  0  0  0  0  0  0  0
    5.0275   -0.8431    0.0000 C   0  0  0  0  0  0  0  0  0  0  0  0
    5.7457   -2.0610    0.0000 C   0  0  0  0  0  0  0  0  0  0  0  0
    6.4327   -0.8431    0.0000 C   0  0  0  0  0  0  0  0  0  0  0  0
    4.2781   -6.2454    0.0000 C   0  0  0  0  0  0  0  0  0  0  0  0
  1 16  1  0  0  0  0
  2  9  1  0  0  0  0
  2 25  1  0  0  0  0
  3 24  2  0  0  0  0
  4 24  1  0  0  0  0
  5  7  1  0  0  0  0
  5 10  2  0  0  0  0
  6  9  1  0  0  0  0
  6 11  2  0  0  0  0
  7  8  1  0  0  0  0
  7  9  2  0  0  0  0
  8 12  1  0  0  0  0
  8 15  2  0  0  0  0
 10 11  1  0  0  0  0
 10 13  1  0  0  0  0
 12 16  2  0  0  0  0
 13 14  1  0  0  0  0
 14 19  2  0  0  0  0
 14 20  1  0  0  0  0
 15 18  1  0  0  0  0
 16 21  1  0  0  0  0
 17 22  2  0  0  0  0
 17 23  1  0  0  0  0
 17 24  1  0  0  0  0
 18 21  2  0  0  0  0
 19 22  1  0  0  0  0
 20 23  2  0  0  0  0
M  END
> <PUBCHEM_COMPOUND_ID_TYPE>
0

> <PUBCHEM_TOTAL_CHARGE>
0

> <PUBCHEM_SUBSTANCE_ID>
310936945

> <PUBCHEM_SUBSTANCE_VERSION>
1

> <PUBCHEM_EXT_DATASOURCE_NAME>
4488

> <PUBCHEM_EXT_DATASOURCE_REGID>
SCHEMBL16114648

> <PUBCHEM_SUBSTANCE_COMMENT>
InChI=1S/C19H15ClN2O3/c1-25-18-17(14-3-2-4-15(20)10-14)22-16(11-21-18)9-12-5-7-13(8-6-12)19(23)24/h2-8,10-11H,9H2,1H3,(H,23,24)
InChIKey=UXENENIJWKGRAA-UHFFFAOYSA-N

> <PUBCHEM_SUBSTANCE_SYNONYM>
SCHEMBL16114648

> <PUBCHEM_XREF_EXT_ID>
SCHEMBL16114648

> <PUBCHEM_EXT_DATASOURCE_URL>
https://www.surechembl.org/

> <PUBCHEM_EXT_SUBSTANCE_URL>
https://www.surechembl.org/chemical/SCHEMBL16114648

> <PUBCHEM_CID_ASSOCIATIONS>
117604813  1

> <PUBCHEM_COORDINATE_TYPE>
1
3

$$$$
