310942245
  -OEChem-07211613022D

 43 46  0     1  0  0  0  0  0999 V2000
   -3.0695    0.0237    0.0000 F   0  0  0  0  0  0  0  0  0  0  0  0
    3.6383   -1.1851    0.0000 F   0  0  0  0  0  0  0  0  0  0  0  0
   -2.7376   -3.3657    0.0000 F   0  0  0  0  0  0  0  0  0  0  0  0
   -0.4859   -1.9436    0.0000 O   0  0  0  0  0  0  0  0  0  0  0  0
    0.3200   -3.4368    0.0000 O   0  0  0  0  0  0  0  0  0  0  0  0
    2.8561    2.7020    0.0000 O   0  0  0  0  0  0  0  0  0  0  0  0
   -0.8414    0.4503    0.0000 N   0  0  0  0  0  0  0  0  0  0  0  0
    0.8414   -0.9955    0.0000 N   0  0  0  0  0  0  0  0  0  0  0  0
   -0.8414   -0.9481    0.0000 N   0  0  0  0  0  0  0  0  0  0  0  0
    2.5717   -3.0813    0.0000 N   0  0  0  0  0  0  0  0  0  0  0  0
    1.6473    1.9673    0.0000 N   0  0  0  0  0  0  0  0  0  0  0  0
    0.4385   -0.2607    0.0000 C   0  0  3  0  0  0  0  0  0  0  0  0
   -0.3911   -0.2370    0.0000 C   0  0  0  0  0  0  0  0  0  0  0  0
    0.8414    0.4978    0.0000 C   0  0  0  0  0  0  0  0  0  0  0  0
   -1.6236   -0.6636    0.0000 C   0  0  0  0  0  0  0  0  0  0  0  0
   -1.5999    0.1896    0.0000 C   0  0  0  0  0  0  0  0  0  0  0  0
   -2.2636   -1.1614    0.0000 C   0  0  0  0  0  0  0  0  0  0  0  0
    0.3200   -1.9673    0.0000 C   0  0  0  0  0  0  0  0  0  0  0  0
    1.8843   -0.9955    0.0000 C   0  0  0  0  0  0  0  0  0  0  0  0
   -0.5807    1.2325    0.0000 C   0  0  0  0  0  0  0  0  0  0  0  0
    1.6236    0.4741    0.0000 C   0  0  0  0  0  0  0  0  0  0  0  0
   -2.9983   -0.8059    0.0000 C   0  0  0  0  0  0  0  0  0  0  0  0
    2.2872   -1.7066    0.0000 C   0  0  3  0  0  0  0  0  0  0  0  0
    0.1303    0.9007    0.0000 C   0  0  0  0  0  0  0  0  0  0  0  0
    0.8414    1.3510    0.0000 C   0  0  0  0  0  0  0  0  0  0  0  0
   -2.1924   -2.0147    0.0000 C   0  0  0  0  0  0  0  0  0  0  0  0
    0.7229   -2.6783    0.0000 C   0  0  3  0  0  0  0  0  0  0  0  0
   -1.1495    1.8961    0.0000 C   0  0  0  0  0  0  0  0  0  0  0  0
    3.0931   -1.8251    0.0000 C   0  0  3  0  0  0  0  0  0  0  0  0
   -2.8324   -2.5124    0.0000 C   0  0  0  0  0  0  0  0  0  0  0  0
   -3.6383   -1.3273    0.0000 C   0  0  0  0  0  0  0  0  0  0  0  0
    2.0502    1.2088    0.0000 C   0  0  0  0  0  0  0  0  0  0  0  0
    1.9791   -2.4887    0.0000 C   0  0  0  0  0  0  0  0  0  0  0  0
   -3.5672   -2.1806    0.0000 C   0  0  0  0  0  0  0  0  0  0  0  0
    3.2353   -2.6783    0.0000 C   0  0  0  0  0  0  0  0  0  0  0  0
   -0.8889    2.6783    0.0000 C   0  0  0  0  0  0  0  0  0  0  0  0
   -1.9318    1.7303    0.0000 C   0  0  0  0  0  0  0  0  0  0  0  0
    1.5051   -2.6783    0.0000 C   0  0  0  0  0  0  0  0  0  0  0  0
   -1.4103    3.3183    0.0000 C   0  0  0  0  0  0  0  0  0  0  0  0
   -2.4295    2.3228    0.0000 C   0  0  0  0  0  0  0  0  0  0  0  0
   -2.1924    3.1524    0.0000 C   0  0  0  0  0  0  0  0  0  0  0  0
    2.0266    2.7257    0.0000 C   0  0  0  0  0  0  0  0  0  0  0  0
    1.6710    3.4368    0.0000 C   0  0  0  0  0  0  0  0  0  0  0  0
  1 22  1  0  0  0  0
 29  2  1  1  0  0  0
  3 30  1  0  0  0  0
  4 18  2  0  0  0  0
 27  5  1  6  0  0  0
  6 42  2  0  0  0  0
  7 13  1  0  0  0  0
  7 16  1  0  0  0  0
  7 20  1  0  0  0  0
 12  8  1  1  0  0  0
  8 18  1  0  0  0  0
  8 19  1  0  0  0  0
  9 13  2  0  0  0  0
  9 15  1  0  0  0  0
 10 33  1  0  0  0  0
 10 35  1  0  0  0  0
 11 32  1  0  0  0  0
 11 42  1  0  0  0  0
 12 13  1  0  0  0  0
 12 14  1  0  0  0  0
 14 21  1  0  0  0  0
 14 24  1  0  0  0  0
 14 25  1  0  0  0  0
 15 16  2  0  0  0  0
 15 17  1  0  0  0  0
 17 22  2  0  0  0  0
 17 26  1  0  0  0  0
 18 27  1  0  0  0  0
 23 19  1  1  0  0  0
 20 28  1  0  0  0  0
 21 32  1  0  0  0  0
 22 31  1  0  0  0  0
 23 29  1  0  0  0  0
 23 33  1  0  0  0  0
 26 30  2  0  0  0  0
 27 38  1  0  0  0  0
 28 36  2  0  0  0  0
 28 37  1  0  0  0  0
 29 35  1  0  0  0  0
 30 34  1  0  0  0  0
 31 34  2  0  0  0  0
 36 39  1  0  0  0  0
 37 40  2  0  0  0  0
 39 41  2  0  0  0  0
 40 41  1  0  0  0  0
 42 43  1  0  0  0  0
M  END
> <PUBCHEM_COMPOUND_ID_TYPE>
0

> <PUBCHEM_TOTAL_CHARGE>
0

> <PUBCHEM_SUBSTANCE_ID>
310942245

> <PUBCHEM_SUBSTANCE_VERSION>
1

> <PUBCHEM_EXT_DATASOURCE_NAME>
4488

> <PUBCHEM_EXT_DATASOURCE_REGID>
SCHEMBL16120280

> <PUBCHEM_SUBSTANCE_COMMENT>
InChI=1S/C32H40F3N5O3/c1-20(41)31(43)40(18-23-15-36-16-27(23)35)29(32(3,4)12-13-37-21(2)42)30-38-28(25-14-24(33)10-11-26(25)34)19-39(30)17-22-8-6-5-7-9-22/h5-11,14,19-20,23,27,29,36,41H,12-13,15-18H2,1-4H3,(H,37,42)/t20-,23-,27-,29-/m0/s1
InChIKey=NRASINGFFWWKQO-PJBKDUDCSA-N

> <PUBCHEM_SUBSTANCE_SYNONYM>
SCHEMBL16120280

> <PUBCHEM_XREF_EXT_ID>
SCHEMBL16120280

> <PUBCHEM_EXT_DATASOURCE_URL>
https://www.surechembl.org/

> <PUBCHEM_EXT_SUBSTANCE_URL>
https://www.surechembl.org/chemical/SCHEMBL16120280

> <PUBCHEM_CID_ASSOCIATIONS>
117608896  1

> <PUBCHEM_COORDINATE_TYPE>
1
3

> <PUBCHEM_BONDANNOTATIONS>
23  19  5
29  2  5
27  5  6
12  8  5

$$$$
