310939099
  -OEChem-07211613022D

 20 22  0     0  0  0  0  0  0999 V2000
   -1.3492   -1.2375    0.0000 F   0  0  0  0  0  0  0  0  0  0  0  0
    0.0797    1.2375    0.0000 F   0  0  0  0  0  0  0  0  0  0  0  0
    0.0797   -0.4125    0.0000 O   0  0  0  0  0  0  0  0  0  0  0  0
    3.0077    1.0799    0.0000 O   0  0  0  0  0  0  0  0  0  0  0  0
   -3.4927    0.0000    0.0000 N   0  0  0  0  0  0  0  0  0  0  0  0
   -0.6348    0.0000    0.0000 C   0  0  0  0  0  0  0  0  0  0  0  0
   -1.3492   -0.4125    0.0000 C   0  0  0  0  0  0  0  0  0  0  0  0
    0.7942    0.0000    0.0000 C   0  0  0  0  0  0  0  0  0  0  0  0
   -0.6348    0.8250    0.0000 C   0  0  0  0  0  0  0  0  0  0  0  0
   -2.0637    0.0000    0.0000 C   0  0  0  0  0  0  0  0  0  0  0  0
    2.2231    0.0000    0.0000 C   0  0  0  0  0  0  0  0  0  0  0  0
    2.2231    0.8250    0.0000 C   0  0  0  0  0  0  0  0  0  0  0  0
    1.5086   -0.4125    0.0000 C   0  0  0  0  0  0  0  0  0  0  0  0
   -1.3492    1.2375    0.0000 C   0  0  0  0  0  0  0  0  0  0  0  0
    0.7942    0.8250    0.0000 C   0  0  0  0  0  0  0  0  0  0  0  0
   -2.0637    0.8250    0.0000 C   0  0  0  0  0  0  0  0  0  0  0  0
    1.5086    1.2375    0.0000 C   0  0  0  0  0  0  0  0  0  0  0  0
    3.0077   -0.2549    0.0000 C   0  0  0  0  0  0  0  0  0  0  0  0
   -2.7782   -0.4125    0.0000 C   0  0  0  0  0  0  0  0  0  0  0  0
    3.4927    0.4125    0.0000 C   0  0  0  0  0  0  0  0  0  0  0  0
  1  7  1  0  0  0  0
  2  9  1  0  0  0  0
  3  6  1  0  0  0  0
  3  8  1  0  0  0  0
  4 12  1  0  0  0  0
  4 20  1  0  0  0  0
  5 19  1  0  0  0  0
  6  7  2  0  0  0  0
  6  9  1  0  0  0  0
  7 10  1  0  0  0  0
  8 13  1  0  0  0  0
  8 15  2  0  0  0  0
  9 14  2  0  0  0  0
 10 16  2  0  0  0  0
 10 19  1  0  0  0  0
 11 12  1  0  0  0  0
 11 13  2  0  0  0  0
 11 18  1  0  0  0  0
 12 17  2  0  0  0  0
 14 16  1  0  0  0  0
 15 17  1  0  0  0  0
 18 20  1  0  0  0  0
M  END
> <PUBCHEM_COMPOUND_ID_TYPE>
0

> <PUBCHEM_TOTAL_CHARGE>
0

> <PUBCHEM_SUBSTANCE_ID>
310939099

> <PUBCHEM_SUBSTANCE_VERSION>
1

> <PUBCHEM_EXT_DATASOURCE_NAME>
4488

> <PUBCHEM_EXT_DATASOURCE_REGID>
SCHEMBL16117018

> <PUBCHEM_SUBSTANCE_COMMENT>
InChI=1S/C15H13F2NO2/c16-12-3-1-10(8-18)14(17)15(12)20-11-2-4-13-9(7-11)5-6-19-13/h1-4,7H,5-6,8,18H2
InChIKey=AHFPUZRBKYIMAO-UHFFFAOYSA-N

> <PUBCHEM_SUBSTANCE_SYNONYM>
SCHEMBL16117018

> <PUBCHEM_XREF_EXT_ID>
SCHEMBL16117018

> <PUBCHEM_EXT_DATASOURCE_URL>
https://www.surechembl.org/

> <PUBCHEM_EXT_SUBSTANCE_URL>
https://www.surechembl.org/chemical/SCHEMBL16117018

> <PUBCHEM_CID_ASSOCIATIONS>
117606459  1

> <PUBCHEM_COORDINATE_TYPE>
1
3

$$$$
