310946114
  -OEChem-07211613022D

 66 77  0     0  0  0  0  0  0999 V2000
   -1.2161   -4.5244    0.0000 S   0  0  0  0  0  0  0  0  0  0  0  0
   -2.1987   -6.0235    0.0000 N   0  0  0  0  0  0  0  0  0  0  0  0
   -4.6558   -7.6240    0.0000 C   0  0  0  0  0  0  0  0  0  0  0  0
   -3.8488   -7.4525    0.0000 C   0  0  0  0  0  0  0  0  0  0  0  0
   -3.4363   -8.1669    0.0000 C   0  0  0  0  0  0  0  0  0  0  0  0
   -4.7421   -8.4445    0.0000 C   0  0  0  0  0  0  0  0  0  0  0  0
   -3.9883   -8.7800    0.0000 C   0  0  0  0  0  0  0  0  0  0  0  0
   -0.9612   -5.3090    0.0000 C   0  0  0  0  0  0  0  0  0  0  0  0
   -1.3737   -6.0235    0.0000 C   0  0  0  0  0  0  0  0  0  0  0  0
   -0.1362   -5.3090    0.0000 C   0  0  0  0  0  0  0  0  0  0  0  0
   -2.6113   -6.7380    0.0000 C   0  0  0  0  0  0  0  0  0  0  0  0
    0.1187   -4.5244    0.0000 C   0  0  0  0  0  0  0  0  0  0  0  0
   -3.4363   -6.7380    0.0000 C   0  0  0  0  0  0  0  0  0  0  0  0
   -0.5487   -4.0394    0.0000 C   0  0  0  0  0  0  0  0  0  0  0  0
   -2.6113   -8.1669    0.0000 C   0  0  0  0  0  0  0  0  0  0  0  0
   -0.1362   -6.7380    0.0000 C   0  0  0  0  0  0  0  0  0  0  0  0
   -0.9612   -6.7380    0.0000 C   0  0  0  0  0  0  0  0  0  0  0  0
   -2.6113   -5.3090    0.0000 C   0  0  0  0  0  0  0  0  0  0  0  0
    0.2762   -6.0235    0.0000 C   0  0  0  0  0  0  0  0  0  0  0  0
   -2.1987   -7.4525    0.0000 C   0  0  0  0  0  0  0  0  0  0  0  0
   -5.4095   -8.9294    0.0000 C   0  0  0  0  0  0  0  0  0  0  0  0
   -3.9021   -9.6005    0.0000 C   0  0  0  0  0  0  0  0  0  0  0  0
    0.8725   -4.1888    0.0000 C   0  0  0  0  0  0  0  0  0  0  0  0
   -4.6558   -6.7990    0.0000 C   0  0  0  0  0  0  0  0  0  0  0  0
   -5.4808   -7.6240    0.0000 C   0  0  0  0  0  0  0  0  0  0  0  0
   -0.4625   -3.2189    0.0000 C   0  0  0  0  0  0  0  0  0  0  0  0
    0.2762   -7.4525    0.0000 C   0  0  0  0  0  0  0  0  0  0  0  0
    0.9586   -3.3682    0.0000 C   0  0  0  0  0  0  0  0  0  0  0  0
   -5.3232   -9.7499    0.0000 C   0  0  0  0  0  0  0  0  0  0  0  0
   -4.5696  -10.0854    0.0000 C   0  0  0  0  0  0  0  0  0  0  0  0
   -2.1987   -4.5946    0.0000 C   0  0  0  0  0  0  0  0  0  0  0  0
   -3.4363   -5.3090    0.0000 C   0  0  0  0  0  0  0  0  0  0  0  0
    0.2912   -2.8834    0.0000 C   0  0  0  0  0  0  0  0  0  0  0  0
    1.7124   -3.0327    0.0000 C   0  0  0  0  0  0  0  0  0  0  0  0
   -0.1362   -8.1669    0.0000 C   0  0  0  0  0  0  0  0  0  0  0  0
    1.1013   -7.4525    0.0000 C   0  0  0  0  0  0  0  0  0  0  0  0
   -3.4363   -3.8800    0.0000 C   0  0  0  0  0  0  0  0  0  0  0  0
   -2.6113   -3.8800    0.0000 C   0  0  0  0  0  0  0  0  0  0  0  0
   -3.8488   -4.5946    0.0000 C   0  0  0  0  0  0  0  0  0  0  0  0
    1.1013   -8.8814    0.0000 C   0  0  0  0  0  0  0  0  0  0  0  0
    2.3797   -3.5177    0.0000 C   0  0  0  0  0  0  0  0  0  0  0  0
    1.7986   -2.2122    0.0000 C   0  0  0  0  0  0  0  0  0  0  0  0
    0.2762   -8.8814    0.0000 C   0  0  0  0  0  0  0  0  0  0  0  0
    1.5139   -8.1669    0.0000 C   0  0  0  0  0  0  0  0  0  0  0  0
   -3.8488   -3.1655    0.0000 C   0  0  0  0  0  0  0  0  0  0  0  0
    1.5139   -9.5960    0.0000 C   0  0  0  0  0  0  0  0  0  0  0  0
    3.2197   -2.3615    0.0000 C   0  0  0  0  0  0  0  0  0  0  0  0
    3.1335   -3.1820    0.0000 C   0  0  0  0  0  0  0  0  0  0  0  0
    2.5523   -1.8766    0.0000 C   0  0  0  0  0  0  0  0  0  0  0  0
   -3.4363   -2.4510    0.0000 C   0  0  0  0  0  0  0  0  0  0  0  0
   -4.6738   -3.1655    0.0000 C   0  0  0  0  0  0  0  0  0  0  0  0
    3.9734   -2.0261    0.0000 C   0  0  0  0  0  0  0  0  0  0  0  0
    1.1013  -10.3104    0.0000 C   0  0  0  0  0  0  0  0  0  0  0  0
    2.3388   -9.5960    0.0000 C   0  0  0  0  0  0  0  0  0  0  0  0
   -3.8488   -1.7366    0.0000 C   0  0  0  0  0  0  0  0  0  0  0  0
   -5.0863   -2.4510    0.0000 C   0  0  0  0  0  0  0  0  0  0  0  0
    1.5139  -11.0248    0.0000 C   0  0  0  0  0  0  0  0  0  0  0  0
    4.6409   -2.5110    0.0000 C   0  0  0  0  0  0  0  0  0  0  0  0
    4.0596   -1.2055    0.0000 C   0  0  0  0  0  0  0  0  0  0  0  0
    2.7513  -10.3104    0.0000 C   0  0  0  0  0  0  0  0  0  0  0  0
   -4.6738   -1.7366    0.0000 C   0  0  0  0  0  0  0  0  0  0  0  0
    2.3388  -11.0248    0.0000 C   0  0  0  0  0  0  0  0  0  0  0  0
    5.3945   -2.1754    0.0000 C   0  0  0  0  0  0  0  0  0  0  0  0
    4.8133   -0.8700    0.0000 C   0  0  0  0  0  0  0  0  0  0  0  0
    1.0738  -11.7870    0.0000 C   0  0  0  0  0  0  0  0  0  0  0  0
    5.4808   -1.3549    0.0000 C   0  0  0  0  0  0  0  0  0  0  0  0
  1  8  1  0  0  0  0
  1 14  1  0  0  0  0
  2  9  1  0  0  0  0
  2 11  1  0  0  0  0
  2 18  1  0  0  0  0
  3  4  1  0  0  0  0
  3  6  1  0  0  0  0
  3 24  1  0  0  0  0
  3 25  1  0  0  0  0
  4  5  2  0  0  0  0
  4 13  1  0  0  0  0
  5  7  1  0  0  0  0
  5 15  1  0  0  0  0
  6  7  2  0  0  0  0
  6 21  1  0  0  0  0
  7 22  1  0  0  0  0
  8  9  1  0  0  0  0
  8 10  2  0  0  0  0
  9 17  2  0  0  0  0
 10 12  1  0  0  0  0
 10 19  1  0  0  0  0
 11 13  2  0  0  0  0
 11 20  1  0  0  0  0
 12 14  2  0  0  0  0
 12 23  1  0  0  0  0
 14 26  1  0  0  0  0
 15 20  2  0  0  0  0
 16 17  1  0  0  0  0
 16 19  2  0  0  0  0
 16 27  1  0  0  0  0
 18 31  2  0  0  0  0
 18 32  1  0  0  0  0
 21 29  2  0  0  0  0
 22 30  2  0  0  0  0
 23 28  2  0  0  0  0
 26 33  2  0  0  0  0
 27 35  2  0  0  0  0
 27 36  1  0  0  0  0
 28 33  1  0  0  0  0
 28 34  1  0  0  0  0
 29 30  1  0  0  0  0
 31 38  1  0  0  0  0
 32 39  2  0  0  0  0
 34 41  2  0  0  0  0
 34 42  1  0  0  0  0
 35 43  1  0  0  0  0
 36 44  2  0  0  0  0
 37 38  2  0  0  0  0
 37 39  1  0  0  0  0
 37 45  1  0  0  0  0
 40 43  2  0  0  0  0
 40 44  1  0  0  0  0
 40 46  1  0  0  0  0
 41 48  1  0  0  0  0
 42 49  2  0  0  0  0
 45 50  2  0  0  0  0
 45 51  1  0  0  0  0
 46 53  2  0  0  0  0
 46 54  1  0  0  0  0
 47 48  2  0  0  0  0
 47 49  1  0  0  0  0
 47 52  1  0  0  0  0
 50 55  1  0  0  0  0
 51 56  2  0  0  0  0
 52 58  2  0  0  0  0
 52 59  1  0  0  0  0
 53 57  1  0  0  0  0
 54 60  2  0  0  0  0
 55 61  2  0  0  0  0
 56 61  1  0  0  0  0
 57 62  2  0  0  0  0
 57 65  1  0  0  0  0
 58 63  1  0  0  0  0
 59 64  2  0  0  0  0
 60 62  1  0  0  0  0
 63 66  2  0  0  0  0
 64 66  1  0  0  0  0
M  END
> <PUBCHEM_COMPOUND_ID_TYPE>
0

> <PUBCHEM_TOTAL_CHARGE>
0

> <PUBCHEM_SUBSTANCE_ID>
310946114

> <PUBCHEM_SUBSTANCE_VERSION>
1

> <PUBCHEM_EXT_DATASOURCE_NAME>
4488

> <PUBCHEM_EXT_DATASOURCE_REGID>
SCHEMBL16124222

> <PUBCHEM_SUBSTANCE_COMMENT>
InChI=1S/C64H47NS/c1-42-13-12-18-50(37-42)47-25-27-49(28-26-47)52-39-58-57-38-51(48-23-21-45(22-24-48)43-14-6-4-7-15-43)31-36-62(57)66-63(58)61(40-52)65(53-32-29-46(30-33-53)44-16-8-5-9-17-44)54-34-35-56-55-19-10-11-20-59(55)64(2,3)60(56)41-54/h4-41H,1-3H3
InChIKey=MPICXADNICZMLX-UHFFFAOYSA-N

> <PUBCHEM_SUBSTANCE_SYNONYM>
SCHEMBL16124222

> <PUBCHEM_XREF_EXT_ID>
SCHEMBL16124222

> <PUBCHEM_EXT_DATASOURCE_URL>
https://www.surechembl.org/

> <PUBCHEM_EXT_SUBSTANCE_URL>
https://www.surechembl.org/chemical/SCHEMBL16124222

> <PUBCHEM_CID_ASSOCIATIONS>
117612077  1

> <PUBCHEM_COORDINATE_TYPE>
1
3

$$$$
