310949580
  -OEChem-07211613022D

139148  0     1  0  0  0  0  0999 V2000
   -1.2809    4.3012    0.0000 S   0  0  0  0  0  0  0  0  0  0  0  0
    3.4112   -2.1169    0.0000 O   0  0  0  0  0  0  0  0  0  0  0  0
    2.8180   -2.6967    0.0000 O   0  0  0  0  0  0  0  0  0  0  0  0
    5.6091   -4.8944    0.0000 O   0  0  0  0  0  0  0  0  0  0  0  0
    4.0989    1.9955    0.0000 O   0  0  0  0  0  0  0  0  0  0  0  0
    1.2539   -5.2180    0.0000 O   0  0  0  0  0  0  0  0  0  0  0  0
    4.5439    1.5641    0.0000 O   0  0  0  0  0  0  0  0  0  0  0  0
    5.9865   -0.6067    0.0000 O   0  0  0  0  0  0  0  0  0  0  0  0
   -1.7933   -2.1842    0.0000 O   0  0  0  0  0  0  0  0  0  0  0  0
    4.7326    4.1394    0.0000 O   0  0  0  0  0  0  0  0  0  0  0  0
   -1.7528   -5.1371    0.0000 O   0  0  0  0  0  0  0  0  0  0  0  0
   -4.7866   -2.1033    0.0000 O   0  0  0  0  0  0  0  0  0  0  0  0
    2.5213    4.0045    0.0000 O   0  0  0  0  0  0  0  0  0  0  0  0
    0.6607   -5.7438    0.0000 O   0  0  0  0  0  0  0  0  0  0  0  0
   -4.8270    0.8494    0.0000 O   0  0  0  0  0  0  0  0  0  0  0  0
   -0.0944    5.4472    0.0000 O   0  0  0  0  0  0  0  0  0  0  0  0
    0.7550    2.2787    0.0000 O   0  0  0  0  0  0  0  0  0  0  0  0
    1.7663    1.2674    0.0000 O   0  0  0  0  0  0  0  0  0  0  0  0
   -2.2517    2.3595    0.0000 O   0  0  0  0  0  0  0  0  0  0  0  0
   -2.0764    6.9843    0.0000 O   0  0  0  0  0  0  0  0  0  0  0  0
   -2.2922    5.3124    0.0000 O   0  0  0  0  0  0  0  0  0  0  0  0
   -5.3124    5.2584    0.0000 O   0  0  0  0  0  0  0  0  0  0  0  0
    4.4225   -3.1146    0.0000 N   0  0  0  0  0  0  0  0  0  0  0  0
    2.4270   -4.0450    0.0000 N   0  0  0  0  0  0  0  0  0  0  0  0
    5.1102    3.1146    0.0000 N   0  0  0  0  0  0  0  0  0  0  0  0
    4.5843   -0.9573    0.0000 N   0  0  0  0  0  0  0  0  0  0  0  0
    3.9910   -4.7866    0.0000 N   0  0  0  0  0  0  0  0  0  0  0  0
   -3.1820   -2.5349    0.0000 N   0  0  0  0  0  0  0  0  0  0  0  0
    5.5686    0.9978    0.0000 N   0  0  0  0  0  0  0  0  0  0  0  0
    2.9124    5.3798    0.0000 N   0  0  0  0  0  0  0  0  0  0  0  0
    0.2427   -4.1933    0.0000 N   0  0  0  0  0  0  0  0  0  0  0  0
   -1.3618   -3.7618    0.0000 N   0  0  0  0  0  0  0  0  0  0  0  0
   -1.9415   -6.4315    0.0000 N   0  0  0  0  0  0  0  0  0  0  0  0
    3.3303    3.8023    0.0000 N   0  0  0  0  0  0  0  0  0  0  0  0
   -4.4090   -0.7281    0.0000 N   0  0  0  0  0  0  0  0  0  0  0  0
    0.9169    4.4495    0.0000 N   0  0  0  0  0  0  0  0  0  0  0  0
    2.6697    0.2967    0.0000 N   0  0  0  0  0  0  0  0  0  0  0  0
   -3.4247    1.2135    0.0000 N   0  0  0  0  0  0  0  0  0  0  0  0
    2.7506   -1.2000    0.0000 N   0  0  0  0  0  0  0  0  0  0  0  0
   -3.2629    3.3843    0.0000 N   0  0  0  0  0  0  0  0  0  0  0  0
    7.8202   -1.7393    0.0000 N   0  0  0  0  0  0  0  0  0  0  0  0
   -3.6944    4.9213    0.0000 N   0  0  0  0  0  0  0  0  0  0  0  0
   -6.4315    1.2944    0.0000 N   0  0  0  0  0  0  0  0  0  0  0  0
   -5.0022    6.6607    0.0000 N   0  0  0  0  0  0  0  0  0  0  0  0
   -7.4428    2.3056    0.0000 N   0  0  0  0  0  0  0  0  0  0  0  0
   -7.8202    0.9303    0.0000 N   0  0  0  0  0  0  0  0  0  0  0  0
    3.8292   -3.7079    0.0000 C   0  0  3  0  0  0  0  0  0  0  0  0
    4.2337   -2.3326    0.0000 C   0  0  0  0  0  0  0  0  0  0  0  0
    3.0338   -3.4921    0.0000 C   0  0  0  0  0  0  0  0  0  0  0  0
    5.1640   -3.5056    0.0000 C   0  0  0  0  0  0  0  0  0  0  0  0
    4.1933   -4.4225    0.0000 C   0  0  0  0  0  0  0  0  0  0  0  0
    5.0158   -4.3146    0.0000 C   0  0  3  0  0  0  0  0  0  0  0  0
    4.8000   -1.7528    0.0000 C   0  0  3  0  0  0  0  0  0  0  0  0
    1.6315   -3.8427    0.0000 C   0  0  3  0  0  0  0  0  0  0  0  0
    2.6562   -4.8404    0.0000 C   0  0  0  0  0  0  0  0  0  0  0  0
    2.9258   -5.6091    0.0000 C   0  0  0  0  0  0  0  0  0  0  0  0
    5.7034    2.5213    0.0000 C   0  0  3  0  0  0  0  0  0  0  0  0
    3.7618   -5.5820    0.0000 C   0  0  0  0  0  0  0  0  0  0  0  0
    1.8472   -4.6517    0.0000 C   0  0  0  0  0  0  0  0  0  0  0  0
   -2.6697   -5.3124    0.0000 C   0  0  0  0  0  0  0  0  0  0  0  0
   -3.1955   -5.9596    0.0000 C   0  0  0  0  0  0  0  0  0  0  0  0
    1.0382   -4.3955    0.0000 C   0  0  0  0  0  0  0  0  0  0  0  0
    4.3551    2.7911    0.0000 C   0  0  0  0  0  0  0  0  0  0  0  0
   -2.1708   -3.5326    0.0000 C   0  0  3  0  0  0  0  0  0  0  0  0
    5.3529    1.7528    0.0000 C   0  0  0  0  0  0  0  0  0  0  0  0
   -2.7371   -6.6472    0.0000 C   0  0  0  0  0  0  0  0  0  0  0  0
    5.1640   -0.3640    0.0000 C   0  0  0  0  0  0  0  0  0  0  0  0
    4.9888    0.4045    0.0000 C   0  0  3  0  0  0  0  0  0  0  0  0
    3.2899   -4.3416    0.0000 C   0  0  0  0  0  0  0  0  0  0  0  0
    3.5461    3.0067    0.0000 C   0  0  3  0  0  0  0  0  0  0  0  0
   -2.4000   -2.7775    0.0000 C   0  0  0  0  0  0  0  0  0  0  0  0
   -2.9258   -4.3012    0.0000 C   0  0  0  0  0  0  0  0  0  0  0  0
    3.7214    5.1506    0.0000 C   0  0  3  0  0  0  0  0  0  0  0  0
    5.5011    3.8292    0.0000 C   0  0  0  0  0  0  0  0  0  0  0  0
    5.6629   -2.0360    0.0000 C   0  0  0  0  0  0  0  0  0  0  0  0
    6.4315    2.8854    0.0000 C   0  0  0  0  0  0  0  0  0  0  0  0
    2.5753   -6.3641    0.0000 C   0  0  0  0  0  0  0  0  0  0  0  0
   -3.3843   -1.7528    0.0000 C   0  0  3  0  0  0  0  0  0  0  0  0
   -0.3505   -4.7731    0.0000 C   0  0  3  0  0  0  0  0  0  0  0  0
   -1.8877   -5.6360    0.0000 C   0  0  0  0  0  0  0  0  0  0  0  0
    3.9101    4.3821    0.0000 C   0  0  0  0  0  0  0  0  0  0  0  0
   -1.1461   -4.5304    0.0000 C   0  0  0  0  0  0  0  0  0  0  0  0
    4.2068   -6.2697    0.0000 C   0  0  0  0  0  0  0  0  0  0  0  0
   -4.1798   -1.4966    0.0000 C   0  0  0  0  0  0  0  0  0  0  0  0
    2.3191    4.8270    0.0000 C   0  0  0  0  0  0  0  0  0  0  0  0
    6.3236    3.6944    0.0000 C   0  0  0  0  0  0  0  0  0  0  0  0
   -4.0180   -6.0135    0.0000 C   0  0  0  0  0  0  0  0  0  0  0  0
    4.1663    0.6202    0.0000 C   0  0  0  0  0  0  0  0  0  0  0  0
   -3.1281   -7.3753    0.0000 C   0  0  0  0  0  0  0  0  0  0  0  0
    3.0067   -7.0382    0.0000 C   0  0  0  0  0  0  0  0  0  0  0  0
    1.5101    5.0293    0.0000 C   0  0  3  0  0  0  0  0  0  0  0  0
    3.8427   -6.9977    0.0000 C   0  0  0  0  0  0  0  0  0  0  0  0
    2.9663    2.4270    0.0000 C   0  0  0  0  0  0  0  0  0  0  0  0
    4.3146    5.7304    0.0000 C   0  0  0  0  0  0  0  0  0  0  0  0
   -3.8157   -0.1618    0.0000 C   0  0  3  0  0  0  0  0  0  0  0  0
    2.7236    6.1753    0.0000 C   0  0  0  0  0  0  0  0  0  0  0  0
    3.5865    0.0540    0.0000 C   0  0  0  0  0  0  0  0  0  0  0  0
   -4.3821   -6.7416    0.0000 C   0  0  0  0  0  0  0  0  0  0  0  0
   -3.9506   -7.4157    0.0000 C   0  0  0  0  0  0  0  0  0  0  0  0
    6.3776   -1.6989    0.0000 C   0  0  0  0  0  0  0  0  0  0  0  0
   -2.8045   -1.1865    0.0000 C   0  0  0  0  0  0  0  0  0  0  0  0
   -0.1349   -5.5686    0.0000 C   0  0  0  0  0  0  0  0  0  0  0  0
   -4.0989   -3.1011    0.0000 C   0  0  0  0  0  0  0  0  0  0  0  0
   -3.9910    0.6202    0.0000 C   0  0  0  0  0  0  0  0  0  0  0  0
    4.1124    6.5124    0.0000 C   0  0  0  0  0  0  0  0  0  0  0  0
    3.3034    6.7416    0.0000 C   0  0  0  0  0  0  0  0  0  0  0  0
    1.1865    6.2832    0.0000 C   0  0  0  0  0  0  0  0  0  0  0  0
    2.1573    2.6293    0.0000 C   0  0  0  0  0  0  0  0  0  0  0  0
    3.6270   -0.8764    0.0000 C   0  0  0  0  0  0  0  0  0  0  0  0
    0.3640    6.4854    0.0000 C   0  0  0  0  0  0  0  0  0  0  0  0
   -2.9933   -0.3910    0.0000 C   0  0  0  0  0  0  0  0  0  0  0  0
   -5.5281   -0.5123    0.0000 C   0  0  0  0  0  0  0  0  0  0  0  0
   -1.9820   -1.3483    0.0000 C   0  0  0  0  0  0  0  0  0  0  0  0
    0.1213    4.6517    0.0000 C   0  0  0  0  0  0  0  0  0  0  0  0
    7.0922   -2.1304    0.0000 C   0  0  0  0  0  0  0  0  0  0  0  0
   -3.6405    2.0090    0.0000 C   0  0  3  0  0  0  0  0  0  0  0  0
    2.1842   -0.4989    0.0000 C   0  0  0  0  0  0  0  0  0  0  0  0
    1.5910    2.0629    0.0000 C   0  0  0  0  0  0  0  0  0  0  0  0
   -3.0742    2.5888    0.0000 C   0  0  0  0  0  0  0  0  0  0  0  0
   -0.1887    5.8652    0.0000 C   0  0  0  0  0  0  0  0  0  0  0  0
    0.1213    7.2405    0.0000 C   0  0  0  0  0  0  0  0  0  0  0  0
   -2.4135    0.1887    0.0000 C   0  0  0  0  0  0  0  0  0  0  0  0
   -0.4584    4.0854    0.0000 C   0  0  0  0  0  0  0  0  0  0  0  0
   -1.4157   -0.7416    0.0000 C   0  0  0  0  0  0  0  0  0  0  0  0
   -4.4495    2.2113    0.0000 C   0  0  0  0  0  0  0  0  0  0  0  0
   -0.9978    6.0405    0.0000 C   0  0  0  0  0  0  0  0  0  0  0  0
   -0.7011    7.4157    0.0000 C   0  0  0  0  0  0  0  0  0  0  0  0
   -2.6697    3.9371    0.0000 C   0  0  3  0  0  0  0  0  0  0  0  0
   -1.2539    6.8090    0.0000 C   0  0  0  0  0  0  0  0  0  0  0  0
   -1.8472    3.7348    0.0000 C   0  0  0  0  0  0  0  0  0  0  0  0
   -2.9258    4.7595    0.0000 C   0  0  0  0  0  0  0  0  0  0  0  0
   -1.6045    0.0269    0.0000 C   0  0  0  0  0  0  0  0  0  0  0  0
   -5.0293    1.6450    0.0000 C   0  0  0  0  0  0  0  0  0  0  0  0
   -0.6202   -0.9034    0.0000 C   0  0  0  0  0  0  0  0  0  0  0  0
   -5.8382    1.8607    0.0000 C   0  0  0  0  0  0  0  0  0  0  0  0
   -1.0517    0.6337    0.0000 C   0  0  0  0  0  0  0  0  0  0  0  0
   -3.9371    5.6900    0.0000 C   0  0  0  0  0  0  0  0  0  0  0  0
   -4.7326    5.9056    0.0000 C   0  0  0  0  0  0  0  0  0  0  0  0
   -7.2270    1.4832    0.0000 C   0  0  0  0  0  0  0  0  0  0  0  0
  1123  1  0  0  0  0
  1130  1  0  0  0  0
  2 48  2  0  0  0  0
  3 49  2  0  0  0  0
 52  4  1  6  0  0  0
  5 63  2  0  0  0  0
  6 62  2  0  0  0  0
  7 65  2  0  0  0  0
  8 67  2  0  0  0  0
  9 71  2  0  0  0  0
 10 81  2  0  0  0  0
 11 82  2  0  0  0  0
 12 84  2  0  0  0  0
 13 85  2  0  0  0  0
 14102  1  0  0  0  0
 15104  2  0  0  0  0
 16114  2  0  0  0  0
 17118  2  0  0  0  0
 18118  1  0  0  0  0
 19119  2  0  0  0  0
 20129  1  0  0  0  0
 21131  2  0  0  0  0
 22138  2  0  0  0  0
 23 47  1  0  0  0  0
 23 48  1  0  0  0  0
 23 50  1  0  0  0  0
 24 49  1  0  0  0  0
 24 54  1  0  0  0  0
 57 25  1  1  0  0  0
 25 63  1  0  0  0  0
 25 74  1  0  0  0  0
 26 53  1  0  0  0  0
 26 67  1  0  0  0  0
 27 58  1  0  0  0  0
 27 69  1  0  0  0  0
 28 71  1  0  0  0  0
 28 78  1  0  0  0  0
 28103  1  0  0  0  0
 29 65  1  0  0  0  0
 29 68  1  0  0  0  0
 73 30  1  1  0  0  0
 30 85  1  0  0  0  0
 30 96  1  0  0  0  0
 31 62  1  0  0  0  0
 31 79  1  0  0  0  0
 32 64  1  0  0  0  0
 32 82  1  0  0  0  0
 33 66  1  0  0  0  0
 33 80  1  0  0  0  0
 34 70  1  0  0  0  0
 34 81  1  0  0  0  0
 35 84  1  0  0  0  0
 35 95  1  0  0  0  0
 35112  1  0  0  0  0
 36 91  1  0  0  0  0
 36114  1  0  0  0  0
 37 97  1  0  0  0  0
 37117  2  0  0  0  0
 38104  1  0  0  0  0
 38116  1  0  0  0  0
 39109  1  0  0  0  0
 39117  1  0  0  0  0
 40119  1  0  0  0  0
 40128  1  0  0  0  0
 41115  1  0  0  0  0
 42131  1  0  0  0  0
 42137  1  0  0  0  0
 43135  1  0  0  0  0
 43139  1  0  0  0  0
 44138  1  0  0  0  0
 45139  2  3  0  0  0
 46139  1  0  0  0  0
 47 49  1  0  0  0  0
 47 51  1  1  0  0  0
 48 53  1  0  0  0  0
 50 52  1  0  0  0  0
 51 52  1  0  0  0  0
 53 75  1  1  0  0  0
 54 59  1  6  0  0  0
 54 62  1  0  0  0  0
 55 56  1  0  0  0  0
 55 59  1  0  0  0  0
 55 69  2  0  0  0  0
 56 58  2  0  0  0  0
 56 77  1  0  0  0  0
 57 65  1  0  0  0  0
 57 76  1  0  0  0  0
 58 83  1  0  0  0  0
 60 61  1  0  0  0  0
 60 72  1  0  0  0  0
 60 80  2  0  0  0  0
 61 66  2  0  0  0  0
 61 87  1  0  0  0  0
 63 70  1  0  0  0  0
 64 71  1  0  0  0  0
 64 72  1  1  0  0  0
 66 89  1  0  0  0  0
 67 68  1  0  0  0  0
 68 88  1  6  0  0  0
 70 93  1  6  0  0  0
 73 81  1  0  0  0  0
 73 94  1  0  0  0  0
 74 86  1  0  0  0  0
 75100  1  0  0  0  0
 76 86  1  0  0  0  0
 77 90  2  0  0  0  0
 78 84  1  0  0  0  0
 78101  1  6  0  0  0
 79 82  1  0  0  0  0
 79102  1  1  0  0  0
 83 92  2  0  0  0  0
 85 91  1  0  0  0  0
 87 98  2  0  0  0  0
 88 97  1  0  0  0  0
 89 99  2  0  0  0  0
 90 92  1  0  0  0  0
 91107  1  1  0  0  0
 93108  1  0  0  0  0
 94105  1  0  0  0  0
 95104  1  0  0  0  0
 95111  1  6  0  0  0
 96106  1  0  0  0  0
 97109  2  0  0  0  0
 98 99  1  0  0  0  0
100115  1  0  0  0  0
101113  1  0  0  0  0
105106  1  0  0  0  0
107110  1  0  0  0  0
108118  1  0  0  0  0
110120  2  0  0  0  0
110121  1  0  0  0  0
111122  1  0  0  0  0
113124  1  0  0  0  0
114123  1  0  0  0  0
116119  1  0  0  0  0
116125  1  1  0  0  0
120126  1  0  0  0  0
121127  2  0  0  0  0
122132  1  0  0  0  0
124134  1  0  0  0  0
125133  1  0  0  0  0
126129  2  0  0  0  0
127129  1  0  0  0  0
128130  1  0  0  0  0
128131  1  6  0  0  0
132136  1  0  0  0  0
133135  1  0  0  0  0
137138  1  0  0  0  0
M  END
> <PUBCHEM_COMPOUND_ID_TYPE>
0

> <PUBCHEM_TOTAL_CHARGE>
0

> <PUBCHEM_SUBSTANCE_ID>
310949580

> <PUBCHEM_SUBSTANCE_VERSION>
1

> <PUBCHEM_EXT_DATASOURCE_NAME>
4488

> <PUBCHEM_EXT_DATASOURCE_REGID>
SCHEMBL16127777

> <PUBCHEM_SUBSTANCE_COMMENT>
InChI=1S/C93H130N24O21S/c1-5-7-24-71-84(130)105-62(23-16-35-99-93(96)97)80(126)112-70(79(125)102-46-76(95)121)49-139-50-77(122)104-67(38-52-28-30-56(119)31-29-52)91(137)115-36-14-13-26-72(115)85(131)107-64(32-33-78(123)124)89(135)116-37-17-27-73(116)86(132)109-66(41-55-45-98-51-103-55)82(128)106-63(22-15-34-94)90(136)117-47-57(120)42-75(117)87(133)108-65(39-53-43-100-60-20-11-9-18-58(53)60)81(127)111-69(48-118)83(129)110-68(40-54-44-101-61-21-12-10-19-59(54)61)88(134)114(4)74(25-8-6-2)92(138)113(71)3/h9-12,18-21,28-31,43-45,51,57,62-75,100-101,118-120H,5-8,13-17,22-27,32-42,46-50,94H2,1-4H3,(H2,95,121)(H,98,103)(H,102,125)(H,104,122)(H,105,130)(H,106,128)(H,107,131)(H,108,133)(H,109,132)(H,110,129)(H,111,127)(H,112,126)(H,123,124)(H4,96,97,99)/t57-,62+,63+,64+,65+,66+,67+,68+,69+,70+,71+,72+,73+,74+,75+/m1/s1
InChIKey=XSKLDQSCYUDMMZ-WDWTZNJOSA-N

> <PUBCHEM_SUBSTANCE_SYNONYM>
SCHEMBL16127777

> <PUBCHEM_XREF_EXT_ID>
SCHEMBL16127777

> <PUBCHEM_EXT_DATASOURCE_URL>
https://www.surechembl.org/

> <PUBCHEM_EXT_SUBSTANCE_URL>
https://www.surechembl.org/chemical/SCHEMBL16127777

> <PUBCHEM_CID_ASSOCIATIONS>
117614988  1

> <PUBCHEM_COORDINATE_TYPE>
1
3

> <PUBCHEM_BONDANNOTATIONS>
116  125  5
128  131  6
57  25  5
73  30  5
52  4  6
47  51  5
53  75  5
54  59  6
64  72  5
68  88  6
70  93  6
78  101  6
79  102  5
91  107  5
95  111  6

$$$$
