310938397
  -OEChem-07211613022D

 12 13  0     0  0  0  0  0  0999 V2000
    1.4228    0.0000    0.0000 O   0  0  0  0  0  0  0  0  0  0  0  0
    0.0000   -0.0145    0.0000 N   0  0  0  0  0  0  0  0  0  0  0  0
    1.4518   -1.6551    0.0000 C   0  0  0  0  0  0  0  0  0  0  0  0
    0.7259   -1.2486    0.0000 C   0  0  0  0  0  0  0  0  0  0  0  0
    1.4518   -2.5116    0.0000 C   0  0  0  0  0  0  0  0  0  0  0  0
    0.7114   -0.4210    0.0000 C   0  0  0  0  0  0  0  0  0  0  0  0
    2.2358   -1.4228    0.0000 C   0  0  0  0  0  0  0  0  0  0  0  0
    0.0291   -1.6551    0.0000 C   0  0  0  0  0  0  0  0  0  0  0  0
    0.7259   -2.9037    0.0000 C   0  0  0  0  0  0  0  0  0  0  0  0
    2.2358   -2.7439    0.0000 C   0  0  0  0  0  0  0  0  0  0  0  0
    0.0291   -2.5116    0.0000 C   0  0  0  0  0  0  0  0  0  0  0  0
    2.7294   -2.0761    0.0000 C   0  0  0  0  0  0  0  0  0  0  0  0
  1  6  2  0  0  0  0
  2  6  1  0  0  0  0
  3  4  1  0  0  0  0
  3  5  2  0  0  0  0
  3  7  1  0  0  0  0
  4  6  1  0  0  0  0
  4  8  2  0  0  0  0
  5  9  1  0  0  0  0
  5 10  1  0  0  0  0
  7 12  2  0  0  0  0
  8 11  1  0  0  0  0
  9 11  2  0  0  0  0
 10 12  1  0  0  0  0
M  END
> <PUBCHEM_COMPOUND_ID_TYPE>
0

> <PUBCHEM_TOTAL_CHARGE>
0

> <PUBCHEM_SUBSTANCE_ID>
310938397

> <PUBCHEM_SUBSTANCE_VERSION>
1

> <PUBCHEM_EXT_DATASOURCE_NAME>
4488

> <PUBCHEM_EXT_DATASOURCE_REGID>
SCHEMBL16116287

> <PUBCHEM_SUBSTANCE_COMMENT>
InChI=1S/C10H9NO/c11-10(12)9-6-2-4-7-3-1-5-8(7)9/h1-2,4-6H,3H2,(H2,11,12)
InChIKey=ZKZNKMPNNKJCPO-UHFFFAOYSA-N

> <PUBCHEM_SUBSTANCE_SYNONYM>
SCHEMBL16116287

> <PUBCHEM_XREF_EXT_ID>
SCHEMBL16116287

> <PUBCHEM_EXT_DATASOURCE_URL>
https://www.surechembl.org/

> <PUBCHEM_EXT_SUBSTANCE_URL>
https://www.surechembl.org/chemical/SCHEMBL16116287

> <PUBCHEM_CID_ASSOCIATIONS>
117605874  1

> <PUBCHEM_COORDINATE_TYPE>
1
3

$$$$
