310940805
  -OEChem-07211613022D

 21 21  0     1  0  0  0  0  0999 V2000
    2.5324   -1.7500    0.0000 O   0  0  0  0  0  0  0  0  0  0  0  0
    0.4998    2.5784    0.0000 O   0  0  0  0  0  0  0  0  0  0  0  0
   -2.6159    2.5465    0.0000 O   0  0  0  0  0  0  0  0  0  0  0  0
    2.0286   -2.5784    0.0000 O   0  0  0  0  0  0  0  0  0  0  0  0
    1.9219    1.7156    0.0000 O   0  0  0  0  0  0  0  0  0  0  0  0
    0.4838    0.0858    0.0000 N   0  0  0  0  0  0  0  0  0  0  0  0
   -3.0473    1.1084    0.0000 N   0  0  0  0  0  0  0  0  0  0  0  0
    1.1869    1.3002    0.0000 N   0  0  0  0  0  0  0  0  0  0  0  0
   -0.2511    1.3321    0.0000 C   0  0  3  0  0  0  0  0  0  0  0  0
   -1.7051    1.3801    0.0000 C   0  0  3  0  0  0  0  0  0  0  0  0
   -0.9861    1.7635    0.0000 C   0  0  0  0  0  0  0  0  0  0  0  0
   -2.4721    1.7316    0.0000 C   0  0  0  0  0  0  0  0  0  0  0  0
    0.4679    1.7316    0.0000 C   0  0  0  0  0  0  0  0  0  0  0  0
    2.0286   -2.0411    0.0000 C   0  0  0  0  0  0  0  0  0  0  0  0
   -1.8330    0.5332    0.0000 C   0  0  0  0  0  0  0  0  0  0  0  0
    2.5436   -1.1903    0.0000 C   0  0  0  0  0  0  0  0  0  0  0  0
   -2.6478    0.3894    0.0000 C   0  0  0  0  0  0  0  0  0  0  0  0
    3.0473   -1.1680    0.0000 C   0  0  0  0  0  0  0  0  0  0  0  0
    2.0286   -1.1903    0.0000 C   0  0  0  0  0  0  0  0  0  0  0  0
    2.5324   -0.6418    0.0000 C   0  0  0  0  0  0  0  0  0  0  0  0
    2.6728    1.2841    0.0000 C   0  0  0  0  0  0  0  0  0  0  0  0
  1 14  1  0  0  0  0
  1 16  1  0  0  0  0
  2 13  2  0  0  0  0
  3 12  2  0  0  0  0
  4 14  2  0  0  0  0
  5  8  1  0  0  0  0
  5 21  1  0  0  0  0
  9  6  1  1  0  0  0
  6 14  1  0  0  0  0
  7 12  1  0  0  0  0
  7 17  1  0  0  0  0
  8 13  1  0  0  0  0
  9 11  1  0  0  0  0
  9 13  1  0  0  0  0
 10 11  1  0  0  0  0
 10 12  1  0  0  0  0
 10 15  1  0  0  0  0
 15 17  1  0  0  0  0
 16 18  1  0  0  0  0
 16 19  1  0  0  0  0
 16 20  1  0  0  0  0
M  END
> <PUBCHEM_COMPOUND_ID_TYPE>
0

> <PUBCHEM_TOTAL_CHARGE>
0

> <PUBCHEM_SUBSTANCE_ID>
310940805

> <PUBCHEM_SUBSTANCE_VERSION>
1

> <PUBCHEM_EXT_DATASOURCE_NAME>
4488

> <PUBCHEM_EXT_DATASOURCE_REGID>
SCHEMBL16118764

> <PUBCHEM_SUBSTANCE_COMMENT>
InChI=1S/C13H23N3O5/c1-13(2,3)21-12(19)15-9(11(18)16-20-4)7-8-5-6-14-10(8)17/h8-9H,5-7H2,1-4H3,(H,14,17)(H,15,19)(H,16,18)/t8?,9-/m0/s1
InChIKey=PREMCFJICJRIKL-GKAPJAKFSA-N

> <PUBCHEM_SUBSTANCE_SYNONYM>
SCHEMBL16118764

> <PUBCHEM_XREF_EXT_ID>
SCHEMBL16118764

> <PUBCHEM_EXT_DATASOURCE_URL>
https://www.surechembl.org/

> <PUBCHEM_EXT_SUBSTANCE_URL>
https://www.surechembl.org/chemical/SCHEMBL16118764

> <PUBCHEM_CID_ASSOCIATIONS>
117607743  1

> <PUBCHEM_COORDINATE_TYPE>
1
3

> <PUBCHEM_BONDANNOTATIONS>
9  6  5

$$$$
