310936614
  -OEChem-07211613022D

 25 27  0     1  0  0  0  0  0999 V2000
   -0.4962    3.6395    0.0000 F   0  0  0  0  0  0  0  0  0  0  0  0
   -4.2868    0.0000    0.0000 F   0  0  0  0  0  0  0  0  0  0  0  0
    1.3427    1.3138    0.0000 O   0  0  0  0  0  0  0  0  0  0  0  0
    1.0947   -0.0935    0.0000 O   0  0  0  0  0  0  0  0  0  0  0  0
   -2.8579   -1.6500    0.0000 N   0  0  0  0  0  0  0  0  0  0  0  0
    0.0000    0.8250    0.0000 C   0  0  3  0  0  0  0  0  0  0  0  0
    0.2822    1.6003    0.0000 C   0  0  0  0  0  0  0  0  0  0  0  0
    0.8124    0.6817    0.0000 C   0  0  0  0  0  0  0  0  0  0  0  0
   -0.7144    1.2375    0.0000 C   0  0  0  0  0  0  0  0  0  0  0  0
    0.0000    0.0000    0.0000 C   0  0  0  0  0  0  0  0  0  0  0  0
   -0.2481    2.2322    0.0000 C   0  0  0  0  0  0  0  0  0  0  0  0
   -1.4290    0.0000    0.0000 C   0  0  0  0  0  0  0  0  0  0  0  0
    1.0947    1.7435    0.0000 C   0  0  0  0  0  0  0  0  0  0  0  0
   -1.4290    0.8250    0.0000 C   0  0  0  0  0  0  0  0  0  0  0  0
   -0.7144   -0.4125    0.0000 C   0  0  0  0  0  0  0  0  0  0  0  0
    0.0341    3.0075    0.0000 C   0  0  0  0  0  0  0  0  0  0  0  0
   -2.1434   -0.4125    0.0000 C   0  0  0  0  0  0  0  0  0  0  0  0
    1.3768    2.5187    0.0000 C   0  0  0  0  0  0  0  0  0  0  0  0
    0.8465    3.1507    0.0000 C   0  0  0  0  0  0  0  0  0  0  0  0
   -1.0606    2.0890    0.0000 C   0  0  0  0  0  0  0  0  0  0  0  0
   -2.8579    0.0000    0.0000 C   0  0  0  0  0  0  0  0  0  0  0  0
   -2.1434   -1.2375    0.0000 C   0  0  0  0  0  0  0  0  0  0  0  0
   -3.5724   -0.4125    0.0000 C   0  0  0  0  0  0  0  0  0  0  0  0
   -3.5724   -1.2375    0.0000 C   0  0  0  0  0  0  0  0  0  0  0  0
    2.1553    1.1704    0.0000 C   0  0  0  0  0  0  0  0  0  0  0  0
  1 16  1  0  0  0  0
  2 23  1  0  0  0  0
  3  8  1  0  0  0  0
  3 25  1  0  0  0  0
  4  8  2  0  0  0  0
  5 22  2  0  0  0  0
  5 24  1  0  0  0  0
  6  7  1  0  0  0  0
  6  8  1  6  0  0  0
  6  9  1  0  0  0  0
  6 10  1  0  0  0  0
  7 11  1  0  0  0  0
  7 13  2  0  0  0  0
  9 14  1  0  0  0  0
 10 15  1  0  0  0  0
 11 16  2  0  0  0  0
 11 20  1  0  0  0  0
 12 14  2  0  0  0  0
 12 15  1  0  0  0  0
 12 17  1  0  0  0  0
 13 18  1  0  0  0  0
 16 19  1  0  0  0  0
 17 21  2  0  0  0  0
 17 22  1  0  0  0  0
 18 19  2  0  0  0  0
 21 23  1  0  0  0  0
 23 24  2  0  0  0  0
M  END
> <PUBCHEM_COMPOUND_ID_TYPE>
0

> <PUBCHEM_TOTAL_CHARGE>
0

> <PUBCHEM_SUBSTANCE_ID>
310936614

> <PUBCHEM_SUBSTANCE_VERSION>
1

> <PUBCHEM_EXT_DATASOURCE_NAME>
4488

> <PUBCHEM_EXT_DATASOURCE_REGID>
SCHEMBL16114274

> <PUBCHEM_SUBSTANCE_COMMENT>
InChI=1S/C20H19F2NO2/c1-13-17(4-3-5-18(13)22)20(19(24)25-2)8-6-14(7-9-20)15-10-16(21)12-23-11-15/h3-6,10-12H,7-9H2,1-2H3/t20-/m0/s1
InChIKey=GFONQPNJOGDOHU-FQEVSTJZSA-N

> <PUBCHEM_SUBSTANCE_SYNONYM>
SCHEMBL16114274

> <PUBCHEM_XREF_EXT_ID>
SCHEMBL16114274

> <PUBCHEM_EXT_DATASOURCE_URL>
https://www.surechembl.org/

> <PUBCHEM_EXT_SUBSTANCE_URL>
https://www.surechembl.org/chemical/SCHEMBL16114274

> <PUBCHEM_CID_ASSOCIATIONS>
117604532  1

> <PUBCHEM_COORDINATE_TYPE>
1
3

> <PUBCHEM_BONDANNOTATIONS>
6  8  6

$$$$
