310944221
  -OEChem-07211613022D

 29 31  0     0  0  0  0  0  0999 V2000
    0.7578    3.2927    0.0000 F   0  0  0  0  0  0  0  0  0  0  0  0
   -2.1821   -1.6594    0.0000 F   0  0  0  0  0  0  0  0  0  0  0  0
    0.7318   -0.0261    0.0000 N   0  0  0  0  0  0  0  0  0  0  0  0
   -2.9007    0.3528    0.0000 N   0  0  0  0  0  0  0  0  0  0  0  0
    2.9007    2.8484    0.0000 N   0  0  0  0  0  0  0  0  0  0  0  0
   -0.7318   -3.2927    0.0000 N   0  0  0  0  0  0  0  0  0  0  0  0
   -1.4242    2.8223    0.0000 N   0  0  0  0  0  0  0  0  0  0  0  0
    0.7187    0.8231    0.0000 C   0  0  0  0  0  0  0  0  0  0  0  0
   -0.0130   -0.4051    0.0000 C   0  0  0  0  0  0  0  0  0  0  0  0
    1.4634   -0.4182    0.0000 C   0  0  0  0  0  0  0  0  0  0  0  0
    1.4504    1.2413    0.0000 C   0  0  0  0  0  0  0  0  0  0  0  0
   -0.7318   -0.0130    0.0000 C   0  0  0  0  0  0  0  0  0  0  0  0
    0.0000    1.2413    0.0000 C   0  0  0  0  0  0  0  0  0  0  0  0
   -0.0130   -1.2151    0.0000 C   0  0  0  0  0  0  0  0  0  0  0  0
    1.4764    2.0645    0.0000 C   0  0  0  0  0  0  0  0  0  0  0  0
   -1.4504   -0.4051    0.0000 C   0  0  0  0  0  0  0  0  0  0  0  0
    0.0000    2.0645    0.0000 C   0  0  0  0  0  0  0  0  0  0  0  0
   -0.7318   -1.6202    0.0000 C   0  0  0  0  0  0  0  0  0  0  0  0
    0.7447    2.4695    0.0000 C   0  0  0  0  0  0  0  0  0  0  0  0
   -1.4634   -1.2151    0.0000 C   0  0  0  0  0  0  0  0  0  0  0  0
    1.4634   -1.2282    0.0000 C   0  0  0  0  0  0  0  0  0  0  0  0
    2.1821   -0.0130    0.0000 C   0  0  0  0  0  0  0  0  0  0  0  0
    2.1952    2.4695    0.0000 C   0  0  0  0  0  0  0  0  0  0  0  0
   -2.1821   -0.0130    0.0000 C   0  0  0  0  0  0  0  0  0  0  0  0
   -0.7187    2.4564    0.0000 C   0  0  0  0  0  0  0  0  0  0  0  0
   -0.7318   -2.4695    0.0000 C   0  0  0  0  0  0  0  0  0  0  0  0
    2.1952   -1.6333    0.0000 C   0  0  0  0  0  0  0  0  0  0  0  0
    2.8876   -0.4312    0.0000 C   0  0  0  0  0  0  0  0  0  0  0  0
    2.8745   -1.2674    0.0000 C   0  0  0  0  0  0  0  0  0  0  0  0
  1 19  1  0  0  0  0
  2 20  1  0  0  0  0
  3  8  1  0  0  0  0
  3  9  1  0  0  0  0
  3 10  1  0  0  0  0
  4 24  3  0  0  0  0
  5 23  3  0  0  0  0
  6 26  3  0  0  0  0
  7 25  3  0  0  0  0
  8 11  2  0  0  0  0
  8 13  1  0  0  0  0
  9 12  2  0  0  0  0
  9 14  1  0  0  0  0
 10 21  2  0  0  0  0
 10 22  1  0  0  0  0
 11 15  1  0  0  0  0
 12 16  1  0  0  0  0
 13 17  2  0  0  0  0
 14 18  2  0  0  0  0
 15 19  2  0  0  0  0
 15 23  1  0  0  0  0
 16 20  2  0  0  0  0
 16 24  1  0  0  0  0
 17 19  1  0  0  0  0
 17 25  1  0  0  0  0
 18 20  1  0  0  0  0
 18 26  1  0  0  0  0
 21 27  1  0  0  0  0
 22 28  2  0  0  0  0
 27 29  2  0  0  0  0
 28 29  1  0  0  0  0
M  END
> <PUBCHEM_COMPOUND_ID_TYPE>
0

> <PUBCHEM_TOTAL_CHARGE>
0

> <PUBCHEM_SUBSTANCE_ID>
310944221

> <PUBCHEM_SUBSTANCE_VERSION>
1

> <PUBCHEM_EXT_DATASOURCE_NAME>
4488

> <PUBCHEM_EXT_DATASOURCE_REGID>
SCHEMBL16122296

> <PUBCHEM_SUBSTANCE_COMMENT>
InChI=1S/C22H9F2N5/c23-21-14(10-25)6-19(7-15(21)11-26)29(18-4-2-1-3-5-18)20-8-16(12-27)22(24)17(9-20)13-28/h1-9H
InChIKey=ZMZKWBVMSUSUAC-UHFFFAOYSA-N

> <PUBCHEM_SUBSTANCE_SYNONYM>
SCHEMBL16122296

> <PUBCHEM_XREF_EXT_ID>
SCHEMBL16122296

> <PUBCHEM_EXT_DATASOURCE_URL>
https://www.surechembl.org/

> <PUBCHEM_EXT_SUBSTANCE_URL>
https://www.surechembl.org/chemical/SCHEMBL16122296

> <PUBCHEM_CID_ASSOCIATIONS>
117610492  1

> <PUBCHEM_COORDINATE_TYPE>
1
3

$$$$
