310934632
  -OEChem-07211613022D

 18 19  0     0  0  0  0  0  0999 V2000
    0.0000   -3.7448    0.0000 Br  0  0  0  0  0  0  0  0  0  0  0  0
    2.5292   -1.0000    0.0000 O   0  0  0  0  0  0  0  0  0  0  0  0
    3.5096    0.0000    0.0000 O   0  0  0  0  0  0  0  0  0  0  0  0
    3.1174   -1.6861    0.0000 N   0  0  0  0  0  0  0  0  0  0  0  0
    4.6860   -2.2155    0.0000 N   0  0  0  0  0  0  0  0  0  0  0  0
    3.8821   -1.3724    0.0000 C   0  0  0  0  0  0  0  0  0  0  0  0
    3.2939   -0.7842    0.0000 C   0  0  0  0  0  0  0  0  0  0  0  0
    3.8821   -2.2155    0.0000 C   0  0  0  0  0  0  0  0  0  0  0  0
    4.7056   -1.3724    0.0000 C   0  0  0  0  0  0  0  0  0  0  0  0
    3.0194   -2.4900    0.0000 C   0  0  0  0  0  0  0  0  0  0  0  0
    2.2547   -2.8038    0.0000 C   0  0  0  0  0  0  0  0  0  0  0  0
    1.6273   -2.3136    0.0000 C   0  0  0  0  0  0  0  0  0  0  0  0
    2.1567   -3.6076    0.0000 C   0  0  0  0  0  0  0  0  0  0  0  0
    1.9410   -0.4314    0.0000 C   0  0  0  0  0  0  0  0  0  0  0  0
    0.7451   -3.4311    0.0000 C   0  0  0  0  0  0  0  0  0  0  0  0
    0.8627   -2.6077    0.0000 C   0  0  0  0  0  0  0  0  0  0  0  0
    1.3921   -3.9213    0.0000 C   0  0  0  0  0  0  0  0  0  0  0  0
    1.1372   -0.6274    0.0000 C   0  0  0  0  0  0  0  0  0  0  0  0
  1 15  1  0  0  0  0
  2  7  1  0  0  0  0
  2 14  1  0  0  0  0
  3  7  2  0  0  0  0
  4  6  1  0  0  0  0
  4 10  1  0  0  0  0
  5  8  1  0  0  0  0
  5  9  1  0  0  0  0
  6  7  1  0  0  0  0
  6  8  1  0  0  0  0
  6  9  1  0  0  0  0
 10 11  1  0  0  0  0
 11 12  2  0  0  0  0
 11 13  1  0  0  0  0
 12 16  1  0  0  0  0
 13 17  2  0  0  0  0
 14 18  1  0  0  0  0
 15 16  2  0  0  0  0
 15 17  1  0  0  0  0
M  END
> <PUBCHEM_COMPOUND_ID_TYPE>
0

> <PUBCHEM_TOTAL_CHARGE>
0

> <PUBCHEM_SUBSTANCE_ID>
310934632

> <PUBCHEM_SUBSTANCE_VERSION>
1

> <PUBCHEM_EXT_DATASOURCE_NAME>
4488

> <PUBCHEM_EXT_DATASOURCE_REGID>
SCHEMBL16112128

> <PUBCHEM_SUBSTANCE_COMMENT>
InChI=1S/C13H17BrN2O2/c1-2-18-12(17)13(8-15-9-13)16-7-10-3-5-11(14)6-4-10/h3-6,15-16H,2,7-9H2,1H3
InChIKey=VUIVLEGVJANJIT-UHFFFAOYSA-N

> <PUBCHEM_SUBSTANCE_SYNONYM>
SCHEMBL16112128

> <PUBCHEM_XREF_EXT_ID>
SCHEMBL16112128

> <PUBCHEM_EXT_DATASOURCE_URL>
https://www.surechembl.org/

> <PUBCHEM_EXT_SUBSTANCE_URL>
https://www.surechembl.org/chemical/SCHEMBL16112128

> <PUBCHEM_CID_ASSOCIATIONS>
117602803  1

> <PUBCHEM_COORDINATE_TYPE>
1
3

$$$$
