310949500
  -OEChem-07211613022D

 28 32  0     0  0  0  0  0  0999 V2000
   -0.8594    1.5721    0.0000 N   0  0  0  0  0  0  0  0  0  0  0  0
   -0.8594    2.9136    0.0000 N   0  0  0  0  0  0  0  0  0  0  0  0
    1.6280    2.2428    0.0000 N   0  0  0  0  0  0  0  0  0  0  0  0
   -0.0908   -0.8035    0.0000 N   0  0  0  0  0  0  0  0  0  0  0  0
   -0.3843    2.2428    0.0000 C   0  0  0  0  0  0  0  0  0  0  0  0
   -1.6559    1.8376    0.0000 C   0  0  0  0  0  0  0  0  0  0  0  0
   -1.6419    2.6621    0.0000 C   0  0  0  0  0  0  0  0  0  0  0  0
   -0.6079    0.7756    0.0000 C   0  0  0  0  0  0  0  0  0  0  0  0
    0.4542    2.2289    0.0000 C   0  0  0  0  0  0  0  0  0  0  0  0
   -2.3686    1.4183    0.0000 C   0  0  0  0  0  0  0  0  0  0  0  0
   -2.3826    3.0534    0.0000 C   0  0  0  0  0  0  0  0  0  0  0  0
    1.0411    2.8158    0.0000 C   0  0  0  0  0  0  0  0  0  0  0  0
    1.0411    1.6559    0.0000 C   0  0  0  0  0  0  0  0  0  0  0  0
   -1.1668    0.1467    0.0000 C   0  0  0  0  0  0  0  0  0  0  0  0
    0.2027    0.5939    0.0000 C   0  0  0  0  0  0  0  0  0  0  0  0
   -3.0813    1.8237    0.0000 C   0  0  0  0  0  0  0  0  0  0  0  0
   -3.0813    2.6481    0.0000 C   0  0  0  0  0  0  0  0  0  0  0  0
   -0.9014   -0.6218    0.0000 C   0  0  0  0  0  0  0  0  0  0  0  0
    0.4542   -0.1886    0.0000 C   0  0  0  0  0  0  0  0  0  0  0  0
    0.1607   -1.5861    0.0000 C   0  0  0  0  0  0  0  0  0  0  0  0
    0.9712   -1.7677    0.0000 C   0  0  0  0  0  0  0  0  0  0  0  0
    1.1250   -2.5782    0.0000 C   0  0  0  0  0  0  0  0  0  0  0  0
    1.4463   -1.0830    0.0000 C   0  0  0  0  0  0  0  0  0  0  0  0
    1.8376   -3.0534    0.0000 C   0  0  0  0  0  0  0  0  0  0  0  0
    2.2568   -0.9432    0.0000 C   0  0  0  0  0  0  0  0  0  0  0  0
    2.9415   -1.4044    0.0000 C   0  0  0  0  0  0  0  0  0  0  0  0
    2.6201   -2.8997    0.0000 C   0  0  0  0  0  0  0  0  0  0  0  0
    3.0813   -2.2289    0.0000 C   0  0  0  0  0  0  0  0  0  0  0  0
  1  5  1  0  0  0  0
  1  6  1  0  0  0  0
  1  8  1  0  0  0  0
  2  5  2  0  0  0  0
  2  7  1  0  0  0  0
  3 12  1  0  0  0  0
  3 13  1  0  0  0  0
  4 18  1  0  0  0  0
  4 19  1  0  0  0  0
  4 20  1  0  0  0  0
  5  9  1  0  0  0  0
  6  7  1  0  0  0  0
  6 10  2  0  0  0  0
  7 11  2  0  0  0  0
  8 14  1  0  0  0  0
  8 15  1  0  0  0  0
  9 12  1  0  0  0  0
  9 13  1  0  0  0  0
 10 16  1  0  0  0  0
 11 17  1  0  0  0  0
 14 18  1  0  0  0  0
 15 19  1  0  0  0  0
 16 17  2  0  0  0  0
 20 21  1  0  0  0  0
 21 22  1  0  0  0  0
 21 23  1  0  0  0  0
 22 24  1  0  0  0  0
 23 25  1  0  0  0  0
 24 27  1  0  0  0  0
 25 26  1  0  0  0  0
 26 28  1  0  0  0  0
 27 28  1  0  0  0  0
M  END
> <PUBCHEM_COMPOUND_ID_TYPE>
0

> <PUBCHEM_TOTAL_CHARGE>
0

> <PUBCHEM_SUBSTANCE_ID>
310949500

> <PUBCHEM_SUBSTANCE_VERSION>
1

> <PUBCHEM_EXT_DATASOURCE_NAME>
4488

> <PUBCHEM_EXT_DATASOURCE_REGID>
SCHEMBL16127695

> <PUBCHEM_SUBSTANCE_COMMENT>
InChI=1S/C24H36N4/c1-2-4-8-19(9-5-3-1)18-27-14-12-21(13-15-27)28-23-11-7-6-10-22(23)26-24(28)20-16-25-17-20/h6-7,10-11,19-21,25H,1-5,8-9,12-18H2
InChIKey=PQOWSGJIFCUPDA-UHFFFAOYSA-N

> <PUBCHEM_SUBSTANCE_SYNONYM>
SCHEMBL16127695

> <PUBCHEM_XREF_EXT_ID>
SCHEMBL16127695

> <PUBCHEM_EXT_DATASOURCE_URL>
https://www.surechembl.org/

> <PUBCHEM_EXT_SUBSTANCE_URL>
https://www.surechembl.org/chemical/SCHEMBL16127695

> <PUBCHEM_CID_ASSOCIATIONS>
86275726  1

> <PUBCHEM_COORDINATE_TYPE>
1
3

$$$$
