310949483
  -OEChem-07211613022D

 30 33  0     1  0  0  0  0  0999 V2000
   -1.7808    2.7409    0.0000 F   0  0  0  0  0  0  0  0  0  0  0  0
   -3.6276    1.1873    0.0000 F   0  0  0  0  0  0  0  0  0  0  0  0
   -3.9207    2.3304    0.0000 F   0  0  0  0  0  0  0  0  0  0  0  0
   -2.7922    2.6236    0.0000 F   0  0  0  0  0  0  0  0  0  0  0  0
   -0.3298    2.7409    0.0000 O   0  0  0  0  0  0  0  0  0  0  0  0
    3.6422   -2.7409    0.0000 O   0  0  0  0  0  0  0  0  0  0  0  0
    0.3884    1.4951    0.0000 N   0  0  0  0  0  0  0  0  0  0  0  0
    2.6163    0.4103    0.0000 N   0  0  0  0  0  0  0  0  0  0  0  0
    2.6163    1.7588    0.0000 N   0  0  0  0  0  0  0  0  0  0  0  0
    3.1000    1.0846    0.0000 N   0  0  0  0  0  0  0  0  0  0  0  0
   -2.4844    0.6595    0.0000 N   0  0  0  0  0  0  0  0  0  0  0  0
    2.3231   -0.9967    0.0000 N   0  0  0  0  0  0  0  0  0  0  0  0
    3.6862   -0.5423    0.0000 N   0  0  0  0  0  0  0  0  0  0  0  0
    1.8101    0.6742    0.0000 C   0  0  0  0  0  0  0  0  0  0  0  0
    1.8247    1.5097    0.0000 C   0  0  0  0  0  0  0  0  0  0  0  0
   -0.3591    1.8907    0.0000 C   0  0  0  0  0  0  0  0  0  0  0  0
   -1.0480    1.4951    0.0000 C   0  0  0  0  0  0  0  0  0  0  0  0
    0.3884    0.6595    0.0000 C   0  0  3  0  0  0  0  0  0  0  0  0
    1.1066    1.9200    0.0000 C   0  0  0  0  0  0  0  0  0  0  0  0
    1.1066    0.2638    0.0000 C   0  0  0  0  0  0  0  0  0  0  0  0
   -1.7954    1.9200    0.0000 C   0  0  0  0  0  0  0  0  0  0  0  0
   -2.4844    1.5097    0.0000 C   0  0  0  0  0  0  0  0  0  0  0  0
    2.8654   -0.3664    0.0000 C   0  0  0  0  0  0  0  0  0  0  0  0
   -3.2172    1.9200    0.0000 C   0  0  0  0  0  0  0  0  0  0  0  0
   -1.0627    0.6742    0.0000 C   0  0  0  0  0  0  0  0  0  0  0  0
   -1.7661    0.2638    0.0000 C   0  0  0  0  0  0  0  0  0  0  0  0
   -0.3005    0.2785    0.0000 C   0  0  0  0  0  0  0  0  0  0  0  0
    2.5724   -1.7735    0.0000 C   0  0  0  0  0  0  0  0  0  0  0  0
    3.9207   -1.3192    0.0000 C   0  0  0  0  0  0  0  0  0  0  0  0
    3.3784   -1.9493    0.0000 C   0  0  0  0  0  0  0  0  0  0  0  0
  1 21  1  0  0  0  0
  2 24  1  0  0  0  0
  3 24  1  0  0  0  0
  4 24  1  0  0  0  0
  5 16  2  0  0  0  0
  6 30  1  0  0  0  0
  7 16  1  0  0  0  0
  7 18  1  0  0  0  0
  7 19  1  0  0  0  0
  8 10  1  0  0  0  0
  8 14  1  0  0  0  0
  8 23  1  0  0  0  0
  9 10  2  0  0  0  0
  9 15  1  0  0  0  0
 11 22  2  0  0  0  0
 11 26  1  0  0  0  0
 12 23  2  0  0  0  0
 12 28  1  0  0  0  0
 13 23  1  0  0  0  0
 13 29  2  0  0  0  0
 14 15  2  0  0  0  0
 14 20  1  0  0  0  0
 15 19  1  0  0  0  0
 16 17  1  0  0  0  0
 17 21  2  0  0  0  0
 17 25  1  0  0  0  0
 18 20  1  0  0  0  0
 18 27  1  6  0  0  0
 21 22  1  0  0  0  0
 22 24  1  0  0  0  0
 25 26  2  0  0  0  0
 28 30  2  0  0  0  0
 29 30  1  0  0  0  0
M  END
> <PUBCHEM_COMPOUND_ID_TYPE>
0

> <PUBCHEM_TOTAL_CHARGE>
0

> <PUBCHEM_SUBSTANCE_ID>
310949483

> <PUBCHEM_SUBSTANCE_VERSION>
1

> <PUBCHEM_EXT_DATASOURCE_NAME>
4488

> <PUBCHEM_EXT_DATASOURCE_REGID>
SCHEMBL16127677

> <PUBCHEM_SUBSTANCE_COMMENT>
InChI=1S/C17H13F4N7O2/c1-8-4-12-11(25-26-28(12)16-23-5-9(29)6-24-16)7-27(8)15(30)10-2-3-22-14(13(10)18)17(19,20)21/h2-3,5-6,8,29H,4,7H2,1H3/t8-/m0/s1
InChIKey=MZYGBKZJGACDQF-QMMMGPOBSA-N

> <PUBCHEM_SUBSTANCE_SYNONYM>
SCHEMBL16127677

> <PUBCHEM_XREF_EXT_ID>
SCHEMBL16127677

> <PUBCHEM_EXT_DATASOURCE_URL>
https://www.surechembl.org/

> <PUBCHEM_EXT_SUBSTANCE_URL>
https://www.surechembl.org/chemical/SCHEMBL16127677

> <PUBCHEM_CID_ASSOCIATIONS>
117614925  1

> <PUBCHEM_COORDINATE_TYPE>
1
3

> <PUBCHEM_BONDANNOTATIONS>
18  27  6

$$$$
