310945457
  -OEChem-07211613022D

 26 28  0     0  0  0  0  0  0999 V2000
    1.5009    0.8251    0.0000 F   0  0  0  0  0  0  0  0  0  0  0  0
    2.3436    1.6501    0.0000 F   0  0  0  0  0  0  0  0  0  0  0  0
    3.1686    0.8251    0.0000 F   0  0  0  0  0  0  0  0  0  0  0  0
   -2.9228   -1.6502    0.0000 F   0  0  0  0  0  0  0  0  0  0  0  0
   -3.7478   -0.8251    0.0000 F   0  0  0  0  0  0  0  0  0  0  0  0
   -2.9228    0.0000    0.0000 F   0  0  0  0  0  0  0  0  0  0  0  0
   -0.4652    0.6144    0.0000 O   0  0  0  0  0  0  0  0  0  0  0  0
    0.8339   -0.1580    0.0000 N   0  0  0  0  0  0  0  0  0  0  0  0
    0.8339   -1.4921    0.0000 N   0  0  0  0  0  0  0  0  0  0  0  0
    2.3436   -1.6502    0.0000 N   0  0  0  0  0  0  0  0  0  0  0  0
    3.0457   -0.4038    0.0000 N   0  0  0  0  0  0  0  0  0  0  0  0
    1.6062   -0.4389    0.0000 C   0  0  0  0  0  0  0  0  0  0  0  0
    1.5887   -1.2464    0.0000 C   0  0  0  0  0  0  0  0  0  0  0  0
    2.3260    0.0000    0.0000 C   0  0  0  0  0  0  0  0  0  0  0  0
    0.3598   -0.8601    0.0000 C   0  0  0  0  0  0  0  0  0  0  0  0
   -0.4652   -0.8601    0.0000 C   0  0  0  0  0  0  0  0  0  0  0  0
    2.3436    0.8075    0.0000 C   0  0  0  0  0  0  0  0  0  0  0  0
   -0.8865   -0.1405    0.0000 C   0  0  0  0  0  0  0  0  0  0  0  0
    3.0282   -1.2639    0.0000 C   0  0  0  0  0  0  0  0  0  0  0  0
   -2.1329   -0.8601    0.0000 C   0  0  0  0  0  0  0  0  0  0  0  0
   -0.8689   -1.5448    0.0000 C   0  0  0  0  0  0  0  0  0  0  0  0
   -1.7116   -0.1580    0.0000 C   0  0  0  0  0  0  0  0  0  0  0  0
   -2.9404   -0.8601    0.0000 C   0  0  0  0  0  0  0  0  0  0  0  0
   -1.6940   -1.5623    0.0000 C   0  0  0  0  0  0  0  0  0  0  0  0
    3.7479   -1.6502    0.0000 C   0  0  0  0  0  0  0  0  0  0  0  0
   -0.8689    1.3166    0.0000 C   0  0  0  0  0  0  0  0  0  0  0  0
  1 17  1  0  0  0  0
  2 17  1  0  0  0  0
  3 17  1  0  0  0  0
  4 23  1  0  0  0  0
  5 23  1  0  0  0  0
  6 23  1  0  0  0  0
  7 18  1  0  0  0  0
  7 26  1  0  0  0  0
  8 12  1  0  0  0  0
  8 15  2  0  0  0  0
  9 13  1  0  0  0  0
  9 15  1  0  0  0  0
 10 13  1  0  0  0  0
 10 19  2  0  0  0  0
 11 14  2  0  0  0  0
 11 19  1  0  0  0  0
 12 13  2  0  0  0  0
 12 14  1  0  0  0  0
 14 17  1  0  0  0  0
 15 16  1  0  0  0  0
 16 18  2  0  0  0  0
 16 21  1  0  0  0  0
 18 22  1  0  0  0  0
 19 25  1  0  0  0  0
 20 22  2  0  0  0  0
 20 23  1  0  0  0  0
 20 24  1  0  0  0  0
 21 24  2  0  0  0  0
M  END
> <PUBCHEM_COMPOUND_ID_TYPE>
0

> <PUBCHEM_TOTAL_CHARGE>
0

> <PUBCHEM_SUBSTANCE_ID>
310945457

> <PUBCHEM_SUBSTANCE_VERSION>
1

> <PUBCHEM_EXT_DATASOURCE_NAME>
4488

> <PUBCHEM_EXT_DATASOURCE_REGID>
SCHEMBL16123555

> <PUBCHEM_SUBSTANCE_COMMENT>
InChI=1S/C15H10F6N4O/c1-6-22-11(15(19,20)21)10-13(23-6)25-12(24-10)8-4-3-7(14(16,17)18)5-9(8)26-2/h3-5H,1-2H3,(H,22,23,24,25)
InChIKey=USVDDKFFOWFNMD-UHFFFAOYSA-N

> <PUBCHEM_SUBSTANCE_SYNONYM>
SCHEMBL16123555

> <PUBCHEM_XREF_EXT_ID>
SCHEMBL16123555

> <PUBCHEM_EXT_DATASOURCE_URL>
https://www.surechembl.org/

> <PUBCHEM_EXT_SUBSTANCE_URL>
https://www.surechembl.org/chemical/SCHEMBL16123555

> <PUBCHEM_CID_ASSOCIATIONS>
117611502  1

> <PUBCHEM_COORDINATE_TYPE>
1
3

$$$$
