310949765
  -OEChem-07211613022D

 22 23  0     0  0  0  0  0  0999 V2000
   -0.2129    0.6454    0.0000 S   0  0  0  0  0  0  0  0  0  0  0  0
   -0.1996    1.4704    0.0000 O   0  0  0  0  0  0  0  0  0  0  0  0
   -0.1996   -0.1664    0.0000 O   0  0  0  0  0  0  0  0  0  0  0  0
   -3.5398    0.6454    0.0000 O   0  0  0  0  0  0  0  0  0  0  0  0
   -2.2889    1.3640    0.0000 O   0  0  0  0  0  0  0  0  0  0  0  0
    3.5398   -0.0599    0.0000 O   0  0  0  0  0  0  0  0  0  0  0  0
    3.5398    1.3640    0.0000 O   0  0  0  0  0  0  0  0  0  0  0  0
   -1.0513    0.6454    0.0000 N   0  0  0  0  0  0  0  0  0  0  0  0
    0.6254    0.6454    0.0000 C   0  0  0  0  0  0  0  0  0  0  0  0
   -1.4639   -0.0732    0.0000 C   0  0  0  0  0  0  0  0  0  0  0  0
   -2.3022   -0.0466    0.0000 C   0  0  0  0  0  0  0  0  0  0  0  0
    1.0513    1.3507    0.0000 C   0  0  0  0  0  0  0  0  0  0  0  0
    1.0380   -0.0599    0.0000 C   0  0  0  0  0  0  0  0  0  0  0  0
    2.2889    0.6587    0.0000 C   0  0  0  0  0  0  0  0  0  0  0  0
   -1.0513   -0.7651    0.0000 C   0  0  0  0  0  0  0  0  0  0  0  0
    1.8764    1.3507    0.0000 C   0  0  0  0  0  0  0  0  0  0  0  0
    1.8764   -0.0599    0.0000 C   0  0  0  0  0  0  0  0  0  0  0  0
   -2.7014    0.6454    0.0000 C   0  0  0  0  0  0  0  0  0  0  0  0
   -2.6881   -0.7918    0.0000 C   0  0  0  0  0  0  0  0  0  0  0  0
    3.1139    0.6587    0.0000 C   0  0  0  0  0  0  0  0  0  0  0  0
   -1.4639   -1.4704    0.0000 C   0  0  0  0  0  0  0  0  0  0  0  0
   -2.2889   -1.4704    0.0000 C   0  0  0  0  0  0  0  0  0  0  0  0
  1  2  2  0  0  0  0
  1  3  2  0  0  0  0
  1  8  1  0  0  0  0
  1  9  1  0  0  0  0
  4 18  2  0  0  0  0
  5 18  1  0  0  0  0
  6 20  2  0  0  0  0
  7 20  1  0  0  0  0
  8 10  1  0  0  0  0
  9 12  2  0  0  0  0
  9 13  1  0  0  0  0
 10 11  1  0  0  0  0
 10 15  2  0  0  0  0
 11 18  1  0  0  0  0
 11 19  2  0  0  0  0
 12 16  1  0  0  0  0
 13 17  2  0  0  0  0
 14 16  2  0  0  0  0
 14 17  1  0  0  0  0
 14 20  1  0  0  0  0
 15 21  1  0  0  0  0
 19 22  1  0  0  0  0
 21 22  2  0  0  0  0
M  END
> <PUBCHEM_COMPOUND_ID_TYPE>
0

> <PUBCHEM_TOTAL_CHARGE>
0

> <PUBCHEM_SUBSTANCE_ID>
310949765

> <PUBCHEM_SUBSTANCE_VERSION>
1

> <PUBCHEM_EXT_DATASOURCE_NAME>
4488

> <PUBCHEM_EXT_DATASOURCE_REGID>
SCHEMBL16127963

> <PUBCHEM_SUBSTANCE_COMMENT>
InChI=1S/C14H11NO6S/c16-13(17)9-5-7-10(8-6-9)22(20,21)15-12-4-2-1-3-11(12)14(18)19/h1-8,15H,(H,16,17)(H,18,19)
InChIKey=GQROLTMRNWCZJF-UHFFFAOYSA-N

> <PUBCHEM_SUBSTANCE_SYNONYM>
SCHEMBL16127963

> <PUBCHEM_XREF_EXT_ID>
SCHEMBL16127963

> <PUBCHEM_EXT_DATASOURCE_URL>
https://www.surechembl.org/

> <PUBCHEM_EXT_SUBSTANCE_URL>
https://www.surechembl.org/chemical/SCHEMBL16127963

> <PUBCHEM_CID_ASSOCIATIONS>
763907  1

> <PUBCHEM_COORDINATE_TYPE>
1
3

$$$$
