310944797
  -OEChem-07211613022D

 13 14  0     0  0  0  0  0  0999 V2000
    1.1256    1.2471    0.0000 O   0  0  0  0  0  0  0  0  0  0  0  0
    0.1279    0.1983    0.0000 N   0  0  0  0  0  0  0  0  0  0  0  0
   -1.0233   -0.1087    0.0000 C   0  0  0  0  0  0  0  0  0  0  0  0
   -0.6140    0.6076    0.0000 C   0  0  0  0  0  0  0  0  0  0  0  0
   -0.2686   -0.4925    0.0000 C   0  0  0  0  0  0  0  0  0  0  0  0
   -1.7396    0.3006    0.0000 C   0  0  0  0  0  0  0  0  0  0  0  0
   -1.4326   -0.8123    0.0000 C   0  0  0  0  0  0  0  0  0  0  0  0
   -2.1617   -0.3902    0.0000 C   0  0  0  0  0  0  0  0  0  0  0  0
    0.9209    0.4413    0.0000 C   0  0  0  0  0  0  0  0  0  0  0  0
    1.5221   -0.1215    0.0000 C   0  0  0  0  0  0  0  0  0  0  0  0
   -2.7628   -0.5692    0.0000 C   0  0  0  0  0  0  0  0  0  0  0  0
    2.1617   -0.6843    0.0000 C   0  0  0  0  0  0  0  0  0  0  0  0
    2.7628   -1.2471    0.0000 C   0  0  0  0  0  0  0  0  0  0  0  0
  1  9  2  0  0  0  0
  2  4  1  0  0  0  0
  2  5  1  0  0  0  0
  2  9  1  0  0  0  0
  3  4  1  0  0  0  0
  3  5  1  0  0  0  0
  3  6  1  0  0  0  0
  3  7  1  0  0  0  0
  6  8  1  0  0  0  0
  7  8  1  0  0  0  0
  8 11  1  0  0  0  0
  9 10  1  0  0  0  0
 10 12  3  0  0  0  0
 12 13  1  0  0  0  0
M  END
> <PUBCHEM_COMPOUND_ID_TYPE>
0

> <PUBCHEM_TOTAL_CHARGE>
0

> <PUBCHEM_SUBSTANCE_ID>
310944797

> <PUBCHEM_SUBSTANCE_VERSION>
1

> <PUBCHEM_EXT_DATASOURCE_NAME>
4488

> <PUBCHEM_EXT_DATASOURCE_REGID>
SCHEMBL16122876

> <PUBCHEM_SUBSTANCE_COMMENT>
InChI=1S/C11H15NO/c1-3-4-10(13)12-7-11(8-12)5-9(2)6-11/h9H,5-8H2,1-2H3
InChIKey=ZWCGNAKCAUULKM-UHFFFAOYSA-N

> <PUBCHEM_SUBSTANCE_SYNONYM>
SCHEMBL16122876

> <PUBCHEM_XREF_EXT_ID>
SCHEMBL16122876

> <PUBCHEM_EXT_DATASOURCE_URL>
https://www.surechembl.org/

> <PUBCHEM_EXT_SUBSTANCE_URL>
https://www.surechembl.org/chemical/SCHEMBL16122876

> <PUBCHEM_CID_ASSOCIATIONS>
117611009  1

> <PUBCHEM_COORDINATE_TYPE>
1
3

$$$$
