310948274
  -OEChem-07211613022D

 34 38  0     1  0  0  0  0  0999 V2000
   -2.2268    3.8362    0.0000 O   0  0  0  0  0  0  0  0  0  0  0  0
    0.4648    3.1287    0.0000 N   0  0  0  0  0  0  0  0  0  0  0  0
   -0.0208    2.4488    0.0000 N   0  0  0  0  0  0  0  0  0  0  0  0
   -1.5193    2.2268    0.0000 N   0  0  0  0  0  0  0  0  0  0  0  0
   -1.2556    4.8907    0.0000 N   0  0  0  0  0  0  0  0  0  0  0  0
   -1.9354   -2.3656    0.0000 N   0  0  0  0  0  0  0  0  0  0  0  0
   -1.1030   -2.3656    0.0000 N   0  0  0  0  0  0  0  0  0  0  0  0
    0.9920    0.9781    0.0000 N   0  0  0  0  0  0  0  0  0  0  0  0
   -3.0592   -5.1405    0.0000 N   0  0  0  0  0  0  0  0  0  0  0  0
   -0.8116    3.5449    0.0000 C   0  0  0  0  0  0  0  0  0  0  0  0
   -0.0485    3.7947    0.0000 C   0  0  0  0  0  0  0  0  0  0  0  0
   -0.8255    2.7124    0.0000 C   0  0  0  0  0  0  0  0  0  0  0  0
    1.3944    3.1425    0.0000 C   0  0  3  0  0  0  0  0  0  0  0  0
   -1.4221    4.0998    0.0000 C   0  0  0  0  0  0  0  0  0  0  0  0
    0.1318    4.5993    0.0000 C   0  0  0  0  0  0  0  0  0  0  0  0
    1.8244    2.4211    0.0000 C   0  0  3  0  0  0  0  0  0  0  0  0
   -1.5193    1.3944    0.0000 C   0  0  0  0  0  0  0  0  0  0  0  0
   -0.4648    5.1405    0.0000 C   0  0  0  0  0  0  0  0  0  0  0  0
    1.8244    3.8362    0.0000 C   0  0  0  0  0  0  0  0  0  0  0  0
    2.6569    2.4211    0.0000 C   0  0  0  0  0  0  0  0  0  0  0  0
   -1.5054   -0.2567    0.0000 C   0  0  0  0  0  0  0  0  0  0  0  0
   -2.2268    0.9781    0.0000 C   0  0  0  0  0  0  0  0  0  0  0  0
   -0.7978    0.9781    0.0000 C   0  0  0  0  0  0  0  0  0  0  0  0
    1.3944    1.7135    0.0000 C   0  0  0  0  0  0  0  0  0  0  0  0
    2.6431    3.8362    0.0000 C   0  0  0  0  0  0  0  0  0  0  0  0
   -1.5193   -1.0891    0.0000 C   0  0  0  0  0  0  0  0  0  0  0  0
   -2.2268    0.1457    0.0000 C   0  0  0  0  0  0  0  0  0  0  0  0
   -0.7978    0.1595    0.0000 C   0  0  0  0  0  0  0  0  0  0  0  0
    3.0592    3.1425    0.0000 C   0  0  0  0  0  0  0  0  0  0  0  0
   -2.1713   -1.5609    0.0000 C   0  0  0  0  0  0  0  0  0  0  0  0
   -0.8533   -1.5748    0.0000 C   0  0  0  0  0  0  0  0  0  0  0  0
   -2.4211   -3.0454    0.0000 C   0  0  0  0  0  0  0  0  0  0  0  0
   -2.0881   -3.7947    0.0000 C   0  0  0  0  0  0  0  0  0  0  0  0
   -2.5737   -4.4606    0.0000 C   0  0  0  0  0  0  0  0  0  0  0  0
  1 14  2  0  0  0  0
  2  3  1  0  0  0  0
  2 11  1  0  0  0  0
 13  2  1  1  0  0  0
  3 12  2  0  0  0  0
  4 12  1  0  0  0  0
  4 17  1  0  0  0  0
  5 14  1  0  0  0  0
  5 18  1  0  0  0  0
  6  7  1  0  0  0  0
  6 30  1  0  0  0  0
  6 32  1  0  0  0  0
  7 31  2  0  0  0  0
  8 24  3  0  0  0  0
  9 34  3  0  0  0  0
 10 11  2  0  0  0  0
 10 12  1  0  0  0  0
 10 14  1  0  0  0  0
 11 15  1  0  0  0  0
 13 16  1  0  0  0  0
 13 19  1  0  0  0  0
 15 18  2  0  0  0  0
 16 20  1  0  0  0  0
 16 24  1  6  0  0  0
 17 22  2  0  0  0  0
 17 23  1  0  0  0  0
 19 25  1  0  0  0  0
 20 29  1  0  0  0  0
 21 26  1  0  0  0  0
 21 27  2  0  0  0  0
 21 28  1  0  0  0  0
 22 27  1  0  0  0  0
 23 28  2  0  0  0  0
 25 29  1  0  0  0  0
 26 30  2  0  0  0  0
 26 31  1  0  0  0  0
 32 33  1  0  0  0  0
 33 34  1  0  0  0  0
M  END
> <PUBCHEM_COMPOUND_ID_TYPE>
0

> <PUBCHEM_TOTAL_CHARGE>
0

> <PUBCHEM_SUBSTANCE_ID>
310948274

> <PUBCHEM_SUBSTANCE_VERSION>
1

> <PUBCHEM_EXT_DATASOURCE_NAME>
4488

> <PUBCHEM_EXT_DATASOURCE_REGID>
SCHEMBL16126451

> <PUBCHEM_SUBSTANCE_COMMENT>
InChI=1S/C25H24N8O/c26-11-3-13-32-16-19(15-29-32)17-6-8-20(9-7-17)30-24-23-22(10-12-28-25(23)34)33(31-24)21-5-2-1-4-18(21)14-27/h6-10,12,15-16,18,21H,1-5,13H2,(H,28,34)(H,30,31)/t18-,21+/m1/s1
InChIKey=FBZZXRLHBDPWIN-NQIIRXRSSA-N

> <PUBCHEM_SUBSTANCE_SYNONYM>
SCHEMBL16126451

> <PUBCHEM_XREF_EXT_ID>
SCHEMBL16126451

> <PUBCHEM_EXT_DATASOURCE_URL>
https://www.surechembl.org/

> <PUBCHEM_EXT_SUBSTANCE_URL>
https://www.surechembl.org/chemical/SCHEMBL16126451

> <PUBCHEM_CID_ASSOCIATIONS>
117613854  1

> <PUBCHEM_COORDINATE_TYPE>
1
3

> <PUBCHEM_BONDANNOTATIONS>
16  24  6
13  2  5

$$$$
