310929276
  -OEChem-07211613022D

 21 21  0     0  0  0  0  0  0999 V2000
    3.5277   -2.4467    0.0000 O   0  0  0  0  0  0  0  0  0  0  0  0
    2.1053    0.0000    0.0000 O   0  0  0  0  0  0  0  0  0  0  0  0
    0.6828   -3.2717    0.0000 O   0  5  0  0  0  0  0  0  0  0  0  0
    0.0000   -2.0199    0.0000 O   0  0  0  0  0  0  0  0  0  0  0  0
    4.9501   -0.7966    0.0000 O   0  0  0  0  0  0  0  0  0  0  0  0
    7.0838   -1.1949    0.0000 O   0  0  0  0  0  0  0  0  0  0  0  0
    7.7950   -3.2432    0.0000 O   0  0  0  0  0  0  0  0  0  0  0  0
    0.6828   -2.4467    0.0000 N   0  3  0  0  0  0  0  0  0  0  0  0
    1.3940   -2.0483    0.0000 C   0  0  0  0  0  0  0  0  0  0  0  0
    2.8165   -2.0483    0.0000 C   0  0  0  0  0  0  0  0  0  0  0  0
    2.1053   -2.4467    0.0000 C   0  0  0  0  0  0  0  0  0  0  0  0
    2.1053   -0.7966    0.0000 C   0  0  0  0  0  0  0  0  0  0  0  0
    1.3940   -1.2233    0.0000 C   0  0  0  0  0  0  0  0  0  0  0  0
    2.8165   -1.2233    0.0000 C   0  0  0  0  0  0  0  0  0  0  0  0
    4.2389   -2.0483    0.0000 C   0  0  0  0  0  0  0  0  0  0  0  0
    4.2389   -1.2233    0.0000 C   0  0  0  0  0  0  0  0  0  0  0  0
    5.6329   -1.2233    0.0000 C   0  0  0  0  0  0  0  0  0  0  0  0
    6.3442   -0.7966    0.0000 C   0  0  0  0  0  0  0  0  0  0  0  0
    7.0838   -2.0199    0.0000 C   0  0  0  0  0  0  0  0  0  0  0  0
    7.7950   -2.4182    0.0000 C   0  0  0  0  0  0  0  0  0  0  0  0
    8.5348   -3.6415    0.0000 C   0  0  0  0  0  0  0  0  0  0  0  0
  1 10  1  0  0  0  0
  1 15  1  0  0  0  0
  2 12  1  0  0  0  0
  3  8  1  0  0  0  0
  4  8  2  0  0  0  0
  5 16  1  0  0  0  0
  5 17  1  0  0  0  0
  6 18  1  0  0  0  0
  6 19  1  0  0  0  0
  7 20  1  0  0  0  0
  7 21  1  0  0  0  0
  8  9  1  0  0  0  0
  9 11  1  0  0  0  0
  9 13  2  0  0  0  0
 10 11  2  0  0  0  0
 10 14  1  0  0  0  0
 12 13  1  0  0  0  0
 12 14  2  0  0  0  0
 15 16  1  0  0  0  0
 17 18  1  0  0  0  0
 19 20  1  0  0  0  0
M  CHG  2   3  -1   8   1
M  END
> <PUBCHEM_COMPOUND_ID_TYPE>
0

> <PUBCHEM_TOTAL_CHARGE>
0

> <PUBCHEM_SUBSTANCE_ID>
310929276

> <PUBCHEM_SUBSTANCE_VERSION>
1

> <PUBCHEM_EXT_DATASOURCE_NAME>
4488

> <PUBCHEM_EXT_DATASOURCE_REGID>
SCHEMBL16106440

> <PUBCHEM_SUBSTANCE_COMMENT>
InChI=1S/C13H19NO7/c1-18-2-3-19-4-5-20-6-7-21-13-9-11(14(16)17)8-12(15)10-13/h8-10,15H,2-7H2,1H3
InChIKey=UNYVLZSYLZYNMS-UHFFFAOYSA-N

> <PUBCHEM_SUBSTANCE_SYNONYM>
SCHEMBL16106440

> <PUBCHEM_XREF_EXT_ID>
SCHEMBL16106440

> <PUBCHEM_EXT_DATASOURCE_URL>
https://www.surechembl.org/

> <PUBCHEM_EXT_SUBSTANCE_URL>
https://www.surechembl.org/chemical/SCHEMBL16106440

> <PUBCHEM_CID_ASSOCIATIONS>
117598693  1

> <PUBCHEM_COORDINATE_TYPE>
1
3

$$$$
