310929088
  -OEChem-07211613022D

 56 60  0     0  0  0  0  0  0999 V2000
    9.9763   -2.0784    0.0000 O   0  0  0  0  0  0  0  0  0  0  0  0
   13.7174   -2.8504    0.0000 O   0  0  0  0  0  0  0  0  0  0  0  0
   13.2424   -0.7126    0.0000 O   0  0  0  0  0  0  0  0  0  0  0  0
    4.9881   -4.8100    0.0000 O   0  0  0  0  0  0  0  0  0  0  0  0
    7.4228   -6.3539    0.0000 O   0  0  0  0  0  0  0  0  0  0  0  0
    4.5131   -6.9478    0.0000 O   0  0  0  0  0  0  0  0  0  0  0  0
    2.4347   -7.6010    0.0000 O   0  0  0  0  0  0  0  0  0  0  0  0
    0.8314   -6.1164    0.0000 O   0  0  0  0  0  0  0  0  0  0  0  0
   13.2424   -2.1378    0.0000 N   0  0  0  0  0  0  0  0  0  0  0  0
   14.4894   -1.4252    0.0000 N   0  0  0  0  0  0  0  0  0  0  0  0
    7.4822   -3.4442    0.0000 N   0  0  0  0  0  0  0  0  0  0  0  0
    8.7293   -4.2162    0.0000 N   0  0  0  0  0  0  0  0  0  0  0  0
   15.7365   -4.9881    0.0000 N   0  0  0  0  0  0  0  0  0  0  0  0
   12.0547   -1.4252    0.0000 C   0  0  0  0  0  0  0  0  0  0  0  0
   11.2234   -1.4252    0.0000 C   0  0  0  0  0  0  0  0  0  0  0  0
   12.4704   -2.1378    0.0000 C   0  0  0  0  0  0  0  0  0  0  0  0
   10.8077   -2.0784    0.0000 C   0  0  0  0  0  0  0  0  0  0  0  0
   14.9051   -2.1378    0.0000 C   0  0  0  0  0  0  0  0  0  0  0  0
   14.4894   -2.8504    0.0000 C   0  0  0  0  0  0  0  0  0  0  0  0
   16.1521   -2.8504    0.0000 C   0  0  0  0  0  0  0  0  0  0  0  0
   14.9051   -3.5630    0.0000 C   0  0  0  0  0  0  0  0  0  0  0  0
   15.7365   -2.1378    0.0000 C   0  0  0  0  0  0  0  0  0  0  0  0
   16.9835   -2.8504    0.0000 C   0  0  0  0  0  0  0  0  0  0  0  0
   12.0547   -2.8504    0.0000 C   0  0  0  0  0  0  0  0  0  0  0  0
   11.2234   -2.8504    0.0000 C   0  0  0  0  0  0  0  0  0  0  0  0
   15.7365   -3.5630    0.0000 C   0  0  0  0  0  0  0  0  0  0  0  0
   12.4704   -0.7126    0.0000 C   0  0  0  0  0  0  0  0  0  0  0  0
   10.8077   -0.7126    0.0000 C   0  0  0  0  0  0  0  0  0  0  0  0
   13.6581   -1.4252    0.0000 C   0  0  0  0  0  0  0  0  0  0  0  0
    9.5606   -2.7910    0.0000 C   0  0  0  0  0  0  0  0  0  0  0  0
   12.0547    0.0000    0.0000 C   0  0  0  0  0  0  0  0  0  0  0  0
   11.2234    0.0000    0.0000 C   0  0  0  0  0  0  0  0  0  0  0  0
   14.4894   -4.2756    0.0000 C   0  0  0  0  0  0  0  0  0  0  0  0
    8.7293   -2.7910    0.0000 C   0  0  0  0  0  0  0  0  0  0  0  0
    8.3136   -3.5036    0.0000 C   0  0  0  0  0  0  0  0  0  0  0  0
    9.9763   -3.5036    0.0000 C   0  0  0  0  0  0  0  0  0  0  0  0
   16.9835   -3.6817    0.0000 C   0  0  0  0  0  0  0  0  0  0  0  0
   17.8148   -2.8504    0.0000 C   0  0  0  0  0  0  0  0  0  0  0  0
   16.9835   -2.0190    0.0000 C   0  0  0  0  0  0  0  0  0  0  0  0
    7.0666   -4.1568    0.0000 C   0  0  0  0  0  0  0  0  0  0  0  0
    9.5013   -4.2162    0.0000 C   0  0  0  0  0  0  0  0  0  0  0  0
    6.2352   -4.1568    0.0000 C   0  0  0  0  0  0  0  0  0  0  0  0
    5.8195   -4.8694    0.0000 C   0  0  0  0  0  0  0  0  0  0  0  0
    7.4822   -4.8694    0.0000 C   0  0  0  0  0  0  0  0  0  0  0  0
   14.9051   -4.9881    0.0000 C   0  0  0  0  0  0  0  0  0  0  0  0
    7.0072   -5.5820    0.0000 C   0  0  0  0  0  0  0  0  0  0  0  0
   13.3018   -3.5630    0.0000 C   0  0  0  0  0  0  0  0  0  0  0  0
    6.2352   -5.5820    0.0000 C   0  0  0  0  0  0  0  0  0  0  0  0
    4.5725   -5.5226    0.0000 C   0  0  0  0  0  0  0  0  0  0  0  0
    8.2542   -6.3539    0.0000 C   0  0  0  0  0  0  0  0  0  0  0  0
    4.9288   -6.2352    0.0000 C   0  0  0  0  0  0  0  0  0  0  0  0
    3.6817   -6.9478    0.0000 C   0  0  0  0  0  0  0  0  0  0  0  0
    3.2661   -7.6010    0.0000 C   0  0  0  0  0  0  0  0  0  0  0  0
    2.0784   -6.8884    0.0000 C   0  0  0  0  0  0  0  0  0  0  0  0
    1.2471   -6.8884    0.0000 C   0  0  0  0  0  0  0  0  0  0  0  0
    0.0000   -6.1164    0.0000 C   0  0  0  0  0  0  0  0  0  0  0  0
  1 17  1  0  0  0  0
  1 30  1  0  0  0  0
  2 19  1  0  0  0  0
  2 47  1  0  0  0  0
  3 29  2  0  0  0  0
  4 43  1  0  0  0  0
  4 49  1  0  0  0  0
  5 46  1  0  0  0  0
  5 50  1  0  0  0  0
  6 51  1  0  0  0  0
  6 52  1  0  0  0  0
  7 53  1  0  0  0  0
  7 54  1  0  0  0  0
  8 55  1  0  0  0  0
  8 56  1  0  0  0  0
  9 16  1  0  0  0  0
  9 29  1  0  0  0  0
 10 18  1  0  0  0  0
 10 29  1  0  0  0  0
 11 35  1  0  0  0  0
 11 40  1  0  0  0  0
 12 35  2  0  0  0  0
 12 41  1  0  0  0  0
 13 45  3  0  0  0  0
 14 15  2  0  0  0  0
 14 16  1  0  0  0  0
 14 27  1  0  0  0  0
 15 17  1  0  0  0  0
 15 28  1  0  0  0  0
 16 24  2  0  0  0  0
 17 25  2  0  0  0  0
 18 19  1  0  0  0  0
 18 22  2  0  0  0  0
 19 21  2  0  0  0  0
 20 22  1  0  0  0  0
 20 23  1  0  0  0  0
 20 26  2  0  0  0  0
 21 26  1  0  0  0  0
 21 33  1  0  0  0  0
 23 37  1  0  0  0  0
 23 38  1  0  0  0  0
 23 39  1  0  0  0  0
 24 25  1  0  0  0  0
 27 31  2  0  0  0  0
 28 32  2  0  0  0  0
 30 34  2  0  0  0  0
 30 36  1  0  0  0  0
 31 32  1  0  0  0  0
 33 45  1  0  0  0  0
 34 35  1  0  0  0  0
 36 41  2  0  0  0  0
 40 42  2  0  0  0  0
 40 44  1  0  0  0  0
 42 43  1  0  0  0  0
 43 48  2  0  0  0  0
 44 46  2  0  0  0  0
 46 48  1  0  0  0  0
 49 51  1  0  0  0  0
 52 53  1  0  0  0  0
 54 55  1  0  0  0  0
M  END
> <PUBCHEM_COMPOUND_ID_TYPE>
0

> <PUBCHEM_TOTAL_CHARGE>
0

> <PUBCHEM_SUBSTANCE_ID>
310929088

> <PUBCHEM_SUBSTANCE_VERSION>
1

> <PUBCHEM_EXT_DATASOURCE_NAME>
4488

> <PUBCHEM_EXT_DATASOURCE_REGID>
SCHEMBL16106250

> <PUBCHEM_SUBSTANCE_COMMENT>
InChI=1S/C43H49N5O8/c1-43(2,3)30-23-29(13-15-44)41(52-6)38(24-30)48-42(49)47-37-11-12-39(36-10-8-7-9-35(36)37)56-32-14-16-45-40(28-32)46-31-25-33(51-5)27-34(26-31)55-22-21-54-20-19-53-18-17-50-4/h7-12,14,16,23-28H,13,17-22H2,1-6H3,(H,45,46)(H2,47,48,49)
InChIKey=VUYDPGWYKUYARA-UHFFFAOYSA-N

> <PUBCHEM_SUBSTANCE_SYNONYM>
SCHEMBL16106250

> <PUBCHEM_XREF_EXT_ID>
SCHEMBL16106250

> <PUBCHEM_EXT_DATASOURCE_URL>
https://www.surechembl.org/

> <PUBCHEM_EXT_SUBSTANCE_URL>
https://www.surechembl.org/chemical/SCHEMBL16106250

> <PUBCHEM_CID_ASSOCIATIONS>
117598582  1

> <PUBCHEM_COORDINATE_TYPE>
1
3

$$$$
