310935274
  -OEChem-07211613022D

 25 27  0     0  0  0  0  0  0999 V2000
    2.9096   -0.0588    0.0000 S   0  0  0  0  0  0  0  0  0  0  0  0
    8.5526   -1.6165    0.0000 F   0  0  0  0  0  0  0  0  0  0  0  0
    8.8171   -4.4673    0.0000 F   0  0  0  0  0  0  0  0  0  0  0  0
    0.7348   -1.2344    0.0000 O   0  0  0  0  0  0  0  0  0  0  0  0
    4.7612   -1.2638    0.0000 N   0  0  0  0  0  0  0  0  0  0  0  0
    2.2336   -1.2344    0.0000 N   0  0  0  0  0  0  0  0  0  0  0  0
    1.4401    0.0000    0.0000 N   0  0  0  0  0  0  0  0  0  0  0  0
    3.4681   -0.6759    0.0000 C   0  0  0  0  0  0  0  0  0  0  0  0
    2.1455   -0.4115    0.0000 C   0  0  0  0  0  0  0  0  0  0  0  0
    4.2910   -0.5878    0.0000 C   0  0  0  0  0  0  0  0  0  0  0  0
    5.7311   -2.6157    0.0000 C   0  0  0  0  0  0  0  0  0  0  0  0
    3.0566   -1.3814    0.0000 C   0  0  0  0  0  0  0  0  0  0  0  0
    7.0536   -3.2036    0.0000 C   0  0  0  0  0  0  0  0  0  0  0  0
    6.2013   -3.2623    0.0000 C   0  0  0  0  0  0  0  0  0  0  0  0
    5.6136   -1.1756    0.0000 C   0  0  0  0  0  0  0  0  0  0  0  0
    4.4379   -1.9986    0.0000 C   0  0  0  0  0  0  0  0  0  0  0  0
    6.0838   -1.8516    0.0000 C   0  0  0  0  0  0  0  0  0  0  0  0
    4.9082   -2.6745    0.0000 C   0  0  0  0  0  0  0  0  0  0  0  0
    7.5239   -3.8795    0.0000 C   0  0  0  0  0  0  0  0  0  0  0  0
    7.3770   -2.4688    0.0000 C   0  0  0  0  0  0  0  0  0  0  0  0
    8.1999   -2.3806    0.0000 C   0  0  0  0  0  0  0  0  0  0  0  0
    8.3468   -3.7913    0.0000 C   0  0  0  0  0  0  0  0  0  0  0  0
    8.6995   -3.0566    0.0000 C   0  0  0  0  0  0  0  0  0  0  0  0
    0.7348   -0.4115    0.0000 C   0  0  0  0  0  0  0  0  0  0  0  0
    0.0000    0.0000    0.0000 C   0  0  0  0  0  0  0  0  0  0  0  0
  1  8  1  0  0  0  0
  1  9  1  0  0  0  0
  2 21  1  0  0  0  0
  3 22  1  0  0  0  0
  4 24  2  0  0  0  0
  5 10  1  0  0  0  0
  5 15  1  0  0  0  0
  5 16  1  0  0  0  0
  6  9  2  0  0  0  0
  6 12  1  0  0  0  0
  7  9  1  0  0  0  0
  7 24  1  0  0  0  0
  8 10  1  0  0  0  0
  8 12  2  0  0  0  0
 11 14  1  0  0  0  0
 11 17  1  0  0  0  0
 11 18  1  0  0  0  0
 13 14  1  0  0  0  0
 13 19  2  0  0  0  0
 13 20  1  0  0  0  0
 15 17  1  0  0  0  0
 16 18  1  0  0  0  0
 19 22  1  0  0  0  0
 20 21  2  0  0  0  0
 21 23  1  0  0  0  0
 22 23  2  0  0  0  0
 24 25  1  0  0  0  0
M  END
> <PUBCHEM_COMPOUND_ID_TYPE>
0

> <PUBCHEM_TOTAL_CHARGE>
0

> <PUBCHEM_SUBSTANCE_ID>
310935274

> <PUBCHEM_SUBSTANCE_VERSION>
1

> <PUBCHEM_EXT_DATASOURCE_NAME>
4488

> <PUBCHEM_EXT_DATASOURCE_REGID>
SCHEMBL16112806

> <PUBCHEM_SUBSTANCE_COMMENT>
InChI=1S/C18H21F2N3OS/c1-12(24)22-18-21-10-17(25-18)11-23-4-2-13(3-5-23)6-14-7-15(19)9-16(20)8-14/h7-10,13H,2-6,11H2,1H3,(H,21,22,24)
InChIKey=LVCXVPIPHBNDGM-UHFFFAOYSA-N

> <PUBCHEM_SUBSTANCE_SYNONYM>
SCHEMBL16112806

> <PUBCHEM_XREF_EXT_ID>
SCHEMBL16112806

> <PUBCHEM_EXT_DATASOURCE_URL>
https://www.surechembl.org/

> <PUBCHEM_EXT_SUBSTANCE_URL>
https://www.surechembl.org/chemical/SCHEMBL16112806

> <PUBCHEM_CID_ASSOCIATIONS>
117603344  1

> <PUBCHEM_COORDINATE_TYPE>
1
3

$$$$
