310948447
  -OEChem-07211613022D

 36 40  0     1  0  0  0  0  0999 V2000
    4.2707   -2.5471    0.0000 F   0  0  0  0  0  0  0  0  0  0  0  0
    3.4472   -3.3705    0.0000 F   0  0  0  0  0  0  0  0  0  0  0  0
   -2.9493   -1.7619    0.0000 O   0  0  0  0  0  0  0  0  0  0  0  0
    2.2215    0.1724    0.0000 O   0  0  0  0  0  0  0  0  0  0  0  0
   -2.2406    0.9192    0.0000 N   0  0  0  0  0  0  0  0  0  0  0  0
   -1.5704    0.4213    0.0000 N   0  0  0  0  0  0  0  0  0  0  0  0
   -1.3406   -1.0150    0.0000 N   0  0  0  0  0  0  0  0  0  0  0  0
   -4.0217   -0.8044    0.0000 N   0  0  0  0  0  0  0  0  0  0  0  0
    2.4322   -1.2448    0.0000 N   0  0  0  0  0  0  0  0  0  0  0  0
   -0.1149    1.3597    0.0000 N   0  0  0  0  0  0  0  0  0  0  0  0
   -2.6620   -0.3256    0.0000 C   0  0  0  0  0  0  0  0  0  0  0  0
   -2.9109    0.4022    0.0000 C   0  0  0  0  0  0  0  0  0  0  0  0
   -1.8385   -0.3639    0.0000 C   0  0  0  0  0  0  0  0  0  0  0  0
   -2.2406    1.7619    0.0000 C   0  0  3  0  0  0  0  0  0  0  0  0
   -3.2174   -0.9575    0.0000 C   0  0  0  0  0  0  0  0  0  0  0  0
   -3.7153    0.5937    0.0000 C   0  0  0  0  0  0  0  0  0  0  0  0
   -1.5321    2.1449    0.0000 C   0  0  3  0  0  0  0  0  0  0  0  0
   -0.5362   -0.9384    0.0000 C   0  0  0  0  0  0  0  0  0  0  0  0
   -4.2707   -0.0383    0.0000 C   0  0  0  0  0  0  0  0  0  0  0  0
   -2.9301    2.1449    0.0000 C   0  0  0  0  0  0  0  0  0  0  0  0
    1.1107   -0.6894    0.0000 C   0  0  0  0  0  0  0  0  0  0  0  0
    0.5746   -0.0574    0.0000 C   0  0  0  0  0  0  0  0  0  0  0  0
   -0.2107   -0.1724    0.0000 C   0  0  0  0  0  0  0  0  0  0  0  0
    1.9151   -0.5937    0.0000 C   0  0  0  0  0  0  0  0  0  0  0  0
   -0.0191   -1.5704    0.0000 C   0  0  0  0  0  0  0  0  0  0  0  0
   -1.5321    2.9684    0.0000 C   0  0  0  0  0  0  0  0  0  0  0  0
    0.8044   -1.4555    0.0000 C   0  0  0  0  0  0  0  0  0  0  0  0
   -0.8235    1.7427    0.0000 C   0  0  0  0  0  0  0  0  0  0  0  0
   -2.9301    2.9876    0.0000 C   0  0  0  0  0  0  0  0  0  0  0  0
   -2.2598    3.3705    0.0000 C   0  0  0  0  0  0  0  0  0  0  0  0
    3.4472   -2.5471    0.0000 C   0  0  0  0  0  0  0  0  0  0  0  0
    2.1258   -2.0108    0.0000 C   0  0  0  0  0  0  0  0  0  0  0  0
    3.2557   -1.1490    0.0000 C   0  0  0  0  0  0  0  0  0  0  0  0
    2.6237   -2.6428    0.0000 C   0  0  0  0  0  0  0  0  0  0  0  0
    3.7536   -1.7619    0.0000 C   0  0  0  0  0  0  0  0  0  0  0  0
    0.9001    0.7086    0.0000 C   0  0  0  0  0  0  0  0  0  0  0  0
  1 31  1  0  0  0  0
  2 31  1  0  0  0  0
  3 15  2  0  0  0  0
  4 24  2  0  0  0  0
  5  6  1  0  0  0  0
  5 12  1  0  0  0  0
 14  5  1  1  0  0  0
  6 13  2  0  0  0  0
  7 13  1  0  0  0  0
  7 18  1  0  0  0  0
  8 15  1  0  0  0  0
  8 19  1  0  0  0  0
  9 24  1  0  0  0  0
  9 32  1  0  0  0  0
  9 33  1  0  0  0  0
 10 28  3  0  0  0  0
 11 12  2  0  0  0  0
 11 13  1  0  0  0  0
 11 15  1  0  0  0  0
 12 16  1  0  0  0  0
 14 17  1  0  0  0  0
 14 20  1  0  0  0  0
 16 19  2  0  0  0  0
 17 26  1  0  0  0  0
 17 28  1  6  0  0  0
 18 23  1  0  0  0  0
 18 25  2  0  0  0  0
 20 29  1  0  0  0  0
 21 22  1  0  0  0  0
 21 24  1  0  0  0  0
 21 27  2  0  0  0  0
 22 23  2  0  0  0  0
 22 36  1  0  0  0  0
 25 27  1  0  0  0  0
 26 30  1  0  0  0  0
 29 30  1  0  0  0  0
 31 34  1  0  0  0  0
 31 35  1  0  0  0  0
 32 34  1  0  0  0  0
 33 35  1  0  0  0  0
M  END
> <PUBCHEM_COMPOUND_ID_TYPE>
0

> <PUBCHEM_TOTAL_CHARGE>
0

> <PUBCHEM_SUBSTANCE_ID>
310948447

> <PUBCHEM_SUBSTANCE_VERSION>
1

> <PUBCHEM_EXT_DATASOURCE_NAME>
4488

> <PUBCHEM_EXT_DATASOURCE_REGID>
SCHEMBL16126628

> <PUBCHEM_SUBSTANCE_COMMENT>
InChI=1S/C26H28F2N6O2/c1-16-14-18(6-7-19(16)25(36)33-12-9-26(27,28)10-13-33)31-23-22-21(8-11-30-24(22)35)34(32-23)20-5-3-2-4-17(20)15-29/h6-8,11,14,17,20H,2-5,9-10,12-13H2,1H3,(H,30,35)(H,31,32)/t17-,20+/m1/s1
InChIKey=HVJUIUIEMYNGII-XLIONFOSSA-N

> <PUBCHEM_SUBSTANCE_SYNONYM>
SCHEMBL16126628

> <PUBCHEM_XREF_EXT_ID>
SCHEMBL16126628

> <PUBCHEM_EXT_DATASOURCE_URL>
https://www.surechembl.org/

> <PUBCHEM_EXT_SUBSTANCE_URL>
https://www.surechembl.org/chemical/SCHEMBL16126628

> <PUBCHEM_CID_ASSOCIATIONS>
117614005  1

> <PUBCHEM_COORDINATE_TYPE>
1
3

> <PUBCHEM_BONDANNOTATIONS>
17  28  6
14  5  5

$$$$
