310936034
  -OEChem-07211613022D

 32 37  0     0  0  0  0  0  0999 V2000
    4.6269   -7.5235    0.0000 F   0  0  0  0  0  0  0  0  0  0  0  0
    2.2570   -4.8526    0.0000 N   0  0  0  0  0  0  0  0  0  0  0  0
    0.7524   -5.0031    0.0000 N   0  0  0  0  0  0  0  0  0  0  0  0
    1.4294   -2.1442    0.0000 N   0  0  0  0  0  0  0  0  0  0  0  0
    1.9937   -0.7524    0.0000 N   0  0  0  0  0  0  0  0  0  0  0  0
    4.7774   -3.4984    0.0000 N   0  0  0  0  0  0  0  0  0  0  0  0
    4.6645   -5.3793    0.0000 N   0  0  0  0  0  0  0  0  0  0  0  0
    1.4671   -3.7617    0.0000 C   0  0  0  0  0  0  0  0  0  0  0  0
    1.4671   -4.6269    0.0000 C   0  0  0  0  0  0  0  0  0  0  0  0
    2.7461   -4.1755    0.0000 C   0  0  0  0  0  0  0  0  0  0  0  0
    0.7524   -3.3856    0.0000 C   0  0  0  0  0  0  0  0  0  0  0  0
    2.2570   -3.5360    0.0000 C   0  0  0  0  0  0  0  0  0  0  0  0
    0.7147   -2.5580    0.0000 C   0  0  0  0  0  0  0  0  0  0  0  0
    3.5360   -4.1755    0.0000 C   0  0  0  0  0  0  0  0  0  0  0  0
    2.4828   -5.6426    0.0000 C   0  0  0  0  0  0  0  0  0  0  0  0
    0.0376   -3.7617    0.0000 C   0  0  0  0  0  0  0  0  0  0  0  0
    0.0376   -4.6269    0.0000 C   0  0  0  0  0  0  0  0  0  0  0  0
    1.4294   -1.3166    0.0000 C   0  0  0  0  0  0  0  0  0  0  0  0
    0.0000   -2.1442    0.0000 C   0  0  0  0  0  0  0  0  0  0  0  0
    3.3103   -5.7930    0.0000 C   0  0  0  0  0  0  0  0  0  0  0  0
    0.6771   -0.9028    0.0000 C   0  0  0  0  0  0  0  0  0  0  0  0
    3.9874   -3.4984    0.0000 C   0  0  0  0  0  0  0  0  0  0  0  0
    3.9874   -4.8902    0.0000 C   0  0  0  0  0  0  0  0  0  0  0  0
    0.0000   -1.3166    0.0000 C   0  0  0  0  0  0  0  0  0  0  0  0
    0.8652   -0.1129    0.0000 C   0  0  0  0  0  0  0  0  0  0  0  0
    3.5736   -6.5830    0.0000 C   0  0  0  0  0  0  0  0  0  0  0  0
    3.8746   -5.1912    0.0000 C   0  0  0  0  0  0  0  0  0  0  0  0
    1.6927    0.0000    0.0000 C   0  0  0  0  0  0  0  0  0  0  0  0
    4.7774   -4.8902    0.0000 C   0  0  0  0  0  0  0  0  0  0  0  0
    4.3636   -6.7335    0.0000 C   0  0  0  0  0  0  0  0  0  0  0  0
    5.2288   -4.1755    0.0000 C   0  0  0  0  0  0  0  0  0  0  0  0
    4.9279   -6.1316    0.0000 C   0  0  0  0  0  0  0  0  0  0  0  0
  1 30  1  0  0  0  0
  2  9  1  0  0  0  0
  2 10  1  0  0  0  0
  2 15  1  0  0  0  0
  3  9  1  0  0  0  0
  3 17  2  0  0  0  0
  4 13  2  0  0  0  0
  4 18  1  0  0  0  0
  5 18  1  0  0  0  0
  5 28  1  0  0  0  0
  6 22  1  0  0  0  0
  6 31  1  0  0  0  0
  7 27  1  0  0  0  0
  7 32  2  0  0  0  0
  8  9  2  0  0  0  0
  8 11  1  0  0  0  0
  8 12  1  0  0  0  0
 10 12  2  0  0  0  0
 10 14  1  0  0  0  0
 11 13  1  0  0  0  0
 11 16  2  0  0  0  0
 13 19  1  0  0  0  0
 14 22  1  0  0  0  0
 14 23  2  0  0  0  0
 15 20  1  0  0  0  0
 16 17  1  0  0  0  0
 18 21  2  0  0  0  0
 19 24  2  0  0  0  0
 20 26  1  0  0  0  0
 20 27  2  0  0  0  0
 21 24  1  0  0  0  0
 21 25  1  0  0  0  0
 23 29  1  0  0  0  0
 25 28  2  0  0  0  0
 26 30  2  0  0  0  0
 29 31  1  0  0  0  0
 30 32  1  0  0  0  0
M  END
> <PUBCHEM_COMPOUND_ID_TYPE>
0

> <PUBCHEM_TOTAL_CHARGE>
0

> <PUBCHEM_SUBSTANCE_ID>
310936034

> <PUBCHEM_SUBSTANCE_VERSION>
1

> <PUBCHEM_EXT_DATASOURCE_NAME>
4488

> <PUBCHEM_EXT_DATASOURCE_REGID>
SCHEMBL16113637

> <PUBCHEM_SUBSTANCE_COMMENT>
InChI=1S/C25H21FN6/c26-19-10-16(12-28-14-19)15-32-23(18-2-1-7-27-13-18)11-21-20(6-9-30-25(21)32)22-4-3-17-5-8-29-24(17)31-22/h2-6,8-12,14,27H,1,7,13,15H2,(H,29,31)
InChIKey=OHLXCSWQMBMBBX-UHFFFAOYSA-N

> <PUBCHEM_SUBSTANCE_SYNONYM>
SCHEMBL16113637

> <PUBCHEM_XREF_EXT_ID>
SCHEMBL16113637

> <PUBCHEM_EXT_DATASOURCE_URL>
https://www.surechembl.org/

> <PUBCHEM_EXT_SUBSTANCE_URL>
https://www.surechembl.org/chemical/SCHEMBL16113637

> <PUBCHEM_CID_ASSOCIATIONS>
117604001  1

> <PUBCHEM_COORDINATE_TYPE>
1
3

$$$$
