310943742
  -OEChem-07211613022D

 16 17  0     0  0  0  0  0  0999 V2000
   -1.2629    1.7820    0.0000 O   0  0  0  0  0  0  0  0  0  0  0  0
   -1.2629   -1.0900    0.0000 O   0  0  0  0  0  0  0  0  0  0  0  0
   -1.0294    0.3460    0.0000 N   0  0  0  0  0  0  0  0  0  0  0  0
   -2.3011   -0.0692    0.0000 N   0  0  0  0  0  0  0  0  0  0  0  0
   -2.3011    0.7526    0.0000 N   0  0  0  0  0  0  0  0  0  0  0  0
    2.3011   -1.0727    0.0000 N   0  0  0  0  0  0  0  0  0  0  0  0
   -0.1990    0.3373    0.0000 C   0  0  0  0  0  0  0  0  0  0  0  0
   -1.5226    0.9775    0.0000 C   0  0  0  0  0  0  0  0  0  0  0  0
   -1.5226   -0.3114    0.0000 C   0  0  0  0  0  0  0  0  0  0  0  0
    0.2249   -0.3719    0.0000 C   0  0  0  0  0  0  0  0  0  0  0  0
    0.2249    1.0467    0.0000 C   0  0  0  0  0  0  0  0  0  0  0  0
    1.0727   -0.3546    0.0000 C   0  0  0  0  0  0  0  0  0  0  0  0
    1.0727    1.0380    0.0000 C   0  0  0  0  0  0  0  0  0  0  0  0
    1.4706    0.3287    0.0000 C   0  0  0  0  0  0  0  0  0  0  0  0
    1.4793   -1.0641    0.0000 C   0  0  0  0  0  0  0  0  0  0  0  0
    1.0727   -1.7820    0.0000 C   0  0  0  0  0  0  0  0  0  0  0  0
  1  8  2  0  0  0  0
  2  9  2  0  0  0  0
  3  7  1  0  0  0  0
  3  8  1  0  0  0  0
  3  9  1  0  0  0  0
  4  5  2  0  0  0  0
  4  9  1  0  0  0  0
  5  8  1  0  0  0  0
  6 15  2  3  0  0  0
  7 10  2  0  0  0  0
  7 11  1  0  0  0  0
 10 12  1  0  0  0  0
 11 13  2  0  0  0  0
 12 14  2  0  0  0  0
 12 15  1  0  0  0  0
 13 14  1  0  0  0  0
 15 16  1  0  0  0  0
M  END
> <PUBCHEM_COMPOUND_ID_TYPE>
0

> <PUBCHEM_TOTAL_CHARGE>
0

> <PUBCHEM_SUBSTANCE_ID>
310943742

> <PUBCHEM_SUBSTANCE_VERSION>
1

> <PUBCHEM_EXT_DATASOURCE_NAME>
4488

> <PUBCHEM_EXT_DATASOURCE_REGID>
SCHEMBL16121810

> <PUBCHEM_SUBSTANCE_COMMENT>
InChI=1S/C10H8N4O2/c1-6(11)7-3-2-4-8(5-7)14-9(15)12-13-10(14)16/h2-5,11H,1H3
InChIKey=KIJUECSKLTUZEJ-UHFFFAOYSA-N

> <PUBCHEM_SUBSTANCE_SYNONYM>
SCHEMBL16121810

> <PUBCHEM_XREF_EXT_ID>
SCHEMBL16121810

> <PUBCHEM_EXT_DATASOURCE_URL>
https://www.surechembl.org/

> <PUBCHEM_EXT_SUBSTANCE_URL>
https://www.surechembl.org/chemical/SCHEMBL16121810

> <PUBCHEM_CID_ASSOCIATIONS>
117610105  1

> <PUBCHEM_COORDINATE_TYPE>
1
3

$$$$
