310943505
  -OEChem-07211613022D

 36 39  0     0  0  0  0  0  0999 V2000
    2.7185   -2.1125    0.0000 F   0  0  0  0  0  0  0  0  0  0  0  0
    4.2502   -2.5333    0.0000 F   0  0  0  0  0  0  0  0  0  0  0  0
    3.1392   -2.8363    0.0000 F   0  0  0  0  0  0  0  0  0  0  0  0
   -2.8531   -0.0589    0.0000 O   0  0  0  0  0  0  0  0  0  0  0  0
    1.4055   -0.0589    0.0000 O   0  0  0  0  0  0  0  0  0  0  0  0
   -4.2670    2.4155    0.0000 O   0  0  0  0  0  0  0  0  0  0  0  0
   -2.8531    1.5907    0.0000 N   0  0  0  0  0  0  0  0  0  0  0  0
   -1.4223   -0.0589    0.0000 N   0  0  0  0  0  0  0  0  0  0  0  0
    2.1293    1.1867    0.0000 N   0  0  0  0  0  0  0  0  0  0  0  0
    0.7153    2.8363    0.0000 N   0  0  0  0  0  0  0  0  0  0  0  0
    4.2670   -0.0589    0.0000 N   0  0  0  0  0  0  0  0  0  0  0  0
   -0.7153    1.1867    0.0000 C   0  0  0  0  0  0  0  0  0  0  0  0
   -0.0253    1.6076    0.0000 C   0  0  0  0  0  0  0  0  0  0  0  0
   -2.1293    1.1867    0.0000 C   0  0  0  0  0  0  0  0  0  0  0  0
   -2.1461    0.3619    0.0000 C   0  0  0  0  0  0  0  0  0  0  0  0
   -1.4392    1.5907    0.0000 C   0  0  0  0  0  0  0  0  0  0  0  0
    0.0084    2.4323    0.0000 C   0  0  0  0  0  0  0  0  0  0  0  0
    0.7322    1.1867    0.0000 C   0  0  0  0  0  0  0  0  0  0  0  0
    1.4055    1.6076    0.0000 C   0  0  0  0  0  0  0  0  0  0  0  0
   -0.7322    0.3451    0.0000 C   0  0  0  0  0  0  0  0  0  0  0  0
    2.8363   -0.0421    0.0000 C   0  0  0  0  0  0  0  0  0  0  0  0
    3.5433   -1.2877    0.0000 C   0  0  0  0  0  0  0  0  0  0  0  0
    2.1293    0.3788    0.0000 C   0  0  0  0  0  0  0  0  0  0  0  0
    1.4223    2.4155    0.0000 C   0  0  0  0  0  0  0  0  0  0  0  0
    3.5264   -2.1125    0.0000 C   0  0  0  0  0  0  0  0  0  0  0  0
    2.8363   -0.8669    0.0000 C   0  0  0  0  0  0  0  0  0  0  0  0
   -2.8363    2.4155    0.0000 C   0  0  0  0  0  0  0  0  0  0  0  0
   -3.5433    1.1867    0.0000 C   0  0  0  0  0  0  0  0  0  0  0  0
    3.5433    0.3619    0.0000 C   0  0  0  0  0  0  0  0  0  0  0  0
    4.2502   -0.8669    0.0000 C   0  0  0  0  0  0  0  0  0  0  0  0
   -0.7322    2.8195    0.0000 C   0  0  0  0  0  0  0  0  0  0  0  0
   -2.8700   -0.8669    0.0000 C   0  0  0  0  0  0  0  0  0  0  0  0
   -3.5601    2.8363    0.0000 C   0  0  0  0  0  0  0  0  0  0  0  0
   -4.2670    1.5907    0.0000 C   0  0  0  0  0  0  0  0  0  0  0  0
   -3.5769   -1.3045    0.0000 C   0  0  0  0  0  0  0  0  0  0  0  0
   -2.1125   -1.2877    0.0000 C   0  0  0  0  0  0  0  0  0  0  0  0
  1 25  1  0  0  0  0
  2 25  1  0  0  0  0
  3 25  1  0  0  0  0
  4 15  1  0  0  0  0
  4 32  1  0  0  0  0
  5 23  2  0  0  0  0
  6 33  1  0  0  0  0
  6 34  1  0  0  0  0
  7 14  1  0  0  0  0
  7 27  1  0  0  0  0
  7 28  1  0  0  0  0
  8 15  2  0  0  0  0
  8 20  1  0  0  0  0
  9 19  1  0  0  0  0
  9 23  1  0  0  0  0
 10 17  1  0  0  0  0
 10 24  2  0  0  0  0
 11 29  2  0  0  0  0
 11 30  1  0  0  0  0
 12 13  1  0  0  0  0
 12 16  1  0  0  0  0
 12 20  2  0  0  0  0
 13 17  2  0  0  0  0
 13 18  1  0  0  0  0
 14 15  1  0  0  0  0
 14 16  2  0  0  0  0
 17 31  1  0  0  0  0
 18 19  2  0  0  0  0
 19 24  1  0  0  0  0
 21 23  1  0  0  0  0
 21 26  2  0  0  0  0
 21 29  1  0  0  0  0
 22 25  1  0  0  0  0
 22 26  1  0  0  0  0
 22 30  2  0  0  0  0
 27 33  1  0  0  0  0
 28 34  1  0  0  0  0
 32 35  1  0  0  0  0
 32 36  1  0  0  0  0
M  END
> <PUBCHEM_COMPOUND_ID_TYPE>
0

> <PUBCHEM_TOTAL_CHARGE>
0

> <PUBCHEM_SUBSTANCE_ID>
310943505

> <PUBCHEM_SUBSTANCE_VERSION>
1

> <PUBCHEM_EXT_DATASOURCE_NAME>
4488

> <PUBCHEM_EXT_DATASOURCE_REGID>
SCHEMBL16121571

> <PUBCHEM_SUBSTANCE_COMMENT>
InChI=1S/C25H26F3N5O3/c1-15(2)36-24-22(33-4-6-35-7-5-33)9-17(12-31-24)21-10-20(14-30-16(21)3)32-23(34)18-8-19(13-29-11-18)25(26,27)28/h8-15H,4-7H2,1-3H3,(H,32,34)
InChIKey=YVYDWGRZZHQZER-UHFFFAOYSA-N

> <PUBCHEM_SUBSTANCE_SYNONYM>
SCHEMBL16121571

> <PUBCHEM_XREF_EXT_ID>
SCHEMBL16121571

> <PUBCHEM_EXT_DATASOURCE_URL>
https://www.surechembl.org/

> <PUBCHEM_EXT_SUBSTANCE_URL>
https://www.surechembl.org/chemical/SCHEMBL16121571

> <PUBCHEM_CID_ASSOCIATIONS>
117609924  1

> <PUBCHEM_COORDINATE_TYPE>
1
3

$$$$
