310948423
  -OEChem-07211613022D

 35 39  0     1  0  0  0  0  0999 V2000
    2.6913   -2.9709    0.0000 F   0  0  0  0  0  0  0  0  0  0  0  0
    3.2711   -3.9439    0.0000 F   0  0  0  0  0  0  0  0  0  0  0  0
    2.2980   -4.5029    0.0000 F   0  0  0  0  0  0  0  0  0  0  0  0
   -2.5465   -3.1986    0.0000 O   0  0  0  0  0  0  0  0  0  0  0  0
   -1.0352   -0.8384    0.0000 N   0  0  0  0  0  0  0  0  0  0  0  0
   -0.5382   -1.5216    0.0000 N   0  0  0  0  0  0  0  0  0  0  0  0
   -0.7660   -2.9916    0.0000 N   0  0  0  0  0  0  0  0  0  0  0  0
   -3.2711   -1.9357    0.0000 N   0  0  0  0  0  0  0  0  0  0  0  0
   -0.0414    2.3912    0.0000 N   0  0  0  0  0  0  0  0  0  0  0  0
    1.1386   -1.0869    0.0000 N   0  0  0  0  0  0  0  0  0  0  0  0
   -1.8426   -1.9150    0.0000 C   0  0  0  0  0  0  0  0  0  0  0  0
   -1.8012   -1.0869    0.0000 C   0  0  0  0  0  0  0  0  0  0  0  0
   -1.0352   -2.1842    0.0000 C   0  0  0  0  0  0  0  0  0  0  0  0
   -0.7660   -0.0103    0.0000 C   0  0  3  0  0  0  0  0  0  0  0  0
   -2.5465   -2.3290    0.0000 C   0  0  0  0  0  0  0  0  0  0  0  0
    0.0414    0.1552    0.0000 C   0  0  3  0  0  0  0  0  0  0  0  0
   -2.5465   -0.6729    0.0000 C   0  0  0  0  0  0  0  0  0  0  0  0
   -1.3043    0.6315    0.0000 C   0  0  0  0  0  0  0  0  0  0  0  0
    0.0414   -3.1572    0.0000 C   0  0  0  0  0  0  0  0  0  0  0  0
   -3.2504   -1.0662    0.0000 C   0  0  0  0  0  0  0  0  0  0  0  0
    0.2899    0.9627    0.0000 C   0  0  0  0  0  0  0  0  0  0  0  0
   -0.2485    1.5630    0.0000 C   0  0  3  0  0  0  0  0  0  0  0  0
   -1.0559    1.3975    0.0000 C   0  0  0  0  0  0  0  0  0  0  0  0
    0.6004   -0.4865    0.0000 C   0  0  0  0  0  0  0  0  0  0  0  0
    0.3106   -3.9646    0.0000 C   0  0  0  0  0  0  0  0  0  0  0  0
    0.6211   -2.5568    0.0000 C   0  0  0  0  0  0  0  0  0  0  0  0
    1.6563   -3.5092    0.0000 C   0  0  0  0  0  0  0  0  0  0  0  0
    2.4844   -3.7369    0.0000 C   0  0  0  0  0  0  0  0  0  0  0  0
    1.1180   -4.1302    0.0000 C   0  0  0  0  0  0  0  0  0  0  0  0
    1.4078   -2.7225    0.0000 C   0  0  0  0  0  0  0  0  0  0  0  0
   -0.4554    3.1158    0.0000 C   0  0  3  0  0  0  0  0  0  0  0  0
    0.1449    3.7369    0.0000 C   0  0  0  0  0  0  0  0  0  0  0  0
    0.3520    4.5029    0.0000 C   0  0  0  0  0  0  0  0  0  0  0  0
    0.9317    3.9439    0.0000 C   0  0  0  0  0  0  0  0  0  0  0  0
   -1.2836    3.1158    0.0000 C   0  0  0  0  0  0  0  0  0  0  0  0
  1 28  1  0  0  0  0
  2 28  1  0  0  0  0
  3 28  1  0  0  0  0
  4 15  2  0  0  0  0
  5  6  1  0  0  0  0
  5 12  1  0  0  0  0
 14  5  1  1  0  0  0
  6 13  2  0  0  0  0
  7 13  1  0  0  0  0
  7 19  1  0  0  0  0
  8 15  1  0  0  0  0
  8 20  1  0  0  0  0
 22  9  1  6  0  0  0
  9 31  1  0  0  0  0
 10 24  3  0  0  0  0
 11 12  2  0  0  0  0
 11 13  1  0  0  0  0
 11 15  1  0  0  0  0
 12 17  1  0  0  0  0
 14 16  1  0  0  0  0
 14 18  1  0  0  0  0
 16 21  1  0  0  0  0
 16 24  1  6  0  0  0
 17 20  2  0  0  0  0
 18 23  1  0  0  0  0
 19 25  2  0  0  0  0
 19 26  1  0  0  0  0
 21 22  1  0  0  0  0
 22 23  1  0  0  0  0
 25 29  1  0  0  0  0
 26 30  2  0  0  0  0
 27 28  1  0  0  0  0
 27 29  2  0  0  0  0
 27 30  1  0  0  0  0
 31 32  1  0  0  0  0
 31 35  1  1  0  0  0
 32 33  1  0  0  0  0
 32 34  1  0  0  0  0
 33 34  1  0  0  0  0
M  END
> <PUBCHEM_COMPOUND_ID_TYPE>
0

> <PUBCHEM_TOTAL_CHARGE>
0

> <PUBCHEM_SUBSTANCE_ID>
310948423

> <PUBCHEM_SUBSTANCE_VERSION>
1

> <PUBCHEM_EXT_DATASOURCE_NAME>
4488

> <PUBCHEM_EXT_DATASOURCE_REGID>
SCHEMBL16126604

> <PUBCHEM_SUBSTANCE_COMMENT>
InChI=1S/C25H27F3N6O/c1-14(15-2-3-15)31-19-8-9-20(16(12-19)13-29)34-21-10-11-30-24(35)22(21)23(33-34)32-18-6-4-17(5-7-18)25(26,27)28/h4-7,10-11,14-16,19-20,31H,2-3,8-9,12H2,1H3,(H,30,35)(H,32,33)/t14-,16+,19-,20-/m0/s1
InChIKey=HAOJRYPDUQJHGB-ZXUOCUECSA-N

> <PUBCHEM_SUBSTANCE_SYNONYM>
SCHEMBL16126604

> <PUBCHEM_XREF_EXT_ID>
SCHEMBL16126604

> <PUBCHEM_EXT_DATASOURCE_URL>
https://www.surechembl.org/

> <PUBCHEM_EXT_SUBSTANCE_URL>
https://www.surechembl.org/chemical/SCHEMBL16126604

> <PUBCHEM_CID_ASSOCIATIONS>
117613983  1

> <PUBCHEM_COORDINATE_TYPE>
1
3

> <PUBCHEM_BONDANNOTATIONS>
16  24  6
31  35  5
14  5  5
22  9  6

$$$$
