310940610
  -OEChem-07211613022D

 30 33  0     0  0  0  0  0  0999 V2000
    0.0053    2.2304    0.0000 F   0  0  0  0  0  0  0  0  0  0  0  0
    0.3247    1.1338    0.0000 F   0  0  0  0  0  0  0  0  0  0  0  0
   -0.7825    0.8251    0.0000 F   0  0  0  0  0  0  0  0  0  0  0  0
   -2.5498   -2.1878    0.0000 O   0  0  0  0  0  0  0  0  0  0  0  0
    2.3475   -2.3155    0.0000 O   0  0  0  0  0  0  0  0  0  0  0  0
   -1.8045   -0.9529    0.0000 N   0  0  0  0  0  0  0  0  0  0  0  0
   -1.0167   -2.9969    0.0000 N   0  0  0  0  0  0  0  0  0  0  0  0
   -0.2076   -3.1779    0.0000 N   0  0  0  0  0  0  0  0  0  0  0  0
    1.3042   -1.5065    0.0000 N   0  0  0  0  0  0  0  0  0  0  0  0
   -0.3460   -1.8471    0.0000 C   0  0  0  0  0  0  0  0  0  0  0  0
   -1.0913   -2.1878    0.0000 C   0  0  0  0  0  0  0  0  0  0  0  0
    0.2289   -2.4539    0.0000 C   0  0  0  0  0  0  0  0  0  0  0  0
   -1.8258   -1.7619    0.0000 C   0  0  0  0  0  0  0  0  0  0  0  0
   -1.8045    1.5384    0.0000 C   0  0  0  0  0  0  0  0  0  0  0  0
   -1.8152    0.6973    0.0000 C   0  0  0  0  0  0  0  0  0  0  0  0
   -1.0913    1.9323    0.0000 C   0  0  0  0  0  0  0  0  0  0  0  0
   -0.0692   -1.0699    0.0000 C   0  0  0  0  0  0  0  0  0  0  0  0
    1.0167   -2.2942    0.0000 C   0  0  0  0  0  0  0  0  0  0  0  0
   -0.3886    1.5277    0.0000 C   0  0  0  0  0  0  0  0  0  0  0  0
    0.7079   -0.8890    0.0000 C   0  0  0  0  0  0  0  0  0  0  0  0
   -1.1019   -0.5483    0.0000 C   0  0  0  0  0  0  0  0  0  0  0  0
   -2.5285   -0.5270    0.0000 C   0  0  0  0  0  0  0  0  0  0  0  0
   -1.1019    0.2821    0.0000 C   0  0  0  0  0  0  0  0  0  0  0  0
   -2.5178    0.2927    0.0000 C   0  0  0  0  0  0  0  0  0  0  0  0
   -2.5178    1.9429    0.0000 C   0  0  0  0  0  0  0  0  0  0  0  0
   -1.1019    2.7627    0.0000 C   0  0  0  0  0  0  0  0  0  0  0  0
    2.1239   -1.5065    0.0000 C   0  0  0  0  0  0  0  0  0  0  0  0
   -2.5178    2.7733    0.0000 C   0  0  0  0  0  0  0  0  0  0  0  0
   -1.8152    3.1779    0.0000 C   0  0  0  0  0  0  0  0  0  0  0  0
    2.5498   -0.7931    0.0000 C   0  0  0  0  0  0  0  0  0  0  0  0
  1 19  1  0  0  0  0
  2 19  1  0  0  0  0
  3 19  1  0  0  0  0
  4 13  2  0  0  0  0
  5 27  2  0  0  0  0
  6 13  1  0  0  0  0
  6 21  1  0  0  0  0
  6 22  1  0  0  0  0
  7  8  1  0  0  0  0
  7 11  2  0  0  0  0
  8 12  1  0  0  0  0
  9 18  1  0  0  0  0
  9 20  1  0  0  0  0
  9 27  1  0  0  0  0
 10 11  1  0  0  0  0
 10 12  2  0  0  0  0
 10 17  1  0  0  0  0
 11 13  1  0  0  0  0
 12 18  1  0  0  0  0
 14 15  1  0  0  0  0
 14 16  2  0  0  0  0
 14 25  1  0  0  0  0
 15 23  1  0  0  0  0
 15 24  1  0  0  0  0
 16 19  1  0  0  0  0
 16 26  1  0  0  0  0
 17 20  1  0  0  0  0
 21 23  1  0  0  0  0
 22 24  1  0  0  0  0
 25 28  2  0  0  0  0
 26 29  2  0  0  0  0
 27 30  1  0  0  0  0
 28 29  1  0  0  0  0
M  END
> <PUBCHEM_COMPOUND_ID_TYPE>
0

> <PUBCHEM_TOTAL_CHARGE>
0

> <PUBCHEM_SUBSTANCE_ID>
310940610

> <PUBCHEM_SUBSTANCE_VERSION>
1

> <PUBCHEM_EXT_DATASOURCE_NAME>
4488

> <PUBCHEM_EXT_DATASOURCE_REGID>
SCHEMBL16118564

> <PUBCHEM_SUBSTANCE_COMMENT>
InChI=1S/C21H23F3N4O2/c1-13(29)28-11-8-16-18(12-28)25-26-19(16)20(30)27-9-6-14(7-10-27)15-4-2-3-5-17(15)21(22,23)24/h2-5,14H,6-12H2,1H3,(H,25,26)
InChIKey=OVGNJEUMCCPYCV-UHFFFAOYSA-N

> <PUBCHEM_SUBSTANCE_SYNONYM>
SCHEMBL16118564

> <PUBCHEM_XREF_EXT_ID>
SCHEMBL16118564

> <PUBCHEM_EXT_DATASOURCE_URL>
https://www.surechembl.org/

> <PUBCHEM_EXT_SUBSTANCE_URL>
https://www.surechembl.org/chemical/SCHEMBL16118564

> <PUBCHEM_CID_ASSOCIATIONS>
86269566  1

> <PUBCHEM_COORDINATE_TYPE>
1
3

$$$$
