310946429
  -OEChem-07211613022D

 23 26  0     1  0  0  0  0  0999 V2000
   -1.9995   -0.4557    0.0000 O   0  0  0  0  0  0  0  0  0  0  0  0
   -1.1811   -1.4973    0.0000 O   0  0  0  0  0  0  0  0  0  0  0  0
    0.2511    0.1767    0.0000 C   0  0  3  0  0  0  0  0  0  0  0  0
   -0.4743   -1.0695    0.0000 C   0  0  0  0  0  0  0  0  0  0  0  0
    0.2511   -0.6603    0.0000 C   0  0  3  0  0  0  0  0  0  0  0  0
   -1.1625   -0.6789    0.0000 C   0  0  0  0  0  0  0  0  0  0  0  0
    0.9765    0.5673    0.0000 C   0  0  0  0  0  0  0  0  0  0  0  0
    1.7019    0.1581    0.0000 C   0  0  3  0  0  0  0  0  0  0  0  0
   -0.4371    0.5673    0.0000 C   0  0  0  0  0  0  0  0  0  0  0  0
   -1.1439    0.1581    0.0000 C   0  0  0  0  0  0  0  0  0  0  0  0
    0.9765   -1.0695    0.0000 C   0  0  0  0  0  0  0  0  0  0  0  0
    1.6832   -0.6603    0.0000 C   0  0  0  0  0  0  0  0  0  0  0  0
    0.2697    0.9765    0.0000 C   0  0  0  0  0  0  0  0  0  0  0  0
    1.0137    1.4043    0.0000 C   0  0  0  0  0  0  0  0  0  0  0  0
   -0.0465   -1.7763    0.0000 C   0  0  0  0  0  0  0  0  0  0  0  0
   -0.8649   -1.8135    0.0000 C   0  0  0  0  0  0  0  0  0  0  0  0
    2.4087    0.5673    0.0000 C   0  0  0  0  0  0  0  0  0  0  0  0
    2.4087   -0.2697    0.0000 C   0  0  0  0  0  0  0  0  0  0  0  0
   -2.4273   -1.1811    0.0000 C   0  0  0  0  0  0  0  0  0  0  0  0
   -1.8879   -1.7948    0.0000 C   0  0  0  0  0  0  0  0  0  0  0  0
    1.7019    1.8135    0.0000 C   0  0  0  0  0  0  0  0  0  0  0  0
    2.4087    1.4043    0.0000 C   0  0  0  0  0  0  0  0  0  0  0  0
    2.4273   -1.1625    0.0000 C   0  0  0  0  0  0  0  0  0  0  0  0
  1  6  1  0  0  0  0
  1 19  1  0  0  0  0
  2  6  1  0  0  0  0
  2 20  1  0  0  0  0
  3  5  1  0  0  0  0
  3  7  1  0  0  0  0
  3  9  1  0  0  0  0
  3 13  1  1  0  0  0
  4  5  1  0  0  0  0
  4  6  1  0  0  0  0
  4 15  1  0  0  0  0
  4 16  1  0  0  0  0
  5 11  1  1  0  0  0
  6 10  1  0  0  0  0
  7  8  1  0  0  0  0
  7 14  2  0  0  0  0
  8 12  1  0  0  0  0
  8 17  1  0  0  0  0
  8 18  1  1  0  0  0
  9 10  1  0  0  0  0
 11 12  1  0  0  0  0
 14 21  1  0  0  0  0
 17 22  1  0  0  0  0
 18 23  2  0  0  0  0
 19 20  1  0  0  0  0
 21 22  1  0  0  0  0
M  END
> <PUBCHEM_COMPOUND_ID_TYPE>
0

> <PUBCHEM_TOTAL_CHARGE>
0

> <PUBCHEM_SUBSTANCE_ID>
310946429

> <PUBCHEM_SUBSTANCE_VERSION>
1

> <PUBCHEM_EXT_DATASOURCE_NAME>
4488

> <PUBCHEM_EXT_DATASOURCE_REGID>
SCHEMBL16124550

> <PUBCHEM_SUBSTANCE_COMMENT>
InChI=1S/C21H32O2/c1-5-20-10-7-6-8-17(20)19(4)12-13-21(22-14-15-23-21)18(2,3)16(19)9-11-20/h5,8,16H,1,6-7,9-15H2,2-4H3/t16-,19-,20+/m0/s1
InChIKey=FSOGAVSRAANICR-FFZOFVMBSA-N

> <PUBCHEM_SUBSTANCE_SYNONYM>
SCHEMBL16124550

> <PUBCHEM_XREF_EXT_ID>
SCHEMBL16124550

> <PUBCHEM_EXT_DATASOURCE_URL>
https://www.surechembl.org/

> <PUBCHEM_EXT_SUBSTANCE_URL>
https://www.surechembl.org/chemical/SCHEMBL16124550

> <PUBCHEM_CID_ASSOCIATIONS>
16202828  1

> <PUBCHEM_COORDINATE_TYPE>
1
3

> <PUBCHEM_BONDANNOTATIONS>
3  13  5
5  11  5
8  18  5

$$$$
