310940184
  -OEChem-07211613022D

 40 44  0     1  0  0  0  0  0999 V2000
   -2.4316   -3.8320    0.0000 S   0  0  0  0  0  0  0  0  0  0  0  0
   -0.1737    0.8576    0.0000 F   0  0  0  0  0  0  0  0  0  0  0  0
   -1.3895   -1.7043    0.0000 O   0  0  0  0  0  0  0  0  0  0  0  0
   -3.0178   -3.2892    0.0000 O   0  0  0  0  0  0  0  0  0  0  0  0
   -3.2133   -4.0925    0.0000 O   0  0  0  0  0  0  0  0  0  0  0  0
    0.8250    3.6583    0.0000 O   0  0  0  0  0  0  0  0  0  0  0  0
    2.2362    3.5064    0.0000 O   0  0  0  0  0  0  0  0  0  0  0  0
    0.7599    0.0326    0.0000 N   0  0  0  0  0  0  0  0  0  0  0  0
    1.0204   -0.7491    0.0000 N   0  0  0  0  0  0  0  0  0  0  0  0
    0.3474   -2.0517    0.0000 N   0  0  0  0  0  0  0  0  0  0  0  0
   -2.0843   -4.5919    0.0000 N   0  0  3  0  0  0  0  0  0  0  0  0
    1.4112    2.3557    0.0000 N   0  0  0  0  0  0  0  0  0  0  0  0
   -1.6718   -0.3148    0.0000 N   0  0  0  0  0  0  0  0  0  0  0  0
    3.2133   -0.2280    0.0000 N   0  0  0  0  0  0  0  0  0  0  0  0
    1.2593    0.6839    0.0000 C   0  0  3  0  0  0  0  0  0  0  0  0
   -0.0651    0.0543    0.0000 C   0  0  0  0  0  0  0  0  0  0  0  0
   -0.3474   -0.7273    0.0000 C   0  0  0  0  0  0  0  0  0  0  0  0
    0.3474   -1.2267    0.0000 C   0  0  0  0  0  0  0  0  0  0  0  0
    0.5862    1.2049    0.0000 C   0  0  3  0  0  0  0  0  0  0  0  0
    1.9974    1.0313    0.0000 C   0  0  0  0  0  0  0  0  0  0  0  0
   -1.1072   -0.9010    0.0000 C   0  0  0  0  0  0  0  0  0  0  0  0
   -1.8020   -3.2892    0.0000 C   0  0  0  0  0  0  0  0  0  0  0  0
    1.5849   -0.0326    0.0000 C   0  0  0  0  0  0  0  0  0  0  0  0
   -1.1072   -3.6800    0.0000 C   0  0  0  0  0  0  0  0  0  0  0  0
   -0.5862    0.6188    0.0000 C   0  0  0  0  0  0  0  0  0  0  0  0
   -0.3691   -2.4425    0.0000 C   0  0  0  0  0  0  0  0  0  0  0  0
    0.6730    2.0300    0.0000 C   0  0  0  0  0  0  0  0  0  0  0  0
    2.0843    1.8780    0.0000 C   0  0  0  0  0  0  0  0  0  0  0  0
   -0.3908   -3.2892    0.0000 C   0  0  0  0  0  0  0  0  0  0  0  0
   -1.2809   -4.5051    0.0000 C   0  0  0  0  0  0  0  0  0  0  0  0
   -1.7586   -2.4642    0.0000 C   0  0  0  0  0  0  0  0  0  0  0  0
   -1.4112    0.4885    0.0000 C   0  0  0  0  0  0  0  0  0  0  0  0
   -1.0639   -2.0517    0.0000 C   0  0  0  0  0  0  0  0  0  0  0  0
    1.4980    3.1807    0.0000 C   0  0  0  0  0  0  0  0  0  0  0  0
    2.3883   -0.1412    0.0000 C   0  0  0  0  0  0  0  0  0  0  0  0
   -2.5184   -5.3084    0.0000 C   0  0  0  0  0  0  0  0  0  0  0  0
    0.9336    4.4833    0.0000 C   0  0  0  0  0  0  0  0  0  0  0  0
    0.9987    5.3084    0.0000 C   0  0  0  0  0  0  0  0  0  0  0  0
    0.2605    4.9176    0.0000 C   0  0  0  0  0  0  0  0  0  0  0  0
    1.6934    4.7873    0.0000 C   0  0  0  0  0  0  0  0  0  0  0  0
  1  4  2  0  0  0  0
  1  5  2  0  0  0  0
  1 11  1  0  0  0  0
  1 22  1  0  0  0  0
 19  2  1  6  0  0  0
  3 21  2  0  0  0  0
  6 34  1  0  0  0  0
  6 37  1  0  0  0  0
  7 34  2  0  0  0  0
  8  9  1  0  0  0  0
  8 15  1  0  0  0  0
  8 16  1  0  0  0  0
  9 18  2  0  0  0  0
 10 18  1  0  0  0  0
 10 26  1  0  0  0  0
 11 30  1  0  0  0  0
 11 36  1  0  0  0  0
 12 27  1  0  0  0  0
 12 28  1  0  0  0  0
 12 34  1  0  0  0  0
 13 21  1  0  0  0  0
 13 32  1  0  0  0  0
 14 35  3  0  0  0  0
 15 19  1  0  0  0  0
 15 20  1  0  0  0  0
 15 23  1  1  0  0  0
 16 17  2  0  0  0  0
 16 25  1  0  0  0  0
 17 18  1  0  0  0  0
 17 21  1  0  0  0  0
 19 27  1  0  0  0  0
 20 28  1  0  0  0  0
 22 24  2  0  0  0  0
 22 31  1  0  0  0  0
 23 35  1  0  0  0  0
 24 29  1  0  0  0  0
 24 30  1  0  0  0  0
 25 32  2  0  0  0  0
 26 29  2  0  0  0  0
 26 33  1  0  0  0  0
 31 33  2  0  0  0  0
 37 38  1  0  0  0  0
 37 39  1  0  0  0  0
 37 40  1  0  0  0  0
M  END
> <PUBCHEM_COMPOUND_ID_TYPE>
0

> <PUBCHEM_TOTAL_CHARGE>
0

> <PUBCHEM_SUBSTANCE_ID>
310940184

> <PUBCHEM_SUBSTANCE_VERSION>
1

> <PUBCHEM_EXT_DATASOURCE_NAME>
4488

> <PUBCHEM_EXT_DATASOURCE_REGID>
SCHEMBL16118118

> <PUBCHEM_SUBSTANCE_COMMENT>
InChI=1S/C26H30FN7O5S/c1-25(2,3)39-24(36)33-12-9-26(8-10-28,20(27)15-33)34-18-7-11-29-23(35)21(18)22(31-34)30-17-5-6-19-16(13-17)14-32(4)40(19,37)38/h5-7,11,13,20H,8-9,12,14-15H2,1-4H3,(H,29,35)(H,30,31)/t20-,26+/m1/s1
InChIKey=YKTNKWVDICOPMZ-IBVKSMDESA-N

> <PUBCHEM_SUBSTANCE_SYNONYM>
SCHEMBL16118118

> <PUBCHEM_XREF_EXT_ID>
SCHEMBL16118118

> <PUBCHEM_EXT_DATASOURCE_URL>
https://www.surechembl.org/

> <PUBCHEM_EXT_SUBSTANCE_URL>
https://www.surechembl.org/chemical/SCHEMBL16118118

> <PUBCHEM_CID_ASSOCIATIONS>
117607292  1

> <PUBCHEM_COORDINATE_TYPE>
1
3

> <PUBCHEM_BONDANNOTATIONS>
15  23  5
19  2  6

$$$$
