310930265
  -OEChem-07211613022D

 31 35  0     0  0  0  0  0  0999 V2000
    1.3589    0.0000    0.0000 F   0  0  0  0  0  0  0  0  0  0  0  0
    0.0000   -8.1046    0.0000 O   0  0  0  0  0  0  0  0  0  0  0  0
    1.4074   -8.1046    0.0000 N   0  0  0  0  0  0  0  0  0  0  0  0
    2.7662   -5.6781    0.0000 N   0  0  0  0  0  0  0  0  0  0  0  0
    0.6794   -4.4648    0.0000 N   0  0  0  0  0  0  0  0  0  0  0  0
    2.1353   -8.4928    0.0000 C   0  0  0  0  0  0  0  0  0  0  0  0
    2.8148   -8.1046    0.0000 C   0  0  0  0  0  0  0  0  0  0  0  0
    2.1353   -9.3178    0.0000 C   0  0  0  0  0  0  0  0  0  0  0  0
    2.8148   -7.2795    0.0000 C   0  0  0  0  0  0  0  0  0  0  0  0
    3.5427   -8.4928    0.0000 C   0  0  0  0  0  0  0  0  0  0  0  0
    2.8148   -9.7061    0.0000 C   0  0  0  0  0  0  0  0  0  0  0  0
    3.4942   -6.8428    0.0000 C   0  0  0  0  0  0  0  0  0  0  0  0
    2.0868   -6.8913    0.0000 C   0  0  0  0  0  0  0  0  0  0  0  0
    1.4074   -9.7061    0.0000 C   0  0  0  0  0  0  0  0  0  0  0  0
    0.7280   -8.4928    0.0000 C   0  0  0  0  0  0  0  0  0  0  0  0
    1.3589   -3.2515    0.0000 C   0  0  0  0  0  0  0  0  0  0  0  0
    3.5427   -9.3178    0.0000 C   0  0  0  0  0  0  0  0  0  0  0  0
    2.0868   -4.4648    0.0000 C   0  0  0  0  0  0  0  0  0  0  0  0
    3.4942   -6.0663    0.0000 C   0  0  0  0  0  0  0  0  0  0  0  0
    2.0868   -6.0663    0.0000 C   0  0  0  0  0  0  0  0  0  0  0  0
    0.7280   -9.3178    0.0000 C   0  0  0  0  0  0  0  0  0  0  0  0
    1.3589   -2.4265    0.0000 C   0  0  0  0  0  0  0  0  0  0  0  0
    2.7662   -4.8530    0.0000 C   0  0  0  0  0  0  0  0  0  0  0  0
    2.0383   -3.6398    0.0000 C   0  0  0  0  0  0  0  0  0  0  0  0
    0.6309   -3.6398    0.0000 C   0  0  0  0  0  0  0  0  0  0  0  0
    1.3589   -4.8530    0.0000 C   0  0  0  0  0  0  0  0  0  0  0  0
    0.6309   -2.0383    0.0000 C   0  0  0  0  0  0  0  0  0  0  0  0
    2.0383   -2.0383    0.0000 C   0  0  0  0  0  0  0  0  0  0  0  0
    1.3589   -0.8250    0.0000 C   0  0  0  0  0  0  0  0  0  0  0  0
    0.6309   -1.2132    0.0000 C   0  0  0  0  0  0  0  0  0  0  0  0
    2.0868   -1.2132    0.0000 C   0  0  0  0  0  0  0  0  0  0  0  0
  1 29  1  0  0  0  0
  2 15  2  0  0  0  0
  3  6  1  0  0  0  0
  3 15  1  0  0  0  0
  4 19  1  0  0  0  0
  4 20  1  0  0  0  0
  4 23  1  0  0  0  0
  5 25  2  0  0  0  0
  5 26  1  0  0  0  0
  6  7  1  0  0  0  0
  6  8  2  0  0  0  0
  7  9  1  0  0  0  0
  7 10  2  0  0  0  0
  8 11  1  0  0  0  0
  8 14  1  0  0  0  0
  9 12  1  0  0  0  0
  9 13  1  0  0  0  0
 10 17  1  0  0  0  0
 11 17  2  0  0  0  0
 12 19  1  0  0  0  0
 13 20  1  0  0  0  0
 14 21  1  0  0  0  0
 15 21  1  0  0  0  0
 16 22  1  0  0  0  0
 16 24  2  0  0  0  0
 16 25  1  0  0  0  0
 18 23  1  0  0  0  0
 18 24  1  0  0  0  0
 18 26  2  0  0  0  0
 22 27  2  0  0  0  0
 22 28  1  0  0  0  0
 27 30  1  0  0  0  0
 28 31  2  0  0  0  0
 29 30  2  0  0  0  0
 29 31  1  0  0  0  0
M  END
> <PUBCHEM_COMPOUND_ID_TYPE>
0

> <PUBCHEM_TOTAL_CHARGE>
0

> <PUBCHEM_SUBSTANCE_ID>
310930265

> <PUBCHEM_SUBSTANCE_VERSION>
1

> <PUBCHEM_EXT_DATASOURCE_NAME>
4488

> <PUBCHEM_EXT_DATASOURCE_REGID>
SCHEMBL16107541

> <PUBCHEM_SUBSTANCE_COMMENT>
InChI=1S/C26H26FN3O/c27-23-7-4-19(5-8-23)22-14-18(15-28-16-22)17-30-12-10-20(11-13-30)24-3-1-2-21-6-9-25(31)29-26(21)24/h1-5,7-8,14-16,20H,6,9-13,17H2,(H,29,31)
InChIKey=TXJCXVIMDSEDLD-UHFFFAOYSA-N

> <PUBCHEM_SUBSTANCE_SYNONYM>
SCHEMBL16107541

> <PUBCHEM_XREF_EXT_ID>
SCHEMBL16107541

> <PUBCHEM_EXT_DATASOURCE_URL>
https://www.surechembl.org/

> <PUBCHEM_EXT_SUBSTANCE_URL>
https://www.surechembl.org/chemical/SCHEMBL16107541

> <PUBCHEM_CID_ASSOCIATIONS>
101581310  1

> <PUBCHEM_COORDINATE_TYPE>
1
3

$$$$
