310931100
  -OEChem-07211613022D

 36 40  0     1  0  0  0  0  0999 V2000
    6.4018   -5.8397    0.0000 F   0  0  0  0  0  0  0  0  0  0  0  0
    0.7183   -2.5607    0.0000 F   0  0  0  0  0  0  0  0  0  0  0  0
    0.0312   -3.8098    0.0000 F   0  0  0  0  0  0  0  0  0  0  0  0
    0.0000   -2.9667    0.0000 F   0  0  0  0  0  0  0  0  0  0  0  0
    4.9965   -5.8397    0.0000 O   0  0  0  0  0  0  0  0  0  0  0  0
    1.4365   -4.6217    0.0000 O   0  0  0  0  0  0  0  0  0  0  0  0
    4.2782   -4.5905    0.0000 N   0  0  0  0  0  0  0  0  0  0  0  0
    4.9965   -3.3726    0.0000 N   0  0  0  0  0  0  0  0  0  0  0  0
    3.5912   -2.5607    0.0000 N   0  0  0  0  0  0  0  0  0  0  0  0
    2.1860   -2.5607    0.0000 N   0  0  0  0  0  0  0  0  0  0  0  0
    1.4677   -1.3116    0.0000 N   0  0  0  0  0  0  0  0  0  0  0  0
    2.3421   -0.0937    0.0000 N   0  0  0  0  0  0  0  0  0  0  0  0
    4.2782   -3.7786    0.0000 C   0  0  0  0  0  0  0  0  0  0  0  0
    5.7147   -4.5905    0.0000 C   0  0  0  0  0  0  0  0  0  0  0  0
    4.9965   -4.9965    0.0000 C   0  0  0  0  0  0  0  0  0  0  0  0
    5.7147   -3.7786    0.0000 C   0  0  0  0  0  0  0  0  0  0  0  0
    3.5600   -4.9965    0.0000 C   0  0  0  0  0  0  0  0  0  0  0  0
    3.5600   -3.3726    0.0000 C   0  0  3  0  0  0  0  0  0  0  0  0
    6.4018   -4.9965    0.0000 C   0  0  0  0  0  0  0  0  0  0  0  0
    6.4018   -3.3726    0.0000 C   0  0  0  0  0  0  0  0  0  0  0  0
    2.8730   -2.1547    0.0000 C   0  0  0  0  0  0  0  0  0  0  0  0
    2.8730   -4.6217    0.0000 C   0  0  0  0  0  0  0  0  0  0  0  0
    2.9042   -1.3116    0.0000 C   0  0  0  0  0  0  0  0  0  0  0  0
    3.5600   -5.8397    0.0000 C   0  0  0  0  0  0  0  0  0  0  0  0
    7.1200   -4.5905    0.0000 C   0  0  0  0  0  0  0  0  0  0  0  0
    2.1547   -0.9056    0.0000 C   0  0  0  0  0  0  0  0  0  0  0  0
    2.1547   -5.0277    0.0000 C   0  0  0  0  0  0  0  0  0  0  0  0
    7.1200   -3.7786    0.0000 C   0  0  0  0  0  0  0  0  0  0  0  0
    2.8730   -3.7786    0.0000 C   0  0  0  0  0  0  0  0  0  0  0  0
    2.8730   -6.2456    0.0000 C   0  0  0  0  0  0  0  0  0  0  0  0
    3.4976   -0.7495    0.0000 C   0  0  0  0  0  0  0  0  0  0  0  0
    2.1547   -5.8397    0.0000 C   0  0  0  0  0  0  0  0  0  0  0  0
    1.4365   -2.1235    0.0000 C   0  0  0  0  0  0  0  0  0  0  0  0
    3.1540    0.0000    0.0000 C   0  0  0  0  0  0  0  0  0  0  0  0
    1.4365   -3.8098    0.0000 C   0  0  0  0  0  0  0  0  0  0  0  0
    0.7183   -3.3726    0.0000 C   0  0  0  0  0  0  0  0  0  0  0  0
  1 19  1  0  0  0  0
  2 36  1  0  0  0  0
  3 36  1  0  0  0  0
  4 36  1  0  0  0  0
  5 15  2  0  0  0  0
  6 27  1  0  0  0  0
  6 35  1  0  0  0  0
  7 13  1  0  0  0  0
  7 15  1  0  0  0  0
  7 17  1  0  0  0  0
  8 13  2  0  0  0  0
  8 16  1  0  0  0  0
  9 18  1  0  0  0  0
  9 21  1  0  0  0  0
 10 21  1  0  0  0  0
 10 33  2  0  0  0  0
 11 26  2  0  0  0  0
 11 33  1  0  0  0  0
 12 26  1  0  0  0  0
 12 34  1  0  0  0  0
 13 18  1  0  0  0  0
 14 15  1  0  0  0  0
 14 16  2  0  0  0  0
 14 19  1  0  0  0  0
 16 20  1  0  0  0  0
 17 22  1  0  0  0  0
 17 24  2  0  0  0  0
 18 29  1  6  0  0  0
 19 25  2  0  0  0  0
 20 28  2  0  0  0  0
 21 23  2  0  0  0  0
 22 27  2  0  0  0  0
 23 26  1  0  0  0  0
 23 31  1  0  0  0  0
 24 30  1  0  0  0  0
 25 28  1  0  0  0  0
 27 32  1  0  0  0  0
 30 32  2  0  0  0  0
 31 34  2  0  0  0  0
 35 36  1  0  0  0  0
M  END
> <PUBCHEM_COMPOUND_ID_TYPE>
0

> <PUBCHEM_TOTAL_CHARGE>
0

> <PUBCHEM_SUBSTANCE_ID>
310931100

> <PUBCHEM_SUBSTANCE_VERSION>
1

> <PUBCHEM_EXT_DATASOURCE_NAME>
4488

> <PUBCHEM_EXT_DATASOURCE_REGID>
SCHEMBL16108404

> <PUBCHEM_SUBSTANCE_COMMENT>
InChI=1S/C24H18F4N6O2/c1-13(32-21-16-8-9-29-20(16)30-12-31-21)22-33-18-7-3-6-17(25)19(18)23(35)34(22)14-4-2-5-15(10-14)36-11-24(26,27)28/h2-10,12-13H,11H2,1H3,(H2,29,30,31,32)/t13-/m0/s1
InChIKey=OLMXPYHCUNMQBQ-ZDUSSCGKSA-N

> <PUBCHEM_SUBSTANCE_SYNONYM>
SCHEMBL16108404

> <PUBCHEM_XREF_EXT_ID>
SCHEMBL16108404

> <PUBCHEM_EXT_DATASOURCE_URL>
https://www.surechembl.org/

> <PUBCHEM_EXT_SUBSTANCE_URL>
https://www.surechembl.org/chemical/SCHEMBL16108404

> <PUBCHEM_CID_ASSOCIATIONS>
86272624  1

> <PUBCHEM_COORDINATE_TYPE>
1
3

> <PUBCHEM_BONDANNOTATIONS>
18  29  6

$$$$
