310940982
  -OEChem-07211613022D

 43 46  0     1  0  0  0  0  0999 V2000
    3.8251    2.3762    0.0000 S   0  0  0  0  0  0  0  0  0  0  0  0
    5.1726   -1.3620    0.0000 O   0  0  0  0  0  0  0  0  0  0  0  0
    4.0424    0.5940    0.0000 O   0  0  0  0  0  0  0  0  0  0  0  0
    1.6807   -1.3620    0.0000 O   0  0  0  0  0  0  0  0  0  0  0  0
    3.4049    3.1006    0.0000 O   0  0  0  0  0  0  0  0  0  0  0  0
    4.2308    1.6518    0.0000 O   0  0  0  0  0  0  0  0  0  0  0  0
   -0.4782    0.7244    0.0000 O   0  0  0  0  0  0  0  0  0  0  0  0
   -2.6225   -1.3620    0.0000 O   0  0  0  0  0  0  0  0  0  0  0  0
   -5.4768   -1.3620    0.0000 O   0  0  0  0  0  0  0  0  0  0  0  0
    2.3907   -0.1159    0.0000 N   0  0  0  0  0  0  0  0  0  0  0  0
    0.2463   -0.5361    0.0000 N   0  0  0  0  0  0  0  0  0  0  0  0
   -1.8980   -0.1159    0.0000 N   0  0  0  0  0  0  0  0  0  0  0  0
    4.5351    2.7819    0.0000 N   0  0  0  0  0  0  0  0  0  0  0  0
   -4.0424   -0.5361    0.0000 N   0  0  0  0  0  0  0  0  0  0  0  0
    4.7524   -0.6520    0.0000 C   0  0  3  0  0  0  0  0  0  0  0  0
    4.0424   -0.2753    0.0000 C   0  0  0  0  0  0  0  0  0  0  0  0
    4.3611   -1.3475    0.0000 C   0  0  0  0  0  0  0  0  0  0  0  0
    3.3325   -0.6231    0.0000 C   0  0  3  0  0  0  0  0  0  0  0  0
    5.4768   -0.2173    0.0000 C   0  0  0  0  0  0  0  0  0  0  0  0
    3.3325   -1.7097    0.0000 C   0  0  0  0  0  0  0  0  0  0  0  0
    1.6807   -0.4782    0.0000 C   0  0  0  0  0  0  0  0  0  0  0  0
    0.9418   -0.0869    0.0000 C   0  0  3  0  0  0  0  0  0  0  0  0
    2.6080   -2.1154    0.0000 C   0  0  0  0  0  0  0  0  0  0  0  0
    0.9707    0.7389    0.0000 C   0  0  0  0  0  0  0  0  0  0  0  0
    1.6807    1.1591    0.0000 C   0  0  0  0  0  0  0  0  0  0  0  0
    3.1151    1.9850    0.0000 C   0  0  0  0  0  0  0  0  0  0  0  0
   -0.4782   -0.1159    0.0000 C   0  0  0  0  0  0  0  0  0  0  0  0
    1.8691   -1.7966    0.0000 C   0  0  0  0  0  0  0  0  0  0  0  0
    2.5066   -2.9413    0.0000 C   0  0  0  0  0  0  0  0  0  0  0  0
    1.6953    1.9850    0.0000 C   0  0  0  0  0  0  0  0  0  0  0  0
    2.3907    0.7534    0.0000 C   0  0  0  0  0  0  0  0  0  0  0  0
    2.3907    2.3762    0.0000 C   0  0  0  0  0  0  0  0  0  0  0  0
    3.1151    1.1591    0.0000 C   0  0  0  0  0  0  0  0  0  0  0  0
   -1.1591   -0.4926    0.0000 C   0  0  3  0  0  0  0  0  0  0  0  0
    1.3185   -2.4197    0.0000 C   0  0  0  0  0  0  0  0  0  0  0  0
    1.7097   -3.1006    0.0000 C   0  0  0  0  0  0  0  0  0  0  0  0
   -2.6080   -0.4782    0.0000 C   0  0  0  0  0  0  0  0  0  0  0  0
   -1.1881   -1.3185    0.0000 C   0  0  0  0  0  0  0  0  0  0  0  0
   -3.3325   -0.0869    0.0000 C   0  0  0  0  0  0  0  0  0  0  0  0
   -4.0424   -1.3329    0.0000 C   0  0  0  0  0  0  0  0  0  0  0  0
   -4.7958   -0.1014    0.0000 C   0  0  0  0  0  0  0  0  0  0  0  0
   -4.7379   -1.7387    0.0000 C   0  0  0  0  0  0  0  0  0  0  0  0
   -5.4624   -0.4926    0.0000 C   0  0  0  0  0  0  0  0  0  0  0  0
  1  5  2  0  0  0  0
  1  6  2  0  0  0  0
  1 13  1  0  0  0  0
  1 26  1  0  0  0  0
  2 15  1  0  0  0  0
  2 17  1  0  0  0  0
  3 16  2  0  0  0  0
  4 21  2  0  0  0  0
  7 27  2  0  0  0  0
  8 37  2  0  0  0  0
  9 42  1  0  0  0  0
  9 43  1  0  0  0  0
 18 10  1  6  0  0  0
 10 21  1  0  0  0  0
 22 11  1  1  0  0  0
 11 27  1  0  0  0  0
 12 34  1  0  0  0  0
 12 37  1  0  0  0  0
 14 39  1  0  0  0  0
 14 40  1  0  0  0  0
 14 41  1  0  0  0  0
 15 16  1  6  0  0  0
 15 17  1  0  0  0  0
 15 19  1  1  0  0  0
 16 18  1  0  0  0  0
 18 20  1  0  0  0  0
 20 23  1  0  0  0  0
 21 22  1  0  0  0  0
 22 24  1  0  0  0  0
 23 28  1  0  0  0  0
 23 29  1  0  0  0  0
 24 25  1  0  0  0  0
 25 30  2  0  0  0  0
 25 31  1  0  0  0  0
 26 32  2  0  0  0  0
 26 33  1  0  0  0  0
 27 34  1  0  0  0  0
 28 35  1  0  0  0  0
 29 36  1  0  0  0  0
 30 32  1  0  0  0  0
 31 33  2  0  0  0  0
 34 38  1  6  0  0  0
 35 36  1  0  0  0  0
 37 39  1  0  0  0  0
 40 42  1  0  0  0  0
 41 43  1  0  0  0  0
M  END
> <PUBCHEM_COMPOUND_ID_TYPE>
0

> <PUBCHEM_TOTAL_CHARGE>
0

> <PUBCHEM_SUBSTANCE_ID>
310940982

> <PUBCHEM_SUBSTANCE_VERSION>
1

> <PUBCHEM_EXT_DATASOURCE_NAME>
4488

> <PUBCHEM_EXT_DATASOURCE_REGID>
SCHEMBL16118941

> <PUBCHEM_SUBSTANCE_COMMENT>
InChI=1S/C29H43N5O8S/c1-19(31-25(35)17-34-11-13-41-14-12-34)27(37)33-24(16-21-7-9-22(10-8-21)43(30,39)40)28(38)32-23(15-20-5-3-4-6-20)26(36)29(2)18-42-29/h7-10,19-20,23-24H,3-6,11-18H2,1-2H3,(H,31,35)(H,32,38)(H,33,37)(H2,30,39,40)/t19-,23-,24-,29+/m0/s1
InChIKey=GNPWNVLMHPAMIH-BWHDGOAMSA-N

> <PUBCHEM_SUBSTANCE_SYNONYM>
SCHEMBL16118941

> <PUBCHEM_XREF_EXT_ID>
SCHEMBL16118941

> <PUBCHEM_EXT_DATASOURCE_URL>
https://www.surechembl.org/

> <PUBCHEM_EXT_SUBSTANCE_URL>
https://www.surechembl.org/chemical/SCHEMBL16118941

> <PUBCHEM_CID_ASSOCIATIONS>
117607888  1

> <PUBCHEM_COORDINATE_TYPE>
1
3

> <PUBCHEM_BONDANNOTATIONS>
18  10  6
22  11  5
15  16  6
15  19  5
34  38  6

$$$$
