310937806
  -OEChem-07211613022D

 38 41  0     1  0  0  0  0  0999 V2000
    0.7002   -0.1507    0.0000 Br  0  0  0  0  0  0  0  0  0  0  0  0
    1.4289    3.8786    0.0000 F   0  0  0  0  0  0  0  0  0  0  0  0
    1.1270    5.0055    0.0000 F   0  0  0  0  0  0  0  0  0  0  0  0
    0.3020    3.5766    0.0000 F   0  0  0  0  0  0  0  0  0  0  0  0
    1.4289    6.3536    0.0000 F   0  0  0  0  0  0  0  0  0  0  0  0
    1.3276    5.3890    0.0000 F   0  0  0  0  0  0  0  0  0  0  0  0
    0.3020    6.6555    0.0000 F   0  0  0  0  0  0  0  0  0  0  0  0
   -0.0470    2.9812    0.0000 O   0  0  0  0  0  0  0  0  0  0  0  0
    0.1830    1.5291    0.0000 O   0  0  0  0  0  0  0  0  0  0  0  0
   -1.1270    2.1965    0.0000 N   0  0  0  0  0  0  0  0  0  0  0  0
   -2.5817    0.1942    0.0000 N   0  0  0  0  0  0  0  0  0  0  0  0
   -1.4257   -0.6457    0.0000 N   0  0  0  0  0  0  0  0  0  0  0  0
    0.0000    4.7036    0.0000 C   0  0  0  0  0  0  0  0  0  0  0  0
   -0.7145    4.2911    0.0000 C   0  0  0  0  0  0  0  0  0  0  0  0
   -0.7145    3.4661    0.0000 C   0  0  3  0  0  0  0  0  0  0  0  0
    0.0000    5.5286    0.0000 C   0  0  0  0  0  0  0  0  0  0  0  0
   -1.3819    2.9812    0.0000 C   0  0  3  0  0  0  0  0  0  0  0  0
    0.7145    4.2911    0.0000 C   0  0  0  0  0  0  0  0  0  0  0  0
   -0.3020    2.1965    0.0000 C   0  0  0  0  0  0  0  0  0  0  0  0
    0.7145    5.9411    0.0000 C   0  0  0  0  0  0  0  0  0  0  0  0
   -1.4289    4.7036    0.0000 C   0  0  0  0  0  0  0  0  0  0  0  0
   -0.7145    5.9411    0.0000 C   0  0  0  0  0  0  0  0  0  0  0  0
   -1.6119    1.5291    0.0000 C   0  0  0  0  0  0  0  0  0  0  0  0
   -1.2763    0.7754    0.0000 C   0  0  0  0  0  0  0  0  0  0  0  0
   -1.4289    5.5286    0.0000 C   0  0  0  0  0  0  0  0  0  0  0  0
   -1.7613    0.1080    0.0000 C   0  0  0  0  0  0  0  0  0  0  0  0
   -2.1665    3.2361    0.0000 C   0  0  0  0  0  0  0  0  0  0  0  0
   -0.4559    0.6892    0.0000 C   0  0  0  0  0  0  0  0  0  0  0  0
   -3.0667   -0.4732    0.0000 C   0  0  0  0  0  0  0  0  0  0  0  0
   -0.1203   -0.0645    0.0000 C   0  0  0  0  0  0  0  0  0  0  0  0
   -0.6052   -0.7319    0.0000 C   0  0  0  0  0  0  0  0  0  0  0  0
   -2.9173    0.9479    0.0000 C   0  0  0  0  0  0  0  0  0  0  0  0
   -2.7311   -1.2269    0.0000 C   0  0  0  0  0  0  0  0  0  0  0  0
   -3.8871   -0.3870    0.0000 C   0  0  0  0  0  0  0  0  0  0  0  0
   -3.2160   -1.8943    0.0000 C   0  0  0  0  0  0  0  0  0  0  0  0
   -4.3721   -1.0544    0.0000 C   0  0  0  0  0  0  0  0  0  0  0  0
   -3.7378    1.0341    0.0000 C   0  0  0  0  0  0  0  0  0  0  0  0
   -4.0365   -1.8081    0.0000 C   0  0  0  0  0  0  0  0  0  0  0  0
  1 30  1  0  0  0  0
  2 18  1  0  0  0  0
  3 18  1  0  0  0  0
  4 18  1  0  0  0  0
  5 20  1  0  0  0  0
  6 20  1  0  0  0  0
  7 20  1  0  0  0  0
  8 15  1  0  0  0  0
  8 19  1  0  0  0  0
  9 19  2  0  0  0  0
 10 17  1  0  0  0  0
 10 19  1  0  0  0  0
 10 23  1  0  0  0  0
 11 26  1  0  0  0  0
 11 29  1  0  0  0  0
 11 32  1  0  0  0  0
 12 26  2  0  0  0  0
 12 31  1  0  0  0  0
 13 14  2  0  0  0  0
 13 16  1  0  0  0  0
 13 18  1  0  0  0  0
 15 14  1  1  0  0  0
 14 21  1  0  0  0  0
 15 17  1  0  0  0  0
 16 20  1  0  0  0  0
 16 22  2  0  0  0  0
 17 27  1  1  0  0  0
 21 25  2  0  0  0  0
 22 25  1  0  0  0  0
 23 24  1  0  0  0  0
 24 26  1  0  0  0  0
 24 28  2  0  0  0  0
 28 30  1  0  0  0  0
 29 33  1  0  0  0  0
 29 34  1  0  0  0  0
 30 31  2  0  0  0  0
 32 37  1  0  0  0  0
 33 35  1  0  0  0  0
 34 36  1  0  0  0  0
 35 38  1  0  0  0  0
 36 38  1  0  0  0  0
M  END
> <PUBCHEM_COMPOUND_ID_TYPE>
0

> <PUBCHEM_TOTAL_CHARGE>
0

> <PUBCHEM_SUBSTANCE_ID>
310937806

> <PUBCHEM_SUBSTANCE_VERSION>
1

> <PUBCHEM_EXT_DATASOURCE_NAME>
4488

> <PUBCHEM_EXT_DATASOURCE_REGID>
SCHEMBL16115623

> <PUBCHEM_SUBSTANCE_COMMENT>
InChI=1S/C26H28BrF6N3O2/c1-3-35(18-8-5-4-6-9-18)23-16(12-17(27)13-34-23)14-36-15(2)22(38-24(36)37)19-10-7-11-20(25(28,29)30)21(19)26(31,32)33/h7,10-13,15,18,22H,3-6,8-9,14H2,1-2H3/t15-,22-/m0/s1
InChIKey=CFACXGFGVCCXEP-NYHFZMIOSA-N

> <PUBCHEM_SUBSTANCE_SYNONYM>
SCHEMBL16115623

> <PUBCHEM_XREF_EXT_ID>
SCHEMBL16115623

> <PUBCHEM_EXT_DATASOURCE_URL>
https://www.surechembl.org/

> <PUBCHEM_EXT_SUBSTANCE_URL>
https://www.surechembl.org/chemical/SCHEMBL16115623

> <PUBCHEM_CID_ASSOCIATIONS>
117605454  1

> <PUBCHEM_COORDINATE_TYPE>
1
3

> <PUBCHEM_BONDANNOTATIONS>
15  14  5
17  27  5

$$$$
