310945612
  -OEChem-07211613022D

 31 34  0     0  0  0  0  0  0999 V2000
    2.5628    0.8632    0.0000 O   0  0  0  0  0  0  0  0  0  0  0  0
    5.6336    0.6952    0.0000 O   0  0  0  0  0  0  0  0  0  0  0  0
   -5.0302    0.6187    0.0000 O   0  0  0  0  0  0  0  0  0  0  0  0
    2.0205   -0.5729    0.0000 N   0  0  0  0  0  0  0  0  0  0  0  0
    1.1725    0.4813    0.0000 N   0  0  0  0  0  0  0  0  0  0  0  0
   -1.4017   -0.5959    0.0000 N   0  0  0  0  0  0  0  0  0  0  0  0
   -0.5615    0.4660    0.0000 N   0  0  0  0  0  0  0  0  0  0  0  0
    0.7219   -0.1833    0.0000 C   0  0  0  0  0  0  0  0  0  0  0  0
   -0.1031   -0.1757    0.0000 C   0  0  0  0  0  0  0  0  0  0  0  0
    1.2413   -0.8097    0.0000 C   0  0  0  0  0  0  0  0  0  0  0  0
   -0.6073   -0.8250    0.0000 C   0  0  0  0  0  0  0  0  0  0  0  0
    1.9593    0.2902    0.0000 C   0  0  0  0  0  0  0  0  0  0  0  0
   -1.3636    0.2750    0.0000 C   0  0  0  0  0  0  0  0  0  0  0  0
    2.7691   -0.9243    0.0000 C   0  0  0  0  0  0  0  0  0  0  0  0
   -2.1121   -0.9701    0.0000 C   0  0  0  0  0  0  0  0  0  0  0  0
    3.4719   -0.5118    0.0000 C   0  0  0  0  0  0  0  0  0  0  0  0
    1.0427   -1.4667    0.0000 C   0  0  0  0  0  0  0  0  0  0  0  0
   -0.4545   -1.4972    0.0000 C   0  0  0  0  0  0  0  0  0  0  0  0
   -2.8378   -0.5576    0.0000 C   0  0  0  0  0  0  0  0  0  0  0  0
    4.1975   -0.9090    0.0000 C   0  0  0  0  0  0  0  0  0  0  0  0
    3.4719    0.3132    0.0000 C   0  0  0  0  0  0  0  0  0  0  0  0
   -2.8531    0.2674    0.0000 C   0  0  0  0  0  0  0  0  0  0  0  0
   -3.5559   -0.9701    0.0000 C   0  0  0  0  0  0  0  0  0  0  0  0
    4.9003    0.3285    0.0000 C   0  0  0  0  0  0  0  0  0  0  0  0
    4.9080   -0.4889    0.0000 C   0  0  0  0  0  0  0  0  0  0  0  0
    4.1899    0.7257    0.0000 C   0  0  0  0  0  0  0  0  0  0  0  0
   -4.3045    0.2521    0.0000 C   0  0  0  0  0  0  0  0  0  0  0  0
   -3.5712    0.6722    0.0000 C   0  0  0  0  0  0  0  0  0  0  0  0
   -4.2815   -0.5729    0.0000 C   0  0  0  0  0  0  0  0  0  0  0  0
    5.6872    1.4972    0.0000 C   0  0  0  0  0  0  0  0  0  0  0  0
   -5.6872    0.1680    0.0000 C   0  0  0  0  0  0  0  0  0  0  0  0
  1 12  2  0  0  0  0
  2 24  1  0  0  0  0
  2 30  1  0  0  0  0
  3 27  1  0  0  0  0
  3 31  1  0  0  0  0
  4 10  1  0  0  0  0
  4 12  1  0  0  0  0
  4 14  1  0  0  0  0
  5  8  2  0  0  0  0
  5 12  1  0  0  0  0
  6 11  1  0  0  0  0
  6 13  1  0  0  0  0
  6 15  1  0  0  0  0
  7  9  1  0  0  0  0
  7 13  2  0  0  0  0
  8  9  1  0  0  0  0
  8 10  1  0  0  0  0
  9 11  2  0  0  0  0
 10 17  2  0  0  0  0
 11 18  1  0  0  0  0
 14 16  1  0  0  0  0
 15 19  1  0  0  0  0
 16 20  2  0  0  0  0
 16 21  1  0  0  0  0
 19 22  2  0  0  0  0
 19 23  1  0  0  0  0
 20 25  1  0  0  0  0
 21 26  2  0  0  0  0
 22 28  1  0  0  0  0
 23 29  2  0  0  0  0
 24 25  2  0  0  0  0
 24 26  1  0  0  0  0
 27 28  2  0  0  0  0
 27 29  1  0  0  0  0
M  END
> <PUBCHEM_COMPOUND_ID_TYPE>
0

> <PUBCHEM_TOTAL_CHARGE>
0

> <PUBCHEM_SUBSTANCE_ID>
310945612

> <PUBCHEM_SUBSTANCE_VERSION>
1

> <PUBCHEM_EXT_DATASOURCE_NAME>
4488

> <PUBCHEM_EXT_DATASOURCE_REGID>
SCHEMBL16123711

> <PUBCHEM_SUBSTANCE_COMMENT>
InChI=1S/C24H24N4O3/c1-16-22(25-15-27(16)13-18-5-9-20(30-3)10-6-18)23-17(2)28(24(29)26-23)14-19-7-11-21(31-4)12-8-19/h5-12,15H,2,13-14H2,1,3-4H3
InChIKey=IAFMICXHZXITPD-UHFFFAOYSA-N

> <PUBCHEM_SUBSTANCE_SYNONYM>
SCHEMBL16123711

> <PUBCHEM_XREF_EXT_ID>
SCHEMBL16123711

> <PUBCHEM_EXT_DATASOURCE_URL>
https://www.surechembl.org/

> <PUBCHEM_EXT_SUBSTANCE_URL>
https://www.surechembl.org/chemical/SCHEMBL16123711

> <PUBCHEM_CID_ASSOCIATIONS>
117611631  1

> <PUBCHEM_COORDINATE_TYPE>
1
3

$$$$
