310930967
  -OEChem-07211613022D

 31 34  0     0  0  0  0  0  0999 V2000
    3.0731   -2.4299    0.0000 S   0  0  0  0  0  0  0  0  0  0  0  0
    2.2870   -3.6449    0.0000 S   0  0  0  0  0  0  0  0  0  0  0  0
    3.5377   -3.2160    0.0000 O   0  0  0  0  0  0  0  0  0  0  0  0
    2.6801   -1.7152    0.0000 O   0  0  0  0  0  0  0  0  0  0  0  0
    7.3612    0.0000    0.0000 O   0  0  0  0  0  0  0  0  0  0  0  0
    1.0720   -3.0731    0.0000 N   0  0  0  0  0  0  0  0  0  0  0  0
    9.4337   -1.2149    0.0000 N   0  0  0  0  0  0  0  0  0  0  0  0
    1.1435   -4.5739    0.0000 N   0  0  0  0  0  0  0  0  0  0  0  0
    8.7191   -2.4656    0.0000 N   0  0  0  0  0  0  0  0  0  0  0  0
   10.2199   -2.2870    0.0000 N   0  0  0  0  0  0  0  0  0  0  0  0
    6.6465   -1.2149    0.0000 N   0  0  0  0  0  0  0  0  0  0  0  0
    2.3584   -2.8230    0.0000 C   0  0  0  0  0  0  0  0  0  0  0  0
    3.7878   -2.0011    0.0000 C   0  0  0  0  0  0  0  0  0  0  0  0
    1.4651   -3.8235    0.0000 C   0  0  0  0  0  0  0  0  0  0  0  0
    1.6080   -2.5014    0.0000 C   0  0  0  0  0  0  0  0  0  0  0  0
    4.5025   -2.4299    0.0000 C   0  0  0  0  0  0  0  0  0  0  0  0
    3.7878   -1.2149    0.0000 C   0  0  0  0  0  0  0  0  0  0  0  0
    9.4337   -2.0725    0.0000 C   0  0  0  0  0  0  0  0  0  0  0  0
    5.2171   -1.2149    0.0000 C   0  0  0  0  0  0  0  0  0  0  0  0
    8.0402   -1.2149    0.0000 C   0  0  0  0  0  0  0  0  0  0  0  0
    5.2171   -2.0369    0.0000 C   0  0  0  0  0  0  0  0  0  0  0  0
    4.5025   -0.7862    0.0000 C   0  0  0  0  0  0  0  0  0  0  0  0
    8.7191   -0.8219    0.0000 C   0  0  0  0  0  0  0  0  0  0  0  0
    7.3254   -0.7862    0.0000 C   0  0  0  0  0  0  0  0  0  0  0  0
    8.0402   -2.0725    0.0000 C   0  0  0  0  0  0  0  0  0  0  0  0
   10.2199   -0.9648    0.0000 C   0  0  0  0  0  0  0  0  0  0  0  0
    5.9318   -0.7862    0.0000 C   0  0  0  0  0  0  0  0  0  0  0  0
   10.7202   -1.6438    0.0000 C   0  0  0  0  0  0  0  0  0  0  0  0
    0.3216   -4.6454    0.0000 C   0  0  0  0  0  0  0  0  0  0  0  0
    1.6080   -5.2171    0.0000 C   0  0  0  0  0  0  0  0  0  0  0  0
    0.0000   -5.3958    0.0000 C   0  0  0  0  0  0  0  0  0  0  0  0
  1  3  2  0  0  0  0
  1  4  2  0  0  0  0
  1 12  1  0  0  0  0
  1 13  1  0  0  0  0
  2 12  1  0  0  0  0
  2 14  1  0  0  0  0
  5 24  2  0  0  0  0
  6 14  2  0  0  0  0
  6 15  1  0  0  0  0
  7 18  1  0  0  0  0
  7 23  1  0  0  0  0
  7 26  1  0  0  0  0
  8 14  1  0  0  0  0
  8 29  1  0  0  0  0
  8 30  1  0  0  0  0
  9 18  1  0  0  0  0
  9 25  2  0  0  0  0
 10 18  2  0  0  0  0
 10 28  1  0  0  0  0
 11 24  1  0  0  0  0
 11 27  1  0  0  0  0
 12 15  2  0  0  0  0
 13 16  2  0  0  0  0
 13 17  1  0  0  0  0
 16 21  1  0  0  0  0
 17 22  2  0  0  0  0
 19 21  2  0  0  0  0
 19 22  1  0  0  0  0
 19 27  1  0  0  0  0
 20 23  2  0  0  0  0
 20 24  1  0  0  0  0
 20 25  1  0  0  0  0
 26 28  2  0  0  0  0
 29 31  1  0  0  0  0
M  END
> <PUBCHEM_COMPOUND_ID_TYPE>
0

> <PUBCHEM_TOTAL_CHARGE>
0

> <PUBCHEM_SUBSTANCE_ID>
310930967

> <PUBCHEM_SUBSTANCE_VERSION>
1

> <PUBCHEM_EXT_DATASOURCE_NAME>
4488

> <PUBCHEM_EXT_DATASOURCE_REGID>
SCHEMBL16108267

> <PUBCHEM_SUBSTANCE_COMMENT>
InChI=1S/C20H20N6O3S2/c1-3-25(2)20-24-12-17(30-20)31(28,29)16-6-4-14(5-7-16)10-22-18(27)15-11-23-19-21-8-9-26(19)13-15/h4-9,11-13H,3,10H2,1-2H3,(H,22,27)
InChIKey=NYRSBTXQGDYCLZ-UHFFFAOYSA-N

> <PUBCHEM_SUBSTANCE_SYNONYM>
SCHEMBL16108267

> <PUBCHEM_XREF_EXT_ID>
SCHEMBL16108267

> <PUBCHEM_EXT_DATASOURCE_URL>
https://www.surechembl.org/

> <PUBCHEM_EXT_SUBSTANCE_URL>
https://www.surechembl.org/chemical/SCHEMBL16108267

> <PUBCHEM_CID_ASSOCIATIONS>
117599907  1

> <PUBCHEM_COORDINATE_TYPE>
1
3

$$$$
