310946762
  -OEChem-07211613022D

 36 40  0     1  0  0  0  0  0999 V2000
    1.5170   -2.6803    0.0000 S   0  0  0  0  0  0  0  0  0  0  0  0
   -3.4507    1.5484    0.0000 O   0  0  0  0  0  0  0  0  0  0  0  0
    1.7843   -3.4664    0.0000 O   0  0  0  0  0  0  0  0  0  0  0  0
    0.7310   -2.9476    0.0000 O   0  0  0  0  0  0  0  0  0  0  0  0
   -0.2122   -1.1869    0.0000 O   0  0  0  0  0  0  0  0  0  0  0  0
   -1.5013    1.2655    0.0000 N   0  0  0  0  0  0  0  0  0  0  0  0
   -0.6838    1.3598    0.0000 N   0  0  0  0  0  0  0  0  0  0  0  0
    2.2874   -2.4131    0.0000 N   0  0  3  0  0  0  0  0  0  0  0  0
    0.4638    0.4481    0.0000 N   0  0  0  0  0  0  0  0  0  0  0  0
   -1.6428   -1.1869    0.0000 N   0  0  0  0  0  0  0  0  0  0  0  0
   -0.7624    3.6236    0.0000 N   0  0  0  0  0  0  0  0  0  0  0  0
   -1.6586    0.4638    0.0000 C   0  0  0  0  0  0  0  0  0  0  0  0
   -2.0672    1.8786    0.0000 C   0  0  3  0  0  0  0  0  0  0  0  0
   -0.9354    0.0550    0.0000 C   0  0  0  0  0  0  0  0  0  0  0  0
   -0.3537    0.6367    0.0000 C   0  0  0  0  0  0  0  0  0  0  0  0
   -0.9669   -0.7467    0.0000 C   0  0  0  0  0  0  0  0  0  0  0  0
    2.9634   -2.9005    0.0000 C   0  0  0  0  0  0  0  0  0  0  0  0
   -2.3660    0.0393    0.0000 C   0  0  0  0  0  0  0  0  0  0  0  0
    1.2498   -1.8943    0.0000 C   0  0  0  0  0  0  0  0  0  0  0  0
   -2.6489    1.3127    0.0000 C   0  0  0  0  0  0  0  0  0  0  0  0
   -2.2245    2.6803    0.0000 C   0  0  0  0  0  0  0  0  0  0  0  0
   -1.2341    2.0358    0.0000 C   0  0  0  0  0  0  0  0  0  0  0  0
    0.7310   -0.3223    0.0000 C   0  0  0  0  0  0  0  0  0  0  0  0
   -2.3503   -0.7939    0.0000 C   0  0  0  0  0  0  0  0  0  0  0  0
    2.5389   -1.6271    0.0000 C   0  0  0  0  0  0  0  0  0  0  0  0
    3.6236   -2.3974    0.0000 C   0  0  0  0  0  0  0  0  0  0  0  0
    0.4481   -1.7214    0.0000 C   0  0  0  0  0  0  0  0  0  0  0  0
    1.7843   -1.2812    0.0000 C   0  0  0  0  0  0  0  0  0  0  0  0
    0.1965   -0.9353    0.0000 C   0  0  0  0  0  0  0  0  0  0  0  0
    1.5327   -0.4952    0.0000 C   0  0  0  0  0  0  0  0  0  0  0  0
   -3.0262    2.9319    0.0000 C   0  0  0  0  0  0  0  0  0  0  0  0
    3.3563   -1.6114    0.0000 C   0  0  0  0  0  0  0  0  0  0  0  0
   -0.9826    2.8219    0.0000 C   0  0  0  0  0  0  0  0  0  0  0  0
   -3.6236    2.3660    0.0000 C   0  0  0  0  0  0  0  0  0  0  0  0
    2.5860   -3.6236    0.0000 C   0  0  0  0  0  0  0  0  0  0  0  0
    3.3878   -3.6236    0.0000 C   0  0  0  0  0  0  0  0  0  0  0  0
  1  3  2  0  0  0  0
  1  4  2  0  0  0  0
  1  8  1  0  0  0  0
  1 19  1  0  0  0  0
  2 20  1  0  0  0  0
  2 34  1  0  0  0  0
  5 16  2  0  0  0  0
  6  7  1  0  0  0  0
  6 12  1  0  0  0  0
  6 13  1  0  0  0  0
  7 15  2  0  0  0  0
  8 17  1  0  0  0  0
  8 25  1  0  0  0  0
  9 15  1  0  0  0  0
  9 23  1  0  0  0  0
 10 16  1  0  0  0  0
 10 24  1  0  0  0  0
 11 33  3  0  0  0  0
 12 14  2  0  0  0  0
 12 18  1  0  0  0  0
 13 20  1  0  0  0  0
 13 21  1  0  0  0  0
 13 22  1  6  0  0  0
 14 15  1  0  0  0  0
 14 16  1  0  0  0  0
 17 26  1  0  0  0  0
 17 35  1  0  0  0  0
 17 36  1  0  0  0  0
 18 24  2  0  0  0  0
 19 27  2  0  0  0  0
 19 28  1  0  0  0  0
 21 31  1  0  0  0  0
 22 33  1  0  0  0  0
 23 29  2  0  0  0  0
 23 30  1  0  0  0  0
 25 32  1  0  0  0  0
 26 32  1  0  0  0  0
 27 29  1  0  0  0  0
 28 30  2  0  0  0  0
 31 34  1  0  0  0  0
M  END
> <PUBCHEM_COMPOUND_ID_TYPE>
0

> <PUBCHEM_TOTAL_CHARGE>
0

> <PUBCHEM_SUBSTANCE_ID>
310946762

> <PUBCHEM_SUBSTANCE_VERSION>
1

> <PUBCHEM_EXT_DATASOURCE_NAME>
4488

> <PUBCHEM_EXT_DATASOURCE_REGID>
SCHEMBL16124886

> <PUBCHEM_SUBSTANCE_COMMENT>
InChI=1S/C25H30N6O4S/c1-24(2)10-3-15-30(24)36(33,34)19-7-5-18(6-8-19)28-22-21-20(9-14-27-23(21)32)31(29-22)25(12-13-26)11-4-16-35-17-25/h5-9,14H,3-4,10-12,15-17H2,1-2H3,(H,27,32)(H,28,29)/t25-/m0/s1
InChIKey=VVZVBFLIZOTMLJ-VWLOTQADSA-N

> <PUBCHEM_SUBSTANCE_SYNONYM>
SCHEMBL16124886

> <PUBCHEM_XREF_EXT_ID>
SCHEMBL16124886

> <PUBCHEM_EXT_DATASOURCE_URL>
https://www.surechembl.org/

> <PUBCHEM_EXT_SUBSTANCE_URL>
https://www.surechembl.org/chemical/SCHEMBL16124886

> <PUBCHEM_CID_ASSOCIATIONS>
117612634  1

> <PUBCHEM_COORDINATE_TYPE>
1
3

> <PUBCHEM_BONDANNOTATIONS>
13  22  6

$$$$
