310929315
  -OEChem-07211613022D

 60 66  0     1  0  0  0  0  0999 V2000
    4.8206   -0.9208    0.0000 S   0  0  0  0  0  0  0  0  0  0  0  0
    4.4414   -2.4915    0.0000 O   0  0  0  0  0  0  0  0  0  0  0  0
    5.0373   -1.7332    0.0000 O   0  0  0  0  0  0  0  0  0  0  0  0
    4.6039   -0.1083    0.0000 O   0  0  0  0  0  0  0  0  0  0  0  0
    4.3332   -3.1415    0.0000 O   0  0  0  0  0  0  0  0  0  0  0  0
    5.4164   -5.5247    0.0000 O   0  0  0  0  0  0  0  0  0  0  0  0
    1.4082   -4.0081    0.0000 O   0  0  0  0  0  0  0  0  0  0  0  0
    6.3914   -8.3413    0.0000 O   0  0  0  0  0  0  0  0  0  0  0  0
    0.9208   -7.5288    0.0000 O   0  0  0  0  0  0  0  0  0  0  0  0
    0.0000   -6.6622    0.0000 O   0  0  0  0  0  0  0  0  0  0  0  0
    4.9831  -10.8328    0.0000 O   0  0  0  0  0  0  0  0  0  0  0  0
    2.9790   -2.9790    0.0000 N   0  0  0  0  0  0  0  0  0  0  0  0
    4.0623   -1.1374    0.0000 N   0  0  0  0  0  0  0  0  0  0  0  0
    2.6540   -4.2790    0.0000 N   0  0  0  0  0  0  0  0  0  0  0  0
    6.3914   -5.9039    0.0000 N   0  0  0  0  0  0  0  0  0  0  0  0
    0.9208   -5.9039    0.0000 N   0  0  0  0  0  0  0  0  0  0  0  0
    3.0332   -2.1665    0.0000 C   0  0  3  0  0  0  0  0  0  0  0  0
    2.3290   -1.7332    0.0000 C   0  0  3  0  0  0  0  0  0  0  0  0
    3.0332   -1.3000    0.0000 C   0  0  0  0  0  0  0  0  0  0  0  0
    3.8456   -1.9499    0.0000 C   0  0  0  0  0  0  0  0  0  0  0  0
    5.6331   -0.7042    0.0000 C   0  0  0  0  0  0  0  0  0  0  0  0
    3.6290   -3.4665    0.0000 C   0  0  0  0  0  0  0  0  0  0  0  0
    1.5166   -1.7874    0.0000 C   0  0  0  0  0  0  0  0  0  0  0  0
    6.1747   -0.1083    0.0000 C   0  0  0  0  0  0  0  0  0  0  0  0
    6.4455   -0.9208    0.0000 C   0  0  0  0  0  0  0  0  0  0  0  0
    3.5207   -4.2790    0.0000 C   0  0  3  0  0  0  0  0  0  0  0  0
    5.1997    0.0000    0.0000 C   0  0  0  0  0  0  0  0  0  0  0  0
    4.2790   -4.4414    0.0000 C   0  0  0  0  0  0  0  0  0  0  0  0
    4.9831   -4.8748    0.0000 C   0  0  3  0  0  0  0  0  0  0  0  0
    1.8416   -4.6581    0.0000 C   0  0  0  0  0  0  0  0  0  0  0  0
    3.9540   -3.8998    0.0000 C   0  0  0  0  0  0  0  0  0  0  0  0
    1.3000   -5.2539    0.0000 C   0  0  3  0  0  0  0  0  0  0  0  0
    1.1374   -2.4915    0.0000 C   0  0  0  0  0  0  0  0  0  0  0  0
    5.7414   -6.2830    0.0000 C   0  0  0  0  0  0  0  0  0  0  0  0
    5.7414   -7.1497    0.0000 C   0  0  0  0  0  0  0  0  0  0  0  0
    6.3914   -7.5288    0.0000 C   0  0  0  0  0  0  0  0  0  0  0  0
    0.6500   -4.7123    0.0000 C   0  0  0  0  0  0  0  0  0  0  0  0
    7.0955   -7.1497    0.0000 C   0  0  0  0  0  0  0  0  0  0  0  0
    7.0955   -6.2830    0.0000 C   0  0  0  0  0  0  0  0  0  0  0  0
    5.4164   -7.9080    0.0000 C   0  0  0  0  0  0  0  0  0  0  0  0
    7.8538   -7.5288    0.0000 C   0  0  0  0  0  0  0  0  0  0  0  0
    7.8538   -5.9039    0.0000 C   0  0  0  0  0  0  0  0  0  0  0  0
    0.8124   -6.6622    0.0000 C   0  0  0  0  0  0  0  0  0  0  0  0
    1.1374   -4.0623    0.0000 C   0  0  0  0  0  0  0  0  0  0  0  0
    0.0000   -4.2248    0.0000 C   0  0  0  0  0  0  0  0  0  0  0  0
    0.1625   -5.3622    0.0000 C   0  0  0  0  0  0  0  0  0  0  0  0
    8.5038   -7.1497    0.0000 C   0  0  0  0  0  0  0  0  0  0  0  0
    8.5038   -6.2830    0.0000 C   0  0  0  0  0  0  0  0  0  0  0  0
    4.9831   -8.5038    0.0000 C   0  0  0  0  0  0  0  0  0  0  0  0
    5.6872   -8.7746    0.0000 C   0  0  0  0  0  0  0  0  0  0  0  0
    1.3000   -8.2329    0.0000 C   0  0  3  0  0  0  0  0  0  0  0  0
    1.8416   -8.8287    0.0000 C   0  0  3  0  0  0  0  0  0  0  0  0
    4.1706   -8.7204    0.0000 C   0  0  0  0  0  0  0  0  0  0  0  0
    0.5958   -8.6121    0.0000 C   0  0  0  0  0  0  0  0  0  0  0  0
    5.6872   -9.5870    0.0000 C   0  0  0  0  0  0  0  0  0  0  0  0
    2.6540   -9.0996    0.0000 C   0  0  0  0  0  0  0  0  0  0  0  0
    1.5707   -9.5870    0.0000 C   0  0  0  0  0  0  0  0  0  0  0  0
    3.5207   -9.2079    0.0000 C   0  0  0  0  0  0  0  0  0  0  0  0
    0.7042   -9.4787    0.0000 C   0  0  0  0  0  0  0  0  0  0  0  0
    4.9831  -10.0204    0.0000 C   0  0  0  0  0  0  0  0  0  0  0  0
  1  3  2  0  0  0  0
  1  4  2  0  0  0  0
  1 13  1  0  0  0  0
  1 21  1  0  0  0  0
  2 20  2  0  0  0  0
  5 22  2  0  0  0  0
  6 29  1  0  0  0  0
  6 34  1  0  0  0  0
  7 30  2  0  0  0  0
  8 36  1  0  0  0  0
  8 50  1  0  0  0  0
  9 43  1  0  0  0  0
  9 51  1  0  0  0  0
 10 43  2  0  0  0  0
 11 60  1  0  0  0  0
 17 12  1  1  0  0  0
 12 22  1  0  0  0  0
 13 20  1  0  0  0  0
 14 26  1  0  0  0  0
 14 30  1  0  0  0  0
 14 31  1  0  0  0  0
 15 34  1  0  0  0  0
 15 39  2  0  0  0  0
 16 32  1  0  0  0  0
 16 43  1  0  0  0  0
 17 18  1  0  0  0  0
 17 19  1  0  0  0  0
 17 20  1  6  0  0  0
 18 19  1  0  0  0  0
 18 23  1  6  0  0  0
 21 24  1  0  0  0  0
 21 25  1  0  0  0  0
 21 27  1  0  0  0  0
 26 22  1  6  0  0  0
 23 33  2  0  0  0  0
 24 25  1  0  0  0  0
 26 28  1  0  0  0  0
 29 28  1  1  0  0  0
 29 31  1  0  0  0  0
 30 32  1  0  0  0  0
 32 37  1  1  0  0  0
 34 35  2  0  0  0  0
 35 36  1  0  0  0  0
 35 40  1  0  0  0  0
 36 38  2  0  0  0  0
 37 44  1  0  0  0  0
 37 45  1  0  0  0  0
 37 46  1  0  0  0  0
 38 39  1  0  0  0  0
 38 41  1  0  0  0  0
 39 42  1  0  0  0  0
 40 49  1  0  0  0  0
 41 47  2  0  0  0  0
 42 48  2  0  0  0  0
 47 48  1  0  0  0  0
 49 53  2  0  0  0  0
 50 55  1  0  0  0  0
 51 52  1  0  0  0  0
 51 54  1  1  0  0  0
 52 56  1  0  0  0  0
 52 57  1  6  0  0  0
 53 58  1  0  0  0  0
 54 59  1  0  0  0  0
 55 60  1  0  0  0  0
 56 58  1  0  0  0  0
 57 59  1  0  0  0  0
M  END
> <PUBCHEM_COMPOUND_ID_TYPE>
0

> <PUBCHEM_TOTAL_CHARGE>
0

> <PUBCHEM_SUBSTANCE_ID>
310929315

> <PUBCHEM_SUBSTANCE_VERSION>
1

> <PUBCHEM_EXT_DATASOURCE_NAME>
4488

> <PUBCHEM_EXT_DATASOURCE_REGID>
SCHEMBL16106481

> <PUBCHEM_SUBSTANCE_COMMENT>
InChI=1S/C44H59N5O10S/c1-6-28-25-44(28,40(53)48-60(55,56)43(5)20-21-43)47-37(51)33-24-29-26-49(33)39(52)36(42(2,3)4)46-41(54)59-34-19-12-15-27(34)14-8-7-9-17-31-35(57-23-13-22-50)30-16-10-11-18-32(30)45-38(31)58-29/h6-7,9-11,16,18,27-29,33-34,36,50H,1,8,12-15,17,19-26H2,2-5H3,(H,46,54)(H,47,51)(H,48,53)/b9-7+/t27-,28-,29-,33+,34-,36-,44-/m1/s1
InChIKey=MAWZDWFGBPDOHR-ABLUXKADSA-N

> <PUBCHEM_SUBSTANCE_SYNONYM>
SCHEMBL16106481

> <PUBCHEM_XREF_EXT_ID>
SCHEMBL16106481

> <PUBCHEM_EXT_DATASOURCE_URL>
https://www.surechembl.org/

> <PUBCHEM_EXT_SUBSTANCE_URL>
https://www.surechembl.org/chemical/SCHEMBL16106481

> <PUBCHEM_CID_ASSOCIATIONS>
117598715  1

> <PUBCHEM_COORDINATE_TYPE>
1
3

> <PUBCHEM_BONDANNOTATIONS>
17  12  5
17  20  6
18  23  6
26  22  6
29  28  5
32  37  5
51  54  5
52  57  6

$$$$
