310931898
  -OEChem-07211613022D

 30 33  0     0  0  0  0  0  0999 V2000
   -3.0686    0.7300    0.0000 O   0  0  0  0  0  0  0  0  0  0  0  0
    0.7145    2.0625    0.0000 O   0  0  0  0  0  0  0  0  0  0  0  0
    4.2869    2.4750    0.0000 O   0  0  0  0  0  0  0  0  0  0  0  0
   -2.1434   -0.4125    0.0000 N   0  0  0  0  0  0  0  0  0  0  0  0
   -2.2297   -1.2330    0.0000 N   0  0  0  0  0  0  0  0  0  0  0  0
   -1.4290    0.8250    0.0000 N   0  0  0  0  0  0  0  0  0  0  0  0
    1.4290    0.8250    0.0000 N   0  0  0  0  0  0  0  0  0  0  0  0
   -7.5517   -0.2589    0.0000 N   0  0  0  0  0  0  0  0  0  0  0  0
   -2.8972   -0.0770    0.0000 C   0  0  0  0  0  0  0  0  0  0  0  0
   -3.4492   -0.6901    0.0000 C   0  0  0  0  0  0  0  0  0  0  0  0
   -1.4290    0.0000    0.0000 C   0  0  0  0  0  0  0  0  0  0  0  0
   -4.2697   -0.6038    0.0000 C   0  0  0  0  0  0  0  0  0  0  0  0
   -3.0367   -1.4045    0.0000 C   0  0  0  0  0  0  0  0  0  0  0  0
   -0.7145   -0.4125    0.0000 C   0  0  0  0  0  0  0  0  0  0  0  0
    0.0000    0.8250    0.0000 C   0  0  0  0  0  0  0  0  0  0  0  0
   -0.7145    1.2375    0.0000 C   0  0  0  0  0  0  0  0  0  0  0  0
    0.0000    0.0000    0.0000 C   0  0  0  0  0  0  0  0  0  0  0  0
   -4.6052    0.1499    0.0000 C   0  0  0  0  0  0  0  0  0  0  0  0
   -4.7546   -1.2713    0.0000 C   0  0  0  0  0  0  0  0  0  0  0  0
    0.7145    1.2375    0.0000 C   0  0  0  0  0  0  0  0  0  0  0  0
   -5.9106   -0.4314    0.0000 C   0  0  0  0  0  0  0  0  0  0  0  0
   -5.4257    0.2361    0.0000 C   0  0  0  0  0  0  0  0  0  0  0  0
   -5.5751   -1.1850    0.0000 C   0  0  0  0  0  0  0  0  0  0  0  0
    2.1434    1.2375    0.0000 C   0  0  0  0  0  0  0  0  0  0  0  0
    2.1434    2.0625    0.0000 C   0  0  0  0  0  0  0  0  0  0  0  0
    2.8579    0.8250    0.0000 C   0  0  0  0  0  0  0  0  0  0  0  0
   -6.7312   -0.3451    0.0000 C   0  0  0  0  0  0  0  0  0  0  0  0
    3.5724    2.0625    0.0000 C   0  0  0  0  0  0  0  0  0  0  0  0
    2.8579    2.4750    0.0000 C   0  0  0  0  0  0  0  0  0  0  0  0
    3.5724    1.2375    0.0000 C   0  0  0  0  0  0  0  0  0  0  0  0
  1  9  1  0  0  0  0
  2 20  2  0  0  0  0
 28  3  1  6  0  0  0
  4  5  1  0  0  0  0
  4  9  1  0  0  0  0
  4 11  1  0  0  0  0
  5 13  2  0  0  0  0
  6 11  2  0  0  0  0
  6 16  1  0  0  0  0
  7 20  1  0  0  0  0
 24  7  1  1  0  0  0
  8 27  3  0  0  0  0
  9 10  2  0  0  0  0
 10 12  1  0  0  0  0
 10 13  1  0  0  0  0
 11 14  1  0  0  0  0
 12 18  2  0  0  0  0
 12 19  1  0  0  0  0
 14 17  2  0  0  0  0
 15 16  2  0  0  0  0
 15 17  1  0  0  0  0
 15 20  1  0  0  0  0
 18 22  1  0  0  0  0
 19 23  2  0  0  0  0
 21 22  2  0  0  0  0
 21 23  1  0  0  0  0
 21 27  1  0  0  0  0
 24 25  1  0  0  0  0
 24 26  1  0  0  0  0
 25 29  1  0  0  0  0
 26 30  1  0  0  0  0
 28 29  1  0  0  0  0
 28 30  1  0  0  0  0
M  END
> <PUBCHEM_COMPOUND_ID_TYPE>
0

> <PUBCHEM_TOTAL_CHARGE>
0

> <PUBCHEM_SUBSTANCE_ID>
310931898

> <PUBCHEM_SUBSTANCE_VERSION>
1

> <PUBCHEM_EXT_DATASOURCE_NAME>
4488

> <PUBCHEM_EXT_DATASOURCE_REGID>
SCHEMBL16109233

> <PUBCHEM_SUBSTANCE_COMMENT>
InChI=1S/C22H21N5O3/c23-11-14-1-3-15(4-2-14)19-13-25-27(22(19)30)20-10-5-16(12-24-20)21(29)26-17-6-8-18(28)9-7-17/h1-5,10,12-13,17-18,28,30H,6-9H2,(H,26,29)/t17-,18-
InChIKey=JDNLXARAMYSXND-IYARVYRRSA-N

> <PUBCHEM_SUBSTANCE_SYNONYM>
SCHEMBL16109233

> <PUBCHEM_XREF_EXT_ID>
SCHEMBL16109233

> <PUBCHEM_EXT_DATASOURCE_URL>
https://www.surechembl.org/

> <PUBCHEM_EXT_SUBSTANCE_URL>
https://www.surechembl.org/chemical/SCHEMBL16109233

> <PUBCHEM_CID_ASSOCIATIONS>
117600554  1

> <PUBCHEM_COORDINATE_TYPE>
1
3

> <PUBCHEM_BONDANNOTATIONS>
28  3  6
24  7  5

$$$$
