310943932
  -OEChem-07211613022D

 29 32  0     1  0  0  0  0  0999 V2000
   -0.9744    0.5402    0.0000 O   0  0  0  0  0  0  0  0  0  0  0  0
   -0.9744    3.9506    0.0000 O   0  0  0  0  0  0  0  0  0  0  0  0
   -2.4572   -4.4166    0.0000 O   0  0  0  0  0  0  0  0  0  0  0  0
   -1.7158    2.6796    0.0000 N   0  0  0  0  0  0  0  0  0  0  0  0
   -1.7370    1.8323    0.0000 N   0  0  0  0  0  0  0  0  0  0  0  0
   -1.7370   -2.4042    0.0000 N   0  0  0  0  0  0  0  0  0  0  0  0
    0.4872    3.0820    0.0000 N   0  0  0  0  0  0  0  0  0  0  0  0
    2.7961    4.0776    0.0000 N   0  0  0  0  0  0  0  0  0  0  0  0
    2.6478    2.7431    0.0000 N   0  0  0  0  0  0  0  0  0  0  0  0
    3.1985    3.3574    0.0000 N   0  0  0  0  0  0  0  0  0  0  0  0
   -2.4148   -1.1332    0.0000 C   0  0  3  0  0  0  0  0  0  0  0  0
   -1.7581   -0.7732    0.0000 C   0  0  3  0  0  0  0  0  0  0  0  0
   -1.7158   -1.5569    0.0000 C   0  0  0  0  0  0  0  0  0  0  0  0
   -2.4783   -1.9382    0.0000 C   0  0  0  0  0  0  0  0  0  0  0  0
   -1.6946    0.1377    0.0000 C   0  0  0  0  0  0  0  0  0  0  0  0
   -0.9744    1.4298    0.0000 C   0  0  0  0  0  0  0  0  0  0  0  0
   -0.2330    2.7220    0.0000 C   0  0  0  0  0  0  0  0  0  0  0  0
   -0.9956    3.1244    0.0000 C   0  0  0  0  0  0  0  0  0  0  0  0
   -0.2542    1.8323    0.0000 C   0  0  0  0  0  0  0  0  0  0  0  0
   -3.1562   -2.3407    0.0000 C   0  0  0  0  0  0  0  0  0  0  0  0
   -2.4572   -3.5904    0.0000 C   0  0  0  0  0  0  0  0  0  0  0  0
   -1.7581   -3.1880    0.0000 C   0  0  0  0  0  0  0  0  0  0  0  0
   -3.1774   -3.1880    0.0000 C   0  0  0  0  0  0  0  0  0  0  0  0
    1.8853    3.1244    0.0000 C   0  0  0  0  0  0  0  0  0  0  0  0
    1.2074    2.7220    0.0000 C   0  0  0  0  0  0  0  0  0  0  0  0
    1.9912    3.9293    0.0000 C   0  0  0  0  0  0  0  0  0  0  0  0
   -2.4572    3.1244    0.0000 C   0  0  0  0  0  0  0  0  0  0  0  0
    3.1985    4.8402    0.0000 C   0  0  0  0  0  0  0  0  0  0  0  0
   -3.1985   -4.8402    0.0000 C   0  0  0  0  0  0  0  0  0  0  0  0
  1 15  1  0  0  0  0
  1 16  1  0  0  0  0
  2 18  2  0  0  0  0
  3 21  1  0  0  0  0
  3 29  1  0  0  0  0
  4  5  1  0  0  0  0
  4 18  1  0  0  0  0
  4 27  1  0  0  0  0
  5 16  2  0  0  0  0
  6 14  1  0  0  0  0
  6 22  2  0  0  0  0
  7 17  1  0  0  0  0
  7 25  1  0  0  0  0
  8 10  1  0  0  0  0
  8 26  1  0  0  0  0
  8 28  1  0  0  0  0
  9 10  2  0  0  0  0
  9 24  1  0  0  0  0
 11 12  1  0  0  0  0
 11 13  1  1  0  0  0
 11 14  1  0  0  0  0
 12 13  1  0  0  0  0
 12 15  1  1  0  0  0
 14 20  2  0  0  0  0
 16 19  1  0  0  0  0
 17 18  1  0  0  0  0
 17 19  2  0  0  0  0
 20 23  1  0  0  0  0
 21 22  1  0  0  0  0
 21 23  2  0  0  0  0
 24 25  1  0  0  0  0
 24 26  2  0  0  0  0
M  END
> <PUBCHEM_COMPOUND_ID_TYPE>
0

> <PUBCHEM_TOTAL_CHARGE>
0

> <PUBCHEM_SUBSTANCE_ID>
310943932

> <PUBCHEM_SUBSTANCE_VERSION>
1

> <PUBCHEM_EXT_DATASOURCE_NAME>
4488

> <PUBCHEM_EXT_DATASOURCE_REGID>
SCHEMBL16122003

> <PUBCHEM_SUBSTANCE_COMMENT>
InChI=1S/C19H23N7O3/c1-25-10-13(22-24-25)8-20-17-7-18(23-26(2)19(17)27)29-11-12-6-15(12)16-5-4-14(28-3)9-21-16/h4-5,7,9-10,12,15,20H,6,8,11H2,1-3H3/t12-,15+/m1/s1
InChIKey=JTVMQVONUKUOSW-DOMZBBRYSA-N

> <PUBCHEM_SUBSTANCE_SYNONYM>
SCHEMBL16122003

> <PUBCHEM_XREF_EXT_ID>
SCHEMBL16122003

> <PUBCHEM_EXT_DATASOURCE_URL>
https://www.surechembl.org/

> <PUBCHEM_EXT_SUBSTANCE_URL>
https://www.surechembl.org/chemical/SCHEMBL16122003

> <PUBCHEM_CID_ASSOCIATIONS>
117610241  1

> <PUBCHEM_COORDINATE_TYPE>
1
3

> <PUBCHEM_BONDANNOTATIONS>
11  13  5
12  15  5

$$$$
