310948178
  -OEChem-07211613022D

 43 48  0     0  0  0  0  0  0999 V2000
    3.4051   -2.0139    0.0000 S   0  0  0  0  0  0  0  0  0  0  0  0
    3.5345    0.5905    0.0000 F   0  0  0  0  0  0  0  0  0  0  0  0
    3.8742    1.6419    0.0000 F   0  0  0  0  0  0  0  0  0  0  0  0
   -3.9228   -0.3640    0.0000 F   0  0  0  0  0  0  0  0  0  0  0  0
   -3.0007    0.9949    0.0000 F   0  0  0  0  0  0  0  0  0  0  0  0
   -1.5286    0.9302    0.0000 O   0  0  0  0  0  0  0  0  0  0  0  0
    2.4507    0.8331    0.0000 O   0  0  0  0  0  0  0  0  0  0  0  0
    2.8713    2.0948    0.0000 O   0  0  0  0  0  0  0  0  0  0  0  0
    2.7095   -2.4183    0.0000 O   0  0  0  0  0  0  0  0  0  0  0  0
    3.8257   -2.7257    0.0000 O   0  0  0  0  0  0  0  0  0  0  0  0
   -0.9787    2.1595    0.0000 N   0  0  0  0  0  0  0  0  0  0  0  0
   -2.0139   -1.2537    0.0000 N   0  0  0  0  0  0  0  0  0  0  0  0
   -2.7904   -0.9949    0.0000 N   0  0  0  0  0  0  0  0  0  0  0  0
   -0.2992    0.1375    0.0000 C   0  0  0  0  0  0  0  0  0  0  0  0
   -0.7198    0.8493    0.0000 C   0  0  0  0  0  0  0  0  0  0  0  0
   -0.3801    1.6095    0.0000 C   0  0  0  0  0  0  0  0  0  0  0  0
   -0.7036   -0.5905    0.0000 C   0  0  0  0  0  0  0  0  0  0  0  0
   -1.5286   -0.5743    0.0000 C   0  0  0  0  0  0  0  0  0  0  0  0
    0.4287    1.7713    0.0000 C   0  0  0  0  0  0  0  0  0  0  0  0
    1.7713    1.3346    0.0000 C   0  0  0  0  0  0  0  0  0  0  0  0
    0.5258    0.1375    0.0000 C   0  0  0  0  0  0  0  0  0  0  0  0
    2.0463    2.1110    0.0000 C   0  0  0  0  0  0  0  0  0  0  0  0
    0.9463   -0.5743    0.0000 C   0  0  0  0  0  0  0  0  0  0  0  0
    1.0110    1.1566    0.0000 C   0  0  0  0  0  0  0  0  0  0  0  0
   -1.6904    1.7390    0.0000 C   0  0  0  0  0  0  0  0  0  0  0  0
   -2.7742   -0.1537    0.0000 C   0  0  0  0  0  0  0  0  0  0  0  0
   -0.2831   -1.2860    0.0000 C   0  0  0  0  0  0  0  0  0  0  0  0
    3.1301    1.3184    0.0000 C   0  0  0  0  0  0  0  0  0  0  0  0
   -2.0139    0.0890    0.0000 C   0  0  0  0  0  0  0  0  0  0  0  0
    0.7036    2.5478    0.0000 C   0  0  0  0  0  0  0  0  0  0  0  0
    0.5419   -1.2860    0.0000 C   0  0  0  0  0  0  0  0  0  0  0  0
    1.7875   -0.5743    0.0000 C   0  0  0  0  0  0  0  0  0  0  0  0
    1.4963    2.7257    0.0000 C   0  0  0  0  0  0  0  0  0  0  0  0
   -3.4537    0.3316    0.0000 C   0  0  0  0  0  0  0  0  0  0  0  0
    2.1919   -1.2698    0.0000 C   0  0  0  0  0  0  0  0  0  0  0  0
    3.0169   -1.2860    0.0000 C   0  0  0  0  0  0  0  0  0  0  0  0
    2.1919    0.1375    0.0000 C   0  0  0  0  0  0  0  0  0  0  0  0
   -1.7066   -2.0463    0.0000 C   0  0  0  0  0  0  0  0  0  0  0  0
   -2.4507    2.1110    0.0000 C   0  0  0  0  0  0  0  0  0  0  0  0
    3.4213   -0.5905    0.0000 C   0  0  0  0  0  0  0  0  0  0  0  0
   -4.1654    0.7684    0.0000 C   0  0  0  0  0  0  0  0  0  0  0  0
    3.0007    0.1375    0.0000 C   0  0  0  0  0  0  0  0  0  0  0  0
    4.1654   -1.5610    0.0000 C   0  0  0  0  0  0  0  0  0  0  0  0
  1  9  2  0  0  0  0
  1 10  2  0  0  0  0
  1 36  1  0  0  0  0
  1 43  1  0  0  0  0
  2 28  1  0  0  0  0
  3 28  1  0  0  0  0
  4 34  1  0  0  0  0
  5 34  1  0  0  0  0
  6 15  1  0  0  0  0
  6 25  1  0  0  0  0
  7 20  1  0  0  0  0
  7 28  1  0  0  0  0
  8 22  1  0  0  0  0
  8 28  1  0  0  0  0
 11 16  1  0  0  0  0
 11 25  2  0  0  0  0
 12 13  1  0  0  0  0
 12 18  1  0  0  0  0
 12 38  1  0  0  0  0
 13 26  2  0  0  0  0
 14 15  1  0  0  0  0
 14 17  1  0  0  0  0
 14 21  2  0  0  0  0
 15 16  2  0  0  0  0
 16 19  1  0  0  0  0
 17 18  1  0  0  0  0
 17 27  2  0  0  0  0
 18 29  2  0  0  0  0
 19 24  1  0  0  0  0
 19 30  2  0  0  0  0
 20 22  1  0  0  0  0
 20 24  2  0  0  0  0
 21 23  1  0  0  0  0
 22 33  2  0  0  0  0
 23 31  2  0  0  0  0
 23 32  1  0  0  0  0
 25 39  1  0  0  0  0
 26 29  1  0  0  0  0
 26 34  1  0  0  0  0
 27 31  1  0  0  0  0
 30 33  1  0  0  0  0
 32 35  2  0  0  0  0
 32 37  1  0  0  0  0
 34 41  1  0  0  0  0
 35 36  1  0  0  0  0
 36 40  2  0  0  0  0
 37 42  2  0  0  0  0
 40 42  1  0  0  0  0
M  END
> <PUBCHEM_COMPOUND_ID_TYPE>
0

> <PUBCHEM_TOTAL_CHARGE>
0

> <PUBCHEM_SUBSTANCE_ID>
310948178

> <PUBCHEM_SUBSTANCE_VERSION>
1

> <PUBCHEM_EXT_DATASOURCE_NAME>
4488

> <PUBCHEM_EXT_DATASOURCE_REGID>
SCHEMBL16126355

> <PUBCHEM_SUBSTANCE_COMMENT>
InChI=1S/C30H23F4N3O5S/c1-16-35-27(19-9-11-24-25(14-19)42-30(33,34)41-24)28(40-16)22-13-18(17-6-5-7-20(12-17)43(4,38)39)8-10-21(22)23-15-26(29(2,31)32)36-37(23)3/h5-15H,1-4H3
InChIKey=QRFDDKPBRNXYSF-UHFFFAOYSA-N

> <PUBCHEM_SUBSTANCE_SYNONYM>
SCHEMBL16126355

> <PUBCHEM_XREF_EXT_ID>
SCHEMBL16126355

> <PUBCHEM_EXT_DATASOURCE_URL>
https://www.surechembl.org/

> <PUBCHEM_EXT_SUBSTANCE_URL>
https://www.surechembl.org/chemical/SCHEMBL16126355

> <PUBCHEM_CID_ASSOCIATIONS>
86276083  1

> <PUBCHEM_COORDINATE_TYPE>
1
3

$$$$
