310946888
  -OEChem-07211613022D

 38 41  0     0  0  0  0  0  0999 V2000
    3.1796   -4.0005    0.0000 F   0  0  0  0  0  0  0  0  0  0  0  0
   -0.6295   -2.2314    0.0000 O   0  0  0  0  0  0  0  0  0  0  0  0
   -1.2192    2.7732    0.0000 O   0  0  0  0  0  0  0  0  0  0  0  0
   -0.4542    4.0005    0.0000 O   0  0  0  0  0  0  0  0  0  0  0  0
    0.8687    0.0956    0.0000 N   0  0  0  0  0  0  0  0  0  0  0  0
    1.3627   -0.5897    0.0000 N   0  0  0  0  0  0  0  0  0  0  0  0
    1.0918   -2.0242    0.0000 N   0  0  0  0  0  0  0  0  0  0  0  0
   -1.3468   -0.9722    0.0000 N   0  0  0  0  0  0  0  0  0  0  0  0
    0.5180    2.4226    0.0000 N   0  0  0  0  0  0  0  0  0  0  0  0
    3.3071    1.2751    0.0000 N   0  0  0  0  0  0  0  0  0  0  0  0
    3.4984   -2.5979    0.0000 N   0  0  0  0  0  0  0  0  0  0  0  0
    1.1236    0.8926    0.0000 C   0  0  0  0  0  0  0  0  0  0  0  0
    0.0876   -0.1435    0.0000 C   0  0  0  0  0  0  0  0  0  0  0  0
    0.0717   -0.9722    0.0000 C   0  0  0  0  0  0  0  0  0  0  0  0
    0.8527   -1.2431    0.0000 C   0  0  0  0  0  0  0  0  0  0  0  0
   -0.6295   -1.3866    0.0000 C   0  0  0  0  0  0  0  0  0  0  0  0
    0.3108    1.0200    0.0000 C   0  0  0  0  0  0  0  0  0  0  0  0
    1.6336    1.5301    0.0000 C   0  0  0  0  0  0  0  0  0  0  0  0
   -0.6455    0.2709    0.0000 C   0  0  0  0  0  0  0  0  0  0  0  0
    1.8727    0.4941    0.0000 C   0  0  0  0  0  0  0  0  0  0  0  0
   -1.3308   -0.1275    0.0000 C   0  0  0  0  0  0  0  0  0  0  0  0
    0.0080    1.7532    0.0000 C   0  0  0  0  0  0  0  0  0  0  0  0
    1.3308    2.3110    0.0000 C   0  0  0  0  0  0  0  0  0  0  0  0
    1.8887   -2.2314    0.0000 C   0  0  0  0  0  0  0  0  0  0  0  0
   -0.4542    3.2036    0.0000 C   0  0  0  0  0  0  0  0  0  0  0  0
    2.5740    0.8926    0.0000 C   0  0  0  0  0  0  0  0  0  0  0  0
    2.1277   -3.0123    0.0000 C   0  0  0  0  0  0  0  0  0  0  0  0
    2.4784   -1.6097    0.0000 C   0  0  0  0  0  0  0  0  0  0  0  0
   -1.3468   -2.6139    0.0000 C   0  0  0  0  0  0  0  0  0  0  0  0
    2.9405   -3.2195    0.0000 C   0  0  0  0  0  0  0  0  0  0  0  0
   -1.2352    1.9126    0.0000 C   0  0  0  0  0  0  0  0  0  0  0  0
    3.2753   -1.8169    0.0000 C   0  0  0  0  0  0  0  0  0  0  0  0
   -2.0481   -2.1835    0.0000 C   0  0  0  0  0  0  0  0  0  0  0  0
   -2.0002    1.8807    0.0000 C   0  0  0  0  0  0  0  0  0  0  0  0
   -0.4542    1.9126    0.0000 C   0  0  0  0  0  0  0  0  0  0  0  0
   -1.2192    1.0679    0.0000 C   0  0  0  0  0  0  0  0  0  0  0  0
   -2.7812   -2.5979    0.0000 C   0  0  0  0  0  0  0  0  0  0  0  0
   -3.4984   -2.1676    0.0000 C   0  0  0  0  0  0  0  0  0  0  0  0
  1 30  1  0  0  0  0
  2 16  1  0  0  0  0
  2 29  1  0  0  0  0
  3 25  1  0  0  0  0
  3 31  1  0  0  0  0
  4 25  2  0  0  0  0
  5  6  1  0  0  0  0
  5 12  1  0  0  0  0
  5 13  1  0  0  0  0
  6 15  2  0  0  0  0
  7 15  1  0  0  0  0
  7 24  1  0  0  0  0
  8 16  2  0  0  0  0
  8 21  1  0  0  0  0
  9 22  1  0  0  0  0
  9 23  1  0  0  0  0
  9 25  1  0  0  0  0
 10 26  3  0  0  0  0
 11 30  2  0  0  0  0
 11 32  1  0  0  0  0
 12 17  1  0  0  0  0
 12 18  1  0  0  0  0
 12 20  1  0  0  0  0
 13 14  2  0  0  0  0
 13 19  1  0  0  0  0
 14 15  1  0  0  0  0
 14 16  1  0  0  0  0
 17 22  1  0  0  0  0
 18 23  1  0  0  0  0
 19 21  2  0  0  0  0
 20 26  1  0  0  0  0
 24 27  2  0  0  0  0
 24 28  1  0  0  0  0
 27 30  1  0  0  0  0
 28 32  2  0  0  0  0
 29 33  1  0  0  0  0
 31 34  1  0  0  0  0
 31 35  1  0  0  0  0
 31 36  1  0  0  0  0
 33 37  1  0  0  0  0
 37 38  1  0  0  0  0
M  END
> <PUBCHEM_COMPOUND_ID_TYPE>
0

> <PUBCHEM_TOTAL_CHARGE>
0

> <PUBCHEM_SUBSTANCE_ID>
310946888

> <PUBCHEM_SUBSTANCE_VERSION>
1

> <PUBCHEM_EXT_DATASOURCE_NAME>
4488

> <PUBCHEM_EXT_DATASOURCE_REGID>
SCHEMBL16125012

> <PUBCHEM_SUBSTANCE_COMMENT>
InChI=1S/C27H34FN7O3/c1-5-6-17-37-24-22-20(8-14-31-24)35(33-23(22)32-19-7-13-30-21(28)18-19)27(9-12-29)10-15-34(16-11-27)25(36)38-26(2,3)4/h7-8,13-14,18H,5-6,9-11,15-17H2,1-4H3,(H,30,32,33)
InChIKey=QFVRSQZGHHIMHL-UHFFFAOYSA-N

> <PUBCHEM_SUBSTANCE_SYNONYM>
SCHEMBL16125012

> <PUBCHEM_XREF_EXT_ID>
SCHEMBL16125012

> <PUBCHEM_EXT_DATASOURCE_URL>
https://www.surechembl.org/

> <PUBCHEM_EXT_SUBSTANCE_URL>
https://www.surechembl.org/chemical/SCHEMBL16125012

> <PUBCHEM_CID_ASSOCIATIONS>
117612746  1

> <PUBCHEM_COORDINATE_TYPE>
1
3

$$$$
