310931959
  -OEChem-07211613022D

 25 27  0     0  0  0  0  0  0999 V2000
    0.6974   -4.9818    0.0000 Br  0  0  0  0  0  0  0  0  0  0  0  0
    0.6974   -1.6440    0.0000 O   0  0  0  0  0  0  0  0  0  0  0  0
    6.4515   -4.1598    0.0000 O   0  0  0  0  0  0  0  0  0  0  0  0
    2.8646   -2.9144    0.0000 N   0  0  0  0  0  0  0  0  0  0  0  0
    1.4198   -2.9144    0.0000 C   0  0  0  0  0  0  0  0  0  0  0  0
    2.1422   -2.4909    0.0000 C   0  0  0  0  0  0  0  0  0  0  0  0
    2.1422   -1.6689    0.0000 C   0  0  0  0  0  0  0  0  0  0  0  0
    0.6974   -2.4909    0.0000 C   0  0  0  0  0  0  0  0  0  0  0  0
    1.4198   -3.7364    0.0000 C   0  0  0  0  0  0  0  0  0  0  0  0
    0.6974   -4.1598    0.0000 C   0  0  0  0  0  0  0  0  0  0  0  0
    0.0000   -2.9144    0.0000 C   0  0  0  0  0  0  0  0  0  0  0  0
    1.4198   -1.2205    0.0000 C   0  0  0  0  0  0  0  0  0  0  0  0
    2.8646   -1.2455    0.0000 C   0  0  0  0  0  0  0  0  0  0  0  0
    0.0000   -3.7364    0.0000 C   0  0  0  0  0  0  0  0  0  0  0  0
    3.5869   -2.4909    0.0000 C   0  0  0  0  0  0  0  0  0  0  0  0
    4.3093   -2.9144    0.0000 C   0  0  0  0  0  0  0  0  0  0  0  0
    4.3093   -3.7364    0.0000 C   0  0  0  0  0  0  0  0  0  0  0  0
    5.0316   -2.4909    0.0000 C   0  0  0  0  0  0  0  0  0  0  0  0
    1.4198   -0.3986    0.0000 C   0  0  0  0  0  0  0  0  0  0  0  0
    2.8646   -0.4235    0.0000 C   0  0  0  0  0  0  0  0  0  0  0  0
    5.7291   -3.7364    0.0000 C   0  0  0  0  0  0  0  0  0  0  0  0
    5.0067   -4.1598    0.0000 C   0  0  0  0  0  0  0  0  0  0  0  0
    5.7540   -2.9144    0.0000 C   0  0  0  0  0  0  0  0  0  0  0  0
    2.1422    0.0000    0.0000 C   0  0  0  0  0  0  0  0  0  0  0  0
    7.1738   -3.7613    0.0000 C   0  0  0  0  0  0  0  0  0  0  0  0
  1 10  1  0  0  0  0
  2  8  1  0  0  0  0
  3 21  1  0  0  0  0
  3 25  1  0  0  0  0
  4  6  2  0  0  0  0
  4 15  1  0  0  0  0
  5  6  1  0  0  0  0
  5  8  2  0  0  0  0
  5  9  1  0  0  0  0
  6  7  1  0  0  0  0
  7 12  2  0  0  0  0
  7 13  1  0  0  0  0
  8 11  1  0  0  0  0
  9 10  2  0  0  0  0
 10 14  1  0  0  0  0
 11 14  2  0  0  0  0
 12 19  1  0  0  0  0
 13 20  2  0  0  0  0
 15 16  1  0  0  0  0
 16 17  2  0  0  0  0
 16 18  1  0  0  0  0
 17 22  1  0  0  0  0
 18 23  2  0  0  0  0
 19 24  2  0  0  0  0
 20 24  1  0  0  0  0
 21 22  2  0  0  0  0
 21 23  1  0  0  0  0
M  END
> <PUBCHEM_COMPOUND_ID_TYPE>
0

> <PUBCHEM_TOTAL_CHARGE>
0

> <PUBCHEM_SUBSTANCE_ID>
310931959

> <PUBCHEM_SUBSTANCE_VERSION>
1

> <PUBCHEM_EXT_DATASOURCE_NAME>
4488

> <PUBCHEM_EXT_DATASOURCE_REGID>
SCHEMBL16109296

> <PUBCHEM_SUBSTANCE_COMMENT>
InChI=1S/C21H18BrNO2/c1-25-18-10-7-15(8-11-18)14-23-21(16-5-3-2-4-6-16)19-13-17(22)9-12-20(19)24/h2-13,24H,14H2,1H3/b23-21+
InChIKey=BVPGBMOUHXMJON-XTQSDGFTSA-N

> <PUBCHEM_SUBSTANCE_SYNONYM>
SCHEMBL16109296

> <PUBCHEM_XREF_EXT_ID>
SCHEMBL16109296

> <PUBCHEM_EXT_DATASOURCE_URL>
https://www.surechembl.org/

> <PUBCHEM_EXT_SUBSTANCE_URL>
https://www.surechembl.org/chemical/SCHEMBL16109296

> <PUBCHEM_CID_ASSOCIATIONS>
117600608  1

> <PUBCHEM_COORDINATE_TYPE>
1
3

$$$$
