310947876
  -OEChem-07211613022D

 30 33  0     0  0  0  0  0  0999 V2000
   -1.0305   -2.5913    0.0000 O   0  0  0  0  0  0  0  0  0  0  0  0
    0.3984   -2.5913    0.0000 O   0  0  0  0  0  0  0  0  0  0  0  0
    0.3984    2.3587    0.0000 N   0  0  0  0  0  0  0  0  0  0  0  0
    2.4249    3.2852    0.0000 N   0  0  0  0  0  0  0  0  0  0  0  0
   -0.3160    0.2962    0.0000 N   0  0  0  0  0  0  0  0  0  0  0  0
   -0.3160   -1.3538    0.0000 N   0  0  0  0  0  0  0  0  0  0  0  0
    1.0659    2.8436    0.0000 C   0  0  0  0  0  0  0  0  0  0  0  0
    0.8109    3.6282    0.0000 C   0  0  0  0  0  0  0  0  0  0  0  0
   -0.2690    2.8436    0.0000 C   0  0  0  0  0  0  0  0  0  0  0  0
   -0.0141    3.6282    0.0000 C   0  0  0  0  0  0  0  0  0  0  0  0
    1.8729    2.6721    0.0000 C   0  0  0  0  0  0  0  0  0  0  0  0
   -1.0760    2.6721    0.0000 C   0  0  0  0  0  0  0  0  0  0  0  0
    1.3630    4.2413    0.0000 C   0  0  0  0  0  0  0  0  0  0  0  0
   -0.5661    4.2413    0.0000 C   0  0  0  0  0  0  0  0  0  0  0  0
    0.3984    1.5337    0.0000 C   0  0  0  0  0  0  0  0  0  0  0  0
   -1.6280    3.2852    0.0000 C   0  0  0  0  0  0  0  0  0  0  0  0
   -1.3731    4.0698    0.0000 C   0  0  0  0  0  0  0  0  0  0  0  0
    2.1699    4.0698    0.0000 C   0  0  0  0  0  0  0  0  0  0  0  0
   -0.3160    1.1212    0.0000 C   0  0  0  0  0  0  0  0  0  0  0  0
    2.0864    1.8752    0.0000 C   0  0  0  0  0  0  0  0  0  0  0  0
   -1.0305   -0.1163    0.0000 C   0  0  0  0  0  0  0  0  0  0  0  0
    0.3984   -0.1163    0.0000 C   0  0  0  0  0  0  0  0  0  0  0  0
   -2.4249    3.0716    0.0000 C   0  0  0  0  0  0  0  0  0  0  0  0
   -0.3160   -2.1788    0.0000 C   0  0  0  0  0  0  0  0  0  0  0  0
   -1.0305   -0.9413    0.0000 C   0  0  0  0  0  0  0  0  0  0  0  0
    0.3984   -0.9413    0.0000 C   0  0  0  0  0  0  0  0  0  0  0  0
   -1.0305   -3.4163    0.0000 C   0  0  0  0  0  0  0  0  0  0  0  0
   -1.0305   -4.2413    0.0000 C   0  0  0  0  0  0  0  0  0  0  0  0
   -0.3160   -3.8288    0.0000 C   0  0  0  0  0  0  0  0  0  0  0  0
   -1.7450   -3.8288    0.0000 C   0  0  0  0  0  0  0  0  0  0  0  0
  1 24  1  0  0  0  0
  1 27  1  0  0  0  0
  2 24  2  0  0  0  0
  3  7  1  0  0  0  0
  3  9  1  0  0  0  0
  3 15  1  0  0  0  0
  4 11  2  0  0  0  0
  4 18  1  0  0  0  0
  5 19  1  0  0  0  0
  5 21  1  0  0  0  0
  5 22  1  0  0  0  0
  6 24  1  0  0  0  0
  6 25  1  0  0  0  0
  6 26  1  0  0  0  0
  7  8  2  0  0  0  0
  7 11  1  0  0  0  0
  8 10  1  0  0  0  0
  8 13  1  0  0  0  0
  9 10  1  0  0  0  0
  9 12  2  0  0  0  0
 10 14  2  0  0  0  0
 11 20  1  0  0  0  0
 12 16  1  0  0  0  0
 13 18  2  0  0  0  0
 14 17  1  0  0  0  0
 15 19  1  0  0  0  0
 16 17  2  0  0  0  0
 16 23  1  0  0  0  0
 21 25  1  0  0  0  0
 22 26  1  0  0  0  0
 27 28  1  0  0  0  0
 27 29  1  0  0  0  0
 27 30  1  0  0  0  0
M  END
> <PUBCHEM_COMPOUND_ID_TYPE>
0

> <PUBCHEM_TOTAL_CHARGE>
0

> <PUBCHEM_SUBSTANCE_ID>
310947876

> <PUBCHEM_SUBSTANCE_VERSION>
1

> <PUBCHEM_EXT_DATASOURCE_NAME>
4488

> <PUBCHEM_EXT_DATASOURCE_REGID>
SCHEMBL16126050

> <PUBCHEM_SUBSTANCE_COMMENT>
InChI=1S/C24H32N4O2/c1-17-6-7-19-20-8-9-25-18(2)22(20)28(21(19)16-17)15-12-26-10-13-27(14-11-26)23(29)30-24(3,4)5/h6-9,16H,10-15H2,1-5H3
InChIKey=GPVNEWLPALNOGH-UHFFFAOYSA-N

> <PUBCHEM_SUBSTANCE_SYNONYM>
SCHEMBL16126050

> <PUBCHEM_XREF_EXT_ID>
SCHEMBL16126050

> <PUBCHEM_EXT_DATASOURCE_URL>
https://www.surechembl.org/

> <PUBCHEM_EXT_SUBSTANCE_URL>
https://www.surechembl.org/chemical/SCHEMBL16126050

> <PUBCHEM_CID_ASSOCIATIONS>
117613540  1

> <PUBCHEM_COORDINATE_TYPE>
1
3

$$$$
