310931584
  -OEChem-07211613022D

 33 37  0     1  0  0  0  0  0999 V2000
    3.2597   -8.5783    0.0000 Cl  0  0  0  0  0  0  0  0  0  0  0  0
    5.7046   -7.2058    0.0000 F   0  0  0  0  0  0  0  0  0  0  0  0
    4.8896   -5.7475    0.0000 O   0  0  0  0  0  0  0  0  0  0  0  0
    1.5441   -5.7046    0.0000 O   0  0  0  0  0  0  0  0  0  0  0  0
    2.0588   -3.5600    0.0000 O   0  0  0  0  0  0  0  0  0  0  0  0
    2.7879   -5.0183    0.0000 N   0  0  0  0  0  0  0  0  0  0  0  0
    4.4607   -7.8491    0.0000 N   0  0  0  0  0  0  0  0  0  0  0  0
    3.3026   -2.8737    0.0000 N   0  0  0  0  0  0  0  0  0  0  0  0
    1.5870   -4.2891    0.0000 N   0  0  0  0  0  0  0  0  0  0  0  0
    1.2438   -2.1446    0.0000 N   0  0  0  0  0  0  0  0  0  0  0  0
    0.0000    0.0000    0.0000 N   0  0  0  0  0  0  0  0  0  0  0  0
    3.2597   -5.7046    0.0000 C   0  0  3  0  0  0  0  0  0  0  0  0
    3.6458   -6.4337    0.0000 C   0  0  0  0  0  0  0  0  0  0  0  0
    3.6886   -5.0183    0.0000 C   0  0  0  0  0  0  0  0  0  0  0  0
    4.4607   -6.4766    0.0000 C   0  0  0  0  0  0  0  0  0  0  0  0
    4.5036   -5.0183    0.0000 C   0  0  0  0  0  0  0  0  0  0  0  0
    2.7879   -6.4337    0.0000 C   0  0  0  0  0  0  0  0  0  0  0  0
    3.2169   -7.2058    0.0000 C   0  0  0  0  0  0  0  0  0  0  0  0
    4.8896   -7.2058    0.0000 C   0  0  0  0  0  0  0  0  0  0  0  0
    3.2597   -4.2891    0.0000 C   0  0  0  0  0  0  0  0  0  0  0  0
    4.9325   -4.2891    0.0000 C   0  0  0  0  0  0  0  0  0  0  0  0
    2.0159   -5.0183    0.0000 C   0  0  0  0  0  0  0  0  0  0  0  0
    3.6886   -3.6029    0.0000 C   0  0  0  0  0  0  0  0  0  0  0  0
    3.6458   -7.8491    0.0000 C   0  0  0  0  0  0  0  0  0  0  0  0
    1.9730   -6.4337    0.0000 C   0  0  0  0  0  0  0  0  0  0  0  0
    4.5036   -3.6029    0.0000 C   0  0  0  0  0  0  0  0  0  0  0  0
    2.4448   -2.8737    0.0000 C   0  0  0  0  0  0  0  0  0  0  0  0
    2.0588   -2.1446    0.0000 C   0  0  0  0  0  0  0  0  0  0  0  0
    2.4877   -1.4583    0.0000 C   0  0  0  0  0  0  0  0  0  0  0  0
    1.2438   -0.7291    0.0000 C   0  0  0  0  0  0  0  0  0  0  0  0
    0.8149   -1.4583    0.0000 C   0  0  0  0  0  0  0  0  0  0  0  0
    2.0588   -0.7291    0.0000 C   0  0  0  0  0  0  0  0  0  0  0  0
    0.8578    0.0000    0.0000 C   0  0  0  0  0  0  0  0  0  0  0  0
  1 24  1  0  0  0  0
  2 19  1  0  0  0  0
  3 15  1  0  0  0  0
  3 16  1  0  0  0  0
  4 22  1  0  0  0  0
  4 25  1  0  0  0  0
  5 27  2  0  0  0  0
 12  6  1  1  0  0  0
  6 22  2  0  0  0  0
  7 19  1  0  0  0  0
  7 24  2  0  0  0  0
  8 23  1  0  0  0  0
  8 27  1  0  0  0  0
  9 22  1  0  0  0  0
 10 28  1  0  0  0  0
 10 31  2  0  0  0  0
 11 33  3  0  0  0  0
 12 13  1  0  0  0  0
 12 14  1  0  0  0  0
 12 17  1  0  0  0  0
 13 15  1  0  0  0  0
 13 18  2  0  0  0  0
 14 16  2  0  0  0  0
 14 20  1  0  0  0  0
 15 19  2  0  0  0  0
 16 21  1  0  0  0  0
 17 25  1  0  0  0  0
 18 24  1  0  0  0  0
 20 23  2  0  0  0  0
 21 26  2  0  0  0  0
 23 26  1  0  0  0  0
 27 28  1  0  0  0  0
 28 29  2  0  0  0  0
 29 32  1  0  0  0  0
 30 31  1  0  0  0  0
 30 32  2  0  0  0  0
 30 33  1  0  0  0  0
M  END
> <PUBCHEM_COMPOUND_ID_TYPE>
0

> <PUBCHEM_TOTAL_CHARGE>
0

> <PUBCHEM_SUBSTANCE_ID>
310931584

> <PUBCHEM_SUBSTANCE_VERSION>
1

> <PUBCHEM_EXT_DATASOURCE_NAME>
4488

> <PUBCHEM_EXT_DATASOURCE_REGID>
SCHEMBL16108910

> <PUBCHEM_SUBSTANCE_COMMENT>
InChI=1S/C22H14ClFN6O3/c23-17-8-14-18(19(24)29-17)33-16-4-2-12(7-13(16)22(14)5-6-32-21(26)30-22)28-20(31)15-3-1-11(9-25)10-27-15/h1-4,7-8,10H,5-6H2,(H2,26,30)(H,28,31)/t22-/m0/s1
InChIKey=JFXAHGIBCYXVRC-QFIPXVFZSA-N

> <PUBCHEM_SUBSTANCE_SYNONYM>
SCHEMBL16108910

> <PUBCHEM_XREF_EXT_ID>
SCHEMBL16108910

> <PUBCHEM_EXT_DATASOURCE_URL>
https://www.surechembl.org/

> <PUBCHEM_EXT_SUBSTANCE_URL>
https://www.surechembl.org/chemical/SCHEMBL16108910

> <PUBCHEM_CID_ASSOCIATIONS>
71542225  1

> <PUBCHEM_COORDINATE_TYPE>
1
3

> <PUBCHEM_BONDANNOTATIONS>
12  6  5

$$$$
