310936676
  -OEChem-07211613022D

 15 16  0     0  0  0  0  0  0999 V2000
    1.4396    0.0000    0.0000 O   0  0  0  0  0  0  0  0  0  0  0  0
    1.4396   -5.7585    0.0000 O   0  0  0  0  0  0  0  0  0  0  0  0
    2.1306   -4.5204    0.0000 O   0  0  0  0  0  0  0  0  0  0  0  0
    0.0000   -2.4474    0.0000 N   0  0  0  0  0  0  0  0  0  0  0  0
    1.4396   -2.4474    0.0000 C   0  0  0  0  0  0  0  0  0  0  0  0
    0.7198   -2.0443    0.0000 C   0  0  0  0  0  0  0  0  0  0  0  0
    0.6910   -3.6855    0.0000 C   0  0  0  0  0  0  0  0  0  0  0  0
    1.4396   -3.2823    0.0000 C   0  0  0  0  0  0  0  0  0  0  0  0
    0.7198   -1.2381    0.0000 C   0  0  0  0  0  0  0  0  0  0  0  0
    2.1306   -2.0731    0.0000 C   0  0  0  0  0  0  0  0  0  0  0  0
    0.0000   -3.2823    0.0000 C   0  0  0  0  0  0  0  0  0  0  0  0
    1.4396   -0.8350    0.0000 C   0  0  0  0  0  0  0  0  0  0  0  0
    2.1306   -1.2381    0.0000 C   0  0  0  0  0  0  0  0  0  0  0  0
    0.6910   -4.5204    0.0000 C   0  0  0  0  0  0  0  0  0  0  0  0
    1.4396   -4.9235    0.0000 C   0  0  0  0  0  0  0  0  0  0  0  0
  1 12  1  0  0  0  0
  2 15  2  0  0  0  0
  3 15  1  0  0  0  0
  4  6  2  0  0  0  0
  4 11  1  0  0  0  0
  5  6  1  0  0  0  0
  5  8  2  0  0  0  0
  5 10  1  0  0  0  0
  6  9  1  0  0  0  0
  7  8  1  0  0  0  0
  7 11  2  0  0  0  0
  7 14  1  0  0  0  0
  9 12  2  0  0  0  0
 10 13  2  0  0  0  0
 12 13  1  0  0  0  0
 14 15  1  0  0  0  0
M  END
> <PUBCHEM_COMPOUND_ID_TYPE>
0

> <PUBCHEM_TOTAL_CHARGE>
0

> <PUBCHEM_SUBSTANCE_ID>
310936676

> <PUBCHEM_SUBSTANCE_VERSION>
1

> <PUBCHEM_EXT_DATASOURCE_NAME>
4488

> <PUBCHEM_EXT_DATASOURCE_REGID>
SCHEMBL16114349

> <PUBCHEM_SUBSTANCE_COMMENT>
InChI=1S/C11H9NO3/c13-9-2-1-8-3-7(4-11(14)15)6-12-10(8)5-9/h1-3,5-6,13H,4H2,(H,14,15)
InChIKey=PMUCWOBEUPZYGW-UHFFFAOYSA-N

> <PUBCHEM_SUBSTANCE_SYNONYM>
SCHEMBL16114349

> <PUBCHEM_XREF_EXT_ID>
SCHEMBL16114349

> <PUBCHEM_EXT_DATASOURCE_URL>
https://www.surechembl.org/

> <PUBCHEM_EXT_SUBSTANCE_URL>
https://www.surechembl.org/chemical/SCHEMBL16114349

> <PUBCHEM_CID_ASSOCIATIONS>
115022778  1

> <PUBCHEM_COORDINATE_TYPE>
1
3

$$$$
