310945362
  -OEChem-07211613022D

 30 34  0     0  0  0  0  0  0999 V2000
   -3.0520   -1.9144    0.0000 F   0  0  0  0  0  0  0  0  0  0  0  0
    3.9398    1.5075    0.0000 O   0  0  0  0  0  0  0  0  0  0  0  0
   -4.3836    0.6936    0.0000 O   0  0  0  0  0  0  0  0  0  0  0  0
    1.9606   -0.4347    0.0000 N   0  0  0  0  0  0  0  0  0  0  0  0
   -0.7583    1.0821    0.0000 N   0  0  0  0  0  0  0  0  0  0  0  0
    4.3836    0.1572    0.0000 N   0  0  0  0  0  0  0  0  0  0  0  0
   -3.4033   -0.3052    0.0000 N   0  0  0  0  0  0  0  0  0  0  0  0
    1.6277    0.3237    0.0000 C   0  0  0  0  0  0  0  0  0  0  0  0
    2.2381    0.8786    0.0000 C   0  0  0  0  0  0  0  0  0  0  0  0
    2.9780    0.4532    0.0000 C   0  0  0  0  0  0  0  0  0  0  0  0
    0.8508    0.5827    0.0000 C   0  0  0  0  0  0  0  0  0  0  0  0
    2.7930   -0.3422    0.0000 C   0  0  0  0  0  0  0  0  0  0  0  0
    0.6658    1.3780    0.0000 C   0  0  0  0  0  0  0  0  0  0  0  0
    3.7363    0.6936    0.0000 C   0  0  0  0  0  0  0  0  0  0  0  0
    2.0716    1.6554    0.0000 C   0  0  0  0  0  0  0  0  0  0  0  0
    0.2220    0.0278    0.0000 C   0  0  0  0  0  0  0  0  0  0  0  0
   -0.5919    0.2867    0.0000 C   0  0  0  0  0  0  0  0  0  0  0  0
    1.2763    1.9144    0.0000 C   0  0  0  0  0  0  0  0  0  0  0  0
    3.4404   -0.8971    0.0000 C   0  0  0  0  0  0  0  0  0  0  0  0
   -0.1295    1.6185    0.0000 C   0  0  0  0  0  0  0  0  0  0  0  0
   -1.2023   -0.3052    0.0000 C   0  0  0  0  0  0  0  0  0  0  0  0
    4.2172   -0.6566    0.0000 C   0  0  0  0  0  0  0  0  0  0  0  0
   -1.9790   -0.0463    0.0000 C   0  0  0  0  0  0  0  0  0  0  0  0
   -2.6081   -0.5642    0.0000 C   0  0  0  0  0  0  0  0  0  0  0  0
   -1.0358   -1.0821    0.0000 C   0  0  0  0  0  0  0  0  0  0  0  0
   -2.4416   -1.3780    0.0000 C   0  0  0  0  0  0  0  0  0  0  0  0
   -1.6277   -1.6185    0.0000 C   0  0  0  0  0  0  0  0  0  0  0  0
   -3.5698    0.4717    0.0000 C   0  0  0  0  0  0  0  0  0  0  0  0
   -2.9964    1.0451    0.0000 C   0  0  0  0  0  0  0  0  0  0  0  0
   -3.2739    1.8588    0.0000 C   0  0  0  0  0  0  0  0  0  0  0  0
  1 26  1  0  0  0  0
  2 14  2  0  0  0  0
  3 28  2  0  0  0  0
  4  8  1  0  0  0  0
  4 12  1  0  0  0  0
  5 17  2  0  0  0  0
  5 20  1  0  0  0  0
  6 14  1  0  0  0  0
  6 22  1  0  0  0  0
  7 24  1  0  0  0  0
  7 28  1  0  0  0  0
  8  9  2  0  0  0  0
  8 11  1  0  0  0  0
  9 10  1  0  0  0  0
  9 15  1  0  0  0  0
 10 12  2  0  0  0  0
 10 14  1  0  0  0  0
 11 13  1  0  0  0  0
 11 16  2  0  0  0  0
 12 19  1  0  0  0  0
 13 18  1  0  0  0  0
 13 20  2  0  0  0  0
 15 18  1  0  0  0  0
 16 17  1  0  0  0  0
 17 21  1  0  0  0  0
 19 22  1  0  0  0  0
 21 23  2  0  0  0  0
 21 25  1  0  0  0  0
 23 24  1  0  0  0  0
 24 26  2  0  0  0  0
 25 27  2  0  0  0  0
 26 27  1  0  0  0  0
 28 29  1  0  0  0  0
 29 30  2  0  0  0  0
M  END
> <PUBCHEM_COMPOUND_ID_TYPE>
0

> <PUBCHEM_TOTAL_CHARGE>
0

> <PUBCHEM_SUBSTANCE_ID>
310945362

> <PUBCHEM_SUBSTANCE_VERSION>
1

> <PUBCHEM_EXT_DATASOURCE_NAME>
4488

> <PUBCHEM_EXT_DATASOURCE_REGID>
SCHEMBL16123460

> <PUBCHEM_SUBSTANCE_COMMENT>
InChI=1S/C23H19FN4O2/c1-2-20(29)27-19-9-12(4-6-16(19)24)18-10-15-13(11-26-18)3-5-14-21-17(28-22(14)15)7-8-25-23(21)30/h2,4,6,9-11,28H,1,3,5,7-8H2,(H,25,30)(H,27,29)
InChIKey=YEYWIHYWNKGREK-UHFFFAOYSA-N

> <PUBCHEM_SUBSTANCE_SYNONYM>
SCHEMBL16123460

> <PUBCHEM_XREF_EXT_ID>
SCHEMBL16123460

> <PUBCHEM_EXT_DATASOURCE_URL>
https://www.surechembl.org/

> <PUBCHEM_EXT_SUBSTANCE_URL>
https://www.surechembl.org/chemical/SCHEMBL16123460

> <PUBCHEM_CID_ASSOCIATIONS>
86300169  1

> <PUBCHEM_COORDINATE_TYPE>
1
3

$$$$
