310946321
  -OEChem-07211613022D

 24 25  0     1  0  0  0  0  0999 V2000
   -1.2558   13.9187    0.0000 I   0  0  0  0  0  0  0  0  0  0  0  0
    0.1731   16.3937    0.0000 I   0  0  0  0  0  0  0  0  0  0  0  0
   -1.2558   15.5687    0.0000 O   0  0  0  0  0  0  0  0  0  0  0  0
   -4.1137   13.9187    0.0000 O   0  0  0  0  0  0  0  0  0  0  0  0
    3.7455   14.3312    0.0000 O   0  0  0  0  0  0  0  0  0  0  0  0
    3.0310   16.3937    0.0000 O   0  0  0  0  0  0  0  0  0  0  0  0
    2.3165   15.1562    0.0000 N   0  0  0  0  0  0  0  0  0  0  0  0
   -0.5413   15.1562    0.0000 C   0  0  0  0  0  0  0  0  0  0  0  0
   -0.5413   14.3312    0.0000 C   0  0  0  0  0  0  0  0  0  0  0  0
    0.1731   15.5687    0.0000 C   0  0  0  0  0  0  0  0  0  0  0  0
    0.8876   14.3312    0.0000 C   0  0  0  0  0  0  0  0  0  0  0  0
    0.1731   13.9187    0.0000 C   0  0  0  0  0  0  0  0  0  0  0  0
    0.8876   15.1562    0.0000 C   0  0  0  0  0  0  0  0  0  0  0  0
   -1.9703   15.1562    0.0000 C   0  0  0  0  0  0  0  0  0  0  0  0
    1.6021   13.9187    0.0000 C   0  0  0  0  0  0  0  0  0  0  0  0
    2.3165   14.3312    0.0000 C   0  0  3  0  0  0  0  0  0  0  0  0
   -2.6847   15.5687    0.0000 C   0  0  0  0  0  0  0  0  0  0  0  0
   -1.9703   14.3312    0.0000 C   0  0  0  0  0  0  0  0  0  0  0  0
   -3.3992   14.3312    0.0000 C   0  0  0  0  0  0  0  0  0  0  0  0
   -3.3992   15.1562    0.0000 C   0  0  0  0  0  0  0  0  0  0  0  0
   -2.6847   13.9187    0.0000 C   0  0  0  0  0  0  0  0  0  0  0  0
    3.0310   13.9187    0.0000 C   0  0  0  0  0  0  0  0  0  0  0  0
    3.0310   15.5687    0.0000 C   0  0  0  0  0  0  0  0  0  0  0  0
    3.7455   15.1562    0.0000 C   0  0  0  0  0  0  0  0  0  0  0  0
  1  9  1  0  0  0  0
  2 10  1  0  0  0  0
  3  8  1  0  0  0  0
  3 14  1  0  0  0  0
  4 19  1  0  0  0  0
  5 22  1  0  0  0  0
  6 23  2  0  0  0  0
 16  7  1  6  0  0  0
  7 23  1  0  0  0  0
  8  9  2  0  0  0  0
  8 10  1  0  0  0  0
  9 12  1  0  0  0  0
 10 13  2  0  0  0  0
 11 12  2  0  0  0  0
 11 13  1  0  0  0  0
 11 15  1  0  0  0  0
 14 17  2  0  0  0  0
 14 18  1  0  0  0  0
 15 16  1  0  0  0  0
 16 22  1  0  0  0  0
 17 20  1  0  0  0  0
 18 21  2  0  0  0  0
 19 20  2  0  0  0  0
 19 21  1  0  0  0  0
 23 24  1  0  0  0  0
M  END
> <PUBCHEM_COMPOUND_ID_TYPE>
0

> <PUBCHEM_TOTAL_CHARGE>
0

> <PUBCHEM_SUBSTANCE_ID>
310946321

> <PUBCHEM_SUBSTANCE_VERSION>
1

> <PUBCHEM_EXT_DATASOURCE_NAME>
4488

> <PUBCHEM_EXT_DATASOURCE_REGID>
SCHEMBL16124440

> <PUBCHEM_SUBSTANCE_COMMENT>
InChI=1S/C17H17I2NO4/c1-10(22)20-12(9-21)6-11-7-15(18)17(16(19)8-11)24-14-4-2-13(23)3-5-14/h2-5,7-8,12,21,23H,6,9H2,1H3,(H,20,22)/t12-/m0/s1
InChIKey=KVALZQMAVYLNPJ-LBPRGKRZSA-N

> <PUBCHEM_SUBSTANCE_SYNONYM>
SCHEMBL16124440

> <PUBCHEM_XREF_EXT_ID>
SCHEMBL16124440

> <PUBCHEM_EXT_DATASOURCE_URL>
https://www.surechembl.org/

> <PUBCHEM_EXT_SUBSTANCE_URL>
https://www.surechembl.org/chemical/SCHEMBL16124440

> <PUBCHEM_CID_ASSOCIATIONS>
71487363  1

> <PUBCHEM_COORDINATE_TYPE>
1
3

> <PUBCHEM_BONDANNOTATIONS>
16  7  6

$$$$
