310933752
  -OEChem-07211613022D

 20 20  0     0  0  0  0  0  0999 V2000
    1.4682    0.0770    0.0000 O   0  0  0  0  0  0  0  0  0  0  0  0
    0.7145    0.4125    0.0000 C   0  0  0  0  0  0  0  0  0  0  0  0
    0.8007    1.2330    0.0000 C   0  0  0  0  0  0  0  0  0  0  0  0
    0.0000    0.0000    0.0000 C   0  0  0  0  0  0  0  0  0  0  0  0
    2.0202    0.6901    0.0000 C   0  0  0  0  0  0  0  0  0  0  0  0
    1.6077    1.4045    0.0000 C   0  0  0  0  0  0  0  0  0  0  0  0
   -0.7145    0.4125    0.0000 C   0  0  0  0  0  0  0  0  0  0  0  0
   -1.4290    0.0000    0.0000 C   0  0  0  0  0  0  0  0  0  0  0  0
   -2.1435    0.4125    0.0000 C   0  0  0  0  0  0  0  0  0  0  0  0
   -2.8579    0.0000    0.0000 C   0  0  0  0  0  0  0  0  0  0  0  0
   -3.5724    0.4125    0.0000 C   0  0  0  0  0  0  0  0  0  0  0  0
   -4.2869    0.0000    0.0000 C   0  0  0  0  0  0  0  0  0  0  0  0
   -5.0014    0.4125    0.0000 C   0  0  0  0  0  0  0  0  0  0  0  0
   -5.8264    0.4125    0.0000 C   0  0  0  0  0  0  0  0  0  0  0  0
   -6.5409    0.0000    0.0000 C   0  0  0  0  0  0  0  0  0  0  0  0
   -7.2554    0.4125    0.0000 C   0  0  0  0  0  0  0  0  0  0  0  0
   -7.9699    0.0000    0.0000 C   0  0  0  0  0  0  0  0  0  0  0  0
   -8.6844    0.4125    0.0000 C   0  0  0  0  0  0  0  0  0  0  0  0
   -9.3988    0.0000    0.0000 C   0  0  0  0  0  0  0  0  0  0  0  0
  -10.1134    0.4125    0.0000 C   0  0  0  0  0  0  0  0  0  0  0  0
  1  2  1  0  0  0  0
  1  5  1  0  0  0  0
  2  3  2  0  0  0  0
  2  4  1  0  0  0  0
  3  6  1  0  0  0  0
  4  7  1  0  0  0  0
  5  6  2  0  0  0  0
  7  8  1  0  0  0  0
  8  9  1  0  0  0  0
  9 10  1  0  0  0  0
 10 11  1  0  0  0  0
 11 12  1  0  0  0  0
 12 13  1  0  0  0  0
 13 14  2  0  0  0  0
 14 15  1  0  0  0  0
 15 16  1  0  0  0  0
 16 17  1  0  0  0  0
 17 18  1  0  0  0  0
 18 19  1  0  0  0  0
 19 20  1  0  0  0  0
M  END
> <PUBCHEM_COMPOUND_ID_TYPE>
0

> <PUBCHEM_TOTAL_CHARGE>
0

> <PUBCHEM_SUBSTANCE_ID>
310933752

> <PUBCHEM_SUBSTANCE_VERSION>
1

> <PUBCHEM_EXT_DATASOURCE_NAME>
4488

> <PUBCHEM_EXT_DATASOURCE_REGID>
SCHEMBL16111188

> <PUBCHEM_SUBSTANCE_COMMENT>
InChI=1S/C19H32O/c1-2-3-4-5-6-7-8-9-10-11-12-13-14-16-19-17-15-18-20-19/h7-8,15,17-18H,2-6,9-14,16H2,1H3/b8-7-
InChIKey=NYILRZNJAKBOOE-FPLPWBNLSA-N

> <PUBCHEM_SUBSTANCE_SYNONYM>
SCHEMBL16111188

> <PUBCHEM_XREF_EXT_ID>
SCHEMBL16111188

> <PUBCHEM_EXT_DATASOURCE_URL>
https://www.surechembl.org/

> <PUBCHEM_EXT_SUBSTANCE_URL>
https://www.surechembl.org/chemical/SCHEMBL16111188

> <PUBCHEM_CID_ASSOCIATIONS>
117602111  1

> <PUBCHEM_COORDINATE_TYPE>
1
3

$$$$
