310943267
  -OEChem-07211613022D

 35 38  0     0  0  0  0  0  0999 V2000
   -2.0669    2.0669    0.0000 Cl  0  0  0  0  0  0  0  0  0  0  0  0
   -3.9352   -0.8312    0.0000 O   0  0  0  0  0  0  0  0  0  0  0  0
    0.3604   -0.8312    0.0000 O   0  0  0  0  0  0  0  0  0  0  0  0
   -5.3621    1.6550    0.0000 O   0  0  0  0  0  0  0  0  0  0  0  0
   -3.9352    0.8312    0.0000 N   0  0  0  0  0  0  0  0  0  0  0  0
   -2.5082   -0.8312    0.0000 N   0  0  0  0  0  0  0  0  0  0  0  0
   -0.3604    2.0669    0.0000 N   0  0  0  0  0  0  0  0  0  0  0  0
    1.0665    0.4193    0.0000 N   0  0  0  0  0  0  0  0  0  0  0  0
    3.2143   -1.6550    0.0000 N   0  0  0  0  0  0  0  0  0  0  0  0
    5.3621   -1.2431    0.0000 N   0  0  0  0  0  0  0  0  0  0  0  0
   -1.7874    0.4193    0.0000 C   0  0  0  0  0  0  0  0  0  0  0  0
   -1.0813    0.8312    0.0000 C   0  0  0  0  0  0  0  0  0  0  0  0
   -3.2143    0.4193    0.0000 C   0  0  0  0  0  0  0  0  0  0  0  0
   -2.5082    0.8312    0.0000 C   0  0  0  0  0  0  0  0  0  0  0  0
   -3.2291   -0.4046    0.0000 C   0  0  0  0  0  0  0  0  0  0  0  0
   -1.0665    1.6550    0.0000 C   0  0  0  0  0  0  0  0  0  0  0  0
   -0.3604    0.4193    0.0000 C   0  0  0  0  0  0  0  0  0  0  0  0
    0.3457    0.8312    0.0000 C   0  0  0  0  0  0  0  0  0  0  0  0
   -1.8021   -0.4193    0.0000 C   0  0  0  0  0  0  0  0  0  0  0  0
    1.7874   -0.8165    0.0000 C   0  0  0  0  0  0  0  0  0  0  0  0
    3.2143   -0.8165    0.0000 C   0  0  0  0  0  0  0  0  0  0  0  0
    1.0813   -0.4046    0.0000 C   0  0  0  0  0  0  0  0  0  0  0  0
    3.9352   -0.4046    0.0000 C   0  0  0  0  0  0  0  0  0  0  0  0
    0.3604    1.6550    0.0000 C   0  0  0  0  0  0  0  0  0  0  0  0
    2.4788   -0.4193    0.0000 C   0  0  0  0  0  0  0  0  0  0  0  0
   -3.9352    1.6550    0.0000 C   0  0  0  0  0  0  0  0  0  0  0  0
   -4.6413    0.4193    0.0000 C   0  0  0  0  0  0  0  0  0  0  0  0
    1.7874   -1.6550    0.0000 C   0  0  0  0  0  0  0  0  0  0  0  0
    2.5082   -2.0669    0.0000 C   0  0  0  0  0  0  0  0  0  0  0  0
    4.6266   -0.8312    0.0000 C   0  0  0  0  0  0  0  0  0  0  0  0
   -4.6708    2.0669    0.0000 C   0  0  0  0  0  0  0  0  0  0  0  0
   -5.3621    0.8312    0.0000 C   0  0  0  0  0  0  0  0  0  0  0  0
    3.5086    0.3015    0.0000 C   0  0  0  0  0  0  0  0  0  0  0  0
    4.3324    0.3163    0.0000 C   0  0  0  0  0  0  0  0  0  0  0  0
   -3.9352   -1.6697    0.0000 C   0  0  0  0  0  0  0  0  0  0  0  0
  1 16  1  0  0  0  0
  2 15  1  0  0  0  0
  2 35  1  0  0  0  0
  3 22  2  0  0  0  0
  4 31  1  0  0  0  0
  4 32  1  0  0  0  0
  5 13  1  0  0  0  0
  5 26  1  0  0  0  0
  5 27  1  0  0  0  0
  6 15  2  0  0  0  0
  6 19  1  0  0  0  0
  7 16  1  0  0  0  0
  7 24  2  0  0  0  0
  8 18  1  0  0  0  0
  8 22  1  0  0  0  0
  9 21  1  0  0  0  0
  9 29  2  0  0  0  0
 10 30  3  0  0  0  0
 11 12  1  0  0  0  0
 11 14  1  0  0  0  0
 11 19  2  0  0  0  0
 12 16  2  0  0  0  0
 12 17  1  0  0  0  0
 13 14  2  0  0  0  0
 13 15  1  0  0  0  0
 17 18  2  0  0  0  0
 18 24  1  0  0  0  0
 20 22  1  0  0  0  0
 20 25  1  0  0  0  0
 20 28  2  0  0  0  0
 21 23  1  0  0  0  0
 21 25  2  0  0  0  0
 23 30  1  0  0  0  0
 23 33  1  0  0  0  0
 23 34  1  0  0  0  0
 26 31  1  0  0  0  0
 27 32  1  0  0  0  0
 28 29  1  0  0  0  0
M  END
> <PUBCHEM_COMPOUND_ID_TYPE>
0

> <PUBCHEM_TOTAL_CHARGE>
0

> <PUBCHEM_SUBSTANCE_ID>
310943267

> <PUBCHEM_SUBSTANCE_VERSION>
1

> <PUBCHEM_EXT_DATASOURCE_NAME>
4488

> <PUBCHEM_EXT_DATASOURCE_REGID>
SCHEMBL16121329

> <PUBCHEM_SUBSTANCE_COMMENT>
InChI=1S/C25H25ClN6O3/c1-25(2,15-27)21-11-16(4-5-28-21)23(33)31-18-12-19(22(26)29-14-18)17-10-20(24(34-3)30-13-17)32-6-8-35-9-7-32/h4-5,10-14H,6-9H2,1-3H3,(H,31,33)
InChIKey=YIMLFNGJFIUBFX-UHFFFAOYSA-N

> <PUBCHEM_SUBSTANCE_SYNONYM>
SCHEMBL16121329

> <PUBCHEM_XREF_EXT_ID>
SCHEMBL16121329

> <PUBCHEM_EXT_DATASOURCE_URL>
https://www.surechembl.org/

> <PUBCHEM_EXT_SUBSTANCE_URL>
https://www.surechembl.org/chemical/SCHEMBL16121329

> <PUBCHEM_CID_ASSOCIATIONS>
117609692  1

> <PUBCHEM_COORDINATE_TYPE>
1
3

$$$$
