310940603
  -OEChem-07211613022D

 24 26  0     0  0  0  0  0  0999 V2000
    1.0956    2.3523    0.0000 F   0  0  0  0  0  0  0  0  0  0  0  0
    1.4307    1.2824    0.0000 F   0  0  0  0  0  0  0  0  0  0  0  0
    0.3351    0.9603    0.0000 F   0  0  0  0  0  0  0  0  0  0  0  0
   -1.4436   -2.0557    0.0000 O   0  0  0  0  0  0  0  0  0  0  0  0
   -0.7218   -0.8185    0.0000 N   0  0  0  0  0  0  0  0  0  0  0  0
    0.7088   -3.2802    0.0000 N   0  0  0  0  0  0  0  0  0  0  0  0
    1.4436   -2.8678    0.0000 N   0  0  0  0  0  0  0  0  0  0  0  0
   -0.7347    1.6304    0.0000 C   0  0  0  0  0  0  0  0  0  0  0  0
   -0.0258    2.0815    0.0000 C   0  0  0  0  0  0  0  0  0  0  0  0
   -0.7347    0.8185    0.0000 C   0  0  0  0  0  0  0  0  0  0  0  0
    0.7088    1.6562    0.0000 C   0  0  0  0  0  0  0  0  0  0  0  0
   -0.7347   -1.6176    0.0000 C   0  0  0  0  0  0  0  0  0  0  0  0
   -0.0129    0.4188    0.0000 C   0  0  0  0  0  0  0  0  0  0  0  0
   -1.4436    0.3802    0.0000 C   0  0  0  0  0  0  0  0  0  0  0  0
   -1.4436    2.0687    0.0000 C   0  0  0  0  0  0  0  0  0  0  0  0
   -0.0258    2.8678    0.0000 C   0  0  0  0  0  0  0  0  0  0  0  0
   -0.0258   -0.3931    0.0000 C   0  0  0  0  0  0  0  0  0  0  0  0
   -1.4307   -0.4188    0.0000 C   0  0  0  0  0  0  0  0  0  0  0  0
   -0.0129   -2.0429    0.0000 C   0  0  0  0  0  0  0  0  0  0  0  0
   -1.4436    2.8678    0.0000 C   0  0  0  0  0  0  0  0  0  0  0  0
   -0.7218    3.2802    0.0000 C   0  0  0  0  0  0  0  0  0  0  0  0
   -0.0258   -2.8291    0.0000 C   0  0  0  0  0  0  0  0  0  0  0  0
    0.7088   -1.6304    0.0000 C   0  0  0  0  0  0  0  0  0  0  0  0
    1.4307   -2.0944    0.0000 C   0  0  0  0  0  0  0  0  0  0  0  0
  1 11  1  0  0  0  0
  2 11  1  0  0  0  0
  3 11  1  0  0  0  0
  4 12  2  0  0  0  0
  5 12  1  0  0  0  0
  5 17  1  0  0  0  0
  5 18  1  0  0  0  0
  6  7  2  0  0  0  0
  6 22  1  0  0  0  0
  7 24  1  0  0  0  0
  8  9  2  0  0  0  0
  8 10  1  0  0  0  0
  8 15  1  0  0  0  0
  9 11  1  0  0  0  0
  9 16  1  0  0  0  0
 10 13  1  0  0  0  0
 10 14  1  0  0  0  0
 12 19  1  0  0  0  0
 13 17  1  0  0  0  0
 14 18  1  0  0  0  0
 15 20  2  0  0  0  0
 16 21  2  0  0  0  0
 19 22  2  0  0  0  0
 19 23  1  0  0  0  0
 20 21  1  0  0  0  0
 23 24  2  0  0  0  0
M  END
> <PUBCHEM_COMPOUND_ID_TYPE>
0

> <PUBCHEM_TOTAL_CHARGE>
0

> <PUBCHEM_SUBSTANCE_ID>
310940603

> <PUBCHEM_SUBSTANCE_VERSION>
1

> <PUBCHEM_EXT_DATASOURCE_NAME>
4488

> <PUBCHEM_EXT_DATASOURCE_REGID>
SCHEMBL16118557

> <PUBCHEM_SUBSTANCE_COMMENT>
InChI=1S/C17H16F3N3O/c18-17(19,20)15-4-2-1-3-14(15)12-6-9-23(10-7-12)16(24)13-5-8-21-22-11-13/h1-5,8,11-12H,6-7,9-10H2
InChIKey=LOAFUMYZHVAOOY-UHFFFAOYSA-N

> <PUBCHEM_SUBSTANCE_SYNONYM>
SCHEMBL16118557

> <PUBCHEM_XREF_EXT_ID>
SCHEMBL16118557

> <PUBCHEM_EXT_DATASOURCE_URL>
https://www.surechembl.org/

> <PUBCHEM_EXT_SUBSTANCE_URL>
https://www.surechembl.org/chemical/SCHEMBL16118557

> <PUBCHEM_CID_ASSOCIATIONS>
117607590  1

> <PUBCHEM_COORDINATE_TYPE>
1
3

$$$$
