310944834
  -OEChem-07211613022D

 19 19  0     0  0  0  0  0  0999 V2000
    1.4850    0.5736    0.0000 O   0  0  0  0  0  0  0  0  0  0  0  0
   -0.3064   -1.1236    0.0000 O   0  0  0  0  0  0  0  0  0  0  0  0
    3.2922    0.0079    0.0000 O   0  0  0  0  0  0  0  0  0  0  0  0
   -0.9036    0.5893    0.0000 N   0  0  0  0  0  0  0  0  0  0  0  0
   -3.8894    0.3536    0.0000 N   0  0  0  0  0  0  0  0  0  0  0  0
    0.9979    0.1179    0.0000 C   0  0  0  0  0  0  0  0  0  0  0  0
    0.2750    0.5579    0.0000 C   0  0  0  0  0  0  0  0  0  0  0  0
   -0.3064    0.0393    0.0000 C   0  0  0  0  0  0  0  0  0  0  0  0
   -2.1294    0.5421    0.0000 C   0  0  0  0  0  0  0  0  0  0  0  0
   -1.5007    0.0079    0.0000 C   0  0  0  0  0  0  0  0  0  0  0  0
    1.0607   -0.9507    0.0000 C   0  0  0  0  0  0  0  0  0  0  0  0
    1.0450    0.9507    0.0000 C   0  0  0  0  0  0  0  0  0  0  0  0
   -2.6007   -0.2121    0.0000 C   0  0  0  0  0  0  0  0  0  0  0  0
   -2.8207    0.5893    0.0000 C   0  0  0  0  0  0  0  0  0  0  0  0
    2.0979    0.0079    0.0000 C   0  0  0  0  0  0  0  0  0  0  0  0
   -3.1822    0.3221    0.0000 C   0  0  0  0  0  0  0  0  0  0  0  0
   -3.4179    1.1236    0.0000 C   0  0  0  0  0  0  0  0  0  0  0  0
    2.6636    0.5579    0.0000 C   0  0  0  0  0  0  0  0  0  0  0  0
    3.8894    0.5736    0.0000 C   0  0  0  0  0  0  0  0  0  0  0  0
  1  6  1  0  0  0  0
  1 15  1  0  0  0  0
  2  8  2  0  0  0  0
  3 18  1  0  0  0  0
  3 19  1  0  0  0  0
  4  8  1  0  0  0  0
  4 10  1  0  0  0  0
  5 16  1  0  0  0  0
  5 17  1  0  0  0  0
  6  7  1  0  0  0  0
  6 11  1  0  0  0  0
  6 12  1  0  0  0  0
  7  8  1  0  0  0  0
  9 10  1  0  0  0  0
  9 13  1  0  0  0  0
  9 14  1  0  0  0  0
 13 16  1  0  0  0  0
 14 17  1  0  0  0  0
 15 18  1  0  0  0  0
M  END
> <PUBCHEM_COMPOUND_ID_TYPE>
0

> <PUBCHEM_TOTAL_CHARGE>
0

> <PUBCHEM_SUBSTANCE_ID>
310944834

> <PUBCHEM_SUBSTANCE_VERSION>
1

> <PUBCHEM_EXT_DATASOURCE_NAME>
4488

> <PUBCHEM_EXT_DATASOURCE_REGID>
SCHEMBL16122913

> <PUBCHEM_SUBSTANCE_COMMENT>
InChI=1S/C14H28N2O3/c1-14(2,19-9-8-18-3)10-13(17)16-11-12-4-6-15-7-5-12/h12,15H,4-11H2,1-3H3,(H,16,17)
InChIKey=WZLJYAAWGDOPPD-UHFFFAOYSA-N

> <PUBCHEM_SUBSTANCE_SYNONYM>
SCHEMBL16122913

> <PUBCHEM_XREF_EXT_ID>
SCHEMBL16122913

> <PUBCHEM_EXT_DATASOURCE_URL>
https://www.surechembl.org/

> <PUBCHEM_EXT_SUBSTANCE_URL>
https://www.surechembl.org/chemical/SCHEMBL16122913

> <PUBCHEM_CID_ASSOCIATIONS>
117611038  1

> <PUBCHEM_COORDINATE_TYPE>
1
3

$$$$
