310940911
  -OEChem-07211613022D

 11 11  0     0  0  0  0  0  0999 V2000
    2.1126    0.7501    0.0000 I   0  0  0  0  0  0  0  0  0  0  0  0
   -2.1126   -0.8326    0.0000 O   0  0  0  0  0  0  0  0  0  0  0  0
    1.4520   -0.4197    0.0000 O   0  0  0  0  0  0  0  0  0  0  0  0
    0.0344    0.4060    0.0000 N   0  0  0  0  0  0  0  0  0  0  0  0
    0.7363    0.8326    0.0000 C   0  0  0  0  0  0  0  0  0  0  0  0
   -0.7088    0.8326    0.0000 C   0  0  0  0  0  0  0  0  0  0  0  0
    0.0344   -0.3923    0.0000 C   0  0  0  0  0  0  0  0  0  0  0  0
   -1.4107   -0.3923    0.0000 C   0  0  0  0  0  0  0  0  0  0  0  0
   -1.3832    0.4335    0.0000 C   0  0  0  0  0  0  0  0  0  0  0  0
   -0.6675   -0.8052    0.0000 C   0  0  0  0  0  0  0  0  0  0  0  0
    1.4658    0.4473    0.0000 C   0  0  0  0  0  0  0  0  0  0  0  0
  1 11  1  0  0  0  0
  2  8  1  0  0  0  0
  3 11  2  0  0  0  0
  4  5  1  0  0  0  0
  4  6  1  0  0  0  0
  4  7  1  0  0  0  0
  5 11  1  0  0  0  0
  6  9  1  0  0  0  0
  7 10  1  0  0  0  0
  8  9  1  0  0  0  0
  8 10  1  0  0  0  0
M  END
> <PUBCHEM_COMPOUND_ID_TYPE>
0

> <PUBCHEM_TOTAL_CHARGE>
0

> <PUBCHEM_SUBSTANCE_ID>
310940911

> <PUBCHEM_SUBSTANCE_VERSION>
1

> <PUBCHEM_EXT_DATASOURCE_NAME>
4488

> <PUBCHEM_EXT_DATASOURCE_REGID>
SCHEMBL16118870

> <PUBCHEM_SUBSTANCE_COMMENT>
InChI=1S/C7H12INO2/c8-7(11)5-9-3-1-6(10)2-4-9/h6,10H,1-5H2
InChIKey=ABKSCXYNRNTZPX-UHFFFAOYSA-N

> <PUBCHEM_SUBSTANCE_SYNONYM>
SCHEMBL16118870

> <PUBCHEM_XREF_EXT_ID>
SCHEMBL16118870

> <PUBCHEM_EXT_DATASOURCE_URL>
https://www.surechembl.org/

> <PUBCHEM_EXT_SUBSTANCE_URL>
https://www.surechembl.org/chemical/SCHEMBL16118870

> <PUBCHEM_CID_ASSOCIATIONS>
117607820  1

> <PUBCHEM_COORDINATE_TYPE>
1
3

$$$$
