310932723
  -OEChem-07211613022D

 28 30  0     0  0  0  0  0  0999 V2000
    4.0788   -2.7631    0.0000 O   0  0  0  0  0  0  0  0  0  0  0  0
    8.5525   -2.8289    0.0000 O   0  0  0  0  0  0  0  0  0  0  0  0
    9.3090   -6.5788    0.0000 O   0  0  0  0  0  0  0  0  0  0  0  0
    4.9670   -1.6118    0.0000 N   0  0  0  0  0  0  0  0  0  0  0  0
    4.8683   -0.7566    0.0000 N   0  0  0  0  0  0  0  0  0  0  0  0
    6.4143   -1.6118    0.0000 N   0  0  0  0  0  0  0  0  0  0  0  0
    7.8617   -4.0788    0.0000 N   0  0  0  0  0  0  0  0  0  0  0  0
    0.0000   -2.4671    0.0000 N   0  0  0  0  0  0  0  0  0  0  0  0
    3.6513   -1.3157    0.0000 C   0  0  0  0  0  0  0  0  0  0  0  0
    4.2104   -1.9407    0.0000 C   0  0  0  0  0  0  0  0  0  0  0  0
    2.8289   -1.4144    0.0000 C   0  0  0  0  0  0  0  0  0  0  0  0
    5.6907   -2.0065    0.0000 C   0  0  0  0  0  0  0  0  0  0  0  0
    4.0788   -0.6250    0.0000 C   0  0  0  0  0  0  0  0  0  0  0  0
    2.3355   -0.7566    0.0000 C   0  0  0  0  0  0  0  0  0  0  0  0
    2.5000   -2.1710    0.0000 C   0  0  0  0  0  0  0  0  0  0  0  0
    5.6907   -2.8289    0.0000 C   0  0  0  0  0  0  0  0  0  0  0  0
    7.1380   -2.8289    0.0000 C   0  0  0  0  0  0  0  0  0  0  0  0
    1.5131   -0.8553    0.0000 C   0  0  0  0  0  0  0  0  0  0  0  0
    1.1842   -1.6118    0.0000 C   0  0  0  0  0  0  0  0  0  0  0  0
    7.1380   -2.0065    0.0000 C   0  0  0  0  0  0  0  0  0  0  0  0
    6.4143   -3.2565    0.0000 C   0  0  0  0  0  0  0  0  0  0  0  0
    1.6776   -2.2697    0.0000 C   0  0  0  0  0  0  0  0  0  0  0  0
    7.8617   -3.2565    0.0000 C   0  0  0  0  0  0  0  0  0  0  0  0
    2.6644    0.0000    0.0000 C   0  0  0  0  0  0  0  0  0  0  0  0
    0.3618   -1.7105    0.0000 C   0  0  0  0  0  0  0  0  0  0  0  0
    8.5854   -4.5065    0.0000 C   0  0  0  0  0  0  0  0  0  0  0  0
    8.5854   -5.3288    0.0000 C   0  0  0  0  0  0  0  0  0  0  0  0
    9.3090   -5.7236    0.0000 C   0  0  0  0  0  0  0  0  0  0  0  0
  1 10  1  0  0  0  0
  2 23  2  0  0  0  0
  3 28  1  0  0  0  0
  4  5  1  0  0  0  0
  4 10  1  0  0  0  0
  4 12  1  0  0  0  0
  5 13  2  0  0  0  0
  6 12  2  0  0  0  0
  6 20  1  0  0  0  0
  7 23  1  0  0  0  0
  7 26  1  0  0  0  0
  8 25  3  0  0  0  0
  9 10  2  0  0  0  0
  9 11  1  0  0  0  0
  9 13  1  0  0  0  0
 11 14  1  0  0  0  0
 11 15  2  0  0  0  0
 12 16  1  0  0  0  0
 14 18  2  0  0  0  0
 14 24  1  0  0  0  0
 15 22  1  0  0  0  0
 16 21  2  0  0  0  0
 17 20  2  0  0  0  0
 17 21  1  0  0  0  0
 17 23  1  0  0  0  0
 18 19  1  0  0  0  0
 19 22  2  0  0  0  0
 19 25  1  0  0  0  0
 26 27  1  0  0  0  0
 27 28  1  0  0  0  0
M  END
> <PUBCHEM_COMPOUND_ID_TYPE>
0

> <PUBCHEM_TOTAL_CHARGE>
0

> <PUBCHEM_SUBSTANCE_ID>
310932723

> <PUBCHEM_SUBSTANCE_VERSION>
1

> <PUBCHEM_EXT_DATASOURCE_NAME>
4488

> <PUBCHEM_EXT_DATASOURCE_REGID>
SCHEMBL16110107

> <PUBCHEM_SUBSTANCE_COMMENT>
InChI=1S/C20H19N5O3/c1-13-9-14(10-21)3-5-16(13)17-12-24-25(20(17)28)18-6-4-15(11-23-18)19(27)22-7-2-8-26/h3-6,9,11-12,26,28H,2,7-8H2,1H3,(H,22,27)
InChIKey=IWDYFLCBDNEVJL-UHFFFAOYSA-N

> <PUBCHEM_SUBSTANCE_SYNONYM>
SCHEMBL16110107

> <PUBCHEM_XREF_EXT_ID>
SCHEMBL16110107

> <PUBCHEM_EXT_DATASOURCE_URL>
https://www.surechembl.org/

> <PUBCHEM_EXT_SUBSTANCE_URL>
https://www.surechembl.org/chemical/SCHEMBL16110107

> <PUBCHEM_CID_ASSOCIATIONS>
117601230  1

> <PUBCHEM_COORDINATE_TYPE>
1
3

$$$$
