310941505
  -OEChem-07211613022D

 27 30  0     0  0  0  0  0  0999 V2000
   -3.3425   -1.7424    0.0000 Cl  0  0  0  0  0  0  0  0  0  0  0  0
    0.4445    1.7424    0.0000 S   0  0  0  0  0  0  0  0  0  0  0  0
   -1.8846   -0.9068    0.0000 O   0  0  0  0  0  0  0  0  0  0  0  0
   -0.4623   -0.9068    0.0000 O   0  0  0  0  0  0  0  0  0  0  0  0
    3.3248    0.7645    0.0000 O   0  0  0  0  0  0  0  0  0  0  0  0
    0.3023    0.4090    0.0000 N   0  0  0  0  0  0  0  0  0  0  0  0
    1.6713    0.9245    0.0000 N   0  0  0  0  0  0  0  0  0  0  0  0
    1.8669   -1.2446    0.0000 N   0  0  0  0  0  0  0  0  0  0  0  0
   -1.1735    0.3200    0.0000 C   0  0  0  0  0  0  0  0  0  0  0  0
   -0.4801    0.7290    0.0000 C   0  0  0  0  0  0  0  0  0  0  0  0
   -2.6136   -0.4978    0.0000 C   0  0  0  0  0  0  0  0  0  0  0  0
   -2.6136    0.3378    0.0000 C   0  0  0  0  0  0  0  0  0  0  0  0
   -1.2090   -0.4978    0.0000 C   0  0  0  0  0  0  0  0  0  0  0  0
   -1.9202    0.7112    0.0000 C   0  0  0  0  0  0  0  0  0  0  0  0
    0.8357    1.0312    0.0000 C   0  0  0  0  0  0  0  0  0  0  0  0
   -3.3248   -0.9068    0.0000 C   0  0  0  0  0  0  0  0  0  0  0  0
   -0.3556    1.5646    0.0000 C   0  0  0  0  0  0  0  0  0  0  0  0
    2.0091    0.1956    0.0000 C   0  0  0  0  0  0  0  0  0  0  0  0
   -3.3248    0.7112    0.0000 C   0  0  0  0  0  0  0  0  0  0  0  0
    2.8270    0.0711    0.0000 C   0  0  0  0  0  0  0  0  0  0  0  0
   -4.0182   -0.5156    0.0000 C   0  0  0  0  0  0  0  0  0  0  0  0
    3.1648   -0.6401    0.0000 C   0  0  0  0  0  0  0  0  0  0  0  0
   -4.0182    0.3200    0.0000 C   0  0  0  0  0  0  0  0  0  0  0  0
    1.5291   -0.5156    0.0000 C   0  0  0  0  0  0  0  0  0  0  0  0
    2.6847   -1.3335    0.0000 C   0  0  0  0  0  0  0  0  0  0  0  0
    4.0182   -0.7823    0.0000 C   0  0  0  0  0  0  0  0  0  0  0  0
    2.9692    1.5291    0.0000 C   0  0  0  0  0  0  0  0  0  0  0  0
  1 16  1  0  0  0  0
  2 15  1  0  0  0  0
  2 17  1  0  0  0  0
  3 11  1  0  0  0  0
  3 13  1  0  0  0  0
  4 13  2  0  0  0  0
  5 20  1  0  0  0  0
  5 27  1  0  0  0  0
  6 10  1  0  0  0  0
  6 15  2  0  0  0  0
  7 15  1  0  0  0  0
  7 18  1  0  0  0  0
  8 24  1  0  0  0  0
  8 25  2  0  0  0  0
  9 10  1  0  0  0  0
  9 13  1  0  0  0  0
  9 14  2  0  0  0  0
 10 17  2  0  0  0  0
 11 12  1  0  0  0  0
 11 16  2  0  0  0  0
 12 14  1  0  0  0  0
 12 19  2  0  0  0  0
 16 21  1  0  0  0  0
 18 20  1  0  0  0  0
 18 24  2  0  0  0  0
 19 23  1  0  0  0  0
 20 22  2  0  0  0  0
 21 23  2  0  0  0  0
 22 25  1  0  0  0  0
 22 26  1  0  0  0  0
M  END
> <PUBCHEM_COMPOUND_ID_TYPE>
0

> <PUBCHEM_TOTAL_CHARGE>
0

> <PUBCHEM_SUBSTANCE_ID>
310941505

> <PUBCHEM_SUBSTANCE_VERSION>
1

> <PUBCHEM_EXT_DATASOURCE_NAME>
4488

> <PUBCHEM_EXT_DATASOURCE_REGID>
SCHEMBL16119536

> <PUBCHEM_SUBSTANCE_COMMENT>
InChI=1S/C19H14ClN3O3S/c1-10-7-21-8-14(16(10)25-2)22-19-23-15(9-27-19)12-6-11-4-3-5-13(20)17(11)26-18(12)24/h3-9H,1-2H3,(H,22,23)
InChIKey=VMPJDDUAHJDLRM-UHFFFAOYSA-N

> <PUBCHEM_SUBSTANCE_SYNONYM>
SCHEMBL16119536

> <PUBCHEM_XREF_EXT_ID>
SCHEMBL16119536

> <PUBCHEM_EXT_DATASOURCE_URL>
https://www.surechembl.org/

> <PUBCHEM_EXT_SUBSTANCE_URL>
https://www.surechembl.org/chemical/SCHEMBL16119536

> <PUBCHEM_CID_ASSOCIATIONS>
117608325  1

> <PUBCHEM_COORDINATE_TYPE>
1
3

$$$$
