310934636
  -OEChem-07211613022D

 18 18  0     0  0  0  0  0  0999 V2000
    4.4685   -1.7992    0.0000 O   0  0  0  0  0  0  0  0  0  0  0  0
    1.6609   -3.0251    0.0000 O   0  0  0  0  0  0  0  0  0  0  0  0
    3.4601   -2.8076    0.0000 O   0  0  0  0  0  0  0  0  0  0  0  0
    1.7201    0.0000    0.0000 O   0  0  0  0  0  0  0  0  0  0  0  0
    1.4829   -1.6213    0.0000 O   0  0  0  0  0  0  0  0  0  0  0  0
    2.7879   -2.1749    0.0000 N   0  0  0  0  0  0  0  0  0  0  0  0
    3.1042   -1.4236    0.0000 C   0  0  0  0  0  0  0  0  0  0  0  0
    2.2935   -1.4236    0.0000 C   0  0  0  0  0  0  0  0  0  0  0  0
    3.1240   -0.5932    0.0000 C   0  0  0  0  0  0  0  0  0  0  0  0
    3.6776   -2.0167    0.0000 C   0  0  0  0  0  0  0  0  0  0  0  0
    2.2935   -0.5932    0.0000 C   0  0  0  0  0  0  0  0  0  0  0  0
    1.9772   -2.2738    0.0000 C   0  0  0  0  0  0  0  0  0  0  0  0
    0.8304   -3.1438    0.0000 C   0  0  0  0  0  0  0  0  0  0  0  0
    5.0617   -2.3924    0.0000 C   0  0  0  0  0  0  0  0  0  0  0  0
    0.0000   -3.2426    0.0000 C   0  0  0  0  0  0  0  0  0  0  0  0
    0.7316   -2.3331    0.0000 C   0  0  0  0  0  0  0  0  0  0  0  0
    0.9293   -3.9544    0.0000 C   0  0  0  0  0  0  0  0  0  0  0  0
    5.8525   -2.1749    0.0000 C   0  0  0  0  0  0  0  0  0  0  0  0
  1 10  1  0  0  0  0
  1 14  1  0  0  0  0
  2 12  1  0  0  0  0
  2 13  1  0  0  0  0
  3 10  2  0  0  0  0
  4 11  2  0  0  0  0
  5 12  2  0  0  0  0
  6  7  1  0  0  0  0
  6 12  1  0  0  0  0
  7  8  1  0  0  0  0
  7  9  1  0  0  0  0
  7 10  1  0  0  0  0
  8 11  1  0  0  0  0
  9 11  1  0  0  0  0
 13 15  1  0  0  0  0
 13 16  1  0  0  0  0
 13 17  1  0  0  0  0
 14 18  1  0  0  0  0
M  END
> <PUBCHEM_COMPOUND_ID_TYPE>
0

> <PUBCHEM_TOTAL_CHARGE>
0

> <PUBCHEM_SUBSTANCE_ID>
310934636

> <PUBCHEM_SUBSTANCE_VERSION>
1

> <PUBCHEM_EXT_DATASOURCE_NAME>
4488

> <PUBCHEM_EXT_DATASOURCE_REGID>
SCHEMBL16112133

> <PUBCHEM_SUBSTANCE_COMMENT>
InChI=1S/C12H19NO5/c1-5-17-9(15)12(6-8(14)7-12)13-10(16)18-11(2,3)4/h5-7H2,1-4H3,(H,13,16)
InChIKey=DFSYSSVVPOGHSO-UHFFFAOYSA-N

> <PUBCHEM_SUBSTANCE_SYNONYM>
SCHEMBL16112133

> <PUBCHEM_XREF_EXT_ID>
SCHEMBL16112133

> <PUBCHEM_EXT_DATASOURCE_URL>
https://www.surechembl.org/

> <PUBCHEM_EXT_SUBSTANCE_URL>
https://www.surechembl.org/chemical/SCHEMBL16112133

> <PUBCHEM_CID_ASSOCIATIONS>
14728573  1

> <PUBCHEM_COORDINATE_TYPE>
1
3

$$$$
