310943001
  -OEChem-07211613022D

 25 28  0     0  0  0  0  0  0999 V2000
    2.9242   -0.2608    0.0000 O   0  0  0  0  0  0  0  0  0  0  0  0
    2.8869    1.4900    0.0000 O   0  0  0  0  0  0  0  0  0  0  0  0
   -1.9743   -1.3597    0.0000 N   0  0  0  0  0  0  0  0  0  0  0  0
   -2.6821   -0.1118    0.0000 N   0  0  0  0  0  0  0  0  0  0  0  0
   -1.9557    0.9872    0.0000 N   0  0  0  0  0  0  0  0  0  0  0  0
   -3.2595   -1.2851    0.0000 N   0  0  0  0  0  0  0  0  0  0  0  0
    1.6204   -0.0558    0.0000 C   0  0  0  0  0  0  0  0  0  0  0  0
    0.8940    0.3539    0.0000 C   0  0  0  0  0  0  0  0  0  0  0  0
    0.1863   -0.0745    0.0000 C   0  0  0  0  0  0  0  0  0  0  0  0
    2.2909    0.3539    0.0000 C   0  0  0  0  0  0  0  0  0  0  0  0
   -0.5402    0.3352    0.0000 C   0  0  0  0  0  0  0  0  0  0  0  0
   -1.2479   -0.0745    0.0000 C   0  0  0  0  0  0  0  0  0  0  0  0
    2.5703   -0.9872    0.0000 C   0  0  0  0  0  0  0  0  0  0  0  0
    1.7694   -0.8754    0.0000 C   0  0  0  0  0  0  0  0  0  0  0  0
   -1.2666   -0.9312    0.0000 C   0  0  0  0  0  0  0  0  0  0  0  0
    2.3282    1.1920    0.0000 C   0  0  0  0  0  0  0  0  0  0  0  0
    0.9127    1.1920    0.0000 C   0  0  0  0  0  0  0  0  0  0  0  0
    0.1676   -0.9127    0.0000 C   0  0  0  0  0  0  0  0  0  0  0  0
   -1.9557    0.3539    0.0000 C   0  0  0  0  0  0  0  0  0  0  0  0
   -0.5402   -1.3224    0.0000 C   0  0  0  0  0  0  0  0  0  0  0  0
    1.6018    1.5832    0.0000 C   0  0  0  0  0  0  0  0  0  0  0  0
   -2.7007   -0.9312    0.0000 C   0  0  0  0  0  0  0  0  0  0  0  0
   -0.5215    1.0244    0.0000 C   0  0  0  0  0  0  0  0  0  0  0  0
    3.2595   -0.9685    0.0000 C   0  0  0  0  0  0  0  0  0  0  0  0
    2.2723   -1.5832    0.0000 C   0  0  0  0  0  0  0  0  0  0  0  0
  1 10  1  0  0  0  0
  1 13  1  0  0  0  0
  2 16  1  0  0  0  0
  3 15  1  0  0  0  0
  3 22  2  0  0  0  0
  4 19  2  0  0  0  0
  4 22  1  0  0  0  0
  5 19  1  0  0  0  0
  6 22  1  0  0  0  0
  7  8  1  0  0  0  0
  7 10  2  0  0  0  0
  7 14  1  0  0  0  0
  8  9  1  0  0  0  0
  8 17  2  0  0  0  0
  9 11  2  0  0  0  0
  9 18  1  0  0  0  0
 10 16  1  0  0  0  0
 11 12  1  0  0  0  0
 11 23  1  0  0  0  0
 12 15  2  0  0  0  0
 12 19  1  0  0  0  0
 13 14  1  0  0  0  0
 13 24  1  0  0  0  0
 13 25  1  0  0  0  0
 15 20  1  0  0  0  0
 16 21  2  0  0  0  0
 17 21  1  0  0  0  0
 18 20  2  0  0  0  0
M  END
> <PUBCHEM_COMPOUND_ID_TYPE>
0

> <PUBCHEM_TOTAL_CHARGE>
0

> <PUBCHEM_SUBSTANCE_ID>
310943001

> <PUBCHEM_SUBSTANCE_VERSION>
1

> <PUBCHEM_EXT_DATASOURCE_NAME>
4488

> <PUBCHEM_EXT_DATASOURCE_REGID>
SCHEMBL16121060

> <PUBCHEM_SUBSTANCE_COMMENT>
InChI=1S/C19H20N4O2/c1-9-10(4-6-13-15(9)17(20)23-18(21)22-13)11-5-7-14(24)16-12(11)8-19(2,3)25-16/h4-7,24H,8H2,1-3H3,(H4,20,21,22,23)
InChIKey=LLBRVXUWAFGTPJ-UHFFFAOYSA-N

> <PUBCHEM_SUBSTANCE_SYNONYM>
SCHEMBL16121060

> <PUBCHEM_XREF_EXT_ID>
SCHEMBL16121060

> <PUBCHEM_EXT_DATASOURCE_URL>
https://www.surechembl.org/

> <PUBCHEM_EXT_SUBSTANCE_URL>
https://www.surechembl.org/chemical/SCHEMBL16121060

> <PUBCHEM_CID_ASSOCIATIONS>
117609453  1

> <PUBCHEM_COORDINATE_TYPE>
1
3

$$$$
