310949111
  -OEChem-07211613022D

 28 31  0     1  0  0  0  0  0999 V2000
    1.2131    3.2315    0.0000 F   0  0  0  0  0  0  0  0  0  0  0  0
    1.4850    2.1439    0.0000 F   0  0  0  0  0  0  0  0  0  0  0  0
    0.3974    1.8929    0.0000 F   0  0  0  0  0  0  0  0  0  0  0  0
    1.2968   -3.0851    0.0000 O   0  0  0  0  0  0  0  0  0  0  0  0
    0.6275   -4.2773    0.0000 O   0  0  0  0  0  0  0  0  0  0  0  0
   -0.7321   -0.8680    0.0000 N   0  0  0  0  0  0  0  0  0  0  0  0
   -0.0418   -2.1229    0.0000 N   0  0  0  0  0  0  0  0  0  0  0  0
   -1.4850   -2.1020    0.0000 N   0  0  0  0  0  0  0  0  0  0  0  0
   -1.1086    0.4915    0.0000 C   0  0  3  0  0  0  0  0  0  0  0  0
   -0.2928    0.4497    0.0000 C   0  0  3  0  0  0  0  0  0  0  0  0
   -0.7112    1.7465    0.0000 C   0  0  0  0  0  0  0  0  0  0  0  0
   -0.6275    2.6250    0.0000 C   0  0  0  0  0  0  0  0  0  0  0  0
   -1.3386    1.2445    0.0000 C   0  0  0  0  0  0  0  0  0  0  0  0
   -0.0209    1.2445    0.0000 C   0  0  0  0  0  0  0  0  0  0  0  0
   -1.3804   -0.3033    0.0000 C   0  0  0  0  0  0  0  0  0  0  0  0
   -0.0418   -0.3660    0.0000 C   0  0  0  0  0  0  0  0  0  0  0  0
    0.0627    3.0224    0.0000 C   0  0  0  0  0  0  0  0  0  0  0  0
   -0.7948   -1.6837    0.0000 C   0  0  0  0  0  0  0  0  0  0  0  0
    0.7948    2.5622    0.0000 C   0  0  0  0  0  0  0  0  0  0  0  0
   -0.0418   -3.0014    0.0000 C   0  0  0  0  0  0  0  0  0  0  0  0
   -1.3386    3.0433    0.0000 C   0  0  0  0  0  0  0  0  0  0  0  0
   -0.7948   -3.3989    0.0000 C   0  0  0  0  0  0  0  0  0  0  0  0
    0.1046    3.8172    0.0000 C   0  0  0  0  0  0  0  0  0  0  0  0
   -1.4850   -2.9596    0.0000 C   0  0  0  0  0  0  0  0  0  0  0  0
    0.6275   -3.4407    0.0000 C   0  0  0  0  0  0  0  0  0  0  0  0
   -1.3386    3.8590    0.0000 C   0  0  0  0  0  0  0  0  0  0  0  0
   -0.5648    4.2773    0.0000 C   0  0  0  0  0  0  0  0  0  0  0  0
   -0.7948   -4.2355    0.0000 C   0  0  0  0  0  0  0  0  0  0  0  0
  1 19  1  0  0  0  0
  2 19  1  0  0  0  0
  3 19  1  0  0  0  0
  4 25  2  0  0  0  0
  5 25  1  0  0  0  0
  6 15  1  0  0  0  0
  6 16  1  0  0  0  0
  6 18  1  0  0  0  0
  7 18  1  0  0  0  0
  7 20  2  0  0  0  0
  8 18  2  0  0  0  0
  8 24  1  0  0  0  0
  9 10  1  0  0  0  0
  9 13  1  0  0  0  0
  9 15  1  0  0  0  0
 10 14  1  0  0  0  0
 10 16  1  0  0  0  0
 11 12  1  0  0  0  0
 11 13  1  1  0  0  0
 11 14  1  0  0  0  0
 12 17  2  0  0  0  0
 12 21  1  0  0  0  0
 17 19  1  0  0  0  0
 17 23  1  0  0  0  0
 20 22  1  0  0  0  0
 20 25  1  0  0  0  0
 21 26  2  0  0  0  0
 22 24  2  0  0  0  0
 22 28  1  0  0  0  0
 23 27  2  0  0  0  0
 26 27  1  0  0  0  0
M  END
> <PUBCHEM_COMPOUND_ID_TYPE>
0

> <PUBCHEM_TOTAL_CHARGE>
0

> <PUBCHEM_SUBSTANCE_ID>
310949111

> <PUBCHEM_SUBSTANCE_VERSION>
1

> <PUBCHEM_EXT_DATASOURCE_NAME>
4488

> <PUBCHEM_EXT_DATASOURCE_REGID>
SCHEMBL16127301

> <PUBCHEM_SUBSTANCE_COMMENT>
InChI=1S/C20H20F3N3O2/c1-11-8-24-19(25-17(11)18(27)28)26-9-13-6-12(7-14(13)10-26)15-4-2-3-5-16(15)20(21,22)23/h2-5,8,12-14H,6-7,9-10H2,1H3,(H,27,28)
InChIKey=PXPHVAUPBVENDI-UHFFFAOYSA-N

> <PUBCHEM_SUBSTANCE_SYNONYM>
SCHEMBL16127301

> <PUBCHEM_XREF_EXT_ID>
SCHEMBL16127301

> <PUBCHEM_EXT_DATASOURCE_URL>
https://www.surechembl.org/

> <PUBCHEM_EXT_SUBSTANCE_URL>
https://www.surechembl.org/chemical/SCHEMBL16127301

> <PUBCHEM_CID_ASSOCIATIONS>
117614608  1

> <PUBCHEM_COORDINATE_TYPE>
1
3

> <PUBCHEM_BONDANNOTATIONS>
11  13  5

$$$$
