310934491
  -OEChem-07211613022D

 27 30  0     0  0  0  0  0  0999 V2000
    7.1775   -1.6508    0.0000 Br  0  0  0  0  0  0  0  0  0  0  0  0
    2.8949    0.0000    0.0000 O   0  0  0  0  0  0  0  0  0  0  0  0
    2.1533   -0.4067    0.0000 O   0  0  0  0  0  0  0  0  0  0  0  0
    4.3304    0.0000    0.0000 N   0  0  0  0  0  0  0  0  0  0  0  0
    2.8710   -1.6508    0.0000 N   0  0  0  0  0  0  0  0  0  0  0  0
    4.3304   -1.6508    0.0000 C   0  0  0  0  0  0  0  0  0  0  0  0
    5.0482   -1.2441    0.0000 C   0  0  0  0  0  0  0  0  0  0  0  0
    3.5888   -1.2202    0.0000 C   0  0  0  0  0  0  0  0  0  0  0  0
    5.0482   -0.4067    0.0000 C   0  0  0  0  0  0  0  0  0  0  0  0
    3.5888   -0.4067    0.0000 C   0  0  0  0  0  0  0  0  0  0  0  0
    4.3304   -2.4643    0.0000 C   0  0  0  0  0  0  0  0  0  0  0  0
    5.7420   -1.6508    0.0000 C   0  0  0  0  0  0  0  0  0  0  0  0
    5.7420    0.0000    0.0000 C   0  0  0  0  0  0  0  0  0  0  0  0
    6.4597   -1.2441    0.0000 C   0  0  0  0  0  0  0  0  0  0  0  0
    2.1533   -1.2202    0.0000 C   0  0  0  0  0  0  0  0  0  0  0  0
    5.0482   -2.8949    0.0000 C   0  0  0  0  0  0  0  0  0  0  0  0
    3.5888   -2.8949    0.0000 C   0  0  0  0  0  0  0  0  0  0  0  0
    6.4597   -0.4307    0.0000 C   0  0  0  0  0  0  0  0  0  0  0  0
    1.4355   -1.6508    0.0000 C   0  0  0  0  0  0  0  0  0  0  0  0
    5.0242   -3.7084    0.0000 C   0  0  0  0  0  0  0  0  0  0  0  0
    3.5888   -3.7084    0.0000 C   0  0  0  0  0  0  0  0  0  0  0  0
    4.3065   -4.1151    0.0000 C   0  0  0  0  0  0  0  0  0  0  0  0
    0.7178   -1.2202    0.0000 C   0  0  0  0  0  0  0  0  0  0  0  0
    1.4355   -2.4643    0.0000 C   0  0  0  0  0  0  0  0  0  0  0  0
    0.0000   -1.6508    0.0000 C   0  0  0  0  0  0  0  0  0  0  0  0
    0.7178   -2.8949    0.0000 C   0  0  0  0  0  0  0  0  0  0  0  0
    0.0000   -2.4643    0.0000 C   0  0  0  0  0  0  0  0  0  0  0  0
  1 14  1  0  0  0  0
  2 10  2  0  0  0  0
  3 15  2  0  0  0  0
  4  9  1  0  0  0  0
  4 10  1  0  0  0  0
  5  8  1  0  0  0  0
  5 15  1  0  0  0  0
  6  7  1  0  0  0  0
  6  8  2  0  0  0  0
  6 11  1  0  0  0  0
  7  9  2  0  0  0  0
  7 12  1  0  0  0  0
  8 10  1  0  0  0  0
  9 13  1  0  0  0  0
 11 16  2  0  0  0  0
 11 17  1  0  0  0  0
 12 14  2  0  0  0  0
 13 18  2  0  0  0  0
 14 18  1  0  0  0  0
 15 19  1  0  0  0  0
 16 20  1  0  0  0  0
 17 21  2  0  0  0  0
 19 23  2  0  0  0  0
 19 24  1  0  0  0  0
 20 22  2  0  0  0  0
 21 22  1  0  0  0  0
 23 25  1  0  0  0  0
 24 26  2  0  0  0  0
 25 27  2  0  0  0  0
 26 27  1  0  0  0  0
M  END
> <PUBCHEM_COMPOUND_ID_TYPE>
0

> <PUBCHEM_TOTAL_CHARGE>
0

> <PUBCHEM_SUBSTANCE_ID>
310934491

> <PUBCHEM_SUBSTANCE_VERSION>
1

> <PUBCHEM_EXT_DATASOURCE_NAME>
4488

> <PUBCHEM_EXT_DATASOURCE_REGID>
SCHEMBL16111973

> <PUBCHEM_SUBSTANCE_COMMENT>
InChI=1S/C22H15BrN2O2/c23-16-11-12-18-17(13-16)19(14-7-3-1-4-8-14)20(22(27)24-18)25-21(26)15-9-5-2-6-10-15/h1-13H,(H,24,27)(H,25,26)
InChIKey=IFVIYJDOSBNXKD-UHFFFAOYSA-N

> <PUBCHEM_SUBSTANCE_SYNONYM>
SCHEMBL16111973

> <PUBCHEM_XREF_EXT_ID>
SCHEMBL16111973

> <PUBCHEM_EXT_DATASOURCE_URL>
https://www.surechembl.org/

> <PUBCHEM_EXT_SUBSTANCE_URL>
https://www.surechembl.org/chemical/SCHEMBL16111973

> <PUBCHEM_CID_ASSOCIATIONS>
1119285  1

> <PUBCHEM_COORDINATE_TYPE>
1
3

$$$$
