310949067
  -OEChem-07211613022D

 26 27  0     0  0  0  0  0  0999 V2000
    0.1512    2.8468    0.0000 Br  0  0  0  0  0  0  0  0  0  0  0  0
    1.6459   -0.3779    0.0000 F   0  0  0  0  0  0  0  0  0  0  0  0
   -1.2933   -0.4283    0.0000 F   0  0  0  0  0  0  0  0  0  0  0  0
    1.2596    2.7797    0.0000 F   0  0  0  0  0  0  0  0  0  0  0  0
    2.3346    2.4269    0.0000 F   0  0  0  0  0  0  0  0  0  0  0  0
    1.9819    1.3352    0.0000 F   0  0  0  0  0  0  0  0  0  0  0  0
   -1.7971    1.2177    0.0000 F   0  0  0  0  0  0  0  0  0  0  0  0
   -2.3346    2.2255    0.0000 F   0  0  0  0  0  0  0  0  0  0  0  0
   -1.3100    2.7628    0.0000 F   0  0  0  0  0  0  0  0  0  0  0  0
   -1.2764   -2.0575    0.0000 F   0  0  0  0  0  0  0  0  0  0  0  0
    1.6627   -2.0239    0.0000 F   0  0  0  0  0  0  0  0  0  0  0  0
    0.1847   -2.8468    0.0000 F   0  0  0  0  0  0  0  0  0  0  0  0
    0.1679   -0.3947    0.0000 C   0  0  0  0  0  0  0  0  0  0  0  0
    0.1679    0.4451    0.0000 C   0  0  0  0  0  0  0  0  0  0  0  0
    0.9069    1.6711    0.0000 C   0  0  0  0  0  0  0  0  0  0  0  0
   -0.5710    1.6376    0.0000 C   0  0  0  0  0  0  0  0  0  0  0  0
    0.1512    2.0575    0.0000 C   0  0  0  0  0  0  0  0  0  0  0  0
    0.9069   -0.7810    0.0000 C   0  0  0  0  0  0  0  0  0  0  0  0
   -0.5543   -0.7978    0.0000 C   0  0  0  0  0  0  0  0  0  0  0  0
    0.8901    0.8481    0.0000 C   0  0  0  0  0  0  0  0  0  0  0  0
   -0.5543    0.8314    0.0000 C   0  0  0  0  0  0  0  0  0  0  0  0
    1.6124    2.0575    0.0000 C   0  0  0  0  0  0  0  0  0  0  0  0
   -1.5620    2.0071    0.0000 C   0  0  0  0  0  0  0  0  0  0  0  0
   -0.5879   -1.6208    0.0000 C   0  0  0  0  0  0  0  0  0  0  0  0
    0.8901   -1.5871    0.0000 C   0  0  0  0  0  0  0  0  0  0  0  0
    0.1847   -2.0071    0.0000 C   0  0  0  0  0  0  0  0  0  0  0  0
  1 17  1  0  0  0  0
  2 18  1  0  0  0  0
  3 19  1  0  0  0  0
  4 22  1  0  0  0  0
  5 22  1  0  0  0  0
  6 22  1  0  0  0  0
  7 23  1  0  0  0  0
  8 23  1  0  0  0  0
  9 23  1  0  0  0  0
 10 24  1  0  0  0  0
 11 25  1  0  0  0  0
 12 26  1  0  0  0  0
 13 14  1  0  0  0  0
 13 18  2  0  0  0  0
 13 19  1  0  0  0  0
 14 20  2  0  0  0  0
 14 21  1  0  0  0  0
 15 17  2  0  0  0  0
 15 20  1  0  0  0  0
 15 22  1  0  0  0  0
 16 17  1  0  0  0  0
 16 21  2  0  0  0  0
 16 23  1  0  0  0  0
 18 25  1  0  0  0  0
 19 24  2  0  0  0  0
 24 26  1  0  0  0  0
 25 26  2  0  0  0  0
M  END
> <PUBCHEM_COMPOUND_ID_TYPE>
0

> <PUBCHEM_TOTAL_CHARGE>
0

> <PUBCHEM_SUBSTANCE_ID>
310949067

> <PUBCHEM_SUBSTANCE_VERSION>
1

> <PUBCHEM_EXT_DATASOURCE_NAME>
4488

> <PUBCHEM_EXT_DATASOURCE_REGID>
SCHEMBL16127257

> <PUBCHEM_SUBSTANCE_COMMENT>
InChI=1S/C14H2BrF11/c15-7-4(13(21,22)23)1-3(2-5(7)14(24,25)26)6-8(16)10(18)12(20)11(19)9(6)17/h1-2H
InChIKey=OHZGYKUCDLKSRA-UHFFFAOYSA-N

> <PUBCHEM_SUBSTANCE_SYNONYM>
SCHEMBL16127257

> <PUBCHEM_XREF_EXT_ID>
SCHEMBL16127257

> <PUBCHEM_EXT_DATASOURCE_URL>
https://www.surechembl.org/

> <PUBCHEM_EXT_SUBSTANCE_URL>
https://www.surechembl.org/chemical/SCHEMBL16127257

> <PUBCHEM_CID_ASSOCIATIONS>
117614572  1

> <PUBCHEM_COORDINATE_TYPE>
1
3

$$$$
