310947474
  -OEChem-07211613022D

 15 16  0     0  0  0  0  0  0999 V2000
    3.2831    5.4539    0.0000 O   0  0  0  0  0  0  0  0  0  0  0  0
    2.5687    3.3915    0.0000 O   0  0  0  0  0  0  0  0  0  0  0  0
    6.1410    2.9789    0.0000 N   0  0  0  0  0  0  0  0  0  0  0  0
    4.7121    4.6289    0.0000 C   0  0  0  0  0  0  0  0  0  0  0  0
    3.9976    4.2164    0.0000 C   0  0  0  0  0  0  0  0  0  0  0  0
    5.4265    4.2164    0.0000 C   0  0  0  0  0  0  0  0  0  0  0  0
    5.4265    3.3915    0.0000 C   0  0  0  0  0  0  0  0  0  0  0  0
    3.2831    4.6289    0.0000 C   0  0  0  0  0  0  0  0  0  0  0  0
    3.9976    3.3915    0.0000 C   0  0  0  0  0  0  0  0  0  0  0  0
    4.7121    5.4539    0.0000 C   0  0  0  0  0  0  0  0  0  0  0  0
    4.7121    2.9789    0.0000 C   0  0  0  0  0  0  0  0  0  0  0  0
    6.1410    4.6289    0.0000 C   0  0  0  0  0  0  0  0  0  0  0  0
    5.4265    5.8664    0.0000 C   0  0  0  0  0  0  0  0  0  0  0  0
    6.1410    5.4539    0.0000 C   0  0  0  0  0  0  0  0  0  0  0  0
    2.5687    4.2164    0.0000 C   0  0  0  0  0  0  0  0  0  0  0  0
  1  8  2  0  0  0  0
  2 15  1  0  0  0  0
  3  7  1  0  0  0  0
  4  5  1  0  0  0  0
  4  6  2  0  0  0  0
  4 10  1  0  0  0  0
  5  8  1  0  0  0  0
  5  9  2  0  0  0  0
  6  7  1  0  0  0  0
  6 12  1  0  0  0  0
  7 11  2  0  0  0  0
  8 15  1  0  0  0  0
  9 11  1  0  0  0  0
 10 13  1  0  0  0  0
 12 14  1  0  0  0  0
 13 14  1  0  0  0  0
M  END
> <PUBCHEM_COMPOUND_ID_TYPE>
0

> <PUBCHEM_TOTAL_CHARGE>
0

> <PUBCHEM_SUBSTANCE_ID>
310947474

> <PUBCHEM_SUBSTANCE_VERSION>
1

> <PUBCHEM_EXT_DATASOURCE_NAME>
4488

> <PUBCHEM_EXT_DATASOURCE_REGID>
SCHEMBL16125635

> <PUBCHEM_SUBSTANCE_COMMENT>
InChI=1S/C12H15NO2/c13-11-6-5-10(12(15)7-14)8-3-1-2-4-9(8)11/h5-6,14H,1-4,7,13H2
InChIKey=ZYQVZHNFXFHPDK-UHFFFAOYSA-N

> <PUBCHEM_SUBSTANCE_SYNONYM>
SCHEMBL16125635

> <PUBCHEM_XREF_EXT_ID>
SCHEMBL16125635

> <PUBCHEM_EXT_DATASOURCE_URL>
https://www.surechembl.org/

> <PUBCHEM_EXT_SUBSTANCE_URL>
https://www.surechembl.org/chemical/SCHEMBL16125635

> <PUBCHEM_CID_ASSOCIATIONS>
117613205  1

> <PUBCHEM_COORDINATE_TYPE>
1
3

$$$$
