310936452
  -OEChem-07211613022D

 26 28  0     0  0  0  0  0  0999 V2000
    0.0288   -0.6622    0.0000 Cl  0  0  0  0  0  0  0  0  0  0  0  0
    2.4186   -3.5704    0.0000 O   0  0  0  0  0  0  0  0  0  0  0  0
    7.8029    0.0000    0.0000 O   0  0  0  0  0  0  0  0  0  0  0  0
    7.8029   -1.4108    0.0000 O   0  0  0  0  0  0  0  0  0  0  0  0
    3.6855   -2.8217    0.0000 N   0  0  0  0  0  0  0  0  0  0  0  0
    6.1617    0.0000    0.0000 N   0  0  0  0  0  0  0  0  0  0  0  0
    6.1617   -1.4108    0.0000 N   0  0  0  0  0  0  0  0  0  0  0  0
    2.4474   -2.1307    0.0000 C   0  0  0  0  0  0  0  0  0  0  0  0
    1.6412   -2.1019    0.0000 C   0  0  0  0  0  0  0  0  0  0  0  0
    2.8505   -2.8505    0.0000 C   0  0  0  0  0  0  0  0  0  0  0  0
    3.6855   -1.4108    0.0000 C   0  0  0  0  0  0  0  0  0  0  0  0
    2.8505   -1.4397    0.0000 C   0  0  0  0  0  0  0  0  0  0  0  0
    4.9236   -0.6910    0.0000 C   0  0  0  0  0  0  0  0  0  0  0  0
    4.1174   -0.6910    0.0000 C   0  0  0  0  0  0  0  0  0  0  0  0
    4.0886   -2.1307    0.0000 C   0  0  0  0  0  0  0  0  0  0  0  0
    1.2381   -1.4108    0.0000 C   0  0  0  0  0  0  0  0  0  0  0  0
    6.5936   -0.6910    0.0000 C   0  0  0  0  0  0  0  0  0  0  0  0
    1.2093   -2.8217    0.0000 C   0  0  0  0  0  0  0  0  0  0  0  0
    5.3555    0.0000    0.0000 C   0  0  0  0  0  0  0  0  0  0  0  0
    5.3555   -1.4108    0.0000 C   0  0  0  0  0  0  0  0  0  0  0  0
    0.4031   -1.3821    0.0000 C   0  0  0  0  0  0  0  0  0  0  0  0
    7.4286   -0.6910    0.0000 C   0  0  0  0  0  0  0  0  0  0  0  0
    0.4031   -2.8217    0.0000 C   0  0  0  0  0  0  0  0  0  0  0  0
    0.0000   -2.1019    0.0000 C   0  0  0  0  0  0  0  0  0  0  0  0
    2.8505   -4.2902    0.0000 C   0  0  0  0  0  0  0  0  0  0  0  0
    8.6379    0.0000    0.0000 C   0  0  0  0  0  0  0  0  0  0  0  0
  1 21  1  0  0  0  0
  2 10  1  0  0  0  0
  2 25  1  0  0  0  0
  3 22  1  0  0  0  0
  3 26  1  0  0  0  0
  4 22  2  0  0  0  0
  5 10  2  0  0  0  0
  5 15  1  0  0  0  0
  6 17  2  0  0  0  0
  6 19  1  0  0  0  0
  7 17  1  0  0  0  0
  7 20  2  0  0  0  0
  8  9  1  0  0  0  0
  8 10  1  0  0  0  0
  8 12  2  0  0  0  0
  9 16  1  0  0  0  0
  9 18  2  0  0  0  0
 11 12  1  0  0  0  0
 11 14  1  0  0  0  0
 11 15  2  0  0  0  0
 13 14  1  0  0  0  0
 13 19  2  0  0  0  0
 13 20  1  0  0  0  0
 16 21  2  0  0  0  0
 17 22  1  0  0  0  0
 18 23  1  0  0  0  0
 21 24  1  0  0  0  0
 23 24  2  0  0  0  0
M  END
> <PUBCHEM_COMPOUND_ID_TYPE>
0

> <PUBCHEM_TOTAL_CHARGE>
0

> <PUBCHEM_SUBSTANCE_ID>
310936452

> <PUBCHEM_SUBSTANCE_VERSION>
1

> <PUBCHEM_EXT_DATASOURCE_NAME>
4488

> <PUBCHEM_EXT_DATASOURCE_REGID>
SCHEMBL16114094

> <PUBCHEM_SUBSTANCE_COMMENT>
InChI=1S/C19H16ClN3O3/c1-25-18-16(14-4-3-5-15(20)8-14)7-12(9-23-18)6-13-10-21-17(22-11-13)19(24)26-2/h3-5,7-11H,6H2,1-2H3
InChIKey=TYEQEUJHEBWEAO-UHFFFAOYSA-N

> <PUBCHEM_SUBSTANCE_SYNONYM>
SCHEMBL16114094

> <PUBCHEM_XREF_EXT_ID>
SCHEMBL16114094

> <PUBCHEM_EXT_DATASOURCE_URL>
https://www.surechembl.org/

> <PUBCHEM_EXT_SUBSTANCE_URL>
https://www.surechembl.org/chemical/SCHEMBL16114094

> <PUBCHEM_CID_ASSOCIATIONS>
117604384  1

> <PUBCHEM_COORDINATE_TYPE>
1
3

$$$$
