310946127
  -OEChem-07211613022D

 41 48  0     0  0  0  0  0  0999 V2000
    1.0449   13.6753    0.0000 O   0  0  0  0  0  0  0  0  0  0  0  0
    0.0623   12.1762    0.0000 N   0  0  0  0  0  0  0  0  0  0  0  0
   -2.3947   10.5758    0.0000 C   0  0  0  0  0  0  0  0  0  0  0  0
   -1.5877   10.7473    0.0000 C   0  0  0  0  0  0  0  0  0  0  0  0
   -1.1752   10.0328    0.0000 C   0  0  0  0  0  0  0  0  0  0  0  0
   -2.4809    9.7553    0.0000 C   0  0  0  0  0  0  0  0  0  0  0  0
   -1.7272    9.4197    0.0000 C   0  0  0  0  0  0  0  0  0  0  0  0
   -0.3502   11.4618    0.0000 C   0  0  0  0  0  0  0  0  0  0  0  0
    0.8873   12.1762    0.0000 C   0  0  0  0  0  0  0  0  0  0  0  0
    1.2998   12.8907    0.0000 C   0  0  0  0  0  0  0  0  0  0  0  0
   -1.1752   11.4618    0.0000 C   0  0  0  0  0  0  0  0  0  0  0  0
    2.1248   12.8907    0.0000 C   0  0  0  0  0  0  0  0  0  0  0  0
   -0.3502   10.0328    0.0000 C   0  0  0  0  0  0  0  0  0  0  0  0
    2.3797   13.6753    0.0000 C   0  0  0  0  0  0  0  0  0  0  0  0
   -0.3502   12.8907    0.0000 C   0  0  0  0  0  0  0  0  0  0  0  0
    0.0623   10.7473    0.0000 C   0  0  0  0  0  0  0  0  0  0  0  0
    1.7123   14.1602    0.0000 C   0  0  0  0  0  0  0  0  0  0  0  0
   -3.1483    9.2704    0.0000 C   0  0  0  0  0  0  0  0  0  0  0  0
   -1.6410    8.5992    0.0000 C   0  0  0  0  0  0  0  0  0  0  0  0
   -2.3947   11.4008    0.0000 C   0  0  0  0  0  0  0  0  0  0  0  0
   -3.2197   10.5758    0.0000 C   0  0  0  0  0  0  0  0  0  0  0  0
    1.2998   11.4618    0.0000 C   0  0  0  0  0  0  0  0  0  0  0  0
    2.5373   12.1762    0.0000 C   0  0  0  0  0  0  0  0  0  0  0  0
    2.1248   11.4618    0.0000 C   0  0  0  0  0  0  0  0  0  0  0  0
    0.0623   13.6052    0.0000 C   0  0  0  0  0  0  0  0  0  0  0  0
   -3.0621    8.4499    0.0000 C   0  0  0  0  0  0  0  0  0  0  0  0
   -2.3084    8.1143    0.0000 C   0  0  0  0  0  0  0  0  0  0  0  0
    3.1334   14.0109    0.0000 C   0  0  0  0  0  0  0  0  0  0  0  0
   -1.1752   12.8907    0.0000 C   0  0  0  0  0  0  0  0  0  0  0  0
    1.7985   14.9807    0.0000 C   0  0  0  0  0  0  0  0  0  0  0  0
   -0.3502   14.3196    0.0000 C   0  0  0  0  0  0  0  0  0  0  0  0
    3.2197   14.8314    0.0000 C   0  0  0  0  0  0  0  0  0  0  0  0
    2.5522   15.3163    0.0000 C   0  0  0  0  0  0  0  0  0  0  0  0
   -1.5877   13.6052    0.0000 C   0  0  0  0  0  0  0  0  0  0  0  0
   -1.1752   14.3196    0.0000 C   0  0  0  0  0  0  0  0  0  0  0  0
    0.0623   15.0341    0.0000 C   0  0  0  0  0  0  0  0  0  0  0  0
    0.8873   15.0341    0.0000 C   0  0  0  0  0  0  0  0  0  0  0  0
   -0.3502   15.7486    0.0000 C   0  0  0  0  0  0  0  0  0  0  0  0
    1.2998   15.7486    0.0000 C   0  0  0  0  0  0  0  0  0  0  0  0
    0.0623   16.4630    0.0000 C   0  0  0  0  0  0  0  0  0  0  0  0
    0.8873   16.4630    0.0000 C   0  0  0  0  0  0  0  0  0  0  0  0
  1 10  1  0  0  0  0
  1 17  1  0  0  0  0
  2  8  1  0  0  0  0
  2  9  1  0  0  0  0
  2 15  1  0  0  0  0
  3  4  1  0  0  0  0
  3  6  1  0  0  0  0
  3 20  1  0  0  0  0
  3 21  1  0  0  0  0
  4  5  2  0  0  0  0
  4 11  1  0  0  0  0
  5  7  1  0  0  0  0
  5 13  1  0  0  0  0
  6  7  2  0  0  0  0
  6 18  1  0  0  0  0
  7 19  1  0  0  0  0
  8 11  2  0  0  0  0
  8 16  1  0  0  0  0
  9 10  1  0  0  0  0
  9 22  2  0  0  0  0
 10 12  2  0  0  0  0
 12 14  1  0  0  0  0
 12 23  1  0  0  0  0
 13 16  2  0  0  0  0
 14 17  2  0  0  0  0
 14 28  1  0  0  0  0
 15 25  2  0  0  0  0
 15 29  1  0  0  0  0
 17 30  1  0  0  0  0
 18 26  2  0  0  0  0
 19 27  2  0  0  0  0
 22 24  1  0  0  0  0
 23 24  2  0  0  0  0
 25 31  1  0  0  0  0
 26 27  1  0  0  0  0
 28 32  2  0  0  0  0
 29 34  2  0  0  0  0
 30 33  2  0  0  0  0
 31 35  2  0  0  0  0
 31 36  1  0  0  0  0
 32 33  1  0  0  0  0
 34 35  1  0  0  0  0
 36 37  2  0  0  0  0
 36 38  1  0  0  0  0
 37 39  1  0  0  0  0
 38 40  2  0  0  0  0
 39 41  2  0  0  0  0
 40 41  1  0  0  0  0
M  END
> <PUBCHEM_COMPOUND_ID_TYPE>
0

> <PUBCHEM_TOTAL_CHARGE>
0

> <PUBCHEM_SUBSTANCE_ID>
310946127

> <PUBCHEM_SUBSTANCE_VERSION>
1

> <PUBCHEM_EXT_DATASOURCE_NAME>
4488

> <PUBCHEM_EXT_DATASOURCE_REGID>
SCHEMBL16124236

> <PUBCHEM_SUBSTANCE_COMMENT>
InChI=1S/C39H29NO/c1-39(2)34-19-8-6-16-30(34)31-23-22-29(25-35(31)39)40(28-15-10-14-27(24-28)26-12-4-3-5-13-26)36-20-11-18-33-32-17-7-9-21-37(32)41-38(33)36/h3-25H,1-2H3
InChIKey=JBUXOMHCODOZFM-UHFFFAOYSA-N

> <PUBCHEM_SUBSTANCE_SYNONYM>
SCHEMBL16124236

> <PUBCHEM_XREF_EXT_ID>
SCHEMBL16124236

> <PUBCHEM_EXT_DATASOURCE_URL>
https://www.surechembl.org/

> <PUBCHEM_EXT_SUBSTANCE_URL>
https://www.surechembl.org/chemical/SCHEMBL16124236

> <PUBCHEM_CID_ASSOCIATIONS>
117612086  1

> <PUBCHEM_COORDINATE_TYPE>
1
3

$$$$
