310946193
  -OEChem-07211613022D

 12 11  0     0  0  0  0  0  0999 V2000
   -1.7148    0.4359    0.0000 P   0  0  0  0  0  0  0  0  0  0  0  0
   -1.7148    1.3075    0.0000 O   0  0  0  0  0  0  0  0  0  0  0  0
    1.7148    0.0000    0.0000 O   0  0  0  0  0  0  0  0  0  0  0  0
    0.9598   -1.3075    0.0000 O   0  0  0  0  0  0  0  0  0  0  0  0
   -1.0325    0.0000    0.0000 C   0  0  0  0  0  0  0  0  0  0  0  0
   -0.3502    0.4359    0.0000 C   0  0  0  0  0  0  0  0  0  0  0  0
    0.3321    0.0000    0.0000 C   0  0  0  0  0  0  0  0  0  0  0  0
   -2.4696    0.0000    0.0000 C   0  0  0  0  0  0  0  0  0  0  0  0
   -1.9403   -0.4062    0.0000 C   0  0  0  0  0  0  0  0  0  0  0  0
    1.0325    0.4359    0.0000 C   0  0  0  0  0  0  0  0  0  0  0  0
    1.7148   -0.8716    0.0000 C   0  0  0  0  0  0  0  0  0  0  0  0
    2.4696   -1.3075    0.0000 C   0  0  0  0  0  0  0  0  0  0  0  0
  1  2  2  0  0  0  0
  1  5  1  0  0  0  0
  1  8  1  0  0  0  0
  1  9  1  0  0  0  0
  3 10  1  0  0  0  0
  3 11  1  0  0  0  0
  4 11  2  0  0  0  0
  5  6  2  0  0  0  0
  6  7  1  0  0  0  0
  7 10  1  0  0  0  0
 11 12  1  0  0  0  0
M  END
> <PUBCHEM_COMPOUND_ID_TYPE>
0

> <PUBCHEM_TOTAL_CHARGE>
0

> <PUBCHEM_SUBSTANCE_ID>
310946193

> <PUBCHEM_SUBSTANCE_VERSION>
1

> <PUBCHEM_EXT_DATASOURCE_NAME>
4488

> <PUBCHEM_EXT_DATASOURCE_REGID>
SCHEMBL16124305

> <PUBCHEM_SUBSTANCE_COMMENT>
InChI=1S/C8H15O3P/c1-8(9)11-6-4-5-7-12(2,3)10/h5,7H,4,6H2,1-3H3/b7-5+
InChIKey=XZNBLTJIPSJBIM-FNORWQNLSA-N

> <PUBCHEM_SUBSTANCE_SYNONYM>
SCHEMBL16124305

> <PUBCHEM_XREF_EXT_ID>
SCHEMBL16124305

> <PUBCHEM_EXT_DATASOURCE_URL>
https://www.surechembl.org/

> <PUBCHEM_EXT_SUBSTANCE_URL>
https://www.surechembl.org/chemical/SCHEMBL16124305

> <PUBCHEM_CID_ASSOCIATIONS>
117612145  1

> <PUBCHEM_COORDINATE_TYPE>
1
3

$$$$
