310944456
  -OEChem-07211613022D

 17 18  0     0  0  0  0  0  0999 V2000
    0.3719    1.8153    0.0000 F   0  0  0  0  0  0  0  0  0  0  0  0
    2.5480    1.4156    0.0000 N   0  0  0  0  0  0  0  0  0  0  0  0
    0.3942   -2.2150    0.0000 N   0  0  0  0  0  0  0  0  0  0  0  0
   -0.3609    0.6273    0.0000 C   0  0  0  0  0  0  0  0  0  0  0  0
    0.3609    1.0269    0.0000 C   0  0  0  0  0  0  0  0  0  0  0  0
    1.1047    0.6384    0.0000 C   0  0  0  0  0  0  0  0  0  0  0  0
   -1.1047    1.0269    0.0000 C   0  0  0  0  0  0  0  0  0  0  0  0
    0.3719   -0.5829    0.0000 C   0  0  0  0  0  0  0  0  0  0  0  0
   -0.3497   -0.1721    0.0000 C   0  0  0  0  0  0  0  0  0  0  0  0
    1.0936   -0.1499    0.0000 C   0  0  0  0  0  0  0  0  0  0  0  0
   -1.0936    1.8153    0.0000 C   0  0  0  0  0  0  0  0  0  0  0  0
   -1.8264    0.6273    0.0000 C   0  0  0  0  0  0  0  0  0  0  0  0
    1.8374    1.0381    0.0000 C   0  0  0  0  0  0  0  0  0  0  0  0
    0.3830   -1.4045    0.0000 C   0  0  0  0  0  0  0  0  0  0  0  0
   -1.8153    2.2150    0.0000 C   0  0  0  0  0  0  0  0  0  0  0  0
   -2.5369    1.0048    0.0000 C   0  0  0  0  0  0  0  0  0  0  0  0
   -2.5480    1.7931    0.0000 C   0  0  0  0  0  0  0  0  0  0  0  0
  1  5  1  0  0  0  0
  2 13  3  0  0  0  0
  3 14  3  0  0  0  0
  4  5  1  0  0  0  0
  4  7  1  0  0  0  0
  4  9  2  0  0  0  0
  5  6  2  0  0  0  0
  6 10  1  0  0  0  0
  6 13  1  0  0  0  0
  7 11  2  0  0  0  0
  7 12  1  0  0  0  0
  8  9  1  0  0  0  0
  8 10  2  0  0  0  0
  8 14  1  0  0  0  0
 11 15  1  0  0  0  0
 12 16  2  0  0  0  0
 15 17  2  0  0  0  0
 16 17  1  0  0  0  0
M  END
> <PUBCHEM_COMPOUND_ID_TYPE>
0

> <PUBCHEM_TOTAL_CHARGE>
0

> <PUBCHEM_SUBSTANCE_ID>
310944456

> <PUBCHEM_SUBSTANCE_VERSION>
1

> <PUBCHEM_EXT_DATASOURCE_NAME>
4488

> <PUBCHEM_EXT_DATASOURCE_REGID>
SCHEMBL16122531

> <PUBCHEM_SUBSTANCE_COMMENT>
InChI=1S/C14H7FN2/c15-14-12(9-17)6-10(8-16)7-13(14)11-4-2-1-3-5-11/h1-7H
InChIKey=OJUCQAKPEJBALA-UHFFFAOYSA-N

> <PUBCHEM_SUBSTANCE_SYNONYM>
SCHEMBL16122531

> <PUBCHEM_XREF_EXT_ID>
SCHEMBL16122531

> <PUBCHEM_EXT_DATASOURCE_URL>
https://www.surechembl.org/

> <PUBCHEM_EXT_SUBSTANCE_URL>
https://www.surechembl.org/chemical/SCHEMBL16122531

> <PUBCHEM_CID_ASSOCIATIONS>
117610710  1

> <PUBCHEM_COORDINATE_TYPE>
1
3

$$$$
