310946732
  -OEChem-07211613022D

 37 40  0     0  0  0  0  0  0999 V2000
    2.4457   -2.3128    0.0000 S   0  0  0  0  0  0  0  0  0  0  0  0
   -2.4457   -3.4648    0.0000 O   0  0  0  0  0  0  0  0  0  0  0  0
    3.1723   -1.8874    0.0000 O   0  0  0  0  0  0  0  0  0  0  0  0
    2.2330   -1.5152    0.0000 O   0  0  0  0  0  0  0  0  0  0  0  0
   -1.0279    2.9331    0.0000 O   0  0  0  0  0  0  0  0  0  0  0  0
   -2.4457    2.9331    0.0000 O   0  0  0  0  0  0  0  0  0  0  0  0
   -1.7368   -0.7886    0.0000 N   0  0  0  0  0  0  0  0  0  0  0  0
   -1.0634   -1.2849    0.0000 N   0  0  0  0  0  0  0  0  0  0  0  0
   -0.8330   -2.7381    0.0000 N   0  0  0  0  0  0  0  0  0  0  0  0
   -3.5267   -2.5077    0.0000 N   0  0  0  0  0  0  0  0  0  0  0  0
   -1.7368    1.6925    0.0000 N   0  0  0  0  0  0  0  0  0  0  0  0
    0.4077    0.3987    0.0000 N   0  0  0  0  0  0  0  0  0  0  0  0
   -1.7191    0.0266    0.0000 C   0  0  0  0  0  0  0  0  0  0  0  0
   -2.4102   -1.2849    0.0000 C   0  0  0  0  0  0  0  0  0  0  0  0
   -2.1621   -2.0469    0.0000 C   0  0  0  0  0  0  0  0  0  0  0  0
   -1.3291   -2.0646    0.0000 C   0  0  0  0  0  0  0  0  0  0  0  0
   -2.7293   -2.6672    0.0000 C   0  0  0  0  0  0  0  0  0  0  0  0
   -2.4457    0.4519    0.0000 C   0  0  0  0  0  0  0  0  0  0  0  0
   -1.0279    0.4519    0.0000 C   0  0  0  0  0  0  0  0  0  0  0  0
   -3.2255   -1.1077    0.0000 C   0  0  0  0  0  0  0  0  0  0  0  0
   -1.0279   -0.3810    0.0000 C   0  0  0  0  0  0  0  0  0  0  0  0
    0.0000   -2.6495    0.0000 C   0  0  0  0  0  0  0  0  0  0  0  0
   -3.7749   -1.7456    0.0000 C   0  0  0  0  0  0  0  0  0  0  0  0
   -2.4280    1.2849    0.0000 C   0  0  0  0  0  0  0  0  0  0  0  0
   -1.0102    1.2672    0.0000 C   0  0  0  0  0  0  0  0  0  0  0  0
    1.6482   -2.4014    0.0000 C   0  0  0  0  0  0  0  0  0  0  0  0
    2.9597   -2.9685    0.0000 C   0  0  0  0  0  0  0  0  0  0  0  0
    0.4962   -3.2875    0.0000 C   0  0  0  0  0  0  0  0  0  0  0  0
    0.3190   -1.8874    0.0000 C   0  0  0  0  0  0  0  0  0  0  0  0
    1.3115   -3.1811    0.0000 C   0  0  0  0  0  0  0  0  0  0  0  0
    1.1165   -1.7811    0.0000 C   0  0  0  0  0  0  0  0  0  0  0  0
   -0.3013    0.0266    0.0000 C   0  0  0  0  0  0  0  0  0  0  0  0
   -1.7191    2.5077    0.0000 C   0  0  0  0  0  0  0  0  0  0  0  0
    3.7749   -2.8445    0.0000 C   0  0  0  0  0  0  0  0  0  0  0  0
    3.3672   -3.6774    0.0000 C   0  0  0  0  0  0  0  0  0  0  0  0
    2.2507   -3.7306    0.0000 C   0  0  0  0  0  0  0  0  0  0  0  0
   -1.0279    3.7306    0.0000 C   0  0  0  0  0  0  0  0  0  0  0  0
  1  3  2  0  0  0  0
  1  4  2  0  0  0  0
  1 26  1  0  0  0  0
  1 27  1  0  0  0  0
  2 17  2  0  0  0  0
  5 33  1  0  0  0  0
  5 37  1  0  0  0  0
  6 33  2  0  0  0  0
  7  8  1  0  0  0  0
  7 13  1  0  0  0  0
  7 14  1  0  0  0  0
  8 16  2  0  0  0  0
  9 16  1  0  0  0  0
  9 22  1  0  0  0  0
 10 17  1  0  0  0  0
 10 23  1  0  0  0  0
 11 24  1  0  0  0  0
 11 25  1  0  0  0  0
 11 33  1  0  0  0  0
 12 32  3  0  0  0  0
 13 18  1  0  0  0  0
 13 19  1  0  0  0  0
 13 21  1  0  0  0  0
 14 15  2  0  0  0  0
 14 20  1  0  0  0  0
 15 16  1  0  0  0  0
 15 17  1  0  0  0  0
 18 24  1  0  0  0  0
 19 25  1  0  0  0  0
 20 23  2  0  0  0  0
 21 32  1  0  0  0  0
 22 28  2  0  0  0  0
 22 29  1  0  0  0  0
 26 30  2  0  0  0  0
 26 31  1  0  0  0  0
 27 34  1  0  0  0  0
 27 35  1  0  0  0  0
 27 36  1  0  0  0  0
 28 30  1  0  0  0  0
 29 31  2  0  0  0  0
M  END
> <PUBCHEM_COMPOUND_ID_TYPE>
0

> <PUBCHEM_TOTAL_CHARGE>
0

> <PUBCHEM_SUBSTANCE_ID>
310946732

> <PUBCHEM_SUBSTANCE_VERSION>
1

> <PUBCHEM_EXT_DATASOURCE_NAME>
4488

> <PUBCHEM_EXT_DATASOURCE_REGID>
SCHEMBL16124856

> <PUBCHEM_SUBSTANCE_COMMENT>
InChI=1S/C25H30N6O5S/c1-24(2,3)37(34,35)18-7-5-17(6-8-18)28-21-20-19(9-14-27-22(20)32)31(29-21)25(10-13-26)11-15-30(16-12-25)23(33)36-4/h5-9,14H,10-12,15-16H2,1-4H3,(H,27,32)(H,28,29)
InChIKey=MHIGHFSHEYTZFT-UHFFFAOYSA-N

> <PUBCHEM_SUBSTANCE_SYNONYM>
SCHEMBL16124856

> <PUBCHEM_XREF_EXT_ID>
SCHEMBL16124856

> <PUBCHEM_EXT_DATASOURCE_URL>
https://www.surechembl.org/

> <PUBCHEM_EXT_SUBSTANCE_URL>
https://www.surechembl.org/chemical/SCHEMBL16124856

> <PUBCHEM_CID_ASSOCIATIONS>
86270447  1

> <PUBCHEM_COORDINATE_TYPE>
1
3

$$$$
