310942223
  -OEChem-07211613022D

 30 31  0     1  0  0  0  0  0999 V2000
    1.7785    0.4697    0.0000 Cl  0  0  0  0  0  0  0  0  0  0  0  0
    0.3257   -2.0228    0.0000 F   0  0  0  0  0  0  0  0  0  0  0  0
    1.7660   -1.1962    0.0000 O   0  0  0  0  0  0  0  0  0  0  0  0
   -0.4008    1.7222    0.0000 O   0  0  0  0  0  0  0  0  0  0  0  0
   -3.9455    2.4487    0.0000 O   0  0  0  0  0  0  0  0  0  0  0  0
   -1.8286   -0.7703    0.0000 N   0  0  0  0  0  0  0  0  0  0  0  0
   -1.8412    1.7348    0.0000 N   0  0  0  0  0  0  0  0  0  0  0  0
   -0.4008   -0.7703    0.0000 C   0  0  0  0  0  0  0  0  0  0  0  0
    0.3257   -1.1836    0.0000 C   0  0  0  0  0  0  0  0  0  0  0  0
    1.0396   -0.7703    0.0000 C   0  0  0  0  0  0  0  0  0  0  0  0
    1.0521    0.0689    0.0000 C   0  0  0  0  0  0  0  0  0  0  0  0
   -1.1147   -1.1836    0.0000 C   0  0  3  0  0  0  0  0  0  0  0  0
   -0.3757    0.0564    0.0000 C   0  0  0  0  0  0  0  0  0  0  0  0
    0.3382    0.4697    0.0000 C   0  0  0  0  0  0  0  0  0  0  0  0
    2.5050   -0.7703    0.0000 C   0  0  0  0  0  0  0  0  0  0  0  0
   -1.1147   -2.0353    0.0000 C   0  0  0  0  0  0  0  0  0  0  0  0
   -1.8286    0.0564    0.0000 C   0  0  3  0  0  0  0  0  0  0  0  0
    2.5175    0.0564    0.0000 C   0  0  0  0  0  0  0  0  0  0  0  0
    3.2190   -1.1836    0.0000 C   0  0  0  0  0  0  0  0  0  0  0  0
   -1.1147    0.4697    0.0000 C   0  0  0  0  0  0  0  0  0  0  0  0
   -1.1272    1.3088    0.0000 C   0  0  0  0  0  0  0  0  0  0  0  0
   -2.6804    1.7348    0.0000 C   0  0  0  0  0  0  0  0  0  0  0  0
    3.2315    0.4697    0.0000 C   0  0  0  0  0  0  0  0  0  0  0  0
    3.9455   -0.7703    0.0000 C   0  0  0  0  0  0  0  0  0  0  0  0
   -1.8161   -2.4487    0.0000 C   0  0  0  0  0  0  0  0  0  0  0  0
   -2.5551    0.4697    0.0000 C   0  0  0  0  0  0  0  0  0  0  0  0
    3.9455    0.0564    0.0000 C   0  0  0  0  0  0  0  0  0  0  0  0
   -3.0812    2.4487    0.0000 C   0  0  0  0  0  0  0  0  0  0  0  0
   -3.4945    1.7222    0.0000 C   0  0  0  0  0  0  0  0  0  0  0  0
   -3.0687    1.0083    0.0000 C   0  0  0  0  0  0  0  0  0  0  0  0
  1 11  1  0  0  0  0
  2  9  1  0  0  0  0
  3 10  1  0  0  0  0
  3 15  1  0  0  0  0
  4 21  2  0  0  0  0
  5 28  1  0  0  0  0
 12  6  1  1  0  0  0
  6 17  1  0  0  0  0
  7 21  1  0  0  0  0
  7 22  1  0  0  0  0
  8  9  2  0  0  0  0
  8 12  1  0  0  0  0
  8 13  1  0  0  0  0
  9 10  1  0  0  0  0
 10 11  2  0  0  0  0
 11 14  1  0  0  0  0
 12 16  1  0  0  0  0
 13 14  2  0  0  0  0
 15 18  2  0  0  0  0
 15 19  1  0  0  0  0
 16 25  1  0  0  0  0
 17 20  1  0  0  0  0
 17 26  1  6  0  0  0
 18 23  1  0  0  0  0
 19 24  2  0  0  0  0
 20 21  1  0  0  0  0
 22 28  1  0  0  0  0
 22 29  1  0  0  0  0
 22 30  1  0  0  0  0
 23 27  2  0  0  0  0
 24 27  1  0  0  0  0
M  END
> <PUBCHEM_COMPOUND_ID_TYPE>
0

> <PUBCHEM_TOTAL_CHARGE>
0

> <PUBCHEM_SUBSTANCE_ID>
310942223

> <PUBCHEM_SUBSTANCE_VERSION>
1

> <PUBCHEM_EXT_DATASOURCE_NAME>
4488

> <PUBCHEM_EXT_DATASOURCE_REGID>
SCHEMBL16120258

> <PUBCHEM_SUBSTANCE_COMMENT>
InChI=1S/C23H30ClFN2O3/c1-5-19(26-15(2)13-20(29)27-23(3,4)14-28)17-11-12-18(24)22(21(17)25)30-16-9-7-6-8-10-16/h6-12,15,19,26,28H,5,13-14H2,1-4H3,(H,27,29)/t15-,19-/m1/s1
InChIKey=FYXXAXHSSDOGIX-DNVCBOLYSA-N

> <PUBCHEM_SUBSTANCE_SYNONYM>
SCHEMBL16120258

> <PUBCHEM_XREF_EXT_ID>
SCHEMBL16120258

> <PUBCHEM_EXT_DATASOURCE_URL>
https://www.surechembl.org/

> <PUBCHEM_EXT_SUBSTANCE_URL>
https://www.surechembl.org/chemical/SCHEMBL16120258

> <PUBCHEM_CID_ASSOCIATIONS>
117608874  1

> <PUBCHEM_COORDINATE_TYPE>
1
3

> <PUBCHEM_BONDANNOTATIONS>
17  26  6
12  6  5

$$$$
