310936246
  -OEChem-07211613022D

 36 39  0     0  0  0  0  0  0999 V2000
    4.0855   -3.7713    0.0000 F   0  0  0  0  0  0  0  0  0  0  0  0
    0.0000    0.0000    0.0000 F   0  0  0  0  0  0  0  0  0  0  0  0
    1.1785   -7.8569    0.0000 F   0  0  0  0  0  0  0  0  0  0  0  0
    2.5927   -7.8569    0.0000 F   0  0  0  0  0  0  0  0  0  0  0  0
    1.1785   -7.0319    0.0000 F   0  0  0  0  0  0  0  0  0  0  0  0
    1.2964   -3.6141    0.0000 O   0  0  0  0  0  0  0  0  0  0  0  0
    3.8106   -2.5142    0.0000 O   0  0  0  0  0  0  0  0  0  0  0  0
    6.2069   -4.1641    0.0000 O   0  0  0  0  0  0  0  0  0  0  0  0
    6.9140   -5.3819    0.0000 O   0  0  0  0  0  0  0  0  0  0  0  0
    2.7499   -1.5714    0.0000 N   0  0  0  0  0  0  0  0  0  0  0  0
    2.6320   -3.7320    0.0000 C   0  0  0  0  0  0  0  0  0  0  0  0
    2.4356   -2.9463    0.0000 C   0  0  0  0  0  0  0  0  0  0  0  0
    1.8857   -4.1641    0.0000 C   0  0  0  0  0  0  0  0  0  0  0  0
    3.3392   -4.1641    0.0000 C   0  0  0  0  0  0  0  0  0  0  0  0
    1.6499   -2.8678    0.0000 C   0  0  0  0  0  0  0  0  0  0  0  0
    3.3392   -4.9891    0.0000 C   0  0  0  0  0  0  0  0  0  0  0  0
    2.5927   -5.3819    0.0000 C   0  0  0  0  0  0  0  0  0  0  0  0
    1.9249   -4.9891    0.0000 C   0  0  0  0  0  0  0  0  0  0  0  0
    2.9856   -2.3571    0.0000 C   0  0  0  0  0  0  0  0  0  0  0  0
    1.2178   -2.1606    0.0000 C   0  0  0  0  0  0  0  0  0  0  0  0
    4.0855   -5.3819    0.0000 C   0  0  0  0  0  0  0  0  0  0  0  0
    2.5927   -6.2069    0.0000 C   0  0  0  0  0  0  0  0  0  0  0  0
    4.7927   -4.9891    0.0000 C   0  0  0  0  0  0  0  0  0  0  0  0
    0.3928   -2.1213    0.0000 C   0  0  0  0  0  0  0  0  0  0  0  0
    1.6106   -1.4142    0.0000 C   0  0  0  0  0  0  0  0  0  0  0  0
    4.0855   -6.2069    0.0000 C   0  0  0  0  0  0  0  0  0  0  0  0
    5.4998   -5.3819    0.0000 C   0  0  0  0  0  0  0  0  0  0  0  0
    1.8857   -6.6390    0.0000 C   0  0  0  0  0  0  0  0  0  0  0  0
    0.0000   -1.4142    0.0000 C   0  0  0  0  0  0  0  0  0  0  0  0
    1.2178   -0.7071    0.0000 C   0  0  0  0  0  0  0  0  0  0  0  0
    4.7927   -6.5998    0.0000 C   0  0  0  0  0  0  0  0  0  0  0  0
    0.3928   -0.7071    0.0000 C   0  0  0  0  0  0  0  0  0  0  0  0
    5.4998   -6.2069    0.0000 C   0  0  0  0  0  0  0  0  0  0  0  0
    1.8857   -7.4640    0.0000 C   0  0  0  0  0  0  0  0  0  0  0  0
    6.2069   -4.9891    0.0000 C   0  0  0  0  0  0  0  0  0  0  0  0
    3.2999   -0.9428    0.0000 C   0  0  0  0  0  0  0  0  0  0  0  0
  1 14  1  0  0  0  0
  2 32  1  0  0  0  0
  3 34  1  0  0  0  0
  4 34  1  0  0  0  0
  5 34  1  0  0  0  0
  6 13  1  0  0  0  0
  6 15  1  0  0  0  0
  7 19  2  0  0  0  0
  8 35  2  0  0  0  0
  9 35  1  0  0  0  0
 10 19  1  0  0  0  0
 10 36  1  0  0  0  0
 11 12  1  0  0  0  0
 11 13  2  0  0  0  0
 11 14  1  0  0  0  0
 12 15  2  0  0  0  0
 12 19  1  0  0  0  0
 13 18  1  0  0  0  0
 14 16  2  0  0  0  0
 15 20  1  0  0  0  0
 16 17  1  0  0  0  0
 16 21  1  0  0  0  0
 17 18  2  0  0  0  0
 17 22  1  0  0  0  0
 20 24  2  0  0  0  0
 20 25  1  0  0  0  0
 21 23  1  0  0  0  0
 21 26  2  0  0  0  0
 22 28  1  0  0  0  0
 23 27  2  0  0  0  0
 24 29  1  0  0  0  0
 25 30  2  0  0  0  0
 26 31  1  0  0  0  0
 27 33  1  0  0  0  0
 27 35  1  0  0  0  0
 28 34  1  0  0  0  0
 29 32  2  0  0  0  0
 30 32  1  0  0  0  0
 31 33  2  0  0  0  0
M  END
> <PUBCHEM_COMPOUND_ID_TYPE>
0

> <PUBCHEM_TOTAL_CHARGE>
0

> <PUBCHEM_SUBSTANCE_ID>
310936246

> <PUBCHEM_SUBSTANCE_VERSION>
1

> <PUBCHEM_EXT_DATASOURCE_NAME>
4488

> <PUBCHEM_EXT_DATASOURCE_REGID>
SCHEMBL16113861

> <PUBCHEM_SUBSTANCE_COMMENT>
InChI=1S/C26H18F5NO4/c1-32-24(33)21-20-18(36-23(21)13-5-7-17(27)8-6-13)12-15(9-10-26(29,30)31)19(22(20)28)14-3-2-4-16(11-14)25(34)35/h2-8,11-12H,9-10H2,1H3,(H,32,33)(H,34,35)
InChIKey=PEUBVSQCAWAERA-UHFFFAOYSA-N

> <PUBCHEM_SUBSTANCE_SYNONYM>
SCHEMBL16113861

> <PUBCHEM_XREF_EXT_ID>
SCHEMBL16113861

> <PUBCHEM_EXT_DATASOURCE_URL>
https://www.surechembl.org/

> <PUBCHEM_EXT_SUBSTANCE_URL>
https://www.surechembl.org/chemical/SCHEMBL16113861

> <PUBCHEM_CID_ASSOCIATIONS>
117604195  1

> <PUBCHEM_COORDINATE_TYPE>
1
3

$$$$
