310939426
  -OEChem-07211613022D

 15 16  0     0  0  0  0  0  0999 V2000
    2.5422    8.4688    0.0000 Cl  0  0  0  0  0  0  0  0  0  0  0  0
   -1.1703    7.7544    0.0000 N   0  0  0  0  0  0  0  0  0  0  0  0
   -1.1703    9.1833    0.0000 N   0  0  0  0  0  0  0  0  0  0  0  0
   -2.4078    8.4688    0.0000 N   0  0  0  0  0  0  0  0  0  0  0  0
   -0.7578    8.4688    0.0000 C   0  0  0  0  0  0  0  0  0  0  0  0
    0.0672    8.4688    0.0000 C   0  0  0  0  0  0  0  0  0  0  0  0
   -1.9953    7.7544    0.0000 C   0  0  0  0  0  0  0  0  0  0  0  0
   -1.9953    9.1833    0.0000 C   0  0  0  0  0  0  0  0  0  0  0  0
    0.4797    7.7544    0.0000 C   0  0  0  0  0  0  0  0  0  0  0  0
    0.4797    9.1833    0.0000 C   0  0  0  0  0  0  0  0  0  0  0  0
    1.7172    8.4688    0.0000 C   0  0  0  0  0  0  0  0  0  0  0  0
    1.3047    7.7544    0.0000 C   0  0  0  0  0  0  0  0  0  0  0  0
    1.3047    9.1833    0.0000 C   0  0  0  0  0  0  0  0  0  0  0  0
   -2.4078    7.0399    0.0000 C   0  0  0  0  0  0  0  0  0  0  0  0
   -2.4078    9.8978    0.0000 C   0  0  0  0  0  0  0  0  0  0  0  0
  1 11  1  0  0  0  0
  2  5  2  0  0  0  0
  2  7  1  0  0  0  0
  3  5  1  0  0  0  0
  3  8  2  0  0  0  0
  4  7  2  0  0  0  0
  4  8  1  0  0  0  0
  5  6  1  0  0  0  0
  6  9  2  0  0  0  0
  6 10  1  0  0  0  0
  7 14  1  0  0  0  0
  8 15  1  0  0  0  0
  9 12  1  0  0  0  0
 10 13  2  0  0  0  0
 11 12  2  0  0  0  0
 11 13  1  0  0  0  0
M  END
> <PUBCHEM_COMPOUND_ID_TYPE>
0

> <PUBCHEM_TOTAL_CHARGE>
0

> <PUBCHEM_SUBSTANCE_ID>
310939426

> <PUBCHEM_SUBSTANCE_VERSION>
1

> <PUBCHEM_EXT_DATASOURCE_NAME>
4488

> <PUBCHEM_EXT_DATASOURCE_REGID>
SCHEMBL16117348

> <PUBCHEM_SUBSTANCE_COMMENT>
InChI=1S/C11H10ClN3/c1-7-13-8(2)15-11(14-7)9-3-5-10(12)6-4-9/h3-6H,1-2H3
InChIKey=GSRCGFVDRJOOPW-UHFFFAOYSA-N

> <PUBCHEM_SUBSTANCE_SYNONYM>
SCHEMBL16117348

> <PUBCHEM_XREF_EXT_ID>
SCHEMBL16117348

> <PUBCHEM_EXT_DATASOURCE_URL>
https://www.surechembl.org/

> <PUBCHEM_EXT_SUBSTANCE_URL>
https://www.surechembl.org/chemical/SCHEMBL16117348

> <PUBCHEM_CID_ASSOCIATIONS>
35163  1

> <PUBCHEM_COORDINATE_TYPE>
1
3

$$$$
