310936592
  -OEChem-07211613022D

 22 23  0     0  0  0  0  0  0999 V2000
    0.0000   -0.7108    0.0000 Cl  0  0  0  0  0  0  0  0  0  0  0  0
    1.9902   -5.6863    0.0000 F   0  0  0  0  0  0  0  0  0  0  0  0
    3.2412   -4.9755    0.0000 F   0  0  0  0  0  0  0  0  0  0  0  0
    2.4167   -3.5539    0.0000 O   0  0  0  0  0  0  0  0  0  0  0  0
    4.9471   -0.7392    0.0000 O   0  0  0  0  0  0  0  0  0  0  0  0
    1.2226   -2.8431    0.0000 N   0  0  0  0  0  0  0  0  0  0  0  0
    4.9186   -2.1324    0.0000 N   0  0  0  0  0  0  0  0  0  0  0  0
    2.4735   -2.1324    0.0000 C   0  0  0  0  0  0  0  0  0  0  0  0
    3.2696   -2.1324    0.0000 C   0  0  0  0  0  0  0  0  0  0  0  0
    2.0186   -2.8431    0.0000 C   0  0  0  0  0  0  0  0  0  0  0  0
    2.0186   -1.4215    0.0000 C   0  0  0  0  0  0  0  0  0  0  0  0
    1.2226   -1.4215    0.0000 C   0  0  0  0  0  0  0  0  0  0  0  0
    3.6961   -1.3931    0.0000 C   0  0  0  0  0  0  0  0  0  0  0  0
    3.6676   -2.8147    0.0000 C   0  0  0  0  0  0  0  0  0  0  0  0
    4.5206   -1.4500    0.0000 C   0  0  0  0  0  0  0  0  0  0  0  0
    0.7961   -2.1324    0.0000 C   0  0  0  0  0  0  0  0  0  0  0  0
    4.4922   -2.8716    0.0000 C   0  0  0  0  0  0  0  0  0  0  0  0
    0.8245   -0.7108    0.0000 C   0  0  0  0  0  0  0  0  0  0  0  0
    2.0186   -4.2647    0.0000 C   0  0  0  0  0  0  0  0  0  0  0  0
    2.4167   -4.9755    0.0000 C   0  0  0  0  0  0  0  0  0  0  0  0
    4.5490   -0.0285    0.0000 C   0  0  0  0  0  0  0  0  0  0  0  0
    3.7245    0.0000    0.0000 C   0  0  0  0  0  0  0  0  0  0  0  0
  1 18  1  0  0  0  0
  2 20  1  0  0  0  0
  3 20  1  0  0  0  0
  4 10  1  0  0  0  0
  4 19  1  0  0  0  0
  5 15  1  0  0  0  0
  5 21  1  0  0  0  0
  6 10  1  0  0  0  0
  6 16  2  0  0  0  0
  7 15  1  0  0  0  0
  7 17  2  0  0  0  0
  8  9  1  0  0  0  0
  8 10  2  0  0  0  0
  8 11  1  0  0  0  0
  9 13  1  0  0  0  0
  9 14  2  0  0  0  0
 11 12  2  0  0  0  0
 12 16  1  0  0  0  0
 12 18  1  0  0  0  0
 13 15  2  0  0  0  0
 14 17  1  0  0  0  0
 19 20  1  0  0  0  0
 21 22  1  0  0  0  0
M  END
> <PUBCHEM_COMPOUND_ID_TYPE>
0

> <PUBCHEM_TOTAL_CHARGE>
0

> <PUBCHEM_SUBSTANCE_ID>
310936592

> <PUBCHEM_SUBSTANCE_VERSION>
1

> <PUBCHEM_EXT_DATASOURCE_NAME>
4488

> <PUBCHEM_EXT_DATASOURCE_REGID>
SCHEMBL16114251

> <PUBCHEM_SUBSTANCE_COMMENT>
InChI=1S/C15H15ClF2N2O2/c1-2-21-14-6-11(3-4-19-14)12-5-10(7-16)8-20-15(12)22-9-13(17)18/h3-6,8,13H,2,7,9H2,1H3
InChIKey=GHJGIFPFOLEAQX-UHFFFAOYSA-N

> <PUBCHEM_SUBSTANCE_SYNONYM>
SCHEMBL16114251

> <PUBCHEM_XREF_EXT_ID>
SCHEMBL16114251

> <PUBCHEM_EXT_DATASOURCE_URL>
https://www.surechembl.org/

> <PUBCHEM_EXT_SUBSTANCE_URL>
https://www.surechembl.org/chemical/SCHEMBL16114251

> <PUBCHEM_CID_ASSOCIATIONS>
117604511  1

> <PUBCHEM_COORDINATE_TYPE>
1
3

$$$$
