310934738
  -OEChem-07211613022D

 44 48  0     0  0  0  0  0  0999 V2000
   -5.6782   -0.8153    0.0000 S   0  0  0  0  0  0  0  0  0  0  0  0
    5.5753   -2.5861    0.0000 F   0  0  0  0  0  0  0  0  0  0  0  0
    6.3958   -2.4998    0.0000 F   0  0  0  0  0  0  0  0  0  0  0  0
    6.7314   -1.7462    0.0000 F   0  0  0  0  0  0  0  0  0  0  0  0
   -7.7181   -0.1862    0.0000 O   0  0  0  0  0  0  0  0  0  0  0  0
    5.4260   -1.1650    0.0000 O   0  0  0  0  0  0  0  0  0  0  0  0
   -4.1630   -0.8199    0.0000 O   0  0  0  0  0  0  0  0  0  0  0  0
   -6.3456    0.3407    0.0000 N   0  0  0  0  0  0  0  0  0  0  0  0
   -4.8775    0.4176    0.0000 N   0  0  0  0  0  0  0  0  0  0  0  0
    2.1440   -1.5099    0.0000 N   0  0  0  0  0  0  0  0  0  0  0  0
    1.5920   -0.8968    0.0000 N   0  0  0  0  0  0  0  0  0  0  0  0
    0.9245   -2.0528    0.0000 N   0  0  0  0  0  0  0  0  0  0  0  0
   -3.4485    0.4176    0.0000 N   0  0  0  0  0  0  0  0  0  0  0  0
   -6.5686    1.3898    0.0000 C   0  0  0  0  0  0  0  0  0  0  0  0
   -5.5919    0.0051    0.0000 C   0  0  0  0  0  0  0  0  0  0  0  0
   -6.8977   -0.2724    0.0000 C   0  0  0  0  0  0  0  0  0  0  0  0
   -7.3532    1.6447    0.0000 C   0  0  0  0  0  0  0  0  0  0  0  0
   -6.4852   -0.9869    0.0000 C   0  0  0  0  0  0  0  0  0  0  0  0
   -5.9555    1.9418    0.0000 C   0  0  0  0  0  0  0  0  0  0  0  0
    0.8383   -1.2324    0.0000 C   0  0  0  0  0  0  0  0  0  0  0  0
   -7.9663    1.0927    0.0000 C   0  0  0  0  0  0  0  0  0  0  0  0
   -7.5247    2.4517    0.0000 C   0  0  0  0  0  0  0  0  0  0  0  0
    0.1239   -0.8199    0.0000 C   0  0  0  0  0  0  0  0  0  0  0  0
    2.9645   -1.4237    0.0000 C   0  0  0  0  0  0  0  0  0  0  0  0
   -4.1630    0.0051    0.0000 C   0  0  0  0  0  0  0  0  0  0  0  0
   -6.1270    2.7488    0.0000 C   0  0  0  0  0  0  0  0  0  0  0  0
    1.7315   -2.2244    0.0000 C   0  0  0  0  0  0  0  0  0  0  0  0
   -6.9116    3.0037    0.0000 C   0  0  0  0  0  0  0  0  0  0  0  0
   -1.3051    0.0051    0.0000 C   0  0  0  0  0  0  0  0  0  0  0  0
   -0.5906   -1.2324    0.0000 C   0  0  0  0  0  0  0  0  0  0  0  0
    0.1239    0.0051    0.0000 C   0  0  0  0  0  0  0  0  0  0  0  0
    3.4494   -2.0911    0.0000 C   0  0  0  0  0  0  0  0  0  0  0  0
    3.3001   -0.6700    0.0000 C   0  0  0  0  0  0  0  0  0  0  0  0
    4.6054   -1.2512    0.0000 C   0  0  0  0  0  0  0  0  0  0  0  0
   -2.0195    0.4176    0.0000 C   0  0  0  0  0  0  0  0  0  0  0  0
   -1.3051   -0.8199    0.0000 C   0  0  0  0  0  0  0  0  0  0  0  0
   -0.5906    0.4176    0.0000 C   0  0  0  0  0  0  0  0  0  0  0  0
    4.2699   -2.0049    0.0000 C   0  0  0  0  0  0  0  0  0  0  0  0
    4.1205   -0.5837    0.0000 C   0  0  0  0  0  0  0  0  0  0  0  0
   -2.7341    0.0051    0.0000 C   0  0  0  0  0  0  0  0  0  0  0  0
   -7.7948    0.2857    0.0000 C   0  0  0  0  0  0  0  0  0  0  0  0
   -8.7509    1.3476    0.0000 C   0  0  0  0  0  0  0  0  0  0  0  0
    5.9109   -1.8324    0.0000 C   0  0  0  0  0  0  0  0  0  0  0  0
   -2.0195    1.2426    0.0000 C   0  0  0  0  0  0  0  0  0  0  0  0
  1 15  1  0  0  0  0
  1 18  1  0  0  0  0
  2 43  1  0  0  0  0
  3 43  1  0  0  0  0
  4 43  1  0  0  0  0
  5 16  2  0  0  0  0
  6 34  1  0  0  0  0
  6 43  1  0  0  0  0
  7 25  2  0  0  0  0
  8 14  1  0  0  0  0
  8 15  1  0  0  0  0
  8 16  1  0  0  0  0
  9 15  2  0  0  0  0
  9 25  1  0  0  0  0
 10 11  1  0  0  0  0
 10 24  1  0  0  0  0
 10 27  1  0  0  0  0
 11 20  2  0  0  0  0
 12 20  1  0  0  0  0
 12 27  2  0  0  0  0
 13 25  1  0  0  0  0
 13 40  1  0  0  0  0
 14 17  1  0  0  0  0
 14 19  2  0  0  0  0
 16 18  1  0  0  0  0
 17 21  1  0  0  0  0
 17 22  2  0  0  0  0
 19 26  1  0  0  0  0
 20 23  1  0  0  0  0
 21 41  1  0  0  0  0
 21 42  1  0  0  0  0
 22 28  1  0  0  0  0
 23 30  2  0  0  0  0
 23 31  1  0  0  0  0
 24 32  2  0  0  0  0
 24 33  1  0  0  0  0
 26 28  2  0  0  0  0
 29 35  1  0  0  0  0
 29 36  2  0  0  0  0
 29 37  1  0  0  0  0
 30 36  1  0  0  0  0
 31 37  2  0  0  0  0
 32 38  1  0  0  0  0
 33 39  2  0  0  0  0
 34 38  2  0  0  0  0
 34 39  1  0  0  0  0
 35 40  2  3  0  0  0
 35 44  1  0  0  0  0
M  END
> <PUBCHEM_COMPOUND_ID_TYPE>
0

> <PUBCHEM_TOTAL_CHARGE>
0

> <PUBCHEM_SUBSTANCE_ID>
310934738

> <PUBCHEM_SUBSTANCE_VERSION>
1

> <PUBCHEM_EXT_DATASOURCE_NAME>
4488

> <PUBCHEM_EXT_DATASOURCE_REGID>
SCHEMBL16112239

> <PUBCHEM_SUBSTANCE_COMMENT>
InChI=1S/C31H27F3N6O3S/c1-19(2)25-6-4-5-7-26(25)40-27(41)17-44-30(40)37-29(42)35-16-20(3)21-8-10-22(11-9-21)28-36-18-39(38-28)23-12-14-24(15-13-23)43-31(32,33)34/h4-16,18-19H,17H2,1-3H3,(H,35,42)/b20-16+,37-30-
InChIKey=FXVBQYGZBUKXAD-UEKPWFDLSA-N

> <PUBCHEM_SUBSTANCE_SYNONYM>
SCHEMBL16112239

> <PUBCHEM_XREF_EXT_ID>
SCHEMBL16112239

> <PUBCHEM_EXT_DATASOURCE_URL>
https://www.surechembl.org/

> <PUBCHEM_EXT_SUBSTANCE_URL>
https://www.surechembl.org/chemical/SCHEMBL16112239

> <PUBCHEM_CID_ASSOCIATIONS>
117602891  1

> <PUBCHEM_COORDINATE_TYPE>
1
3

> <PUBCHEM_BONDANNOTATIONS>
35  40  1

$$$$
