310950000
  -OEChem-07211613022D

 23 25  0     0  0  0  0  0  0999 V2000
    0.7180   -0.5437    0.0000 N   0  0  0  0  0  0  0  0  0  0  0  0
   -1.4291    0.7111    0.0000 N   0  0  0  0  0  0  0  0  0  0  0  0
   -2.8652    1.5476    0.0000 N   0  0  0  0  0  0  0  0  0  0  0  0
    1.4291   -0.9620    0.0000 C   0  0  0  0  0  0  0  0  0  0  0  0
    2.1402   -0.5298    0.0000 C   0  0  0  0  0  0  0  0  0  0  0  0
   -0.7041    0.3067    0.0000 C   0  0  0  0  0  0  0  0  0  0  0  0
   -0.0069   -0.9481    0.0000 C   0  0  0  0  0  0  0  0  0  0  0  0
    0.7180    0.2928    0.0000 C   0  0  0  0  0  0  0  0  0  0  0  0
   -0.7180   -0.5298    0.0000 C   0  0  0  0  0  0  0  0  0  0  0  0
   -0.0209    0.7111    0.0000 C   0  0  0  0  0  0  0  0  0  0  0  0
   -2.1402    0.2928    0.0000 C   0  0  0  0  0  0  0  0  0  0  0  0
    2.8792   -0.9481    0.0000 C   0  0  0  0  0  0  0  0  0  0  0  0
    2.1681    0.2928    0.0000 C   0  0  0  0  0  0  0  0  0  0  0  0
    0.8435   -1.5337    0.0000 C   0  0  0  0  0  0  0  0  0  0  0  0
    2.0426   -1.5476    0.0000 C   0  0  0  0  0  0  0  0  0  0  0  0
   -2.8652    0.7111    0.0000 C   0  0  0  0  0  0  0  0  0  0  0  0
   -2.1541   -0.5437    0.0000 C   0  0  0  0  0  0  0  0  0  0  0  0
    3.5763   -0.5298    0.0000 C   0  0  0  0  0  0  0  0  0  0  0  0
    2.8513    0.6971    0.0000 C   0  0  0  0  0  0  0  0  0  0  0  0
   -3.5763    0.2928    0.0000 C   0  0  0  0  0  0  0  0  0  0  0  0
    3.5763    0.2928    0.0000 C   0  0  0  0  0  0  0  0  0  0  0  0
   -2.8513   -0.9481    0.0000 C   0  0  0  0  0  0  0  0  0  0  0  0
   -3.5763   -0.5298    0.0000 C   0  0  0  0  0  0  0  0  0  0  0  0
  1  4  1  0  0  0  0
  1  7  1  0  0  0  0
  1  8  1  0  0  0  0
  2  6  1  0  0  0  0
  2 11  1  0  0  0  0
  3 16  1  0  0  0  0
  4  5  1  0  0  0  0
  4 14  1  0  0  0  0
  4 15  1  0  0  0  0
  5 12  2  0  0  0  0
  5 13  1  0  0  0  0
  6  9  1  0  0  0  0
  6 10  1  0  0  0  0
  7  9  1  0  0  0  0
  8 10  1  0  0  0  0
 11 16  2  0  0  0  0
 11 17  1  0  0  0  0
 12 18  1  0  0  0  0
 13 19  2  0  0  0  0
 16 20  1  0  0  0  0
 17 22  2  0  0  0  0
 18 21  2  0  0  0  0
 19 21  1  0  0  0  0
 20 23  2  0  0  0  0
 22 23  1  0  0  0  0
M  END
> <PUBCHEM_COMPOUND_ID_TYPE>
0

> <PUBCHEM_TOTAL_CHARGE>
0

> <PUBCHEM_SUBSTANCE_ID>
310950000

> <PUBCHEM_SUBSTANCE_VERSION>
1

> <PUBCHEM_EXT_DATASOURCE_NAME>
4488

> <PUBCHEM_EXT_DATASOURCE_REGID>
SCHEMBL16128229

> <PUBCHEM_SUBSTANCE_COMMENT>
InChI=1S/C20H27N3/c1-20(2,16-8-4-3-5-9-16)23-14-12-17(13-15-23)22-19-11-7-6-10-18(19)21/h3-11,17,22H,12-15,21H2,1-2H3
InChIKey=MBQHSSSFWJTUGU-UHFFFAOYSA-N

> <PUBCHEM_SUBSTANCE_SYNONYM>
SCHEMBL16128229

> <PUBCHEM_XREF_EXT_ID>
SCHEMBL16128229

> <PUBCHEM_EXT_DATASOURCE_URL>
https://www.surechembl.org/

> <PUBCHEM_EXT_SUBSTANCE_URL>
https://www.surechembl.org/chemical/SCHEMBL16128229

> <PUBCHEM_CID_ASSOCIATIONS>
117615237  1

> <PUBCHEM_COORDINATE_TYPE>
1
3

$$$$
