310947186
  -OEChem-07211613022D

 26 28  0     0  0  0  0  0  0999 V2000
   -0.3967  -14.6817    0.0000 O   0  0  0  0  0  0  0  0  0  0  0  0
   -1.1112  -10.1445    0.0000 O   0  0  0  0  0  0  0  0  0  0  0  0
   -2.5400  -10.1445    0.0000 O   0  0  0  0  0  0  0  0  0  0  0  0
    1.0323  -13.8567    0.0000 N   0  0  0  0  0  0  0  0  0  0  0  0
    1.0323  -14.6817    0.0000 N   0  0  0  0  0  0  0  0  0  0  0  0
    1.8168  -13.6019    0.0000 N   0  0  0  0  0  0  0  0  0  0  0  0
    0.3178  -13.4443    0.0000 C   0  0  0  0  0  0  0  0  0  0  0  0
    1.8168  -14.9366    0.0000 C   0  0  0  0  0  0  0  0  0  0  0  0
    2.3017  -14.2693    0.0000 C   0  0  0  0  0  0  0  0  0  0  0  0
   -0.3967  -13.8567    0.0000 C   0  0  0  0  0  0  0  0  0  0  0  0
    0.3178  -12.6193    0.0000 C   0  0  0  0  0  0  0  0  0  0  0  0
   -0.3967  -12.2068    0.0000 C   0  0  0  0  0  0  0  0  0  0  0  0
    2.1523  -15.6903    0.0000 C   0  0  0  0  0  0  0  0  0  0  0  0
    3.1221  -14.3555    0.0000 C   0  0  0  0  0  0  0  0  0  0  0  0
   -1.1112  -13.4443    0.0000 C   0  0  0  0  0  0  0  0  0  0  0  0
   -1.1112  -12.6193    0.0000 C   0  0  0  0  0  0  0  0  0  0  0  0
    2.9727  -15.7766    0.0000 C   0  0  0  0  0  0  0  0  0  0  0  0
    3.4577  -15.1091    0.0000 C   0  0  0  0  0  0  0  0  0  0  0  0
   -0.3967  -11.3818    0.0000 C   0  0  0  0  0  0  0  0  0  0  0  0
   -1.8255   -8.9070    0.0000 C   0  0  0  0  0  0  0  0  0  0  0  0
   -1.8255   -9.7319    0.0000 C   0  0  0  0  0  0  0  0  0  0  0  0
   -1.1112  -10.9694    0.0000 C   0  0  0  0  0  0  0  0  0  0  0  0
   -2.5400   -8.4945    0.0000 C   0  0  0  0  0  0  0  0  0  0  0  0
   -1.1112   -8.4945    0.0000 C   0  0  0  0  0  0  0  0  0  0  0  0
   -1.8255   -8.0820    0.0000 C   0  0  0  0  0  0  0  0  0  0  0  0
   -3.2544   -8.9070    0.0000 C   0  0  0  0  0  0  0  0  0  0  0  0
  1 10  1  0  0  0  0
  2 21  1  0  0  0  0
  2 22  1  0  0  0  0
  3 21  2  0  0  0  0
  4  5  1  0  0  0  0
  4  6  1  0  0  0  0
  4  7  1  0  0  0  0
  5  8  2  0  0  0  0
  6  9  2  0  0  0  0
  7 10  1  0  0  0  0
  7 11  2  0  0  0  0
  8  9  1  0  0  0  0
  8 13  1  0  0  0  0
  9 14  1  0  0  0  0
 10 15  2  0  0  0  0
 11 12  1  0  0  0  0
 12 16  2  0  0  0  0
 12 19  1  0  0  0  0
 13 17  2  0  0  0  0
 14 18  2  0  0  0  0
 15 16  1  0  0  0  0
 17 18  1  0  0  0  0
 19 22  1  0  0  0  0
 20 21  1  0  0  0  0
 20 23  1  0  0  0  0
 20 24  1  0  0  0  0
 20 25  1  0  0  0  0
 23 26  1  0  0  0  0
M  END
> <PUBCHEM_COMPOUND_ID_TYPE>
0

> <PUBCHEM_TOTAL_CHARGE>
0

> <PUBCHEM_SUBSTANCE_ID>
310947186

> <PUBCHEM_SUBSTANCE_VERSION>
1

> <PUBCHEM_EXT_DATASOURCE_NAME>
4488

> <PUBCHEM_EXT_DATASOURCE_REGID>
SCHEMBL16125340

> <PUBCHEM_SUBSTANCE_COMMENT>
InChI=1S/C20H23N3O3/c1-4-20(2,3)19(25)26-12-11-14-9-10-18(24)17(13-14)23-21-15-7-5-6-8-16(15)22-23/h5-10,13,24H,4,11-12H2,1-3H3
InChIKey=FKDFIFSIYAFKIE-UHFFFAOYSA-N

> <PUBCHEM_SUBSTANCE_SYNONYM>
SCHEMBL16125340

> <PUBCHEM_XREF_EXT_ID>
SCHEMBL16125340

> <PUBCHEM_EXT_DATASOURCE_URL>
https://www.surechembl.org/

> <PUBCHEM_EXT_SUBSTANCE_URL>
https://www.surechembl.org/chemical/SCHEMBL16125340

> <PUBCHEM_CID_ASSOCIATIONS>
21131120  1

> <PUBCHEM_COORDINATE_TYPE>
1
3

$$$$
