310944786
  -OEChem-07211613022D

 34 37  0     1  0  0  0  0  0999 V2000
   -5.0775   -0.3419    0.0000 Cl  0  0  0  0  0  0  0  0  0  0  0  0
    4.8774   -0.9421    0.0000 O   0  0  0  0  0  0  0  0  0  0  0  0
   -1.9759   -0.3419    0.0000 O   0  0  0  0  0  0  0  0  0  0  0  0
    4.1104   -2.1594    0.0000 O   0  0  0  0  0  0  0  0  0  0  0  0
   -0.5253    2.1594    0.0000 O   0  0  0  0  0  0  0  0  0  0  0  0
    3.4100   -0.9255    0.0000 N   0  0  0  0  0  0  0  0  0  0  0  0
    1.6758    0.0750    0.0000 N   0  0  0  0  0  0  0  0  0  0  0  0
    0.2251    0.9088    0.0000 N   0  0  0  0  0  0  0  0  0  0  0  0
   -1.9593    1.3256    0.0000 N   0  0  0  0  0  0  0  0  0  0  0  0
    2.3928   -0.3419    0.0000 C   0  0  0  0  0  0  0  0  0  0  0  0
   -4.1104    0.9088    0.0000 C   0  0  0  0  0  0  0  0  0  0  0  0
   -4.8441    1.3256    0.0000 C   0  0  0  0  0  0  0  0  0  0  0  0
   -2.6763    0.9255    0.0000 C   0  0  0  0  0  0  0  0  0  0  0  0
    2.5930   -1.1422    0.0000 C   0  0  0  0  0  0  0  0  0  0  0  0
    3.1932   -0.1417    0.0000 C   0  0  0  0  0  0  0  0  0  0  0  0
   -4.1104    0.0750    0.0000 C   0  0  0  0  0  0  0  0  0  0  0  0
   -2.6930    0.0917    0.0000 C   0  0  0  0  0  0  0  0  0  0  0  0
   -3.3933    1.3090    0.0000 C   0  0  0  0  0  0  0  0  0  0  0  0
    4.1104   -1.3424    0.0000 C   0  0  0  0  0  0  0  0  0  0  0  0
   -0.5253    1.3090    0.0000 C   0  0  0  0  0  0  0  0  0  0  0  0
   -3.3767   -0.3251    0.0000 C   0  0  0  0  0  0  0  0  0  0  0  0
   -1.2089    0.9088    0.0000 C   0  0  3  0  0  0  0  0  0  0  0  0
   -5.6612    1.3256    0.0000 C   0  0  0  0  0  0  0  0  0  0  0  0
   -5.2443    2.0260    0.0000 C   0  0  0  0  0  0  0  0  0  0  0  0
    1.6591    0.9088    0.0000 C   0  0  0  0  0  0  0  0  0  0  0  0
    0.9421   -0.3419    0.0000 C   0  0  0  0  0  0  0  0  0  0  0  0
    0.9421    1.3256    0.0000 C   0  0  0  0  0  0  0  0  0  0  0  0
    0.2251    0.0750    0.0000 C   0  0  0  0  0  0  0  0  0  0  0  0
    4.8941   -0.0917    0.0000 C   0  0  0  0  0  0  0  0  0  0  0  0
   -1.2256    0.0917    0.0000 C   0  0  0  0  0  0  0  0  0  0  0  0
   -1.9426   -1.1756    0.0000 C   0  0  0  0  0  0  0  0  0  0  0  0
    5.6612   -0.0584    0.0000 C   0  0  0  0  0  0  0  0  0  0  0  0
    4.1104   -0.0917    0.0000 C   0  0  0  0  0  0  0  0  0  0  0  0
    4.8774    0.7421    0.0000 C   0  0  0  0  0  0  0  0  0  0  0  0
  1 16  1  0  0  0  0
  2 19  1  0  0  0  0
  2 29  1  0  0  0  0
  3 17  1  0  0  0  0
  3 31  1  0  0  0  0
  4 19  2  0  0  0  0
  5 20  2  0  0  0  0
  6 14  1  0  0  0  0
  6 15  1  0  0  0  0
  6 19  1  0  0  0  0
  7 10  1  0  0  0  0
  7 25  1  0  0  0  0
  7 26  1  0  0  0  0
  8 20  1  0  0  0  0
  8 27  1  0  0  0  0
  8 28  1  0  0  0  0
  9 13  1  0  0  0  0
  9 22  1  0  0  0  0
 10 14  1  0  0  0  0
 10 15  1  0  0  0  0
 11 12  1  0  0  0  0
 11 16  2  0  0  0  0
 11 18  1  0  0  0  0
 12 23  1  0  0  0  0
 12 24  1  0  0  0  0
 13 17  1  0  0  0  0
 13 18  2  0  0  0  0
 16 21  1  0  0  0  0
 17 21  2  0  0  0  0
 20 22  1  0  0  0  0
 22 30  1  6  0  0  0
 23 24  1  0  0  0  0
 25 27  1  0  0  0  0
 26 28  1  0  0  0  0
 29 32  1  0  0  0  0
 29 33  1  0  0  0  0
 29 34  1  0  0  0  0
M  END
> <PUBCHEM_COMPOUND_ID_TYPE>
0

> <PUBCHEM_TOTAL_CHARGE>
0

> <PUBCHEM_SUBSTANCE_ID>
310944786

> <PUBCHEM_SUBSTANCE_VERSION>
1

> <PUBCHEM_EXT_DATASOURCE_NAME>
4488

> <PUBCHEM_EXT_DATASOURCE_REGID>
SCHEMBL16122865

> <PUBCHEM_SUBSTANCE_COMMENT>
InChI=1S/C25H37ClN4O4/c1-16(27-21-12-19(17-6-7-17)20(26)13-22(21)33-5)23(31)29-10-8-28(9-11-29)18-14-30(15-18)24(32)34-25(2,3)4/h12-13,16-18,27H,6-11,14-15H2,1-5H3/t16-/m0/s1
InChIKey=GXYXIPMHITYDJO-INIZCTEOSA-N

> <PUBCHEM_SUBSTANCE_SYNONYM>
SCHEMBL16122865

> <PUBCHEM_XREF_EXT_ID>
SCHEMBL16122865

> <PUBCHEM_EXT_DATASOURCE_URL>
https://www.surechembl.org/

> <PUBCHEM_EXT_SUBSTANCE_URL>
https://www.surechembl.org/chemical/SCHEMBL16122865

> <PUBCHEM_CID_ASSOCIATIONS>
117611000  1

> <PUBCHEM_COORDINATE_TYPE>
1
3

> <PUBCHEM_BONDANNOTATIONS>
22  30  6

$$$$
