310941531
  -OEChem-07211613022D

 39 44  0     0  0  0  0  0  0999 V2000
    0.7522    3.8038    0.0000 S   0  0  0  0  0  0  0  0  0  0  0  0
   -1.5728    1.1540    0.0000 O   0  0  0  0  0  0  0  0  0  0  0  0
   -3.0259    0.3163    0.0000 O   0  0  0  0  0  0  0  0  0  0  0  0
   -0.1539    1.1540    0.0000 O   0  0  0  0  0  0  0  0  0  0  0  0
    3.6413    2.8293    0.0000 O   0  0  0  0  0  0  0  0  0  0  0  0
    0.6154    2.4532    0.0000 N   0  0  0  0  0  0  0  0  0  0  0  0
    2.0002    2.9831    0.0000 N   0  0  0  0  0  0  0  0  0  0  0  0
   -0.8377    2.4019    0.0000 C   0  0  0  0  0  0  0  0  0  0  0  0
   -2.3249    1.5642    0.0000 C   0  0  0  0  0  0  0  0  0  0  0  0
   -2.3079    2.4019    0.0000 C   0  0  0  0  0  0  0  0  0  0  0  0
   -0.1710    2.7951    0.0000 C   0  0  0  0  0  0  0  0  0  0  0  0
   -0.8890    1.5642    0.0000 C   0  0  0  0  0  0  0  0  0  0  0  0
   -1.6070    2.7951    0.0000 C   0  0  0  0  0  0  0  0  0  0  0  0
   -3.0088    1.1540    0.0000 C   0  0  0  0  0  0  0  0  0  0  0  0
    1.1625    3.1028    0.0000 C   0  0  0  0  0  0  0  0  0  0  0  0
   -2.9917    2.7780    0.0000 C   0  0  0  0  0  0  0  0  0  0  0  0
   -0.0342    3.6328    0.0000 C   0  0  0  0  0  0  0  0  0  0  0  0
   -3.7097    1.5472    0.0000 C   0  0  0  0  0  0  0  0  0  0  0  0
   -3.7268    2.3848    0.0000 C   0  0  0  0  0  0  0  0  0  0  0  0
    2.3249    2.2480    0.0000 C   0  0  0  0  0  0  0  0  0  0  0  0
   -3.7097   -0.0941    0.0000 C   0  0  0  0  0  0  0  0  0  0  0  0
    3.1456    2.1284    0.0000 C   0  0  0  0  0  0  0  0  0  0  0  0
   -3.7439   -0.9317    0.0000 C   0  0  0  0  0  0  0  0  0  0  0  0
   -3.0259   -2.1455    0.0000 C   0  0  0  0  0  0  0  0  0  0  0  0
    1.8634    1.5642    0.0000 C   0  0  0  0  0  0  0  0  0  0  0  0
   -3.0259   -1.3420    0.0000 C   0  0  0  0  0  0  0  0  0  0  0  0
   -2.3079   -2.5729    0.0000 C   0  0  0  0  0  0  0  0  0  0  0  0
    3.4875    1.3933    0.0000 C   0  0  0  0  0  0  0  0  0  0  0  0
   -4.4277   -1.3249    0.0000 C   0  0  0  0  0  0  0  0  0  0  0  0
   -3.7268   -2.5729    0.0000 C   0  0  0  0  0  0  0  0  0  0  0  0
    2.1882    0.8291    0.0000 C   0  0  0  0  0  0  0  0  0  0  0  0
   -4.4448   -2.1626    0.0000 C   0  0  0  0  0  0  0  0  0  0  0  0
    3.0088    0.7436    0.0000 C   0  0  0  0  0  0  0  0  0  0  0  0
   -2.2908   -3.3934    0.0000 C   0  0  0  0  0  0  0  0  0  0  0  0
   -1.5899   -2.1797    0.0000 C   0  0  0  0  0  0  0  0  0  0  0  0
   -1.5557   -3.8038    0.0000 C   0  0  0  0  0  0  0  0  0  0  0  0
   -0.8719   -2.5899    0.0000 C   0  0  0  0  0  0  0  0  0  0  0  0
    4.4448    2.7609    0.0000 C   0  0  0  0  0  0  0  0  0  0  0  0
   -0.8719   -3.3934    0.0000 C   0  0  0  0  0  0  0  0  0  0  0  0
  1 15  1  0  0  0  0
  1 17  1  0  0  0  0
  2  9  1  0  0  0  0
  2 12  1  0  0  0  0
  3 14  1  0  0  0  0
  3 21  1  0  0  0  0
  4 12  2  0  0  0  0
  5 22  1  0  0  0  0
  5 38  1  0  0  0  0
  6 11  1  0  0  0  0
  6 15  2  0  0  0  0
  7 15  1  0  0  0  0
  7 20  1  0  0  0  0
  8 11  1  0  0  0  0
  8 12  1  0  0  0  0
  8 13  2  0  0  0  0
  9 10  1  0  0  0  0
  9 14  2  0  0  0  0
 10 13  1  0  0  0  0
 10 16  2  0  0  0  0
 11 17  2  0  0  0  0
 14 18  1  0  0  0  0
 16 19  1  0  0  0  0
 18 19  2  0  0  0  0
 20 22  1  0  0  0  0
 20 25  2  0  0  0  0
 21 23  1  0  0  0  0
 22 28  2  0  0  0  0
 23 26  1  0  0  0  0
 23 29  2  0  0  0  0
 24 26  2  0  0  0  0
 24 27  1  0  0  0  0
 24 30  1  0  0  0  0
 25 31  1  0  0  0  0
 27 34  2  0  0  0  0
 27 35  1  0  0  0  0
 28 33  1  0  0  0  0
 29 32  1  0  0  0  0
 30 32  2  0  0  0  0
 31 33  2  0  0  0  0
 34 36  1  0  0  0  0
 35 37  2  0  0  0  0
 36 39  2  0  0  0  0
 37 39  1  0  0  0  0
M  END
> <PUBCHEM_COMPOUND_ID_TYPE>
0

> <PUBCHEM_TOTAL_CHARGE>
0

> <PUBCHEM_SUBSTANCE_ID>
310941531

> <PUBCHEM_SUBSTANCE_VERSION>
1

> <PUBCHEM_EXT_DATASOURCE_NAME>
4488

> <PUBCHEM_EXT_DATASOURCE_REGID>
SCHEMBL16119562

> <PUBCHEM_SUBSTANCE_COMMENT>
InChI=1S/C32H24N2O4S/c1-36-28-15-6-5-14-26(28)33-32-34-27(20-39-32)25-18-24-13-8-16-29(30(24)38-31(25)35)37-19-21-9-7-12-23(17-21)22-10-3-2-4-11-22/h2-18,20H,19H2,1H3,(H,33,34)
InChIKey=KVDADEIZZCUQGV-UHFFFAOYSA-N

> <PUBCHEM_SUBSTANCE_SYNONYM>
SCHEMBL16119562

> <PUBCHEM_XREF_EXT_ID>
SCHEMBL16119562

> <PUBCHEM_EXT_DATASOURCE_URL>
https://www.surechembl.org/

> <PUBCHEM_EXT_SUBSTANCE_URL>
https://www.surechembl.org/chemical/SCHEMBL16119562

> <PUBCHEM_CID_ASSOCIATIONS>
117608339  1

> <PUBCHEM_COORDINATE_TYPE>
1
3

$$$$
