310933109
  -OEChem-07211613022D

 32 35  0     0  0  0  0  0  0999 V2000
    5.7436   -2.0626    0.0000 O   0  0  0  0  0  0  0  0  0  0  0  0
    1.6183   -3.7762    0.0000 O   0  0  0  0  0  0  0  0  0  0  0  0
    5.3628   -3.4588    0.0000 N   0  0  0  0  0  0  0  0  0  0  0  0
    5.7753   -4.1887    0.0000 N   0  0  0  0  0  0  0  0  0  0  0  0
    4.0935   -4.0300    0.0000 N   0  0  0  0  0  0  0  0  0  0  0  0
    1.7770   -2.3482    0.0000 N   0  0  0  0  0  0  0  0  0  0  0  0
    1.1424   -0.8568    0.0000 N   0  0  0  0  0  0  0  0  0  0  0  0
    9.5197   -0.7298    0.0000 N   0  0  0  0  0  0  0  0  0  0  0  0
    6.6638   -3.1732    0.0000 C   0  0  0  0  0  0  0  0  0  0  0  0
    5.9023   -2.8559    0.0000 C   0  0  0  0  0  0  0  0  0  0  0  0
    7.3619   -2.7607    0.0000 C   0  0  0  0  0  0  0  0  0  0  0  0
    4.5378   -3.3636    0.0000 C   0  0  0  0  0  0  0  0  0  0  0  0
    7.3619   -1.9674    0.0000 C   0  0  0  0  0  0  0  0  0  0  0  0
    6.5686   -3.9983    0.0000 C   0  0  0  0  0  0  0  0  0  0  0  0
    8.0918   -1.5549    0.0000 C   0  0  0  0  0  0  0  0  0  0  0  0
    8.0918   -3.1732    0.0000 C   0  0  0  0  0  0  0  0  0  0  0  0
    2.9194   -3.2050    0.0000 C   0  0  0  0  0  0  0  0  0  0  0  0
    8.7899   -1.9674    0.0000 C   0  0  0  0  0  0  0  0  0  0  0  0
    4.2204   -2.6020    0.0000 C   0  0  0  0  0  0  0  0  0  0  0  0
    2.1260   -3.1098    0.0000 C   0  0  0  0  0  0  0  0  0  0  0  0
    8.7899   -2.7607    0.0000 C   0  0  0  0  0  0  0  0  0  0  0  0
    3.2684   -3.9666    0.0000 C   0  0  0  0  0  0  0  0  0  0  0  0
    3.3954   -2.5386    0.0000 C   0  0  0  0  0  0  0  0  0  0  0  0
    6.6638   -1.5549    0.0000 C   0  0  0  0  0  0  0  0  0  0  0  0
    9.5197   -1.5549    0.0000 C   0  0  0  0  0  0  0  0  0  0  0  0
    8.0918   -0.7298    0.0000 C   0  0  0  0  0  0  0  0  0  0  0  0
    2.2847   -1.7135    0.0000 C   0  0  0  0  0  0  0  0  0  0  0  0
    0.9837   -2.2530    0.0000 C   0  0  0  0  0  0  0  0  0  0  0  0
    0.6346   -1.4914    0.0000 C   0  0  0  0  0  0  0  0  0  0  0  0
    1.9674   -0.9520    0.0000 C   0  0  0  0  0  0  0  0  0  0  0  0
    0.7933   -0.0952    0.0000 C   0  0  0  0  0  0  0  0  0  0  0  0
    0.0000    0.0000    0.0000 C   0  0  0  0  0  0  0  0  0  0  0  0
  1 10  1  0  0  0  0
  2 20  2  0  0  0  0
  3  4  1  0  0  0  0
  3 10  1  0  0  0  0
  3 12  1  0  0  0  0
  4 14  2  0  0  0  0
  5 12  1  0  0  0  0
  5 22  2  0  0  0  0
  6 20  1  0  0  0  0
  6 27  1  0  0  0  0
  6 28  1  0  0  0  0
  7 29  1  0  0  0  0
  7 30  1  0  0  0  0
  7 31  1  0  0  0  0
  8 25  3  0  0  0  0
  9 10  2  0  0  0  0
  9 11  1  0  0  0  0
  9 14  1  0  0  0  0
 11 13  2  0  0  0  0
 11 16  1  0  0  0  0
 12 19  2  0  0  0  0
 13 15  1  0  0  0  0
 13 24  1  0  0  0  0
 15 18  2  0  0  0  0
 15 26  1  0  0  0  0
 16 21  2  0  0  0  0
 17 20  1  0  0  0  0
 17 22  1  0  0  0  0
 17 23  2  0  0  0  0
 18 21  1  0  0  0  0
 18 25  1  0  0  0  0
 19 23  1  0  0  0  0
 27 30  1  0  0  0  0
 28 29  1  0  0  0  0
 31 32  1  0  0  0  0
M  END
> <PUBCHEM_COMPOUND_ID_TYPE>
0

> <PUBCHEM_TOTAL_CHARGE>
0

> <PUBCHEM_SUBSTANCE_ID>
310933109

> <PUBCHEM_SUBSTANCE_VERSION>
1

> <PUBCHEM_EXT_DATASOURCE_NAME>
4488

> <PUBCHEM_EXT_DATASOURCE_REGID>
SCHEMBL16110511

> <PUBCHEM_SUBSTANCE_COMMENT>
InChI=1S/C24H26N6O2/c1-4-28-9-11-29(12-10-28)23(31)19-6-8-22(26-14-19)30-24(32)21(15-27-30)20-7-5-18(13-25)16(2)17(20)3/h5-8,14-15,32H,4,9-12H2,1-3H3
InChIKey=DZAMHPAXCHOATI-UHFFFAOYSA-N

> <PUBCHEM_SUBSTANCE_SYNONYM>
SCHEMBL16110511

> <PUBCHEM_XREF_EXT_ID>
SCHEMBL16110511

> <PUBCHEM_EXT_DATASOURCE_URL>
https://www.surechembl.org/

> <PUBCHEM_EXT_SUBSTANCE_URL>
https://www.surechembl.org/chemical/SCHEMBL16110511

> <PUBCHEM_CID_ASSOCIATIONS>
117601566  1

> <PUBCHEM_COORDINATE_TYPE>
1
3

$$$$
