310932780
  -OEChem-07211613022D

 22 23  0     0  0  0  0  0  0999 V2000
    3.9258   -0.7331    0.0000 O   0  0  0  0  0  0  0  0  0  0  0  0
    3.2636   -3.0508    0.0000 O   0  0  0  0  0  0  0  0  0  0  0  0
    3.9258   -2.1521    0.0000 O   0  0  0  0  0  0  0  0  0  0  0  0
    1.0879   -3.3345    0.0000 O   0  0  0  0  0  0  0  0  0  0  0  0
    2.1521   -4.2805    0.0000 O   0  0  0  0  0  0  0  0  0  0  0  0
    2.1994   -0.7804    0.0000 N   0  0  0  0  0  0  0  0  0  0  0  0
    2.1994   -2.1048    0.0000 C   0  0  0  0  0  0  0  0  0  0  0  0
    2.6960   -1.4426    0.0000 C   0  0  0  0  0  0  0  0  0  0  0  0
    1.4189   -1.8683    0.0000 C   0  0  0  0  0  0  0  0  0  0  0  0
    1.4189   -1.0169    0.0000 C   0  0  0  0  0  0  0  0  0  0  0  0
    2.4595   -2.8852    0.0000 C   0  0  0  0  0  0  0  0  0  0  0  0
    3.5001   -1.4426    0.0000 C   0  0  0  0  0  0  0  0  0  0  0  0
    0.6859   -2.2703    0.0000 C   0  0  0  0  0  0  0  0  0  0  0  0
    0.6859   -0.6149    0.0000 C   0  0  0  0  0  0  0  0  0  0  0  0
    1.8919   -3.5001    0.0000 C   0  0  0  0  0  0  0  0  0  0  0  0
    2.4595    0.0000    0.0000 C   0  0  0  0  0  0  0  0  0  0  0  0
    0.0000   -1.8683    0.0000 C   0  0  0  0  0  0  0  0  0  0  0  0
    0.0000   -1.0169    0.0000 C   0  0  0  0  0  0  0  0  0  0  0  0
    4.7299   -0.7331    0.0000 C   0  0  0  0  0  0  0  0  0  0  0  0
    0.5439   -3.9494    0.0000 C   0  0  0  0  0  0  0  0  0  0  0  0
    5.1555   -0.0236    0.0000 C   0  0  0  0  0  0  0  0  0  0  0  0
    0.8041   -4.7299    0.0000 C   0  0  0  0  0  0  0  0  0  0  0  0
  1 12  1  0  0  0  0
  1 19  1  0  0  0  0
  2 11  2  0  0  0  0
  3 12  2  0  0  0  0
  4 15  1  0  0  0  0
  4 20  1  0  0  0  0
  5 15  2  0  0  0  0
  6  8  1  0  0  0  0
  6 10  1  0  0  0  0
  6 16  1  0  0  0  0
  7  8  2  0  0  0  0
  7  9  1  0  0  0  0
  7 11  1  0  0  0  0
  8 12  1  0  0  0  0
  9 10  2  0  0  0  0
  9 13  1  0  0  0  0
 10 14  1  0  0  0  0
 11 15  1  0  0  0  0
 13 17  2  0  0  0  0
 14 18  2  0  0  0  0
 17 18  1  0  0  0  0
 19 21  1  0  0  0  0
 20 22  1  0  0  0  0
M  END
> <PUBCHEM_COMPOUND_ID_TYPE>
0

> <PUBCHEM_TOTAL_CHARGE>
0

> <PUBCHEM_SUBSTANCE_ID>
310932780

> <PUBCHEM_SUBSTANCE_VERSION>
1

> <PUBCHEM_EXT_DATASOURCE_NAME>
4488

> <PUBCHEM_EXT_DATASOURCE_REGID>
SCHEMBL16110166

> <PUBCHEM_SUBSTANCE_COMMENT>
InChI=1S/C16H17NO5/c1-4-21-15(19)13-12(14(18)16(20)22-5-2)10-8-6-7-9-11(10)17(13)3/h6-9H,4-5H2,1-3H3
InChIKey=OEVDTRVATSPRGT-UHFFFAOYSA-N

> <PUBCHEM_SUBSTANCE_SYNONYM>
SCHEMBL16110166

> <PUBCHEM_XREF_EXT_ID>
SCHEMBL16110166

> <PUBCHEM_EXT_DATASOURCE_URL>
https://www.surechembl.org/

> <PUBCHEM_EXT_SUBSTANCE_URL>
https://www.surechembl.org/chemical/SCHEMBL16110166

> <PUBCHEM_CID_ASSOCIATIONS>
117601275  1

> <PUBCHEM_COORDINATE_TYPE>
1
3

$$$$
