310943823
  -OEChem-07211613022D

 33 37  0     1  0  0  0  0  0999 V2000
    2.3483    1.1494    0.0000 O   0  0  0  0  0  0  0  0  0  0  0  0
    5.3181    1.0064    0.0000 O   0  0  0  0  0  0  0  0  0  0  0  0
    5.0871    2.4473    0.0000 O   0  0  0  0  0  0  0  0  0  0  0  0
   -0.3465   -1.7214    0.0000 O   0  0  0  0  0  0  0  0  0  0  0  0
    3.3932    0.1155    0.0000 N   0  0  0  0  0  0  0  0  0  0  0  0
    0.4784   -0.3025    0.0000 N   0  0  0  0  0  0  0  0  0  0  0  0
   -2.8213   -1.7214    0.0000 N   0  0  0  0  0  0  0  0  0  0  0  0
   -4.0422   -1.0174    0.0000 N   0  0  0  0  0  0  0  0  0  0  0  0
   -1.9963   -0.3025    0.0000 N   0  0  0  0  0  0  0  0  0  0  0  0
   -4.5261   -0.3465    0.0000 N   0  0  0  0  0  0  0  0  0  0  0  0
   -5.3181   -0.5994    0.0000 N   0  0  0  0  0  0  0  0  0  0  0  0
   -5.3181   -1.4244    0.0000 N   0  0  0  0  0  0  0  0  0  0  0  0
    2.1173   -0.2805    0.0000 C   0  0  0  0  0  0  0  0  0  0  0  0
    2.6013    0.3685    0.0000 C   0  0  0  0  0  0  0  0  0  0  0  0
    3.3822   -0.6984    0.0000 C   0  0  3  0  0  0  0  0  0  0  0  0
    2.5903   -0.9514    0.0000 C   0  0  0  0  0  0  0  0  0  0  0  0
    4.0422    0.6104    0.0000 C   0  0  0  0  0  0  0  0  0  0  0  0
    1.6994   -1.0064    0.0000 C   0  0  0  0  0  0  0  0  0  0  0  0
    1.7103    0.4125    0.0000 C   0  0  0  0  0  0  0  0  0  0  0  0
    0.8854   -1.0064    0.0000 C   0  0  0  0  0  0  0  0  0  0  0  0
    0.8854    0.4235    0.0000 C   0  0  0  0  0  0  0  0  0  0  0  0
    4.0642    1.4353    0.0000 C   0  0  0  0  0  0  0  0  0  0  0  0
    4.8341    0.3574    0.0000 C   0  0  0  0  0  0  0  0  0  0  0  0
    4.0531   -1.1824    0.0000 C   0  0  0  0  0  0  0  0  0  0  0  0
    4.8121    1.6664    0.0000 C   0  0  0  0  0  0  0  0  0  0  0  0
   -1.5894   -1.0064    0.0000 C   0  0  0  0  0  0  0  0  0  0  0  0
   -0.3574   -0.2915    0.0000 C   0  0  0  0  0  0  0  0  0  0  0  0
   -0.7645   -1.0174    0.0000 C   0  0  3  0  0  0  0  0  0  0  0  0
   -1.9963   -1.7214    0.0000 C   0  0  0  0  0  0  0  0  0  0  0  0
   -3.2282   -1.0064    0.0000 C   0  0  0  0  0  0  0  0  0  0  0  0
   -2.8213   -0.2915    0.0000 C   0  0  0  0  0  0  0  0  0  0  0  0
   -4.5261   -1.6664    0.0000 C   0  0  0  0  0  0  0  0  0  0  0  0
   -1.5674   -2.4473    0.0000 C   0  0  0  0  0  0  0  0  0  0  0  0
  1 14  2  0  0  0  0
  2 23  1  0  0  0  0
  2 25  1  0  0  0  0
  3 25  2  0  0  0  0
  4 28  1  0  0  0  0
  5 14  1  0  0  0  0
  5 15  1  0  0  0  0
  5 17  1  0  0  0  0
  6 20  1  0  0  0  0
  6 21  1  0  0  0  0
  6 27  1  0  0  0  0
  7 29  2  0  0  0  0
  7 30  1  0  0  0  0
  8 10  1  0  0  0  0
  8 30  1  0  0  0  0
  8 32  1  0  0  0  0
  9 26  2  0  0  0  0
  9 31  1  0  0  0  0
 10 11  2  0  0  0  0
 11 12  1  0  0  0  0
 12 32  2  0  0  0  0
 13 14  1  0  0  0  0
 13 16  1  0  0  0  0
 13 18  1  0  0  0  0
 13 19  1  0  0  0  0
 15 16  1  0  0  0  0
 15 24  1  1  0  0  0
 17 22  2  0  0  0  0
 17 23  1  0  0  0  0
 18 20  1  0  0  0  0
 19 21  1  0  0  0  0
 22 25  1  0  0  0  0
 26 28  1  0  0  0  0
 26 29  1  0  0  0  0
 27 28  1  0  0  0  0
 29 33  1  0  0  0  0
 30 31  2  0  0  0  0
M  END
> <PUBCHEM_COMPOUND_ID_TYPE>
0

> <PUBCHEM_TOTAL_CHARGE>
0

> <PUBCHEM_SUBSTANCE_ID>
310943823

> <PUBCHEM_SUBSTANCE_VERSION>
1

> <PUBCHEM_EXT_DATASOURCE_NAME>
4488

> <PUBCHEM_EXT_DATASOURCE_REGID>
SCHEMBL16121894

> <PUBCHEM_SUBSTANCE_COMMENT>
InChI=1S/C21H26N8O4/c1-13-8-21(20(32)29(13)15-7-18(31)33-11-15)3-5-27(6-4-21)10-16(30)19-14(2)24-17(9-22-19)28-12-23-25-26-28/h7,9,12-13,16,30H,3-6,8,10-11H2,1-2H3/t13-,16?/m0/s1
InChIKey=ZABNUUBEURIEEC-KNVGNIICSA-N

> <PUBCHEM_SUBSTANCE_SYNONYM>
SCHEMBL16121894

> <PUBCHEM_XREF_EXT_ID>
SCHEMBL16121894

> <PUBCHEM_EXT_DATASOURCE_URL>
https://www.surechembl.org/

> <PUBCHEM_EXT_SUBSTANCE_URL>
https://www.surechembl.org/chemical/SCHEMBL16121894

> <PUBCHEM_CID_ASSOCIATIONS>
86270786  1

> <PUBCHEM_COORDINATE_TYPE>
1
3

> <PUBCHEM_BONDANNOTATIONS>
15  24  5

$$$$
