310946130
  -OEChem-07211613022D

 50 59  0     0  0  0  0  0  0999 V2000
    3.0491    7.0544    0.0000 O   0  0  0  0  0  0  0  0  0  0  0  0
   -0.2329    7.2259    0.0000 N   0  0  0  0  0  0  0  0  0  0  0  0
   -2.6899    5.6254    0.0000 C   0  0  0  0  0  0  0  0  0  0  0  0
   -1.8829    5.7970    0.0000 C   0  0  0  0  0  0  0  0  0  0  0  0
   -1.4704    5.0825    0.0000 C   0  0  0  0  0  0  0  0  0  0  0  0
   -2.7761    4.8050    0.0000 C   0  0  0  0  0  0  0  0  0  0  0  0
   -2.0224    4.4694    0.0000 C   0  0  0  0  0  0  0  0  0  0  0  0
   -1.6280   12.2973    0.0000 C   0  0  0  0  0  0  0  0  0  0  0  0
   -1.8829   11.5127    0.0000 C   0  0  0  0  0  0  0  0  0  0  0  0
   -2.2954   12.7823    0.0000 C   0  0  0  0  0  0  0  0  0  0  0  0
   -2.7079   11.5127    0.0000 C   0  0  0  0  0  0  0  0  0  0  0  0
   -2.9628   12.2973    0.0000 C   0  0  0  0  0  0  0  0  0  0  0  0
   -0.6454    6.5114    0.0000 C   0  0  0  0  0  0  0  0  0  0  0  0
   -1.4704    6.5114    0.0000 C   0  0  0  0  0  0  0  0  0  0  0  0
   -0.6454    5.0825    0.0000 C   0  0  0  0  0  0  0  0  0  0  0  0
    0.5921    7.2259    0.0000 C   0  0  0  0  0  0  0  0  0  0  0  0
   -1.4704   10.7983    0.0000 C   0  0  0  0  0  0  0  0  0  0  0  0
   -1.8829   10.0838    0.0000 C   0  0  0  0  0  0  0  0  0  0  0  0
   -0.2329    5.7970    0.0000 C   0  0  0  0  0  0  0  0  0  0  0  0
   -3.4435    4.3200    0.0000 C   0  0  0  0  0  0  0  0  0  0  0  0
   -0.6454    7.9404    0.0000 C   0  0  0  0  0  0  0  0  0  0  0  0
   -1.9362    3.6489    0.0000 C   0  0  0  0  0  0  0  0  0  0  0  0
    1.8296    6.5114    0.0000 C   0  0  0  0  0  0  0  0  0  0  0  0
   -3.1204   10.7983    0.0000 C   0  0  0  0  0  0  0  0  0  0  0  0
   -2.6899    6.4504    0.0000 C   0  0  0  0  0  0  0  0  0  0  0  0
   -3.5149    5.6254    0.0000 C   0  0  0  0  0  0  0  0  0  0  0  0
   -2.3816   13.6028    0.0000 C   0  0  0  0  0  0  0  0  0  0  0  0
    2.2421    7.2259    0.0000 C   0  0  0  0  0  0  0  0  0  0  0  0
   -1.4704    9.3693    0.0000 C   0  0  0  0  0  0  0  0  0  0  0  0
   -3.7165   12.6329    0.0000 C   0  0  0  0  0  0  0  0  0  0  0  0
    2.3816    5.8983    0.0000 C   0  0  0  0  0  0  0  0  0  0  0  0
    1.0046    6.5114    0.0000 C   0  0  0  0  0  0  0  0  0  0  0  0
   -2.7079   10.0838    0.0000 C   0  0  0  0  0  0  0  0  0  0  0  0
   -1.0446   12.8807    0.0000 C   0  0  0  0  0  0  0  0  0  0  0  0
   -0.8311   12.0838    0.0000 C   0  0  0  0  0  0  0  0  0  0  0  0
    3.1353    6.2339    0.0000 C   0  0  0  0  0  0  0  0  0  0  0  0
    1.0046    7.9404    0.0000 C   0  0  0  0  0  0  0  0  0  0  0  0
   -3.3573    3.4995    0.0000 C   0  0  0  0  0  0  0  0  0  0  0  0
   -2.6036    3.1640    0.0000 C   0  0  0  0  0  0  0  0  0  0  0  0
   -0.2329    8.6548    0.0000 C   0  0  0  0  0  0  0  0  0  0  0  0
   -1.4704    7.9404    0.0000 C   0  0  0  0  0  0  0  0  0  0  0  0
    1.8296    7.9404    0.0000 C   0  0  0  0  0  0  0  0  0  0  0  0
   -0.6454    9.3693    0.0000 C   0  0  0  0  0  0  0  0  0  0  0  0
   -1.8829    8.6548    0.0000 C   0  0  0  0  0  0  0  0  0  0  0  0
   -3.1353   13.9383    0.0000 C   0  0  0  0  0  0  0  0  0  0  0  0
   -3.8027   13.4534    0.0000 C   0  0  0  0  0  0  0  0  0  0  0  0
    2.2954    5.0779    0.0000 C   0  0  0  0  0  0  0  0  0  0  0  0
    3.8027    5.7490    0.0000 C   0  0  0  0  0  0  0  0  0  0  0  0
    2.9628    4.5929    0.0000 C   0  0  0  0  0  0  0  0  0  0  0  0
    3.7165    4.9285    0.0000 C   0  0  0  0  0  0  0  0  0  0  0  0
  1 28  1  0  0  0  0
  1 36  1  0  0  0  0
  2 13  1  0  0  0  0
  2 16  1  0  0  0  0
  2 21  1  0  0  0  0
  3  4  1  0  0  0  0
  3  6  1  0  0  0  0
  3 25  1  0  0  0  0
  3 26  1  0  0  0  0
  4  5  2  0  0  0  0
  4 14  1  0  0  0  0
  5  7  1  0  0  0  0
  5 15  1  0  0  0  0
  6  7  2  0  0  0  0
  6 20  1  0  0  0  0
  7 22  1  0  0  0  0
  8  9  1  0  0  0  0
  8 10  1  0  0  0  0
  8 34  1  0  0  0  0
  8 35  1  0  0  0  0
  9 11  2  0  0  0  0
  9 17  1  0  0  0  0
 10 12  2  0  0  0  0
 10 27  1  0  0  0  0
 11 12  1  0  0  0  0
 11 24  1  0  0  0  0
 12 30  1  0  0  0  0
 13 14  2  0  0  0  0
 13 19  1  0  0  0  0
 15 19  2  0  0  0  0
 16 32  2  0  0  0  0
 16 37  1  0  0  0  0
 17 18  2  0  0  0  0
 18 29  1  0  0  0  0
 18 33  1  0  0  0  0
 20 38  2  0  0  0  0
 21 40  2  0  0  0  0
 21 41  1  0  0  0  0
 22 39  2  0  0  0  0
 23 28  2  0  0  0  0
 23 31  1  0  0  0  0
 23 32  1  0  0  0  0
 24 33  2  0  0  0  0
 27 45  2  0  0  0  0
 28 42  1  0  0  0  0
 29 43  2  0  0  0  0
 29 44  1  0  0  0  0
 30 46  2  0  0  0  0
 31 36  2  0  0  0  0
 31 47  1  0  0  0  0
 36 48  1  0  0  0  0
 37 42  2  0  0  0  0
 38 39  1  0  0  0  0
 40 43  1  0  0  0  0
 41 44  2  0  0  0  0
 45 46  1  0  0  0  0
 47 49  2  0  0  0  0
 48 50  2  0  0  0  0
 49 50  1  0  0  0  0
M  END
> <PUBCHEM_COMPOUND_ID_TYPE>
0

> <PUBCHEM_TOTAL_CHARGE>
0

> <PUBCHEM_SUBSTANCE_ID>
310946130

> <PUBCHEM_SUBSTANCE_VERSION>
1

> <PUBCHEM_EXT_DATASOURCE_NAME>
4488

> <PUBCHEM_EXT_DATASOURCE_REGID>
SCHEMBL16124239

> <PUBCHEM_SUBSTANCE_COMMENT>
InChI=1S/C48H37NO/c1-47(2)41-14-8-5-11-35(41)37-24-19-31(27-43(37)47)30-17-20-32(21-18-30)49(33-23-26-46-40(28-33)39-13-7-10-16-45(39)50-46)34-22-25-38-36-12-6-9-15-42(36)48(3,4)44(38)29-34/h5-29H,1-4H3
InChIKey=RRMZGLXYGRGVME-UHFFFAOYSA-N

> <PUBCHEM_SUBSTANCE_SYNONYM>
SCHEMBL16124239

> <PUBCHEM_XREF_EXT_ID>
SCHEMBL16124239

> <PUBCHEM_EXT_DATASOURCE_URL>
https://www.surechembl.org/

> <PUBCHEM_EXT_SUBSTANCE_URL>
https://www.surechembl.org/chemical/SCHEMBL16124239

> <PUBCHEM_CID_ASSOCIATIONS>
117612089  1

> <PUBCHEM_COORDINATE_TYPE>
1
3

$$$$
