310937705
  -OEChem-07211613022D

 23 25  0     0  0  0  0  0  0999 V2000
    0.5517   -0.9721    0.0000 F   0  0  0  0  0  0  0  0  0  0  0  0
    0.0000   -2.2858    0.0000 F   0  0  0  0  0  0  0  0  0  0  0  0
    5.5700   -2.2070    0.0000 O   0  0  0  0  0  0  0  0  0  0  0  0
    1.4976   -2.9164    0.0000 O   0  0  0  0  0  0  0  0  0  0  0  0
    4.3352   -1.8129    0.0000 N   0  0  0  0  0  0  0  0  0  0  0  0
    3.7572   -3.8885    0.0000 N   0  0  0  0  0  0  0  0  0  0  0  0
    5.0971   -2.8901    0.0000 N   0  0  0  0  0  0  0  0  0  0  0  0
    3.6783   -3.1003    0.0000 C   0  0  0  0  0  0  0  0  0  0  0  0
    4.3352   -2.6274    0.0000 C   0  0  0  0  0  0  0  0  0  0  0  0
    2.3646   -4.0462    0.0000 C   0  0  0  0  0  0  0  0  0  0  0  0
    2.2595   -3.2580    0.0000 C   0  0  0  0  0  0  0  0  0  0  0  0
    5.0971   -1.5501    0.0000 C   0  0  0  0  0  0  0  0  0  0  0  0
    1.6815   -4.5191    0.0000 C   0  0  0  0  0  0  0  0  0  0  0  0
    2.9164   -2.7325    0.0000 C   0  0  0  0  0  0  0  0  0  0  0  0
    5.3598   -0.7619    0.0000 C   0  0  0  0  0  0  0  0  0  0  0  0
    3.1003   -4.3877    0.0000 C   0  0  0  0  0  0  0  0  0  0  0  0
    1.3399   -5.2547    0.0000 C   0  0  0  0  0  0  0  0  0  0  0  0
    0.8407   -4.5979    0.0000 C   0  0  0  0  0  0  0  0  0  0  0  0
    6.1480   -1.0247    0.0000 C   0  0  0  0  0  0  0  0  0  0  0  0
    5.6225    0.0000    0.0000 C   0  0  0  0  0  0  0  0  0  0  0  0
    4.5979   -0.5255    0.0000 C   0  0  0  0  0  0  0  0  0  0  0  0
    1.4187   -2.1282    0.0000 C   0  0  0  0  0  0  0  0  0  0  0  0
    0.6568   -1.7866    0.0000 C   0  0  0  0  0  0  0  0  0  0  0  0
  1 23  1  0  0  0  0
  2 23  1  0  0  0  0
  3  7  1  0  0  0  0
  3 12  1  0  0  0  0
  4 11  1  0  0  0  0
  4 22  1  0  0  0  0
  5  9  1  0  0  0  0
  5 12  2  0  0  0  0
  6  8  1  0  0  0  0
  6 16  2  0  0  0  0
  7  9  2  0  0  0  0
  8  9  1  0  0  0  0
  8 14  2  0  0  0  0
 10 11  2  0  0  0  0
 10 13  1  0  0  0  0
 10 16  1  0  0  0  0
 11 14  1  0  0  0  0
 12 15  1  0  0  0  0
 13 17  1  0  0  0  0
 13 18  1  0  0  0  0
 15 19  1  0  0  0  0
 15 20  1  0  0  0  0
 15 21  1  0  0  0  0
 17 18  1  0  0  0  0
 22 23  1  0  0  0  0
M  END
> <PUBCHEM_COMPOUND_ID_TYPE>
0

> <PUBCHEM_TOTAL_CHARGE>
0

> <PUBCHEM_SUBSTANCE_ID>
310937705

> <PUBCHEM_SUBSTANCE_VERSION>
1

> <PUBCHEM_EXT_DATASOURCE_NAME>
4488

> <PUBCHEM_EXT_DATASOURCE_REGID>
SCHEMBL16115499

> <PUBCHEM_SUBSTANCE_COMMENT>
InChI=1S/C16H19F2N3O2/c1-16(2,3)15-20-14(21-23-15)11-6-12(22-8-13(17)18)10(7-19-11)9-4-5-9/h6-7,9,13H,4-5,8H2,1-3H3
InChIKey=XAIZFSWQRNKAFS-UHFFFAOYSA-N

> <PUBCHEM_SUBSTANCE_SYNONYM>
SCHEMBL16115499

> <PUBCHEM_XREF_EXT_ID>
SCHEMBL16115499

> <PUBCHEM_EXT_DATASOURCE_URL>
https://www.surechembl.org/

> <PUBCHEM_EXT_SUBSTANCE_URL>
https://www.surechembl.org/chemical/SCHEMBL16115499

> <PUBCHEM_CID_ASSOCIATIONS>
117605383  1

> <PUBCHEM_COORDINATE_TYPE>
1
3

$$$$
