310943749
  -OEChem-07211613022D

 21 22  0     0  0  0  0  0  0999 V2000
    0.6614    1.6215    0.0000 O   0  0  0  0  0  0  0  0  0  0  0  0
   -0.0356   -3.0866    0.0000 O   0  0  0  0  0  0  0  0  0  0  0  0
   -1.5005   -3.0012    0.0000 O   0  0  0  0  0  0  0  0  0  0  0  0
   -0.0071   -1.5077    0.0000 N   0  0  0  0  0  0  0  0  0  0  0  0
   -0.7895   -1.7211    0.0000 N   0  0  0  0  0  0  0  0  0  0  0  0
   -0.0213    1.1379    0.0000 C   0  0  0  0  0  0  0  0  0  0  0  0
   -0.4196    2.4891    0.0000 C   0  0  0  0  0  0  0  0  0  0  0  0
   -0.6614    1.6500    0.0000 C   0  0  0  0  0  0  0  0  0  0  0  0
   -0.7183    0.6970    0.0000 C   0  0  0  0  0  0  0  0  0  0  0  0
    0.6757    0.6970    0.0000 C   0  0  0  0  0  0  0  0  0  0  0  0
    0.4053    2.4607    0.0000 C   0  0  0  0  0  0  0  0  0  0  0  0
   -0.0213   -0.5974    0.0000 C   0  0  0  0  0  0  0  0  0  0  0  0
   -0.7183   -0.1564    0.0000 C   0  0  0  0  0  0  0  0  0  0  0  0
    0.6757   -0.1707    0.0000 C   0  0  0  0  0  0  0  0  0  0  0  0
   -1.2445    2.4749    0.0000 C   0  0  0  0  0  0  0  0  0  0  0  0
   -0.4196    3.3852    0.0000 C   0  0  0  0  0  0  0  0  0  0  0  0
   -0.7895   -2.6029    0.0000 C   0  0  0  0  0  0  0  0  0  0  0  0
    0.7468   -2.7026    0.0000 C   0  0  0  0  0  0  0  0  0  0  0  0
    1.1450   -3.3852    0.0000 C   0  0  0  0  0  0  0  0  0  0  0  0
    0.3627   -2.0055    0.0000 C   0  0  0  0  0  0  0  0  0  0  0  0
    1.5005   -2.2900    0.0000 C   0  0  0  0  0  0  0  0  0  0  0  0
  1  6  1  0  0  0  0
  1 11  1  0  0  0  0
  2 17  1  0  0  0  0
  2 18  1  0  0  0  0
  3 17  2  0  0  0  0
  4  5  1  0  0  0  0
  4 12  2  0  0  0  0
  5 17  1  0  0  0  0
  6  8  1  0  0  0  0
  6  9  1  0  0  0  0
  6 10  1  0  0  0  0
  7  8  1  0  0  0  0
  7 11  1  0  0  0  0
  7 15  1  0  0  0  0
  7 16  1  0  0  0  0
  9 13  1  0  0  0  0
 10 14  1  0  0  0  0
 12 13  1  0  0  0  0
 12 14  1  0  0  0  0
 18 19  1  0  0  0  0
 18 20  1  0  0  0  0
 18 21  1  0  0  0  0
M  END
> <PUBCHEM_COMPOUND_ID_TYPE>
0

> <PUBCHEM_TOTAL_CHARGE>
0

> <PUBCHEM_SUBSTANCE_ID>
310943749

> <PUBCHEM_SUBSTANCE_VERSION>
1

> <PUBCHEM_EXT_DATASOURCE_NAME>
4488

> <PUBCHEM_EXT_DATASOURCE_REGID>
SCHEMBL16121818

> <PUBCHEM_SUBSTANCE_COMMENT>
InChI=1S/C16H28N2O3/c1-14(2,3)21-13(19)18-17-12-6-8-16(9-7-12)10-15(4,5)11-20-16/h6-11H2,1-5H3,(H,18,19)/b17-12-
InChIKey=ADLVQWYAYCUSIH-ATVHPVEESA-N

> <PUBCHEM_SUBSTANCE_SYNONYM>
SCHEMBL16121818

> <PUBCHEM_XREF_EXT_ID>
SCHEMBL16121818

> <PUBCHEM_EXT_DATASOURCE_URL>
https://www.surechembl.org/

> <PUBCHEM_EXT_SUBSTANCE_URL>
https://www.surechembl.org/chemical/SCHEMBL16121818

> <PUBCHEM_CID_ASSOCIATIONS>
117610111  1

> <PUBCHEM_COORDINATE_TYPE>
1
3

$$$$
