310932074
  -OEChem-07211613022D

 29 32  0     1  0  0  0  0  0999 V2000
    4.0461   -2.1382    0.0000 O   0  0  0  0  0  0  0  0  0  0  0  0
    8.5526   -2.2040    0.0000 O   0  0  0  0  0  0  0  0  0  0  0  0
    9.8684   -4.1447    0.0000 O   0  0  0  0  0  0  0  0  0  0  0  0
    4.9671   -0.9869    0.0000 N   0  0  0  0  0  0  0  0  0  0  0  0
    4.8684   -0.1645    0.0000 N   0  0  0  0  0  0  0  0  0  0  0  0
    6.3816   -0.9869    0.0000 N   0  0  0  0  0  0  0  0  0  0  0  0
    7.8289   -3.4539    0.0000 N   0  0  0  0  0  0  0  0  0  0  0  0
    0.0000   -1.8421    0.0000 N   0  0  0  0  0  0  0  0  0  0  0  0
    4.2105   -1.3158    0.0000 C   0  0  0  0  0  0  0  0  0  0  0  0
    3.6513   -0.7237    0.0000 C   0  0  0  0  0  0  0  0  0  0  0  0
    5.6579   -1.3816    0.0000 C   0  0  0  0  0  0  0  0  0  0  0  0
    2.8289   -0.7894    0.0000 C   0  0  0  0  0  0  0  0  0  0  0  0
    7.1053   -2.2040    0.0000 C   0  0  0  0  0  0  0  0  0  0  0  0
    4.0461    0.0000    0.0000 C   0  0  0  0  0  0  0  0  0  0  0  0
    6.3816   -2.6316    0.0000 C   0  0  0  0  0  0  0  0  0  0  0  0
    5.6579   -2.2040    0.0000 C   0  0  0  0  0  0  0  0  0  0  0  0
    7.1053   -1.3816    0.0000 C   0  0  0  0  0  0  0  0  0  0  0  0
    7.8289   -2.6316    0.0000 C   0  0  0  0  0  0  0  0  0  0  0  0
    2.5000   -1.5790    0.0000 C   0  0  0  0  0  0  0  0  0  0  0  0
    2.3355   -0.1316    0.0000 C   0  0  0  0  0  0  0  0  0  0  0  0
    1.1842   -0.9869    0.0000 C   0  0  0  0  0  0  0  0  0  0  0  0
    8.5526   -3.8816    0.0000 C   0  0  3  0  0  0  0  0  0  0  0  0
    1.6447   -1.6447    0.0000 C   0  0  0  0  0  0  0  0  0  0  0  0
    1.5132   -0.2303    0.0000 C   0  0  0  0  0  0  0  0  0  0  0  0
    6.3816   -3.4539    0.0000 C   0  0  0  0  0  0  0  0  0  0  0  0
    9.3092   -3.5526    0.0000 C   0  0  0  0  0  0  0  0  0  0  0  0
    8.6513   -4.7039    0.0000 C   0  0  0  0  0  0  0  0  0  0  0  0
    0.3289   -1.0855    0.0000 C   0  0  0  0  0  0  0  0  0  0  0  0
    9.4737   -4.8684    0.0000 C   0  0  0  0  0  0  0  0  0  0  0  0
  1  9  1  0  0  0  0
  2 18  2  0  0  0  0
  3 26  1  0  0  0  0
  3 29  1  0  0  0  0
  4  5  1  0  0  0  0
  4  9  1  0  0  0  0
  4 11  1  0  0  0  0
  5 14  2  0  0  0  0
  6 11  2  0  0  0  0
  6 17  1  0  0  0  0
  7 18  1  0  0  0  0
 22  7  1  6  0  0  0
  8 28  3  0  0  0  0
  9 10  2  0  0  0  0
 10 12  1  0  0  0  0
 10 14  1  0  0  0  0
 11 16  1  0  0  0  0
 12 19  2  0  0  0  0
 12 20  1  0  0  0  0
 13 15  1  0  0  0  0
 13 17  2  0  0  0  0
 13 18  1  0  0  0  0
 15 16  2  0  0  0  0
 15 25  1  0  0  0  0
 19 23  1  0  0  0  0
 20 24  2  0  0  0  0
 21 23  2  0  0  0  0
 21 24  1  0  0  0  0
 21 28  1  0  0  0  0
 22 26  1  0  0  0  0
 22 27  1  0  0  0  0
 27 29  1  0  0  0  0
M  END
> <PUBCHEM_COMPOUND_ID_TYPE>
0

> <PUBCHEM_TOTAL_CHARGE>
0

> <PUBCHEM_SUBSTANCE_ID>
310932074

> <PUBCHEM_SUBSTANCE_VERSION>
1

> <PUBCHEM_EXT_DATASOURCE_NAME>
4488

> <PUBCHEM_EXT_DATASOURCE_REGID>
SCHEMBL16109421

> <PUBCHEM_SUBSTANCE_COMMENT>
InChI=1S/C21H19N5O3/c1-13-8-19(23-10-17(13)20(27)25-16-6-7-29-12-16)26-21(28)18(11-24-26)15-4-2-14(9-22)3-5-15/h2-5,8,10-11,16,28H,6-7,12H2,1H3,(H,25,27)/t16-/m0/s1
InChIKey=MEOCTTJXSSLPSU-INIZCTEOSA-N

> <PUBCHEM_SUBSTANCE_SYNONYM>
SCHEMBL16109421

> <PUBCHEM_XREF_EXT_ID>
SCHEMBL16109421

> <PUBCHEM_EXT_DATASOURCE_URL>
https://www.surechembl.org/

> <PUBCHEM_EXT_SUBSTANCE_URL>
https://www.surechembl.org/chemical/SCHEMBL16109421

> <PUBCHEM_CID_ASSOCIATIONS>
117600701  1

> <PUBCHEM_COORDINATE_TYPE>
1
3

> <PUBCHEM_BONDANNOTATIONS>
22  7  6

$$$$
