310939005
  -OEChem-07211613022D

 26 29  0     0  0  0  0  0  0999 V2000
    1.9561   16.5893    0.0000 F   0  0  0  0  0  0  0  0  0  0  0  0
   -0.5913   17.9712    0.0000 O   0  0  0  0  0  0  0  0  0  0  0  0
   -0.5189   16.5893    0.0000 N   0  0  0  0  0  0  0  0  0  0  0  0
    3.1936   13.0169    0.0000 N   0  0  0  0  0  0  0  0  0  0  0  0
    1.9561   12.3024    0.0000 N   0  0  0  0  0  0  0  0  0  0  0  0
   -1.7885   17.0018    0.0000 C   0  0  0  0  0  0  0  0  0  0  0  0
   -1.0038   17.2567    0.0000 C   0  0  0  0  0  0  0  0  0  0  0  0
   -1.7885   16.1768    0.0000 C   0  0  0  0  0  0  0  0  0  0  0  0
   -1.0038   15.9218    0.0000 C   0  0  0  0  0  0  0  0  0  0  0  0
    0.7186   15.8748    0.0000 C   0  0  0  0  0  0  0  0  0  0  0  0
    0.3061   16.5893    0.0000 C   0  0  0  0  0  0  0  0  0  0  0  0
    1.5436   15.8748    0.0000 C   0  0  0  0  0  0  0  0  0  0  0  0
    1.5436   14.4458    0.0000 C   0  0  0  0  0  0  0  0  0  0  0  0
   -2.5029   17.4143    0.0000 C   0  0  0  0  0  0  0  0  0  0  0  0
    1.9561   13.7314    0.0000 C   0  0  0  0  0  0  0  0  0  0  0  0
   -2.5029   15.7643    0.0000 C   0  0  0  0  0  0  0  0  0  0  0  0
    1.9561   15.1603    0.0000 C   0  0  0  0  0  0  0  0  0  0  0  0
    0.3061   15.1603    0.0000 C   0  0  0  0  0  0  0  0  0  0  0  0
    0.7186   14.4458    0.0000 C   0  0  0  0  0  0  0  0  0  0  0  0
   -3.2174   17.0018    0.0000 C   0  0  0  0  0  0  0  0  0  0  0  0
   -3.2174   16.1768    0.0000 C   0  0  0  0  0  0  0  0  0  0  0  0
    2.7811   13.7314    0.0000 C   0  0  0  0  0  0  0  0  0  0  0  0
    1.5436   13.0169    0.0000 C   0  0  0  0  0  0  0  0  0  0  0  0
    2.7811   12.3024    0.0000 C   0  0  0  0  0  0  0  0  0  0  0  0
    3.1936   11.5880    0.0000 C   0  0  0  0  0  0  0  0  0  0  0  0
    2.7811   10.8735    0.0000 C   0  0  0  0  0  0  0  0  0  0  0  0
  1 12  1  0  0  0  0
  2  7  2  0  0  0  0
  3  7  1  0  0  0  0
  3  9  1  0  0  0  0
  3 11  1  0  0  0  0
  4 22  2  0  0  0  0
  4 24  1  0  0  0  0
  5 23  1  0  0  0  0
  5 24  2  0  0  0  0
  6  7  1  0  0  0  0
  6  8  1  0  0  0  0
  6 14  2  0  0  0  0
  8  9  1  0  0  0  0
  8 16  2  0  0  0  0
 10 11  1  0  0  0  0
 10 12  1  0  0  0  0
 10 18  2  0  0  0  0
 12 17  2  0  0  0  0
 13 15  1  0  0  0  0
 13 17  1  0  0  0  0
 13 19  2  0  0  0  0
 14 20  1  0  0  0  0
 15 22  1  0  0  0  0
 15 23  2  0  0  0  0
 16 21  1  0  0  0  0
 18 19  1  0  0  0  0
 20 21  2  0  0  0  0
 24 25  1  0  0  0  0
 25 26  1  0  0  0  0
M  END
> <PUBCHEM_COMPOUND_ID_TYPE>
0

> <PUBCHEM_TOTAL_CHARGE>
0

> <PUBCHEM_SUBSTANCE_ID>
310939005

> <PUBCHEM_SUBSTANCE_VERSION>
1

> <PUBCHEM_EXT_DATASOURCE_NAME>
4488

> <PUBCHEM_EXT_DATASOURCE_REGID>
SCHEMBL16116924

> <PUBCHEM_SUBSTANCE_COMMENT>
InChI=1S/C21H18FN3O/c1-2-20-23-10-17(11-24-20)14-7-8-16(19(22)9-14)13-25-12-15-5-3-4-6-18(15)21(25)26/h3-11H,2,12-13H2,1H3
InChIKey=ZEQMIABGWXWRIV-UHFFFAOYSA-N

> <PUBCHEM_SUBSTANCE_SYNONYM>
SCHEMBL16116924

> <PUBCHEM_XREF_EXT_ID>
SCHEMBL16116924

> <PUBCHEM_EXT_DATASOURCE_URL>
https://www.surechembl.org/

> <PUBCHEM_EXT_SUBSTANCE_URL>
https://www.surechembl.org/chemical/SCHEMBL16116924

> <PUBCHEM_CID_ASSOCIATIONS>
117606389  1

> <PUBCHEM_COORDINATE_TYPE>
1
3

$$$$
