310946913
  -OEChem-07211613022D

 32 36  0     0  0  0  0  0  0999 V2000
   -0.7874   -4.4649    0.0000 Cl  0  0  0  0  0  0  0  0  0  0  0  0
    1.8611    4.4649    0.0000 F   0  0  0  0  0  0  0  0  0  0  0  0
   -2.8454    0.1163    0.0000 O   0  0  0  0  0  0  0  0  0  0  0  0
   -0.0895   -0.0269    0.0000 N   0  0  0  0  0  0  0  0  0  0  0  0
   -0.4295   -0.7964    0.0000 N   0  0  0  0  0  0  0  0  0  0  0  0
   -1.8074   -1.3153    0.0000 N   0  0  0  0  0  0  0  0  0  0  0  0
   -2.1296    1.3511    0.0000 N   0  0  0  0  0  0  0  0  0  0  0  0
    1.3422    2.5322    0.0000 N   0  0  0  0  0  0  0  0  0  0  0  0
    2.8454   -0.1521    0.0000 N   0  0  0  0  0  0  0  0  0  0  0  0
    0.6801    0.1700    0.0000 C   0  0  0  0  0  0  0  0  0  0  0  0
   -0.7338    0.5280    0.0000 C   0  0  0  0  0  0  0  0  0  0  0  0
   -1.4137    0.1163    0.0000 C   0  0  0  0  0  0  0  0  0  0  0  0
   -1.2527   -0.6711    0.0000 C   0  0  0  0  0  0  0  0  0  0  0  0
   -2.1296    0.5458    0.0000 C   0  0  0  0  0  0  0  0  0  0  0  0
    0.1432    0.7248    0.0000 C   0  0  0  0  0  0  0  0  0  0  0  0
    1.5032    0.3669    0.0000 C   0  0  0  0  0  0  0  0  0  0  0  0
   -0.6979    1.3511    0.0000 C   0  0  0  0  0  0  0  0  0  0  0  0
    1.2527   -0.4921    0.0000 C   0  0  0  0  0  0  0  0  0  0  0  0
    1.1453    1.7269    0.0000 C   0  0  0  0  0  0  0  0  0  0  0  0
    0.3759    1.5300    0.0000 C   0  0  0  0  0  0  0  0  0  0  0  0
    1.7001    1.1543    0.0000 C   0  0  0  0  0  0  0  0  0  0  0  0
   -1.4316    1.7627    0.0000 C   0  0  0  0  0  0  0  0  0  0  0  0
   -1.5569   -2.0670    0.0000 C   0  0  0  0  0  0  0  0  0  0  0  0
    2.0580   -0.2953    0.0000 C   0  0  0  0  0  0  0  0  0  0  0  0
    2.0580    2.9438    0.0000 C   0  0  0  0  0  0  0  0  0  0  0  0
    0.9484    3.2659    0.0000 C   0  0  0  0  0  0  0  0  0  0  0  0
    1.6285    3.6596    0.0000 C   0  0  0  0  0  0  0  0  0  0  0  0
   -2.0759   -2.6932    0.0000 C   0  0  0  0  0  0  0  0  0  0  0  0
   -0.7516   -2.2817    0.0000 C   0  0  0  0  0  0  0  0  0  0  0  0
   -1.8433   -3.4986    0.0000 C   0  0  0  0  0  0  0  0  0  0  0  0
   -0.5011   -3.0512    0.0000 C   0  0  0  0  0  0  0  0  0  0  0  0
   -1.0379   -3.6776    0.0000 C   0  0  0  0  0  0  0  0  0  0  0  0
  1 32  1  0  0  0  0
  2 27  1  0  0  0  0
  3 14  2  0  0  0  0
  4  5  1  0  0  0  0
  4 10  1  0  0  0  0
  4 11  1  0  0  0  0
  5 13  2  0  0  0  0
  6 13  1  0  0  0  0
  6 23  1  0  0  0  0
  7 14  1  0  0  0  0
  7 22  1  0  0  0  0
 19  8  1  6  0  0  0
  8 25  1  0  0  0  0
  8 26  1  0  0  0  0
  9 24  3  0  0  0  0
 10 15  1  0  0  0  0
 10 16  1  0  0  0  0
 10 18  1  6  0  0  0
 11 12  2  0  0  0  0
 11 17  1  0  0  0  0
 12 13  1  0  0  0  0
 12 14  1  0  0  0  0
 15 20  1  0  0  0  0
 16 21  1  0  0  0  0
 17 22  2  0  0  0  0
 18 24  1  0  0  0  0
 19 20  1  0  0  0  0
 19 21  1  0  0  0  0
 23 28  2  0  0  0  0
 23 29  1  0  0  0  0
 25 27  1  0  0  0  0
 26 27  1  0  0  0  0
 28 30  1  0  0  0  0
 29 31  2  0  0  0  0
 30 32  2  0  0  0  0
 31 32  1  0  0  0  0
M  END
> <PUBCHEM_COMPOUND_ID_TYPE>
0

> <PUBCHEM_TOTAL_CHARGE>
0

> <PUBCHEM_SUBSTANCE_ID>
310946913

> <PUBCHEM_SUBSTANCE_VERSION>
1

> <PUBCHEM_EXT_DATASOURCE_NAME>
4488

> <PUBCHEM_EXT_DATASOURCE_REGID>
SCHEMBL16125037

> <PUBCHEM_SUBSTANCE_COMMENT>
InChI=1S/C23H24ClFN6O/c24-15-1-3-17(4-2-15)28-21-20-19(7-12-27-22(20)32)31(29-21)23(10-11-26)8-5-18(6-9-23)30-13-16(25)14-30/h1-4,7,12,16,18H,5-6,8-10,13-14H2,(H,27,32)(H,28,29)/t18-,23-
InChIKey=DNWOWZCLGNAEIL-RXAXNXDRSA-N

> <PUBCHEM_SUBSTANCE_SYNONYM>
SCHEMBL16125037

> <PUBCHEM_XREF_EXT_ID>
SCHEMBL16125037

> <PUBCHEM_EXT_DATASOURCE_URL>
https://www.surechembl.org/

> <PUBCHEM_EXT_SUBSTANCE_URL>
https://www.surechembl.org/chemical/SCHEMBL16125037

> <PUBCHEM_CID_ASSOCIATIONS>
86274806  1

> <PUBCHEM_COORDINATE_TYPE>
1
3

> <PUBCHEM_BONDANNOTATIONS>
10  18  6
19  8  6

$$$$
