310933440
  -OEChem-07211613022D

 21 22  0     0  0  0  0  0  0999 V2000
    0.7119   -2.4802    0.0000 F   0  0  0  0  0  0  0  0  0  0  0  0
    1.7454   -4.5701    0.0000 O   0  0  0  0  0  0  0  0  0  0  0  0
    0.0000   -1.2401    0.0000 O   0  5  0  0  0  0  0  0  0  0  0  0
    0.7119    0.0000    0.0000 O   0  0  0  0  0  0  0  0  0  0  0  0
    3.5826    0.0000    0.0000 O   0  0  0  0  0  0  0  0  0  0  0  0
    4.2945   -1.2401    0.0000 O   0  0  0  0  0  0  0  0  0  0  0  0
    0.7119   -0.8267    0.0000 N   0  3  0  0  0  0  0  0  0  0  0  0
    2.5721   -4.5931    0.0000 N   0  0  0  0  0  0  0  0  0  0  0  0
    2.1588    0.0000    0.0000 N   0  0  0  0  0  0  0  0  0  0  0  0
    2.1588   -2.4802    0.0000 C   0  0  0  0  0  0  0  0  0  0  0  0
    1.4238   -2.0669    0.0000 C   0  0  0  0  0  0  0  0  0  0  0  0
    1.4238   -1.2401    0.0000 C   0  0  0  0  0  0  0  0  0  0  0  0
    2.1588   -3.3070    0.0000 C   0  0  0  0  0  0  0  0  0  0  0  0
    2.1588   -0.8267    0.0000 C   0  0  0  0  0  0  0  0  0  0  0  0
    2.8706   -1.2401    0.0000 C   0  0  0  0  0  0  0  0  0  0  0  0
    2.8706   -2.0669    0.0000 C   0  0  0  0  0  0  0  0  0  0  0  0
    1.4927   -3.8123    0.0000 C   0  0  0  0  0  0  0  0  0  0  0  0
    2.8247   -3.7893    0.0000 C   0  0  0  0  0  0  0  0  0  0  0  0
    3.5826   -0.8267    0.0000 C   0  0  0  0  0  0  0  0  0  0  0  0
    0.7119   -3.5597    0.0000 C   0  0  0  0  0  0  0  0  0  0  0  0
    3.6056   -3.5367    0.0000 C   0  0  0  0  0  0  0  0  0  0  0  0
  1 11  1  0  0  0  0
  2  8  1  0  0  0  0
  2 17  1  0  0  0  0
  3  7  1  0  0  0  0
  4  7  2  0  0  0  0
  5 19  2  0  0  0  0
  6 19  1  0  0  0  0
  7 12  1  0  0  0  0
  8 18  2  0  0  0  0
  9 14  1  0  0  0  0
 10 11  1  0  0  0  0
 10 13  1  0  0  0  0
 10 16  2  0  0  0  0
 11 12  2  0  0  0  0
 12 14  1  0  0  0  0
 13 17  2  0  0  0  0
 13 18  1  0  0  0  0
 14 15  2  0  0  0  0
 15 16  1  0  0  0  0
 15 19  1  0  0  0  0
 17 20  1  0  0  0  0
 18 21  1  0  0  0  0
M  CHG  2   3  -1   7   1
M  END
> <PUBCHEM_COMPOUND_ID_TYPE>
0

> <PUBCHEM_TOTAL_CHARGE>
0

> <PUBCHEM_SUBSTANCE_ID>
310933440

> <PUBCHEM_SUBSTANCE_VERSION>
1

> <PUBCHEM_EXT_DATASOURCE_NAME>
4488

> <PUBCHEM_EXT_DATASOURCE_REGID>
SCHEMBL16110858

> <PUBCHEM_SUBSTANCE_COMMENT>
InChI=1S/C12H10FN3O5/c1-4-8(5(2)21-15-4)6-3-7(12(17)18)10(14)11(9(6)13)16(19)20/h3H,14H2,1-2H3,(H,17,18)
InChIKey=VBYNTZHIDYEJGJ-UHFFFAOYSA-N

> <PUBCHEM_SUBSTANCE_SYNONYM>
SCHEMBL16110858

> <PUBCHEM_XREF_EXT_ID>
SCHEMBL16110858

> <PUBCHEM_EXT_DATASOURCE_URL>
https://www.surechembl.org/

> <PUBCHEM_EXT_SUBSTANCE_URL>
https://www.surechembl.org/chemical/SCHEMBL16110858

> <PUBCHEM_CID_ASSOCIATIONS>
117601842  1

> <PUBCHEM_COORDINATE_TYPE>
1
3

$$$$
