310935792
  -OEChem-07211613022D

 39 42  0     0  0  0  0  0  0999 V2000
    6.4302    1.2375    0.0000 S   0  0  0  0  0  0  0  0  0  0  0  0
   13.1432    2.8875    0.0000 F   0  0  0  0  0  0  0  0  0  0  0  0
    9.3583    2.2201    0.0000 O   0  0  0  0  0  0  0  0  0  0  0  0
    9.0612    4.9527    0.0000 O   0  0  0  0  0  0  0  0  0  0  0  0
    6.4302    4.5375    0.0000 O   0  0  0  0  0  0  0  0  0  0  0  0
    6.4302    0.4125    0.0000 O   0  0  0  0  0  0  0  0  0  0  0  0
    5.6052    1.2375    0.0000 O   0  0  0  0  0  0  0  0  0  0  0  0
   10.4202    4.5111    0.0000 N   0  0  0  0  0  0  0  0  0  0  0  0
    5.7158    3.3000    0.0000 N   0  0  0  0  0  0  0  0  0  0  0  0
    8.5737    3.3000    0.0000 C   0  0  0  0  0  0  0  0  0  0  0  0
    7.8592    3.7125    0.0000 C   0  0  0  0  0  0  0  0  0  0  0  0
    9.3583    3.5549    0.0000 C   0  0  0  0  0  0  0  0  0  0  0  0
    8.5737    2.4750    0.0000 C   0  0  0  0  0  0  0  0  0  0  0  0
    7.1447    3.3000    0.0000 C   0  0  0  0  0  0  0  0  0  0  0  0
    9.8432    2.8875    0.0000 C   0  0  0  0  0  0  0  0  0  0  0  0
    7.1447    2.4750    0.0000 C   0  0  0  0  0  0  0  0  0  0  0  0
    7.8592    2.0625    0.0000 C   0  0  0  0  0  0  0  0  0  0  0  0
    7.8592    4.5375    0.0000 C   0  0  0  0  0  0  0  0  0  0  0  0
    9.6132    4.3396    0.0000 C   0  0  0  0  0  0  0  0  0  0  0  0
   10.6682    2.8875    0.0000 C   0  0  0  0  0  0  0  0  0  0  0  0
    6.4302    3.7125    0.0000 C   0  0  0  0  0  0  0  0  0  0  0  0
    6.4302    2.0625    0.0000 C   0  0  0  0  0  0  0  0  0  0  0  0
    7.1447    4.9500    0.0000 C   0  0  0  0  0  0  0  0  0  0  0  0
    8.5737    4.9500    0.0000 C   0  0  0  0  0  0  0  0  0  0  0  0
   11.0807    3.6020    0.0000 C   0  0  0  0  0  0  0  0  0  0  0  0
   11.0807    2.1730    0.0000 C   0  0  0  0  0  0  0  0  0  0  0  0
    7.1447    5.7750    0.0000 C   0  0  0  0  0  0  0  0  0  0  0  0
    8.5737    5.7750    0.0000 C   0  0  0  0  0  0  0  0  0  0  0  0
   11.9057    3.6020    0.0000 C   0  0  0  0  0  0  0  0  0  0  0  0
   11.9057    2.1730    0.0000 C   0  0  0  0  0  0  0  0  0  0  0  0
   12.3182    2.8875    0.0000 C   0  0  0  0  0  0  0  0  0  0  0  0
    7.8592    6.1875    0.0000 C   0  0  0  0  0  0  0  0  0  0  0  0
    5.0013    3.7125    0.0000 C   0  0  0  0  0  0  0  0  0  0  0  0
    7.2552    1.2375    0.0000 C   0  0  0  0  0  0  0  0  0  0  0  0
   10.6751    5.2957    0.0000 C   0  0  0  0  0  0  0  0  0  0  0  0
    4.2868    3.3000    0.0000 C   0  0  0  0  0  0  0  0  0  0  0  0
    3.5724    3.7125    0.0000 C   0  0  0  0  0  0  0  0  0  0  0  0
    2.8579    3.3000    0.0000 C   0  0  0  0  0  0  0  0  0  0  0  0
    2.1434    3.7125    0.0000 C   0  0  0  0  0  0  0  0  0  0  0  0
  1  6  2  0  0  0  0
  1  7  2  0  0  0  0
  1 22  1  0  0  0  0
  1 34  1  0  0  0  0
  2 31  1  0  0  0  0
  3 13  1  0  0  0  0
  3 15  1  0  0  0  0
  4 19  2  0  0  0  0
  5 21  2  0  0  0  0
  8 19  1  0  0  0  0
  8 35  1  0  0  0  0
  9 21  1  0  0  0  0
  9 33  1  0  0  0  0
 10 11  1  0  0  0  0
 10 12  1  0  0  0  0
 10 13  2  0  0  0  0
 11 14  2  0  0  0  0
 11 18  1  0  0  0  0
 12 15  2  0  0  0  0
 12 19  1  0  0  0  0
 13 17  1  0  0  0  0
 14 16  1  0  0  0  0
 14 21  1  0  0  0  0
 15 20  1  0  0  0  0
 16 17  2  0  0  0  0
 16 22  1  0  0  0  0
 18 23  2  0  0  0  0
 18 24  1  0  0  0  0
 20 25  2  0  0  0  0
 20 26  1  0  0  0  0
 23 27  1  0  0  0  0
 24 28  2  0  0  0  0
 25 29  1  0  0  0  0
 26 30  2  0  0  0  0
 27 32  2  0  0  0  0
 28 32  1  0  0  0  0
 29 31  2  0  0  0  0
 30 31  1  0  0  0  0
 33 36  1  0  0  0  0
 36 37  1  0  0  0  0
 37 38  1  0  0  0  0
 38 39  1  0  0  0  0
M  END
> <PUBCHEM_COMPOUND_ID_TYPE>
0

> <PUBCHEM_TOTAL_CHARGE>
0

> <PUBCHEM_SUBSTANCE_ID>
310935792

> <PUBCHEM_SUBSTANCE_VERSION>
1

> <PUBCHEM_EXT_DATASOURCE_NAME>
4488

> <PUBCHEM_EXT_DATASOURCE_REGID>
SCHEMBL16113378

> <PUBCHEM_SUBSTANCE_COMMENT>
InChI=1S/C30H31FN2O5S/c1-4-5-9-16-33-30(35)25-21(18-39(3,36)37)17-23-26(24(25)19-10-7-6-8-11-19)27(29(34)32-2)28(38-23)20-12-14-22(31)15-13-20/h6-8,10-15,17H,4-5,9,16,18H2,1-3H3,(H,32,34)(H,33,35)
InChIKey=LAFNQRIDDQGPQR-UHFFFAOYSA-N

> <PUBCHEM_SUBSTANCE_SYNONYM>
SCHEMBL16113378

> <PUBCHEM_XREF_EXT_ID>
SCHEMBL16113378

> <PUBCHEM_EXT_DATASOURCE_URL>
https://www.surechembl.org/

> <PUBCHEM_EXT_SUBSTANCE_URL>
https://www.surechembl.org/chemical/SCHEMBL16113378

> <PUBCHEM_CID_ASSOCIATIONS>
117603786  1

> <PUBCHEM_COORDINATE_TYPE>
1
3

$$$$
