310943066
  -OEChem-07211613022D

 31 34  0     1  0  0  0  0  0999 V2000
   -1.3224   -3.1880    0.0000 S   0  0  0  0  0  0  0  0  0  0  0  0
   -0.9131   -0.9210    0.0000 O   0  0  0  0  0  0  0  0  0  0  0  0
    0.4565    3.6130    0.0000 O   0  0  0  0  0  0  0  0  0  0  0  0
   -0.6927   -3.7232    0.0000 O   0  0  0  0  0  0  0  0  0  0  0  0
   -1.8419   -3.8020    0.0000 O   0  0  0  0  0  0  0  0  0  0  0  0
    0.5510    1.4405    0.0000 N   0  0  0  0  0  0  0  0  0  0  0  0
    1.0548    0.7793    0.0000 N   0  0  0  0  0  0  0  0  0  0  0  0
    0.8501   -0.6848    0.0000 N   0  0  0  0  0  0  0  0  0  0  0  0
   -1.6530    0.3070    0.0000 N   0  0  0  0  0  0  0  0  0  0  0  0
   -1.0390   -1.7711    0.0000 N   0  0  0  0  0  0  0  0  0  0  0  0
   -1.9364   -2.6370    0.0000 N   0  0  0  0  0  0  0  0  0  0  0  0
    2.7236    1.2044    0.0000 N   0  0  0  0  0  0  0  0  0  0  0  0
   -0.2361    0.3385    0.0000 C   0  0  0  0  0  0  0  0  0  0  0  0
   -0.2361    1.1729    0.0000 C   0  0  0  0  0  0  0  0  0  0  0  0
    0.5667    0.1023    0.0000 C   0  0  0  0  0  0  0  0  0  0  0  0
    0.8029    2.2434    0.0000 C   0  0  3  0  0  0  0  0  0  0  0  0
   -0.9288   -0.0866    0.0000 C   0  0  0  0  0  0  0  0  0  0  0  0
   -0.9761    1.5665    0.0000 C   0  0  0  0  0  0  0  0  0  0  0  0
    1.5901    2.4009    0.0000 C   0  0  3  0  0  0  0  0  0  0  0  0
    0.2991   -1.2988    0.0000 C   0  0  0  0  0  0  0  0  0  0  0  0
   -0.7714   -2.5425    0.0000 C   0  0  0  0  0  0  0  0  0  0  0  0
   -1.6530    1.1414    0.0000 C   0  0  0  0  0  0  0  0  0  0  0  0
    0.2204    2.8259    0.0000 C   0  0  0  0  0  0  0  0  0  0  0  0
   -0.5038   -1.1571    0.0000 C   0  0  0  0  0  0  0  0  0  0  0  0
    0.5825   -2.0859    0.0000 C   0  0  0  0  0  0  0  0  0  0  0  0
    0.0473   -2.6999    0.0000 C   0  0  0  0  0  0  0  0  0  0  0  0
    1.8419    3.2038    0.0000 C   0  0  0  0  0  0  0  0  0  0  0  0
    2.1411    1.8026    0.0000 C   0  0  0  0  0  0  0  0  0  0  0  0
    1.2752    3.8020    0.0000 C   0  0  0  0  0  0  0  0  0  0  0  0
   -1.7947   -1.8184    0.0000 C   0  0  0  0  0  0  0  0  0  0  0  0
   -2.7236   -2.9203    0.0000 C   0  0  0  0  0  0  0  0  0  0  0  0
  1  4  2  0  0  0  0
  1  5  2  0  0  0  0
  1 11  1  0  0  0  0
  1 21  1  0  0  0  0
  2 17  2  0  0  0  0
  3 23  1  0  0  0  0
  3 29  1  0  0  0  0
  6  7  1  0  0  0  0
  6 14  1  0  0  0  0
 16  6  1  1  0  0  0
  7 15  2  0  0  0  0
  8 15  1  0  0  0  0
  8 20  1  0  0  0  0
  9 17  1  0  0  0  0
  9 22  1  0  0  0  0
 10 21  1  0  0  0  0
 10 24  2  0  0  0  0
 11 30  1  0  0  0  0
 11 31  1  0  0  0  0
 12 28  3  0  0  0  0
 13 14  2  0  0  0  0
 13 15  1  0  0  0  0
 13 17  1  0  0  0  0
 14 18  1  0  0  0  0
 16 19  1  0  0  0  0
 16 23  1  0  0  0  0
 18 22  2  0  0  0  0
 19 27  1  0  0  0  0
 19 28  1  6  0  0  0
 20 24  1  0  0  0  0
 20 25  2  0  0  0  0
 21 26  2  0  0  0  0
 25 26  1  0  0  0  0
 27 29  1  0  0  0  0
M  END
> <PUBCHEM_COMPOUND_ID_TYPE>
0

> <PUBCHEM_TOTAL_CHARGE>
0

> <PUBCHEM_SUBSTANCE_ID>
310943066

> <PUBCHEM_SUBSTANCE_VERSION>
1

> <PUBCHEM_EXT_DATASOURCE_NAME>
4488

> <PUBCHEM_EXT_DATASOURCE_REGID>
SCHEMBL16121125

> <PUBCHEM_SUBSTANCE_COMMENT>
InChI=1S/C19H21N7O4S/c1-25(2)31(28,29)16-4-3-13(10-22-16)23-18-17-14(5-7-21-19(17)27)26(24-18)15-11-30-8-6-12(15)9-20/h3-5,7,10,12,15H,6,8,11H2,1-2H3,(H,21,27)(H,23,24)/t12-,15+/m1/s1
InChIKey=PJEUBSFHOKCCCM-DOMZBBRYSA-N

> <PUBCHEM_SUBSTANCE_SYNONYM>
SCHEMBL16121125

> <PUBCHEM_XREF_EXT_ID>
SCHEMBL16121125

> <PUBCHEM_EXT_DATASOURCE_URL>
https://www.surechembl.org/

> <PUBCHEM_EXT_SUBSTANCE_URL>
https://www.surechembl.org/chemical/SCHEMBL16121125

> <PUBCHEM_CID_ASSOCIATIONS>
117609504  1

> <PUBCHEM_COORDINATE_TYPE>
1
3

> <PUBCHEM_BONDANNOTATIONS>
19  28  6
16  6  5

$$$$
