310939027
  -OEChem-07211613022D

 22 23  0     0  0  0  0  0  0999 V2000
   -0.6414    5.0954    0.0000 S   0  0  0  0  0  0  0  0  0  0  0  0
   -3.4993    3.4454    0.0000 S   0  0  0  0  0  0  0  0  0  0  0  0
   -0.2289    5.8099    0.0000 O   0  0  0  0  0  0  0  0  0  0  0  0
   -1.0539    5.8099    0.0000 O   0  0  0  0  0  0  0  0  0  0  0  0
    3.6304    4.1568    0.0000 O   0  0  0  0  0  0  0  0  0  0  0  0
    2.6200    3.1463    0.0000 O   0  0  0  0  0  0  0  0  0  0  0  0
    0.0730    4.6829    0.0000 N   0  0  0  0  0  0  0  0  0  0  0  0
   -1.3559    4.6829    0.0000 C   0  0  0  0  0  0  0  0  0  0  0  0
    0.8699    4.8964    0.0000 C   0  0  0  0  0  0  0  0  0  0  0  0
   -2.0704    5.0954    0.0000 C   0  0  0  0  0  0  0  0  0  0  0  0
   -1.3559    3.8579    0.0000 C   0  0  0  0  0  0  0  0  0  0  0  0
    2.2502    4.5266    0.0000 C   0  0  0  0  0  0  0  0  0  0  0  0
    1.4533    4.3131    0.0000 C   0  0  0  0  0  0  0  0  0  0  0  0
   -2.7848    3.8579    0.0000 C   0  0  0  0  0  0  0  0  0  0  0  0
    1.0834    5.6933    0.0000 C   0  0  0  0  0  0  0  0  0  0  0  0
   -2.7848    4.6829    0.0000 C   0  0  0  0  0  0  0  0  0  0  0  0
   -2.0704    3.4454    0.0000 C   0  0  0  0  0  0  0  0  0  0  0  0
    2.8335    3.9432    0.0000 C   0  0  0  0  0  0  0  0  0  0  0  0
    2.4637    5.3235    0.0000 C   0  0  0  0  0  0  0  0  0  0  0  0
    1.8803    5.9068    0.0000 C   0  0  0  0  0  0  0  0  0  0  0  0
   -4.2138    3.8579    0.0000 C   0  0  0  0  0  0  0  0  0  0  0  0
    4.2138    3.5734    0.0000 C   0  0  0  0  0  0  0  0  0  0  0  0
  1  3  2  0  0  0  0
  1  4  2  0  0  0  0
  1  7  1  0  0  0  0
  1  8  1  0  0  0  0
  2 14  1  0  0  0  0
  2 21  1  0  0  0  0
  5 18  1  0  0  0  0
  5 22  1  0  0  0  0
  6 18  2  0  0  0  0
  7  9  1  0  0  0  0
  8 10  2  0  0  0  0
  8 11  1  0  0  0  0
  9 13  2  0  0  0  0
  9 15  1  0  0  0  0
 10 16  1  0  0  0  0
 11 17  2  0  0  0  0
 12 13  1  0  0  0  0
 12 18  1  0  0  0  0
 12 19  2  0  0  0  0
 14 16  2  0  0  0  0
 14 17  1  0  0  0  0
 15 20  2  0  0  0  0
 19 20  1  0  0  0  0
M  END
> <PUBCHEM_COMPOUND_ID_TYPE>
0

> <PUBCHEM_TOTAL_CHARGE>
0

> <PUBCHEM_SUBSTANCE_ID>
310939027

> <PUBCHEM_SUBSTANCE_VERSION>
1

> <PUBCHEM_EXT_DATASOURCE_NAME>
4488

> <PUBCHEM_EXT_DATASOURCE_REGID>
SCHEMBL16116946

> <PUBCHEM_SUBSTANCE_COMMENT>
InChI=1S/C15H15NO4S2/c1-20-15(17)11-4-3-5-12(10-11)16-22(18,19)14-8-6-13(21-2)7-9-14/h3-10,16H,1-2H3
InChIKey=FIFXTVHJTDLNLL-UHFFFAOYSA-N

> <PUBCHEM_SUBSTANCE_SYNONYM>
SCHEMBL16116946

> <PUBCHEM_XREF_EXT_ID>
SCHEMBL16116946

> <PUBCHEM_EXT_DATASOURCE_URL>
https://www.surechembl.org/

> <PUBCHEM_EXT_SUBSTANCE_URL>
https://www.surechembl.org/chemical/SCHEMBL16116946

> <PUBCHEM_CID_ASSOCIATIONS>
6473614  1

> <PUBCHEM_COORDINATE_TYPE>
1
3

$$$$
