310939736
  -OEChem-07211613022D

 12 11  0     0  0  0  0  0  0999 V2000
    0.9642   -5.8104    0.0000 O   0  0  0  0  0  0  0  0  0  0  0  0
    3.8221   -7.4604    0.0000 O   0  0  0  0  0  0  0  0  0  0  0  0
    2.3931   -5.8104    0.0000 N   0  0  0  0  0  0  0  0  0  0  0  0
    2.3931   -4.9854    0.0000 C   0  0  0  0  0  0  0  0  0  0  0  0
    1.6786   -6.2229    0.0000 C   0  0  0  0  0  0  0  0  0  0  0  0
    3.1076   -6.2229    0.0000 C   0  0  0  0  0  0  0  0  0  0  0  0
    3.2181   -4.9854    0.0000 C   0  0  0  0  0  0  0  0  0  0  0  0
    1.5681   -4.9854    0.0000 C   0  0  0  0  0  0  0  0  0  0  0  0
    2.3931   -4.1604    0.0000 C   0  0  0  0  0  0  0  0  0  0  0  0
    1.6786   -7.0479    0.0000 C   0  0  0  0  0  0  0  0  0  0  0  0
    3.1076   -7.0479    0.0000 C   0  0  0  0  0  0  0  0  0  0  0  0
    0.9642   -7.4604    0.0000 C   0  0  0  0  0  0  0  0  0  0  0  0
  1  5  2  0  0  0  0
  2 11  1  0  0  0  0
  3  4  1  0  0  0  0
  3  5  1  0  0  0  0
  3  6  1  0  0  0  0
  4  7  1  0  0  0  0
  4  8  1  0  0  0  0
  4  9  1  0  0  0  0
  5 10  1  0  0  0  0
  6 11  1  0  0  0  0
 10 12  2  0  0  0  0
M  END
> <PUBCHEM_COMPOUND_ID_TYPE>
0

> <PUBCHEM_TOTAL_CHARGE>
0

> <PUBCHEM_SUBSTANCE_ID>
310939736

> <PUBCHEM_SUBSTANCE_VERSION>
1

> <PUBCHEM_EXT_DATASOURCE_NAME>
4488

> <PUBCHEM_EXT_DATASOURCE_REGID>
SCHEMBL16117666

> <PUBCHEM_SUBSTANCE_COMMENT>
InChI=1S/C9H17NO2/c1-5-8(12)10(6-7-11)9(2,3)4/h5,11H,1,6-7H2,2-4H3
InChIKey=DFSNADNDONBATA-UHFFFAOYSA-N

> <PUBCHEM_SUBSTANCE_SYNONYM>
SCHEMBL16117666

> <PUBCHEM_XREF_EXT_ID>
SCHEMBL16117666

> <PUBCHEM_EXT_DATASOURCE_URL>
https://www.surechembl.org/

> <PUBCHEM_EXT_SUBSTANCE_URL>
https://www.surechembl.org/chemical/SCHEMBL16117666

> <PUBCHEM_CID_ASSOCIATIONS>
117606960  1

> <PUBCHEM_COORDINATE_TYPE>
1
3

> <PUBCHEM_BONDANNOTATIONS>
4  7  3
4  8  3

$$$$
