310933948
  -OEChem-07211613022D

 39 43  0     0  0  0  0  0  0999 V2000
  -15.5819   -1.7004    0.0000 S   0  0  0  0  0  0  0  0  0  0  0  0
  -10.5414   -3.8399    0.0000 O   0  0  0  0  0  0  0  0  0  0  0  0
   -9.8269   -2.6024    0.0000 O   0  0  0  0  0  0  0  0  0  0  0  0
  -20.7214   -0.8511    0.0000 N   0  0  0  0  0  0  0  0  0  0  0  0
  -11.2559   -0.9524    0.0000 N   0  0  0  0  0  0  0  0  0  0  0  0
  -19.9009   -0.7648    0.0000 C   0  0  0  0  0  0  0  0  0  0  0  0
  -21.0569   -1.6048    0.0000 C   0  0  0  0  0  0  0  0  0  0  0  0
  -21.2063   -0.1836    0.0000 C   0  0  0  0  0  0  0  0  0  0  0  0
  -14.8283   -1.3649    0.0000 C   0  0  0  0  0  0  0  0  0  0  0  0
  -14.1138   -1.7774    0.0000 C   0  0  0  0  0  0  0  0  0  0  0  0
  -16.1340   -1.0873    0.0000 C   0  0  0  0  0  0  0  0  0  0  0  0
  -19.4160   -1.4323    0.0000 C   0  0  0  0  0  0  0  0  0  0  0  0
  -19.5653   -0.0111    0.0000 C   0  0  0  0  0  0  0  0  0  0  0  0
  -18.2599   -0.5924    0.0000 C   0  0  0  0  0  0  0  0  0  0  0  0
  -14.9145   -0.5444    0.0000 C   0  0  0  0  0  0  0  0  0  0  0  0
  -18.5955   -1.3461    0.0000 C   0  0  0  0  0  0  0  0  0  0  0  0
  -18.7448    0.0751    0.0000 C   0  0  0  0  0  0  0  0  0  0  0  0
  -15.7215   -0.3728    0.0000 C   0  0  0  0  0  0  0  0  0  0  0  0
  -20.5720   -2.2722    0.0000 C   0  0  0  0  0  0  0  0  0  0  0  0
  -22.0268   -0.2698    0.0000 C   0  0  0  0  0  0  0  0  0  0  0  0
  -21.8774   -1.6910    0.0000 C   0  0  0  0  0  0  0  0  0  0  0  0
  -20.8707    0.5701    0.0000 C   0  0  0  0  0  0  0  0  0  0  0  0
  -14.1138   -2.6024    0.0000 C   0  0  0  0  0  0  0  0  0  0  0  0
  -13.3993   -1.3649    0.0000 C   0  0  0  0  0  0  0  0  0  0  0  0
  -12.6848   -2.6024    0.0000 C   0  0  0  0  0  0  0  0  0  0  0  0
  -16.9545   -1.1736    0.0000 C   0  0  0  0  0  0  0  0  0  0  0  0
  -17.4394   -0.5061    0.0000 C   0  0  0  0  0  0  0  0  0  0  0  0
  -13.3993   -3.0149    0.0000 C   0  0  0  0  0  0  0  0  0  0  0  0
  -12.6848   -1.7774    0.0000 C   0  0  0  0  0  0  0  0  0  0  0  0
  -11.9703   -3.0149    0.0000 C   0  0  0  0  0  0  0  0  0  0  0  0
  -20.9075   -3.0259    0.0000 C   0  0  0  0  0  0  0  0  0  0  0  0
  -22.5117    0.3976    0.0000 C   0  0  0  0  0  0  0  0  0  0  0  0
  -22.2130   -2.4447    0.0000 C   0  0  0  0  0  0  0  0  0  0  0  0
  -21.3557    1.2375    0.0000 C   0  0  0  0  0  0  0  0  0  0  0  0
  -11.2559   -2.6024    0.0000 C   0  0  0  0  0  0  0  0  0  0  0  0
  -21.7281   -3.1121    0.0000 C   0  0  0  0  0  0  0  0  0  0  0  0
  -22.1762    1.1513    0.0000 C   0  0  0  0  0  0  0  0  0  0  0  0
  -10.5414   -3.0149    0.0000 C   0  0  0  0  0  0  0  0  0  0  0  0
  -11.2559   -1.7774    0.0000 C   0  0  0  0  0  0  0  0  0  0  0  0
  1  9  1  0  0  0  0
  1 11  1  0  0  0  0
  2 38  2  0  0  0  0
  3 38  1  0  0  0  0
  4  6  1  0  0  0  0
  4  7  1  0  0  0  0
  4  8  1  0  0  0  0
  5 39  3  0  0  0  0
  6 12  2  0  0  0  0
  6 13  1  0  0  0  0
  7 19  2  0  0  0  0
  7 21  1  0  0  0  0
  8 20  2  0  0  0  0
  8 22  1  0  0  0  0
  9 10  1  0  0  0  0
  9 15  2  0  0  0  0
 10 23  2  0  0  0  0
 10 24  1  0  0  0  0
 11 18  2  0  0  0  0
 11 26  1  0  0  0  0
 12 16  1  0  0  0  0
 13 17  2  0  0  0  0
 14 16  2  0  0  0  0
 14 17  1  0  0  0  0
 14 27  1  0  0  0  0
 15 18  1  0  0  0  0
 19 31  1  0  0  0  0
 20 32  1  0  0  0  0
 21 33  2  0  0  0  0
 22 34  2  0  0  0  0
 23 28  1  0  0  0  0
 24 29  2  0  0  0  0
 25 28  2  0  0  0  0
 25 29  1  0  0  0  0
 25 30  1  0  0  0  0
 26 27  2  3  0  0  0
 30 35  2  3  0  0  0
 31 36  2  0  0  0  0
 32 37  2  0  0  0  0
 33 36  1  0  0  0  0
 34 37  1  0  0  0  0
 35 38  1  0  0  0  0
 35 39  1  0  0  0  0
M  END
> <PUBCHEM_COMPOUND_ID_TYPE>
0

> <PUBCHEM_TOTAL_CHARGE>
0

> <PUBCHEM_SUBSTANCE_ID>
310933948

> <PUBCHEM_SUBSTANCE_VERSION>
1

> <PUBCHEM_EXT_DATASOURCE_NAME>
4488

> <PUBCHEM_EXT_DATASOURCE_REGID>
SCHEMBL16111387

> <PUBCHEM_SUBSTANCE_COMMENT>
InChI=1S/C34H24N2O2S/c35-24-28(34(37)38)23-26-11-16-27(17-12-26)33-22-21-32(39-33)20-15-25-13-18-31(19-14-25)36(29-7-3-1-4-8-29)30-9-5-2-6-10-30/h1-23H,(H,37,38)/b20-15+,28-23+
InChIKey=IBFGFUFXLKNIQF-SQPXYZCESA-N

> <PUBCHEM_SUBSTANCE_SYNONYM>
SCHEMBL16111387

> <PUBCHEM_XREF_EXT_ID>
SCHEMBL16111387

> <PUBCHEM_EXT_DATASOURCE_URL>
https://www.surechembl.org/

> <PUBCHEM_EXT_SUBSTANCE_URL>
https://www.surechembl.org/chemical/SCHEMBL16111387

> <PUBCHEM_CID_ASSOCIATIONS>
117602267  1

> <PUBCHEM_COORDINATE_TYPE>
1
3

> <PUBCHEM_BONDANNOTATIONS>
26  27  1
30  35  1

$$$$
