310946968
  -OEChem-07211613022D

 14 15  0     0  0  0  0  0  0999 V2000
   -1.4135    4.7997    0.0000 Cl  0  0  0  0  0  0  0  0  0  0  0  0
    1.4443    4.7997    0.0000 N   0  0  0  0  0  0  0  0  0  0  0  0
    0.0154    4.7997    0.0000 N   0  0  0  0  0  0  0  0  0  0  0  0
    1.4443    3.1497    0.0000 N   0  0  0  0  0  0  0  0  0  0  0  0
    2.8733    4.7997    0.0000 N   0  0  0  0  0  0  0  0  0  0  0  0
    0.7299    4.3872    0.0000 C   0  0  0  0  0  0  0  0  0  0  0  0
    0.7299    3.5622    0.0000 C   0  0  0  0  0  0  0  0  0  0  0  0
    2.1588    4.3872    0.0000 C   0  0  0  0  0  0  0  0  0  0  0  0
    0.0154    3.1497    0.0000 C   0  0  0  0  0  0  0  0  0  0  0  0
   -0.6991    4.3872    0.0000 C   0  0  0  0  0  0  0  0  0  0  0  0
    2.1588    3.5622    0.0000 C   0  0  0  0  0  0  0  0  0  0  0  0
   -0.6991    3.5622    0.0000 C   0  0  0  0  0  0  0  0  0  0  0  0
    2.8733    5.6247    0.0000 C   0  0  0  0  0  0  0  0  0  0  0  0
    3.5878    4.3872    0.0000 C   0  0  0  0  0  0  0  0  0  0  0  0
  1 10  1  0  0  0  0
  2  6  1  0  0  0  0
  2  8  2  0  0  0  0
  3  6  2  0  0  0  0
  3 10  1  0  0  0  0
  4  7  1  0  0  0  0
  4 11  2  0  0  0  0
  5  8  1  0  0  0  0
  5 13  1  0  0  0  0
  5 14  1  0  0  0  0
  6  7  1  0  0  0  0
  7  9  2  0  0  0  0
  8 11  1  0  0  0  0
  9 12  1  0  0  0  0
 10 12  2  0  0  0  0
M  END
> <PUBCHEM_COMPOUND_ID_TYPE>
0

> <PUBCHEM_TOTAL_CHARGE>
0

> <PUBCHEM_SUBSTANCE_ID>
310946968

> <PUBCHEM_SUBSTANCE_VERSION>
1

> <PUBCHEM_EXT_DATASOURCE_NAME>
4488

> <PUBCHEM_EXT_DATASOURCE_REGID>
SCHEMBL16125098

> <PUBCHEM_SUBSTANCE_COMMENT>
InChI=1S/C9H9ClN4/c1-14(2)8-5-11-6-3-4-7(10)12-9(6)13-8/h3-5H,1-2H3
InChIKey=GPMJVXOLQRVVDJ-UHFFFAOYSA-N

> <PUBCHEM_SUBSTANCE_SYNONYM>
SCHEMBL16125098

> <PUBCHEM_XREF_EXT_ID>
SCHEMBL16125098

> <PUBCHEM_EXT_DATASOURCE_URL>
https://www.surechembl.org/

> <PUBCHEM_EXT_SUBSTANCE_URL>
https://www.surechembl.org/chemical/SCHEMBL16125098

> <PUBCHEM_CID_ASSOCIATIONS>
117612822  1

> <PUBCHEM_COORDINATE_TYPE>
1
3

$$$$
