310944134
  -OEChem-07211613022D

 15 16  0     0  0  0  0  0  0999 V2000
    1.7265   -0.5224    0.0000 O   0  0  0  0  0  0  0  0  0  0  0  0
    2.4412    0.6983    0.0000 O   0  0  0  0  0  0  0  0  0  0  0  0
   -1.1326   -0.5224    0.0000 N   0  0  0  0  0  0  0  0  0  0  0  0
    0.2969   -0.5224    0.0000 N   0  0  0  0  0  0  0  0  0  0  0  0
   -1.8804   -0.1815    0.0000 N   0  0  0  0  0  0  0  0  0  0  0  0
   -2.4412   -0.7972    0.0000 N   0  0  0  0  0  0  0  0  0  0  0  0
   -2.0234   -1.5010    0.0000 N   0  0  0  0  0  0  0  0  0  0  0  0
   -0.4288   -0.1154    0.0000 C   0  0  0  0  0  0  0  0  0  0  0  0
    1.0007   -0.1044    0.0000 C   0  0  0  0  0  0  0  0  0  0  0  0
    1.0227    0.7093    0.0000 C   0  0  0  0  0  0  0  0  0  0  0  0
   -0.4069    0.7093    0.0000 C   0  0  0  0  0  0  0  0  0  0  0  0
    0.2969    1.1161    0.0000 C   0  0  0  0  0  0  0  0  0  0  0  0
   -1.2207   -1.3361    0.0000 C   0  0  0  0  0  0  0  0  0  0  0  0
    2.4412    1.5010    0.0000 C   0  0  0  0  0  0  0  0  0  0  0  0
    1.7265   -1.3911    0.0000 C   0  0  0  0  0  0  0  0  0  0  0  0
  1  9  1  0  0  0  0
  1 15  1  0  0  0  0
  2 14  1  0  0  0  0
  3  5  1  0  0  0  0
  3  8  1  0  0  0  0
  3 13  1  0  0  0  0
  4  8  1  0  0  0  0
  4  9  2  0  0  0  0
  5  6  2  0  0  0  0
  6  7  1  0  0  0  0
  7 13  2  0  0  0  0
  8 11  2  0  0  0  0
  9 10  1  0  0  0  0
 10 12  2  0  0  0  0
 10 14  1  0  0  0  0
 11 12  1  0  0  0  0
M  END
> <PUBCHEM_COMPOUND_ID_TYPE>
0

> <PUBCHEM_TOTAL_CHARGE>
0

> <PUBCHEM_SUBSTANCE_ID>
310944134

> <PUBCHEM_SUBSTANCE_VERSION>
1

> <PUBCHEM_EXT_DATASOURCE_NAME>
4488

> <PUBCHEM_EXT_DATASOURCE_REGID>
SCHEMBL16122209

> <PUBCHEM_SUBSTANCE_COMMENT>
InChI=1S/C8H9N5O2/c1-15-8-6(4-14)2-3-7(10-8)13-5-9-11-12-13/h2-3,5,14H,4H2,1H3
InChIKey=BDYHYWIRRRMQND-UHFFFAOYSA-N

> <PUBCHEM_SUBSTANCE_SYNONYM>
SCHEMBL16122209

> <PUBCHEM_XREF_EXT_ID>
SCHEMBL16122209

> <PUBCHEM_EXT_DATASOURCE_URL>
https://www.surechembl.org/

> <PUBCHEM_EXT_SUBSTANCE_URL>
https://www.surechembl.org/chemical/SCHEMBL16122209

> <PUBCHEM_CID_ASSOCIATIONS>
117610415  1

> <PUBCHEM_COORDINATE_TYPE>
1
3

$$$$
