310938268
  -OEChem-07211613022D

 16 17  0     0  0  0  0  0  0999 V2000
    0.7144    1.2375    0.0000 Br  0  0  0  0  0  0  0  0  0  0  0  0
   -3.0366    2.2295    0.0000 N   0  0  0  0  0  0  0  0  0  0  0  0
   -3.4491    1.5151    0.0000 N   0  0  0  0  0  0  0  0  0  0  0  0
   -2.1434    1.2375    0.0000 C   0  0  0  0  0  0  0  0  0  0  0  0
   -1.4290    0.8250    0.0000 C   0  0  0  0  0  0  0  0  0  0  0  0
   -2.2296    2.0580    0.0000 C   0  0  0  0  0  0  0  0  0  0  0  0
   -2.8971    0.9020    0.0000 C   0  0  0  0  0  0  0  0  0  0  0  0
   -0.7144    1.2375    0.0000 C   0  0  0  0  0  0  0  0  0  0  0  0
   -1.4290    0.0000    0.0000 C   0  0  0  0  0  0  0  0  0  0  0  0
    0.0000    0.8250    0.0000 C   0  0  0  0  0  0  0  0  0  0  0  0
   -1.6165    2.6100    0.0000 C   0  0  0  0  0  0  0  0  0  0  0  0
   -3.0686    0.0950    0.0000 C   0  0  0  0  0  0  0  0  0  0  0  0
   -0.7144   -0.4125    0.0000 C   0  0  0  0  0  0  0  0  0  0  0  0
    0.0000    0.0000    0.0000 C   0  0  0  0  0  0  0  0  0  0  0  0
   -0.8320    2.3551    0.0000 C   0  0  0  0  0  0  0  0  0  0  0  0
   -3.8532   -0.1600    0.0000 C   0  0  0  0  0  0  0  0  0  0  0  0
  1 10  1  0  0  0  0
  2  3  1  0  0  0  0
  2  6  2  0  0  0  0
  3  7  1  0  0  0  0
  4  5  1  0  0  0  0
  4  6  1  0  0  0  0
  4  7  2  0  0  0  0
  5  8  1  0  0  0  0
  5  9  2  0  0  0  0
  6 11  1  0  0  0  0
  7 12  1  0  0  0  0
  8 10  2  0  0  0  0
  9 13  1  0  0  0  0
 10 14  1  0  0  0  0
 11 15  1  0  0  0  0
 12 16  1  0  0  0  0
 13 14  2  0  0  0  0
M  END
> <PUBCHEM_COMPOUND_ID_TYPE>
0

> <PUBCHEM_TOTAL_CHARGE>
0

> <PUBCHEM_SUBSTANCE_ID>
310938268

> <PUBCHEM_SUBSTANCE_VERSION>
1

> <PUBCHEM_EXT_DATASOURCE_NAME>
4488

> <PUBCHEM_EXT_DATASOURCE_REGID>
SCHEMBL16116136

> <PUBCHEM_SUBSTANCE_COMMENT>
InChI=1S/C13H15BrN2/c1-3-11-13(12(4-2)16-15-11)9-6-5-7-10(14)8-9/h5-8H,3-4H2,1-2H3,(H,15,16)
InChIKey=RHSKQCGLXPAAGW-UHFFFAOYSA-N

> <PUBCHEM_SUBSTANCE_SYNONYM>
SCHEMBL16116136

> <PUBCHEM_XREF_EXT_ID>
SCHEMBL16116136

> <PUBCHEM_EXT_DATASOURCE_URL>
https://www.surechembl.org/

> <PUBCHEM_EXT_SUBSTANCE_URL>
https://www.surechembl.org/chemical/SCHEMBL16116136

> <PUBCHEM_CID_ASSOCIATIONS>
117605778  1

> <PUBCHEM_COORDINATE_TYPE>
1
3

$$$$
