310931442
  -OEChem-07211613022D

 22 24  0     0  0  0  0  0  0999 V2000
    2.8712   -2.4644    0.0000 O   0  0  0  0  0  0  0  0  0  0  0  0
    2.1534   -0.4067    0.0000 O   0  0  0  0  0  0  0  0  0  0  0  0
    7.1539   -1.6509    0.0000 N   0  0  0  0  0  0  0  0  0  0  0  0
    3.5889   -1.2202    0.0000 C   0  0  0  0  0  0  0  0  0  0  0  0
    2.8712   -1.6509    0.0000 C   0  0  0  0  0  0  0  0  0  0  0  0
    5.0006   -1.2202    0.0000 C   0  0  0  0  0  0  0  0  0  0  0  0
    2.1534   -1.2202    0.0000 C   0  0  0  0  0  0  0  0  0  0  0  0
    4.3067   -1.6270    0.0000 C   0  0  0  0  0  0  0  0  0  0  0  0
    5.7184   -1.6509    0.0000 C   0  0  0  0  0  0  0  0  0  0  0  0
    1.4595   -1.6509    0.0000 C   0  0  0  0  0  0  0  0  0  0  0  0
    3.5889   -0.4067    0.0000 C   0  0  0  0  0  0  0  0  0  0  0  0
    5.0245   -0.4067    0.0000 C   0  0  0  0  0  0  0  0  0  0  0  0
    4.3067    0.0000    0.0000 C   0  0  0  0  0  0  0  0  0  0  0  0
    6.4601   -1.2442    0.0000 C   0  0  0  0  0  0  0  0  0  0  0  0
    5.7423   -2.4644    0.0000 C   0  0  0  0  0  0  0  0  0  0  0  0
    1.4355   -2.4644    0.0000 C   0  0  0  0  0  0  0  0  0  0  0  0
    0.7178   -1.2442    0.0000 C   0  0  0  0  0  0  0  0  0  0  0  0
    6.4361   -2.8712    0.0000 C   0  0  0  0  0  0  0  0  0  0  0  0
    0.7178   -2.8712    0.0000 C   0  0  0  0  0  0  0  0  0  0  0  0
    0.0239   -1.6509    0.0000 C   0  0  0  0  0  0  0  0  0  0  0  0
    7.1779   -2.4883    0.0000 C   0  0  0  0  0  0  0  0  0  0  0  0
    0.0000   -2.4883    0.0000 C   0  0  0  0  0  0  0  0  0  0  0  0
  1  5  2  0  0  0  0
  2  7  2  0  0  0  0
  3 14  1  0  0  0  0
  3 21  2  0  0  0  0
  4  5  1  0  0  0  0
  4  8  1  0  0  0  0
  4 11  2  0  0  0  0
  5  7  1  0  0  0  0
  6  8  2  0  0  0  0
  6  9  1  0  0  0  0
  6 12  1  0  0  0  0
  7 10  1  0  0  0  0
  9 14  2  0  0  0  0
  9 15  1  0  0  0  0
 10 16  1  0  0  0  0
 10 17  1  0  0  0  0
 11 13  1  0  0  0  0
 12 13  2  0  0  0  0
 15 18  2  0  0  0  0
 16 19  1  0  0  0  0
 17 20  1  0  0  0  0
 18 21  1  0  0  0  0
 19 22  1  0  0  0  0
 20 22  1  0  0  0  0
M  END
> <PUBCHEM_COMPOUND_ID_TYPE>
0

> <PUBCHEM_TOTAL_CHARGE>
0

> <PUBCHEM_SUBSTANCE_ID>
310931442

> <PUBCHEM_SUBSTANCE_VERSION>
1

> <PUBCHEM_EXT_DATASOURCE_NAME>
4488

> <PUBCHEM_EXT_DATASOURCE_REGID>
SCHEMBL16108767

> <PUBCHEM_SUBSTANCE_COMMENT>
InChI=1S/C19H19NO2/c21-18(14-6-2-1-3-7-14)19(22)16-9-4-8-15(12-16)17-10-5-11-20-13-17/h4-5,8-14H,1-3,6-7H2
InChIKey=MTPADUFUAHLACK-UHFFFAOYSA-N

> <PUBCHEM_SUBSTANCE_SYNONYM>
SCHEMBL16108767

> <PUBCHEM_XREF_EXT_ID>
SCHEMBL16108767

> <PUBCHEM_EXT_DATASOURCE_URL>
https://www.surechembl.org/

> <PUBCHEM_EXT_SUBSTANCE_URL>
https://www.surechembl.org/chemical/SCHEMBL16108767

> <PUBCHEM_CID_ASSOCIATIONS>
117600219  1

> <PUBCHEM_COORDINATE_TYPE>
1
3

$$$$
