310938976
  -OEChem-07211613022D

 16 18  0     1  0  0  0  0  0999 V2000
    0.3800  -14.1346    0.0000 O   0  0  0  0  0  0  0  0  0  0  0  0
    0.3800  -15.7846    0.0000 N   0  0  0  0  0  0  0  0  0  0  0  0
    0.3800  -16.6096    0.0000 C   0  0  0  0  0  0  0  0  0  0  0  0
   -0.3345  -15.3721    0.0000 C   0  0  3  0  0  0  0  0  0  0  0  0
   -0.0325  -17.3240    0.0000 C   0  0  0  0  0  0  0  0  0  0  0  0
    0.7925  -17.3240    0.0000 C   0  0  0  0  0  0  0  0  0  0  0  0
   -1.1191  -15.6270    0.0000 C   0  0  0  0  0  0  0  0  0  0  0  0
   -1.6040  -14.9596    0.0000 C   0  0  0  0  0  0  0  0  0  0  0  0
   -0.3345  -14.5471    0.0000 C   0  0  3  0  0  0  0  0  0  0  0  0
   -1.1191  -14.2921    0.0000 C   0  0  0  0  0  0  0  0  0  0  0  0
   -1.4547  -16.3807    0.0000 C   0  0  0  0  0  0  0  0  0  0  0  0
   -2.4245  -15.0458    0.0000 C   0  0  0  0  0  0  0  0  0  0  0  0
    1.5070  -17.7365    0.0000 C   0  0  0  0  0  0  0  0  0  0  0  0
   -0.7470  -17.7365    0.0000 C   0  0  0  0  0  0  0  0  0  0  0  0
   -2.2751  -16.4669    0.0000 C   0  0  0  0  0  0  0  0  0  0  0  0
   -2.7601  -15.7995    0.0000 C   0  0  0  0  0  0  0  0  0  0  0  0
  9  1  1  1  0  0  0
  2  3  2  0  0  0  0
  4  2  1  1  0  0  0
  3  5  1  0  0  0  0
  3  6  1  0  0  0  0
  4  7  1  0  0  0  0
  4  9  1  0  0  0  0
  5  6  2  0  0  0  0
  5 14  1  0  0  0  0
  6 13  1  0  0  0  0
  7  8  2  0  0  0  0
  7 11  1  0  0  0  0
  8 10  1  0  0  0  0
  8 12  1  0  0  0  0
  9 10  1  0  0  0  0
 11 15  2  0  0  0  0
 12 16  2  0  0  0  0
 15 16  1  0  0  0  0
M  END
> <PUBCHEM_COMPOUND_ID_TYPE>
0

> <PUBCHEM_TOTAL_CHARGE>
0

> <PUBCHEM_SUBSTANCE_ID>
310938976

> <PUBCHEM_SUBSTANCE_VERSION>
1

> <PUBCHEM_EXT_DATASOURCE_NAME>
4488

> <PUBCHEM_EXT_DATASOURCE_REGID>
SCHEMBL16116895

> <PUBCHEM_SUBSTANCE_COMMENT>
InChI=1S/C14H15NO/c1-8-9(2)13(8)15-14-11-6-4-3-5-10(11)7-12(14)16/h3-6,12,14,16H,7H2,1-2H3/t12-,14+/m1/s1
InChIKey=DCVRXFAJJBYLQN-OCCSQVGLSA-N

> <PUBCHEM_SUBSTANCE_SYNONYM>
SCHEMBL16116895

> <PUBCHEM_XREF_EXT_ID>
SCHEMBL16116895

> <PUBCHEM_EXT_DATASOURCE_URL>
https://www.surechembl.org/

> <PUBCHEM_EXT_SUBSTANCE_URL>
https://www.surechembl.org/chemical/SCHEMBL16116895

> <PUBCHEM_CID_ASSOCIATIONS>
117606361  1

> <PUBCHEM_COORDINATE_TYPE>
1
3

> <PUBCHEM_BONDANNOTATIONS>
9  1  5
4  2  5

$$$$
