310931923
  -OEChem-07211613022D

 31 34  0     0  0  0  0  0  0999 V2000
    9.8998   -6.3847    0.0000 S   0  0  0  0  0  0  0  0  0  0  0  0
    4.0173   -2.1163    0.0000 O   0  0  0  0  0  0  0  0  0  0  0  0
    8.5009   -2.2239    0.0000 O   0  0  0  0  0  0  0  0  0  0  0  0
    4.9140   -0.9685    0.0000 N   0  0  0  0  0  0  0  0  0  0  0  0
    4.8423   -0.1435    0.0000 N   0  0  0  0  0  0  0  0  0  0  0  0
    6.3488   -0.9685    0.0000 N   0  0  0  0  0  0  0  0  0  0  0  0
    7.7836   -3.4434    0.0000 N   0  0  0  0  0  0  0  0  0  0  0  0
    8.5726   -6.3847    0.0000 N   0  0  0  0  0  0  0  0  0  0  0  0
    0.0000   -1.8293    0.0000 N   0  0  0  0  0  0  0  0  0  0  0  0
    3.5869   -0.7174    0.0000 C   0  0  0  0  0  0  0  0  0  0  0  0
    4.1608   -1.3272    0.0000 C   0  0  0  0  0  0  0  0  0  0  0  0
    5.6314   -1.3989    0.0000 C   0  0  0  0  0  0  0  0  0  0  0  0
    2.7978   -0.7891    0.0000 C   0  0  0  0  0  0  0  0  0  0  0  0
    4.0173    0.0000    0.0000 C   0  0  0  0  0  0  0  0  0  0  0  0
    5.6314   -2.2239    0.0000 C   0  0  0  0  0  0  0  0  0  0  0  0
    7.0662   -2.2239    0.0000 C   0  0  0  0  0  0  0  0  0  0  0  0
    2.4749   -1.5782    0.0000 C   0  0  0  0  0  0  0  0  0  0  0  0
    2.2956   -0.1435    0.0000 C   0  0  0  0  0  0  0  0  0  0  0  0
    7.0662   -1.3989    0.0000 C   0  0  0  0  0  0  0  0  0  0  0  0
    6.3488   -2.6184    0.0000 C   0  0  0  0  0  0  0  0  0  0  0  0
    7.7836   -2.6184    0.0000 C   0  0  0  0  0  0  0  0  0  0  0  0
    1.1478   -1.0043    0.0000 C   0  0  0  0  0  0  0  0  0  0  0  0
    1.6500   -1.6500    0.0000 C   0  0  0  0  0  0  0  0  0  0  0  0
    1.4706   -0.2511    0.0000 C   0  0  0  0  0  0  0  0  0  0  0  0
    0.3228   -1.0761    0.0000 C   0  0  0  0  0  0  0  0  0  0  0  0
    8.5009   -3.8738    0.0000 C   0  0  0  0  0  0  0  0  0  0  0  0
    9.2183   -5.9184    0.0000 C   0  0  0  0  0  0  0  0  0  0  0  0
    8.5009   -4.6988    0.0000 C   0  0  0  0  0  0  0  0  0  0  0  0
    9.2183   -5.0934    0.0000 C   0  0  0  0  0  0  0  0  0  0  0  0
    9.6488   -7.1738    0.0000 C   0  0  0  0  0  0  0  0  0  0  0  0
    8.8238   -7.1738    0.0000 C   0  0  0  0  0  0  0  0  0  0  0  0
  1 27  1  0  0  0  0
  1 30  1  0  0  0  0
  2 11  1  0  0  0  0
  3 21  2  0  0  0  0
  4  5  1  0  0  0  0
  4 11  1  0  0  0  0
  4 12  1  0  0  0  0
  5 14  2  0  0  0  0
  6 12  2  0  0  0  0
  6 19  1  0  0  0  0
  7 21  1  0  0  0  0
  7 26  1  0  0  0  0
  8 27  2  0  0  0  0
  8 31  1  0  0  0  0
  9 25  3  0  0  0  0
 10 11  2  0  0  0  0
 10 13  1  0  0  0  0
 10 14  1  0  0  0  0
 12 15  1  0  0  0  0
 13 17  2  0  0  0  0
 13 18  1  0  0  0  0
 15 20  2  0  0  0  0
 16 19  2  0  0  0  0
 16 20  1  0  0  0  0
 16 21  1  0  0  0  0
 17 23  1  0  0  0  0
 18 24  2  0  0  0  0
 22 23  2  0  0  0  0
 22 24  1  0  0  0  0
 22 25  1  0  0  0  0
 26 28  1  0  0  0  0
 27 29  1  0  0  0  0
 28 29  1  0  0  0  0
 30 31  2  0  0  0  0
M  END
> <PUBCHEM_COMPOUND_ID_TYPE>
0

> <PUBCHEM_TOTAL_CHARGE>
0

> <PUBCHEM_SUBSTANCE_ID>
310931923

> <PUBCHEM_SUBSTANCE_VERSION>
1

> <PUBCHEM_EXT_DATASOURCE_NAME>
4488

> <PUBCHEM_EXT_DATASOURCE_REGID>
SCHEMBL16109258

> <PUBCHEM_SUBSTANCE_COMMENT>
InChI=1S/C22H18N6O2S/c23-12-15-3-5-16(6-4-15)18-14-27-28(22(18)30)19-8-7-17(13-26-19)21(29)25-9-1-2-20-24-10-11-31-20/h3-8,10-11,13-14,30H,1-2,9H2,(H,25,29)
InChIKey=HNAGXVBPTFFGAV-UHFFFAOYSA-N

> <PUBCHEM_SUBSTANCE_SYNONYM>
SCHEMBL16109258

> <PUBCHEM_XREF_EXT_ID>
SCHEMBL16109258

> <PUBCHEM_EXT_DATASOURCE_URL>
https://www.surechembl.org/

> <PUBCHEM_EXT_SUBSTANCE_URL>
https://www.surechembl.org/chemical/SCHEMBL16109258

> <PUBCHEM_CID_ASSOCIATIONS>
117600574  1

> <PUBCHEM_COORDINATE_TYPE>
1
3

$$$$
