310940340
  -OEChem-07211613022D

 23 25  0     0  0  0  0  0  0999 V2000
    4.0860   -0.1403    0.0000 Cl  0  0  0  0  0  0  0  0  0  0  0  0
   -1.1229    1.5595    0.0000 O   0  0  0  0  0  0  0  0  0  0  0  0
    1.5907   -1.5595    0.0000 O   0  0  0  0  0  0  0  0  0  0  0  0
    0.7642   -0.1403    0.0000 N   0  0  0  0  0  0  0  0  0  0  0  0
    0.2651   -0.7953    0.0000 N   0  0  0  0  0  0  0  0  0  0  0  0
   -0.5302   -0.5459    0.0000 N   0  0  0  0  0  0  0  0  0  0  0  0
   -0.5302    0.2807    0.0000 C   0  0  0  0  0  0  0  0  0  0  0  0
    1.5907   -0.1248    0.0000 C   0  0  0  0  0  0  0  0  0  0  0  0
   -1.2164    0.7486    0.0000 C   0  0  0  0  0  0  0  0  0  0  0  0
    0.2495    0.5302    0.0000 C   0  0  0  0  0  0  0  0  0  0  0  0
   -1.9650    0.4367    0.0000 C   0  0  0  0  0  0  0  0  0  0  0  0
    1.9962   -0.8266    0.0000 C   0  0  0  0  0  0  0  0  0  0  0  0
    2.0118    0.5770    0.0000 C   0  0  0  0  0  0  0  0  0  0  0  0
    2.8384   -0.8266    0.0000 C   0  0  0  0  0  0  0  0  0  0  0  0
   -2.6512    0.9045    0.0000 C   0  0  0  0  0  0  0  0  0  0  0  0
   -2.0586   -0.3899    0.0000 C   0  0  0  0  0  0  0  0  0  0  0  0
    3.2438   -0.1248    0.0000 C   0  0  0  0  0  0  0  0  0  0  0  0
    2.8384    0.5770    0.0000 C   0  0  0  0  0  0  0  0  0  0  0  0
   -3.3997    0.5770    0.0000 C   0  0  0  0  0  0  0  0  0  0  0  0
   -2.8072   -0.7174    0.0000 C   0  0  0  0  0  0  0  0  0  0  0  0
   -3.4778   -0.2495    0.0000 C   0  0  0  0  0  0  0  0  0  0  0  0
   -4.0860    1.0449    0.0000 C   0  0  0  0  0  0  0  0  0  0  0  0
   -2.8695   -1.5595    0.0000 C   0  0  0  0  0  0  0  0  0  0  0  0
  1 17  1  0  0  0  0
  2  9  2  0  0  0  0
  3 12  1  0  0  0  0
  4  5  1  0  0  0  0
  4  8  1  0  0  0  0
  4 10  1  0  0  0  0
  5  6  2  0  0  0  0
  6  7  1  0  0  0  0
  7  9  1  0  0  0  0
  7 10  2  0  0  0  0
  8 12  2  0  0  0  0
  8 13  1  0  0  0  0
  9 11  1  0  0  0  0
 11 15  2  0  0  0  0
 11 16  1  0  0  0  0
 12 14  1  0  0  0  0
 13 18  2  0  0  0  0
 14 17  2  0  0  0  0
 15 19  1  0  0  0  0
 16 20  2  0  0  0  0
 17 18  1  0  0  0  0
 19 21  2  0  0  0  0
 19 22  1  0  0  0  0
 20 21  1  0  0  0  0
 20 23  1  0  0  0  0
M  END
> <PUBCHEM_COMPOUND_ID_TYPE>
0

> <PUBCHEM_TOTAL_CHARGE>
0

> <PUBCHEM_SUBSTANCE_ID>
310940340

> <PUBCHEM_SUBSTANCE_VERSION>
1

> <PUBCHEM_EXT_DATASOURCE_NAME>
4488

> <PUBCHEM_EXT_DATASOURCE_REGID>
SCHEMBL16118284

> <PUBCHEM_SUBSTANCE_COMMENT>
InChI=1S/C17H14ClN3O2/c1-10-5-11(2)7-12(6-10)17(23)14-9-21(20-19-14)15-4-3-13(18)8-16(15)22/h3-9,22H,1-2H3
InChIKey=AUOPAIFDTYSEQZ-UHFFFAOYSA-N

> <PUBCHEM_SUBSTANCE_SYNONYM>
SCHEMBL16118284

> <PUBCHEM_XREF_EXT_ID>
SCHEMBL16118284

> <PUBCHEM_EXT_DATASOURCE_URL>
https://www.surechembl.org/

> <PUBCHEM_EXT_SUBSTANCE_URL>
https://www.surechembl.org/chemical/SCHEMBL16118284

> <PUBCHEM_CID_ASSOCIATIONS>
86296295  1

> <PUBCHEM_COORDINATE_TYPE>
1
3

$$$$
