310943698
  -OEChem-07211613022D

 37 40  0     1  0  0  0  0  0999 V2000
    5.3534    1.0270    0.0000 F   0  0  0  0  0  0  0  0  0  0  0  0
   -5.3696    2.2562    0.0000 O   0  0  0  0  0  0  0  0  0  0  0  0
    1.7791    2.2562    0.0000 O   0  0  0  0  0  0  0  0  0  0  0  0
   -1.0836   -2.6767    0.0000 O   0  0  0  0  0  0  0  0  0  0  0  0
   -3.9302    1.4475    0.0000 N   0  0  0  0  0  0  0  0  0  0  0  0
   -3.2186    0.2022    0.0000 N   0  0  0  0  0  0  0  0  0  0  0  0
   -0.3720    2.6767    0.0000 N   0  0  0  0  0  0  0  0  0  0  0  0
    1.0674    1.0270    0.0000 N   0  0  0  0  0  0  0  0  0  0  0  0
   -2.5069   -1.0270    0.0000 N   0  0  0  0  0  0  0  0  0  0  0  0
    3.9140    0.2022    0.0000 N   0  0  0  0  0  0  0  0  0  0  0  0
   -1.7791    1.0270    0.0000 C   0  0  0  0  0  0  0  0  0  0  0  0
   -1.0836    1.4475    0.0000 C   0  0  0  0  0  0  0  0  0  0  0  0
   -3.2186    1.0270    0.0000 C   0  0  0  0  0  0  0  0  0  0  0  0
   -2.5231    1.4313    0.0000 C   0  0  0  0  0  0  0  0  0  0  0  0
   -1.0674    2.2723    0.0000 C   0  0  0  0  0  0  0  0  0  0  0  0
   -2.5069   -0.2022    0.0000 C   0  0  0  0  0  0  0  0  0  0  0  0
   -1.7952    0.2022    0.0000 C   0  0  0  0  0  0  0  0  0  0  0  0
   -0.3396    1.0270    0.0000 C   0  0  0  0  0  0  0  0  0  0  0  0
    0.3558    1.4475    0.0000 C   0  0  0  0  0  0  0  0  0  0  0  0
   -3.9302    2.2723    0.0000 C   0  0  3  0  0  0  0  0  0  0  0  0
    2.4907    1.0270    0.0000 C   0  0  0  0  0  0  0  0  0  0  0  0
    1.7791    1.4313    0.0000 C   0  0  0  0  0  0  0  0  0  0  0  0
    0.3558    2.2562    0.0000 C   0  0  0  0  0  0  0  0  0  0  0  0
    3.9302    1.0270    0.0000 C   0  0  0  0  0  0  0  0  0  0  0  0
   -4.6256    1.0270    0.0000 C   0  0  0  0  0  0  0  0  0  0  0  0
    4.6418    1.4475    0.0000 C   0  0  0  0  0  0  0  0  0  0  0  0
    3.2023    1.4313    0.0000 C   0  0  0  0  0  0  0  0  0  0  0  0
   -4.6580    2.6767    0.0000 C   0  0  0  0  0  0  0  0  0  0  0  0
    2.4907    0.2022    0.0000 C   0  0  0  0  0  0  0  0  0  0  0  0
   -1.7952    2.6767    0.0000 C   0  0  0  0  0  0  0  0  0  0  0  0
   -5.3534    1.4313    0.0000 C   0  0  0  0  0  0  0  0  0  0  0  0
    3.2347   -0.2022    0.0000 C   0  0  0  0  0  0  0  0  0  0  0  0
   -3.2347    2.6767    0.0000 C   0  0  0  0  0  0  0  0  0  0  0  0
   -1.7791   -1.4637    0.0000 C   0  0  0  0  0  0  0  0  0  0  0  0
    4.6256    2.2723    0.0000 C   0  0  0  0  0  0  0  0  0  0  0  0
    5.3696    1.8680    0.0000 C   0  0  0  0  0  0  0  0  0  0  0  0
   -1.7952   -2.2562    0.0000 C   0  0  0  0  0  0  0  0  0  0  0  0
  1 26  1  0  0  0  0
  2 28  1  0  0  0  0
  2 31  1  0  0  0  0
  3 22  2  0  0  0  0
  4 37  1  0  0  0  0
  5 13  1  0  0  0  0
  5 20  1  0  0  0  0
  5 25  1  0  0  0  0
  6 13  2  0  0  0  0
  6 16  1  0  0  0  0
  7 15  2  0  0  0  0
  7 23  1  0  0  0  0
  8 19  1  0  0  0  0
  8 22  1  0  0  0  0
  9 16  1  0  0  0  0
  9 34  1  0  0  0  0
 10 24  1  0  0  0  0
 10 32  2  0  0  0  0
 11 12  1  0  0  0  0
 11 14  2  0  0  0  0
 11 17  1  0  0  0  0
 12 15  1  0  0  0  0
 12 18  2  0  0  0  0
 13 14  1  0  0  0  0
 15 30  1  0  0  0  0
 16 17  2  0  0  0  0
 18 19  1  0  0  0  0
 19 23  2  0  0  0  0
 20 28  1  0  0  0  0
 20 33  1  1  0  0  0
 21 22  1  0  0  0  0
 21 27  1  0  0  0  0
 21 29  2  0  0  0  0
 24 26  1  0  0  0  0
 24 27  2  0  0  0  0
 25 31  1  0  0  0  0
 26 35  1  0  0  0  0
 26 36  1  0  0  0  0
 29 32  1  0  0  0  0
 34 37  1  0  0  0  0
M  END
> <PUBCHEM_COMPOUND_ID_TYPE>
0

> <PUBCHEM_TOTAL_CHARGE>
0

> <PUBCHEM_SUBSTANCE_ID>
310943698

> <PUBCHEM_SUBSTANCE_VERSION>
1

> <PUBCHEM_EXT_DATASOURCE_NAME>
4488

> <PUBCHEM_EXT_DATASOURCE_REGID>
SCHEMBL16121766

> <PUBCHEM_SUBSTANCE_COMMENT>
InChI=1S/C27H33FN6O3/c1-17-16-37-10-8-34(17)25-13-20(12-24(33-25)30-7-9-35)22-14-21(15-31-18(22)2)32-26(36)19-5-6-29-23(11-19)27(3,4)28/h5-6,11-15,17,35H,7-10,16H2,1-4H3,(H,30,33)(H,32,36)/t17-/m1/s1
InChIKey=IKRWPOVNCZKZBX-QGZVFWFLSA-N

> <PUBCHEM_SUBSTANCE_SYNONYM>
SCHEMBL16121766

> <PUBCHEM_XREF_EXT_ID>
SCHEMBL16121766

> <PUBCHEM_EXT_DATASOURCE_URL>
https://www.surechembl.org/

> <PUBCHEM_EXT_SUBSTANCE_URL>
https://www.surechembl.org/chemical/SCHEMBL16121766

> <PUBCHEM_CID_ASSOCIATIONS>
117610083  1

> <PUBCHEM_COORDINATE_TYPE>
1
3

> <PUBCHEM_BONDANNOTATIONS>
20  33  5

$$$$
