310940359
  -OEChem-07211613022D

 23 25  0     0  0  0  0  0  0999 V2000
    3.1530    2.3406    0.0000 F   0  0  0  0  0  0  0  0  0  0  0  0
   -3.6624    0.9638    0.0000 F   0  0  0  0  0  0  0  0  0  0  0  0
    0.2616   -1.0327    0.0000 O   0  0  0  0  0  0  0  0  0  0  0  0
    1.7348   -0.1239    0.0000 N   0  0  0  0  0  0  0  0  0  0  0  0
   -1.4457   -0.7985    0.0000 N   0  0  0  0  0  0  0  0  0  0  0  0
    1.0189   -1.3494    0.0000 C   0  0  0  0  0  0  0  0  0  0  0  0
   -0.2754   -1.6523    0.0000 C   0  0  0  0  0  0  0  0  0  0  0  0
    0.9225   -2.1892    0.0000 C   0  0  0  0  0  0  0  0  0  0  0  0
    0.1102   -2.3406    0.0000 C   0  0  0  0  0  0  0  0  0  0  0  0
    1.7348   -0.9500    0.0000 C   0  0  0  0  0  0  0  0  0  0  0  0
   -1.1152   -1.5421    0.0000 C   0  0  0  0  0  0  0  0  0  0  0  0
    2.4646    0.2754    0.0000 C   0  0  0  0  0  0  0  0  0  0  0  0
   -2.2581   -0.7022    0.0000 C   0  0  0  0  0  0  0  0  0  0  0  0
    2.4508    1.1152    0.0000 C   0  0  0  0  0  0  0  0  0  0  0  0
   -2.5610    0.0551    0.0000 C   0  0  0  0  0  0  0  0  0  0  0  0
    3.1668    1.5283    0.0000 C   0  0  0  0  0  0  0  0  0  0  0  0
   -3.3733    0.2065    0.0000 C   0  0  0  0  0  0  0  0  0  0  0  0
    3.1668   -0.1239    0.0000 C   0  0  0  0  0  0  0  0  0  0  0  0
   -2.7813   -1.3494    0.0000 C   0  0  0  0  0  0  0  0  0  0  0  0
    3.8689    1.1152    0.0000 C   0  0  0  0  0  0  0  0  0  0  0  0
   -3.8689   -0.4544    0.0000 C   0  0  0  0  0  0  0  0  0  0  0  0
    3.8689    0.2891    0.0000 C   0  0  0  0  0  0  0  0  0  0  0  0
   -3.5936   -1.2116    0.0000 C   0  0  0  0  0  0  0  0  0  0  0  0
  1 16  1  0  0  0  0
  2 17  1  0  0  0  0
  3  6  1  0  0  0  0
  3  7  1  0  0  0  0
  4 10  2  0  0  0  0
  4 12  1  0  0  0  0
  5 11  2  0  0  0  0
  5 13  1  0  0  0  0
  6  8  2  0  0  0  0
  6 10  1  0  0  0  0
  7  9  2  0  0  0  0
  7 11  1  0  0  0  0
  8  9  1  0  0  0  0
 12 14  1  0  0  0  0
 12 18  2  0  0  0  0
 13 15  2  0  0  0  0
 13 19  1  0  0  0  0
 14 16  2  0  0  0  0
 15 17  1  0  0  0  0
 16 20  1  0  0  0  0
 17 21  2  0  0  0  0
 18 22  1  0  0  0  0
 19 23  2  0  0  0  0
 20 22  2  0  0  0  0
 21 23  1  0  0  0  0
M  END
> <PUBCHEM_COMPOUND_ID_TYPE>
0

> <PUBCHEM_TOTAL_CHARGE>
0

> <PUBCHEM_SUBSTANCE_ID>
310940359

> <PUBCHEM_SUBSTANCE_VERSION>
1

> <PUBCHEM_EXT_DATASOURCE_NAME>
4488

> <PUBCHEM_EXT_DATASOURCE_REGID>
SCHEMBL16118303

> <PUBCHEM_SUBSTANCE_COMMENT>
InChI=1S/C18H12F2N2O/c19-13-3-1-5-15(9-13)21-11-17-7-8-18(23-17)12-22-16-6-2-4-14(20)10-16/h1-12H/b21-11+,22-12+
InChIKey=FHBBFGZKHWSGKD-XHQRYOPUSA-N

> <PUBCHEM_SUBSTANCE_SYNONYM>
SCHEMBL16118303

> <PUBCHEM_XREF_EXT_ID>
SCHEMBL16118303

> <PUBCHEM_EXT_DATASOURCE_URL>
https://www.surechembl.org/

> <PUBCHEM_EXT_SUBSTANCE_URL>
https://www.surechembl.org/chemical/SCHEMBL16118303

> <PUBCHEM_CID_ASSOCIATIONS>
117607401  1

> <PUBCHEM_COORDINATE_TYPE>
1
3

> <PUBCHEM_BONDANNOTATIONS>
4  12  3
5  13  3

$$$$
