310945006
  -OEChem-07211613022D

 20 22  0     0  0  0  0  0  0999 V2000
   -3.9353   -0.6544    0.0000 O   0  0  0  0  0  0  0  0  0  0  0  0
   -2.2550   -0.6544    0.0000 N   0  0  0  0  0  0  0  0  0  0  0  0
    0.6632    1.3796    0.0000 N   0  0  0  0  0  0  0  0  0  0  0  0
   -1.4060   -0.6544    0.0000 C   0  0  0  0  0  0  0  0  0  0  0  0
   -0.1681    0.0177    0.0000 C   0  0  0  0  0  0  0  0  0  0  0  0
    0.2565   -0.6544    0.0000 C   0  0  0  0  0  0  0  0  0  0  0  0
   -0.9993    0.0000    0.0000 C   0  0  0  0  0  0  0  0  0  0  0  0
   -0.9816   -1.3618    0.0000 C   0  0  0  0  0  0  0  0  0  0  0  0
   -0.1503   -1.3618    0.0000 C   0  0  0  0  0  0  0  0  0  0  0  0
   -2.6618    0.0177    0.0000 C   0  0  0  0  0  0  0  0  0  0  0  0
   -2.6795   -1.3796    0.0000 C   0  0  0  0  0  0  0  0  0  0  0  0
    1.0877   -0.6721    0.0000 C   0  0  0  0  0  0  0  0  0  0  0  0
    0.2565    0.7251    0.0000 C   0  0  0  0  0  0  0  0  0  0  0  0
    1.9543   -0.6544    0.0000 C   0  0  0  0  0  0  0  0  0  0  0  0
   -3.4931    0.0177    0.0000 C   0  0  0  0  0  0  0  0  0  0  0  0
   -3.5107   -1.3618    0.0000 C   0  0  0  0  0  0  0  0  0  0  0  0
    2.7680   -0.6721    0.0000 C   0  0  0  0  0  0  0  0  0  0  0  0
    3.3516   -0.1238    0.0000 C   0  0  0  0  0  0  0  0  0  0  0  0
    3.3870   -1.2204    0.0000 C   0  0  0  0  0  0  0  0  0  0  0  0
    3.9353   -0.6898    0.0000 C   0  0  0  0  0  0  0  0  0  0  0  0
  1 15  1  0  0  0  0
  1 16  1  0  0  0  0
  2  4  1  0  0  0  0
  2 10  1  0  0  0  0
  2 11  1  0  0  0  0
  3 13  3  0  0  0  0
  4  7  2  0  0  0  0
  4  8  1  0  0  0  0
  5  6  2  0  0  0  0
  5  7  1  0  0  0  0
  5 13  1  0  0  0  0
  6  9  1  0  0  0  0
  6 12  1  0  0  0  0
  8  9  2  0  0  0  0
 10 15  1  0  0  0  0
 11 16  1  0  0  0  0
 12 14  3  0  0  0  0
 14 17  1  0  0  0  0
 17 18  1  0  0  0  0
 17 19  1  0  0  0  0
 18 20  1  0  0  0  0
 19 20  1  0  0  0  0
M  END
> <PUBCHEM_COMPOUND_ID_TYPE>
0

> <PUBCHEM_TOTAL_CHARGE>
0

> <PUBCHEM_SUBSTANCE_ID>
310945006

> <PUBCHEM_SUBSTANCE_VERSION>
1

> <PUBCHEM_EXT_DATASOURCE_NAME>
4488

> <PUBCHEM_EXT_DATASOURCE_REGID>
SCHEMBL16123094

> <PUBCHEM_SUBSTANCE_COMMENT>
InChI=1S/C17H18N2O/c18-13-16-12-17(19-8-10-20-11-9-19)7-6-15(16)5-4-14-2-1-3-14/h6-7,12,14H,1-3,8-11H2
InChIKey=HWCJDCVIJSPWMG-UHFFFAOYSA-N

> <PUBCHEM_SUBSTANCE_SYNONYM>
SCHEMBL16123094

> <PUBCHEM_XREF_EXT_ID>
SCHEMBL16123094

> <PUBCHEM_EXT_DATASOURCE_URL>
https://www.surechembl.org/

> <PUBCHEM_EXT_SUBSTANCE_URL>
https://www.surechembl.org/chemical/SCHEMBL16123094

> <PUBCHEM_CID_ASSOCIATIONS>
117611144  1

> <PUBCHEM_COORDINATE_TYPE>
1
3

$$$$
