310942444
  -OEChem-07211613022D

 31 34  0     0  0  0  0  0  0999 V2000
    1.4392   -0.2081    0.0000 N   0  0  0  0  0  0  0  0  0  0  0  0
   -2.8739    1.4480    0.0000 N   0  0  0  0  0  0  0  0  0  0  0  0
   -0.0044   -0.2081    0.0000 N   0  0  0  0  0  0  0  0  0  0  0  0
    0.7218    1.0318    0.0000 N   0  0  0  0  0  0  0  0  0  0  0  0
    2.8739   -0.2081    0.0000 N   0  0  0  0  0  0  0  0  0  0  0  0
   -4.3174    2.2805    0.0000 N   0  0  0  0  0  0  0  0  0  0  0  0
    5.0436    1.8200    0.0000 N   0  0  0  0  0  0  0  0  0  0  0  0
    2.1565    0.2081    0.0000 C   0  0  0  0  0  0  0  0  0  0  0  0
    0.7129    0.2081    0.0000 C   0  0  0  0  0  0  0  0  0  0  0  0
    2.1654    1.0318    0.0000 C   0  0  0  0  0  0  0  0  0  0  0  0
   -2.1477    1.0318    0.0000 C   0  0  0  0  0  0  0  0  0  0  0  0
   -0.7218    0.2081    0.0000 C   0  0  0  0  0  0  0  0  0  0  0  0
    1.4303    1.4480    0.0000 C   0  0  0  0  0  0  0  0  0  0  0  0
   -2.1477    0.2081    0.0000 C   0  0  0  0  0  0  0  0  0  0  0  0
   -1.4392    1.4392    0.0000 C   0  0  0  0  0  0  0  0  0  0  0  0
   -1.4392   -0.1993    0.0000 C   0  0  0  0  0  0  0  0  0  0  0  0
   -0.7218    1.0318    0.0000 C   0  0  0  0  0  0  0  0  0  0  0  0
    2.8650   -1.0406    0.0000 C   0  0  0  0  0  0  0  0  0  0  0  0
    2.8562    1.4392    0.0000 C   0  0  0  0  0  0  0  0  0  0  0  0
   -3.5824    1.0406    0.0000 C   0  0  0  0  0  0  0  0  0  0  0  0
   -2.8739    2.2716    0.0000 C   0  0  0  0  0  0  0  0  0  0  0  0
   -4.3085    1.4480    0.0000 C   0  0  0  0  0  0  0  0  0  0  0  0
   -3.6001    2.6968    0.0000 C   0  0  0  0  0  0  0  0  0  0  0  0
    2.1565   -1.4657    0.0000 C   0  0  0  0  0  0  0  0  0  0  0  0
    3.5735   -1.4657    0.0000 C   0  0  0  0  0  0  0  0  0  0  0  0
    3.6090    1.0406    0.0000 C   0  0  0  0  0  0  0  0  0  0  0  0
    2.1565   -2.2893    0.0000 C   0  0  0  0  0  0  0  0  0  0  0  0
    3.5735   -2.2893    0.0000 C   0  0  0  0  0  0  0  0  0  0  0  0
    2.8739   -2.6968    0.0000 C   0  0  0  0  0  0  0  0  0  0  0  0
   -5.0436    2.6879    0.0000 C   0  0  0  0  0  0  0  0  0  0  0  0
    4.3174    1.4392    0.0000 C   0  0  0  0  0  0  0  0  0  0  0  0
  1  8  2  0  0  0  0
  1  9  1  0  0  0  0
  2 11  1  0  0  0  0
  2 20  1  0  0  0  0
  2 21  1  0  0  0  0
  3  9  1  0  0  0  0
  3 12  1  0  0  0  0
  4  9  2  0  0  0  0
  4 13  1  0  0  0  0
  5  8  1  0  0  0  0
  5 18  1  0  0  0  0
  6 22  1  0  0  0  0
  6 23  1  0  0  0  0
  6 30  1  0  0  0  0
  7 31  3  0  0  0  0
  8 10  1  0  0  0  0
 10 13  2  0  0  0  0
 10 19  1  0  0  0  0
 11 14  2  0  0  0  0
 11 15  1  0  0  0  0
 12 16  2  0  0  0  0
 12 17  1  0  0  0  0
 14 16  1  0  0  0  0
 15 17  2  0  0  0  0
 18 24  1  0  0  0  0
 18 25  1  0  0  0  0
 19 26  2  0  0  0  0
 20 22  1  0  0  0  0
 21 23  1  0  0  0  0
 24 27  1  0  0  0  0
 25 28  1  0  0  0  0
 26 31  1  0  0  0  0
 27 29  1  0  0  0  0
 28 29  1  0  0  0  0
M  END
> <PUBCHEM_COMPOUND_ID_TYPE>
0

> <PUBCHEM_TOTAL_CHARGE>
0

> <PUBCHEM_SUBSTANCE_ID>
310942444

> <PUBCHEM_SUBSTANCE_VERSION>
1

> <PUBCHEM_EXT_DATASOURCE_NAME>
4488

> <PUBCHEM_EXT_DATASOURCE_REGID>
SCHEMBL16120480

> <PUBCHEM_SUBSTANCE_COMMENT>
InChI=1S/C24H31N7/c1-30-14-16-31(17-15-30)22-11-9-21(10-12-22)28-24-26-18-19(6-5-13-25)23(29-24)27-20-7-3-2-4-8-20/h5-6,9-12,18,20H,2-4,7-8,14-17H2,1H3,(H2,26,27,28,29)/b6-5+
InChIKey=CZKKIZUGOANPHQ-AATRIKPKSA-N

> <PUBCHEM_SUBSTANCE_SYNONYM>
SCHEMBL16120480

> <PUBCHEM_XREF_EXT_ID>
SCHEMBL16120480

> <PUBCHEM_EXT_DATASOURCE_URL>
https://www.surechembl.org/

> <PUBCHEM_EXT_SUBSTANCE_URL>
https://www.surechembl.org/chemical/SCHEMBL16120480

> <PUBCHEM_CID_ASSOCIATIONS>
90466629  1

> <PUBCHEM_COORDINATE_TYPE>
1
3

$$$$
