310941286
  -OEChem-07211613022D

 43 46  0     1  0  0  0  0  0999 V2000
    5.0977    0.6680    0.0000 O   0  0  0  0  0  0  0  0  0  0  0  0
    3.9586   -1.2867    0.0000 O   0  0  0  0  0  0  0  0  0  0  0  0
    1.8070    0.7805    0.0000 O   0  0  0  0  0  0  0  0  0  0  0  0
    1.0898   -2.9461    0.0000 O   0  0  0  0  0  0  0  0  0  0  0  0
   -0.3445   -1.2867    0.0000 O   0  0  0  0  0  0  0  0  0  0  0  0
    3.9586   -2.9461    0.0000 O   0  0  0  0  0  0  0  0  0  0  0  0
   -2.4961    0.7805    0.0000 O   0  0  0  0  0  0  0  0  0  0  0  0
   -5.3648    0.7805    0.0000 O   0  0  0  0  0  0  0  0  0  0  0  0
    2.5242   -0.4430    0.0000 N   0  0  0  0  0  0  0  0  0  0  0  0
    0.3726   -0.0211    0.0000 N   0  0  0  0  0  0  0  0  0  0  0  0
   -1.7789   -0.4430    0.0000 N   0  0  0  0  0  0  0  0  0  0  0  0
   -3.9304   -0.0211    0.0000 N   0  0  0  0  0  0  0  0  0  0  0  0
    4.6758   -0.0070    0.0000 C   0  0  3  0  0  0  0  0  0  0  0  0
    3.9445   -0.4289    0.0000 C   0  0  0  0  0  0  0  0  0  0  0  0
    4.2961    0.6961    0.0000 C   0  0  0  0  0  0  0  0  0  0  0  0
    3.2274   -0.0351    0.0000 C   0  0  3  0  0  0  0  0  0  0  0  0
    5.3648   -0.4149    0.0000 C   0  0  0  0  0  0  0  0  0  0  0  0
    3.2414    1.3008    0.0000 C   0  0  0  0  0  0  0  0  0  0  0  0
    1.7930   -0.0492    0.0000 C   0  0  0  0  0  0  0  0  0  0  0  0
    1.1179   -0.4289    0.0000 C   0  0  3  0  0  0  0  0  0  0  0  0
    2.5102    1.7227    0.0000 C   0  0  0  0  0  0  0  0  0  0  0  0
    1.0758   -1.2867    0.0000 C   0  0  0  0  0  0  0  0  0  0  0  0
    1.8211   -1.6805    0.0000 C   0  0  0  0  0  0  0  0  0  0  0  0
    1.8070   -2.5102    0.0000 C   0  0  0  0  0  0  0  0  0  0  0  0
   -0.3304   -0.4149    0.0000 C   0  0  0  0  0  0  0  0  0  0  0  0
    1.7930    1.3148    0.0000 C   0  0  0  0  0  0  0  0  0  0  0  0
    2.5242    2.5383    0.0000 C   0  0  0  0  0  0  0  0  0  0  0  0
    2.5102   -1.2867    0.0000 C   0  0  0  0  0  0  0  0  0  0  0  0
    2.5383   -2.9179    0.0000 C   0  0  0  0  0  0  0  0  0  0  0  0
   -1.0758   -0.0351    0.0000 C   0  0  3  0  0  0  0  0  0  0  0  0
    3.2274   -2.5102    0.0000 C   0  0  0  0  0  0  0  0  0  0  0  0
    3.2414   -1.6946    0.0000 C   0  0  0  0  0  0  0  0  0  0  0  0
    1.0898    1.7227    0.0000 C   0  0  0  0  0  0  0  0  0  0  0  0
    1.8070    2.9461    0.0000 C   0  0  0  0  0  0  0  0  0  0  0  0
    1.0898    2.5383    0.0000 C   0  0  0  0  0  0  0  0  0  0  0  0
   -2.4961   -0.0492    0.0000 C   0  0  0  0  0  0  0  0  0  0  0  0
   -1.0617    0.7945    0.0000 C   0  0  0  0  0  0  0  0  0  0  0  0
   -3.2274   -0.4289    0.0000 C   0  0  0  0  0  0  0  0  0  0  0  0
   -3.9304    0.8086    0.0000 C   0  0  0  0  0  0  0  0  0  0  0  0
   -4.6617   -0.4289    0.0000 C   0  0  0  0  0  0  0  0  0  0  0  0
    4.6898   -2.5102    0.0000 C   0  0  0  0  0  0  0  0  0  0  0  0
   -4.6476    1.2164    0.0000 C   0  0  0  0  0  0  0  0  0  0  0  0
   -5.3648   -0.0351    0.0000 C   0  0  0  0  0  0  0  0  0  0  0  0
  1 13  1  0  0  0  0
  1 15  1  0  0  0  0
  2 14  2  0  0  0  0
  3 19  2  0  0  0  0
  4 24  1  0  0  0  0
  5 25  2  0  0  0  0
  6 31  1  0  0  0  0
  6 41  1  0  0  0  0
  7 36  2  0  0  0  0
  8 42  1  0  0  0  0
  8 43  1  0  0  0  0
 16  9  1  1  0  0  0
  9 19  1  0  0  0  0
 20 10  1  6  0  0  0
 10 25  1  0  0  0  0
 11 30  1  0  0  0  0
 11 36  1  0  0  0  0
 12 38  1  0  0  0  0
 12 39  1  0  0  0  0
 12 40  1  0  0  0  0
 13 14  1  1  0  0  0
 13 15  1  0  0  0  0
 13 17  1  6  0  0  0
 14 16  1  0  0  0  0
 16 18  1  0  0  0  0
 18 21  1  0  0  0  0
 19 20  1  0  0  0  0
 20 22  1  0  0  0  0
 21 26  2  0  0  0  0
 21 27  1  0  0  0  0
 22 23  1  0  0  0  0
 23 24  1  0  0  0  0
 23 28  2  0  0  0  0
 24 29  2  0  0  0  0
 25 30  1  0  0  0  0
 26 33  1  0  0  0  0
 27 34  2  0  0  0  0
 28 32  1  0  0  0  0
 29 31  1  0  0  0  0
 30 37  1  1  0  0  0
 31 32  2  0  0  0  0
 33 35  2  0  0  0  0
 34 35  1  0  0  0  0
 36 38  1  0  0  0  0
 39 42  1  0  0  0  0
 40 43  1  0  0  0  0
M  END
> <PUBCHEM_COMPOUND_ID_TYPE>
0

> <PUBCHEM_TOTAL_CHARGE>
0

> <PUBCHEM_SUBSTANCE_ID>
310941286

> <PUBCHEM_SUBSTANCE_VERSION>
1

> <PUBCHEM_EXT_DATASOURCE_NAME>
4488

> <PUBCHEM_EXT_DATASOURCE_REGID>
SCHEMBL16119246

> <PUBCHEM_SUBSTANCE_COMMENT>
InChI=1S/C31H40N4O8/c1-20(32-27(37)18-35-11-13-42-14-12-35)29(39)34-25(16-22-9-10-23(41-3)17-26(22)36)30(40)33-24(28(38)31(2)19-43-31)15-21-7-5-4-6-8-21/h4-10,17,20,24-25,36H,11-16,18-19H2,1-3H3,(H,32,37)(H,33,40)(H,34,39)/t20-,24-,25-,31+/m0/s1
InChIKey=LJZVAJRNHWYTIG-QXLKWZLXSA-N

> <PUBCHEM_SUBSTANCE_SYNONYM>
SCHEMBL16119246

> <PUBCHEM_XREF_EXT_ID>
SCHEMBL16119246

> <PUBCHEM_EXT_DATASOURCE_URL>
https://www.surechembl.org/

> <PUBCHEM_EXT_SUBSTANCE_URL>
https://www.surechembl.org/chemical/SCHEMBL16119246

> <PUBCHEM_CID_ASSOCIATIONS>
117608135  1

> <PUBCHEM_COORDINATE_TYPE>
1
3

> <PUBCHEM_BONDANNOTATIONS>
20  10  6
13  14  5
13  17  6
30  37  5
16  9  5

$$$$
