310931731
  -OEChem-07211613022D

 49 53  0     1  0  0  0  0  0999 V2000
   16.4328   -2.9516    0.0000 Cl  0  0  0  0  0  0  0  0  0  0  0  0
   17.8618    1.1734    0.0000 S   0  0  0  0  0  0  0  0  0  0  0  0
   19.2437    2.8958    0.0000 S   0  0  0  0  0  0  0  0  0  0  0  0
   15.0039    1.1734    0.0000 F   0  0  0  0  0  0  0  0  0  0  0  0
   17.4493    1.8879    0.0000 O   0  0  0  0  0  0  0  0  0  0  0  0
   18.2743    0.4589    0.0000 O   0  0  0  0  0  0  0  0  0  0  0  0
   15.0039   -0.4766    0.0000 O   0  0  0  0  0  0  0  0  0  0  0  0
   20.7196    0.3484    0.0000 O   0  0  0  0  0  0  0  0  0  0  0  0
   10.7170   -0.4766    0.0000 O   0  0  0  0  0  0  0  0  0  0  0  0
   22.1486    2.8234    0.0000 O   0  0  0  0  0  0  0  0  0  0  0  0
   11.4316    0.7609    0.0000 O   0  0  0  0  0  0  0  0  0  0  0  0
   18.5762    1.5859    0.0000 N   0  0  0  0  0  0  0  0  0  0  0  0
   17.9088    2.8958    0.0000 N   0  0  0  0  0  0  0  0  0  0  0  0
   12.1460   -0.4766    0.0000 N   0  0  0  0  0  0  0  0  0  0  0  0
   18.9887    3.6804    0.0000 N   0  0  0  0  0  0  0  0  0  0  0  0
   17.1473    0.7609    0.0000 C   0  0  0  0  0  0  0  0  0  0  0  0
   18.5762    2.4109    0.0000 C   0  0  0  0  0  0  0  0  0  0  0  0
   19.2907    1.1734    0.0000 C   0  0  0  0  0  0  0  0  0  0  0  0
   16.4328    1.1734    0.0000 C   0  0  0  0  0  0  0  0  0  0  0  0
   17.1473   -0.0641    0.0000 C   0  0  0  0  0  0  0  0  0  0  0  0
   20.0052    1.5859    0.0000 C   0  0  0  0  0  0  0  0  0  0  0  0
   15.7184    0.7609    0.0000 C   0  0  0  0  0  0  0  0  0  0  0  0
   15.7184   -0.0641    0.0000 C   0  0  0  0  0  0  0  0  0  0  0  0
   16.4328   -0.4766    0.0000 C   0  0  0  0  0  0  0  0  0  0  0  0
   20.7196    1.1734    0.0000 C   0  0  0  0  0  0  0  0  0  0  0  0
   13.5750   -0.4766    0.0000 C   0  0  3  0  0  0  0  0  0  0  0  0
   13.5750   -1.3016    0.0000 C   0  0  3  0  0  0  0  0  0  0  0  0
   20.0052    2.4109    0.0000 C   0  0  0  0  0  0  0  0  0  0  0  0
   14.2894   -0.0641    0.0000 C   0  0  0  0  0  0  0  0  0  0  0  0
   14.2894   -1.7141    0.0000 C   0  0  0  0  0  0  0  0  0  0  0  0
   18.1637    3.6804    0.0000 C   0  0  0  0  0  0  0  0  0  0  0  0
   12.8605   -0.0641    0.0000 C   0  0  0  0  0  0  0  0  0  0  0  0
   21.4341    1.5859    0.0000 C   0  0  0  0  0  0  0  0  0  0  0  0
   21.4341    2.4109    0.0000 C   0  0  0  0  0  0  0  0  0  0  0  0
   12.8605   -1.7141    0.0000 C   0  0  0  0  0  0  0  0  0  0  0  0
   20.7196    2.8234    0.0000 C   0  0  0  0  0  0  0  0  0  0  0  0
   12.1460   -1.3016    0.0000 C   0  0  0  0  0  0  0  0  0  0  0  0
   11.4316   -0.0641    0.0000 C   0  0  0  0  0  0  0  0  0  0  0  0
   15.0039   -1.3016    0.0000 C   0  0  0  0  0  0  0  0  0  0  0  0
   14.2894   -2.5391    0.0000 C   0  0  0  0  0  0  0  0  0  0  0  0
   15.7184   -1.7141    0.0000 C   0  0  0  0  0  0  0  0  0  0  0  0
   15.0039   -2.9516    0.0000 C   0  0  0  0  0  0  0  0  0  0  0  0
   15.7184   -2.5391    0.0000 C   0  0  0  0  0  0  0  0  0  0  0  0
   10.0026   -0.0641    0.0000 C   0  0  0  0  0  0  0  0  0  0  0  0
   21.4341   -0.0641    0.0000 C   0  0  0  0  0  0  0  0  0  0  0  0
   22.8630    2.4109    0.0000 C   0  0  0  0  0  0  0  0  0  0  0  0
   10.0026    0.7609    0.0000 C   0  0  0  0  0  0  0  0  0  0  0  0
    9.2881    0.3484    0.0000 C   0  0  0  0  0  0  0  0  0  0  0  0
    9.2881   -0.4766    0.0000 C   0  0  0  0  0  0  0  0  0  0  0  0
  1 43  1  0  0  0  0
  2  5  2  0  0  0  0
  2  6  2  0  0  0  0
  2 12  1  0  0  0  0
  2 16  1  0  0  0  0
  3 15  1  0  0  0  0
  3 17  1  0  0  0  0
  4 22  1  0  0  0  0
  7 23  1  0  0  0  0
  7 29  1  0  0  0  0
  8 25  1  0  0  0  0
  8 45  1  0  0  0  0
  9 38  1  0  0  0  0
  9 44  1  0  0  0  0
 10 34  1  0  0  0  0
 10 46  1  0  0  0  0
 11 38  2  0  0  0  0
 12 17  1  0  0  0  0
 12 18  1  0  0  0  0
 13 17  2  0  0  0  0
 13 31  1  0  0  0  0
 14 32  1  0  0  0  0
 14 37  1  0  0  0  0
 14 38  1  0  0  0  0
 15 31  2  0  0  0  0
 16 19  1  0  0  0  0
 16 20  2  0  0  0  0
 18 21  1  0  0  0  0
 19 22  2  0  0  0  0
 20 24  1  0  0  0  0
 21 25  1  0  0  0  0
 21 28  2  0  0  0  0
 22 23  1  0  0  0  0
 23 24  2  0  0  0  0
 25 33  2  0  0  0  0
 26 27  1  0  0  0  0
 26 29  1  6  0  0  0
 26 32  1  0  0  0  0
 27 30  1  0  0  0  0
 27 35  1  1  0  0  0
 28 36  1  0  0  0  0
 30 39  2  0  0  0  0
 30 40  1  0  0  0  0
 33 34  1  0  0  0  0
 34 36  2  0  0  0  0
 35 37  1  0  0  0  0
 39 41  1  0  0  0  0
 40 42  2  0  0  0  0
 41 43  2  0  0  0  0
 42 43  1  0  0  0  0
 44 47  1  0  0  0  0
 44 48  1  0  0  0  0
 44 49  1  0  0  0  0
M  END
> <PUBCHEM_COMPOUND_ID_TYPE>
0

> <PUBCHEM_TOTAL_CHARGE>
0

> <PUBCHEM_SUBSTANCE_ID>
310931731

> <PUBCHEM_SUBSTANCE_VERSION>
1

> <PUBCHEM_EXT_DATASOURCE_NAME>
4488

> <PUBCHEM_EXT_DATASOURCE_REGID>
SCHEMBL16109060

> <PUBCHEM_SUBSTANCE_COMMENT>
InChI=1S/C34H38ClFN4O7S2/c1-34(2,3)47-33(41)39-15-14-28(22-6-9-25(35)10-7-22)24(18-39)20-46-30-13-12-27(17-29(30)36)49(42,43)40(32-37-21-38-48-32)19-23-8-11-26(44-4)16-31(23)45-5/h6-13,16-17,21,24,28H,14-15,18-20H2,1-5H3/t24-,28-/m1/s1
InChIKey=ZZOUYOVUWXKMIQ-UFHPHHKVSA-N

> <PUBCHEM_SUBSTANCE_SYNONYM>
SCHEMBL16109060

> <PUBCHEM_XREF_EXT_ID>
SCHEMBL16109060

> <PUBCHEM_EXT_DATASOURCE_URL>
https://www.surechembl.org/

> <PUBCHEM_EXT_SUBSTANCE_URL>
https://www.surechembl.org/chemical/SCHEMBL16109060

> <PUBCHEM_CID_ASSOCIATIONS>
117600424  1

> <PUBCHEM_COORDINATE_TYPE>
1
3

> <PUBCHEM_BONDANNOTATIONS>
26  29  6
27  35  5

$$$$
