310948784
  -OEChem-07211613022D

 32 36  0     1  0  0  0  0  0999 V2000
   -2.6058    2.2948    0.0000 O   0  0  0  0  0  0  0  0  0  0  0  0
    0.1728    2.1566    0.0000 N   0  0  0  0  0  0  0  0  0  0  0  0
   -0.1728    1.3963    0.0000 N   0  0  0  0  0  0  0  0  0  0  0  0
   -1.5552    0.8710    0.0000 N   0  0  0  0  0  0  0  0  0  0  0  0
   -1.8871    3.5390    0.0000 N   0  0  0  0  0  0  0  0  0  0  0  0
   -0.8641   -2.9584    0.0000 N   0  0  0  0  0  0  0  0  0  0  0  0
   -0.1036   -2.6266    0.0000 N   0  0  0  0  0  0  0  0  0  0  0  0
   -0.7672   -3.7879    0.0000 N   0  0  0  0  0  0  0  0  0  0  0  0
    1.0161    0.1382    0.0000 N   0  0  0  0  0  0  0  0  0  0  0  0
   -1.1682    2.3087    0.0000 C   0  0  0  0  0  0  0  0  0  0  0  0
   -0.4630    2.7235    0.0000 C   0  0  0  0  0  0  0  0  0  0  0  0
   -1.0023    1.5068    0.0000 C   0  0  0  0  0  0  0  0  0  0  0  0
    0.9746    2.3363    0.0000 C   0  0  3  0  0  0  0  0  0  0  0  0
   -1.8871    2.7235    0.0000 C   0  0  0  0  0  0  0  0  0  0  0  0
   -0.4493    3.5390    0.0000 C   0  0  0  0  0  0  0  0  0  0  0  0
    1.5276    1.7281    0.0000 C   0  0  3  0  0  0  0  0  0  0  0  0
   -1.5829   -0.0553    0.0000 C   0  0  0  0  0  0  0  0  0  0  0  0
   -1.1958    3.9538    0.0000 C   0  0  0  0  0  0  0  0  0  0  0  0
    1.2511    3.1105    0.0000 C   0  0  0  0  0  0  0  0  0  0  0  0
    2.3432    1.8940    0.0000 C   0  0  0  0  0  0  0  0  0  0  0  0
   -1.5690   -1.7142    0.0000 C   0  0  0  0  0  0  0  0  0  0  0  0
   -2.2879   -0.4838    0.0000 C   0  0  0  0  0  0  0  0  0  0  0  0
   -0.8641   -0.4700    0.0000 C   0  0  0  0  0  0  0  0  0  0  0  0
    1.2649    0.9401    0.0000 C   0  0  0  0  0  0  0  0  0  0  0  0
    2.0529    3.2764    0.0000 C   0  0  0  0  0  0  0  0  0  0  0  0
   -1.5967   -2.5436    0.0000 C   0  0  3  0  0  0  0  0  0  0  0  0
   -2.2879   -1.2995    0.0000 C   0  0  0  0  0  0  0  0  0  0  0  0
   -0.8641   -1.2995    0.0000 C   0  0  0  0  0  0  0  0  0  0  0  0
    2.6058    2.6682    0.0000 C   0  0  0  0  0  0  0  0  0  0  0  0
   -2.3156   -2.9584    0.0000 C   0  0  0  0  0  0  0  0  0  0  0  0
    0.0484   -3.9538    0.0000 C   0  0  0  0  0  0  0  0  0  0  0  0
    0.4493   -3.2349    0.0000 C   0  0  0  0  0  0  0  0  0  0  0  0
  1 14  2  0  0  0  0
  2  3  1  0  0  0  0
  2 11  1  0  0  0  0
 13  2  1  1  0  0  0
  3 12  2  0  0  0  0
  4 12  1  0  0  0  0
  4 17  1  0  0  0  0
  5 14  1  0  0  0  0
  5 18  1  0  0  0  0
  6  7  1  0  0  0  0
  6  8  1  0  0  0  0
  6 26  1  0  0  0  0
  7 32  2  0  0  0  0
  8 31  2  0  0  0  0
  9 24  3  0  0  0  0
 10 11  2  0  0  0  0
 10 12  1  0  0  0  0
 10 14  1  0  0  0  0
 11 15  1  0  0  0  0
 13 16  1  0  0  0  0
 13 19  1  0  0  0  0
 15 18  2  0  0  0  0
 16 20  1  0  0  0  0
 16 24  1  6  0  0  0
 17 22  2  0  0  0  0
 17 23  1  0  0  0  0
 19 25  1  0  0  0  0
 20 29  1  0  0  0  0
 21 26  1  0  0  0  0
 21 27  2  0  0  0  0
 21 28  1  0  0  0  0
 22 27  1  0  0  0  0
 23 28  2  0  0  0  0
 25 29  1  0  0  0  0
 26 30  1  0  0  0  0
 31 32  1  0  0  0  0
M  END
> <PUBCHEM_COMPOUND_ID_TYPE>
0

> <PUBCHEM_TOTAL_CHARGE>
0

> <PUBCHEM_SUBSTANCE_ID>
310948784

> <PUBCHEM_SUBSTANCE_VERSION>
1

> <PUBCHEM_EXT_DATASOURCE_NAME>
4488

> <PUBCHEM_EXT_DATASOURCE_REGID>
SCHEMBL16126968

> <PUBCHEM_SUBSTANCE_COMMENT>
InChI=1S/C23H24N8O/c1-15(31-26-12-13-27-31)16-6-8-18(9-7-16)28-22-21-20(10-11-25-23(21)32)30(29-22)19-5-3-2-4-17(19)14-24/h6-13,15,17,19H,2-5H2,1H3,(H,25,32)(H,28,29)/t15?,17-,19+/m1/s1
InChIKey=NRMRWILHJJVKCG-IMNIMJDZSA-N

> <PUBCHEM_SUBSTANCE_SYNONYM>
SCHEMBL16126968

> <PUBCHEM_XREF_EXT_ID>
SCHEMBL16126968

> <PUBCHEM_EXT_DATASOURCE_URL>
https://www.surechembl.org/

> <PUBCHEM_EXT_SUBSTANCE_URL>
https://www.surechembl.org/chemical/SCHEMBL16126968

> <PUBCHEM_CID_ASSOCIATIONS>
117614325  1

> <PUBCHEM_COORDINATE_TYPE>
1
3

> <PUBCHEM_BONDANNOTATIONS>
16  24  6
13  2  5

$$$$
