310940293
  -OEChem-07211613022D

 34 38  0     0  0  0  0  0  0999 V2000
   -1.2300   -4.1332    0.0000 Cl  0  0  0  0  0  0  0  0  0  0  0  0
   -3.3283    0.4613    0.0000 O   0  0  0  0  0  0  0  0  0  0  0  0
   -0.5427    0.3165    0.0000 N   0  0  0  0  0  0  0  0  0  0  0  0
   -0.8864   -0.4432    0.0000 N   0  0  0  0  0  0  0  0  0  0  0  0
   -2.2610   -0.9677    0.0000 N   0  0  0  0  0  0  0  0  0  0  0  0
   -2.6047    1.7094    0.0000 N   0  0  0  0  0  0  0  0  0  0  0  0
    0.9225    2.9032    0.0000 N   0  0  0  0  0  0  0  0  0  0  0  0
    2.4419    0.1899    0.0000 N   0  0  0  0  0  0  0  0  0  0  0  0
    0.2532    0.5155    0.0000 C   0  0  0  0  0  0  0  0  0  0  0  0
   -1.1577    0.8773    0.0000 C   0  0  0  0  0  0  0  0  0  0  0  0
   -1.8631    0.4793    0.0000 C   0  0  0  0  0  0  0  0  0  0  0  0
   -1.7184   -0.3347    0.0000 C   0  0  0  0  0  0  0  0  0  0  0  0
   -2.6047    0.8954    0.0000 C   0  0  0  0  0  0  0  0  0  0  0  0
   -0.3075    1.0762    0.0000 C   0  0  0  0  0  0  0  0  0  0  0  0
    1.0853    0.7145    0.0000 C   0  0  0  0  0  0  0  0  0  0  0  0
   -1.1577    1.7094    0.0000 C   0  0  0  0  0  0  0  0  0  0  0  0
    0.8501   -0.1537    0.0000 C   0  0  0  0  0  0  0  0  0  0  0  0
   -1.8812    2.1254    0.0000 C   0  0  0  0  0  0  0  0  0  0  0  0
   -0.0904    1.8722    0.0000 C   0  0  0  0  0  0  0  0  0  0  0  0
    1.2842    1.5104    0.0000 C   0  0  0  0  0  0  0  0  0  0  0  0
    0.7055    2.0892    0.0000 C   0  0  0  0  0  0  0  0  0  0  0  0
   -2.0078   -1.7456    0.0000 C   0  0  0  0  0  0  0  0  0  0  0  0
    1.6461    0.0452    0.0000 C   0  0  0  0  0  0  0  0  0  0  0  0
   -2.5324   -2.3786    0.0000 C   0  0  0  0  0  0  0  0  0  0  0  0
   -1.1938   -1.9445    0.0000 C   0  0  0  0  0  0  0  0  0  0  0  0
    1.7003    3.1203    0.0000 C   0  0  0  0  0  0  0  0  0  0  0  0
   -2.2973   -3.1565    0.0000 C   0  0  0  0  0  0  0  0  0  0  0  0
   -0.9406   -2.7223    0.0000 C   0  0  0  0  0  0  0  0  0  0  0  0
   -1.4833   -3.3554    0.0000 C   0  0  0  0  0  0  0  0  0  0  0  0
    2.3334    2.5414    0.0000 C   0  0  0  0  0  0  0  0  0  0  0  0
    1.9536    3.9162    0.0000 C   0  0  0  0  0  0  0  0  0  0  0  0
    3.1113    2.7585    0.0000 C   0  0  0  0  0  0  0  0  0  0  0  0
    2.7494    4.1332    0.0000 C   0  0  0  0  0  0  0  0  0  0  0  0
    3.3283    3.5544    0.0000 C   0  0  0  0  0  0  0  0  0  0  0  0
  1 29  1  0  0  0  0
  2 13  2  0  0  0  0
  3  4  1  0  0  0  0
  3  9  1  0  0  0  0
  3 10  1  0  0  0  0
  4 12  2  0  0  0  0
  5 12  1  0  0  0  0
  5 22  1  0  0  0  0
  6 13  1  0  0  0  0
  6 18  1  0  0  0  0
 21  7  1  1  0  0  0
  7 26  1  0  0  0  0
  8 23  3  0  0  0  0
  9 14  1  0  0  0  0
  9 15  1  0  0  0  0
  9 17  1  6  0  0  0
 10 11  2  0  0  0  0
 10 16  1  0  0  0  0
 11 12  1  0  0  0  0
 11 13  1  0  0  0  0
 14 19  1  0  0  0  0
 15 20  1  0  0  0  0
 16 18  2  0  0  0  0
 17 23  1  0  0  0  0
 19 21  1  0  0  0  0
 20 21  1  0  0  0  0
 22 24  2  0  0  0  0
 22 25  1  0  0  0  0
 24 27  1  0  0  0  0
 25 28  2  0  0  0  0
 26 30  2  0  0  0  0
 26 31  1  0  0  0  0
 27 29  2  0  0  0  0
 28 29  1  0  0  0  0
 30 32  1  0  0  0  0
 31 33  2  0  0  0  0
 32 34  2  0  0  0  0
 33 34  1  0  0  0  0
M  END
> <PUBCHEM_COMPOUND_ID_TYPE>
0

> <PUBCHEM_TOTAL_CHARGE>
0

> <PUBCHEM_SUBSTANCE_ID>
310940293

> <PUBCHEM_SUBSTANCE_VERSION>
1

> <PUBCHEM_EXT_DATASOURCE_NAME>
4488

> <PUBCHEM_EXT_DATASOURCE_REGID>
SCHEMBL16118236

> <PUBCHEM_SUBSTANCE_COMMENT>
InChI=1S/C26H25ClN6O/c27-18-6-8-20(9-7-18)31-24-23-22(12-17-29-25(23)34)33(32-24)26(15-16-28)13-10-21(11-14-26)30-19-4-2-1-3-5-19/h1-9,12,17,21,30H,10-11,13-15H2,(H,29,34)(H,31,32)/t21-,26+
InChIKey=NEJWWYPJJOPHHP-PGCGBBBBSA-N

> <PUBCHEM_SUBSTANCE_SYNONYM>
SCHEMBL16118236

> <PUBCHEM_XREF_EXT_ID>
SCHEMBL16118236

> <PUBCHEM_EXT_DATASOURCE_URL>
https://www.surechembl.org/

> <PUBCHEM_EXT_SUBSTANCE_URL>
https://www.surechembl.org/chemical/SCHEMBL16118236

> <PUBCHEM_CID_ASSOCIATIONS>
90462894  1

> <PUBCHEM_COORDINATE_TYPE>
1
3

> <PUBCHEM_BONDANNOTATIONS>
21  7  5
9  17  6

$$$$
