310949760
  -OEChem-07211613022D

 23 24  0     0  0  0  0  0  0999 V2000
    0.8263   -2.1699    0.0000 F   0  0  0  0  0  0  0  0  0  0  0  0
   -1.6593   -0.7188    0.0000 O   0  0  0  0  0  0  0  0  0  0  0  0
   -2.4788   -0.7188    0.0000 O   0  0  0  0  0  0  0  0  0  0  0  0
   -3.7149    0.0067    0.0000 O   0  0  0  0  0  0  0  0  0  0  0  0
    3.7149   -1.4443    0.0000 O   0  0  0  0  0  0  0  0  0  0  0  0
    3.7149    0.0067    0.0000 O   0  0  0  0  0  0  0  0  0  0  0  0
   -0.4098    0.0067    0.0000 N   0  0  0  0  0  0  0  0  0  0  0  0
   -1.6727    0.7322    0.0000 C   0  0  0  0  0  0  0  0  0  0  0  0
   -2.4654    0.7322    0.0000 C   0  0  0  0  0  0  0  0  0  0  0  0
    0.8263   -0.7188    0.0000 C   0  0  0  0  0  0  0  0  0  0  0  0
   -1.2293    0.0202    0.0000 C   0  0  0  0  0  0  0  0  0  0  0  0
    1.2293   -1.4309    0.0000 C   0  0  0  0  0  0  0  0  0  0  0  0
    2.4654   -0.7188    0.0000 C   0  0  0  0  0  0  0  0  0  0  0  0
    2.0623   -1.4443    0.0000 C   0  0  0  0  0  0  0  0  0  0  0  0
   -0.0067   -0.7054    0.0000 C   0  0  0  0  0  0  0  0  0  0  0  0
   -2.9088    0.0202    0.0000 C   0  0  0  0  0  0  0  0  0  0  0  0
   -1.2428    1.4577    0.0000 C   0  0  0  0  0  0  0  0  0  0  0  0
    1.2428   -0.0067    0.0000 C   0  0  0  0  0  0  0  0  0  0  0  0
   -2.8819    1.4309    0.0000 C   0  0  0  0  0  0  0  0  0  0  0  0
    2.0489   -0.0067    0.0000 C   0  0  0  0  0  0  0  0  0  0  0  0
    3.2850   -0.7188    0.0000 C   0  0  0  0  0  0  0  0  0  0  0  0
   -1.6593    2.1699    0.0000 C   0  0  0  0  0  0  0  0  0  0  0  0
   -2.4654    2.1564    0.0000 C   0  0  0  0  0  0  0  0  0  0  0  0
  1 12  1  0  0  0  0
  2 11  2  0  0  0  0
  3 16  2  0  0  0  0
  4 16  1  0  0  0  0
  5 21  2  0  0  0  0
  6 21  1  0  0  0  0
  7 11  1  0  0  0  0
  7 15  1  0  0  0  0
  8  9  2  0  0  0  0
  8 11  1  0  0  0  0
  8 17  1  0  0  0  0
  9 16  1  0  0  0  0
  9 19  1  0  0  0  0
 10 12  2  0  0  0  0
 10 15  1  0  0  0  0
 10 18  1  0  0  0  0
 12 14  1  0  0  0  0
 13 14  2  0  0  0  0
 13 20  1  0  0  0  0
 13 21  1  0  0  0  0
 17 22  2  0  0  0  0
 18 20  2  0  0  0  0
 19 23  2  0  0  0  0
 22 23  1  0  0  0  0
M  END
> <PUBCHEM_COMPOUND_ID_TYPE>
0

> <PUBCHEM_TOTAL_CHARGE>
0

> <PUBCHEM_SUBSTANCE_ID>
310949760

> <PUBCHEM_SUBSTANCE_VERSION>
1

> <PUBCHEM_EXT_DATASOURCE_NAME>
4488

> <PUBCHEM_EXT_DATASOURCE_REGID>
SCHEMBL16127958

> <PUBCHEM_SUBSTANCE_COMMENT>
InChI=1S/C16H12FNO5/c17-13-7-9(15(20)21)5-6-10(13)8-18-14(19)11-3-1-2-4-12(11)16(22)23/h1-7H,8H2,(H,18,19)(H,20,21)(H,22,23)
InChIKey=HUQHIDRCGFNNPQ-UHFFFAOYSA-N

> <PUBCHEM_SUBSTANCE_SYNONYM>
SCHEMBL16127958

> <PUBCHEM_XREF_EXT_ID>
SCHEMBL16127958

> <PUBCHEM_EXT_DATASOURCE_URL>
https://www.surechembl.org/

> <PUBCHEM_EXT_SUBSTANCE_URL>
https://www.surechembl.org/chemical/SCHEMBL16127958

> <PUBCHEM_CID_ASSOCIATIONS>
117615087  1

> <PUBCHEM_COORDINATE_TYPE>
1
3

$$$$
