310939421
  -OEChem-07211613022D

 16 15  0     1  0  0  0  0  0999 V2000
    0.7145    1.8416    0.0000 O   0  0  0  0  0  0  0  0  0  0  0  0
    2.8578    2.2542    0.0000 O   0  0  0  0  0  0  0  0  0  0  0  0
   -1.4288    0.6042    0.0000 O   0  0  0  0  0  0  0  0  0  0  0  0
    1.4288    0.6042    0.0000 N   0  0  0  0  0  0  0  0  0  0  0  0
    0.0000   -0.2208    0.0000 N   0  0  0  0  0  0  0  0  0  0  0  0
    1.4288    2.2542    0.0000 N   0  0  0  0  0  0  0  0  0  0  0  0
    5.7156    0.6042    0.0000 N   0  0  0  0  0  0  0  0  0  0  0  0
    2.1433    1.0166    0.0000 C   0  0  3  0  0  0  0  0  0  0  0  0
    0.7145    1.0166    0.0000 C   0  0  0  0  0  0  0  0  0  0  0  0
    0.0000    0.6042    0.0000 C   0  0  3  0  0  0  0  0  0  0  0  0
    2.1433    1.8416    0.0000 C   0  0  0  0  0  0  0  0  0  0  0  0
    2.8578    0.6042    0.0000 C   0  0  0  0  0  0  0  0  0  0  0  0
   -0.7145    1.0166    0.0000 C   0  0  0  0  0  0  0  0  0  0  0  0
    3.5723    1.0166    0.0000 C   0  0  0  0  0  0  0  0  0  0  0  0
    4.2866    0.6042    0.0000 C   0  0  0  0  0  0  0  0  0  0  0  0
    5.0011    1.0166    0.0000 C   0  0  0  0  0  0  0  0  0  0  0  0
  1  9  2  0  0  0  0
  2 11  2  0  0  0  0
  3 13  1  0  0  0  0
  8  4  1  6  0  0  0
  4  9  1  0  0  0  0
 10  5  1  1  0  0  0
  6 11  1  0  0  0  0
  7 16  1  0  0  0  0
  8 11  1  0  0  0  0
  8 12  1  0  0  0  0
  9 10  1  0  0  0  0
 10 13  1  0  0  0  0
 12 14  1  0  0  0  0
 14 15  1  0  0  0  0
 15 16  1  0  0  0  0
M  END
> <PUBCHEM_COMPOUND_ID_TYPE>
0

> <PUBCHEM_TOTAL_CHARGE>
0

> <PUBCHEM_SUBSTANCE_ID>
310939421

> <PUBCHEM_SUBSTANCE_VERSION>
1

> <PUBCHEM_EXT_DATASOURCE_NAME>
4488

> <PUBCHEM_EXT_DATASOURCE_REGID>
SCHEMBL16117343

> <PUBCHEM_SUBSTANCE_COMMENT>
InChI=1S/C9H20N4O3/c10-4-2-1-3-7(8(12)15)13-9(16)6(11)5-14/h6-7,14H,1-5,10-11H2,(H2,12,15)(H,13,16)/t6-,7-/m0/s1
InChIKey=BXOQXARCCRGBKY-BQBZGAKWSA-N

> <PUBCHEM_SUBSTANCE_SYNONYM>
SCHEMBL16117343

> <PUBCHEM_XREF_EXT_ID>
SCHEMBL16117343

> <PUBCHEM_EXT_DATASOURCE_URL>
https://www.surechembl.org/

> <PUBCHEM_EXT_SUBSTANCE_URL>
https://www.surechembl.org/chemical/SCHEMBL16117343

> <PUBCHEM_CID_ASSOCIATIONS>
117606748  1

> <PUBCHEM_COORDINATE_TYPE>
1
3

> <PUBCHEM_BONDANNOTATIONS>
8  4  6
10  5  5

$$$$
