310942920
  -OEChem-07211613022D

 35 39  0     1  0  0  0  0  0999 V2000
    0.5825    0.6712    0.0000 F   0  0  0  0  0  0  0  0  0  0  0  0
   -2.1528    0.7471    0.0000 F   0  0  0  0  0  0  0  0  0  0  0  0
    4.3310    0.2153    0.0000 O   0  0  0  0  0  0  0  0  0  0  0  0
   -4.3564    0.3420    0.0000 N   0  0  3  0  0  0  0  0  0  0  0  0
   -2.2035   -0.8991    0.0000 N   0  0  0  0  0  0  0  0  0  0  0  0
    0.6838   -0.8991    0.0000 N   0  0  0  0  0  0  0  0  0  0  0  0
   -0.7599   -0.8991    0.0000 N   0  0  0  0  0  0  0  0  0  0  0  0
    3.4192   -0.9751    0.0000 N   0  0  0  0  0  0  0  0  0  0  0  0
   -0.0507    0.3420    0.0000 N   0  0  0  0  0  0  0  0  0  0  0  0
    4.7363   -1.2537    0.0000 N   0  0  0  0  0  0  0  0  0  0  0  0
   -3.6725    0.7978    0.0000 C   0  0  0  0  0  0  0  0  0  0  0  0
   -4.3817   -0.5445    0.0000 C   0  0  3  0  0  0  0  0  0  0  0  0
    2.6341    0.2913    0.0000 C   0  0  0  0  0  0  0  0  0  0  0  0
   -2.9887   -0.5445    0.0000 C   0  0  3  0  0  0  0  0  0  0  0  0
    3.4192    0.6965    0.0000 C   0  0  0  0  0  0  0  0  0  0  0  0
   -2.9380    0.3420    0.0000 C   0  0  0  0  0  0  0  0  0  0  0  0
    2.6594   -0.5445    0.0000 C   0  0  0  0  0  0  0  0  0  0  0  0
    1.2158   -0.5699    0.0000 C   0  0  0  0  0  0  0  0  0  0  0  0
   -3.6219   -0.8738    0.0000 C   0  0  0  0  0  0  0  0  0  0  0  0
    1.2663    0.3166    0.0000 C   0  0  0  0  0  0  0  0  0  0  0  0
   -1.4944   -0.4939    0.0000 C   0  0  0  0  0  0  0  0  0  0  0  0
    1.9755    0.6712    0.0000 C   0  0  0  0  0  0  0  0  0  0  0  0
   -5.1415    0.6206    0.0000 C   0  0  0  0  0  0  0  0  0  0  0  0
    1.9755   -0.9244    0.0000 C   0  0  0  0  0  0  0  0  0  0  0  0
   -0.0760   -0.4939    0.0000 C   0  0  0  0  0  0  0  0  0  0  0  0
   -5.1668   -0.7471    0.0000 C   0  0  0  0  0  0  0  0  0  0  0  0
    3.7738    1.3804    0.0000 C   0  0  0  0  0  0  0  0  0  0  0  0
    4.2043    0.6965    0.0000 C   0  0  0  0  0  0  0  0  0  0  0  0
   -1.4944    0.3672    0.0000 C   0  0  0  0  0  0  0  0  0  0  0  0
   -5.5973   -0.1140    0.0000 C   0  0  0  0  0  0  0  0  0  0  0  0
   -4.0778    1.5069    0.0000 C   0  0  0  0  0  0  0  0  0  0  0  0
   -3.2166    1.5069    0.0000 C   0  0  0  0  0  0  0  0  0  0  0  0
   -0.7852    0.7471    0.0000 C   0  0  0  0  0  0  0  0  0  0  0  0
    4.1284   -0.6459    0.0000 C   0  0  0  0  0  0  0  0  0  0  0  0
    5.5973   -1.1777    0.0000 C   0  0  0  0  0  0  0  0  0  0  0  0
  1 20  1  0  0  0  0
  2 29  1  0  0  0  0
  3 34  2  0  0  0  0
  4 11  1  0  0  0  0
  4 12  1  0  0  0  0
  4 23  1  0  0  0  0
 14  5  1  6  0  0  0
  5 21  1  0  0  0  0
  6 18  1  0  0  0  0
  6 25  1  0  0  0  0
  7 21  1  0  0  0  0
  7 25  2  0  0  0  0
  8 17  1  0  0  0  0
  8 34  1  0  0  0  0
  9 25  1  0  0  0  0
  9 33  2  0  0  0  0
 10 34  1  0  0  0  0
 10 35  1  0  0  0  0
 11 16  1  0  0  0  0
 11 31  1  0  0  0  0
 11 32  1  0  0  0  0
 12 19  1  0  0  0  0
 12 26  1  0  0  0  0
 13 15  1  0  0  0  0
 13 17  2  0  0  0  0
 13 22  1  0  0  0  0
 14 16  1  0  0  0  0
 14 19  1  0  0  0  0
 15 27  1  0  0  0  0
 15 28  1  0  0  0  0
 17 24  1  0  0  0  0
 18 20  1  0  0  0  0
 18 24  2  0  0  0  0
 20 22  2  0  0  0  0
 21 29  2  0  0  0  0
 23 30  1  0  0  0  0
 26 30  1  0  0  0  0
 27 28  1  0  0  0  0
 29 33  1  0  0  0  0
M  END
> <PUBCHEM_COMPOUND_ID_TYPE>
0

> <PUBCHEM_TOTAL_CHARGE>
0

> <PUBCHEM_SUBSTANCE_ID>
310942920

> <PUBCHEM_SUBSTANCE_VERSION>
1

> <PUBCHEM_EXT_DATASOURCE_NAME>
4488

> <PUBCHEM_EXT_DATASOURCE_REGID>
SCHEMBL16120978

> <PUBCHEM_SUBSTANCE_COMMENT>
InChI=1S/C25H33F2N7O/c1-25(2)12-15(9-16-5-4-8-34(16)25)30-22-19(27)13-29-23(33-22)31-21-11-20(32-24(35)28-3)17(10-18(21)26)14-6-7-14/h10-11,13-16H,4-9,12H2,1-3H3,(H2,28,32,35)(H2,29,30,31,33)/t15-,16?/m1/s1
InChIKey=RQHAXKSBHHLGOD-AAFJCEBUSA-N

> <PUBCHEM_SUBSTANCE_SYNONYM>
SCHEMBL16120978

> <PUBCHEM_XREF_EXT_ID>
SCHEMBL16120978

> <PUBCHEM_EXT_DATASOURCE_URL>
https://www.surechembl.org/

> <PUBCHEM_EXT_SUBSTANCE_URL>
https://www.surechembl.org/chemical/SCHEMBL16120978

> <PUBCHEM_CID_ASSOCIATIONS>
117609394  1

> <PUBCHEM_COORDINATE_TYPE>
1
3

> <PUBCHEM_BONDANNOTATIONS>
14  5  6

$$$$
