310943762
  -OEChem-07211613022D

 39 44  0     0  0  0  0  0  0999 V2000
   -2.4122   -2.8064    0.0000 O   0  0  0  0  0  0  0  0  0  0  0  0
    1.4347    2.3964    0.0000 O   0  0  0  0  0  0  0  0  0  0  0  0
   -5.6758    2.3964    0.0000 O   0  0  0  0  0  0  0  0  0  0  0  0
   -2.8379   -0.9144    0.0000 N   0  0  0  0  0  0  0  0  0  0  0  0
   -3.5475    0.3311    0.0000 N   0  0  0  0  0  0  0  0  0  0  0  0
    3.5790    0.3311    0.0000 N   0  0  0  0  0  0  0  0  0  0  0  0
   -4.2569    1.5766    0.0000 N   0  0  0  0  0  0  0  0  0  0  0  0
    0.7253    1.1667    0.0000 N   0  0  0  0  0  0  0  0  0  0  0  0
   -0.6938    2.8221    0.0000 N   0  0  0  0  0  0  0  0  0  0  0  0
    5.6758    0.7253    0.0000 N   0  0  0  0  0  0  0  0  0  0  0  0
    4.2884    1.5924    0.0000 C   0  0  0  0  0  0  0  0  0  0  0  0
    3.5790    1.1667    0.0000 C   0  0  0  0  0  0  0  0  0  0  0  0
   -2.8221   -0.0788    0.0000 C   0  0  0  0  0  0  0  0  0  0  0  0
   -2.8379   -2.0812    0.0000 C   0  0  0  0  0  0  0  0  0  0  0  0
    3.8943    2.2704    0.0000 C   0  0  0  0  0  0  0  0  0  0  0  0
    4.6826    2.2862    0.0000 C   0  0  0  0  0  0  0  0  0  0  0  0
   -2.1127    1.1667    0.0000 C   0  0  0  0  0  0  0  0  0  0  0  0
   -1.4190    1.5766    0.0000 C   0  0  0  0  0  0  0  0  0  0  0  0
   -3.4055   -1.5135    0.0000 C   0  0  0  0  0  0  0  0  0  0  0  0
   -2.2546   -1.4978    0.0000 C   0  0  0  0  0  0  0  0  0  0  0  0
   -3.5475    1.1667    0.0000 C   0  0  0  0  0  0  0  0  0  0  0  0
   -2.1285    0.3311    0.0000 C   0  0  0  0  0  0  0  0  0  0  0  0
   -2.8379    1.5766    0.0000 C   0  0  0  0  0  0  0  0  0  0  0  0
    4.9979    1.1509    0.0000 C   0  0  0  0  0  0  0  0  0  0  0  0
    2.8695    1.5766    0.0000 C   0  0  0  0  0  0  0  0  0  0  0  0
    2.1601    1.1667    0.0000 C   0  0  0  0  0  0  0  0  0  0  0  0
   -1.4032    2.4122    0.0000 C   0  0  0  0  0  0  0  0  0  0  0  0
   -0.6780    1.1667    0.0000 C   0  0  0  0  0  0  0  0  0  0  0  0
    0.0000    1.5766    0.0000 C   0  0  0  0  0  0  0  0  0  0  0  0
    1.4190    1.5609    0.0000 C   0  0  0  0  0  0  0  0  0  0  0  0
    2.1601    0.3311    0.0000 C   0  0  0  0  0  0  0  0  0  0  0  0
    2.8852   -0.0788    0.0000 C   0  0  0  0  0  0  0  0  0  0  0  0
   -3.2479   -2.8221    0.0000 C   0  0  0  0  0  0  0  0  0  0  0  0
    0.0316    2.3964    0.0000 C   0  0  0  0  0  0  0  0  0  0  0  0
   -4.2569    2.3964    0.0000 C   0  0  0  0  0  0  0  0  0  0  0  0
   -4.9506    1.1667    0.0000 C   0  0  0  0  0  0  0  0  0  0  0  0
   -2.1285    2.7906    0.0000 C   0  0  0  0  0  0  0  0  0  0  0  0
   -4.9664    2.8221    0.0000 C   0  0  0  0  0  0  0  0  0  0  0  0
   -5.6758    1.5609    0.0000 C   0  0  0  0  0  0  0  0  0  0  0  0
  1 14  1  0  0  0  0
  2 30  2  0  0  0  0
  3 38  1  0  0  0  0
  3 39  1  0  0  0  0
  4 13  1  0  0  0  0
  4 19  1  0  0  0  0
  4 20  1  0  0  0  0
  5 13  1  0  0  0  0
  5 21  2  0  0  0  0
  6 12  1  0  0  0  0
  6 32  2  0  0  0  0
  7 21  1  0  0  0  0
  7 35  1  0  0  0  0
  7 36  1  0  0  0  0
  8 29  1  0  0  0  0
  8 30  1  0  0  0  0
  9 27  2  0  0  0  0
  9 34  1  0  0  0  0
 10 24  3  0  0  0  0
 11 12  1  0  0  0  0
 11 15  1  0  0  0  0
 11 16  1  0  0  0  0
 11 24  1  0  0  0  0
 12 25  2  0  0  0  0
 13 22  2  0  0  0  0
 14 19  1  0  0  0  0
 14 20  1  0  0  0  0
 14 33  1  0  0  0  0
 15 16  1  0  0  0  0
 17 18  1  0  0  0  0
 17 22  1  0  0  0  0
 17 23  2  0  0  0  0
 18 27  1  0  0  0  0
 18 28  2  0  0  0  0
 21 23  1  0  0  0  0
 25 26  1  0  0  0  0
 26 30  1  0  0  0  0
 26 31  2  0  0  0  0
 27 37  1  0  0  0  0
 28 29  1  0  0  0  0
 29 34  2  0  0  0  0
 31 32  1  0  0  0  0
 35 38  1  0  0  0  0
 36 39  1  0  0  0  0
M  END
> <PUBCHEM_COMPOUND_ID_TYPE>
0

> <PUBCHEM_TOTAL_CHARGE>
0

> <PUBCHEM_SUBSTANCE_ID>
310943762

> <PUBCHEM_SUBSTANCE_VERSION>
1

> <PUBCHEM_EXT_DATASOURCE_NAME>
4488

> <PUBCHEM_EXT_DATASOURCE_REGID>
SCHEMBL16121831

> <PUBCHEM_SUBSTANCE_COMMENT>
InChI=1S/C29H31N7O3/c1-19-23(14-22(15-32-19)33-27(37)20-3-6-31-24(11-20)29(16-30)4-5-29)21-12-25(35-7-9-39-10-8-35)34-26(13-21)36-17-28(2,38)18-36/h3,6,11-15,38H,4-5,7-10,17-18H2,1-2H3,(H,33,37)
InChIKey=IBSREDGABGOMNQ-UHFFFAOYSA-N

> <PUBCHEM_SUBSTANCE_SYNONYM>
SCHEMBL16121831

> <PUBCHEM_XREF_EXT_ID>
SCHEMBL16121831

> <PUBCHEM_EXT_DATASOURCE_URL>
https://www.surechembl.org/

> <PUBCHEM_EXT_SUBSTANCE_URL>
https://www.surechembl.org/chemical/SCHEMBL16121831

> <PUBCHEM_CID_ASSOCIATIONS>
117610124  1

> <PUBCHEM_COORDINATE_TYPE>
1
3

$$$$
