310942618
  -OEChem-07211613022D

 58 62  0     1  0  0  0  0  0999 V2000
   -2.6882    3.7195    0.0000 F   0  0  0  0  0  0  0  0  0  0  0  0
   -2.6882    0.3889    0.0000 F   0  0  0  0  0  0  0  0  0  0  0  0
    3.7703    1.8090    0.0000 F   0  0  0  0  0  0  0  0  0  0  0  0
   -0.1691    1.9443    0.0000 O   0  0  0  0  0  0  0  0  0  0  0  0
    3.5336    3.8886    0.0000 O   0  0  0  0  0  0  0  0  0  0  0  0
   -2.6206    5.7822    0.0000 O   0  0  0  0  0  0  0  0  0  0  0  0
   -1.1158   -0.0169    0.0000 O   0  0  0  0  0  0  0  0  0  0  0  0
   -3.7703   -4.6494    0.0000 O   0  0  0  0  0  0  0  0  0  0  0  0
   -1.7245   -6.7121    0.0000 O   0  0  0  0  0  0  0  0  0  0  0  0
   -0.1014   -1.0144    0.0000 O   0  0  0  0  0  0  0  0  0  0  0  0
   -1.6400   -3.5674    0.0000 O   0  0  0  0  0  0  0  0  0  0  0  0
   -0.3551    3.8717    0.0000 N   0  0  0  0  0  0  0  0  0  0  0  0
    1.2173    2.3163    0.0000 N   0  0  0  0  0  0  0  0  0  0  0  0
   -0.4903    2.5361    0.0000 N   0  0  0  0  0  0  0  0  0  0  0  0
    0.8454    0.9468    0.0000 N   0  0  0  0  0  0  0  0  0  0  0  0
    2.4515    0.1353    0.0000 N   0  0  0  0  0  0  0  0  0  0  0  0
   -2.5868   -5.5117    0.0000 N   0  0  0  0  0  0  0  0  0  0  0  0
   -1.4878   -1.3864    0.0000 N   0  0  0  0  0  0  0  0  0  0  0  0
    0.8791    3.0771    0.0000 C   0  0  3  0  0  0  0  0  0  0  0  0
    0.0508    3.1785    0.0000 C   0  0  0  0  0  0  0  0  0  0  0  0
    1.3526    3.7703    0.0000 C   0  0  0  0  0  0  0  0  0  0  0  0
   -1.2680    2.8911    0.0000 C   0  0  0  0  0  0  0  0  0  0  0  0
   -1.1497    3.7027    0.0000 C   0  0  0  0  0  0  0  0  0  0  0  0
   -1.9782    2.4684    0.0000 C   0  0  0  0  0  0  0  0  0  0  0  0
    0.6424    1.7245    0.0000 C   0  0  0  0  0  0  0  0  0  0  0  0
   -0.0169    4.6325    0.0000 C   0  0  0  0  0  0  0  0  0  0  0  0
    2.0288    2.2149    0.0000 C   0  0  0  0  0  0  0  0  0  0  0  0
    2.1641    3.5336    0.0000 C   0  0  0  0  0  0  0  0  0  0  0  0
   -2.6882    2.8911    0.0000 C   0  0  0  0  0  0  0  0  0  0  0  0
    2.3332    1.4878    0.0000 C   0  0  3  0  0  0  0  0  0  0  0  0
    0.7777    4.3451    0.0000 C   0  0  0  0  0  0  0  0  0  0  0  0
    1.5723    4.5480    0.0000 C   0  0  0  0  0  0  0  0  0  0  0  0
   -1.9782    1.6400    0.0000 C   0  0  0  0  0  0  0  0  0  0  0  0
   -0.5072    5.2919    0.0000 C   0  0  0  0  0  0  0  0  0  0  0  0
   -2.6713    1.2342    0.0000 C   0  0  0  0  0  0  0  0  0  0  0  0
    3.1278    1.2850    0.0000 C   0  0  3  0  0  0  0  0  0  0  0  0
   -3.3983    2.4684    0.0000 C   0  0  0  0  0  0  0  0  0  0  0  0
    2.7559    4.1084    0.0000 C   0  0  0  0  0  0  0  0  0  0  0  0
    1.9105    0.7608    0.0000 C   0  0  0  0  0  0  0  0  0  0  0  0
   -3.3983    1.6400    0.0000 C   0  0  0  0  0  0  0  0  0  0  0  0
   -1.3187    5.2243    0.0000 C   0  0  0  0  0  0  0  0  0  0  0  0
   -0.1859    6.0527    0.0000 C   0  0  0  0  0  0  0  0  0  0  0  0
    0.2536    0.3720    0.0000 C   0  0  3  0  0  0  0  0  0  0  0  0
    3.1954    0.4565    0.0000 C   0  0  0  0  0  0  0  0  0  0  0  0
   -1.7921    5.8668    0.0000 C   0  0  0  0  0  0  0  0  0  0  0  0
   -0.6594    6.7121    0.0000 C   0  0  0  0  0  0  0  0  0  0  0  0
   -1.4540    6.6276    0.0000 C   0  0  0  0  0  0  0  0  0  0  0  0
   -0.5410    0.5579    0.0000 C   0  0  0  0  0  0  0  0  0  0  0  0
    0.4565   -0.4227    0.0000 C   0  0  0  0  0  0  0  0  0  0  0  0
   -3.3983   -5.3934    0.0000 C   0  0  0  0  0  0  0  0  0  0  0  0
   -2.5022   -6.3063    0.0000 C   0  0  0  0  0  0  0  0  0  0  0  0
   -0.9299   -0.7946    0.0000 C   0  0  0  0  0  0  0  0  0  0  0  0
   -3.7703   -6.1203    0.0000 C   0  0  0  0  0  0  0  0  0  0  0  0
   -3.1785   -6.6952    0.0000 C   0  0  0  0  0  0  0  0  0  0  0  0
   -2.0119   -4.9200    0.0000 C   0  0  0  0  0  0  0  0  0  0  0  0
   -2.2149   -4.1422    0.0000 C   0  0  0  0  0  0  0  0  0  0  0  0
   -1.2680   -2.1810    0.0000 C   0  0  0  0  0  0  0  0  0  0  0  0
   -1.8429   -2.7728    0.0000 C   0  0  0  0  0  0  0  0  0  0  0  0
  1 29  1  0  0  0  0
  2 35  1  0  0  0  0
 36  3  1  1  0  0  0
  4 25  2  0  0  0  0
  5 38  1  0  0  0  0
  6 45  1  0  0  0  0
  7 48  1  0  0  0  0
  7 52  1  0  0  0  0
  8 50  2  0  0  0  0
  9 51  2  0  0  0  0
 10 52  2  0  0  0  0
 11 56  1  0  0  0  0
 11 58  1  0  0  0  0
 12 20  1  0  0  0  0
 12 23  1  0  0  0  0
 12 26  1  0  0  0  0
 19 13  1  1  0  0  0
 13 25  1  0  0  0  0
 13 27  1  0  0  0  0
 14 20  2  0  0  0  0
 14 22  1  0  0  0  0
 15 25  1  0  0  0  0
 15 43  1  0  0  0  0
 16 39  1  0  0  0  0
 16 44  1  0  0  0  0
 17 50  1  0  0  0  0
 17 51  1  0  0  0  0
 17 55  1  0  0  0  0
 18 52  1  0  0  0  0
 18 57  1  0  0  0  0
 19 20  1  0  0  0  0
 19 21  1  0  0  0  0
 21 28  1  0  0  0  0
 21 31  1  0  0  0  0
 21 32  1  0  0  0  0
 22 23  2  0  0  0  0
 22 24  1  0  0  0  0
 24 29  2  0  0  0  0
 24 33  1  0  0  0  0
 26 34  1  0  0  0  0
 30 27  1  1  0  0  0
 28 38  1  0  0  0  0
 29 37  1  0  0  0  0
 30 36  1  0  0  0  0
 30 39  1  0  0  0  0
 33 35  2  0  0  0  0
 34 41  2  0  0  0  0
 34 42  1  0  0  0  0
 35 40  1  0  0  0  0
 36 44  1  0  0  0  0
 37 40  2  0  0  0  0
 41 45  1  0  0  0  0
 42 46  2  0  0  0  0
 43 48  1  0  0  0  0
 43 49  1  1  0  0  0
 45 47  2  0  0  0  0
 46 47  1  0  0  0  0
 50 53  1  0  0  0  0
 51 54  1  0  0  0  0
 53 54  2  0  0  0  0
 55 56  1  0  0  0  0
 57 58  1  0  0  0  0
M  END
> <PUBCHEM_COMPOUND_ID_TYPE>
0

> <PUBCHEM_TOTAL_CHARGE>
0

> <PUBCHEM_SUBSTANCE_ID>
310942618

> <PUBCHEM_SUBSTANCE_VERSION>
1

> <PUBCHEM_EXT_DATASOURCE_NAME>
4488

> <PUBCHEM_EXT_DATASOURCE_REGID>
SCHEMBL16120664

> <PUBCHEM_SUBSTANCE_COMMENT>
InChI=1S/C40H50F3N7O8/c1-25(24-58-39(56)45-12-15-57-16-13-49-34(53)9-10-35(49)54)46-38(55)50(22-27-19-44-20-32(27)43)36(40(2,3)11-14-51)37-47-33(30-18-28(41)7-8-31(30)42)23-48(37)21-26-5-4-6-29(52)17-26/h4-10,17-18,23,25,27,32,36,44,51-52H,11-16,19-22,24H2,1-3H3,(H,45,56)(H,46,55)/t25-,27-,32-,36-/m0/s1
InChIKey=QDFAOROLNIZIIX-CZNQCQSESA-N

> <PUBCHEM_SUBSTANCE_SYNONYM>
SCHEMBL16120664

> <PUBCHEM_XREF_EXT_ID>
SCHEMBL16120664

> <PUBCHEM_EXT_DATASOURCE_URL>
https://www.surechembl.org/

> <PUBCHEM_EXT_SUBSTANCE_URL>
https://www.surechembl.org/chemical/SCHEMBL16120664

> <PUBCHEM_CID_ASSOCIATIONS>
117609150  1

> <PUBCHEM_COORDINATE_TYPE>
1
3

> <PUBCHEM_BONDANNOTATIONS>
19  13  5
30  27  5
36  3  5
43  49  5

$$$$
