310929958
  -OEChem-07211613022D

 51 50  0     0  0  0  0  0  0999 V2000
   12.6796   -7.1705    0.0000 O   0  0  0  0  0  0  0  0  0  0  0  0
    7.6078   -5.7714    0.0000 O   0  0  0  0  0  0  0  0  0  0  0  0
   11.4554   -6.4710    0.0000 O   0  0  0  0  0  0  0  0  0  0  0  0
    7.6078   -7.1705    0.0000 N   0  0  0  0  0  0  0  0  0  0  0  0
   11.4554   -7.9576    0.0000 N   0  0  0  0  0  0  0  0  0  0  0  0
    8.0450   -6.4710    0.0000 C   0  0  0  0  0  0  0  0  0  0  0  0
   13.1169   -7.9576    0.0000 C   0  0  0  0  0  0  0  0  0  0  0  0
    6.8207   -7.1705    0.0000 C   0  0  0  0  0  0  0  0  0  0  0  0
    8.0450   -7.9576    0.0000 C   0  0  0  0  0  0  0  0  0  0  0  0
    8.9195   -6.4710    0.0000 C   0  0  0  0  0  0  0  0  0  0  0  0
   11.8052   -7.1705    0.0000 C   0  0  0  0  0  0  0  0  0  0  0  0
    9.3567   -7.1705    0.0000 C   0  0  0  0  0  0  0  0  0  0  0  0
    6.3836   -6.4710    0.0000 C   0  0  0  0  0  0  0  0  0  0  0  0
    7.6078   -8.6571    0.0000 C   0  0  0  0  0  0  0  0  0  0  0  0
   10.1437   -7.1705    0.0000 C   0  0  0  0  0  0  0  0  0  0  0  0
   10.5809   -7.9576    0.0000 C   0  0  0  0  0  0  0  0  0  0  0  0
   12.3298   -8.3948    0.0000 C   0  0  0  0  0  0  0  0  0  0  0  0
   13.5541   -8.6571    0.0000 C   0  0  0  0  0  0  0  0  0  0  0  0
   13.8164   -7.5203    0.0000 C   0  0  0  0  0  0  0  0  0  0  0  0
    5.5091   -6.4710    0.0000 C   0  0  0  0  0  0  0  0  0  0  0  0
    8.0450   -9.3567    0.0000 C   0  0  0  0  0  0  0  0  0  0  0  0
    5.0719   -5.7714    0.0000 C   0  0  0  0  0  0  0  0  0  0  0  0
    7.6952  -10.1437    0.0000 C   0  0  0  0  0  0  0  0  0  0  0  0
    4.2848   -5.7714    0.0000 C   0  0  0  0  0  0  0  0  0  0  0  0
    8.1325  -10.8433    0.0000 C   0  0  0  0  0  0  0  0  0  0  0  0
    3.8476   -4.9844    0.0000 C   0  0  0  0  0  0  0  0  0  0  0  0
    7.6952  -11.6303    0.0000 C   0  0  0  0  0  0  0  0  0  0  0  0
    2.9732   -4.9844    0.0000 C   0  0  0  0  0  0  0  0  0  0  0  0
    8.1325  -12.3298    0.0000 C   0  0  0  0  0  0  0  0  0  0  0  0
    2.5359   -4.2848    0.0000 C   0  0  0  0  0  0  0  0  0  0  0  0
    7.6952  -13.0294    0.0000 C   0  0  0  0  0  0  0  0  0  0  0  0
    1.6615   -4.2848    0.0000 C   0  0  0  0  0  0  0  0  0  0  0  0
    8.1325  -13.7290    0.0000 C   0  0  0  0  0  0  0  0  0  0  0  0
    1.3117   -3.5853    0.0000 C   0  0  0  0  0  0  0  0  0  0  0  0
    7.6952  -14.5160    0.0000 C   0  0  0  0  0  0  0  0  0  0  0  0
    1.7489   -2.7983    0.0000 C   0  0  0  0  0  0  0  0  0  0  0  0
    6.9082  -14.5160    0.0000 C   0  0  0  0  0  0  0  0  0  0  0  0
    2.6234   -2.8857    0.0000 C   0  0  0  0  0  0  0  0  0  0  0  0
    6.4710  -13.8164    0.0000 C   0  0  0  0  0  0  0  0  0  0  0  0
    3.0606   -2.1861    0.0000 C   0  0  0  0  0  0  0  0  0  0  0  0
    5.5965  -13.8164    0.0000 C   0  0  0  0  0  0  0  0  0  0  0  0
    2.6234   -1.3991    0.0000 C   0  0  0  0  0  0  0  0  0  0  0  0
    5.1593  -14.6035    0.0000 C   0  0  0  0  0  0  0  0  0  0  0  0
    1.7489   -1.3991    0.0000 C   0  0  0  0  0  0  0  0  0  0  0  0
    5.5965  -15.3030    0.0000 C   0  0  0  0  0  0  0  0  0  0  0  0
    1.3117   -0.6995    0.0000 C   0  0  0  0  0  0  0  0  0  0  0  0
    5.2467  -16.0026    0.0000 C   0  0  0  0  0  0  0  0  0  0  0  0
    0.4372   -0.6995    0.0000 C   0  0  0  0  0  0  0  0  0  0  0  0
    5.5965  -16.7896    0.0000 C   0  0  0  0  0  0  0  0  0  0  0  0
    0.0000    0.0000    0.0000 C   0  0  0  0  0  0  0  0  0  0  0  0
    5.2467  -17.4892    0.0000 C   0  0  0  0  0  0  0  0  0  0  0  0
  1  7  1  0  0  0  0
  1 11  1  0  0  0  0
  2  6  2  0  0  0  0
  3 11  2  0  0  0  0
  4  6  1  0  0  0  0
  4  8  1  0  0  0  0
  4  9  1  0  0  0  0
  5 11  1  0  0  0  0
  5 16  1  0  0  0  0
  6 10  1  0  0  0  0
  7 17  1  0  0  0  0
  7 18  1  0  0  0  0
  7 19  1  0  0  0  0
  8 13  1  0  0  0  0
  9 14  1  0  0  0  0
 10 12  1  0  0  0  0
 12 15  1  0  0  0  0
 13 20  1  0  0  0  0
 14 21  1  0  0  0  0
 15 16  1  0  0  0  0
 20 22  1  0  0  0  0
 21 23  1  0  0  0  0
 22 24  1  0  0  0  0
 23 25  1  0  0  0  0
 24 26  1  0  0  0  0
 25 27  1  0  0  0  0
 26 28  1  0  0  0  0
 27 29  1  0  0  0  0
 28 30  1  0  0  0  0
 29 31  1  0  0  0  0
 30 32  1  0  0  0  0
 31 33  1  0  0  0  0
 32 34  2  0  0  0  0
 33 35  2  0  0  0  0
 34 36  1  0  0  0  0
 35 37  1  0  0  0  0
 36 38  1  0  0  0  0
 37 39  1  0  0  0  0
 38 40  2  0  0  0  0
 39 41  2  0  0  0  0
 40 42  1  0  0  0  0
 41 43  1  0  0  0  0
 42 44  1  0  0  0  0
 43 45  1  0  0  0  0
 44 46  1  0  0  0  0
 45 47  1  0  0  0  0
 46 48  1  0  0  0  0
 47 49  1  0  0  0  0
 48 50  1  0  0  0  0
 49 51  1  0  0  0  0
M  END
> <PUBCHEM_COMPOUND_ID_TYPE>
0

> <PUBCHEM_TOTAL_CHARGE>
0

> <PUBCHEM_SUBSTANCE_ID>
310929958

> <PUBCHEM_SUBSTANCE_VERSION>
1

> <PUBCHEM_EXT_DATASOURCE_NAME>
4488

> <PUBCHEM_EXT_DATASOURCE_REGID>
SCHEMBL16107185

> <PUBCHEM_SUBSTANCE_COMMENT>
InChI=1S/C46H84N2O3/c1-6-8-10-12-14-16-18-20-22-24-26-28-30-32-34-38-42-48(44(49)40-36-37-41-47-45(50)51-46(3,4)5)43-39-35-33-31-29-27-25-23-21-19-17-15-13-11-9-7-2/h14-17,20-23H,6-13,18-19,24-43H2,1-5H3,(H,47,50)/b16-14-,17-15-,22-20-,23-21-
InChIKey=WABYIQZBPLSMBN-ZPPAUJSGSA-N

> <PUBCHEM_SUBSTANCE_SYNONYM>
SCHEMBL16107185

> <PUBCHEM_XREF_EXT_ID>
SCHEMBL16107185

> <PUBCHEM_EXT_DATASOURCE_URL>
https://www.surechembl.org/

> <PUBCHEM_EXT_SUBSTANCE_URL>
https://www.surechembl.org/chemical/SCHEMBL16107185

> <PUBCHEM_CID_ASSOCIATIONS>
117599217  1

> <PUBCHEM_COORDINATE_TYPE>
1
3

$$$$
