310947884
  -OEChem-07211613022D

 23 25  0     0  0  0  0  0  0999 V2000
    0.3984    0.9149    0.0000 N   0  0  0  0  0  0  0  0  0  0  0  0
    2.4249    1.8414    0.0000 N   0  0  0  0  0  0  0  0  0  0  0  0
    0.3984   -1.5601    0.0000 N   0  0  0  0  0  0  0  0  0  0  0  0
    1.0659    1.3999    0.0000 C   0  0  0  0  0  0  0  0  0  0  0  0
    0.8109    2.1845    0.0000 C   0  0  0  0  0  0  0  0  0  0  0  0
   -0.2690    1.3999    0.0000 C   0  0  0  0  0  0  0  0  0  0  0  0
   -0.0141    2.1845    0.0000 C   0  0  0  0  0  0  0  0  0  0  0  0
    1.8729    1.2283    0.0000 C   0  0  0  0  0  0  0  0  0  0  0  0
   -1.0760    1.2283    0.0000 C   0  0  0  0  0  0  0  0  0  0  0  0
    1.3630    2.7976    0.0000 C   0  0  0  0  0  0  0  0  0  0  0  0
   -0.5661    2.7976    0.0000 C   0  0  0  0  0  0  0  0  0  0  0  0
    0.3984    0.0899    0.0000 C   0  0  0  0  0  0  0  0  0  0  0  0
   -1.6280    1.8414    0.0000 C   0  0  0  0  0  0  0  0  0  0  0  0
   -1.3731    2.6260    0.0000 C   0  0  0  0  0  0  0  0  0  0  0  0
    2.1699    2.6260    0.0000 C   0  0  0  0  0  0  0  0  0  0  0  0
    2.0864    0.4314    0.0000 C   0  0  0  0  0  0  0  0  0  0  0  0
   -0.3160   -0.3226    0.0000 C   0  0  0  0  0  0  0  0  0  0  0  0
   -2.4249    1.6279    0.0000 C   0  0  0  0  0  0  0  0  0  0  0  0
   -0.3160   -1.1476    0.0000 C   0  0  0  0  0  0  0  0  0  0  0  0
    1.1129   -1.1476    0.0000 C   0  0  0  0  0  0  0  0  0  0  0  0
    0.3984   -2.3851    0.0000 C   0  0  0  0  0  0  0  0  0  0  0  0
    1.1129   -0.3226    0.0000 C   0  0  0  0  0  0  0  0  0  0  0  0
   -0.3160   -2.7976    0.0000 C   0  0  0  0  0  0  0  0  0  0  0  0
  1  4  1  0  0  0  0
  1  6  1  0  0  0  0
  1 12  1  0  0  0  0
  2  8  2  0  0  0  0
  2 15  1  0  0  0  0
  3 19  1  0  0  0  0
  3 20  1  0  0  0  0
  3 21  1  0  0  0  0
  4  5  2  0  0  0  0
  4  8  1  0  0  0  0
  5  7  1  0  0  0  0
  5 10  1  0  0  0  0
  6  7  1  0  0  0  0
  6  9  2  0  0  0  0
  7 11  2  0  0  0  0
  8 16  1  0  0  0  0
  9 13  1  0  0  0  0
 10 15  2  0  0  0  0
 11 14  1  0  0  0  0
 12 17  1  0  0  0  0
 13 14  2  0  0  0  0
 13 18  1  0  0  0  0
 17 19  1  0  0  0  0
 20 22  1  0  0  0  0
 21 23  1  0  0  0  0
M  END
> <PUBCHEM_COMPOUND_ID_TYPE>
0

> <PUBCHEM_TOTAL_CHARGE>
0

> <PUBCHEM_SUBSTANCE_ID>
310947884

> <PUBCHEM_SUBSTANCE_VERSION>
1

> <PUBCHEM_EXT_DATASOURCE_NAME>
4488

> <PUBCHEM_EXT_DATASOURCE_REGID>
SCHEMBL16126058

> <PUBCHEM_SUBSTANCE_COMMENT>
InChI=1S/C20H27N3/c1-5-22(6-2)12-7-13-23-19-14-15(3)8-9-17(19)18-10-11-21-16(4)20(18)23/h8-11,14H,5-7,12-13H2,1-4H3
InChIKey=HVXZNRDIHBOIMD-UHFFFAOYSA-N

> <PUBCHEM_SUBSTANCE_SYNONYM>
SCHEMBL16126058

> <PUBCHEM_XREF_EXT_ID>
SCHEMBL16126058

> <PUBCHEM_EXT_DATASOURCE_URL>
https://www.surechembl.org/

> <PUBCHEM_EXT_SUBSTANCE_URL>
https://www.surechembl.org/chemical/SCHEMBL16126058

> <PUBCHEM_CID_ASSOCIATIONS>
117613548  1

> <PUBCHEM_COORDINATE_TYPE>
1
3

$$$$
