310948429
  -OEChem-07211613022D

 50 55  0     0  0  0  0  0  0999 V2000
    3.4937   -2.6812    0.0000 S   0  0  0  0  0  0  0  0  0  0  0  0
   -3.7285   -1.1104    0.0000 F   0  0  0  0  0  0  0  0  0  0  0  0
   -4.1618   -0.1535    0.0000 F   0  0  0  0  0  0  0  0  0  0  0  0
    2.8618    3.3854    0.0000 F   0  0  0  0  0  0  0  0  0  0  0  0
    3.6021    2.5729    0.0000 F   0  0  0  0  0  0  0  0  0  0  0  0
    3.4937    0.1715    0.0000 F   0  0  0  0  0  0  0  0  0  0  0  0
   -1.4535    0.2438    0.0000 O   0  0  0  0  0  0  0  0  0  0  0  0
    1.9771    2.7354    0.0000 O   0  0  0  0  0  0  0  0  0  0  0  0
    2.8618    1.7424    0.0000 O   0  0  0  0  0  0  0  0  0  0  0  0
   -2.5548    0.7854    0.0000 O   0  0  0  0  0  0  0  0  0  0  0  0
    2.7716   -3.0965    0.0000 O   0  0  0  0  0  0  0  0  0  0  0  0
    3.9090   -3.3854    0.0000 O   0  0  0  0  0  0  0  0  0  0  0  0
    4.7216   -0.5507    0.0000 O   0  0  0  0  0  0  0  0  0  0  0  0
   -1.9410   -1.9229    0.0000 N   0  0  0  0  0  0  0  0  0  0  0  0
   -0.9118    1.4715    0.0000 N   0  0  0  0  0  0  0  0  0  0  0  0
   -2.7173   -1.6701    0.0000 N   0  0  0  0  0  0  0  0  0  0  0  0
   -3.9632    0.9298    0.0000 N   0  0  0  0  0  0  0  0  0  0  0  0
   -0.2257   -0.5327    0.0000 C   0  0  0  0  0  0  0  0  0  0  0  0
   -0.6409    0.1715    0.0000 C   0  0  0  0  0  0  0  0  0  0  0  0
   -0.6409   -1.2548    0.0000 C   0  0  0  0  0  0  0  0  0  0  0  0
   -1.4535   -1.2368    0.0000 C   0  0  0  0  0  0  0  0  0  0  0  0
   -0.3160    0.9298    0.0000 C   0  0  0  0  0  0  0  0  0  0  0  0
    0.5146    1.0743    0.0000 C   0  0  0  0  0  0  0  0  0  0  0  0
   -2.6993   -0.8396    0.0000 C   0  0  0  0  0  0  0  0  0  0  0  0
    1.0202   -1.2368    0.0000 C   0  0  0  0  0  0  0  0  0  0  0  0
    0.6049   -0.5507    0.0000 C   0  0  0  0  0  0  0  0  0  0  0  0
   -3.3854   -0.3701    0.0000 C   0  0  0  0  0  0  0  0  0  0  0  0
   -1.9229   -0.5868    0.0000 C   0  0  0  0  0  0  0  0  0  0  0  0
   -0.1896   -1.9590    0.0000 C   0  0  0  0  0  0  0  0  0  0  0  0
    1.8507   -1.2548    0.0000 C   0  0  0  0  0  0  0  0  0  0  0  0
    1.5799    2.0313    0.0000 C   0  0  0  0  0  0  0  0  0  0  0  0
   -1.6160    1.0562    0.0000 C   0  0  0  0  0  0  0  0  0  0  0  0
    2.1215    1.4355    0.0000 C   0  0  0  0  0  0  0  0  0  0  0  0
    0.7673    1.8688    0.0000 C   0  0  0  0  0  0  0  0  0  0  0  0
    0.6229   -1.9590    0.0000 C   0  0  0  0  0  0  0  0  0  0  0  0
    2.7896    2.5909    0.0000 C   0  0  0  0  0  0  0  0  0  0  0  0
    3.0785   -1.9590    0.0000 C   0  0  0  0  0  0  0  0  0  0  0  0
    1.0562    0.4784    0.0000 C   0  0  0  0  0  0  0  0  0  0  0  0
   -3.2951    0.4424    0.0000 C   0  0  0  0  0  0  0  0  0  0  0  0
    2.2840   -1.9590    0.0000 C   0  0  0  0  0  0  0  0  0  0  0  0
    3.4937   -1.2368    0.0000 C   0  0  0  0  0  0  0  0  0  0  0  0
    1.8688    0.6409    0.0000 C   0  0  0  0  0  0  0  0  0  0  0  0
    2.2659   -0.5507    0.0000 C   0  0  0  0  0  0  0  0  0  0  0  0
    3.0785   -0.5327    0.0000 C   0  0  0  0  0  0  0  0  0  0  0  0
   -1.6521   -2.7173    0.0000 C   0  0  0  0  0  0  0  0  0  0  0  0
   -2.3924    1.3993    0.0000 C   0  0  0  0  0  0  0  0  0  0  0  0
    4.3243   -1.2368    0.0000 C   0  0  0  0  0  0  0  0  0  0  0  0
    4.2340   -2.2299    0.0000 C   0  0  0  0  0  0  0  0  0  0  0  0
   -3.8910    1.7604    0.0000 C   0  0  0  0  0  0  0  0  0  0  0  0
   -4.7216    0.5688    0.0000 C   0  0  0  0  0  0  0  0  0  0  0  0
  1 11  2  0  0  0  0
  1 12  2  0  0  0  0
  1 37  1  0  0  0  0
  1 48  1  0  0  0  0
  2 27  1  0  0  0  0
  3 27  1  0  0  0  0
  4 36  1  0  0  0  0
  5 36  1  0  0  0  0
  6 44  1  0  0  0  0
  7 19  1  0  0  0  0
  7 32  1  0  0  0  0
  8 31  1  0  0  0  0
  8 36  1  0  0  0  0
  9 33  1  0  0  0  0
  9 36  1  0  0  0  0
 10 39  2  0  0  0  0
 13 47  1  0  0  0  0
 14 16  1  0  0  0  0
 14 21  1  0  0  0  0
 14 45  1  0  0  0  0
 15 22  1  0  0  0  0
 15 32  2  0  0  0  0
 16 24  2  0  0  0  0
 17 39  1  0  0  0  0
 17 49  1  0  0  0  0
 17 50  1  0  0  0  0
 18 19  1  0  0  0  0
 18 20  1  0  0  0  0
 18 26  2  0  0  0  0
 19 22  2  0  0  0  0
 20 21  1  0  0  0  0
 20 29  2  0  0  0  0
 21 28  2  0  0  0  0
 22 23  1  0  0  0  0
 23 34  1  0  0  0  0
 23 38  2  0  0  0  0
 24 27  1  0  0  0  0
 24 28  1  0  0  0  0
 25 26  1  0  0  0  0
 25 30  1  0  0  0  0
 25 35  2  0  0  0  0
 27 39  1  0  0  0  0
 29 35  1  0  0  0  0
 30 40  2  0  0  0  0
 30 43  1  0  0  0  0
 31 33  1  0  0  0  0
 31 34  2  0  0  0  0
 32 46  1  0  0  0  0
 33 42  2  0  0  0  0
 37 40  1  0  0  0  0
 37 41  2  0  0  0  0
 38 42  1  0  0  0  0
 41 44  1  0  0  0  0
 41 47  1  0  0  0  0
 43 44  2  0  0  0  0
M  END
> <PUBCHEM_COMPOUND_ID_TYPE>
0

> <PUBCHEM_TOTAL_CHARGE>
0

> <PUBCHEM_SUBSTANCE_ID>
310948429

> <PUBCHEM_SUBSTANCE_VERSION>
1

> <PUBCHEM_EXT_DATASOURCE_NAME>
4488

> <PUBCHEM_EXT_DATASOURCE_REGID>
SCHEMBL16126610

> <PUBCHEM_SUBSTANCE_COMMENT>
InChI=1S/C33H27F5N4O7S/c1-16-39-29(18-7-9-25-26(12-18)49-33(37,38)48-25)30(47-16)21-10-17(19-11-23(34)22(15-43)27(13-19)50(5,45)46)6-8-20(21)24-14-28(40-42(24)4)32(35,36)31(44)41(2)3/h6-14,43H,15H2,1-5H3
InChIKey=XOVCAXNSMWWXHX-UHFFFAOYSA-N

> <PUBCHEM_SUBSTANCE_SYNONYM>
SCHEMBL16126610

> <PUBCHEM_XREF_EXT_ID>
SCHEMBL16126610

> <PUBCHEM_EXT_DATASOURCE_URL>
https://www.surechembl.org/

> <PUBCHEM_EXT_SUBSTANCE_URL>
https://www.surechembl.org/chemical/SCHEMBL16126610

> <PUBCHEM_CID_ASSOCIATIONS>
86276048  1

> <PUBCHEM_COORDINATE_TYPE>
1
3

$$$$
