310941981
  -OEChem-07211613022D

 23 26  0     0  0  0  0  0  0999 V2000
    2.3016    0.1302    0.0000 O   0  0  0  0  0  0  0  0  0  0  0  0
   -1.0856   -1.2718    0.0000 N   0  0  0  0  0  0  0  0  0  0  0  0
   -0.6886    0.0186    0.0000 C   0  0  0  0  0  0  0  0  0  0  0  0
   -0.4280   -0.7631    0.0000 C   0  0  0  0  0  0  0  0  0  0  0  0
   -1.5200    0.0310    0.0000 C   0  0  0  0  0  0  0  0  0  0  0  0
   -1.7804   -0.7631    0.0000 C   0  0  0  0  0  0  0  0  0  0  0  0
   -0.1427    0.6266    0.0000 C   0  0  0  0  0  0  0  0  0  0  0  0
    0.6763    0.4777    0.0000 C   0  0  0  0  0  0  0  0  0  0  0  0
    0.3908   -0.9244    0.0000 C   0  0  0  0  0  0  0  0  0  0  0  0
    1.2222    1.1105    0.0000 C   0  0  0  0  0  0  0  0  0  0  0  0
   -2.0659    0.6266    0.0000 C   0  0  0  0  0  0  0  0  0  0  0  0
    0.9244   -0.3288    0.0000 C   0  0  0  0  0  0  0  0  0  0  0  0
   -2.5746   -0.9367    0.0000 C   0  0  0  0  0  0  0  0  0  0  0  0
   -1.0981   -2.0783    0.0000 C   0  0  0  0  0  0  0  0  0  0  0  0
    2.0287    0.9367    0.0000 C   0  0  0  0  0  0  0  0  0  0  0  0
   -2.8724    0.4653    0.0000 C   0  0  0  0  0  0  0  0  0  0  0  0
   -3.1205   -0.3288    0.0000 C   0  0  0  0  0  0  0  0  0  0  0  0
    0.9616    1.8798    0.0000 C   0  0  0  0  0  0  0  0  0  0  0  0
    2.5622    1.5323    0.0000 C   0  0  0  0  0  0  0  0  0  0  0  0
    1.4951    2.4877    0.0000 C   0  0  0  0  0  0  0  0  0  0  0  0
   -1.8177   -2.4877    0.0000 C   0  0  0  0  0  0  0  0  0  0  0  0
    2.3140    2.3264    0.0000 C   0  0  0  0  0  0  0  0  0  0  0  0
    3.1205   -0.0310    0.0000 C   0  0  0  0  0  0  0  0  0  0  0  0
  1 15  1  0  0  0  0
  1 23  1  0  0  0  0
  2  4  1  0  0  0  0
  2  6  1  0  0  0  0
  2 14  1  0  0  0  0
  3  4  2  0  0  0  0
  3  5  1  0  0  0  0
  3  7  1  0  0  0  0
  4  9  1  0  0  0  0
  5  6  1  0  0  0  0
  5 11  2  0  0  0  0
  6 13  2  0  0  0  0
  7  8  2  0  0  0  0
  8 10  1  0  0  0  0
  8 12  1  0  0  0  0
  9 12  2  0  0  0  0
 10 15  2  0  0  0  0
 10 18  1  0  0  0  0
 11 16  1  0  0  0  0
 13 17  1  0  0  0  0
 14 21  1  0  0  0  0
 15 19  1  0  0  0  0
 16 17  2  0  0  0  0
 18 20  2  0  0  0  0
 19 22  2  0  0  0  0
 20 22  1  0  0  0  0
M  END
> <PUBCHEM_COMPOUND_ID_TYPE>
0

> <PUBCHEM_TOTAL_CHARGE>
0

> <PUBCHEM_SUBSTANCE_ID>
310941981

> <PUBCHEM_SUBSTANCE_VERSION>
1

> <PUBCHEM_EXT_DATASOURCE_NAME>
4488

> <PUBCHEM_EXT_DATASOURCE_REGID>
SCHEMBL16120015

> <PUBCHEM_SUBSTANCE_COMMENT>
InChI=1S/C21H19NO/c1-3-22-19-10-6-4-9-17(19)18-14-15(12-13-20(18)22)16-8-5-7-11-21(16)23-2/h4-14H,3H2,1-2H3
InChIKey=HHHBHSLSEDPSOS-UHFFFAOYSA-N

> <PUBCHEM_SUBSTANCE_SYNONYM>
SCHEMBL16120015

> <PUBCHEM_XREF_EXT_ID>
SCHEMBL16120015

> <PUBCHEM_EXT_DATASOURCE_URL>
https://www.surechembl.org/

> <PUBCHEM_EXT_SUBSTANCE_URL>
https://www.surechembl.org/chemical/SCHEMBL16120015

> <PUBCHEM_CID_ASSOCIATIONS>
117608684  1

> <PUBCHEM_COORDINATE_TYPE>
1
3

$$$$
