310942640
  -OEChem-07211613022D

 40 43  0     1  0  0  0  0  0999 V2000
   -3.1654    0.0884    0.0000 F   0  0  0  0  0  0  0  0  0  0  0  0
    3.7690   -0.9275    0.0000 F   0  0  0  0  0  0  0  0  0  0  0  0
   -2.8267   -3.2242    0.0000 F   0  0  0  0  0  0  0  0  0  0  0  0
    2.1348   -0.1914    0.0000 O   0  0  0  0  0  0  0  0  0  0  0  0
    2.1201    1.2514    0.0000 O   0  0  0  0  0  0  0  0  0  0  0  0
   -0.4859   -1.8403    0.0000 O   0  0  0  0  0  0  0  0  0  0  0  0
    0.3386   -3.2831    0.0000 O   0  0  0  0  0  0  0  0  0  0  0  0
    0.8686   -0.8980    0.0000 N   0  0  0  0  0  0  0  0  0  0  0  0
   -0.8686    0.4859    0.0000 N   0  0  0  0  0  0  0  0  0  0  0  0
   -0.8686   -0.8686    0.0000 N   0  0  0  0  0  0  0  0  0  0  0  0
    2.8561   -2.8561    0.0000 N   0  0  0  0  0  0  0  0  0  0  0  0
    0.4564   -0.1766    0.0000 C   0  0  3  0  0  0  0  0  0  0  0  0
   -0.3828   -0.1766    0.0000 C   0  0  0  0  0  0  0  0  0  0  0  0
    0.8686    0.5594    0.0000 C   0  0  0  0  0  0  0  0  0  0  0  0
   -1.6636   -0.5889    0.0000 C   0  0  0  0  0  0  0  0  0  0  0  0
   -1.6342    0.2503    0.0000 C   0  0  0  0  0  0  0  0  0  0  0  0
   -2.3409   -1.0748    0.0000 C   0  0  0  0  0  0  0  0  0  0  0  0
    1.6931    0.5447    0.0000 C   0  0  0  0  0  0  0  0  0  0  0  0
    0.3533   -1.8403    0.0000 C   0  0  0  0  0  0  0  0  0  0  0  0
    1.9581   -0.8980    0.0000 C   0  0  0  0  0  0  0  0  0  0  0  0
   -0.6036    1.2661    0.0000 C   0  0  0  0  0  0  0  0  0  0  0  0
    0.1620    0.9717    0.0000 C   0  0  0  0  0  0  0  0  0  0  0  0
    0.8686    1.3839    0.0000 C   0  0  0  0  0  0  0  0  0  0  0  0
    2.4292   -1.5753    0.0000 C   0  0  3  0  0  0  0  0  0  0  0  0
   -3.0917   -0.7361    0.0000 C   0  0  0  0  0  0  0  0  0  0  0  0
   -2.2525   -1.9139    0.0000 C   0  0  0  0  0  0  0  0  0  0  0  0
    0.7509   -2.5469    0.0000 C   0  0  3  0  0  0  0  0  0  0  0  0
   -1.1484    1.8992    0.0000 C   0  0  0  0  0  0  0  0  0  0  0  0
    3.2684   -1.5900    0.0000 C   0  0  3  0  0  0  0  0  0  0  0  0
   -2.9003   -2.3850    0.0000 C   0  0  0  0  0  0  0  0  0  0  0  0
   -3.7690   -1.2367    0.0000 C   0  0  0  0  0  0  0  0  0  0  0  0
    2.1936   -2.3556    0.0000 C   0  0  0  0  0  0  0  0  0  0  0  0
   -3.6806   -2.0464    0.0000 C   0  0  0  0  0  0  0  0  0  0  0  0
    3.5187   -2.3703    0.0000 C   0  0  0  0  0  0  0  0  0  0  0  0
   -0.8980    2.6795    0.0000 C   0  0  0  0  0  0  0  0  0  0  0  0
   -1.9728    1.7373    0.0000 C   0  0  0  0  0  0  0  0  0  0  0  0
    1.5605   -2.5617    0.0000 C   0  0  0  0  0  0  0  0  0  0  0  0
   -1.4428    3.2831    0.0000 C   0  0  0  0  0  0  0  0  0  0  0  0
   -2.5028    2.3409    0.0000 C   0  0  0  0  0  0  0  0  0  0  0  0
   -2.2525    3.1359    0.0000 C   0  0  0  0  0  0  0  0  0  0  0  0
  1 25  1  0  0  0  0
 29  2  1  1  0  0  0
  3 30  1  0  0  0  0
  4 18  2  0  0  0  0
  5 18  1  0  0  0  0
  6 19  2  0  0  0  0
 27  7  1  6  0  0  0
 12  8  1  1  0  0  0
  8 19  1  0  0  0  0
  8 20  1  0  0  0  0
  9 13  1  0  0  0  0
  9 16  1  0  0  0  0
  9 21  1  0  0  0  0
 10 13  2  0  0  0  0
 10 15  1  0  0  0  0
 11 32  1  0  0  0  0
 11 34  1  0  0  0  0
 12 13  1  0  0  0  0
 12 14  1  0  0  0  0
 14 18  1  0  0  0  0
 14 22  1  0  0  0  0
 14 23  1  0  0  0  0
 15 16  2  0  0  0  0
 15 17  1  0  0  0  0
 17 25  2  0  0  0  0
 17 26  1  0  0  0  0
 19 27  1  0  0  0  0
 24 20  1  1  0  0  0
 21 28  1  0  0  0  0
 24 29  1  0  0  0  0
 24 32  1  0  0  0  0
 25 31  1  0  0  0  0
 26 30  2  0  0  0  0
 27 37  1  0  0  0  0
 28 35  2  0  0  0  0
 28 36  1  0  0  0  0
 29 34  1  0  0  0  0
 30 33  1  0  0  0  0
 31 33  2  0  0  0  0
 35 38  1  0  0  0  0
 36 39  2  0  0  0  0
 38 40  2  0  0  0  0
 39 40  1  0  0  0  0
M  END
> <PUBCHEM_COMPOUND_ID_TYPE>
0

> <PUBCHEM_TOTAL_CHARGE>
0

> <PUBCHEM_SUBSTANCE_ID>
310942640

> <PUBCHEM_SUBSTANCE_VERSION>
1

> <PUBCHEM_EXT_DATASOURCE_NAME>
4488

> <PUBCHEM_EXT_DATASOURCE_REGID>
SCHEMBL16120686

> <PUBCHEM_SUBSTANCE_COMMENT>
InChI=1S/C29H33F3N4O4/c1-17(37)27(38)36(15-19-12-33-13-23(19)32)25(29(2,3)28(39)40)26-34-24(21-11-20(30)9-10-22(21)31)16-35(26)14-18-7-5-4-6-8-18/h4-11,16-17,19,23,25,33,37H,12-15H2,1-3H3,(H,39,40)/t17-,19-,23-,25-/m0/s1
InChIKey=IDHRRHDGAIPYGI-KYWFTBKWSA-N

> <PUBCHEM_SUBSTANCE_SYNONYM>
SCHEMBL16120686

> <PUBCHEM_XREF_EXT_ID>
SCHEMBL16120686

> <PUBCHEM_EXT_DATASOURCE_URL>
https://www.surechembl.org/

> <PUBCHEM_EXT_SUBSTANCE_URL>
https://www.surechembl.org/chemical/SCHEMBL16120686

> <PUBCHEM_CID_ASSOCIATIONS>
117609171  1

> <PUBCHEM_COORDINATE_TYPE>
1
3

> <PUBCHEM_BONDANNOTATIONS>
29  2  5
24  20  5
27  7  6
12  8  5

$$$$
