310930162
  -OEChem-07211613022D

 25 29  0     0  0  0  0  0  0999 V2000
   -0.5546   -1.7070    0.0000 O   0  0  0  0  0  0  0  0  0  0  0  0
    2.1434   -0.4125    0.0000 O   0  0  0  0  0  0  0  0  0  0  0  0
   -0.0000   -0.0000    0.0000 N   0  0  0  0  0  0  0  0  0  0  0  0
    0.7145   -0.4125    0.0000 N   0  0  0  0  0  0  0  0  0  0  0  0
   -0.7846    1.0799    0.0000 N   0  0  0  0  0  0  0  0  0  0  0  0
    4.5828    1.8209    0.0000 N   0  0  0  0  0  0  0  0  0  0  0  0
   -0.7846   -0.2549    0.0000 C   0  0  0  0  0  0  0  0  0  0  0  0
   -1.0396   -1.0396    0.0000 C   0  0  0  0  0  0  0  0  0  0  0  0
   -0.0000    0.8250    0.0000 C   0  0  0  0  0  0  0  0  0  0  0  0
   -1.2695    0.4125    0.0000 C   0  0  0  0  0  0  0  0  0  0  0  0
   -1.0396   -2.3744    0.0000 C   0  0  0  0  0  0  0  0  0  0  0  0
   -1.8242   -2.1195    0.0000 C   0  0  0  0  0  0  0  0  0  0  0  0
   -1.8242   -1.2945    0.0000 C   0  0  0  0  0  0  0  0  0  0  0  0
    1.4289    0.0000    0.0000 C   0  0  0  0  0  0  0  0  0  0  0  0
    0.7145    1.2375    0.0000 C   0  0  0  0  0  0  0  0  0  0  0  0
    1.4289    0.8250    0.0000 C   0  0  0  0  0  0  0  0  0  0  0  0
    2.8579    0.0000    0.0000 C   0  0  0  0  0  0  0  0  0  0  0  0
   -0.8680   -3.1814    0.0000 C   0  0  0  0  0  0  0  0  0  0  0  0
   -2.4373   -2.6715    0.0000 C   0  0  0  0  0  0  0  0  0  0  0  0
    3.8683    0.5834    0.0000 C   0  0  0  0  0  0  0  0  0  0  0  0
    3.6548   -0.2135    0.0000 C   0  0  0  0  0  0  0  0  0  0  0  0
    3.0714    0.7969    0.0000 C   0  0  0  0  0  0  0  0  0  0  0  0
   -1.4811   -3.7334    0.0000 C   0  0  0  0  0  0  0  0  0  0  0  0
   -2.2657   -3.4785    0.0000 C   0  0  0  0  0  0  0  0  0  0  0  0
    4.5828    0.9959    0.0000 C   0  0  0  0  0  0  0  0  0  0  0  0
  1  8  1  0  0  0  0
  1 11  1  0  0  0  0
  2 14  1  0  0  0  0
  2 17  1  0  0  0  0
  3  4  1  0  0  0  0
  3  7  1  0  0  0  0
  3  9  1  0  0  0  0
  4 14  2  0  0  0  0
  5  9  2  0  0  0  0
  5 10  1  0  0  0  0
  6 25  1  0  0  0  0
  7  8  1  0  0  0  0
  7 10  2  0  0  0  0
  8 13  2  0  0  0  0
  9 15  1  0  0  0  0
 11 12  2  0  0  0  0
 11 18  1  0  0  0  0
 12 13  1  0  0  0  0
 12 19  1  0  0  0  0
 14 16  1  0  0  0  0
 15 16  2  0  0  0  0
 17 21  1  0  0  0  0
 17 22  1  0  0  0  0
 18 23  2  0  0  0  0
 19 24  2  0  0  0  0
 20 21  1  0  0  0  0
 20 22  1  0  0  0  0
 20 25  1  0  0  0  0
 23 24  1  0  0  0  0
M  END
> <PUBCHEM_COMPOUND_ID_TYPE>
0

> <PUBCHEM_TOTAL_CHARGE>
0

> <PUBCHEM_SUBSTANCE_ID>
310930162

> <PUBCHEM_SUBSTANCE_VERSION>
1

> <PUBCHEM_EXT_DATASOURCE_NAME>
4488

> <PUBCHEM_EXT_DATASOURCE_REGID>
SCHEMBL16107422

> <PUBCHEM_SUBSTANCE_COMMENT>
InChI=1S/C19H18N4O2/c20-10-12-7-14(8-12)24-19-6-5-18-21-11-15(23(18)22-19)17-9-13-3-1-2-4-16(13)25-17/h1-6,9,11-12,14H,7-8,10,20H2
InChIKey=LGHOWXSTLOYURV-UHFFFAOYSA-N

> <PUBCHEM_SUBSTANCE_SYNONYM>
SCHEMBL16107422

> <PUBCHEM_XREF_EXT_ID>
SCHEMBL16107422

> <PUBCHEM_EXT_DATASOURCE_URL>
https://www.surechembl.org/

> <PUBCHEM_EXT_SUBSTANCE_URL>
https://www.surechembl.org/chemical/SCHEMBL16107422

> <PUBCHEM_CID_ASSOCIATIONS>
71508993  1

> <PUBCHEM_COORDINATE_TYPE>
1
3

$$$$
