310933049
  -OEChem-07211613022D

 25 28  0     0  0  0  0  0  0999 V2000
   -2.1434    1.6500    0.0000 O   0  0  0  0  0  0  0  0  0  0  0  0
   -2.8579   -0.4125    0.0000 O   0  0  0  0  0  0  0  0  0  0  0  0
   -2.1434    0.8250    0.0000 N   0  0  0  0  0  0  0  0  0  0  0  0
    0.7846    0.6674    0.0000 N   0  0  0  0  0  0  0  0  0  0  0  0
    1.2696    0.0000    0.0000 N   0  0  0  0  0  0  0  0  0  0  0  0
   -1.4290   -0.4125    0.0000 N   0  0  0  0  0  0  0  0  0  0  0  0
   -3.5724    0.8250    0.0000 N   0  0  0  0  0  0  0  0  0  0  0  0
    1.5495   -3.0213    0.0000 N   0  0  0  0  0  0  0  0  0  0  0  0
    0.0000   -0.4125    0.0000 C   0  0  0  0  0  0  0  0  0  0  0  0
    0.0000    0.4125    0.0000 C   0  0  0  0  0  0  0  0  0  0  0  0
    0.7846   -0.6674    0.0000 C   0  0  0  0  0  0  0  0  0  0  0  0
   -1.4290    0.4125    0.0000 C   0  0  0  0  0  0  0  0  0  0  0  0
   -0.7144    0.8250    0.0000 C   0  0  0  0  0  0  0  0  0  0  0  0
    1.0396   -1.4521    0.0000 C   0  0  0  0  0  0  0  0  0  0  0  0
   -0.7144   -0.8250    0.0000 C   0  0  0  0  0  0  0  0  0  0  0  0
   -2.8579    0.4125    0.0000 C   0  0  0  0  0  0  0  0  0  0  0  0
   -4.2868    0.4125    0.0000 C   0  0  0  0  0  0  0  0  0  0  0  0
    1.8465   -1.6236    0.0000 C   0  0  0  0  0  0  0  0  0  0  0  0
   -4.6993   -0.3020    0.0000 C   0  0  0  0  0  0  0  0  0  0  0  0
   -5.1118    0.4125    0.0000 C   0  0  0  0  0  0  0  0  0  0  0  0
    0.4875   -2.0652    0.0000 C   0  0  0  0  0  0  0  0  0  0  0  0
    2.1015   -2.4082    0.0000 C   0  0  0  0  0  0  0  0  0  0  0  0
   -3.5724    1.6500    0.0000 C   0  0  0  0  0  0  0  0  0  0  0  0
    0.7424   -2.8498    0.0000 C   0  0  0  0  0  0  0  0  0  0  0  0
    2.9084   -2.5797    0.0000 C   0  0  0  0  0  0  0  0  0  0  0  0
  1  3  1  0  0  0  0
  2 16  2  0  0  0  0
  3 12  1  0  0  0  0
  3 16  1  0  0  0  0
  4  5  1  0  0  0  0
  4 10  1  0  0  0  0
  5 11  2  0  0  0  0
  6 12  1  0  0  0  0
  6 15  2  0  0  0  0
  7 16  1  0  0  0  0
  7 17  1  0  0  0  0
  7 23  1  0  0  0  0
  8 22  2  0  0  0  0
  8 24  1  0  0  0  0
  9 10  2  0  0  0  0
  9 11  1  0  0  0  0
  9 15  1  0  0  0  0
 10 13  1  0  0  0  0
 11 14  1  0  0  0  0
 12 13  2  0  0  0  0
 14 18  2  0  0  0  0
 14 21  1  0  0  0  0
 17 19  1  0  0  0  0
 17 20  1  0  0  0  0
 18 22  1  0  0  0  0
 19 20  1  0  0  0  0
 21 24  2  0  0  0  0
 22 25  1  0  0  0  0
M  END
> <PUBCHEM_COMPOUND_ID_TYPE>
0

> <PUBCHEM_TOTAL_CHARGE>
0

> <PUBCHEM_SUBSTANCE_ID>
310933049

> <PUBCHEM_SUBSTANCE_VERSION>
1

> <PUBCHEM_EXT_DATASOURCE_NAME>
4488

> <PUBCHEM_EXT_DATASOURCE_REGID>
SCHEMBL16110450

> <PUBCHEM_SUBSTANCE_COMMENT>
InChI=1S/C17H18N6O2/c1-10-7-11(5-6-18-10)16-13-9-19-15(8-14(13)20-21-16)23(25)17(24)22(2)12-3-4-12/h5-9,12,25H,3-4H2,1-2H3,(H,20,21)
InChIKey=HAQAFIRHLRESLK-UHFFFAOYSA-N

> <PUBCHEM_SUBSTANCE_SYNONYM>
SCHEMBL16110450

> <PUBCHEM_XREF_EXT_ID>
SCHEMBL16110450

> <PUBCHEM_EXT_DATASOURCE_URL>
https://www.surechembl.org/

> <PUBCHEM_EXT_SUBSTANCE_URL>
https://www.surechembl.org/chemical/SCHEMBL16110450

> <PUBCHEM_CID_ASSOCIATIONS>
117601510  1

> <PUBCHEM_COORDINATE_TYPE>
1
3

$$$$
