310942239
  -OEChem-07211613022D

 34 36  0     0  0  0  0  0  0999 V2000
    2.5155    0.6608    0.0000 S   0  0  0  0  0  0  0  0  0  0  0  0
    3.9517    1.4803    0.0000 F   0  0  0  0  0  0  0  0  0  0  0  0
    5.3878   -0.9780    0.0000 F   0  0  0  0  0  0  0  0  0  0  0  0
    2.0926    1.3744    0.0000 O   0  0  0  0  0  0  0  0  0  0  0  0
    2.9208    1.3744    0.0000 O   0  0  0  0  0  0  0  0  0  0  0  0
   -4.6742    0.6608    0.0000 O   0  0  0  0  0  0  0  0  0  0  0  0
   -4.6742   -0.9692    0.0000 O   0  0  0  0  0  0  0  0  0  0  0  0
   -3.2379    1.4803    0.0000 O   0  0  0  0  0  0  0  0  0  0  0  0
   -1.7930   -0.9780    0.0000 N   0  0  0  0  0  0  0  0  0  0  0  0
   -0.3568   -0.9780    0.0000 N   0  0  0  0  0  0  0  0  0  0  0  0
   -1.0793    0.2555    0.0000 N   0  0  0  0  0  0  0  0  0  0  0  0
    1.0793   -0.9780    0.0000 N   0  0  0  0  0  0  0  0  0  0  0  0
    3.2379    0.2555    0.0000 C   0  0  0  0  0  0  0  0  0  0  0  0
    3.9517    0.6696    0.0000 C   0  0  0  0  0  0  0  0  0  0  0  0
   -2.5155   -0.5551    0.0000 C   0  0  0  0  0  0  0  0  0  0  0  0
   -3.9429    0.2555    0.0000 C   0  0  0  0  0  0  0  0  0  0  0  0
    0.3656    0.2555    0.0000 C   0  0  0  0  0  0  0  0  0  0  0  0
   -3.9429   -0.5551    0.0000 C   0  0  0  0  0  0  0  0  0  0  0  0
   -3.2291    0.6696    0.0000 C   0  0  0  0  0  0  0  0  0  0  0  0
    1.8018    0.2555    0.0000 C   0  0  0  0  0  0  0  0  0  0  0  0
   -1.0705   -0.5551    0.0000 C   0  0  0  0  0  0  0  0  0  0  0  0
    0.3568   -0.5551    0.0000 C   0  0  0  0  0  0  0  0  0  0  0  0
    3.2379   -0.5639    0.0000 C   0  0  0  0  0  0  0  0  0  0  0  0
   -3.2379   -0.9692    0.0000 C   0  0  0  0  0  0  0  0  0  0  0  0
   -2.5155    0.2555    0.0000 C   0  0  0  0  0  0  0  0  0  0  0  0
    1.0705    0.6608    0.0000 C   0  0  0  0  0  0  0  0  0  0  0  0
    4.6653    0.2555    0.0000 C   0  0  0  0  0  0  0  0  0  0  0  0
   -0.3656    0.6608    0.0000 C   0  0  0  0  0  0  0  0  0  0  0  0
    4.6653   -0.5551    0.0000 C   0  0  0  0  0  0  0  0  0  0  0  0
    3.9429   -0.9692    0.0000 C   0  0  0  0  0  0  0  0  0  0  0  0
   -5.3790    0.2555    0.0000 C   0  0  0  0  0  0  0  0  0  0  0  0
   -5.3878   -0.5639    0.0000 C   0  0  0  0  0  0  0  0  0  0  0  0
   -3.9517    1.8767    0.0000 C   0  0  0  0  0  0  0  0  0  0  0  0
    1.0793   -1.8767    0.0000 C   0  0  0  0  0  0  0  0  0  0  0  0
  1  4  2  0  0  0  0
  1  5  2  0  0  0  0
  1 13  1  0  0  0  0
  1 20  1  0  0  0  0
  2 14  1  0  0  0  0
  3 29  1  0  0  0  0
  6 16  1  0  0  0  0
  6 31  1  0  0  0  0
  7 18  1  0  0  0  0
  7 32  1  0  0  0  0
  8 19  1  0  0  0  0
  8 33  1  0  0  0  0
  9 15  1  0  0  0  0
  9 21  1  0  0  0  0
 10 21  1  0  0  0  0
 10 22  2  0  0  0  0
 11 21  2  0  0  0  0
 11 28  1  0  0  0  0
 12 22  1  0  0  0  0
 12 34  1  0  0  0  0
 13 14  1  0  0  0  0
 13 23  2  0  0  0  0
 14 27  2  0  0  0  0
 15 24  2  0  0  0  0
 15 25  1  0  0  0  0
 16 18  2  0  0  0  0
 16 19  1  0  0  0  0
 17 22  1  0  0  0  0
 17 26  1  0  0  0  0
 17 28  2  0  0  0  0
 18 24  1  0  0  0  0
 19 25  2  0  0  0  0
 20 26  2  0  0  0  0
 23 30  1  0  0  0  0
 27 29  1  0  0  0  0
 29 30  2  0  0  0  0
M  END
> <PUBCHEM_COMPOUND_ID_TYPE>
0

> <PUBCHEM_TOTAL_CHARGE>
0

> <PUBCHEM_SUBSTANCE_ID>
310942239

> <PUBCHEM_SUBSTANCE_VERSION>
1

> <PUBCHEM_EXT_DATASOURCE_NAME>
4488

> <PUBCHEM_EXT_DATASOURCE_REGID>
SCHEMBL16120274

> <PUBCHEM_SUBSTANCE_COMMENT>
InChI=1S/C22H22F2N4O5S/c1-25-21-13(7-8-34(29,30)19-6-5-14(23)9-16(19)24)12-26-22(28-21)27-15-10-17(31-2)20(33-4)18(11-15)32-3/h5-12H,1-4H3,(H2,25,26,27,28)/b8-7+
InChIKey=RZKVLFABTFRCRO-BQYQJAHWSA-N

> <PUBCHEM_SUBSTANCE_SYNONYM>
SCHEMBL16120274

> <PUBCHEM_XREF_EXT_ID>
SCHEMBL16120274

> <PUBCHEM_EXT_DATASOURCE_URL>
https://www.surechembl.org/

> <PUBCHEM_EXT_SUBSTANCE_URL>
https://www.surechembl.org/chemical/SCHEMBL16120274

> <PUBCHEM_CID_ASSOCIATIONS>
117608890  1

> <PUBCHEM_COORDINATE_TYPE>
1
3

$$$$
