310936768
  -OEChem-07211613022D

 31 33  0     1  0  0  0  0  0999 V2000
    2.4500   -3.5500    0.0000 O   0  0  0  0  0  0  0  0  0  0  0  0
    4.9250   -2.1500    0.0000 O   0  0  0  0  0  0  0  0  0  0  0  0
    6.1500   -2.8500    0.0000 O   0  0  0  0  0  0  0  0  0  0  0  0
    1.6500   -5.0000    0.0000 O   0  0  0  0  0  0  0  0  0  0  0  0
    4.9250   -3.5500    0.0000 N   0  0  0  0  0  0  0  0  0  0  0  0
    0.4000   -4.3000    0.0000 N   0  0  0  0  0  0  0  0  0  0  0  0
    3.6750   -2.8500    0.0000 C   0  0  3  0  0  0  0  0  0  0  0  0
    4.1000   -2.1500    0.0000 C   0  0  0  0  0  0  0  0  0  0  0  0
    2.8751   -2.8500    0.0000 C   0  0  3  0  0  0  0  0  0  0  0  0
    5.3001   -1.4250    0.0000 C   0  0  0  0  0  0  0  0  0  0  0  0
    2.4500   -2.1500    0.0000 C   0  0  0  0  0  0  0  0  0  0  0  0
    5.1001   -2.3000    0.0000 C   0  0  0  0  0  0  0  0  0  0  0  0
    4.9000   -0.7250    0.0000 C   0  0  0  0  0  0  0  0  0  0  0  0
    3.6750   -1.4250    0.0000 C   0  0  0  0  0  0  0  0  0  0  0  0
    4.1000   -3.5500    0.0000 C   0  0  0  0  0  0  0  0  0  0  0  0
    4.1000   -0.7000    0.0000 C   0  0  0  0  0  0  0  0  0  0  0  0
    6.1500   -1.4250    0.0000 C   0  0  0  0  0  0  0  0  0  0  0  0
    1.6250   -2.1500    0.0000 C   0  0  0  0  0  0  0  0  0  0  0  0
    2.8500   -1.4250    0.0000 C   0  0  0  0  0  0  0  0  0  0  0  0
    5.3001    0.0000    0.0000 C   0  0  0  0  0  0  0  0  0  0  0  0
    1.6500   -3.5751    0.0000 C   0  0  0  0  0  0  0  0  0  0  0  0
    6.5501   -0.7000    0.0000 C   0  0  0  0  0  0  0  0  0  0  0  0
    5.3250   -2.8500    0.0000 C   0  0  0  0  0  0  0  0  0  0  0  0
    6.1500    0.0000    0.0000 C   0  0  0  0  0  0  0  0  0  0  0  0
    1.2000   -1.4250    0.0000 C   0  0  0  0  0  0  0  0  0  0  0  0
    2.4500   -0.7250    0.0000 C   0  0  0  0  0  0  0  0  0  0  0  0
    1.2250   -4.2750    0.0000 C   0  0  0  0  0  0  0  0  0  0  0  0
    1.6250   -0.7250    0.0000 C   0  0  0  0  0  0  0  0  0  0  0  0
    5.3250   -4.2750    0.0000 C   0  0  0  0  0  0  0  0  0  0  0  0
    0.0000   -3.5751    0.0000 C   0  0  0  0  0  0  0  0  0  0  0  0
    0.0000   -5.0000    0.0000 C   0  0  0  0  0  0  0  0  0  0  0  0
  9  1  1  6  0  0  0
  1 21  1  0  0  0  0
  2 23  2  0  0  0  0
  3 23  1  0  0  0  0
  4 27  2  0  0  0  0
  5 15  1  0  0  0  0
  5 23  1  0  0  0  0
  5 29  1  0  0  0  0
  6 27  1  0  0  0  0
  6 30  1  0  0  0  0
  6 31  1  0  0  0  0
  7  8  1  0  0  0  0
  7  9  1  0  0  0  0
  7 15  1  1  0  0  0
  8 12  2  0  0  0  0
  8 14  1  0  0  0  0
  9 11  1  0  0  0  0
 10 12  1  0  0  0  0
 10 13  2  0  0  0  0
 10 17  1  0  0  0  0
 11 18  2  0  0  0  0
 11 19  1  0  0  0  0
 13 16  1  0  0  0  0
 13 20  1  0  0  0  0
 14 16  2  0  0  0  0
 17 22  2  0  0  0  0
 18 25  1  0  0  0  0
 19 26  2  0  0  0  0
 20 24  2  0  0  0  0
 21 27  1  0  0  0  0
 22 24  1  0  0  0  0
 25 28  2  0  0  0  0
 26 28  1  0  0  0  0
M  END
> <PUBCHEM_COMPOUND_ID_TYPE>
0

> <PUBCHEM_TOTAL_CHARGE>
0

> <PUBCHEM_SUBSTANCE_ID>
310936768

> <PUBCHEM_SUBSTANCE_VERSION>
1

> <PUBCHEM_EXT_DATASOURCE_NAME>
4488

> <PUBCHEM_EXT_DATASOURCE_REGID>
SCHEMBL16114452

> <PUBCHEM_SUBSTANCE_COMMENT>
InChI=1S/C25H28N2O4/c1-26(2)23(28)17-31-24(19-10-5-4-6-11-19)22(16-27(3)25(29)30)21-14-13-18-9-7-8-12-20(18)15-21/h4-15,22,24H,16-17H2,1-3H3,(H,29,30)/t22-,24-/m1/s1
InChIKey=UWODBNNWFOKMAE-ISKFKSNPSA-N

> <PUBCHEM_SUBSTANCE_SYNONYM>
SCHEMBL16114452

> <PUBCHEM_XREF_EXT_ID>
SCHEMBL16114452

> <PUBCHEM_EXT_DATASOURCE_URL>
https://www.surechembl.org/

> <PUBCHEM_EXT_SUBSTANCE_URL>
https://www.surechembl.org/chemical/SCHEMBL16114452

> <PUBCHEM_CID_ASSOCIATIONS>
117604664  1

> <PUBCHEM_COORDINATE_TYPE>
1
3

> <PUBCHEM_BONDANNOTATIONS>
9  1  6
7  15  5

$$$$
