310932559
  -OEChem-07211613022D

 39 44  0     1  0  0  0  0  0999 V2000
    5.6018   -7.1385    0.0000 F   0  0  0  0  0  0  0  0  0  0  0  0
    1.1402   -9.2206    0.0000 F   0  0  0  0  0  0  0  0  0  0  0  0
    4.8086   -5.6514    0.0000 O   0  0  0  0  0  0  0  0  0  0  0  0
    1.4872   -5.6514    0.0000 O   0  0  0  0  0  0  0  0  0  0  0  0
    1.9829   -3.5197    0.0000 O   0  0  0  0  0  0  0  0  0  0  0  0
    2.7266   -4.9573    0.0000 N   0  0  0  0  0  0  0  0  0  0  0  0
    4.3624   -7.7830    0.0000 N   0  0  0  0  0  0  0  0  0  0  0  0
    3.2223   -2.8257    0.0000 N   0  0  0  0  0  0  0  0  0  0  0  0
    1.5367   -4.2137    0.0000 N   0  0  0  0  0  0  0  0  0  0  0  0
    3.1727   -9.8651    0.0000 N   0  0  0  0  0  0  0  0  0  0  0  0
    1.1898   -2.1316    0.0000 N   0  0  0  0  0  0  0  0  0  0  0  0
    0.0000    0.0000    0.0000 N   0  0  0  0  0  0  0  0  0  0  0  0
    3.1727   -5.6514    0.0000 C   0  0  3  0  0  0  0  0  0  0  0  0
    3.5693   -6.3453    0.0000 C   0  0  0  0  0  0  0  0  0  0  0  0
    3.6189   -4.9573    0.0000 C   0  0  0  0  0  0  0  0  0  0  0  0
    4.4120   -6.3949    0.0000 C   0  0  0  0  0  0  0  0  0  0  0  0
    4.4120   -4.9573    0.0000 C   0  0  0  0  0  0  0  0  0  0  0  0
    2.7266   -6.3453    0.0000 C   0  0  0  0  0  0  0  0  0  0  0  0
    3.1727   -7.0890    0.0000 C   0  0  0  0  0  0  0  0  0  0  0  0
    4.8086   -7.0890    0.0000 C   0  0  0  0  0  0  0  0  0  0  0  0
    3.1727   -4.2137    0.0000 C   0  0  0  0  0  0  0  0  0  0  0  0
    3.5693   -7.7334    0.0000 C   0  0  0  0  0  0  0  0  0  0  0  0
    1.9333   -4.9573    0.0000 C   0  0  0  0  0  0  0  0  0  0  0  0
    4.8086   -4.2137    0.0000 C   0  0  0  0  0  0  0  0  0  0  0  0
    3.6189   -3.5693    0.0000 C   0  0  0  0  0  0  0  0  0  0  0  0
    1.9333   -6.3453    0.0000 C   0  0  0  0  0  0  0  0  0  0  0  0
    3.1727   -8.4770    0.0000 C   0  0  0  0  0  0  0  0  0  0  0  0
    4.4120   -3.5693    0.0000 C   0  0  0  0  0  0  0  0  0  0  0  0
    2.3300   -8.4770    0.0000 C   0  0  0  0  0  0  0  0  0  0  0  0
    3.5693   -9.1710    0.0000 C   0  0  0  0  0  0  0  0  0  0  0  0
    2.4291   -2.8257    0.0000 C   0  0  0  0  0  0  0  0  0  0  0  0
    1.9333   -9.1710    0.0000 C   0  0  0  0  0  0  0  0  0  0  0  0
    1.9829   -2.1316    0.0000 C   0  0  0  0  0  0  0  0  0  0  0  0
    2.3795   -9.9147    0.0000 C   0  0  0  0  0  0  0  0  0  0  0  0
    2.4291   -1.4376    0.0000 C   0  0  0  0  0  0  0  0  0  0  0  0
    0.7932   -1.4376    0.0000 C   0  0  0  0  0  0  0  0  0  0  0  0
    1.9829   -0.7436    0.0000 C   0  0  0  0  0  0  0  0  0  0  0  0
    1.1898   -0.7436    0.0000 C   0  0  0  0  0  0  0  0  0  0  0  0
    0.7932    0.0000    0.0000 C   0  0  0  0  0  0  0  0  0  0  0  0
  1 20  1  0  0  0  0
  2 32  1  0  0  0  0
  3 16  1  0  0  0  0
  3 17  1  0  0  0  0
  4 23  1  0  0  0  0
  4 26  1  0  0  0  0
  5 31  2  0  0  0  0
 13  6  1  1  0  0  0
  6 23  2  0  0  0  0
  7 20  1  0  0  0  0
  7 22  2  0  0  0  0
  8 25  1  0  0  0  0
  8 31  1  0  0  0  0
  9 23  1  0  0  0  0
 10 30  1  0  0  0  0
 10 34  2  0  0  0  0
 11 33  1  0  0  0  0
 11 36  2  0  0  0  0
 12 39  3  0  0  0  0
 13 14  1  0  0  0  0
 13 15  1  0  0  0  0
 13 18  1  0  0  0  0
 14 16  1  0  0  0  0
 14 19  2  0  0  0  0
 15 17  2  0  0  0  0
 15 21  1  0  0  0  0
 16 20  2  0  0  0  0
 17 24  1  0  0  0  0
 18 26  1  0  0  0  0
 19 22  1  0  0  0  0
 21 25  2  0  0  0  0
 22 27  1  0  0  0  0
 24 28  2  0  0  0  0
 25 28  1  0  0  0  0
 27 29  1  0  0  0  0
 27 30  2  0  0  0  0
 29 32  2  0  0  0  0
 31 33  1  0  0  0  0
 32 34  1  0  0  0  0
 33 35  2  0  0  0  0
 35 37  1  0  0  0  0
 36 38  1  0  0  0  0
 37 38  2  0  0  0  0
 38 39  1  0  0  0  0
M  END
> <PUBCHEM_COMPOUND_ID_TYPE>
0

> <PUBCHEM_TOTAL_CHARGE>
0

> <PUBCHEM_SUBSTANCE_ID>
310932559

> <PUBCHEM_SUBSTANCE_VERSION>
1

> <PUBCHEM_EXT_DATASOURCE_NAME>
4488

> <PUBCHEM_EXT_DATASOURCE_REGID>
SCHEMBL16109936

> <PUBCHEM_SUBSTANCE_COMMENT>
InChI=1S/C27H17F2N7O3/c28-16-7-15(12-32-13-16)21-9-19-23(24(29)35-21)39-22-4-2-17(8-18(22)27(19)5-6-38-26(31)36-27)34-25(37)20-3-1-14(10-30)11-33-20/h1-4,7-9,11-13H,5-6H2,(H2,31,36)(H,34,37)/t27-/m0/s1
InChIKey=AGBUUVQKXXLAQD-MHZLTWQESA-N

> <PUBCHEM_SUBSTANCE_SYNONYM>
SCHEMBL16109936

> <PUBCHEM_XREF_EXT_ID>
SCHEMBL16109936

> <PUBCHEM_EXT_DATASOURCE_URL>
https://www.surechembl.org/

> <PUBCHEM_EXT_SUBSTANCE_URL>
https://www.surechembl.org/chemical/SCHEMBL16109936

> <PUBCHEM_CID_ASSOCIATIONS>
71542968  1

> <PUBCHEM_COORDINATE_TYPE>
1
3

> <PUBCHEM_BONDANNOTATIONS>
13  6  5

$$$$
