310942382
  -OEChem-07211613022D

 15 14  0     1  0  0  0  0  0999 V2000
    0.7074    0.0000    0.0000 O   0  0  0  0  0  0  0  0  0  0  0  0
   -0.0141    1.2593    0.0000 O   0  0  0  0  0  0  0  0  0  0  0  0
    2.1505   -0.8347    0.0000 O   0  0  0  0  0  0  0  0  0  0  0  0
   -2.1930   -0.8347    0.0000 O   0  0  0  0  0  0  0  0  0  0  0  0
   -1.4432    0.4244    0.0000 N   0  0  0  0  0  0  0  0  0  0  0  0
   -0.0141    0.4103    0.0000 C   0  0  0  0  0  0  0  0  0  0  0  0
   -0.7074    0.0141    0.0000 C   0  0  3  0  0  0  0  0  0  0  0  0
    1.4290    0.4244    0.0000 C   0  0  3  0  0  0  0  0  0  0  0  0
    2.1789    0.0283    0.0000 C   0  0  0  0  0  0  0  0  0  0  0  0
   -0.7216   -0.8347    0.0000 C   0  0  0  0  0  0  0  0  0  0  0  0
   -2.1648    0.0283    0.0000 C   0  0  0  0  0  0  0  0  0  0  0  0
    1.4432    1.2451    0.0000 C   0  0  0  0  0  0  0  0  0  0  0  0
    2.8863    0.4244    0.0000 C   0  0  0  0  0  0  0  0  0  0  0  0
   -1.4290   -1.2593    0.0000 C   0  0  0  0  0  0  0  0  0  0  0  0
   -2.8863    0.4103    0.0000 C   0  0  0  0  0  0  0  0  0  0  0  0
  1  6  1  0  0  0  0
  1  8  1  0  0  0  0
  2  6  2  0  0  0  0
  3  9  2  0  0  0  0
  4 11  2  0  0  0  0
  7  5  1  6  0  0  0
  5 11  1  0  0  0  0
  6  7  1  0  0  0  0
  7 10  1  0  0  0  0
  8  9  1  0  0  0  0
  8 12  1  1  0  0  0
  9 13  1  0  0  0  0
 10 14  1  0  0  0  0
 11 15  1  0  0  0  0
M  END
> <PUBCHEM_COMPOUND_ID_TYPE>
0

> <PUBCHEM_TOTAL_CHARGE>
0

> <PUBCHEM_SUBSTANCE_ID>
310942382

> <PUBCHEM_SUBSTANCE_VERSION>
1

> <PUBCHEM_EXT_DATASOURCE_NAME>
4488

> <PUBCHEM_EXT_DATASOURCE_REGID>
SCHEMBL16120418

> <PUBCHEM_SUBSTANCE_COMMENT>
InChI=1S/C10H17NO4/c1-5-9(11-8(4)13)10(14)15-7(3)6(2)12/h7,9H,5H2,1-4H3,(H,11,13)/t7-,9-/m0/s1
InChIKey=HUGYITBZSVGWNO-CBAPKCEASA-N

> <PUBCHEM_SUBSTANCE_SYNONYM>
SCHEMBL16120418

> <PUBCHEM_XREF_EXT_ID>
SCHEMBL16120418

> <PUBCHEM_EXT_DATASOURCE_URL>
https://www.surechembl.org/

> <PUBCHEM_EXT_SUBSTANCE_URL>
https://www.surechembl.org/chemical/SCHEMBL16120418

> <PUBCHEM_CID_ASSOCIATIONS>
117608997  1

> <PUBCHEM_COORDINATE_TYPE>
1
3

> <PUBCHEM_BONDANNOTATIONS>
7  5  6
8  12  5

$$$$
