310933846
  -OEChem-07211613022D

 16 17  0     0  0  0  0  0  0999 V2000
    0.9094   -2.4949    0.0000 O   0  0  0  0  0  0  0  0  0  0  0  0
    4.1152   -0.9238    0.0000 O   0  0  0  0  0  0  0  0  0  0  0  0
    3.7600    0.4603    0.0000 O   0  0  0  0  0  0  0  0  0  0  0  0
    1.1407   -0.9495    0.0000 C   0  0  0  0  0  0  0  0  0  0  0  0
    0.9106   -1.6699    0.0000 C   0  0  0  0  0  0  0  0  0  0  0  0
    0.9807   -0.1341    0.0000 C   0  0  0  0  0  0  0  0  0  0  0  0
    0.5004   -1.3997    0.0000 C   0  0  0  0  0  0  0  0  0  0  0  0
    1.9362   -1.4148    0.0000 C   0  0  0  0  0  0  0  0  0  0  0  0
    0.1351   -2.0602    0.0000 C   0  0  0  0  0  0  0  0  0  0  0  0
    1.6411   -2.0402    0.0000 C   0  0  0  0  0  0  0  0  0  0  0  0
    1.3626   -0.1549    0.0000 C   0  0  0  0  0  0  0  0  0  0  0  0
    2.1618    0.0502    0.0000 C   0  0  0  0  0  0  0  0  0  0  0  0
    2.7389   -0.5393    0.0000 C   0  0  0  0  0  0  0  0  0  0  0  0
    0.1943   -2.9064    0.0000 C   0  0  0  0  0  0  0  0  0  0  0  0
    3.5380   -0.3343    0.0000 C   0  0  0  0  0  0  0  0  0  0  0  0
    2.5170   -1.3339    0.0000 C   0  0  0  0  0  0  0  0  0  0  0  0
  1  5  1  0  0  0  0
  1 14  1  0  0  0  0
  2 15  2  0  0  0  0
  3 15  1  0  0  0  0
  4  6  1  0  0  0  0
  4  7  1  0  0  0  0
  4  8  1  0  0  0  0
  4 11  1  0  0  0  0
  5  6  1  0  0  0  0
  5  9  1  0  0  0  0
  5 10  1  0  0  0  0
  7  9  1  0  0  0  0
  8 10  1  0  0  0  0
 11 12  1  0  0  0  0
 12 13  2  0  0  0  0
 13 15  1  0  0  0  0
 13 16  1  0  0  0  0
M  END
> <PUBCHEM_COMPOUND_ID_TYPE>
0

> <PUBCHEM_TOTAL_CHARGE>
0

> <PUBCHEM_SUBSTANCE_ID>
310933846

> <PUBCHEM_SUBSTANCE_VERSION>
1

> <PUBCHEM_EXT_DATASOURCE_NAME>
4488

> <PUBCHEM_EXT_DATASOURCE_REGID>
SCHEMBL16111284

> <PUBCHEM_SUBSTANCE_COMMENT>
InChI=1S/C13H20O3/c1-10(11(14)15)3-4-12-5-7-13(9-12,16-2)8-6-12/h3H,4-9H2,1-2H3,(H,14,15)/b10-3+
InChIKey=NNCHOYVIQKWXNP-XCVCLJGOSA-N

> <PUBCHEM_SUBSTANCE_SYNONYM>
SCHEMBL16111284

> <PUBCHEM_XREF_EXT_ID>
SCHEMBL16111284

> <PUBCHEM_EXT_DATASOURCE_URL>
https://www.surechembl.org/

> <PUBCHEM_EXT_SUBSTANCE_URL>
https://www.surechembl.org/chemical/SCHEMBL16111284

> <PUBCHEM_CID_ASSOCIATIONS>
117602192  1

> <PUBCHEM_COORDINATE_TYPE>
1
3

> <PUBCHEM_BONDANNOTATIONS>
12  11  3

$$$$
