310939765
  -OEChem-07211613022D

 13 13  0     0  0  0  0  0  0999 V2000
    2.7282   -6.6407    0.0000 Cl  0  0  0  0  0  0  0  0  0  0  0  0
    0.5848   -7.0532    0.0000 N   0  0  0  0  0  0  0  0  0  0  0  0
    0.5848   -7.8782    0.0000 C   0  0  0  0  0  0  0  0  0  0  0  0
   -0.1297   -8.2907    0.0000 C   0  0  0  0  0  0  0  0  0  0  0  0
    2.0137   -7.8782    0.0000 C   0  0  0  0  0  0  0  0  0  0  0  0
    1.2993   -8.2907    0.0000 C   0  0  0  0  0  0  0  0  0  0  0  0
    2.0137   -7.0532    0.0000 C   0  0  0  0  0  0  0  0  0  0  0  0
    1.2993   -6.6407    0.0000 C   0  0  0  0  0  0  0  0  0  0  0  0
    2.7282   -8.2907    0.0000 C   0  0  0  0  0  0  0  0  0  0  0  0
   -0.5422   -7.5762    0.0000 C   0  0  0  0  0  0  0  0  0  0  0  0
    0.2828   -9.0051    0.0000 C   0  0  0  0  0  0  0  0  0  0  0  0
   -0.8441   -8.7032    0.0000 C   0  0  0  0  0  0  0  0  0  0  0  0
    3.4427   -7.8782    0.0000 C   0  0  0  0  0  0  0  0  0  0  0  0
  1  7  1  0  0  0  0
  2  3  2  0  0  0  0
  2  8  1  0  0  0  0
  3  4  1  0  0  0  0
  3  6  1  0  0  0  0
  4 10  1  0  0  0  0
  4 11  1  0  0  0  0
  4 12  1  0  0  0  0
  5  6  2  0  0  0  0
  5  7  1  0  0  0  0
  5  9  1  0  0  0  0
  7  8  2  0  0  0  0
  9 13  1  0  0  0  0
M  END
> <PUBCHEM_COMPOUND_ID_TYPE>
0

> <PUBCHEM_TOTAL_CHARGE>
0

> <PUBCHEM_SUBSTANCE_ID>
310939765

> <PUBCHEM_SUBSTANCE_VERSION>
1

> <PUBCHEM_EXT_DATASOURCE_NAME>
4488

> <PUBCHEM_EXT_DATASOURCE_REGID>
SCHEMBL16117695

> <PUBCHEM_SUBSTANCE_COMMENT>
InChI=1S/C11H16ClN/c1-5-8-6-10(11(2,3)4)13-7-9(8)12/h6-7H,5H2,1-4H3
InChIKey=OALWLSDIZPIJQS-UHFFFAOYSA-N

> <PUBCHEM_SUBSTANCE_SYNONYM>
SCHEMBL16117695

> <PUBCHEM_XREF_EXT_ID>
SCHEMBL16117695

> <PUBCHEM_EXT_DATASOURCE_URL>
https://www.surechembl.org/

> <PUBCHEM_EXT_SUBSTANCE_URL>
https://www.surechembl.org/chemical/SCHEMBL16117695

> <PUBCHEM_CID_ASSOCIATIONS>
117606987  1

> <PUBCHEM_COORDINATE_TYPE>
1
3

> <PUBCHEM_BONDANNOTATIONS>
4  10  3
4  11  3

$$$$
