310934496
  -OEChem-07211613022D

 28 31  0     0  0  0  0  0  0999 V2000
    3.3003   -5.1168    0.0000 Br  0  0  0  0  0  0  0  0  0  0  0  0
    2.5072   -0.8187    0.0000 S   0  0  0  0  0  0  0  0  0  0  0  0
    4.9889   -0.8187    0.0000 O   0  0  0  0  0  0  0  0  0  0  0  0
    2.5072   -1.7141    0.0000 O   0  0  0  0  0  0  0  0  0  0  0  0
    2.5072    0.0000    0.0000 O   0  0  0  0  0  0  0  0  0  0  0  0
    3.3259   -0.8187    0.0000 N   0  0  0  0  0  0  0  0  0  0  0  0
    4.9889   -2.2770    0.0000 N   0  0  0  0  0  0  0  0  0  0  0  0
    3.3259   -2.2514    0.0000 C   0  0  0  0  0  0  0  0  0  0  0  0
    3.7352   -1.5350    0.0000 C   0  0  0  0  0  0  0  0  0  0  0  0
    3.7352   -2.9934    0.0000 C   0  0  0  0  0  0  0  0  0  0  0  0
    4.5539   -2.9934    0.0000 C   0  0  0  0  0  0  0  0  0  0  0  0
    4.5539   -1.5350    0.0000 C   0  0  0  0  0  0  0  0  0  0  0  0
    2.4816   -2.2514    0.0000 C   0  0  0  0  0  0  0  0  0  0  0  0
    3.3003   -3.6841    0.0000 C   0  0  0  0  0  0  0  0  0  0  0  0
    1.6886   -0.8187    0.0000 C   0  0  0  0  0  0  0  0  0  0  0  0
    4.9633   -3.6841    0.0000 C   0  0  0  0  0  0  0  0  0  0  0  0
    3.7097   -4.4005    0.0000 C   0  0  0  0  0  0  0  0  0  0  0  0
    2.0723   -2.9677    0.0000 C   0  0  0  0  0  0  0  0  0  0  0  0
    2.0723   -1.5350    0.0000 C   0  0  0  0  0  0  0  0  0  0  0  0
    4.5539   -4.4005    0.0000 C   0  0  0  0  0  0  0  0  0  0  0  0
    1.2536   -1.5094    0.0000 C   0  0  0  0  0  0  0  0  0  0  0  0
    1.2536   -0.1023    0.0000 C   0  0  0  0  0  0  0  0  0  0  0  0
    1.2280   -2.9677    0.0000 C   0  0  0  0  0  0  0  0  0  0  0  0
    1.4071   -1.6886    0.0000 C   0  0  0  0  0  0  0  0  0  0  0  0
    0.8443   -2.2514    0.0000 C   0  0  0  0  0  0  0  0  0  0  0  0
    0.4349   -1.5094    0.0000 C   0  0  0  0  0  0  0  0  0  0  0  0
    0.4349   -0.1023    0.0000 C   0  0  0  0  0  0  0  0  0  0  0  0
    0.0000   -0.8187    0.0000 C   0  0  0  0  0  0  0  0  0  0  0  0
  1 17  1  0  0  0  0
  2  4  2  0  0  0  0
  2  5  2  0  0  0  0
  2  6  1  0  0  0  0
  2 15  1  0  0  0  0
  3 12  2  0  0  0  0
  6  9  1  0  0  0  0
  7 11  1  0  0  0  0
  7 12  1  0  0  0  0
  8  9  2  0  0  0  0
  8 10  1  0  0  0  0
  8 13  1  0  0  0  0
  9 12  1  0  0  0  0
 10 11  2  0  0  0  0
 10 14  1  0  0  0  0
 11 16  1  0  0  0  0
 13 18  2  0  0  0  0
 13 19  1  0  0  0  0
 14 17  2  0  0  0  0
 15 21  2  0  0  0  0
 15 22  1  0  0  0  0
 16 20  2  0  0  0  0
 17 20  1  0  0  0  0
 18 23  1  0  0  0  0
 19 24  2  0  0  0  0
 21 26  1  0  0  0  0
 22 27  2  0  0  0  0
 23 25  2  0  0  0  0
 24 25  1  0  0  0  0
 26 28  2  0  0  0  0
 27 28  1  0  0  0  0
M  END
> <PUBCHEM_COMPOUND_ID_TYPE>
0

> <PUBCHEM_TOTAL_CHARGE>
0

> <PUBCHEM_SUBSTANCE_ID>
310934496

> <PUBCHEM_SUBSTANCE_VERSION>
1

> <PUBCHEM_EXT_DATASOURCE_NAME>
4488

> <PUBCHEM_EXT_DATASOURCE_REGID>
SCHEMBL16111980

> <PUBCHEM_SUBSTANCE_COMMENT>
InChI=1S/C21H15BrN2O3S/c22-15-11-12-18-17(13-15)19(14-7-3-1-4-8-14)20(21(25)23-18)24-28(26,27)16-9-5-2-6-10-16/h1-13,24H,(H,23,25)
InChIKey=UVRIJXJZWRHTGI-UHFFFAOYSA-N

> <PUBCHEM_SUBSTANCE_SYNONYM>
SCHEMBL16111980

> <PUBCHEM_XREF_EXT_ID>
SCHEMBL16111980

> <PUBCHEM_EXT_DATASOURCE_URL>
https://www.surechembl.org/

> <PUBCHEM_EXT_SUBSTANCE_URL>
https://www.surechembl.org/chemical/SCHEMBL16111980

> <PUBCHEM_CID_ASSOCIATIONS>
1119286  1

> <PUBCHEM_COORDINATE_TYPE>
1
3

$$$$
