310943051
  -OEChem-07211613022D

 26 27  0     0  0  0  0  0  0999 V2000
   -2.9353   -1.5067    0.0000 F   0  0  0  0  0  0  0  0  0  0  0  0
   -3.2478   -0.4241    0.0000 F   0  0  0  0  0  0  0  0  0  0  0  0
   -2.1428   -0.1228    0.0000 F   0  0  0  0  0  0  0  0  0  0  0  0
   -1.0156   -2.0647    0.0000 F   0  0  0  0  0  0  0  0  0  0  0  0
   -1.8192   -2.8683    0.0000 F   0  0  0  0  0  0  0  0  0  0  0  0
   -2.6227   -2.0536    0.0000 F   0  0  0  0  0  0  0  0  0  0  0  0
   -2.5334   -1.6517    0.0000 O   0  0  0  0  0  0  0  0  0  0  0  0
    0.3572    1.6629    0.0000 O   0  0  0  0  0  0  0  0  0  0  0  0
    1.0826    0.4130    0.0000 N   0  0  0  0  0  0  0  0  0  0  0  0
   -1.8192   -1.2389    0.0000 C   0  0  0  0  0  0  0  0  0  0  0  0
   -1.8304   -2.0536    0.0000 C   0  0  0  0  0  0  0  0  0  0  0  0
   -2.5446   -0.8035    0.0000 C   0  0  0  0  0  0  0  0  0  0  0  0
   -1.1049   -0.8259    0.0000 C   0  0  0  0  0  0  0  0  0  0  0  0
   -1.0826    0.0000    0.0000 C   0  0  0  0  0  0  0  0  0  0  0  0
   -0.3460   -1.2277    0.0000 C   0  0  0  0  0  0  0  0  0  0  0  0
    0.3572   -0.0112    0.0000 C   0  0  0  0  0  0  0  0  0  0  0  0
   -0.3795    0.4018    0.0000 C   0  0  0  0  0  0  0  0  0  0  0  0
    0.3572   -0.8259    0.0000 C   0  0  0  0  0  0  0  0  0  0  0  0
    1.0937    1.2389    0.0000 C   0  0  0  0  0  0  0  0  0  0  0  0
    1.8080    1.6517    0.0000 C   0  0  0  0  0  0  0  0  0  0  0  0
    1.7857    0.0000    0.0000 C   0  0  0  0  0  0  0  0  0  0  0  0
    2.5223    1.2389    0.0000 C   0  0  0  0  0  0  0  0  0  0  0  0
    1.8192    2.4664    0.0000 C   0  0  0  0  0  0  0  0  0  0  0  0
    3.2478    1.6406    0.0000 C   0  0  0  0  0  0  0  0  0  0  0  0
    2.5334    2.8683    0.0000 C   0  0  0  0  0  0  0  0  0  0  0  0
    3.2478    2.4664    0.0000 C   0  0  0  0  0  0  0  0  0  0  0  0
  1 12  1  0  0  0  0
  2 12  1  0  0  0  0
  3 12  1  0  0  0  0
  4 11  1  0  0  0  0
  5 11  1  0  0  0  0
  6 11  1  0  0  0  0
  7 10  1  0  0  0  0
  8 19  2  0  0  0  0
  9 16  1  0  0  0  0
  9 19  1  0  0  0  0
  9 21  1  0  0  0  0
 10 11  1  0  0  0  0
 10 12  1  0  0  0  0
 10 13  1  0  0  0  0
 13 14  2  0  0  0  0
 13 15  1  0  0  0  0
 14 17  1  0  0  0  0
 15 18  2  0  0  0  0
 16 17  2  0  0  0  0
 16 18  1  0  0  0  0
 19 20  1  0  0  0  0
 20 22  2  0  0  0  0
 20 23  1  0  0  0  0
 22 24  1  0  0  0  0
 23 25  2  0  0  0  0
 24 26  2  0  0  0  0
 25 26  1  0  0  0  0
M  END
> <PUBCHEM_COMPOUND_ID_TYPE>
0

> <PUBCHEM_TOTAL_CHARGE>
0

> <PUBCHEM_SUBSTANCE_ID>
310943051

> <PUBCHEM_SUBSTANCE_VERSION>
1

> <PUBCHEM_EXT_DATASOURCE_NAME>
4488

> <PUBCHEM_EXT_DATASOURCE_REGID>
SCHEMBL16121110

> <PUBCHEM_SUBSTANCE_COMMENT>
InChI=1S/C17H13F6NO2/c1-24(14(25)11-5-3-2-4-6-11)13-9-7-12(8-10-13)15(26,16(18,19)20)17(21,22)23/h2-10,26H,1H3
InChIKey=NZMKNKKURNJCLW-UHFFFAOYSA-N

> <PUBCHEM_SUBSTANCE_SYNONYM>
SCHEMBL16121110

> <PUBCHEM_XREF_EXT_ID>
SCHEMBL16121110

> <PUBCHEM_EXT_DATASOURCE_URL>
https://www.surechembl.org/

> <PUBCHEM_EXT_SUBSTANCE_URL>
https://www.surechembl.org/chemical/SCHEMBL16121110

> <PUBCHEM_CID_ASSOCIATIONS>
5188108  1

> <PUBCHEM_COORDINATE_TYPE>
1
3

$$$$
