310943280
  -OEChem-07211613022D

 36 41  0     0  0  0  0  0  0999 V2000
    1.0695   -0.2186    0.0000 O   0  0  0  0  0  0  0  0  0  0  0  0
   -4.6605    2.2639    0.0000 O   0  0  0  0  0  0  0  0  0  0  0  0
   -2.5059    0.1873    0.0000 N   0  0  0  0  0  0  0  0  0  0  0  0
   -1.0695    0.1873    0.0000 N   0  0  0  0  0  0  0  0  0  0  0  0
   -3.2241    1.4364    0.0000 N   0  0  0  0  0  0  0  0  0  0  0  0
   -3.1148   -0.3591    0.0000 N   0  0  0  0  0  0  0  0  0  0  0  0
    3.9267   -1.0460    0.0000 N   0  0  0  0  0  0  0  0  0  0  0  0
    1.7877    1.0149    0.0000 N   0  0  0  0  0  0  0  0  0  0  0  0
    0.3513    2.6854    0.0000 N   0  0  0  0  0  0  0  0  0  0  0  0
    4.6605   -1.4989    0.0000 N   0  0  0  0  0  0  0  0  0  0  0  0
    3.2241   -2.2795    0.0000 C   0  0  0  0  0  0  0  0  0  0  0  0
   -2.5059    1.0305    0.0000 C   0  0  0  0  0  0  0  0  0  0  0  0
   -1.0695    1.0305    0.0000 C   0  0  0  0  0  0  0  0  0  0  0  0
    3.2085   -1.4520    0.0000 C   0  0  0  0  0  0  0  0  0  0  0  0
   -1.7877   -0.2186    0.0000 C   0  0  0  0  0  0  0  0  0  0  0  0
    2.5527   -2.6854    0.0000 C   0  0  0  0  0  0  0  0  0  0  0  0
    3.8643   -2.6699    0.0000 C   0  0  0  0  0  0  0  0  0  0  0  0
   -0.3825    1.4364    0.0000 C   0  0  0  0  0  0  0  0  0  0  0  0
   -1.8034    1.4364    0.0000 C   0  0  0  0  0  0  0  0  0  0  0  0
    2.4903   -1.0460    0.0000 C   0  0  0  0  0  0  0  0  0  0  0  0
    3.9267   -1.8736    0.0000 C   0  0  0  0  0  0  0  0  0  0  0  0
   -0.3669    2.2795    0.0000 C   0  0  0  0  0  0  0  0  0  0  0  0
    2.5059   -0.2186    0.0000 C   0  0  0  0  0  0  0  0  0  0  0  0
   -1.9594   -1.0149    0.0000 C   0  0  0  0  0  0  0  0  0  0  0  0
    0.3669    1.0305    0.0000 C   0  0  0  0  0  0  0  0  0  0  0  0
    1.0539    1.4364    0.0000 C   0  0  0  0  0  0  0  0  0  0  0  0
   -2.7869   -1.1085    0.0000 C   0  0  0  0  0  0  0  0  0  0  0  0
    1.7877    0.2186    0.0000 C   0  0  0  0  0  0  0  0  0  0  0  0
   -3.2241    2.2639    0.0000 C   0  0  0  0  0  0  0  0  0  0  0  0
   -3.9267    1.0305    0.0000 C   0  0  0  0  0  0  0  0  0  0  0  0
    3.1929    0.1873    0.0000 C   0  0  0  0  0  0  0  0  0  0  0  0
    1.0695    2.2639    0.0000 C   0  0  0  0  0  0  0  0  0  0  0  0
    3.9267   -0.2186    0.0000 C   0  0  0  0  0  0  0  0  0  0  0  0
   -1.0851    2.6542    0.0000 C   0  0  0  0  0  0  0  0  0  0  0  0
   -3.9267    2.6854    0.0000 C   0  0  0  0  0  0  0  0  0  0  0  0
   -4.6449    1.4364    0.0000 C   0  0  0  0  0  0  0  0  0  0  0  0
  1 28  2  0  0  0  0
  2 35  1  0  0  0  0
  2 36  1  0  0  0  0
  3  6  1  0  0  0  0
  3 12  1  0  0  0  0
  3 15  1  0  0  0  0
  4 13  2  0  0  0  0
  4 15  1  0  0  0  0
  5 12  1  0  0  0  0
  5 29  1  0  0  0  0
  5 30  1  0  0  0  0
  6 27  2  0  0  0  0
  7 14  2  0  0  0  0
  7 33  1  0  0  0  0
  8 26  1  0  0  0  0
  8 28  1  0  0  0  0
  9 22  2  0  0  0  0
  9 32  1  0  0  0  0
 10 21  3  0  0  0  0
 11 14  1  0  0  0  0
 11 16  1  0  0  0  0
 11 17  1  0  0  0  0
 11 21  1  0  0  0  0
 12 19  2  0  0  0  0
 13 18  1  0  0  0  0
 13 19  1  0  0  0  0
 14 20  1  0  0  0  0
 15 24  2  0  0  0  0
 16 17  1  0  0  0  0
 18 22  1  0  0  0  0
 18 25  2  0  0  0  0
 20 23  2  0  0  0  0
 22 34  1  0  0  0  0
 23 28  1  0  0  0  0
 23 31  1  0  0  0  0
 24 27  1  0  0  0  0
 25 26  1  0  0  0  0
 26 32  2  0  0  0  0
 29 35  1  0  0  0  0
 30 36  1  0  0  0  0
 31 33  2  0  0  0  0
M  END
> <PUBCHEM_COMPOUND_ID_TYPE>
0

> <PUBCHEM_TOTAL_CHARGE>
0

> <PUBCHEM_SUBSTANCE_ID>
310943280

> <PUBCHEM_SUBSTANCE_VERSION>
1

> <PUBCHEM_EXT_DATASOURCE_NAME>
4488

> <PUBCHEM_EXT_DATASOURCE_REGID>
SCHEMBL16121342

> <PUBCHEM_SUBSTANCE_COMMENT>
InChI=1S/C26H24N8O2/c1-17-20(21-14-24(33-8-10-36-11-9-33)34-23(32-21)3-7-30-34)13-19(15-29-17)31-25(35)18-2-6-28-22(12-18)26(16-27)4-5-26/h2-3,6-7,12-15H,4-5,8-11H2,1H3,(H,31,35)
InChIKey=QDVOVDWVFZOQIX-UHFFFAOYSA-N

> <PUBCHEM_SUBSTANCE_SYNONYM>
SCHEMBL16121342

> <PUBCHEM_XREF_EXT_ID>
SCHEMBL16121342

> <PUBCHEM_EXT_DATASOURCE_URL>
https://www.surechembl.org/

> <PUBCHEM_EXT_SUBSTANCE_URL>
https://www.surechembl.org/chemical/SCHEMBL16121342

> <PUBCHEM_CID_ASSOCIATIONS>
117609705  1

> <PUBCHEM_COORDINATE_TYPE>
1
3

$$$$
