310934175
  -OEChem-07211613022D

 25 27  0     0  0  0  0  0  0999 V2000
    4.4876   -0.7102    0.0000 S   0  0  0  0  0  0  0  0  0  0  0  0
    1.5820   -1.4205    0.0000 O   0  0  0  0  0  0  0  0  0  0  0  0
    1.5820    0.0000    0.0000 O   0  0  0  0  0  0  0  0  0  0  0  0
    3.6482   -2.1308    0.0000 O   0  0  0  0  0  0  0  0  0  0  0  0
    2.8088   -0.7102    0.0000 C   0  0  0  0  0  0  0  0  0  0  0  0
    1.9694   -0.7102    0.0000 C   0  0  0  0  0  0  0  0  0  0  0  0
    2.3891   -1.4205    0.0000 C   0  0  0  0  0  0  0  0  0  0  0  0
    2.8088   -2.1308    0.0000 C   0  0  0  0  0  0  0  0  0  0  0  0
    3.2285   -1.4205    0.0000 C   0  0  0  0  0  0  0  0  0  0  0  0
    3.2285    0.0000    0.0000 C   0  0  0  0  0  0  0  0  0  0  0  0
    2.4213   -2.8733    0.0000 C   0  0  0  0  0  0  0  0  0  0  0  0
    1.6142   -4.2939    0.0000 C   0  0  0  0  0  0  0  0  0  0  0  0
    4.0356   -1.4205    0.0000 C   0  0  0  0  0  0  0  0  0  0  0  0
    4.0356    0.0000    0.0000 C   0  0  0  0  0  0  0  0  0  0  0  0
    1.5820   -2.8733    0.0000 C   0  0  0  0  0  0  0  0  0  0  0  0
    2.8411   -3.5836    0.0000 C   0  0  0  0  0  0  0  0  0  0  0  0
    1.2268   -5.0364    0.0000 C   0  0  0  0  0  0  0  0  0  0  0  0
    1.1945   -3.5836    0.0000 C   0  0  0  0  0  0  0  0  0  0  0  0
    2.4213   -4.2939    0.0000 C   0  0  0  0  0  0  0  0  0  0  0  0
    1.6465   -5.7144    0.0000 C   0  0  0  0  0  0  0  0  0  0  0  0
    0.3874   -5.0364    0.0000 C   0  0  0  0  0  0  0  0  0  0  0  0
    0.7426   -1.4205    0.0000 C   0  0  0  0  0  0  0  0  0  0  0  0
    1.2268   -6.4570    0.0000 C   0  0  0  0  0  0  0  0  0  0  0  0
    0.0000   -5.7467    0.0000 C   0  0  0  0  0  0  0  0  0  0  0  0
    0.4197   -6.4570    0.0000 C   0  0  0  0  0  0  0  0  0  0  0  0
  1 13  1  0  0  0  0
  1 14  1  0  0  0  0
  2  6  1  0  0  0  0
  2 22  1  0  0  0  0
  3  6  2  0  0  0  0
  4  8  2  0  0  0  0
  5  6  1  0  0  0  0
  5  7  1  0  0  0  0
  5  9  1  0  0  0  0
  5 10  1  0  0  0  0
  7  8  1  0  0  0  0
  8 11  1  0  0  0  0
  9 13  1  0  0  0  0
 10 14  1  0  0  0  0
 11 15  2  0  0  0  0
 11 16  1  0  0  0  0
 12 17  1  0  0  0  0
 12 18  2  0  0  0  0
 12 19  1  0  0  0  0
 15 18  1  0  0  0  0
 16 19  2  0  0  0  0
 17 20  2  0  0  0  0
 17 21  1  0  0  0  0
 20 23  1  0  0  0  0
 21 24  2  0  0  0  0
 23 25  2  0  0  0  0
 24 25  1  0  0  0  0
M  END
> <PUBCHEM_COMPOUND_ID_TYPE>
0

> <PUBCHEM_TOTAL_CHARGE>
0

> <PUBCHEM_SUBSTANCE_ID>
310934175

> <PUBCHEM_SUBSTANCE_VERSION>
1

> <PUBCHEM_EXT_DATASOURCE_NAME>
4488

> <PUBCHEM_EXT_DATASOURCE_REGID>
SCHEMBL16111626

> <PUBCHEM_SUBSTANCE_COMMENT>
InChI=1S/C21H22O3S/c1-24-20(23)21(11-13-25-14-12-21)15-19(22)18-9-7-17(8-10-18)16-5-3-2-4-6-16/h2-10H,11-15H2,1H3
InChIKey=AQZUQDOYTWMQML-UHFFFAOYSA-N

> <PUBCHEM_SUBSTANCE_SYNONYM>
SCHEMBL16111626

> <PUBCHEM_XREF_EXT_ID>
SCHEMBL16111626

> <PUBCHEM_EXT_DATASOURCE_URL>
https://www.surechembl.org/

> <PUBCHEM_EXT_SUBSTANCE_URL>
https://www.surechembl.org/chemical/SCHEMBL16111626

> <PUBCHEM_CID_ASSOCIATIONS>
117602449  1

> <PUBCHEM_COORDINATE_TYPE>
1
3

$$$$
