310933432
  -OEChem-07211613022D

 29 33  0     0  0  0  0  0  0999 V2000
    0.0000   -5.2038    0.0000 O   0  0  0  0  0  0  0  0  0  0  0  0
    5.5845   -4.1884    0.0000 O   0  0  0  0  0  0  0  0  0  0  0  0
    1.3644    0.0000    0.0000 O   0  5  0  0  0  0  0  0  0  0  0  0
    4.2836   -3.5220    0.0000 N   0  0  0  0  0  0  0  0  0  0  0  0
    4.2519   -4.8230    0.0000 N   0  0  0  0  0  0  0  0  0  0  0  0
    1.3644   -0.8250    0.0000 N   0  3  0  0  0  0  0  0  0  0  0  0
    0.4125   -5.9336    0.0000 N   0  0  0  0  0  0  0  0  0  0  0  0
    2.7606   -3.2999    0.0000 C   0  0  0  0  0  0  0  0  0  0  0  0
    3.4903   -3.7125    0.0000 C   0  0  0  0  0  0  0  0  0  0  0  0
    2.7606   -2.4749    0.0000 C   0  0  0  0  0  0  0  0  0  0  0  0
    3.4586   -4.6009    0.0000 C   0  0  0  0  0  0  0  0  0  0  0  0
    2.0307   -4.5691    0.0000 C   0  0  0  0  0  0  0  0  0  0  0  0
    2.0625   -2.0625    0.0000 C   0  0  0  0  0  0  0  0  0  0  0  0
    2.0625   -3.6807    0.0000 C   0  0  0  0  0  0  0  0  0  0  0  0
    1.3327   -4.9499    0.0000 C   0  0  0  0  0  0  0  0  0  0  0  0
    2.7288   -4.9817    0.0000 C   0  0  0  0  0  0  0  0  0  0  0  0
    3.4903   -2.0625    0.0000 C   0  0  0  0  0  0  0  0  0  0  0  0
    2.0625   -1.2375    0.0000 C   0  0  0  0  0  0  0  0  0  0  0  0
    4.7596   -4.1884    0.0000 C   0  0  0  0  0  0  0  0  0  0  0  0
    0.5712   -4.6326    0.0000 C   0  0  0  0  0  0  0  0  0  0  0  0
    1.2057   -5.7749    0.0000 C   0  0  0  0  0  0  0  0  0  0  0  0
    1.3644   -2.4749    0.0000 C   0  0  0  0  0  0  0  0  0  0  0  0
    3.4903   -1.2375    0.0000 C   0  0  0  0  0  0  0  0  0  0  0  0
    2.7606   -0.8250    0.0000 C   0  0  0  0  0  0  0  0  0  0  0  0
    0.6346   -1.2375    0.0000 C   0  0  0  0  0  0  0  0  0  0  0  0
    0.6346   -2.0625    0.0000 C   0  0  0  0  0  0  0  0  0  0  0  0
    4.2201   -2.4749    0.0000 C   0  0  0  0  0  0  0  0  0  0  0  0
    0.4125   -3.8077    0.0000 C   0  0  0  0  0  0  0  0  0  0  0  0
    1.8404   -6.3460    0.0000 C   0  0  0  0  0  0  0  0  0  0  0  0
  1  7  1  0  0  0  0
  1 20  1  0  0  0  0
  2 19  2  0  0  0  0
  3  6  1  0  0  0  0
  4  9  1  0  0  0  0
  4 19  1  0  0  0  0
  5 11  1  0  0  0  0
  5 19  1  0  0  0  0
  6 18  2  0  0  0  0
  6 25  1  0  0  0  0
  7 21  2  0  0  0  0
  8  9  1  0  0  0  0
  8 10  1  0  0  0  0
  8 14  2  0  0  0  0
  9 11  2  0  0  0  0
 10 13  1  0  0  0  0
 10 17  2  0  0  0  0
 11 16  1  0  0  0  0
 12 14  1  0  0  0  0
 12 15  1  0  0  0  0
 12 16  2  0  0  0  0
 13 18  1  0  0  0  0
 13 22  2  0  0  0  0
 15 20  2  0  0  0  0
 15 21  1  0  0  0  0
 17 23  1  0  0  0  0
 17 27  1  0  0  0  0
 18 24  1  0  0  0  0
 20 28  1  0  0  0  0
 21 29  1  0  0  0  0
 22 26  1  0  0  0  0
 23 24  2  0  0  0  0
 25 26  2  0  0  0  0
M  CHG  2   3  -1   6   1
M  END
> <PUBCHEM_COMPOUND_ID_TYPE>
0

> <PUBCHEM_TOTAL_CHARGE>
0

> <PUBCHEM_SUBSTANCE_ID>
310933432

> <PUBCHEM_SUBSTANCE_VERSION>
1

> <PUBCHEM_EXT_DATASOURCE_NAME>
4488

> <PUBCHEM_EXT_DATASOURCE_REGID>
SCHEMBL16110850

> <PUBCHEM_SUBSTANCE_COMMENT>
InChI=1S/C22H18N4O3/c1-11-6-7-18-15(5-4-8-26(18)28)19(11)16-9-14(20-12(2)25-29-13(20)3)10-17-21(16)24-22(27)23-17/h4-10H,1-3H3,(H2,23,24,27)
InChIKey=NTRRYUYAUVFUQP-UHFFFAOYSA-N

> <PUBCHEM_SUBSTANCE_SYNONYM>
SCHEMBL16110850

> <PUBCHEM_XREF_EXT_ID>
SCHEMBL16110850

> <PUBCHEM_EXT_DATASOURCE_URL>
https://www.surechembl.org/

> <PUBCHEM_EXT_SUBSTANCE_URL>
https://www.surechembl.org/chemical/SCHEMBL16110850

> <PUBCHEM_CID_ASSOCIATIONS>
117601834  1

> <PUBCHEM_COORDINATE_TYPE>
1
3

$$$$
