310948908
  -OEChem-07211613022D

 23 25  0     1  0  0  0  0  0999 V2000
    0.8726   -1.6213    0.0000 F   0  0  0  0  0  0  0  0  0  0  0  0
    1.0582    0.4456    0.0000 O   0  0  0  0  0  0  0  0  0  0  0  0
    1.8750   -1.5471    0.0000 O   0  0  0  0  0  0  0  0  0  0  0  0
   -2.8280    1.4109    0.0000 O   0  0  0  0  0  0  0  0  0  0  0  0
    3.1497   -0.0371    0.0000 O   0  0  0  0  0  0  0  0  0  0  0  0
   -0.3032    0.3713    0.0000 N   0  0  0  0  0  0  0  0  0  0  0  0
   -1.0953    1.4480    0.0000 N   0  0  0  0  0  0  0  0  0  0  0  0
   -1.4295   -0.6312    0.0000 N   0  0  0  0  0  0  0  0  0  0  0  0
   -2.7290   -0.0495    0.0000 N   0  0  0  0  0  0  0  0  0  0  0  0
   -2.4690   -1.5223    0.0000 N   0  0  0  0  0  0  0  0  0  0  0  0
    0.4146   -0.0371    0.0000 C   0  0  3  0  0  0  0  0  0  0  0  0
    0.6621   -0.7921    0.0000 C   0  0  3  0  0  0  0  0  0  0  0  0
   -1.0953    0.1238    0.0000 C   0  0  3  0  0  0  0  0  0  0  0  0
    1.4790   -0.8169    0.0000 C   0  0  3  0  0  0  0  0  0  0  0  0
   -1.5780    0.7797    0.0000 C   0  0  3  0  0  0  0  0  0  0  0  0
    1.7388   -0.0495    0.0000 C   0  0  3  0  0  0  0  0  0  0  0  0
   -0.3156    1.2005    0.0000 C   0  0  0  0  0  0  0  0  0  0  0  0
   -2.4072    0.7054    0.0000 C   0  0  0  0  0  0  0  0  0  0  0  0
   -0.0433   -1.2377    0.0000 C   0  0  0  0  0  0  0  0  0  0  0  0
   -2.2587   -0.7178    0.0000 C   0  0  0  0  0  0  0  0  0  0  0  0
    2.4567    0.3589    0.0000 C   0  0  0  0  0  0  0  0  0  0  0  0
   -3.8676    1.6213    0.0000 C   0  0  0  0  0  0  0  0  0  0  0  0
    3.8676    0.3837    0.0000 C   0  0  0  0  0  0  0  0  0  0  0  0
 12  1  1  1  0  0  0
 11  2  1  6  0  0  0
  2 16  1  0  0  0  0
 14  3  1  1  0  0  0
  4 18  1  0  0  0  0
  4 22  1  0  0  0  0
  5 21  1  0  0  0  0
  5 23  1  0  0  0  0
  6 11  1  0  0  0  0
  6 13  1  0  0  0  0
  6 17  1  0  0  0  0
  7 15  1  0  0  0  0
  7 17  2  0  0  0  0
  8 13  1  0  0  0  0
  8 20  2  0  0  0  0
  9 18  2  0  0  0  0
  9 20  1  0  0  0  0
 10 20  1  0  0  0  0
 11 12  1  0  0  0  0
 12 14  1  0  0  0  0
 12 19  1  6  0  0  0
 13 15  1  0  0  0  0
 14 16  1  0  0  0  0
 15 18  1  0  0  0  0
 16 21  1  6  0  0  0
M  END
> <PUBCHEM_COMPOUND_ID_TYPE>
0

> <PUBCHEM_TOTAL_CHARGE>
0

> <PUBCHEM_SUBSTANCE_ID>
310948908

> <PUBCHEM_SUBSTANCE_VERSION>
1

> <PUBCHEM_EXT_DATASOURCE_NAME>
4488

> <PUBCHEM_EXT_DATASOURCE_REGID>
SCHEMBL16127093

> <PUBCHEM_SUBSTANCE_COMMENT>
InChI=1S/C13H20FN5O4/c1-13(14)8(20)6(4-21-2)23-11(13)19-5-16-7-9(19)17-12(15)18-10(7)22-3/h5-9,11,20H,4H2,1-3H3,(H2,15,17)/t6-,7?,8-,9?,11-,13-/m1/s1
InChIKey=HQHNABDCZFAKBE-CUOGAZGOSA-N

> <PUBCHEM_SUBSTANCE_SYNONYM>
SCHEMBL16127093

> <PUBCHEM_XREF_EXT_ID>
SCHEMBL16127093

> <PUBCHEM_EXT_DATASOURCE_URL>
https://www.surechembl.org/

> <PUBCHEM_EXT_SUBSTANCE_URL>
https://www.surechembl.org/chemical/SCHEMBL16127093

> <PUBCHEM_CID_ASSOCIATIONS>
117614426  1

> <PUBCHEM_COORDINATE_TYPE>
1
3

> <PUBCHEM_BONDANNOTATIONS>
12  1  5
12  19  6
16  21  6
11  2  6
14  3  5

$$$$
