310940357
  -OEChem-07211613022D

 15 16  0     0  0  0  0  0  0999 V2000
    2.8835    1.9572    0.0000 F   0  0  0  0  0  0  0  0  0  0  0  0
   -1.4905   -0.6338    0.0000 O   0  0  0  0  0  0  0  0  0  0  0  0
    0.0000    0.2856    0.0000 N   0  0  0  0  0  0  0  0  0  0  0  0
   -0.7243   -0.9542    0.0000 C   0  0  0  0  0  0  0  0  0  0  0  0
    0.7382    0.6895    0.0000 C   0  0  0  0  0  0  0  0  0  0  0  0
   -2.0477   -1.2467    0.0000 C   0  0  0  0  0  0  0  0  0  0  0  0
   -0.0139   -0.5502    0.0000 C   0  0  0  0  0  0  0  0  0  0  0  0
   -0.8219   -1.7900    0.0000 C   0  0  0  0  0  0  0  0  0  0  0  0
   -1.6298   -1.9572    0.0000 C   0  0  0  0  0  0  0  0  0  0  0  0
    1.4487    0.2856    0.0000 C   0  0  0  0  0  0  0  0  0  0  0  0
    0.7243    1.5392    0.0000 C   0  0  0  0  0  0  0  0  0  0  0  0
    2.1730    1.5392    0.0000 C   0  0  0  0  0  0  0  0  0  0  0  0
    2.1591    0.7034    0.0000 C   0  0  0  0  0  0  0  0  0  0  0  0
    1.4348    1.9433    0.0000 C   0  0  0  0  0  0  0  0  0  0  0  0
   -2.8835   -1.1771    0.0000 C   0  0  0  0  0  0  0  0  0  0  0  0
  1 12  1  0  0  0  0
  2  4  1  0  0  0  0
  2  6  1  0  0  0  0
  3  5  1  0  0  0  0
  3  7  2  0  0  0  0
  4  7  1  0  0  0  0
  4  8  2  0  0  0  0
  5 10  2  0  0  0  0
  5 11  1  0  0  0  0
  6  9  2  0  0  0  0
  6 15  1  0  0  0  0
  8  9  1  0  0  0  0
 10 13  1  0  0  0  0
 11 14  2  0  0  0  0
 12 13  2  0  0  0  0
 12 14  1  0  0  0  0
M  END
> <PUBCHEM_COMPOUND_ID_TYPE>
0

> <PUBCHEM_TOTAL_CHARGE>
0

> <PUBCHEM_SUBSTANCE_ID>
310940357

> <PUBCHEM_SUBSTANCE_VERSION>
1

> <PUBCHEM_EXT_DATASOURCE_NAME>
4488

> <PUBCHEM_EXT_DATASOURCE_REGID>
SCHEMBL16118301

> <PUBCHEM_SUBSTANCE_COMMENT>
InChI=1S/C12H10FNO/c1-9-2-7-12(15-9)8-14-11-5-3-10(13)4-6-11/h2-8H,1H3/b14-8+
InChIKey=SNXIYRZZDGZYJW-RIYZIHGNSA-N

> <PUBCHEM_SUBSTANCE_SYNONYM>
SCHEMBL16118301

> <PUBCHEM_XREF_EXT_ID>
SCHEMBL16118301

> <PUBCHEM_EXT_DATASOURCE_URL>
https://www.surechembl.org/

> <PUBCHEM_EXT_SUBSTANCE_URL>
https://www.surechembl.org/chemical/SCHEMBL16118301

> <PUBCHEM_CID_ASSOCIATIONS>
794165  1

> <PUBCHEM_COORDINATE_TYPE>
1
3

> <PUBCHEM_BONDANNOTATIONS>
3  5  3

$$$$
