310929638
  -OEChem-07211613022D

 64 71  0     1  0  0  0  0  0999 V2000
    2.0699  -10.9767    0.0000 S   0  0  0  0  0  0  0  0  0  0  0  0
    5.0807   -2.0699    0.0000 P   0  0  0  0  0  0  0  0  0  0  0  0
    0.6272  -10.1613    0.0000 O   0  0  0  0  0  0  0  0  0  0  0  0
    1.5681   -7.2760    0.0000 O   0  0  0  0  0  0  0  0  0  0  0  0
    3.1362   -5.1434    0.0000 O   0  0  0  0  0  0  0  0  0  0  0  0
    1.2545  -10.9767    0.0000 O   0  0  0  0  0  0  0  0  0  0  0  0
    2.8853  -10.9767    0.0000 O   0  0  0  0  0  0  0  0  0  0  0  0
    5.0807   -2.8853    0.0000 O   0  0  0  0  0  0  0  0  0  0  0  0
    3.7635   -9.4713    0.0000 O   0  0  0  0  0  0  0  0  0  0  0  0
    4.2653   -2.0699    0.0000 O   0  0  0  0  0  0  0  0  0  0  0  0
    5.0807   -1.2545    0.0000 O   0  0  0  0  0  0  0  0  0  0  0  0
    5.9588   -2.0699    0.0000 O   0  0  0  0  0  0  0  0  0  0  0  0
    7.1506   -8.0914    0.0000 O   0  0  0  0  0  0  0  0  0  0  0  0
    6.8369   -9.3459    0.0000 O   0  0  0  0  0  0  0  0  0  0  0  0
    2.1326   -8.5932    0.0000 N   0  0  0  0  0  0  0  0  0  0  0  0
    2.0699  -10.1613    0.0000 N   0  0  0  0  0  0  0  0  0  0  0  0
    3.3871   -8.2169    0.0000 N   0  0  0  0  0  0  0  0  0  0  0  0
    2.9481   -4.1398    0.0000 N   0  0  0  0  0  0  0  0  0  0  0  0
    5.7079   -8.9068    0.0000 N   0  0  0  0  0  0  0  0  0  0  0  0
    1.3799   -8.9068    0.0000 C   0  0  3  0  0  0  0  0  0  0  0  0
    0.5645   -9.1577    0.0000 C   0  0  3  0  0  0  0  0  0  0  0  0
    0.7527   -8.3423    0.0000 C   0  0  0  0  0  0  0  0  0  0  0  0
    1.3799   -9.7850    0.0000 C   0  0  0  0  0  0  0  0  0  0  0  0
    2.1953   -7.7778    0.0000 C   0  0  0  0  0  0  0  0  0  0  0  0
    0.0000   -9.7222    0.0000 C   0  0  0  0  0  0  0  0  0  0  0  0
    2.9481   -7.4642    0.0000 C   0  0  3  0  0  0  0  0  0  0  0  0
    2.0699  -11.7921    0.0000 C   0  0  0  0  0  0  0  0  0  0  0  0
    2.7599   -6.7115    0.0000 C   0  0  0  0  0  0  0  0  0  0  0  0
    2.7599   -5.8961    0.0000 C   0  0  3  0  0  0  0  0  0  0  0  0
    2.4462   -7.2760    0.0000 C   0  0  0  0  0  0  0  0  0  0  0  0
    4.1398   -8.7187    0.0000 C   0  0  0  0  0  0  0  0  0  0  0  0
    3.6380   -4.5161    0.0000 C   0  0  0  0  0  0  0  0  0  0  0  0
    4.3907   -4.0771    0.0000 C   0  0  0  0  0  0  0  0  0  0  0  0
    2.5090  -12.5449    0.0000 C   0  0  0  0  0  0  0  0  0  0  0  0
    1.6308  -12.5449    0.0000 C   0  0  0  0  0  0  0  0  0  0  0  0
    4.3907   -3.3244    0.0000 C   0  0  0  0  0  0  0  0  0  0  0  0
    4.9552   -8.9068    0.0000 C   0  0  3  0  0  0  0  0  0  0  0  0
    3.7007   -2.8853    0.0000 C   0  0  0  0  0  0  0  0  0  0  0  0
    0.2509  -10.5377    0.0000 C   0  0  0  0  0  0  0  0  0  0  0  0
    2.9481   -3.3244    0.0000 C   0  0  0  0  0  0  0  0  0  0  0  0
    4.8298   -9.7222    0.0000 C   0  0  0  0  0  0  0  0  0  0  0  0
    5.2061   -3.9516    0.0000 C   0  0  0  0  0  0  0  0  0  0  0  0
    3.6380   -2.0699    0.0000 C   0  0  0  0  0  0  0  0  0  0  0  0
    2.2581   -2.8853    0.0000 C   0  0  0  0  0  0  0  0  0  0  0  0
    5.3943  -10.2868    0.0000 C   0  0  0  0  0  0  0  0  0  0  0  0
    4.0771  -10.0986    0.0000 C   0  0  0  0  0  0  0  0  0  0  0  0
    3.0108   -1.6308    0.0000 C   0  0  0  0  0  0  0  0  0  0  0  0
    6.4606   -8.5932    0.0000 C   0  0  0  0  0  0  0  0  0  0  0  0
    2.2581   -2.0699    0.0000 C   0  0  0  0  0  0  0  0  0  0  0  0
    5.9588   -4.0771    0.0000 C   0  0  0  0  0  0  0  0  0  0  0  0
    5.0807  -11.0395    0.0000 C   0  0  0  0  0  0  0  0  0  0  0  0
    4.2653  -10.9141    0.0000 C   0  0  0  0  0  0  0  0  0  0  0  0
    7.5269   -7.4014    0.0000 C   0  0  3  0  0  0  0  0  0  0  0  0
    6.5233   -4.7043    0.0000 C   0  0  0  0  0  0  0  0  0  0  0  0
    7.7778   -6.6488    0.0000 C   0  0  3  0  0  0  0  0  0  0  0  0
    5.8334   -0.8154    0.0000 C   0  0  0  0  0  0  0  0  0  0  0  0
    3.8889   -1.3799    0.0000 C   0  0  0  0  0  0  0  0  0  0  0  0
    8.2169   -7.8405    0.0000 C   0  0  0  0  0  0  0  0  0  0  0  0
    7.2760   -5.0179    0.0000 C   0  0  0  0  0  0  0  0  0  0  0  0
    7.5897   -5.8334    0.0000 C   0  0  0  0  0  0  0  0  0  0  0  0
    8.5932   -6.5233    0.0000 C   0  0  0  0  0  0  0  0  0  0  0  0
    8.9068   -7.2760    0.0000 C   0  0  0  0  0  0  0  0  0  0  0  0
    5.8334    0.0000    0.0000 C   0  0  0  0  0  0  0  0  0  0  0  0
    3.0735   -1.3799    0.0000 C   0  0  0  0  0  0  0  0  0  0  0  0
  1  6  2  0  0  0  0
  1  7  2  0  0  0  0
  1 16  1  0  0  0  0
  1 27  1  0  0  0  0
  2  8  1  0  0  0  0
  2 10  1  0  0  0  0
  2 11  1  0  0  0  0
  2 12  2  0  0  0  0
  3 23  2  0  0  0  0
  4 24  2  0  0  0  0
  5 29  1  0  0  0  0
  5 32  1  0  0  0  0
  8 36  1  0  0  0  0
  9 31  2  0  0  0  0
 10 57  1  0  0  0  0
 11 56  1  0  0  0  0
 13 48  1  0  0  0  0
 13 53  1  0  0  0  0
 14 48  2  0  0  0  0
 20 15  1  1  0  0  0
 15 24  1  0  0  0  0
 16 23  1  0  0  0  0
 17 26  1  0  0  0  0
 17 30  1  0  0  0  0
 17 31  1  0  0  0  0
 18 32  1  0  0  0  0
 18 40  2  0  0  0  0
 19 37  1  0  0  0  0
 19 48  1  0  0  0  0
 20 21  1  0  0  0  0
 20 22  1  0  0  0  0
 20 23  1  6  0  0  0
 21 22  1  0  0  0  0
 21 25  1  6  0  0  0
 26 24  1  6  0  0  0
 25 39  2  0  0  0  0
 26 28  1  0  0  0  0
 27 34  1  0  0  0  0
 27 35  1  0  0  0  0
 29 28  1  1  0  0  0
 29 30  1  0  0  0  0
 37 31  1  1  0  0  0
 32 33  2  0  0  0  0
 33 36  1  0  0  0  0
 33 42  1  0  0  0  0
 34 35  1  0  0  0  0
 36 38  2  0  0  0  0
 37 41  1  0  0  0  0
 38 40  1  0  0  0  0
 38 43  1  0  0  0  0
 40 44  1  0  0  0  0
 41 45  1  0  0  0  0
 41 46  1  0  0  0  0
 42 50  1  0  0  0  0
 43 47  2  0  0  0  0
 44 49  2  0  0  0  0
 45 51  1  0  0  0  0
 46 52  1  0  0  0  0
 47 49  1  0  0  0  0
 50 54  2  0  0  0  0
 51 52  1  0  0  0  0
 53 55  1  0  0  0  0
 53 58  1  1  0  0  0
 54 59  1  0  0  0  0
 55 60  1  0  0  0  0
 55 61  1  6  0  0  0
 56 63  1  0  0  0  0
 57 64  1  0  0  0  0
 58 62  1  0  0  0  0
 59 60  1  0  0  0  0
 61 62  1  0  0  0  0
M  END
> <PUBCHEM_COMPOUND_ID_TYPE>
0

> <PUBCHEM_TOTAL_CHARGE>
0

> <PUBCHEM_SUBSTANCE_ID>
310929638

> <PUBCHEM_SUBSTANCE_VERSION>
1

> <PUBCHEM_EXT_DATASOURCE_NAME>
4488

> <PUBCHEM_EXT_DATASOURCE_REGID>
SCHEMBL16106826

> <PUBCHEM_SUBSTANCE_COMMENT>
InChI=1S/C45H60N5O12PS/c1-4-30-26-45(30,43(53)49-64(56,57)32-23-24-32)48-40(51)36-25-31-27-50(36)42(52)38(29-16-10-11-17-29)47-44(54)61-37-22-14-18-28(37)15-8-7-9-20-34-39(62-63(55,58-5-2)59-6-3)33-19-12-13-21-35(33)46-41(34)60-31/h4,7,9,12-13,19,21,28-32,36-38H,1,5-6,8,10-11,14-18,20,22-27H2,2-3H3,(H,47,54)(H,48,51)(H,49,53)/b9-7+/t28-,30-,31-,36+,37-,38+,45-/m1/s1
InChIKey=WWMWDQTXRTXOBJ-ZEGUBIASSA-N

> <PUBCHEM_SUBSTANCE_SYNONYM>
SCHEMBL16106826

> <PUBCHEM_XREF_EXT_ID>
SCHEMBL16106826

> <PUBCHEM_EXT_DATASOURCE_URL>
https://www.surechembl.org/

> <PUBCHEM_EXT_SUBSTANCE_URL>
https://www.surechembl.org/chemical/SCHEMBL16106826

> <PUBCHEM_CID_ASSOCIATIONS>
117598941  1

> <PUBCHEM_COORDINATE_TYPE>
1
3

> <PUBCHEM_BONDANNOTATIONS>
20  15  5
20  23  6
21  25  6
26  24  6
29  28  5
37  31  5
53  58  5
55  61  6

$$$$
