310945123
  -OEChem-07211613022D

 16 16  0     0  0  0  0  0  0999 V2000
   -0.7057   -0.8065    0.0000 O   0  0  0  0  0  0  0  0  0  0  0  0
    2.8503    0.4032    0.0000 O   0  5  0  0  0  0  0  0  0  0  0  0
    2.1904    1.6313    0.0000 O   0  0  0  0  0  0  0  0  0  0  0  0
    2.1537    0.8431    0.0000 N   0  3  0  0  0  0  0  0  0  0  0  0
   -0.7057    0.8615    0.0000 N   0  3  0  0  0  0  0  0  0  0  0  0
   -1.4205    1.2648    0.0000 N   0  0  0  0  0  0  0  0  0  0  0  0
    0.0091    0.4399    0.0000 C   0  0  0  0  0  0  0  0  0  0  0  0
    0.0091   -0.3849    0.0000 C   0  0  0  0  0  0  0  0  0  0  0  0
    1.4389    0.4399    0.0000 C   0  0  0  0  0  0  0  0  0  0  0  0
    0.7424    0.8249    0.0000 C   0  0  0  0  0  0  0  0  0  0  0  0
    0.7424   -0.7882    0.0000 C   0  0  0  0  0  0  0  0  0  0  0  0
    1.4205   -0.3849    0.0000 C   0  0  0  0  0  0  0  0  0  0  0  0
   -1.4389   -0.4032    0.0000 C   0  0  0  0  0  0  0  0  0  0  0  0
   -2.0988   -0.7882    0.0000 C   0  0  0  0  0  0  0  0  0  0  0  0
   -2.8503   -0.3849    0.0000 C   0  0  0  0  0  0  0  0  0  0  0  0
   -2.0988   -1.6313    0.0000 C   0  0  0  0  0  0  0  0  0  0  0  0
  1  8  1  0  0  0  0
  1 13  1  0  0  0  0
  2  4  1  0  0  0  0
  3  4  2  0  0  0  0
  4  9  1  0  0  0  0
  5  6  3  0  0  0  0
  5  7  1  0  0  0  0
  7  8  2  0  0  0  0
  7 10  1  0  0  0  0
  8 11  1  0  0  0  0
  9 10  2  0  0  0  0
  9 12  1  0  0  0  0
 11 12  2  0  0  0  0
 13 14  1  0  0  0  0
 14 15  2  0  0  0  0
 14 16  1  0  0  0  0
M  CHG  3   2  -1   4   1   5   1
M  END
> <PUBCHEM_COMPOUND_ID_TYPE>
0

> <PUBCHEM_TOTAL_CHARGE>
1

> <PUBCHEM_SUBSTANCE_ID>
310945123

> <PUBCHEM_SUBSTANCE_VERSION>
1

> <PUBCHEM_EXT_DATASOURCE_NAME>
4488

> <PUBCHEM_EXT_DATASOURCE_REGID>
SCHEMBL16123213

> <PUBCHEM_SUBSTANCE_COMMENT>
InChI=1S/C10H10N3O3/c1-7(2)6-16-10-4-3-8(13(14)15)5-9(10)12-11/h3-5H,1,6H2,2H3/q+1
InChIKey=NGMODJGQCIQSII-UHFFFAOYSA-N

> <PUBCHEM_SUBSTANCE_SYNONYM>
SCHEMBL16123213

> <PUBCHEM_XREF_EXT_ID>
SCHEMBL16123213

> <PUBCHEM_EXT_DATASOURCE_URL>
https://www.surechembl.org/

> <PUBCHEM_EXT_SUBSTANCE_URL>
https://www.surechembl.org/chemical/SCHEMBL16123213

> <PUBCHEM_CID_ASSOCIATIONS>
117611218  1

> <PUBCHEM_COORDINATE_TYPE>
1
3

$$$$
