310949333
  -OEChem-07211613022D

 30 32  0     0  0  0  0  0  0999 V2000
    3.9764    3.3321    0.0000 F   0  0  0  0  0  0  0  0  0  0  0  0
    2.8264    3.6231    0.0000 F   0  0  0  0  0  0  0  0  0  0  0  0
    3.6439    2.2238    0.0000 F   0  0  0  0  0  0  0  0  0  0  0  0
   -3.1728   -4.1634    0.0000 F   0  0  0  0  0  0  0  0  0  0  0  0
   -2.3553   -3.2767    0.0000 F   0  0  0  0  0  0  0  0  0  0  0  0
   -3.9764   -3.3321    0.0000 F   0  0  0  0  0  0  0  0  0  0  0  0
    2.5354    2.5008    0.0000 O   0  0  0  0  0  0  0  0  0  0  0  0
   -3.2144   -2.4869    0.0000 O   0  0  0  0  0  0  0  0  0  0  0  0
    1.0945    1.6834    0.0000 N   0  0  0  0  0  0  0  0  0  0  0  0
    0.3741    0.4365    0.0000 N   0  0  0  0  0  0  0  0  0  0  0  0
   -0.3464   -0.8106    0.0000 N   0  0  0  0  0  0  0  0  0  0  0  0
   -0.3464    1.6834    0.0000 N   0  0  0  0  0  0  0  0  0  0  0  0
    1.0945    2.5285    0.0000 C   0  0  0  0  0  0  0  0  0  0  0  0
    1.8012    2.9441    0.0000 C   0  0  0  0  0  0  0  0  0  0  0  0
    0.3879    1.2815    0.0000 C   0  0  0  0  0  0  0  0  0  0  0  0
   -0.3325    0.0347    0.0000 C   0  0  0  0  0  0  0  0  0  0  0  0
   -1.0529   -1.2123    0.0000 C   0  0  0  0  0  0  0  0  0  0  0  0
    3.2698    2.9164    0.0000 C   0  0  0  0  0  0  0  0  0  0  0  0
   -2.4938   -2.0436    0.0000 C   0  0  0  0  0  0  0  0  0  0  0  0
    0.3741    2.9441    0.0000 C   0  0  0  0  0  0  0  0  0  0  0  0
    1.8012    3.7617    0.0000 C   0  0  0  0  0  0  0  0  0  0  0  0
   -1.0668    0.4503    0.0000 C   0  0  0  0  0  0  0  0  0  0  0  0
   -1.7873   -0.8106    0.0000 C   0  0  0  0  0  0  0  0  0  0  0  0
   -1.0668   -2.0436    0.0000 C   0  0  0  0  0  0  0  0  0  0  0  0
   -3.1866   -3.3321    0.0000 C   0  0  0  0  0  0  0  0  0  0  0  0
   -2.4938   -1.2123    0.0000 C   0  0  0  0  0  0  0  0  0  0  0  0
   -1.7735   -2.4593    0.0000 C   0  0  0  0  0  0  0  0  0  0  0  0
   -1.0529    1.2677    0.0000 C   0  0  0  0  0  0  0  0  0  0  0  0
    0.3741    3.7617    0.0000 C   0  0  0  0  0  0  0  0  0  0  0  0
    1.0806    4.1634    0.0000 C   0  0  0  0  0  0  0  0  0  0  0  0
  1 18  1  0  0  0  0
  2 18  1  0  0  0  0
  3 18  1  0  0  0  0
  4 25  1  0  0  0  0
  5 25  1  0  0  0  0
  6 25  1  0  0  0  0
  7 14  1  0  0  0  0
  7 18  1  0  0  0  0
  8 19  1  0  0  0  0
  8 25  1  0  0  0  0
  9 13  1  0  0  0  0
  9 15  1  0  0  0  0
 10 15  1  0  0  0  0
 10 16  2  0  0  0  0
 11 16  1  0  0  0  0
 11 17  1  0  0  0  0
 12 15  2  0  0  0  0
 12 28  1  0  0  0  0
 13 14  2  0  0  0  0
 13 20  1  0  0  0  0
 14 21  1  0  0  0  0
 16 22  1  0  0  0  0
 17 23  2  0  0  0  0
 17 24  1  0  0  0  0
 19 26  2  0  0  0  0
 19 27  1  0  0  0  0
 20 29  2  0  0  0  0
 21 30  2  0  0  0  0
 22 28  2  0  0  0  0
 23 26  1  0  0  0  0
 24 27  2  0  0  0  0
 29 30  1  0  0  0  0
M  END
> <PUBCHEM_COMPOUND_ID_TYPE>
0

> <PUBCHEM_TOTAL_CHARGE>
0

> <PUBCHEM_SUBSTANCE_ID>
310949333

> <PUBCHEM_SUBSTANCE_VERSION>
1

> <PUBCHEM_EXT_DATASOURCE_NAME>
4488

> <PUBCHEM_EXT_DATASOURCE_REGID>
SCHEMBL16127523

> <PUBCHEM_SUBSTANCE_COMMENT>
InChI=1S/C18H12F6N4O2/c19-17(20,21)29-12-7-5-11(6-8-12)26-15-9-10-25-16(28-15)27-13-3-1-2-4-14(13)30-18(22,23)24/h1-10H,(H2,25,26,27,28)
InChIKey=BHNLFTZZFDRVKH-UHFFFAOYSA-N

> <PUBCHEM_SUBSTANCE_SYNONYM>
SCHEMBL16127523

> <PUBCHEM_XREF_EXT_ID>
SCHEMBL16127523

> <PUBCHEM_EXT_DATASOURCE_URL>
https://www.surechembl.org/

> <PUBCHEM_EXT_SUBSTANCE_URL>
https://www.surechembl.org/chemical/SCHEMBL16127523

> <PUBCHEM_CID_ASSOCIATIONS>
86267863  1

> <PUBCHEM_COORDINATE_TYPE>
1
3

$$$$
