310933736
  -OEChem-07211613022D

 14 15  0     0  0  0  0  0  0999 V2000
    0.0000   -1.8676    0.0000 O   0  0  0  0  0  0  0  0  0  0  0  0
    0.7314   -3.1126    0.0000 O   0  0  0  0  0  0  0  0  0  0  0  0
    3.6417   -0.7937    0.0000 N   0  0  0  0  0  0  0  0  0  0  0  0
    1.4318   -1.8831    0.0000 N   0  0  0  0  0  0  0  0  0  0  0  0
    4.1398   -1.4473    0.0000 N   0  0  0  0  0  0  0  0  0  0  0  0
    2.8636   -1.8831    0.0000 C   0  0  0  0  0  0  0  0  0  0  0  0
    2.8636   -1.0116    0.0000 C   0  0  0  0  0  0  0  0  0  0  0  0
    3.6417   -2.1166    0.0000 C   0  0  0  0  0  0  0  0  0  0  0  0
    2.1321   -2.2722    0.0000 C   0  0  0  0  0  0  0  0  0  0  0  0
    2.1321   -0.6225    0.0000 C   0  0  0  0  0  0  0  0  0  0  0  0
    1.4318   -1.0116    0.0000 C   0  0  0  0  0  0  0  0  0  0  0  0
    0.7159   -2.2877    0.0000 C   0  0  0  0  0  0  0  0  0  0  0  0
    3.9063   -2.8947    0.0000 C   0  0  0  0  0  0  0  0  0  0  0  0
    3.9063    0.0000    0.0000 C   0  0  0  0  0  0  0  0  0  0  0  0
  1 12  2  0  0  0  0
  2 12  1  0  0  0  0
  3  5  1  0  0  0  0
  3  7  1  0  0  0  0
  3 14  1  0  0  0  0
  4  9  1  0  0  0  0
  4 11  1  0  0  0  0
  4 12  1  0  0  0  0
  5  8  2  0  0  0  0
  6  7  2  0  0  0  0
  6  8  1  0  0  0  0
  6  9  1  0  0  0  0
  7 10  1  0  0  0  0
  8 13  1  0  0  0  0
 10 11  1  0  0  0  0
M  END
> <PUBCHEM_COMPOUND_ID_TYPE>
0

> <PUBCHEM_TOTAL_CHARGE>
0

> <PUBCHEM_SUBSTANCE_ID>
310933736

> <PUBCHEM_SUBSTANCE_VERSION>
1

> <PUBCHEM_EXT_DATASOURCE_NAME>
4488

> <PUBCHEM_EXT_DATASOURCE_REGID>
SCHEMBL16111171

> <PUBCHEM_SUBSTANCE_COMMENT>
InChI=1S/C9H13N3O2/c1-6-7-5-12(9(13)14)4-3-8(7)11(2)10-6/h3-5H2,1-2H3,(H,13,14)
InChIKey=FYWXQZBEEFLQIC-UHFFFAOYSA-N

> <PUBCHEM_SUBSTANCE_SYNONYM>
SCHEMBL16111171

> <PUBCHEM_XREF_EXT_ID>
SCHEMBL16111171

> <PUBCHEM_EXT_DATASOURCE_URL>
https://www.surechembl.org/

> <PUBCHEM_EXT_SUBSTANCE_URL>
https://www.surechembl.org/chemical/SCHEMBL16111171

> <PUBCHEM_CID_ASSOCIATIONS>
117602097  1

> <PUBCHEM_COORDINATE_TYPE>
1
3

$$$$
