310935837
  -OEChem-07211613022D

 24 26  0     0  0  0  0  0  0999 V2000
    2.4673    0.0000    0.0000 Br  0  0  0  0  0  0  0  0  0  0  0  0
    6.9604   -3.5841    0.0000 S   0  0  0  0  0  0  0  0  0  0  0  0
    6.9604   -2.6751    0.0000 O   0  0  0  0  0  0  0  0  0  0  0  0
    6.9604   -4.3892    0.0000 O   0  0  0  0  0  0  0  0  0  0  0  0
    3.2724   -2.8569    0.0000 N   0  0  0  0  0  0  0  0  0  0  0  0
    2.0258   -3.5841    0.0000 N   0  0  0  0  0  0  0  0  0  0  0  0
    0.8051   -2.8569    0.0000 N   0  0  0  0  0  0  0  0  0  0  0  0
    6.1553   -3.5841    0.0000 N   0  0  0  0  0  0  0  0  0  0  0  0
    2.0518   -2.1297    0.0000 C   0  0  0  0  0  0  0  0  0  0  0  0
    2.4414   -2.8569    0.0000 C   0  0  0  0  0  0  0  0  0  0  0  0
    1.2207   -2.1297    0.0000 C   0  0  0  0  0  0  0  0  0  0  0  0
    0.8051   -1.4284    0.0000 C   0  0  0  0  0  0  0  0  0  0  0  0
    2.4673   -1.4544    0.0000 C   0  0  0  0  0  0  0  0  0  0  0  0
    2.0518   -0.7272    0.0000 C   0  0  0  0  0  0  0  0  0  0  0  0
    1.2207   -0.7272    0.0000 C   0  0  0  0  0  0  0  0  0  0  0  0
    1.2207   -3.5841    0.0000 C   0  0  0  0  0  0  0  0  0  0  0  0
    3.6880   -2.1297    0.0000 C   0  0  0  0  0  0  0  0  0  0  0  0
    3.6880   -3.5581    0.0000 C   0  0  0  0  0  0  0  0  0  0  0  0
    4.9346   -2.8569    0.0000 C   0  0  0  0  0  0  0  0  0  0  0  0
    4.5191   -2.1556    0.0000 C   0  0  0  0  0  0  0  0  0  0  0  0
    4.5191   -3.5841    0.0000 C   0  0  0  0  0  0  0  0  0  0  0  0
    0.0000   -1.4284    0.0000 C   0  0  0  0  0  0  0  0  0  0  0  0
    5.7398   -2.8829    0.0000 C   0  0  0  0  0  0  0  0  0  0  0  0
    7.7915   -3.5841    0.0000 C   0  0  0  0  0  0  0  0  0  0  0  0
  1 14  1  0  0  0  0
  2  3  2  0  0  0  0
  2  4  2  0  0  0  0
  2  8  1  0  0  0  0
  2 24  1  0  0  0  0
  5 10  1  0  0  0  0
  5 17  1  0  0  0  0
  5 18  1  0  0  0  0
  6 10  1  0  0  0  0
  6 16  2  0  0  0  0
  7 11  2  0  0  0  0
  7 16  1  0  0  0  0
  8 23  1  0  0  0  0
  9 10  2  0  0  0  0
  9 11  1  0  0  0  0
  9 13  1  0  0  0  0
 11 12  1  0  0  0  0
 12 15  2  0  0  0  0
 12 22  1  0  0  0  0
 13 14  2  0  0  0  0
 14 15  1  0  0  0  0
 17 20  1  0  0  0  0
 18 21  1  0  0  0  0
 19 20  1  0  0  0  0
 19 21  1  0  0  0  0
 19 23  1  0  0  0  0
M  END
> <PUBCHEM_COMPOUND_ID_TYPE>
0

> <PUBCHEM_TOTAL_CHARGE>
0

> <PUBCHEM_SUBSTANCE_ID>
310935837

> <PUBCHEM_SUBSTANCE_VERSION>
1

> <PUBCHEM_EXT_DATASOURCE_NAME>
4488

> <PUBCHEM_EXT_DATASOURCE_REGID>
SCHEMBL16113428

> <PUBCHEM_SUBSTANCE_COMMENT>
InChI=1S/C16H21BrN4O2S/c1-11-7-13(17)8-14-15(11)18-10-19-16(14)21-5-3-12(4-6-21)9-20-24(2,22)23/h7-8,10,12,20H,3-6,9H2,1-2H3
InChIKey=QLFOOIOXJGISJL-UHFFFAOYSA-N

> <PUBCHEM_SUBSTANCE_SYNONYM>
SCHEMBL16113428

> <PUBCHEM_XREF_EXT_ID>
SCHEMBL16113428

> <PUBCHEM_EXT_DATASOURCE_URL>
https://www.surechembl.org/

> <PUBCHEM_EXT_SUBSTANCE_URL>
https://www.surechembl.org/chemical/SCHEMBL16113428

> <PUBCHEM_CID_ASSOCIATIONS>
117603826  1

> <PUBCHEM_COORDINATE_TYPE>
1
3

$$$$
