310948409
  -OEChem-07211613022D

 31 34  0     1  0  0  0  0  0999 V2000
    2.8380   -3.7840    0.0000 F   0  0  0  0  0  0  0  0  0  0  0  0
    3.3523   -2.7186    0.0000 F   0  0  0  0  0  0  0  0  0  0  0  0
    1.8460   -3.2145    0.0000 F   0  0  0  0  0  0  0  0  0  0  0  0
   -2.6360   -1.6899    0.0000 O   0  0  0  0  0  0  0  0  0  0  0  0
    2.3237   -2.2043    0.0000 O   0  0  0  0  0  0  0  0  0  0  0  0
   -0.1561    3.7840    0.0000 O   0  0  0  0  0  0  0  0  0  0  0  0
   -1.1480    0.6429    0.0000 N   0  0  0  0  0  0  0  0  0  0  0  0
   -0.6521   -0.0368    0.0000 N   0  0  0  0  0  0  0  0  0  0  0  0
   -0.8909   -1.4695    0.0000 N   0  0  0  0  0  0  0  0  0  0  0  0
   -3.3523   -0.4409    0.0000 N   0  0  0  0  0  0  0  0  0  0  0  0
    1.0011    0.3674    0.0000 N   0  0  0  0  0  0  0  0  0  0  0  0
   -1.9379   -0.4409    0.0000 C   0  0  0  0  0  0  0  0  0  0  0  0
   -1.9196    0.3857    0.0000 C   0  0  0  0  0  0  0  0  0  0  0  0
   -1.1480   -0.6980    0.0000 C   0  0  0  0  0  0  0  0  0  0  0  0
   -0.8909    1.4327    0.0000 C   0  0  3  0  0  0  0  0  0  0  0  0
   -2.6360   -0.8266    0.0000 C   0  0  0  0  0  0  0  0  0  0  0  0
   -2.6543    0.7898    0.0000 C   0  0  0  0  0  0  0  0  0  0  0  0
   -0.0827    1.5981    0.0000 C   0  0  3  0  0  0  0  0  0  0  0  0
   -1.4236    2.0206    0.0000 C   0  0  0  0  0  0  0  0  0  0  0  0
   -0.0827   -1.6532    0.0000 C   0  0  0  0  0  0  0  0  0  0  0  0
   -3.3340    0.3857    0.0000 C   0  0  0  0  0  0  0  0  0  0  0  0
    0.1561    2.3879    0.0000 C   0  0  0  0  0  0  0  0  0  0  0  0
   -0.3765    2.9758    0.0000 C   0  0  3  0  0  0  0  0  0  0  0  0
   -1.1848    2.8104    0.0000 C   0  0  0  0  0  0  0  0  0  0  0  0
    0.4684    0.9735    0.0000 C   0  0  0  0  0  0  0  0  0  0  0  0
    0.1745   -2.4247    0.0000 C   0  0  0  0  0  0  0  0  0  0  0  0
    0.4868   -1.0470    0.0000 C   0  0  0  0  0  0  0  0  0  0  0  0
    1.5154   -1.9838    0.0000 C   0  0  0  0  0  0  0  0  0  0  0  0
    0.9827   -2.5901    0.0000 C   0  0  0  0  0  0  0  0  0  0  0  0
    1.2583   -1.2124    0.0000 C   0  0  0  0  0  0  0  0  0  0  0  0
    2.5808   -2.9941    0.0000 C   0  0  0  0  0  0  0  0  0  0  0  0
  1 31  1  0  0  0  0
  2 31  1  0  0  0  0
  3 31  1  0  0  0  0
  4 16  2  0  0  0  0
  5 28  1  0  0  0  0
  5 31  1  0  0  0  0
 23  6  1  1  0  0  0
  7  8  1  0  0  0  0
  7 13  1  0  0  0  0
 15  7  1  1  0  0  0
  8 14  2  0  0  0  0
  9 14  1  0  0  0  0
  9 20  1  0  0  0  0
 10 16  1  0  0  0  0
 10 21  1  0  0  0  0
 11 25  3  0  0  0  0
 12 13  2  0  0  0  0
 12 14  1  0  0  0  0
 12 16  1  0  0  0  0
 13 17  1  0  0  0  0
 15 18  1  0  0  0  0
 15 19  1  0  0  0  0
 17 21  2  0  0  0  0
 18 22  1  0  0  0  0
 18 25  1  6  0  0  0
 19 24  1  0  0  0  0
 20 26  2  0  0  0  0
 20 27  1  0  0  0  0
 22 23  1  0  0  0  0
 23 24  1  0  0  0  0
 26 29  1  0  0  0  0
 27 30  2  0  0  0  0
 28 29  2  0  0  0  0
 28 30  1  0  0  0  0
M  END
> <PUBCHEM_COMPOUND_ID_TYPE>
0

> <PUBCHEM_TOTAL_CHARGE>
0

> <PUBCHEM_SUBSTANCE_ID>
310948409

> <PUBCHEM_SUBSTANCE_VERSION>
1

> <PUBCHEM_EXT_DATASOURCE_NAME>
4488

> <PUBCHEM_EXT_DATASOURCE_REGID>
SCHEMBL16126590

> <PUBCHEM_SUBSTANCE_COMMENT>
InChI=1S/C20H18F3N5O3/c21-20(22,23)31-14-4-1-12(2-5-14)26-18-17-16(7-8-25-19(17)30)28(27-18)15-6-3-13(29)9-11(15)10-24/h1-2,4-5,7-8,11,13,15,29H,3,6,9H2,(H,25,30)(H,26,27)/t11-,13-,15+/m1/s1
InChIKey=PHZBQBQCTLXVFU-KYOSRNDESA-N

> <PUBCHEM_SUBSTANCE_SYNONYM>
SCHEMBL16126590

> <PUBCHEM_XREF_EXT_ID>
SCHEMBL16126590

> <PUBCHEM_EXT_DATASOURCE_URL>
https://www.surechembl.org/

> <PUBCHEM_EXT_SUBSTANCE_URL>
https://www.surechembl.org/chemical/SCHEMBL16126590

> <PUBCHEM_CID_ASSOCIATIONS>
117613970  1

> <PUBCHEM_COORDINATE_TYPE>
1
3

> <PUBCHEM_BONDANNOTATIONS>
18  25  6
23  6  5
15  7  5

$$$$
