310934966
  -OEChem-07211613022D

 16 18  0     0  0  0  0  0  0999 V2000
    5.8665   -0.7431    0.0000 O   0  0  0  0  0  0  0  0  0  0  0  0
    1.3102   -1.4470    0.0000 N   0  0  0  0  0  0  0  0  0  0  0  0
    1.3102    0.0000    0.0000 N   0  0  0  0  0  0  0  0  0  0  0  0
    0.7626   -2.0337    0.0000 N   0  0  0  0  0  0  0  0  0  0  0  0
    3.8132   -1.4470    0.0000 N   0  0  0  0  0  0  0  0  0  0  0  0
    2.5421   -0.7431    0.0000 C   0  0  0  0  0  0  0  0  0  0  0  0
    0.8995   -0.7039    0.0000 C   0  0  0  0  0  0  0  0  0  0  0  0
    3.3635   -0.7431    0.0000 C   0  0  0  0  0  0  0  0  0  0  0  0
    2.1510   -1.4275    0.0000 C   0  0  0  0  0  0  0  0  0  0  0  0
    2.1119    0.0000    0.0000 C   0  0  0  0  0  0  0  0  0  0  0  0
    0.0978   -0.8995    0.0000 C   0  0  0  0  0  0  0  0  0  0  0  0
    0.0000   -1.7208    0.0000 C   0  0  0  0  0  0  0  0  0  0  0  0
    3.8132   -0.0391    0.0000 C   0  0  0  0  0  0  0  0  0  0  0  0
    5.0452   -0.7431    0.0000 C   0  0  0  0  0  0  0  0  0  0  0  0
    4.6150   -1.4470    0.0000 C   0  0  0  0  0  0  0  0  0  0  0  0
    4.6150   -0.0391    0.0000 C   0  0  0  0  0  0  0  0  0  0  0  0
  1 14  1  0  0  0  0
  2  4  1  0  0  0  0
  2  7  1  0  0  0  0
  2  9  1  0  0  0  0
  3  7  1  0  0  0  0
  3 10  2  0  0  0  0
  4 12  2  0  0  0  0
  5  8  2  0  0  0  0
  5 15  1  0  0  0  0
  6  8  1  0  0  0  0
  6  9  2  0  0  0  0
  6 10  1  0  0  0  0
  7 11  2  0  0  0  0
  8 13  1  0  0  0  0
 11 12  1  0  0  0  0
 13 16  2  0  0  0  0
 14 15  2  0  0  0  0
 14 16  1  0  0  0  0
M  END
> <PUBCHEM_COMPOUND_ID_TYPE>
0

> <PUBCHEM_TOTAL_CHARGE>
0

> <PUBCHEM_SUBSTANCE_ID>
310934966

> <PUBCHEM_SUBSTANCE_VERSION>
1

> <PUBCHEM_EXT_DATASOURCE_NAME>
4488

> <PUBCHEM_EXT_DATASOURCE_REGID>
SCHEMBL16112482

> <PUBCHEM_SUBSTANCE_COMMENT>
InChI=1S/C11H8N4O/c16-9-1-2-10(12-6-9)8-5-13-11-3-4-14-15(11)7-8/h1-7,16H
InChIKey=OQHNWIZTIAAAQM-UHFFFAOYSA-N

> <PUBCHEM_SUBSTANCE_SYNONYM>
SCHEMBL16112482

> <PUBCHEM_XREF_EXT_ID>
SCHEMBL16112482

> <PUBCHEM_EXT_DATASOURCE_URL>
https://www.surechembl.org/

> <PUBCHEM_EXT_SUBSTANCE_URL>
https://www.surechembl.org/chemical/SCHEMBL16112482

> <PUBCHEM_CID_ASSOCIATIONS>
117603086  1

> <PUBCHEM_COORDINATE_TYPE>
1
3

$$$$
