310949756
  -OEChem-07211613022D

 24 25  0     0  0  0  0  0  0999 V2000
   -2.3265    1.2068    0.0000 S   0  0  0  0  0  0  0  0  0  0  0  0
   -1.4683   -2.0247    0.0000 O   0  0  0  0  0  0  0  0  0  0  0  0
   -1.5219    1.4213    0.0000 O   0  0  0  0  0  0  0  0  0  0  0  0
   -3.1310    0.9923    0.0000 O   0  0  0  0  0  0  0  0  0  0  0  0
    4.0697   -0.5230    0.0000 O   0  0  0  0  0  0  0  0  0  0  0  0
   -2.1119    0.4023    0.0000 N   0  0  0  0  0  0  0  0  0  0  0  0
   -1.1063   -0.6303    0.0000 N   0  0  0  0  0  0  0  0  0  0  0  0
   -2.4874   -0.9923    0.0000 C   0  0  0  0  0  0  0  0  0  0  0  0
   -2.7154   -0.2011    0.0000 C   0  0  0  0  0  0  0  0  0  0  0  0
   -1.6962   -1.2068    0.0000 C   0  0  0  0  0  0  0  0  0  0  0  0
   -3.0640   -1.5823    0.0000 C   0  0  0  0  0  0  0  0  0  0  0  0
   -3.5064    0.0134    0.0000 C   0  0  0  0  0  0  0  0  0  0  0  0
   -0.3017   -0.8448    0.0000 C   0  0  0  0  0  0  0  0  0  0  0  0
   -3.8685   -1.3811    0.0000 C   0  0  0  0  0  0  0  0  0  0  0  0
   -4.0697   -0.5497    0.0000 C   0  0  0  0  0  0  0  0  0  0  0  0
    0.2749   -0.2682    0.0000 C   0  0  0  0  0  0  0  0  0  0  0  0
   -0.0872   -1.6359    0.0000 C   0  0  0  0  0  0  0  0  0  0  0  0
    1.2939   -1.2739    0.0000 C   0  0  0  0  0  0  0  0  0  0  0  0
    1.0794   -0.4693    0.0000 C   0  0  0  0  0  0  0  0  0  0  0  0
    0.7174   -1.8638    0.0000 C   0  0  0  0  0  0  0  0  0  0  0  0
   -2.5276    2.0247    0.0000 C   0  0  0  0  0  0  0  0  0  0  0  0
    2.1119   -1.4884    0.0000 C   0  0  0  0  0  0  0  0  0  0  0  0
    2.6885   -0.9118    0.0000 C   0  0  0  0  0  0  0  0  0  0  0  0
    3.4931   -1.1129    0.0000 C   0  0  0  0  0  0  0  0  0  0  0  0
  1  3  2  0  0  0  0
  1  4  2  0  0  0  0
  1  6  1  0  0  0  0
  1 21  1  0  0  0  0
  2 10  2  0  0  0  0
  5 24  1  0  0  0  0
  6  9  1  0  0  0  0
  7 10  1  0  0  0  0
  7 13  1  0  0  0  0
  8  9  2  0  0  0  0
  8 10  1  0  0  0  0
  8 11  1  0  0  0  0
  9 12  1  0  0  0  0
 11 14  2  0  0  0  0
 12 15  2  0  0  0  0
 13 16  2  0  0  0  0
 13 17  1  0  0  0  0
 14 15  1  0  0  0  0
 16 19  1  0  0  0  0
 17 20  2  0  0  0  0
 18 19  2  0  0  0  0
 18 20  1  0  0  0  0
 18 22  1  0  0  0  0
 22 23  1  0  0  0  0
 23 24  1  0  0  0  0
M  END
> <PUBCHEM_COMPOUND_ID_TYPE>
0

> <PUBCHEM_TOTAL_CHARGE>
0

> <PUBCHEM_SUBSTANCE_ID>
310949756

> <PUBCHEM_SUBSTANCE_VERSION>
1

> <PUBCHEM_EXT_DATASOURCE_NAME>
4488

> <PUBCHEM_EXT_DATASOURCE_REGID>
SCHEMBL16127954

> <PUBCHEM_SUBSTANCE_COMMENT>
InChI=1S/C17H20N2O4S/c1-24(22,23)19-16-7-3-2-6-15(16)17(21)18-14-10-8-13(9-11-14)5-4-12-20/h2-3,6-11,19-20H,4-5,12H2,1H3,(H,18,21)
InChIKey=MRSGLRVPUNRMOS-UHFFFAOYSA-N

> <PUBCHEM_SUBSTANCE_SYNONYM>
SCHEMBL16127954

> <PUBCHEM_XREF_EXT_ID>
SCHEMBL16127954

> <PUBCHEM_EXT_DATASOURCE_URL>
https://www.surechembl.org/

> <PUBCHEM_EXT_SUBSTANCE_URL>
https://www.surechembl.org/chemical/SCHEMBL16127954

> <PUBCHEM_CID_ASSOCIATIONS>
117615083  1

> <PUBCHEM_COORDINATE_TYPE>
1
3

$$$$
