310945168
  -OEChem-07211613022D

 34 37  0     1  0  0  0  0  0999 V2000
    0.4195    2.1604    0.0000 O   0  0  0  0  0  0  0  0  0  0  0  0
    2.0975    2.1604    0.0000 O   0  0  0  0  0  0  0  0  0  0  0  0
   -5.2717   -0.8041    0.0000 O   0  0  0  0  0  0  0  0  0  0  0  0
    0.1119    0.2028    0.0000 N   0  0  0  0  0  0  0  0  0  0  0  0
    2.3912    0.2028    0.0000 N   0  0  0  0  0  0  0  0  0  0  0  0
   -2.7827    0.2028    0.0000 N   0  0  0  0  0  0  0  0  0  0  0  0
   -2.0556    1.4473    0.0000 N   0  0  0  0  0  0  0  0  0  0  0  0
   -3.8874   -0.4265    0.0000 N   0  0  0  0  0  0  0  0  0  0  0  0
    0.8390    0.6223    0.0000 C   0  0  0  0  0  0  0  0  0  0  0  0
    1.6640    0.6223    0.0000 C   0  0  0  0  0  0  0  0  0  0  0  0
    0.8530    1.4053    0.0000 C   0  0  0  0  0  0  0  0  0  0  0  0
    1.6361    1.4193    0.0000 C   0  0  0  0  0  0  0  0  0  0  0  0
   -0.6292    0.6223    0.0000 C   0  0  0  0  0  0  0  0  0  0  0  0
    3.1183    0.6223    0.0000 C   0  0  3  0  0  0  0  0  0  0  0  0
   -1.3144    0.2167    0.0000 C   0  0  0  0  0  0  0  0  0  0  0  0
   -2.0556    0.6223    0.0000 C   0  0  0  0  0  0  0  0  0  0  0  0
    3.8455    0.2028    0.0000 C   0  0  0  0  0  0  0  0  0  0  0  0
   -0.6153    1.4333    0.0000 C   0  0  0  0  0  0  0  0  0  0  0  0
   -3.3840    0.8041    0.0000 C   0  0  3  0  0  0  0  0  0  0  0  0
   -4.0832    0.3846    0.0000 C   0  0  3  0  0  0  0  0  0  0  0  0
   -1.3564    1.8528    0.0000 C   0  0  0  0  0  0  0  0  0  0  0  0
    3.1183    1.4333    0.0000 C   0  0  0  0  0  0  0  0  0  0  0  0
    3.8455   -0.6223    0.0000 C   0  0  0  0  0  0  0  0  0  0  0  0
    4.5726    0.6083    0.0000 C   0  0  0  0  0  0  0  0  0  0  0  0
   -3.3840    1.6151    0.0000 C   0  0  0  0  0  0  0  0  0  0  0  0
   -4.8103    0.7900    0.0000 C   0  0  0  0  0  0  0  0  0  0  0  0
   -4.0971    2.0206    0.0000 C   0  0  0  0  0  0  0  0  0  0  0  0
    4.5726   -1.0278    0.0000 C   0  0  0  0  0  0  0  0  0  0  0  0
    5.2717    0.2028    0.0000 C   0  0  0  0  0  0  0  0  0  0  0  0
   -4.8103    1.6011    0.0000 C   0  0  0  0  0  0  0  0  0  0  0  0
   -4.4607   -1.0278    0.0000 C   0  0  0  0  0  0  0  0  0  0  0  0
    5.2717   -0.6223    0.0000 C   0  0  0  0  0  0  0  0  0  0  0  0
   -4.2650   -1.8248    0.0000 C   0  0  0  0  0  0  0  0  0  0  0  0
   -5.0201   -2.1604    0.0000 C   0  0  0  0  0  0  0  0  0  0  0  0
  1 11  2  0  0  0  0
  2 12  2  0  0  0  0
  3 31  2  0  0  0  0
  4  9  1  0  0  0  0
  4 13  1  0  0  0  0
  5 10  1  0  0  0  0
  5 14  1  0  0  0  0
  6 16  1  0  0  0  0
  6 19  1  0  0  0  0
  7 16  2  0  0  0  0
  7 21  1  0  0  0  0
  8 20  1  0  0  0  0
  8 31  1  0  0  0  0
  9 10  2  0  0  0  0
  9 11  1  0  0  0  0
 10 12  1  0  0  0  0
 11 12  1  0  0  0  0
 13 15  2  0  0  0  0
 13 18  1  0  0  0  0
 14 17  1  0  0  0  0
 14 22  1  6  0  0  0
 15 16  1  0  0  0  0
 17 23  2  0  0  0  0
 17 24  1  0  0  0  0
 18 21  2  0  0  0  0
 19 20  1  0  0  0  0
 19 25  1  0  0  0  0
 20 26  1  0  0  0  0
 23 28  1  0  0  0  0
 24 29  2  0  0  0  0
 25 27  1  0  0  0  0
 26 30  1  0  0  0  0
 27 30  1  0  0  0  0
 28 32  2  0  0  0  0
 29 32  1  0  0  0  0
 31 33  1  0  0  0  0
 33 34  2  0  0  0  0
M  END
> <PUBCHEM_COMPOUND_ID_TYPE>
0

> <PUBCHEM_TOTAL_CHARGE>
0

> <PUBCHEM_SUBSTANCE_ID>
310945168

> <PUBCHEM_SUBSTANCE_VERSION>
1

> <PUBCHEM_EXT_DATASOURCE_NAME>
4488

> <PUBCHEM_EXT_DATASOURCE_REGID>
SCHEMBL16123258

> <PUBCHEM_SUBSTANCE_COMMENT>
InChI=1S/C26H29N5O3/c1-3-22(32)31-20-12-8-7-11-19(20)30-21-15-18(13-14-27-21)29-24-23(25(33)26(24)34)28-16(2)17-9-5-4-6-10-17/h3-6,9-10,13-16,19-20,28H,1,7-8,11-12H2,2H3,(H,31,32)(H2,27,29,30)/t16-,19?,20?/m1/s1
InChIKey=FGAGUMLXZLIKOT-PBPGXSGUSA-N

> <PUBCHEM_SUBSTANCE_SYNONYM>
SCHEMBL16123258

> <PUBCHEM_XREF_EXT_ID>
SCHEMBL16123258

> <PUBCHEM_EXT_DATASOURCE_URL>
https://www.surechembl.org/

> <PUBCHEM_EXT_SUBSTANCE_URL>
https://www.surechembl.org/chemical/SCHEMBL16123258

> <PUBCHEM_CID_ASSOCIATIONS>
117611254  1

> <PUBCHEM_COORDINATE_TYPE>
1
3

> <PUBCHEM_BONDANNOTATIONS>
14  22  6

$$$$
