310947628
  -OEChem-07211613022D

 45 49  0     1  0  0  0  0  0999 V2000
   -4.4374   -2.3085    0.0000 Cl  0  0  0  0  0  0  0  0  0  0  0  0
    0.8432   -3.5526    0.0000 Cl  0  0  0  0  0  0  0  0  0  0  0  0
   -2.7370    1.8662    0.0000 S   0  0  0  0  0  0  0  0  0  0  0  0
   -4.1609   -0.6359    0.0000 F   0  0  0  0  0  0  0  0  0  0  0  0
    0.1382   -0.6359    0.0000 O   0  0  0  0  0  0  0  0  0  0  0  0
   -0.5806    1.4515    0.0000 O   0  0  0  0  0  0  0  0  0  0  0  0
   -3.3177    1.2718    0.0000 O   0  0  0  0  0  0  0  0  0  0  0  0
   -3.4420    2.2809    0.0000 O   0  0  0  0  0  0  0  0  0  0  0  0
    4.4374   -0.6359    0.0000 O   0  0  0  0  0  0  0  0  0  0  0  0
    3.7324   -1.8800    0.0000 O   0  0  0  0  0  0  0  0  0  0  0  0
   -1.2994    0.2073    0.0000 N   0  0  0  0  0  0  0  0  0  0  0  0
    2.2947    0.6220    0.0000 N   0  0  0  0  0  0  0  0  0  0  0  0
   -1.2994   -0.6220    0.0000 C   0  0  3  0  0  0  0  0  0  0  0  0
    0.1244    0.2212    0.0000 C   0  0  3  0  0  0  0  0  0  0  0  0
   -0.5806    0.5944    0.0000 C   0  0  0  0  0  0  0  0  0  0  0  0
   -0.5668   -1.0368    0.0000 C   0  0  3  0  0  0  0  0  0  0  0  0
   -2.0183    0.6359    0.0000 C   0  0  3  0  0  0  0  0  0  0  0  0
   -2.0183   -1.0506    0.0000 C   0  0  0  0  0  0  0  0  0  0  0  0
   -2.7785    0.1659    0.0000 C   0  0  0  0  0  0  0  0  0  0  0  0
   -0.5944   -1.8938    0.0000 C   0  0  0  0  0  0  0  0  0  0  0  0
   -2.0183    1.4515    0.0000 C   0  0  0  0  0  0  0  0  0  0  0  0
    0.8432    0.6083    0.0000 C   0  0  0  0  0  0  0  0  0  0  0  0
   -3.5388    0.1935    0.0000 C   0  0  0  0  0  0  0  0  0  0  0  0
   -3.1380   -0.4977    0.0000 C   0  0  0  0  0  0  0  0  0  0  0  0
    0.3594    1.0091    0.0000 C   0  0  0  0  0  0  0  0  0  0  0  0
   -2.7370   -0.6359    0.0000 C   0  0  0  0  0  0  0  0  0  0  0  0
   -2.0183   -1.8662    0.0000 C   0  0  0  0  0  0  0  0  0  0  0  0
   -2.7370    2.7233    0.0000 C   0  0  0  0  0  0  0  0  0  0  0  0
    1.5759    0.2073    0.0000 C   0  0  0  0  0  0  0  0  0  0  0  0
    0.1244   -2.2947    0.0000 C   0  0  0  0  0  0  0  0  0  0  0  0
   -1.2856   -2.2947    0.0000 C   0  0  0  0  0  0  0  0  0  0  0  0
   -3.4420   -1.0506    0.0000 C   0  0  0  0  0  0  0  0  0  0  0  0
   -3.4559   -1.8662    0.0000 C   0  0  0  0  0  0  0  0  0  0  0  0
   -2.7233   -2.2947    0.0000 C   0  0  0  0  0  0  0  0  0  0  0  0
    0.1244   -3.1103    0.0000 C   0  0  0  0  0  0  0  0  0  0  0  0
    1.5759   -0.6220    0.0000 C   0  0  0  0  0  0  0  0  0  0  0  0
   -1.2856   -3.1241    0.0000 C   0  0  0  0  0  0  0  0  0  0  0  0
   -0.5806   -3.5388    0.0000 C   0  0  0  0  0  0  0  0  0  0  0  0
   -2.7233    3.5526    0.0000 C   0  0  0  0  0  0  0  0  0  0  0  0
   -3.4420    3.1380    0.0000 C   0  0  0  0  0  0  0  0  0  0  0  0
   -2.0044    3.1241    0.0000 C   0  0  0  0  0  0  0  0  0  0  0  0
    3.0135    0.1935    0.0000 C   0  0  0  0  0  0  0  0  0  0  0  0
    2.2947   -1.0368    0.0000 C   0  0  0  0  0  0  0  0  0  0  0  0
    2.9997   -0.6220    0.0000 C   0  0  0  0  0  0  0  0  0  0  0  0
    3.7047   -1.0506    0.0000 C   0  0  0  0  0  0  0  0  0  0  0  0
  1 33  1  0  0  0  0
  2 35  1  0  0  0  0
  3  7  2  0  0  0  0
  3  8  2  0  0  0  0
  3 21  1  0  0  0  0
  3 28  1  0  0  0  0
  4 32  1  0  0  0  0
  5 14  1  0  0  0  0
 16  5  1  6  0  0  0
  6 15  2  0  0  0  0
  9 45  2  0  0  0  0
 10 45  1  0  0  0  0
 13 11  1  1  0  0  0
 11 15  1  0  0  0  0
 11 17  1  0  0  0  0
 12 29  1  0  0  0  0
 12 42  2  0  0  0  0
 13 16  1  0  0  0  0
 13 18  1  0  0  0  0
 14 15  1  0  0  0  0
 14 22  1  6  0  0  0
 14 25  1  1  0  0  0
 16 20  1  0  0  0  0
 17 19  1  0  0  0  0
 17 21  1  1  0  0  0
 18 26  2  0  0  0  0
 18 27  1  0  0  0  0
 19 23  1  0  0  0  0
 19 24  1  0  0  0  0
 20 30  1  0  0  0  0
 20 31  2  0  0  0  0
 22 29  1  0  0  0  0
 23 24  1  0  0  0  0
 26 32  1  0  0  0  0
 27 34  2  0  0  0  0
 28 39  1  0  0  0  0
 28 40  1  0  0  0  0
 28 41  1  0  0  0  0
 29 36  2  0  0  0  0
 30 35  2  0  0  0  0
 31 37  1  0  0  0  0
 32 33  2  0  0  0  0
 33 34  1  0  0  0  0
 35 38  1  0  0  0  0
 36 43  1  0  0  0  0
 37 38  2  0  0  0  0
 42 44  1  0  0  0  0
 43 44  2  0  0  0  0
 44 45  1  0  0  0  0
M  END
> <PUBCHEM_COMPOUND_ID_TYPE>
0

> <PUBCHEM_TOTAL_CHARGE>
0

> <PUBCHEM_SUBSTANCE_ID>
310947628

> <PUBCHEM_SUBSTANCE_VERSION>
1

> <PUBCHEM_EXT_DATASOURCE_NAME>
4488

> <PUBCHEM_EXT_DATASOURCE_REGID>
SCHEMBL16125794

> <PUBCHEM_SUBSTANCE_COMMENT>
InChI=1S/C33H35Cl2FN2O6S/c1-32(2,3)45(42,43)18-27(19-8-9-19)38-28(20-11-13-25(35)26(36)15-20)29(21-6-5-7-23(34)14-21)44-33(4,31(38)41)16-24-12-10-22(17-37-24)30(39)40/h5-7,10-15,17,19,27-29H,8-9,16,18H2,1-4H3,(H,39,40)/t27-,28-,29-,33+/m1/s1
InChIKey=ILRYIEMVGUAAAV-LNHQPZRBSA-N

> <PUBCHEM_SUBSTANCE_SYNONYM>
SCHEMBL16125794

> <PUBCHEM_XREF_EXT_ID>
SCHEMBL16125794

> <PUBCHEM_EXT_DATASOURCE_URL>
https://www.surechembl.org/

> <PUBCHEM_EXT_SUBSTANCE_URL>
https://www.surechembl.org/chemical/SCHEMBL16125794

> <PUBCHEM_CID_ASSOCIATIONS>
117613344  1

> <PUBCHEM_COORDINATE_TYPE>
1
3

> <PUBCHEM_BONDANNOTATIONS>
13  11  5
14  22  6
14  25  5
17  21  5
16  5  6

$$$$
