310932441
  -OEChem-07211613022D

 33 36  0     0  0  0  0  0  0999 V2000
    4.0183   -2.0940    0.0000 O   0  0  0  0  0  0  0  0  0  0  0  0
    8.4894   -2.2072    0.0000 O   0  0  0  0  0  0  0  0  0  0  0  0
    4.9238   -0.9622    0.0000 N   0  0  0  0  0  0  0  0  0  0  0  0
    4.8390   -0.1415    0.0000 N   0  0  0  0  0  0  0  0  0  0  0  0
    6.3387   -0.9622    0.0000 N   0  0  0  0  0  0  0  0  0  0  0  0
    7.7819   -3.4241    0.0000 N   0  0  0  0  0  0  0  0  0  0  0  0
    4.9238   -3.4241    0.0000 N   0  0  0  0  0  0  0  0  0  0  0  0
    0.0000   -1.8111    0.0000 N   0  0  0  0  0  0  0  0  0  0  0  0
    4.1881   -1.3017    0.0000 C   0  0  0  0  0  0  0  0  0  0  0  0
    3.5939   -0.7075    0.0000 C   0  0  0  0  0  0  0  0  0  0  0  0
    5.6313   -1.3866    0.0000 C   0  0  0  0  0  0  0  0  0  0  0  0
    2.8015   -0.7924    0.0000 C   0  0  0  0  0  0  0  0  0  0  0  0
    4.0183    0.0000    0.0000 C   0  0  0  0  0  0  0  0  0  0  0  0
    5.6313   -2.2072    0.0000 C   0  0  0  0  0  0  0  0  0  0  0  0
    7.0462   -2.2072    0.0000 C   0  0  0  0  0  0  0  0  0  0  0  0
    7.0462   -1.3866    0.0000 C   0  0  0  0  0  0  0  0  0  0  0  0
    6.3387   -2.6034    0.0000 C   0  0  0  0  0  0  0  0  0  0  0  0
    2.4619   -1.5564    0.0000 C   0  0  0  0  0  0  0  0  0  0  0  0
    2.2921   -0.1415    0.0000 C   0  0  0  0  0  0  0  0  0  0  0  0
    7.7819   -2.6034    0.0000 C   0  0  0  0  0  0  0  0  0  0  0  0
    1.1602   -0.9904    0.0000 C   0  0  0  0  0  0  0  0  0  0  0  0
    1.6413   -1.6413    0.0000 C   0  0  0  0  0  0  0  0  0  0  0  0
    1.4715   -0.2264    0.0000 C   0  0  0  0  0  0  0  0  0  0  0  0
    7.0745   -3.8485    0.0000 C   0  0  0  0  0  0  0  0  0  0  0  0
    0.3396   -1.0753    0.0000 C   0  0  0  0  0  0  0  0  0  0  0  0
    8.4894   -3.8485    0.0000 C   0  0  0  0  0  0  0  0  0  0  0  0
    6.3387   -3.4241    0.0000 C   0  0  0  0  0  0  0  0  0  0  0  0
    5.6313   -3.8485    0.0000 C   0  0  0  0  0  0  0  0  0  0  0  0
    4.2164   -3.8485    0.0000 C   0  0  0  0  0  0  0  0  0  0  0  0
    4.9238   -2.6034    0.0000 C   0  0  0  0  0  0  0  0  0  0  0  0
    3.5090   -3.4523    0.0000 C   0  0  0  0  0  0  0  0  0  0  0  0
    4.2164   -2.2072    0.0000 C   0  0  0  0  0  0  0  0  0  0  0  0
    3.5090   -2.6034    0.0000 C   0  0  0  0  0  0  0  0  0  0  0  0
  1  9  1  0  0  0  0
  2 20  2  0  0  0  0
  3  4  1  0  0  0  0
  3  9  1  0  0  0  0
  3 11  1  0  0  0  0
  4 13  2  0  0  0  0
  5 11  2  0  0  0  0
  5 16  1  0  0  0  0
  6 20  1  0  0  0  0
  6 24  1  0  0  0  0
  6 26  1  0  0  0  0
  7 28  1  0  0  0  0
  7 29  1  0  0  0  0
  7 30  1  0  0  0  0
  8 25  3  0  0  0  0
  9 10  2  0  0  0  0
 10 12  1  0  0  0  0
 10 13  1  0  0  0  0
 11 14  1  0  0  0  0
 12 18  2  0  0  0  0
 12 19  1  0  0  0  0
 14 17  2  0  0  0  0
 15 16  2  0  0  0  0
 15 17  1  0  0  0  0
 15 20  1  0  0  0  0
 18 22  1  0  0  0  0
 19 23  2  0  0  0  0
 21 22  2  0  0  0  0
 21 23  1  0  0  0  0
 21 25  1  0  0  0  0
 24 27  1  0  0  0  0
 27 28  1  0  0  0  0
 29 31  1  0  0  0  0
 30 32  1  0  0  0  0
 31 33  1  0  0  0  0
 32 33  1  0  0  0  0
M  END
> <PUBCHEM_COMPOUND_ID_TYPE>
0

> <PUBCHEM_TOTAL_CHARGE>
0

> <PUBCHEM_SUBSTANCE_ID>
310932441

> <PUBCHEM_SUBSTANCE_VERSION>
1

> <PUBCHEM_EXT_DATASOURCE_NAME>
4488

> <PUBCHEM_EXT_DATASOURCE_REGID>
SCHEMBL16109811

> <PUBCHEM_SUBSTANCE_COMMENT>
InChI=1S/C25H28N6O2/c1-29(12-5-15-30-13-3-2-4-14-30)24(32)21-10-11-23(27-17-21)31-25(33)22(18-28-31)20-8-6-19(16-26)7-9-20/h6-11,17-18,33H,2-5,12-15H2,1H3
InChIKey=WBOLIIOTNZQDCL-UHFFFAOYSA-N

> <PUBCHEM_SUBSTANCE_SYNONYM>
SCHEMBL16109811

> <PUBCHEM_XREF_EXT_ID>
SCHEMBL16109811

> <PUBCHEM_EXT_DATASOURCE_URL>
https://www.surechembl.org/

> <PUBCHEM_EXT_SUBSTANCE_URL>
https://www.surechembl.org/chemical/SCHEMBL16109811

> <PUBCHEM_CID_ASSOCIATIONS>
117600987  1

> <PUBCHEM_COORDINATE_TYPE>
1
3

$$$$
