310931617
  -OEChem-07211613022D

 29 31  0     0  0  0  0  0  0999 V2000
    3.5885   -1.6461    0.0000 O   0  0  0  0  0  0  0  0  0  0  0  0
    5.7285   -3.7202    0.0000 O   0  0  0  0  0  0  0  0  0  0  0  0
    0.7243   -4.9383    0.0000 O   0  5  0  0  0  0  0  0  0  0  0  0
    0.0000   -3.6873    0.0000 O   0  0  0  0  0  0  0  0  0  0  0  0
    4.2799   -2.8643    0.0000 N   0  0  0  0  0  0  0  0  0  0  0  0
    0.7243   -4.1153    0.0000 N   0  3  0  0  0  0  0  0  0  0  0  0
    5.0042   -4.9383    0.0000 N   0  0  0  0  0  0  0  0  0  0  0  0
    3.5885   -2.4692    0.0000 C   0  0  0  0  0  0  0  0  0  0  0  0
    2.8643   -2.8643    0.0000 C   0  0  0  0  0  0  0  0  0  0  0  0
    1.4486   -3.7202    0.0000 C   0  0  0  0  0  0  0  0  0  0  0  0
    2.1400   -2.4692    0.0000 C   0  0  0  0  0  0  0  0  0  0  0  0
    2.8643   -3.7202    0.0000 C   0  0  0  0  0  0  0  0  0  0  0  0
    5.0042   -2.4692    0.0000 C   0  0  0  0  0  0  0  0  0  0  0  0
    4.2799   -3.7202    0.0000 C   0  0  0  0  0  0  0  0  0  0  0  0
    1.4486   -2.8643    0.0000 C   0  0  0  0  0  0  0  0  0  0  0  0
    2.1400   -4.1153    0.0000 C   0  0  0  0  0  0  0  0  0  0  0  0
    5.0042   -1.6461    0.0000 C   0  0  0  0  0  0  0  0  0  0  0  0
    5.0042   -4.1153    0.0000 C   0  0  0  0  0  0  0  0  0  0  0  0
    5.6955   -5.3663    0.0000 C   0  0  0  0  0  0  0  0  0  0  0  0
    5.7285   -1.2510    0.0000 C   0  0  0  0  0  0  0  0  0  0  0  0
    4.3128   -1.2181    0.0000 C   0  0  0  0  0  0  0  0  0  0  0  0
    5.7285   -0.3950    0.0000 C   0  0  0  0  0  0  0  0  0  0  0  0
    4.3128   -0.3950    0.0000 C   0  0  0  0  0  0  0  0  0  0  0  0
    6.4528   -4.9712    0.0000 C   0  0  0  0  0  0  0  0  0  0  0  0
    5.7285   -6.1894    0.0000 C   0  0  0  0  0  0  0  0  0  0  0  0
    5.0042    0.0000    0.0000 C   0  0  0  0  0  0  0  0  0  0  0  0
    7.1441   -5.3663    0.0000 C   0  0  0  0  0  0  0  0  0  0  0  0
    6.4198   -6.5845    0.0000 C   0  0  0  0  0  0  0  0  0  0  0  0
    7.1771   -6.1894    0.0000 C   0  0  0  0  0  0  0  0  0  0  0  0
  1  8  2  0  0  0  0
  2 18  2  0  0  0  0
  3  6  1  0  0  0  0
  4  6  2  0  0  0  0
  5  8  1  0  0  0  0
  5 13  1  0  0  0  0
  5 14  1  0  0  0  0
  6 10  1  0  0  0  0
  7 18  1  0  0  0  0
  7 19  1  0  0  0  0
  8  9  1  0  0  0  0
  9 11  2  0  0  0  0
  9 12  1  0  0  0  0
 10 15  2  0  0  0  0
 10 16  1  0  0  0  0
 11 15  1  0  0  0  0
 12 16  2  0  0  0  0
 13 17  1  0  0  0  0
 14 18  1  0  0  0  0
 17 20  2  0  0  0  0
 17 21  1  0  0  0  0
 19 24  1  0  0  0  0
 19 25  1  0  0  0  0
 20 22  1  0  0  0  0
 21 23  2  0  0  0  0
 22 26  2  0  0  0  0
 23 26  1  0  0  0  0
 24 27  1  0  0  0  0
 25 28  1  0  0  0  0
 27 29  1  0  0  0  0
 28 29  1  0  0  0  0
M  CHG  2   3  -1   6   1
M  END
> <PUBCHEM_COMPOUND_ID_TYPE>
0

> <PUBCHEM_TOTAL_CHARGE>
0

> <PUBCHEM_SUBSTANCE_ID>
310931617

> <PUBCHEM_SUBSTANCE_VERSION>
1

> <PUBCHEM_EXT_DATASOURCE_NAME>
4488

> <PUBCHEM_EXT_DATASOURCE_REGID>
SCHEMBL16108943

> <PUBCHEM_SUBSTANCE_COMMENT>
InChI=1S/C22H25N3O4/c26-21(23-19-9-5-2-6-10-19)16-24(15-17-7-3-1-4-8-17)22(27)18-11-13-20(14-12-18)25(28)29/h1,3-4,7-8,11-14,19H,2,5-6,9-10,15-16H2,(H,23,26)
InChIKey=NMGIOEUMTIESLO-UHFFFAOYSA-N

> <PUBCHEM_SUBSTANCE_SYNONYM>
SCHEMBL16108943

> <PUBCHEM_XREF_EXT_ID>
SCHEMBL16108943

> <PUBCHEM_EXT_DATASOURCE_URL>
https://www.surechembl.org/

> <PUBCHEM_EXT_SUBSTANCE_URL>
https://www.surechembl.org/chemical/SCHEMBL16108943

> <PUBCHEM_CID_ASSOCIATIONS>
86296749  1

> <PUBCHEM_COORDINATE_TYPE>
1
3

$$$$
