310938104
  -OEChem-07211613022D

 22 23  0     0  0  0  0  0  0999 V2000
    1.7980   -4.5519    0.0000 Cl  0  0  0  0  0  0  0  0  0  0  0  0
    0.6600   -0.9787    0.0000 F   0  0  0  0  0  0  0  0  0  0  0  0
    0.1138   -2.2987    0.0000 F   0  0  0  0  0  0  0  0  0  0  0  0
    0.0000   -1.4794    0.0000 F   0  0  0  0  0  0  0  0  0  0  0  0
    5.7354   -2.2304    0.0000 O   0  0  0  0  0  0  0  0  0  0  0  0
    1.6159   -2.9360    0.0000 O   0  0  0  0  0  0  0  0  0  0  0  0
    4.4609   -1.8208    0.0000 N   0  0  0  0  0  0  0  0  0  0  0  0
    5.2575   -2.9132    0.0000 N   0  0  0  0  0  0  0  0  0  0  0  0
    3.8919   -3.9147    0.0000 N   0  0  0  0  0  0  0  0  0  0  0  0
    4.4609   -2.6401    0.0000 C   0  0  0  0  0  0  0  0  0  0  0  0
    3.8008   -3.1181    0.0000 C   0  0  0  0  0  0  0  0  0  0  0  0
    5.2575   -1.5477    0.0000 C   0  0  0  0  0  0  0  0  0  0  0  0
    2.3898   -3.2774    0.0000 C   0  0  0  0  0  0  0  0  0  0  0  0
    5.5078   -0.7738    0.0000 C   0  0  0  0  0  0  0  0  0  0  0  0
    3.0498   -2.7539    0.0000 C   0  0  0  0  0  0  0  0  0  0  0  0
    2.4808   -4.0740    0.0000 C   0  0  0  0  0  0  0  0  0  0  0  0
    3.2319   -4.4382    0.0000 C   0  0  0  0  0  0  0  0  0  0  0  0
    0.7738   -1.7980    0.0000 C   0  0  0  0  0  0  0  0  0  0  0  0
    1.5249   -2.1394    0.0000 C   0  0  0  0  0  0  0  0  0  0  0  0
    6.3044   -1.0470    0.0000 C   0  0  0  0  0  0  0  0  0  0  0  0
    5.7582    0.0000    0.0000 C   0  0  0  0  0  0  0  0  0  0  0  0
    4.7340   -0.5235    0.0000 C   0  0  0  0  0  0  0  0  0  0  0  0
  1 16  1  0  0  0  0
  2 18  1  0  0  0  0
  3 18  1  0  0  0  0
  4 18  1  0  0  0  0
  5  8  1  0  0  0  0
  5 12  1  0  0  0  0
  6 13  1  0  0  0  0
  6 19  1  0  0  0  0
  7 10  1  0  0  0  0
  7 12  2  0  0  0  0
  8 10  2  0  0  0  0
  9 11  1  0  0  0  0
  9 17  2  0  0  0  0
 10 11  1  0  0  0  0
 11 15  2  0  0  0  0
 12 14  1  0  0  0  0
 13 15  1  0  0  0  0
 13 16  2  0  0  0  0
 14 20  1  0  0  0  0
 14 21  1  0  0  0  0
 14 22  1  0  0  0  0
 16 17  1  0  0  0  0
 18 19  1  0  0  0  0
M  END
> <PUBCHEM_COMPOUND_ID_TYPE>
0

> <PUBCHEM_TOTAL_CHARGE>
0

> <PUBCHEM_SUBSTANCE_ID>
310938104

> <PUBCHEM_SUBSTANCE_VERSION>
1

> <PUBCHEM_EXT_DATASOURCE_NAME>
4488

> <PUBCHEM_EXT_DATASOURCE_REGID>
SCHEMBL16115950

> <PUBCHEM_SUBSTANCE_COMMENT>
InChI=1S/C13H13ClF3N3O2/c1-12(2,3)11-19-10(20-22-11)8-4-9(7(14)5-18-8)21-6-13(15,16)17/h4-5H,6H2,1-3H3
InChIKey=HTUYGJMIBCCOFV-UHFFFAOYSA-N

> <PUBCHEM_SUBSTANCE_SYNONYM>
SCHEMBL16115950

> <PUBCHEM_XREF_EXT_ID>
SCHEMBL16115950

> <PUBCHEM_EXT_DATASOURCE_URL>
https://www.surechembl.org/

> <PUBCHEM_EXT_SUBSTANCE_URL>
https://www.surechembl.org/chemical/SCHEMBL16115950

> <PUBCHEM_CID_ASSOCIATIONS>
86276024  1

> <PUBCHEM_COORDINATE_TYPE>
1
3

$$$$
