310938885
  -OEChem-07211613022D

 16 16  0     1  0  0  0  0  0999 V2000
    2.6589    0.4051    0.0000 O   0  0  0  0  0  0  0  0  0  0  0  0
   -1.6571    1.2447    0.0000 O   0  0  0  0  0  0  0  0  0  0  0  0
   -2.4527    0.1989    0.0000 O   0  0  0  0  0  0  0  0  0  0  0  0
   -1.6571   -1.2447    0.0000 N   0  0  0  0  0  0  0  0  0  0  0  0
    0.4934   -0.8323    0.0000 C   0  0  0  0  0  0  0  0  0  0  0  0
   -0.9354   -0.8323    0.0000 C   0  0  3  0  0  0  0  0  0  0  0  0
   -0.2136   -1.2447    0.0000 C   0  0  0  0  0  0  0  0  0  0  0  0
    0.5229    0.0074    0.0000 C   0  0  0  0  0  0  0  0  0  0  0  0
    1.2300   -1.2447    0.0000 C   0  0  0  0  0  0  0  0  0  0  0  0
    1.9519    0.0074    0.0000 C   0  0  0  0  0  0  0  0  0  0  0  0
   -0.9207   -0.0074    0.0000 C   0  0  0  0  0  0  0  0  0  0  0  0
    1.2300    0.4051    0.0000 C   0  0  0  0  0  0  0  0  0  0  0  0
    1.9371   -0.8323    0.0000 C   0  0  0  0  0  0  0  0  0  0  0  0
   -1.6719    0.4051    0.0000 C   0  0  0  0  0  0  0  0  0  0  0  0
   -2.3201   -0.8912    0.0000 C   0  0  0  0  0  0  0  0  0  0  0  0
   -2.6589   -1.1563    0.0000 C   0  0  0  0  0  0  0  0  0  0  0  0
  1 10  1  0  0  0  0
  2 14  2  0  0  0  0
  3 14  1  0  0  0  0
  6  4  1  6  0  0  0
  4 15  1  0  0  0  0
  5  7  1  0  0  0  0
  5  8  2  0  0  0  0
  5  9  1  0  0  0  0
  6  7  1  0  0  0  0
  6 11  1  0  0  0  0
  8 12  1  0  0  0  0
  9 13  2  0  0  0  0
 10 12  2  0  0  0  0
 10 13  1  0  0  0  0
 11 14  1  0  0  0  0
 15 16  1  0  0  0  0
M  END
> <PUBCHEM_COMPOUND_ID_TYPE>
0

> <PUBCHEM_TOTAL_CHARGE>
0

> <PUBCHEM_SUBSTANCE_ID>
310938885

> <PUBCHEM_SUBSTANCE_VERSION>
1

> <PUBCHEM_EXT_DATASOURCE_NAME>
4488

> <PUBCHEM_EXT_DATASOURCE_REGID>
SCHEMBL16116804

> <PUBCHEM_SUBSTANCE_COMMENT>
InChI=1S/C12H17NO3/c1-2-13-10(8-12(15)16)7-9-3-5-11(14)6-4-9/h3-6,10,13-14H,2,7-8H2,1H3,(H,15,16)/t10-/m0/s1
InChIKey=FOCMCBZJVFHTMP-JTQLQIEISA-N

> <PUBCHEM_SUBSTANCE_SYNONYM>
SCHEMBL16116804

> <PUBCHEM_XREF_EXT_ID>
SCHEMBL16116804

> <PUBCHEM_EXT_DATASOURCE_URL>
https://www.surechembl.org/

> <PUBCHEM_EXT_SUBSTANCE_URL>
https://www.surechembl.org/chemical/SCHEMBL16116804

> <PUBCHEM_CID_ASSOCIATIONS>
117606283  1

> <PUBCHEM_COORDINATE_TYPE>
1
3

> <PUBCHEM_BONDANNOTATIONS>
16  15  3
6  4  6

$$$$
