310928876
  -OEChem-07211613022D

  6  6  0     0  0  0  0  0  0999 V2000
   -0.3923    0.6348    0.0000 O   0  0  0  0  0  0  0  0  0  0  0  0
    0.0202   -0.6348    0.0000 N   0  0  0  0  0  0  0  0  0  0  0  0
   -0.8048   -0.6348    0.0000 N   0  0  0  0  0  0  0  0  0  0  0  0
    1.0597    0.4048    0.0000 N   0  0  0  0  0  0  0  0  0  0  0  0
    0.2751    0.1498    0.0000 C   0  0  0  0  0  0  0  0  0  0  0  0
   -1.0597    0.1498    0.0000 C   0  0  0  0  0  0  0  0  0  0  0  0
  1  5  1  0  0  0  0
  1  6  1  0  0  0  0
  2  3  1  0  0  0  0
  2  5  2  0  0  0  0
  3  6  2  0  0  0  0
  4  5  1  0  0  0  0
M  END
> <PUBCHEM_COMPOUND_ID_TYPE>
0

> <PUBCHEM_TOTAL_CHARGE>
0

> <PUBCHEM_SUBSTANCE_ID>
310928876

> <PUBCHEM_SUBSTANCE_VERSION>
1

> <PUBCHEM_EXT_DATASOURCE_NAME>
11752

> <PUBCHEM_EXT_DATASOURCE_REGID>
BD213110

> <PUBCHEM_SUBSTANCE_SYNONYM>
1,3,4-Oxadiazol-2-amine
3775-60-8

> <PUBCHEM_GENERIC_REGISTRY_NAME>
3775-60-8

> <PUBCHEM_XREF_EXT_ID>
BD213110

> <PUBCHEM_EXT_DATASOURCE_URL>
http://www.bidepharmatech.com/en/index.html

> <PUBCHEM_EXT_SUBSTANCE_URL>
http://www.bidepharmatech.com/en/goodsview_goodscode_BD213110.html

> <PUBCHEM_CID_ASSOCIATIONS>
239787  1

> <PUBCHEM_COORDINATE_TYPE>
1
3

$$$$
