310943466
  -OEChem-07211613022D

 34 37  0     0  0  0  0  0  0999 V2000
   -3.9482   -1.0313    0.0000 O   0  0  0  0  0  0  0  0  0  0  0  0
    1.0755   -0.6188    0.0000 O   0  0  0  0  0  0  0  0  0  0  0  0
   -5.3772    1.4584    0.0000 O   0  0  0  0  0  0  0  0  0  0  0  0
    5.3772    0.2062    0.0000 O   0  0  0  0  0  0  0  0  0  0  0  0
   -2.5192   -1.0313    0.0000 N   0  0  0  0  0  0  0  0  0  0  0  0
   -3.9482    0.6336    0.0000 N   0  0  0  0  0  0  0  0  0  0  0  0
   -0.3682    1.8710    0.0000 N   0  0  0  0  0  0  0  0  0  0  0  0
    1.7826    0.6336    0.0000 N   0  0  0  0  0  0  0  0  0  0  0  0
   -1.7974    0.2209    0.0000 C   0  0  0  0  0  0  0  0  0  0  0  0
   -1.0902    0.6336    0.0000 C   0  0  0  0  0  0  0  0  0  0  0  0
   -3.2264    0.2209    0.0000 C   0  0  0  0  0  0  0  0  0  0  0  0
   -3.2264   -0.6041    0.0000 C   0  0  0  0  0  0  0  0  0  0  0  0
   -2.5045    0.6336    0.0000 C   0  0  0  0  0  0  0  0  0  0  0  0
   -1.8121   -0.6188    0.0000 C   0  0  0  0  0  0  0  0  0  0  0  0
   -1.0755    1.4584    0.0000 C   0  0  0  0  0  0  0  0  0  0  0  0
    0.3388    0.6336    0.0000 C   0  0  0  0  0  0  0  0  0  0  0  0
   -0.3535    0.2209    0.0000 C   0  0  0  0  0  0  0  0  0  0  0  0
    1.0755    0.2357    0.0000 C   0  0  0  0  0  0  0  0  0  0  0  0
    0.3535    1.4584    0.0000 C   0  0  0  0  0  0  0  0  0  0  0  0
   -3.9629    1.4584    0.0000 C   0  0  0  0  0  0  0  0  0  0  0  0
   -4.6554    0.2209    0.0000 C   0  0  0  0  0  0  0  0  0  0  0  0
    2.5045    0.2209    0.0000 C   0  0  0  0  0  0  0  0  0  0  0  0
    3.9335    0.2209    0.0000 C   0  0  0  0  0  0  0  0  0  0  0  0
    4.6554    0.6483    0.0000 C   0  0  0  0  0  0  0  0  0  0  0  0
   -2.5045   -1.8710    0.0000 C   0  0  0  0  0  0  0  0  0  0  0  0
    3.2264    0.6188    0.0000 C   0  0  0  0  0  0  0  0  0  0  0  0
   -1.8121    1.8563    0.0000 C   0  0  0  0  0  0  0  0  0  0  0  0
    2.5045   -0.6188    0.0000 C   0  0  0  0  0  0  0  0  0  0  0  0
   -4.6849    1.8710    0.0000 C   0  0  0  0  0  0  0  0  0  0  0  0
   -5.3772    0.6188    0.0000 C   0  0  0  0  0  0  0  0  0  0  0  0
    3.9335   -0.6188    0.0000 C   0  0  0  0  0  0  0  0  0  0  0  0
    3.2411   -1.0165    0.0000 C   0  0  0  0  0  0  0  0  0  0  0  0
    4.2282    1.3259    0.0000 C   0  0  0  0  0  0  0  0  0  0  0  0
    5.0531    1.3553    0.0000 C   0  0  0  0  0  0  0  0  0  0  0  0
  1 12  2  0  0  0  0
  2 18  2  0  0  0  0
  3 29  1  0  0  0  0
  3 30  1  0  0  0  0
  4 24  1  0  0  0  0
  5 12  1  0  0  0  0
  5 14  1  0  0  0  0
  5 25  1  0  0  0  0
  6 11  1  0  0  0  0
  6 20  1  0  0  0  0
  6 21  1  0  0  0  0
  7 15  1  0  0  0  0
  7 19  2  0  0  0  0
  8 18  1  0  0  0  0
  8 22  1  0  0  0  0
  9 10  1  0  0  0  0
  9 13  1  0  0  0  0
  9 14  2  0  0  0  0
 10 15  2  0  0  0  0
 10 17  1  0  0  0  0
 11 12  1  0  0  0  0
 11 13  2  0  0  0  0
 15 27  1  0  0  0  0
 16 17  2  0  0  0  0
 16 18  1  0  0  0  0
 16 19  1  0  0  0  0
 20 29  1  0  0  0  0
 21 30  1  0  0  0  0
 22 26  1  0  0  0  0
 22 28  2  0  0  0  0
 23 24  1  0  0  0  0
 23 26  2  0  0  0  0
 23 31  1  0  0  0  0
 24 33  1  0  0  0  0
 24 34  1  0  0  0  0
 28 32  1  0  0  0  0
 31 32  2  0  0  0  0
M  END
> <PUBCHEM_COMPOUND_ID_TYPE>
0

> <PUBCHEM_TOTAL_CHARGE>
0

> <PUBCHEM_SUBSTANCE_ID>
310943466

> <PUBCHEM_SUBSTANCE_VERSION>
1

> <PUBCHEM_EXT_DATASOURCE_NAME>
4488

> <PUBCHEM_EXT_DATASOURCE_REGID>
SCHEMBL16121531

> <PUBCHEM_SUBSTANCE_COMMENT>
InChI=1S/C26H30N4O4/c1-17-22(19-13-23(25(32)29(4)16-19)30-8-10-34-11-9-30)12-18(15-27-17)24(31)28-21-7-5-6-20(14-21)26(2,3)33/h5-7,12-16,33H,8-11H2,1-4H3,(H,28,31)
InChIKey=MVHXFUQJVBVHSA-UHFFFAOYSA-N

> <PUBCHEM_SUBSTANCE_SYNONYM>
SCHEMBL16121531

> <PUBCHEM_XREF_EXT_ID>
SCHEMBL16121531

> <PUBCHEM_EXT_DATASOURCE_URL>
https://www.surechembl.org/

> <PUBCHEM_EXT_SUBSTANCE_URL>
https://www.surechembl.org/chemical/SCHEMBL16121531

> <PUBCHEM_CID_ASSOCIATIONS>
117609889  1

> <PUBCHEM_COORDINATE_TYPE>
1
3

$$$$
