310949094
  -OEChem-07211613022D

 30 33  0     1  0  0  0  0  0999 V2000
    1.0721    3.4019    0.0000 F   0  0  0  0  0  0  0  0  0  0  0  0
    1.3401    2.3298    0.0000 F   0  0  0  0  0  0  0  0  0  0  0  0
    0.2680    2.0824    0.0000 F   0  0  0  0  0  0  0  0  0  0  0  0
   -1.5463   -1.9586    0.0000 O   0  0  0  0  0  0  0  0  0  0  0  0
    1.3195   -1.8968    0.0000 O   0  0  0  0  0  0  0  0  0  0  0  0
    2.0411   -3.1339    0.0000 O   0  0  0  0  0  0  0  0  0  0  0  0
   -0.8247   -0.6598    0.0000 N   0  0  0  0  0  0  0  0  0  0  0  0
   -0.1237   -1.9174    0.0000 N   0  0  0  0  0  0  0  0  0  0  0  0
   -1.2164    0.6598    0.0000 C   0  0  3  0  0  0  0  0  0  0  0  0
   -0.3917    0.6391    0.0000 C   0  0  3  0  0  0  0  0  0  0  0  0
   -0.8247    1.9380    0.0000 C   0  0  0  0  0  0  0  0  0  0  0  0
   -0.7835    2.8040    0.0000 C   0  0  0  0  0  0  0  0  0  0  0  0
   -1.4432    1.4639    0.0000 C   0  0  0  0  0  0  0  0  0  0  0  0
   -0.1443    1.4226    0.0000 C   0  0  0  0  0  0  0  0  0  0  0  0
   -0.0619    3.1957    0.0000 C   0  0  0  0  0  0  0  0  0  0  0  0
   -1.4639   -0.1855    0.0000 C   0  0  0  0  0  0  0  0  0  0  0  0
   -0.1649   -0.1855    0.0000 C   0  0  0  0  0  0  0  0  0  0  0  0
    0.6598    2.7421    0.0000 C   0  0  0  0  0  0  0  0  0  0  0  0
   -0.8247   -1.5051    0.0000 C   0  0  0  0  0  0  0  0  0  0  0  0
   -1.4639    3.1751    0.0000 C   0  0  0  0  0  0  0  0  0  0  0  0
   -0.0619    4.0204    0.0000 C   0  0  0  0  0  0  0  0  0  0  0  0
   -0.1237   -2.7628    0.0000 C   0  0  0  0  0  0  0  0  0  0  0  0
    0.6391   -3.1751    0.0000 C   0  0  0  0  0  0  0  0  0  0  0  0
   -1.4639    4.0204    0.0000 C   0  0  0  0  0  0  0  0  0  0  0  0
   -0.7422    4.4328    0.0000 C   0  0  0  0  0  0  0  0  0  0  0  0
   -0.8041   -3.1957    0.0000 C   0  0  0  0  0  0  0  0  0  0  0  0
    1.3195   -2.7421    0.0000 C   0  0  0  0  0  0  0  0  0  0  0  0
    0.5979   -4.0204    0.0000 C   0  0  0  0  0  0  0  0  0  0  0  0
   -0.8041   -4.0410    0.0000 C   0  0  0  0  0  0  0  0  0  0  0  0
   -0.0825   -4.4328    0.0000 C   0  0  0  0  0  0  0  0  0  0  0  0
  1 18  1  0  0  0  0
  2 18  1  0  0  0  0
  3 18  1  0  0  0  0
  4 19  2  0  0  0  0
  5 27  2  0  0  0  0
  6 27  1  0  0  0  0
  7 16  1  0  0  0  0
  7 17  1  0  0  0  0
  7 19  1  0  0  0  0
  8 19  1  0  0  0  0
  8 22  1  0  0  0  0
  9 10  1  0  0  0  0
  9 13  1  1  0  0  0
  9 16  1  0  0  0  0
 10 14  1  1  0  0  0
 10 17  1  0  0  0  0
 11 12  1  0  0  0  0
 11 13  1  1  0  0  0
 11 14  1  0  0  0  0
 12 15  2  0  0  0  0
 12 20  1  0  0  0  0
 15 18  1  0  0  0  0
 15 21  1  0  0  0  0
 20 24  2  0  0  0  0
 21 25  2  0  0  0  0
 22 23  1  0  0  0  0
 22 26  2  0  0  0  0
 23 27  1  0  0  0  0
 23 28  2  0  0  0  0
 24 25  1  0  0  0  0
 26 29  1  0  0  0  0
 28 30  1  0  0  0  0
 29 30  2  0  0  0  0
M  END
> <PUBCHEM_COMPOUND_ID_TYPE>
0

> <PUBCHEM_TOTAL_CHARGE>
0

> <PUBCHEM_SUBSTANCE_ID>
310949094

> <PUBCHEM_SUBSTANCE_VERSION>
1

> <PUBCHEM_EXT_DATASOURCE_NAME>
4488

> <PUBCHEM_EXT_DATASOURCE_REGID>
SCHEMBL16127284

> <PUBCHEM_SUBSTANCE_COMMENT>
InChI=1S/C22H21F3N2O3/c23-22(24,25)18-7-3-1-5-16(18)13-9-14-11-27(12-15(14)10-13)21(30)26-19-8-4-2-6-17(19)20(28)29/h1-8,13-15H,9-12H2,(H,26,30)(H,28,29)/t13-,14-,15+
InChIKey=ZZZMLSGWZAFWHA-QKDCVEJESA-N

> <PUBCHEM_SUBSTANCE_SYNONYM>
SCHEMBL16127284

> <PUBCHEM_XREF_EXT_ID>
SCHEMBL16127284

> <PUBCHEM_EXT_DATASOURCE_URL>
https://www.surechembl.org/

> <PUBCHEM_EXT_SUBSTANCE_URL>
https://www.surechembl.org/chemical/SCHEMBL16127284

> <PUBCHEM_CID_ASSOCIATIONS>
73890929  1

> <PUBCHEM_COORDINATE_TYPE>
1
3

> <PUBCHEM_BONDANNOTATIONS>
10  14  5
11  13  5
9  13  5

$$$$
