310928842
  -OEChem-07211613022D

 22 24  0     0  0  0  0  0  0999 V2000
   -1.2335    0.6774    0.0000 O   0  0  0  0  0  0  0  0  0  0  0  0
    0.1014    0.6774    0.0000 O   0  0  0  0  0  0  0  0  0  0  0  0
    0.6046    0.5779    0.0000 O   0  0  0  0  0  0  0  0  0  0  0  0
    0.9331   -0.7901    0.0000 N   0  0  0  0  0  0  0  0  0  0  0  0
    1.4180   -1.4575    0.0000 N   0  0  0  0  0  0  0  0  0  0  0  0
   -0.5660   -0.6325    0.0000 C   0  0  0  0  0  0  0  0  0  0  0  0
    0.1484   -1.0450    0.0000 C   0  0  0  0  0  0  0  0  0  0  0  0
   -0.9785    1.4620    0.0000 C   0  0  0  0  0  0  0  0  0  0  0  0
   -0.1535    1.4620    0.0000 C   0  0  0  0  0  0  0  0  0  0  0  0
    0.1484   -1.8700    0.0000 C   0  0  0  0  0  0  0  0  0  0  0  0
   -1.2805   -1.0450    0.0000 C   0  0  0  0  0  0  0  0  0  0  0  0
    0.9331   -2.1250    0.0000 C   0  0  0  0  0  0  0  0  0  0  0  0
   -0.5660   -2.2825    0.0000 C   0  0  0  0  0  0  0  0  0  0  0  0
   -1.2805   -1.8700    0.0000 C   0  0  0  0  0  0  0  0  0  0  0  0
    1.1880   -0.0055    0.0000 C   0  0  0  0  0  0  0  0  0  0  0  0
   -1.7322    1.7976    0.0000 C   0  0  0  0  0  0  0  0  0  0  0  0
   -1.0648    2.2825    0.0000 C   0  0  0  0  0  0  0  0  0  0  0  0
   -0.0673    2.2825    0.0000 C   0  0  0  0  0  0  0  0  0  0  0  0
    0.6001    1.7976    0.0000 C   0  0  0  0  0  0  0  0  0  0  0  0
   -1.9950   -0.6325    0.0000 C   0  0  0  0  0  0  0  0  0  0  0  0
    1.9950    0.1661    0.0000 C   0  0  0  0  0  0  0  0  0  0  0  0
   -0.5660    0.1925    0.0000 B   0  0  0  0  0  0  0  0  0  0  0  0
  1  8  1  0  0  0  0
  1 22  1  0  0  0  0
  2  9  1  0  0  0  0
  2 22  1  0  0  0  0
  3 15  2  0  0  0  0
  4  5  1  0  0  0  0
  4  7  1  0  0  0  0
  4 15  1  0  0  0  0
  5 12  2  0  0  0  0
  6  7  1  0  0  0  0
  6 11  2  0  0  0  0
  6 22  1  0  0  0  0
  7 10  2  0  0  0  0
  8  9  1  0  0  0  0
  8 16  1  0  0  0  0
  8 17  1  0  0  0  0
  9 18  1  0  0  0  0
  9 19  1  0  0  0  0
 10 12  1  0  0  0  0
 10 13  1  0  0  0  0
 11 14  1  0  0  0  0
 11 20  1  0  0  0  0
 13 14  2  0  0  0  0
 15 21  1  0  0  0  0
M  END
> <PUBCHEM_COMPOUND_ID_TYPE>
0

> <PUBCHEM_TOTAL_CHARGE>
0

> <PUBCHEM_SUBSTANCE_ID>
310928842

> <PUBCHEM_SUBSTANCE_VERSION>
1

> <PUBCHEM_EXT_DATASOURCE_NAME>
11752

> <PUBCHEM_EXT_DATASOURCE_REGID>
BD318413

> <PUBCHEM_SUBSTANCE_SYNONYM>
1-(6-Methyl-7-(4,4,5,5-tetramethyl-1,3,2-dioxaborolan-2-yl)-1H-indazol-1-yl)ethanone
N/A

> <PUBCHEM_XREF_EXT_ID>
BD318413

> <PUBCHEM_EXT_DATASOURCE_URL>
http://www.bidepharmatech.com/en/index.html

> <PUBCHEM_EXT_SUBSTANCE_URL>
http://www.bidepharmatech.com/en/goodsview_goodscode_BD318413.html

> <PUBCHEM_CID_ASSOCIATIONS>
117587686  1

> <PUBCHEM_COORDINATE_TYPE>
1
3

$$$$
