310948384
  -OEChem-07211613022D

 32 34  0     0  0  0  0  0  0999 V2000
    1.4343   -1.9124    0.0000 Br  0  0  0  0  0  0  0  0  0  0  0  0
    5.1326    0.2250    0.0000 F   0  0  0  0  0  0  0  0  0  0  0  0
    4.0077    0.6046    0.0000 F   0  0  0  0  0  0  0  0  0  0  0  0
    4.7107   -0.8578    0.0000 F   0  0  0  0  0  0  0  0  0  0  0  0
    3.6280   -0.4781    0.0000 O   0  0  0  0  0  0  0  0  0  0  0  0
   -1.4906    0.5625    0.0000 O   0  0  0  0  0  0  0  0  0  0  0  0
   -2.9389    0.5625    0.0000 O   0  0  0  0  0  0  0  0  0  0  0  0
   -4.4014   -0.2531    0.0000 O   0  0  0  0  0  0  0  0  0  0  0  0
   -3.6420   -1.5187    0.0000 O   0  0  0  0  0  0  0  0  0  0  0  0
    0.0000    0.5625    0.0000 N   0  0  0  0  0  0  0  0  0  0  0  0
   -0.6609    1.0406    0.0000 N   0  0  0  0  0  0  0  0  0  0  0  0
   -0.3937    1.8702    0.0000 N   0  0  0  0  0  0  0  0  0  0  0  0
   -0.0141   -0.1828    0.0000 C   0  0  0  0  0  0  0  0  0  0  0  0
    0.6750    1.1530    0.0000 C   0  0  0  0  0  0  0  0  0  0  0  0
   -0.7312   -0.5906    0.0000 C   0  0  0  0  0  0  0  0  0  0  0  0
    1.4906    0.8859    0.0000 C   0  0  0  0  0  0  0  0  0  0  0  0
    0.7172   -0.6046    0.0000 C   0  0  0  0  0  0  0  0  0  0  0  0
    0.4218    1.9124    0.0000 C   0  0  0  0  0  0  0  0  0  0  0  0
   -1.4765   -0.1969    0.0000 C   0  0  0  0  0  0  0  0  0  0  0  0
   -0.7312   -1.4202    0.0000 C   0  0  0  0  0  0  0  0  0  0  0  0
    0.7031   -1.4202    0.0000 C   0  0  0  0  0  0  0  0  0  0  0  0
    1.4765    0.0422    0.0000 C   0  0  0  0  0  0  0  0  0  0  0  0
    2.2077    1.2655    0.0000 C   0  0  0  0  0  0  0  0  0  0  0  0
   -0.0141   -1.8280    0.0000 C   0  0  0  0  0  0  0  0  0  0  0  0
    2.9108    0.0281    0.0000 C   0  0  0  0  0  0  0  0  0  0  0  0
    2.1936   -0.3797    0.0000 C   0  0  0  0  0  0  0  0  0  0  0  0
    2.9389    0.8437    0.0000 C   0  0  0  0  0  0  0  0  0  0  0  0
   -2.1936   -0.5906    0.0000 C   0  0  0  0  0  0  0  0  0  0  0  0
   -2.9389   -0.1969    0.0000 C   0  0  0  0  0  0  0  0  0  0  0  0
    4.3732   -0.1406    0.0000 C   0  0  0  0  0  0  0  0  0  0  0  0
   -3.6561   -0.5765    0.0000 C   0  0  0  0  0  0  0  0  0  0  0  0
   -5.1326   -0.5906    0.0000 C   0  0  0  0  0  0  0  0  0  0  0  0
  1 21  1  0  0  0  0
  2 30  1  0  0  0  0
  3 30  1  0  0  0  0
  4 30  1  0  0  0  0
  5 25  1  0  0  0  0
  5 30  1  0  0  0  0
  6 19  2  0  0  0  0
  7 29  2  0  0  0  0
  8 31  1  0  0  0  0
  8 32  1  0  0  0  0
  9 31  2  0  0  0  0
 10 11  1  0  0  0  0
 10 13  1  0  0  0  0
 10 14  1  0  0  0  0
 11 12  2  0  0  0  0
 12 18  1  0  0  0  0
 13 15  2  0  0  0  0
 13 17  1  0  0  0  0
 14 16  1  0  0  0  0
 14 18  2  0  0  0  0
 15 19  1  0  0  0  0
 15 20  1  0  0  0  0
 16 22  2  0  0  0  0
 16 23  1  0  0  0  0
 17 21  2  0  0  0  0
 19 28  1  0  0  0  0
 20 24  2  0  0  0  0
 21 24  1  0  0  0  0
 22 26  1  0  0  0  0
 23 27  2  0  0  0  0
 25 26  2  0  0  0  0
 25 27  1  0  0  0  0
 28 29  1  0  0  0  0
 29 31  1  0  0  0  0
M  END
> <PUBCHEM_COMPOUND_ID_TYPE>
0

> <PUBCHEM_TOTAL_CHARGE>
0

> <PUBCHEM_SUBSTANCE_ID>
310948384

> <PUBCHEM_SUBSTANCE_VERSION>
1

> <PUBCHEM_EXT_DATASOURCE_NAME>
4488

> <PUBCHEM_EXT_DATASOURCE_REGID>
SCHEMBL16126565

> <PUBCHEM_SUBSTANCE_COMMENT>
InChI=1S/C20H13BrF3N3O5/c1-31-19(30)18(29)9-17(28)14-7-4-12(21)8-15(14)27-16(10-25-26-27)11-2-5-13(6-3-11)32-20(22,23)24/h2-8,10H,9H2,1H3
InChIKey=WQQSBSHPYJMTSG-UHFFFAOYSA-N

> <PUBCHEM_SUBSTANCE_SYNONYM>
SCHEMBL16126565

> <PUBCHEM_XREF_EXT_ID>
SCHEMBL16126565

> <PUBCHEM_EXT_DATASOURCE_URL>
https://www.surechembl.org/

> <PUBCHEM_EXT_SUBSTANCE_URL>
https://www.surechembl.org/chemical/SCHEMBL16126565

> <PUBCHEM_CID_ASSOCIATIONS>
117613946  1

> <PUBCHEM_COORDINATE_TYPE>
1
3

$$$$
