310942835
  -OEChem-07211613022D

 35 39  0     0  0  0  0  0  0999 V2000
   -4.2896   -1.0485    0.0000 O   0  0  0  0  0  0  0  0  0  0  0  0
   -4.2896    1.4299    0.0000 O   0  0  0  0  0  0  0  0  0  0  0  0
   -1.4299   -1.0485    0.0000 O   0  0  0  0  0  0  0  0  0  0  0  0
    3.5694    0.2012    0.0000 N   0  0  0  0  0  0  0  0  0  0  0  0
    2.1289   -0.6249    0.0000 N   0  0  0  0  0  0  0  0  0  0  0  0
   -4.9887   -0.6249    0.0000 C   0  0  0  0  0  0  0  0  0  0  0  0
   -3.5694   -0.6249    0.0000 C   0  0  0  0  0  0  0  0  0  0  0  0
   -3.5694    0.2012    0.0000 C   0  0  0  0  0  0  0  0  0  0  0  0
   -4.2896    0.6037    0.0000 C   0  0  0  0  0  0  0  0  0  0  0  0
   -4.9675    0.2225    0.0000 C   0  0  0  0  0  0  0  0  0  0  0  0
   -5.7089   -0.2225    0.0000 C   0  0  0  0  0  0  0  0  0  0  0  0
   -4.9887   -1.4510    0.0000 C   0  0  0  0  0  0  0  0  0  0  0  0
   -2.8279   -1.0274    0.0000 C   0  0  0  0  0  0  0  0  0  0  0  0
   -2.8703    0.6037    0.0000 C   0  0  0  0  0  0  0  0  0  0  0  0
   -2.1501   -0.6037    0.0000 C   0  0  0  0  0  0  0  0  0  0  0  0
   -2.1501    0.2012    0.0000 C   0  0  0  0  0  0  0  0  0  0  0  0
   -6.4079   -0.6249    0.0000 C   0  0  0  0  0  0  0  0  0  0  0  0
   -5.7089   -1.8324    0.0000 C   0  0  0  0  0  0  0  0  0  0  0  0
    4.2684    0.6249    0.0000 C   0  0  0  0  0  0  0  0  0  0  0  0
    4.9887    0.2012    0.0000 C   0  0  0  0  0  0  0  0  0  0  0  0
   -6.4079   -1.4510    0.0000 C   0  0  0  0  0  0  0  0  0  0  0  0
    5.6665    0.6249    0.0000 C   0  0  0  0  0  0  0  0  0  0  0  0
    4.2896    1.4299    0.0000 C   0  0  0  0  0  0  0  0  0  0  0  0
    3.5482   -0.6461    0.0000 C   0  0  0  0  0  0  0  0  0  0  0  0
    2.8492    0.6037    0.0000 C   0  0  0  0  0  0  0  0  0  0  0  0
    5.6877    1.4299    0.0000 C   0  0  0  0  0  0  0  0  0  0  0  0
    2.8279   -1.0274    0.0000 C   0  0  0  0  0  0  0  0  0  0  0  0
    2.1501    0.2012    0.0000 C   0  0  0  0  0  0  0  0  0  0  0  0
    4.9675    1.8324    0.0000 C   0  0  0  0  0  0  0  0  0  0  0  0
   -0.7309   -0.6249    0.0000 C   0  0  0  0  0  0  0  0  0  0  0  0
    4.9887   -0.6249    0.0000 C   0  0  0  0  0  0  0  0  0  0  0  0
    1.4510   -1.0274    0.0000 C   0  0  0  0  0  0  0  0  0  0  0  0
    0.0317   -1.0274    0.0000 C   0  0  0  0  0  0  0  0  0  0  0  0
    6.4079    0.2012    0.0000 C   0  0  0  0  0  0  0  0  0  0  0  0
    0.6884   -0.6461    0.0000 C   0  0  0  0  0  0  0  0  0  0  0  0
  1  6  1  0  0  0  0
  1  7  1  0  0  0  0
  2  9  2  0  0  0  0
  3 15  1  0  0  0  0
  3 30  1  0  0  0  0
  4 19  1  0  0  0  0
  4 24  1  0  0  0  0
  4 25  1  0  0  0  0
  5 27  1  0  0  0  0
  5 28  1  0  0  0  0
  5 32  1  0  0  0  0
  6 10  1  0  0  0  0
  6 11  1  0  0  0  0
  6 12  1  0  0  0  0
  7  8  2  0  0  0  0
  7 13  1  0  0  0  0
  8  9  1  0  0  0  0
  8 14  1  0  0  0  0
  9 10  1  0  0  0  0
 11 17  1  0  0  0  0
 12 18  1  0  0  0  0
 13 15  2  0  0  0  0
 14 16  2  0  0  0  0
 15 16  1  0  0  0  0
 17 21  1  0  0  0  0
 18 21  1  0  0  0  0
 19 20  2  0  0  0  0
 19 23  1  0  0  0  0
 20 22  1  0  0  0  0
 20 31  1  0  0  0  0
 22 26  2  0  0  0  0
 22 34  1  0  0  0  0
 23 29  2  0  0  0  0
 24 27  1  0  0  0  0
 25 28  1  0  0  0  0
 26 29  1  0  0  0  0
 30 33  1  0  0  0  0
 32 35  1  0  0  0  0
 33 35  1  0  0  0  0
M  END
> <PUBCHEM_COMPOUND_ID_TYPE>
0

> <PUBCHEM_TOTAL_CHARGE>
0

> <PUBCHEM_SUBSTANCE_ID>
310942835

> <PUBCHEM_SUBSTANCE_VERSION>
1

> <PUBCHEM_EXT_DATASOURCE_NAME>
4488

> <PUBCHEM_EXT_DATASOURCE_REGID>
SCHEMBL16120890

> <PUBCHEM_SUBSTANCE_COMMENT>
InChI=1S/C30H40N2O3/c1-23-9-8-10-27(24(23)2)32-18-16-31(17-19-32)15-6-7-20-34-25-11-12-26-28(33)22-30(35-29(26)21-25)13-4-3-5-14-30/h8-12,21H,3-7,13-20,22H2,1-2H3
InChIKey=ACQRMVBEMBTRAG-UHFFFAOYSA-N

> <PUBCHEM_SUBSTANCE_SYNONYM>
SCHEMBL16120890

> <PUBCHEM_XREF_EXT_ID>
SCHEMBL16120890

> <PUBCHEM_EXT_DATASOURCE_URL>
https://www.surechembl.org/

> <PUBCHEM_EXT_SUBSTANCE_URL>
https://www.surechembl.org/chemical/SCHEMBL16120890

> <PUBCHEM_CID_ASSOCIATIONS>
86275198  1

> <PUBCHEM_COORDINATE_TYPE>
1
3

$$$$
