310940158
  -OEChem-07211613022D

 33 37  0     0  0  0  0  0  0999 V2000
   -0.7890   -4.5921    0.0000 Cl  0  0  0  0  0  0  0  0  0  0  0  0
   -2.8811   -0.0177    0.0000 O   0  0  0  0  0  0  0  0  0  0  0  0
    1.8705    4.3616    0.0000 O   0  0  0  0  0  0  0  0  0  0  0  0
   -0.0975   -0.1596    0.0000 N   0  0  0  0  0  0  0  0  0  0  0  0
   -0.4521   -0.9220    0.0000 N   0  0  0  0  0  0  0  0  0  0  0  0
   -1.8174   -1.4361    0.0000 N   0  0  0  0  0  0  0  0  0  0  0  0
    1.3564    2.4290    0.0000 N   0  0  0  0  0  0  0  0  0  0  0  0
   -2.1719    1.2234    0.0000 N   0  0  0  0  0  0  0  0  0  0  0  0
    2.8811   -0.4255    0.0000 N   0  0  0  0  0  0  0  0  0  0  0  0
    0.6826    0.0355    0.0000 C   0  0  0  0  0  0  0  0  0  0  0  0
   -0.7181    0.4078    0.0000 C   0  0  0  0  0  0  0  0  0  0  0  0
   -1.4272    0.0000    0.0000 C   0  0  0  0  0  0  0  0  0  0  0  0
   -1.2677   -0.7979    0.0000 C   0  0  0  0  0  0  0  0  0  0  0  0
   -2.1542    0.4255    0.0000 C   0  0  0  0  0  0  0  0  0  0  0  0
    0.1330    0.6028    0.0000 C   0  0  0  0  0  0  0  0  0  0  0  0
    1.4982    0.2482    0.0000 C   0  0  0  0  0  0  0  0  0  0  0  0
   -0.7181    1.2234    0.0000 C   0  0  0  0  0  0  0  0  0  0  0  0
    1.2500   -0.5851    0.0000 C   0  0  0  0  0  0  0  0  0  0  0  0
    1.1436    1.5957    0.0000 C   0  0  0  0  0  0  0  0  0  0  0  0
    0.3458    1.4007    0.0000 C   0  0  0  0  0  0  0  0  0  0  0  0
    1.7109    1.0461    0.0000 C   0  0  0  0  0  0  0  0  0  0  0  0
   -1.4450    1.6489    0.0000 C   0  0  0  0  0  0  0  0  0  0  0  0
   -1.5691   -2.2163    0.0000 C   0  0  0  0  0  0  0  0  0  0  0  0
    2.0656    2.8546    0.0000 C   0  0  0  0  0  0  0  0  0  0  0  0
    0.9663    3.1559    0.0000 C   0  0  0  0  0  0  0  0  0  0  0  0
    1.6400    3.5460    0.0000 C   0  0  0  0  0  0  0  0  0  0  0  0
    2.0656   -0.4255    0.0000 C   0  0  0  0  0  0  0  0  0  0  0  0
   -2.1010   -2.8368    0.0000 C   0  0  0  0  0  0  0  0  0  0  0  0
   -0.7535   -2.4113    0.0000 C   0  0  0  0  0  0  0  0  0  0  0  0
   -1.8528   -3.6346    0.0000 C   0  0  0  0  0  0  0  0  0  0  0  0
   -0.5053   -3.1914    0.0000 C   0  0  0  0  0  0  0  0  0  0  0  0
   -1.0550   -3.8120    0.0000 C   0  0  0  0  0  0  0  0  0  0  0  0
    2.6861    4.5921    0.0000 C   0  0  0  0  0  0  0  0  0  0  0  0
  1 32  1  0  0  0  0
  2 14  2  0  0  0  0
  3 26  1  0  0  0  0
  3 33  1  0  0  0  0
  4  5  1  0  0  0  0
  4 10  1  0  0  0  0
  4 11  1  0  0  0  0
  5 13  2  0  0  0  0
  6 13  1  0  0  0  0
  6 23  1  0  0  0  0
 19  7  1  6  0  0  0
  7 24  1  0  0  0  0
  7 25  1  0  0  0  0
  8 14  1  0  0  0  0
  8 22  1  0  0  0  0
  9 27  3  0  0  0  0
 10 15  1  0  0  0  0
 10 16  1  0  0  0  0
 10 18  1  6  0  0  0
 11 12  2  0  0  0  0
 11 17  1  0  0  0  0
 12 13  1  0  0  0  0
 12 14  1  0  0  0  0
 15 20  1  0  0  0  0
 16 21  1  0  0  0  0
 17 22  2  0  0  0  0
 18 27  1  0  0  0  0
 19 20  1  0  0  0  0
 19 21  1  0  0  0  0
 23 28  2  0  0  0  0
 23 29  1  0  0  0  0
 24 26  1  0  0  0  0
 25 26  1  0  0  0  0
 28 30  1  0  0  0  0
 29 31  2  0  0  0  0
 30 32  2  0  0  0  0
 31 32  1  0  0  0  0
M  END
> <PUBCHEM_COMPOUND_ID_TYPE>
0

> <PUBCHEM_TOTAL_CHARGE>
0

> <PUBCHEM_SUBSTANCE_ID>
310940158

> <PUBCHEM_SUBSTANCE_VERSION>
1

> <PUBCHEM_EXT_DATASOURCE_NAME>
4488

> <PUBCHEM_EXT_DATASOURCE_REGID>
SCHEMBL16118091

> <PUBCHEM_SUBSTANCE_COMMENT>
InChI=1S/C24H27ClN6O2/c1-33-19-14-30(15-19)18-6-9-24(10-7-18,11-12-26)31-20-8-13-27-23(32)21(20)22(29-31)28-17-4-2-16(25)3-5-17/h2-5,8,13,18-19H,6-7,9-11,14-15H2,1H3,(H,27,32)(H,28,29)/t18-,24-
InChIKey=MECRHGTYHNILSM-XZMJRDFISA-N

> <PUBCHEM_SUBSTANCE_SYNONYM>
SCHEMBL16118091

> <PUBCHEM_XREF_EXT_ID>
SCHEMBL16118091

> <PUBCHEM_EXT_DATASOURCE_URL>
https://www.surechembl.org/

> <PUBCHEM_EXT_SUBSTANCE_URL>
https://www.surechembl.org/chemical/SCHEMBL16118091

> <PUBCHEM_CID_ASSOCIATIONS>
86275047  1

> <PUBCHEM_COORDINATE_TYPE>
1
3

> <PUBCHEM_BONDANNOTATIONS>
10  18  6
19  7  6

$$$$
