310932539
  -OEChem-07211613022D

 26 30  0     0  0  0  0  0  0999 V2000
    0.0000   -4.3977    0.0000 O   0  0  0  0  0  0  0  0  0  0  0  0
    5.5247   -3.2983    0.0000 O   0  0  0  0  0  0  0  0  0  0  0  0
    4.2053   -2.6386    0.0000 N   0  0  0  0  0  0  0  0  0  0  0  0
    4.2053   -3.9580    0.0000 N   0  0  0  0  0  0  0  0  0  0  0  0
    0.4123   -5.1399    0.0000 N   0  0  0  0  0  0  0  0  0  0  0  0
    2.6936   -2.4738    0.0000 C   0  0  0  0  0  0  0  0  0  0  0  0
    3.4083   -2.8585    0.0000 C   0  0  0  0  0  0  0  0  0  0  0  0
    3.4083   -3.7106    0.0000 C   0  0  0  0  0  0  0  0  0  0  0  0
    2.0065   -3.7106    0.0000 C   0  0  0  0  0  0  0  0  0  0  0  0
    2.6936   -1.6491    0.0000 C   0  0  0  0  0  0  0  0  0  0  0  0
    1.2919   -4.1229    0.0000 C   0  0  0  0  0  0  0  0  0  0  0  0
    2.0065   -2.8585    0.0000 C   0  0  0  0  0  0  0  0  0  0  0  0
    2.6936   -4.1229    0.0000 C   0  0  0  0  0  0  0  0  0  0  0  0
    3.4083   -1.2368    0.0000 C   0  0  0  0  0  0  0  0  0  0  0  0
    4.7001   -3.2983    0.0000 C   0  0  0  0  0  0  0  0  0  0  0  0
    4.1229   -1.6217    0.0000 C   0  0  0  0  0  0  0  0  0  0  0  0
    0.5497   -3.8205    0.0000 C   0  0  0  0  0  0  0  0  0  0  0  0
    1.2094   -4.9474    0.0000 C   0  0  0  0  0  0  0  0  0  0  0  0
    1.9515   -1.2368    0.0000 C   0  0  0  0  0  0  0  0  0  0  0  0
    3.3808   -0.4123    0.0000 C   0  0  0  0  0  0  0  0  0  0  0  0
    4.9200   -1.6217    0.0000 C   0  0  0  0  0  0  0  0  0  0  0  0
    4.5351   -2.3363    0.0000 C   0  0  0  0  0  0  0  0  0  0  0  0
    1.9515   -0.4123    0.0000 C   0  0  0  0  0  0  0  0  0  0  0  0
    2.6661    0.0000    0.0000 C   0  0  0  0  0  0  0  0  0  0  0  0
    0.3573   -2.9960    0.0000 C   0  0  0  0  0  0  0  0  0  0  0  0
    1.8141   -5.4972    0.0000 C   0  0  0  0  0  0  0  0  0  0  0  0
  1  5  1  0  0  0  0
  1 17  1  0  0  0  0
  2 15  2  0  0  0  0
  3  7  1  0  0  0  0
  3 15  1  0  0  0  0
  4  8  1  0  0  0  0
  4 15  1  0  0  0  0
  5 18  2  0  0  0  0
  6  7  1  0  0  0  0
  6 10  1  0  0  0  0
  6 12  2  0  0  0  0
  7  8  2  0  0  0  0
  8 13  1  0  0  0  0
  9 11  1  0  0  0  0
  9 12  1  0  0  0  0
  9 13  2  0  0  0  0
 10 14  1  0  0  0  0
 10 19  2  0  0  0  0
 11 17  2  0  0  0  0
 11 18  1  0  0  0  0
 14 16  1  0  0  0  0
 14 20  2  0  0  0  0
 16 21  1  0  0  0  0
 16 22  1  0  0  0  0
 17 25  1  0  0  0  0
 18 26  1  0  0  0  0
 19 23  1  0  0  0  0
 20 24  1  0  0  0  0
 21 22  1  0  0  0  0
 23 24  2  0  0  0  0
M  END
> <PUBCHEM_COMPOUND_ID_TYPE>
0

> <PUBCHEM_TOTAL_CHARGE>
0

> <PUBCHEM_SUBSTANCE_ID>
310932539

> <PUBCHEM_SUBSTANCE_VERSION>
1

> <PUBCHEM_EXT_DATASOURCE_NAME>
4488

> <PUBCHEM_EXT_DATASOURCE_REGID>
SCHEMBL16109914

> <PUBCHEM_SUBSTANCE_COMMENT>
InChI=1S/C21H19N3O2/c1-11-19(12(2)26-24-11)14-9-17(20-18(10-14)22-21(25)23-20)16-6-4-3-5-15(16)13-7-8-13/h3-6,9-10,13H,7-8H2,1-2H3,(H2,22,23,25)
InChIKey=TYBHKJGFXNKMMW-UHFFFAOYSA-N

> <PUBCHEM_SUBSTANCE_SYNONYM>
SCHEMBL16109914

> <PUBCHEM_XREF_EXT_ID>
SCHEMBL16109914

> <PUBCHEM_EXT_DATASOURCE_URL>
https://www.surechembl.org/

> <PUBCHEM_EXT_SUBSTANCE_URL>
https://www.surechembl.org/chemical/SCHEMBL16109914

> <PUBCHEM_CID_ASSOCIATIONS>
117601069  1

> <PUBCHEM_COORDINATE_TYPE>
1
3

$$$$
