310943171
  -OEChem-07211613022D

 34 37  0     0  0  0  0  0  0999 V2000
    4.6151    0.6163    0.0000 S   0  0  0  0  0  0  0  0  0  0  0  0
   -2.4873   -1.8490    0.0000 O   0  0  0  0  0  0  0  0  0  0  0  0
    1.7683    1.4381    0.0000 O   0  0  0  0  0  0  0  0  0  0  0  0
   -5.3489    1.4381    0.0000 O   0  0  0  0  0  0  0  0  0  0  0  0
    4.6298    1.4381    0.0000 O   0  0  0  0  0  0  0  0  0  0  0  0
    5.3341    1.0272    0.0000 O   0  0  0  0  0  0  0  0  0  0  0  0
   -3.2210   -0.6163    0.0000 N   0  0  0  0  0  0  0  0  0  0  0  0
   -3.9401    0.6163    0.0000 N   0  0  0  0  0  0  0  0  0  0  0  0
    1.0639    0.2054    0.0000 N   0  0  0  0  0  0  0  0  0  0  0  0
   -0.3595    1.8490    0.0000 N   0  0  0  0  0  0  0  0  0  0  0  0
    3.9107   -0.6163    0.0000 N   0  0  0  0  0  0  0  0  0  0  0  0
   -1.7829    0.2201    0.0000 C   0  0  0  0  0  0  0  0  0  0  0  0
   -1.0932    0.6163    0.0000 C   0  0  0  0  0  0  0  0  0  0  0  0
   -3.2210    0.2201    0.0000 C   0  0  0  0  0  0  0  0  0  0  0  0
   -2.5020    0.6163    0.0000 C   0  0  0  0  0  0  0  0  0  0  0  0
   -2.5020   -0.9978    0.0000 C   0  0  0  0  0  0  0  0  0  0  0  0
   -1.7977   -0.6163    0.0000 C   0  0  0  0  0  0  0  0  0  0  0  0
   -1.0639    1.4528    0.0000 C   0  0  0  0  0  0  0  0  0  0  0  0
   -0.3449    0.2201    0.0000 C   0  0  0  0  0  0  0  0  0  0  0  0
    0.3449    0.6310    0.0000 C   0  0  0  0  0  0  0  0  0  0  0  0
    2.4873    0.2201    0.0000 C   0  0  0  0  0  0  0  0  0  0  0  0
    3.9107    0.2201    0.0000 C   0  0  0  0  0  0  0  0  0  0  0  0
    1.7683    0.6017    0.0000 C   0  0  0  0  0  0  0  0  0  0  0  0
    0.3595    1.4381    0.0000 C   0  0  0  0  0  0  0  0  0  0  0  0
    3.1770    0.6163    0.0000 C   0  0  0  0  0  0  0  0  0  0  0  0
   -3.9254    1.4381    0.0000 C   0  0  0  0  0  0  0  0  0  0  0  0
   -4.6151    0.2201    0.0000 C   0  0  0  0  0  0  0  0  0  0  0  0
   -3.9254   -1.0419    0.0000 C   0  0  0  0  0  0  0  0  0  0  0  0
    2.4873   -0.6163    0.0000 C   0  0  0  0  0  0  0  0  0  0  0  0
   -1.7977    1.8343    0.0000 C   0  0  0  0  0  0  0  0  0  0  0  0
    3.2210   -1.0272    0.0000 C   0  0  0  0  0  0  0  0  0  0  0  0
   -4.6592    1.8490    0.0000 C   0  0  0  0  0  0  0  0  0  0  0  0
   -5.3489    0.6163    0.0000 C   0  0  0  0  0  0  0  0  0  0  0  0
    5.3489    0.1908    0.0000 C   0  0  0  0  0  0  0  0  0  0  0  0
  1  5  2  0  0  0  0
  1  6  2  0  0  0  0
  1 22  1  0  0  0  0
  1 34  1  0  0  0  0
  2 16  2  0  0  0  0
  3 23  2  0  0  0  0
  4 32  1  0  0  0  0
  4 33  1  0  0  0  0
  7 14  1  0  0  0  0
  7 16  1  0  0  0  0
  7 28  1  0  0  0  0
  8 14  1  0  0  0  0
  8 26  1  0  0  0  0
  8 27  1  0  0  0  0
  9 20  1  0  0  0  0
  9 23  1  0  0  0  0
 10 18  1  0  0  0  0
 10 24  2  0  0  0  0
 11 22  1  0  0  0  0
 11 31  2  0  0  0  0
 12 13  1  0  0  0  0
 12 15  1  0  0  0  0
 12 17  2  0  0  0  0
 13 18  2  0  0  0  0
 13 19  1  0  0  0  0
 14 15  2  0  0  0  0
 16 17  1  0  0  0  0
 18 30  1  0  0  0  0
 19 20  2  0  0  0  0
 20 24  1  0  0  0  0
 21 23  1  0  0  0  0
 21 25  1  0  0  0  0
 21 29  2  0  0  0  0
 22 25  2  0  0  0  0
 26 32  1  0  0  0  0
 27 33  1  0  0  0  0
 29 31  1  0  0  0  0
M  END
> <PUBCHEM_COMPOUND_ID_TYPE>
0

> <PUBCHEM_TOTAL_CHARGE>
0

> <PUBCHEM_SUBSTANCE_ID>
310943171

> <PUBCHEM_SUBSTANCE_VERSION>
1

> <PUBCHEM_EXT_DATASOURCE_NAME>
4488

> <PUBCHEM_EXT_DATASOURCE_REGID>
SCHEMBL16121231

> <PUBCHEM_SUBSTANCE_COMMENT>
InChI=1S/C23H25N5O5S/c1-15-19(17-11-21(27(2)22(29)12-17)28-6-8-33-9-7-28)13-18(14-25-15)26-23(30)16-4-5-24-20(10-16)34(3,31)32/h4-5,10-14H,6-9H2,1-3H3,(H,26,30)
InChIKey=SQKXBPQMYKDIMA-UHFFFAOYSA-N

> <PUBCHEM_SUBSTANCE_SYNONYM>
SCHEMBL16121231

> <PUBCHEM_XREF_EXT_ID>
SCHEMBL16121231

> <PUBCHEM_EXT_DATASOURCE_URL>
https://www.surechembl.org/

> <PUBCHEM_EXT_SUBSTANCE_URL>
https://www.surechembl.org/chemical/SCHEMBL16121231

> <PUBCHEM_CID_ASSOCIATIONS>
117609599  1

> <PUBCHEM_COORDINATE_TYPE>
1
3

$$$$
