310940884
  -OEChem-07211613022D

 33 34  0     1  0  0  0  0  0999 V2000
    0.4009   -0.8639    0.0000 O   0  0  0  0  0  0  0  0  0  0  0  0
    2.5711    0.3939    0.0000 O   0  0  0  0  0  0  0  0  0  0  0  0
    1.8385    1.6519    0.0000 O   0  0  0  0  0  0  0  0  0  0  0  0
   -0.3318   -0.4354    0.0000 O   0  0  0  0  0  0  0  0  0  0  0  0
    3.9672   -2.0804    0.0000 O   0  0  0  0  0  0  0  0  0  0  0  0
   -2.5158    1.6519    0.0000 O   0  0  0  0  0  0  0  0  0  0  0  0
   -5.4325    1.6519    0.0000 O   0  0  0  0  0  0  0  0  0  0  0  0
    0.3871    0.8225    0.0000 N   0  0  0  0  0  0  0  0  0  0  0  0
   -1.7970    0.3939    0.0000 N   0  0  0  0  0  0  0  0  0  0  0  0
   -3.9672    0.8225    0.0000 N   0  0  0  0  0  0  0  0  0  0  0  0
    1.1335    0.4078    0.0000 C   0  0  3  0  0  0  0  0  0  0  0  0
    1.1058   -0.4354    0.0000 C   0  0  3  0  0  0  0  0  0  0  0  0
    1.8523   -0.8501    0.0000 C   0  0  0  0  0  0  0  0  0  0  0  0
    1.8385    0.8086    0.0000 C   0  0  0  0  0  0  0  0  0  0  0  0
   -0.3318    0.4216    0.0000 C   0  0  0  0  0  0  0  0  0  0  0  0
    2.5573   -0.4630    0.0000 C   0  0  0  0  0  0  0  0  0  0  0  0
    1.8523   -1.6519    0.0000 C   0  0  0  0  0  0  0  0  0  0  0  0
   -1.0782    0.8225    0.0000 C   0  0  3  0  0  0  0  0  0  0  0  0
    3.2207   -1.6519    0.0000 C   0  0  0  0  0  0  0  0  0  0  0  0
    3.2346   -0.8501    0.0000 C   0  0  0  0  0  0  0  0  0  0  0  0
    2.5573   -2.0528    0.0000 C   0  0  0  0  0  0  0  0  0  0  0  0
   -2.5296    0.7948    0.0000 C   0  0  0  0  0  0  0  0  0  0  0  0
   -3.2207    0.4078    0.0000 C   0  0  0  0  0  0  0  0  0  0  0  0
   -1.0505    1.6519    0.0000 C   0  0  0  0  0  0  0  0  0  0  0  0
    3.2622    0.7810    0.0000 C   0  0  0  0  0  0  0  0  0  0  0  0
   -3.9672    1.6519    0.0000 C   0  0  0  0  0  0  0  0  0  0  0  0
   -4.6722    0.4078    0.0000 C   0  0  0  0  0  0  0  0  0  0  0  0
   -4.7136    2.0804    0.0000 C   0  0  0  0  0  0  0  0  0  0  0  0
   -5.4187    0.8225    0.0000 C   0  0  0  0  0  0  0  0  0  0  0  0
    3.9811    0.3939    0.0000 C   0  0  0  0  0  0  0  0  0  0  0  0
    4.6722   -1.6795    0.0000 C   0  0  0  0  0  0  0  0  0  0  0  0
    4.6860    0.8225    0.0000 C   0  0  0  0  0  0  0  0  0  0  0  0
    5.4325    0.4078    0.0000 C   0  0  0  0  0  0  0  0  0  0  0  0
 12  1  1  1  0  0  0
  2 14  1  0  0  0  0
  2 25  1  0  0  0  0
  3 14  2  0  0  0  0
  4 15  2  0  0  0  0
  5 19  1  0  0  0  0
  5 31  1  0  0  0  0
  6 22  2  0  0  0  0
  7 28  1  0  0  0  0
  7 29  1  0  0  0  0
 11  8  1  6  0  0  0
  8 15  1  0  0  0  0
  9 18  1  0  0  0  0
  9 22  1  0  0  0  0
 10 23  1  0  0  0  0
 10 26  1  0  0  0  0
 10 27  1  0  0  0  0
 11 12  1  0  0  0  0
 11 14  1  0  0  0  0
 12 13  1  0  0  0  0
 13 16  2  0  0  0  0
 13 17  1  0  0  0  0
 15 18  1  0  0  0  0
 16 20  1  0  0  0  0
 17 21  2  0  0  0  0
 18 24  1  1  0  0  0
 19 20  2  0  0  0  0
 19 21  1  0  0  0  0
 22 23  1  0  0  0  0
 25 30  1  0  0  0  0
 26 28  1  0  0  0  0
 27 29  1  0  0  0  0
 30 32  1  0  0  0  0
 32 33  1  0  0  0  0
M  END
> <PUBCHEM_COMPOUND_ID_TYPE>
0

> <PUBCHEM_TOTAL_CHARGE>
0

> <PUBCHEM_SUBSTANCE_ID>
310940884

> <PUBCHEM_SUBSTANCE_VERSION>
1

> <PUBCHEM_EXT_DATASOURCE_NAME>
4488

> <PUBCHEM_EXT_DATASOURCE_REGID>
SCHEMBL16118843

> <PUBCHEM_SUBSTANCE_COMMENT>
InChI=1S/C23H35N3O7/c1-4-5-12-33-23(30)20(21(28)17-6-8-18(31-3)9-7-17)25-22(29)16(2)24-19(27)15-26-10-13-32-14-11-26/h6-9,16,20-21,28H,4-5,10-15H2,1-3H3,(H,24,27)(H,25,29)/t16-,20-,21+/m0/s1
InChIKey=ZNDHWHKBUYVUPA-ORYQWCPZSA-N

> <PUBCHEM_SUBSTANCE_SYNONYM>
SCHEMBL16118843

> <PUBCHEM_XREF_EXT_ID>
SCHEMBL16118843

> <PUBCHEM_EXT_DATASOURCE_URL>
https://www.surechembl.org/

> <PUBCHEM_EXT_SUBSTANCE_URL>
https://www.surechembl.org/chemical/SCHEMBL16118843

> <PUBCHEM_CID_ASSOCIATIONS>
117607801  1

> <PUBCHEM_COORDINATE_TYPE>
1
3

> <PUBCHEM_BONDANNOTATIONS>
12  1  5
18  24  5
11  8  6

$$$$
