310941705
  -OEChem-07211613022D

 34 37  0     0  0  0  0  0  0999 V2000
   -1.3692   -1.2833    0.0000 S   0  0  0  0  0  0  0  0  0  0  0  0
    2.8703    3.6207    0.0000 F   0  0  0  0  0  0  0  0  0  0  0  0
    1.7245    3.6207    0.0000 F   0  0  0  0  0  0  0  0  0  0  0  0
    2.2859    2.4521    0.0000 O   0  0  0  0  0  0  0  0  0  0  0  0
   -1.1515    1.1115    0.0000 O   0  0  0  0  0  0  0  0  0  0  0  0
    1.7245   -0.3781    0.0000 O   0  0  0  0  0  0  0  0  0  0  0  0
    3.0077   -2.9562    0.0000 O   0  0  0  0  0  0  0  0  0  0  0  0
   -0.5786   -0.0343    0.0000 N   0  0  0  0  0  0  0  0  0  0  0  0
    2.2859    0.7906    0.0000 N   0  0  0  0  0  0  0  0  0  0  0  0
   -2.0453   -0.1031    0.0000 N   0  0  0  0  0  0  0  0  0  0  0  0
   -2.5953   -0.7219    0.0000 N   0  0  0  0  0  0  0  0  0  0  0  0
    3.0077   -1.2833    0.0000 N   0  0  0  0  0  0  0  0  0  0  0  0
    0.1432    1.2260    0.0000 C   0  0  0  0  0  0  0  0  0  0  0  0
    1.5755    1.2375    0.0000 C   0  0  0  0  0  0  0  0  0  0  0  0
    1.5755    2.0625    0.0000 C   0  0  0  0  0  0  0  0  0  0  0  0
   -0.5672    0.8135    0.0000 C   0  0  0  0  0  0  0  0  0  0  0  0
   -1.3005   -0.4354    0.0000 C   0  0  0  0  0  0  0  0  0  0  0  0
   -2.1827   -1.4208    0.0000 C   0  0  0  0  0  0  0  0  0  0  0  0
    0.8422    0.8250    0.0000 C   0  0  0  0  0  0  0  0  0  0  0  0
    0.1661    2.0625    0.0000 C   0  0  0  0  0  0  0  0  0  0  0  0
   -2.5380   -2.1999    0.0000 C   0  0  0  0  0  0  0  0  0  0  0  0
    0.8422    2.4635    0.0000 C   0  0  0  0  0  0  0  0  0  0  0  0
    2.2973   -0.0115    0.0000 C   0  0  0  0  0  0  0  0  0  0  0  0
   -2.1026   -2.8760    0.0000 C   0  0  0  0  0  0  0  0  0  0  0  0
   -3.3515   -2.1999    0.0000 C   0  0  0  0  0  0  0  0  0  0  0  0
    2.2973    3.3114    0.0000 C   0  0  0  0  0  0  0  0  0  0  0  0
    3.0192   -0.4469    0.0000 C   0  0  0  0  0  0  0  0  0  0  0  0
   -2.4807   -3.6207    0.0000 C   0  0  0  0  0  0  0  0  0  0  0  0
   -3.7296   -2.9562    0.0000 C   0  0  0  0  0  0  0  0  0  0  0  0
   -3.2942   -3.6207    0.0000 C   0  0  0  0  0  0  0  0  0  0  0  0
    3.7296   -1.6958    0.0000 C   0  0  0  0  0  0  0  0  0  0  0  0
    2.2973   -1.6843    0.0000 C   0  0  0  0  0  0  0  0  0  0  0  0
    3.7182   -2.5208    0.0000 C   0  0  0  0  0  0  0  0  0  0  0  0
    2.2973   -2.5093    0.0000 C   0  0  0  0  0  0  0  0  0  0  0  0
  1 17  1  0  0  0  0
  1 18  1  0  0  0  0
  2 26  1  0  0  0  0
  3 26  1  0  0  0  0
  4 15  1  0  0  0  0
  4 26  1  0  0  0  0
  5 16  2  0  0  0  0
  6 23  2  0  0  0  0
  7 33  1  0  0  0  0
  7 34  1  0  0  0  0
  8 16  1  0  0  0  0
  8 17  1  0  0  0  0
  9 14  1  0  0  0  0
  9 23  1  0  0  0  0
 10 11  1  0  0  0  0
 10 17  2  0  0  0  0
 11 18  2  0  0  0  0
 12 27  1  0  0  0  0
 12 31  1  0  0  0  0
 12 32  1  0  0  0  0
 13 16  1  0  0  0  0
 13 19  1  0  0  0  0
 13 20  2  0  0  0  0
 14 15  1  0  0  0  0
 14 19  2  0  0  0  0
 15 22  2  0  0  0  0
 18 21  1  0  0  0  0
 20 22  1  0  0  0  0
 21 24  2  0  0  0  0
 21 25  1  0  0  0  0
 23 27  1  0  0  0  0
 24 28  1  0  0  0  0
 25 29  2  0  0  0  0
 28 30  2  0  0  0  0
 29 30  1  0  0  0  0
 31 33  1  0  0  0  0
 32 34  1  0  0  0  0
M  END
> <PUBCHEM_COMPOUND_ID_TYPE>
0

> <PUBCHEM_TOTAL_CHARGE>
0

> <PUBCHEM_SUBSTANCE_ID>
310941705

> <PUBCHEM_SUBSTANCE_VERSION>
1

> <PUBCHEM_EXT_DATASOURCE_NAME>
4488

> <PUBCHEM_EXT_DATASOURCE_REGID>
SCHEMBL16119736

> <PUBCHEM_SUBSTANCE_COMMENT>
InChI=1S/C22H21F2N5O4S/c23-21(24)33-17-7-6-15(12-16(17)25-18(30)13-29-8-10-32-11-9-29)19(31)26-22-28-27-20(34-22)14-4-2-1-3-5-14/h1-7,12,21H,8-11,13H2,(H,25,30)(H,26,28,31)
InChIKey=XERYACSULAQUIR-UHFFFAOYSA-N

> <PUBCHEM_SUBSTANCE_SYNONYM>
SCHEMBL16119736

> <PUBCHEM_XREF_EXT_ID>
SCHEMBL16119736

> <PUBCHEM_EXT_DATASOURCE_URL>
https://www.surechembl.org/

> <PUBCHEM_EXT_SUBSTANCE_URL>
https://www.surechembl.org/chemical/SCHEMBL16119736

> <PUBCHEM_CID_ASSOCIATIONS>
117608478  1

> <PUBCHEM_COORDINATE_TYPE>
1
3

$$$$
