310949590
  -OEChem-07211613022D

 41 45  0     0  0  0  0  0  0999 V2000
    3.8316   -1.2969    0.0000 Cl  0  0  0  0  0  0  0  0  0  0  0  0
    2.3938   -3.7723    0.0000 Cl  0  0  0  0  0  0  0  0  0  0  0  0
    0.3187    0.2594    0.0000 S   0  0  0  0  0  0  0  0  0  0  0  0
   -5.3434    0.5114    0.0000 F   0  0  0  0  0  0  0  0  0  0  0  0
   -5.8623    1.5638    0.0000 F   0  0  0  0  0  0  0  0  0  0  0  0
   -4.8247    2.0825    0.0000 F   0  0  0  0  0  0  0  0  0  0  0  0
    2.9719    2.2160    0.0000 O   0  0  0  0  0  0  0  0  0  0  0  0
    2.4531   -0.4669    0.0000 N   0  0  0  0  0  0  0  0  0  0  0  0
    3.1201    0.0222    0.0000 N   0  0  0  0  0  0  0  0  0  0  0  0
    4.1132    1.4748    0.0000 N   0  0  0  0  0  0  0  0  0  0  0  0
    4.6172    2.3494    0.0000 N   0  0  0  0  0  0  0  0  0  0  0  0
    1.7416    0.0222    0.0000 C   0  0  0  0  0  0  0  0  0  0  0  0
    2.0233    0.8078    0.0000 C   0  0  0  0  0  0  0  0  0  0  0  0
    2.8533    0.7930    0.0000 C   0  0  0  0  0  0  0  0  0  0  0  0
    0.9857   -0.2297    0.0000 C   0  0  0  0  0  0  0  0  0  0  0  0
    2.4234   -1.2969    0.0000 C   0  0  0  0  0  0  0  0  0  0  0  0
    3.3573    1.4748    0.0000 C   0  0  0  0  0  0  0  0  0  0  0  0
    3.1646   -1.7120    0.0000 C   0  0  0  0  0  0  0  0  0  0  0  0
    1.5490    1.4600    0.0000 C   0  0  0  0  0  0  0  0  0  0  0  0
    0.7337   -1.0153    0.0000 C   0  0  0  0  0  0  0  0  0  0  0  0
    1.7268   -1.7268    0.0000 C   0  0  0  0  0  0  0  0  0  0  0  0
   -0.3483   -0.2446    0.0000 C   0  0  0  0  0  0  0  0  0  0  0  0
   -0.0816   -1.0301    0.0000 C   0  0  0  0  0  0  0  0  0  0  0  0
    3.1498   -2.5272    0.0000 C   0  0  0  0  0  0  0  0  0  0  0  0
    1.7268   -2.5420    0.0000 C   0  0  0  0  0  0  0  0  0  0  0  0
    2.4383   -2.9571    0.0000 C   0  0  0  0  0  0  0  0  0  0  0  0
   -1.1487    0.0074    0.0000 C   0  0  0  0  0  0  0  0  0  0  0  0
    0.7337    1.4452    0.0000 C   0  0  0  0  0  0  0  0  0  0  0  0
   -1.9195    0.2594    0.0000 C   0  0  0  0  0  0  0  0  0  0  0  0
   -2.7199    0.5410    0.0000 C   0  0  0  0  0  0  0  0  0  0  0  0
    5.4472    2.3494    0.0000 C   0  0  0  0  0  0  0  0  0  0  0  0
    4.2021    3.0460    0.0000 C   0  0  0  0  0  0  0  0  0  0  0  0
   -4.2911    1.0301    0.0000 C   0  0  0  0  0  0  0  0  0  0  0  0
   -5.0767    1.2969    0.0000 C   0  0  0  0  0  0  0  0  0  0  0  0
   -3.3276   -0.0222    0.0000 C   0  0  0  0  0  0  0  0  0  0  0  0
   -2.8978    1.3266    0.0000 C   0  0  0  0  0  0  0  0  0  0  0  0
   -4.1132    0.2297    0.0000 C   0  0  0  0  0  0  0  0  0  0  0  0
   -3.6834    1.5786    0.0000 C   0  0  0  0  0  0  0  0  0  0  0  0
    5.8623    3.0608    0.0000 C   0  0  0  0  0  0  0  0  0  0  0  0
    4.6172    3.7723    0.0000 C   0  0  0  0  0  0  0  0  0  0  0  0
    5.4472    3.7575    0.0000 C   0  0  0  0  0  0  0  0  0  0  0  0
  1 18  1  0  0  0  0
  2 26  1  0  0  0  0
  3 15  1  0  0  0  0
  3 22  1  0  0  0  0
  4 34  1  0  0  0  0
  5 34  1  0  0  0  0
  6 34  1  0  0  0  0
  7 17  2  0  0  0  0
  8  9  1  0  0  0  0
  8 12  1  0  0  0  0
  8 16  1  0  0  0  0
  9 14  2  0  0  0  0
 10 11  1  0  0  0  0
 10 17  1  0  0  0  0
 11 31  1  0  0  0  0
 11 32  1  0  0  0  0
 12 13  2  0  0  0  0
 12 15  1  0  0  0  0
 13 14  1  0  0  0  0
 13 19  1  0  0  0  0
 14 17  1  0  0  0  0
 15 20  2  0  0  0  0
 16 18  2  0  0  0  0
 16 21  1  0  0  0  0
 18 24  1  0  0  0  0
 19 28  1  0  0  0  0
 20 23  1  0  0  0  0
 21 25  2  0  0  0  0
 22 23  2  0  0  0  0
 22 27  1  0  0  0  0
 24 26  2  0  0  0  0
 25 26  1  0  0  0  0
 27 29  3  0  0  0  0
 29 30  1  0  0  0  0
 30 35  2  0  0  0  0
 30 36  1  0  0  0  0
 31 39  1  0  0  0  0
 32 40  1  0  0  0  0
 33 34  1  0  0  0  0
 33 37  2  0  0  0  0
 33 38  1  0  0  0  0
 35 37  1  0  0  0  0
 36 38  2  0  0  0  0
 39 41  1  0  0  0  0
 40 41  1  0  0  0  0
M  END
> <PUBCHEM_COMPOUND_ID_TYPE>
0

> <PUBCHEM_TOTAL_CHARGE>
0

> <PUBCHEM_SUBSTANCE_ID>
310949590

> <PUBCHEM_SUBSTANCE_VERSION>
1

> <PUBCHEM_EXT_DATASOURCE_NAME>
4488

> <PUBCHEM_EXT_DATASOURCE_REGID>
SCHEMBL16127787

> <PUBCHEM_SUBSTANCE_COMMENT>
InChI=1S/C30H25Cl2F3N4OS/c1-2-23-27(29(40)37-38-16-4-3-5-17-38)36-39(25-14-11-21(31)18-24(25)32)28(23)26-15-13-22(41-26)12-8-19-6-9-20(10-7-19)30(33,34)35/h6-7,9-11,13-15,18H,2-5,16-17H2,1H3,(H,37,40)
InChIKey=VQOCBFYUDSBDCZ-UHFFFAOYSA-N

> <PUBCHEM_SUBSTANCE_SYNONYM>
SCHEMBL16127787

> <PUBCHEM_XREF_EXT_ID>
SCHEMBL16127787

> <PUBCHEM_EXT_DATASOURCE_URL>
https://www.surechembl.org/

> <PUBCHEM_EXT_SUBSTANCE_URL>
https://www.surechembl.org/chemical/SCHEMBL16127787

> <PUBCHEM_CID_ASSOCIATIONS>
49779607  1

> <PUBCHEM_COORDINATE_TYPE>
1
3

$$$$
