310943701
  -OEChem-07211613022D

 37 40  0     1  0  0  0  0  0999 V2000
    5.3630    1.8423    0.0000 F   0  0  0  0  0  0  0  0  0  0  0  0
    5.3630    1.0304    0.0000 F   0  0  0  0  0  0  0  0  0  0  0  0
   -5.3630    2.2638    0.0000 O   0  0  0  0  0  0  0  0  0  0  0  0
    1.7876    2.2482    0.0000 O   0  0  0  0  0  0  0  0  0  0  0  0
   -1.0695   -2.6698    0.0000 O   0  0  0  0  0  0  0  0  0  0  0  0
   -3.9266    1.4364    0.0000 N   0  0  0  0  0  0  0  0  0  0  0  0
   -3.2084    0.2029    0.0000 N   0  0  0  0  0  0  0  0  0  0  0  0
   -0.3513    2.6698    0.0000 N   0  0  0  0  0  0  0  0  0  0  0  0
    1.0851    1.0304    0.0000 N   0  0  0  0  0  0  0  0  0  0  0  0
   -2.5058   -1.0304    0.0000 N   0  0  0  0  0  0  0  0  0  0  0  0
    3.9422    0.2029    0.0000 N   0  0  0  0  0  0  0  0  0  0  0  0
   -1.7720    1.0304    0.0000 C   0  0  0  0  0  0  0  0  0  0  0  0
   -1.0851    1.4364    0.0000 C   0  0  0  0  0  0  0  0  0  0  0  0
   -3.2084    1.0304    0.0000 C   0  0  0  0  0  0  0  0  0  0  0  0
   -2.5214    1.4364    0.0000 C   0  0  0  0  0  0  0  0  0  0  0  0
   -1.0695    2.2638    0.0000 C   0  0  0  0  0  0  0  0  0  0  0  0
   -2.4903   -0.2029    0.0000 C   0  0  0  0  0  0  0  0  0  0  0  0
   -1.7876    0.2186    0.0000 C   0  0  0  0  0  0  0  0  0  0  0  0
   -0.3669    1.0304    0.0000 C   0  0  0  0  0  0  0  0  0  0  0  0
    0.3513    1.4364    0.0000 C   0  0  0  0  0  0  0  0  0  0  0  0
   -3.9266    2.2638    0.0000 C   0  0  3  0  0  0  0  0  0  0  0  0
    2.5058    1.0304    0.0000 C   0  0  0  0  0  0  0  0  0  0  0  0
    1.7720    1.4208    0.0000 C   0  0  0  0  0  0  0  0  0  0  0  0
    3.9422    1.0304    0.0000 C   0  0  0  0  0  0  0  0  0  0  0  0
    0.3669    2.2638    0.0000 C   0  0  0  0  0  0  0  0  0  0  0  0
   -4.6292    1.0304    0.0000 C   0  0  0  0  0  0  0  0  0  0  0  0
    4.6604    1.4520    0.0000 C   0  0  0  0  0  0  0  0  0  0  0  0
    3.2084    1.4364    0.0000 C   0  0  0  0  0  0  0  0  0  0  0  0
    2.5058    0.2186    0.0000 C   0  0  0  0  0  0  0  0  0  0  0  0
   -4.6604    2.6698    0.0000 C   0  0  0  0  0  0  0  0  0  0  0  0
   -1.8033    2.6698    0.0000 C   0  0  0  0  0  0  0  0  0  0  0  0
   -5.3630    1.4364    0.0000 C   0  0  0  0  0  0  0  0  0  0  0  0
    3.2084   -0.2029    0.0000 C   0  0  0  0  0  0  0  0  0  0  0  0
   -3.2396    2.6542    0.0000 C   0  0  0  0  0  0  0  0  0  0  0  0
   -1.7876   -1.4364    0.0000 C   0  0  0  0  0  0  0  0  0  0  0  0
    4.6447    2.2638    0.0000 C   0  0  0  0  0  0  0  0  0  0  0  0
   -1.7876   -2.2482    0.0000 C   0  0  0  0  0  0  0  0  0  0  0  0
  1 27  1  0  0  0  0
  2 27  1  0  0  0  0
  3 30  1  0  0  0  0
  3 32  1  0  0  0  0
  4 23  2  0  0  0  0
  5 37  1  0  0  0  0
  6 14  1  0  0  0  0
  6 21  1  0  0  0  0
  6 26  1  0  0  0  0
  7 14  2  0  0  0  0
  7 17  1  0  0  0  0
  8 16  2  0  0  0  0
  8 25  1  0  0  0  0
  9 20  1  0  0  0  0
  9 23  1  0  0  0  0
 10 17  1  0  0  0  0
 10 35  1  0  0  0  0
 11 24  1  0  0  0  0
 11 33  2  0  0  0  0
 12 13  1  0  0  0  0
 12 15  2  0  0  0  0
 12 18  1  0  0  0  0
 13 16  1  0  0  0  0
 13 19  2  0  0  0  0
 14 15  1  0  0  0  0
 16 31  1  0  0  0  0
 17 18  2  0  0  0  0
 19 20  1  0  0  0  0
 20 25  2  0  0  0  0
 21 30  1  0  0  0  0
 21 34  1  1  0  0  0
 22 23  1  0  0  0  0
 22 28  1  0  0  0  0
 22 29  2  0  0  0  0
 24 27  1  0  0  0  0
 24 28  2  0  0  0  0
 26 32  1  0  0  0  0
 27 36  1  0  0  0  0
 29 33  1  0  0  0  0
 35 37  1  0  0  0  0
M  END
> <PUBCHEM_COMPOUND_ID_TYPE>
0

> <PUBCHEM_TOTAL_CHARGE>
0

> <PUBCHEM_SUBSTANCE_ID>
310943701

> <PUBCHEM_SUBSTANCE_VERSION>
1

> <PUBCHEM_EXT_DATASOURCE_NAME>
4488

> <PUBCHEM_EXT_DATASOURCE_REGID>
SCHEMBL16121769

> <PUBCHEM_SUBSTANCE_COMMENT>
InChI=1S/C26H30F2N6O3/c1-16-15-37-9-7-34(16)24-12-19(11-23(33-24)30-6-8-35)21-13-20(14-31-17(21)2)32-25(36)18-4-5-29-22(10-18)26(3,27)28/h4-5,10-14,16,35H,6-9,15H2,1-3H3,(H,30,33)(H,32,36)/t16-/m1/s1
InChIKey=RRGKYVWVWKUVKI-MRXNPFEDSA-N

> <PUBCHEM_SUBSTANCE_SYNONYM>
SCHEMBL16121769

> <PUBCHEM_XREF_EXT_ID>
SCHEMBL16121769

> <PUBCHEM_EXT_DATASOURCE_URL>
https://www.surechembl.org/

> <PUBCHEM_EXT_SUBSTANCE_URL>
https://www.surechembl.org/chemical/SCHEMBL16121769

> <PUBCHEM_CID_ASSOCIATIONS>
117610086  1

> <PUBCHEM_COORDINATE_TYPE>
1
3

> <PUBCHEM_BONDANNOTATIONS>
21  34  5

$$$$
