310937165
  -OEChem-07211613022D

 17 19  0     0  0  0  0  0  0999 V2000
    3.6300   -1.5217    0.0000 S   0  0  0  0  0  0  0  0  0  0  0  0
    0.0000   -2.8600    0.0000 O   0  0  0  0  0  0  0  0  0  0  0  0
    3.6300   -0.1650    0.0000 N   0  0  0  0  0  0  0  0  0  0  0  0
    5.3166   -0.1283    0.0000 N   0  0  0  0  0  0  0  0  0  0  0  0
    2.8416   -1.2467    0.0000 C   0  0  0  0  0  0  0  0  0  0  0  0
    2.1084   -1.6684    0.0000 C   0  0  0  0  0  0  0  0  0  0  0  0
    2.8416   -0.4217    0.0000 C   0  0  0  0  0  0  0  0  0  0  0  0
    1.4300   -1.2467    0.0000 C   0  0  0  0  0  0  0  0  0  0  0  0
    4.0883   -0.8433    0.0000 C   0  0  0  0  0  0  0  0  0  0  0  0
    2.1084    0.0000    0.0000 C   0  0  0  0  0  0  0  0  0  0  0  0
    1.4300   -0.4217    0.0000 C   0  0  0  0  0  0  0  0  0  0  0  0
    2.1084   -2.4383    0.0000 C   0  0  0  0  0  0  0  0  0  0  0  0
    0.7150   -1.6684    0.0000 C   0  0  0  0  0  0  0  0  0  0  0  0
    0.7150   -2.4383    0.0000 C   0  0  0  0  0  0  0  0  0  0  0  0
    1.4300   -2.8600    0.0000 C   0  0  0  0  0  0  0  0  0  0  0  0
    4.9133   -0.8433    0.0000 C   0  0  0  0  0  0  0  0  0  0  0  0
    0.0000   -3.6666    0.0000 C   0  0  0  0  0  0  0  0  0  0  0  0
  1  5  1  0  0  0  0
  1  9  1  0  0  0  0
  2 14  1  0  0  0  0
  2 17  1  0  0  0  0
  3  7  1  0  0  0  0
  3  9  2  0  0  0  0
  4 16  3  0  0  0  0
  5  6  1  0  0  0  0
  5  7  2  0  0  0  0
  6  8  2  0  0  0  0
  6 12  1  0  0  0  0
  7 10  1  0  0  0  0
  8 11  1  0  0  0  0
  8 13  1  0  0  0  0
  9 16  1  0  0  0  0
 10 11  2  0  0  0  0
 12 15  2  0  0  0  0
 13 14  2  0  0  0  0
 14 15  1  0  0  0  0
M  END
> <PUBCHEM_COMPOUND_ID_TYPE>
0

> <PUBCHEM_TOTAL_CHARGE>
0

> <PUBCHEM_SUBSTANCE_ID>
310937165

> <PUBCHEM_SUBSTANCE_VERSION>
1

> <PUBCHEM_EXT_DATASOURCE_NAME>
4488

> <PUBCHEM_EXT_DATASOURCE_REGID>
SCHEMBL16114889

> <PUBCHEM_SUBSTANCE_COMMENT>
InChI=1S/C13H8N2OS/c1-16-9-3-4-10-8(6-9)2-5-11-13(10)17-12(7-14)15-11/h2-6H,1H3
InChIKey=ANPNNROHYYMFEH-UHFFFAOYSA-N

> <PUBCHEM_SUBSTANCE_SYNONYM>
SCHEMBL16114889

> <PUBCHEM_XREF_EXT_ID>
SCHEMBL16114889

> <PUBCHEM_EXT_DATASOURCE_URL>
https://www.surechembl.org/

> <PUBCHEM_EXT_SUBSTANCE_URL>
https://www.surechembl.org/chemical/SCHEMBL16114889

> <PUBCHEM_CID_ASSOCIATIONS>
86281324  1

> <PUBCHEM_COORDINATE_TYPE>
1
3

$$$$
