310938757
  -OEChem-07211613022D

 18 19  0     0  0  0  0  0  0999 V2000
    2.1831    2.3120    0.0000 S   0  0  0  0  0  0  0  0  0  0  0  0
   -0.2195   -0.3484    0.0000 F   0  0  0  0  0  0  0  0  0  0  0  0
   -1.2299    0.6620    0.0000 N   0  0  0  0  0  0  0  0  0  0  0  0
   -0.4453    0.4071    0.0000 N   0  0  0  0  0  0  0  0  0  0  0  0
   -2.1831   -1.3016    0.0000 N   0  0  0  0  0  0  0  0  0  0  0  0
    0.7541    1.4870    0.0000 N   0  0  0  0  0  0  0  0  0  0  0  0
   -1.2299    1.4870    0.0000 C   0  0  0  0  0  0  0  0  0  0  0  0
    0.0397    1.0745    0.0000 C   0  0  0  0  0  0  0  0  0  0  0  0
   -1.5997   -0.7182    0.0000 C   0  0  0  0  0  0  0  0  0  0  0  0
   -1.8132    0.0787    0.0000 C   0  0  0  0  0  0  0  0  0  0  0  0
   -0.4453    1.7420    0.0000 C   0  0  0  0  0  0  0  0  0  0  0  0
   -0.8028   -0.9318    0.0000 C   0  0  0  0  0  0  0  0  0  0  0  0
   -0.5893   -1.7287    0.0000 C   0  0  0  0  0  0  0  0  0  0  0  0
   -1.9443    1.8995    0.0000 C   0  0  0  0  0  0  0  0  0  0  0  0
   -1.9696   -2.0985    0.0000 C   0  0  0  0  0  0  0  0  0  0  0  0
   -1.1727   -2.3120    0.0000 C   0  0  0  0  0  0  0  0  0  0  0  0
    1.4240    1.8737    0.0000 C   0  0  0  0  0  0  0  0  0  0  0  0
    1.5133    1.9253    0.0000 C   0  0  0  0  0  0  0  0  0  0  0  0
  1 18  2  0  0  0  0
  2 12  1  0  0  0  0
  3  4  1  0  0  0  0
  3  7  1  0  0  0  0
  3 10  1  0  0  0  0
  4  8  2  0  0  0  0
  5  9  1  0  0  0  0
  5 15  2  0  0  0  0
  6  8  1  0  0  0  0
  6 17  2  3  0  0  0
  7 11  2  0  0  0  0
  7 14  1  0  0  0  0
  8 11  1  0  0  0  0
  9 10  1  0  0  0  0
  9 12  2  0  0  0  0
 12 13  1  0  0  0  0
 13 16  2  0  0  0  0
 15 16  1  0  0  0  0
 17 18  1  0  0  0  0
M  END
> <PUBCHEM_COMPOUND_ID_TYPE>
0

> <PUBCHEM_TOTAL_CHARGE>
0

> <PUBCHEM_SUBSTANCE_ID>
310938757

> <PUBCHEM_SUBSTANCE_VERSION>
1

> <PUBCHEM_EXT_DATASOURCE_NAME>
4488

> <PUBCHEM_EXT_DATASOURCE_REGID>
SCHEMBL16116673

> <PUBCHEM_SUBSTANCE_COMMENT>
InChI=1S/C12H11FN4S/c1-9-7-12(15-5-6-18)16-17(9)8-11-10(13)3-2-4-14-11/h2-7H,8H2,1H3
InChIKey=GUVPPELNSQSHJE-UHFFFAOYSA-N

> <PUBCHEM_SUBSTANCE_SYNONYM>
SCHEMBL16116673

> <PUBCHEM_XREF_EXT_ID>
SCHEMBL16116673

> <PUBCHEM_EXT_DATASOURCE_URL>
https://www.surechembl.org/

> <PUBCHEM_EXT_SUBSTANCE_URL>
https://www.surechembl.org/chemical/SCHEMBL16116673

> <PUBCHEM_CID_ASSOCIATIONS>
117606170  1

> <PUBCHEM_COORDINATE_TYPE>
1
3

$$$$
