310941165
  -OEChem-07211613022D

 42 46  0     1  0  0  0  0  0999 V2000
    5.1954   -1.4628    0.0000 O   0  0  0  0  0  0  0  0  0  0  0  0
    4.0643    0.4977    0.0000 O   0  0  0  0  0  0  0  0  0  0  0  0
    1.6966   -1.4478    0.0000 O   0  0  0  0  0  0  0  0  0  0  0  0
   -0.4599    0.6184    0.0000 O   0  0  0  0  0  0  0  0  0  0  0  0
   -2.6166   -1.4478    0.0000 O   0  0  0  0  0  0  0  0  0  0  0  0
   -5.4971    1.0256    0.0000 O   0  0  0  0  0  0  0  0  0  0  0  0
    2.4205   -0.2111    0.0000 N   0  0  0  0  0  0  0  0  0  0  0  0
    0.2639   -0.6184    0.0000 N   0  0  0  0  0  0  0  0  0  0  0  0
    2.5864    3.0766    0.0000 N   0  0  0  0  0  0  0  0  0  0  0  0
    3.7477    2.4130    0.0000 N   0  0  0  0  0  0  0  0  0  0  0  0
   -1.8927   -0.2111    0.0000 N   0  0  0  0  0  0  0  0  0  0  0  0
    4.8034   -0.7391    0.0000 C   0  0  3  0  0  0  0  0  0  0  0  0
    4.0191   -0.3167    0.0000 C   0  0  0  0  0  0  0  0  0  0  0  0
    4.3962   -1.4327    0.0000 C   0  0  0  0  0  0  0  0  0  0  0  0
    3.3858   -0.7089    0.0000 C   0  0  3  0  0  0  0  0  0  0  0  0
    5.4971   -0.3167    0.0000 C   0  0  0  0  0  0  0  0  0  0  0  0
    3.3858   -1.8098    0.0000 C   0  0  0  0  0  0  0  0  0  0  0  0
    1.6966   -0.5730    0.0000 C   0  0  0  0  0  0  0  0  0  0  0  0
    0.9728   -0.1810    0.0000 C   0  0  3  0  0  0  0  0  0  0  0  0
    2.6317   -2.2019    0.0000 C   0  0  0  0  0  0  0  0  0  0  0  0
    1.6966    1.0557    0.0000 C   0  0  0  0  0  0  0  0  0  0  0  0
    2.4205    2.3074    0.0000 C   0  0  0  0  0  0  0  0  0  0  0  0
    1.0029    0.6485    0.0000 C   0  0  0  0  0  0  0  0  0  0  0  0
    3.1445    1.8852    0.0000 C   0  0  0  0  0  0  0  0  0  0  0  0
    1.7117    1.8852    0.0000 C   0  0  0  0  0  0  0  0  0  0  0  0
    2.4356    0.6485    0.0000 C   0  0  0  0  0  0  0  0  0  0  0  0
   -0.4599   -0.1961    0.0000 C   0  0  0  0  0  0  0  0  0  0  0  0
    3.1445    1.0557    0.0000 C   0  0  0  0  0  0  0  0  0  0  0  0
    1.8776   -1.9003    0.0000 C   0  0  0  0  0  0  0  0  0  0  0  0
    2.5412   -3.0163    0.0000 C   0  0  0  0  0  0  0  0  0  0  0  0
   -1.1688   -0.5882    0.0000 C   0  0  3  0  0  0  0  0  0  0  0  0
    3.4159    3.1821    0.0000 C   0  0  0  0  0  0  0  0  0  0  0  0
   -2.5563   -0.5730    0.0000 C   0  0  0  0  0  0  0  0  0  0  0  0
    1.3346   -2.4884    0.0000 C   0  0  0  0  0  0  0  0  0  0  0  0
    1.7268   -3.1821    0.0000 C   0  0  0  0  0  0  0  0  0  0  0  0
   -3.3254   -0.1810    0.0000 C   0  0  0  0  0  0  0  0  0  0  0  0
   -3.3254    0.6334    0.0000 C   0  0  0  0  0  0  0  0  0  0  0  0
   -4.0493   -0.5882    0.0000 C   0  0  0  0  0  0  0  0  0  0  0  0
   -1.1839   -1.4327    0.0000 C   0  0  0  0  0  0  0  0  0  0  0  0
   -4.7581    0.6485    0.0000 C   0  0  0  0  0  0  0  0  0  0  0  0
   -4.7581   -0.1810    0.0000 C   0  0  0  0  0  0  0  0  0  0  0  0
   -4.0643    1.0406    0.0000 C   0  0  0  0  0  0  0  0  0  0  0  0
  1 12  1  0  0  0  0
  1 14  1  0  0  0  0
  2 13  2  0  0  0  0
  3 18  2  0  0  0  0
  4 27  2  0  0  0  0
  5 33  2  0  0  0  0
 40  6  1  1  0  0  0
 15  7  1  6  0  0  0
  7 18  1  0  0  0  0
 19  8  1  1  0  0  0
  8 27  1  0  0  0  0
  9 22  1  0  0  0  0
  9 32  2  0  0  0  0
 10 24  1  0  0  0  0
 10 32  1  0  0  0  0
 11 31  1  0  0  0  0
 11 33  1  0  0  0  0
 12 13  1  6  0  0  0
 12 14  1  0  0  0  0
 12 16  1  1  0  0  0
 13 15  1  0  0  0  0
 15 17  1  0  0  0  0
 17 20  1  0  0  0  0
 18 19  1  0  0  0  0
 19 23  1  0  0  0  0
 20 29  1  0  0  0  0
 20 30  1  0  0  0  0
 21 23  1  0  0  0  0
 21 25  1  0  0  0  0
 21 26  2  0  0  0  0
 22 24  1  0  0  0  0
 22 25  2  0  0  0  0
 24 28  2  0  0  0  0
 26 28  1  0  0  0  0
 27 31  1  0  0  0  0
 29 34  1  0  0  0  0
 30 35  1  0  0  0  0
 31 39  1  1  0  0  0
 36 33  1  6  0  0  0
 34 35  1  0  0  0  0
 36 37  1  0  0  0  0
 36 38  1  0  0  0  0
 37 42  1  0  0  0  0
 38 41  1  0  0  0  0
 40 41  1  0  0  0  0
 40 42  1  0  0  0  0
M  END
> <PUBCHEM_COMPOUND_ID_TYPE>
0

> <PUBCHEM_TOTAL_CHARGE>
0

> <PUBCHEM_SUBSTANCE_ID>
310941165

> <PUBCHEM_SUBSTANCE_VERSION>
1

> <PUBCHEM_EXT_DATASOURCE_NAME>
4488

> <PUBCHEM_EXT_DATASOURCE_REGID>
SCHEMBL16119125

> <PUBCHEM_SUBSTANCE_COMMENT>
InChI=1S/C31H43N5O6/c1-18(34-29(40)21-8-10-22(37)11-9-21)28(39)36-26(15-20-7-12-23-24(14-20)33-17-32-23)30(41)35-25(13-19-5-3-4-6-19)27(38)31(2)16-42-31/h7,12,14,17-19,21-22,25-26,37H,3-6,8-11,13,15-16H2,1-2H3,(H,32,33)(H,34,40)(H,35,41)(H,36,39)/t18-,21-,22-,25+,26+,31-/m1/s1
InChIKey=MMVKCJIGAVEWIZ-DLPOFLLLSA-N

> <PUBCHEM_SUBSTANCE_SYNONYM>
SCHEMBL16119125

> <PUBCHEM_XREF_EXT_ID>
SCHEMBL16119125

> <PUBCHEM_EXT_DATASOURCE_URL>
https://www.surechembl.org/

> <PUBCHEM_EXT_SUBSTANCE_URL>
https://www.surechembl.org/chemical/SCHEMBL16119125

> <PUBCHEM_CID_ASSOCIATIONS>
117608041  1

> <PUBCHEM_COORDINATE_TYPE>
1
3

> <PUBCHEM_BONDANNOTATIONS>
12  13  6
12  16  5
31  39  5
36  33  6
40  6  5
15  7  6
19  8  5

$$$$
