310948458
  -OEChem-07211613022D

 21 23  0     0  0  0  0  0  0999 V2000
    3.0268    0.1231    0.0000 Br  0  0  0  0  0  0  0  0  0  0  0  0
   -2.6823    0.2543    0.0000 F   0  0  0  0  0  0  0  0  0  0  0  0
   -3.0268    1.3043    0.0000 F   0  0  0  0  0  0  0  0  0  0  0  0
   -1.9440    1.6324    0.0000 F   0  0  0  0  0  0  0  0  0  0  0  0
    1.1074    2.1574    0.0000 O   0  0  0  0  0  0  0  0  0  0  0  0
   -0.3199    0.1231    0.0000 N   0  0  0  0  0  0  0  0  0  0  0  0
   -0.7957    0.7957    0.0000 N   0  0  0  0  0  0  0  0  0  0  0  0
   -0.8121   -0.5496    0.0000 C   0  0  0  0  0  0  0  0  0  0  0  0
   -1.5831    0.5496    0.0000 C   0  0  0  0  0  0  0  0  0  0  0  0
    0.5332    0.1395    0.0000 C   0  0  0  0  0  0  0  0  0  0  0  0
   -0.5824   -1.3535    0.0000 C   0  0  0  0  0  0  0  0  0  0  0  0
   -1.5831   -0.2871    0.0000 C   0  0  0  0  0  0  0  0  0  0  0  0
   -2.3214    0.9597    0.0000 C   0  0  0  0  0  0  0  0  0  0  0  0
    0.9433    0.8613    0.0000 C   0  0  0  0  0  0  0  0  0  0  0  0
   -0.7629   -2.1574    0.0000 C   0  0  0  0  0  0  0  0  0  0  0  0
   -0.0246   -1.9605    0.0000 C   0  0  0  0  0  0  0  0  0  0  0  0
    0.9433   -0.5824    0.0000 C   0  0  0  0  0  0  0  0  0  0  0  0
    1.7800    0.8285    0.0000 C   0  0  0  0  0  0  0  0  0  0  0  0
    2.1738    0.1231    0.0000 C   0  0  0  0  0  0  0  0  0  0  0  0
    1.7800   -0.5824    0.0000 C   0  0  0  0  0  0  0  0  0  0  0  0
    0.5332    1.5503    0.0000 C   0  0  0  0  0  0  0  0  0  0  0  0
  1 19  1  0  0  0  0
  2 13  1  0  0  0  0
  3 13  1  0  0  0  0
  4 13  1  0  0  0  0
  5 21  1  0  0  0  0
  6  7  1  0  0  0  0
  6  8  1  0  0  0  0
  6 10  1  0  0  0  0
  7  9  2  0  0  0  0
  8 11  1  0  0  0  0
  8 12  2  0  0  0  0
  9 12  1  0  0  0  0
  9 13  1  0  0  0  0
 10 14  1  0  0  0  0
 10 17  2  0  0  0  0
 11 15  1  0  0  0  0
 11 16  1  0  0  0  0
 14 18  2  0  0  0  0
 14 21  1  0  0  0  0
 15 16  1  0  0  0  0
 17 20  1  0  0  0  0
 18 19  1  0  0  0  0
 19 20  2  0  0  0  0
M  END
> <PUBCHEM_COMPOUND_ID_TYPE>
0

> <PUBCHEM_TOTAL_CHARGE>
0

> <PUBCHEM_SUBSTANCE_ID>
310948458

> <PUBCHEM_SUBSTANCE_VERSION>
1

> <PUBCHEM_EXT_DATASOURCE_NAME>
4488

> <PUBCHEM_EXT_DATASOURCE_REGID>
SCHEMBL16126639

> <PUBCHEM_SUBSTANCE_COMMENT>
InChI=1S/C14H12BrF3N2O/c15-10-3-4-11(9(5-10)7-21)20-12(8-1-2-8)6-13(19-20)14(16,17)18/h3-6,8,21H,1-2,7H2
InChIKey=NSUJXSCZEGXNIK-UHFFFAOYSA-N

> <PUBCHEM_SUBSTANCE_SYNONYM>
SCHEMBL16126639

> <PUBCHEM_XREF_EXT_ID>
SCHEMBL16126639

> <PUBCHEM_EXT_DATASOURCE_URL>
https://www.surechembl.org/

> <PUBCHEM_EXT_SUBSTANCE_URL>
https://www.surechembl.org/chemical/SCHEMBL16126639

> <PUBCHEM_CID_ASSOCIATIONS>
117614016  1

> <PUBCHEM_COORDINATE_TYPE>
1
3

$$$$
