310938863
  -OEChem-07211613022D

 16 17  0     0  0  0  0  0  0999 V2000
   -1.4355    2.0497    0.0000 O   0  0  0  0  0  0  0  0  0  0  0  0
    1.4217   -2.0359    0.0000 O   0  0  0  0  0  0  0  0  0  0  0  0
   -0.0138    2.0635    0.0000 N   0  0  0  0  0  0  0  0  0  0  0  0
   -0.0138   -2.0221    0.0000 N   0  0  0  0  0  0  0  0  0  0  0  0
    0.0000    0.4348    0.0000 C   0  0  0  0  0  0  0  0  0  0  0  0
   -0.0138   -0.3933    0.0000 C   0  0  0  0  0  0  0  0  0  0  0  0
   -0.7315    0.8350    0.0000 C   0  0  0  0  0  0  0  0  0  0  0  0
    0.7039   -0.8074    0.0000 C   0  0  0  0  0  0  0  0  0  0  0  0
   -0.7177    1.6632    0.0000 C   0  0  0  0  0  0  0  0  0  0  0  0
    0.6901   -1.6218    0.0000 C   0  0  0  0  0  0  0  0  0  0  0  0
    0.6901    0.8350    0.0000 C   0  0  0  0  0  0  0  0  0  0  0  0
   -0.7177   -0.7936    0.0000 C   0  0  0  0  0  0  0  0  0  0  0  0
    0.7039    1.6494    0.0000 C   0  0  0  0  0  0  0  0  0  0  0  0
   -0.7315   -1.6218    0.0000 C   0  0  0  0  0  0  0  0  0  0  0  0
    1.4493   -2.8502    0.0000 C   0  0  0  0  0  0  0  0  0  0  0  0
   -1.4493    2.8502    0.0000 C   0  0  0  0  0  0  0  0  0  0  0  0
  1  9  1  0  0  0  0
  1 16  1  0  0  0  0
  2 10  1  0  0  0  0
  2 15  1  0  0  0  0
  3  9  1  0  0  0  0
  3 13  2  0  0  0  0
  4 10  1  0  0  0  0
  4 14  2  0  0  0  0
  5  6  1  0  0  0  0
  5  7  1  0  0  0  0
  5 11  2  0  0  0  0
  6  8  1  0  0  0  0
  6 12  2  0  0  0  0
  7  9  2  0  0  0  0
  8 10  2  0  0  0  0
 11 13  1  0  0  0  0
 12 14  1  0  0  0  0
M  END
> <PUBCHEM_COMPOUND_ID_TYPE>
0

> <PUBCHEM_TOTAL_CHARGE>
0

> <PUBCHEM_SUBSTANCE_ID>
310938863

> <PUBCHEM_SUBSTANCE_VERSION>
1

> <PUBCHEM_EXT_DATASOURCE_NAME>
4488

> <PUBCHEM_EXT_DATASOURCE_REGID>
SCHEMBL16116782

> <PUBCHEM_SUBSTANCE_COMMENT>
InChI=1S/C12H12N2O2/c1-15-11-7-9(3-5-13-11)10-4-6-14-12(8-10)16-2/h3-8H,1-2H3
InChIKey=ZVEFTYPMUQYVTH-UHFFFAOYSA-N

> <PUBCHEM_SUBSTANCE_SYNONYM>
SCHEMBL16116782

> <PUBCHEM_XREF_EXT_ID>
SCHEMBL16116782

> <PUBCHEM_EXT_DATASOURCE_URL>
https://www.surechembl.org/

> <PUBCHEM_EXT_SUBSTANCE_URL>
https://www.surechembl.org/chemical/SCHEMBL16116782

> <PUBCHEM_CID_ASSOCIATIONS>
15019796  1

> <PUBCHEM_COORDINATE_TYPE>
1
3

$$$$
