310938739
  -OEChem-07211613022D

 18 19  0     0  0  0  0  0  0999 V2000
    2.5815    2.3120    0.0000 S   0  0  0  0  0  0  0  0  0  0  0  0
    0.1790   -0.3484    0.0000 F   0  0  0  0  0  0  0  0  0  0  0  0
   -2.5815   -1.0881    0.0000 F   0  0  0  0  0  0  0  0  0  0  0  0
   -0.8314    0.6620    0.0000 N   0  0  0  0  0  0  0  0  0  0  0  0
   -0.0468    0.4071    0.0000 N   0  0  0  0  0  0  0  0  0  0  0  0
   -0.7742   -2.3120    0.0000 N   0  0  0  0  0  0  0  0  0  0  0  0
    1.1526    1.4870    0.0000 N   0  0  0  0  0  0  0  0  0  0  0  0
   -1.2013   -0.7182    0.0000 C   0  0  0  0  0  0  0  0  0  0  0  0
   -1.4148    0.0787    0.0000 C   0  0  0  0  0  0  0  0  0  0  0  0
   -0.4044   -0.9318    0.0000 C   0  0  0  0  0  0  0  0  0  0  0  0
   -1.7846   -1.3016    0.0000 C   0  0  0  0  0  0  0  0  0  0  0  0
    0.4381    1.0745    0.0000 C   0  0  0  0  0  0  0  0  0  0  0  0
   -0.8314    1.4870    0.0000 C   0  0  0  0  0  0  0  0  0  0  0  0
   -0.0468    1.7420    0.0000 C   0  0  0  0  0  0  0  0  0  0  0  0
   -0.1909   -1.7287    0.0000 C   0  0  0  0  0  0  0  0  0  0  0  0
   -1.5711   -2.0985    0.0000 C   0  0  0  0  0  0  0  0  0  0  0  0
    1.8224    1.8737    0.0000 C   0  0  0  0  0  0  0  0  0  0  0  0
    1.9117    1.9253    0.0000 C   0  0  0  0  0  0  0  0  0  0  0  0
  1 18  2  0  0  0  0
  2 10  1  0  0  0  0
  3 11  1  0  0  0  0
  4  5  1  0  0  0  0
  4  9  1  0  0  0  0
  4 13  1  0  0  0  0
  5 12  2  0  0  0  0
  6 15  2  0  0  0  0
  6 16  1  0  0  0  0
  7 12  1  0  0  0  0
  7 17  2  3  0  0  0
  8  9  1  0  0  0  0
  8 10  2  0  0  0  0
  8 11  1  0  0  0  0
 10 15  1  0  0  0  0
 11 16  2  0  0  0  0
 12 14  1  0  0  0  0
 13 14  2  0  0  0  0
 17 18  1  0  0  0  0
M  END
> <PUBCHEM_COMPOUND_ID_TYPE>
0

> <PUBCHEM_TOTAL_CHARGE>
0

> <PUBCHEM_SUBSTANCE_ID>
310938739

> <PUBCHEM_SUBSTANCE_VERSION>
1

> <PUBCHEM_EXT_DATASOURCE_NAME>
4488

> <PUBCHEM_EXT_DATASOURCE_REGID>
SCHEMBL16116654

> <PUBCHEM_SUBSTANCE_COMMENT>
InChI=1S/C11H8F2N4S/c12-9-5-14-6-10(13)8(9)7-17-3-1-11(16-17)15-2-4-18/h1-6H,7H2
InChIKey=FUFRYSOLMZLSIG-UHFFFAOYSA-N

> <PUBCHEM_SUBSTANCE_SYNONYM>
SCHEMBL16116654

> <PUBCHEM_XREF_EXT_ID>
SCHEMBL16116654

> <PUBCHEM_EXT_DATASOURCE_URL>
https://www.surechembl.org/

> <PUBCHEM_EXT_SUBSTANCE_URL>
https://www.surechembl.org/chemical/SCHEMBL16116654

> <PUBCHEM_CID_ASSOCIATIONS>
117606158  1

> <PUBCHEM_COORDINATE_TYPE>
1
3

$$$$
