310942704
  -OEChem-07211613022D

 63 69  0     1  0  0  0  0  0999 V2000
   -4.4934    3.6325    0.0000 F   0  0  0  0  0  0  0  0  0  0  0  0
    2.4887    1.4052    0.0000 F   0  0  0  0  0  0  0  0  0  0  0  0
   -4.4934    0.2916    0.0000 F   0  0  0  0  0  0  0  0  0  0  0  0
   -1.7006    1.4937    0.0000 O   0  0  0  0  0  0  0  0  0  0  0  0
    0.9155    4.7108    0.0000 O   0  0  0  0  0  0  0  0  0  0  0  0
    4.6842    1.7034    0.0000 O   0  0  0  0  0  0  0  0  0  0  0  0
   -0.8697   -1.3876    0.0000 O   0  0  0  0  0  0  0  0  0  0  0  0
    4.1791    0.8727    0.0000 O   0  0  0  0  0  0  0  0  0  0  0  0
    0.3853   -2.1124    0.0000 O   0  0  0  0  0  0  0  0  0  0  0  0
   -2.6020   -6.2309    0.0000 O   0  0  0  0  0  0  0  0  0  0  0  0
   -0.0744   -4.7638    0.0000 O   0  0  0  0  0  0  0  0  0  0  0  0
   -2.0364    3.7032    0.0000 N   0  0  0  0  0  0  0  0  0  0  0  0
   -0.4456    2.2184    0.0000 N   0  0  0  0  0  0  0  0  0  0  0  0
   -2.3193    2.3774    0.0000 N   0  0  0  0  0  0  0  0  0  0  0  0
    2.6301    3.5441    0.0000 N   0  0  0  0  0  0  0  0  0  0  0  0
   -0.4456    0.7690    0.0000 N   0  0  0  0  0  0  0  0  0  0  0  0
   -0.8697   -2.8193    0.0000 N   0  0  0  0  0  0  0  0  0  0  0  0
   -1.4531   -5.2941    0.0000 N   0  0  0  0  0  0  0  0  0  0  0  0
   -1.7006    2.9608    0.0000 C   0  0  0  0  0  0  0  0  0  0  0  0
   -0.8697    2.9431    0.0000 C   0  0  3  0  0  0  0  0  0  0  0  0
   -3.0439    2.8016    0.0000 C   0  0  0  0  0  0  0  0  0  0  0  0
   -0.2688    3.5618    0.0000 C   0  0  0  0  0  0  0  0  0  0  0  0
   -2.8495    3.6149    0.0000 C   0  0  0  0  0  0  0  0  0  0  0  0
   -3.7687    2.3951    0.0000 C   0  0  0  0  0  0  0  0  0  0  0  0
   -0.8521    1.4937    0.0000 C   0  0  0  0  0  0  0  0  0  0  0  0
    0.8272    2.2361    0.0000 C   0  0  0  0  0  0  0  0  0  0  0  0
    1.6579    2.6072    0.0000 C   0  0  3  0  0  0  0  0  0  0  0  0
   -1.6122    4.6400    0.0000 C   0  0  0  0  0  0  0  0  0  0  0  0
   -4.5111    2.8016    0.0000 C   0  0  0  0  0  0  0  0  0  0  0  0
    2.3826    2.2184    0.0000 C   0  0  3  0  0  0  0  0  0  0  0  0
   -0.4809    4.3218    0.0000 C   0  0  0  0  0  0  0  0  0  0  0  0
    0.5444    3.3143    0.0000 C   0  0  0  0  0  0  0  0  0  0  0  0
   -3.7864    1.5466    0.0000 C   0  0  0  0  0  0  0  0  0  0  0  0
    1.8171    3.4380    0.0000 C   0  0  0  0  0  0  0  0  0  0  0  0
   -2.2132    5.2411    0.0000 C   0  0  0  0  0  0  0  0  0  0  0  0
    2.9837    2.7840    0.0000 C   0  0  0  0  0  0  0  0  0  0  0  0
   -4.4934    1.1401    0.0000 C   0  0  0  0  0  0  0  0  0  0  0  0
   -5.2005    2.3951    0.0000 C   0  0  0  0  0  0  0  0  0  0  0  0
    4.1791    1.4116    0.0000 C   0  0  0  0  0  0  0  0  0  0  0  0
    0.1025    4.9228    0.0000 C   0  0  0  0  0  0  0  0  0  0  0  0
    1.1276    3.9153    0.0000 C   0  0  0  0  0  0  0  0  0  0  0  0
   -5.2005    1.5466    0.0000 C   0  0  0  0  0  0  0  0  0  0  0  0
   -0.8521    0.0265    0.0000 C   0  0  3  0  0  0  0  0  0  0  0  0
   -2.0011    6.0364    0.0000 C   0  0  0  0  0  0  0  0  0  0  0  0
   -2.9909    5.0289    0.0000 C   0  0  0  0  0  0  0  0  0  0  0  0
   -1.4354   -3.8270    0.0000 C   0  0  0  0  0  0  0  0  0  0  0  0
   -1.6475   -3.0315    0.0000 C   0  0  0  0  0  0  0  0  0  0  0  0
   -0.6577   -3.6325    0.0000 C   0  0  0  0  0  0  0  0  0  0  0  0
   -0.4809   -2.0947    0.0000 C   0  0  0  0  0  0  0  0  0  0  0  0
   -1.8597   -4.5870    0.0000 C   0  0  0  0  0  0  0  0  0  0  0  0
   -0.4633   -0.6452    0.0000 C   0  0  0  0  0  0  0  0  0  0  0  0
   -1.7712   -6.0541    0.0000 C   0  0  0  0  0  0  0  0  0  0  0  0
   -0.6400   -5.4178    0.0000 C   0  0  0  0  0  0  0  0  0  0  0  0
    4.6954    2.2646    0.0000 C   0  0  0  0  0  0  0  0  0  0  0  0
   -2.5666    6.6022    0.0000 C   0  0  0  0  0  0  0  0  0  0  0  0
   -3.5743    5.6122    0.0000 C   0  0  0  0  0  0  0  0  0  0  0  0
   -1.6828    0.0619    0.0000 C   0  0  0  0  0  0  0  0  0  0  0  0
   -3.3621    6.4077    0.0000 C   0  0  0  0  0  0  0  0  0  0  0  0
   -1.1525   -6.6022    0.0000 C   0  0  0  0  0  0  0  0  0  0  0  0
   -0.4456   -6.1955    0.0000 C   0  0  0  0  0  0  0  0  0  0  0  0
    5.2005    2.2870    0.0000 C   0  0  0  0  0  0  0  0  0  0  0  0
    4.1791    2.2646    0.0000 C   0  0  0  0  0  0  0  0  0  0  0  0
    4.6842    2.8145    0.0000 C   0  0  0  0  0  0  0  0  0  0  0  0
  1 29  1  0  0  0  0
 30  2  1  6  0  0  0
  3 37  1  0  0  0  0
  4 25  2  0  0  0  0
  5 40  1  0  0  0  0
  5 41  1  0  0  0  0
  6 39  1  0  0  0  0
  6 54  1  0  0  0  0
  7 49  1  0  0  0  0
  7 51  1  0  0  0  0
  8 39  2  0  0  0  0
  9 49  2  0  0  0  0
 10 52  2  0  0  0  0
 11 53  2  0  0  0  0
 12 19  1  0  0  0  0
 12 23  1  0  0  0  0
 12 28  1  0  0  0  0
 20 13  1  1  0  0  0
 13 25  1  0  0  0  0
 13 26  1  0  0  0  0
 14 19  2  0  0  0  0
 14 21  1  0  0  0  0
 15 34  1  0  0  0  0
 15 36  1  0  0  0  0
 15 39  1  0  0  0  0
 16 25  1  0  0  0  0
 16 43  1  0  0  0  0
 17 47  1  0  0  0  0
 17 48  1  0  0  0  0
 17 49  1  0  0  0  0
 18 50  1  0  0  0  0
 18 52  1  0  0  0  0
 18 53  1  0  0  0  0
 19 20  1  0  0  0  0
 20 22  1  0  0  0  0
 21 23  2  0  0  0  0
 21 24  1  0  0  0  0
 22 31  1  0  0  0  0
 22 32  1  0  0  0  0
 24 29  2  0  0  0  0
 24 33  1  0  0  0  0
 27 26  1  6  0  0  0
 27 30  1  0  0  0  0
 27 34  1  0  0  0  0
 28 35  1  0  0  0  0
 29 38  1  0  0  0  0
 30 36  1  0  0  0  0
 31 40  1  0  0  0  0
 32 41  1  0  0  0  0
 33 37  2  0  0  0  0
 35 44  2  0  0  0  0
 35 45  1  0  0  0  0
 37 42  1  0  0  0  0
 38 42  2  0  0  0  0
 43 51  1  0  0  0  0
 43 57  1  6  0  0  0
 44 55  1  0  0  0  0
 45 56  2  0  0  0  0
 46 47  1  0  0  0  0
 46 48  1  0  0  0  0
 46 50  1  0  0  0  0
 52 59  1  0  0  0  0
 53 60  1  0  0  0  0
 54 61  1  0  0  0  0
 54 62  1  0  0  0  0
 54 63  1  0  0  0  0
 55 58  2  0  0  0  0
 56 58  1  0  0  0  0
 59 60  2  0  0  0  0
M  END
> <PUBCHEM_COMPOUND_ID_TYPE>
0

> <PUBCHEM_TOTAL_CHARGE>
0

> <PUBCHEM_SUBSTANCE_ID>
310942704

> <PUBCHEM_SUBSTANCE_VERSION>
1

> <PUBCHEM_EXT_DATASOURCE_NAME>
4488

> <PUBCHEM_EXT_DATASOURCE_REGID>
SCHEMBL16120750

> <PUBCHEM_SUBSTANCE_COMMENT>
InChI=1S/C45H54F3N7O8/c1-28(27-62-43(59)52-20-30(21-52)22-54-38(56)12-13-39(54)57)49-42(58)55(24-32-23-53(25-36(32)48)44(60)63-45(2,3)4)40(31-14-16-61-17-15-31)41-50-37(34-18-33(46)10-11-35(34)47)26-51(41)19-29-8-6-5-7-9-29/h5-13,18,26,28,30-32,36,40H,14-17,19-25,27H2,1-4H3,(H,49,58)/t28-,32-,36-,40+/m0/s1
InChIKey=PYVLWSUYFUFBPT-BGMYDHKRSA-N

> <PUBCHEM_SUBSTANCE_SYNONYM>
SCHEMBL16120750

> <PUBCHEM_XREF_EXT_ID>
SCHEMBL16120750

> <PUBCHEM_EXT_DATASOURCE_URL>
https://www.surechembl.org/

> <PUBCHEM_EXT_SUBSTANCE_URL>
https://www.surechembl.org/chemical/SCHEMBL16120750

> <PUBCHEM_CID_ASSOCIATIONS>
117609230  1

> <PUBCHEM_COORDINATE_TYPE>
1
3

> <PUBCHEM_BONDANNOTATIONS>
20  13  5
30  2  6
27  26  6
43  57  6

$$$$
