310931803
  -OEChem-07211613022D

 32 35  0     0  0  0  0  0  0999 V2000
    8.0918   -0.7298    0.0000 F   0  0  0  0  0  0  0  0  0  0  0  0
    5.7436   -2.0626    0.0000 O   0  0  0  0  0  0  0  0  0  0  0  0
    1.6183   -3.7762    0.0000 O   0  0  0  0  0  0  0  0  0  0  0  0
    5.3628   -3.4588    0.0000 N   0  0  0  0  0  0  0  0  0  0  0  0
    5.7753   -4.1887    0.0000 N   0  0  0  0  0  0  0  0  0  0  0  0
    4.0935   -4.0300    0.0000 N   0  0  0  0  0  0  0  0  0  0  0  0
    1.7770   -2.3482    0.0000 N   0  0  0  0  0  0  0  0  0  0  0  0
    1.1424   -0.8568    0.0000 N   0  0  0  0  0  0  0  0  0  0  0  0
    9.5197   -0.7298    0.0000 N   0  0  0  0  0  0  0  0  0  0  0  0
    6.6638   -3.1732    0.0000 C   0  0  0  0  0  0  0  0  0  0  0  0
    5.9023   -2.8559    0.0000 C   0  0  0  0  0  0  0  0  0  0  0  0
    7.3619   -2.7607    0.0000 C   0  0  0  0  0  0  0  0  0  0  0  0
    4.5378   -3.3636    0.0000 C   0  0  0  0  0  0  0  0  0  0  0  0
    7.3619   -1.9674    0.0000 C   0  0  0  0  0  0  0  0  0  0  0  0
    6.5686   -3.9983    0.0000 C   0  0  0  0  0  0  0  0  0  0  0  0
    8.0918   -1.5549    0.0000 C   0  0  0  0  0  0  0  0  0  0  0  0
    8.0918   -3.1732    0.0000 C   0  0  0  0  0  0  0  0  0  0  0  0
    8.7899   -1.9674    0.0000 C   0  0  0  0  0  0  0  0  0  0  0  0
    2.9194   -3.2050    0.0000 C   0  0  0  0  0  0  0  0  0  0  0  0
    4.2204   -2.6020    0.0000 C   0  0  0  0  0  0  0  0  0  0  0  0
    2.1260   -3.1098    0.0000 C   0  0  0  0  0  0  0  0  0  0  0  0
    8.7899   -2.7607    0.0000 C   0  0  0  0  0  0  0  0  0  0  0  0
    3.2684   -3.9666    0.0000 C   0  0  0  0  0  0  0  0  0  0  0  0
    3.3954   -2.5386    0.0000 C   0  0  0  0  0  0  0  0  0  0  0  0
    6.6638   -1.5549    0.0000 C   0  0  0  0  0  0  0  0  0  0  0  0
    9.5197   -1.5549    0.0000 C   0  0  0  0  0  0  0  0  0  0  0  0
    2.2847   -1.7135    0.0000 C   0  0  0  0  0  0  0  0  0  0  0  0
    0.9837   -2.2530    0.0000 C   0  0  0  0  0  0  0  0  0  0  0  0
    0.6346   -1.4914    0.0000 C   0  0  0  0  0  0  0  0  0  0  0  0
    1.9674   -0.9520    0.0000 C   0  0  0  0  0  0  0  0  0  0  0  0
    0.7933   -0.0952    0.0000 C   0  0  0  0  0  0  0  0  0  0  0  0
    0.0000    0.0000    0.0000 C   0  0  0  0  0  0  0  0  0  0  0  0
  1 16  1  0  0  0  0
  2 11  1  0  0  0  0
  3 21  2  0  0  0  0
  4  5  1  0  0  0  0
  4 11  1  0  0  0  0
  4 13  1  0  0  0  0
  5 15  2  0  0  0  0
  6 13  1  0  0  0  0
  6 23  2  0  0  0  0
  7 21  1  0  0  0  0
  7 27  1  0  0  0  0
  7 28  1  0  0  0  0
  8 29  1  0  0  0  0
  8 30  1  0  0  0  0
  8 31  1  0  0  0  0
  9 26  3  0  0  0  0
 10 11  2  0  0  0  0
 10 12  1  0  0  0  0
 10 15  1  0  0  0  0
 12 14  2  0  0  0  0
 12 17  1  0  0  0  0
 13 20  2  0  0  0  0
 14 16  1  0  0  0  0
 14 25  1  0  0  0  0
 16 18  2  0  0  0  0
 17 22  2  0  0  0  0
 18 22  1  0  0  0  0
 18 26  1  0  0  0  0
 19 21  1  0  0  0  0
 19 23  1  0  0  0  0
 19 24  2  0  0  0  0
 20 24  1  0  0  0  0
 27 30  1  0  0  0  0
 28 29  1  0  0  0  0
 31 32  1  0  0  0  0
M  END
> <PUBCHEM_COMPOUND_ID_TYPE>
0

> <PUBCHEM_TOTAL_CHARGE>
0

> <PUBCHEM_SUBSTANCE_ID>
310931803

> <PUBCHEM_SUBSTANCE_VERSION>
1

> <PUBCHEM_EXT_DATASOURCE_NAME>
4488

> <PUBCHEM_EXT_DATASOURCE_REGID>
SCHEMBL16109136

> <PUBCHEM_SUBSTANCE_COMMENT>
InChI=1S/C23H23FN6O2/c1-3-28-8-10-29(11-9-28)22(31)17-5-7-20(26-13-17)30-23(32)19(14-27-30)18-6-4-16(12-25)21(24)15(18)2/h4-7,13-14,32H,3,8-11H2,1-2H3
InChIKey=LTYWZKKDTAQOMP-UHFFFAOYSA-N

> <PUBCHEM_SUBSTANCE_SYNONYM>
SCHEMBL16109136

> <PUBCHEM_XREF_EXT_ID>
SCHEMBL16109136

> <PUBCHEM_EXT_DATASOURCE_URL>
https://www.surechembl.org/

> <PUBCHEM_EXT_SUBSTANCE_URL>
https://www.surechembl.org/chemical/SCHEMBL16109136

> <PUBCHEM_CID_ASSOCIATIONS>
117600480  1

> <PUBCHEM_COORDINATE_TYPE>
1
3

$$$$
