310949453
  -OEChem-07211613022D

 13 13  0     0  0  0  0  0  0999 V2000
    0.0179   -1.2631    0.0000 O   0  0  0  0  0  0  0  0  0  0  0  0
    2.9254    0.4171    0.0000 O   0  0  0  0  0  0  0  0  0  0  0  0
   -0.6971   -0.0119    0.0000 N   0  0  0  0  0  0  0  0  0  0  0  0
   -2.1509    0.8341    0.0000 N   0  0  0  0  0  0  0  0  0  0  0  0
    0.0298   -0.3813    0.0000 C   0  0  0  0  0  0  0  0  0  0  0  0
   -1.4240   -0.4051    0.0000 C   0  0  0  0  0  0  0  0  0  0  0  0
   -0.6971    0.8461    0.0000 C   0  0  0  0  0  0  0  0  0  0  0  0
   -2.1390    0.0000    0.0000 C   0  0  0  0  0  0  0  0  0  0  0  0
   -1.4479    1.2631    0.0000 C   0  0  0  0  0  0  0  0  0  0  0  0
    0.7567    0.0000    0.0000 C   0  0  0  0  0  0  0  0  0  0  0  0
    1.4836    0.4409    0.0000 C   0  0  0  0  0  0  0  0  0  0  0  0
   -2.9254    1.2393    0.0000 C   0  0  0  0  0  0  0  0  0  0  0  0
    2.1867    0.8461    0.0000 C   0  0  0  0  0  0  0  0  0  0  0  0
  1  5  2  0  0  0  0
  2 13  1  0  0  0  0
  3  5  1  0  0  0  0
  3  6  1  0  0  0  0
  3  7  1  0  0  0  0
  4  8  1  0  0  0  0
  4  9  1  0  0  0  0
  4 12  1  0  0  0  0
  5 10  1  0  0  0  0
  6  8  1  0  0  0  0
  7  9  1  0  0  0  0
 10 11  3  0  0  0  0
 11 13  1  0  0  0  0
M  END
> <PUBCHEM_COMPOUND_ID_TYPE>
0

> <PUBCHEM_TOTAL_CHARGE>
0

> <PUBCHEM_SUBSTANCE_ID>
310949453

> <PUBCHEM_SUBSTANCE_VERSION>
1

> <PUBCHEM_EXT_DATASOURCE_NAME>
4488

> <PUBCHEM_EXT_DATASOURCE_REGID>
SCHEMBL16127647

> <PUBCHEM_SUBSTANCE_COMMENT>
InChI=1S/C9H14N2O2/c1-10-4-6-11(7-5-10)9(13)3-2-8-12/h12H,4-8H2,1H3
InChIKey=YFKPIOGPQDPROP-UHFFFAOYSA-N

> <PUBCHEM_SUBSTANCE_SYNONYM>
SCHEMBL16127647

> <PUBCHEM_XREF_EXT_ID>
SCHEMBL16127647

> <PUBCHEM_EXT_DATASOURCE_URL>
https://www.surechembl.org/

> <PUBCHEM_EXT_SUBSTANCE_URL>
https://www.surechembl.org/chemical/SCHEMBL16127647

> <PUBCHEM_CID_ASSOCIATIONS>
117614899  1

> <PUBCHEM_COORDINATE_TYPE>
1
3

$$$$
