310936976
  -OEChem-07211613022D

 27 30  0     0  0  0  0  0  0999 V2000
    6.9403   -2.2252    0.0000 O   0  0  0  0  0  0  0  0  0  0  0  0
    2.8344   -2.9404    0.0000 O   0  0  0  0  0  0  0  0  0  0  0  0
    0.1059   -2.9933    0.0000 O   0  0  0  0  0  0  0  0  0  0  0  0
    5.6688   -1.8278    0.0000 N   0  0  0  0  0  0  0  0  0  0  0  0
    5.0860   -3.9205    0.0000 N   0  0  0  0  0  0  0  0  0  0  0  0
    6.4635   -2.9139    0.0000 N   0  0  0  0  0  0  0  0  0  0  0  0
    1.2450   -2.3311    0.0000 N   0  0  0  0  0  0  0  0  0  0  0  0
    3.6821   -4.0794    0.0000 C   0  0  0  0  0  0  0  0  0  0  0  0
    5.0066   -3.1258    0.0000 C   0  0  0  0  0  0  0  0  0  0  0  0
    3.6026   -3.2847    0.0000 C   0  0  0  0  0  0  0  0  0  0  0  0
    5.6688   -2.6490    0.0000 C   0  0  0  0  0  0  0  0  0  0  0  0
    2.9933   -4.5563    0.0000 C   0  0  0  0  0  0  0  0  0  0  0  0
    6.4635   -1.5629    0.0000 C   0  0  0  0  0  0  0  0  0  0  0  0
    4.2383   -2.7549    0.0000 C   0  0  0  0  0  0  0  0  0  0  0  0
    6.7019   -0.7947    0.0000 C   0  0  0  0  0  0  0  0  0  0  0  0
    4.4238   -4.4238    0.0000 C   0  0  0  0  0  0  0  0  0  0  0  0
    2.6755   -5.2980    0.0000 C   0  0  0  0  0  0  0  0  0  0  0  0
    2.1722   -4.6357    0.0000 C   0  0  0  0  0  0  0  0  0  0  0  0
    1.4305   -3.1258    0.0000 C   0  0  0  0  0  0  0  0  0  0  0  0
    2.1722   -3.4436    0.0000 C   0  0  0  0  0  0  0  0  0  0  0  0
    0.7152   -3.5496    0.0000 C   0  0  0  0  0  0  0  0  0  0  0  0
    0.3973   -2.2252    0.0000 C   0  0  0  0  0  0  0  0  0  0  0  0
    7.4966   -1.0331    0.0000 C   0  0  0  0  0  0  0  0  0  0  0  0
    6.9668    0.0000    0.0000 C   0  0  0  0  0  0  0  0  0  0  0  0
    5.9337   -0.5298    0.0000 C   0  0  0  0  0  0  0  0  0  0  0  0
    0.6092   -4.3708    0.0000 C   0  0  0  0  0  0  0  0  0  0  0  0
    0.0000   -1.5364    0.0000 C   0  0  0  0  0  0  0  0  0  0  0  0
  1  6  1  0  0  0  0
  1 13  1  0  0  0  0
  2 10  1  0  0  0  0
  2 20  1  0  0  0  0
  3 21  1  0  0  0  0
  3 22  1  0  0  0  0
  4 11  1  0  0  0  0
  4 13  2  0  0  0  0
  5  9  1  0  0  0  0
  5 16  2  0  0  0  0
  6 11  2  0  0  0  0
  7 19  1  0  0  0  0
  7 22  2  0  0  0  0
  8 10  2  0  0  0  0
  8 12  1  0  0  0  0
  8 16  1  0  0  0  0
  9 11  1  0  0  0  0
  9 14  2  0  0  0  0
 10 14  1  0  0  0  0
 12 17  1  0  0  0  0
 12 18  1  0  0  0  0
 13 15  1  0  0  0  0
 15 23  1  0  0  0  0
 15 24  1  0  0  0  0
 15 25  1  0  0  0  0
 17 18  1  0  0  0  0
 19 20  1  0  0  0  0
 19 21  2  0  0  0  0
 21 26  1  0  0  0  0
 22 27  1  0  0  0  0
M  END
> <PUBCHEM_COMPOUND_ID_TYPE>
0

> <PUBCHEM_TOTAL_CHARGE>
0

> <PUBCHEM_SUBSTANCE_ID>
310936976

> <PUBCHEM_SUBSTANCE_VERSION>
1

> <PUBCHEM_EXT_DATASOURCE_NAME>
4488

> <PUBCHEM_EXT_DATASOURCE_REGID>
SCHEMBL16114679

> <PUBCHEM_SUBSTANCE_COMMENT>
InChI=1S/C20H24N4O3/c1-11-16(22-12(2)26-11)10-25-17-8-15(21-9-14(17)13-6-7-13)18-23-19(27-24-18)20(3,4)5/h8-9,13H,6-7,10H2,1-5H3
InChIKey=ZHJWBDVCTLEADE-UHFFFAOYSA-N

> <PUBCHEM_SUBSTANCE_SYNONYM>
SCHEMBL16114679

> <PUBCHEM_XREF_EXT_ID>
SCHEMBL16114679

> <PUBCHEM_EXT_DATASOURCE_URL>
https://www.surechembl.org/

> <PUBCHEM_EXT_SUBSTANCE_URL>
https://www.surechembl.org/chemical/SCHEMBL16114679

> <PUBCHEM_CID_ASSOCIATIONS>
117604841  1

> <PUBCHEM_COORDINATE_TYPE>
1
3

$$$$
