310938222
  -OEChem-07211613022D

 33 35  0     0  0  0  0  0  0999 V2000
    5.6817   -3.1489    0.0000 S   0  0  0  0  0  0  0  0  0  0  0  0
    4.6549    0.0000    0.0000 F   0  0  0  0  0  0  0  0  0  0  0  0
    3.4227   -0.7188    0.0000 F   0  0  0  0  0  0  0  0  0  0  0  0
    5.0656   -0.6845    0.0000 F   0  0  0  0  0  0  0  0  0  0  0  0
    2.8408   -5.6132    0.0000 O   0  0  0  0  0  0  0  0  0  0  0  0
    2.8751   -3.9703    0.0000 O   0  0  0  0  0  0  0  0  0  0  0  0
    5.2710   -3.8676    0.0000 O   0  0  0  0  0  0  0  0  0  0  0  0
    6.0924   -2.4301    0.0000 O   0  0  0  0  0  0  0  0  0  0  0  0
    2.1221   -4.3811    0.0000 O   0  0  0  0  0  0  0  0  0  0  0  0
    3.5254   -5.2025    0.0000 N   0  0  0  0  0  0  0  0  0  0  0  0
    4.9971   -4.3811    0.0000 N   0  0  0  0  0  0  0  0  0  0  0  0
    4.9629   -5.2025    0.0000 N   0  0  0  0  0  0  0  0  0  0  0  0
    4.2441   -3.1489    0.0000 C   0  0  0  0  0  0  0  0  0  0  0  0
    4.2784   -3.9703    0.0000 C   0  0  0  0  0  0  0  0  0  0  0  0
    4.9629   -2.7382    0.0000 C   0  0  0  0  0  0  0  0  0  0  0  0
    3.5596   -4.3811    0.0000 C   0  0  0  0  0  0  0  0  0  0  0  0
    4.2441   -1.5402    0.0000 C   0  0  0  0  0  0  0  0  0  0  0  0
    4.2784   -5.6132    0.0000 C   0  0  0  0  0  0  0  0  0  0  0  0
    4.9629   -1.9167    0.0000 C   0  0  0  0  0  0  0  0  0  0  0  0
    3.5254   -2.7382    0.0000 C   0  0  0  0  0  0  0  0  0  0  0  0
    4.2441   -0.6845    0.0000 C   0  0  0  0  0  0  0  0  0  0  0  0
    3.5254   -1.9509    0.0000 C   0  0  0  0  0  0  0  0  0  0  0  0
    4.2784   -6.4004    0.0000 C   0  0  0  0  0  0  0  0  0  0  0  0
    2.1221   -5.2025    0.0000 C   0  0  0  0  0  0  0  0  0  0  0  0
    6.3662   -3.5254    0.0000 C   0  0  0  0  0  0  0  0  0  0  0  0
    1.4033   -5.6132    0.0000 C   0  0  0  0  0  0  0  0  0  0  0  0
    4.9971   -6.8112    0.0000 C   0  0  0  0  0  0  0  0  0  0  0  0
    3.5596   -6.8112    0.0000 C   0  0  0  0  0  0  0  0  0  0  0  0
    0.7188   -5.2025    0.0000 C   0  0  0  0  0  0  0  0  0  0  0  0
    1.4033   -6.4347    0.0000 C   0  0  0  0  0  0  0  0  0  0  0  0
    0.0000   -5.6132    0.0000 C   0  0  0  0  0  0  0  0  0  0  0  0
    0.7188   -6.8454    0.0000 C   0  0  0  0  0  0  0  0  0  0  0  0
    0.0000   -6.4347    0.0000 C   0  0  0  0  0  0  0  0  0  0  0  0
  1  7  2  0  0  0  0
  1  8  2  0  0  0  0
  1 15  1  0  0  0  0
  1 25  1  0  0  0  0
  2 21  1  0  0  0  0
  3 21  1  0  0  0  0
  4 21  1  0  0  0  0
  5 10  1  0  0  0  0
  5 24  1  0  0  0  0
  6 16  2  0  0  0  0
  9 24  2  0  0  0  0
 10 16  1  0  0  0  0
 10 18  1  0  0  0  0
 11 12  1  0  0  0  0
 11 14  2  0  0  0  0
 12 18  2  0  0  0  0
 13 14  1  0  0  0  0
 13 15  1  0  0  0  0
 13 20  2  0  0  0  0
 14 16  1  0  0  0  0
 15 19  2  0  0  0  0
 17 19  1  0  0  0  0
 17 21  1  0  0  0  0
 17 22  2  0  0  0  0
 18 23  1  0  0  0  0
 20 22  1  0  0  0  0
 23 27  1  0  0  0  0
 23 28  1  0  0  0  0
 24 26  1  0  0  0  0
 26 29  2  0  0  0  0
 26 30  1  0  0  0  0
 29 31  1  0  0  0  0
 30 32  2  0  0  0  0
 31 33  2  0  0  0  0
 32 33  1  0  0  0  0
M  END
> <PUBCHEM_COMPOUND_ID_TYPE>
0

> <PUBCHEM_TOTAL_CHARGE>
0

> <PUBCHEM_SUBSTANCE_ID>
310938222

> <PUBCHEM_SUBSTANCE_VERSION>
1

> <PUBCHEM_EXT_DATASOURCE_NAME>
4488

> <PUBCHEM_EXT_DATASOURCE_REGID>
SCHEMBL16116083

> <PUBCHEM_SUBSTANCE_COMMENT>
InChI=1S/C21H18F3N3O5S/c1-12(2)18-26-25-17(19(28)27(18)32-20(29)13-7-5-4-6-8-13)15-10-9-14(21(22,23)24)11-16(15)33(3,30)31/h4-12H,1-3H3
InChIKey=BXOYMVKLPKFEOD-UHFFFAOYSA-N

> <PUBCHEM_SUBSTANCE_SYNONYM>
SCHEMBL16116083

> <PUBCHEM_XREF_EXT_ID>
SCHEMBL16116083

> <PUBCHEM_EXT_DATASOURCE_URL>
https://www.surechembl.org/

> <PUBCHEM_EXT_SUBSTANCE_URL>
https://www.surechembl.org/chemical/SCHEMBL16116083

> <PUBCHEM_CID_ASSOCIATIONS>
117605748  1

> <PUBCHEM_COORDINATE_TYPE>
1
3

$$$$
