310948961
  -OEChem-07211613022D

 50 52  0     1  0  0  0  0  0999 V2000
   -7.1993    1.5694    0.0000 S   0  0  0  0  0  0  0  0  0  0  0  0
   -4.2473    1.7313    0.0000 P   0  0  3  0  0  0  0  0  0  0  0  0
   -4.8950   -2.2794    0.0000 F   0  0  0  0  0  0  0  0  0  0  0  0
   -6.4146    0.4857    0.0000 O   0  0  0  0  0  0  0  0  0  0  0  0
   -4.9822    1.3078    0.0000 O   0  0  0  0  0  0  0  0  0  0  0  0
   -4.0481    0.9217    0.0000 O   0  0  0  0  0  0  0  0  0  0  0  0
   -4.2598    2.5534    0.0000 O   0  0  0  0  0  0  0  0  0  0  0  0
   -8.8061   -0.1993    0.0000 O   0  0  0  0  0  0  0  0  0  0  0  0
   -0.5480    2.5534    0.0000 O   0  0  0  0  0  0  0  0  0  0  0  0
   -7.3986   -0.5730    0.0000 N   0  0  0  0  0  0  0  0  0  0  0  0
   -8.4200   -1.5944    0.0000 N   0  0  0  0  0  0  0  0  0  0  0  0
   -3.4128    1.7313    0.0000 N   0  0  0  0  0  0  0  0  0  0  0  0
   -8.0463   -2.9769    0.0000 N   0  0  0  0  0  0  0  0  0  0  0  0
   -1.2456    1.3203    0.0000 N   0  0  0  0  0  0  0  0  0  0  0  0
   -7.1744    0.2242    0.0000 C   0  0  3  0  0  0  0  0  0  0  0  0
   -6.4022    1.3203    0.0000 C   0  0  3  0  0  0  0  0  0  0  0  0
   -8.1958   -0.7971    0.0000 C   0  0  0  0  0  0  0  0  0  0  0  0
   -7.6727    0.8968    0.0000 C   0  0  0  0  0  0  0  0  0  0  0  0
   -6.8256   -1.1584    0.0000 C   0  0  0  0  0  0  0  0  0  0  0  0
   -5.6797    1.7189    0.0000 C   0  0  0  0  0  0  0  0  0  0  0  0
   -7.8221   -2.1673    0.0000 C   0  0  0  0  0  0  0  0  0  0  0  0
   -7.0374   -1.9555    0.0000 C   0  0  0  0  0  0  0  0  0  0  0  0
   -4.2473    0.1246    0.0000 C   0  0  0  0  0  0  0  0  0  0  0  0
   -5.0445   -0.0997    0.0000 C   0  0  0  0  0  0  0  0  0  0  0  0
   -3.6619   -0.4608    0.0000 C   0  0  0  0  0  0  0  0  0  0  0  0
   -2.6904    1.3203    0.0000 C   0  0  0  0  0  0  0  0  0  0  0  0
   -4.6833   -1.4698    0.0000 C   0  0  0  0  0  0  0  0  0  0  0  0
   -5.2563   -0.8968    0.0000 C   0  0  0  0  0  0  0  0  0  0  0  0
   -3.8737   -1.2580    0.0000 C   0  0  0  0  0  0  0  0  0  0  0  0
   -1.9804    1.7313    0.0000 C   0  0  0  0  0  0  0  0  0  0  0  0
   -0.5480    1.7189    0.0000 C   0  0  0  0  0  0  0  0  0  0  0  0
    0.1868    1.3203    0.0000 C   0  0  0  0  0  0  0  0  0  0  0  0
    0.8968    1.7189    0.0000 C   0  0  0  0  0  0  0  0  0  0  0  0
    0.9093    2.5658    0.0000 C   0  0  0  0  0  0  0  0  0  0  0  0
    1.6067    2.9769    0.0000 C   0  0  0  0  0  0  0  0  0  0  0  0
    2.3417    2.5534    0.0000 C   0  0  0  0  0  0  0  0  0  0  0  0
    2.3417    1.7313    0.0000 C   0  0  0  0  0  0  0  0  0  0  0  0
    3.0640    1.3203    0.0000 C   0  0  0  0  0  0  0  0  0  0  0  0
    3.7740    1.7189    0.0000 C   0  0  0  0  0  0  0  0  0  0  0  0
    3.7865    2.5658    0.0000 C   0  0  0  0  0  0  0  0  0  0  0  0
    4.4965    2.9769    0.0000 C   0  0  0  0  0  0  0  0  0  0  0  0
    5.2189    2.5534    0.0000 C   0  0  0  0  0  0  0  0  0  0  0  0
    5.2189    1.7313    0.0000 C   0  0  0  0  0  0  0  0  0  0  0  0
    5.9413    1.3203    0.0000 C   0  0  0  0  0  0  0  0  0  0  0  0
    6.6513    1.7189    0.0000 C   0  0  0  0  0  0  0  0  0  0  0  0
    6.6637    2.5658    0.0000 C   0  0  0  0  0  0  0  0  0  0  0  0
    7.3737    2.9769    0.0000 C   0  0  0  0  0  0  0  0  0  0  0  0
    8.0961    2.5534    0.0000 C   0  0  0  0  0  0  0  0  0  0  0  0
    8.0961    1.7313    0.0000 C   0  0  0  0  0  0  0  0  0  0  0  0
    8.8061    1.3203    0.0000 C   0  0  0  0  0  0  0  0  0  0  0  0
  1 16  1  0  0  0  0
  1 18  1  0  0  0  0
  2  5  1  0  0  0  0
  2  6  1  0  0  0  0
  2  7  2  0  0  0  0
  2 12  1  0  0  0  0
  3 27  1  0  0  0  0
  4 15  1  0  0  0  0
  4 16  1  0  0  0  0
  5 20  1  0  0  0  0
  6 23  1  0  0  0  0
  8 17  2  0  0  0  0
  9 31  2  0  0  0  0
 10 15  1  0  0  0  0
 10 17  1  0  0  0  0
 10 19  1  0  0  0  0
 11 17  1  0  0  0  0
 11 21  2  0  0  0  0
 12 26  1  0  0  0  0
 13 21  1  0  0  0  0
 14 30  1  0  0  0  0
 14 31  1  0  0  0  0
 15 18  1  0  0  0  0
 16 20  1  6  0  0  0
 19 22  2  0  0  0  0
 21 22  1  0  0  0  0
 23 24  2  0  0  0  0
 23 25  1  0  0  0  0
 24 28  1  0  0  0  0
 25 29  2  0  0  0  0
 26 30  1  0  0  0  0
 27 28  2  0  0  0  0
 27 29  1  0  0  0  0
 31 32  1  0  0  0  0
 32 33  1  0  0  0  0
 33 34  1  0  0  0  0
 34 35  1  0  0  0  0
 35 36  2  0  0  0  0
 36 37  1  0  0  0  0
 37 38  1  0  0  0  0
 38 39  2  0  0  0  0
 39 40  1  0  0  0  0
 40 41  1  0  0  0  0
 41 42  2  0  0  0  0
 42 43  1  0  0  0  0
 43 44  1  0  0  0  0
 44 45  2  0  0  0  0
 45 46  1  0  0  0  0
 46 47  1  0  0  0  0
 47 48  2  0  0  0  0
 48 49  1  0  0  0  0
 49 50  1  0  0  0  0
M  END
> <PUBCHEM_COMPOUND_ID_TYPE>
0

> <PUBCHEM_TOTAL_CHARGE>
0

> <PUBCHEM_SUBSTANCE_ID>
310948961

> <PUBCHEM_SUBSTANCE_VERSION>
1

> <PUBCHEM_EXT_DATASOURCE_NAME>
4488

> <PUBCHEM_EXT_DATASOURCE_REGID>
SCHEMBL16127149

> <PUBCHEM_SUBSTANCE_COMMENT>
InChI=1S/C36H49FN5O6PS/c1-2-3-4-5-6-7-8-9-10-11-12-13-14-15-16-17-18-19-33(43)39-25-26-40-49(45,48-31-22-20-30(37)21-23-31)46-28-35-47-34(29-50-35)42-27-24-32(38)41-36(42)44/h3-4,6-7,9-10,12-13,15-16,20-24,27,34-35H,2,5,8,11,14,17-19,25-26,28-29H2,1H3,(H,39,43)(H,40,45)(H2,38,41,44)/b4-3-,7-6-,10-9-,13-12-,16-15-/t34?,35-,49?/m1/s1
InChIKey=ORIPBZXATRUOIE-XRKUFJHLSA-N

> <PUBCHEM_SUBSTANCE_SYNONYM>
SCHEMBL16127149

> <PUBCHEM_XREF_EXT_ID>
SCHEMBL16127149

> <PUBCHEM_EXT_DATASOURCE_URL>
https://www.surechembl.org/

> <PUBCHEM_EXT_SUBSTANCE_URL>
https://www.surechembl.org/chemical/SCHEMBL16127149

> <PUBCHEM_CID_ASSOCIATIONS>
117614470  1

> <PUBCHEM_COORDINATE_TYPE>
1
3

> <PUBCHEM_BONDANNOTATIONS>
16  20  6

$$$$
