310943017
  -OEChem-07211613022D

 34 38  0     1  0  0  0  0  0999 V2000
   -2.5715   -3.2713    0.0000 F   0  0  0  0  0  0  0  0  0  0  0  0
   -2.8414   -2.4788    0.0000 F   0  0  0  0  0  0  0  0  0  0  0  0
   -2.2848   -1.8549    0.0000 F   0  0  0  0  0  0  0  0  0  0  0  0
   -0.8009   -0.5059    0.0000 O   0  0  0  0  0  0  0  0  0  0  0  0
    0.5817    4.0976    0.0000 O   0  0  0  0  0  0  0  0  0  0  0  0
    0.6661    1.8718    0.0000 N   0  0  0  0  0  0  0  0  0  0  0  0
    1.1720    1.1973    0.0000 N   0  0  0  0  0  0  0  0  0  0  0  0
    0.9696   -0.2698    0.0000 N   0  0  0  0  0  0  0  0  0  0  0  0
   -1.5260    0.7419    0.0000 N   0  0  0  0  0  0  0  0  0  0  0  0
   -0.9359   -3.5917    0.0000 N   0  0  0  0  0  0  0  0  0  0  0  0
    2.8414    1.6356    0.0000 N   0  0  0  0  0  0  0  0  0  0  0  0
   -0.1096    0.7757    0.0000 C   0  0  0  0  0  0  0  0  0  0  0  0
   -0.0927    1.6188    0.0000 C   0  0  0  0  0  0  0  0  0  0  0  0
    0.6829    0.5059    0.0000 C   0  0  0  0  0  0  0  0  0  0  0  0
    0.9190    2.6980    0.0000 C   0  0  3  0  0  0  0  0  0  0  0  0
   -0.8178    0.3541    0.0000 C   0  0  0  0  0  0  0  0  0  0  0  0
   -0.8515    2.0067    0.0000 C   0  0  0  0  0  0  0  0  0  0  0  0
    1.7284    2.8667    0.0000 C   0  0  3  0  0  0  0  0  0  0  0  0
    0.4131   -0.8937    0.0000 C   0  0  0  0  0  0  0  0  0  0  0  0
   -1.5260    1.5851    0.0000 C   0  0  0  0  0  0  0  0  0  0  0  0
    0.3457    3.2882    0.0000 C   0  0  0  0  0  0  0  0  0  0  0  0
   -1.2226   -2.7992    0.0000 C   0  0  3  0  0  0  0  0  0  0  0  0
   -0.6661   -2.1416    0.0000 C   0  0  0  0  0  0  0  0  0  0  0  0
   -2.0488   -2.6306    0.0000 C   0  0  0  0  0  0  0  0  0  0  0  0
   -0.3963   -0.7419    0.0000 C   0  0  0  0  0  0  0  0  0  0  0  0
    0.6829   -1.6862    0.0000 C   0  0  0  0  0  0  0  0  0  0  0  0
    1.9645    3.6592    0.0000 C   0  0  0  0  0  0  0  0  0  0  0  0
   -0.9190   -1.3658    0.0000 C   0  0  0  0  0  0  0  0  0  0  0  0
    0.1433   -2.3102    0.0000 C   0  0  0  0  0  0  0  0  0  0  0  0
    2.2679    2.2427    0.0000 C   0  0  0  0  0  0  0  0  0  0  0  0
   -0.1265   -3.7435    0.0000 C   0  0  0  0  0  0  0  0  0  0  0  0
    1.4080    4.2662    0.0000 C   0  0  0  0  0  0  0  0  0  0  0  0
    0.6323   -3.4905    0.0000 C   0  0  0  0  0  0  0  0  0  0  0  0
    0.4974   -4.2662    0.0000 C   0  0  0  0  0  0  0  0  0  0  0  0
  1 24  1  0  0  0  0
  2 24  1  0  0  0  0
  3 24  1  0  0  0  0
  4 16  2  0  0  0  0
  5 21  1  0  0  0  0
  5 32  1  0  0  0  0
  6  7  1  0  0  0  0
  6 13  1  0  0  0  0
 15  6  1  1  0  0  0
  7 14  2  0  0  0  0
  8 14  1  0  0  0  0
  8 19  1  0  0  0  0
  9 16  1  0  0  0  0
  9 20  1  0  0  0  0
 10 22  1  0  0  0  0
 10 31  1  0  0  0  0
 11 30  3  0  0  0  0
 12 13  2  0  0  0  0
 12 14  1  0  0  0  0
 12 16  1  0  0  0  0
 13 17  1  0  0  0  0
 15 18  1  0  0  0  0
 15 21  1  0  0  0  0
 17 20  2  0  0  0  0
 18 27  1  0  0  0  0
 18 30  1  6  0  0  0
 19 25  2  0  0  0  0
 19 26  1  0  0  0  0
 22 23  1  0  0  0  0
 22 24  1  0  0  0  0
 23 28  2  0  0  0  0
 23 29  1  0  0  0  0
 25 28  1  0  0  0  0
 26 29  2  0  0  0  0
 27 32  1  0  0  0  0
 31 33  1  0  0  0  0
 31 34  1  0  0  0  0
 33 34  1  0  0  0  0
M  END
> <PUBCHEM_COMPOUND_ID_TYPE>
0

> <PUBCHEM_TOTAL_CHARGE>
0

> <PUBCHEM_SUBSTANCE_ID>
310943017

> <PUBCHEM_SUBSTANCE_VERSION>
1

> <PUBCHEM_EXT_DATASOURCE_NAME>
4488

> <PUBCHEM_EXT_DATASOURCE_REGID>
SCHEMBL16121076

> <PUBCHEM_SUBSTANCE_COMMENT>
InChI=1S/C23H23F3N6O2/c24-23(25,26)20(29-15-5-6-15)13-1-3-16(4-2-13)30-21-19-17(7-9-28-22(19)33)32(31-21)18-12-34-10-8-14(18)11-27/h1-4,7,9,14-15,18,20,29H,5-6,8,10,12H2,(H,28,33)(H,30,31)/t14-,18+,20?/m1/s1
InChIKey=UVJKFXUPMZJTBX-KJOMBKDJSA-N

> <PUBCHEM_SUBSTANCE_SYNONYM>
SCHEMBL16121076

> <PUBCHEM_XREF_EXT_ID>
SCHEMBL16121076

> <PUBCHEM_EXT_DATASOURCE_URL>
https://www.surechembl.org/

> <PUBCHEM_EXT_SUBSTANCE_URL>
https://www.surechembl.org/chemical/SCHEMBL16121076

> <PUBCHEM_CID_ASSOCIATIONS>
117609463  1

> <PUBCHEM_COORDINATE_TYPE>
1
3

> <PUBCHEM_BONDANNOTATIONS>
18  30  6
15  6  5

$$$$
