310941494
  -OEChem-07211613022D

 27 30  0     0  0  0  0  0  0999 V2000
    0.2635    1.7628    0.0000 S   0  0  0  0  0  0  0  0  0  0  0  0
   -3.5709   -1.7628    0.0000 F   0  0  0  0  0  0  0  0  0  0  0  0
   -2.1171   -0.9087    0.0000 O   0  0  0  0  0  0  0  0  0  0  0  0
   -0.6633   -0.9087    0.0000 O   0  0  0  0  0  0  0  0  0  0  0  0
    4.2434    0.0000    0.0000 O   0  0  0  0  0  0  0  0  0  0  0  0
    4.2615   -1.3812    0.0000 O   0  0  0  0  0  0  0  0  0  0  0  0
    0.1181    0.4180    0.0000 N   0  0  0  0  0  0  0  0  0  0  0  0
    1.4992    0.9450    0.0000 N   0  0  0  0  0  0  0  0  0  0  0  0
   -1.3721    0.3453    0.0000 C   0  0  0  0  0  0  0  0  0  0  0  0
   -0.6633    0.7632    0.0000 C   0  0  0  0  0  0  0  0  0  0  0  0
   -2.8440   -0.4907    0.0000 C   0  0  0  0  0  0  0  0  0  0  0  0
   -2.8258    0.3453    0.0000 C   0  0  0  0  0  0  0  0  0  0  0  0
   -1.4084   -0.4907    0.0000 C   0  0  0  0  0  0  0  0  0  0  0  0
   -2.1171    0.7451    0.0000 C   0  0  0  0  0  0  0  0  0  0  0  0
    0.6633    1.0540    0.0000 C   0  0  0  0  0  0  0  0  0  0  0  0
   -3.5527   -0.9087    0.0000 C   0  0  0  0  0  0  0  0  0  0  0  0
   -0.5543    1.5810    0.0000 C   0  0  0  0  0  0  0  0  0  0  0  0
   -3.5346    0.7451    0.0000 C   0  0  0  0  0  0  0  0  0  0  0  0
   -4.2615   -0.5089    0.0000 C   0  0  0  0  0  0  0  0  0  0  0  0
    1.8264    0.2180    0.0000 C   0  0  0  0  0  0  0  0  0  0  0  0
   -4.2615    0.3453    0.0000 C   0  0  0  0  0  0  0  0  0  0  0  0
    2.6805    0.0727    0.0000 C   0  0  0  0  0  0  0  0  0  0  0  0
    3.0076   -0.6542    0.0000 C   0  0  0  0  0  0  0  0  0  0  0  0
    1.3721   -0.5089    0.0000 C   0  0  0  0  0  0  0  0  0  0  0  0
    2.5351   -1.3266    0.0000 C   0  0  0  0  0  0  0  0  0  0  0  0
    1.7173   -1.2539    0.0000 C   0  0  0  0  0  0  0  0  0  0  0  0
    3.8436   -0.6724    0.0000 C   0  0  0  0  0  0  0  0  0  0  0  0
  1 15  1  0  0  0  0
  1 17  1  0  0  0  0
  2 16  1  0  0  0  0
  3 11  1  0  0  0  0
  3 13  1  0  0  0  0
  4 13  2  0  0  0  0
  5 27  2  0  0  0  0
  6 27  1  0  0  0  0
  7 10  1  0  0  0  0
  7 15  2  0  0  0  0
  8 15  1  0  0  0  0
  8 20  1  0  0  0  0
  9 10  1  0  0  0  0
  9 13  1  0  0  0  0
  9 14  2  0  0  0  0
 10 17  2  0  0  0  0
 11 12  1  0  0  0  0
 11 16  2  0  0  0  0
 12 14  1  0  0  0  0
 12 18  2  0  0  0  0
 16 19  1  0  0  0  0
 18 21  1  0  0  0  0
 19 21  2  0  0  0  0
 20 22  1  0  0  0  0
 20 24  2  0  0  0  0
 22 23  2  0  0  0  0
 23 25  1  0  0  0  0
 23 27  1  0  0  0  0
 24 26  1  0  0  0  0
 25 26  2  0  0  0  0
M  END
> <PUBCHEM_COMPOUND_ID_TYPE>
0

> <PUBCHEM_TOTAL_CHARGE>
0

> <PUBCHEM_SUBSTANCE_ID>
310941494

> <PUBCHEM_SUBSTANCE_VERSION>
1

> <PUBCHEM_EXT_DATASOURCE_NAME>
4488

> <PUBCHEM_EXT_DATASOURCE_REGID>
SCHEMBL16119525

> <PUBCHEM_SUBSTANCE_COMMENT>
InChI=1S/C19H11FN2O4S/c20-14-6-2-3-10-8-13(18(25)26-16(10)14)15-9-27-19(22-15)21-12-5-1-4-11(7-12)17(23)24/h1-9H,(H,21,22)(H,23,24)
InChIKey=PACGPVIDKYVPRN-UHFFFAOYSA-N

> <PUBCHEM_SUBSTANCE_SYNONYM>
SCHEMBL16119525

> <PUBCHEM_XREF_EXT_ID>
SCHEMBL16119525

> <PUBCHEM_EXT_DATASOURCE_URL>
https://www.surechembl.org/

> <PUBCHEM_EXT_SUBSTANCE_URL>
https://www.surechembl.org/chemical/SCHEMBL16119525

> <PUBCHEM_CID_ASSOCIATIONS>
117608314  1

> <PUBCHEM_COORDINATE_TYPE>
1
3

$$$$
