310936010
  -OEChem-07211613022D

 25 26  0     0  0  0  0  0  0999 V2000
    2.8695   -2.5108    0.0000 O   0  0  0  0  0  0  0  0  0  0  0  0
    7.8911   -1.2554    0.0000 O   0  0  0  0  0  0  0  0  0  0  0  0
    7.1738    0.0000    0.0000 O   0  0  0  0  0  0  0  0  0  0  0  0
    3.5869   -1.2554    0.0000 C   0  0  0  0  0  0  0  0  0  0  0  0
    4.3042   -0.8608    0.0000 C   0  0  0  0  0  0  0  0  0  0  0  0
    3.5869   -2.0804    0.0000 C   0  0  0  0  0  0  0  0  0  0  0  0
    5.0216   -1.2554    0.0000 C   0  0  0  0  0  0  0  0  0  0  0  0
    4.3042   -2.5108    0.0000 C   0  0  0  0  0  0  0  0  0  0  0  0
    5.0216   -2.0804    0.0000 C   0  0  0  0  0  0  0  0  0  0  0  0
    5.7390   -0.8250    0.0000 C   0  0  0  0  0  0  0  0  0  0  0  0
    2.8695   -0.8250    0.0000 C   0  0  0  0  0  0  0  0  0  0  0  0
    4.3042    0.0000    0.0000 C   0  0  0  0  0  0  0  0  0  0  0  0
    2.1521   -2.0804    0.0000 C   0  0  0  0  0  0  0  0  0  0  0  0
    1.4347   -2.4749    0.0000 C   0  0  0  0  0  0  0  0  0  0  0  0
    6.4922   -1.2554    0.0000 C   0  0  0  0  0  0  0  0  0  0  0  0
    7.1738   -0.8608    0.0000 C   0  0  0  0  0  0  0  0  0  0  0  0
    0.7532   -2.0804    0.0000 C   0  0  0  0  0  0  0  0  0  0  0  0
    1.4347   -3.2999    0.0000 C   0  0  0  0  0  0  0  0  0  0  0  0
    0.0000   -2.4749    0.0000 C   0  0  0  0  0  0  0  0  0  0  0  0
    0.7174   -3.7303    0.0000 C   0  0  0  0  0  0  0  0  0  0  0  0
    0.0000   -3.2999    0.0000 C   0  0  0  0  0  0  0  0  0  0  0  0
    8.6085   -0.8608    0.0000 C   0  0  0  0  0  0  0  0  0  0  0  0
    9.3259   -1.2554    0.0000 C   0  0  0  0  0  0  0  0  0  0  0  0
   10.0433   -0.8608    0.0000 C   0  0  0  0  0  0  0  0  0  0  0  0
   10.7606   -1.2554    0.0000 C   0  0  0  0  0  0  0  0  0  0  0  0
  1  6  1  0  0  0  0
  1 13  1  0  0  0  0
  2 16  1  0  0  0  0
  2 22  1  0  0  0  0
  3 16  2  0  0  0  0
  4  5  2  0  0  0  0
  4  6  1  0  0  0  0
  4 11  1  0  0  0  0
  5  7  1  0  0  0  0
  5 12  1  0  0  0  0
  6  8  2  0  0  0  0
  7  9  2  0  0  0  0
  7 10  1  0  0  0  0
  8  9  1  0  0  0  0
 10 15  2  0  0  0  0
 13 14  1  0  0  0  0
 14 17  2  0  0  0  0
 14 18  1  0  0  0  0
 15 16  1  0  0  0  0
 17 19  1  0  0  0  0
 18 20  2  0  0  0  0
 19 21  2  0  0  0  0
 20 21  1  0  0  0  0
 22 23  1  0  0  0  0
 23 24  1  0  0  0  0
 24 25  1  0  0  0  0
M  END
> <PUBCHEM_COMPOUND_ID_TYPE>
0

> <PUBCHEM_TOTAL_CHARGE>
0

> <PUBCHEM_SUBSTANCE_ID>
310936010

> <PUBCHEM_SUBSTANCE_VERSION>
1

> <PUBCHEM_EXT_DATASOURCE_NAME>
4488

> <PUBCHEM_EXT_DATASOURCE_REGID>
SCHEMBL16113612

> <PUBCHEM_SUBSTANCE_COMMENT>
InChI=1S/C22H26O3/c1-4-5-15-24-22(23)14-12-20-11-13-21(18(3)17(20)2)25-16-19-9-7-6-8-10-19/h6-14H,4-5,15-16H2,1-3H3/b14-12+
InChIKey=KOVPZKKVNCZMLE-WYMLVPIESA-N

> <PUBCHEM_SUBSTANCE_SYNONYM>
SCHEMBL16113612

> <PUBCHEM_XREF_EXT_ID>
SCHEMBL16113612

> <PUBCHEM_EXT_DATASOURCE_URL>
https://www.surechembl.org/

> <PUBCHEM_EXT_SUBSTANCE_URL>
https://www.surechembl.org/chemical/SCHEMBL16113612

> <PUBCHEM_CID_ASSOCIATIONS>
117603979  1

> <PUBCHEM_COORDINATE_TYPE>
1
3

$$$$
