310937649
  -OEChem-07211613022D

 15 16  0     0  0  0  0  0  0999 V2000
    0.5610   -2.4869    0.0000 Br  0  0  0  0  0  0  0  0  0  0  0  0
    4.5491   -2.8962    0.0000 O   0  0  0  0  0  0  0  0  0  0  0  0
    4.5491   -1.4861    0.0000 O   0  0  0  0  0  0  0  0  0  0  0  0
    2.8507   -2.8507    0.0000 N   0  0  0  0  0  0  0  0  0  0  0  0
    0.0910   -0.3640    0.0000 N   0  0  0  0  0  0  0  0  0  0  0  0
    2.0774   -1.7893    0.0000 C   0  0  0  0  0  0  0  0  0  0  0  0
    1.4102   -1.3040    0.0000 C   0  0  0  0  0  0  0  0  0  0  0  0
    3.3360   -2.1835    0.0000 C   0  0  0  0  0  0  0  0  0  0  0  0
    2.8507   -1.5163    0.0000 C   0  0  0  0  0  0  0  0  0  0  0  0
    0.6521   -1.6680    0.0000 C   0  0  0  0  0  0  0  0  0  0  0  0
    2.0774   -2.5930    0.0000 C   0  0  0  0  0  0  0  0  0  0  0  0
    1.5012   -0.5155    0.0000 C   0  0  0  0  0  0  0  0  0  0  0  0
    4.1548   -2.1835    0.0000 C   0  0  0  0  0  0  0  0  0  0  0  0
    0.0000   -1.1525    0.0000 C   0  0  0  0  0  0  0  0  0  0  0  0
    0.8340    0.0000    0.0000 C   0  0  0  0  0  0  0  0  0  0  0  0
  1 10  1  0  0  0  0
  2 13  2  0  0  0  0
  3 13  1  0  0  0  0
  4  8  1  0  0  0  0
  4 11  1  0  0  0  0
  5 14  1  0  0  0  0
  5 15  2  0  0  0  0
  6  7  1  0  0  0  0
  6  9  1  0  0  0  0
  6 11  2  0  0  0  0
  7 10  1  0  0  0  0
  7 12  2  0  0  0  0
  8  9  2  0  0  0  0
  8 13  1  0  0  0  0
 10 14  2  0  0  0  0
 12 15  1  0  0  0  0
M  END
> <PUBCHEM_COMPOUND_ID_TYPE>
0

> <PUBCHEM_TOTAL_CHARGE>
0

> <PUBCHEM_SUBSTANCE_ID>
310937649

> <PUBCHEM_SUBSTANCE_VERSION>
1

> <PUBCHEM_EXT_DATASOURCE_NAME>
4488

> <PUBCHEM_EXT_DATASOURCE_REGID>
SCHEMBL16115438

> <PUBCHEM_SUBSTANCE_COMMENT>
InChI=1S/C10H7BrN2O2/c11-8-5-12-2-1-7(8)6-3-9(10(14)15)13-4-6/h1-5,13H,(H,14,15)
InChIKey=LACDHIMMJMJTDY-UHFFFAOYSA-N

> <PUBCHEM_SUBSTANCE_SYNONYM>
SCHEMBL16115438

> <PUBCHEM_XREF_EXT_ID>
SCHEMBL16115438

> <PUBCHEM_EXT_DATASOURCE_URL>
https://www.surechembl.org/

> <PUBCHEM_EXT_SUBSTANCE_URL>
https://www.surechembl.org/chemical/SCHEMBL16115438

> <PUBCHEM_CID_ASSOCIATIONS>
117605339  1

> <PUBCHEM_COORDINATE_TYPE>
1
3

$$$$
