310935153
  -OEChem-07211613022D

 39 44  0     1  0  0  0  0  0999 V2000
    3.2652   -5.8135    0.0000 O   0  0  0  0  0  0  0  0  0  0  0  0
    6.8208   -5.6322    0.0000 O   0  0  0  0  0  0  0  0  0  0  0  0
    6.2396   -6.9375    0.0000 O   0  0  0  0  0  0  0  0  0  0  0  0
   -0.3020   -2.9196    0.0000 N   0  0  0  0  0  0  0  0  0  0  0  0
   -1.1270   -2.9196    0.0000 N   0  0  0  0  0  0  0  0  0  0  0  0
    0.7599   -1.9634    0.0000 N   0  0  0  0  0  0  0  0  0  0  0  0
    0.7144    0.8250    0.0000 N   0  0  0  0  0  0  0  0  0  0  0  0
    2.4160   -3.8027    0.0000 N   0  0  0  0  0  0  0  0  0  0  0  0
    5.3997   -5.7815    0.0000 N   0  0  0  0  0  0  0  0  0  0  0  0
   -0.7144   -1.6500    0.0000 C   0  0  0  0  0  0  0  0  0  0  0  0
   -0.0470   -2.1349    0.0000 C   0  0  0  0  0  0  0  0  0  0  0  0
   -0.7144   -0.8250    0.0000 C   0  0  0  0  0  0  0  0  0  0  0  0
    0.0000   -0.4125    0.0000 C   0  0  0  0  0  0  0  0  0  0  0  0
   -1.3819   -2.1349    0.0000 C   0  0  0  0  0  0  0  0  0  0  0  0
    1.0571   -3.3611    0.0000 C   0  0  0  0  0  0  0  0  0  0  0  0
    0.0000    0.4125    0.0000 C   0  0  0  0  0  0  0  0  0  0  0  0
    0.2500   -3.5327    0.0000 C   0  0  0  0  0  0  0  0  0  0  0  0
   -1.4290   -0.4125    0.0000 C   0  0  0  0  0  0  0  0  0  0  0  0
    1.3120   -2.5765    0.0000 C   0  0  0  0  0  0  0  0  0  0  0  0
    1.6090   -3.9742    0.0000 C   0  0  0  0  0  0  0  0  0  0  0  0
    0.7144   -0.8250    0.0000 C   0  0  0  0  0  0  0  0  0  0  0  0
   -0.7144    0.8250    0.0000 C   0  0  0  0  0  0  0  0  0  0  0  0
   -1.4290    0.4125    0.0000 C   0  0  0  0  0  0  0  0  0  0  0  0
    1.4290    0.4125    0.0000 C   0  0  0  0  0  0  0  0  0  0  0  0
    1.4290   -0.4125    0.0000 C   0  0  0  0  0  0  0  0  0  0  0  0
    1.3541   -4.7588    0.0000 C   0  0  0  0  0  0  0  0  0  0  0  0
    2.7131   -5.2004    0.0000 C   0  0  0  0  0  0  0  0  0  0  0  0
    4.0721   -5.6419    0.0000 C   0  0  3  0  0  0  0  0  0  0  0  0
    2.9681   -4.4158    0.0000 C   0  0  0  0  0  0  0  0  0  0  0  0
    1.9062   -5.3719    0.0000 C   0  0  0  0  0  0  0  0  0  0  0  0
    4.6852   -6.1940    0.0000 C   0  0  0  0  0  0  0  0  0  0  0  0
    6.1534   -6.1171    0.0000 C   0  0  0  0  0  0  0  0  0  0  0  0
    4.4077   -4.8883    0.0000 C   0  0  0  0  0  0  0  0  0  0  0  0
    5.2282   -4.9745    0.0000 C   0  0  0  0  0  0  0  0  0  0  0  0
    2.1434    0.8250    0.0000 C   0  0  0  0  0  0  0  0  0  0  0  0
    7.5745   -5.9677    0.0000 C   0  0  0  0  0  0  0  0  0  0  0  0
    8.3281   -6.3032    0.0000 C   0  0  0  0  0  0  0  0  0  0  0  0
    7.6607   -6.7882    0.0000 C   0  0  0  0  0  0  0  0  0  0  0  0
    8.2419   -5.4828    0.0000 C   0  0  0  0  0  0  0  0  0  0  0  0
  1 27  1  0  0  0  0
 28  1  1  1  0  0  0
  2 32  1  0  0  0  0
  2 36  1  0  0  0  0
  3 32  2  0  0  0  0
  4  5  1  0  0  0  0
  4 11  1  0  0  0  0
  4 17  1  0  0  0  0
  5 14  2  0  0  0  0
  6 11  1  0  0  0  0
  6 19  2  0  0  0  0
  7 16  1  0  0  0  0
  7 24  2  0  0  0  0
  8 20  1  0  0  0  0
  8 29  2  0  0  0  0
  9 31  1  0  0  0  0
  9 32  1  0  0  0  0
  9 34  1  0  0  0  0
 10 11  2  0  0  0  0
 10 12  1  0  0  0  0
 10 14  1  0  0  0  0
 12 13  2  0  0  0  0
 12 18  1  0  0  0  0
 13 16  1  0  0  0  0
 13 21  1  0  0  0  0
 15 17  2  0  0  0  0
 15 19  1  0  0  0  0
 15 20  1  0  0  0  0
 16 22  2  0  0  0  0
 18 23  2  0  0  0  0
 20 26  2  0  0  0  0
 21 25  2  0  0  0  0
 22 23  1  0  0  0  0
 24 25  1  0  0  0  0
 24 35  1  0  0  0  0
 26 30  1  0  0  0  0
 27 29  1  0  0  0  0
 27 30  2  0  0  0  0
 28 31  1  0  0  0  0
 28 33  1  0  0  0  0
 33 34  1  0  0  0  0
 36 37  1  0  0  0  0
 36 38  1  0  0  0  0
 36 39  1  0  0  0  0
M  END
> <PUBCHEM_COMPOUND_ID_TYPE>
0

> <PUBCHEM_TOTAL_CHARGE>
0

> <PUBCHEM_SUBSTANCE_ID>
310935153

> <PUBCHEM_SUBSTANCE_VERSION>
1

> <PUBCHEM_EXT_DATASOURCE_NAME>
4488

> <PUBCHEM_EXT_DATASOURCE_REGID>
SCHEMBL16112681

> <PUBCHEM_SUBSTANCE_COMMENT>
InChI=1S/C30H30N6O3/c1-19-8-10-24-23(6-5-7-27(24)34-19)25-16-33-36-17-20(14-32-28(25)36)26-11-9-21(15-31-26)38-22-12-13-35(18-22)29(37)39-30(2,3)4/h5-11,14-17,22H,12-13,18H2,1-4H3/t22-/m0/s1
InChIKey=YAMWWIALUNLEPN-QFIPXVFZSA-N

> <PUBCHEM_SUBSTANCE_SYNONYM>
SCHEMBL16112681

> <PUBCHEM_XREF_EXT_ID>
SCHEMBL16112681

> <PUBCHEM_EXT_DATASOURCE_URL>
https://www.surechembl.org/

> <PUBCHEM_EXT_SUBSTANCE_URL>
https://www.surechembl.org/chemical/SCHEMBL16112681

> <PUBCHEM_CID_ASSOCIATIONS>
117603238  1

> <PUBCHEM_COORDINATE_TYPE>
1
3

> <PUBCHEM_BONDANNOTATIONS>
28  1  5

$$$$
