310944603
  -OEChem-07211613022D

 29 31  0     1  0  0  0  0  0999 V2000
   -3.0291   -0.2226    0.0000 Cl  0  0  0  0  0  0  0  0  0  0  0  0
   -0.0124   -0.2226    0.0000 O   0  0  0  0  0  0  0  0  0  0  0  0
    1.4095    2.2502    0.0000 O   0  0  0  0  0  0  0  0  0  0  0  0
    4.2778   -1.0510    0.0000 O   0  0  0  0  0  0  0  0  0  0  0  0
    0.0000    1.4218    0.0000 N   0  0  0  0  0  0  0  0  0  0  0  0
    2.1513    1.0138    0.0000 N   0  0  0  0  0  0  0  0  0  0  0  0
    2.8684   -1.0510    0.0000 N   0  0  0  0  0  0  0  0  0  0  0  0
   -2.1389    1.0138    0.0000 C   0  0  0  0  0  0  0  0  0  0  0  0
   -0.7171    1.0262    0.0000 C   0  0  0  0  0  0  0  0  0  0  0  0
   -2.1513    0.1978    0.0000 C   0  0  0  0  0  0  0  0  0  0  0  0
   -0.7294    0.1978    0.0000 C   0  0  0  0  0  0  0  0  0  0  0  0
   -1.4218    1.4218    0.0000 C   0  0  0  0  0  0  0  0  0  0  0  0
   -2.8684    1.4342    0.0000 C   0  0  0  0  0  0  0  0  0  0  0  0
   -1.4342   -0.2102    0.0000 C   0  0  0  0  0  0  0  0  0  0  0  0
    1.4095    1.4218    0.0000 C   0  0  0  0  0  0  0  0  0  0  0  0
    0.7171    1.0138    0.0000 C   0  0  0  0  0  0  0  0  0  0  0  0
   -3.5855    1.0262    0.0000 C   0  0  0  0  0  0  0  0  0  0  0  0
   -2.8561    2.2502    0.0000 C   0  0  0  0  0  0  0  0  0  0  0  0
    2.8684   -0.2102    0.0000 C   0  0  3  0  0  0  0  0  0  0  0  0
    2.1636    0.1855    0.0000 C   0  0  0  0  0  0  0  0  0  0  0  0
    2.8561    1.4218    0.0000 C   0  0  0  0  0  0  0  0  0  0  0  0
    3.5731    0.1855    0.0000 C   0  0  0  0  0  0  0  0  0  0  0  0
    3.5731    1.0138    0.0000 C   0  0  0  0  0  0  0  0  0  0  0  0
   -4.2778    1.4342    0.0000 C   0  0  0  0  0  0  0  0  0  0  0  0
   -3.5608    2.6582    0.0000 C   0  0  0  0  0  0  0  0  0  0  0  0
   -4.2778    2.2502    0.0000 C   0  0  0  0  0  0  0  0  0  0  0  0
    3.5608   -1.4589    0.0000 C   0  0  0  0  0  0  0  0  0  0  0  0
    3.5731   -2.2873    0.0000 C   0  0  0  0  0  0  0  0  0  0  0  0
    2.8313   -2.6582    0.0000 C   0  0  0  0  0  0  0  0  0  0  0  0
  1 10  1  0  0  0  0
  2 11  1  0  0  0  0
  3 15  2  0  0  0  0
  4 27  2  0  0  0  0
  5  9  1  0  0  0  0
  5 16  1  0  0  0  0
  6 15  1  0  0  0  0
  6 20  1  0  0  0  0
  6 21  1  0  0  0  0
 19  7  1  1  0  0  0
  7 27  1  0  0  0  0
  8 10  2  0  0  0  0
  8 12  1  0  0  0  0
  8 13  1  0  0  0  0
  9 11  1  0  0  0  0
  9 12  2  0  0  0  0
 10 14  1  0  0  0  0
 11 14  2  0  0  0  0
 13 17  2  0  0  0  0
 13 18  1  0  0  0  0
 15 16  1  0  0  0  0
 17 24  1  0  0  0  0
 18 25  2  0  0  0  0
 19 20  1  0  0  0  0
 19 22  1  0  0  0  0
 21 23  1  0  0  0  0
 22 23  1  0  0  0  0
 24 26  2  0  0  0  0
 25 26  1  0  0  0  0
 27 28  1  0  0  0  0
 28 29  2  0  0  0  0
M  END
> <PUBCHEM_COMPOUND_ID_TYPE>
0

> <PUBCHEM_TOTAL_CHARGE>
0

> <PUBCHEM_SUBSTANCE_ID>
310944603

> <PUBCHEM_SUBSTANCE_VERSION>
1

> <PUBCHEM_EXT_DATASOURCE_NAME>
4488

> <PUBCHEM_EXT_DATASOURCE_REGID>
SCHEMBL16122681

> <PUBCHEM_SUBSTANCE_COMMENT>
InChI=1S/C22H24ClN3O3/c1-2-21(28)25-16-9-6-10-26(14-16)22(29)13-24-19-11-17(18(23)12-20(19)27)15-7-4-3-5-8-15/h2-5,7-8,11-12,16,24,27H,1,6,9-10,13-14H2,(H,25,28)/t16-/m1/s1
InChIKey=MVNDYFDHIWLISC-MRXNPFEDSA-N

> <PUBCHEM_SUBSTANCE_SYNONYM>
SCHEMBL16122681

> <PUBCHEM_XREF_EXT_ID>
SCHEMBL16122681

> <PUBCHEM_EXT_DATASOURCE_URL>
https://www.surechembl.org/

> <PUBCHEM_EXT_SUBSTANCE_URL>
https://www.surechembl.org/chemical/SCHEMBL16122681

> <PUBCHEM_CID_ASSOCIATIONS>
117610833  1

> <PUBCHEM_COORDINATE_TYPE>
1
3

> <PUBCHEM_BONDANNOTATIONS>
19  7  5

$$$$
