310940038
  -OEChem-07211613022D

 27 29  0     0  0  0  0  0  0999 V2000
   -3.9223   -7.2864    0.0000 Cl  0  0  0  0  0  0  0  0  0  0  0  0
   -1.0644   -8.9364    0.0000 O   0  0  0  0  0  0  0  0  0  0  0  0
   -1.0644   -6.4614    0.0000 O   0  0  0  0  0  0  0  0  0  0  0  0
    1.7935   -9.7614    0.0000 O   0  0  0  0  0  0  0  0  0  0  0  0
   -0.3499   -7.6989    0.0000 N   0  0  0  0  0  0  0  0  0  0  0  0
    1.0790   -8.5239    0.0000 N   0  0  0  0  0  0  0  0  0  0  0  0
   -1.7789   -7.6989    0.0000 C   0  0  0  0  0  0  0  0  0  0  0  0
   -1.7789   -8.5239    0.0000 C   0  0  0  0  0  0  0  0  0  0  0  0
   -3.2078   -8.5239    0.0000 C   0  0  0  0  0  0  0  0  0  0  0  0
   -1.0644   -7.2864    0.0000 C   0  0  0  0  0  0  0  0  0  0  0  0
   -3.2078   -7.6989    0.0000 C   0  0  0  0  0  0  0  0  0  0  0  0
   -2.4933   -7.2864    0.0000 C   0  0  0  0  0  0  0  0  0  0  0  0
   -2.4933   -8.9364    0.0000 C   0  0  0  0  0  0  0  0  0  0  0  0
   -3.9223   -8.9364    0.0000 C   0  0  0  0  0  0  0  0  0  0  0  0
   -0.3499   -8.5239    0.0000 C   0  0  0  0  0  0  0  0  0  0  0  0
    0.3645   -7.2864    0.0000 C   0  0  0  0  0  0  0  0  0  0  0  0
    0.3645   -8.9364    0.0000 C   0  0  0  0  0  0  0  0  0  0  0  0
    1.0790   -7.6989    0.0000 C   0  0  0  0  0  0  0  0  0  0  0  0
   -4.6367   -8.5239    0.0000 C   0  0  0  0  0  0  0  0  0  0  0  0
   -3.9223   -9.7614    0.0000 C   0  0  0  0  0  0  0  0  0  0  0  0
    1.7935   -8.9364    0.0000 C   0  0  0  0  0  0  0  0  0  0  0  0
   -5.3512   -8.9364    0.0000 C   0  0  0  0  0  0  0  0  0  0  0  0
   -4.6367  -10.1739    0.0000 C   0  0  0  0  0  0  0  0  0  0  0  0
   -1.0644   -9.7614    0.0000 C   0  0  0  0  0  0  0  0  0  0  0  0
   -5.3512   -9.7614    0.0000 C   0  0  0  0  0  0  0  0  0  0  0  0
    2.5080   -8.5239    0.0000 C   0  0  0  0  0  0  0  0  0  0  0  0
    3.2224   -8.9364    0.0000 C   0  0  0  0  0  0  0  0  0  0  0  0
  1 11  1  0  0  0  0
  2  8  1  0  0  0  0
  2 24  1  0  0  0  0
  3 10  2  0  0  0  0
  4 21  2  0  0  0  0
  5 10  1  0  0  0  0
  5 15  1  0  0  0  0
  5 16  1  0  0  0  0
  6 17  1  0  0  0  0
  6 18  1  0  0  0  0
  6 21  1  0  0  0  0
  7  8  1  0  0  0  0
  7 10  1  0  0  0  0
  7 12  2  0  0  0  0
  8 13  2  0  0  0  0
  9 11  2  0  0  0  0
  9 13  1  0  0  0  0
  9 14  1  0  0  0  0
 11 12  1  0  0  0  0
 14 19  2  0  0  0  0
 14 20  1  0  0  0  0
 15 17  1  0  0  0  0
 16 18  1  0  0  0  0
 19 22  1  0  0  0  0
 20 23  2  0  0  0  0
 21 26  1  0  0  0  0
 22 25  2  0  0  0  0
 23 25  1  0  0  0  0
 26 27  2  0  0  0  0
M  END
> <PUBCHEM_COMPOUND_ID_TYPE>
0

> <PUBCHEM_TOTAL_CHARGE>
0

> <PUBCHEM_SUBSTANCE_ID>
310940038

> <PUBCHEM_SUBSTANCE_VERSION>
1

> <PUBCHEM_EXT_DATASOURCE_NAME>
4488

> <PUBCHEM_EXT_DATASOURCE_REGID>
SCHEMBL16117968

> <PUBCHEM_SUBSTANCE_COMMENT>
InChI=1S/C21H21ClN2O3/c1-3-20(25)23-9-11-24(12-10-23)21(26)17-13-18(22)16(14-19(17)27-2)15-7-5-4-6-8-15/h3-8,13-14H,1,9-12H2,2H3
InChIKey=GHWJOZNATUVYIK-UHFFFAOYSA-N

> <PUBCHEM_SUBSTANCE_SYNONYM>
SCHEMBL16117968

> <PUBCHEM_XREF_EXT_ID>
SCHEMBL16117968

> <PUBCHEM_EXT_DATASOURCE_URL>
https://www.surechembl.org/

> <PUBCHEM_EXT_SUBSTANCE_URL>
https://www.surechembl.org/chemical/SCHEMBL16117968

> <PUBCHEM_CID_ASSOCIATIONS>
117607189  1

> <PUBCHEM_COORDINATE_TYPE>
1
3

$$$$
