310948600
  -OEChem-07211613022D

 32 34  0     1  0  0  0  0  0999 V2000
   -4.2526    0.0349    0.0000 O   0  0  0  0  0  0  0  0  0  0  0  0
   -2.9977   -0.6066    0.0000 O   0  0  0  0  0  0  0  0  0  0  0  0
   -0.0976    2.4609    0.0000 O   0  0  0  0  0  0  0  0  0  0  0  0
    0.6135   -0.4113    0.0000 N   0  0  0  0  0  0  0  0  0  0  0  0
    0.6135    1.2479    0.0000 N   0  0  0  0  0  0  0  0  0  0  0  0
    1.3386    2.4749    0.0000 N   0  0  0  0  0  0  0  0  0  0  0  0
    3.5136    2.0706    0.0000 N   0  0  0  0  0  0  0  0  0  0  0  0
   -2.3146    1.2479    0.0000 C   0  0  3  0  0  0  0  0  0  0  0  0
   -2.9977    0.8436    0.0000 C   0  0  3  0  0  0  0  0  0  0  0  0
   -1.5198    0.8157    0.0000 C   0  0  0  0  0  0  0  0  0  0  0  0
   -2.9977    1.6383    0.0000 C   0  0  0  0  0  0  0  0  0  0  0  0
   -0.0976    0.8296    0.0000 C   0  0  0  0  0  0  0  0  0  0  0  0
   -0.1116    0.0209    0.0000 C   0  0  0  0  0  0  0  0  0  0  0  0
   -0.8366    1.2339    0.0000 C   0  0  0  0  0  0  0  0  0  0  0  0
   -3.4300    0.0907    0.0000 C   0  0  0  0  0  0  0  0  0  0  0  0
   -1.5477    0.0069    0.0000 C   0  0  0  0  0  0  0  0  0  0  0  0
   -0.8227   -0.3974    0.0000 C   0  0  0  0  0  0  0  0  0  0  0  0
    0.6413    2.0566    0.0000 C   0  0  0  0  0  0  0  0  0  0  0  0
    0.6135   -1.2339    0.0000 C   0  0  0  0  0  0  0  0  0  0  0  0
    1.3246    0.0069    0.0000 C   0  0  0  0  0  0  0  0  0  0  0  0
    2.0636    2.0706    0.0000 C   0  0  0  0  0  0  0  0  0  0  0  0
   -0.0976   -1.6383    0.0000 C   0  0  0  0  0  0  0  0  0  0  0  0
    2.0775   -0.3974    0.0000 C   0  0  0  0  0  0  0  0  0  0  0  0
    2.7607    2.4749    0.0000 C   0  0  0  0  0  0  0  0  0  0  0  0
    2.0636    1.2479    0.0000 C   0  0  0  0  0  0  0  0  0  0  0  0
    3.4997    1.2479    0.0000 C   0  0  0  0  0  0  0  0  0  0  0  0
    2.8025    0.8436    0.0000 C   0  0  0  0  0  0  0  0  0  0  0  0
   -0.8366   -1.2479    0.0000 C   0  0  0  0  0  0  0  0  0  0  0  0
   -0.0976   -2.4749    0.0000 C   0  0  0  0  0  0  0  0  0  0  0  0
    2.8025    0.0209    0.0000 C   0  0  0  0  0  0  0  0  0  0  0  0
    2.0915   -1.2479    0.0000 C   0  0  0  0  0  0  0  0  0  0  0  0
    4.2526    0.8296    0.0000 C   0  0  0  0  0  0  0  0  0  0  0  0
  1 15  2  0  0  0  0
  2 15  1  0  0  0  0
  3 18  2  0  0  0  0
  4 13  1  0  0  0  0
  4 19  1  0  0  0  0
  4 20  1  0  0  0  0
  5 12  1  0  0  0  0
  5 18  1  0  0  0  0
  6 18  1  0  0  0  0
  6 21  1  0  0  0  0
  7 24  2  0  0  0  0
  7 26  1  0  0  0  0
  8  9  1  0  0  0  0
  8 10  1  0  0  0  0
  8 11  1  1  0  0  0
  9 11  1  0  0  0  0
  9 15  1  1  0  0  0
 10 14  1  0  0  0  0
 10 16  2  0  0  0  0
 12 13  1  0  0  0  0
 12 14  2  0  0  0  0
 13 17  2  0  0  0  0
 16 17  1  0  0  0  0
 19 22  1  0  0  0  0
 20 23  1  0  0  0  0
 21 24  1  0  0  0  0
 21 25  2  0  0  0  0
 22 28  1  0  0  0  0
 22 29  1  0  0  0  0
 23 30  1  0  0  0  0
 23 31  1  0  0  0  0
 25 27  1  0  0  0  0
 26 27  2  0  0  0  0
 26 32  1  0  0  0  0
M  END
> <PUBCHEM_COMPOUND_ID_TYPE>
0

> <PUBCHEM_TOTAL_CHARGE>
0

> <PUBCHEM_SUBSTANCE_ID>
310948600

> <PUBCHEM_SUBSTANCE_VERSION>
1

> <PUBCHEM_EXT_DATASOURCE_NAME>
4488

> <PUBCHEM_EXT_DATASOURCE_REGID>
SCHEMBL16126783

> <PUBCHEM_SUBSTANCE_COMMENT>
InChI=1S/C25H34N4O3/c1-15(2)13-29(14-16(3)4)23-9-7-18(20-11-21(20)24(30)31)10-22(23)28-25(32)27-19-8-6-17(5)26-12-19/h6-10,12,15-16,20-21H,11,13-14H2,1-5H3,(H,30,31)(H2,27,28,32)/t20-,21-/m0/s1
InChIKey=FXBRBWDGCHPORS-SFTDATJTSA-N

> <PUBCHEM_SUBSTANCE_SYNONYM>
SCHEMBL16126783

> <PUBCHEM_XREF_EXT_ID>
SCHEMBL16126783

> <PUBCHEM_EXT_DATASOURCE_URL>
https://www.surechembl.org/

> <PUBCHEM_EXT_SUBSTANCE_URL>
https://www.surechembl.org/chemical/SCHEMBL16126783

> <PUBCHEM_CID_ASSOCIATIONS>
85472524  1

> <PUBCHEM_COORDINATE_TYPE>
1
3

> <PUBCHEM_BONDANNOTATIONS>
8  11  5
9  15  5

$$$$
