310941953
  -OEChem-07211613022D

 19 21  0     0  0  0  0  0  0999 V2000
    2.5962    1.6663    0.0000 O   0  0  0  0  0  0  0  0  0  0  0  0
   -0.5367   -0.5554    0.0000 N   0  0  0  0  0  0  0  0  0  0  0  0
    0.9486   -0.2309    0.0000 N   0  0  0  0  0  0  0  0  0  0  0  0
   -0.1373    0.7427    0.0000 C   0  0  0  0  0  0  0  0  0  0  0  0
    0.0998   -0.0436    0.0000 C   0  0  0  0  0  0  0  0  0  0  0  0
   -0.9861    0.7552    0.0000 C   0  0  0  0  0  0  0  0  0  0  0  0
   -1.2357   -0.0312    0.0000 C   0  0  0  0  0  0  0  0  0  0  0  0
    0.4244    1.3668    0.0000 C   0  0  0  0  0  0  0  0  0  0  0  0
    1.2232    1.2045    0.0000 C   0  0  0  0  0  0  0  0  0  0  0  0
   -1.5352    1.3668    0.0000 C   0  0  0  0  0  0  0  0  0  0  0  0
   -2.0470   -0.2059    0.0000 C   0  0  0  0  0  0  0  0  0  0  0  0
   -0.5617   -1.3668    0.0000 C   0  0  0  0  0  0  0  0  0  0  0  0
    1.4853    0.4181    0.0000 C   0  0  0  0  0  0  0  0  0  0  0  0
    1.7474    1.8411    0.0000 C   0  0  0  0  0  0  0  0  0  0  0  0
   -2.3341    1.1920    0.0000 C   0  0  0  0  0  0  0  0  0  0  0  0
   -2.5962    0.3932    0.0000 C   0  0  0  0  0  0  0  0  0  0  0  0
   -1.2607   -1.7662    0.0000 C   0  0  0  0  0  0  0  0  0  0  0  0
    1.4978    2.6274    0.0000 C   0  0  0  0  0  0  0  0  0  0  0  0
   -1.2482   -2.6274    0.0000 C   0  0  0  0  0  0  0  0  0  0  0  0
  1 14  2  0  0  0  0
  2  5  1  0  0  0  0
  2  7  1  0  0  0  0
  2 12  1  0  0  0  0
  3  5  1  0  0  0  0
  3 13  2  0  0  0  0
  4  5  2  0  0  0  0
  4  6  1  0  0  0  0
  4  8  1  0  0  0  0
  6  7  1  0  0  0  0
  6 10  2  0  0  0  0
  7 11  2  0  0  0  0
  8  9  2  0  0  0  0
  9 13  1  0  0  0  0
  9 14  1  0  0  0  0
 10 15  1  0  0  0  0
 11 16  1  0  0  0  0
 12 17  1  0  0  0  0
 14 18  1  0  0  0  0
 15 16  2  0  0  0  0
 17 19  1  0  0  0  0
M  END
> <PUBCHEM_COMPOUND_ID_TYPE>
0

> <PUBCHEM_TOTAL_CHARGE>
0

> <PUBCHEM_SUBSTANCE_ID>
310941953

> <PUBCHEM_SUBSTANCE_VERSION>
1

> <PUBCHEM_EXT_DATASOURCE_NAME>
4488

> <PUBCHEM_EXT_DATASOURCE_REGID>
SCHEMBL16119986

> <PUBCHEM_SUBSTANCE_COMMENT>
InChI=1S/C16H16N2O/c1-3-8-18-15-7-5-4-6-13(15)14-9-12(11(2)19)10-17-16(14)18/h4-7,9-10H,3,8H2,1-2H3
InChIKey=XJNPAKJPGDWVCE-UHFFFAOYSA-N

> <PUBCHEM_SUBSTANCE_SYNONYM>
SCHEMBL16119986

> <PUBCHEM_XREF_EXT_ID>
SCHEMBL16119986

> <PUBCHEM_EXT_DATASOURCE_URL>
https://www.surechembl.org/

> <PUBCHEM_EXT_SUBSTANCE_URL>
https://www.surechembl.org/chemical/SCHEMBL16119986

> <PUBCHEM_CID_ASSOCIATIONS>
86271150  1

> <PUBCHEM_COORDINATE_TYPE>
1
3

$$$$
