310931873
  -OEChem-07211613022D

 18 19  0     0  0  0  0  0  0999 V2000
    4.3331   -1.2349    0.0000 O   0  0  0  0  0  0  0  0  0  0  0  0
    6.4996   -1.6466    0.0000 O   0  0  0  0  0  0  0  0  0  0  0  0
    2.1665    0.0000    0.0000 N   0  0  0  0  0  0  0  0  0  0  0  0
    3.6181   -2.4915    0.0000 N   0  0  0  0  0  0  0  0  0  0  0  0
    0.7366    0.0000    0.0000 N   0  0  0  0  0  0  0  0  0  0  0  0
    0.0000   -0.4117    0.0000 N   0  0  0  0  0  0  0  0  0  0  0  0
    2.8815   -1.2349    0.0000 C   0  0  0  0  0  0  0  0  0  0  0  0
    3.6181   -1.6466    0.0000 C   0  0  0  0  0  0  0  0  0  0  0  0
    1.4516   -0.4117    0.0000 C   0  0  0  0  0  0  0  0  0  0  0  0
    2.8815   -0.4117    0.0000 C   0  0  0  0  0  0  0  0  0  0  0  0
    2.1665   -1.6466    0.0000 C   0  0  0  0  0  0  0  0  0  0  0  0
    1.4516   -1.2349    0.0000 C   0  0  0  0  0  0  0  0  0  0  0  0
    5.0480   -2.4915    0.0000 C   0  0  0  0  0  0  0  0  0  0  0  0
    4.3331   -2.9032    0.0000 C   0  0  0  0  0  0  0  0  0  0  0  0
    5.7846   -2.8815    0.0000 C   0  0  0  0  0  0  0  0  0  0  0  0
    5.0696   -1.6466    0.0000 C   0  0  0  0  0  0  0  0  0  0  0  0
    6.4779   -2.4698    0.0000 C   0  0  0  0  0  0  0  0  0  0  0  0
    5.7629   -1.2349    0.0000 C   0  0  0  0  0  0  0  0  0  0  0  0
  1  8  2  0  0  0  0
  2 17  1  0  0  0  0
  2 18  1  0  0  0  0
  3  9  2  0  0  0  0
  3 10  1  0  0  0  0
  4  8  1  0  0  0  0
  4 14  1  0  0  0  0
  5  6  1  0  0  0  0
  5  9  1  0  0  0  0
  7  8  1  0  0  0  0
  7 10  2  0  0  0  0
  7 11  1  0  0  0  0
  9 12  1  0  0  0  0
 11 12  2  0  0  0  0
 13 14  1  0  0  0  0
 13 15  1  0  0  0  0
 13 16  1  0  0  0  0
 15 17  1  0  0  0  0
 16 18  1  0  0  0  0
M  END
> <PUBCHEM_COMPOUND_ID_TYPE>
0

> <PUBCHEM_TOTAL_CHARGE>
0

> <PUBCHEM_SUBSTANCE_ID>
310931873

> <PUBCHEM_SUBSTANCE_VERSION>
1

> <PUBCHEM_EXT_DATASOURCE_NAME>
4488

> <PUBCHEM_EXT_DATASOURCE_REGID>
SCHEMBL16109208

> <PUBCHEM_SUBSTANCE_COMMENT>
InChI=1S/C12H18N4O2/c13-16-11-2-1-10(8-14-11)12(17)15-7-9-3-5-18-6-4-9/h1-2,8-9H,3-7,13H2,(H,14,16)(H,15,17)
InChIKey=FXYGZLQLXKKXRC-UHFFFAOYSA-N

> <PUBCHEM_SUBSTANCE_SYNONYM>
SCHEMBL16109208

> <PUBCHEM_XREF_EXT_ID>
SCHEMBL16109208

> <PUBCHEM_EXT_DATASOURCE_URL>
https://www.surechembl.org/

> <PUBCHEM_EXT_SUBSTANCE_URL>
https://www.surechembl.org/chemical/SCHEMBL16109208

> <PUBCHEM_CID_ASSOCIATIONS>
63705793  1

> <PUBCHEM_COORDINATE_TYPE>
1
3

$$$$
