310944790
  -OEChem-07211613022D

 25 28  0     0  0  0  0  0  0999 V2000
    2.1261   -3.0844    0.0000 Cl  0  0  0  0  0  0  0  0  0  0  0  0
    0.7680    2.6782    0.0000 F   0  0  0  0  0  0  0  0  0  0  0  0
   -2.0119    3.4272    0.0000 F   0  0  0  0  0  0  0  0  0  0  0  0
    0.0952    0.2792    0.0000 N   0  0  0  0  0  0  0  0  0  0  0  0
    0.5775   -0.3935    0.0000 N   0  0  0  0  0  0  0  0  0  0  0  0
   -0.2856   -2.4497    0.0000 N   0  0  0  0  0  0  0  0  0  0  0  0
   -0.7171   -0.7616    0.0000 C   0  0  0  0  0  0  0  0  0  0  0  0
    0.0825   -1.0535    0.0000 C   0  0  0  0  0  0  0  0  0  0  0  0
   -0.6918    0.0635    0.0000 C   0  0  0  0  0  0  0  0  0  0  0  0
    0.2983   -1.8405    0.0000 C   0  0  0  0  0  0  0  0  0  0  0  0
    0.2983    1.1043    0.0000 C   0  0  0  0  0  0  0  0  0  0  0  0
   -1.4153   -1.1805    0.0000 C   0  0  0  0  0  0  0  0  0  0  0  0
   -1.4153    0.4569    0.0000 C   0  0  0  0  0  0  0  0  0  0  0  0
   -0.2983    1.6882    0.0000 C   0  0  0  0  0  0  0  0  0  0  0  0
    1.1106   -2.0563    0.0000 C   0  0  0  0  0  0  0  0  0  0  0  0
   -0.0571    2.5006    0.0000 C   0  0  0  0  0  0  0  0  0  0  0  0
   -2.1261   -0.7742    0.0000 C   0  0  0  0  0  0  0  0  0  0  0  0
   -2.1261    0.0508    0.0000 C   0  0  0  0  0  0  0  0  0  0  0  0
    1.3137   -2.8306    0.0000 C   0  0  0  0  0  0  0  0  0  0  0  0
   -1.0725    1.4851    0.0000 C   0  0  0  0  0  0  0  0  0  0  0  0
   -0.0698   -3.2241    0.0000 C   0  0  0  0  0  0  0  0  0  0  0  0
   -0.6664    3.0717    0.0000 C   0  0  0  0  0  0  0  0  0  0  0  0
   -1.4534    2.8687    0.0000 C   0  0  0  0  0  0  0  0  0  0  0  0
    0.7425   -3.4272    0.0000 C   0  0  0  0  0  0  0  0  0  0  0  0
   -1.6565    2.0563    0.0000 C   0  0  0  0  0  0  0  0  0  0  0  0
  1 19  1  0  0  0  0
  2 16  1  0  0  0  0
  3 23  1  0  0  0  0
  4  5  1  0  0  0  0
  4  9  1  0  0  0  0
  4 11  1  0  0  0  0
  5  8  2  0  0  0  0
  6 10  1  0  0  0  0
  6 21  2  0  0  0  0
  7  8  1  0  0  0  0
  7  9  2  0  0  0  0
  7 12  1  0  0  0  0
  8 10  1  0  0  0  0
  9 13  1  0  0  0  0
 10 15  2  0  0  0  0
 11 14  1  0  0  0  0
 12 17  2  0  0  0  0
 13 18  2  0  0  0  0
 14 16  1  0  0  0  0
 14 20  2  0  0  0  0
 15 19  1  0  0  0  0
 16 22  2  0  0  0  0
 17 18  1  0  0  0  0
 19 24  2  0  0  0  0
 20 25  1  0  0  0  0
 21 24  1  0  0  0  0
 22 23  1  0  0  0  0
 23 25  2  0  0  0  0
M  END
> <PUBCHEM_COMPOUND_ID_TYPE>
0

> <PUBCHEM_TOTAL_CHARGE>
0

> <PUBCHEM_SUBSTANCE_ID>
310944790

> <PUBCHEM_SUBSTANCE_VERSION>
1

> <PUBCHEM_EXT_DATASOURCE_NAME>
4488

> <PUBCHEM_EXT_DATASOURCE_REGID>
SCHEMBL16122869

> <PUBCHEM_SUBSTANCE_COMMENT>
InChI=1S/C19H12ClF2N3/c20-13-7-8-23-17(9-13)19-15-3-1-2-4-18(15)25(24-19)11-12-5-6-14(21)10-16(12)22/h1-10H,11H2
InChIKey=PRYOZSOFRXRGQP-UHFFFAOYSA-N

> <PUBCHEM_SUBSTANCE_SYNONYM>
SCHEMBL16122869

> <PUBCHEM_XREF_EXT_ID>
SCHEMBL16122869

> <PUBCHEM_EXT_DATASOURCE_URL>
https://www.surechembl.org/

> <PUBCHEM_EXT_SUBSTANCE_URL>
https://www.surechembl.org/chemical/SCHEMBL16122869

> <PUBCHEM_CID_ASSOCIATIONS>
117611004  1

> <PUBCHEM_COORDINATE_TYPE>
1
3

$$$$
