310940415
  -OEChem-07211613022D

 19 20  0     0  0  0  0  0  0999 V2000
    1.3311   -0.8897    0.0000 O   0  0  0  0  0  0  0  0  0  0  0  0
   -1.2483    1.6069    0.0000 O   0  0  0  0  0  0  0  0  0  0  0  0
   -0.1586    0.6965    0.0000 O   0  0  0  0  0  0  0  0  0  0  0  0
   -0.3793   -0.6552    0.0000 N   0  0  0  0  0  0  0  0  0  0  0  0
    2.8070    0.0207    0.0000 N   0  0  0  0  0  0  0  0  0  0  0  0
   -1.1931   -0.5586    0.0000 C   0  0  0  0  0  0  0  0  0  0  0  0
   -1.4966    0.2138    0.0000 C   0  0  0  0  0  0  0  0  0  0  0  0
    0.7793   -1.4966    0.0000 C   0  0  0  0  0  0  0  0  0  0  0  0
    2.0897   -1.2069    0.0000 C   0  0  0  0  0  0  0  0  0  0  0  0
   -0.9863    0.8621    0.0000 C   0  0  0  0  0  0  0  0  0  0  0  0
   -0.0483   -1.3862    0.0000 C   0  0  0  0  0  0  0  0  0  0  0  0
    1.2069   -2.2001    0.0000 C   0  0  0  0  0  0  0  0  0  0  0  0
   -2.2966    0.3379    0.0000 C   0  0  0  0  0  0  0  0  0  0  0  0
   -1.7035   -1.1931    0.0000 C   0  0  0  0  0  0  0  0  0  0  0  0
    1.9932   -2.0345    0.0000 C   0  0  0  0  0  0  0  0  0  0  0  0
   -2.8070   -0.3104    0.0000 C   0  0  0  0  0  0  0  0  0  0  0  0
   -2.5311   -1.0552    0.0000 C   0  0  0  0  0  0  0  0  0  0  0  0
    2.8070   -0.7931    0.0000 C   0  0  0  0  0  0  0  0  0  0  0  0
   -0.7241    2.2001    0.0000 C   0  0  0  0  0  0  0  0  0  0  0  0
  1  8  1  0  0  0  0
  1  9  1  0  0  0  0
  2 10  1  0  0  0  0
  2 19  1  0  0  0  0
  3 10  2  0  0  0  0
  4  6  1  0  0  0  0
  4 11  2  0  0  0  0
  5 18  2  3  0  0  0
  6  7  2  0  0  0  0
  6 14  1  0  0  0  0
  7 10  1  0  0  0  0
  7 13  1  0  0  0  0
  8 11  1  0  0  0  0
  8 12  2  0  0  0  0
  9 15  2  0  0  0  0
  9 18  1  0  0  0  0
 12 15  1  0  0  0  0
 13 16  2  0  0  0  0
 14 17  2  0  0  0  0
 16 17  1  0  0  0  0
M  END
> <PUBCHEM_COMPOUND_ID_TYPE>
0

> <PUBCHEM_TOTAL_CHARGE>
0

> <PUBCHEM_SUBSTANCE_ID>
310940415

> <PUBCHEM_SUBSTANCE_VERSION>
1

> <PUBCHEM_EXT_DATASOURCE_NAME>
4488

> <PUBCHEM_EXT_DATASOURCE_REGID>
SCHEMBL16118363

> <PUBCHEM_SUBSTANCE_COMMENT>
InChI=1S/C14H12N2O3/c1-18-14(17)12-4-2-3-5-13(12)16-9-11-7-6-10(8-15)19-11/h2-9,15H,1H3/b15-8?,16-9+
InChIKey=RTHUDUAHCYDVRJ-LBWIRQCPSA-N

> <PUBCHEM_SUBSTANCE_SYNONYM>
SCHEMBL16118363

> <PUBCHEM_XREF_EXT_ID>
SCHEMBL16118363

> <PUBCHEM_EXT_DATASOURCE_URL>
https://www.surechembl.org/

> <PUBCHEM_EXT_SUBSTANCE_URL>
https://www.surechembl.org/chemical/SCHEMBL16118363

> <PUBCHEM_CID_ASSOCIATIONS>
117607440  1

> <PUBCHEM_COORDINATE_TYPE>
1
3

> <PUBCHEM_BONDANNOTATIONS>
4  6  3

$$$$
