310943195
  -OEChem-07211613022D

 16 16  0     0  0  0  0  0  0999 V2000
    0.4419   -1.2569    0.0000 F   0  0  0  0  0  0  0  0  0  0  0  0
   -0.3436   -2.0622    0.0000 F   0  0  0  0  0  0  0  0  0  0  0  0
   -1.1293   -1.2569    0.0000 F   0  0  0  0  0  0  0  0  0  0  0  0
   -1.7970    2.0622    0.0000 O   0  0  0  0  0  0  0  0  0  0  0  0
   -2.5040    0.8052    0.0000 O   0  0  0  0  0  0  0  0  0  0  0  0
    2.5040    0.3338    0.0000 N   0  0  0  0  0  0  0  0  0  0  0  0
   -0.3633   -0.4124    0.0000 C   0  0  0  0  0  0  0  0  0  0  0  0
   -0.3633   -1.2569    0.0000 C   0  0  0  0  0  0  0  0  0  0  0  0
    0.3436    0.0000    0.0000 C   0  0  0  0  0  0  0  0  0  0  0  0
   -1.0507   -0.0196    0.0000 C   0  0  0  0  0  0  0  0  0  0  0  0
   -1.0704    0.8052    0.0000 C   0  0  0  0  0  0  0  0  0  0  0  0
    0.3633    0.8052    0.0000 C   0  0  0  0  0  0  0  0  0  0  0  0
   -0.3633    1.2177    0.0000 C   0  0  0  0  0  0  0  0  0  0  0  0
   -1.8166    1.2177    0.0000 C   0  0  0  0  0  0  0  0  0  0  0  0
    1.0704   -0.4321    0.0000 C   0  0  0  0  0  0  0  0  0  0  0  0
    1.7970   -0.0196    0.0000 C   0  0  0  0  0  0  0  0  0  0  0  0
  1  8  1  0  0  0  0
  2  8  1  0  0  0  0
  3  8  1  0  0  0  0
  4 14  2  0  0  0  0
  5 14  1  0  0  0  0
  6 16  3  0  0  0  0
  7  8  1  0  0  0  0
  7  9  2  0  0  0  0
  7 10  1  0  0  0  0
  9 12  1  0  0  0  0
  9 15  1  0  0  0  0
 10 11  2  0  0  0  0
 11 13  1  0  0  0  0
 11 14  1  0  0  0  0
 12 13  2  0  0  0  0
 15 16  1  0  0  0  0
M  END
> <PUBCHEM_COMPOUND_ID_TYPE>
0

> <PUBCHEM_TOTAL_CHARGE>
0

> <PUBCHEM_SUBSTANCE_ID>
310943195

> <PUBCHEM_SUBSTANCE_VERSION>
1

> <PUBCHEM_EXT_DATASOURCE_NAME>
4488

> <PUBCHEM_EXT_DATASOURCE_REGID>
SCHEMBL16121256

> <PUBCHEM_SUBSTANCE_COMMENT>
InChI=1S/C10H6F3NO2/c11-10(12,13)8-5-7(9(15)16)2-1-6(8)3-4-14/h1-2,5H,3H2,(H,15,16)
InChIKey=YLICFMNXOXCCKR-UHFFFAOYSA-N

> <PUBCHEM_SUBSTANCE_SYNONYM>
SCHEMBL16121256

> <PUBCHEM_XREF_EXT_ID>
SCHEMBL16121256

> <PUBCHEM_EXT_DATASOURCE_URL>
https://www.surechembl.org/

> <PUBCHEM_EXT_SUBSTANCE_URL>
https://www.surechembl.org/chemical/SCHEMBL16121256

> <PUBCHEM_CID_ASSOCIATIONS>
91883549  1

> <PUBCHEM_COORDINATE_TYPE>
1
3

$$$$
