310949794
  -OEChem-07211613022D

 26 28  0     0  0  0  0  0  0999 V2000
   -1.0652    1.8975    0.0000 O   0  0  0  0  0  0  0  0  0  0  0  0
    1.0652   -2.7497    0.0000 O   0  0  0  0  0  0  0  0  0  0  0  0
    1.7710   -1.4847    0.0000 O   0  0  0  0  0  0  0  0  0  0  0  0
   -0.3595    0.6325    0.0000 N   0  0  0  0  0  0  0  0  0  0  0  0
    3.1825    2.7497    0.0000 N   0  0  0  0  0  0  0  0  0  0  0  0
   -1.7710   -0.2064    0.0000 C   0  0  0  0  0  0  0  0  0  0  0  0
   -1.7710    0.6325    0.0000 C   0  0  0  0  0  0  0  0  0  0  0  0
   -1.0519   -0.6591    0.0000 C   0  0  0  0  0  0  0  0  0  0  0  0
   -1.0652    1.0319    0.0000 C   0  0  0  0  0  0  0  0  0  0  0  0
   -2.4901   -0.6325    0.0000 C   0  0  0  0  0  0  0  0  0  0  0  0
   -2.4901    1.0319    0.0000 C   0  0  0  0  0  0  0  0  0  0  0  0
   -1.0652   -1.4714    0.0000 C   0  0  0  0  0  0  0  0  0  0  0  0
   -0.3728   -0.2330    0.0000 C   0  0  0  0  0  0  0  0  0  0  0  0
    0.3462   -1.4714    0.0000 C   0  0  0  0  0  0  0  0  0  0  0  0
    0.3462    1.0586    0.0000 C   0  0  0  0  0  0  0  0  0  0  0  0
   -0.3728   -1.8975    0.0000 C   0  0  0  0  0  0  0  0  0  0  0  0
    0.3462   -0.6458    0.0000 C   0  0  0  0  0  0  0  0  0  0  0  0
   -3.1825   -0.2197    0.0000 C   0  0  0  0  0  0  0  0  0  0  0  0
   -3.1825    0.6325    0.0000 C   0  0  0  0  0  0  0  0  0  0  0  0
    1.0652   -1.8842    0.0000 C   0  0  0  0  0  0  0  0  0  0  0  0
    0.3595    1.8975    0.0000 C   0  0  0  0  0  0  0  0  0  0  0  0
    1.0652    0.6458    0.0000 C   0  0  0  0  0  0  0  0  0  0  0  0
    1.7577    1.8975    0.0000 C   0  0  0  0  0  0  0  0  0  0  0  0
    1.0652    2.3103    0.0000 C   0  0  0  0  0  0  0  0  0  0  0  0
    1.7577    1.0453    0.0000 C   0  0  0  0  0  0  0  0  0  0  0  0
    2.4501    2.2970    0.0000 C   0  0  0  0  0  0  0  0  0  0  0  0
  1  9  2  0  0  0  0
  2 20  2  0  0  0  0
  3 20  1  0  0  0  0
  4  9  1  0  0  0  0
  4 15  1  0  0  0  0
  5 26  3  0  0  0  0
  6  7  1  0  0  0  0
  6  8  1  0  0  0  0
  6 10  2  0  0  0  0
  7  9  1  0  0  0  0
  7 11  2  0  0  0  0
  8 12  2  0  0  0  0
  8 13  1  0  0  0  0
 10 18  1  0  0  0  0
 11 19  1  0  0  0  0
 12 16  1  0  0  0  0
 13 17  2  0  0  0  0
 14 16  2  0  0  0  0
 14 17  1  0  0  0  0
 14 20  1  0  0  0  0
 15 21  2  0  0  0  0
 15 22  1  0  0  0  0
 18 19  2  0  0  0  0
 21 24  1  0  0  0  0
 22 25  2  0  0  0  0
 23 24  2  0  0  0  0
 23 25  1  0  0  0  0
 23 26  1  0  0  0  0
M  END
> <PUBCHEM_COMPOUND_ID_TYPE>
0

> <PUBCHEM_TOTAL_CHARGE>
0

> <PUBCHEM_SUBSTANCE_ID>
310949794

> <PUBCHEM_SUBSTANCE_VERSION>
1

> <PUBCHEM_EXT_DATASOURCE_NAME>
4488

> <PUBCHEM_EXT_DATASOURCE_REGID>
SCHEMBL16127992

> <PUBCHEM_SUBSTANCE_COMMENT>
InChI=1S/C21H14N2O3/c22-13-14-5-11-17(12-6-14)23-20(24)19-4-2-1-3-18(19)15-7-9-16(10-8-15)21(25)26/h1-12H,(H,23,24)(H,25,26)
InChIKey=RXUBHHIWVZWZKS-UHFFFAOYSA-N

> <PUBCHEM_SUBSTANCE_SYNONYM>
SCHEMBL16127992

> <PUBCHEM_XREF_EXT_ID>
SCHEMBL16127992

> <PUBCHEM_EXT_DATASOURCE_URL>
https://www.surechembl.org/

> <PUBCHEM_EXT_SUBSTANCE_URL>
https://www.surechembl.org/chemical/SCHEMBL16127992

> <PUBCHEM_CID_ASSOCIATIONS>
117615116  1

> <PUBCHEM_COORDINATE_TYPE>
1
3

$$$$
