310944091
  -OEChem-07211613022D

 33 37  0     1  0  0  0  0  0999 V2000
    2.4883    0.7759    0.0000 O   0  0  0  0  0  0  0  0  0  0  0  0
    5.4478    0.3768    0.0000 O   0  0  0  0  0  0  0  0  0  0  0  0
   -1.5240    0.4101    0.0000 O   0  0  0  0  0  0  0  0  0  0  0  0
   -0.4932   -1.8510    0.0000 O   0  0  0  0  0  0  0  0  0  0  0  0
    5.3259    1.8510    0.0000 O   0  0  0  0  0  0  0  0  0  0  0  0
    3.4416   -0.3658    0.0000 N   0  0  0  0  0  0  0  0  0  0  0  0
    0.4711   -0.4988    0.0000 N   0  0  0  0  0  0  0  0  0  0  0  0
   -4.1288   -0.7869    0.0000 N   0  0  0  0  0  0  0  0  0  0  0  0
   -4.5500   -0.0665    0.0000 N   0  0  0  0  0  0  0  0  0  0  0  0
   -5.3702   -0.2549    0.0000 N   0  0  0  0  0  0  0  0  0  0  0  0
   -5.4478   -1.0751    0.0000 N   0  0  0  0  0  0  0  0  0  0  0  0
    2.1226   -0.6429    0.0000 C   0  0  0  0  0  0  0  0  0  0  0  0
    2.6768   -0.0443    0.0000 C   0  0  0  0  0  0  0  0  0  0  0  0
    2.5549   -1.3522    0.0000 C   0  0  0  0  0  0  0  0  0  0  0  0
    4.1510    0.0776    0.0000 C   0  0  0  0  0  0  0  0  0  0  0  0
    1.6460   -1.3190    0.0000 C   0  0  0  0  0  0  0  0  0  0  0  0
    1.7790    0.0997    0.0000 C   0  0  0  0  0  0  0  0  0  0  0  0
    3.3529   -1.1749    0.0000 C   0  0  0  0  0  0  0  0  0  0  0  0
    0.8257   -1.2525    0.0000 C   0  0  0  0  0  0  0  0  0  0  0  0
    0.9588    0.1885    0.0000 C   0  0  0  0  0  0  0  0  0  0  0  0
    4.2175    0.8978    0.0000 C   0  0  0  0  0  0  0  0  0  0  0  0
    4.9268   -0.2438    0.0000 C   0  0  0  0  0  0  0  0  0  0  0  0
   -1.6681   -1.0087    0.0000 C   0  0  0  0  0  0  0  0  0  0  0  0
   -0.8369   -1.0973    0.0000 C   0  0  3  0  0  0  0  0  0  0  0  0
   -0.3492   -0.4101    0.0000 C   0  0  0  0  0  0  0  0  0  0  0  0
   -2.0229   -0.2549    0.0000 C   0  0  0  0  0  0  0  0  0  0  0  0
    5.0044    1.0641    0.0000 C   0  0  0  0  0  0  0  0  0  0  0  0
   -3.3085   -0.8645    0.0000 C   0  0  0  0  0  0  0  0  0  0  0  0
   -2.8320   -0.1885    0.0000 C   0  0  0  0  0  0  0  0  0  0  0  0
   -2.1337   -1.6847    0.0000 C   0  0  0  0  0  0  0  0  0  0  0  0
   -2.9650   -1.6072    0.0000 C   0  0  0  0  0  0  0  0  0  0  0  0
   -4.6830   -1.3966    0.0000 C   0  0  0  0  0  0  0  0  0  0  0  0
   -0.6817    0.3214    0.0000 C   0  0  0  0  0  0  0  0  0  0  0  0
  1 13  2  0  0  0  0
  2 22  1  0  0  0  0
  2 27  1  0  0  0  0
  3 26  1  0  0  0  0
  3 33  1  0  0  0  0
 24  4  1  1  0  0  0
  5 27  2  0  0  0  0
  6 13  1  0  0  0  0
  6 15  1  0  0  0  0
  6 18  1  0  0  0  0
  7 19  1  0  0  0  0
  7 20  1  0  0  0  0
  7 25  1  0  0  0  0
  8  9  1  0  0  0  0
  8 28  1  0  0  0  0
  8 32  1  0  0  0  0
  9 10  2  0  0  0  0
 10 11  1  0  0  0  0
 11 32  2  0  0  0  0
 12 13  1  0  0  0  0
 12 14  1  0  0  0  0
 12 16  1  0  0  0  0
 12 17  1  0  0  0  0
 14 18  1  0  0  0  0
 15 21  2  0  0  0  0
 15 22  1  0  0  0  0
 16 19  1  0  0  0  0
 17 20  1  0  0  0  0
 21 27  1  0  0  0  0
 23 24  1  0  0  0  0
 23 26  2  0  0  0  0
 23 30  1  0  0  0  0
 24 25  1  0  0  0  0
 26 29  1  0  0  0  0
 28 29  2  0  0  0  0
 28 31  1  0  0  0  0
 30 31  2  0  0  0  0
M  END
> <PUBCHEM_COMPOUND_ID_TYPE>
0

> <PUBCHEM_TOTAL_CHARGE>
0

> <PUBCHEM_SUBSTANCE_ID>
310944091

> <PUBCHEM_SUBSTANCE_VERSION>
1

> <PUBCHEM_EXT_DATASOURCE_NAME>
4488

> <PUBCHEM_EXT_DATASOURCE_REGID>
SCHEMBL16122166

> <PUBCHEM_SUBSTANCE_COMMENT>
InChI=1S/C22H26N6O5/c1-32-19-10-15(28-14-23-24-25-28)2-3-17(19)18(29)12-26-7-4-22(5-8-26)6-9-27(21(22)31)16-11-20(30)33-13-16/h2-3,10-11,14,18,29H,4-9,12-13H2,1H3/t18-/m1/s1
InChIKey=ZZBFKSAPEOUQSH-GOSISDBHSA-N

> <PUBCHEM_SUBSTANCE_SYNONYM>
SCHEMBL16122166

> <PUBCHEM_XREF_EXT_ID>
SCHEMBL16122166

> <PUBCHEM_EXT_DATASOURCE_URL>
https://www.surechembl.org/

> <PUBCHEM_EXT_SUBSTANCE_URL>
https://www.surechembl.org/chemical/SCHEMBL16122166

> <PUBCHEM_CID_ASSOCIATIONS>
117610383  1

> <PUBCHEM_COORDINATE_TYPE>
1
3

> <PUBCHEM_BONDANNOTATIONS>
24  4  5

$$$$
