310939374
  -OEChem-07211613022D

 28 30  0     1  0  0  0  0  0999 V2000
    1.2290    1.2093    0.0000 Cl  0  0  0  0  0  0  0  0  0  0  0  0
    2.6972   -0.3638    0.0000 S   0  0  0  0  0  0  0  0  0  0  0  0
   -0.1999   -1.2657    0.0000 F   0  0  0  0  0  0  0  0  0  0  0  0
    1.2290   -0.4407    0.0000 O   0  0  0  0  0  0  0  0  0  0  0  0
   -4.4867   -0.4407    0.0000 O   0  0  0  0  0  0  0  0  0  0  0  0
    2.0298    0.7922    0.0000 N   0  0  0  0  0  0  0  0  0  0  0  0
   -2.3433   -0.0282    0.0000 N   0  0  0  0  0  0  0  0  0  0  0  0
    4.4867    0.9638    0.0000 N   0  0  0  0  0  0  0  0  0  0  0  0
   -3.7723    0.7968    0.0000 N   0  0  0  0  0  0  0  0  0  0  0  0
    0.5146   -0.0282    0.0000 C   0  0  0  0  0  0  0  0  0  0  0  0
   -0.1999   -0.4407    0.0000 C   0  0  0  0  0  0  0  0  0  0  0  0
    1.9435   -0.0282    0.0000 C   0  0  0  0  0  0  0  0  0  0  0  0
   -0.9144   -0.0282    0.0000 C   0  0  0  0  0  0  0  0  0  0  0  0
    3.2492    0.2493    0.0000 C   0  0  0  0  0  0  0  0  0  0  0  0
    2.8367    0.9638    0.0000 C   0  0  0  0  0  0  0  0  0  0  0  0
    0.5146    0.7968    0.0000 C   0  0  0  0  0  0  0  0  0  0  0  0
   -1.6288   -0.4407    0.0000 C   0  0  3  0  0  0  0  0  0  0  0  0
   -0.9144    0.7968    0.0000 C   0  0  0  0  0  0  0  0  0  0  0  0
   -0.1999    1.2093    0.0000 C   0  0  0  0  0  0  0  0  0  0  0  0
    4.0742    0.2493    0.0000 C   0  0  0  0  0  0  0  0  0  0  0  0
    3.2492    1.6782    0.0000 C   0  0  0  0  0  0  0  0  0  0  0  0
    4.0742    1.6782    0.0000 C   0  0  0  0  0  0  0  0  0  0  0  0
   -1.6288   -1.2657    0.0000 C   0  0  0  0  0  0  0  0  0  0  0  0
   -2.3433    0.7968    0.0000 C   0  0  3  0  0  0  0  0  0  0  0  0
   -3.0578    1.2093    0.0000 C   0  0  0  0  0  0  0  0  0  0  0  0
   -0.9144   -1.6782    0.0000 C   0  0  0  0  0  0  0  0  0  0  0  0
   -1.6288    1.2093    0.0000 C   0  0  0  0  0  0  0  0  0  0  0  0
   -3.7723   -0.0282    0.0000 C   0  0  0  0  0  0  0  0  0  0  0  0
  1 16  1  0  0  0  0
  2 12  1  0  0  0  0
  2 14  1  0  0  0  0
  3 11  1  0  0  0  0
  4 10  1  0  0  0  0
  4 12  1  0  0  0  0
  5 28  2  0  0  0  0
  6 12  2  0  0  0  0
  6 15  1  0  0  0  0
 17  7  1  1  0  0  0
  7 24  1  0  0  0  0
  8 20  2  0  0  0  0
  8 22  1  0  0  0  0
  9 25  1  0  0  0  0
  9 28  1  0  0  0  0
 10 11  2  0  0  0  0
 10 16  1  0  0  0  0
 11 13  1  0  0  0  0
 13 17  1  0  0  0  0
 13 18  2  0  0  0  0
 14 15  2  0  0  0  0
 14 20  1  0  0  0  0
 15 21  1  0  0  0  0
 16 19  2  0  0  0  0
 17 23  1  0  0  0  0
 18 19  1  0  0  0  0
 21 22  2  0  0  0  0
 23 26  1  0  0  0  0
 24 25  1  0  0  0  0
 24 27  1  1  0  0  0
M  END
> <PUBCHEM_COMPOUND_ID_TYPE>
0

> <PUBCHEM_TOTAL_CHARGE>
0

> <PUBCHEM_SUBSTANCE_ID>
310939374

> <PUBCHEM_SUBSTANCE_VERSION>
1

> <PUBCHEM_EXT_DATASOURCE_NAME>
4488

> <PUBCHEM_EXT_DATASOURCE_REGID>
SCHEMBL16117295

> <PUBCHEM_SUBSTANCE_COMMENT>
InChI=1S/C19H20ClFN4O2S/c1-3-14(24-11(2)8-23-10-26)12-4-5-13(20)18(17(12)21)27-19-25-15-6-7-22-9-16(15)28-19/h4-7,9-11,14,24H,3,8H2,1-2H3,(H,23,26)/t11-,14-/m1/s1
InChIKey=NXUIKNNTAIIIKN-BXUZGUMPSA-N

> <PUBCHEM_SUBSTANCE_SYNONYM>
SCHEMBL16117295

> <PUBCHEM_XREF_EXT_ID>
SCHEMBL16117295

> <PUBCHEM_EXT_DATASOURCE_URL>
https://www.surechembl.org/

> <PUBCHEM_EXT_SUBSTANCE_URL>
https://www.surechembl.org/chemical/SCHEMBL16117295

> <PUBCHEM_CID_ASSOCIATIONS>
117606701  1

> <PUBCHEM_COORDINATE_TYPE>
1
3

> <PUBCHEM_BONDANNOTATIONS>
24  27  5
17  7  5

$$$$
