310928954
  -OEChem-07211613022D

 18 20  0     1  0  0  0  0  0999 V2000
    2.4995    2.0559    0.0000 O   0  0  0  0  0  0  0  0  0  0  0  0
   -1.5555   -2.2135    0.0000 O   0  0  0  0  0  0  0  0  0  0  0  0
   -0.8410   -0.9760    0.0000 N   0  0  0  0  0  0  0  0  0  0  0  0
    1.0004   -0.2615    0.0000 C   0  0  3  0  0  0  0  0  0  0  0  0
    1.0004    0.5635    0.0000 C   0  0  0  0  0  0  0  0  0  0  0  0
    0.5879   -0.9760    0.0000 C   0  0  3  0  0  0  0  0  0  0  0  0
    1.7149    0.9760    0.0000 C   0  0  0  0  0  0  0  0  0  0  0  0
    1.4129   -0.9760    0.0000 C   0  0  0  0  0  0  0  0  0  0  0  0
    1.7149    1.8010    0.0000 C   0  0  0  0  0  0  0  0  0  0  0  0
    0.2859    0.9760    0.0000 C   0  0  0  0  0  0  0  0  0  0  0  0
    2.4995    0.7210    0.0000 C   0  0  0  0  0  0  0  0  0  0  0  0
   -0.1266   -1.3885    0.0000 C   0  0  0  0  0  0  0  0  0  0  0  0
    1.0004    2.2135    0.0000 C   0  0  0  0  0  0  0  0  0  0  0  0
    0.2859    1.8010    0.0000 C   0  0  0  0  0  0  0  0  0  0  0  0
    2.9844    1.3885    0.0000 C   0  0  0  0  0  0  0  0  0  0  0  0
   -1.5555   -1.3885    0.0000 C   0  0  0  0  0  0  0  0  0  0  0  0
   -2.2700   -0.9760    0.0000 C   0  0  0  0  0  0  0  0  0  0  0  0
   -2.9844   -1.3885    0.0000 C   0  0  0  0  0  0  0  0  0  0  0  0
  1  9  1  0  0  0  0
  1 15  1  0  0  0  0
  2 16  2  0  0  0  0
  3 12  1  0  0  0  0
  3 16  1  0  0  0  0
  4  5  1  6  0  0  0
  4  6  1  0  0  0  0
  4  8  1  0  0  0  0
  5  7  2  0  0  0  0
  5 10  1  0  0  0  0
  6  8  1  0  0  0  0
  6 12  1  1  0  0  0
  7  9  1  0  0  0  0
  7 11  1  0  0  0  0
  9 13  2  0  0  0  0
 10 14  2  0  0  0  0
 11 15  1  0  0  0  0
 13 14  1  0  0  0  0
 16 17  1  0  0  0  0
 17 18  1  0  0  0  0
M  END
> <PUBCHEM_COMPOUND_ID_TYPE>
0

> <PUBCHEM_TOTAL_CHARGE>
0

> <PUBCHEM_SUBSTANCE_ID>
310928954

> <PUBCHEM_SUBSTANCE_VERSION>
1

> <PUBCHEM_EXT_DATASOURCE_NAME>
11752

> <PUBCHEM_EXT_DATASOURCE_REGID>
BD160509

> <PUBCHEM_SUBSTANCE_SYNONYM>
609799-22-6
Tasimelteon

> <PUBCHEM_GENERIC_REGISTRY_NAME>
609799-22-6

> <PUBCHEM_XREF_EXT_ID>
BD160509

> <PUBCHEM_EXT_DATASOURCE_URL>
http://www.bidepharmatech.com/en/index.html

> <PUBCHEM_EXT_SUBSTANCE_URL>
http://www.bidepharmatech.com/en/goodsview_goodscode_BD160509.html

> <PUBCHEM_CID_ASSOCIATIONS>
10220503  1

> <PUBCHEM_COORDINATE_TYPE>
1
3

> <PUBCHEM_BONDANNOTATIONS>
4  5  6
6  12  5

$$$$
