310928808
  -OEChem-07211613022D

 17 18  0     0  0  0  0  0  0999 V2000
    2.3773    0.4772    0.0000 O   0  5  0  0  0  0  0  0  0  0  0  0
    2.2279   -0.9439    0.0000 O   0  0  0  0  0  0  0  0  0  0  0  0
    0.5100    2.0316    0.0000 O   0  0  0  0  0  0  0  0  0  0  0  0
    1.8154    1.4504    0.0000 O   0  0  0  0  0  0  0  0  0  0  0  0
   -0.2338   -0.3816    0.0000 N   0  0  0  0  0  0  0  0  0  0  0  0
   -0.1476    0.4389    0.0000 N   0  0  0  0  0  0  0  0  0  0  0  0
    1.8923   -0.1903    0.0000 N   0  3  0  0  0  0  0  0  0  0  0  0
    1.0719   -0.1040    0.0000 C   0  0  0  0  0  0  0  0  0  0  0  0
    0.6594    0.6104    0.0000 C   0  0  0  0  0  0  0  0  0  0  0  0
    0.5198   -0.7171    0.0000 C   0  0  0  0  0  0  0  0  0  0  0  0
   -0.9483   -0.7941    0.0000 C   0  0  0  0  0  0  0  0  0  0  0  0
    0.9949    1.3641    0.0000 C   0  0  0  0  0  0  0  0  0  0  0  0
   -0.9483   -1.6191    0.0000 C   0  0  0  0  0  0  0  0  0  0  0  0
   -1.6628   -0.3816    0.0000 C   0  0  0  0  0  0  0  0  0  0  0  0
   -1.6628   -2.0316    0.0000 C   0  0  0  0  0  0  0  0  0  0  0  0
   -2.3773   -0.7941    0.0000 C   0  0  0  0  0  0  0  0  0  0  0  0
   -2.3773   -1.6191    0.0000 C   0  0  0  0  0  0  0  0  0  0  0  0
  1  7  1  0  0  0  0
  2  7  2  0  0  0  0
  3 12  2  0  0  0  0
  4 12  1  0  0  0  0
  5  6  1  0  0  0  0
  5 10  1  0  0  0  0
  5 11  1  0  0  0  0
  6  9  2  0  0  0  0
  7  8  1  0  0  0  0
  8  9  1  0  0  0  0
  8 10  2  0  0  0  0
  9 12  1  0  0  0  0
 11 13  2  0  0  0  0
 11 14  1  0  0  0  0
 13 15  1  0  0  0  0
 14 16  2  0  0  0  0
 15 17  2  0  0  0  0
 16 17  1  0  0  0  0
M  CHG  2   1  -1   7   1
M  END
> <PUBCHEM_COMPOUND_ID_TYPE>
0

> <PUBCHEM_TOTAL_CHARGE>
0

> <PUBCHEM_SUBSTANCE_ID>
310928808

> <PUBCHEM_SUBSTANCE_VERSION>
1

> <PUBCHEM_EXT_DATASOURCE_NAME>
11752

> <PUBCHEM_EXT_DATASOURCE_REGID>
BD268893

> <PUBCHEM_SUBSTANCE_SYNONYM>
4-Nitro-1-phenyl-1H-pyrazole-3-carboxylic acid
701917-03-5

> <PUBCHEM_GENERIC_REGISTRY_NAME>
701917-03-5

> <PUBCHEM_XREF_EXT_ID>
BD268893

> <PUBCHEM_EXT_DATASOURCE_URL>
http://www.bidepharmatech.com/en/index.html

> <PUBCHEM_EXT_SUBSTANCE_URL>
http://www.bidepharmatech.com/en/goodsview_goodscode_BD268893.html

> <PUBCHEM_CID_ASSOCIATIONS>
23084935  1

> <PUBCHEM_COORDINATE_TYPE>
1
3

$$$$
