310945452
  -OEChem-07211613022D

 20 21  0     0  0  0  0  0  0999 V2000
    0.3710    0.8382    0.0000 F   0  0  0  0  0  0  0  0  0  0  0  0
    1.0994    1.2505    0.0000 F   0  0  0  0  0  0  0  0  0  0  0  0
    1.7865    0.8382    0.0000 F   0  0  0  0  0  0  0  0  0  0  0  0
    1.7727   -0.8245    0.0000 N   0  0  0  0  0  0  0  0  0  0  0  0
    1.0581   -2.0476    0.0000 N   0  0  0  0  0  0  0  0  0  0  0  0
   -0.3573   -0.3848    0.0000 N   0  0  0  0  0  0  0  0  0  0  0  0
   -0.3435    0.4398    0.0000 N   0  0  0  0  0  0  0  0  0  0  0  0
   -0.3710   -2.0476    0.0000 N   0  0  0  0  0  0  0  0  0  0  0  0
    1.0581   -0.3985    0.0000 C   0  0  0  0  0  0  0  0  0  0  0  0
    0.3710   -0.8108    0.0000 C   0  0  0  0  0  0  0  0  0  0  0  0
    1.0856    0.4260    0.0000 C   0  0  0  0  0  0  0  0  0  0  0  0
    0.3435   -1.6491    0.0000 C   0  0  0  0  0  0  0  0  0  0  0  0
    1.7590   -1.6491    0.0000 C   0  0  0  0  0  0  0  0  0  0  0  0
   -1.0719    0.8382    0.0000 C   0  0  0  0  0  0  0  0  0  0  0  0
    2.4873   -2.0751    0.0000 C   0  0  0  0  0  0  0  0  0  0  0  0
   -1.0444    1.6628    0.0000 C   0  0  0  0  0  0  0  0  0  0  0  0
   -1.7590    0.4535    0.0000 C   0  0  0  0  0  0  0  0  0  0  0  0
   -1.7590    2.0751    0.0000 C   0  0  0  0  0  0  0  0  0  0  0  0
   -2.4873    0.8657    0.0000 C   0  0  0  0  0  0  0  0  0  0  0  0
   -2.4736    1.6628    0.0000 C   0  0  0  0  0  0  0  0  0  0  0  0
  1 11  1  0  0  0  0
  2 11  1  0  0  0  0
  3 11  1  0  0  0  0
  4  9  2  0  0  0  0
  4 13  1  0  0  0  0
  5 12  1  0  0  0  0
  5 13  2  0  0  0  0
  6  7  2  0  0  0  0
  6 10  1  0  0  0  0
  7 14  1  0  0  0  0
  8 12  1  0  0  0  0
  9 10  1  0  0  0  0
  9 11  1  0  0  0  0
 10 12  2  0  0  0  0
 13 15  1  0  0  0  0
 14 16  2  0  0  0  0
 14 17  1  0  0  0  0
 16 18  1  0  0  0  0
 17 19  2  0  0  0  0
 18 20  2  0  0  0  0
 19 20  1  0  0  0  0
M  END
> <PUBCHEM_COMPOUND_ID_TYPE>
0

> <PUBCHEM_TOTAL_CHARGE>
0

> <PUBCHEM_SUBSTANCE_ID>
310945452

> <PUBCHEM_SUBSTANCE_VERSION>
1

> <PUBCHEM_EXT_DATASOURCE_NAME>
4488

> <PUBCHEM_EXT_DATASOURCE_REGID>
SCHEMBL16123550

> <PUBCHEM_SUBSTANCE_COMMENT>
InChI=1S/C12H10F3N5/c1-7-17-10(12(13,14)15)9(11(16)18-7)20-19-8-5-3-2-4-6-8/h2-6H,1H3,(H2,16,17,18)/b20-19+
InChIKey=LWGMHSSAYDLNAG-FMQUCBEESA-N

> <PUBCHEM_SUBSTANCE_SYNONYM>
SCHEMBL16123550

> <PUBCHEM_XREF_EXT_ID>
SCHEMBL16123550

> <PUBCHEM_EXT_DATASOURCE_URL>
https://www.surechembl.org/

> <PUBCHEM_EXT_SUBSTANCE_URL>
https://www.surechembl.org/chemical/SCHEMBL16123550

> <PUBCHEM_CID_ASSOCIATIONS>
117611497  1

> <PUBCHEM_COORDINATE_TYPE>
1
3

$$$$
