310949576
  -OEChem-07211613022D

 43 47  0     1  0  0  0  0  0999 V2000
   -3.7188    2.1055    0.0000 F   0  0  0  0  0  0  0  0  0  0  0  0
   -2.9215    2.8903    0.0000 F   0  0  0  0  0  0  0  0  0  0  0  0
   -2.1241    2.1055    0.0000 F   0  0  0  0  0  0  0  0  0  0  0  0
   -1.4887    2.1055    0.0000 O   0  0  0  0  0  0  0  0  0  0  0  0
    4.5037   -0.3115    0.0000 O   0  0  0  0  0  0  0  0  0  0  0  0
    5.8367    0.0996    0.0000 O   0  0  0  0  0  0  0  0  0  0  0  0
    1.4764   -0.2242    0.0000 N   0  0  0  0  0  0  0  0  0  0  0  0
    1.9622    0.4485    0.0000 N   0  0  0  0  0  0  0  0  0  0  0  0
   -2.1864    0.8721    0.0000 N   0  0  0  0  0  0  0  0  0  0  0  0
    0.6665    0.0498    0.0000 C   0  0  0  0  0  0  0  0  0  0  0  0
    0.6790    0.8721    0.0000 C   0  0  0  0  0  0  0  0  0  0  0  0
    1.4639    1.1337    0.0000 C   0  0  0  0  0  0  0  0  0  0  0  0
   -0.7537    0.8721    0.0000 C   0  0  0  0  0  0  0  0  0  0  0  0
   -0.0436    1.2708    0.0000 C   0  0  0  0  0  0  0  0  0  0  0  0
   -0.0311   -0.3737    0.0000 C   0  0  0  0  0  0  0  0  0  0  0  0
   -1.4887    1.2708    0.0000 C   0  0  0  0  0  0  0  0  0  0  0  0
   -0.7413    0.0373    0.0000 C   0  0  0  0  0  0  0  0  0  0  0  0
   -2.9215    1.2833    0.0000 C   0  0  3  0  0  0  0  0  0  0  0  0
    1.6881   -1.0216    0.0000 C   0  0  0  0  0  0  0  0  0  0  0  0
   -2.9215    2.1055    0.0000 C   0  0  0  0  0  0  0  0  0  0  0  0
    2.4855   -1.2334    0.0000 C   0  0  0  0  0  0  0  0  0  0  0  0
   -3.6316    0.8721    0.0000 C   0  0  0  0  0  0  0  0  0  0  0  0
    4.0926   -1.6570    0.0000 C   0  0  0  0  0  0  0  0  0  0  0  0
    1.8750    1.8314    0.0000 C   0  0  0  0  0  0  0  0  0  0  0  0
    4.8899   -1.8812    0.0000 C   0  0  0  0  0  0  0  0  0  0  0  0
   -4.3667    1.2708    0.0000 C   0  0  0  0  0  0  0  0  0  0  0  0
    2.7097   -2.0307    0.0000 C   0  0  0  0  0  0  0  0  0  0  0  0
    3.0710   -0.6603    0.0000 C   0  0  0  0  0  0  0  0  0  0  0  0
    5.4754   -1.2833    0.0000 C   0  0  0  0  0  0  0  0  0  0  0  0
   -3.6316    0.0373    0.0000 C   0  0  0  0  0  0  0  0  0  0  0  0
   -5.0768    0.8721    0.0000 C   0  0  0  0  0  0  0  0  0  0  0  0
    3.5070   -2.2549    0.0000 C   0  0  0  0  0  0  0  0  0  0  0  0
    3.8808   -0.8721    0.0000 C   0  0  0  0  0  0  0  0  0  0  0  0
    5.1267   -2.6786    0.0000 C   0  0  0  0  0  0  0  0  0  0  0  0
   -4.3417   -0.3737    0.0000 C   0  0  0  0  0  0  0  0  0  0  0  0
   -5.0644    0.0373    0.0000 C   0  0  0  0  0  0  0  0  0  0  0  0
    5.2637   -0.4983    0.0000 C   0  0  0  0  0  0  0  0  0  0  0  0
   -5.7994    1.2833    0.0000 C   0  0  0  0  0  0  0  0  0  0  0  0
    6.2852   -1.5199    0.0000 C   0  0  0  0  0  0  0  0  0  0  0  0
    5.9240   -2.8903    0.0000 C   0  0  0  0  0  0  0  0  0  0  0  0
    6.4971   -2.3172    0.0000 C   0  0  0  0  0  0  0  0  0  0  0  0
   -6.4971    0.8596    0.0000 C   0  0  0  0  0  0  0  0  0  0  0  0
   -5.7994    2.1055    0.0000 C   0  0  0  0  0  0  0  0  0  0  0  0
  1 20  1  0  0  0  0
  2 20  1  0  0  0  0
  3 20  1  0  0  0  0
  4 16  2  0  0  0  0
  5 37  2  0  0  0  0
  6 37  1  0  0  0  0
  7  8  1  0  0  0  0
  7 10  1  0  0  0  0
  7 19  1  0  0  0  0
  8 12  2  0  0  0  0
  9 16  1  0  0  0  0
 18  9  1  6  0  0  0
 10 11  1  0  0  0  0
 10 15  2  0  0  0  0
 11 12  1  0  0  0  0
 11 14  2  0  0  0  0
 12 24  1  0  0  0  0
 13 14  1  0  0  0  0
 13 16  1  0  0  0  0
 13 17  2  0  0  0  0
 15 17  1  0  0  0  0
 18 20  1  0  0  0  0
 18 22  1  0  0  0  0
 19 21  1  0  0  0  0
 21 27  2  0  0  0  0
 21 28  1  0  0  0  0
 22 26  2  0  0  0  0
 22 30  1  0  0  0  0
 23 25  1  0  0  0  0
 23 32  2  0  0  0  0
 23 33  1  0  0  0  0
 25 29  1  0  0  0  0
 25 34  2  0  0  0  0
 26 31  1  0  0  0  0
 27 32  1  0  0  0  0
 28 33  2  0  0  0  0
 29 37  1  0  0  0  0
 29 39  2  0  0  0  0
 30 35  2  0  0  0  0
 31 36  2  0  0  0  0
 31 38  1  0  0  0  0
 34 40  1  0  0  0  0
 35 36  1  0  0  0  0
 38 42  1  0  0  0  0
 38 43  1  0  0  0  0
 39 41  1  0  0  0  0
 40 41  2  0  0  0  0
M  END
> <PUBCHEM_COMPOUND_ID_TYPE>
0

> <PUBCHEM_TOTAL_CHARGE>
0

> <PUBCHEM_SUBSTANCE_ID>
310949576

> <PUBCHEM_SUBSTANCE_VERSION>
1

> <PUBCHEM_EXT_DATASOURCE_NAME>
4488

> <PUBCHEM_EXT_DATASOURCE_REGID>
SCHEMBL16127772

> <PUBCHEM_SUBSTANCE_COMMENT>
InChI=1S/C34H30F3N3O3/c1-20(2)24-7-6-8-25(17-24)31(34(35,36)37)38-32(41)26-15-16-30-29(18-26)21(3)39-40(30)19-22-11-13-23(14-12-22)27-9-4-5-10-28(27)33(42)43/h4-18,20,31H,19H2,1-3H3,(H,38,41)(H,42,43)/t31-/m1/s1
InChIKey=AYQMCUQLAJPKFU-WJOKGBTCSA-N

> <PUBCHEM_SUBSTANCE_SYNONYM>
SCHEMBL16127772

> <PUBCHEM_XREF_EXT_ID>
SCHEMBL16127772

> <PUBCHEM_EXT_DATASOURCE_URL>
https://www.surechembl.org/

> <PUBCHEM_EXT_SUBSTANCE_URL>
https://www.surechembl.org/chemical/SCHEMBL16127772

> <PUBCHEM_CID_ASSOCIATIONS>
71577976  1

> <PUBCHEM_COORDINATE_TYPE>
1
3

> <PUBCHEM_BONDANNOTATIONS>
18  9  6

$$$$
