310942769
  -OEChem-07211613022D

 45 50  0     1  0  0  0  0  0999 V2000
    4.1872    2.3063    0.0000 F   0  0  0  0  0  0  0  0  0  0  0  0
    5.2918    2.4556    0.0000 F   0  0  0  0  0  0  0  0  0  0  0  0
    5.4261    1.3360    0.0000 F   0  0  0  0  0  0  0  0  0  0  0  0
    1.7988    0.7538    0.0000 O   0  0  0  0  0  0  0  0  0  0  0  0
    2.3063   -1.3808    0.0000 O   0  0  0  0  0  0  0  0  0  0  0  0
    1.0823   -1.3061    0.0000 O   0  0  0  0  0  0  0  0  0  0  0  0
    3.1870    0.4254    0.0000 N   0  0  0  0  0  0  0  0  0  0  0  0
    3.8886   -0.9330    0.0000 N   0  0  0  0  0  0  0  0  0  0  0  0
    5.3068   -0.8285    0.0000 N   0  0  0  0  0  0  0  0  0  0  0  0
   -0.3209    0.3209    0.0000 N   0  0  3  0  0  0  0  0  0  0  0  0
    5.9188    0.4553    0.0000 N   0  0  0  0  0  0  0  0  0  0  0  0
   -2.6497   -1.2465    0.0000 N   0  0  0  0  0  0  0  0  0  0  0  0
   -3.3065   -2.4108    0.0000 N   0  0  0  0  0  0  0  0  0  0  0  0
    4.5006    0.3956    0.0000 C   0  0  0  0  0  0  0  0  0  0  0  0
    3.8439   -0.0821    0.0000 C   0  0  0  0  0  0  0  0  0  0  0  0
    4.2917    1.1718    0.0000 C   0  0  0  0  0  0  0  0  0  0  0  0
    2.4108    0.2164    0.0000 C   0  0  3  0  0  0  0  0  0  0  0  0
    3.4856    1.2016    0.0000 C   0  0  0  0  0  0  0  0  0  0  0  0
    2.0973   -0.5598    0.0000 C   0  0  3  0  0  0  0  0  0  0  0  0
    4.7992    1.8286    0.0000 C   0  0  0  0  0  0  0  0  0  0  0  0
    5.2471    0.0074    0.0000 C   0  0  0  0  0  0  0  0  0  0  0  0
    1.1121    0.3359    0.0000 C   0  0  3  0  0  0  0  0  0  0  0  0
    1.2913   -0.4851    0.0000 C   0  0  3  0  0  0  0  0  0  0  0  0
    0.3806    0.7240    0.0000 C   0  0  0  0  0  0  0  0  0  0  0  0
    4.6201   -1.2913    0.0000 C   0  0  0  0  0  0  0  0  0  0  0  0
   -0.5150   -0.5150    0.0000 C   0  0  0  0  0  0  0  0  0  0  0  0
   -0.7986   -1.6196    0.0000 C   0  0  0  0  0  0  0  0  0  0  0  0
   -1.1868   -0.9181    0.0000 C   0  0  0  0  0  0  0  0  0  0  0  0
   -0.1119   -1.2465    0.0000 C   0  0  0  0  0  0  0  0  0  0  0  0
   -1.0225    0.7389    0.0000 C   0  0  0  0  0  0  0  0  0  0  0  0
   -3.4557   -1.0524    0.0000 C   0  0  0  0  0  0  0  0  0  0  0  0
   -3.8587   -1.7838    0.0000 C   0  0  0  0  0  0  0  0  0  0  0  0
   -2.5452   -2.0525    0.0000 C   0  0  0  0  0  0  0  0  0  0  0  0
   -4.7096   -0.3209    0.0000 C   0  0  0  0  0  0  0  0  0  0  0  0
   -1.0076   -2.4556    0.0000 C   0  0  0  0  0  0  0  0  0  0  0  0
   -3.8737   -0.3359    0.0000 C   0  0  0  0  0  0  0  0  0  0  0  0
   -1.8435   -2.4556    0.0000 C   0  0  0  0  0  0  0  0  0  0  0  0
   -5.1127    0.3956    0.0000 C   0  0  0  0  0  0  0  0  0  0  0  0
   -4.6649   -1.7838    0.0000 C   0  0  0  0  0  0  0  0  0  0  0  0
   -5.0679   -1.0673    0.0000 C   0  0  0  0  0  0  0  0  0  0  0  0
   -1.0375    1.5748    0.0000 C   0  0  0  0  0  0  0  0  0  0  0  0
   -1.7391    0.3209    0.0000 C   0  0  0  0  0  0  0  0  0  0  0  0
   -5.9188    0.3508    0.0000 C   0  0  0  0  0  0  0  0  0  0  0  0
   -5.5158    1.0971    0.0000 C   0  0  0  0  0  0  0  0  0  0  0  0
   -4.7096    1.1121    0.0000 C   0  0  0  0  0  0  0  0  0  0  0  0
  1 20  1  0  0  0  0
  2 20  1  0  0  0  0
  3 20  1  0  0  0  0
 17  4  1  1  0  0  0
  4 22  1  0  0  0  0
 19  5  1  6  0  0  0
 23  6  1  6  0  0  0
  7 15  1  0  0  0  0
  7 17  1  0  0  0  0
  7 18  1  0  0  0  0
  8 15  1  0  0  0  0
  8 25  2  0  0  0  0
  9 21  2  0  0  0  0
  9 25  1  0  0  0  0
 10 24  1  0  0  0  0
 26 10  1  1  0  0  0
 10 30  1  0  0  0  0
 11 21  1  0  0  0  0
 12 31  1  0  0  0  0
 12 33  2  0  0  0  0
 13 32  1  0  0  0  0
 13 33  1  0  0  0  0
 14 15  2  0  0  0  0
 14 16  1  0  0  0  0
 14 21  1  0  0  0  0
 16 18  2  0  0  0  0
 16 20  1  0  0  0  0
 17 19  1  0  0  0  0
 19 23  1  0  0  0  0
 22 23  1  0  0  0  0
 22 24  1  1  0  0  0
 26 28  1  0  0  0  0
 26 29  1  0  0  0  0
 27 28  1  0  0  0  0
 27 29  1  0  0  0  0
 27 35  1  1  0  0  0
 30 41  1  0  0  0  0
 30 42  1  0  0  0  0
 31 32  2  0  0  0  0
 31 36  1  0  0  0  0
 32 39  1  0  0  0  0
 33 37  1  0  0  0  0
 34 36  2  0  0  0  0
 34 38  1  0  0  0  0
 34 40  1  0  0  0  0
 35 37  1  0  0  0  0
 38 43  1  0  0  0  0
 38 44  1  0  0  0  0
 38 45  1  0  0  0  0
 39 40  2  0  0  0  0
M  END
> <PUBCHEM_COMPOUND_ID_TYPE>
0

> <PUBCHEM_TOTAL_CHARGE>
0

> <PUBCHEM_SUBSTANCE_ID>
310942769

> <PUBCHEM_SUBSTANCE_VERSION>
1

> <PUBCHEM_EXT_DATASOURCE_NAME>
4488

> <PUBCHEM_EXT_DATASOURCE_REGID>
SCHEMBL16120822

> <PUBCHEM_SUBSTANCE_COMMENT>
InChI=1S/C32H42F3N7O3/c1-16(2)41(19-10-17(11-19)6-9-24-39-21-8-7-18(31(3,4)5)12-22(21)40-24)14-23-26(43)27(44)30(45-23)42-13-20(32(33,34)35)25-28(36)37-15-38-29(25)42/h7-8,12-13,15-17,19,23,26-27,30,43-44H,6,9-11,14H2,1-5H3,(H,39,40)(H2,36,37,38)/t17-,19+,23-,26-,27-,30-/m1/s1
InChIKey=NPGYTUOCAQWKSL-JFARKCADSA-N

> <PUBCHEM_SUBSTANCE_SYNONYM>
SCHEMBL16120822

> <PUBCHEM_XREF_EXT_ID>
SCHEMBL16120822

> <PUBCHEM_EXT_DATASOURCE_URL>
https://www.surechembl.org/

> <PUBCHEM_EXT_SUBSTANCE_URL>
https://www.surechembl.org/chemical/SCHEMBL16120822

> <PUBCHEM_CID_ASSOCIATIONS>
86275201  1

> <PUBCHEM_COORDINATE_TYPE>
1
3

> <PUBCHEM_BONDANNOTATIONS>
26  10  5
22  24  5
27  35  5
17  4  5
19  5  6
23  6  6

$$$$
