310937950
  -OEChem-07211613022D

 15 15  0     1  0  0  0  0  0999 V2000
    2.8373    0.0000    0.0000 O   0  0  0  0  0  0  0  0  0  0  0  0
    3.5375   -0.4053    0.0000 O   0  0  0  0  0  0  0  0  0  0  0  0
    4.2560   -1.6397    0.0000 O   0  0  0  0  0  0  0  0  0  0  0  0
    0.7001   -3.6848    0.0000 O   0  0  0  0  0  0  0  0  0  0  0  0
    0.0000   -2.4504    0.0000 O   0  0  0  0  0  0  0  0  0  0  0  0
    2.1188   -1.2344    0.0000 C   0  0  0  0  0  0  0  0  0  0  0  0
    2.8373   -1.6397    0.0000 C   0  0  0  0  0  0  0  0  0  0  0  0
    1.4002   -2.4504    0.0000 C   0  0  0  0  0  0  0  0  0  0  0  0
    1.4002   -1.6397    0.0000 C   0  0  0  0  0  0  0  0  0  0  0  0
    2.8373   -2.4504    0.0000 C   0  0  0  0  0  0  0  0  0  0  0  0
    2.1188   -0.4053    0.0000 C   0  0  3  0  0  0  0  0  0  0  0  0
    3.5375   -1.2344    0.0000 C   0  0  0  0  0  0  0  0  0  0  0  0
    2.1188   -2.8741    0.0000 C   0  0  0  0  0  0  0  0  0  0  0  0
    0.7001   -2.8741    0.0000 C   0  0  0  0  0  0  0  0  0  0  0  0
    1.4002    0.0000    0.0000 C   0  0  0  0  0  0  0  0  0  0  0  0
 11  1  1  6  0  0  0
  2 12  2  0  0  0  0
  3 12  1  0  0  0  0
  4 14  2  0  0  0  0
  5 14  1  0  0  0  0
  6  7  2  0  0  0  0
  6  9  1  0  0  0  0
  6 11  1  0  0  0  0
  7 10  1  0  0  0  0
  7 12  1  0  0  0  0
  8  9  2  0  0  0  0
  8 13  1  0  0  0  0
  8 14  1  0  0  0  0
 10 13  2  0  0  0  0
 11 15  1  0  0  0  0
M  END
> <PUBCHEM_COMPOUND_ID_TYPE>
0

> <PUBCHEM_TOTAL_CHARGE>
0

> <PUBCHEM_SUBSTANCE_ID>
310937950

> <PUBCHEM_SUBSTANCE_VERSION>
1

> <PUBCHEM_EXT_DATASOURCE_NAME>
4488

> <PUBCHEM_EXT_DATASOURCE_REGID>
SCHEMBL16115781

> <PUBCHEM_SUBSTANCE_COMMENT>
InChI=1S/C10H10O5/c1-5(11)8-4-6(9(12)13)2-3-7(8)10(14)15/h2-5,11H,1H3,(H,12,13)(H,14,15)/t5-/m0/s1
InChIKey=YJHDTRMEIAUDIN-YFKPBYRVSA-N

> <PUBCHEM_SUBSTANCE_SYNONYM>
SCHEMBL16115781

> <PUBCHEM_XREF_EXT_ID>
SCHEMBL16115781

> <PUBCHEM_EXT_DATASOURCE_URL>
https://www.surechembl.org/

> <PUBCHEM_EXT_SUBSTANCE_URL>
https://www.surechembl.org/chemical/SCHEMBL16115781

> <PUBCHEM_CID_ASSOCIATIONS>
117605554  1

> <PUBCHEM_COORDINATE_TYPE>
1
3

> <PUBCHEM_BONDANNOTATIONS>
11  1  6

$$$$
