310946231
  -OEChem-07211613022D

 48 52  0     1  0  0  0  0  0999 V2000
    0.1105   -7.3834    0.0000 O   0  0  0  0  0  0  0  0  0  0  0  0
   -1.3184   -4.0834    0.0000 O   0  0  0  0  0  0  0  0  0  0  0  0
    1.5395   -4.9084    0.0000 O   0  0  0  0  0  0  0  0  0  0  0  0
   -2.0329   -2.8459    0.0000 O   0  0  0  0  0  0  0  0  0  0  0  0
   -2.0329   -5.3209    0.0000 O   0  0  0  0  0  0  0  0  0  0  0  0
   -4.8908   -2.8459    0.0000 O   0  0  0  0  0  0  0  0  0  0  0  0
    0.1105   -5.7334    0.0000 C   0  0  0  0  0  0  0  0  0  0  0  0
   -0.6039   -6.1459    0.0000 C   0  0  0  0  0  0  0  0  0  0  0  0
    0.8250   -6.1459    0.0000 C   0  0  0  0  0  0  0  0  0  0  0  0
   -0.6039   -6.9709    0.0000 C   0  0  0  0  0  0  0  0  0  0  0  0
    0.8250   -6.9709    0.0000 C   0  0  0  0  0  0  0  0  0  0  0  0
   -0.6039   -4.4959    0.0000 C   0  0  3  0  0  0  0  0  0  0  0  0
    0.1105   -4.9084    0.0000 C   0  0  0  0  0  0  0  0  0  0  0  0
    1.5395   -5.7334    0.0000 C   0  0  0  0  0  0  0  0  0  0  0  0
   -1.3184   -5.7334    0.0000 C   0  0  0  0  0  0  0  0  0  0  0  0
   -2.7474   -4.0834    0.0000 C   0  0  0  0  0  0  0  0  0  0  0  0
   -1.3184   -4.9084    0.0000 C   0  0  0  0  0  0  0  0  0  0  0  0
   -3.4618   -2.8459    0.0000 C   0  0  0  0  0  0  0  0  0  0  0  0
   -2.7474   -3.2584    0.0000 C   0  0  0  0  0  0  0  0  0  0  0  0
   -2.0329   -4.4959    0.0000 C   0  0  0  0  0  0  0  0  0  0  0  0
    1.5395   -7.3834    0.0000 C   0  0  0  0  0  0  0  0  0  0  0  0
    2.2539   -6.9709    0.0000 C   0  0  0  0  0  0  0  0  0  0  0  0
   -3.4618   -4.4959    0.0000 C   0  0  0  0  0  0  0  0  0  0  0  0
    2.2539   -6.1459    0.0000 C   0  0  0  0  0  0  0  0  0  0  0  0
   -3.4618   -2.0209    0.0000 C   0  0  3  0  0  0  0  0  0  0  0  0
   -4.1763   -3.2584    0.0000 C   0  0  0  0  0  0  0  0  0  0  0  0
   -1.4289   -6.9709    0.0000 C   0  0  0  0  0  0  0  0  0  0  0  0
   -1.0164   -7.6854    0.0000 C   0  0  0  0  0  0  0  0  0  0  0  0
   -4.1763   -4.0834    0.0000 C   0  0  0  0  0  0  0  0  0  0  0  0
    0.1105   -4.0834    0.0000 C   0  0  0  0  0  0  0  0  0  0  0  0
   -3.8743   -1.3064    0.0000 C   0  0  3  0  0  0  0  0  0  0  0  0
   -2.6368   -2.0209    0.0000 C   0  0  0  0  0  0  0  0  0  0  0  0
   -3.4618   -5.3209    0.0000 C   0  0  0  0  0  0  0  0  0  0  0  0
    2.9684   -7.3834    0.0000 C   0  0  0  0  0  0  0  0  0  0  0  0
   -2.2243   -1.3064    0.0000 C   0  0  0  0  0  0  0  0  0  0  0  0
   -3.4618   -0.5919    0.0000 C   0  0  0  0  0  0  0  0  0  0  0  0
   -4.6993   -1.3064    0.0000 C   0  0  0  0  0  0  0  0  0  0  0  0
   -2.6368   -0.5919    0.0000 C   0  0  0  0  0  0  0  0  0  0  0  0
   -4.1763   -5.7334    0.0000 C   0  0  0  0  0  0  0  0  0  0  0  0
    3.6829   -6.9709    0.0000 C   0  0  0  0  0  0  0  0  0  0  0  0
   -1.3993   -1.3064    0.0000 C   0  0  0  0  0  0  0  0  0  0  0  0
   -5.1118   -2.0209    0.0000 C   0  0  0  0  0  0  0  0  0  0  0  0
   -5.1118   -0.5919    0.0000 C   0  0  0  0  0  0  0  0  0  0  0  0
   -4.1763   -6.5584    0.0000 C   0  0  0  0  0  0  0  0  0  0  0  0
    4.3974   -7.3834    0.0000 C   0  0  0  0  0  0  0  0  0  0  0  0
   -4.8908   -6.9709    0.0000 C   0  0  0  0  0  0  0  0  0  0  0  0
    5.1118   -6.9709    0.0000 C   0  0  0  0  0  0  0  0  0  0  0  0
   -4.8908   -7.7959    0.0000 C   0  0  0  0  0  0  0  0  0  0  0  0
  1 10  1  0  0  0  0
  1 11  1  0  0  0  0
  2 12  1  0  0  0  0
  2 20  1  0  0  0  0
  3 14  1  0  0  0  0
  4 19  1  0  0  0  0
  5 20  2  0  0  0  0
  6 26  1  0  0  0  0
  7  8  2  0  0  0  0
  7  9  1  0  0  0  0
  7 13  1  0  0  0  0
  8 10  1  0  0  0  0
  8 15  1  0  0  0  0
  9 11  2  0  0  0  0
  9 14  1  0  0  0  0
 10 27  1  0  0  0  0
 10 28  1  0  0  0  0
 11 21  1  0  0  0  0
 12 13  1  0  0  0  0
 12 17  1  0  0  0  0
 12 30  1  0  0  0  0
 14 24  2  0  0  0  0
 15 17  1  0  0  0  0
 16 19  2  0  0  0  0
 16 20  1  0  0  0  0
 16 23  1  0  0  0  0
 18 19  1  0  0  0  0
 25 18  1  1  0  0  0
 18 26  2  0  0  0  0
 21 22  2  0  0  0  0
 22 24  1  0  0  0  0
 22 34  1  0  0  0  0
 23 29  2  0  0  0  0
 23 33  1  0  0  0  0
 25 31  1  0  0  0  0
 25 32  1  0  0  0  0
 26 29  1  0  0  0  0
 31 36  1  0  0  0  0
 31 37  1  6  0  0  0
 32 35  2  0  0  0  0
 33 39  1  0  0  0  0
 34 40  1  0  0  0  0
 35 38  1  0  0  0  0
 35 41  1  0  0  0  0
 36 38  1  0  0  0  0
 37 42  2  0  0  0  0
 37 43  1  0  0  0  0
 39 44  1  0  0  0  0
 40 45  1  0  0  0  0
 44 46  1  0  0  0  0
 45 47  1  0  0  0  0
 46 48  1  0  0  0  0
M  END
> <PUBCHEM_COMPOUND_ID_TYPE>
0

> <PUBCHEM_TOTAL_CHARGE>
0

> <PUBCHEM_SUBSTANCE_ID>
310946231

> <PUBCHEM_SUBSTANCE_VERSION>
1

> <PUBCHEM_EXT_DATASOURCE_NAME>
4488

> <PUBCHEM_EXT_DATASOURCE_REGID>
SCHEMBL16124347

> <PUBCHEM_SUBSTANCE_COMMENT>
InChI=1S/C42H56O6/c1-9-11-13-15-28-23-34(44)38(30-20-26(5)16-17-29(30)25(3)4)39(45)36(28)40(46)48-42(8)19-18-32-31(24-42)37-33(43)21-27(14-12-10-2)22-35(37)47-41(32,6)7/h20-23,29-30,43-45H,3,9-19,24H2,1-2,4-8H3/t29-,30+,42?/m0/s1
InChIKey=YBFCSTWONLUFPJ-WRJCTODVSA-N

> <PUBCHEM_SUBSTANCE_SYNONYM>
SCHEMBL16124347

> <PUBCHEM_XREF_EXT_ID>
SCHEMBL16124347

> <PUBCHEM_EXT_DATASOURCE_URL>
https://www.surechembl.org/

> <PUBCHEM_EXT_SUBSTANCE_URL>
https://www.surechembl.org/chemical/SCHEMBL16124347

> <PUBCHEM_CID_ASSOCIATIONS>
117612179  1

> <PUBCHEM_COORDINATE_TYPE>
1
3

> <PUBCHEM_BONDANNOTATIONS>
25  18  5
31  37  6

$$$$
