310933411
  -OEChem-07211613022D

 11 12  0     0  0  0  0  0  0999 V2000
    1.5815    0.0000    0.0000 Br  0  0  0  0  0  0  0  0  0  0  0  0
    1.9870   -2.1222    0.0000 N   0  0  0  0  0  0  0  0  0  0  0  0
    4.0551   -1.4193    0.0000 N   0  0  0  0  0  0  0  0  0  0  0  0
    1.5545   -1.4193    0.0000 C   0  0  0  0  0  0  0  0  0  0  0  0
    0.7299   -1.4193    0.0000 C   0  0  0  0  0  0  0  0  0  0  0  0
    1.9870   -0.7029    0.0000 C   0  0  0  0  0  0  0  0  0  0  0  0
    2.7980   -0.7029    0.0000 C   0  0  0  0  0  0  0  0  0  0  0  0
    3.2306   -1.4193    0.0000 C   0  0  0  0  0  0  0  0  0  0  0  0
    0.0270   -1.8248    0.0000 C   0  0  0  0  0  0  0  0  0  0  0  0
    0.0000   -1.0003    0.0000 C   0  0  0  0  0  0  0  0  0  0  0  0
    2.7980   -2.1222    0.0000 C   0  0  0  0  0  0  0  0  0  0  0  0
  1  6  1  0  0  0  0
  2  4  2  0  0  0  0
  2 11  1  0  0  0  0
  3  8  1  0  0  0  0
  4  5  1  0  0  0  0
  4  6  1  0  0  0  0
  5  9  1  0  0  0  0
  5 10  1  0  0  0  0
  6  7  2  0  0  0  0
  7  8  1  0  0  0  0
  8 11  2  0  0  0  0
  9 10  1  0  0  0  0
M  END
> <PUBCHEM_COMPOUND_ID_TYPE>
0

> <PUBCHEM_TOTAL_CHARGE>
0

> <PUBCHEM_SUBSTANCE_ID>
310933411

> <PUBCHEM_SUBSTANCE_VERSION>
1

> <PUBCHEM_EXT_DATASOURCE_NAME>
4488

> <PUBCHEM_EXT_DATASOURCE_REGID>
SCHEMBL16110827

> <PUBCHEM_SUBSTANCE_COMMENT>
InChI=1S/C8H9BrN2/c9-7-3-6(10)4-11-8(7)5-1-2-5/h3-5H,1-2,10H2
InChIKey=KETNMRPDYGLFLI-UHFFFAOYSA-N

> <PUBCHEM_SUBSTANCE_SYNONYM>
SCHEMBL16110827

> <PUBCHEM_XREF_EXT_ID>
SCHEMBL16110827

> <PUBCHEM_EXT_DATASOURCE_URL>
https://www.surechembl.org/

> <PUBCHEM_EXT_SUBSTANCE_URL>
https://www.surechembl.org/chemical/SCHEMBL16110827

> <PUBCHEM_CID_ASSOCIATIONS>
105466480  1

> <PUBCHEM_COORDINATE_TYPE>
1
3

$$$$
