310939495
  -OEChem-07211613022D

 30 34  0     1  0  0  0  0  0999 V2000
    3.5422   -0.0115    0.0000 O   0  0  0  0  0  0  0  0  0  0  0  0
    1.7892   -2.1119    0.0000 O   0  0  0  0  0  0  0  0  0  0  0  0
   -2.0119   -0.0246    0.0000 O   0  0  0  0  0  0  0  0  0  0  0  0
    1.5605    1.2129    0.0000 N   0  0  0  0  0  0  0  0  0  0  0  0
    0.8460    0.8004    0.0000 N   0  0  0  0  0  0  0  0  0  0  0  0
    2.3451    2.2928    0.0000 N   0  0  0  0  0  0  0  0  0  0  0  0
    3.1992   -2.4504    0.0000 N   0  0  0  0  0  0  0  0  0  0  0  0
   -0.5829    0.8004    0.0000 N   0  0  0  0  0  0  0  0  0  0  0  0
    2.3451    0.9580    0.0000 C   0  0  0  0  0  0  0  0  0  0  0  0
    2.7576    0.2435    0.0000 C   0  0  0  0  0  0  0  0  0  0  0  0
    2.7576   -1.0914    0.0000 C   0  0  0  0  0  0  0  0  0  0  0  0
    3.5422   -0.8365    0.0000 C   0  0  0  0  0  0  0  0  0  0  0  0
    1.5605    2.0379    0.0000 C   0  0  0  0  0  0  0  0  0  0  0  0
    2.2727   -0.4240    0.0000 C   0  0  0  0  0  0  0  0  0  0  0  0
    2.8300    1.6254    0.0000 C   0  0  0  0  0  0  0  0  0  0  0  0
    2.5861   -1.8984    0.0000 C   0  0  0  0  0  0  0  0  0  0  0  0
    0.1315    1.2129    0.0000 C   0  0  0  0  0  0  0  0  0  0  0  0
    0.8460    2.4504    0.0000 C   0  0  0  0  0  0  0  0  0  0  0  0
    4.1553   -1.3885    0.0000 C   0  0  0  0  0  0  0  0  0  0  0  0
    0.1315    2.0379    0.0000 C   0  0  0  0  0  0  0  0  0  0  0  0
    3.9838   -2.1955    0.0000 C   0  0  0  0  0  0  0  0  0  0  0  0
   -1.2974    1.2129    0.0000 C   0  0  0  0  0  0  0  0  0  0  0  0
   -2.0119    0.8004    0.0000 C   0  0  3  0  0  0  0  0  0  0  0  0
   -2.7264    1.2129    0.0000 C   0  0  0  0  0  0  0  0  0  0  0  0
    1.2058   -1.5285    0.0000 C   0  0  0  0  0  0  0  0  0  0  0  0
   -2.7264    2.0379    0.0000 C   0  0  0  0  0  0  0  0  0  0  0  0
   -3.4408    0.8004    0.0000 C   0  0  0  0  0  0  0  0  0  0  0  0
   -3.4408    2.4504    0.0000 C   0  0  0  0  0  0  0  0  0  0  0  0
   -4.1553    1.2129    0.0000 C   0  0  0  0  0  0  0  0  0  0  0  0
   -4.1553    2.0379    0.0000 C   0  0  0  0  0  0  0  0  0  0  0  0
  1 10  1  0  0  0  0
  1 12  1  0  0  0  0
  2 16  1  0  0  0  0
  2 25  1  0  0  0  0
 23  3  1  6  0  0  0
  4  5  1  0  0  0  0
  4  9  1  0  0  0  0
  4 13  1  0  0  0  0
  5 17  2  0  0  0  0
  6 13  2  0  0  0  0
  6 15  1  0  0  0  0
  7 16  2  0  0  0  0
  7 21  1  0  0  0  0
  8 17  1  0  0  0  0
  8 22  1  0  0  0  0
  9 10  1  0  0  0  0
  9 15  2  0  0  0  0
 10 14  2  0  0  0  0
 11 12  2  0  0  0  0
 11 14  1  0  0  0  0
 11 16  1  0  0  0  0
 12 19  1  0  0  0  0
 13 18  1  0  0  0  0
 17 20  1  0  0  0  0
 18 20  2  0  0  0  0
 19 21  2  0  0  0  0
 22 23  1  0  0  0  0
 23 24  1  0  0  0  0
 24 26  2  0  0  0  0
 24 27  1  0  0  0  0
 26 28  1  0  0  0  0
 27 29  2  0  0  0  0
 28 30  2  0  0  0  0
 29 30  1  0  0  0  0
M  END
> <PUBCHEM_COMPOUND_ID_TYPE>
0

> <PUBCHEM_TOTAL_CHARGE>
0

> <PUBCHEM_SUBSTANCE_ID>
310939495

> <PUBCHEM_SUBSTANCE_VERSION>
1

> <PUBCHEM_EXT_DATASOURCE_NAME>
4488

> <PUBCHEM_EXT_DATASOURCE_REGID>
SCHEMBL16117424

> <PUBCHEM_SUBSTANCE_COMMENT>
InChI=1S/C22H19N5O3/c1-29-22-15-11-19(30-18(15)9-10-23-22)16-12-25-21-8-7-20(26-27(16)21)24-13-17(28)14-5-3-2-4-6-14/h2-12,17,28H,13H2,1H3,(H,24,26)/t17-/m0/s1
InChIKey=REAUMEFIVWHGEV-KRWDZBQOSA-N

> <PUBCHEM_SUBSTANCE_SYNONYM>
SCHEMBL16117424

> <PUBCHEM_XREF_EXT_ID>
SCHEMBL16117424

> <PUBCHEM_EXT_DATASOURCE_URL>
https://www.surechembl.org/

> <PUBCHEM_EXT_SUBSTANCE_URL>
https://www.surechembl.org/chemical/SCHEMBL16117424

> <PUBCHEM_CID_ASSOCIATIONS>
117606799  1

> <PUBCHEM_COORDINATE_TYPE>
1
3

> <PUBCHEM_BONDANNOTATIONS>
23  3  6

$$$$
