310933260
  -OEChem-07211613022D

 28 30  0     1  0  0  0  0  0999 V2000
    4.2208   -1.4412    0.0000 O   0  0  0  0  0  0  0  0  0  0  0  0
    0.7206   -5.2160    0.0000 O   0  0  0  0  0  0  0  0  0  0  0  0
    4.9758   -1.9217    0.0000 O   0  0  0  0  0  0  0  0  0  0  0  0
    5.6964   -3.1570    0.0000 O   0  0  0  0  0  0  0  0  0  0  0  0
    2.9168   -1.4412    0.0000 N   0  0  0  0  0  0  0  0  0  0  0  0
    3.1570   -0.6863    0.0000 N   0  0  0  0  0  0  0  0  0  0  0  0
    2.8482   -3.1570    0.0000 C   0  0  0  0  0  0  0  0  0  0  0  0
    3.5689   -2.7453    0.0000 C   0  0  3  0  0  0  0  0  0  0  0  0
    2.1276   -4.3924    0.0000 C   0  0  0  0  0  0  0  0  0  0  0  0
    3.5689   -1.9217    0.0000 C   0  0  0  0  0  0  0  0  0  0  0  0
    2.8482   -3.9806    0.0000 C   0  0  0  0  0  0  0  0  0  0  0  0
    2.1276   -5.2160    0.0000 C   0  0  0  0  0  0  0  0  0  0  0  0
    1.4069   -3.1570    0.0000 C   0  0  0  0  0  0  0  0  0  0  0  0
    2.1276   -2.7453    0.0000 C   0  0  0  0  0  0  0  0  0  0  0  0
    1.4069   -3.9806    0.0000 C   0  0  0  0  0  0  0  0  0  0  0  0
    1.4069   -5.6278    0.0000 C   0  0  0  0  0  0  0  0  0  0  0  0
    4.2551   -3.1570    0.0000 C   0  0  0  0  0  0  0  0  0  0  0  0
    3.9806   -0.6520    0.0000 C   0  0  0  0  0  0  0  0  0  0  0  0
    0.7206   -2.7453    0.0000 C   0  0  0  0  0  0  0  0  0  0  0  0
    2.8482   -5.6278    0.0000 C   0  0  0  0  0  0  0  0  0  0  0  0
    4.9758   -2.7453    0.0000 C   0  0  0  0  0  0  0  0  0  0  0  0
    1.4069   -6.4513    0.0000 C   0  0  0  0  0  0  0  0  0  0  0  0
    2.8482   -6.4513    0.0000 C   0  0  0  0  0  0  0  0  0  0  0  0
    2.1276   -6.8632    0.0000 C   0  0  0  0  0  0  0  0  0  0  0  0
    4.4610    0.0000    0.0000 C   0  0  0  0  0  0  0  0  0  0  0  0
    0.0000   -3.1570    0.0000 C   0  0  0  0  0  0  0  0  0  0  0  0
    0.7206   -1.9217    0.0000 C   0  0  0  0  0  0  0  0  0  0  0  0
    0.0000   -5.6278    0.0000 C   0  0  0  0  0  0  0  0  0  0  0  0
  1 10  1  0  0  0  0
  1 18  1  0  0  0  0
  2 16  1  0  0  0  0
  2 28  1  0  0  0  0
  3 21  2  0  0  0  0
  4 21  1  0  0  0  0
  5  6  1  0  0  0  0
  5 10  2  0  0  0  0
  6 18  2  0  0  0  0
  7  8  1  0  0  0  0
  7 11  1  0  0  0  0
  7 14  2  0  0  0  0
  8 10  1  0  0  0  0
  8 17  1  6  0  0  0
  9 11  2  0  0  0  0
  9 12  1  0  0  0  0
  9 15  1  0  0  0  0
 12 16  2  0  0  0  0
 12 20  1  0  0  0  0
 13 14  1  0  0  0  0
 13 15  2  0  0  0  0
 13 19  1  0  0  0  0
 16 22  1  0  0  0  0
 17 21  1  0  0  0  0
 18 25  1  0  0  0  0
 19 26  1  0  0  0  0
 19 27  1  0  0  0  0
 20 23  2  0  0  0  0
 22 24  2  0  0  0  0
 23 24  1  0  0  0  0
M  END
> <PUBCHEM_COMPOUND_ID_TYPE>
0

> <PUBCHEM_TOTAL_CHARGE>
0

> <PUBCHEM_SUBSTANCE_ID>
310933260

> <PUBCHEM_SUBSTANCE_VERSION>
1

> <PUBCHEM_EXT_DATASOURCE_NAME>
4488

> <PUBCHEM_EXT_DATASOURCE_REGID>
SCHEMBL16110669

> <PUBCHEM_SUBSTANCE_COMMENT>
InChI=1S/C22H24N2O4/c1-13(2)15-9-16(18-7-5-6-8-20(18)27-4)11-17(10-15)19(12-21(25)26)22-24-23-14(3)28-22/h5-11,13,19H,12H2,1-4H3,(H,25,26)/t19-/m1/s1
InChIKey=GZKGQHAEIZXELM-LJQANCHMSA-N

> <PUBCHEM_SUBSTANCE_SYNONYM>
SCHEMBL16110669

> <PUBCHEM_XREF_EXT_ID>
SCHEMBL16110669

> <PUBCHEM_EXT_DATASOURCE_URL>
https://www.surechembl.org/

> <PUBCHEM_EXT_SUBSTANCE_URL>
https://www.surechembl.org/chemical/SCHEMBL16110669

> <PUBCHEM_CID_ASSOCIATIONS>
117601691  1

> <PUBCHEM_COORDINATE_TYPE>
1
3

> <PUBCHEM_BONDANNOTATIONS>
8  17  6

$$$$
