310939842
  -OEChem-07211613022D

 24 26  0     0  0  0  0  0  0999 V2000
   -0.4369   -2.4750    0.0000 Br  0  0  0  0  0  0  0  0  0  0  0  0
   -0.4369   -0.8250    0.0000 O   0  0  0  0  0  0  0  0  0  0  0  0
    2.4210    2.4750    0.0000 O   0  0  0  0  0  0  0  0  0  0  0  0
   -2.5803   -2.0625    0.0000 N   0  0  0  0  0  0  0  0  0  0  0  0
   -3.3650   -0.9826    0.0000 N   0  0  0  0  0  0  0  0  0  0  0  0
   -1.8659    0.0000    0.0000 N   0  0  0  0  0  0  0  0  0  0  0  0
    0.2775    0.4125    0.0000 N   0  0  0  0  0  0  0  0  0  0  0  0
    1.7065    1.2375    0.0000 N   0  0  0  0  0  0  0  0  0  0  0  0
   -2.5803   -1.2375    0.0000 C   0  0  0  0  0  0  0  0  0  0  0  0
   -1.8659   -0.8250    0.0000 C   0  0  0  0  0  0  0  0  0  0  0  0
   -1.8659   -2.4750    0.0000 C   0  0  0  0  0  0  0  0  0  0  0  0
   -1.1514   -1.2375    0.0000 C   0  0  0  0  0  0  0  0  0  0  0  0
   -1.1514   -2.0625    0.0000 C   0  0  0  0  0  0  0  0  0  0  0  0
   -3.3650   -2.3174    0.0000 C   0  0  0  0  0  0  0  0  0  0  0  0
   -0.4369    0.0000    0.0000 C   0  0  0  0  0  0  0  0  0  0  0  0
   -3.8499   -1.6500    0.0000 C   0  0  0  0  0  0  0  0  0  0  0  0
   -1.1514    0.4125    0.0000 C   0  0  0  0  0  0  0  0  0  0  0  0
    0.9920    0.0000    0.0000 C   0  0  0  0  0  0  0  0  0  0  0  0
    0.2775    1.2375    0.0000 C   0  0  0  0  0  0  0  0  0  0  0  0
    1.7065    0.4125    0.0000 C   0  0  0  0  0  0  0  0  0  0  0  0
    0.9920    1.6500    0.0000 C   0  0  0  0  0  0  0  0  0  0  0  0
    2.4210    1.6500    0.0000 C   0  0  0  0  0  0  0  0  0  0  0  0
    3.1354    1.2375    0.0000 C   0  0  0  0  0  0  0  0  0  0  0  0
    3.8499    1.6500    0.0000 C   0  0  0  0  0  0  0  0  0  0  0  0
  1 13  1  0  0  0  0
  2 15  2  0  0  0  0
  3 22  2  0  0  0  0
  4  9  1  0  0  0  0
  4 11  1  0  0  0  0
  4 14  1  0  0  0  0
  5  9  2  0  0  0  0
  5 16  1  0  0  0  0
  6 10  1  0  0  0  0
  6 17  1  0  0  0  0
  7 15  1  0  0  0  0
  7 18  1  0  0  0  0
  7 19  1  0  0  0  0
  8 20  1  0  0  0  0
  8 21  1  0  0  0  0
  8 22  1  0  0  0  0
  9 10  1  0  0  0  0
 10 12  2  0  0  0  0
 11 13  2  0  0  0  0
 12 13  1  0  0  0  0
 14 16  2  0  0  0  0
 15 17  1  0  0  0  0
 18 20  1  0  0  0  0
 19 21  1  0  0  0  0
 22 23  1  0  0  0  0
 23 24  2  0  0  0  0
M  END
> <PUBCHEM_COMPOUND_ID_TYPE>
0

> <PUBCHEM_TOTAL_CHARGE>
0

> <PUBCHEM_SUBSTANCE_ID>
310939842

> <PUBCHEM_SUBSTANCE_VERSION>
1

> <PUBCHEM_EXT_DATASOURCE_NAME>
4488

> <PUBCHEM_EXT_DATASOURCE_REGID>
SCHEMBL16117772

> <PUBCHEM_SUBSTANCE_COMMENT>
InChI=1S/C16H18BrN5O2/c1-2-14(23)20-5-7-21(8-6-20)15(24)10-19-13-9-12(17)11-22-4-3-18-16(13)22/h2-4,9,11,19H,1,5-8,10H2
InChIKey=SQOHUVAVPXQPIY-UHFFFAOYSA-N

> <PUBCHEM_SUBSTANCE_SYNONYM>
SCHEMBL16117772

> <PUBCHEM_XREF_EXT_ID>
SCHEMBL16117772

> <PUBCHEM_EXT_DATASOURCE_URL>
https://www.surechembl.org/

> <PUBCHEM_EXT_SUBSTANCE_URL>
https://www.surechembl.org/chemical/SCHEMBL16117772

> <PUBCHEM_CID_ASSOCIATIONS>
117607059  1

> <PUBCHEM_COORDINATE_TYPE>
1
3

$$$$
