310942751
  -OEChem-07211613022D

 58 62  0     1  0  0  0  0  0999 V2000
   -4.2581    0.5101    0.0000 F   0  0  0  0  0  0  0  0  0  0  0  0
    2.2762   -0.6868    0.0000 F   0  0  0  0  0  0  0  0  0  0  0  0
   -4.2581   -2.8255    0.0000 F   0  0  0  0  0  0  0  0  0  0  0  0
   -1.6090    4.3561    0.0000 F   0  0  0  0  0  0  0  0  0  0  0  0
   -1.5305   -1.3539    0.0000 O   0  0  0  0  0  0  0  0  0  0  0  0
   -0.7064   -2.7863    0.0000 O   0  0  0  0  0  0  0  0  0  0  0  0
    2.0800   -3.8656    0.0000 O   0  0  0  0  0  0  0  0  0  0  0  0
    1.7856    1.5305    0.0000 O   0  0  0  0  0  0  0  0  0  0  0  0
   -4.1010    2.9237    0.0000 O   0  0  0  0  0  0  0  0  0  0  0  0
    0.6476   -3.8656    0.0000 O   0  0  0  0  0  0  0  0  0  0  0  0
   -1.9623   -3.4928    0.0000 O   0  0  0  0  0  0  0  0  0  0  0  0
   -4.1010    4.3561    0.0000 O   0  0  0  0  0  0  0  0  0  0  0  0
   -0.2943   -0.6280    0.0000 N   0  0  0  0  0  0  0  0  0  0  0  0
   -2.0211    0.7653    0.0000 N   0  0  0  0  0  0  0  0  0  0  0  0
   -2.0211   -0.5886    0.0000 N   0  0  0  0  0  0  0  0  0  0  0  0
    1.3736   -2.6293    0.0000 N   0  0  0  0  0  0  0  0  0  0  0  0
   -0.7064    0.0785    0.0000 C   0  0  3  0  0  0  0  0  0  0  0  0
   -1.5501    0.0981    0.0000 C   0  0  0  0  0  0  0  0  0  0  0  0
   -0.2747    0.8634    0.0000 C   0  0  0  0  0  0  0  0  0  0  0  0
   -2.8255   -0.3139    0.0000 C   0  0  0  0  0  0  0  0  0  0  0  0
   -2.7863    0.5101    0.0000 C   0  0  0  0  0  0  0  0  0  0  0  0
   -0.6868   -1.3343    0.0000 C   0  0  0  0  0  0  0  0  0  0  0  0
   -3.5124   -0.7260    0.0000 C   0  0  0  0  0  0  0  0  0  0  0  0
    0.5494   -0.6476    0.0000 C   0  0  0  0  0  0  0  0  0  0  0  0
   -1.6090    1.4912    0.0000 C   0  0  0  0  0  0  0  0  0  0  0  0
    0.9615   -1.3343    0.0000 C   0  0  3  0  0  0  0  0  0  0  0  0
    0.5297    0.8046    0.0000 C   0  0  0  0  0  0  0  0  0  0  0  0
   -4.2384   -0.3139    0.0000 C   0  0  0  0  0  0  0  0  0  0  0  0
   -0.2943   -2.0603    0.0000 C   0  0  3  0  0  0  0  0  0  0  0  0
   -0.7260    1.5109    0.0000 C   0  0  0  0  0  0  0  0  0  0  0  0
    0.1177    1.5501    0.0000 C   0  0  0  0  0  0  0  0  0  0  0  0
   -2.0211    2.1977    0.0000 C   0  0  0  0  0  0  0  0  0  0  0  0
    1.7856   -1.3539    0.0000 C   0  0  3  0  0  0  0  0  0  0  0  0
   -3.5320   -1.5501    0.0000 C   0  0  0  0  0  0  0  0  0  0  0  0
    0.7064   -2.1389    0.0000 C   0  0  0  0  0  0  0  0  0  0  0  0
    2.0407   -2.1389    0.0000 C   0  0  0  0  0  0  0  0  0  0  0  0
   -4.2384   -1.9623    0.0000 C   0  0  0  0  0  0  0  0  0  0  0  0
   -4.9448   -0.7260    0.0000 C   0  0  0  0  0  0  0  0  0  0  0  0
    0.9615    1.5305    0.0000 C   0  0  0  0  0  0  0  0  0  0  0  0
   -2.8452    2.2173    0.0000 C   0  0  0  0  0  0  0  0  0  0  0  0
   -1.6090    2.9237    0.0000 C   0  0  0  0  0  0  0  0  0  0  0  0
    1.3736   -3.4339    0.0000 C   0  0  0  0  0  0  0  0  0  0  0  0
   -4.9448   -1.5698    0.0000 C   0  0  0  0  0  0  0  0  0  0  0  0
   -3.2573    2.9433    0.0000 C   0  0  0  0  0  0  0  0  0  0  0  0
   -2.0407    3.6497    0.0000 C   0  0  0  0  0  0  0  0  0  0  0  0
    0.2747   -2.6293    0.0000 C   0  0  0  0  0  0  0  0  0  0  0  0
   -2.8452    3.6301    0.0000 C   0  0  0  0  0  0  0  0  0  0  0  0
   -1.5305   -2.7667    0.0000 C   0  0  0  0  0  0  0  0  0  0  0  0
    2.8059   -3.4535    0.0000 C   0  0  0  0  0  0  0  0  0  0  0  0
   -1.9623   -2.0407    0.0000 C   0  0  0  0  0  0  0  0  0  0  0  0
   -4.5131    3.6497    0.0000 C   0  0  0  0  0  0  0  0  0  0  0  0
    3.5320   -3.8656    0.0000 C   0  0  0  0  0  0  0  0  0  0  0  0
    3.5516   -4.7093    0.0000 C   0  0  0  0  0  0  0  0  0  0  0  0
    4.2187   -3.4732    0.0000 C   0  0  0  0  0  0  0  0  0  0  0  0
    4.2777   -5.1017    0.0000 C   0  0  0  0  0  0  0  0  0  0  0  0
    4.9448   -3.8656    0.0000 C   0  0  0  0  0  0  0  0  0  0  0  0
    4.9448   -4.6897    0.0000 C   0  0  0  0  0  0  0  0  0  0  0  0
   -4.4935    5.1017    0.0000 C   0  0  0  0  0  0  0  0  0  0  0  0
  1 28  1  0  0  0  0
 33  2  1  1  0  0  0
  3 37  1  0  0  0  0
  4 45  1  0  0  0  0
  5 22  2  0  0  0  0
  6 29  1  0  0  0  0
  6 48  1  0  0  0  0
  7 42  1  0  0  0  0
  7 49  1  0  0  0  0
  8 39  1  0  0  0  0
  9 44  1  0  0  0  0
  9 51  1  0  0  0  0
 10 42  2  0  0  0  0
 11 48  2  0  0  0  0
 12 51  1  0  0  0  0
 12 58  1  0  0  0  0
 17 13  1  1  0  0  0
 13 22  1  0  0  0  0
 13 24  1  0  0  0  0
 14 18  1  0  0  0  0
 14 21  1  0  0  0  0
 14 25  1  0  0  0  0
 15 18  2  0  0  0  0
 15 20  1  0  0  0  0
 16 35  1  0  0  0  0
 16 36  1  0  0  0  0
 16 42  1  0  0  0  0
 17 18  1  0  0  0  0
 17 19  1  0  0  0  0
 19 27  1  0  0  0  0
 19 30  1  0  0  0  0
 19 31  1  0  0  0  0
 20 21  2  0  0  0  0
 20 23  1  0  0  0  0
 22 29  1  0  0  0  0
 23 28  2  0  0  0  0
 23 34  1  0  0  0  0
 26 24  1  1  0  0  0
 25 32  1  0  0  0  0
 26 33  1  0  0  0  0
 26 35  1  0  0  0  0
 27 39  1  0  0  0  0
 28 38  1  0  0  0  0
 29 46  1  6  0  0  0
 32 40  1  0  0  0  0
 32 41  2  0  0  0  0
 33 36  1  0  0  0  0
 34 37  2  0  0  0  0
 37 43  1  0  0  0  0
 38 43  2  0  0  0  0
 40 44  2  0  0  0  0
 41 45  1  0  0  0  0
 44 47  1  0  0  0  0
 45 47  2  0  0  0  0
 48 50  1  0  0  0  0
 49 52  1  0  0  0  0
 52 53  2  0  0  0  0
 52 54  1  0  0  0  0
 53 55  1  0  0  0  0
 54 56  2  0  0  0  0
 55 57  2  0  0  0  0
 56 57  1  0  0  0  0
M  END
> <PUBCHEM_COMPOUND_ID_TYPE>
0

> <PUBCHEM_TOTAL_CHARGE>
0

> <PUBCHEM_SUBSTANCE_ID>
310942751

> <PUBCHEM_SUBSTANCE_VERSION>
1

> <PUBCHEM_EXT_DATASOURCE_NAME>
4488

> <PUBCHEM_EXT_DATASOURCE_REGID>
SCHEMBL16120803

> <PUBCHEM_SUBSTANCE_COMMENT>
InChI=1S/C42H48F4N4O8/c1-26(58-27(2)52)40(53)50(21-30-20-49(22-36(30)46)41(54)56-24-28-9-7-6-8-10-28)38(42(3,4)13-14-51)39-47-37(34-18-31(43)11-12-35(34)45)23-48(39)19-29-15-32(44)17-33(16-29)57-25-55-5/h6-12,15-18,23,26,30,36,38,51H,13-14,19-22,24-25H2,1-5H3/t26-,30-,36-,38-/m0/s1
InChIKey=VLBCONQXVJMCRW-URABKJQFSA-N

> <PUBCHEM_SUBSTANCE_SYNONYM>
SCHEMBL16120803

> <PUBCHEM_XREF_EXT_ID>
SCHEMBL16120803

> <PUBCHEM_EXT_DATASOURCE_URL>
https://www.surechembl.org/

> <PUBCHEM_EXT_SUBSTANCE_URL>
https://www.surechembl.org/chemical/SCHEMBL16120803

> <PUBCHEM_CID_ASSOCIATIONS>
117609269  1

> <PUBCHEM_COORDINATE_TYPE>
1
3

> <PUBCHEM_BONDANNOTATIONS>
17  13  5
33  2  5
26  24  5
29  46  6

$$$$
