310947367
  -OEChem-07211613022D

 19 21  0     0  0  0  0  0  0999 V2000
    0.4821   -8.6158    0.0000 Br  0  0  0  0  0  0  0  0  0  0  0  0
    5.4363   -8.1308    0.0000 N   0  0  0  0  0  0  0  0  0  0  0  0
    5.1814   -7.3462    0.0000 N   0  0  0  0  0  0  0  0  0  0  0  0
    4.3564   -7.3462    0.0000 N   0  0  0  0  0  0  0  0  0  0  0  0
    4.7689   -9.4408    0.0000 C   0  0  0  0  0  0  0  0  0  0  0  0
    4.0544   -9.8533    0.0000 C   0  0  0  0  0  0  0  0  0  0  0  0
    4.7689   -8.6158    0.0000 C   0  0  0  0  0  0  0  0  0  0  0  0
    3.3400   -9.4408    0.0000 C   0  0  0  0  0  0  0  0  0  0  0  0
    5.4834   -9.8533    0.0000 C   0  0  0  0  0  0  0  0  0  0  0  0
    4.0544  -10.6783    0.0000 C   0  0  0  0  0  0  0  0  0  0  0  0
    4.1015   -8.1308    0.0000 C   0  0  0  0  0  0  0  0  0  0  0  0
    3.3400   -8.6158    0.0000 C   0  0  0  0  0  0  0  0  0  0  0  0
    2.6255   -9.8533    0.0000 C   0  0  0  0  0  0  0  0  0  0  0  0
    5.4834  -10.6783    0.0000 C   0  0  0  0  0  0  0  0  0  0  0  0
    4.7689  -11.0908    0.0000 C   0  0  0  0  0  0  0  0  0  0  0  0
    1.9110   -8.6158    0.0000 C   0  0  0  0  0  0  0  0  0  0  0  0
    2.6255   -8.2033    0.0000 C   0  0  0  0  0  0  0  0  0  0  0  0
    1.9110   -9.4408    0.0000 C   0  0  0  0  0  0  0  0  0  0  0  0
    1.1966   -8.2033    0.0000 C   0  0  0  0  0  0  0  0  0  0  0  0
  1 19  1  0  0  0  0
  2  3  1  0  0  0  0
  2  7  2  0  0  0  0
  3  4  2  0  0  0  0
  4 11  1  0  0  0  0
  5  6  1  0  0  0  0
  5  7  1  0  0  0  0
  5  9  2  0  0  0  0
  6  8  1  0  0  0  0
  6 10  2  0  0  0  0
  7 11  1  0  0  0  0
  8 12  2  0  0  0  0
  8 13  1  0  0  0  0
  9 14  1  0  0  0  0
 10 15  1  0  0  0  0
 12 17  1  0  0  0  0
 13 18  2  0  0  0  0
 14 15  2  0  0  0  0
 16 17  2  0  0  0  0
 16 18  1  0  0  0  0
 16 19  1  0  0  0  0
M  END
> <PUBCHEM_COMPOUND_ID_TYPE>
0

> <PUBCHEM_TOTAL_CHARGE>
0

> <PUBCHEM_SUBSTANCE_ID>
310947367

> <PUBCHEM_SUBSTANCE_VERSION>
1

> <PUBCHEM_EXT_DATASOURCE_NAME>
4488

> <PUBCHEM_EXT_DATASOURCE_REGID>
SCHEMBL16125523

> <PUBCHEM_SUBSTANCE_COMMENT>
InChI=1S/C15H12BrN3/c16-9-11-5-7-12(8-6-11)13-3-1-2-4-14(13)15-10-17-19-18-15/h1-8H,9-10H2
InChIKey=JSRLGAMKGGWHFM-UHFFFAOYSA-N

> <PUBCHEM_SUBSTANCE_SYNONYM>
SCHEMBL16125523

> <PUBCHEM_XREF_EXT_ID>
SCHEMBL16125523

> <PUBCHEM_EXT_DATASOURCE_URL>
https://www.surechembl.org/

> <PUBCHEM_EXT_SUBSTANCE_URL>
https://www.surechembl.org/chemical/SCHEMBL16125523

> <PUBCHEM_CID_ASSOCIATIONS>
117613112  1

> <PUBCHEM_COORDINATE_TYPE>
1
3

$$$$
