310943199
  -OEChem-07211613022D

 34 37  0     0  0  0  0  0  0999 V2000
   -2.4972   -1.8614    0.0000 O   0  0  0  0  0  0  0  0  0  0  0  0
   -5.3468    1.4324    0.0000 O   0  0  0  0  0  0  0  0  0  0  0  0
    1.7619    1.4324    0.0000 O   0  0  0  0  0  0  0  0  0  0  0  0
    5.3162    1.0188    0.0000 O   0  0  0  0  0  0  0  0  0  0  0  0
   -3.2172   -0.6358    0.0000 N   0  0  0  0  0  0  0  0  0  0  0  0
   -3.9220    0.6052    0.0000 N   0  0  0  0  0  0  0  0  0  0  0  0
    1.0571    0.1915    0.0000 N   0  0  0  0  0  0  0  0  0  0  0  0
    3.9067   -0.6358    0.0000 N   0  0  0  0  0  0  0  0  0  0  0  0
   -1.7771    0.1915    0.0000 C   0  0  0  0  0  0  0  0  0  0  0  0
   -3.2172    0.2068    0.0000 C   0  0  0  0  0  0  0  0  0  0  0  0
   -1.0724    0.6052    0.0000 C   0  0  0  0  0  0  0  0  0  0  0  0
   -2.4972    0.6052    0.0000 C   0  0  0  0  0  0  0  0  0  0  0  0
   -2.4972   -1.0188    0.0000 C   0  0  0  0  0  0  0  0  0  0  0  0
   -1.7925   -0.6358    0.0000 C   0  0  0  0  0  0  0  0  0  0  0  0
   -1.0724    1.4324    0.0000 C   0  0  0  0  0  0  0  0  0  0  0  0
   -0.3524    0.2068    0.0000 C   0  0  0  0  0  0  0  0  0  0  0  0
    0.3370    0.6204    0.0000 C   0  0  0  0  0  0  0  0  0  0  0  0
    2.4819    0.1915    0.0000 C   0  0  0  0  0  0  0  0  0  0  0  0
    1.7619    0.5898    0.0000 C   0  0  0  0  0  0  0  0  0  0  0  0
   -0.3677    1.8308    0.0000 C   0  0  0  0  0  0  0  0  0  0  0  0
    3.9067    0.1915    0.0000 C   0  0  0  0  0  0  0  0  0  0  0  0
    0.3370    1.4324    0.0000 C   0  0  0  0  0  0  0  0  0  0  0  0
    4.6267    0.6052    0.0000 C   0  0  0  0  0  0  0  0  0  0  0  0
    3.1866    0.6052    0.0000 C   0  0  0  0  0  0  0  0  0  0  0  0
   -3.9374    1.4324    0.0000 C   0  0  0  0  0  0  0  0  0  0  0  0
   -4.6115    0.1915    0.0000 C   0  0  0  0  0  0  0  0  0  0  0  0
   -3.9220   -1.0648    0.0000 C   0  0  0  0  0  0  0  0  0  0  0  0
    2.4819   -0.6358    0.0000 C   0  0  0  0  0  0  0  0  0  0  0  0
   -1.7771    1.8614    0.0000 C   0  0  0  0  0  0  0  0  0  0  0  0
    3.2172   -1.0341    0.0000 C   0  0  0  0  0  0  0  0  0  0  0  0
   -4.6421    1.8461    0.0000 C   0  0  0  0  0  0  0  0  0  0  0  0
   -5.3468    0.6052    0.0000 C   0  0  0  0  0  0  0  0  0  0  0  0
    4.5961    1.4324    0.0000 C   0  0  0  0  0  0  0  0  0  0  0  0
    5.3468    0.1915    0.0000 C   0  0  0  0  0  0  0  0  0  0  0  0
  1 13  2  0  0  0  0
  2 31  1  0  0  0  0
  2 32  1  0  0  0  0
  3 19  2  0  0  0  0
  4 23  1  0  0  0  0
  5 10  1  0  0  0  0
  5 13  1  0  0  0  0
  5 27  1  0  0  0  0
  6 10  1  0  0  0  0
  6 25  1  0  0  0  0
  6 26  1  0  0  0  0
  7 17  1  0  0  0  0
  7 19  1  0  0  0  0
  8 21  1  0  0  0  0
  8 30  2  0  0  0  0
  9 11  1  0  0  0  0
  9 12  1  0  0  0  0
  9 14  2  0  0  0  0
 10 12  2  0  0  0  0
 11 15  2  0  0  0  0
 11 16  1  0  0  0  0
 13 14  1  0  0  0  0
 15 20  1  0  0  0  0
 15 29  1  0  0  0  0
 16 17  2  0  0  0  0
 17 22  1  0  0  0  0
 18 19  1  0  0  0  0
 18 24  1  0  0  0  0
 18 28  2  0  0  0  0
 20 22  2  0  0  0  0
 21 23  1  0  0  0  0
 21 24  2  0  0  0  0
 23 33  1  0  0  0  0
 23 34  1  0  0  0  0
 25 31  1  0  0  0  0
 26 32  1  0  0  0  0
 28 30  1  0  0  0  0
M  END
> <PUBCHEM_COMPOUND_ID_TYPE>
0

> <PUBCHEM_TOTAL_CHARGE>
0

> <PUBCHEM_SUBSTANCE_ID>
310943199

> <PUBCHEM_SUBSTANCE_VERSION>
1

> <PUBCHEM_EXT_DATASOURCE_NAME>
4488

> <PUBCHEM_EXT_DATASOURCE_REGID>
SCHEMBL16121260

> <PUBCHEM_SUBSTANCE_COMMENT>
InChI=1S/C26H30N4O4/c1-17-5-6-20(28-25(32)18-7-8-27-22(13-18)26(2,3)33)16-21(17)19-14-23(29(4)24(31)15-19)30-9-11-34-12-10-30/h5-8,13-16,33H,9-12H2,1-4H3,(H,28,32)
InChIKey=UMLXWPRANJDICW-UHFFFAOYSA-N

> <PUBCHEM_SUBSTANCE_SYNONYM>
SCHEMBL16121260

> <PUBCHEM_XREF_EXT_ID>
SCHEMBL16121260

> <PUBCHEM_EXT_DATASOURCE_URL>
https://www.surechembl.org/

> <PUBCHEM_EXT_SUBSTANCE_URL>
https://www.surechembl.org/chemical/SCHEMBL16121260

> <PUBCHEM_CID_ASSOCIATIONS>
117609625  1

> <PUBCHEM_COORDINATE_TYPE>
1
3

$$$$
