310938588
  -OEChem-07211613022D

 25 28  0     0  0  0  0  0  0999 V2000
   -2.8417    1.6511    0.0000 S   0  0  0  0  0  0  0  0  0  0  0  0
    2.9992   -3.1502    0.0000 F   0  0  0  0  0  0  0  0  0  0  0  0
   -0.7453    0.3412    0.0000 O   0  0  0  0  0  0  0  0  0  0  0  0
   -0.7453   -2.1338    0.0000 N   0  0  0  0  0  0  0  0  0  0  0  0
    0.0393   -1.0538    0.0000 N   0  0  0  0  0  0  0  0  0  0  0  0
   -1.4598   -2.5463    0.0000 N   0  0  0  0  0  0  0  0  0  0  0  0
   -2.1742    0.3412    0.0000 N   0  0  0  0  0  0  0  0  0  0  0  0
   -1.5068    1.6511    0.0000 N   0  0  0  0  0  0  0  0  0  0  0  0
   -0.7453   -1.3088    0.0000 C   0  0  0  0  0  0  0  0  0  0  0  0
   -1.4598   -0.8963    0.0000 C   0  0  0  0  0  0  0  0  0  0  0  0
    0.5242   -1.7213    0.0000 C   0  0  0  0  0  0  0  0  0  0  0  0
    0.0393   -2.3887    0.0000 C   0  0  0  0  0  0  0  0  0  0  0  0
   -1.4598   -0.0713    0.0000 C   0  0  0  0  0  0  0  0  0  0  0  0
    1.3492   -1.7213    0.0000 C   0  0  0  0  0  0  0  0  0  0  0  0
   -2.1742   -1.3088    0.0000 C   0  0  0  0  0  0  0  0  0  0  0  0
   -2.1742   -2.1338    0.0000 C   0  0  0  0  0  0  0  0  0  0  0  0
   -2.1742    1.1662    0.0000 C   0  0  0  0  0  0  0  0  0  0  0  0
    1.7617   -2.4358    0.0000 C   0  0  0  0  0  0  0  0  0  0  0  0
    1.7617   -1.0068    0.0000 C   0  0  0  0  0  0  0  0  0  0  0  0
    2.5867   -2.4358    0.0000 C   0  0  0  0  0  0  0  0  0  0  0  0
   -2.5867    2.4358    0.0000 C   0  0  0  0  0  0  0  0  0  0  0  0
   -1.7617    2.4358    0.0000 C   0  0  0  0  0  0  0  0  0  0  0  0
    2.5867   -1.0068    0.0000 C   0  0  0  0  0  0  0  0  0  0  0  0
    2.9992   -1.7213    0.0000 C   0  0  0  0  0  0  0  0  0  0  0  0
   -2.9992    3.1502    0.0000 C   0  0  0  0  0  0  0  0  0  0  0  0
  1 17  1  0  0  0  0
  1 21  1  0  0  0  0
  2 20  1  0  0  0  0
  3 13  2  0  0  0  0
  4  6  1  0  0  0  0
  4  9  1  0  0  0  0
  4 12  1  0  0  0  0
  5  9  2  0  0  0  0
  5 11  1  0  0  0  0
  6 16  2  0  0  0  0
  7 13  1  0  0  0  0
  7 17  1  0  0  0  0
  8 17  2  0  0  0  0
  8 22  1  0  0  0  0
  9 10  1  0  0  0  0
 10 13  1  0  0  0  0
 10 15  2  0  0  0  0
 11 12  2  0  0  0  0
 11 14  1  0  0  0  0
 14 18  1  0  0  0  0
 14 19  2  0  0  0  0
 15 16  1  0  0  0  0
 18 20  2  0  0  0  0
 19 23  1  0  0  0  0
 20 24  1  0  0  0  0
 21 22  2  0  0  0  0
 21 25  1  0  0  0  0
 23 24  2  0  0  0  0
M  END
> <PUBCHEM_COMPOUND_ID_TYPE>
0

> <PUBCHEM_TOTAL_CHARGE>
0

> <PUBCHEM_SUBSTANCE_ID>
310938588

> <PUBCHEM_SUBSTANCE_VERSION>
1

> <PUBCHEM_EXT_DATASOURCE_NAME>
4488

> <PUBCHEM_EXT_DATASOURCE_REGID>
SCHEMBL16116502

> <PUBCHEM_SUBSTANCE_COMMENT>
InChI=1S/C17H12FN5OS/c1-10-8-19-17(25-10)22-16(24)13-5-6-20-23-9-14(21-15(13)23)11-3-2-4-12(18)7-11/h2-9H,1H3,(H,19,22,24)
InChIKey=DUDLZMPMYJQQJH-UHFFFAOYSA-N

> <PUBCHEM_SUBSTANCE_SYNONYM>
SCHEMBL16116502

> <PUBCHEM_XREF_EXT_ID>
SCHEMBL16116502

> <PUBCHEM_EXT_DATASOURCE_URL>
https://www.surechembl.org/

> <PUBCHEM_EXT_SUBSTANCE_URL>
https://www.surechembl.org/chemical/SCHEMBL16116502

> <PUBCHEM_CID_ASSOCIATIONS>
117606022  1

> <PUBCHEM_COORDINATE_TYPE>
1
3

$$$$
