310933853
  -OEChem-07211613022D

 33 35  0     0  0  0  0  0  0999 V2000
    5.4041   -3.6027    0.0000 S   0  0  0  0  0  0  0  0  0  0  0  0
    2.9165   -0.7291    0.0000 O   0  0  0  0  0  0  0  0  0  0  0  0
    2.9165   -6.4763    0.0000 O   0  0  0  0  0  0  0  0  0  0  0  0
    1.2867   -0.6862    0.0000 O   0  0  0  0  0  0  0  0  0  0  0  0
    3.7743   -7.8916    0.0000 O   0  0  0  0  0  0  0  0  0  0  0  0
    0.4289   -2.1445    0.0000 O   0  0  0  0  0  0  0  0  0  0  0  0
    5.4041   -7.8487    0.0000 O   0  0  0  0  0  0  0  0  0  0  0  0
    2.8736   -3.6027    0.0000 O   0  0  0  0  0  0  0  0  0  0  0  0
    2.9165   -2.1445    0.0000 C   0  0  0  0  0  0  0  0  0  0  0  0
    4.1603   -5.7043    0.0000 C   0  0  0  0  0  0  0  0  0  0  0  0
    2.5305   -1.4153    0.0000 C   0  0  0  0  0  0  0  0  0  0  0  0
    3.7743   -6.4334    0.0000 C   0  0  0  0  0  0  0  0  0  0  0  0
    4.1603   -4.2889    0.0000 C   0  0  0  0  0  0  0  0  0  0  0  0
    4.1603   -2.8736    0.0000 C   0  0  0  0  0  0  0  0  0  0  0  0
    3.7314   -3.6027    0.0000 C   0  0  0  0  0  0  0  0  0  0  0  0
    1.6727   -1.4153    0.0000 C   0  0  0  0  0  0  0  0  0  0  0  0
    4.1603   -7.1625    0.0000 C   0  0  0  0  0  0  0  0  0  0  0  0
    3.7314   -2.1445    0.0000 C   0  0  0  0  0  0  0  0  0  0  0  0
    3.7314   -5.0180    0.0000 C   0  0  0  0  0  0  0  0  0  0  0  0
    1.2867   -2.1445    0.0000 C   0  0  0  0  0  0  0  0  0  0  0  0
    5.0180   -7.1196    0.0000 C   0  0  0  0  0  0  0  0  0  0  0  0
    2.4876   -2.8736    0.0000 C   0  0  0  0  0  0  0  0  0  0  0  0
    4.9751   -5.7043    0.0000 C   0  0  0  0  0  0  0  0  0  0  0  0
    1.6727   -2.8736    0.0000 C   0  0  0  0  0  0  0  0  0  0  0  0
    5.4041   -6.4334    0.0000 C   0  0  0  0  0  0  0  0  0  0  0  0
    4.9323   -4.2889    0.0000 C   0  0  0  0  0  0  0  0  0  0  0  0
    4.9323   -2.8736    0.0000 C   0  0  0  0  0  0  0  0  0  0  0  0
    2.5305    0.0000    0.0000 C   0  0  0  0  0  0  0  0  0  0  0  0
    2.5305   -7.2054    0.0000 C   0  0  0  0  0  0  0  0  0  0  0  0
    0.4718   -0.6862    0.0000 C   0  0  0  0  0  0  0  0  0  0  0  0
    4.2032   -8.5778    0.0000 C   0  0  0  0  0  0  0  0  0  0  0  0
    0.0000   -2.8307    0.0000 C   0  0  0  0  0  0  0  0  0  0  0  0
    6.2618   -7.8487    0.0000 C   0  0  0  0  0  0  0  0  0  0  0  0
  1 26  1  0  0  0  0
  1 27  1  0  0  0  0
  2 11  1  0  0  0  0
  2 28  1  0  0  0  0
  3 12  1  0  0  0  0
  3 29  1  0  0  0  0
  4 16  1  0  0  0  0
  4 30  1  0  0  0  0
  5 17  1  0  0  0  0
  5 31  1  0  0  0  0
  6 20  1  0  0  0  0
  6 32  1  0  0  0  0
  7 21  1  0  0  0  0
  7 33  1  0  0  0  0
  8 15  2  0  0  0  0
  9 11  1  0  0  0  0
  9 18  1  0  0  0  0
  9 22  2  0  0  0  0
 10 12  1  0  0  0  0
 10 19  1  0  0  0  0
 10 23  2  0  0  0  0
 11 16  2  0  0  0  0
 12 17  2  0  0  0  0
 13 15  1  0  0  0  0
 13 19  2  0  0  0  0
 13 26  1  0  0  0  0
 14 15  1  0  0  0  0
 14 18  2  0  0  0  0
 14 27  1  0  0  0  0
 16 20  1  0  0  0  0
 17 21  1  0  0  0  0
 20 24  2  0  0  0  0
 21 25  2  0  0  0  0
 22 24  1  0  0  0  0
 23 25  1  0  0  0  0
M  END
> <PUBCHEM_COMPOUND_ID_TYPE>
0

> <PUBCHEM_TOTAL_CHARGE>
0

> <PUBCHEM_SUBSTANCE_ID>
310933853

> <PUBCHEM_SUBSTANCE_VERSION>
1

> <PUBCHEM_EXT_DATASOURCE_NAME>
4488

> <PUBCHEM_EXT_DATASOURCE_REGID>
SCHEMBL16111291

> <PUBCHEM_SUBSTANCE_COMMENT>
InChI=1S/C25H28O7S/c1-27-19-9-7-15(22(29-3)24(19)31-5)11-17-13-33-14-18(21(17)26)12-16-8-10-20(28-2)25(32-6)23(16)30-4/h7-12H,13-14H2,1-6H3/b17-11-,18-12+
InChIKey=ZMHGZRIEKXTPDW-MJZABRMRSA-N

> <PUBCHEM_SUBSTANCE_SYNONYM>
SCHEMBL16111291

> <PUBCHEM_XREF_EXT_ID>
SCHEMBL16111291

> <PUBCHEM_EXT_DATASOURCE_URL>
https://www.surechembl.org/

> <PUBCHEM_EXT_SUBSTANCE_URL>
https://www.surechembl.org/chemical/SCHEMBL16111291

> <PUBCHEM_CID_ASSOCIATIONS>
6475003  1

> <PUBCHEM_COORDINATE_TYPE>
1
3

$$$$
