310941435
  -OEChem-07211613022D

 35 39  0     1  0  0  0  0  0999 V2000
   -2.5124    2.4061    0.0000 S   0  0  0  0  0  0  0  0  0  0  0  0
   -0.4000    1.9187    0.0000 O   0  0  0  0  0  0  0  0  0  0  0  0
    0.3500    0.6687    0.0000 N   0  0  0  0  0  0  0  0  0  0  0  0
   -0.3750   -0.5812    0.0000 N   0  0  0  0  0  0  0  0  0  0  0  0
    1.1875   -1.4062    0.0000 N   0  0  0  0  0  0  0  0  0  0  0  0
   -1.3999    3.2061    0.0000 N   0  0  0  0  0  0  0  0  0  0  0  0
    1.7874   -2.6562    0.0000 N   0  0  0  0  0  0  0  0  0  0  0  0
    1.0625   -3.9060    0.0000 N   0  0  0  0  0  0  0  0  0  0  0  0
    2.6373   -3.9186    0.0000 N   0  0  0  0  0  0  0  0  0  0  0  0
   -1.0999   -1.8686    0.0000 N   0  0  0  0  0  0  0  0  0  0  0  0
   -1.0999    0.6813    0.0000 C   0  0  0  0  0  0  0  0  0  0  0  0
   -0.3875    1.0687    0.0000 C   0  0  0  0  0  0  0  0  0  0  0  0
    0.3250   -0.1562    0.0000 C   0  0  0  0  0  0  0  0  0  0  0  0
   -1.1124   -0.1562    0.0000 C   0  0  0  0  0  0  0  0  0  0  0  0
   -1.8249    1.0812    0.0000 C   0  0  0  0  0  0  0  0  0  0  0  0
    1.0499    1.0937    0.0000 C   0  0  0  0  0  0  0  0  0  0  0  0
   -1.8249    1.9311    0.0000 C   0  0  0  0  0  0  0  0  0  0  0  0
    1.0625   -0.5812    0.0000 C   0  0  3  0  0  0  0  0  0  0  0  0
   -1.8249   -0.5687    0.0000 C   0  0  0  0  0  0  0  0  0  0  0  0
   -2.5373    0.6687    0.0000 C   0  0  0  0  0  0  0  0  0  0  0  0
   -2.5373   -0.1562    0.0000 C   0  0  0  0  0  0  0  0  0  0  0  0
   -1.1624    2.4186    0.0000 C   0  0  0  0  0  0  0  0  0  0  0  0
    1.7749    0.6813    0.0000 C   0  0  0  0  0  0  0  0  0  0  0  0
    1.0749    1.9187    0.0000 C   0  0  0  0  0  0  0  0  0  0  0  0
    1.0499   -2.2437    0.0000 C   0  0  0  0  0  0  0  0  0  0  0  0
   -2.2499    3.2186    0.0000 C   0  0  0  0  0  0  0  0  0  0  0  0
    1.7624   -0.1688    0.0000 C   0  0  0  0  0  0  0  0  0  0  0  0
    0.3374   -2.6562    0.0000 C   0  0  0  0  0  0  0  0  0  0  0  0
    2.4999    1.0937    0.0000 C   0  0  0  0  0  0  0  0  0  0  0  0
    1.7874    2.3312    0.0000 C   0  0  0  0  0  0  0  0  0  0  0  0
    2.4999    1.9187    0.0000 C   0  0  0  0  0  0  0  0  0  0  0  0
    1.7749   -3.4935    0.0000 C   0  0  0  0  0  0  0  0  0  0  0  0
    0.3374   -3.4935    0.0000 C   0  0  0  0  0  0  0  0  0  0  0  0
   -0.3875   -2.2437    0.0000 C   0  0  0  0  0  0  0  0  0  0  0  0
   -2.6373    3.9186    0.0000 C   0  0  0  0  0  0  0  0  0  0  0  0
  1 17  1  0  0  0  0
  1 26  1  0  0  0  0
  2 12  2  0  0  0  0
  3 12  1  0  0  0  0
  3 13  1  0  0  0  0
  3 16  1  0  0  0  0
  4 13  2  0  0  0  0
  4 14  1  0  0  0  0
  5 18  1  0  0  0  0
  5 25  1  0  0  0  0
  6 22  1  0  0  0  0
  6 26  2  0  0  0  0
  7 25  1  0  0  0  0
  7 32  2  0  0  0  0
  8 32  1  0  0  0  0
  8 33  2  0  0  0  0
  9 32  1  0  0  0  0
 10 34  3  0  0  0  0
 11 12  1  0  0  0  0
 11 14  1  0  0  0  0
 11 15  2  0  0  0  0
 13 18  1  0  0  0  0
 14 19  2  0  0  0  0
 15 17  1  0  0  0  0
 15 20  1  0  0  0  0
 16 23  2  0  0  0  0
 16 24  1  0  0  0  0
 17 22  2  0  0  0  0
 18 27  1  6  0  0  0
 19 21  1  0  0  0  0
 20 21  2  0  0  0  0
 23 29  1  0  0  0  0
 24 30  2  0  0  0  0
 25 28  2  0  0  0  0
 26 35  1  0  0  0  0
 28 33  1  0  0  0  0
 28 34  1  0  0  0  0
 29 31  2  0  0  0  0
 30 31  1  0  0  0  0
M  END
> <PUBCHEM_COMPOUND_ID_TYPE>
0

> <PUBCHEM_TOTAL_CHARGE>
0

> <PUBCHEM_SUBSTANCE_ID>
310941435

> <PUBCHEM_SUBSTANCE_VERSION>
1

> <PUBCHEM_EXT_DATASOURCE_NAME>
4488

> <PUBCHEM_EXT_DATASOURCE_REGID>
SCHEMBL16119395

> <PUBCHEM_SUBSTANCE_COMMENT>
InChI=1S/C25H20N8OS/c1-14(30-22-16(11-26)12-29-25(27)32-22)23-31-19-10-6-9-18(20-13-28-15(2)35-20)21(19)24(34)33(23)17-7-4-3-5-8-17/h3-10,12-14H,1-2H3,(H3,27,29,30,32)/t14-/m0/s1
InChIKey=LEFLBETYLZNZTI-AWEZNQCLSA-N

> <PUBCHEM_SUBSTANCE_SYNONYM>
SCHEMBL16119395

> <PUBCHEM_XREF_EXT_ID>
SCHEMBL16119395

> <PUBCHEM_EXT_DATASOURCE_URL>
https://www.surechembl.org/

> <PUBCHEM_EXT_SUBSTANCE_URL>
https://www.surechembl.org/chemical/SCHEMBL16119395

> <PUBCHEM_CID_ASSOCIATIONS>
117608260  1

> <PUBCHEM_COORDINATE_TYPE>
1
3

> <PUBCHEM_BONDANNOTATIONS>
18  27  6

$$$$
