310940709
  -OEChem-07211613022D

 43 48  0     1  0  0  0  0  0999 V2000
    0.4965   -0.9412    0.0000 F   0  0  0  0  0  0  0  0  0  0  0  0
    1.8009    4.4392    0.0000 F   0  0  0  0  0  0  0  0  0  0  0  0
    2.6013    4.1873    0.0000 F   0  0  0  0  0  0  0  0  0  0  0  0
   -1.1636   -1.4303    0.0000 O   0  0  0  0  0  0  0  0  0  0  0  0
    3.5499   -4.4392    0.0000 O   0  0  0  0  0  0  0  0  0  0  0  0
    2.3049   -3.7130    0.0000 O   0  0  0  0  0  0  0  0  0  0  0  0
    1.8009   -1.5786    0.0000 N   0  0  0  0  0  0  0  0  0  0  0  0
    1.8009   -2.9274    0.0000 N   0  0  0  0  0  0  0  0  0  0  0  0
    1.4600    2.0380    0.0000 N   0  0  0  0  0  0  0  0  0  0  0  0
   -2.6161   -0.5855    0.0000 N   0  0  0  0  0  0  0  0  0  0  0  0
    2.2604   -2.2456    0.0000 C   0  0  0  0  0  0  0  0  0  0  0  0
    1.0154   -1.8454    0.0000 C   0  0  0  0  0  0  0  0  0  0  0  0
    1.0005   -2.6606    0.0000 C   0  0  0  0  0  0  0  0  0  0  0  0
    3.1497   -2.2604    0.0000 C   0  0  3  0  0  0  0  0  0  0  0  0
    2.0529   -0.7930    0.0000 C   0  0  0  0  0  0  0  0  0  0  0  0
    0.2742   -1.4451    0.0000 C   0  0  0  0  0  0  0  0  0  0  0  0
    3.5648   -2.9570    0.0000 C   0  0  3  0  0  0  0  0  0  0  0  0
    1.4896   -0.1704    0.0000 C   0  0  0  0  0  0  0  0  0  0  0  0
    0.2890   -3.0904    0.0000 C   0  0  0  0  0  0  0  0  0  0  0  0
   -0.4225   -1.8454    0.0000 C   0  0  0  0  0  0  0  0  0  0  0  0
    3.5499   -1.5490    0.0000 C   0  0  0  0  0  0  0  0  0  0  0  0
   -0.4225   -2.6754    0.0000 C   0  0  0  0  0  0  0  0  0  0  0  0
    0.6892   -0.3335    0.0000 C   0  0  0  0  0  0  0  0  0  0  0  0
    1.7565    0.6300    0.0000 C   0  0  0  0  0  0  0  0  0  0  0  0
    1.2080    1.2376    0.0000 C   0  0  0  0  0  0  0  0  0  0  0  0
    3.1200   -3.6981    0.0000 C   0  0  0  0  0  0  0  0  0  0  0  0
    4.3800   -2.9718    0.0000 C   0  0  0  0  0  0  0  0  0  0  0  0
    4.3800   -1.5490    0.0000 C   0  0  0  0  0  0  0  0  0  0  0  0
    0.1408    0.2742    0.0000 C   0  0  0  0  0  0  0  0  0  0  0  0
    0.3928    1.0598    0.0000 C   0  0  0  0  0  0  0  0  0  0  0  0
    4.7950   -2.2456    0.0000 C   0  0  0  0  0  0  0  0  0  0  0  0
    1.9640    3.6389    0.0000 C   0  0  0  0  0  0  0  0  0  0  0  0
    2.2752    2.2159    0.0000 C   0  0  0  0  0  0  0  0  0  0  0  0
    0.9116    2.6606    0.0000 C   0  0  0  0  0  0  0  0  0  0  0  0
   -1.8602   -1.8305    0.0000 C   0  0  0  0  0  0  0  0  0  0  0  0
    2.5272    3.0015    0.0000 C   0  0  0  0  0  0  0  0  0  0  0  0
    1.1636    3.4462    0.0000 C   0  0  0  0  0  0  0  0  0  0  0  0
   -2.6161   -1.4155    0.0000 C   0  0  0  0  0  0  0  0  0  0  0  0
   -3.3127   -1.8305    0.0000 C   0  0  0  0  0  0  0  0  0  0  0  0
   -3.3424   -0.1853    0.0000 C   0  0  0  0  0  0  0  0  0  0  0  0
   -4.0538   -1.4303    0.0000 C   0  0  0  0  0  0  0  0  0  0  0  0
   -4.0390   -0.5855    0.0000 C   0  0  0  0  0  0  0  0  0  0  0  0
   -4.7950   -0.1853    0.0000 C   0  0  0  0  0  0  0  0  0  0  0  0
  1 23  1  0  0  0  0
  2 32  1  0  0  0  0
  3 32  1  0  0  0  0
  4 20  1  0  0  0  0
  4 35  1  0  0  0  0
  5 26  2  0  0  0  0
  6 26  1  0  0  0  0
  7 11  1  0  0  0  0
  7 12  1  0  0  0  0
  7 15  1  0  0  0  0
  8 11  2  0  0  0  0
  8 13  1  0  0  0  0
  9 25  1  0  0  0  0
  9 33  1  0  0  0  0
  9 34  1  0  0  0  0
 10 38  1  0  0  0  0
 10 40  2  0  0  0  0
 14 11  1  1  0  0  0
 12 13  1  0  0  0  0
 12 16  2  0  0  0  0
 13 19  2  0  0  0  0
 14 17  1  0  0  0  0
 14 21  1  0  0  0  0
 15 18  1  0  0  0  0
 16 20  1  0  0  0  0
 17 26  1  1  0  0  0
 17 27  1  0  0  0  0
 18 23  1  0  0  0  0
 18 24  2  0  0  0  0
 19 22  1  0  0  0  0
 20 22  2  0  0  0  0
 21 28  1  0  0  0  0
 23 29  2  0  0  0  0
 24 25  1  0  0  0  0
 25 30  2  0  0  0  0
 27 31  1  0  0  0  0
 28 31  1  0  0  0  0
 29 30  1  0  0  0  0
 32 36  1  0  0  0  0
 32 37  1  0  0  0  0
 33 36  1  0  0  0  0
 34 37  1  0  0  0  0
 35 38  1  0  0  0  0
 38 39  2  0  0  0  0
 39 41  1  0  0  0  0
 40 42  1  0  0  0  0
 41 42  2  0  0  0  0
 42 43  1  0  0  0  0
M  END
> <PUBCHEM_COMPOUND_ID_TYPE>
0

> <PUBCHEM_TOTAL_CHARGE>
0

> <PUBCHEM_SUBSTANCE_ID>
310940709

> <PUBCHEM_SUBSTANCE_VERSION>
1

> <PUBCHEM_EXT_DATASOURCE_NAME>
4488

> <PUBCHEM_EXT_DATASOURCE_REGID>
SCHEMBL16118665

> <PUBCHEM_SUBSTANCE_COMMENT>
InChI=1S/C33H35F3N4O3/c1-21-6-7-23(37-18-21)20-43-25-9-11-29-30(17-25)40(31(38-29)26-4-2-3-5-27(26)32(41)42)19-22-16-24(8-10-28(22)34)39-14-12-33(35,36)13-15-39/h6-11,16-18,26-27H,2-5,12-15,19-20H2,1H3,(H,41,42)/t26-,27+/m0/s1
InChIKey=MOEBHTBNOMXEHY-RRPNLBNLSA-N

> <PUBCHEM_SUBSTANCE_SYNONYM>
SCHEMBL16118665

> <PUBCHEM_XREF_EXT_ID>
SCHEMBL16118665

> <PUBCHEM_EXT_DATASOURCE_URL>
https://www.surechembl.org/

> <PUBCHEM_EXT_SUBSTANCE_URL>
https://www.surechembl.org/chemical/SCHEMBL16118665

> <PUBCHEM_CID_ASSOCIATIONS>
117607666  1

> <PUBCHEM_COORDINATE_TYPE>
1
3

> <PUBCHEM_BONDANNOTATIONS>
14  11  5
17  26  5

$$$$
