310944101
  -OEChem-07211613022D

 32 36  0     1  0  0  0  0  0999 V2000
    2.5925    1.0238    0.0000 O   0  0  0  0  0  0  0  0  0  0  0  0
    5.3777    0.0660    0.0000 O   0  0  0  0  0  0  0  0  0  0  0  0
    5.5098    1.5192    0.0000 O   0  0  0  0  0  0  0  0  0  0  0  0
   -0.8642   -0.8807    0.0000 O   0  0  0  0  0  0  0  0  0  0  0  0
    3.2640   -0.2752    0.0000 N   0  0  0  0  0  0  0  0  0  0  0  0
    0.3578    0.2201    0.0000 N   0  0  0  0  0  0  0  0  0  0  0  0
   -4.1667    0.9247    0.0000 N   0  0  0  0  0  0  0  0  0  0  0  0
   -1.9870    0.9798    0.0000 N   0  0  0  0  0  0  0  0  0  0  0  0
   -3.2090   -0.1321    0.0000 N   0  0  0  0  0  0  0  0  0  0  0  0
   -4.4310    1.7173    0.0000 N   0  0  0  0  0  0  0  0  0  0  0  0
   -5.2566    1.7063    0.0000 N   0  0  0  0  0  0  0  0  0  0  0  0
   -5.5098    0.9247    0.0000 N   0  0  0  0  0  0  0  0  0  0  0  0
    1.9320   -0.2752    0.0000 C   0  0  0  0  0  0  0  0  0  0  0  0
    2.5815    0.1872    0.0000 C   0  0  0  0  0  0  0  0  0  0  0  0
    3.0108   -1.0568    0.0000 C   0  0  3  0  0  0  0  0  0  0  0  0
    2.1852   -1.0458    0.0000 C   0  0  0  0  0  0  0  0  0  0  0  0
    4.0346   -0.0110    0.0000 C   0  0  0  0  0  0  0  0  0  0  0  0
    1.3266   -0.8257    0.0000 C   0  0  0  0  0  0  0  0  0  0  0  0
    1.7559    0.5284    0.0000 C   0  0  0  0  0  0  0  0  0  0  0  0
    0.5339   -0.5725    0.0000 C   0  0  0  0  0  0  0  0  0  0  0  0
    0.9633    0.7816    0.0000 C   0  0  0  0  0  0  0  0  0  0  0  0
    4.2548    0.7816    0.0000 C   0  0  0  0  0  0  0  0  0  0  0  0
    4.7502   -0.4513    0.0000 C   0  0  0  0  0  0  0  0  0  0  0  0
    3.5063   -1.7173    0.0000 C   0  0  0  0  0  0  0  0  0  0  0  0
    5.0804    0.7926    0.0000 C   0  0  0  0  0  0  0  0  0  0  0  0
   -0.4349    0.4734    0.0000 C   0  0  0  0  0  0  0  0  0  0  0  0
   -1.0403   -0.0660    0.0000 C   0  0  3  0  0  0  0  0  0  0  0  0
   -1.8219    0.1981    0.0000 C   0  0  0  0  0  0  0  0  0  0  0  0
   -3.3961    0.6825    0.0000 C   0  0  0  0  0  0  0  0  0  0  0  0
   -2.4164   -0.3633    0.0000 C   0  0  0  0  0  0  0  0  0  0  0  0
   -2.7797    1.2330    0.0000 C   0  0  0  0  0  0  0  0  0  0  0  0
   -4.8383    0.4513    0.0000 C   0  0  0  0  0  0  0  0  0  0  0  0
  1 14  2  0  0  0  0
  2 23  1  0  0  0  0
  2 25  1  0  0  0  0
  3 25  2  0  0  0  0
 27  4  1  1  0  0  0
  5 14  1  0  0  0  0
  5 15  1  0  0  0  0
  5 17  1  0  0  0  0
  6 20  1  0  0  0  0
  6 21  1  0  0  0  0
  6 26  1  0  0  0  0
  7 10  1  0  0  0  0
  7 29  1  0  0  0  0
  7 32  1  0  0  0  0
  8 28  2  0  0  0  0
  8 31  1  0  0  0  0
  9 29  1  0  0  0  0
  9 30  2  0  0  0  0
 10 11  2  0  0  0  0
 11 12  1  0  0  0  0
 12 32  2  0  0  0  0
 13 14  1  0  0  0  0
 13 16  1  0  0  0  0
 13 18  1  0  0  0  0
 13 19  1  0  0  0  0
 15 16  1  0  0  0  0
 15 24  1  1  0  0  0
 17 22  2  0  0  0  0
 17 23  1  0  0  0  0
 18 20  1  0  0  0  0
 19 21  1  0  0  0  0
 22 25  1  0  0  0  0
 26 27  1  0  0  0  0
 27 28  1  0  0  0  0
 28 30  1  0  0  0  0
 29 31  2  0  0  0  0
M  END
> <PUBCHEM_COMPOUND_ID_TYPE>
0

> <PUBCHEM_TOTAL_CHARGE>
0

> <PUBCHEM_SUBSTANCE_ID>
310944101

> <PUBCHEM_SUBSTANCE_VERSION>
1

> <PUBCHEM_EXT_DATASOURCE_NAME>
4488

> <PUBCHEM_EXT_DATASOURCE_REGID>
SCHEMBL16122176

> <PUBCHEM_SUBSTANCE_COMMENT>
InChI=1S/C20H24N8O4/c1-13-7-20(19(31)28(13)14-6-18(30)32-11-14)2-4-26(5-3-20)10-16(29)15-8-22-17(9-21-15)27-12-23-24-25-27/h6,8-9,12-13,16,29H,2-5,7,10-11H2,1H3/t13-,16+/m0/s1
InChIKey=NMVKTRIQUJQFTP-XJKSGUPXSA-N

> <PUBCHEM_SUBSTANCE_SYNONYM>
SCHEMBL16122176

> <PUBCHEM_XREF_EXT_ID>
SCHEMBL16122176

> <PUBCHEM_EXT_DATASOURCE_URL>
https://www.surechembl.org/

> <PUBCHEM_EXT_SUBSTANCE_URL>
https://www.surechembl.org/chemical/SCHEMBL16122176

> <PUBCHEM_CID_ASSOCIATIONS>
86271822  1

> <PUBCHEM_COORDINATE_TYPE>
1
3

> <PUBCHEM_BONDANNOTATIONS>
15  24  5
27  4  5

$$$$
