310940164
  -OEChem-07211613022D

 37 42  0     1  0  0  0  0  0999 V2000
   -0.6282   -4.0460    0.0000 S   0  0  0  0  0  0  0  0  0  0  0  0
    1.8848    4.8335    0.0000 F   0  0  0  0  0  0  0  0  0  0  0  0
   -0.4105   -4.8335    0.0000 O   0  0  0  0  0  0  0  0  0  0  0  0
   -1.3487   -4.4481    0.0000 O   0  0  0  0  0  0  0  0  0  0  0  0
   -2.8733    0.4775    0.0000 O   0  0  0  0  0  0  0  0  0  0  0  0
   -0.0922    0.3267    0.0000 N   0  0  0  0  0  0  0  0  0  0  0  0
   -0.4272   -0.4272    0.0000 N   0  0  0  0  0  0  0  0  0  0  0  0
   -1.8178   -0.9633    0.0000 N   0  0  0  0  0  0  0  0  0  0  0  0
    0.1927   -3.8785    0.0000 N   0  0  3  0  0  0  0  0  0  0  0  0
   -2.1529    1.7173    0.0000 N   0  0  0  0  0  0  0  0  0  0  0  0
    1.3654    2.9068    0.0000 N   0  0  0  0  0  0  0  0  0  0  0  0
    2.8733    0.2094    0.0000 N   0  0  0  0  0  0  0  0  0  0  0  0
    0.6785    0.5110    0.0000 C   0  0  0  0  0  0  0  0  0  0  0  0
   -0.7288    0.8963    0.0000 C   0  0  0  0  0  0  0  0  0  0  0  0
   -1.4157    0.4775    0.0000 C   0  0  0  0  0  0  0  0  0  0  0  0
   -1.2649   -0.3267    0.0000 C   0  0  0  0  0  0  0  0  0  0  0  0
   -1.0471   -3.3088    0.0000 C   0  0  0  0  0  0  0  0  0  0  0  0
   -0.5110   -2.7057    0.0000 C   0  0  0  0  0  0  0  0  0  0  0  0
   -2.1529    0.9131    0.0000 C   0  0  0  0  0  0  0  0  0  0  0  0
    0.1424    1.0806    0.0000 C   0  0  0  0  0  0  0  0  0  0  0  0
    1.5162    0.7288    0.0000 C   0  0  0  0  0  0  0  0  0  0  0  0
   -1.5497   -1.7340    0.0000 C   0  0  0  0  0  0  0  0  0  0  0  0
   -0.7121    1.7173    0.0000 C   0  0  0  0  0  0  0  0  0  0  0  0
    1.2649   -0.1257    0.0000 C   0  0  0  0  0  0  0  0  0  0  0  0
   -0.7456   -1.9183    0.0000 C   0  0  0  0  0  0  0  0  0  0  0  0
    0.2764   -3.0408    0.0000 C   0  0  0  0  0  0  0  0  0  0  0  0
    1.1476    2.1026    0.0000 C   0  0  0  0  0  0  0  0  0  0  0  0
   -1.8513   -3.1413    0.0000 C   0  0  0  0  0  0  0  0  0  0  0  0
    0.3435    1.8848    0.0000 C   0  0  0  0  0  0  0  0  0  0  0  0
    1.7173    1.5162    0.0000 C   0  0  0  0  0  0  0  0  0  0  0  0
   -2.0859   -2.3371    0.0000 C   0  0  0  0  0  0  0  0  0  0  0  0
   -1.4325    2.1361    0.0000 C   0  0  0  0  0  0  0  0  0  0  0  0
    2.0691    0.0587    0.0000 C   0  0  0  0  0  0  0  0  0  0  0  0
    0.8293   -4.4313    0.0000 C   0  0  0  0  0  0  0  0  0  0  0  0
    2.0691    3.3423    0.0000 C   0  0  0  0  0  0  0  0  0  0  0  0
    0.9466    3.6271    0.0000 C   0  0  0  0  0  0  0  0  0  0  0  0
    1.6502    4.0292    0.0000 C   0  0  0  0  0  0  0  0  0  0  0  0
  1  3  2  0  0  0  0
  1  4  2  0  0  0  0
  1  9  1  0  0  0  0
  1 17  1  0  0  0  0
  2 37  1  0  0  0  0
  5 19  2  0  0  0  0
  6  7  1  0  0  0  0
  6 13  1  0  0  0  0
  6 14  1  0  0  0  0
  7 16  2  0  0  0  0
  8 16  1  0  0  0  0
  8 22  1  0  0  0  0
  9 26  1  0  0  0  0
  9 34  1  0  0  0  0
 10 19  1  0  0  0  0
 10 32  1  0  0  0  0
 27 11  1  6  0  0  0
 11 35  1  0  0  0  0
 11 36  1  0  0  0  0
 12 33  3  0  0  0  0
 13 20  1  0  0  0  0
 13 21  1  0  0  0  0
 13 24  1  6  0  0  0
 14 15  2  0  0  0  0
 14 23  1  0  0  0  0
 15 16  1  0  0  0  0
 15 19  1  0  0  0  0
 17 18  1  0  0  0  0
 17 28  2  0  0  0  0
 18 25  2  0  0  0  0
 18 26  1  0  0  0  0
 20 29  1  0  0  0  0
 21 30  1  0  0  0  0
 22 25  1  0  0  0  0
 22 31  2  0  0  0  0
 23 32  2  0  0  0  0
 24 33  1  0  0  0  0
 27 29  1  0  0  0  0
 27 30  1  0  0  0  0
 28 31  1  0  0  0  0
 35 37  1  0  0  0  0
 36 37  1  0  0  0  0
M  END
> <PUBCHEM_COMPOUND_ID_TYPE>
0

> <PUBCHEM_TOTAL_CHARGE>
0

> <PUBCHEM_SUBSTANCE_ID>
310940164

> <PUBCHEM_SUBSTANCE_VERSION>
1

> <PUBCHEM_EXT_DATASOURCE_NAME>
4488

> <PUBCHEM_EXT_DATASOURCE_REGID>
SCHEMBL16118097

> <PUBCHEM_SUBSTANCE_COMMENT>
InChI=1S/C25H28FN7O3S/c1-31-13-16-12-18(2-3-21(16)37(31,35)36)29-23-22-20(6-11-28-24(22)34)33(30-23)25(9-10-27)7-4-19(5-8-25)32-14-17(26)15-32/h2-3,6,11-12,17,19H,4-5,7-9,13-15H2,1H3,(H,28,34)(H,29,30)/t19-,25-
InChIKey=CQAQZMPRLYALAL-FEHRVWHQSA-N

> <PUBCHEM_SUBSTANCE_SYNONYM>
SCHEMBL16118097

> <PUBCHEM_XREF_EXT_ID>
SCHEMBL16118097

> <PUBCHEM_EXT_DATASOURCE_URL>
https://www.surechembl.org/

> <PUBCHEM_EXT_SUBSTANCE_URL>
https://www.surechembl.org/chemical/SCHEMBL16118097

> <PUBCHEM_CID_ASSOCIATIONS>
117607277  1

> <PUBCHEM_COORDINATE_TYPE>
1
3

> <PUBCHEM_BONDANNOTATIONS>
27  11  6
13  24  6

$$$$
