310941565
  -OEChem-07211613022D

 28 31  0     0  0  0  0  0  0999 V2000
   -2.9539   -1.7272    0.0000 Cl  0  0  0  0  0  0  0  0  0  0  0  0
    0.8071    1.7272    0.0000 S   0  0  0  0  0  0  0  0  0  0  0  0
   -1.5335   -0.8878    0.0000 O   0  0  0  0  0  0  0  0  0  0  0  0
   -0.1130   -0.8878    0.0000 O   0  0  0  0  0  0  0  0  0  0  0  0
    3.6642    0.7103    0.0000 O   0  0  0  0  0  0  0  0  0  0  0  0
    1.0008   -0.4197    0.0000 O   0  0  0  0  0  0  0  0  0  0  0  0
    0.6456    0.3874    0.0000 N   0  0  0  0  0  0  0  0  0  0  0  0
    2.0339    0.9362    0.0000 N   0  0  0  0  0  0  0  0  0  0  0  0
   -0.7909    0.3067    0.0000 C   0  0  0  0  0  0  0  0  0  0  0  0
   -0.0645    0.7425    0.0000 C   0  0  0  0  0  0  0  0  0  0  0  0
   -2.2437   -0.5004    0.0000 C   0  0  0  0  0  0  0  0  0  0  0  0
   -2.2114    0.3067    0.0000 C   0  0  0  0  0  0  0  0  0  0  0  0
   -0.8393   -0.5004    0.0000 C   0  0  0  0  0  0  0  0  0  0  0  0
   -1.5335    0.7425    0.0000 C   0  0  0  0  0  0  0  0  0  0  0  0
    1.2106    1.0008    0.0000 C   0  0  0  0  0  0  0  0  0  0  0  0
    2.3244    0.1614    0.0000 C   0  0  0  0  0  0  0  0  0  0  0  0
   -2.9539   -0.9362    0.0000 C   0  0  0  0  0  0  0  0  0  0  0  0
    0.0323    1.5657    0.0000 C   0  0  0  0  0  0  0  0  0  0  0  0
   -2.9217    0.7264    0.0000 C   0  0  0  0  0  0  0  0  0  0  0  0
    3.1315    0.0484    0.0000 C   0  0  0  0  0  0  0  0  0  0  0  0
    1.8402   -0.5166    0.0000 C   0  0  0  0  0  0  0  0  0  0  0  0
   -3.6642   -0.5166    0.0000 C   0  0  0  0  0  0  0  0  0  0  0  0
   -3.6481    0.3067    0.0000 C   0  0  0  0  0  0  0  0  0  0  0  0
    3.4544   -0.7425    0.0000 C   0  0  0  0  0  0  0  0  0  0  0  0
    2.1469   -1.2752    0.0000 C   0  0  0  0  0  0  0  0  0  0  0  0
    2.9701   -1.3559    0.0000 C   0  0  0  0  0  0  0  0  0  0  0  0
    3.3736    1.4689    0.0000 C   0  0  0  0  0  0  0  0  0  0  0  0
    0.6295   -1.1299    0.0000 C   0  0  0  0  0  0  0  0  0  0  0  0
  1 17  1  0  0  0  0
  2 15  1  0  0  0  0
  2 18  1  0  0  0  0
  3 11  1  0  0  0  0
  3 13  1  0  0  0  0
  4 13  2  0  0  0  0
  5 20  1  0  0  0  0
  5 27  1  0  0  0  0
  6 21  1  0  0  0  0
  6 28  1  0  0  0  0
  7 10  1  0  0  0  0
  7 15  2  0  0  0  0
  8 15  1  0  0  0  0
  8 16  1  0  0  0  0
  9 10  1  0  0  0  0
  9 13  1  0  0  0  0
  9 14  2  0  0  0  0
 10 18  2  0  0  0  0
 11 12  1  0  0  0  0
 11 17  2  0  0  0  0
 12 14  1  0  0  0  0
 12 19  2  0  0  0  0
 16 20  1  0  0  0  0
 16 21  2  0  0  0  0
 17 22  1  0  0  0  0
 19 23  1  0  0  0  0
 20 24  2  0  0  0  0
 21 25  1  0  0  0  0
 22 23  2  0  0  0  0
 24 26  1  0  0  0  0
 25 26  2  0  0  0  0
M  END
> <PUBCHEM_COMPOUND_ID_TYPE>
0

> <PUBCHEM_TOTAL_CHARGE>
0

> <PUBCHEM_SUBSTANCE_ID>
310941565

> <PUBCHEM_SUBSTANCE_VERSION>
1

> <PUBCHEM_EXT_DATASOURCE_NAME>
4488

> <PUBCHEM_EXT_DATASOURCE_REGID>
SCHEMBL16119596

> <PUBCHEM_SUBSTANCE_COMMENT>
InChI=1S/C20H15ClN2O4S/c1-25-15-7-4-8-16(26-2)17(15)23-20-22-14(10-28-20)12-9-11-5-3-6-13(21)18(11)27-19(12)24/h3-10H,1-2H3,(H,22,23)
InChIKey=ULQNKYXPURYISI-UHFFFAOYSA-N

> <PUBCHEM_SUBSTANCE_SYNONYM>
SCHEMBL16119596

> <PUBCHEM_XREF_EXT_ID>
SCHEMBL16119596

> <PUBCHEM_EXT_DATASOURCE_URL>
https://www.surechembl.org/

> <PUBCHEM_EXT_SUBSTANCE_URL>
https://www.surechembl.org/chemical/SCHEMBL16119596

> <PUBCHEM_CID_ASSOCIATIONS>
117608369  1

> <PUBCHEM_COORDINATE_TYPE>
1
3

$$$$
