310934251
  -OEChem-07211613022D

 23 25  0     0  0  0  0  0  0999 V2000
    3.9759   -0.7229    0.0000 S   0  0  0  0  0  0  0  0  0  0  0  0
    1.0844    0.0000    0.0000 O   0  0  0  0  0  0  0  0  0  0  0  0
    0.2530   -1.4096    0.0000 O   0  0  0  0  0  0  0  0  0  0  0  0
    1.9157   -1.4096    0.0000 N   0  0  0  0  0  0  0  0  0  0  0  0
    1.0844   -1.4096    0.0000 N   0  0  0  0  0  0  0  0  0  0  0  0
    2.3133   -0.7229    0.0000 C   0  0  0  0  0  0  0  0  0  0  0  0
    1.4819   -0.7229    0.0000 C   0  0  0  0  0  0  0  0  0  0  0  0
    2.7470   -1.4096    0.0000 C   0  0  0  0  0  0  0  0  0  0  0  0
    2.7470    0.0000    0.0000 C   0  0  0  0  0  0  0  0  0  0  0  0
    2.3133   -2.1325    0.0000 C   0  0  0  0  0  0  0  0  0  0  0  0
    1.9157   -2.8554    0.0000 C   0  0  0  0  0  0  0  0  0  0  0  0
    3.5422   -1.4096    0.0000 C   0  0  0  0  0  0  0  0  0  0  0  0
    3.5422    0.0000    0.0000 C   0  0  0  0  0  0  0  0  0  0  0  0
    1.1205   -4.2651    0.0000 C   0  0  0  0  0  0  0  0  0  0  0  0
    1.1205   -2.8554    0.0000 C   0  0  0  0  0  0  0  0  0  0  0  0
    2.3494   -3.5422    0.0000 C   0  0  0  0  0  0  0  0  0  0  0  0
    0.7229   -3.5783    0.0000 C   0  0  0  0  0  0  0  0  0  0  0  0
    1.9518   -4.2651    0.0000 C   0  0  0  0  0  0  0  0  0  0  0  0
    0.7229   -6.3976    0.0000 C   0  0  0  0  0  0  0  0  0  0  0  0
    0.7229   -4.9880    0.0000 C   0  0  0  0  0  0  0  0  0  0  0  0
    1.1205   -5.6747    0.0000 C   0  0  0  0  0  0  0  0  0  0  0  0
    0.7590   -7.2289    0.0000 C   0  0  0  0  0  0  0  0  0  0  0  0
    0.0000   -6.8314    0.0000 C   0  0  0  0  0  0  0  0  0  0  0  0
  1 12  1  0  0  0  0
  1 13  1  0  0  0  0
  2  7  2  0  0  0  0
  3  5  1  0  0  0  0
  4  6  1  0  0  0  0
  4 10  1  0  0  0  0
  5  7  1  0  0  0  0
  6  7  1  0  0  0  0
  6  8  1  0  0  0  0
  6  9  1  0  0  0  0
  8 12  1  0  0  0  0
  9 13  1  0  0  0  0
 10 11  1  0  0  0  0
 11 15  2  0  0  0  0
 11 16  1  0  0  0  0
 14 17  2  0  0  0  0
 14 18  1  0  0  0  0
 14 20  1  0  0  0  0
 15 17  1  0  0  0  0
 16 18  2  0  0  0  0
 19 21  1  0  0  0  0
 19 22  1  0  0  0  0
 19 23  1  0  0  0  0
 20 21  3  0  0  0  0
 22 23  1  0  0  0  0
M  END
> <PUBCHEM_COMPOUND_ID_TYPE>
0

> <PUBCHEM_TOTAL_CHARGE>
0

> <PUBCHEM_SUBSTANCE_ID>
310934251

> <PUBCHEM_SUBSTANCE_VERSION>
1

> <PUBCHEM_EXT_DATASOURCE_NAME>
4488

> <PUBCHEM_EXT_DATASOURCE_REGID>
SCHEMBL16111709

> <PUBCHEM_SUBSTANCE_COMMENT>
InChI=1S/C18H22N2O2S/c21-17(20-22)18(9-11-23-12-10-18)19-13-16-7-5-15(6-8-16)4-3-14-1-2-14/h5-8,14,19,22H,1-2,9-13H2,(H,20,21)
InChIKey=CJNMMAFORFMXEM-UHFFFAOYSA-N

> <PUBCHEM_SUBSTANCE_SYNONYM>
SCHEMBL16111709

> <PUBCHEM_XREF_EXT_ID>
SCHEMBL16111709

> <PUBCHEM_EXT_DATASOURCE_URL>
https://www.surechembl.org/

> <PUBCHEM_EXT_SUBSTANCE_URL>
https://www.surechembl.org/chemical/SCHEMBL16111709

> <PUBCHEM_CID_ASSOCIATIONS>
117602508  1

> <PUBCHEM_COORDINATE_TYPE>
1
3

$$$$
