310942441
  -OEChem-07211613022D

 18 19  0     0  0  0  0  0  0999 V2000
   -1.8046    0.2616    0.0000 S   0  0  0  0  0  0  0  0  0  0  0  0
    1.7779    1.4498    0.0000 O   0  0  0  0  0  0  0  0  0  0  0  0
    1.0863    0.2527    0.0000 N   0  0  0  0  0  0  0  0  0  0  0  0
   -0.3591    0.2527    0.0000 N   0  0  0  0  0  0  0  0  0  0  0  0
   -1.0863    1.4941    0.0000 N   0  0  0  0  0  0  0  0  0  0  0  0
    0.3591    0.6695    0.0000 C   0  0  0  0  0  0  0  0  0  0  0  0
    0.3680    1.4941    0.0000 C   0  0  0  0  0  0  0  0  0  0  0  0
    1.0774   -0.6252    0.0000 C   0  0  0  0  0  0  0  0  0  0  0  0
   -1.0863    0.6695    0.0000 C   0  0  0  0  0  0  0  0  0  0  0  0
   -0.3680    1.9021    0.0000 C   0  0  0  0  0  0  0  0  0  0  0  0
    1.8046    0.6607    0.0000 C   0  0  0  0  0  0  0  0  0  0  0  0
    0.4212   -1.1395    0.0000 C   0  0  0  0  0  0  0  0  0  0  0  0
    1.7602   -1.0863    0.0000 C   0  0  0  0  0  0  0  0  0  0  0  0
    1.0774    1.9021    0.0000 C   0  0  0  0  0  0  0  0  0  0  0  0
    0.7050   -1.9021    0.0000 C   0  0  0  0  0  0  0  0  0  0  0  0
    1.5295   -1.8755    0.0000 C   0  0  0  0  0  0  0  0  0  0  0  0
    2.5405    0.2261    0.0000 C   0  0  0  0  0  0  0  0  0  0  0  0
   -2.5405    0.6607    0.0000 C   0  0  0  0  0  0  0  0  0  0  0  0
  1  9  1  0  0  0  0
  1 18  1  0  0  0  0
  2 14  2  0  0  0  0
  3  6  1  0  0  0  0
  3  8  1  0  0  0  0
  3 11  1  0  0  0  0
  4  6  2  0  0  0  0
  4  9  1  0  0  0  0
  5  9  2  0  0  0  0
  5 10  1  0  0  0  0
  6  7  1  0  0  0  0
  7 10  2  0  0  0  0
  7 14  1  0  0  0  0
  8 12  1  0  0  0  0
  8 13  1  0  0  0  0
 11 17  1  0  0  0  0
 12 15  1  0  0  0  0
 13 16  1  0  0  0  0
 15 16  1  0  0  0  0
M  END
> <PUBCHEM_COMPOUND_ID_TYPE>
0

> <PUBCHEM_TOTAL_CHARGE>
0

> <PUBCHEM_SUBSTANCE_ID>
310942441

> <PUBCHEM_SUBSTANCE_VERSION>
1

> <PUBCHEM_EXT_DATASOURCE_NAME>
4488

> <PUBCHEM_EXT_DATASOURCE_REGID>
SCHEMBL16120477

> <PUBCHEM_SUBSTANCE_COMMENT>
InChI=1S/C13H19N3OS/c1-3-16(11-6-4-5-7-11)12-10(9-17)8-14-13(15-12)18-2/h8-9,11H,3-7H2,1-2H3
InChIKey=HGJQIVWBNVZGBE-UHFFFAOYSA-N

> <PUBCHEM_SUBSTANCE_SYNONYM>
SCHEMBL16120477

> <PUBCHEM_XREF_EXT_ID>
SCHEMBL16120477

> <PUBCHEM_EXT_DATASOURCE_URL>
https://www.surechembl.org/

> <PUBCHEM_EXT_SUBSTANCE_URL>
https://www.surechembl.org/chemical/SCHEMBL16120477

> <PUBCHEM_CID_ASSOCIATIONS>
117609035  1

> <PUBCHEM_COORDINATE_TYPE>
1
3

$$$$
