310934075
  -OEChem-07211613022D

 22 23  0     0  0  0  0  0  0999 V2000
    4.9546   -0.0206    0.0000 Cl  0  0  0  0  0  0  0  0  0  0  0  0
    2.8489   -2.9108    0.0000 O   0  0  0  0  0  0  0  0  0  0  0  0
    1.4244   -0.4335    0.0000 O   0  0  0  0  0  0  0  0  0  0  0  0
    2.1263   -1.6515    0.0000 N   0  0  0  0  0  0  0  0  0  0  0  0
    2.8282   -0.4335    0.0000 N   0  0  0  0  0  0  0  0  0  0  0  0
    3.5302   -1.6722    0.0000 C   0  0  0  0  0  0  0  0  0  0  0  0
    2.8282   -1.2386    0.0000 C   0  0  0  0  0  0  0  0  0  0  0  0
    3.5508   -2.4980    0.0000 C   0  0  0  0  0  0  0  0  0  0  0  0
    4.2527   -1.2386    0.0000 C   0  0  0  0  0  0  0  0  0  0  0  0
    4.2733   -2.8902    0.0000 C   0  0  0  0  0  0  0  0  0  0  0  0
    1.4244   -1.2386    0.0000 C   0  0  0  0  0  0  0  0  0  0  0  0
    4.2321   -0.4335    0.0000 C   0  0  0  0  0  0  0  0  0  0  0  0
    0.7226   -1.6515    0.0000 C   0  0  0  0  0  0  0  0  0  0  0  0
    3.5302    0.0000    0.0000 C   0  0  0  0  0  0  0  0  0  0  0  0
    4.2733   -3.7159    0.0000 C   0  0  0  0  0  0  0  0  0  0  0  0
    4.9546   -2.4980    0.0000 C   0  0  0  0  0  0  0  0  0  0  0  0
    4.9752   -4.1288    0.0000 C   0  0  0  0  0  0  0  0  0  0  0  0
    5.6771   -2.8902    0.0000 C   0  0  0  0  0  0  0  0  0  0  0  0
    0.3097   -0.9496    0.0000 C   0  0  0  0  0  0  0  0  0  0  0  0
    1.1354   -2.3741    0.0000 C   0  0  0  0  0  0  0  0  0  0  0  0
    0.0000   -2.0644    0.0000 C   0  0  0  0  0  0  0  0  0  0  0  0
    5.6978   -3.7159    0.0000 C   0  0  0  0  0  0  0  0  0  0  0  0
  1 12  1  0  0  0  0
  2  8  2  0  0  0  0
  3 11  2  0  0  0  0
  4  7  1  0  0  0  0
  4 11  1  0  0  0  0
  5  7  1  0  0  0  0
  5 14  2  0  0  0  0
  6  7  2  0  0  0  0
  6  8  1  0  0  0  0
  6  9  1  0  0  0  0
  8 10  1  0  0  0  0
  9 12  2  0  0  0  0
 10 15  2  0  0  0  0
 10 16  1  0  0  0  0
 11 13  1  0  0  0  0
 12 14  1  0  0  0  0
 13 19  1  0  0  0  0
 13 20  1  0  0  0  0
 13 21  1  0  0  0  0
 15 17  1  0  0  0  0
 16 18  2  0  0  0  0
 17 22  2  0  0  0  0
 18 22  1  0  0  0  0
M  END
> <PUBCHEM_COMPOUND_ID_TYPE>
0

> <PUBCHEM_TOTAL_CHARGE>
0

> <PUBCHEM_SUBSTANCE_ID>
310934075

> <PUBCHEM_SUBSTANCE_VERSION>
1

> <PUBCHEM_EXT_DATASOURCE_NAME>
4488

> <PUBCHEM_EXT_DATASOURCE_REGID>
SCHEMBL16111521

> <PUBCHEM_SUBSTANCE_COMMENT>
InChI=1S/C17H17ClN2O2/c1-17(2,3)16(22)20-15-13(9-12(18)10-19-15)14(21)11-7-5-4-6-8-11/h4-10H,1-3H3,(H,19,20,22)
InChIKey=YNNXFFFECKHNLR-UHFFFAOYSA-N

> <PUBCHEM_SUBSTANCE_SYNONYM>
SCHEMBL16111521

> <PUBCHEM_XREF_EXT_ID>
SCHEMBL16111521

> <PUBCHEM_EXT_DATASOURCE_URL>
https://www.surechembl.org/

> <PUBCHEM_EXT_SUBSTANCE_URL>
https://www.surechembl.org/chemical/SCHEMBL16111521

> <PUBCHEM_CID_ASSOCIATIONS>
117602362  1

> <PUBCHEM_COORDINATE_TYPE>
1
3

$$$$
