310931475
  -OEChem-07211613022D

 33 36  0     1  0  0  0  0  0999 V2000
    6.2572   -3.4806    0.0000 Cl  0  0  0  0  0  0  0  0  0  0  0  0
    0.7822   -2.7766    0.0000 S   0  0  0  0  0  0  0  0  0  0  0  0
    0.4693   -0.5866    0.0000 S   0  0  0  0  0  0  0  0  0  0  0  0
    0.0000   -4.2236    0.0000 F   0  0  0  0  0  0  0  0  0  0  0  0
    3.2850   -4.1845    0.0000 F   0  0  0  0  0  0  0  0  0  0  0  0
    1.6034   -2.3073    0.0000 O   0  0  0  0  0  0  0  0  0  0  0  0
    0.0782   -3.1677    0.0000 O   0  0  0  0  0  0  0  0  0  0  0  0
    2.5029   -5.6706    0.0000 O   0  0  0  0  0  0  0  0  0  0  0  0
    0.3911   -2.0727    0.0000 N   0  0  0  0  0  0  0  0  0  0  0  0
    1.6425   -1.2515    0.0000 N   0  0  0  0  0  0  0  0  0  0  0  0
    1.0950    0.0000    0.0000 N   0  0  0  0  0  0  0  0  0  0  0  0
    3.7543   -7.8215    0.0000 N   0  0  0  0  0  0  0  0  0  0  0  0
    1.2124   -3.4806    0.0000 C   0  0  0  0  0  0  0  0  0  0  0  0
    0.8213   -4.2236    0.0000 C   0  0  0  0  0  0  0  0  0  0  0  0
    2.0727   -3.5197    0.0000 C   0  0  0  0  0  0  0  0  0  0  0  0
    2.0727   -4.9276    0.0000 C   0  0  0  0  0  0  0  0  0  0  0  0
    2.4637   -4.1845    0.0000 C   0  0  0  0  0  0  0  0  0  0  0  0
    1.2124   -4.9276    0.0000 C   0  0  0  0  0  0  0  0  0  0  0  0
    0.8213   -1.3297    0.0000 C   0  0  0  0  0  0  0  0  0  0  0  0
    3.7543   -6.3745    0.0000 C   0  0  3  0  0  0  0  0  0  0  0  0
    4.5756   -6.3745    0.0000 C   0  0  3  0  0  0  0  0  0  0  0  0
    3.3241   -5.6706    0.0000 C   0  0  0  0  0  0  0  0  0  0  0  0
    5.0058   -5.6706    0.0000 C   0  0  0  0  0  0  0  0  0  0  0  0
    1.7989   -0.4302    0.0000 C   0  0  0  0  0  0  0  0  0  0  0  0
    3.3241   -7.0785    0.0000 C   0  0  0  0  0  0  0  0  0  0  0  0
    5.0058   -7.0785    0.0000 C   0  0  0  0  0  0  0  0  0  0  0  0
    2.1900   -1.8381    0.0000 C   0  0  0  0  0  0  0  0  0  0  0  0
    4.5756   -4.9276    0.0000 C   0  0  0  0  0  0  0  0  0  0  0  0
    5.8270   -5.6315    0.0000 C   0  0  0  0  0  0  0  0  0  0  0  0
    4.5756   -7.8215    0.0000 C   0  0  0  0  0  0  0  0  0  0  0  0
    5.8270   -4.2236    0.0000 C   0  0  0  0  0  0  0  0  0  0  0  0
    5.0058   -4.2236    0.0000 C   0  0  0  0  0  0  0  0  0  0  0  0
    6.2572   -4.9276    0.0000 C   0  0  0  0  0  0  0  0  0  0  0  0
  1 31  1  0  0  0  0
  2  6  2  0  0  0  0
  2  7  2  0  0  0  0
  2  9  1  0  0  0  0
  2 13  1  0  0  0  0
  3 11  1  0  0  0  0
  3 19  1  0  0  0  0
  4 14  1  0  0  0  0
  5 17  1  0  0  0  0
  8 16  1  0  0  0  0
  8 22  1  0  0  0  0
  9 19  2  0  0  0  0
 10 19  1  0  0  0  0
 10 24  1  0  0  0  0
 10 27  1  0  0  0  0
 11 24  2  0  0  0  0
 12 25  1  0  0  0  0
 12 30  1  0  0  0  0
 13 14  1  0  0  0  0
 13 15  2  0  0  0  0
 14 18  2  0  0  0  0
 15 17  1  0  0  0  0
 16 17  2  0  0  0  0
 16 18  1  0  0  0  0
 20 21  1  0  0  0  0
 20 22  1  6  0  0  0
 20 25  1  0  0  0  0
 21 23  1  0  0  0  0
 21 26  1  1  0  0  0
 23 28  2  0  0  0  0
 23 29  1  0  0  0  0
 26 30  1  0  0  0  0
 28 32  1  0  0  0  0
 29 33  2  0  0  0  0
 31 32  2  0  0  0  0
 31 33  1  0  0  0  0
M  END
> <PUBCHEM_COMPOUND_ID_TYPE>
0

> <PUBCHEM_TOTAL_CHARGE>
0

> <PUBCHEM_SUBSTANCE_ID>
310931475

> <PUBCHEM_SUBSTANCE_VERSION>
1

> <PUBCHEM_EXT_DATASOURCE_NAME>
4488

> <PUBCHEM_EXT_DATASOURCE_REGID>
SCHEMBL16108800

> <PUBCHEM_SUBSTANCE_COMMENT>
InChI=1S/C21H21ClF2N4O3S2/c1-28-12-26-32-21(28)27-33(29,30)20-9-17(23)19(8-18(20)24)31-11-14-10-25-7-6-16(14)13-2-4-15(22)5-3-13/h2-5,8-9,12,14,16,25H,6-7,10-11H2,1H3/b27-21+/t14-,16-/m1/s1
InChIKey=NXIMQZNDYXUIQS-GEEIRDJRSA-N

> <PUBCHEM_SUBSTANCE_SYNONYM>
SCHEMBL16108800

> <PUBCHEM_XREF_EXT_ID>
SCHEMBL16108800

> <PUBCHEM_EXT_DATASOURCE_URL>
https://www.surechembl.org/

> <PUBCHEM_EXT_SUBSTANCE_URL>
https://www.surechembl.org/chemical/SCHEMBL16108800

> <PUBCHEM_CID_ASSOCIATIONS>
71558426  1

> <PUBCHEM_COORDINATE_TYPE>
1
3

> <PUBCHEM_BONDANNOTATIONS>
20  22  6
21  26  5

$$$$
