310948942
  -OEChem-07211613022D

 24 25  0     0  0  0  0  0  0999 V2000
    2.8788    1.3181    0.0000 Cl  0  0  0  0  0  0  0  0  0  0  0  0
    0.0000    1.3181    0.0000 F   0  0  0  0  0  0  0  0  0  0  0  0
    0.7169   -1.5828    0.0000 F   0  0  0  0  0  0  0  0  0  0  0  0
   -3.5847   -1.5828    0.0000 F   0  0  0  0  0  0  0  0  0  0  0  0
   -2.8678   -0.3364    0.0000 F   0  0  0  0  0  0  0  0  0  0  0  0
   -2.1508   -1.5828    0.0000 O   0  0  0  0  0  0  0  0  0  0  0  0
    3.5847    0.0717    0.0000 O   0  0  0  0  0  0  0  0  0  0  0  0
    2.8678   -1.1637    0.0000 O   0  0  0  0  0  0  0  0  0  0  0  0
    1.4339   -0.3364    0.0000 N   0  0  0  0  0  0  0  0  0  0  0  0
    1.4339    2.1453    0.0000 N   0  0  0  0  0  0  0  0  0  0  0  0
    0.7169    0.0827    0.0000 C   0  0  0  0  0  0  0  0  0  0  0  0
    0.0110   -0.3364    0.0000 C   0  0  0  0  0  0  0  0  0  0  0  0
    0.7280    0.9100    0.0000 C   0  0  0  0  0  0  0  0  0  0  0  0
    2.1508    0.0827    0.0000 C   0  0  0  0  0  0  0  0  0  0  0  0
    1.4449    1.3181    0.0000 C   0  0  0  0  0  0  0  0  0  0  0  0
    2.1619    0.9100    0.0000 C   0  0  0  0  0  0  0  0  0  0  0  0
    0.0000   -1.1526    0.0000 C   0  0  0  0  0  0  0  0  0  0  0  0
   -0.7059   -1.5718    0.0000 C   0  0  0  0  0  0  0  0  0  0  0  0
   -1.4229   -1.1637    0.0000 C   0  0  0  0  0  0  0  0  0  0  0  0
   -0.7169    0.0607    0.0000 C   0  0  0  0  0  0  0  0  0  0  0  0
    2.8568   -0.3475    0.0000 C   0  0  0  0  0  0  0  0  0  0  0  0
   -1.4118   -0.3364    0.0000 C   0  0  0  0  0  0  0  0  0  0  0  0
   -0.7059   -2.1453    0.0000 C   0  0  0  0  0  0  0  0  0  0  0  0
   -2.8678   -1.1637    0.0000 C   0  0  0  0  0  0  0  0  0  0  0  0
  1 16  1  0  0  0  0
  2 13  1  0  0  0  0
  3 17  1  0  0  0  0
  4 24  1  0  0  0  0
  5 24  1  0  0  0  0
  6 19  1  0  0  0  0
  6 24  1  0  0  0  0
  7 21  2  0  0  0  0
  8 21  1  0  0  0  0
  9 11  2  0  0  0  0
  9 14  1  0  0  0  0
 10 15  1  0  0  0  0
 11 12  1  0  0  0  0
 11 13  1  0  0  0  0
 12 17  1  0  0  0  0
 12 20  2  0  0  0  0
 13 15  2  0  0  0  0
 14 16  2  0  0  0  0
 14 21  1  0  0  0  0
 15 16  1  0  0  0  0
 17 18  2  0  0  0  0
 18 19  1  0  0  0  0
 18 23  1  0  0  0  0
 19 22  2  0  0  0  0
 20 22  1  0  0  0  0
M  END
> <PUBCHEM_COMPOUND_ID_TYPE>
0

> <PUBCHEM_TOTAL_CHARGE>
0

> <PUBCHEM_SUBSTANCE_ID>
310948942

> <PUBCHEM_SUBSTANCE_VERSION>
1

> <PUBCHEM_EXT_DATASOURCE_NAME>
4488

> <PUBCHEM_EXT_DATASOURCE_REGID>
SCHEMBL16127130

> <PUBCHEM_SUBSTANCE_COMMENT>
InChI=1S/C14H9ClF4N2O3/c1-4-6(24-14(18)19)3-2-5(8(4)16)11-9(17)10(20)7(15)12(21-11)13(22)23/h2-3,14H,1H3,(H2,20,21)(H,22,23)
InChIKey=YTTKAAUDOUTKSW-UHFFFAOYSA-N

> <PUBCHEM_SUBSTANCE_SYNONYM>
SCHEMBL16127130

> <PUBCHEM_XREF_EXT_ID>
SCHEMBL16127130

> <PUBCHEM_EXT_DATASOURCE_URL>
https://www.surechembl.org/

> <PUBCHEM_EXT_SUBSTANCE_URL>
https://www.surechembl.org/chemical/SCHEMBL16127130

> <PUBCHEM_CID_ASSOCIATIONS>
117614452  1

> <PUBCHEM_COORDINATE_TYPE>
1
3

$$$$
