310938812
  -OEChem-07211613022D

 22 23  0     0  0  0  0  0  0999 V2000
   -1.1357    6.0885    0.0000 Cl  0  0  0  0  0  0  0  0  0  0  0  0
    0.2933    3.6135    0.0000 O   0  0  0  0  0  0  0  0  0  0  0  0
    0.2933    1.9635    0.0000 O   0  0  0  0  0  0  0  0  0  0  0  0
   -2.5646    1.1385    0.0000 N   0  0  0  0  0  0  0  0  0  0  0  0
    3.8656    6.5010    0.0000 N   0  0  0  0  0  0  0  0  0  0  0  0
   -0.4212    3.2010    0.0000 C   0  0  0  0  0  0  0  0  0  0  0  0
    0.2933    4.4385    0.0000 C   0  0  0  0  0  0  0  0  0  0  0  0
   -0.4212    2.3760    0.0000 C   0  0  0  0  0  0  0  0  0  0  0  0
    1.0077    5.6760    0.0000 C   0  0  0  0  0  0  0  0  0  0  0  0
    1.0077    4.8510    0.0000 C   0  0  0  0  0  0  0  0  0  0  0  0
   -1.1357    3.6135    0.0000 C   0  0  0  0  0  0  0  0  0  0  0  0
   -1.1357    1.9635    0.0000 C   0  0  0  0  0  0  0  0  0  0  0  0
   -1.8502    2.3760    0.0000 C   0  0  0  0  0  0  0  0  0  0  0  0
   -0.4212    4.8510    0.0000 C   0  0  0  0  0  0  0  0  0  0  0  0
   -0.4212    5.6760    0.0000 C   0  0  0  0  0  0  0  0  0  0  0  0
   -1.8502    3.2010    0.0000 C   0  0  0  0  0  0  0  0  0  0  0  0
    0.2933    6.0885    0.0000 C   0  0  0  0  0  0  0  0  0  0  0  0
    1.7222    6.0885    0.0000 C   0  0  0  0  0  0  0  0  0  0  0  0
   -2.5646    1.9635    0.0000 C   0  0  0  0  0  0  0  0  0  0  0  0
    2.4367    5.6760    0.0000 C   0  0  0  0  0  0  0  0  0  0  0  0
    1.0077    2.3760    0.0000 C   0  0  0  0  0  0  0  0  0  0  0  0
    3.1511    6.0885    0.0000 C   0  0  0  0  0  0  0  0  0  0  0  0
  1 15  1  0  0  0  0
  2  6  1  0  0  0  0
  2  7  1  0  0  0  0
  3  8  1  0  0  0  0
  3 21  1  0  0  0  0
  4 19  1  0  0  0  0
  5 22  3  0  0  0  0
  6  8  1  0  0  0  0
  6 11  2  0  0  0  0
  7 10  2  0  0  0  0
  7 14  1  0  0  0  0
  8 12  2  0  0  0  0
  9 10  1  0  0  0  0
  9 17  2  0  0  0  0
  9 18  1  0  0  0  0
 11 16  1  0  0  0  0
 12 13  1  0  0  0  0
 13 16  2  0  0  0  0
 13 19  1  0  0  0  0
 14 15  2  0  0  0  0
 15 17  1  0  0  0  0
 18 20  2  0  0  0  0
 20 22  1  0  0  0  0
M  END
> <PUBCHEM_COMPOUND_ID_TYPE>
0

> <PUBCHEM_TOTAL_CHARGE>
0

> <PUBCHEM_SUBSTANCE_ID>
310938812

> <PUBCHEM_SUBSTANCE_VERSION>
1

> <PUBCHEM_EXT_DATASOURCE_NAME>
4488

> <PUBCHEM_EXT_DATASOURCE_REGID>
SCHEMBL16116729

> <PUBCHEM_SUBSTANCE_COMMENT>
InChI=1S/C17H15ClN2O2/c1-21-17-9-13(11-20)4-5-16(17)22-15-8-12(3-2-6-19)7-14(18)10-15/h2-5,7-10H,11,20H2,1H3/b3-2+
InChIKey=MLJHQTUQLRNAAB-NSCUHMNNSA-N

> <PUBCHEM_SUBSTANCE_SYNONYM>
SCHEMBL16116729

> <PUBCHEM_XREF_EXT_ID>
SCHEMBL16116729

> <PUBCHEM_EXT_DATASOURCE_URL>
https://www.surechembl.org/

> <PUBCHEM_EXT_SUBSTANCE_URL>
https://www.surechembl.org/chemical/SCHEMBL16116729

> <PUBCHEM_CID_ASSOCIATIONS>
117606218  1

> <PUBCHEM_COORDINATE_TYPE>
1
3

$$$$
