310948975
  -OEChem-07211613022D

 29 32  0     1  0  0  0  0  0999 V2000
    1.5449    3.2136    0.0000 F   0  0  0  0  0  0  0  0  0  0  0  0
    1.8746    2.1424    0.0000 F   0  0  0  0  0  0  0  0  0  0  0  0
    0.7828    1.8127    0.0000 F   0  0  0  0  0  0  0  0  0  0  0  0
   -1.7304    4.2436    0.0000 F   0  0  0  0  0  0  0  0  0  0  0  0
    1.6891   -2.9870    0.0000 O   0  0  0  0  0  0  0  0  0  0  0  0
    1.1124   -4.2436    0.0000 O   0  0  0  0  0  0  0  0  0  0  0  0
   -0.3708   -0.8652    0.0000 N   0  0  0  0  0  0  0  0  0  0  0  0
    0.3090   -2.1424    0.0000 N   0  0  0  0  0  0  0  0  0  0  0  0
   -1.1330   -2.1012    0.0000 N   0  0  0  0  0  0  0  0  0  0  0  0
   -0.7621    0.4533    0.0000 C   0  0  3  0  0  0  0  0  0  0  0  0
    0.0618    0.3708    0.0000 C   0  0  3  0  0  0  0  0  0  0  0  0
   -0.3090    1.6891    0.0000 C   0  0  0  0  0  0  0  0  0  0  0  0
   -0.2883    2.5544    0.0000 C   0  0  0  0  0  0  0  0  0  0  0  0
    0.4326    2.9458    0.0000 C   0  0  0  0  0  0  0  0  0  0  0  0
   -0.9888    1.2360    0.0000 C   0  0  0  0  0  0  0  0  0  0  0  0
    0.3914    1.2566    0.0000 C   0  0  0  0  0  0  0  0  0  0  0  0
   -1.0300   -0.3708    0.0000 C   0  0  0  0  0  0  0  0  0  0  0  0
    0.3090   -0.4120    0.0000 C   0  0  0  0  0  0  0  0  0  0  0  0
   -0.4120   -1.6891    0.0000 C   0  0  0  0  0  0  0  0  0  0  0  0
    1.1536    2.5132    0.0000 C   0  0  0  0  0  0  0  0  0  0  0  0
   -1.0094    2.9663    0.0000 C   0  0  0  0  0  0  0  0  0  0  0  0
    0.4738    3.7491    0.0000 C   0  0  0  0  0  0  0  0  0  0  0  0
   -0.9888    3.8316    0.0000 C   0  0  0  0  0  0  0  0  0  0  0  0
    0.3296   -2.9663    0.0000 C   0  0  0  0  0  0  0  0  0  0  0  0
   -1.1742   -2.9252    0.0000 C   0  0  0  0  0  0  0  0  0  0  0  0
   -0.2473    4.1818    0.0000 C   0  0  0  0  0  0  0  0  0  0  0  0
   -0.4120   -3.3784    0.0000 C   0  0  0  0  0  0  0  0  0  0  0  0
    1.0300   -3.3990    0.0000 C   0  0  0  0  0  0  0  0  0  0  0  0
   -1.8746   -3.3578    0.0000 C   0  0  0  0  0  0  0  0  0  0  0  0
  1 20  1  0  0  0  0
  2 20  1  0  0  0  0
  3 20  1  0  0  0  0
  4 23  1  0  0  0  0
  5 28  2  0  0  0  0
  6 28  1  0  0  0  0
  7 17  1  0  0  0  0
  7 18  1  0  0  0  0
  7 19  1  0  0  0  0
  8 19  1  0  0  0  0
  8 24  2  0  0  0  0
  9 19  2  0  0  0  0
  9 25  1  0  0  0  0
 10 11  1  0  0  0  0
 10 15  1  0  0  0  0
 10 17  1  1  0  0  0
 11 16  1  0  0  0  0
 11 18  1  0  0  0  0
 12 13  1  0  0  0  0
 12 15  1  0  0  0  0
 12 16  1  0  0  0  0
 13 14  2  0  0  0  0
 13 21  1  0  0  0  0
 14 20  1  0  0  0  0
 14 22  1  0  0  0  0
 21 23  2  0  0  0  0
 22 26  2  0  0  0  0
 23 26  1  0  0  0  0
 24 27  1  0  0  0  0
 24 28  1  0  0  0  0
 25 27  2  0  0  0  0
 25 29  1  0  0  0  0
M  END
> <PUBCHEM_COMPOUND_ID_TYPE>
0

> <PUBCHEM_TOTAL_CHARGE>
0

> <PUBCHEM_SUBSTANCE_ID>
310948975

> <PUBCHEM_SUBSTANCE_VERSION>
1

> <PUBCHEM_EXT_DATASOURCE_NAME>
4488

> <PUBCHEM_EXT_DATASOURCE_REGID>
SCHEMBL16127163

> <PUBCHEM_SUBSTANCE_COMMENT>
InChI=1S/C20H19F4N3O2/c1-10-4-17(18(28)29)26-19(25-10)27-8-12-5-11(6-13(12)9-27)15-7-14(21)2-3-16(15)20(22,23)24/h2-4,7,11-13H,5-6,8-9H2,1H3,(H,28,29)/t11?,12-,13?/m1/s1
InChIKey=MYMRMQVWWLKYHK-OTTFEQOBSA-N

> <PUBCHEM_SUBSTANCE_SYNONYM>
SCHEMBL16127163

> <PUBCHEM_XREF_EXT_ID>
SCHEMBL16127163

> <PUBCHEM_EXT_DATASOURCE_URL>
https://www.surechembl.org/

> <PUBCHEM_EXT_SUBSTANCE_URL>
https://www.surechembl.org/chemical/SCHEMBL16127163

> <PUBCHEM_CID_ASSOCIATIONS>
117614484  1

> <PUBCHEM_COORDINATE_TYPE>
1
3

> <PUBCHEM_BONDANNOTATIONS>
10  17  5

$$$$
