310929816
  -OEChem-07211613022D

 71 79  0     1  0  0  0  0  0999 V2000
   -0.2152   -4.7543    0.0000 S   0  0  0  0  0  0  0  0  0  0  0  0
   -0.1242   -3.1068    0.0000 O   0  0  0  0  0  0  0  0  0  0  0  0
    0.0873   -2.8315    0.0000 O   0  0  0  0  0  0  0  0  0  0  0  0
   -0.0231    0.8224    0.0000 O   0  0  0  0  0  0  0  0  0  0  0  0
    4.2996   -1.5896    0.0000 O   0  0  0  0  0  0  0  0  0  0  0  0
   -0.6664   -5.4449    0.0000 O   0  0  0  0  0  0  0  0  0  0  0  0
    0.2361   -4.0636    0.0000 O   0  0  0  0  0  0  0  0  0  0  0  0
    1.4541   -2.4563    0.0000 O   0  0  0  0  0  0  0  0  0  0  0  0
    3.5670   -0.3627    0.0000 O   0  0  0  0  0  0  0  0  0  0  0  0
    2.8345    0.8642    0.0000 O   0  0  0  0  0  0  0  0  0  0  0  0
   -0.2741    1.0662    0.0000 O   0  0  0  0  0  0  0  0  0  0  0  0
   -1.2265   -2.2695    0.0000 N   0  0  0  0  0  0  0  0  0  0  0  0
    0.7215   -1.2294    0.0000 N   0  0  0  0  0  0  0  0  0  0  0  0
   -0.9058   -4.3030    0.0000 N   0  0  0  0  0  0  0  0  0  0  0  0
    2.8708   -1.6105    0.0000 N   0  0  0  0  0  0  0  0  0  0  0  0
    0.6732    2.0702    0.0000 N   0  0  0  0  0  0  0  0  0  0  0  0
    1.4178    0.0184    0.0000 N   0  0  0  0  0  0  0  0  0  0  0  0
   -1.5509   -3.0280    0.0000 C   0  0  3  0  0  0  0  0  0  0  0  0
   -2.3543   -2.8402    0.0000 C   0  0  3  0  0  0  0  0  0  0  0  0
   -2.1153   -3.6298    0.0000 C   0  0  0  0  0  0  0  0  0  0  0  0
   -0.8603   -3.4793    0.0000 C   0  0  0  0  0  0  0  0  0  0  0  0
   -0.0828   -1.4127    0.0000 C   0  0  3  0  0  0  0  0  0  0  0  0
   -0.4073   -2.1713    0.0000 C   0  0  0  0  0  0  0  0  0  0  0  0
   -2.9561   -2.2758    0.0000 C   0  0  0  0  0  0  0  0  0  0  0  0
   -0.0110   -0.0025    0.0000 C   0  0  3  0  0  0  0  0  0  0  0  0
   -0.5058   -0.7044    0.0000 C   0  0  0  0  0  0  0  0  0  0  0  0
    0.4755   -5.2056    0.0000 C   0  0  0  0  0  0  0  0  0  0  0  0
    0.7095   -0.4045    0.0000 C   0  0  0  0  0  0  0  0  0  0  0  0
    1.4420   -1.6314    0.0000 C   0  0  0  0  0  0  0  0  0  0  0  0
    5.0079   -1.1667    0.0000 C   0  0  3  0  0  0  0  0  0  0  0  0
    4.9958   -0.3417    0.0000 C   0  0  3  0  0  0  0  0  0  0  0  0
    2.1503   -1.2085    0.0000 C   0  0  3  0  0  0  0  0  0  0  0  0
    5.7163   -0.7437    0.0000 C   0  0  0  0  0  0  0  0  0  0  0  0
    0.1510   -5.9641    0.0000 C   0  0  0  0  0  0  0  0  0  0  0  0
    0.9701   -5.8658    0.0000 C   0  0  0  0  0  0  0  0  0  0  0  0
   -3.7457   -2.5148    0.0000 C   0  0  0  0  0  0  0  0  0  0  0  0
    0.4415    0.9942    0.0000 C   0  0  0  0  0  0  0  0  0  0  0  0
    4.2754    0.0602    0.0000 C   0  0  0  0  0  0  0  0  0  0  0  0
    3.5791   -1.1876    0.0000 C   0  0  0  0  0  0  0  0  0  0  0  0
    1.0398   -4.6038    0.0000 C   0  0  0  0  0  0  0  0  0  0  0  0
    2.1624   -2.0334    0.0000 C   0  0  0  0  0  0  0  0  0  0  0  0
    1.1619    0.5922    0.0000 C   0  0  0  0  0  0  0  0  0  0  0  0
    2.1141    1.2662    0.0000 C   0  0  0  0  0  0  0  0  0  0  0  0
    2.8828   -2.4354    0.0000 C   0  0  0  0  0  0  0  0  0  0  0  0
    1.3816    2.4931    0.0000 C   0  0  0  0  0  0  0  0  0  0  0  0
    2.1020    2.0911    0.0000 C   0  0  0  0  0  0  0  0  0  0  0  0
    4.2633    0.8852    0.0000 C   0  0  0  0  0  0  0  0  0  0  0  0
    1.8630    1.5101    0.0000 C   0  0  0  0  0  0  0  0  0  0  0  0
    3.5429    1.2872    0.0000 C   0  0  0  0  0  0  0  0  0  0  0  0
    2.5834    1.1081    0.0000 C   0  0  0  0  0  0  0  0  0  0  0  0
    1.3695    3.3181    0.0000 C   0  0  0  0  0  0  0  0  0  0  0  0
    2.8104    2.5141    0.0000 C   0  0  0  0  0  0  0  0  0  0  0  0
    2.8949   -3.2603    0.0000 C   0  0  0  0  0  0  0  0  0  0  0  0
    3.5912   -2.0125    0.0000 C   0  0  0  0  0  0  0  0  0  0  0  0
    2.0779    3.7410    0.0000 C   0  0  0  0  0  0  0  0  0  0  0  0
    2.7983    3.3390    0.0000 C   0  0  0  0  0  0  0  0  0  0  0  0
    3.6154   -3.6623    0.0000 C   0  0  0  0  0  0  0  0  0  0  0  0
    4.3116   -2.4145    0.0000 C   0  0  0  0  0  0  0  0  0  0  0  0
    2.8466    0.0393    0.0000 C   0  0  0  0  0  0  0  0  0  0  0  0
    4.3237   -3.2394    0.0000 C   0  0  0  0  0  0  0  0  0  0  0  0
    2.1382   -0.3836    0.0000 C   0  0  0  0  0  0  0  0  0  0  0  0
    1.4057    0.8433    0.0000 C   0  0  0  0  0  0  0  0  0  0  0  0
    0.4584   -0.1607    0.0000 C   0  0  0  0  0  0  0  0  0  0  0  0
    0.6853    1.2453    0.0000 C   0  0  0  0  0  0  0  0  0  0  0  0
   -0.2621    0.2413    0.0000 C   0  0  0  0  0  0  0  0  0  0  0  0
   -1.9649   -2.1128    0.0000 H   0  0  0  0  0  0  0  0  0  0  0  0
   -0.9060   -1.4680    0.0000 H   0  0  0  0  0  0  0  0  0  0  0  0
   -0.7992    0.2410    0.0000 H   0  0  0  0  0  0  0  0  0  0  0  0
    5.4308   -1.8750    0.0000 H   0  0  0  0  0  0  0  0  0  0  0  0
    5.3978    0.3787    0.0000 H   0  0  0  0  0  0  0  0  0  0  0  0
    1.7483   -1.9289    0.0000 H   0  0  0  0  0  0  0  0  0  0  0  0
  1  6  2  0  0  0  0
  1  7  2  0  0  0  0
  1 14  1  0  0  0  0
  1 27  1  0  0  0  0
  2 21  2  0  0  0  0
  3 23  2  0  0  0  0
  4 25  1  0  0  0  0
  4 37  1  0  0  0  0
  5 30  1  0  0  0  0
  5 39  1  0  0  0  0
  8 29  2  0  0  0  0
  9 39  2  0  0  0  0
 10 43  1  0  0  0  0
 10 59  1  0  0  0  0
 11 64  1  0  0  0  0
 11 65  1  0  0  0  0
 18 12  1  6  0  0  0
 12 23  1  0  0  0  0
 13 22  1  0  0  0  0
 13 28  1  0  0  0  0
 13 29  1  0  0  0  0
 14 21  1  0  0  0  0
 15 32  1  0  0  0  0
 15 39  1  0  0  0  0
 16 37  2  0  0  0  0
 16 45  1  0  0  0  0
 17 61  1  0  0  0  0
 17 62  1  0  0  0  0
 17 63  1  0  0  0  0
 18 19  1  0  0  0  0
 18 20  1  0  0  0  0
 18 21  1  1  0  0  0
 19 20  1  0  0  0  0
 19 24  1  0  0  0  0
 19 66  1  6  0  0  0
 22 23  1  0  0  0  0
 22 26  1  0  0  0  0
 22 67  1  1  0  0  0
 24 36  2  0  0  0  0
 25 26  1  0  0  0  0
 25 28  1  0  0  0  0
 25 68  1  6  0  0  0
 27 34  1  0  0  0  0
 27 35  1  0  0  0  0
 27 40  1  0  0  0  0
 29 32  1  0  0  0  0
 30 31  1  0  0  0  0
 30 33  1  0  0  0  0
 30 69  1  6  0  0  0
 31 33  1  0  0  0  0
 31 38  1  0  0  0  0
 31 70  1  1  0  0  0
 32 41  1  0  0  0  0
 32 71  1  6  0  0  0
 34 35  1  0  0  0  0
 37 42  1  0  0  0  0
 38 47  1  0  0  0  0
 41 44  1  0  0  0  0
 42 43  2  0  0  0  0
 42 48  1  0  0  0  0
 43 46  1  0  0  0  0
 44 53  1  0  0  0  0
 44 54  1  0  0  0  0
 45 46  2  0  0  0  0
 45 51  1  0  0  0  0
 46 52  1  0  0  0  0
 47 49  1  0  0  0  0
 48 50  1  0  0  0  0
 49 50  1  0  0  0  0
 51 55  2  0  0  0  0
 52 56  2  0  0  0  0
 53 57  1  0  0  0  0
 54 58  1  0  0  0  0
 55 56  1  0  0  0  0
 57 60  1  0  0  0  0
 58 60  1  0  0  0  0
 59 61  1  0  0  0  0
 62 64  1  0  0  0  0
 63 65  1  0  0  0  0
M  END
> <PUBCHEM_COMPOUND_ID_TYPE>
0

> <PUBCHEM_TOTAL_CHARGE>
0

> <PUBCHEM_SUBSTANCE_ID>
310929816

> <PUBCHEM_SUBSTANCE_VERSION>
1

> <PUBCHEM_EXT_DATASOURCE_NAME>
4488

> <PUBCHEM_EXT_DATASOURCE_REGID>
SCHEMBL16107024

> <PUBCHEM_SUBSTANCE_COMMENT>
InChI=1S/C48H66N6O10S/c1-3-33-29-48(33,45(57)52-65(59,60)47(2)18-19-47)51-42(55)39-28-34-30-54(39)44(56)38(26-31-12-6-4-7-13-31)50-46(58)64-40-27-32(40)14-8-5-9-16-36-41(62-25-22-53-20-23-61-24-21-53)35-15-10-11-17-37(35)49-43(36)63-34/h3,10-11,15,17,31-34,38-40H,1,4-9,12-14,16,18-30H2,2H3,(H,50,58)(H,51,55)(H,52,57)/t32-,33-,34-,38+,39+,40-,48-/m1/s1
InChIKey=AMEAJQLQVVHMKT-WEYARTILSA-N

> <PUBCHEM_SUBSTANCE_SYNONYM>
SCHEMBL16107024

> <PUBCHEM_XREF_EXT_ID>
SCHEMBL16107024

> <PUBCHEM_EXT_DATASOURCE_URL>
https://www.surechembl.org/

> <PUBCHEM_EXT_SUBSTANCE_URL>
https://www.surechembl.org/chemical/SCHEMBL16107024

> <PUBCHEM_CID_ASSOCIATIONS>
117599092  1

> <PUBCHEM_COORDINATE_TYPE>
1
3

> <PUBCHEM_BONDANNOTATIONS>
18  12  6
18  21  5
19  66  6
22  67  5
25  68  6
30  69  6
31  70  5
32  71  6

$$$$
