310933922
  -OEChem-07211613022D

 24 27  0     0  0  0  0  0  0999 V2000
   -1.4290    4.9501    0.0000 Cl  0  0  0  0  0  0  0  0  0  0  0  0
    1.4991    3.4577    0.0000 O   0  0  0  0  0  0  0  0  0  0  0  0
    0.0000    2.4751    0.0000 O   0  0  0  0  0  0  0  0  0  0  0  0
    0.0000   -1.6500    0.0000 O   0  0  0  0  0  0  0  0  0  0  0  0
   -0.7145    1.2375    0.0000 C   0  0  0  0  0  0  0  0  0  0  0  0
    0.7145    3.7126    0.0000 C   0  0  0  0  0  0  0  0  0  0  0  0
   -0.7145   -0.4125    0.0000 C   0  0  0  0  0  0  0  0  0  0  0  0
    0.7145    4.5376    0.0000 C   0  0  0  0  0  0  0  0  0  0  0  0
    0.0000    3.3001    0.0000 C   0  0  0  0  0  0  0  0  0  0  0  0
    1.9841    4.1251    0.0000 C   0  0  0  0  0  0  0  0  0  0  0  0
   -1.0557    0.7214    0.0000 C   0  0  0  0  0  0  0  0  0  0  0  0
   -1.4290    0.8250    0.0000 C   0  0  0  0  0  0  0  0  0  0  0  0
    0.0000    0.8250    0.0000 C   0  0  0  0  0  0  0  0  0  0  0  0
   -0.7145    2.0625    0.0000 C   0  0  0  0  0  0  0  0  0  0  0  0
    1.4991    4.7925    0.0000 C   0  0  0  0  0  0  0  0  0  0  0  0
   -1.0557    0.1026    0.0000 C   0  0  0  0  0  0  0  0  0  0  0  0
   -1.4290    0.0000    0.0000 C   0  0  0  0  0  0  0  0  0  0  0  0
    0.0000    0.0000    0.0000 C   0  0  0  0  0  0  0  0  0  0  0  0
    0.0000    4.9501    0.0000 C   0  0  0  0  0  0  0  0  0  0  0  0
   -0.7145    3.7126    0.0000 C   0  0  0  0  0  0  0  0  0  0  0  0
   -0.7145    4.5376    0.0000 C   0  0  0  0  0  0  0  0  0  0  0  0
   -0.7145   -1.2375    0.0000 C   0  0  0  0  0  0  0  0  0  0  0  0
    2.6985    4.5376    0.0000 C   0  0  0  0  0  0  0  0  0  0  0  0
    2.6985    3.7126    0.0000 C   0  0  0  0  0  0  0  0  0  0  0  0
  1 21  1  0  0  0  0
  2  6  1  0  0  0  0
  2 10  1  0  0  0  0
  3  9  1  0  0  0  0
  3 14  1  0  0  0  0
  4 22  1  0  0  0  0
  5 11  1  0  0  0  0
  5 12  1  0  0  0  0
  5 13  1  0  0  0  0
  5 14  1  0  0  0  0
  6  8  1  0  0  0  0
  6  9  2  0  0  0  0
  7 16  1  0  0  0  0
  7 17  1  0  0  0  0
  7 18  1  0  0  0  0
  7 22  1  0  0  0  0
  8 15  1  0  0  0  0
  8 19  2  0  0  0  0
  9 20  1  0  0  0  0
 10 15  1  0  0  0  0
 10 23  1  0  0  0  0
 10 24  1  0  0  0  0
 11 16  1  0  0  0  0
 12 17  1  0  0  0  0
 13 18  1  0  0  0  0
 19 21  1  0  0  0  0
 20 21  2  0  0  0  0
M  END
> <PUBCHEM_COMPOUND_ID_TYPE>
0

> <PUBCHEM_TOTAL_CHARGE>
0

> <PUBCHEM_SUBSTANCE_ID>
310933922

> <PUBCHEM_SUBSTANCE_VERSION>
1

> <PUBCHEM_EXT_DATASOURCE_NAME>
4488

> <PUBCHEM_EXT_DATASOURCE_REGID>
SCHEMBL16111361

> <PUBCHEM_SUBSTANCE_COMMENT>
InChI=1S/C20H27ClO3/c1-18(2)11-14-9-15(21)10-16(17(14)24-18)23-13-20-6-3-19(12-22,4-7-20)5-8-20/h9-10,22H,3-8,11-13H2,1-2H3
InChIKey=STAPBQDNDGGEBX-UHFFFAOYSA-N

> <PUBCHEM_SUBSTANCE_SYNONYM>
SCHEMBL16111361

> <PUBCHEM_XREF_EXT_ID>
SCHEMBL16111361

> <PUBCHEM_EXT_DATASOURCE_URL>
https://www.surechembl.org/

> <PUBCHEM_EXT_SUBSTANCE_URL>
https://www.surechembl.org/chemical/SCHEMBL16111361

> <PUBCHEM_CID_ASSOCIATIONS>
117602248  1

> <PUBCHEM_COORDINATE_TYPE>
1
3

$$$$
