310946771
  -OEChem-07211613022D

 36 40  0     0  0  0  0  0  0999 V2000
    0.1860   -3.3837    0.0000 F   0  0  0  0  0  0  0  0  0  0  0  0
    0.8238   -4.3050    0.0000 F   0  0  0  0  0  0  0  0  0  0  0  0
   -0.1152   -4.9429    0.0000 F   0  0  0  0  0  0  0  0  0  0  0  0
   -2.8612    0.5846    0.0000 O   0  0  0  0  0  0  0  0  0  0  0  0
   -0.7884   -3.9861    0.0000 O   0  0  0  0  0  0  0  0  0  0  0  0
    1.8867    4.9429    0.0000 O   0  0  0  0  0  0  0  0  0  0  0  0
   -0.0974    0.4429    0.0000 N   0  0  0  0  0  0  0  0  0  0  0  0
   -0.4340   -0.3189    0.0000 N   0  0  0  0  0  0  0  0  0  0  0  0
   -1.7982   -0.8504    0.0000 N   0  0  0  0  0  0  0  0  0  0  0  0
   -2.1348    1.8247    0.0000 N   0  0  0  0  0  0  0  0  0  0  0  0
    1.3553    3.0118    0.0000 N   0  0  0  0  0  0  0  0  0  0  0  0
    2.8612    0.3189    0.0000 N   0  0  0  0  0  0  0  0  0  0  0  0
    0.6999    0.6377    0.0000 C   0  0  0  0  0  0  0  0  0  0  0  0
   -0.7175    0.9921    0.0000 C   0  0  0  0  0  0  0  0  0  0  0  0
   -1.4085    0.5846    0.0000 C   0  0  0  0  0  0  0  0  0  0  0  0
   -1.2490   -0.1949    0.0000 C   0  0  0  0  0  0  0  0  0  0  0  0
   -2.1348    1.0099    0.0000 C   0  0  0  0  0  0  0  0  0  0  0  0
    0.1506    1.2047    0.0000 C   0  0  0  0  0  0  0  0  0  0  0  0
    1.5148    0.8327    0.0000 C   0  0  0  0  0  0  0  0  0  0  0  0
   -0.6999    1.8247    0.0000 C   0  0  0  0  0  0  0  0  0  0  0  0
    1.2667   -0.0177    0.0000 C   0  0  0  0  0  0  0  0  0  0  0  0
    1.1427    2.1969    0.0000 C   0  0  0  0  0  0  0  0  0  0  0  0
    0.3631    2.0019    0.0000 C   0  0  0  0  0  0  0  0  0  0  0  0
    1.7273    1.6298    0.0000 C   0  0  0  0  0  0  0  0  0  0  0  0
   -1.4439    2.2323    0.0000 C   0  0  0  0  0  0  0  0  0  0  0  0
   -1.5501   -1.6122    0.0000 C   0  0  0  0  0  0  0  0  0  0  0  0
    2.0817    0.1772    0.0000 C   0  0  0  0  0  0  0  0  0  0  0  0
    2.0640    3.4370    0.0000 C   0  0  0  0  0  0  0  0  0  0  0  0
    0.9656    3.7027    0.0000 C   0  0  0  0  0  0  0  0  0  0  0  0
    1.6564    4.1279    0.0000 C   0  0  0  0  0  0  0  0  0  0  0  0
   -2.0817   -2.2323    0.0000 C   0  0  0  0  0  0  0  0  0  0  0  0
   -0.7353   -1.8070    0.0000 C   0  0  0  0  0  0  0  0  0  0  0  0
   -1.0364   -3.2066    0.0000 C   0  0  0  0  0  0  0  0  0  0  0  0
   -1.8336   -3.0294    0.0000 C   0  0  0  0  0  0  0  0  0  0  0  0
   -0.4871   -2.5866    0.0000 C   0  0  0  0  0  0  0  0  0  0  0  0
    0.0266   -4.1633    0.0000 C   0  0  0  0  0  0  0  0  0  0  0  0
  1 36  1  0  0  0  0
  2 36  1  0  0  0  0
  3 36  1  0  0  0  0
  4 17  2  0  0  0  0
  5 33  1  0  0  0  0
  5 36  1  0  0  0  0
  6 30  1  0  0  0  0
  7  8  1  0  0  0  0
  7 13  1  0  0  0  0
  7 14  1  0  0  0  0
  8 16  2  0  0  0  0
  9 16  1  0  0  0  0
  9 26  1  0  0  0  0
 10 17  1  0  0  0  0
 10 25  1  0  0  0  0
 22 11  1  1  0  0  0
 11 28  1  0  0  0  0
 11 29  1  0  0  0  0
 12 27  3  0  0  0  0
 13 18  1  0  0  0  0
 13 19  1  0  0  0  0
 13 21  1  6  0  0  0
 14 15  2  0  0  0  0
 14 20  1  0  0  0  0
 15 16  1  0  0  0  0
 15 17  1  0  0  0  0
 18 23  1  0  0  0  0
 19 24  1  0  0  0  0
 20 25  2  0  0  0  0
 21 27  1  0  0  0  0
 22 23  1  0  0  0  0
 22 24  1  0  0  0  0
 26 31  2  0  0  0  0
 26 32  1  0  0  0  0
 28 30  1  0  0  0  0
 29 30  1  0  0  0  0
 31 34  1  0  0  0  0
 32 35  2  0  0  0  0
 33 34  2  0  0  0  0
 33 35  1  0  0  0  0
M  END
> <PUBCHEM_COMPOUND_ID_TYPE>
0

> <PUBCHEM_TOTAL_CHARGE>
0

> <PUBCHEM_SUBSTANCE_ID>
310946771

> <PUBCHEM_SUBSTANCE_VERSION>
1

> <PUBCHEM_EXT_DATASOURCE_NAME>
4488

> <PUBCHEM_EXT_DATASOURCE_REGID>
SCHEMBL16124895

> <PUBCHEM_SUBSTANCE_COMMENT>
InChI=1S/C24H25F3N6O3/c25-24(26,27)36-18-3-1-15(2-4-18)30-21-20-19(7-12-29-22(20)35)33(31-21)23(10-11-28)8-5-16(6-9-23)32-13-17(34)14-32/h1-4,7,12,16-17,34H,5-6,8-10,13-14H2,(H,29,35)(H,30,31)/t16-,23+
InChIKey=JLXNQNAEXOXVQZ-PAVFIEEWSA-N

> <PUBCHEM_SUBSTANCE_SYNONYM>
SCHEMBL16124895

> <PUBCHEM_XREF_EXT_ID>
SCHEMBL16124895

> <PUBCHEM_EXT_DATASOURCE_URL>
https://www.surechembl.org/

> <PUBCHEM_EXT_SUBSTANCE_URL>
https://www.surechembl.org/chemical/SCHEMBL16124895

> <PUBCHEM_CID_ASSOCIATIONS>
117612638  1

> <PUBCHEM_COORDINATE_TYPE>
1
3

> <PUBCHEM_BONDANNOTATIONS>
22  11  5
13  21  6

$$$$
