310940576
  -OEChem-07211613022D

 33 37  0     0  0  0  0  0  0999 V2000
    2.3419   -0.2494    0.0000 O   0  0  0  0  0  0  0  0  0  0  0  0
   -1.8569   -0.4018    0.0000 O   0  0  0  0  0  0  0  0  0  0  0  0
    2.4250    1.2333    0.0000 O   0  0  0  0  0  0  0  0  0  0  0  0
   -3.1733   -2.4943    0.0000 O   0  0  0  0  0  0  0  0  0  0  0  0
    2.4528   -2.8823    0.0000 O   0  0  0  0  0  0  0  0  0  0  0  0
    3.1733   -1.6490    0.0000 O   0  0  0  0  0  0  0  0  0  0  0  0
    1.2056    0.4296    0.0000 N   0  0  0  0  0  0  0  0  0  0  0  0
    1.0116   -2.0648    0.0000 N   0  0  0  0  0  0  0  0  0  0  0  0
   -2.6883   -3.1733    0.0000 N   0  0  0  0  0  0  0  0  0  0  0  0
    1.0255   -0.4434    0.0000 C   0  0  0  0  0  0  0  0  0  0  0  0
    0.3187   -0.8591    0.0000 C   0  0  0  0  0  0  0  0  0  0  0  0
    1.7599   -0.8591    0.0000 C   0  0  0  0  0  0  0  0  0  0  0  0
    0.3049   -1.6629    0.0000 C   0  0  0  0  0  0  0  0  0  0  0  0
    1.7460   -1.6906    0.0000 C   0  0  0  0  0  0  0  0  0  0  0  0
    2.0231    0.4573    0.0000 C   0  0  0  0  0  0  0  0  0  0  0  0
   -1.1224   -1.6906    0.0000 C   0  0  0  0  0  0  0  0  0  0  0  0
   -0.4018   -0.4573    0.0000 C   0  0  0  0  0  0  0  0  0  0  0  0
   -1.1086   -0.8591    0.0000 C   0  0  0  0  0  0  0  0  0  0  0  0
   -0.4018   -2.0786    0.0000 C   0  0  0  0  0  0  0  0  0  0  0  0
   -1.8430   -2.1063    0.0000 C   0  0  0  0  0  0  0  0  0  0  0  0
    2.4666   -2.0648    0.0000 C   0  0  0  0  0  0  0  0  0  0  0  0
    0.6375    0.9700    0.0000 C   0  0  0  0  0  0  0  0  0  0  0  0
   -2.6606   -1.8291    0.0000 C   0  0  0  0  0  0  0  0  0  0  0  0
   -1.8569   -2.9377    0.0000 C   0  0  0  0  0  0  0  0  0  0  0  0
    0.8453    1.7876    0.0000 C   0  0  0  0  0  0  0  0  0  0  0  0
   -2.8546   -1.0393    0.0000 C   0  0  0  0  0  0  0  0  0  0  0  0
   -1.1086   -3.3673    0.0000 C   0  0  0  0  0  0  0  0  0  0  0  0
    0.2633    2.3557    0.0000 C   0  0  0  0  0  0  0  0  0  0  0  0
    1.6490    2.0093    0.0000 C   0  0  0  0  0  0  0  0  0  0  0  0
   -2.5636   -0.8453    0.0000 C   0  0  0  0  0  0  0  0  0  0  0  0
    0.4850    3.1733    0.0000 C   0  0  0  0  0  0  0  0  0  0  0  0
    1.8430    2.7992    0.0000 C   0  0  0  0  0  0  0  0  0  0  0  0
    1.2749    3.3673    0.0000 C   0  0  0  0  0  0  0  0  0  0  0  0
  1 12  1  0  0  0  0
  1 15  1  0  0  0  0
  2 18  1  0  0  0  0
  2 30  1  0  0  0  0
  3 15  2  0  0  0  0
  4  9  1  0  0  0  0
  4 23  1  0  0  0  0
  5 21  2  0  0  0  0
  6 21  1  0  0  0  0
  7 10  1  0  0  0  0
  7 15  1  0  0  0  0
  7 22  1  0  0  0  0
  8 13  1  0  0  0  0
  8 14  2  0  0  0  0
  9 24  2  0  0  0  0
 10 11  1  0  0  0  0
 10 12  2  0  0  0  0
 11 13  2  0  0  0  0
 11 17  1  0  0  0  0
 12 14  1  0  0  0  0
 13 19  1  0  0  0  0
 14 21  1  0  0  0  0
 16 18  1  0  0  0  0
 16 19  2  0  0  0  0
 16 20  1  0  0  0  0
 17 18  2  0  0  0  0
 20 23  2  0  0  0  0
 20 24  1  0  0  0  0
 22 25  1  0  0  0  0
 23 26  1  0  0  0  0
 24 27  1  0  0  0  0
 25 28  2  0  0  0  0
 25 29  1  0  0  0  0
 28 31  1  0  0  0  0
 29 32  2  0  0  0  0
 31 33  2  0  0  0  0
 32 33  1  0  0  0  0
M  END
> <PUBCHEM_COMPOUND_ID_TYPE>
0

> <PUBCHEM_TOTAL_CHARGE>
0

> <PUBCHEM_SUBSTANCE_ID>
310940576

> <PUBCHEM_SUBSTANCE_VERSION>
1

> <PUBCHEM_EXT_DATASOURCE_NAME>
4488

> <PUBCHEM_EXT_DATASOURCE_REGID>
SCHEMBL16118530

> <PUBCHEM_SUBSTANCE_COMMENT>
InChI=1S/C24H19N3O6/c1-12-19(13(2)33-26-12)16-9-17-15(10-18(16)31-3)21-22(20(25-17)23(28)29)32-24(30)27(21)11-14-7-5-4-6-8-14/h4-10H,11H2,1-3H3,(H,28,29)
InChIKey=GHZBPTUCHRPONX-UHFFFAOYSA-N

> <PUBCHEM_SUBSTANCE_SYNONYM>
SCHEMBL16118530

> <PUBCHEM_XREF_EXT_ID>
SCHEMBL16118530

> <PUBCHEM_EXT_DATASOURCE_URL>
https://www.surechembl.org/

> <PUBCHEM_EXT_SUBSTANCE_URL>
https://www.surechembl.org/chemical/SCHEMBL16118530

> <PUBCHEM_CID_ASSOCIATIONS>
86302952  1

> <PUBCHEM_COORDINATE_TYPE>
1
3

$$$$
