310941288
  -OEChem-07211613022D

 26 28  0     1  0  0  0  0  0999 V2000
    0.0316    2.9957    0.0000 F   0  0  0  0  0  0  0  0  0  0  0  0
    1.1080    2.5137    0.0000 F   0  0  0  0  0  0  0  0  0  0  0  0
    0.8670    0.3769    0.0000 O   0  0  0  0  0  0  0  0  0  0  0  0
   -0.5789   -1.2941    0.0000 O   0  0  0  0  0  0  0  0  0  0  0  0
   -0.8338   -1.7451    0.0000 O   0  0  0  0  0  0  0  0  0  0  0  0
   -1.5128   -0.6254    0.0000 O   0  0  0  0  0  0  0  0  0  0  0  0
   -2.0250   -0.4586    0.0000 N   0  0  0  0  0  0  0  0  0  0  0  0
    0.1601   -0.0409    0.0000 C   0  0  3  0  0  0  0  0  0  0  0  0
   -0.5789   -0.4265    0.0000 C   0  0  0  0  0  0  0  0  0  0  0  0
    0.8670   -0.4425    0.0000 C   0  0  0  0  0  0  0  0  0  0  0  0
   -1.3020   -0.0409    0.0000 C   0  0  3  0  0  0  0  0  0  0  0  0
   -1.2859    0.7946    0.0000 C   0  0  0  0  0  0  0  0  0  0  0  0
   -0.5789    1.2124    0.0000 C   0  0  3  0  0  0  0  0  0  0  0  0
   -0.4344    0.5536    0.0000 C   0  0  0  0  0  0  0  0  0  0  0  0
    0.3368    2.2085    0.0000 C   0  0  0  0  0  0  0  0  0  0  0  0
   -0.4825    2.0317    0.0000 C   0  0  0  0  0  0  0  0  0  0  0  0
    0.2083    0.8910    0.0000 C   0  0  0  0  0  0  0  0  0  0  0  0
    0.7385    1.4855    0.0000 C   0  0  0  0  0  0  0  0  0  0  0  0
   -1.5009   -1.3400    0.0000 C   0  0  0  0  0  0  0  0  0  0  0  0
   -0.0834   -1.3162    0.0000 C   0  0  0  0  0  0  0  0  0  0  0  0
    0.6075   -1.7689    0.0000 C   0  0  0  0  0  0  0  0  0  0  0  0
    0.6075   -2.5907    0.0000 C   0  0  0  0  0  0  0  0  0  0  0  0
    1.3103   -1.3520    0.0000 C   0  0  0  0  0  0  0  0  0  0  0  0
    1.3103   -2.9957    0.0000 C   0  0  0  0  0  0  0  0  0  0  0  0
    2.0250   -1.7569    0.0000 C   0  0  0  0  0  0  0  0  0  0  0  0
    2.0250   -2.5788    0.0000 C   0  0  0  0  0  0  0  0  0  0  0  0
  1 15  1  0  0  0  0
  2 15  1  0  0  0  0
  3  8  1  0  0  0  0
  3 10  1  0  0  0  0
  4  9  2  0  0  0  0
  5 19  1  0  0  0  0
  5 20  1  0  0  0  0
  6 19  2  0  0  0  0
 11  7  1  1  0  0  0
  7 19  1  0  0  0  0
  8  9  1  6  0  0  0
  8 10  1  0  0  0  0
  8 14  1  1  0  0  0
  9 11  1  0  0  0  0
 11 12  1  0  0  0  0
 12 13  1  0  0  0  0
 13 16  1  0  0  0  0
 13 17  1  0  0  0  0
 15 16  1  0  0  0  0
 15 18  1  0  0  0  0
 17 18  1  0  0  0  0
 20 21  1  0  0  0  0
 21 22  2  0  0  0  0
 21 23  1  0  0  0  0
 22 24  1  0  0  0  0
 23 25  2  0  0  0  0
 24 26  2  0  0  0  0
 25 26  1  0  0  0  0
M  END
> <PUBCHEM_COMPOUND_ID_TYPE>
0

> <PUBCHEM_TOTAL_CHARGE>
0

> <PUBCHEM_SUBSTANCE_ID>
310941288

> <PUBCHEM_SUBSTANCE_VERSION>
1

> <PUBCHEM_EXT_DATASOURCE_NAME>
4488

> <PUBCHEM_EXT_DATASOURCE_REGID>
SCHEMBL16119248

> <PUBCHEM_SUBSTANCE_COMMENT>
InChI=1S/C19H23F2NO4/c1-18(12-26-18)16(23)15(9-14-7-8-19(20,21)10-14)22-17(24)25-11-13-5-3-2-4-6-13/h2-6,14-15H,7-12H2,1H3,(H,22,24)/t14?,15-,18+/m0/s1
InChIKey=IMKALWCSZVTFSQ-JGNLYWJMSA-N

> <PUBCHEM_SUBSTANCE_SYNONYM>
SCHEMBL16119248

> <PUBCHEM_XREF_EXT_ID>
SCHEMBL16119248

> <PUBCHEM_EXT_DATASOURCE_URL>
https://www.surechembl.org/

> <PUBCHEM_EXT_SUBSTANCE_URL>
https://www.surechembl.org/chemical/SCHEMBL16119248

> <PUBCHEM_CID_ASSOCIATIONS>
117608137  1

> <PUBCHEM_COORDINATE_TYPE>
1
3

> <PUBCHEM_BONDANNOTATIONS>
11  7  5
8  14  5
8  9  6

$$$$
