310939553
  -OEChem-07211613022D

 22 22  0     1  0  0  0  0  0999 V2000
   -0.3183   13.4887    0.0000 S   0  0  0  0  0  0  0  0  0  0  0  0
   -0.4054   10.4836    0.0000 O   0  0  0  0  0  0  0  0  0  0  0  0
    0.2220   11.5703    0.0000 O   0  0  0  0  0  0  0  0  0  0  0  0
   -4.6052   10.2335    0.0000 O   0  5  0  0  0  0  0  0  0  0  0  0
   -5.3196   11.4710    0.0000 O   0  0  0  0  0  0  0  0  0  0  0  0
   -1.0328   11.5703    0.0000 N   0  0  0  0  0  0  0  0  0  0  0  0
   -4.6052   11.0585    0.0000 N   0  3  0  0  0  0  0  0  0  0  0  0
    0.3961   12.2960    0.0000 N   0  0  0  0  0  0  0  0  0  0  0  0
   -1.0328   12.2960    0.0000 C   0  0  3  0  0  0  0  0  0  0  0  0
   -2.4617   12.2960    0.0000 C   0  0  0  0  0  0  0  0  0  0  0  0
   -1.7473   12.7085    0.0000 C   0  0  0  0  0  0  0  0  0  0  0  0
   -3.8907   11.4710    0.0000 C   0  0  0  0  0  0  0  0  0  0  0  0
   -0.4054   11.2080    0.0000 C   0  0  0  0  0  0  0  0  0  0  0  0
   -0.3183   12.7085    0.0000 C   0  0  3  0  0  0  0  0  0  0  0  0
   -3.1762   12.7085    0.0000 C   0  0  0  0  0  0  0  0  0  0  0  0
   -2.4617   11.4710    0.0000 C   0  0  0  0  0  0  0  0  0  0  0  0
    0.2220   10.1214    0.0000 C   0  0  0  0  0  0  0  0  0  0  0  0
   -3.8907   12.2960    0.0000 C   0  0  0  0  0  0  0  0  0  0  0  0
   -3.1762   11.0585    0.0000 C   0  0  0  0  0  0  0  0  0  0  0  0
    0.0085    9.3245    0.0000 C   0  0  0  0  0  0  0  0  0  0  0  0
    1.0189   10.3349    0.0000 C   0  0  0  0  0  0  0  0  0  0  0  0
    0.8054    9.5380    0.0000 C   0  0  0  0  0  0  0  0  0  0  0  0
  1 14  1  0  0  0  0
  2 13  1  0  0  0  0
  2 17  1  0  0  0  0
  3 13  2  0  0  0  0
  4  7  1  0  0  0  0
  5  7  2  0  0  0  0
  9  6  1  1  0  0  0
  6 13  1  0  0  0  0
  7 12  1  0  0  0  0
  8 14  1  0  0  0  0
  9 11  1  0  0  0  0
  9 14  1  0  0  0  0
 10 11  1  0  0  0  0
 10 15  2  0  0  0  0
 10 16  1  0  0  0  0
 12 18  2  0  0  0  0
 12 19  1  0  0  0  0
 15 18  1  0  0  0  0
 16 19  2  0  0  0  0
 17 20  1  0  0  0  0
 17 21  1  0  0  0  0
 17 22  1  0  0  0  0
M  CHG  2   4  -1   7   1
M  END
> <PUBCHEM_COMPOUND_ID_TYPE>
0

> <PUBCHEM_TOTAL_CHARGE>
0

> <PUBCHEM_SUBSTANCE_ID>
310939553

> <PUBCHEM_SUBSTANCE_VERSION>
1

> <PUBCHEM_EXT_DATASOURCE_NAME>
4488

> <PUBCHEM_EXT_DATASOURCE_REGID>
SCHEMBL16117482

> <PUBCHEM_SUBSTANCE_COMMENT>
InChI=1S/C14H21N3O4S/c1-14(2,3)21-13(18)16-11(12(15)22)8-9-4-6-10(7-5-9)17(19)20/h4-7,11-12,22H,8,15H2,1-3H3,(H,16,18)/t11-,12?/m0/s1
InChIKey=JGYITVNNZAFSOY-PXYINDEMSA-N

> <PUBCHEM_SUBSTANCE_SYNONYM>
SCHEMBL16117482

> <PUBCHEM_XREF_EXT_ID>
SCHEMBL16117482

> <PUBCHEM_EXT_DATASOURCE_URL>
https://www.surechembl.org/

> <PUBCHEM_EXT_SUBSTANCE_URL>
https://www.surechembl.org/chemical/SCHEMBL16117482

> <PUBCHEM_CID_ASSOCIATIONS>
117606850  1

> <PUBCHEM_COORDINATE_TYPE>
1
3

> <PUBCHEM_BONDANNOTATIONS>
9  6  5

$$$$
