310944704
  -OEChem-07211613022D

 35 37  0     0  0  0  0  0  0999 V2000
   -4.3705   -1.0324    0.0000 Cl  0  0  0  0  0  0  0  0  0  0  0  0
   -3.4804    1.8483    0.0000 Cl  0  0  0  0  0  0  0  0  0  0  0  0
   -6.5095    0.2040    0.0000 Cl  0  0  0  0  0  0  0  0  0  0  0  0
   -1.3538   -1.0324    0.0000 O   0  0  0  0  0  0  0  0  0  0  0  0
    0.0680    1.4404    0.0000 O   0  0  0  0  0  0  0  0  0  0  0  0
    2.9240   -1.8483    0.0000 O   0  0  0  0  0  0  0  0  0  0  0  0
   -1.3415    0.6243    0.0000 N   0  0  0  0  0  0  0  0  0  0  0  0
    0.8098    0.2040    0.0000 N   0  0  0  0  0  0  0  0  0  0  0  0
    2.2317   -0.6120    0.0000 N   0  0  0  0  0  0  0  0  0  0  0  0
    5.8047   -1.0324    0.0000 N   0  0  0  0  0  0  0  0  0  0  0  0
   -3.4804    0.2164    0.0000 C   0  0  0  0  0  0  0  0  0  0  0  0
   -4.2099    0.6243    0.0000 C   0  0  0  0  0  0  0  0  0  0  0  0
   -3.4804   -0.6120    0.0000 C   0  0  0  0  0  0  0  0  0  0  0  0
   -2.0585    0.2164    0.0000 C   0  0  0  0  0  0  0  0  0  0  0  0
   -2.7757    0.6120    0.0000 C   0  0  0  0  0  0  0  0  0  0  0  0
   -2.0585   -0.6120    0.0000 C   0  0  0  0  0  0  0  0  0  0  0  0
   -4.1975    1.4528    0.0000 C   0  0  0  0  0  0  0  0  0  0  0  0
   -2.7633   -1.0200    0.0000 C   0  0  0  0  0  0  0  0  0  0  0  0
   -4.9022    0.2164    0.0000 C   0  0  0  0  0  0  0  0  0  0  0  0
   -5.6317    0.6243    0.0000 C   0  0  0  0  0  0  0  0  0  0  0  0
   -4.9022    1.8483    0.0000 C   0  0  0  0  0  0  0  0  0  0  0  0
    0.0803    0.6120    0.0000 C   0  0  0  0  0  0  0  0  0  0  0  0
   -0.6120    0.2164    0.0000 C   0  0  0  0  0  0  0  0  0  0  0  0
   -5.6193    1.4404    0.0000 C   0  0  0  0  0  0  0  0  0  0  0  0
    1.5145    0.6243    0.0000 C   0  0  0  0  0  0  0  0  0  0  0  0
    0.7975   -0.6120    0.0000 C   0  0  0  0  0  0  0  0  0  0  0  0
    2.2317    0.2040    0.0000 C   0  0  0  0  0  0  0  0  0  0  0  0
    1.5269   -1.0200    0.0000 C   0  0  0  0  0  0  0  0  0  0  0  0
    2.9364   -1.0077    0.0000 C   0  0  0  0  0  0  0  0  0  0  0  0
   -1.3415   -1.8483    0.0000 C   0  0  0  0  0  0  0  0  0  0  0  0
    3.6040   -0.6491    0.0000 C   0  0  0  0  0  0  0  0  0  0  0  0
    4.3953   -1.0077    0.0000 C   0  0  0  0  0  0  0  0  0  0  0  0
    5.0753   -0.6120    0.0000 C   0  0  0  0  0  0  0  0  0  0  0  0
    6.5095   -0.6120    0.0000 C   0  0  0  0  0  0  0  0  0  0  0  0
    5.7924   -1.8483    0.0000 C   0  0  0  0  0  0  0  0  0  0  0  0
  1 13  1  0  0  0  0
  2 17  1  0  0  0  0
  3 20  1  0  0  0  0
  4 16  1  0  0  0  0
  4 30  1  0  0  0  0
  5 22  2  0  0  0  0
  6 29  2  0  0  0  0
  7 14  1  0  0  0  0
  7 23  1  0  0  0  0
  8 22  1  0  0  0  0
  8 25  1  0  0  0  0
  8 26  1  0  0  0  0
  9 27  1  0  0  0  0
  9 28  1  0  0  0  0
  9 29  1  0  0  0  0
 10 33  1  0  0  0  0
 10 34  1  0  0  0  0
 10 35  1  0  0  0  0
 11 12  1  0  0  0  0
 11 13  2  0  0  0  0
 11 15  1  0  0  0  0
 12 17  1  0  0  0  0
 12 19  2  0  0  0  0
 13 18  1  0  0  0  0
 14 15  2  0  0  0  0
 14 16  1  0  0  0  0
 16 18  2  0  0  0  0
 17 21  2  0  0  0  0
 19 20  1  0  0  0  0
 20 24  2  0  0  0  0
 21 24  1  0  0  0  0
 22 23  1  0  0  0  0
 25 27  1  0  0  0  0
 26 28  1  0  0  0  0
 29 31  1  0  0  0  0
 31 32  2  0  0  0  0
 32 33  1  0  0  0  0
M  END
> <PUBCHEM_COMPOUND_ID_TYPE>
0

> <PUBCHEM_TOTAL_CHARGE>
0

> <PUBCHEM_SUBSTANCE_ID>
310944704

> <PUBCHEM_SUBSTANCE_VERSION>
1

> <PUBCHEM_EXT_DATASOURCE_NAME>
4488

> <PUBCHEM_EXT_DATASOURCE_REGID>
SCHEMBL16122783

> <PUBCHEM_SUBSTANCE_COMMENT>
InChI=1S/C25H29Cl3N4O3/c1-30(2)8-4-5-24(33)31-9-11-32(12-10-31)25(34)16-29-22-14-19(21(28)15-23(22)35-3)18-13-17(26)6-7-20(18)27/h4-7,13-15,29H,8-12,16H2,1-3H3/b5-4+
InChIKey=ISDHJYWPYHPWMJ-SNAWJCMRSA-N

> <PUBCHEM_SUBSTANCE_SYNONYM>
SCHEMBL16122783

> <PUBCHEM_XREF_EXT_ID>
SCHEMBL16122783

> <PUBCHEM_EXT_DATASOURCE_URL>
https://www.surechembl.org/

> <PUBCHEM_EXT_SUBSTANCE_URL>
https://www.surechembl.org/chemical/SCHEMBL16122783

> <PUBCHEM_CID_ASSOCIATIONS>
117610927  1

> <PUBCHEM_COORDINATE_TYPE>
1
3

$$$$
