310947913
  -OEChem-07211613022D

 37 41  0     0  0  0  0  0  0999 V2000
    3.2151   -0.2062    0.0000 S   0  0  0  0  0  0  0  0  0  0  0  0
    3.6276    0.5082    0.0000 O   0  0  0  0  0  0  0  0  0  0  0  0
    2.8026    0.5082    0.0000 O   0  0  0  0  0  0  0  0  0  0  0  0
   -2.5006   -1.0313    0.0000 O   0  0  0  0  0  0  0  0  0  0  0  0
   -0.3572    1.8563    0.0000 O   0  0  0  0  0  0  0  0  0  0  0  0
   -6.0730   -0.6187    0.0000 O   0  0  0  0  0  0  0  0  0  0  0  0
    2.5006   -0.6187    0.0000 N   0  0  0  0  0  0  0  0  0  0  0  0
   -1.0717    0.6187    0.0000 N   0  0  0  0  0  0  0  0  0  0  0  0
    4.6441    0.6187    0.0000 N   0  0  0  0  0  0  0  0  0  0  0  0
    3.9296   -0.6187    0.0000 C   0  0  0  0  0  0  0  0  0  0  0  0
    4.6441   -0.2062    0.0000 C   0  0  0  0  0  0  0  0  0  0  0  0
   -2.5006   -0.2062    0.0000 C   0  0  0  0  0  0  0  0  0  0  0  0
    5.3585   -0.6187    0.0000 C   0  0  0  0  0  0  0  0  0  0  0  0
   -3.2151   -0.6187    0.0000 C   0  0  0  0  0  0  0  0  0  0  0  0
    1.7862   -0.2062    0.0000 C   0  0  0  0  0  0  0  0  0  0  0  0
    3.9296   -1.4437    0.0000 C   0  0  0  0  0  0  0  0  0  0  0  0
   -0.3572    1.0313    0.0000 C   0  0  0  0  0  0  0  0  0  0  0  0
   -2.5006    0.6187    0.0000 C   0  0  0  0  0  0  0  0  0  0  0  0
   -1.7862   -0.6187    0.0000 C   0  0  0  0  0  0  0  0  0  0  0  0
    0.3572    0.6187    0.0000 C   0  0  0  0  0  0  0  0  0  0  0  0
   -1.0717   -0.2062    0.0000 C   0  0  0  0  0  0  0  0  0  0  0  0
   -1.7862    1.0313    0.0000 C   0  0  0  0  0  0  0  0  0  0  0  0
    5.3585   -1.4437    0.0000 C   0  0  0  0  0  0  0  0  0  0  0  0
    4.6441   -1.8563    0.0000 C   0  0  0  0  0  0  0  0  0  0  0  0
    6.0730   -0.2062    0.0000 C   0  0  0  0  0  0  0  0  0  0  0  0
   -3.9296   -0.2062    0.0000 C   0  0  0  0  0  0  0  0  0  0  0  0
    1.0717   -0.6187    0.0000 C   0  0  0  0  0  0  0  0  0  0  0  0
    1.7862    0.6187    0.0000 C   0  0  0  0  0  0  0  0  0  0  0  0
    0.3572   -0.2062    0.0000 C   0  0  0  0  0  0  0  0  0  0  0  0
    1.0717    1.0313    0.0000 C   0  0  0  0  0  0  0  0  0  0  0  0
   -3.2151   -1.4437    0.0000 C   0  0  0  0  0  0  0  0  0  0  0  0
   -4.6441   -0.6187    0.0000 C   0  0  0  0  0  0  0  0  0  0  0  0
    5.3585    1.0313    0.0000 C   0  0  0  0  0  0  0  0  0  0  0  0
    6.0730    0.6187    0.0000 C   0  0  0  0  0  0  0  0  0  0  0  0
   -3.9296   -1.8563    0.0000 C   0  0  0  0  0  0  0  0  0  0  0  0
   -4.6441   -1.4437    0.0000 C   0  0  0  0  0  0  0  0  0  0  0  0
   -5.3585   -0.2062    0.0000 C   0  0  0  0  0  0  0  0  0  0  0  0
  1  2  2  0  0  0  0
  1  3  2  0  0  0  0
  1  7  1  0  0  0  0
  1 10  1  0  0  0  0
  4 12  1  0  0  0  0
  5 17  2  0  0  0  0
  6 37  1  0  0  0  0
  7 15  1  0  0  0  0
  8 17  1  0  0  0  0
  8 21  1  0  0  0  0
  8 22  1  0  0  0  0
  9 11  1  0  0  0  0
  9 33  2  0  0  0  0
 10 11  1  0  0  0  0
 10 16  2  0  0  0  0
 11 13  2  0  0  0  0
 12 14  1  0  0  0  0
 12 18  1  0  0  0  0
 12 19  1  0  0  0  0
 13 23  1  0  0  0  0
 13 25  1  0  0  0  0
 14 26  2  0  0  0  0
 14 31  1  0  0  0  0
 15 27  2  0  0  0  0
 15 28  1  0  0  0  0
 16 24  1  0  0  0  0
 17 20  1  0  0  0  0
 18 22  1  0  0  0  0
 19 21  1  0  0  0  0
 20 29  2  0  0  0  0
 20 30  1  0  0  0  0
 23 24  2  0  0  0  0
 25 34  2  0  0  0  0
 26 32  1  0  0  0  0
 27 29  1  0  0  0  0
 28 30  2  0  0  0  0
 31 35  2  0  0  0  0
 32 36  2  0  0  0  0
 32 37  1  0  0  0  0
 33 34  1  0  0  0  0
 35 36  1  0  0  0  0
M  END
> <PUBCHEM_COMPOUND_ID_TYPE>
0

> <PUBCHEM_TOTAL_CHARGE>
0

> <PUBCHEM_SUBSTANCE_ID>
310947913

> <PUBCHEM_SUBSTANCE_VERSION>
1

> <PUBCHEM_EXT_DATASOURCE_NAME>
4488

> <PUBCHEM_EXT_DATASOURCE_REGID>
SCHEMBL16126087

> <PUBCHEM_SUBSTANCE_COMMENT>
InChI=1S/C28H27N3O5S/c32-19-20-4-1-7-23(18-20)28(34)13-16-31(17-14-28)27(33)22-9-11-24(12-10-22)30-37(35,36)25-8-2-5-21-6-3-15-29-26(21)25/h1-12,15,18,30,32,34H,13-14,16-17,19H2
InChIKey=NTEUXUJOTIVNJA-UHFFFAOYSA-N

> <PUBCHEM_SUBSTANCE_SYNONYM>
SCHEMBL16126087

> <PUBCHEM_XREF_EXT_ID>
SCHEMBL16126087

> <PUBCHEM_EXT_DATASOURCE_URL>
https://www.surechembl.org/

> <PUBCHEM_EXT_SUBSTANCE_URL>
https://www.surechembl.org/chemical/SCHEMBL16126087

> <PUBCHEM_CID_ASSOCIATIONS>
117613575  1

> <PUBCHEM_COORDINATE_TYPE>
1
3

$$$$
