310942211
  -OEChem-07211613022D

 30 32  0     1  0  0  0  0  0999 V2000
    3.2953   -1.0777    0.0000 Cl  0  0  0  0  0  0  0  0  0  0  0  0
    0.5170   -0.3301    0.0000 F   0  0  0  0  0  0  0  0  0  0  0  0
    2.0993    0.0934    0.0000 O   0  0  0  0  0  0  0  0  0  0  0  0
   -3.2953   -0.6042    0.0000 O   0  0  0  0  0  0  0  0  0  0  0  0
   -0.0934    2.5603    0.0000 N   0  0  0  0  0  0  0  0  0  0  0  0
   -0.5046   -1.3518    0.0000 N   0  0  0  0  0  0  0  0  0  0  0  0
   -2.9091   -1.9872    0.0000 N   0  0  0  0  0  0  0  0  0  0  0  0
    1.1525    2.0744    0.0000 C   0  0  0  0  0  0  0  0  0  0  0  0
    1.2147    2.9091    0.0000 C   0  0  0  0  0  0  0  0  0  0  0  0
    0.3551    1.8626    0.0000 C   0  0  0  0  0  0  0  0  0  0  0  0
    1.8999   -0.7039    0.0000 C   0  0  0  0  0  0  0  0  0  0  0  0
    1.5262    0.6915    0.0000 C   0  0  0  0  0  0  0  0  0  0  0  0
    1.1026   -0.9157    0.0000 C   0  0  0  0  0  0  0  0  0  0  0  0
    1.7380    1.4888    0.0000 C   0  0  0  0  0  0  0  0  0  0  0  0
    0.8908   -1.7255    0.0000 C   0  0  0  0  0  0  0  0  0  0  0  0
    0.4298    3.2081    0.0000 C   0  0  0  0  0  0  0  0  0  0  0  0
    2.4855   -1.2646    0.0000 C   0  0  0  0  0  0  0  0  0  0  0  0
    0.1558    1.0652    0.0000 C   0  0  0  0  0  0  0  0  0  0  0  0
    0.7288    0.4797    0.0000 C   0  0  0  0  0  0  0  0  0  0  0  0
    0.1059   -1.9248    0.0000 C   0  0  3  0  0  0  0  0  0  0  0  0
    1.4639   -2.2986    0.0000 C   0  0  0  0  0  0  0  0  0  0  0  0
    2.2737   -2.0868    0.0000 C   0  0  0  0  0  0  0  0  0  0  0  0
    1.9248    3.3203    0.0000 C   0  0  0  0  0  0  0  0  0  0  0  0
    1.9248    2.4980    0.0000 C   0  0  0  0  0  0  0  0  0  0  0  0
   -0.1183   -2.7472    0.0000 C   0  0  0  0  0  0  0  0  0  0  0  0
   -1.2895   -1.5636    0.0000 C   0  0  3  0  0  0  0  0  0  0  0  0
   -1.9124   -0.9780    0.0000 C   0  0  0  0  0  0  0  0  0  0  0  0
    0.4548   -3.3203    0.0000 C   0  0  0  0  0  0  0  0  0  0  0  0
   -1.5137   -2.3485    0.0000 C   0  0  0  0  0  0  0  0  0  0  0  0
   -2.6724   -1.2023    0.0000 C   0  0  0  0  0  0  0  0  0  0  0  0
  1 17  1  0  0  0  0
  2 13  1  0  0  0  0
  3 11  1  0  0  0  0
  3 12  1  0  0  0  0
  4 30  2  0  0  0  0
  5 10  1  0  0  0  0
  5 16  1  0  0  0  0
 20  6  1  1  0  0  0
  6 26  1  0  0  0  0
  7 30  1  0  0  0  0
  8  9  1  0  0  0  0
  8 10  1  0  0  0  0
  8 14  2  0  0  0  0
  9 16  1  0  0  0  0
  9 23  1  0  0  0  0
  9 24  1  0  0  0  0
 10 18  2  0  0  0  0
 11 13  2  0  0  0  0
 11 17  1  0  0  0  0
 12 14  1  0  0  0  0
 12 19  2  0  0  0  0
 13 15  1  0  0  0  0
 15 20  1  0  0  0  0
 15 21  2  0  0  0  0
 17 22  2  0  0  0  0
 18 19  1  0  0  0  0
 20 25  1  0  0  0  0
 21 22  1  0  0  0  0
 25 28  1  0  0  0  0
 26 27  1  0  0  0  0
 26 29  1  6  0  0  0
 27 30  1  0  0  0  0
M  END
> <PUBCHEM_COMPOUND_ID_TYPE>
0

> <PUBCHEM_TOTAL_CHARGE>
0

> <PUBCHEM_SUBSTANCE_ID>
310942211

> <PUBCHEM_SUBSTANCE_VERSION>
1

> <PUBCHEM_EXT_DATASOURCE_NAME>
4488

> <PUBCHEM_EXT_DATASOURCE_REGID>
SCHEMBL16120246

> <PUBCHEM_SUBSTANCE_COMMENT>
InChI=1S/C23H29ClFN3O2/c1-5-18(28-13(2)10-20(26)29)15-7-8-17(24)22(21(15)25)30-14-6-9-19-16(11-14)23(3,4)12-27-19/h6-9,11,13,18,27-28H,5,10,12H2,1-4H3,(H2,26,29)/t13-,18-/m1/s1
InChIKey=FWEZABGIOBEMMT-FZKQIMNGSA-N

> <PUBCHEM_SUBSTANCE_SYNONYM>
SCHEMBL16120246

> <PUBCHEM_XREF_EXT_ID>
SCHEMBL16120246

> <PUBCHEM_EXT_DATASOURCE_URL>
https://www.surechembl.org/

> <PUBCHEM_EXT_SUBSTANCE_URL>
https://www.surechembl.org/chemical/SCHEMBL16120246

> <PUBCHEM_CID_ASSOCIATIONS>
117608862  1

> <PUBCHEM_COORDINATE_TYPE>
1
3

> <PUBCHEM_BONDANNOTATIONS>
26  29  6
20  6  5

$$$$
