310946701
  -OEChem-07211613022D

 42 46  0     0  0  0  0  0  0999 V2000
   -4.5925   -8.5446    0.0000 Cl  0  0  0  0  0  0  0  0  0  0  0  0
    2.2648   -5.8870    0.0000 S   0  0  0  0  0  0  0  0  0  0  0  0
    2.9942   -8.7657    0.0000 S   0  0  0  0  0  0  0  0  0  0  0  0
    0.1364   -6.2907    0.0000 O   0  0  0  0  0  0  0  0  0  0  0  0
    2.6772   -6.6013    0.0000 O   0  0  0  0  0  0  0  0  0  0  0  0
    1.8522   -5.1725    0.0000 O   0  0  0  0  0  0  0  0  0  0  0  0
    3.4067   -8.0512    0.0000 O   0  0  0  0  0  0  0  0  0  0  0  0
    2.5817   -9.4801    0.0000 O   0  0  0  0  0  0  0  0  0  0  0  0
    3.7085   -9.1782    0.0000 O   0  0  0  0  0  0  0  0  0  0  0  0
   -2.9426   -5.6868    0.0000 O   0  0  0  0  0  0  0  0  0  0  0  0
    1.5653   -6.2907    0.0000 N   0  0  0  0  0  0  0  0  0  0  0  0
   -1.2926   -7.1157    0.0000 N   0  0  0  0  0  0  0  0  0  0  0  0
   -2.1175   -7.1157    0.0000 N   0  0  0  0  0  0  0  0  0  0  0  0
    0.8509   -7.5282    0.0000 C   0  0  0  0  0  0  0  0  0  0  0  0
    1.5653   -7.1157    0.0000 C   0  0  0  0  0  0  0  0  0  0  0  0
    0.8509   -8.3532    0.0000 C   0  0  0  0  0  0  0  0  0  0  0  0
    0.1364   -7.1157    0.0000 C   0  0  0  0  0  0  0  0  0  0  0  0
    2.2798   -8.3532    0.0000 C   0  0  0  0  0  0  0  0  0  0  0  0
    2.2798   -7.5282    0.0000 C   0  0  0  0  0  0  0  0  0  0  0  0
    1.5653   -8.7657    0.0000 C   0  0  0  0  0  0  0  0  0  0  0  0
   -0.5781   -7.5282    0.0000 C   0  0  0  0  0  0  0  0  0  0  0  0
    0.1364   -8.7657    0.0000 C   0  0  0  0  0  0  0  0  0  0  0  0
   -0.5781   -8.3532    0.0000 C   0  0  0  0  0  0  0  0  0  0  0  0
    2.2648   -5.0793    0.0000 C   0  0  0  0  0  0  0  0  0  0  0  0
    2.9792   -4.6667    0.0000 C   0  0  0  0  0  0  0  0  0  0  0  0
    1.5503   -4.6667    0.0000 C   0  0  0  0  0  0  0  0  0  0  0  0
   -2.9426   -7.1157    0.0000 C   0  0  0  0  0  0  0  0  0  0  0  0
   -3.3550   -6.4013    0.0000 C   0  0  0  0  0  0  0  0  0  0  0  0
    2.9792   -3.8418    0.0000 C   0  0  0  0  0  0  0  0  0  0  0  0
    1.5503   -3.8418    0.0000 C   0  0  0  0  0  0  0  0  0  0  0  0
    2.2648   -3.4293    0.0000 C   0  0  0  0  0  0  0  0  0  0  0  0
   -3.3550   -7.8301    0.0000 C   0  0  0  0  0  0  0  0  0  0  0  0
   -4.1799   -7.8301    0.0000 C   0  0  0  0  0  0  0  0  0  0  0  0
   -4.1799   -6.4013    0.0000 C   0  0  0  0  0  0  0  0  0  0  0  0
   -4.5925   -7.1157    0.0000 C   0  0  0  0  0  0  0  0  0  0  0  0
   -3.3550   -4.9724    0.0000 C   0  0  0  0  0  0  0  0  0  0  0  0
    2.2648   -2.6043    0.0000 C   0  0  0  0  0  0  0  0  0  0  0  0
   -2.9426   -4.2580    0.0000 C   0  0  0  0  0  0  0  0  0  0  0  0
   -4.1799   -4.9724    0.0000 C   0  0  0  0  0  0  0  0  0  0  0  0
   -3.3550   -3.5435    0.0000 C   0  0  0  0  0  0  0  0  0  0  0  0
   -4.5925   -4.2580    0.0000 C   0  0  0  0  0  0  0  0  0  0  0  0
   -4.1799   -3.5435    0.0000 C   0  0  0  0  0  0  0  0  0  0  0  0
  1 33  1  0  0  0  0
  2  5  2  0  0  0  0
  2  6  2  0  0  0  0
  2 11  1  0  0  0  0
  2 24  1  0  0  0  0
  3  7  2  0  0  0  0
  3  8  2  0  0  0  0
  3  9  1  0  0  0  0
  3 18  1  0  0  0  0
  4 17  1  0  0  0  0
 10 28  1  0  0  0  0
 10 36  1  0  0  0  0
 11 15  1  0  0  0  0
 12 13  2  3  0  0  0
 12 21  1  0  0  0  0
 13 27  1  0  0  0  0
 14 15  1  0  0  0  0
 14 16  2  0  0  0  0
 14 17  1  0  0  0  0
 15 19  2  0  0  0  0
 16 20  1  0  0  0  0
 16 22  1  0  0  0  0
 17 21  2  0  0  0  0
 18 19  1  0  0  0  0
 18 20  2  0  0  0  0
 21 23  1  0  0  0  0
 22 23  2  0  0  0  0
 24 25  2  0  0  0  0
 24 26  1  0  0  0  0
 25 29  1  0  0  0  0
 26 30  2  0  0  0  0
 27 28  2  0  0  0  0
 27 32  1  0  0  0  0
 28 34  1  0  0  0  0
 29 31  2  0  0  0  0
 30 31  1  0  0  0  0
 31 37  1  0  0  0  0
 32 33  2  0  0  0  0
 33 35  1  0  0  0  0
 34 35  2  0  0  0  0
 36 38  2  0  0  0  0
 36 39  1  0  0  0  0
 38 40  1  0  0  0  0
 39 41  2  0  0  0  0
 40 42  2  0  0  0  0
 41 42  1  0  0  0  0
M  END
> <PUBCHEM_COMPOUND_ID_TYPE>
0

> <PUBCHEM_TOTAL_CHARGE>
0

> <PUBCHEM_SUBSTANCE_ID>
310946701

> <PUBCHEM_SUBSTANCE_VERSION>
1

> <PUBCHEM_EXT_DATASOURCE_NAME>
4488

> <PUBCHEM_EXT_DATASOURCE_REGID>
SCHEMBL16124825

> <PUBCHEM_SUBSTANCE_COMMENT>
InChI=1S/C29H22ClN3O7S2/c1-18-7-11-22(12-8-18)41(35,36)33-26-17-23(42(37,38)39)15-19-9-13-24(29(34)28(19)26)31-32-25-16-20(30)10-14-27(25)40-21-5-3-2-4-6-21/h2-17,33-34H,1H3,(H,37,38,39)
InChIKey=QIZGNNPKFVQJQB-UHFFFAOYSA-N

> <PUBCHEM_SUBSTANCE_SYNONYM>
SCHEMBL16124825

> <PUBCHEM_XREF_EXT_ID>
SCHEMBL16124825

> <PUBCHEM_EXT_DATASOURCE_URL>
https://www.surechembl.org/

> <PUBCHEM_EXT_SUBSTANCE_URL>
https://www.surechembl.org/chemical/SCHEMBL16124825

> <PUBCHEM_CID_ASSOCIATIONS>
117612592  1

> <PUBCHEM_COORDINATE_TYPE>
1
3

$$$$
