310929656
  -OEChem-07211613022D

 67 75  0     1  0  0  0  0  0999 V2000
    4.7830   -0.9198    0.0000 S   0  0  0  0  0  0  0  0  0  0  0  0
    4.4151   -2.5755    0.0000 O   0  0  0  0  0  0  0  0  0  0  0  0
    5.0283   -1.7170    0.0000 O   0  0  0  0  0  0  0  0  0  0  0  0
    4.5378   -0.1226    0.0000 O   0  0  0  0  0  0  0  0  0  0  0  0
    4.3538   -3.1887    0.0000 O   0  0  0  0  0  0  0  0  0  0  0  0
    5.4575   -5.5802    0.0000 O   0  0  0  0  0  0  0  0  0  0  0  0
    6.5000   -8.4623    0.0000 O   0  0  0  0  0  0  0  0  0  0  0  0
    1.5330   -4.0472    0.0000 O   0  0  0  0  0  0  0  0  0  0  0  0
    0.9198   -7.6651    0.0000 O   0  0  0  0  0  0  0  0  0  0  0  0
    6.1321   -8.7076    0.0000 O   0  0  0  0  0  0  0  0  0  0  0  0
    0.0000   -6.8066    0.0000 O   0  0  0  0  0  0  0  0  0  0  0  0
    3.1274  -11.4057    0.0000 O   0  0  0  0  0  0  0  0  0  0  0  0
    2.8821   -3.0661    0.0000 N   0  0  0  0  0  0  0  0  0  0  0  0
    3.9859   -1.1651    0.0000 N   0  0  0  0  0  0  0  0  0  0  0  0
    2.6981   -4.3538    0.0000 N   0  0  0  0  0  0  0  0  0  0  0  0
    6.5000   -5.9481    0.0000 N   0  0  0  0  0  0  0  0  0  0  0  0
    0.9198   -5.9481    0.0000 N   0  0  0  0  0  0  0  0  0  0  0  0
    4.4764   -9.7500    0.0000 N   0  0  0  0  0  0  0  0  0  0  0  0
    3.0047   -2.2075    0.0000 C   0  0  3  0  0  0  0  0  0  0  0  0
    2.2689   -1.8396    0.0000 C   0  0  3  0  0  0  0  0  0  0  0  0
    2.9434   -1.3490    0.0000 C   0  0  0  0  0  0  0  0  0  0  0  0
    3.8019   -1.9623    0.0000 C   0  0  0  0  0  0  0  0  0  0  0  0
    5.5802   -0.7358    0.0000 C   0  0  0  0  0  0  0  0  0  0  0  0
    3.5566   -3.5566    0.0000 C   0  0  0  0  0  0  0  0  0  0  0  0
    1.4717   -1.8396    0.0000 C   0  0  0  0  0  0  0  0  0  0  0  0
    6.1321   -0.1226    0.0000 C   0  0  0  0  0  0  0  0  0  0  0  0
    6.3773   -0.9198    0.0000 C   0  0  0  0  0  0  0  0  0  0  0  0
    3.4953   -4.3538    0.0000 C   0  0  3  0  0  0  0  0  0  0  0  0
    5.1510    0.0000    0.0000 C   0  0  0  0  0  0  0  0  0  0  0  0
    4.2925   -4.5378    0.0000 C   0  0  0  0  0  0  0  0  0  0  0  0
    4.9670   -4.9057    0.0000 C   0  0  3  0  0  0  0  0  0  0  0  0
    1.9623   -4.7217    0.0000 C   0  0  0  0  0  0  0  0  0  0  0  0
    4.0472   -3.9859    0.0000 C   0  0  0  0  0  0  0  0  0  0  0  0
    5.7028   -6.4387    0.0000 C   0  0  0  0  0  0  0  0  0  0  0  0
    6.5000   -7.6651    0.0000 C   0  0  0  0  0  0  0  0  0  0  0  0
    5.7028   -7.1745    0.0000 C   0  0  0  0  0  0  0  0  0  0  0  0
    1.3490   -5.2736    0.0000 C   0  0  3  0  0  0  0  0  0  0  0  0
    1.0424   -2.5755    0.0000 C   0  0  0  0  0  0  0  0  0  0  0  0
    7.1132   -7.1745    0.0000 C   0  0  0  0  0  0  0  0  0  0  0  0
    7.1132   -6.4387    0.0000 C   0  0  0  0  0  0  0  0  0  0  0  0
    0.6745   -4.7830    0.0000 C   0  0  0  0  0  0  0  0  0  0  0  0
    5.7641   -8.8915    0.0000 C   0  0  0  0  0  0  0  0  0  0  0  0
    4.7830   -8.4010    0.0000 C   0  0  3  0  0  0  0  0  0  0  0  0
    5.8255  -10.0566    0.0000 C   0  0  3  0  0  0  0  0  0  0  0  0
    5.4575   -8.0331    0.0000 C   0  0  0  0  0  0  0  0  0  0  0  0
    7.9104   -7.6651    0.0000 C   0  0  0  0  0  0  0  0  0  0  0  0
    7.9104   -5.9481    0.0000 C   0  0  0  0  0  0  0  0  0  0  0  0
    0.8585   -6.8066    0.0000 C   0  0  0  0  0  0  0  0  0  0  0  0
    5.0896  -10.1793    0.0000 C   0  0  0  0  0  0  0  0  0  0  0  0
    4.5378   -9.1368    0.0000 C   0  0  0  0  0  0  0  0  0  0  0  0
    8.6463   -7.1745    0.0000 C   0  0  0  0  0  0  0  0  0  0  0  0
    1.3490   -8.2784    0.0000 C   0  0  3  0  0  0  0  0  0  0  0  0
    5.5189   -8.2784    0.0000 C   0  0  0  0  0  0  0  0  0  0  0  0
    6.2547   -9.4434    0.0000 C   0  0  0  0  0  0  0  0  0  0  0  0
    8.6463   -6.4387    0.0000 C   0  0  0  0  0  0  0  0  0  0  0  0
    1.2264   -4.1085    0.0000 C   0  0  0  0  0  0  0  0  0  0  0  0
    0.0613   -4.2312    0.0000 C   0  0  0  0  0  0  0  0  0  0  0  0
    0.1840   -5.3962    0.0000 C   0  0  0  0  0  0  0  0  0  0  0  0
    1.9623   -8.8302    0.0000 C   0  0  3  0  0  0  0  0  0  0  0  0
    4.9670   -8.6463    0.0000 C   0  0  0  0  0  0  0  0  0  0  0  0
    1.1038   -9.1368    0.0000 C   0  0  0  0  0  0  0  0  0  0  0  0
    3.8019  -10.1793    0.0000 C   0  0  0  0  0  0  0  0  0  0  0  0
    2.6981   -9.2595    0.0000 C   0  0  0  0  0  0  0  0  0  0  0  0
    4.2925   -9.0142    0.0000 C   0  0  0  0  0  0  0  0  0  0  0  0
    3.4953   -9.2595    0.0000 C   0  0  0  0  0  0  0  0  0  0  0  0
    3.8019  -10.9764    0.0000 C   0  0  0  0  0  0  0  0  0  0  0  0
    3.1274  -12.2642    0.0000 C   0  0  0  0  0  0  0  0  0  0  0  0
  1  3  2  0  0  0  0
  1  4  2  0  0  0  0
  1 14  1  0  0  0  0
  1 23  1  0  0  0  0
  2 22  2  0  0  0  0
  5 24  2  0  0  0  0
  6 31  1  0  0  0  0
  6 34  1  0  0  0  0
  7 35  1  0  0  0  0
  7 42  1  0  0  0  0
  8 32  2  0  0  0  0
  9 48  1  0  0  0  0
  9 52  1  0  0  0  0
 10 53  1  0  0  0  0
 10 54  1  0  0  0  0
 11 48  2  0  0  0  0
 12 66  1  0  0  0  0
 12 67  1  0  0  0  0
 19 13  1  1  0  0  0
 13 24  1  0  0  0  0
 14 22  1  0  0  0  0
 15 28  1  0  0  0  0
 15 32  1  0  0  0  0
 15 33  1  0  0  0  0
 16 34  1  0  0  0  0
 16 40  2  0  0  0  0
 17 37  1  0  0  0  0
 17 48  1  0  0  0  0
 18 49  1  0  0  0  0
 18 50  1  0  0  0  0
 18 62  1  0  0  0  0
 19 20  1  0  0  0  0
 19 21  1  0  0  0  0
 19 22  1  6  0  0  0
 20 21  1  0  0  0  0
 20 25  1  6  0  0  0
 23 26  1  0  0  0  0
 23 27  1  0  0  0  0
 23 29  1  0  0  0  0
 28 24  1  6  0  0  0
 25 38  2  0  0  0  0
 26 27  1  0  0  0  0
 28 30  1  0  0  0  0
 31 30  1  1  0  0  0
 31 33  1  0  0  0  0
 32 37  1  0  0  0  0
 34 36  2  0  0  0  0
 35 36  1  0  0  0  0
 35 39  2  0  0  0  0
 36 45  1  0  0  0  0
 37 41  1  1  0  0  0
 39 40  1  0  0  0  0
 39 46  1  0  0  0  0
 40 47  1  0  0  0  0
 41 56  1  0  0  0  0
 41 57  1  0  0  0  0
 41 58  1  0  0  0  0
 42 43  1  0  0  0  0
 42 44  1  0  0  0  0
 43 50  1  0  0  0  0
 43 53  1  0  0  0  0
 44 49  1  0  0  0  0
 44 54  1  0  0  0  0
 45 60  1  0  0  0  0
 46 51  2  0  0  0  0
 47 55  2  0  0  0  0
 51 55  1  0  0  0  0
 52 59  1  0  0  0  0
 52 61  1  1  0  0  0
 59 61  1  6  0  0  0
 59 63  1  0  0  0  0
 60 64  1  0  0  0  0
 62 66  1  0  0  0  0
 63 65  1  0  0  0  0
 64 65  1  0  0  0  0
M  END
> <PUBCHEM_COMPOUND_ID_TYPE>
0

> <PUBCHEM_TOTAL_CHARGE>
0

> <PUBCHEM_SUBSTANCE_ID>
310929656

> <PUBCHEM_SUBSTANCE_VERSION>
1

> <PUBCHEM_EXT_DATASOURCE_NAME>
4488

> <PUBCHEM_EXT_DATASOURCE_REGID>
SCHEMBL16106847

> <PUBCHEM_SUBSTANCE_COMMENT>
InChI=1S/C49H68N6O11S/c1-7-32-23-49(32,45(58)53-67(60,61)48(5)17-18-48)52-42(56)37-22-33-26-55(37)44(57)41(47(2,3)4)51-46(59)65-38-21-29(38)13-9-8-10-15-35-40(34-14-11-12-16-36(34)50-43(35)64-33)66-39-30-24-54(19-20-62-6)25-31(39)28-63-27-30/h7,11-12,14,16,29-33,37-39,41H,1,8-10,13,15,17-28H2,2-6H3,(H,51,59)(H,52,56)(H,53,58)/t29-,30?,31?,32-,33-,37+,38-,39?,41-,49-/m1/s1
InChIKey=SSTJPWZDNCGSGA-UOQVYHCXSA-N

> <PUBCHEM_SUBSTANCE_SYNONYM>
SCHEMBL16106847

> <PUBCHEM_XREF_EXT_ID>
SCHEMBL16106847

> <PUBCHEM_EXT_DATASOURCE_URL>
https://www.surechembl.org/

> <PUBCHEM_EXT_SUBSTANCE_URL>
https://www.surechembl.org/chemical/SCHEMBL16106847

> <PUBCHEM_CID_ASSOCIATIONS>
117598955  1

> <PUBCHEM_COORDINATE_TYPE>
1
3

> <PUBCHEM_BONDANNOTATIONS>
19  13  5
19  22  6
20  25  6
28  24  6
31  30  5
37  41  5
52  61  5
59  61  6

$$$$
