310940505
  -OEChem-07211613022D

 32 36  0     0  0  0  0  0  0999 V2000
   -0.4286    2.5471    0.0000 F   0  0  0  0  0  0  0  0  0  0  0  0
   -0.1537    1.4636    0.0000 F   0  0  0  0  0  0  0  0  0  0  0  0
   -1.2533    1.2048    0.0000 F   0  0  0  0  0  0  0  0  0  0  0  0
   -3.0485   -1.7709    0.0000 O   0  0  0  0  0  0  0  0  0  0  0  0
   -0.2992   -2.0943    0.0000 N   0  0  0  0  0  0  0  0  0  0  0  0
   -1.5445   -2.6118    0.0000 N   0  0  0  0  0  0  0  0  0  0  0  0
   -2.3045   -0.5580    0.0000 N   0  0  0  0  0  0  0  0  0  0  0  0
    0.5418   -2.0943    0.0000 N   0  0  0  0  0  0  0  0  0  0  0  0
    1.7547   -2.8382    0.0000 N   0  0  0  0  0  0  0  0  0  0  0  0
   -1.6091   -1.7871    0.0000 C   0  0  0  0  0  0  0  0  0  0  0  0
   -0.7358   -2.7897    0.0000 C   0  0  0  0  0  0  0  0  0  0  0  0
   -2.3368   -1.3666    0.0000 C   0  0  0  0  0  0  0  0  0  0  0  0
   -0.8490   -1.4636    0.0000 C   0  0  0  0  0  0  0  0  0  0  0  0
   -2.2883    1.9164    0.0000 C   0  0  0  0  0  0  0  0  0  0  0  0
    0.9137   -2.8059    0.0000 C   0  0  0  0  0  0  0  0  0  0  0  0
   -1.5768    2.3368    0.0000 C   0  0  0  0  0  0  0  0  0  0  0  0
   -2.3045    1.1078    0.0000 C   0  0  0  0  0  0  0  0  0  0  0  0
   -0.3154   -3.5337    0.0000 C   0  0  0  0  0  0  0  0  0  0  0  0
   -0.8490    1.8841    0.0000 C   0  0  0  0  0  0  0  0  0  0  0  0
    0.5094   -3.5337    0.0000 C   0  0  0  0  0  0  0  0  0  0  0  0
   -1.5930   -0.1537    0.0000 C   0  0  0  0  0  0  0  0  0  0  0  0
   -3.0323   -0.1213    0.0000 C   0  0  0  0  0  0  0  0  0  0  0  0
   -1.5930    0.6712    0.0000 C   0  0  0  0  0  0  0  0  0  0  0  0
   -3.0161    0.6712    0.0000 C   0  0  0  0  0  0  0  0  0  0  0  0
   -2.9515    2.3207    0.0000 C   0  0  0  0  0  0  0  0  0  0  0  0
   -1.5607    3.1294    0.0000 C   0  0  0  0  0  0  0  0  0  0  0  0
    2.2722   -3.5013    0.0000 C   0  0  0  0  0  0  0  0  0  0  0  0
    2.2560   -2.1913    0.0000 C   0  0  0  0  0  0  0  0  0  0  0  0
   -2.9676    3.1456    0.0000 C   0  0  0  0  0  0  0  0  0  0  0  0
   -2.2883    3.5337    0.0000 C   0  0  0  0  0  0  0  0  0  0  0  0
    3.0323   -3.2749    0.0000 C   0  0  0  0  0  0  0  0  0  0  0  0
    3.0485   -2.4501    0.0000 C   0  0  0  0  0  0  0  0  0  0  0  0
  1 19  1  0  0  0  0
  2 19  1  0  0  0  0
  3 19  1  0  0  0  0
  4 12  2  0  0  0  0
  5  8  1  0  0  0  0
  5 11  1  0  0  0  0
  5 13  1  0  0  0  0
  6 10  1  0  0  0  0
  6 11  2  0  0  0  0
  7 12  1  0  0  0  0
  7 21  1  0  0  0  0
  7 22  1  0  0  0  0
  8 15  2  0  0  0  0
  9 15  1  0  0  0  0
  9 27  1  0  0  0  0
  9 28  1  0  0  0  0
 10 12  1  0  0  0  0
 10 13  2  0  0  0  0
 11 18  1  0  0  0  0
 14 16  2  0  0  0  0
 14 17  1  0  0  0  0
 14 25  1  0  0  0  0
 15 20  1  0  0  0  0
 16 19  1  0  0  0  0
 16 26  1  0  0  0  0
 17 23  1  0  0  0  0
 17 24  1  0  0  0  0
 18 20  2  0  0  0  0
 21 23  1  0  0  0  0
 22 24  1  0  0  0  0
 25 29  2  0  0  0  0
 26 30  2  0  0  0  0
 27 31  1  0  0  0  0
 28 32  1  0  0  0  0
 29 30  1  0  0  0  0
 31 32  1  0  0  0  0
M  END
> <PUBCHEM_COMPOUND_ID_TYPE>
0

> <PUBCHEM_TOTAL_CHARGE>
0

> <PUBCHEM_SUBSTANCE_ID>
310940505

> <PUBCHEM_SUBSTANCE_VERSION>
1

> <PUBCHEM_EXT_DATASOURCE_NAME>
4488

> <PUBCHEM_EXT_DATASOURCE_REGID>
SCHEMBL16118459

> <PUBCHEM_SUBSTANCE_COMMENT>
InChI=1S/C23H24F3N5O/c24-23(25,26)18-6-2-1-5-17(18)16-9-13-30(14-10-16)22(32)19-15-31-20(27-19)7-8-21(28-31)29-11-3-4-12-29/h1-2,5-8,15-16H,3-4,9-14H2
InChIKey=CAVXQULTHCBIBQ-UHFFFAOYSA-N

> <PUBCHEM_SUBSTANCE_SYNONYM>
SCHEMBL16118459

> <PUBCHEM_XREF_EXT_ID>
SCHEMBL16118459

> <PUBCHEM_EXT_DATASOURCE_URL>
https://www.surechembl.org/

> <PUBCHEM_EXT_SUBSTANCE_URL>
https://www.surechembl.org/chemical/SCHEMBL16118459

> <PUBCHEM_CID_ASSOCIATIONS>
117607520  1

> <PUBCHEM_COORDINATE_TYPE>
1
3

$$$$
