310943492
  -OEChem-07211613022D

 37 41  0     0  0  0  0  0  0999 V2000
   -5.7469    1.6546    0.0000 O   0  0  0  0  0  0  0  0  0  0  0  0
    1.4367    1.6546    0.0000 O   0  0  0  0  0  0  0  0  0  0  0  0
   -2.8734    0.8313    0.0000 N   0  0  0  0  0  0  0  0  0  0  0  0
   -2.1631   -0.4116    0.0000 N   0  0  0  0  0  0  0  0  0  0  0  0
   -4.3101    0.8313    0.0000 N   0  0  0  0  0  0  0  0  0  0  0  0
   -3.5999   -2.0744    0.0000 N   0  0  0  0  0  0  0  0  0  0  0  0
    0.7265    0.4116    0.0000 N   0  0  0  0  0  0  0  0  0  0  0  0
    3.5999   -0.4116    0.0000 N   0  0  0  0  0  0  0  0  0  0  0  0
    5.7469    0.0080    0.0000 N   0  0  0  0  0  0  0  0  0  0  0  0
   -3.5837    0.4278    0.0000 C   0  0  0  0  0  0  0  0  0  0  0  0
   -3.5999   -0.4116    0.0000 C   0  0  0  0  0  0  0  0  0  0  0  0
   -2.1470    0.4116    0.0000 C   0  0  0  0  0  0  0  0  0  0  0  0
   -2.8573   -0.8313    0.0000 C   0  0  0  0  0  0  0  0  0  0  0  0
   -1.4367    0.8313    0.0000 C   0  0  0  0  0  0  0  0  0  0  0  0
   -1.4206    1.6546    0.0000 C   0  0  0  0  0  0  0  0  0  0  0  0
   -0.6941    0.4278    0.0000 C   0  0  0  0  0  0  0  0  0  0  0  0
   -4.3101   -0.8313    0.0000 C   0  0  0  0  0  0  0  0  0  0  0  0
    0.0162    0.8313    0.0000 C   0  0  0  0  0  0  0  0  0  0  0  0
   -2.8734   -1.6546    0.0000 C   0  0  0  0  0  0  0  0  0  0  0  0
   -0.7103    2.0582    0.0000 C   0  0  0  0  0  0  0  0  0  0  0  0
   -4.3101    1.6546    0.0000 C   0  0  0  0  0  0  0  0  0  0  0  0
   -5.0043    0.4116    0.0000 C   0  0  0  0  0  0  0  0  0  0  0  0
    0.0000    1.6385    0.0000 C   0  0  0  0  0  0  0  0  0  0  0  0
   -4.3101   -1.6546    0.0000 C   0  0  0  0  0  0  0  0  0  0  0  0
    2.1631    0.4278    0.0000 C   0  0  0  0  0  0  0  0  0  0  0  0
    1.4367    0.8152    0.0000 C   0  0  0  0  0  0  0  0  0  0  0  0
    3.5999    0.4116    0.0000 C   0  0  0  0  0  0  0  0  0  0  0  0
    4.3263    0.8313    0.0000 C   0  0  0  0  0  0  0  0  0  0  0  0
    2.8734    0.8313    0.0000 C   0  0  0  0  0  0  0  0  0  0  0  0
   -2.1631    2.0582    0.0000 C   0  0  0  0  0  0  0  0  0  0  0  0
   -5.0366    2.0744    0.0000 C   0  0  0  0  0  0  0  0  0  0  0  0
   -5.7469    0.8313    0.0000 C   0  0  0  0  0  0  0  0  0  0  0  0
    2.1631   -0.4116    0.0000 C   0  0  0  0  0  0  0  0  0  0  0  0
    2.9057   -0.8152    0.0000 C   0  0  0  0  0  0  0  0  0  0  0  0
    5.0204    0.3955    0.0000 C   0  0  0  0  0  0  0  0  0  0  0  0
    4.3101    1.6708    0.0000 C   0  0  0  0  0  0  0  0  0  0  0  0
    5.0527    1.2188    0.0000 C   0  0  0  0  0  0  0  0  0  0  0  0
  1 31  1  0  0  0  0
  1 32  1  0  0  0  0
  2 26  2  0  0  0  0
  3 10  2  0  0  0  0
  3 12  1  0  0  0  0
  4 12  2  0  0  0  0
  4 13  1  0  0  0  0
  5 10  1  0  0  0  0
  5 21  1  0  0  0  0
  5 22  1  0  0  0  0
  6 19  1  0  0  0  0
  6 24  1  0  0  0  0
  7 18  1  0  0  0  0
  7 26  1  0  0  0  0
  8 27  1  0  0  0  0
  8 34  2  0  0  0  0
  9 35  3  0  0  0  0
 10 11  1  0  0  0  0
 11 13  2  0  0  0  0
 11 17  1  0  0  0  0
 12 14  1  0  0  0  0
 13 19  1  0  0  0  0
 14 15  2  0  0  0  0
 14 16  1  0  0  0  0
 15 20  1  0  0  0  0
 15 30  1  0  0  0  0
 16 18  2  0  0  0  0
 17 24  1  0  0  0  0
 18 23  1  0  0  0  0
 20 23  2  0  0  0  0
 21 31  1  0  0  0  0
 22 32  1  0  0  0  0
 25 26  1  0  0  0  0
 25 29  1  0  0  0  0
 25 33  2  0  0  0  0
 27 28  1  0  0  0  0
 27 29  2  0  0  0  0
 28 35  1  0  0  0  0
 28 36  1  0  0  0  0
 28 37  1  0  0  0  0
 33 34  1  0  0  0  0
M  END
> <PUBCHEM_COMPOUND_ID_TYPE>
0

> <PUBCHEM_TOTAL_CHARGE>
0

> <PUBCHEM_SUBSTANCE_ID>
310943492

> <PUBCHEM_SUBSTANCE_VERSION>
1

> <PUBCHEM_EXT_DATASOURCE_NAME>
4488

> <PUBCHEM_EXT_DATASOURCE_REGID>
SCHEMBL16121557

> <PUBCHEM_SUBSTANCE_COMMENT>
InChI=1S/C28H31N7O2/c1-18-4-5-20(32-27(36)19-6-9-31-24(14-19)28(2,3)17-29)15-22(18)25-33-23-16-30-8-7-21(23)26(34-25)35-10-12-37-13-11-35/h4-6,9,14-15,30H,7-8,10-13,16H2,1-3H3,(H,32,36)
InChIKey=QRMPJUMOXKKAFP-UHFFFAOYSA-N

> <PUBCHEM_SUBSTANCE_SYNONYM>
SCHEMBL16121557

> <PUBCHEM_XREF_EXT_ID>
SCHEMBL16121557

> <PUBCHEM_EXT_DATASOURCE_URL>
https://www.surechembl.org/

> <PUBCHEM_EXT_SUBSTANCE_URL>
https://www.surechembl.org/chemical/SCHEMBL16121557

> <PUBCHEM_CID_ASSOCIATIONS>
117609913  1

> <PUBCHEM_COORDINATE_TYPE>
1
3

$$$$
