310933707
  -OEChem-07211613022D

 37 41  0     0  0  0  0  0  0999 V2000
    7.0902   -6.9172    0.0000 F   0  0  0  0  0  0  0  0  0  0  0  0
    7.5052   -6.1564    0.0000 F   0  0  0  0  0  0  0  0  0  0  0  0
    5.8796   -6.1218    0.0000 O   0  0  0  0  0  0  0  0  0  0  0  0
    7.0210   -5.4646    0.0000 O   0  0  0  0  0  0  0  0  0  0  0  0
    1.4180   -2.8706    0.0000 O   0  0  0  0  0  0  0  0  0  0  0  0
    0.7263   -0.0346    0.0000 O   0  0  0  0  0  0  0  0  0  0  0  0
    3.5624   -4.9112    0.0000 O   0  0  0  0  0  0  0  0  0  0  0  0
    2.8360   -2.8706    0.0000 N   0  0  0  0  0  0  0  0  0  0  0  0
    3.5624   -2.4556    0.0000 N   0  0  0  0  0  0  0  0  0  0  0  0
    4.2541   -3.7007    0.0000 N   0  0  0  0  0  0  0  0  0  0  0  0
    7.0902   -1.2105    0.0000 N   0  0  0  0  0  0  0  0  0  0  0  0
    2.8360   -1.2105    0.0000 C   0  0  0  0  0  0  0  0  0  0  0  0
    2.1444   -1.6602    0.0000 C   0  0  0  0  0  0  0  0  0  0  0  0
    3.5278   -1.6602    0.0000 C   0  0  0  0  0  0  0  0  0  0  0  0
    2.1444   -2.4556    0.0000 C   0  0  0  0  0  0  0  0  0  0  0  0
    5.6722   -5.3263    0.0000 C   0  0  0  0  0  0  0  0  0  0  0  0
    6.4330   -4.9112    0.0000 C   0  0  0  0  0  0  0  0  0  0  0  0
    6.6751   -6.1909    0.0000 C   0  0  0  0  0  0  0  0  0  0  0  0
    4.2541   -1.2105    0.0000 C   0  0  0  0  0  0  0  0  0  0  0  0
    4.9804   -4.1157    0.0000 C   0  0  0  0  0  0  0  0  0  0  0  0
    4.9804   -4.9112    0.0000 C   0  0  0  0  0  0  0  0  0  0  0  0
    1.4180   -1.2451    0.0000 C   0  0  0  0  0  0  0  0  0  0  0  0
    2.8360   -0.4496    0.0000 C   0  0  0  0  0  0  0  0  0  0  0  0
    2.8360   -3.7007    0.0000 C   0  0  0  0  0  0  0  0  0  0  0  0
    3.5624   -4.1157    0.0000 C   0  0  0  0  0  0  0  0  0  0  0  0
    6.3984   -4.0812    0.0000 C   0  0  0  0  0  0  0  0  0  0  0  0
    1.4180   -0.4496    0.0000 C   0  0  0  0  0  0  0  0  0  0  0  0
    5.7067   -3.6661    0.0000 C   0  0  0  0  0  0  0  0  0  0  0  0
    2.1444   -0.0346    0.0000 C   0  0  0  0  0  0  0  0  0  0  0  0
    4.9804   -1.6256    0.0000 C   0  0  0  0  0  0  0  0  0  0  0  0
    4.2541   -0.4150    0.0000 C   0  0  0  0  0  0  0  0  0  0  0  0
    5.6722   -1.2105    0.0000 C   0  0  0  0  0  0  0  0  0  0  0  0
    4.2541   -2.8706    0.0000 C   0  0  0  0  0  0  0  0  0  0  0  0
    4.9804    0.0000    0.0000 C   0  0  0  0  0  0  0  0  0  0  0  0
    5.6722   -0.4150    0.0000 C   0  0  0  0  0  0  0  0  0  0  0  0
    6.3984   -1.6256    0.0000 C   0  0  0  0  0  0  0  0  0  0  0  0
    0.0000   -0.4496    0.0000 C   0  0  0  0  0  0  0  0  0  0  0  0
  1 18  1  0  0  0  0
  2 18  1  0  0  0  0
  3 16  1  0  0  0  0
  3 18  1  0  0  0  0
  4 17  1  0  0  0  0
  4 18  1  0  0  0  0
  5 15  2  0  0  0  0
  6 27  1  0  0  0  0
  6 37  1  0  0  0  0
  7 25  2  0  0  0  0
  8  9  1  0  0  0  0
  8 15  1  0  0  0  0
  8 24  1  0  0  0  0
  9 14  2  0  0  0  0
 10 20  1  0  0  0  0
 10 25  1  0  0  0  0
 10 33  1  0  0  0  0
 11 36  3  0  0  0  0
 12 13  2  0  0  0  0
 12 14  1  0  0  0  0
 12 23  1  0  0  0  0
 13 15  1  0  0  0  0
 13 22  1  0  0  0  0
 14 19  1  0  0  0  0
 16 17  2  0  0  0  0
 16 21  1  0  0  0  0
 17 26  1  0  0  0  0
 19 30  1  0  0  0  0
 19 31  2  0  0  0  0
 20 21  2  0  0  0  0
 20 28  1  0  0  0  0
 22 27  2  0  0  0  0
 23 29  2  0  0  0  0
 24 25  1  0  0  0  0
 26 28  2  0  0  0  0
 27 29  1  0  0  0  0
 30 32  2  0  0  0  0
 31 34  1  0  0  0  0
 32 35  1  0  0  0  0
 32 36  1  0  0  0  0
 34 35  2  0  0  0  0
M  END
> <PUBCHEM_COMPOUND_ID_TYPE>
0

> <PUBCHEM_TOTAL_CHARGE>
0

> <PUBCHEM_SUBSTANCE_ID>
310933707

> <PUBCHEM_SUBSTANCE_VERSION>
1

> <PUBCHEM_EXT_DATASOURCE_NAME>
4488

> <PUBCHEM_EXT_DATASOURCE_REGID>
SCHEMBL16111142

> <PUBCHEM_SUBSTANCE_COMMENT>
InChI=1S/C26H18F2N4O5/c1-31(17-6-9-21-22(11-17)37-26(27,28)36-21)23(33)14-32-25(34)20-12-18(35-2)7-8-19(20)24(30-32)16-5-3-4-15(10-16)13-29/h3-12H,14H2,1-2H3
InChIKey=NFOLYLKNIZNZCJ-UHFFFAOYSA-N

> <PUBCHEM_SUBSTANCE_SYNONYM>
SCHEMBL16111142

> <PUBCHEM_XREF_EXT_ID>
SCHEMBL16111142

> <PUBCHEM_EXT_DATASOURCE_URL>
https://www.surechembl.org/

> <PUBCHEM_EXT_SUBSTANCE_URL>
https://www.surechembl.org/chemical/SCHEMBL16111142

> <PUBCHEM_CID_ASSOCIATIONS>
117602073  1

> <PUBCHEM_COORDINATE_TYPE>
1
3

$$$$
