310938992
  -OEChem-07211613022D

 27 31  0     0  0  0  0  0  0999 V2000
    1.4066   -6.7189    0.0000 F   0  0  0  0  0  0  0  0  0  0  0  0
   -1.1409   -5.3370    0.0000 O   0  0  0  0  0  0  0  0  0  0  0  0
   -1.0684   -6.7189    0.0000 N   0  0  0  0  0  0  0  0  0  0  0  0
   -2.3380   -6.3064    0.0000 C   0  0  0  0  0  0  0  0  0  0  0  0
   -1.5534   -6.0515    0.0000 C   0  0  0  0  0  0  0  0  0  0  0  0
   -2.3380   -7.1314    0.0000 C   0  0  0  0  0  0  0  0  0  0  0  0
   -1.5534   -7.3863    0.0000 C   0  0  0  0  0  0  0  0  0  0  0  0
    0.1691   -7.4334    0.0000 C   0  0  0  0  0  0  0  0  0  0  0  0
   -0.2434   -6.7189    0.0000 C   0  0  0  0  0  0  0  0  0  0  0  0
    0.9941   -8.8623    0.0000 C   0  0  0  0  0  0  0  0  0  0  0  0
    1.4066   -9.5768    0.0000 C   0  0  0  0  0  0  0  0  0  0  0  0
    0.9941   -7.4334    0.0000 C   0  0  0  0  0  0  0  0  0  0  0  0
   -3.0525   -5.8939    0.0000 C   0  0  0  0  0  0  0  0  0  0  0  0
    2.6441  -10.2912    0.0000 C   0  0  0  0  0  0  0  0  0  0  0  0
    1.4066   -8.1478    0.0000 C   0  0  0  0  0  0  0  0  0  0  0  0
   -3.0525   -7.5439    0.0000 C   0  0  0  0  0  0  0  0  0  0  0  0
    2.2316  -11.0057    0.0000 C   0  0  0  0  0  0  0  0  0  0  0  0
   -0.2434   -8.1478    0.0000 C   0  0  0  0  0  0  0  0  0  0  0  0
    2.2316   -9.5768    0.0000 C   0  0  0  0  0  0  0  0  0  0  0  0
    0.1691   -8.8623    0.0000 C   0  0  0  0  0  0  0  0  0  0  0  0
    0.9941  -10.2912    0.0000 C   0  0  0  0  0  0  0  0  0  0  0  0
    1.4066  -11.0057    0.0000 C   0  0  0  0  0  0  0  0  0  0  0  0
   -3.7669   -6.3064    0.0000 C   0  0  0  0  0  0  0  0  0  0  0  0
   -3.7669   -7.1314    0.0000 C   0  0  0  0  0  0  0  0  0  0  0  0
    3.4510  -10.4628    0.0000 C   0  0  0  0  0  0  0  0  0  0  0  0
    2.7836  -11.6188    0.0000 C   0  0  0  0  0  0  0  0  0  0  0  0
    3.5373  -11.2833    0.0000 C   0  0  0  0  0  0  0  0  0  0  0  0
  1 12  1  0  0  0  0
  2  5  2  0  0  0  0
  3  5  1  0  0  0  0
  3  7  1  0  0  0  0
  3  9  1  0  0  0  0
  4  5  1  0  0  0  0
  4  6  1  0  0  0  0
  4 13  2  0  0  0  0
  6  7  1  0  0  0  0
  6 16  2  0  0  0  0
  8  9  1  0  0  0  0
  8 12  1  0  0  0  0
  8 18  2  0  0  0  0
 10 11  1  0  0  0  0
 10 15  1  0  0  0  0
 10 20  2  0  0  0  0
 11 19  1  0  0  0  0
 11 21  2  0  0  0  0
 12 15  2  0  0  0  0
 13 23  1  0  0  0  0
 14 17  1  0  0  0  0
 14 19  2  0  0  0  0
 14 25  1  0  0  0  0
 16 24  1  0  0  0  0
 17 22  2  0  0  0  0
 17 26  1  0  0  0  0
 18 20  1  0  0  0  0
 21 22  1  0  0  0  0
 23 24  2  0  0  0  0
 25 27  1  0  0  0  0
 26 27  2  0  0  0  0
M  END
> <PUBCHEM_COMPOUND_ID_TYPE>
0

> <PUBCHEM_TOTAL_CHARGE>
0

> <PUBCHEM_SUBSTANCE_ID>
310938992

> <PUBCHEM_SUBSTANCE_VERSION>
1

> <PUBCHEM_EXT_DATASOURCE_NAME>
4488

> <PUBCHEM_EXT_DATASOURCE_REGID>
SCHEMBL16116911

> <PUBCHEM_SUBSTANCE_COMMENT>
InChI=1S/C24H18FNO/c25-23-13-19(18-9-8-16-5-3-6-17(16)12-18)10-11-21(23)15-26-14-20-4-1-2-7-22(20)24(26)27/h1-5,7-13H,6,14-15H2
InChIKey=SLFGBPHFYIJFFA-UHFFFAOYSA-N

> <PUBCHEM_SUBSTANCE_SYNONYM>
SCHEMBL16116911

> <PUBCHEM_XREF_EXT_ID>
SCHEMBL16116911

> <PUBCHEM_EXT_DATASOURCE_URL>
https://www.surechembl.org/

> <PUBCHEM_EXT_SUBSTANCE_URL>
https://www.surechembl.org/chemical/SCHEMBL16116911

> <PUBCHEM_CID_ASSOCIATIONS>
117606376  1

> <PUBCHEM_COORDINATE_TYPE>
1
3

$$$$
