310947600
  -OEChem-07211613022D

 48 53  0     1  0  0  0  0  0999 V2000
   -1.0338   -0.3167    0.0000 P   0  0  3  0  0  0  0  0  0  0  0  0
    0.3879   -1.8410    0.0000 F   0  0  0  0  0  0  0  0  0  0  0  0
    1.5973   -0.7850    0.0000 O   0  0  0  0  0  0  0  0  0  0  0  0
    2.4223   -2.7690    0.0000 O   0  0  0  0  0  0  0  0  0  0  0  0
   -0.4504   -0.9001    0.0000 O   0  0  0  0  0  0  0  0  0  0  0  0
    3.7638    1.8725    0.0000 O   0  0  0  0  0  0  0  0  0  0  0  0
   -1.6172    0.2667    0.0000 O   0  0  0  0  0  0  0  0  0  0  0  0
   -0.4504    0.2667    0.0000 O   0  0  0  0  0  0  0  0  0  0  0  0
   -2.3316   -2.9626    0.0000 O   0  0  0  0  0  0  0  0  0  0  0  0
   -3.0461   -1.7251    0.0000 O   0  0  0  0  0  0  0  0  0  0  0  0
    2.2647   -0.4449    0.0000 N   0  0  0  0  0  0  0  0  0  0  0  0
    2.2647    0.8900    0.0000 N   0  0  0  0  0  0  0  0  0  0  0  0
    3.7638   -0.6025    0.0000 N   0  0  0  0  0  0  0  0  0  0  0  0
    4.4783    0.6350    0.0000 N   0  0  0  0  0  0  0  0  0  0  0  0
   -1.6172   -0.9001    0.0000 N   0  0  0  0  0  0  0  0  0  0  0  0
    2.2647   -1.2699    0.0000 C   0  0  3  0  0  0  0  0  0  0  0  0
    2.0098   -2.0545    0.0000 C   0  0  3  0  0  0  0  0  0  0  0  0
    1.1848   -2.0545    0.0000 C   0  0  3  0  0  0  0  0  0  0  0  0
    3.0493   -0.1900    0.0000 C   0  0  0  0  0  0  0  0  0  0  0  0
    0.9298   -1.2699    0.0000 C   0  0  3  0  0  0  0  0  0  0  0  0
    3.0493    0.6350    0.0000 C   0  0  0  0  0  0  0  0  0  0  0  0
    1.7798    0.2225    0.0000 C   0  0  0  0  0  0  0  0  0  0  0  0
    3.7638    1.0475    0.0000 C   0  0  0  0  0  0  0  0  0  0  0  0
    2.8066   -1.8410    0.0000 C   0  0  0  0  0  0  0  0  0  0  0  0
    0.3465   -0.6865    0.0000 C   0  0  0  0  0  0  0  0  0  0  0  0
    4.4783   -0.1900    0.0000 C   0  0  0  0  0  0  0  0  0  0  0  0
   -1.6172    1.0917    0.0000 C   0  0  0  0  0  0  0  0  0  0  0  0
   -2.3316    1.5042    0.0000 C   0  0  0  0  0  0  0  0  0  0  0  0
    5.1927   -0.6025    0.0000 C   0  0  0  0  0  0  0  0  0  0  0  0
   -2.3316    2.3292    0.0000 C   0  0  0  0  0  0  0  0  0  0  0  0
   -1.6172   -1.7251    0.0000 C   0  0  3  0  0  0  0  0  0  0  0  0
   -0.9027    1.5042    0.0000 C   0  0  0  0  0  0  0  0  0  0  0  0
    4.4783    2.2850    0.0000 C   0  0  0  0  0  0  0  0  0  0  0  0
   -3.0461    1.0917    0.0000 C   0  0  0  0  0  0  0  0  0  0  0  0
   -1.6172    2.7417    0.0000 C   0  0  0  0  0  0  0  0  0  0  0  0
   -0.9027    2.3292    0.0000 C   0  0  0  0  0  0  0  0  0  0  0  0
   -2.3316   -2.1376    0.0000 C   0  0  0  0  0  0  0  0  0  0  0  0
   -3.0461    2.7417    0.0000 C   0  0  0  0  0  0  0  0  0  0  0  0
   -3.7606    1.5042    0.0000 C   0  0  0  0  0  0  0  0  0  0  0  0
   -3.7606    2.3292    0.0000 C   0  0  0  0  0  0  0  0  0  0  0  0
   -0.9027   -2.1376    0.0000 C   0  0  0  0  0  0  0  0  0  0  0  0
   -3.0461   -3.3751    0.0000 C   0  0  0  0  0  0  0  0  0  0  0  0
   -3.7606   -2.9626    0.0000 C   0  0  0  0  0  0  0  0  0  0  0  0
   -3.7606   -2.1376    0.0000 C   0  0  0  0  0  0  0  0  0  0  0  0
   -4.4750   -3.3751    0.0000 C   0  0  0  0  0  0  0  0  0  0  0  0
   -4.4750   -1.7251    0.0000 C   0  0  0  0  0  0  0  0  0  0  0  0
   -5.1895   -2.9626    0.0000 C   0  0  0  0  0  0  0  0  0  0  0  0
   -5.1895   -2.1376    0.0000 C   0  0  0  0  0  0  0  0  0  0  0  0
  1  5  1  0  0  0  0
  1  7  1  0  0  0  0
  1  8  2  0  0  0  0
  1 15  1  0  0  0  0
 18  2  1  1  0  0  0
 16  3  1  6  0  0  0
  3 20  1  0  0  0  0
 17  4  1  6  0  0  0
  5 25  1  0  0  0  0
  6 23  1  0  0  0  0
  6 33  1  0  0  0  0
  7 27  1  0  0  0  0
  9 37  1  0  0  0  0
  9 42  1  0  0  0  0
 10 37  2  0  0  0  0
 11 16  1  0  0  0  0
 11 19  1  0  0  0  0
 11 22  1  0  0  0  0
 12 21  1  0  0  0  0
 12 22  2  0  0  0  0
 13 19  1  0  0  0  0
 13 26  2  0  0  0  0
 14 23  2  0  0  0  0
 14 26  1  0  0  0  0
 15 31  1  0  0  0  0
 16 17  1  0  0  0  0
 17 18  1  0  0  0  0
 17 24  1  1  0  0  0
 18 20  1  0  0  0  0
 19 21  2  0  0  0  0
 20 25  1  1  0  0  0
 21 23  1  0  0  0  0
 26 29  1  0  0  0  0
 27 28  1  0  0  0  0
 27 32  2  0  0  0  0
 28 30  2  0  0  0  0
 28 34  1  0  0  0  0
 30 35  1  0  0  0  0
 30 38  1  0  0  0  0
 31 37  1  0  0  0  0
 31 41  1  1  0  0  0
 32 36  1  0  0  0  0
 34 39  2  0  0  0  0
 35 36  2  0  0  0  0
 38 40  2  0  0  0  0
 39 40  1  0  0  0  0
 42 43  1  0  0  0  0
 43 44  2  0  0  0  0
 43 45  1  0  0  0  0
 44 46  1  0  0  0  0
 45 47  2  0  0  0  0
 46 48  2  0  0  0  0
 47 48  1  0  0  0  0
M  END
> <PUBCHEM_COMPOUND_ID_TYPE>
0

> <PUBCHEM_TOTAL_CHARGE>
0

> <PUBCHEM_SUBSTANCE_ID>
310947600

> <PUBCHEM_SUBSTANCE_VERSION>
1

> <PUBCHEM_EXT_DATASOURCE_NAME>
4488

> <PUBCHEM_EXT_DATASOURCE_REGID>
SCHEMBL16125763

> <PUBCHEM_SUBSTANCE_COMMENT>
InChI=1S/C33H35FN5O8P/c1-20(31(40)44-17-22-11-6-5-7-12-22)38-48(42,47-25-16-10-14-23-13-8-9-15-24(23)25)45-18-26-28(34)33(3,41)32(46-26)39-19-35-27-29(39)36-21(2)37-30(27)43-4/h5-16,19-20,26,28,32,41H,17-18H2,1-4H3,(H,38,42)/t20-,26+,28-,32+,33+,48?/m0/s1
InChIKey=RFIKJSPTPWQYOM-WIHLTSAYSA-N

> <PUBCHEM_SUBSTANCE_SYNONYM>
SCHEMBL16125763

> <PUBCHEM_XREF_EXT_ID>
SCHEMBL16125763

> <PUBCHEM_EXT_DATASOURCE_URL>
https://www.surechembl.org/

> <PUBCHEM_EXT_SUBSTANCE_URL>
https://www.surechembl.org/chemical/SCHEMBL16125763

> <PUBCHEM_CID_ASSOCIATIONS>
117613322  1

> <PUBCHEM_COORDINATE_TYPE>
1
3

> <PUBCHEM_BONDANNOTATIONS>
17  24  5
18  2  5
20  25  5
16  3  6
31  41  5
17  4  6

$$$$
