310947787
  -OEChem-07211613022D

 23 23  0     0  0  0  0  0  0999 V2000
   -0.3832   -4.1415    0.0000 S   0  0  0  0  0  0  0  0  0  0  0  0
   -1.5102   -5.2685    0.0000 F   0  0  0  0  0  0  0  0  0  0  0  0
   -0.6852   -5.2685    0.0000 F   0  0  0  0  0  0  0  0  0  0  0  0
   -1.3997   -3.4270    0.0000 F   0  0  0  0  0  0  0  0  0  0  0  0
   -2.2247   -3.4270    0.0000 F   0  0  0  0  0  0  0  0  0  0  0  0
   -2.5266   -4.5540    0.0000 O   0  0  0  0  0  0  0  0  0  0  0  0
   -0.7957   -3.4270    0.0000 O   0  0  0  0  0  0  0  0  0  0  0  0
    0.0293   -4.8560    0.0000 O   0  0  0  0  0  0  0  0  0  0  0  0
    0.3313   -3.7290    0.0000 O   0  0  0  0  0  0  0  0  0  0  0  0
   -1.8122   -3.3165    0.0000 O   0  0  0  0  0  0  0  0  0  0  0  0
   -2.5266   -2.0790    0.0000 O   0  0  0  0  0  0  0  0  0  0  0  0
   -1.0977   -4.5540    0.0000 C   0  0  0  0  0  0  0  0  0  0  0  0
   -1.8122   -4.1415    0.0000 C   0  0  0  0  0  0  0  0  0  0  0  0
   -3.2411   -4.1415    0.0000 C   0  0  0  0  0  0  0  0  0  0  0  0
   -3.2411   -3.3165    0.0000 C   0  0  0  0  0  0  0  0  0  0  0  0
   -1.0977   -2.9040    0.0000 C   0  0  0  0  0  0  0  0  0  0  0  0
   -2.5266   -2.9040    0.0000 C   0  0  0  0  0  0  0  0  0  0  0  0
   -0.8427   -3.6886    0.0000 C   0  0  0  0  0  0  0  0  0  0  0  0
   -0.4302   -2.4191    0.0000 C   0  0  0  0  0  0  0  0  0  0  0  0
   -3.9556   -2.9040    0.0000 C   0  0  0  0  0  0  0  0  0  0  0  0
   -0.0177   -3.6886    0.0000 C   0  0  0  0  0  0  0  0  0  0  0  0
    0.2372   -2.9040    0.0000 C   0  0  0  0  0  0  0  0  0  0  0  0
   -1.0977   -2.0790    0.0000 C   0  0  0  0  0  0  0  0  0  0  0  0
  1  7  2  0  0  0  0
  1  8  2  0  0  0  0
  1  9  1  0  0  0  0
  1 12  1  0  0  0  0
  2 12  1  0  0  0  0
  3 12  1  0  0  0  0
  4 13  1  0  0  0  0
  5 13  1  0  0  0  0
  6 13  1  0  0  0  0
  6 14  1  0  0  0  0
 10 16  1  0  0  0  0
 10 17  1  0  0  0  0
 11 17  2  0  0  0  0
 12 13  1  0  0  0  0
 14 15  1  0  0  0  0
 15 17  1  0  0  0  0
 15 20  2  0  0  0  0
 16 18  1  0  0  0  0
 16 19  1  0  0  0  0
 16 23  1  0  0  0  0
 18 21  1  0  0  0  0
 19 22  1  0  0  0  0
 21 22  1  0  0  0  0
M  END
> <PUBCHEM_COMPOUND_ID_TYPE>
0

> <PUBCHEM_TOTAL_CHARGE>
0

> <PUBCHEM_SUBSTANCE_ID>
310947787

> <PUBCHEM_SUBSTANCE_VERSION>
1

> <PUBCHEM_EXT_DATASOURCE_NAME>
4488

> <PUBCHEM_EXT_DATASOURCE_REGID>
SCHEMBL16125959

> <PUBCHEM_SUBSTANCE_COMMENT>
InChI=1S/C12H16F4O6S/c1-8(9(17)22-10(2)5-3-4-6-10)7-21-11(13,14)12(15,16)23(18,19)20/h1,3-7H2,2H3,(H,18,19,20)
InChIKey=ZAPQWFHISUVKHR-UHFFFAOYSA-N

> <PUBCHEM_SUBSTANCE_SYNONYM>
SCHEMBL16125959

> <PUBCHEM_XREF_EXT_ID>
SCHEMBL16125959

> <PUBCHEM_EXT_DATASOURCE_URL>
https://www.surechembl.org/

> <PUBCHEM_EXT_SUBSTANCE_URL>
https://www.surechembl.org/chemical/SCHEMBL16125959

> <PUBCHEM_CID_ASSOCIATIONS>
117613456  1

> <PUBCHEM_COORDINATE_TYPE>
1
3

$$$$
