310945411
  -OEChem-07211613022D

 41 45  0     1  0  0  0  0  0999 V2000
    3.4488   -1.6541    0.0000 I   0  0  0  0  0  0  0  0  0  0  0  0
    0.5631   -0.8622    0.0000 O   0  0  0  0  0  0  0  0  0  0  0  0
   -3.7480   -0.9502    0.0000 O   0  0  0  0  0  0  0  0  0  0  0  0
   -0.1408   -2.1116    0.0000 O   0  0  0  0  0  0  0  0  0  0  0  0
   -4.5046    0.1936    0.0000 O   0  0  0  0  0  0  0  0  0  0  0  0
    4.3463    1.9356    0.0000 O   0  0  0  0  0  0  0  0  0  0  0  0
    3.9416    3.3257    0.0000 O   0  0  0  0  0  0  0  0  0  0  0  0
   -0.1584    0.4047    0.0000 C   0  0  3  0  0  0  0  0  0  0  0  0
    0.5455    1.6716    0.0000 C   0  0  3  0  0  0  0  0  0  0  0  0
   -0.8622    0.7919    0.0000 C   0  0  3  0  0  0  0  0  0  0  0  0
    0.5631    0.8446    0.0000 C   0  0  3  0  0  0  0  0  0  0  0  0
   -1.6013    0.4047    0.0000 C   0  0  3  0  0  0  0  0  0  0  0  0
   -0.1584   -0.4399    0.0000 C   0  0  3  0  0  0  0  0  0  0  0  0
   -1.6013   -0.4927    0.0000 C   0  0  3  0  0  0  0  0  0  0  0  0
    1.3197    1.9180    0.0000 C   0  0  0  0  0  0  0  0  0  0  0  0
   -0.1936    2.0763    0.0000 C   0  0  0  0  0  0  0  0  0  0  0  0
   -0.8798    1.6364    0.0000 C   0  0  0  0  0  0  0  0  0  0  0  0
   -0.8446   -0.8622    0.0000 C   0  0  0  0  0  0  0  0  0  0  0  0
    1.3197    0.5807    0.0000 C   0  0  0  0  0  0  0  0  0  0  0  0
   -2.3051    0.7566    0.0000 C   0  0  0  0  0  0  0  0  0  0  0  0
    1.8124    1.2494    0.0000 C   0  0  0  0  0  0  0  0  0  0  0  0
   -2.2875   -0.8798    0.0000 C   0  0  0  0  0  0  0  0  0  0  0  0
    1.5661    2.6570    0.0000 C   0  0  3  0  0  0  0  0  0  0  0  0
    0.5279    2.4986    0.0000 C   0  0  0  0  0  0  0  0  0  0  0  0
   -1.6013    1.1966    0.0000 C   0  0  0  0  0  0  0  0  0  0  0  0
   -3.0266   -0.4927    0.0000 C   0  0  3  0  0  0  0  0  0  0  0  0
   -3.0441    0.3167    0.0000 C   0  0  0  0  0  0  0  0  0  0  0  0
    0.5807   -1.6541    0.0000 C   0  0  0  0  0  0  0  0  0  0  0  0
    2.3579    2.8506    0.0000 C   0  0  0  0  0  0  0  0  0  0  0  0
    0.9678    3.2025    0.0000 C   0  0  0  0  0  0  0  0  0  0  0  0
    1.3197   -2.1116    0.0000 C   0  0  0  0  0  0  0  0  0  0  0  0
    2.9738    2.3051    0.0000 C   0  0  0  0  0  0  0  0  0  0  0  0
   -4.4871   -0.5631    0.0000 C   0  0  0  0  0  0  0  0  0  0  0  0
    2.0060   -1.6716    0.0000 C   0  0  0  0  0  0  0  0  0  0  0  0
    1.3373   -2.9386    0.0000 C   0  0  0  0  0  0  0  0  0  0  0  0
    2.7450   -2.0939    0.0000 C   0  0  0  0  0  0  0  0  0  0  0  0
    3.7304    2.5163    0.0000 C   0  0  0  0  0  0  0  0  0  0  0  0
    2.0763   -3.3257    0.0000 C   0  0  0  0  0  0  0  0  0  0  0  0
    2.7450   -2.9033    0.0000 C   0  0  0  0  0  0  0  0  0  0  0  0
   -5.1205   -0.9854    0.0000 C   0  0  0  0  0  0  0  0  0  0  0  0
    5.1205    2.1467    0.0000 C   0  0  0  0  0  0  0  0  0  0  0  0
  1 36  1  0  0  0  0
 13  2  1  6  0  0  0
  2 28  1  0  0  0  0
 26  3  1  6  0  0  0
  3 33  1  0  0  0  0
  4 28  2  0  0  0  0
  5 33  2  0  0  0  0
  6 37  1  0  0  0  0
  6 41  1  0  0  0  0
  7 37  2  0  0  0  0
  8 10  1  0  0  0  0
  8 11  1  0  0  0  0
  8 13  1  0  0  0  0
  9 11  1  0  0  0  0
  9 15  1  0  0  0  0
  9 16  1  0  0  0  0
  9 24  1  1  0  0  0
 10 12  1  0  0  0  0
 10 17  1  0  0  0  0
 11 19  1  1  0  0  0
 12 14  1  0  0  0  0
 12 20  1  0  0  0  0
 12 25  1  0  0  0  0
 13 18  1  0  0  0  0
 14 18  1  6  0  0  0
 14 22  1  0  0  0  0
 15 21  2  0  0  0  0
 15 23  1  0  0  0  0
 16 17  1  0  0  0  0
 19 21  1  0  0  0  0
 20 27  1  0  0  0  0
 22 26  1  0  0  0  0
 23 29  1  0  0  0  0
 23 30  1  6  0  0  0
 26 27  1  0  0  0  0
 28 31  1  0  0  0  0
 29 32  1  0  0  0  0
 31 34  1  0  0  0  0
 31 35  2  0  0  0  0
 32 37  1  0  0  0  0
 33 40  1  0  0  0  0
 34 36  2  0  0  0  0
 35 38  1  0  0  0  0
 36 39  1  0  0  0  0
 38 39  2  0  0  0  0
M  END
> <PUBCHEM_COMPOUND_ID_TYPE>
0

> <PUBCHEM_TOTAL_CHARGE>
0

> <PUBCHEM_SUBSTANCE_ID>
310945411

> <PUBCHEM_SUBSTANCE_VERSION>
1

> <PUBCHEM_EXT_DATASOURCE_NAME>
4488

> <PUBCHEM_EXT_DATASOURCE_REGID>
SCHEMBL16123509

> <PUBCHEM_SUBSTANCE_COMMENT>
InChI=1S/C34H45IO6/c1-20(9-12-30(37)39-5)26-10-11-27-31-28(14-16-34(26,27)4)33(3)15-13-25(40-21(2)36)18-23(33)19-29(31)41-32(38)22-7-6-8-24(35)17-22/h6-8,10,17,20,23,25,27-29,31H,9,11-16,18-19H2,1-5H3/t20-,23+,25-,27+,28?,29-,31?,33?,34-/m1/s1
InChIKey=OEJKRLKMSJNFRE-BEHLFHPISA-N

> <PUBCHEM_SUBSTANCE_SYNONYM>
SCHEMBL16123509

> <PUBCHEM_XREF_EXT_ID>
SCHEMBL16123509

> <PUBCHEM_EXT_DATASOURCE_URL>
https://www.surechembl.org/

> <PUBCHEM_EXT_SUBSTANCE_URL>
https://www.surechembl.org/chemical/SCHEMBL16123509

> <PUBCHEM_CID_ASSOCIATIONS>
117611457  1

> <PUBCHEM_COORDINATE_TYPE>
1
3

> <PUBCHEM_BONDANNOTATIONS>
11  19  5
14  18  6
13  2  6
23  30  6
26  3  6
9  24  5

$$$$
