310940673
  -OEChem-07211613022D

 12 14  0     0  0  0  0  0  0999 V2000
    0.2895    2.5040    0.0000 O   0  0  0  0  0  0  0  0  0  0  0  0
   -0.4632    1.2159    0.0000 N   0  0  0  0  0  0  0  0  0  0  0  0
   -0.4777   -0.8395    0.0000 C   0  0  0  0  0  0  0  0  0  0  0  0
   -0.4777    0.2895    0.0000 C   0  0  0  0  0  0  0  0  0  0  0  0
   -1.0566   -0.2750    0.0000 C   0  0  0  0  0  0  0  0  0  0  0  0
    0.1303   -0.2606    0.0000 C   0  0  0  0  0  0  0  0  0  0  0  0
   -0.6803   -0.2171    0.0000 C   0  0  0  0  0  0  0  0  0  0  0  0
   -0.4632   -1.7804    0.0000 C   0  0  0  0  0  0  0  0  0  0  0  0
   -0.8685   -2.5040    0.0000 C   0  0  0  0  0  0  0  0  0  0  0  0
   -0.0435   -2.5040    0.0000 C   0  0  0  0  0  0  0  0  0  0  0  0
    0.2895    1.6211    0.0000 C   0  0  0  0  0  0  0  0  0  0  0  0
    1.0566    1.2014    0.0000 C   0  0  0  0  0  0  0  0  0  0  0  0
  1 11  2  0  0  0  0
  2  4  1  0  0  0  0
  2 11  1  0  0  0  0
  3  5  1  0  0  0  0
  3  6  1  0  0  0  0
  3  7  1  0  0  0  0
  3  8  1  0  0  0  0
  4  5  1  0  0  0  0
  4  6  1  0  0  0  0
  4  7  1  0  0  0  0
  8  9  1  0  0  0  0
  8 10  1  0  0  0  0
  9 10  1  0  0  0  0
 11 12  1  0  0  0  0
M  END
> <PUBCHEM_COMPOUND_ID_TYPE>
0

> <PUBCHEM_TOTAL_CHARGE>
0

> <PUBCHEM_SUBSTANCE_ID>
310940673

> <PUBCHEM_SUBSTANCE_VERSION>
1

> <PUBCHEM_EXT_DATASOURCE_NAME>
4488

> <PUBCHEM_EXT_DATASOURCE_REGID>
SCHEMBL16118628

> <PUBCHEM_SUBSTANCE_COMMENT>
InChI=1S/C10H15NO/c1-7(12)11-10-4-9(5-10,6-10)8-2-3-8/h8H,2-6H2,1H3,(H,11,12)
InChIKey=SWIXOOISQQOACI-UHFFFAOYSA-N

> <PUBCHEM_SUBSTANCE_SYNONYM>
SCHEMBL16118628

> <PUBCHEM_XREF_EXT_ID>
SCHEMBL16118628

> <PUBCHEM_EXT_DATASOURCE_URL>
https://www.surechembl.org/

> <PUBCHEM_EXT_SUBSTANCE_URL>
https://www.surechembl.org/chemical/SCHEMBL16118628

> <PUBCHEM_CID_ASSOCIATIONS>
117607649  1

> <PUBCHEM_COORDINATE_TYPE>
1
3

$$$$
