310940968
  -OEChem-07211613022D

 41 45  0     1  0  0  0  0  0999 V2000
    5.0416   -1.5125    0.0000 O   0  0  0  0  0  0  0  0  0  0  0  0
    2.6360    2.9098    0.0000 O   0  0  0  0  0  0  0  0  0  0  0  0
    3.8028    2.2471    0.0000 O   0  0  0  0  0  0  0  0  0  0  0  0
    3.9036    0.4466    0.0000 O   0  0  0  0  0  0  0  0  0  0  0  0
    1.7430   -1.6277    0.0000 O   0  0  0  0  0  0  0  0  0  0  0  0
   -0.4177    0.4466    0.0000 O   0  0  0  0  0  0  0  0  0  0  0  0
   -2.5640   -1.6277    0.0000 O   0  0  0  0  0  0  0  0  0  0  0  0
   -5.4449   -1.6277    0.0000 O   0  0  0  0  0  0  0  0  0  0  0  0
    2.4632   -0.3889    0.0000 N   0  0  0  0  0  0  0  0  0  0  0  0
    0.3025   -0.8067    0.0000 N   0  0  0  0  0  0  0  0  0  0  0  0
   -1.8438   -0.3889    0.0000 N   0  0  0  0  0  0  0  0  0  0  0  0
   -4.0045   -0.8067    0.0000 N   0  0  0  0  0  0  0  0  0  0  0  0
    4.6383   -0.7778    0.0000 C   0  0  3  0  0  0  0  0  0  0  0  0
    3.8748   -0.3745    0.0000 C   0  0  0  0  0  0  0  0  0  0  0  0
    3.1978   -0.7778    0.0000 C   0  0  3  0  0  0  0  0  0  0  0  0
    1.0227   -0.3601    0.0000 C   0  0  3  0  0  0  0  0  0  0  0  0
    2.4632    2.1175    0.0000 C   0  0  0  0  0  0  0  0  0  0  0  0
    1.7430    0.8787    0.0000 C   0  0  0  0  0  0  0  0  0  0  0  0
    3.1834    1.7142    0.0000 C   0  0  0  0  0  0  0  0  0  0  0  0
    1.7574   -0.7634    0.0000 C   0  0  0  0  0  0  0  0  0  0  0  0
    5.4449   -0.7923    0.0000 C   0  0  0  0  0  0  0  0  0  0  0  0
    1.0371    0.4610    0.0000 C   0  0  0  0  0  0  0  0  0  0  0  0
    1.7574    1.7142    0.0000 C   0  0  0  0  0  0  0  0  0  0  0  0
    3.1690   -1.6277    0.0000 C   0  0  0  0  0  0  0  0  0  0  0  0
    2.4632    0.4754    0.0000 C   0  0  0  0  0  0  0  0  0  0  0  0
    3.1834    0.8787    0.0000 C   0  0  0  0  0  0  0  0  0  0  0  0
    3.9180   -2.0167    0.0000 C   0  0  0  0  0  0  0  0  0  0  0  0
   -0.4177   -0.3745    0.0000 C   0  0  0  0  0  0  0  0  0  0  0  0
    3.4571    3.0105    0.0000 C   0  0  0  0  0  0  0  0  0  0  0  0
   -1.1235   -0.7778    0.0000 C   0  0  3  0  0  0  0  0  0  0  0  0
    4.0045   -2.8377    0.0000 C   0  0  0  0  0  0  0  0  0  0  0  0
    4.6671   -1.6998    0.0000 C   0  0  0  0  0  0  0  0  0  0  0  0
   -2.5640   -0.7634    0.0000 C   0  0  0  0  0  0  0  0  0  0  0  0
    5.2001   -2.3191    0.0000 C   0  0  0  0  0  0  0  0  0  0  0  0
    4.8112   -3.0105    0.0000 C   0  0  0  0  0  0  0  0  0  0  0  0
   -3.3131   -0.3745    0.0000 C   0  0  0  0  0  0  0  0  0  0  0  0
   -1.1235   -1.5845    0.0000 C   0  0  0  0  0  0  0  0  0  0  0  0
   -4.0045   -1.6133    0.0000 C   0  0  0  0  0  0  0  0  0  0  0  0
   -4.7535   -0.3745    0.0000 C   0  0  0  0  0  0  0  0  0  0  0  0
   -4.7103   -2.0167    0.0000 C   0  0  0  0  0  0  0  0  0  0  0  0
   -5.4305   -0.7778    0.0000 C   0  0  0  0  0  0  0  0  0  0  0  0
  1 13  1  0  0  0  0
  1 21  1  0  0  0  0
  2 17  1  0  0  0  0
  2 29  1  0  0  0  0
  3 19  1  0  0  0  0
  3 29  1  0  0  0  0
  4 14  2  0  0  0  0
  5 20  2  0  0  0  0
  6 28  2  0  0  0  0
  7 33  2  0  0  0  0
  8 40  1  0  0  0  0
  8 41  1  0  0  0  0
 15  9  1  6  0  0  0
  9 20  1  0  0  0  0
 16 10  1  1  0  0  0
 10 28  1  0  0  0  0
 11 30  1  0  0  0  0
 11 33  1  0  0  0  0
 12 36  1  0  0  0  0
 12 38  1  0  0  0  0
 12 39  1  0  0  0  0
 13 14  1  1  0  0  0
 13 21  1  0  0  0  0
 14 15  1  0  0  0  0
 15 24  1  0  0  0  0
 16 20  1  0  0  0  0
 16 22  1  0  0  0  0
 17 19  1  0  0  0  0
 17 23  2  0  0  0  0
 18 22  1  0  0  0  0
 18 23  1  0  0  0  0
 18 25  2  0  0  0  0
 19 26  2  0  0  0  0
 24 27  1  0  0  0  0
 25 26  1  0  0  0  0
 27 31  1  0  0  0  0
 27 32  1  0  0  0  0
 28 30  1  0  0  0  0
 30 37  1  6  0  0  0
 31 35  1  0  0  0  0
 32 34  1  0  0  0  0
 33 36  1  0  0  0  0
 34 35  1  0  0  0  0
 38 40  1  0  0  0  0
 39 41  1  0  0  0  0
M  END
> <PUBCHEM_COMPOUND_ID_TYPE>
0

> <PUBCHEM_TOTAL_CHARGE>
0

> <PUBCHEM_SUBSTANCE_ID>
310940968

> <PUBCHEM_SUBSTANCE_VERSION>
1

> <PUBCHEM_EXT_DATASOURCE_NAME>
4488

> <PUBCHEM_EXT_DATASOURCE_REGID>
SCHEMBL16118927

> <PUBCHEM_SUBSTANCE_COMMENT>
InChI=1S/C29H40N4O8/c1-18(30-26(34)15-33-8-10-38-11-9-33)28(36)32-22(13-20-6-7-23-24(14-20)41-17-40-23)29(37)31-21(27(35)25-16-39-25)12-19-4-2-3-5-19/h6-7,14,18-19,21-22,25H,2-5,8-13,15-17H2,1H3,(H,30,34)(H,31,37)(H,32,36)/t18-,21-,22-,25+/m0/s1
InChIKey=AIFSYOXLQVBMBF-OPQSODGTSA-N

> <PUBCHEM_SUBSTANCE_SYNONYM>
SCHEMBL16118927

> <PUBCHEM_XREF_EXT_ID>
SCHEMBL16118927

> <PUBCHEM_EXT_DATASOURCE_URL>
https://www.surechembl.org/

> <PUBCHEM_EXT_SUBSTANCE_URL>
https://www.surechembl.org/chemical/SCHEMBL16118927

> <PUBCHEM_CID_ASSOCIATIONS>
117607876  1

> <PUBCHEM_COORDINATE_TYPE>
1
3

> <PUBCHEM_BONDANNOTATIONS>
16  10  5
13  14  5
30  37  6
15  9  6

$$$$
