310943369
  -OEChem-07211613022D

 41 46  0     0  0  0  0  0  0999 V2000
   -3.5395    0.1164    0.0000 O   0  0  0  0  0  0  0  0  0  0  0  0
   -3.5551   -3.0039    0.0000 O   0  0  0  0  0  0  0  0  0  0  0  0
   -4.9212    2.6003    0.0000 O   0  0  0  0  0  0  0  0  0  0  0  0
    2.3131    2.3209    0.0000 O   0  0  0  0  0  0  0  0  0  0  0  0
   -3.4929    1.7619    0.0000 N   0  0  0  0  0  0  0  0  0  0  0  0
   -2.0958    0.1009    0.0000 N   0  0  0  0  0  0  0  0  0  0  0  0
    0.2018    2.8797    0.0000 N   0  0  0  0  0  0  0  0  0  0  0  0
    1.5213    1.1565    0.0000 N   0  0  0  0  0  0  0  0  0  0  0  0
    3.6947    1.4360    0.0000 N   0  0  0  0  0  0  0  0  0  0  0  0
    4.9212   -1.9172    0.0000 N   0  0  0  0  0  0  0  0  0  0  0  0
   -3.4929   -1.8240    0.0000 C   0  0  0  0  0  0  0  0  0  0  0  0
   -3.5551   -0.6908    0.0000 C   0  0  0  0  0  0  0  0  0  0  0  0
   -4.0983   -1.2808    0.0000 C   0  0  0  0  0  0  0  0  0  0  0  0
   -2.9496   -1.2186    0.0000 C   0  0  0  0  0  0  0  0  0  0  0  0
   -4.0983   -2.3985    0.0000 C   0  0  0  0  0  0  0  0  0  0  0  0
   -2.9496   -2.4295    0.0000 C   0  0  0  0  0  0  0  0  0  0  0  0
   -2.8253    0.5200    0.0000 C   0  0  0  0  0  0  0  0  0  0  0  0
   -2.7943    1.3584    0.0000 C   0  0  0  0  0  0  0  0  0  0  0  0
   -1.3506    1.3273    0.0000 C   0  0  0  0  0  0  0  0  0  0  0  0
   -0.6054    1.6999    0.0000 C   0  0  0  0  0  0  0  0  0  0  0  0
   -2.0646    1.7464    0.0000 C   0  0  0  0  0  0  0  0  0  0  0  0
   -1.3816    0.4890    0.0000 C   0  0  0  0  0  0  0  0  0  0  0  0
   -0.5433    2.5226    0.0000 C   0  0  0  0  0  0  0  0  0  0  0  0
    0.1087    1.2497    0.0000 C   0  0  0  0  0  0  0  0  0  0  0  0
    0.8228    1.6067    0.0000 C   0  0  0  0  0  0  0  0  0  0  0  0
   -3.4773    2.5847    0.0000 C   0  0  0  0  0  0  0  0  0  0  0  0
   -4.2070    1.3739    0.0000 C   0  0  0  0  0  0  0  0  0  0  0  0
    0.8849    2.4295    0.0000 C   0  0  0  0  0  0  0  0  0  0  0  0
    2.9651    1.0789    0.0000 C   0  0  0  0  0  0  0  0  0  0  0  0
    2.2510    1.5136    0.0000 C   0  0  0  0  0  0  0  0  0  0  0  0
    3.6016   -0.1940    0.0000 C   0  0  0  0  0  0  0  0  0  0  0  0
    3.5395   -1.0169    0.0000 C   0  0  0  0  0  0  0  0  0  0  0  0
    2.9029    0.2561    0.0000 C   0  0  0  0  0  0  0  0  0  0  0  0
   -4.2070    3.0039    0.0000 C   0  0  0  0  0  0  0  0  0  0  0  0
   -4.9212    1.7930    0.0000 C   0  0  0  0  0  0  0  0  0  0  0  0
   -1.2419    2.9418    0.0000 C   0  0  0  0  0  0  0  0  0  0  0  0
    4.3312    0.1785    0.0000 C   0  0  0  0  0  0  0  0  0  0  0  0
    4.3933    0.9858    0.0000 C   0  0  0  0  0  0  0  0  0  0  0  0
    4.2225   -1.4670    0.0000 C   0  0  0  0  0  0  0  0  0  0  0  0
    3.3531   -1.8085    0.0000 C   0  0  0  0  0  0  0  0  0  0  0  0
    2.8098   -1.3894    0.0000 C   0  0  0  0  0  0  0  0  0  0  0  0
  1 12  1  0  0  0  0
  1 17  1  0  0  0  0
  2 15  1  0  0  0  0
  2 16  1  0  0  0  0
  3 34  1  0  0  0  0
  3 35  1  0  0  0  0
  4 30  2  0  0  0  0
  5 18  1  0  0  0  0
  5 26  1  0  0  0  0
  5 27  1  0  0  0  0
  6 17  1  0  0  0  0
  6 22  2  0  0  0  0
  7 23  2  0  0  0  0
  7 28  1  0  0  0  0
  8 25  1  0  0  0  0
  8 30  1  0  0  0  0
  9 29  1  0  0  0  0
  9 38  2  0  0  0  0
 10 39  3  0  0  0  0
 11 13  1  0  0  0  0
 11 14  1  0  0  0  0
 11 15  1  0  0  0  0
 11 16  1  0  0  0  0
 12 13  1  0  0  0  0
 12 14  1  0  0  0  0
 17 18  2  0  0  0  0
 18 21  1  0  0  0  0
 19 20  1  0  0  0  0
 19 21  2  0  0  0  0
 19 22  1  0  0  0  0
 20 23  1  0  0  0  0
 20 24  2  0  0  0  0
 23 36  1  0  0  0  0
 24 25  1  0  0  0  0
 25 28  2  0  0  0  0
 26 34  1  0  0  0  0
 27 35  1  0  0  0  0
 29 30  1  0  0  0  0
 29 33  2  0  0  0  0
 31 32  1  0  0  0  0
 31 33  1  0  0  0  0
 31 37  2  0  0  0  0
 32 39  1  0  0  0  0
 32 40  1  0  0  0  0
 32 41  1  0  0  0  0
 37 38  1  0  0  0  0
M  END
> <PUBCHEM_COMPOUND_ID_TYPE>
0

> <PUBCHEM_TOTAL_CHARGE>
0

> <PUBCHEM_SUBSTANCE_ID>
310943369

> <PUBCHEM_SUBSTANCE_VERSION>
1

> <PUBCHEM_EXT_DATASOURCE_NAME>
4488

> <PUBCHEM_EXT_DATASOURCE_REGID>
SCHEMBL16121432

> <PUBCHEM_SUBSTANCE_COMMENT>
InChI=1S/C31H34N6O4/c1-20-25(12-23(16-34-20)36-28(38)26-11-22(4-5-33-26)30(2,3)17-32)21-10-27(37-6-8-39-9-7-37)29(35-15-21)41-24-13-31(14-24)18-40-19-31/h4-5,10-12,15-16,24H,6-9,13-14,18-19H2,1-3H3,(H,36,38)
InChIKey=LYWGFIJKKALRDM-UHFFFAOYSA-N

> <PUBCHEM_SUBSTANCE_SYNONYM>
SCHEMBL16121432

> <PUBCHEM_XREF_EXT_ID>
SCHEMBL16121432

> <PUBCHEM_EXT_DATASOURCE_URL>
https://www.surechembl.org/

> <PUBCHEM_EXT_SUBSTANCE_URL>
https://www.surechembl.org/chemical/SCHEMBL16121432

> <PUBCHEM_CID_ASSOCIATIONS>
117609793  1

> <PUBCHEM_COORDINATE_TYPE>
1
3

$$$$
