310942004
  -OEChem-07211613022D

 19 20  0     0  0  0  0  0  0999 V2000
   -0.6374    0.2148    0.0000 O   0  0  0  0  0  0  0  0  0  0  0  0
    2.3002   -1.2679    0.0000 N   0  0  0  0  0  0  0  0  0  0  0  0
    2.7852   -0.6028    0.0000 N   0  0  0  0  0  0  0  0  0  0  0  0
    1.9261    1.4480    0.0000 N   0  0  0  0  0  0  0  0  0  0  0  0
    1.5242   -0.2009    0.0000 C   0  0  0  0  0  0  0  0  0  0  0  0
    1.5104   -1.0046    0.0000 C   0  0  0  0  0  0  0  0  0  0  0  0
    2.2864    0.0623    0.0000 C   0  0  0  0  0  0  0  0  0  0  0  0
    0.8037    0.2009    0.0000 C   0  0  0  0  0  0  0  0  0  0  0  0
    0.0831   -0.2009    0.0000 C   0  0  0  0  0  0  0  0  0  0  0  0
    0.8176   -1.4203    0.0000 C   0  0  0  0  0  0  0  0  0  0  0  0
    0.0831   -1.0046    0.0000 C   0  0  0  0  0  0  0  0  0  0  0  0
    2.5219    0.8522    0.0000 C   0  0  0  0  0  0  0  0  0  0  0  0
    2.5773   -2.0716    0.0000 C   0  0  0  0  0  0  0  0  0  0  0  0
   -1.3302   -0.1871    0.0000 C   0  0  0  0  0  0  0  0  0  0  0  0
   -2.0785    0.2148    0.0000 C   0  0  0  0  0  0  0  0  0  0  0  0
    2.1339    2.0716    0.0000 C   0  0  0  0  0  0  0  0  0  0  0  0
    1.1362    1.2125    0.0000 C   0  0  0  0  0  0  0  0  0  0  0  0
   -2.0785    1.0462    0.0000 C   0  0  0  0  0  0  0  0  0  0  0  0
   -2.7852   -0.2148    0.0000 C   0  0  0  0  0  0  0  0  0  0  0  0
  1  9  1  0  0  0  0
  1 14  1  0  0  0  0
  2  3  1  0  0  0  0
  2  6  1  0  0  0  0
  2 13  1  0  0  0  0
  3  7  2  0  0  0  0
  4 12  1  0  0  0  0
  4 16  1  0  0  0  0
  4 17  1  0  0  0  0
  5  6  1  0  0  0  0
  5  7  1  0  0  0  0
  5  8  2  0  0  0  0
  6 10  2  0  0  0  0
  7 12  1  0  0  0  0
  8  9  1  0  0  0  0
  9 11  2  0  0  0  0
 10 11  1  0  0  0  0
 14 15  1  0  0  0  0
 15 18  1  0  0  0  0
 15 19  1  0  0  0  0
M  END
> <PUBCHEM_COMPOUND_ID_TYPE>
0

> <PUBCHEM_TOTAL_CHARGE>
0

> <PUBCHEM_SUBSTANCE_ID>
310942004

> <PUBCHEM_SUBSTANCE_VERSION>
1

> <PUBCHEM_EXT_DATASOURCE_NAME>
4488

> <PUBCHEM_EXT_DATASOURCE_REGID>
SCHEMBL16120038

> <PUBCHEM_SUBSTANCE_COMMENT>
InChI=1S/C15H23N3O/c1-11(2)10-19-12-6-7-15-13(8-12)14(9-17(3)4)16-18(15)5/h6-8,11H,9-10H2,1-5H3
InChIKey=WFACOZUQHQUPCC-UHFFFAOYSA-N

> <PUBCHEM_SUBSTANCE_SYNONYM>
SCHEMBL16120038

> <PUBCHEM_XREF_EXT_ID>
SCHEMBL16120038

> <PUBCHEM_EXT_DATASOURCE_URL>
https://www.surechembl.org/

> <PUBCHEM_EXT_SUBSTANCE_URL>
https://www.surechembl.org/chemical/SCHEMBL16120038

> <PUBCHEM_CID_ASSOCIATIONS>
117608696  1

> <PUBCHEM_COORDINATE_TYPE>
1
3

$$$$
