310929200
  -OEChem-07211613022D

 56 61  0     0  0  0  0  0  0999 V2000
    4.9845   -9.4444    0.0000 O   0  0  0  0  0  0  0  0  0  0  0  0
    7.1707  -13.2921    0.0000 O   0  0  0  0  0  0  0  0  0  0  0  0
    6.3837  -12.8549    0.0000 O   0  0  0  0  0  0  0  0  0  0  0  0
    8.5699  -13.2921    0.0000 O   0  0  0  0  0  0  0  0  0  0  0  0
    2.8858   -3.8477    0.0000 O   0  0  0  0  0  0  0  0  0  0  0  0
    0.7870    0.0000    0.0000 O   0  0  0  0  0  0  0  0  0  0  0  0
    5.6841  -14.0791    0.0000 N   0  0  0  0  0  0  0  0  0  0  0  0
    4.8971  -12.8549    0.0000 N   0  0  0  0  0  0  0  0  0  0  0  0
    4.2849   -8.1327    0.0000 N   0  0  0  0  0  0  0  0  0  0  0  0
    3.5854   -6.8210    0.0000 N   0  0  0  0  0  0  0  0  0  0  0  0
    9.3569  -14.5163    0.0000 N   0  0  0  0  0  0  0  0  0  0  0  0
    2.7983   -8.1327    0.0000 N   0  0  0  0  0  0  0  0  0  0  0  0
    1.3992   -3.8477    0.0000 N   0  0  0  0  0  0  0  0  0  0  0  0
    0.7870   -1.6615    0.0000 N   0  0  0  0  0  0  0  0  0  0  0  0
    5.6841  -11.5431    0.0000 C   0  0  0  0  0  0  0  0  0  0  0  0
    5.6841  -10.7561    0.0000 C   0  0  0  0  0  0  0  0  0  0  0  0
    6.3837  -14.5163    0.0000 C   0  0  0  0  0  0  0  0  0  0  0  0
    7.1707  -14.0791    0.0000 C   0  0  0  0  0  0  0  0  0  0  0  0
    7.8703  -14.5163    0.0000 C   0  0  0  0  0  0  0  0  0  0  0  0
    4.8971  -11.9804    0.0000 C   0  0  0  0  0  0  0  0  0  0  0  0
    7.1707  -15.8281    0.0000 C   0  0  0  0  0  0  0  0  0  0  0  0
    4.9845  -10.3189    0.0000 C   0  0  0  0  0  0  0  0  0  0  0  0
    6.3837  -15.3908    0.0000 C   0  0  0  0  0  0  0  0  0  0  0  0
    7.8703  -15.3908    0.0000 C   0  0  0  0  0  0  0  0  0  0  0  0
    7.1707  -16.6152    0.0000 C   0  0  0  0  0  0  0  0  0  0  0  0
    4.1975  -11.5431    0.0000 C   0  0  0  0  0  0  0  0  0  0  0  0
    5.6841  -13.2921    0.0000 C   0  0  0  0  0  0  0  0  0  0  0  0
    4.1975  -10.6687    0.0000 C   0  0  0  0  0  0  0  0  0  0  0  0
    6.3837  -11.9804    0.0000 C   0  0  0  0  0  0  0  0  0  0  0  0
    6.3837  -10.3189    0.0000 C   0  0  0  0  0  0  0  0  0  0  0  0
    8.5699  -14.0791    0.0000 C   0  0  0  0  0  0  0  0  0  0  0  0
    4.1975   -9.0072    0.0000 C   0  0  0  0  0  0  0  0  0  0  0  0
    7.0833  -11.5431    0.0000 C   0  0  0  0  0  0  0  0  0  0  0  0
    7.1707  -10.7561    0.0000 C   0  0  0  0  0  0  0  0  0  0  0  0
    3.4979   -7.6955    0.0000 C   0  0  0  0  0  0  0  0  0  0  0  0
    6.2963  -16.6152    0.0000 C   0  0  0  0  0  0  0  0  0  0  0  0
    7.1707  -17.4896    0.0000 C   0  0  0  0  0  0  0  0  0  0  0  0
    7.9578  -16.6152    0.0000 C   0  0  0  0  0  0  0  0  0  0  0  0
    2.8858   -6.3837    0.0000 C   0  0  0  0  0  0  0  0  0  0  0  0
    3.4979   -9.4444    0.0000 C   0  0  0  0  0  0  0  0  0  0  0  0
    2.0987   -5.1594    0.0000 C   0  0  0  0  0  0  0  0  0  0  0  0
    2.8858   -5.5966    0.0000 C   0  0  0  0  0  0  0  0  0  0  0  0
    1.3992   -6.3837    0.0000 C   0  0  0  0  0  0  0  0  0  0  0  0
    2.0987   -6.8210    0.0000 C   0  0  0  0  0  0  0  0  0  0  0  0
    2.7983   -8.9197    0.0000 C   0  0  0  0  0  0  0  0  0  0  0  0
    1.3992   -5.5093    0.0000 C   0  0  0  0  0  0  0  0  0  0  0  0
    6.5586  -13.0297    0.0000 C   0  0  0  0  0  0  0  0  0  0  0  0
    2.1862   -4.2849    0.0000 C   0  0  0  0  0  0  0  0  0  0  0  0
    0.6121   -6.8210    0.0000 C   0  0  0  0  0  0  0  0  0  0  0  0
    1.4866   -2.9732    0.0000 C   0  0  0  0  0  0  0  0  0  0  0  0
    0.6121   -7.6080    0.0000 C   0  0  0  0  0  0  0  0  0  0  0  0
    0.6996   -2.5360    0.0000 C   0  0  0  0  0  0  0  0  0  0  0  0
    0.0000   -1.2243    0.0000 C   0  0  0  0  0  0  0  0  0  0  0  0
    1.4866   -1.3117    0.0000 C   0  0  0  0  0  0  0  0  0  0  0  0
    0.0875   -0.4372    0.0000 C   0  0  0  0  0  0  0  0  0  0  0  0
    1.4866   -0.4372    0.0000 C   0  0  0  0  0  0  0  0  0  0  0  0
  1 22  1  0  0  0  0
  1 32  1  0  0  0  0
  2 18  1  0  0  0  0
  2 47  1  0  0  0  0
  3 27  2  0  0  0  0
  4 31  2  0  0  0  0
  5 48  2  0  0  0  0
  6 55  1  0  0  0  0
  6 56  1  0  0  0  0
  7 17  1  0  0  0  0
  7 27  1  0  0  0  0
  8 20  1  0  0  0  0
  8 27  1  0  0  0  0
  9 32  2  0  0  0  0
  9 35  1  0  0  0  0
 10 35  1  0  0  0  0
 10 39  1  0  0  0  0
 11 31  1  0  0  0  0
 12 35  2  0  0  0  0
 12 45  1  0  0  0  0
 13 48  1  0  0  0  0
 13 50  1  0  0  0  0
 14 52  1  0  0  0  0
 14 53  1  0  0  0  0
 14 54  1  0  0  0  0
 15 16  2  0  0  0  0
 15 20  1  0  0  0  0
 15 29  1  0  0  0  0
 16 22  1  0  0  0  0
 16 30  1  0  0  0  0
 17 18  1  0  0  0  0
 17 23  2  0  0  0  0
 18 19  2  0  0  0  0
 19 24  1  0  0  0  0
 19 31  1  0  0  0  0
 20 26  2  0  0  0  0
 21 23  1  0  0  0  0
 21 24  2  0  0  0  0
 21 25  1  0  0  0  0
 22 28  2  0  0  0  0
 25 36  1  0  0  0  0
 25 37  1  0  0  0  0
 25 38  1  0  0  0  0
 26 28  1  0  0  0  0
 29 33  2  0  0  0  0
 30 34  2  0  0  0  0
 32 40  1  0  0  0  0
 33 34  1  0  0  0  0
 39 42  2  0  0  0  0
 39 44  1  0  0  0  0
 40 45  2  0  0  0  0
 41 42  1  0  0  0  0
 41 46  2  0  0  0  0
 41 48  1  0  0  0  0
 43 44  2  0  0  0  0
 43 46  1  0  0  0  0
 43 49  1  0  0  0  0
 49 51  3  0  0  0  0
 50 52  1  0  0  0  0
 53 55  1  0  0  0  0
 54 56  1  0  0  0  0
M  END
> <PUBCHEM_COMPOUND_ID_TYPE>
0

> <PUBCHEM_TOTAL_CHARGE>
0

> <PUBCHEM_SUBSTANCE_ID>
310929200

> <PUBCHEM_SUBSTANCE_VERSION>
1

> <PUBCHEM_EXT_DATASOURCE_NAME>
4488

> <PUBCHEM_EXT_DATASOURCE_REGID>
SCHEMBL16106363

> <PUBCHEM_SUBSTANCE_COMMENT>
InChI=1S/C42H44N8O6/c1-6-26-21-27(39(52)44-15-16-50-17-19-55-20-18-50)23-29(22-26)46-40-45-14-13-36(49-40)56-35-12-11-33(30-9-7-8-10-31(30)35)47-41(53)48-34-25-28(42(2,3)4)24-32(38(43)51)37(34)54-5/h1,7-14,21-25H,15-20H2,2-5H3,(H2,43,51)(H,44,52)(H,45,46,49)(H2,47,48,53)
InChIKey=BVSCAJCLADHYTE-UHFFFAOYSA-N

> <PUBCHEM_SUBSTANCE_SYNONYM>
SCHEMBL16106363

> <PUBCHEM_XREF_EXT_ID>
SCHEMBL16106363

> <PUBCHEM_EXT_DATASOURCE_URL>
https://www.surechembl.org/

> <PUBCHEM_EXT_SUBSTANCE_URL>
https://www.surechembl.org/chemical/SCHEMBL16106363

> <PUBCHEM_CID_ASSOCIATIONS>
117598652  1

> <PUBCHEM_COORDINATE_TYPE>
1
3

$$$$
