310943613
  -OEChem-07211613022D

 44 48  0     0  0  0  0  0  0999 V2000
    4.2321    2.7512    0.0000 F   0  0  0  0  0  0  0  0  0  0  0  0
    5.3210    2.4464    0.0000 F   0  0  0  0  0  0  0  0  0  0  0  0
    5.0016    1.3575    0.0000 F   0  0  0  0  0  0  0  0  0  0  0  0
    1.7785    2.8820    0.0000 O   0  0  0  0  0  0  0  0  0  0  0  0
   -5.3210    2.8820    0.0000 O   0  0  0  0  0  0  0  0  0  0  0  0
   -1.0671   -2.0689    0.0000 O   0  0  0  0  0  0  0  0  0  0  0  0
    3.1868   -0.4138    0.0000 N   0  0  0  0  0  0  0  0  0  0  0  0
    1.0671    1.6478    0.0000 N   0  0  0  0  0  0  0  0  0  0  0  0
   -3.1868    0.8203    0.0000 N   0  0  0  0  0  0  0  0  0  0  0  0
   -3.8982    2.0544    0.0000 N   0  0  0  0  0  0  0  0  0  0  0  0
   -0.3557    3.3029    0.0000 N   0  0  0  0  0  0  0  0  0  0  0  0
   -2.4900   -0.4138    0.0000 N   0  0  0  0  0  0  0  0  0  0  0  0
    3.1868   -2.0689    0.0000 N   0  0  0  0  0  0  0  0  0  0  0  0
   -1.0816    2.0544    0.0000 C   0  0  0  0  0  0  0  0  0  0  0  0
    3.8982    1.6478    0.0000 C   0  0  0  0  0  0  0  0  0  0  0  0
   -1.7640    1.6478    0.0000 C   0  0  0  0  0  0  0  0  0  0  0  0
    2.4754    1.6478    0.0000 C   0  0  0  0  0  0  0  0  0  0  0  0
    3.1868    0.4283    0.0000 C   0  0  0  0  0  0  0  0  0  0  0  0
    4.6096    2.0544    0.0000 C   0  0  0  0  0  0  0  0  0  0  0  0
    3.1723    2.0544    0.0000 C   0  0  0  0  0  0  0  0  0  0  0  0
    1.7495    2.0398    0.0000 C   0  0  0  0  0  0  0  0  0  0  0  0
    3.8837    0.8203    0.0000 C   0  0  0  0  0  0  0  0  0  0  0  0
    2.4754    0.8349    0.0000 C   0  0  0  0  0  0  0  0  0  0  0  0
    0.3412    2.0544    0.0000 C   0  0  0  0  0  0  0  0  0  0  0  0
   -3.1868    1.6478    0.0000 C   0  0  0  0  0  0  0  0  0  0  0  0
   -1.0671    2.8964    0.0000 C   0  0  0  0  0  0  0  0  0  0  0  0
   -0.3557    1.6624    0.0000 C   0  0  0  0  0  0  0  0  0  0  0  0
   -2.4900    2.0544    0.0000 C   0  0  0  0  0  0  0  0  0  0  0  0
   -1.7785    0.8203    0.0000 C   0  0  0  0  0  0  0  0  0  0  0  0
   -2.4754    0.4138    0.0000 C   0  0  0  0  0  0  0  0  0  0  0  0
    0.3557    2.8820    0.0000 C   0  0  0  0  0  0  0  0  0  0  0  0
    2.4754   -0.8203    0.0000 C   0  0  0  0  0  0  0  0  0  0  0  0
    3.8982   -0.8349    0.0000 C   0  0  0  0  0  0  0  0  0  0  0  0
   -3.8982    2.8820    0.0000 C   0  0  0  0  0  0  0  0  0  0  0  0
   -4.6096    1.6624    0.0000 C   0  0  0  0  0  0  0  0  0  0  0  0
   -1.7785    3.2739    0.0000 C   0  0  0  0  0  0  0  0  0  0  0  0
    2.4754   -1.6478    0.0000 C   0  0  0  0  0  0  0  0  0  0  0  0
    3.8837   -1.6624    0.0000 C   0  0  0  0  0  0  0  0  0  0  0  0
   -4.6096    3.3029    0.0000 C   0  0  0  0  0  0  0  0  0  0  0  0
   -5.3210    2.0689    0.0000 C   0  0  0  0  0  0  0  0  0  0  0  0
   -1.7640   -0.8349    0.0000 C   0  0  0  0  0  0  0  0  0  0  0  0
    3.1868   -2.8964    0.0000 C   0  0  0  0  0  0  0  0  0  0  0  0
   -1.7785   -1.6478    0.0000 C   0  0  0  0  0  0  0  0  0  0  0  0
    3.9127   -3.3029    0.0000 C   0  0  0  0  0  0  0  0  0  0  0  0
  1 19  1  0  0  0  0
  2 19  1  0  0  0  0
  3 19  1  0  0  0  0
  4 21  2  0  0  0  0
  5 39  1  0  0  0  0
  5 40  1  0  0  0  0
  6 43  1  0  0  0  0
  7 18  1  0  0  0  0
  7 32  1  0  0  0  0
  7 33  1  0  0  0  0
  8 21  1  0  0  0  0
  8 24  1  0  0  0  0
  9 25  2  0  0  0  0
  9 30  1  0  0  0  0
 10 25  1  0  0  0  0
 10 34  1  0  0  0  0
 10 35  1  0  0  0  0
 11 26  2  0  0  0  0
 11 31  1  0  0  0  0
 12 30  1  0  0  0  0
 12 41  1  0  0  0  0
 13 37  1  0  0  0  0
 13 38  1  0  0  0  0
 13 42  1  0  0  0  0
 14 16  1  0  0  0  0
 14 26  1  0  0  0  0
 14 27  2  0  0  0  0
 15 19  1  0  0  0  0
 15 20  2  0  0  0  0
 15 22  1  0  0  0  0
 16 28  2  0  0  0  0
 16 29  1  0  0  0  0
 17 20  1  0  0  0  0
 17 21  1  0  0  0  0
 17 23  2  0  0  0  0
 18 22  2  0  0  0  0
 18 23  1  0  0  0  0
 24 27  1  0  0  0  0
 24 31  2  0  0  0  0
 25 28  1  0  0  0  0
 26 36  1  0  0  0  0
 29 30  2  0  0  0  0
 32 37  1  0  0  0  0
 33 38  1  0  0  0  0
 34 39  1  0  0  0  0
 35 40  1  0  0  0  0
 41 43  1  0  0  0  0
 42 44  1  0  0  0  0
M  END
> <PUBCHEM_COMPOUND_ID_TYPE>
0

> <PUBCHEM_TOTAL_CHARGE>
0

> <PUBCHEM_SUBSTANCE_ID>
310943613

> <PUBCHEM_SUBSTANCE_VERSION>
1

> <PUBCHEM_EXT_DATASOURCE_NAME>
4488

> <PUBCHEM_EXT_DATASOURCE_REGID>
SCHEMBL16121681

> <PUBCHEM_SUBSTANCE_COMMENT>
InChI=1S/C31H38F3N7O3/c1-3-39-5-7-40(8-6-39)26-15-23(14-24(18-26)31(32,33)34)30(43)37-25-19-27(21(2)36-20-25)22-16-28(35-4-11-42)38-29(17-22)41-9-12-44-13-10-41/h14-20,42H,3-13H2,1-2H3,(H,35,38)(H,37,43)
InChIKey=VRZMIGYJVATVCC-UHFFFAOYSA-N

> <PUBCHEM_SUBSTANCE_SYNONYM>
SCHEMBL16121681

> <PUBCHEM_XREF_EXT_ID>
SCHEMBL16121681

> <PUBCHEM_EXT_DATASOURCE_URL>
https://www.surechembl.org/

> <PUBCHEM_EXT_SUBSTANCE_URL>
https://www.surechembl.org/chemical/SCHEMBL16121681

> <PUBCHEM_CID_ASSOCIATIONS>
117610004  1

> <PUBCHEM_COORDINATE_TYPE>
1
3

$$$$
