310937237
  -OEChem-07211613022D

 27 30  0     0  0  0  0  0  0999 V2000
    0.0000   -3.9301    0.0000 F   0  0  0  0  0  0  0  0  0  0  0  0
    0.5932   -4.5975    0.0000 F   0  0  0  0  0  0  0  0  0  0  0  0
    2.6201    0.0000    0.0000 F   0  0  0  0  0  0  0  0  0  0  0  0
    1.5325   -0.8898    0.0000 F   0  0  0  0  0  0  0  0  0  0  0  0
    1.8044   -0.1236    0.0000 F   0  0  0  0  0  0  0  0  0  0  0  0
    6.5255   -3.4358    0.0000 O   0  0  0  0  0  0  0  0  0  0  0  0
    7.4153   -2.7684    0.0000 O   0  0  0  0  0  0  0  0  0  0  0  0
    2.5707   -2.1504    0.0000 O   0  0  0  0  0  0  0  0  0  0  0  0
    1.9527   -3.6582    0.0000 N   0  0  0  0  0  0  0  0  0  0  0  0
    5.5862   -2.4965    0.0000 N   0  0  0  0  0  0  0  0  0  0  0  0
    5.7840   -3.8066    0.0000 N   0  0  0  0  0  0  0  0  0  0  0  0
    4.1032   -4.0784    0.0000 N   0  0  0  0  0  0  0  0  0  0  0  0
    6.9952   -2.0516    0.0000 C   0  0  0  0  0  0  0  0  0  0  0  0
    6.4020   -2.6201    0.0000 C   0  0  0  0  0  0  0  0  0  0  0  0
    2.7931   -3.5594    0.0000 C   0  0  0  0  0  0  0  0  0  0  0  0
    5.2154   -3.2133    0.0000 C   0  0  0  0  0  0  0  0  0  0  0  0
    0.8157   -3.8066    0.0000 C   0  0  0  0  0  0  0  0  0  0  0  0
    4.3998   -3.3122    0.0000 C   0  0  0  0  0  0  0  0  0  0  0  0
    3.0897   -2.8178    0.0000 C   0  0  0  0  0  0  0  0  0  0  0  0
    6.3031   -1.6314    0.0000 C   0  0  0  0  0  0  0  0  0  0  0  0
    6.9952   -1.2112    0.0000 C   0  0  0  0  0  0  0  0  0  0  0  0
    1.4831   -4.3256    0.0000 C   0  0  0  0  0  0  0  0  0  0  0  0
    1.3101   -3.1392    0.0000 C   0  0  0  0  0  0  0  0  0  0  0  0
    3.9055   -2.6696    0.0000 C   0  0  0  0  0  0  0  0  0  0  0  0
    3.2875   -4.2268    0.0000 C   0  0  0  0  0  0  0  0  0  0  0  0
    2.8673   -1.4089    0.0000 C   0  0  0  0  0  0  0  0  0  0  0  0
    2.3482   -0.7663    0.0000 C   0  0  0  0  0  0  0  0  0  0  0  0
  1 17  1  0  0  0  0
  2 17  1  0  0  0  0
  3 27  1  0  0  0  0
  4 27  1  0  0  0  0
  5 27  1  0  0  0  0
  6 11  1  0  0  0  0
  6 14  1  0  0  0  0
  7 13  1  0  0  0  0
  8 19  1  0  0  0  0
  8 26  1  0  0  0  0
  9 15  1  0  0  0  0
  9 22  1  0  0  0  0
  9 23  1  0  0  0  0
 10 14  2  0  0  0  0
 10 16  1  0  0  0  0
 11 16  2  0  0  0  0
 12 18  1  0  0  0  0
 12 25  2  0  0  0  0
 13 14  1  0  0  0  0
 13 20  1  0  0  0  0
 13 21  1  0  0  0  0
 15 19  2  0  0  0  0
 15 25  1  0  0  0  0
 16 18  1  0  0  0  0
 17 22  1  0  0  0  0
 17 23  1  0  0  0  0
 18 24  2  0  0  0  0
 19 24  1  0  0  0  0
 20 21  1  0  0  0  0
 26 27  1  0  0  0  0
M  END
> <PUBCHEM_COMPOUND_ID_TYPE>
0

> <PUBCHEM_TOTAL_CHARGE>
0

> <PUBCHEM_SUBSTANCE_ID>
310937237

> <PUBCHEM_SUBSTANCE_VERSION>
1

> <PUBCHEM_EXT_DATASOURCE_NAME>
4488

> <PUBCHEM_EXT_DATASOURCE_REGID>
SCHEMBL16114973

> <PUBCHEM_SUBSTANCE_COMMENT>
InChI=1S/C15H13F5N4O3/c16-14(17)5-24(6-14)9-4-21-8(3-10(9)26-7-15(18,19)20)11-22-12(27-23-11)13(25)1-2-13/h3-4,25H,1-2,5-7H2
InChIKey=OKKGAGJJWHYLNZ-UHFFFAOYSA-N

> <PUBCHEM_SUBSTANCE_SYNONYM>
SCHEMBL16114973

> <PUBCHEM_XREF_EXT_ID>
SCHEMBL16114973

> <PUBCHEM_EXT_DATASOURCE_URL>
https://www.surechembl.org/

> <PUBCHEM_EXT_SUBSTANCE_URL>
https://www.surechembl.org/chemical/SCHEMBL16114973

> <PUBCHEM_CID_ASSOCIATIONS>
86275960  1

> <PUBCHEM_COORDINATE_TYPE>
1
3

$$$$
