310948144
  -OEChem-07211613022D

 50 56  0     0  0  0  0  0  0999 V2000
    3.5037   -2.6897    0.0000 S   0  0  0  0  0  0  0  0  0  0  0  0
   -4.1124    0.1274    0.0000 F   0  0  0  0  0  0  0  0  0  0  0  0
   -2.9374    0.3115    0.0000 F   0  0  0  0  0  0  0  0  0  0  0  0
    2.8808    3.4117    0.0000 F   0  0  0  0  0  0  0  0  0  0  0  0
    3.6311    2.5906    0.0000 F   0  0  0  0  0  0  0  0  0  0  0  0
    3.5037    0.1840    0.0000 F   0  0  0  0  0  0  0  0  0  0  0  0
   -1.4935    0.2548    0.0000 O   0  0  0  0  0  0  0  0  0  0  0  0
    1.9890    2.7463    0.0000 O   0  0  0  0  0  0  0  0  0  0  0  0
    2.8808    1.7554    0.0000 O   0  0  0  0  0  0  0  0  0  0  0  0
    2.7817   -3.1002    0.0000 O   0  0  0  0  0  0  0  0  0  0  0  0
    3.9284   -3.4117    0.0000 O   0  0  0  0  0  0  0  0  0  0  0  0
   -3.5886   -1.7979    0.0000 O   0  0  0  0  0  0  0  0  0  0  0  0
    4.7635   -0.5380    0.0000 O   0  0  0  0  0  0  0  0  0  0  0  0
   -0.9414    1.5006    0.0000 N   0  0  0  0  0  0  0  0  0  0  0  0
   -1.9890   -1.9111    0.0000 N   0  0  0  0  0  0  0  0  0  0  0  0
   -2.7817   -1.6563    0.0000 N   0  0  0  0  0  0  0  0  0  0  0  0
   -4.7635   -0.9343    0.0000 N   0  0  0  0  0  0  0  0  0  0  0  0
   -0.6724    0.1840    0.0000 C   0  0  0  0  0  0  0  0  0  0  0  0
   -0.2336   -0.5380    0.0000 C   0  0  0  0  0  0  0  0  0  0  0  0
   -0.3327    0.9343    0.0000 C   0  0  0  0  0  0  0  0  0  0  0  0
   -0.6582   -1.2458    0.0000 C   0  0  0  0  0  0  0  0  0  0  0  0
   -1.4935   -1.2458    0.0000 C   0  0  0  0  0  0  0  0  0  0  0  0
   -1.6633    1.0759    0.0000 C   0  0  0  0  0  0  0  0  0  0  0  0
    0.5026    1.1042    0.0000 C   0  0  0  0  0  0  0  0  0  0  0  0
    0.5875   -0.5380    0.0000 C   0  0  0  0  0  0  0  0  0  0  0  0
    0.9980   -1.2458    0.0000 C   0  0  0  0  0  0  0  0  0  0  0  0
   -2.4420    1.4439    0.0000 C   0  0  0  0  0  0  0  0  0  0  0  0
   -2.7534   -0.8211    0.0000 C   0  0  0  0  0  0  0  0  0  0  0  0
    1.5643    2.0527    0.0000 C   0  0  0  0  0  0  0  0  0  0  0  0
   -0.2336   -1.9536    0.0000 C   0  0  0  0  0  0  0  0  0  0  0  0
   -1.9748   -0.5804    0.0000 C   0  0  0  0  0  0  0  0  0  0  0  0
    1.8474   -1.2458    0.0000 C   0  0  0  0  0  0  0  0  0  0  0  0
    0.7574    1.8828    0.0000 C   0  0  0  0  0  0  0  0  0  0  0  0
    2.1163    1.4439    0.0000 C   0  0  0  0  0  0  0  0  0  0  0  0
   -3.4329   -0.3539    0.0000 C   0  0  0  0  0  0  0  0  0  0  0  0
    0.5875   -1.9536    0.0000 C   0  0  0  0  0  0  0  0  0  0  0  0
    1.0405    0.4813    0.0000 C   0  0  0  0  0  0  0  0  0  0  0  0
    2.7958    2.5906    0.0000 C   0  0  0  0  0  0  0  0  0  0  0  0
    3.0931   -1.9536    0.0000 C   0  0  0  0  0  0  0  0  0  0  0  0
   -3.1781    1.3307    0.0000 C   0  0  0  0  0  0  0  0  0  0  0  0
   -2.8666    2.0527    0.0000 C   0  0  0  0  0  0  0  0  0  0  0  0
    1.8615    0.6512    0.0000 C   0  0  0  0  0  0  0  0  0  0  0  0
    2.2580   -1.9536    0.0000 C   0  0  0  0  0  0  0  0  0  0  0  0
    3.5037   -1.2316    0.0000 C   0  0  0  0  0  0  0  0  0  0  0  0
    2.2721   -0.5380    0.0000 C   0  0  0  0  0  0  0  0  0  0  0  0
    3.0931   -0.5380    0.0000 C   0  0  0  0  0  0  0  0  0  0  0  0
   -3.9425   -1.0051    0.0000 C   0  0  0  0  0  0  0  0  0  0  0  0
   -1.6917   -2.7322    0.0000 C   0  0  0  0  0  0  0  0  0  0  0  0
    4.3389   -1.2458    0.0000 C   0  0  0  0  0  0  0  0  0  0  0  0
    4.2681   -2.2792    0.0000 C   0  0  0  0  0  0  0  0  0  0  0  0
  1 10  2  0  0  0  0
  1 11  2  0  0  0  0
  1 39  1  0  0  0  0
  1 50  1  0  0  0  0
  2 35  1  0  0  0  0
  3 35  1  0  0  0  0
  4 38  1  0  0  0  0
  5 38  1  0  0  0  0
  6 46  1  0  0  0  0
  7 18  1  0  0  0  0
  7 23  1  0  0  0  0
  8 29  1  0  0  0  0
  8 38  1  0  0  0  0
  9 34  1  0  0  0  0
  9 38  1  0  0  0  0
 12 47  2  0  0  0  0
 13 49  1  0  0  0  0
 14 20  1  0  0  0  0
 14 23  2  0  0  0  0
 15 16  1  0  0  0  0
 15 22  1  0  0  0  0
 15 48  1  0  0  0  0
 16 28  2  0  0  0  0
 17 47  1  0  0  0  0
 18 19  1  0  0  0  0
 18 20  2  0  0  0  0
 19 21  1  0  0  0  0
 19 25  2  0  0  0  0
 20 24  1  0  0  0  0
 21 22  1  0  0  0  0
 21 30  2  0  0  0  0
 22 31  2  0  0  0  0
 23 27  1  0  0  0  0
 24 33  1  0  0  0  0
 24 37  2  0  0  0  0
 25 26  1  0  0  0  0
 26 32  1  0  0  0  0
 26 36  2  0  0  0  0
 27 40  1  0  0  0  0
 27 41  1  0  0  0  0
 28 31  1  0  0  0  0
 28 35  1  0  0  0  0
 29 33  2  0  0  0  0
 29 34  1  0  0  0  0
 30 36  1  0  0  0  0
 32 43  2  0  0  0  0
 32 45  1  0  0  0  0
 34 42  2  0  0  0  0
 35 47  1  0  0  0  0
 37 42  1  0  0  0  0
 39 43  1  0  0  0  0
 39 44  2  0  0  0  0
 40 41  1  0  0  0  0
 44 46  1  0  0  0  0
 44 49  1  0  0  0  0
 45 46  2  0  0  0  0
M  END
> <PUBCHEM_COMPOUND_ID_TYPE>
0

> <PUBCHEM_TOTAL_CHARGE>
0

> <PUBCHEM_SUBSTANCE_ID>
310948144

> <PUBCHEM_SUBSTANCE_VERSION>
1

> <PUBCHEM_EXT_DATASOURCE_NAME>
4488

> <PUBCHEM_EXT_DATASOURCE_REGID>
SCHEMBL16126321

> <PUBCHEM_SUBSTANCE_COMMENT>
InChI=1S/C33H25F5N4O7S/c1-42-23(13-27(41-42)32(35,36)31(39)44)19-7-5-16(18-10-22(34)21(14-43)26(12-18)50(2,45)46)9-20(19)29-28(40-30(47-29)15-3-4-15)17-6-8-24-25(11-17)49-33(37,38)48-24/h5-13,15,43H,3-4,14H2,1-2H3,(H2,39,44)
InChIKey=LJFDHNAXYXHWHU-UHFFFAOYSA-N

> <PUBCHEM_SUBSTANCE_SYNONYM>
SCHEMBL16126321

> <PUBCHEM_XREF_EXT_ID>
SCHEMBL16126321

> <PUBCHEM_EXT_DATASOURCE_URL>
https://www.surechembl.org/

> <PUBCHEM_EXT_SUBSTANCE_URL>
https://www.surechembl.org/chemical/SCHEMBL16126321

> <PUBCHEM_CID_ASSOCIATIONS>
86275844  1

> <PUBCHEM_COORDINATE_TYPE>
1
3

$$$$
