310934356
  -OEChem-07211613022D

 26 28  0     0  0  0  0  0  0999 V2000
    7.3605   -0.7098    0.0000 S   0  0  0  0  0  0  0  0  0  0  0  0
    1.7087   -2.1293    0.0000 F   0  0  0  0  0  0  0  0  0  0  0  0
    3.7854   -3.4699    0.0000 O   0  0  0  0  0  0  0  0  0  0  0  0
    4.4426    0.0000    0.0000 O   0  0  0  0  0  0  0  0  0  0  0  0
    0.0789   -4.4426    0.0000 O   0  0  0  0  0  0  0  0  0  0  0  0
    3.6014   -1.4195    0.0000 O   0  0  0  0  0  0  0  0  0  0  0  0
    5.2575   -1.4458    0.0000 N   0  0  0  0  0  0  0  0  0  0  0  0
    4.3900   -2.9179    0.0000 N   0  0  0  0  0  0  0  0  0  0  0  0
    4.4426   -1.4195    0.0000 N   0  0  0  0  0  0  0  0  0  0  0  0
    5.6781   -0.7098    0.0000 C   0  0  0  0  0  0  0  0  0  0  0  0
    3.0756   -3.0494    0.0000 C   0  0  0  0  0  0  0  0  0  0  0  0
    2.3133   -3.3911    0.0000 C   0  0  0  0  0  0  0  0  0  0  0  0
    4.8369   -0.7098    0.0000 C   0  0  0  0  0  0  0  0  0  0  0  0
    4.0483   -2.1556    0.0000 C   0  0  0  0  0  0  0  0  0  0  0  0
    3.2071   -2.2607    0.0000 C   0  0  0  0  0  0  0  0  0  0  0  0
    6.0987   -1.4195    0.0000 C   0  0  0  0  0  0  0  0  0  0  0  0
    6.0987    0.0000    0.0000 C   0  0  0  0  0  0  0  0  0  0  0  0
    1.6561   -2.9442    0.0000 C   0  0  0  0  0  0  0  0  0  0  0  0
    4.6266   -1.6035    0.0000 C   0  0  0  0  0  0  0  0  0  0  0  0
    2.2344   -4.2323    0.0000 C   0  0  0  0  0  0  0  0  0  0  0  0
    0.8938   -3.2860    0.0000 C   0  0  0  0  0  0  0  0  0  0  0  0
    0.8149   -4.0745    0.0000 C   0  0  0  0  0  0  0  0  0  0  0  0
    6.9136   -1.4195    0.0000 C   0  0  0  0  0  0  0  0  0  0  0  0
    6.9136    0.0000    0.0000 C   0  0  0  0  0  0  0  0  0  0  0  0
    1.4984   -4.5740    0.0000 C   0  0  0  0  0  0  0  0  0  0  0  0
    0.0000   -5.2575    0.0000 C   0  0  0  0  0  0  0  0  0  0  0  0
  1 23  1  0  0  0  0
  1 24  1  0  0  0  0
  2 18  1  0  0  0  0
  3  8  1  0  0  0  0
  3 11  1  0  0  0  0
  4 13  2  0  0  0  0
  5 22  1  0  0  0  0
  5 26  1  0  0  0  0
  6  9  1  0  0  0  0
  7 10  1  0  0  0  0
  7 19  1  0  0  0  0
  8 14  2  0  0  0  0
  9 13  1  0  0  0  0
 10 13  1  0  0  0  0
 10 16  1  0  0  0  0
 10 17  1  0  0  0  0
 11 12  1  0  0  0  0
 11 15  2  0  0  0  0
 12 18  1  0  0  0  0
 12 20  2  0  0  0  0
 14 15  1  0  0  0  0
 14 19  1  0  0  0  0
 16 23  1  0  0  0  0
 17 24  1  0  0  0  0
 18 21  2  0  0  0  0
 20 25  1  0  0  0  0
 21 22  1  0  0  0  0
 22 25  2  0  0  0  0
M  END
> <PUBCHEM_COMPOUND_ID_TYPE>
0

> <PUBCHEM_TOTAL_CHARGE>
0

> <PUBCHEM_SUBSTANCE_ID>
310934356

> <PUBCHEM_SUBSTANCE_VERSION>
1

> <PUBCHEM_EXT_DATASOURCE_NAME>
4488

> <PUBCHEM_EXT_DATASOURCE_REGID>
SCHEMBL16111821

> <PUBCHEM_SUBSTANCE_COMMENT>
InChI=1S/C17H20FN3O4S/c1-24-12-2-3-13(14(18)9-12)15-8-11(21-25-15)10-19-17(16(22)20-23)4-6-26-7-5-17/h2-3,8-9,19,23H,4-7,10H2,1H3,(H,20,22)
InChIKey=FFTWWVZDLSWDEA-UHFFFAOYSA-N

> <PUBCHEM_SUBSTANCE_SYNONYM>
SCHEMBL16111821

> <PUBCHEM_XREF_EXT_ID>
SCHEMBL16111821

> <PUBCHEM_EXT_DATASOURCE_URL>
https://www.surechembl.org/

> <PUBCHEM_EXT_SUBSTANCE_URL>
https://www.surechembl.org/chemical/SCHEMBL16111821

> <PUBCHEM_CID_ASSOCIATIONS>
117602585  1

> <PUBCHEM_COORDINATE_TYPE>
1
3

$$$$
