310933614
  -OEChem-07211613022D

 14 15  0     0  0  0  0  0  0999 V2000
    0.7260    0.0000    0.0000 O   0  0  0  0  0  0  0  0  0  0  0  0
    0.0000   -1.2374    0.0000 O   0  0  0  0  0  0  0  0  0  0  0  0
    1.4189   -1.2374    0.0000 N   0  0  0  0  0  0  0  0  0  0  0  0
    3.5638   -3.2998    0.0000 N   0  0  0  0  0  0  0  0  0  0  0  0
    2.8708   -2.0624    0.0000 C   0  0  0  0  0  0  0  0  0  0  0  0
    2.8708   -1.2374    0.0000 C   0  0  0  0  0  0  0  0  0  0  0  0
    2.1614   -0.8249    0.0000 C   0  0  0  0  0  0  0  0  0  0  0  0
    3.5638   -2.4749    0.0000 C   0  0  0  0  0  0  0  0  0  0  0  0
    2.1614   -2.4749    0.0000 C   0  0  0  0  0  0  0  0  0  0  0  0
    1.4189   -2.0624    0.0000 C   0  0  0  0  0  0  0  0  0  0  0  0
    0.7094   -0.8249    0.0000 C   0  0  0  0  0  0  0  0  0  0  0  0
    3.5638   -0.8249    0.0000 C   0  0  0  0  0  0  0  0  0  0  0  0
    4.2898   -2.0624    0.0000 C   0  0  0  0  0  0  0  0  0  0  0  0
    4.2898   -1.2374    0.0000 C   0  0  0  0  0  0  0  0  0  0  0  0
  1 11  2  0  0  0  0
  2 11  1  0  0  0  0
  3  7  1  0  0  0  0
  3 10  1  0  0  0  0
  3 11  1  0  0  0  0
  4  8  1  0  0  0  0
  5  6  2  0  0  0  0
  5  8  1  0  0  0  0
  5  9  1  0  0  0  0
  6  7  1  0  0  0  0
  6 12  1  0  0  0  0
  8 13  2  0  0  0  0
  9 10  1  0  0  0  0
 12 14  2  0  0  0  0
 13 14  1  0  0  0  0
M  END
> <PUBCHEM_COMPOUND_ID_TYPE>
0

> <PUBCHEM_TOTAL_CHARGE>
0

> <PUBCHEM_SUBSTANCE_ID>
310933614

> <PUBCHEM_SUBSTANCE_VERSION>
1

> <PUBCHEM_EXT_DATASOURCE_NAME>
4488

> <PUBCHEM_EXT_DATASOURCE_REGID>
SCHEMBL16111044

> <PUBCHEM_SUBSTANCE_COMMENT>
InChI=1S/C10H12N2O2/c11-9-3-1-2-7-6-12(10(13)14)5-4-8(7)9/h1-3H,4-6,11H2,(H,13,14)
InChIKey=OEHMIEPOJOBXOX-UHFFFAOYSA-N

> <PUBCHEM_SUBSTANCE_SYNONYM>
SCHEMBL16111044

> <PUBCHEM_XREF_EXT_ID>
SCHEMBL16111044

> <PUBCHEM_EXT_DATASOURCE_URL>
https://www.surechembl.org/

> <PUBCHEM_EXT_SUBSTANCE_URL>
https://www.surechembl.org/chemical/SCHEMBL16111044

> <PUBCHEM_CID_ASSOCIATIONS>
91273335  1

> <PUBCHEM_COORDINATE_TYPE>
1
3

$$$$
