310933396
  -OEChem-07211613022D

 27 31  0     0  0  0  0  0  0999 V2000
    4.1138   -0.0278    0.0000 Br  0  0  0  0  0  0  0  0  0  0  0  0
    0.0000   -4.4751    0.0000 O   0  0  0  0  0  0  0  0  0  0  0  0
    5.5314   -3.3355    0.0000 O   0  0  0  0  0  0  0  0  0  0  0  0
    4.2250   -2.6684    0.0000 N   0  0  0  0  0  0  0  0  0  0  0  0
    4.2250   -4.0026    0.0000 N   0  0  0  0  0  0  0  0  0  0  0  0
    1.9735   -0.4447    0.0000 N   0  0  0  0  0  0  0  0  0  0  0  0
    0.3892   -5.1978    0.0000 N   0  0  0  0  0  0  0  0  0  0  0  0
    2.6962   -2.5016    0.0000 C   0  0  0  0  0  0  0  0  0  0  0  0
    3.4189   -2.9186    0.0000 C   0  0  0  0  0  0  0  0  0  0  0  0
    2.6962   -1.6956    0.0000 C   0  0  0  0  0  0  0  0  0  0  0  0
    3.4189   -3.7802    0.0000 C   0  0  0  0  0  0  0  0  0  0  0  0
    2.0013   -3.7802    0.0000 C   0  0  0  0  0  0  0  0  0  0  0  0
    1.9735   -1.2508    0.0000 C   0  0  0  0  0  0  0  0  0  0  0  0
    2.0013   -2.9186    0.0000 C   0  0  0  0  0  0  0  0  0  0  0  0
    1.3064   -4.1971    0.0000 C   0  0  0  0  0  0  0  0  0  0  0  0
    2.6962   -4.1694    0.0000 C   0  0  0  0  0  0  0  0  0  0  0  0
    1.2508   -1.6677    0.0000 C   0  0  0  0  0  0  0  0  0  0  0  0
    4.6975   -3.3355    0.0000 C   0  0  0  0  0  0  0  0  0  0  0  0
    0.5281   -3.8636    0.0000 C   0  0  0  0  0  0  0  0  0  0  0  0
    1.1952   -5.0032    0.0000 C   0  0  0  0  0  0  0  0  0  0  0  0
    3.3911   -1.2508    0.0000 C   0  0  0  0  0  0  0  0  0  0  0  0
    0.8339   -2.3626    0.0000 C   0  0  0  0  0  0  0  0  0  0  0  0
    0.4169   -1.6677    0.0000 C   0  0  0  0  0  0  0  0  0  0  0  0
    3.3911   -0.4169    0.0000 C   0  0  0  0  0  0  0  0  0  0  0  0
    2.6684    0.0000    0.0000 C   0  0  0  0  0  0  0  0  0  0  0  0
    0.3614   -3.0575    0.0000 C   0  0  0  0  0  0  0  0  0  0  0  0
    1.8345   -5.5592    0.0000 C   0  0  0  0  0  0  0  0  0  0  0  0
  1 24  1  0  0  0  0
  2  7  1  0  0  0  0
  2 19  1  0  0  0  0
  3 18  2  0  0  0  0
  4  9  1  0  0  0  0
  4 18  1  0  0  0  0
  5 11  1  0  0  0  0
  5 18  1  0  0  0  0
  6 13  1  0  0  0  0
  6 25  2  0  0  0  0
  7 20  2  0  0  0  0
  8  9  1  0  0  0  0
  8 10  1  0  0  0  0
  8 14  2  0  0  0  0
  9 11  2  0  0  0  0
 10 13  2  0  0  0  0
 10 21  1  0  0  0  0
 11 16  1  0  0  0  0
 12 14  1  0  0  0  0
 12 15  1  0  0  0  0
 12 16  2  0  0  0  0
 13 17  1  0  0  0  0
 15 19  2  0  0  0  0
 15 20  1  0  0  0  0
 17 22  1  0  0  0  0
 17 23  1  0  0  0  0
 19 26  1  0  0  0  0
 20 27  1  0  0  0  0
 21 24  2  0  0  0  0
 22 23  1  0  0  0  0
 24 25  1  0  0  0  0
M  END
> <PUBCHEM_COMPOUND_ID_TYPE>
0

> <PUBCHEM_TOTAL_CHARGE>
0

> <PUBCHEM_SUBSTANCE_ID>
310933396

> <PUBCHEM_SUBSTANCE_VERSION>
1

> <PUBCHEM_EXT_DATASOURCE_NAME>
4488

> <PUBCHEM_EXT_DATASOURCE_REGID>
SCHEMBL16110812

> <PUBCHEM_SUBSTANCE_COMMENT>
InChI=1S/C20H17BrN4O2/c1-9-17(10(2)27-25-9)12-5-14(19-16(6-12)23-20(26)24-19)15-7-13(21)8-22-18(15)11-3-4-11/h5-8,11H,3-4H2,1-2H3,(H2,23,24,26)
InChIKey=QSXVSCFNHPEEFI-UHFFFAOYSA-N

> <PUBCHEM_SUBSTANCE_SYNONYM>
SCHEMBL16110812

> <PUBCHEM_XREF_EXT_ID>
SCHEMBL16110812

> <PUBCHEM_EXT_DATASOURCE_URL>
https://www.surechembl.org/

> <PUBCHEM_EXT_SUBSTANCE_URL>
https://www.surechembl.org/chemical/SCHEMBL16110812

> <PUBCHEM_CID_ASSOCIATIONS>
117601807  1

> <PUBCHEM_COORDINATE_TYPE>
1
3

$$$$
