310948786
  -OEChem-07211613022D

 41 43  0     1  0  0  0  0  0999 V2000
   -2.5246    1.1715    0.0000 O   0  0  0  0  0  0  0  0  0  0  0  0
   -2.5246   -1.3200    0.0000 O   0  0  0  0  0  0  0  0  0  0  0  0
   -1.0890   -0.4950    0.0000 O   0  0  0  0  0  0  0  0  0  0  0  0
   -3.9766   -0.4950    0.0000 O   0  0  0  0  0  0  0  0  0  0  0  0
   -1.0231    1.1056    0.0000 O   0  0  0  0  0  0  0  0  0  0  0  0
    3.2506    2.5411    0.0000 O   0  0  0  0  0  0  0  0  0  0  0  0
    4.0262   -0.2970    0.0000 O   0  0  0  0  0  0  0  0  0  0  0  0
   -4.7027    0.7590    0.0000 O   0  0  0  0  0  0  0  0  0  0  0  0
    1.1385    0.6930    0.0000 O   0  0  0  0  0  0  0  0  0  0  0  0
   -1.0231   -2.0131    0.0000 O   0  0  0  0  0  0  0  0  0  0  0  0
   -3.8776   -1.3695    0.0000 O   0  0  0  0  0  0  0  0  0  0  0  0
   -4.7027    0.6930    0.0000 O   0  0  0  0  0  0  0  0  0  0  0  0
   -5.4122    1.9636    0.0000 O   0  0  0  0  0  0  0  0  0  0  0  0
    3.3826    1.0395    0.0000 N   0  0  0  0  0  0  0  0  0  0  0  0
    0.1980   -1.0890    0.0000 N   0  0  0  0  0  0  0  0  0  0  0  0
   -2.5246   -0.4785    0.0000 C   0  0  3  0  0  0  0  0  0  0  0  0
   -1.8150   -0.0660    0.0000 C   0  0  3  0  0  0  0  0  0  0  0  0
   -3.2506   -0.0660    0.0000 C   0  0  3  0  0  0  0  0  0  0  0  0
   -1.8150    0.7590    0.0000 C   0  0  3  0  0  0  0  0  0  0  0  0
   -3.2506    0.7590    0.0000 C   0  0  3  0  0  0  0  0  0  0  0  0
    4.5046    1.7821    0.0000 C   0  0  0  0  0  0  0  0  0  0  0  0
    4.7192    1.0065    0.0000 C   0  0  0  0  0  0  0  0  0  0  0  0
    3.6796    1.8316    0.0000 C   0  0  0  0  0  0  0  0  0  0  0  0
    4.0262    0.5610    0.0000 C   0  0  0  0  0  0  0  0  0  0  0  0
   -3.9931    1.1715    0.0000 C   0  0  0  0  0  0  0  0  0  0  0  0
    5.0822    2.3595    0.0000 C   0  0  0  0  0  0  0  0  0  0  0  0
    5.5442    0.7921    0.0000 C   0  0  0  0  0  0  0  0  0  0  0  0
    2.5906    0.7095    0.0000 C   0  0  0  0  0  0  0  0  0  0  0  0
   -0.6106   -1.2376    0.0000 C   0  0  0  0  0  0  0  0  0  0  0  0
   -3.2341   -1.7491    0.0000 C   0  0  0  0  0  0  0  0  0  0  0  0
   -4.7027   -0.0825    0.0000 C   0  0  0  0  0  0  0  0  0  0  0  0
    5.8907    2.1616    0.0000 C   0  0  0  0  0  0  0  0  0  0  0  0
    6.1052    1.3530    0.0000 C   0  0  0  0  0  0  0  0  0  0  0  0
   -0.2970    0.7095    0.0000 C   0  0  0  0  0  0  0  0  0  0  0  0
    1.8645    1.1220    0.0000 C   0  0  0  0  0  0  0  0  0  0  0  0
    0.4125    1.1220    0.0000 C   0  0  0  0  0  0  0  0  0  0  0  0
   -5.4287    1.1880    0.0000 C   0  0  0  0  0  0  0  0  0  0  0  0
   -3.2176   -2.5411    0.0000 C   0  0  0  0  0  0  0  0  0  0  0  0
   -5.3957   -0.4950    0.0000 C   0  0  0  0  0  0  0  0  0  0  0  0
    0.6106   -1.7986    0.0000 C   0  0  0  0  0  0  0  0  0  0  0  0
   -6.1052    0.7590    0.0000 C   0  0  0  0  0  0  0  0  0  0  0  0
  1 19  1  0  0  0  0
  1 20  1  0  0  0  0
 16  2  1  1  0  0  0
  2 30  1  0  0  0  0
 17  3  1  1  0  0  0
  3 29  1  0  0  0  0
 18  4  1  6  0  0  0
  4 31  1  0  0  0  0
 19  5  1  6  0  0  0
  5 34  1  0  0  0  0
  6 23  2  0  0  0  0
  7 24  2  0  0  0  0
  8 25  1  0  0  0  0
  8 37  1  0  0  0  0
  9 35  1  0  0  0  0
  9 36  1  0  0  0  0
 10 29  2  0  0  0  0
 11 30  2  0  0  0  0
 12 31  2  0  0  0  0
 13 37  2  0  0  0  0
 14 23  1  0  0  0  0
 14 24  1  0  0  0  0
 14 28  1  0  0  0  0
 15 29  1  0  0  0  0
 15 40  1  0  0  0  0
 16 17  1  0  0  0  0
 16 18  1  0  0  0  0
 17 19  1  0  0  0  0
 18 20  1  0  0  0  0
 20 25  1  1  0  0  0
 21 22  1  0  0  0  0
 21 23  1  0  0  0  0
 21 26  2  0  0  0  0
 22 24  1  0  0  0  0
 22 27  2  0  0  0  0
 26 32  1  0  0  0  0
 27 33  1  0  0  0  0
 28 35  1  0  0  0  0
 30 38  1  0  0  0  0
 31 39  1  0  0  0  0
 32 33  2  0  0  0  0
 34 36  1  0  0  0  0
 37 41  1  0  0  0  0
M  END
> <PUBCHEM_COMPOUND_ID_TYPE>
0

> <PUBCHEM_TOTAL_CHARGE>
0

> <PUBCHEM_SUBSTANCE_ID>
310948786

> <PUBCHEM_SUBSTANCE_VERSION>
1

> <PUBCHEM_EXT_DATASOURCE_NAME>
4488

> <PUBCHEM_EXT_DATASOURCE_REGID>
SCHEMBL16126970

> <PUBCHEM_SUBSTANCE_COMMENT>
InChI=1S/C26H32N2O13/c1-14(29)37-13-19-20(38-15(2)30)21(39-16(3)31)22(41-26(34)27-4)25(40-19)36-12-11-35-10-9-28-23(32)17-7-5-6-8-18(17)24(28)33/h5-8,19-22,25H,9-13H2,1-4H3,(H,27,34)/t19-,20-,21+,22+,25+/m1/s1
InChIKey=BKHKIPLWBKOTLT-QBSOXGLUSA-N

> <PUBCHEM_SUBSTANCE_SYNONYM>
SCHEMBL16126970

> <PUBCHEM_XREF_EXT_ID>
SCHEMBL16126970

> <PUBCHEM_EXT_DATASOURCE_URL>
https://www.surechembl.org/

> <PUBCHEM_EXT_SUBSTANCE_URL>
https://www.surechembl.org/chemical/SCHEMBL16126970

> <PUBCHEM_CID_ASSOCIATIONS>
117614327  1

> <PUBCHEM_COORDINATE_TYPE>
1
3

> <PUBCHEM_BONDANNOTATIONS>
16  2  5
20  25  5
17  3  5
18  4  6
19  5  6

$$$$
