310941284
  -OEChem-07211613022D

 43 46  0     1  0  0  0  0  0999 V2000
    3.9467   -3.0545    0.0000 O   0  0  0  0  0  0  0  0  0  0  0  0
    1.6771   -3.0545    0.0000 O   0  0  0  0  0  0  0  0  0  0  0  0
    2.4052    0.0856    0.0000 O   0  0  0  0  0  0  0  0  0  0  0  0
   -0.4638    0.9136    0.0000 O   0  0  0  0  0  0  0  0  0  0  0  0
    2.4052    3.3971    0.0000 O   0  0  0  0  0  0  0  0  0  0  0  0
    3.8324    0.9136    0.0000 O   0  0  0  0  0  0  0  0  0  0  0  0
   -2.6192   -1.1562    0.0000 O   0  0  0  0  0  0  0  0  0  0  0  0
   -5.4739   -1.1562    0.0000 O   0  0  0  0  0  0  0  0  0  0  0  0
    1.6771   -1.1419    0.0000 N   0  0  0  0  0  0  0  0  0  0  0  0
    0.2498   -0.3140    0.0000 N   0  0  0  0  0  0  0  0  0  0  0  0
   -1.8912    0.0999    0.0000 N   0  0  0  0  0  0  0  0  0  0  0  0
   -4.0466   -0.3140    0.0000 N   0  0  0  0  0  0  0  0  0  0  0  0
    3.1045   -3.0117    0.0000 C   0  0  3  0  0  0  0  0  0  0  0  0
    2.3909   -2.6120    0.0000 C   0  0  0  0  0  0  0  0  0  0  0  0
    3.5184   -2.3408    0.0000 C   0  0  0  0  0  0  0  0  0  0  0  0
    2.4052   -1.5558    0.0000 C   0  0  3  0  0  0  0  0  0  0  0  0
    3.1187   -3.8395    0.0000 C   0  0  0  0  0  0  0  0  0  0  0  0
    3.3186   -1.0278    0.0000 C   0  0  0  0  0  0  0  0  0  0  0  0
    1.6771   -0.3140    0.0000 C   0  0  0  0  0  0  0  0  0  0  0  0
    0.9635    0.0999    0.0000 C   0  0  3  0  0  0  0  0  0  0  0  0
    4.0466   -1.4274    0.0000 C   0  0  0  0  0  0  0  0  0  0  0  0
    0.9778    0.9278    0.0000 C   0  0  0  0  0  0  0  0  0  0  0  0
    1.6771    1.3417    0.0000 C   0  0  0  0  0  0  0  0  0  0  0  0
   -0.4781    0.0856    0.0000 C   0  0  0  0  0  0  0  0  0  0  0  0
    4.0466   -2.2552    0.0000 C   0  0  0  0  0  0  0  0  0  0  0  0
    4.7745   -1.0278    0.0000 C   0  0  0  0  0  0  0  0  0  0  0  0
    1.7056    2.1696    0.0000 C   0  0  0  0  0  0  0  0  0  0  0  0
    2.3909    0.9421    0.0000 C   0  0  0  0  0  0  0  0  0  0  0  0
    2.3909    2.5835    0.0000 C   0  0  0  0  0  0  0  0  0  0  0  0
   -1.1776   -0.3140    0.0000 C   0  0  3  0  0  0  0  0  0  0  0  0
    3.1045    1.3560    0.0000 C   0  0  0  0  0  0  0  0  0  0  0  0
    3.1045    2.1696    0.0000 C   0  0  0  0  0  0  0  0  0  0  0  0
    4.7602   -2.6692    0.0000 C   0  0  0  0  0  0  0  0  0  0  0  0
    5.4739   -1.4416    0.0000 C   0  0  0  0  0  0  0  0  0  0  0  0
    5.4739   -2.2552    0.0000 C   0  0  0  0  0  0  0  0  0  0  0  0
   -2.6050   -0.2855    0.0000 C   0  0  0  0  0  0  0  0  0  0  0  0
   -1.1776   -1.0991    0.0000 C   0  0  0  0  0  0  0  0  0  0  0  0
   -3.3328    0.0999    0.0000 C   0  0  0  0  0  0  0  0  0  0  0  0
   -4.0609   -1.1562    0.0000 C   0  0  0  0  0  0  0  0  0  0  0  0
   -4.7745    0.0999    0.0000 C   0  0  0  0  0  0  0  0  0  0  0  0
    3.1187    3.8395    0.0000 C   0  0  0  0  0  0  0  0  0  0  0  0
   -4.7602   -1.5558    0.0000 C   0  0  0  0  0  0  0  0  0  0  0  0
   -5.4739   -0.3140    0.0000 C   0  0  0  0  0  0  0  0  0  0  0  0
  1 13  1  0  0  0  0
  1 15  1  0  0  0  0
  2 14  2  0  0  0  0
  3 19  2  0  0  0  0
  4 24  2  0  0  0  0
  5 29  1  0  0  0  0
  5 41  1  0  0  0  0
  6 31  1  0  0  0  0
  7 36  2  0  0  0  0
  8 42  1  0  0  0  0
  8 43  1  0  0  0  0
 16  9  1  1  0  0  0
  9 19  1  0  0  0  0
 20 10  1  1  0  0  0
 10 24  1  0  0  0  0
 11 30  1  0  0  0  0
 11 36  1  0  0  0  0
 12 38  1  0  0  0  0
 12 39  1  0  0  0  0
 12 40  1  0  0  0  0
 13 14  1  1  0  0  0
 13 15  1  0  0  0  0
 13 17  1  6  0  0  0
 14 16  1  0  0  0  0
 16 18  1  0  0  0  0
 18 21  1  0  0  0  0
 19 20  1  0  0  0  0
 20 22  1  0  0  0  0
 21 25  2  0  0  0  0
 21 26  1  0  0  0  0
 22 23  1  0  0  0  0
 23 27  2  0  0  0  0
 23 28  1  0  0  0  0
 24 30  1  0  0  0  0
 25 33  1  0  0  0  0
 26 34  2  0  0  0  0
 27 29  1  0  0  0  0
 28 31  2  0  0  0  0
 29 32  2  0  0  0  0
 30 37  1  6  0  0  0
 31 32  1  0  0  0  0
 33 35  2  0  0  0  0
 34 35  1  0  0  0  0
 36 38  1  0  0  0  0
 39 42  1  0  0  0  0
 40 43  1  0  0  0  0
M  END
> <PUBCHEM_COMPOUND_ID_TYPE>
0

> <PUBCHEM_TOTAL_CHARGE>
0

> <PUBCHEM_SUBSTANCE_ID>
310941284

> <PUBCHEM_SUBSTANCE_VERSION>
1

> <PUBCHEM_EXT_DATASOURCE_NAME>
4488

> <PUBCHEM_EXT_DATASOURCE_REGID>
SCHEMBL16119244

> <PUBCHEM_SUBSTANCE_COMMENT>
InChI=1S/C31H40N4O8/c1-20(32-27(37)18-35-9-11-42-12-10-35)29(39)34-26(16-22-13-23(36)17-24(14-22)41-3)30(40)33-25(28(38)31(2)19-43-31)15-21-7-5-4-6-8-21/h4-8,13-14,17,20,25-26,36H,9-12,15-16,18-19H2,1-3H3,(H,32,37)(H,33,40)(H,34,39)/t20-,25-,26-,31+/m0/s1
InChIKey=QZMCZFUTPDADDC-SGOONUSTSA-N

> <PUBCHEM_SUBSTANCE_SYNONYM>
SCHEMBL16119244

> <PUBCHEM_XREF_EXT_ID>
SCHEMBL16119244

> <PUBCHEM_EXT_DATASOURCE_URL>
https://www.surechembl.org/

> <PUBCHEM_EXT_SUBSTANCE_URL>
https://www.surechembl.org/chemical/SCHEMBL16119244

> <PUBCHEM_CID_ASSOCIATIONS>
117608133  1

> <PUBCHEM_COORDINATE_TYPE>
1
3

> <PUBCHEM_BONDANNOTATIONS>
20  10  5
13  14  5
13  17  6
30  37  6
16  9  5

$$$$
