310942632
  -OEChem-07211613022D

 13 13  0     0  0  0  0  0  0999 V2000
    2.3734    0.5299    0.0000 I   0  0  0  0  0  0  0  0  0  0  0  0
   -0.5299   -1.2557    0.0000 O   0  0  0  0  0  0  0  0  0  0  0  0
   -1.9960    1.2557    0.0000 O   0  0  0  0  0  0  0  0  0  0  0  0
    1.8073   -0.7185    0.0000 O   0  0  0  0  0  0  0  0  0  0  0  0
   -1.0670    0.1089    0.0000 N   0  0  0  0  0  0  0  0  0  0  0  0
    1.0814    0.5299    0.0000 N   0  0  0  0  0  0  0  0  0  0  0  0
   -1.1830   -0.6750    0.0000 C   0  0  0  0  0  0  0  0  0  0  0  0
   -1.8217    0.4283    0.0000 C   0  0  0  0  0  0  0  0  0  0  0  0
   -1.9524   -0.8782    0.0000 C   0  0  0  0  0  0  0  0  0  0  0  0
   -2.3734   -0.1669    0.0000 C   0  0  0  0  0  0  0  0  0  0  0  0
   -0.3412    0.5299    0.0000 C   0  0  0  0  0  0  0  0  0  0  0  0
    0.3847    0.1234    0.0000 C   0  0  0  0  0  0  0  0  0  0  0  0
    1.8073    0.1379    0.0000 C   0  0  0  0  0  0  0  0  0  0  0  0
  1 13  1  0  0  0  0
  2  7  2  0  0  0  0
  3  8  2  0  0  0  0
  4 13  2  0  0  0  0
  5  7  1  0  0  0  0
  5  8  1  0  0  0  0
  5 11  1  0  0  0  0
  6 12  1  0  0  0  0
  6 13  1  0  0  0  0
  7  9  1  0  0  0  0
  8 10  1  0  0  0  0
  9 10  2  0  0  0  0
 11 12  1  0  0  0  0
M  END
> <PUBCHEM_COMPOUND_ID_TYPE>
0

> <PUBCHEM_TOTAL_CHARGE>
0

> <PUBCHEM_SUBSTANCE_ID>
310942632

> <PUBCHEM_SUBSTANCE_VERSION>
1

> <PUBCHEM_EXT_DATASOURCE_NAME>
4488

> <PUBCHEM_EXT_DATASOURCE_REGID>
SCHEMBL16120678

> <PUBCHEM_SUBSTANCE_COMMENT>
InChI=1S/C7H7IN2O3/c8-7(13)9-3-4-10-5(11)1-2-6(10)12/h1-2H,3-4H2,(H,9,13)
InChIKey=SEGQDRIWPSYRJP-UHFFFAOYSA-N

> <PUBCHEM_SUBSTANCE_SYNONYM>
SCHEMBL16120678

> <PUBCHEM_XREF_EXT_ID>
SCHEMBL16120678

> <PUBCHEM_EXT_DATASOURCE_URL>
https://www.surechembl.org/

> <PUBCHEM_EXT_SUBSTANCE_URL>
https://www.surechembl.org/chemical/SCHEMBL16120678

> <PUBCHEM_CID_ASSOCIATIONS>
117609164  1

> <PUBCHEM_COORDINATE_TYPE>
1
3

$$$$
