310934950
  -OEChem-07211613022D

 43 48  0     0  0  0  0  0  0999 V2000
    3.5988   -1.2189    0.0000 O   0  0  0  0  0  0  0  0  0  0  0  0
    4.2953   -2.4379    0.0000 O   0  0  0  0  0  0  0  0  0  0  0  0
    7.1395  -10.3901    0.0000 O   0  0  0  0  0  0  0  0  0  0  0  0
    6.0367  -11.3188    0.0000 O   0  0  0  0  0  0  0  0  0  0  0  0
    1.1609   -5.8045    0.0000 N   0  0  0  0  0  0  0  0  0  0  0  0
    0.3483   -5.7465    0.0000 N   0  0  0  0  0  0  0  0  0  0  0  0
    2.2057   -4.8177    0.0000 N   0  0  0  0  0  0  0  0  0  0  0  0
    0.7546   -2.0316    0.0000 N   0  0  0  0  0  0  0  0  0  0  0  0
    4.7016   -8.7068    0.0000 N   0  0  0  0  0  0  0  0  0  0  0  0
    5.7465   -9.9257    0.0000 N   0  0  0  0  0  0  0  0  0  0  0  0
    0.7546   -4.5275    0.0000 C   0  0  0  0  0  0  0  0  0  0  0  0
    1.3931   -4.9919    0.0000 C   0  0  0  0  0  0  0  0  0  0  0  0
    0.7546   -3.7149    0.0000 C   0  0  0  0  0  0  0  0  0  0  0  0
    1.4511   -3.3086    0.0000 C   0  0  0  0  0  0  0  0  0  0  0  0
    1.4511   -2.4379    0.0000 C   0  0  0  0  0  0  0  0  0  0  0  0
    0.0580   -4.9919    0.0000 C   0  0  0  0  0  0  0  0  0  0  0  0
    2.4960   -6.2108    0.0000 C   0  0  0  0  0  0  0  0  0  0  0  0
    1.7414   -6.3850    0.0000 C   0  0  0  0  0  0  0  0  0  0  0  0
    0.0000   -3.3086    0.0000 C   0  0  0  0  0  0  0  0  0  0  0  0
    2.7281   -5.3982    0.0000 C   0  0  0  0  0  0  0  0  0  0  0  0
    2.1477   -3.7149    0.0000 C   0  0  0  0  0  0  0  0  0  0  0  0
    3.0184   -6.8493    0.0000 C   0  0  0  0  0  0  0  0  0  0  0  0
    2.1477   -2.0316    0.0000 C   0  0  0  0  0  0  0  0  0  0  0  0
    2.8442   -2.4379    0.0000 C   0  0  0  0  0  0  0  0  0  0  0  0
    0.0000   -2.4379    0.0000 C   0  0  0  0  0  0  0  0  0  0  0  0
    2.8442   -3.3086    0.0000 C   0  0  0  0  0  0  0  0  0  0  0  0
    4.1212   -8.0683    0.0000 C   0  0  0  0  0  0  0  0  0  0  0  0
    3.8310   -6.6752    0.0000 C   0  0  0  0  0  0  0  0  0  0  0  0
    2.7862   -7.6039    0.0000 C   0  0  0  0  0  0  0  0  0  0  0  0
    3.5988   -2.0316    0.0000 C   0  0  0  0  0  0  0  0  0  0  0  0
    4.4114   -7.2556    0.0000 C   0  0  0  0  0  0  0  0  0  0  0  0
    3.3086   -8.2424    0.0000 C   0  0  0  0  0  0  0  0  0  0  0  0
    4.4114   -9.4614    0.0000 C   0  0  0  0  0  0  0  0  0  0  0  0
    5.4563   -8.5327    0.0000 C   0  0  0  0  0  0  0  0  0  0  0  0
    6.0367   -9.1131    0.0000 C   0  0  0  0  0  0  0  0  0  0  0  0
    4.9339  -10.0998    0.0000 C   0  0  0  0  0  0  0  0  0  0  0  0
    6.3269  -10.5062    0.0000 C   0  0  0  0  0  0  0  0  0  0  0  0
    7.6619  -10.9705    0.0000 C   0  0  0  0  0  0  0  0  0  0  0  0
    4.2953   -0.8126    0.0000 C   0  0  0  0  0  0  0  0  0  0  0  0
    8.1844  -11.6091    0.0000 C   0  0  0  0  0  0  0  0  0  0  0  0
    7.0235  -11.5510    0.0000 C   0  0  0  0  0  0  0  0  0  0  0  0
    8.3005  -10.4481    0.0000 C   0  0  0  0  0  0  0  0  0  0  0  0
    4.2953    0.0000    0.0000 C   0  0  0  0  0  0  0  0  0  0  0  0
  1 30  1  0  0  0  0
  1 39  1  0  0  0  0
  2 30  2  0  0  0  0
  3 37  1  0  0  0  0
  3 38  1  0  0  0  0
  4 37  2  0  0  0  0
  5  6  1  0  0  0  0
  5 12  1  0  0  0  0
  5 18  1  0  0  0  0
  6 16  2  0  0  0  0
  7 12  1  0  0  0  0
  7 20  2  0  0  0  0
  8 15  2  0  0  0  0
  8 25  1  0  0  0  0
  9 27  1  0  0  0  0
  9 33  1  0  0  0  0
  9 34  1  0  0  0  0
 10 35  1  0  0  0  0
 10 36  1  0  0  0  0
 10 37  1  0  0  0  0
 11 12  2  0  0  0  0
 11 13  1  0  0  0  0
 11 16  1  0  0  0  0
 13 14  2  0  0  0  0
 13 19  1  0  0  0  0
 14 15  1  0  0  0  0
 14 21  1  0  0  0  0
 15 23  1  0  0  0  0
 17 18  2  0  0  0  0
 17 20  1  0  0  0  0
 17 22  1  0  0  0  0
 19 25  2  0  0  0  0
 21 26  2  0  0  0  0
 22 28  2  0  0  0  0
 22 29  1  0  0  0  0
 23 24  2  0  0  0  0
 24 26  1  0  0  0  0
 24 30  1  0  0  0  0
 27 31  2  0  0  0  0
 27 32  1  0  0  0  0
 28 31  1  0  0  0  0
 29 32  2  0  0  0  0
 33 36  1  0  0  0  0
 34 35  1  0  0  0  0
 38 40  1  0  0  0  0
 38 41  1  0  0  0  0
 38 42  1  0  0  0  0
 39 43  1  0  0  0  0
M  END
> <PUBCHEM_COMPOUND_ID_TYPE>
0

> <PUBCHEM_TOTAL_CHARGE>
0

> <PUBCHEM_SUBSTANCE_ID>
310934950

> <PUBCHEM_SUBSTANCE_VERSION>
1

> <PUBCHEM_EXT_DATASOURCE_NAME>
4488

> <PUBCHEM_EXT_DATASOURCE_REGID>
SCHEMBL16112466

> <PUBCHEM_SUBSTANCE_COMMENT>
InChI=1S/C33H34N6O4/c1-5-42-31(40)23-8-11-27-26(12-13-34-29(27)18-23)28-20-36-39-21-24(19-35-30(28)39)22-6-9-25(10-7-22)37-14-16-38(17-15-37)32(41)43-33(2,3)4/h6-13,18-21H,5,14-17H2,1-4H3
InChIKey=WXXOPOAJZPQWHY-UHFFFAOYSA-N

> <PUBCHEM_SUBSTANCE_SYNONYM>
SCHEMBL16112466

> <PUBCHEM_XREF_EXT_ID>
SCHEMBL16112466

> <PUBCHEM_EXT_DATASOURCE_URL>
https://www.surechembl.org/

> <PUBCHEM_EXT_SUBSTANCE_URL>
https://www.surechembl.org/chemical/SCHEMBL16112466

> <PUBCHEM_CID_ASSOCIATIONS>
117603072  1

> <PUBCHEM_COORDINATE_TYPE>
1
3

$$$$
