310931450
  -OEChem-07211613022D

 17 18  0     0  0  0  0  0  0999 V2000
    3.2661   -1.4184    0.0000 S   0  0  0  0  0  0  0  0  0  0  0  0
    3.2661   -2.3143    0.0000 O   0  0  0  0  0  0  0  0  0  0  0  0
    3.2661   -0.6346    0.0000 O   0  0  0  0  0  0  0  0  0  0  0  0
    4.0686   -1.4184    0.0000 N   0  0  0  0  0  0  0  0  0  0  0  0
    5.5990   -1.2691    0.0000 N   0  0  0  0  0  0  0  0  0  0  0  0
    0.0000    0.0000    0.0000 N   0  0  0  0  0  0  0  0  0  0  0  0
    4.4605   -2.1276    0.0000 C   0  0  0  0  0  0  0  0  0  0  0  0
    4.7592   -2.8741    0.0000 C   0  0  0  0  0  0  0  0  0  0  0  0
    3.9566   -2.7808    0.0000 C   0  0  0  0  0  0  0  0  0  0  0  0
    2.4449   -1.4184    0.0000 C   0  0  0  0  0  0  0  0  0  0  0  0
    5.2818   -2.0343    0.0000 C   0  0  0  0  0  0  0  0  0  0  0  0
    2.0157   -0.7092    0.0000 C   0  0  0  0  0  0  0  0  0  0  0  0
    2.0157   -2.1276    0.0000 C   0  0  0  0  0  0  0  0  0  0  0  0
    1.2131   -0.7092    0.0000 C   0  0  0  0  0  0  0  0  0  0  0  0
    1.2131   -2.1276    0.0000 C   0  0  0  0  0  0  0  0  0  0  0  0
    0.7838   -1.4184    0.0000 C   0  0  0  0  0  0  0  0  0  0  0  0
    0.8212   -0.0187    0.0000 C   0  0  0  0  0  0  0  0  0  0  0  0
  1  2  2  0  0  0  0
  1  3  2  0  0  0  0
  1  4  1  0  0  0  0
  1 10  1  0  0  0  0
  4  7  1  0  0  0  0
  5 11  3  0  0  0  0
  6 17  3  0  0  0  0
  7  8  1  0  0  0  0
  7  9  1  0  0  0  0
  7 11  1  0  0  0  0
  8  9  1  0  0  0  0
 10 12  1  0  0  0  0
 10 13  2  0  0  0  0
 12 14  2  0  0  0  0
 13 15  1  0  0  0  0
 14 16  1  0  0  0  0
 14 17  1  0  0  0  0
 15 16  2  0  0  0  0
M  END
> <PUBCHEM_COMPOUND_ID_TYPE>
0

> <PUBCHEM_TOTAL_CHARGE>
0

> <PUBCHEM_SUBSTANCE_ID>
310931450

> <PUBCHEM_SUBSTANCE_VERSION>
1

> <PUBCHEM_EXT_DATASOURCE_NAME>
4488

> <PUBCHEM_EXT_DATASOURCE_REGID>
SCHEMBL16108775

> <PUBCHEM_SUBSTANCE_COMMENT>
InChI=1S/C11H9N3O2S/c12-7-9-2-1-3-10(6-9)17(15,16)14-11(8-13)4-5-11/h1-3,6,14H,4-5H2
InChIKey=AHQJEIWJRFLVEW-UHFFFAOYSA-N

> <PUBCHEM_SUBSTANCE_SYNONYM>
SCHEMBL16108775

> <PUBCHEM_XREF_EXT_ID>
SCHEMBL16108775

> <PUBCHEM_EXT_DATASOURCE_URL>
https://www.surechembl.org/

> <PUBCHEM_EXT_SUBSTANCE_URL>
https://www.surechembl.org/chemical/SCHEMBL16108775

> <PUBCHEM_CID_ASSOCIATIONS>
117600225  1

> <PUBCHEM_COORDINATE_TYPE>
1
3

$$$$
