310937018
  -OEChem-07211613022D

 19 21  0     0  0  0  0  0  0999 V2000
    0.6585   -2.9239    0.0000 Cl  0  0  0  0  0  0  0  0  0  0  0  0
    4.7414   -2.2126    0.0000 O   0  0  0  0  0  0  0  0  0  0  0  0
    3.4770   -1.8175    0.0000 N   0  0  0  0  0  0  0  0  0  0  0  0
    4.2673   -2.8975    0.0000 N   0  0  0  0  0  0  0  0  0  0  0  0
    2.9239   -3.8985    0.0000 N   0  0  0  0  0  0  0  0  0  0  0  0
    3.4770   -2.6341    0.0000 C   0  0  0  0  0  0  0  0  0  0  0  0
    2.8185   -3.1082    0.0000 C   0  0  0  0  0  0  0  0  0  0  0  0
    4.2673   -1.5542    0.0000 C   0  0  0  0  0  0  0  0  0  0  0  0
    1.5015   -4.0566    0.0000 C   0  0  0  0  0  0  0  0  0  0  0  0
    0.8429   -4.5307    0.0000 C   0  0  0  0  0  0  0  0  0  0  0  0
    1.4224   -3.2663    0.0000 C   0  0  0  0  0  0  0  0  0  0  0  0
    4.5307   -0.7639    0.0000 C   0  0  0  0  0  0  0  0  0  0  0  0
    2.0810   -2.7395    0.0000 C   0  0  0  0  0  0  0  0  0  0  0  0
    2.2653   -4.3990    0.0000 C   0  0  0  0  0  0  0  0  0  0  0  0
    0.5005   -5.2683    0.0000 C   0  0  0  0  0  0  0  0  0  0  0  0
    0.0000   -4.6097    0.0000 C   0  0  0  0  0  0  0  0  0  0  0  0
    5.3210   -1.0273    0.0000 C   0  0  0  0  0  0  0  0  0  0  0  0
    4.7941    0.0000    0.0000 C   0  0  0  0  0  0  0  0  0  0  0  0
    3.7405   -0.5268    0.0000 C   0  0  0  0  0  0  0  0  0  0  0  0
  1 11  1  0  0  0  0
  2  4  1  0  0  0  0
  2  8  1  0  0  0  0
  3  6  1  0  0  0  0
  3  8  2  0  0  0  0
  4  6  2  0  0  0  0
  5  7  1  0  0  0  0
  5 14  2  0  0  0  0
  6  7  1  0  0  0  0
  7 13  2  0  0  0  0
  8 12  1  0  0  0  0
  9 10  1  0  0  0  0
  9 11  2  0  0  0  0
  9 14  1  0  0  0  0
 10 15  1  0  0  0  0
 10 16  1  0  0  0  0
 11 13  1  0  0  0  0
 12 17  1  0  0  0  0
 12 18  1  0  0  0  0
 12 19  1  0  0  0  0
 15 16  1  0  0  0  0
M  END
> <PUBCHEM_COMPOUND_ID_TYPE>
0

> <PUBCHEM_TOTAL_CHARGE>
0

> <PUBCHEM_SUBSTANCE_ID>
310937018

> <PUBCHEM_SUBSTANCE_VERSION>
1

> <PUBCHEM_EXT_DATASOURCE_NAME>
4488

> <PUBCHEM_EXT_DATASOURCE_REGID>
SCHEMBL16114727

> <PUBCHEM_SUBSTANCE_COMMENT>
InChI=1S/C14H16ClN3O/c1-14(2,3)13-17-12(18-19-13)11-6-10(15)9(7-16-11)8-4-5-8/h6-8H,4-5H2,1-3H3
InChIKey=DGUXLUKCWAZHNW-UHFFFAOYSA-N

> <PUBCHEM_SUBSTANCE_SYNONYM>
SCHEMBL16114727

> <PUBCHEM_XREF_EXT_ID>
SCHEMBL16114727

> <PUBCHEM_EXT_DATASOURCE_URL>
https://www.surechembl.org/

> <PUBCHEM_EXT_SUBSTANCE_URL>
https://www.surechembl.org/chemical/SCHEMBL16114727

> <PUBCHEM_CID_ASSOCIATIONS>
117604872  1

> <PUBCHEM_COORDINATE_TYPE>
1
3

$$$$
