310939647
  -OEChem-07211613022D

 49 58  0     0  0  0  0  0  0999 V2000
    2.6537   -3.4250    0.0000 N   0  0  0  0  0  0  0  0  0  0  0  0
   -4.9677   -3.2148    0.0000 N   0  0  0  0  0  0  0  0  0  0  0  0
   -3.5388   -7.3398    0.0000 N   0  0  0  0  0  0  0  0  0  0  0  0
    2.6537   -4.7599    0.0000 N   0  0  0  0  0  0  0  0  0  0  0  0
   -2.2692   -5.2773    0.0000 C   0  0  0  0  0  0  0  0  0  0  0  0
   -3.5388   -4.8647    0.0000 C   0  0  0  0  0  0  0  0  0  0  0  0
   -3.5388   -5.6898    0.0000 C   0  0  0  0  0  0  0  0  0  0  0  0
   -2.7541   -4.6099    0.0000 C   0  0  0  0  0  0  0  0  0  0  0  0
   -2.7541   -5.9448    0.0000 C   0  0  0  0  0  0  0  0  0  0  0  0
   -1.4487   -5.1910    0.0000 C   0  0  0  0  0  0  0  0  0  0  0  0
   -4.2531   -4.4523    0.0000 C   0  0  0  0  0  0  0  0  0  0  0  0
   -4.2531   -6.1023    0.0000 C   0  0  0  0  0  0  0  0  0  0  0  0
   -1.1132   -4.4374    0.0000 C   0  0  0  0  0  0  0  0  0  0  0  0
   -2.4186   -3.8561    0.0000 C   0  0  0  0  0  0  0  0  0  0  0  0
   -2.1198   -6.6984    0.0000 C   0  0  0  0  0  0  0  0  0  0  0  0
   -1.5981   -3.7700    0.0000 C   0  0  0  0  0  0  0  0  0  0  0  0
   -0.9638   -5.8584    0.0000 C   0  0  0  0  0  0  0  0  0  0  0  0
   -4.9677   -4.8647    0.0000 C   0  0  0  0  0  0  0  0  0  0  0  0
   -4.9677   -5.6898    0.0000 C   0  0  0  0  0  0  0  0  0  0  0  0
   -4.2531   -3.6273    0.0000 C   0  0  0  0  0  0  0  0  0  0  0  0
   -4.2531   -6.9273    0.0000 C   0  0  0  0  0  0  0  0  0  0  0  0
   -0.2927   -4.3512    0.0000 C   0  0  0  0  0  0  0  0  0  0  0  0
   -1.2994   -6.6122    0.0000 C   0  0  0  0  0  0  0  0  0  0  0  0
    2.1687   -4.0925    0.0000 C   0  0  0  0  0  0  0  0  0  0  0  0
    1.3483   -4.1786    0.0000 C   0  0  0  0  0  0  0  0  0  0  0  0
    3.4383   -3.6800    0.0000 C   0  0  0  0  0  0  0  0  0  0  0  0
    0.1922   -5.0186    0.0000 C   0  0  0  0  0  0  0  0  0  0  0  0
    0.0429   -3.5975    0.0000 C   0  0  0  0  0  0  0  0  0  0  0  0
    3.4383   -4.5049    0.0000 C   0  0  0  0  0  0  0  0  0  0  0  0
   -3.5388   -3.2148    0.0000 C   0  0  0  0  0  0  0  0  0  0  0  0
   -4.9677   -7.3398    0.0000 C   0  0  0  0  0  0  0  0  0  0  0  0
    1.0127   -4.9324    0.0000 C   0  0  0  0  0  0  0  0  0  0  0  0
    0.8633   -3.5112    0.0000 C   0  0  0  0  0  0  0  0  0  0  0  0
    2.2412   -2.7106    0.0000 C   0  0  0  0  0  0  0  0  0  0  0  0
    4.1527   -3.2675    0.0000 C   0  0  0  0  0  0  0  0  0  0  0  0
    4.1527   -4.9175    0.0000 C   0  0  0  0  0  0  0  0  0  0  0  0
   -4.9677   -2.3898    0.0000 C   0  0  0  0  0  0  0  0  0  0  0  0
   -3.5388   -2.3898    0.0000 C   0  0  0  0  0  0  0  0  0  0  0  0
   -3.5388   -8.1647    0.0000 C   0  0  0  0  0  0  0  0  0  0  0  0
   -4.9677   -8.1647    0.0000 C   0  0  0  0  0  0  0  0  0  0  0  0
    2.6537   -1.9961    0.0000 C   0  0  0  0  0  0  0  0  0  0  0  0
    1.4162   -2.7106    0.0000 C   0  0  0  0  0  0  0  0  0  0  0  0
   -4.2531   -1.9773    0.0000 C   0  0  0  0  0  0  0  0  0  0  0  0
   -4.2531   -8.5773    0.0000 C   0  0  0  0  0  0  0  0  0  0  0  0
    4.8672   -3.6800    0.0000 C   0  0  0  0  0  0  0  0  0  0  0  0
    4.8672   -4.5049    0.0000 C   0  0  0  0  0  0  0  0  0  0  0  0
    2.2412   -1.2816    0.0000 C   0  0  0  0  0  0  0  0  0  0  0  0
    1.0037   -1.9961    0.0000 C   0  0  0  0  0  0  0  0  0  0  0  0
    1.4162   -1.2816    0.0000 C   0  0  0  0  0  0  0  0  0  0  0  0
  1 24  1  0  0  0  0
  1 26  1  0  0  0  0
  1 34  1  0  0  0  0
  2 20  1  0  0  0  0
  2 37  2  0  0  0  0
  3 21  1  0  0  0  0
  3 39  2  0  0  0  0
  4 24  2  0  0  0  0
  4 29  1  0  0  0  0
  5  8  1  0  0  0  0
  5  9  2  0  0  0  0
  5 10  1  0  0  0  0
  6  7  1  0  0  0  0
  6  8  1  0  0  0  0
  6 11  2  0  0  0  0
  7  9  1  0  0  0  0
  7 12  2  0  0  0  0
  8 14  2  0  0  0  0
  9 15  1  0  0  0  0
 10 13  1  0  0  0  0
 10 17  2  0  0  0  0
 11 18  1  0  0  0  0
 11 20  1  0  0  0  0
 12 19  1  0  0  0  0
 12 21  1  0  0  0  0
 13 16  2  0  0  0  0
 13 22  1  0  0  0  0
 14 16  1  0  0  0  0
 15 23  2  0  0  0  0
 17 23  1  0  0  0  0
 18 19  2  0  0  0  0
 20 30  2  0  0  0  0
 21 31  2  0  0  0  0
 22 27  2  0  0  0  0
 22 28  1  0  0  0  0
 24 25  1  0  0  0  0
 25 32  2  0  0  0  0
 25 33  1  0  0  0  0
 26 29  2  0  0  0  0
 26 35  1  0  0  0  0
 27 32  1  0  0  0  0
 28 33  2  0  0  0  0
 29 36  1  0  0  0  0
 30 38  1  0  0  0  0
 31 40  1  0  0  0  0
 34 41  2  0  0  0  0
 34 42  1  0  0  0  0
 35 45  2  0  0  0  0
 36 46  2  0  0  0  0
 37 43  1  0  0  0  0
 38 43  2  0  0  0  0
 39 44  1  0  0  0  0
 40 44  2  0  0  0  0
 41 47  1  0  0  0  0
 42 48  2  0  0  0  0
 45 46  1  0  0  0  0
 47 49  2  0  0  0  0
 48 49  1  0  0  0  0
M  END
> <PUBCHEM_COMPOUND_ID_TYPE>
0

> <PUBCHEM_TOTAL_CHARGE>
0

> <PUBCHEM_SUBSTANCE_ID>
310939647

> <PUBCHEM_SUBSTANCE_VERSION>
1

> <PUBCHEM_EXT_DATASOURCE_NAME>
4488

> <PUBCHEM_EXT_DATASOURCE_REGID>
SCHEMBL16117577

> <PUBCHEM_SUBSTANCE_COMMENT>
InChI=1S/C45H28N4/c1-2-11-31(12-3-1)49-41-18-5-4-17-40(41)48-45(49)30-21-19-29(20-22-30)32-23-26-37-42-33(32)13-10-14-36(42)43-34(38-15-6-8-27-46-38)24-25-35(44(37)43)39-16-7-9-28-47-39/h1-28H
InChIKey=JBLJRFUCBCAMCC-UHFFFAOYSA-N

> <PUBCHEM_SUBSTANCE_SYNONYM>
SCHEMBL16117577

> <PUBCHEM_XREF_EXT_ID>
SCHEMBL16117577

> <PUBCHEM_EXT_DATASOURCE_URL>
https://www.surechembl.org/

> <PUBCHEM_EXT_SUBSTANCE_URL>
https://www.surechembl.org/chemical/SCHEMBL16117577

> <PUBCHEM_CID_ASSOCIATIONS>
117606883  1

> <PUBCHEM_COORDINATE_TYPE>
1
3

$$$$
