310933194
  -OEChem-07211613022D

 29 32  0     1  0  0  0  0  0999 V2000
    2.4643   -0.7289    0.0000 O   0  0  0  0  0  0  0  0  0  0  0  0
    6.2476   -3.8874    0.0000 N   0  0  0  0  0  0  0  0  0  0  0  0
    6.1435   -3.0544    0.0000 N   0  0  0  0  0  0  0  0  0  0  0  0
    3.7138   -2.9156    0.0000 N   0  0  0  0  0  0  0  0  0  0  0  0
    3.7138   -1.4578    0.0000 N   0  0  0  0  0  0  0  0  0  0  0  0
    4.9634   -6.5947    0.0000 N   0  0  0  0  0  0  0  0  0  0  0  0
    2.4643   -2.1520    0.0000 N   0  0  0  0  0  0  0  0  0  0  0  0
    4.9287   -3.6097    0.0000 C   0  0  0  0  0  0  0  0  0  0  0  0
    5.4840   -4.1998    0.0000 C   0  0  0  0  0  0  0  0  0  0  0  0
    5.3452   -2.8808    0.0000 C   0  0  0  0  0  0  0  0  0  0  0  0
    5.3105   -5.0328    0.0000 C   0  0  0  0  0  0  0  0  0  0  0  0
    4.9287   -2.1520    0.0000 C   0  0  0  0  0  0  0  0  0  0  0  0
    4.0957   -3.6097    0.0000 C   0  0  0  0  0  0  0  0  0  0  0  0
    4.1304   -2.1520    0.0000 C   0  0  0  0  0  0  0  0  0  0  0  0
    4.5469   -5.2758    0.0000 C   0  0  0  0  0  0  0  0  0  0  0  0
    5.9699   -5.5534    0.0000 C   0  0  0  0  0  0  0  0  0  0  0  0
    4.3386   -6.0741    0.0000 C   0  0  0  0  0  0  0  0  0  0  0  0
    5.7617   -6.3865    0.0000 C   0  0  0  0  0  0  0  0  0  0  0  0
    2.8808   -1.4578    0.0000 C   0  0  0  0  0  0  0  0  0  0  0  0
    1.6313   -2.1520    0.0000 C   0  0  3  0  0  0  0  0  0  0  0  0
    1.2495   -1.4231    0.0000 C   0  0  0  0  0  0  0  0  0  0  0  0
    3.5750   -6.3171    0.0000 C   0  0  0  0  0  0  0  0  0  0  0  0
    6.3517   -6.9418    0.0000 C   0  0  0  0  0  0  0  0  0  0  0  0
    0.4165   -1.4231    0.0000 C   0  0  0  0  0  0  0  0  0  0  0  0
    1.6313   -0.7289    0.0000 C   0  0  0  0  0  0  0  0  0  0  0  0
    1.2495   -2.8808    0.0000 C   0  0  0  0  0  0  0  0  0  0  0  0
    0.0000   -0.7289    0.0000 C   0  0  0  0  0  0  0  0  0  0  0  0
    1.2495    0.0000    0.0000 C   0  0  0  0  0  0  0  0  0  0  0  0
    0.4165    0.0000    0.0000 C   0  0  0  0  0  0  0  0  0  0  0  0
  1 19  2  0  0  0  0
  2  3  1  0  0  0  0
  2  9  2  0  0  0  0
  3 10  1  0  0  0  0
  4 13  1  0  0  0  0
  4 14  2  0  0  0  0
  5 14  1  0  0  0  0
  5 19  1  0  0  0  0
  6 17  2  0  0  0  0
  6 18  1  0  0  0  0
  7 19  1  0  0  0  0
  7 20  1  0  0  0  0
  8  9  1  0  0  0  0
  8 10  1  0  0  0  0
  8 13  2  0  0  0  0
  9 11  1  0  0  0  0
 10 12  2  0  0  0  0
 11 15  2  0  0  0  0
 11 16  1  0  0  0  0
 12 14  1  0  0  0  0
 15 17  1  0  0  0  0
 16 18  2  0  0  0  0
 17 22  1  0  0  0  0
 18 23  1  0  0  0  0
 20 21  1  0  0  0  0
 20 26  1  6  0  0  0
 21 24  2  0  0  0  0
 21 25  1  0  0  0  0
 24 27  1  0  0  0  0
 25 28  2  0  0  0  0
 27 29  2  0  0  0  0
 28 29  1  0  0  0  0
M  END
> <PUBCHEM_COMPOUND_ID_TYPE>
0

> <PUBCHEM_TOTAL_CHARGE>
0

> <PUBCHEM_SUBSTANCE_ID>
310933194

> <PUBCHEM_SUBSTANCE_VERSION>
1

> <PUBCHEM_EXT_DATASOURCE_NAME>
4488

> <PUBCHEM_EXT_DATASOURCE_REGID>
SCHEMBL16110603

> <PUBCHEM_SUBSTANCE_COMMENT>
InChI=1S/C22H22N6O/c1-13-9-17(10-14(2)24-13)21-18-12-23-20(11-19(18)27-28-21)26-22(29)25-15(3)16-7-5-4-6-8-16/h4-12,15H,1-3H3,(H,27,28)(H2,23,25,26,29)/t15-/m1/s1
InChIKey=HYXKDYKYIIXPSM-OAHLLOKOSA-N

> <PUBCHEM_SUBSTANCE_SYNONYM>
SCHEMBL16110603

> <PUBCHEM_XREF_EXT_ID>
SCHEMBL16110603

> <PUBCHEM_EXT_DATASOURCE_URL>
https://www.surechembl.org/

> <PUBCHEM_EXT_SUBSTANCE_URL>
https://www.surechembl.org/chemical/SCHEMBL16110603

> <PUBCHEM_CID_ASSOCIATIONS>
71555534  1

> <PUBCHEM_COORDINATE_TYPE>
1
3

> <PUBCHEM_BONDANNOTATIONS>
20  26  6

$$$$
