310932977
  -OEChem-07211613022D

 27 29  0     0  0  0  0  0  0999 V2000
    2.8504   -2.1378    0.0000 O   0  0  0  0  0  0  0  0  0  0  0  0
    0.1188   -2.3753    0.0000 O   0  0  0  0  0  0  0  0  0  0  0  0
    7.3339   -2.2269    0.0000 O   0  0  0  0  0  0  0  0  0  0  0  0
    8.0762   -5.9384    0.0000 O   0  0  0  0  0  0  0  0  0  0  0  0
    3.7412   -0.9798    0.0000 N   0  0  0  0  0  0  0  0  0  0  0  0
    3.6818   -0.1485    0.0000 N   0  0  0  0  0  0  0  0  0  0  0  0
    5.1961   -0.9798    0.0000 N   0  0  0  0  0  0  0  0  0  0  0  0
    0.0000   -0.9798    0.0000 N   0  0  0  0  0  0  0  0  0  0  0  0
    6.6213   -3.4442    0.0000 N   0  0  0  0  0  0  0  0  0  0  0  0
    2.4348   -0.7126    0.0000 C   0  0  0  0  0  0  0  0  0  0  0  0
    2.9989   -1.3065    0.0000 C   0  0  0  0  0  0  0  0  0  0  0  0
    4.4835   -1.3955    0.0000 C   0  0  0  0  0  0  0  0  0  0  0  0
    1.6331   -0.8017    0.0000 C   0  0  0  0  0  0  0  0  0  0  0  0
    2.8504    0.0000    0.0000 C   0  0  0  0  0  0  0  0  0  0  0  0
    4.4835   -2.2269    0.0000 C   0  0  0  0  0  0  0  0  0  0  0  0
    1.3065   -1.5737    0.0000 C   0  0  0  0  0  0  0  0  0  0  0  0
    5.9087   -2.2269    0.0000 C   0  0  0  0  0  0  0  0  0  0  0  0
    1.1580   -0.1485    0.0000 C   0  0  0  0  0  0  0  0  0  0  0  0
    0.4751   -1.6331    0.0000 C   0  0  0  0  0  0  0  0  0  0  0  0
    5.9087   -1.3955    0.0000 C   0  0  0  0  0  0  0  0  0  0  0  0
    5.1961   -2.6129    0.0000 C   0  0  0  0  0  0  0  0  0  0  0  0
    6.6213   -2.6129    0.0000 C   0  0  0  0  0  0  0  0  0  0  0  0
    0.3266   -0.2078    0.0000 C   0  0  0  0  0  0  0  0  0  0  0  0
    7.3636   -3.8599    0.0000 C   0  0  0  0  0  0  0  0  0  0  0  0
    0.5938   -3.0582    0.0000 C   0  0  0  0  0  0  0  0  0  0  0  0
    7.3636   -4.6913    0.0000 C   0  0  0  0  0  0  0  0  0  0  0  0
    8.0762   -5.1070    0.0000 C   0  0  0  0  0  0  0  0  0  0  0  0
  1 11  1  0  0  0  0
  2 19  1  0  0  0  0
  2 25  1  0  0  0  0
  3 22  2  0  0  0  0
  4 27  1  0  0  0  0
  5  6  1  0  0  0  0
  5 11  1  0  0  0  0
  5 12  1  0  0  0  0
  6 14  2  0  0  0  0
  7 12  2  0  0  0  0
  7 20  1  0  0  0  0
  8 19  1  0  0  0  0
  8 23  2  0  0  0  0
  9 22  1  0  0  0  0
  9 24  1  0  0  0  0
 10 11  2  0  0  0  0
 10 13  1  0  0  0  0
 10 14  1  0  0  0  0
 12 15  1  0  0  0  0
 13 16  1  0  0  0  0
 13 18  2  0  0  0  0
 15 21  2  0  0  0  0
 16 19  2  0  0  0  0
 17 20  2  0  0  0  0
 17 21  1  0  0  0  0
 17 22  1  0  0  0  0
 18 23  1  0  0  0  0
 24 26  1  0  0  0  0
 26 27  1  0  0  0  0
M  END
> <PUBCHEM_COMPOUND_ID_TYPE>
0

> <PUBCHEM_TOTAL_CHARGE>
0

> <PUBCHEM_SUBSTANCE_ID>
310932977

> <PUBCHEM_SUBSTANCE_VERSION>
1

> <PUBCHEM_EXT_DATASOURCE_NAME>
4488

> <PUBCHEM_EXT_DATASOURCE_REGID>
SCHEMBL16110374

> <PUBCHEM_SUBSTANCE_COMMENT>
InChI=1S/C18H19N5O4/c1-27-16-9-12(5-7-19-16)14-11-22-23(18(14)26)15-4-3-13(10-21-15)17(25)20-6-2-8-24/h3-5,7,9-11,24,26H,2,6,8H2,1H3,(H,20,25)
InChIKey=ZRSQJWZJRVUQGQ-UHFFFAOYSA-N

> <PUBCHEM_SUBSTANCE_SYNONYM>
SCHEMBL16110374

> <PUBCHEM_XREF_EXT_ID>
SCHEMBL16110374

> <PUBCHEM_EXT_DATASOURCE_URL>
https://www.surechembl.org/

> <PUBCHEM_EXT_SUBSTANCE_URL>
https://www.surechembl.org/chemical/SCHEMBL16110374

> <PUBCHEM_CID_ASSOCIATIONS>
117601454  1

> <PUBCHEM_COORDINATE_TYPE>
1
3

$$$$
