310943401
  -OEChem-07211613022D

 36 39  0     0  0  0  0  0  0999 V2000
    1.7971    2.2685    0.0000 O   0  0  0  0  0  0  0  0  0  0  0  0
    5.3618    1.0311    0.0000 O   0  0  0  0  0  0  0  0  0  0  0  0
   -5.3618    2.2832    0.0000 O   0  0  0  0  0  0  0  0  0  0  0  0
   -1.0753   -2.6957    0.0000 O   0  0  0  0  0  0  0  0  0  0  0  0
   -3.9330    1.4583    0.0000 N   0  0  0  0  0  0  0  0  0  0  0  0
   -3.2113    0.2062    0.0000 N   0  0  0  0  0  0  0  0  0  0  0  0
   -0.3535    2.6957    0.0000 N   0  0  0  0  0  0  0  0  0  0  0  0
    1.0753    1.0459    0.0000 N   0  0  0  0  0  0  0  0  0  0  0  0
   -2.5042   -1.0311    0.0000 N   0  0  0  0  0  0  0  0  0  0  0  0
    3.9330    0.2062    0.0000 N   0  0  0  0  0  0  0  0  0  0  0  0
   -1.7823    1.0459    0.0000 C   0  0  0  0  0  0  0  0  0  0  0  0
   -1.0753    1.4583    0.0000 C   0  0  0  0  0  0  0  0  0  0  0  0
   -3.2113    1.0459    0.0000 C   0  0  0  0  0  0  0  0  0  0  0  0
   -2.4894    1.4583    0.0000 C   0  0  0  0  0  0  0  0  0  0  0  0
   -1.0606    2.2832    0.0000 C   0  0  0  0  0  0  0  0  0  0  0  0
   -1.7971    0.2062    0.0000 C   0  0  0  0  0  0  0  0  0  0  0  0
   -0.3388    1.0459    0.0000 C   0  0  0  0  0  0  0  0  0  0  0  0
    0.3535    1.4583    0.0000 C   0  0  0  0  0  0  0  0  0  0  0  0
   -2.4894   -0.1915    0.0000 C   0  0  0  0  0  0  0  0  0  0  0  0
    2.5042    1.0459    0.0000 C   0  0  0  0  0  0  0  0  0  0  0  0
    1.7823    1.4288    0.0000 C   0  0  0  0  0  0  0  0  0  0  0  0
    3.9330    1.0459    0.0000 C   0  0  0  0  0  0  0  0  0  0  0  0
    0.3682    2.2832    0.0000 C   0  0  0  0  0  0  0  0  0  0  0  0
    4.6548    1.4730    0.0000 C   0  0  0  0  0  0  0  0  0  0  0  0
    3.2260    1.4583    0.0000 C   0  0  0  0  0  0  0  0  0  0  0  0
   -3.9330    2.2832    0.0000 C   0  0  0  0  0  0  0  0  0  0  0  0
   -4.6253    1.0459    0.0000 C   0  0  0  0  0  0  0  0  0  0  0  0
    2.5042    0.2209    0.0000 C   0  0  0  0  0  0  0  0  0  0  0  0
   -1.7971    2.6809    0.0000 C   0  0  0  0  0  0  0  0  0  0  0  0
    3.2407   -0.2062    0.0000 C   0  0  0  0  0  0  0  0  0  0  0  0
   -4.6548    2.6957    0.0000 C   0  0  0  0  0  0  0  0  0  0  0  0
   -5.3618    1.4583    0.0000 C   0  0  0  0  0  0  0  0  0  0  0  0
   -1.7823   -1.4435    0.0000 C   0  0  0  0  0  0  0  0  0  0  0  0
    4.2277    2.1654    0.0000 C   0  0  0  0  0  0  0  0  0  0  0  0
    5.0524    2.1801    0.0000 C   0  0  0  0  0  0  0  0  0  0  0  0
   -1.7823   -2.2685    0.0000 C   0  0  0  0  0  0  0  0  0  0  0  0
  1 21  2  0  0  0  0
  2 24  1  0  0  0  0
  3 31  1  0  0  0  0
  3 32  1  0  0  0  0
  4 36  1  0  0  0  0
  5 13  1  0  0  0  0
  5 26  1  0  0  0  0
  5 27  1  0  0  0  0
  6 13  2  0  0  0  0
  6 19  1  0  0  0  0
  7 15  2  0  0  0  0
  7 23  1  0  0  0  0
  8 18  1  0  0  0  0
  8 21  1  0  0  0  0
  9 19  1  0  0  0  0
  9 33  1  0  0  0  0
 10 22  1  0  0  0  0
 10 30  2  0  0  0  0
 11 12  1  0  0  0  0
 11 14  2  0  0  0  0
 11 16  1  0  0  0  0
 12 15  1  0  0  0  0
 12 17  2  0  0  0  0
 13 14  1  0  0  0  0
 15 29  1  0  0  0  0
 16 19  2  0  0  0  0
 17 18  1  0  0  0  0
 18 23  2  0  0  0  0
 20 21  1  0  0  0  0
 20 25  1  0  0  0  0
 20 28  2  0  0  0  0
 22 24  1  0  0  0  0
 22 25  2  0  0  0  0
 24 34  1  0  0  0  0
 24 35  1  0  0  0  0
 26 31  1  0  0  0  0
 27 32  1  0  0  0  0
 28 30  1  0  0  0  0
 33 36  1  0  0  0  0
M  END
> <PUBCHEM_COMPOUND_ID_TYPE>
0

> <PUBCHEM_TOTAL_CHARGE>
0

> <PUBCHEM_SUBSTANCE_ID>
310943401

> <PUBCHEM_SUBSTANCE_VERSION>
1

> <PUBCHEM_EXT_DATASOURCE_NAME>
4488

> <PUBCHEM_EXT_DATASOURCE_REGID>
SCHEMBL16121464

> <PUBCHEM_SUBSTANCE_COMMENT>
InChI=1S/C26H32N6O4/c1-17-21(19-13-23(28-6-9-33)31-24(14-19)32-7-10-36-11-8-32)15-20(16-29-17)30-25(34)18-4-5-27-22(12-18)26(2,3)35/h4-5,12-16,33,35H,6-11H2,1-3H3,(H,28,31)(H,30,34)
InChIKey=CEKWCFPBLIREBY-UHFFFAOYSA-N

> <PUBCHEM_SUBSTANCE_SYNONYM>
SCHEMBL16121464

> <PUBCHEM_XREF_EXT_ID>
SCHEMBL16121464

> <PUBCHEM_EXT_DATASOURCE_URL>
https://www.surechembl.org/

> <PUBCHEM_EXT_SUBSTANCE_URL>
https://www.surechembl.org/chemical/SCHEMBL16121464

> <PUBCHEM_CID_ASSOCIATIONS>
117609825  1

> <PUBCHEM_COORDINATE_TYPE>
1
3

$$$$
