310949910
  -OEChem-07211613022D

 34 38  0     1  0  0  0  0  0999 V2000
    1.9121   -1.5241    0.0000 O   0  0  0  0  0  0  0  0  0  0  0  0
    0.8452   -0.5542    0.0000 O   0  0  0  0  0  0  0  0  0  0  0  0
   -2.6741    0.9145    0.0000 N   0  0  0  0  0  0  0  0  0  0  0  0
   -2.6741    2.2585    0.0000 N   0  0  0  0  0  0  0  0  0  0  0  0
   -1.8982   -1.4549    0.0000 N   0  0  0  0  0  0  0  0  0  0  0  0
   -0.0693    1.1777    0.0000 N   0  0  0  0  0  0  0  0  0  0  0  0
    0.5404   -1.9675    0.0000 N   0  0  0  0  0  0  0  0  0  0  0  0
   -2.1892    1.5934    0.0000 C   0  0  0  0  0  0  0  0  0  0  0  0
   -3.4639    1.1916    0.0000 C   0  0  0  0  0  0  0  0  0  0  0  0
   -3.4639    2.0091    0.0000 C   0  0  0  0  0  0  0  0  0  0  0  0
   -2.4109    0.1385    0.0000 C   0  0  0  0  0  0  0  0  0  0  0  0
   -1.3440    1.5795    0.0000 C   0  0  3  0  0  0  0  0  0  0  0  0
   -4.1705    0.7759    0.0000 C   0  0  0  0  0  0  0  0  0  0  0  0
   -4.1844    2.4109    0.0000 C   0  0  0  0  0  0  0  0  0  0  0  0
   -2.9651   -0.5127    0.0000 C   0  0  0  0  0  0  0  0  0  0  0  0
   -1.5934   -0.0416    0.0000 C   0  0  0  0  0  0  0  0  0  0  0  0
   -0.8591    0.9283    0.0000 C   0  0  0  0  0  0  0  0  0  0  0  0
   -0.8729    2.2446    0.0000 C   0  0  0  0  0  0  0  0  0  0  0  0
   -4.8911    1.1777    0.0000 C   0  0  0  0  0  0  0  0  0  0  0  0
   -4.8911    2.0091    0.0000 C   0  0  0  0  0  0  0  0  0  0  0  0
   -2.7157   -1.2747    0.0000 C   0  0  0  0  0  0  0  0  0  0  0  0
   -1.3440   -0.8313    0.0000 C   0  0  0  0  0  0  0  0  0  0  0  0
   -0.0693    2.0091    0.0000 C   0  0  0  0  0  0  0  0  0  0  0  0
   -1.6350   -2.2307    0.0000 C   0  0  0  0  0  0  0  0  0  0  0  0
   -0.8313   -2.4109    0.0000 C   0  0  0  0  0  0  0  0  0  0  0  0
   -0.2771   -1.7874    0.0000 C   0  0  0  0  0  0  0  0  0  0  0  0
    3.2699   -1.0807    0.0000 C   0  0  0  0  0  0  0  0  0  0  0  0
    1.0946   -1.3579    0.0000 C   0  0  0  0  0  0  0  0  0  0  0  0
    2.4664   -0.9006    0.0000 C   0  0  0  0  0  0  0  0  0  0  0  0
    3.5332   -1.8567    0.0000 C   0  0  0  0  0  0  0  0  0  0  0  0
    3.8241   -0.4711    0.0000 C   0  0  0  0  0  0  0  0  0  0  0  0
    4.3368   -2.0368    0.0000 C   0  0  0  0  0  0  0  0  0  0  0  0
    4.6417   -0.6373    0.0000 C   0  0  0  0  0  0  0  0  0  0  0  0
    4.8911   -1.4271    0.0000 C   0  0  0  0  0  0  0  0  0  0  0  0
  1 28  1  0  0  0  0
  1 29  1  0  0  0  0
  2 28  2  0  0  0  0
  3  8  1  0  0  0  0
  3  9  1  0  0  0  0
  3 11  1  0  0  0  0
  4  8  2  0  0  0  0
  4 10  1  0  0  0  0
  5 21  1  0  0  0  0
  5 22  1  0  0  0  0
  5 24  1  0  0  0  0
  6 17  1  0  0  0  0
  6 23  1  0  0  0  0
  7 26  1  0  0  0  0
  7 28  1  0  0  0  0
 12  8  1  6  0  0  0
  9 10  1  0  0  0  0
  9 13  2  0  0  0  0
 10 14  2  0  0  0  0
 11 15  1  0  0  0  0
 11 16  1  0  0  0  0
 12 17  1  0  0  0  0
 12 18  1  0  0  0  0
 13 19  1  0  0  0  0
 14 20  1  0  0  0  0
 15 21  1  0  0  0  0
 16 22  1  0  0  0  0
 18 23  1  0  0  0  0
 19 20  2  0  0  0  0
 24 25  1  0  0  0  0
 25 26  1  0  0  0  0
 27 29  1  0  0  0  0
 27 30  2  0  0  0  0
 27 31  1  0  0  0  0
 30 32  1  0  0  0  0
 31 33  2  0  0  0  0
 32 34  2  0  0  0  0
 33 34  1  0  0  0  0
M  END
> <PUBCHEM_COMPOUND_ID_TYPE>
0

> <PUBCHEM_TOTAL_CHARGE>
0

> <PUBCHEM_SUBSTANCE_ID>
310949910

> <PUBCHEM_SUBSTANCE_VERSION>
1

> <PUBCHEM_EXT_DATASOURCE_NAME>
4488

> <PUBCHEM_EXT_DATASOURCE_REGID>
SCHEMBL16128131

> <PUBCHEM_SUBSTANCE_COMMENT>
InChI=1S/C27H35N5O2/c33-27(34-20-21-7-2-1-3-8-21)29-14-6-16-31-17-12-23(13-18-31)32-25-10-5-4-9-24(25)30-26(32)22-11-15-28-19-22/h1-5,7-10,22-23,28H,6,11-20H2,(H,29,33)/t22-/m1/s1
InChIKey=DTNLUUXVMVOTQS-JOCHJYFZSA-N

> <PUBCHEM_SUBSTANCE_SYNONYM>
SCHEMBL16128131

> <PUBCHEM_XREF_EXT_ID>
SCHEMBL16128131

> <PUBCHEM_EXT_DATASOURCE_URL>
https://www.surechembl.org/

> <PUBCHEM_EXT_SUBSTANCE_URL>
https://www.surechembl.org/chemical/SCHEMBL16128131

> <PUBCHEM_CID_ASSOCIATIONS>
117615191  1

> <PUBCHEM_COORDINATE_TYPE>
1
3

> <PUBCHEM_BONDANNOTATIONS>
12  8  6

$$$$
