310948744
  -OEChem-07211613022D

 34 38  0     1  0  0  0  0  0999 V2000
    1.6731   -2.1842    0.0000 S   0  0  0  0  0  0  0  0  0  0  0  0
    3.7365   -0.7715    0.0000 F   0  0  0  0  0  0  0  0  0  0  0  0
    4.4986   -1.1246    0.0000 F   0  0  0  0  0  0  0  0  0  0  0  0
    4.5916   -1.9427    0.0000 F   0  0  0  0  0  0  0  0  0  0  0  0
    1.9891   -2.9278    0.0000 O   0  0  0  0  0  0  0  0  0  0  0  0
    1.1711   -2.8535    0.0000 O   0  0  0  0  0  0  0  0  0  0  0  0
   -0.6135   -1.3663    0.0000 O   0  0  0  0  0  0  0  0  0  0  0  0
    2.3794   -1.7567    0.0000 N   0  0  3  0  0  0  0  0  0  0  0  0
   -2.5839    0.6042    0.0000 N   0  0  0  0  0  0  0  0  0  0  0  0
   -1.8218    0.9388    0.0000 N   0  0  0  0  0  0  0  0  0  0  0  0
   -0.4275    0.3996    0.0000 N   0  0  0  0  0  0  0  0  0  0  0  0
   -1.9705   -1.8125    0.0000 N   0  0  0  0  0  0  0  0  0  0  0  0
   -2.1564    2.9278    0.0000 N   0  0  0  0  0  0  0  0  0  0  0  0
    1.0410   -1.6080    0.0000 C   0  0  0  0  0  0  0  0  0  0  0  0
    1.3756   -0.8458    0.0000 C   0  0  0  0  0  0  0  0  0  0  0  0
   -1.6731   -0.3996    0.0000 C   0  0  0  0  0  0  0  0  0  0  0  0
   -2.4909   -0.2138    0.0000 C   0  0  0  0  0  0  0  0  0  0  0  0
   -1.2455    0.3253    0.0000 C   0  0  0  0  0  0  0  0  0  0  0  0
    2.2121   -0.9388    0.0000 C   0  0  0  0  0  0  0  0  0  0  0  0
    0.0558   -0.2510    0.0000 C   0  0  0  0  0  0  0  0  0  0  0  0
    0.8923   -0.1952    0.0000 C   0  0  0  0  0  0  0  0  0  0  0  0
   -3.3275    1.0317    0.0000 C   0  0  3  0  0  0  0  0  0  0  0  0
    0.2045   -1.6824    0.0000 C   0  0  0  0  0  0  0  0  0  0  0  0
   -1.4128   -1.1804    0.0000 C   0  0  0  0  0  0  0  0  0  0  0  0
    3.1602   -2.0727    0.0000 C   0  0  0  0  0  0  0  0  0  0  0  0
   -0.2602   -1.0131    0.0000 C   0  0  0  0  0  0  0  0  0  0  0  0
   -3.0301   -0.8644    0.0000 C   0  0  0  0  0  0  0  0  0  0  0  0
   -3.3833    1.8497    0.0000 C   0  0  3  0  0  0  0  0  0  0  0  0
    3.8108   -1.5894    0.0000 C   0  0  0  0  0  0  0  0  0  0  0  0
   -4.0526    0.7157    0.0000 C   0  0  0  0  0  0  0  0  0  0  0  0
   -2.7885   -1.6266    0.0000 C   0  0  0  0  0  0  0  0  0  0  0  0
   -4.1826    1.9984    0.0000 C   0  0  0  0  0  0  0  0  0  0  0  0
   -4.5916    1.3106    0.0000 C   0  0  0  0  0  0  0  0  0  0  0  0
   -2.7699    2.4073    0.0000 C   0  0  0  0  0  0  0  0  0  0  0  0
  1  5  2  0  0  0  0
  1  6  2  0  0  0  0
  1  8  1  0  0  0  0
  1 14  1  0  0  0  0
  2 29  1  0  0  0  0
  3 29  1  0  0  0  0
  4 29  1  0  0  0  0
  7 24  2  0  0  0  0
  8 19  1  0  0  0  0
  8 25  1  0  0  0  0
  9 10  1  0  0  0  0
  9 17  1  0  0  0  0
 22  9  1  1  0  0  0
 10 18  2  0  0  0  0
 11 18  1  0  0  0  0
 11 20  1  0  0  0  0
 12 24  1  0  0  0  0
 12 31  1  0  0  0  0
 13 34  3  0  0  0  0
 14 15  2  0  0  0  0
 14 23  1  0  0  0  0
 15 19  1  0  0  0  0
 15 21  1  0  0  0  0
 16 17  2  0  0  0  0
 16 18  1  0  0  0  0
 16 24  1  0  0  0  0
 17 27  1  0  0  0  0
 20 21  2  0  0  0  0
 20 26  1  0  0  0  0
 22 28  1  0  0  0  0
 22 30  1  0  0  0  0
 23 26  2  0  0  0  0
 25 29  1  0  0  0  0
 27 31  2  0  0  0  0
 28 32  1  0  0  0  0
 28 34  1  6  0  0  0
 30 33  1  0  0  0  0
 32 33  1  0  0  0  0
M  END
> <PUBCHEM_COMPOUND_ID_TYPE>
0

> <PUBCHEM_TOTAL_CHARGE>
0

> <PUBCHEM_SUBSTANCE_ID>
310948744

> <PUBCHEM_SUBSTANCE_VERSION>
1

> <PUBCHEM_EXT_DATASOURCE_NAME>
4488

> <PUBCHEM_EXT_DATASOURCE_REGID>
SCHEMBL16126928

> <PUBCHEM_SUBSTANCE_COMMENT>
InChI=1S/C21H19F3N6O3S/c22-21(23,24)11-29-10-13-8-14(4-5-17(13)34(29,32)33)27-19-18-16(6-7-26-20(18)31)30(28-19)15-3-1-2-12(15)9-25/h4-8,12,15H,1-3,10-11H2,(H,26,31)(H,27,28)/t12-,15+/m1/s1
InChIKey=ZMYDROADDLDZOC-DOMZBBRYSA-N

> <PUBCHEM_SUBSTANCE_SYNONYM>
SCHEMBL16126928

> <PUBCHEM_XREF_EXT_ID>
SCHEMBL16126928

> <PUBCHEM_EXT_DATASOURCE_URL>
https://www.surechembl.org/

> <PUBCHEM_EXT_SUBSTANCE_URL>
https://www.surechembl.org/chemical/SCHEMBL16126928

> <PUBCHEM_CID_ASSOCIATIONS>
117614286  1

> <PUBCHEM_COORDINATE_TYPE>
1
3

> <PUBCHEM_BONDANNOTATIONS>
28  34  6
22  9  5

$$$$
