310929177
  -OEChem-07211613022D

 14 15  0     0  0  0  0  0  0999 V2000
    0.0000   -1.5362    0.0000 O   0  0  0  0  0  0  0  0  0  0  0  0
    3.2919   -2.9627    0.0000 O   0  0  0  0  0  0  0  0  0  0  0  0
    0.8339   -4.3893    0.0000 N   0  0  0  0  0  0  0  0  0  0  0  0
    1.2290   -2.2605    0.0000 C   0  0  0  0  0  0  0  0  0  0  0  0
    0.8339   -1.5362    0.0000 C   0  0  0  0  0  0  0  0  0  0  0  0
    1.2290   -0.8120    0.0000 C   0  0  0  0  0  0  0  0  0  0  0  0
    2.0630   -2.2605    0.0000 C   0  0  0  0  0  0  0  0  0  0  0  0
    2.4799   -2.9627    0.0000 C   0  0  0  0  0  0  0  0  0  0  0  0
    0.8339   -2.9627    0.0000 C   0  0  0  0  0  0  0  0  0  0  0  0
    1.2290   -3.6870    0.0000 C   0  0  0  0  0  0  0  0  0  0  0  0
    1.2290    0.0000    0.0000 C   0  0  0  0  0  0  0  0  0  0  0  0
    1.9532   -0.3950    0.0000 C   0  0  0  0  0  0  0  0  0  0  0  0
    2.0630   -3.6870    0.0000 C   0  0  0  0  0  0  0  0  0  0  0  0
    3.7089   -2.2605    0.0000 C   0  0  0  0  0  0  0  0  0  0  0  0
  1  5  2  0  0  0  0
  2  8  1  0  0  0  0
  2 14  1  0  0  0  0
  3 10  1  0  0  0  0
  4  5  1  0  0  0  0
  4  7  2  0  0  0  0
  4  9  1  0  0  0  0
  5  6  1  0  0  0  0
  6 11  1  0  0  0  0
  6 12  1  0  0  0  0
  7  8  1  0  0  0  0
  8 13  2  0  0  0  0
  9 10  2  0  0  0  0
 10 13  1  0  0  0  0
 11 12  1  0  0  0  0
M  END
> <PUBCHEM_COMPOUND_ID_TYPE>
0

> <PUBCHEM_TOTAL_CHARGE>
0

> <PUBCHEM_SUBSTANCE_ID>
310929177

> <PUBCHEM_SUBSTANCE_VERSION>
1

> <PUBCHEM_EXT_DATASOURCE_NAME>
4488

> <PUBCHEM_EXT_DATASOURCE_REGID>
SCHEMBL16106340

> <PUBCHEM_SUBSTANCE_COMMENT>
InChI=1S/C11H13NO2/c1-14-10-5-8(4-9(12)6-10)11(13)7-2-3-7/h4-7H,2-3,12H2,1H3
InChIKey=PWGPAIOPLYNZHO-UHFFFAOYSA-N

> <PUBCHEM_SUBSTANCE_SYNONYM>
SCHEMBL16106340

> <PUBCHEM_XREF_EXT_ID>
SCHEMBL16106340

> <PUBCHEM_EXT_DATASOURCE_URL>
https://www.surechembl.org/

> <PUBCHEM_EXT_SUBSTANCE_URL>
https://www.surechembl.org/chemical/SCHEMBL16106340

> <PUBCHEM_CID_ASSOCIATIONS>
117598634  1

> <PUBCHEM_COORDINATE_TYPE>
1
3

$$$$
