310941693
  -OEChem-07211613022D

 28 30  0     0  0  0  0  0  0999 V2000
   -2.8480    1.6576    0.0000 F   0  0  0  0  0  0  0  0  0  0  0  0
    2.1102    2.0708    0.0000 O   0  0  0  0  0  0  0  0  0  0  0  0
    2.8382   -1.6675    0.0000 O   0  5  0  0  0  0  0  0  0  0  0  0
    3.5465   -0.4378    0.0000 O   0  0  0  0  0  0  0  0  0  0  0  0
    2.1102   -2.0708    0.0000 O   0  0  0  0  0  0  0  0  0  0  0  0
    2.8382   -0.8411    0.0000 N   0  3  0  0  0  0  0  0  0  0  0  0
    0.7034    2.0708    0.0000 N   0  0  0  0  0  0  0  0  0  0  0  0
   -0.7132    0.4083    0.0000 N   0  0  0  0  0  0  0  0  0  0  0  0
    0.7132   -2.0807    0.0000 N   0  0  0  0  0  0  0  0  0  0  0  0
    2.1200   -0.3886    0.0000 C   0  0  0  0  0  0  0  0  0  0  0  0
    1.4216   -0.8215    0.0000 C   0  0  0  0  0  0  0  0  0  0  0  0
    1.4117    0.8510    0.0000 C   0  0  0  0  0  0  0  0  0  0  0  0
    2.1200    0.4181    0.0000 C   0  0  0  0  0  0  0  0  0  0  0  0
    1.4018    1.6675    0.0000 C   0  0  0  0  0  0  0  0  0  0  0  0
   -1.4314    0.8510    0.0000 C   0  0  0  0  0  0  0  0  0  0  0  0
   -2.1397    0.4279    0.0000 C   0  0  0  0  0  0  0  0  0  0  0  0
    0.7034   -0.3984    0.0000 C   0  0  0  0  0  0  0  0  0  0  0  0
    0.7034    0.4279    0.0000 C   0  0  0  0  0  0  0  0  0  0  0  0
    0.0049    1.6773    0.0000 C   0  0  0  0  0  0  0  0  0  0  0  0
    1.3920   -1.6281    0.0000 C   0  0  0  0  0  0  0  0  0  0  0  0
   -2.8480    0.8510    0.0000 C   0  0  0  0  0  0  0  0  0  0  0  0
   -1.4117    1.6871    0.0000 C   0  0  0  0  0  0  0  0  0  0  0  0
   -0.0049    0.8510    0.0000 C   0  0  0  0  0  0  0  0  0  0  0  0
   -0.7329    2.0807    0.0000 C   0  0  0  0  0  0  0  0  0  0  0  0
   -2.1397   -0.3984    0.0000 C   0  0  0  0  0  0  0  0  0  0  0  0
   -3.5465    0.4279    0.0000 C   0  0  0  0  0  0  0  0  0  0  0  0
   -2.8578   -0.8018    0.0000 C   0  0  0  0  0  0  0  0  0  0  0  0
   -3.5465   -0.3984    0.0000 C   0  0  0  0  0  0  0  0  0  0  0  0
  1 21  1  0  0  0  0
  2 14  2  0  0  0  0
  3  6  1  0  0  0  0
  4  6  2  0  0  0  0
  5 20  2  0  0  0  0
  6 10  1  0  0  0  0
  7 14  1  0  0  0  0
  7 19  1  0  0  0  0
  8 15  1  0  0  0  0
  8 23  2  0  0  0  0
  9 20  1  0  0  0  0
 10 11  2  0  0  0  0
 10 13  1  0  0  0  0
 11 17  1  0  0  0  0
 11 20  1  0  0  0  0
 12 13  2  0  0  0  0
 12 14  1  0  0  0  0
 12 18  1  0  0  0  0
 15 16  1  0  0  0  0
 15 22  2  0  0  0  0
 16 21  1  0  0  0  0
 16 25  2  0  0  0  0
 17 18  2  0  0  0  0
 19 23  1  0  0  0  0
 19 24  2  0  0  0  0
 21 26  2  0  0  0  0
 22 24  1  0  0  0  0
 25 27  1  0  0  0  0
 26 28  1  0  0  0  0
 27 28  2  0  0  0  0
M  CHG  2   3  -1   6   1
M  END
> <PUBCHEM_COMPOUND_ID_TYPE>
0

> <PUBCHEM_TOTAL_CHARGE>
0

> <PUBCHEM_SUBSTANCE_ID>
310941693

> <PUBCHEM_SUBSTANCE_VERSION>
1

> <PUBCHEM_EXT_DATASOURCE_NAME>
4488

> <PUBCHEM_EXT_DATASOURCE_REGID>
SCHEMBL16119724

> <PUBCHEM_SUBSTANCE_COMMENT>
InChI=1S/C19H13FN4O4/c20-15-4-2-1-3-13(15)16-8-6-12(10-22-16)23-19(26)11-5-7-14(18(21)25)17(9-11)24(27)28/h1-10H,(H2,21,25)(H,23,26)
InChIKey=SFKBAVFSHKNOTQ-UHFFFAOYSA-N

> <PUBCHEM_SUBSTANCE_SYNONYM>
SCHEMBL16119724

> <PUBCHEM_XREF_EXT_ID>
SCHEMBL16119724

> <PUBCHEM_EXT_DATASOURCE_URL>
https://www.surechembl.org/

> <PUBCHEM_EXT_SUBSTANCE_URL>
https://www.surechembl.org/chemical/SCHEMBL16119724

> <PUBCHEM_CID_ASSOCIATIONS>
117608466  1

> <PUBCHEM_COORDINATE_TYPE>
1
3

$$$$
