310931744
  -OEChem-07211613022D

 32 35  0     0  0  0  0  0  0999 V2000
    2.8537   -2.1244    0.0000 O   0  0  0  0  0  0  0  0  0  0  0  0
    1.7756   -2.2513    0.0000 O   0  0  0  0  0  0  0  0  0  0  0  0
    0.1268   -2.3781    0.0000 O   0  0  0  0  0  0  0  0  0  0  0  0
    7.3245   -2.2196    0.0000 O   0  0  0  0  0  0  0  0  0  0  0  0
    9.5124   -2.6001    0.0000 O   0  0  0  0  0  0  0  0  0  0  0  0
    3.7416   -0.9829    0.0000 N   0  0  0  0  0  0  0  0  0  0  0  0
    3.6781   -0.1585    0.0000 N   0  0  0  0  0  0  0  0  0  0  0  0
    5.2001   -0.9829    0.0000 N   0  0  0  0  0  0  0  0  0  0  0  0
    0.0000   -0.9829    0.0000 N   0  0  0  0  0  0  0  0  0  0  0  0
    6.6270   -3.4562    0.0000 N   0  0  0  0  0  0  0  0  0  0  0  0
    2.4415   -0.7293    0.0000 C   0  0  0  0  0  0  0  0  0  0  0  0
    3.0122   -1.3317    0.0000 C   0  0  0  0  0  0  0  0  0  0  0  0
    1.6171   -0.7927    0.0000 C   0  0  0  0  0  0  0  0  0  0  0  0
    1.3000   -1.5854    0.0000 C   0  0  0  0  0  0  0  0  0  0  0  0
    4.4708   -1.3952    0.0000 C   0  0  0  0  0  0  0  0  0  0  0  0
    2.8537    0.0000    0.0000 C   0  0  0  0  0  0  0  0  0  0  0  0
    0.4756   -1.6488    0.0000 C   0  0  0  0  0  0  0  0  0  0  0  0
    1.1415   -0.1585    0.0000 C   0  0  0  0  0  0  0  0  0  0  0  0
    4.4708   -2.2196    0.0000 C   0  0  0  0  0  0  0  0  0  0  0  0
    0.3171   -0.2220    0.0000 C   0  0  0  0  0  0  0  0  0  0  0  0
    5.8977   -2.2196    0.0000 C   0  0  0  0  0  0  0  0  0  0  0  0
    5.8977   -1.3952    0.0000 C   0  0  0  0  0  0  0  0  0  0  0  0
    5.2001   -2.6318    0.0000 C   0  0  0  0  0  0  0  0  0  0  0  0
    6.6270   -2.6318    0.0000 C   0  0  0  0  0  0  0  0  0  0  0  0
    2.6001   -2.1561    0.0000 C   0  0  0  0  0  0  0  0  0  0  0  0
    0.6024   -3.0439    0.0000 C   0  0  0  0  0  0  0  0  0  0  0  0
    7.3245   -3.8684    0.0000 C   0  0  0  0  0  0  0  0  0  0  0  0
    8.0538   -3.4562    0.0000 C   0  0  0  0  0  0  0  0  0  0  0  0
    8.7831   -3.8367    0.0000 C   0  0  0  0  0  0  0  0  0  0  0  0
    8.0855   -2.6318    0.0000 C   0  0  0  0  0  0  0  0  0  0  0  0
    9.4807   -3.4562    0.0000 C   0  0  0  0  0  0  0  0  0  0  0  0
    8.7831   -2.2196    0.0000 C   0  0  0  0  0  0  0  0  0  0  0  0
  1 12  1  0  0  0  0
  2 14  1  0  0  0  0
  2 25  1  0  0  0  0
  3 17  1  0  0  0  0
  3 26  1  0  0  0  0
  4 24  2  0  0  0  0
  5 31  1  0  0  0  0
  5 32  1  0  0  0  0
  6  7  1  0  0  0  0
  6 12  1  0  0  0  0
  6 15  1  0  0  0  0
  7 16  2  0  0  0  0
  8 15  2  0  0  0  0
  8 22  1  0  0  0  0
  9 17  1  0  0  0  0
  9 20  2  0  0  0  0
 10 24  1  0  0  0  0
 10 27  1  0  0  0  0
 11 12  2  0  0  0  0
 11 13  1  0  0  0  0
 11 16  1  0  0  0  0
 13 14  1  0  0  0  0
 13 18  2  0  0  0  0
 14 17  2  0  0  0  0
 15 19  1  0  0  0  0
 18 20  1  0  0  0  0
 19 23  2  0  0  0  0
 21 22  2  0  0  0  0
 21 23  1  0  0  0  0
 21 24  1  0  0  0  0
 27 28  1  0  0  0  0
 28 29  1  0  0  0  0
 28 30  1  0  0  0  0
 29 31  1  0  0  0  0
 30 32  1  0  0  0  0
M  END
> <PUBCHEM_COMPOUND_ID_TYPE>
0

> <PUBCHEM_TOTAL_CHARGE>
0

> <PUBCHEM_SUBSTANCE_ID>
310931744

> <PUBCHEM_SUBSTANCE_VERSION>
1

> <PUBCHEM_EXT_DATASOURCE_NAME>
4488

> <PUBCHEM_EXT_DATASOURCE_REGID>
SCHEMBL16109073

> <PUBCHEM_SUBSTANCE_COMMENT>
InChI=1S/C22H25N5O5/c1-30-19-16(5-8-23-21(19)31-2)17-13-26-27(22(17)29)18-4-3-15(12-24-18)20(28)25-11-14-6-9-32-10-7-14/h3-5,8,12-14,29H,6-7,9-11H2,1-2H3,(H,25,28)
InChIKey=OSDYYMZJVWMLCA-UHFFFAOYSA-N

> <PUBCHEM_SUBSTANCE_SYNONYM>
SCHEMBL16109073

> <PUBCHEM_XREF_EXT_ID>
SCHEMBL16109073

> <PUBCHEM_EXT_DATASOURCE_URL>
https://www.surechembl.org/

> <PUBCHEM_EXT_SUBSTANCE_URL>
https://www.surechembl.org/chemical/SCHEMBL16109073

> <PUBCHEM_CID_ASSOCIATIONS>
117600435  1

> <PUBCHEM_COORDINATE_TYPE>
1
3

$$$$
