310941965
  -OEChem-07211613022D

 25 27  0     0  0  0  0  0  0999 V2000
   -1.9765   -3.7023    0.0000 I   0  0  0  0  0  0  0  0  0  0  0  0
   -0.4471    2.4487    0.0000 O   0  0  0  0  0  0  0  0  0  0  0  0
    2.5783    1.8052    0.0000 O   0  0  0  0  0  0  0  0  0  0  0  0
   -0.5391   -0.3928    0.0000 N   0  0  0  0  0  0  0  0  0  0  0  0
   -1.9264    2.9084    0.0000 N   0  0  0  0  0  0  0  0  0  0  0  0
   -0.9736    0.8775    0.0000 C   0  0  0  0  0  0  0  0  0  0  0  0
   -0.1379    0.8691    0.0000 C   0  0  0  0  0  0  0  0  0  0  0  0
   -1.2160    0.0919    0.0000 C   0  0  0  0  0  0  0  0  0  0  0  0
    0.1212    0.1003    0.0000 C   0  0  0  0  0  0  0  0  0  0  0  0
   -1.5252    1.4876    0.0000 C   0  0  0  0  0  0  0  0  0  0  0  0
    0.4220    1.4959    0.0000 C   0  0  0  0  0  0  0  0  0  0  0  0
   -2.0350   -0.0752    0.0000 C   0  0  0  0  0  0  0  0  0  0  0  0
    0.9318   -0.0752    0.0000 C   0  0  0  0  0  0  0  0  0  0  0  0
    1.2244    1.3372    0.0000 C   0  0  0  0  0  0  0  0  0  0  0  0
   -1.2828    2.2816    0.0000 C   0  0  0  0  0  0  0  0  0  0  0  0
   -2.3192    1.3205    0.0000 C   0  0  0  0  0  0  0  0  0  0  0  0
   -0.5474   -1.2286    0.0000 C   0  0  0  0  0  0  0  0  0  0  0  0
    1.4751    0.5265    0.0000 C   0  0  0  0  0  0  0  0  0  0  0  0
   -2.5783    0.5265    0.0000 C   0  0  0  0  0  0  0  0  0  0  0  0
    1.7509    1.9723    0.0000 C   0  0  0  0  0  0  0  0  0  0  0  0
   -1.2578   -1.6380    0.0000 C   0  0  0  0  0  0  0  0  0  0  0  0
    1.5001    2.7496    0.0000 C   0  0  0  0  0  0  0  0  0  0  0  0
   -1.2661   -2.4654    0.0000 C   0  0  0  0  0  0  0  0  0  0  0  0
   -1.5419    3.7023    0.0000 C   0  0  0  0  0  0  0  0  0  0  0  0
   -1.9765   -2.8749    0.0000 C   0  0  0  0  0  0  0  0  0  0  0  0
  1 25  1  0  0  0  0
  2 15  2  0  0  0  0
  3 20  2  0  0  0  0
  4  8  1  0  0  0  0
  4  9  1  0  0  0  0
  4 17  1  0  0  0  0
  5 15  1  0  0  0  0
  5 24  1  0  0  0  0
  6  7  1  0  0  0  0
  6  8  1  0  0  0  0
  6 10  2  0  0  0  0
  7  9  2  0  0  0  0
  7 11  1  0  0  0  0
  8 12  2  0  0  0  0
  9 13  1  0  0  0  0
 10 15  1  0  0  0  0
 10 16  1  0  0  0  0
 11 14  2  0  0  0  0
 12 19  1  0  0  0  0
 13 18  2  0  0  0  0
 14 18  1  0  0  0  0
 14 20  1  0  0  0  0
 16 19  2  0  0  0  0
 17 21  1  0  0  0  0
 20 22  1  0  0  0  0
 21 23  1  0  0  0  0
 23 25  1  0  0  0  0
M  END
> <PUBCHEM_COMPOUND_ID_TYPE>
0

> <PUBCHEM_TOTAL_CHARGE>
0

> <PUBCHEM_SUBSTANCE_ID>
310941965

> <PUBCHEM_SUBSTANCE_VERSION>
1

> <PUBCHEM_EXT_DATASOURCE_NAME>
4488

> <PUBCHEM_EXT_DATASOURCE_REGID>
SCHEMBL16119999

> <PUBCHEM_SUBSTANCE_COMMENT>
InChI=1S/C20H21IN2O2/c1-13(24)14-8-9-17-16(12-14)19-15(20(25)22-2)6-5-7-18(19)23(17)11-4-3-10-21/h5-9,12H,3-4,10-11H2,1-2H3,(H,22,25)
InChIKey=DPJZPEPWVRTLCD-UHFFFAOYSA-N

> <PUBCHEM_SUBSTANCE_SYNONYM>
SCHEMBL16119999

> <PUBCHEM_XREF_EXT_ID>
SCHEMBL16119999

> <PUBCHEM_EXT_DATASOURCE_URL>
https://www.surechembl.org/

> <PUBCHEM_EXT_SUBSTANCE_URL>
https://www.surechembl.org/chemical/SCHEMBL16119999

> <PUBCHEM_CID_ASSOCIATIONS>
117608677  1

> <PUBCHEM_COORDINATE_TYPE>
1
3

$$$$
