310932908
  -OEChem-07211613022D

 31 34  0     0  0  0  0  0  0999 V2000
    1.0044    0.0000    0.0000 F   0  0  0  0  0  0  0  0  0  0  0  0
    4.0533   -2.5467    0.0000 O   0  0  0  0  0  0  0  0  0  0  0  0
    8.5728   -2.6543    0.0000 O   0  0  0  0  0  0  0  0  0  0  0  0
   10.7608   -3.0489    0.0000 O   0  0  0  0  0  0  0  0  0  0  0  0
    4.9858   -1.3989    0.0000 N   0  0  0  0  0  0  0  0  0  0  0  0
    4.8783   -0.5739    0.0000 N   0  0  0  0  0  0  0  0  0  0  0  0
    6.4206   -1.3989    0.0000 N   0  0  0  0  0  0  0  0  0  0  0  0
    7.8554   -3.9098    0.0000 N   0  0  0  0  0  0  0  0  0  0  0  0
    0.0000   -2.2598    0.0000 N   0  0  0  0  0  0  0  0  0  0  0  0
    3.6587   -1.1478    0.0000 C   0  0  0  0  0  0  0  0  0  0  0  0
    4.2326   -1.7576    0.0000 C   0  0  0  0  0  0  0  0  0  0  0  0
    2.8337   -1.2196    0.0000 C   0  0  0  0  0  0  0  0  0  0  0  0
    5.7033   -1.8293    0.0000 C   0  0  0  0  0  0  0  0  0  0  0  0
    4.0533   -0.4304    0.0000 C   0  0  0  0  0  0  0  0  0  0  0  0
    2.3315   -0.5739    0.0000 C   0  0  0  0  0  0  0  0  0  0  0  0
    2.5108   -2.0087    0.0000 C   0  0  0  0  0  0  0  0  0  0  0  0
    5.7033   -2.6543    0.0000 C   0  0  0  0  0  0  0  0  0  0  0  0
    1.5065   -0.6815    0.0000 C   0  0  0  0  0  0  0  0  0  0  0  0
    7.1380   -2.6543    0.0000 C   0  0  0  0  0  0  0  0  0  0  0  0
    1.1837   -1.4348    0.0000 C   0  0  0  0  0  0  0  0  0  0  0  0
    7.1380   -1.8293    0.0000 C   0  0  0  0  0  0  0  0  0  0  0  0
    6.4206   -3.0489    0.0000 C   0  0  0  0  0  0  0  0  0  0  0  0
    1.6500   -2.0804    0.0000 C   0  0  0  0  0  0  0  0  0  0  0  0
    7.8554   -3.0489    0.0000 C   0  0  0  0  0  0  0  0  0  0  0  0
    0.3587   -1.5065    0.0000 C   0  0  0  0  0  0  0  0  0  0  0  0
    8.5728   -4.3043    0.0000 C   0  0  0  0  0  0  0  0  0  0  0  0
    9.2901   -3.9098    0.0000 C   0  0  0  0  0  0  0  0  0  0  0  0
   10.0434   -4.3043    0.0000 C   0  0  0  0  0  0  0  0  0  0  0  0
    9.3260   -3.0489    0.0000 C   0  0  0  0  0  0  0  0  0  0  0  0
   10.7608   -3.8739    0.0000 C   0  0  0  0  0  0  0  0  0  0  0  0
   10.0434   -2.6543    0.0000 C   0  0  0  0  0  0  0  0  0  0  0  0
  1 18  1  0  0  0  0
  2 11  1  0  0  0  0
  3 24  2  0  0  0  0
  4 30  1  0  0  0  0
  4 31  1  0  0  0  0
  5  6  1  0  0  0  0
  5 11  1  0  0  0  0
  5 13  1  0  0  0  0
  6 14  2  0  0  0  0
  7 13  2  0  0  0  0
  7 21  1  0  0  0  0
  8 24  1  0  0  0  0
  8 26  1  0  0  0  0
  9 25  3  0  0  0  0
 10 11  2  0  0  0  0
 10 12  1  0  0  0  0
 10 14  1  0  0  0  0
 12 15  1  0  0  0  0
 12 16  2  0  0  0  0
 13 17  1  0  0  0  0
 15 18  2  0  0  0  0
 16 23  1  0  0  0  0
 17 22  2  0  0  0  0
 18 20  1  0  0  0  0
 19 21  2  0  0  0  0
 19 22  1  0  0  0  0
 19 24  1  0  0  0  0
 20 23  2  0  0  0  0
 20 25  1  0  0  0  0
 26 27  1  0  0  0  0
 27 28  1  0  0  0  0
 27 29  1  0  0  0  0
 28 30  1  0  0  0  0
 29 31  1  0  0  0  0
M  END
> <PUBCHEM_COMPOUND_ID_TYPE>
0

> <PUBCHEM_TOTAL_CHARGE>
0

> <PUBCHEM_SUBSTANCE_ID>
310932908

> <PUBCHEM_SUBSTANCE_VERSION>
1

> <PUBCHEM_EXT_DATASOURCE_NAME>
4488

> <PUBCHEM_EXT_DATASOURCE_REGID>
SCHEMBL16110302

> <PUBCHEM_SUBSTANCE_COMMENT>
InChI=1S/C22H20FN5O3/c23-19-9-15(1-2-16(19)10-24)18-13-27-28(22(18)30)20-4-3-17(12-25-20)21(29)26-11-14-5-7-31-8-6-14/h1-4,9,12-14,30H,5-8,11H2,(H,26,29)
InChIKey=SHYPMGNMYAXGKK-UHFFFAOYSA-N

> <PUBCHEM_SUBSTANCE_SYNONYM>
SCHEMBL16110302

> <PUBCHEM_XREF_EXT_ID>
SCHEMBL16110302

> <PUBCHEM_EXT_DATASOURCE_URL>
https://www.surechembl.org/

> <PUBCHEM_EXT_SUBSTANCE_URL>
https://www.surechembl.org/chemical/SCHEMBL16110302

> <PUBCHEM_CID_ASSOCIATIONS>
117601390  1

> <PUBCHEM_COORDINATE_TYPE>
1
3

$$$$
