310942723
  -OEChem-07211613022D

 56 61  0     1  0  0  0  0  0999 V2000
    3.9400    3.1741    0.0000 F   0  0  0  0  0  0  0  0  0  0  0  0
    0.6407    2.8206    0.0000 F   0  0  0  0  0  0  0  0  0  0  0  0
    2.7764   -3.7632    0.0000 F   0  0  0  0  0  0  0  0  0  0  0  0
    2.0253    0.4934    0.0000 O   0  0  0  0  0  0  0  0  0  0  0  0
    5.8253   -1.7159    0.0000 O   0  0  0  0  0  0  0  0  0  0  0  0
   -0.1105   -0.7585    0.0000 O   0  0  0  0  0  0  0  0  0  0  0  0
   -0.8322    0.4934    0.0000 O   0  0  0  0  0  0  0  0  0  0  0  0
   -6.7532    0.4051    0.0000 O   0  0  0  0  0  0  0  0  0  0  0  0
   -5.2951   -2.1430    0.0000 O   0  0  0  0  0  0  0  0  0  0  0  0
   -3.6896   -0.3461    0.0000 O   0  0  0  0  0  0  0  0  0  0  0  0
    4.3377    0.8617    0.0000 N   0  0  0  0  0  0  0  0  0  0  0  0
    2.9532   -0.8764    0.0000 N   0  0  0  0  0  0  0  0  0  0  0  0
    2.9974    0.8617    0.0000 N   0  0  0  0  0  0  0  0  0  0  0  0
    0.9353   -2.6586    0.0000 N   0  0  0  0  0  0  0  0  0  0  0  0
    1.3183   -1.5834    0.0000 N   0  0  0  0  0  0  0  0  0  0  0  0
   -5.8253   -0.7585    0.0000 N   0  0  0  0  0  0  0  0  0  0  0  0
   -1.5392   -0.7585    0.0000 N   0  0  0  0  0  0  0  0  0  0  0  0
    3.6749    0.3756    0.0000 C   0  0  0  0  0  0  0  0  0  0  0  0
    3.6602   -0.4493    0.0000 C   0  0  3  0  0  0  0  0  0  0  0  0
    3.2624    1.6717    0.0000 C   0  0  0  0  0  0  0  0  0  0  0  0
    4.3966   -0.8764    0.0000 C   0  0  0  0  0  0  0  0  0  0  0  0
    4.0873    1.6570    0.0000 C   0  0  0  0  0  0  0  0  0  0  0  0
    2.7764    2.3345    0.0000 C   0  0  0  0  0  0  0  0  0  0  0  0
    2.0253   -0.3461    0.0000 C   0  0  0  0  0  0  0  0  0  0  0  0
    5.1330    0.6113    0.0000 C   0  0  0  0  0  0  0  0  0  0  0  0
    2.9532   -1.9516    0.0000 C   0  0  0  0  0  0  0  0  0  0  0  0
    3.1004    3.1004    0.0000 C   0  0  0  0  0  0  0  0  0  0  0  0
    2.2462   -2.3640    0.0000 C   0  0  3  0  0  0  0  0  0  0  0  0
    4.3966   -1.7012    0.0000 C   0  0  0  0  0  0  0  0  0  0  0  0
    5.0741   -0.4639    0.0000 C   0  0  0  0  0  0  0  0  0  0  0  0
    1.9516    2.2462    0.0000 C   0  0  0  0  0  0  0  0  0  0  0  0
    1.3035   -0.7438    0.0000 C   0  0  3  0  0  0  0  0  0  0  0  0
    5.7370    1.1562    0.0000 C   0  0  0  0  0  0  0  0  0  0  0  0
    1.4655    2.9090    0.0000 C   0  0  0  0  0  0  0  0  0  0  0  0
    2.1578   -3.2036    0.0000 C   0  0  3  0  0  0  0  0  0  0  0  0
    2.6291    3.7632    0.0000 C   0  0  0  0  0  0  0  0  0  0  0  0
    5.8253   -0.8764    0.0000 C   0  0  0  0  0  0  0  0  0  0  0  0
    5.1183   -2.1136    0.0000 C   0  0  0  0  0  0  0  0  0  0  0  0
    1.4950   -2.0400    0.0000 C   0  0  0  0  0  0  0  0  0  0  0  0
    1.8043    3.6749    0.0000 C   0  0  0  0  0  0  0  0  0  0  0  0
    0.5965   -0.3314    0.0000 C   0  0  0  0  0  0  0  0  0  0  0  0
    6.5176    0.9059    0.0000 C   0  0  0  0  0  0  0  0  0  0  0  0
    5.5749    1.9516    0.0000 C   0  0  0  0  0  0  0  0  0  0  0  0
    1.3477   -3.3656    0.0000 C   0  0  0  0  0  0  0  0  0  0  0  0
    7.1362    1.4655    0.0000 C   0  0  0  0  0  0  0  0  0  0  0  0
    6.1788    2.5113    0.0000 C   0  0  0  0  0  0  0  0  0  0  0  0
    6.9741    2.2757    0.0000 C   0  0  0  0  0  0  0  0  0  0  0  0
   -0.8322   -0.3461    0.0000 C   0  0  0  0  0  0  0  0  0  0  0  0
   -5.9432   -1.5687    0.0000 C   0  0  0  0  0  0  0  0  0  0  0  0
   -6.5912   -0.4198    0.0000 C   0  0  0  0  0  0  0  0  0  0  0  0
   -7.1362   -1.0531    0.0000 C   0  0  0  0  0  0  0  0  0  0  0  0
   -6.7385   -1.7454    0.0000 C   0  0  0  0  0  0  0  0  0  0  0  0
   -5.1183   -0.3314    0.0000 C   0  0  0  0  0  0  0  0  0  0  0  0
   -2.2609   -0.3314    0.0000 C   0  0  0  0  0  0  0  0  0  0  0  0
   -4.3966   -0.7438    0.0000 C   0  0  0  0  0  0  0  0  0  0  0  0
   -2.9679   -0.7438    0.0000 C   0  0  0  0  0  0  0  0  0  0  0  0
  1 27  1  0  0  0  0
  2 34  1  0  0  0  0
 35  3  1  1  0  0  0
  4 24  2  0  0  0  0
  5 37  1  0  0  0  0
  5 38  1  0  0  0  0
  6 41  1  0  0  0  0
  6 48  1  0  0  0  0
  7 48  2  0  0  0  0
  8 50  2  0  0  0  0
  9 49  2  0  0  0  0
 10 55  1  0  0  0  0
 10 56  1  0  0  0  0
 11 18  1  0  0  0  0
 11 22  1  0  0  0  0
 11 25  1  0  0  0  0
 19 12  1  1  0  0  0
 12 24  1  0  0  0  0
 12 26  1  0  0  0  0
 13 18  2  0  0  0  0
 13 20  1  0  0  0  0
 14 39  1  0  0  0  0
 14 44  1  0  0  0  0
 15 32  1  0  0  0  0
 16 49  1  0  0  0  0
 16 50  1  0  0  0  0
 16 53  1  0  0  0  0
 17 48  1  0  0  0  0
 17 54  1  0  0  0  0
 18 19  1  0  0  0  0
 19 21  1  0  0  0  0
 20 22  2  0  0  0  0
 20 23  1  0  0  0  0
 21 29  1  0  0  0  0
 21 30  1  0  0  0  0
 23 27  2  0  0  0  0
 23 31  1  0  0  0  0
 24 32  1  0  0  0  0
 25 33  1  0  0  0  0
 28 26  1  1  0  0  0
 27 36  1  0  0  0  0
 28 35  1  0  0  0  0
 28 39  1  0  0  0  0
 29 38  1  0  0  0  0
 30 37  1  0  0  0  0
 31 34  2  0  0  0  0
 32 41  1  0  0  0  0
 33 42  2  0  0  0  0
 33 43  1  0  0  0  0
 34 40  1  0  0  0  0
 35 44  1  0  0  0  0
 36 40  2  0  0  0  0
 42 45  1  0  0  0  0
 43 46  2  0  0  0  0
 45 47  2  0  0  0  0
 46 47  1  0  0  0  0
 49 52  1  0  0  0  0
 50 51  1  0  0  0  0
 51 52  2  0  0  0  0
 53 55  1  0  0  0  0
 54 56  1  0  0  0  0
M  END
> <PUBCHEM_COMPOUND_ID_TYPE>
0

> <PUBCHEM_TOTAL_CHARGE>
0

> <PUBCHEM_SUBSTANCE_ID>
310942723

> <PUBCHEM_SUBSTANCE_VERSION>
1

> <PUBCHEM_EXT_DATASOURCE_NAME>
4488

> <PUBCHEM_EXT_DATASOURCE_REGID>
SCHEMBL16120769

> <PUBCHEM_SUBSTANCE_COMMENT>
InChI=1S/C39H46F3N7O7/c40-28-6-7-30(41)29(18-28)33-23-47(21-25-4-2-1-3-5-25)37(46-33)36(26-10-14-54-15-11-26)49(22-27-19-44-20-31(27)42)38(52)32(43)24-56-39(53)45-12-16-55-17-13-48-34(50)8-9-35(48)51/h1-9,18,23,26-27,31-32,36,44H,10-17,19-22,24,43H2,(H,45,53)/t27-,31-,32?,36+/m0/s1
InChIKey=FBTWSJKKJWWIPH-KNEDDMRVSA-N

> <PUBCHEM_SUBSTANCE_SYNONYM>
SCHEMBL16120769

> <PUBCHEM_XREF_EXT_ID>
SCHEMBL16120769

> <PUBCHEM_EXT_DATASOURCE_URL>
https://www.surechembl.org/

> <PUBCHEM_EXT_SUBSTANCE_URL>
https://www.surechembl.org/chemical/SCHEMBL16120769

> <PUBCHEM_CID_ASSOCIATIONS>
117609243  1

> <PUBCHEM_COORDINATE_TYPE>
1
3

> <PUBCHEM_BONDANNOTATIONS>
19  12  5
28  26  5
35  3  5

$$$$
