310928722
  -OEChem-07211613022D

 17 18  0     0  0  0  0  0  0999 V2000
    1.4289    1.0473    0.0000 O   0  5  0  0  0  0  0  0  0  0  0  0
    0.7145    2.2848    0.0000 O   0  0  0  0  0  0  0  0  0  0  0  0
   -1.3210   -1.8286    0.0000 O   0  0  0  0  0  0  0  0  0  0  0  0
    0.7145   -1.0152    0.0000 N   0  0  0  0  0  0  0  0  0  0  0  0
    0.7145    1.4598    0.0000 N   0  3  0  0  0  0  0  0  0  0  0  0
    0.0000    0.2223    0.0000 C   0  0  0  0  0  0  0  0  0  0  0  0
    0.0000    1.0473    0.0000 C   0  0  0  0  0  0  0  0  0  0  0  0
    0.7145   -0.1902    0.0000 C   0  0  0  0  0  0  0  0  0  0  0  0
    0.0470   -1.5002    0.0000 C   0  0  0  0  0  0  0  0  0  0  0  0
   -0.7145   -0.1902    0.0000 C   0  0  0  0  0  0  0  0  0  0  0  0
    1.3819   -1.5002    0.0000 C   0  0  0  0  0  0  0  0  0  0  0  0
   -0.7145    1.4598    0.0000 C   0  0  0  0  0  0  0  0  0  0  0  0
    0.3020   -2.2848    0.0000 C   0  0  0  0  0  0  0  0  0  0  0  0
    1.1270   -2.2848    0.0000 C   0  0  0  0  0  0  0  0  0  0  0  0
   -1.4289    0.2223    0.0000 C   0  0  0  0  0  0  0  0  0  0  0  0
   -1.4289    1.0473    0.0000 C   0  0  0  0  0  0  0  0  0  0  0  0
   -0.7376   -1.2452    0.0000 C   0  0  0  0  0  0  0  0  0  0  0  0
  1  5  1  0  0  0  0
  2  5  2  0  0  0  0
  3 17  2  0  0  0  0
  4  8  1  0  0  0  0
  4  9  1  0  0  0  0
  4 11  1  0  0  0  0
  5  7  1  0  0  0  0
  6  7  2  0  0  0  0
  6  8  1  0  0  0  0
  6 10  1  0  0  0  0
  7 12  1  0  0  0  0
  9 13  2  0  0  0  0
  9 17  1  0  0  0  0
 10 15  2  0  0  0  0
 11 14  2  0  0  0  0
 12 16  2  0  0  0  0
 13 14  1  0  0  0  0
 15 16  1  0  0  0  0
M  CHG  2   1  -1   5   1
M  END
> <PUBCHEM_COMPOUND_ID_TYPE>
0

> <PUBCHEM_TOTAL_CHARGE>
0

> <PUBCHEM_SUBSTANCE_ID>
310928722

> <PUBCHEM_SUBSTANCE_VERSION>
1

> <PUBCHEM_EXT_DATASOURCE_NAME>
11752

> <PUBCHEM_EXT_DATASOURCE_REGID>
BD50238

> <PUBCHEM_SUBSTANCE_SYNONYM>
1-(2-Nitrobenzyl)-1H-pyrrole-2-carbaldehyde
22162-51-2

> <PUBCHEM_GENERIC_REGISTRY_NAME>
22162-51-2

> <PUBCHEM_XREF_EXT_ID>
BD50238

> <PUBCHEM_EXT_DATASOURCE_URL>
http://www.bidepharmatech.com/en/index.html

> <PUBCHEM_EXT_SUBSTANCE_URL>
http://www.bidepharmatech.com/en/goodsview_goodscode_BD50238.html

> <PUBCHEM_CID_ASSOCIATIONS>
736217  1

> <PUBCHEM_COORDINATE_TYPE>
1
3

$$$$
