310949099
  -OEChem-07211613022D

 31 34  0     1  0  0  0  0  0999 V2000
   -0.3480   -4.9143    0.0000 Cl  0  0  0  0  0  0  0  0  0  0  0  0
    0.8753    3.8598    0.0000 F   0  0  0  0  0  0  0  0  0  0  0  0
    1.1495    2.7630    0.0000 F   0  0  0  0  0  0  0  0  0  0  0  0
    0.0527    2.4888    0.0000 F   0  0  0  0  0  0  0  0  0  0  0  0
   -1.8033   -1.5608    0.0000 O   0  0  0  0  0  0  0  0  0  0  0  0
    1.8033   -2.8051    0.0000 O   0  0  0  0  0  0  0  0  0  0  0  0
    1.0862   -1.5186    0.0000 O   0  0  0  0  0  0  0  0  0  0  0  0
   -1.0651   -0.2531    0.0000 N   0  0  0  0  0  0  0  0  0  0  0  0
   -0.3691   -1.5397    0.0000 N   0  0  0  0  0  0  0  0  0  0  0  0
   -0.6433    1.0546    0.0000 C   0  0  3  0  0  0  0  0  0  0  0  0
   -1.4447    1.0967    0.0000 C   0  0  3  0  0  0  0  0  0  0  0  0
   -1.0440    2.3622    0.0000 C   0  0  0  0  0  0  0  0  0  0  0  0
   -1.0018    3.2481    0.0000 C   0  0  0  0  0  0  0  0  0  0  0  0
   -0.3691    1.8560    0.0000 C   0  0  0  0  0  0  0  0  0  0  0  0
   -1.6768    1.8772    0.0000 C   0  0  0  0  0  0  0  0  0  0  0  0
   -0.3058    3.6489    0.0000 C   0  0  0  0  0  0  0  0  0  0  0  0
   -0.3902    0.2531    0.0000 C   0  0  0  0  0  0  0  0  0  0  0  0
   -1.7190    0.2531    0.0000 C   0  0  0  0  0  0  0  0  0  0  0  0
   -1.0862   -1.0967    0.0000 C   0  0  0  0  0  0  0  0  0  0  0  0
    0.4535    3.1848    0.0000 C   0  0  0  0  0  0  0  0  0  0  0  0
   -0.3691   -2.3622    0.0000 C   0  0  0  0  0  0  0  0  0  0  0  0
   -1.6978    3.6699    0.0000 C   0  0  0  0  0  0  0  0  0  0  0  0
    0.3480   -2.8051    0.0000 C   0  0  0  0  0  0  0  0  0  0  0  0
   -0.2637    4.4714    0.0000 C   0  0  0  0  0  0  0  0  0  0  0  0
   -1.6768    4.5136    0.0000 C   0  0  0  0  0  0  0  0  0  0  0  0
   -1.0651   -2.8051    0.0000 C   0  0  0  0  0  0  0  0  0  0  0  0
   -0.9597    4.9143    0.0000 C   0  0  0  0  0  0  0  0  0  0  0  0
    0.3480   -3.6277    0.0000 C   0  0  0  0  0  0  0  0  0  0  0  0
    1.0651   -2.3622    0.0000 C   0  0  0  0  0  0  0  0  0  0  0  0
   -0.3480   -4.0496    0.0000 C   0  0  0  0  0  0  0  0  0  0  0  0
   -1.0651   -3.6489    0.0000 C   0  0  0  0  0  0  0  0  0  0  0  0
  1 30  1  0  0  0  0
  2 20  1  0  0  0  0
  3 20  1  0  0  0  0
  4 20  1  0  0  0  0
  5 19  2  0  0  0  0
  6 29  2  0  0  0  0
  7 29  1  0  0  0  0
  8 17  1  0  0  0  0
  8 18  1  0  0  0  0
  8 19  1  0  0  0  0
  9 19  1  0  0  0  0
  9 21  1  0  0  0  0
 10 11  1  0  0  0  0
 10 14  1  1  0  0  0
 10 17  1  0  0  0  0
 11 15  1  0  0  0  0
 11 18  1  0  0  0  0
 12 13  1  0  0  0  0
 12 14  1  0  0  0  0
 12 15  1  1  0  0  0
 13 16  2  0  0  0  0
 13 22  1  0  0  0  0
 16 20  1  0  0  0  0
 16 24  1  0  0  0  0
 21 23  1  0  0  0  0
 21 26  2  0  0  0  0
 22 25  2  0  0  0  0
 23 28  2  0  0  0  0
 23 29  1  0  0  0  0
 24 27  2  0  0  0  0
 25 27  1  0  0  0  0
 26 31  1  0  0  0  0
 28 30  1  0  0  0  0
 30 31  2  0  0  0  0
M  END
> <PUBCHEM_COMPOUND_ID_TYPE>
0

> <PUBCHEM_TOTAL_CHARGE>
0

> <PUBCHEM_SUBSTANCE_ID>
310949099

> <PUBCHEM_SUBSTANCE_VERSION>
1

> <PUBCHEM_EXT_DATASOURCE_NAME>
4488

> <PUBCHEM_EXT_DATASOURCE_REGID>
SCHEMBL16127289

> <PUBCHEM_SUBSTANCE_COMMENT>
InChI=1S/C22H20ClF3N2O3/c23-15-5-6-19(17(9-15)20(29)30)27-21(31)28-10-13-7-12(8-14(13)11-28)16-3-1-2-4-18(16)22(24,25)26/h1-6,9,12-14H,7-8,10-11H2,(H,27,31)(H,29,30)/t12-,13-,14?/m0/s1
InChIKey=ZURQJVZWXQJVGJ-RFHHWMCGSA-N

> <PUBCHEM_SUBSTANCE_SYNONYM>
SCHEMBL16127289

> <PUBCHEM_XREF_EXT_ID>
SCHEMBL16127289

> <PUBCHEM_EXT_DATASOURCE_URL>
https://www.surechembl.org/

> <PUBCHEM_EXT_SUBSTANCE_URL>
https://www.surechembl.org/chemical/SCHEMBL16127289

> <PUBCHEM_CID_ASSOCIATIONS>
117614601  1

> <PUBCHEM_COORDINATE_TYPE>
1
3

> <PUBCHEM_BONDANNOTATIONS>
10  14  5
12  15  5

$$$$
