310943603
  -OEChem-07211613022D

 36 39  0     0  0  0  0  0  0999 V2000
    4.6546    2.0688    0.0000 F   0  0  0  0  0  0  0  0  0  0  0  0
    5.3770    1.6582    0.0000 F   0  0  0  0  0  0  0  0  0  0  0  0
    5.3770    0.8210    0.0000 F   0  0  0  0  0  0  0  0  0  0  0  0
   -3.9487   -0.4104    0.0000 O   0  0  0  0  0  0  0  0  0  0  0  0
    1.7814    2.0852    0.0000 O   0  0  0  0  0  0  0  0  0  0  0  0
   -5.3770    2.0852    0.0000 O   0  0  0  0  0  0  0  0  0  0  0  0
   -3.2262   -2.4956    0.0000 O   0  0  0  0  0  0  0  0  0  0  0  0
   -3.9487    1.2478    0.0000 N   0  0  0  0  0  0  0  0  0  0  0  0
   -2.5038   -0.4269    0.0000 N   0  0  0  0  0  0  0  0  0  0  0  0
    1.0754    0.8210    0.0000 N   0  0  0  0  0  0  0  0  0  0  0  0
    3.9322    0.0000    0.0000 N   0  0  0  0  0  0  0  0  0  0  0  0
   -1.7814    0.8374    0.0000 C   0  0  0  0  0  0  0  0  0  0  0  0
   -1.0754    1.2642    0.0000 C   0  0  0  0  0  0  0  0  0  0  0  0
   -3.2098    0.8374    0.0000 C   0  0  0  0  0  0  0  0  0  0  0  0
   -3.2427    0.0164    0.0000 C   0  0  0  0  0  0  0  0  0  0  0  0
   -2.5203    1.2478    0.0000 C   0  0  0  0  0  0  0  0  0  0  0  0
   -1.0590    2.0852    0.0000 C   0  0  0  0  0  0  0  0  0  0  0  0
    0.3530    1.2642    0.0000 C   0  0  0  0  0  0  0  0  0  0  0  0
   -0.3366    0.8538    0.0000 C   0  0  0  0  0  0  0  0  0  0  0  0
   -1.7979    0.0000    0.0000 C   0  0  0  0  0  0  0  0  0  0  0  0
    2.5038    0.8538    0.0000 C   0  0  0  0  0  0  0  0  0  0  0  0
    3.9487    0.8374    0.0000 C   0  0  0  0  0  0  0  0  0  0  0  0
    1.7814    1.2478    0.0000 C   0  0  0  0  0  0  0  0  0  0  0  0
    4.6546    1.2642    0.0000 C   0  0  0  0  0  0  0  0  0  0  0  0
   -0.3695    2.4956    0.0000 C   0  0  0  0  0  0  0  0  0  0  0  0
    3.2098    1.2478    0.0000 C   0  0  0  0  0  0  0  0  0  0  0  0
    0.3530    2.0852    0.0000 C   0  0  0  0  0  0  0  0  0  0  0  0
   -3.9322    2.0852    0.0000 C   0  0  0  0  0  0  0  0  0  0  0  0
   -4.6711    0.8374    0.0000 C   0  0  0  0  0  0  0  0  0  0  0  0
    2.5038    0.0164    0.0000 C   0  0  0  0  0  0  0  0  0  0  0  0
    3.2427   -0.4104    0.0000 C   0  0  0  0  0  0  0  0  0  0  0  0
   -1.7979    2.4792    0.0000 C   0  0  0  0  0  0  0  0  0  0  0  0
   -4.6711    2.4956    0.0000 C   0  0  0  0  0  0  0  0  0  0  0  0
   -5.3606    1.2478    0.0000 C   0  0  0  0  0  0  0  0  0  0  0  0
   -3.9322   -1.2478    0.0000 C   0  0  0  0  0  0  0  0  0  0  0  0
   -3.2098   -1.6747    0.0000 C   0  0  0  0  0  0  0  0  0  0  0  0
  1 24  1  0  0  0  0
  2 24  1  0  0  0  0
  3 24  1  0  0  0  0
  4 15  1  0  0  0  0
  4 35  1  0  0  0  0
  5 23  2  0  0  0  0
  6 33  1  0  0  0  0
  6 34  1  0  0  0  0
  7 36  1  0  0  0  0
  8 14  1  0  0  0  0
  8 28  1  0  0  0  0
  8 29  1  0  0  0  0
  9 15  2  0  0  0  0
  9 20  1  0  0  0  0
 10 18  1  0  0  0  0
 10 23  1  0  0  0  0
 11 22  1  0  0  0  0
 11 31  2  0  0  0  0
 12 13  1  0  0  0  0
 12 16  1  0  0  0  0
 12 20  2  0  0  0  0
 13 17  1  0  0  0  0
 13 19  2  0  0  0  0
 14 15  1  0  0  0  0
 14 16  2  0  0  0  0
 17 25  2  0  0  0  0
 17 32  1  0  0  0  0
 18 19  1  0  0  0  0
 18 27  2  0  0  0  0
 21 23  1  0  0  0  0
 21 26  1  0  0  0  0
 21 30  2  0  0  0  0
 22 24  1  0  0  0  0
 22 26  2  0  0  0  0
 25 27  1  0  0  0  0
 28 33  1  0  0  0  0
 29 34  1  0  0  0  0
 30 31  1  0  0  0  0
 35 36  1  0  0  0  0
M  END
> <PUBCHEM_COMPOUND_ID_TYPE>
0

> <PUBCHEM_TOTAL_CHARGE>
0

> <PUBCHEM_SUBSTANCE_ID>
310943603

> <PUBCHEM_SUBSTANCE_VERSION>
1

> <PUBCHEM_EXT_DATASOURCE_NAME>
4488

> <PUBCHEM_EXT_DATASOURCE_REGID>
SCHEMBL16121670

> <PUBCHEM_SUBSTANCE_COMMENT>
InChI=1S/C25H25F3N4O4/c1-16-2-3-19(31-23(34)17-4-5-29-22(13-17)25(26,27)28)14-20(16)18-12-21(32-6-9-35-10-7-32)24(30-15-18)36-11-8-33/h2-5,12-15,33H,6-11H2,1H3,(H,31,34)
InChIKey=LHQUZYBPZRBVPU-UHFFFAOYSA-N

> <PUBCHEM_SUBSTANCE_SYNONYM>
SCHEMBL16121670

> <PUBCHEM_XREF_EXT_ID>
SCHEMBL16121670

> <PUBCHEM_EXT_DATASOURCE_URL>
https://www.surechembl.org/

> <PUBCHEM_EXT_SUBSTANCE_URL>
https://www.surechembl.org/chemical/SCHEMBL16121670

> <PUBCHEM_CID_ASSOCIATIONS>
117609994  1

> <PUBCHEM_COORDINATE_TYPE>
1
3

$$$$
