310934687
  -OEChem-07211613022D

 31 33  0     0  0  0  0  0  0999 V2000
    5.6375   -5.6719    0.0000 O   0  0  0  0  0  0  0  0  0  0  0  0
    4.2281   -5.6719    0.0000 O   0  0  0  0  0  0  0  0  0  0  0  0
    4.2281   -1.6156    0.0000 O   0  0  0  0  0  0  0  0  0  0  0  0
    5.6375   -1.6156    0.0000 O   0  0  0  0  0  0  0  0  0  0  0  0
    4.9500   -2.8188    0.0000 N   0  0  0  0  0  0  0  0  0  0  0  0
    4.9500   -4.4344    0.0000 C   0  0  0  0  0  0  0  0  0  0  0  0
    4.9500   -5.2594    0.0000 C   0  0  0  0  0  0  0  0  0  0  0  0
    4.2281   -4.8469    0.0000 C   0  0  0  0  0  0  0  0  0  0  0  0
    5.6719   -4.0219    0.0000 C   0  0  0  0  0  0  0  0  0  0  0  0
    4.2281   -4.0219    0.0000 C   0  0  0  0  0  0  0  0  0  0  0  0
    3.5407   -4.4344    0.0000 C   0  0  0  0  0  0  0  0  0  0  0  0
    5.6719   -3.2313    0.0000 C   0  0  0  0  0  0  0  0  0  0  0  0
    4.2281   -3.2313    0.0000 C   0  0  0  0  0  0  0  0  0  0  0  0
    4.9500   -2.0281    0.0000 C   0  0  0  0  0  0  0  0  0  0  0  0
    3.5407   -3.6094    0.0000 C   0  0  0  0  0  0  0  0  0  0  0  0
    2.8188   -4.8469    0.0000 C   0  0  0  0  0  0  0  0  0  0  0  0
    2.1312   -3.6438    0.0000 C   0  0  0  0  0  0  0  0  0  0  0  0
    2.8188   -3.2313    0.0000 C   0  0  0  0  0  0  0  0  0  0  0  0
    2.1312   -4.4344    0.0000 C   0  0  0  0  0  0  0  0  0  0  0  0
    1.4093   -3.2313    0.0000 C   0  0  0  0  0  0  0  0  0  0  0  0
    4.2281   -0.7906    0.0000 C   0  0  0  0  0  0  0  0  0  0  0  0
    5.6375   -6.4625    0.0000 C   0  0  0  0  0  0  0  0  0  0  0  0
    0.7219   -3.6438    0.0000 C   0  0  0  0  0  0  0  0  0  0  0  0
    1.4093   -2.4063    0.0000 C   0  0  0  0  0  0  0  0  0  0  0  0
    5.0875   -0.7906    0.0000 C   0  0  0  0  0  0  0  0  0  0  0  0
    4.2281    0.0000    0.0000 C   0  0  0  0  0  0  0  0  0  0  0  0
    3.4375   -0.7906    0.0000 C   0  0  0  0  0  0  0  0  0  0  0  0
    0.0000   -3.2313    0.0000 C   0  0  0  0  0  0  0  0  0  0  0  0
    0.7219   -2.0281    0.0000 C   0  0  0  0  0  0  0  0  0  0  0  0
    0.0000   -2.4063    0.0000 C   0  0  0  0  0  0  0  0  0  0  0  0
    6.3594   -6.8750    0.0000 C   0  0  0  0  0  0  0  0  0  0  0  0
  1  7  1  0  0  0  0
  1 22  1  0  0  0  0
  2  7  2  0  0  0  0
  3 14  1  0  0  0  0
  3 21  1  0  0  0  0
  4 14  2  0  0  0  0
  5 12  1  0  0  0  0
  5 13  1  0  0  0  0
  5 14  1  0  0  0  0
  6  7  1  0  0  0  0
  6  8  1  0  0  0  0
  6  9  1  0  0  0  0
  6 10  1  0  0  0  0
  8 11  1  0  0  0  0
  9 12  1  0  0  0  0
 10 13  1  0  0  0  0
 11 15  2  0  0  0  0
 11 16  1  0  0  0  0
 15 18  1  0  0  0  0
 16 19  2  0  0  0  0
 17 18  2  0  0  0  0
 17 19  1  0  0  0  0
 17 20  1  0  0  0  0
 20 23  2  0  0  0  0
 20 24  1  0  0  0  0
 21 25  1  0  0  0  0
 21 26  1  0  0  0  0
 21 27  1  0  0  0  0
 22 31  1  0  0  0  0
 23 28  1  0  0  0  0
 24 29  2  0  0  0  0
 28 30  2  0  0  0  0
 29 30  1  0  0  0  0
M  END
> <PUBCHEM_COMPOUND_ID_TYPE>
0

> <PUBCHEM_TOTAL_CHARGE>
0

> <PUBCHEM_SUBSTANCE_ID>
310934687

> <PUBCHEM_SUBSTANCE_VERSION>
1

> <PUBCHEM_EXT_DATASOURCE_NAME>
4488

> <PUBCHEM_EXT_DATASOURCE_REGID>
SCHEMBL16112188

> <PUBCHEM_SUBSTANCE_COMMENT>
InChI=1S/C26H33NO4/c1-5-30-23(28)26(15-17-27(18-16-26)24(29)31-25(2,3)4)19-20-11-13-22(14-12-20)21-9-7-6-8-10-21/h6-14H,5,15-19H2,1-4H3
InChIKey=DMNDODZEOWTICB-UHFFFAOYSA-N

> <PUBCHEM_SUBSTANCE_SYNONYM>
SCHEMBL16112188

> <PUBCHEM_XREF_EXT_ID>
SCHEMBL16112188

> <PUBCHEM_EXT_DATASOURCE_URL>
https://www.surechembl.org/

> <PUBCHEM_EXT_SUBSTANCE_URL>
https://www.surechembl.org/chemical/SCHEMBL16112188

> <PUBCHEM_CID_ASSOCIATIONS>
117602850  1

> <PUBCHEM_COORDINATE_TYPE>
1
3

$$$$
