310929696
  -OEChem-07211613022D

 78 86  0     1  0  0  0  0  0999 V2000
  -11.3621    1.3010    0.0000 O   0  0  0  0  0  0  0  0  0  0  0  0
    0.8250   -1.7616    0.0000 O   0  0  0  0  0  0  0  0  0  0  0  0
   -9.0766    3.9105    0.0000 O   0  0  0  0  0  0  0  0  0  0  0  0
    0.0000    1.5851    0.0000 O   0  0  0  0  0  0  0  0  0  0  0  0
  -10.6834    0.1679    0.0000 O   0  0  0  0  0  0  0  0  0  0  0  0
   -1.6500   -1.7616    0.0000 O   0  0  0  0  0  0  0  0  0  0  0  0
   -7.2491    0.7822    0.0000 O   0  0  0  0  0  0  0  0  0  0  0  0
   -3.1084   -0.3273    0.0000 O   0  0  0  0  0  0  0  0  0  0  0  0
   -9.2544    0.1679    0.0000 O   0  0  0  0  0  0  0  0  0  0  0  0
   -0.4125   -2.4761    0.0000 O   0  0  0  0  0  0  0  0  0  0  0  0
   -6.8221    2.3759    0.0000 O   0  0  0  0  0  0  0  0  0  0  0  0
   -2.7412    1.2813    0.0000 O   0  0  0  0  0  0  0  0  0  0  0  0
  -12.2106    2.4508    0.0000 O   0  0  0  0  0  0  0  0  0  0  0  0
    2.0625   -2.4761    0.0000 O   0  0  0  0  0  0  0  0  0  0  0  0
  -10.3135    3.2269    0.0000 N   0  0  0  0  0  0  0  0  0  0  0  0
    0.7433    0.4021    0.0000 N   0  0  0  0  0  0  0  0  0  0  0  0
   -9.9689    1.4054    0.0000 N   0  0  0  0  0  0  0  0  0  0  0  0
   -0.4125   -1.0472    0.0000 N   0  0  0  0  0  0  0  0  0  0  0  0
  -10.8517    2.6016    0.0000 C   0  0  3  0  0  0  0  0  0  0  0  0
    0.9269   -0.4021    0.0000 C   0  0  3  0  0  0  0  0  0  0  0  0
  -10.6983    1.7910    0.0000 C   0  0  3  0  0  0  0  0  0  0  0  0
    0.4125   -1.0472    0.0000 C   0  0  3  0  0  0  0  0  0  0  0  0
   -9.2127    1.7353    0.0000 C   0  0  0  0  0  0  0  0  0  0  0  0
   -0.9269   -0.4021    0.0000 C   0  0  0  0  0  0  0  0  0  0  0  0
   -9.4891    3.1961    0.0000 C   0  0  0  0  0  0  0  0  0  0  0  0
   -8.9992    2.5322    0.0000 C   0  0  0  0  0  0  0  0  0  0  0  0
    0.0000    0.7601    0.0000 C   0  0  0  0  0  0  0  0  0  0  0  0
   -0.7433    0.4021    0.0000 C   0  0  0  0  0  0  0  0  0  0  0  0
  -11.6127    2.9201    0.0000 C   0  0  0  0  0  0  0  0  0  0  0  0
    1.7485   -0.4761    0.0000 C   0  0  0  0  0  0  0  0  0  0  0  0
  -10.7419    3.9319    0.0000 C   0  0  0  0  0  0  0  0  0  0  0  0
    1.4515    0.8253    0.0000 C   0  0  0  0  0  0  0  0  0  0  0  0
  -11.5449    3.7423    0.0000 C   0  0  0  0  0  0  0  0  0  0  0  0
    2.0728    0.2825    0.0000 C   0  0  0  0  0  0  0  0  0  0  0  0
   -9.9689    0.5804    0.0000 C   0  0  0  0  0  0  0  0  0  0  0  0
   -0.8250   -1.7616    0.0000 C   0  0  0  0  0  0  0  0  0  0  0  0
   -8.6293    1.1520    0.0000 C   0  0  0  0  0  0  0  0  0  0  0  0
   -1.7152   -0.6453    0.0000 C   0  0  0  0  0  0  0  0  0  0  0  0
   -8.2023    2.7458    0.0000 C   0  0  0  0  0  0  0  0  0  0  0  0
   -1.3481    0.9633    0.0000 C   0  0  0  0  0  0  0  0  0  0  0  0
   -7.8324    1.3655    0.0000 C   0  0  0  0  0  0  0  0  0  0  0  0
   -2.3200   -0.0842    0.0000 C   0  0  0  0  0  0  0  0  0  0  0  0
   -7.6189    2.1624    0.0000 C   0  0  0  0  0  0  0  0  0  0  0  0
   -2.1364    0.7201    0.0000 C   0  0  0  0  0  0  0  0  0  0  0  0
  -12.1183    1.6310    0.0000 C   0  0  3  0  0  0  0  0  0  0  0  0
    1.6500   -1.7616    0.0000 C   0  0  3  0  0  0  0  0  0  0  0  0
  -12.1702    4.2805    0.0000 C   0  0  0  0  0  0  0  0  0  0  0  0
    2.8771    0.4661    0.0000 C   0  0  0  0  0  0  0  0  0  0  0  0
  -10.6834   -0.6571    0.0000 C   0  0  0  0  0  0  0  0  0  0  0  0
   -2.0625   -2.4761    0.0000 C   0  0  0  0  0  0  0  0  0  0  0  0
  -12.7820    1.1410    0.0000 C   0  0  0  0  0  0  0  0  0  0  0  0
    2.0625   -1.0472    0.0000 C   0  0  0  0  0  0  0  0  0  0  0  0
   -6.4522    0.9957    0.0000 C   0  0  0  0  0  0  0  0  0  0  0  0
   -3.6917    0.2560    0.0000 C   0  0  0  0  0  0  0  0  0  0  0  0
   -5.8689    0.4123    0.0000 C   0  0  0  0  0  0  0  0  0  0  0  0
   -4.4886    0.0425    0.0000 C   0  0  0  0  0  0  0  0  0  0  0  0
  -12.9668    2.7807    0.0000 C   0  0  0  0  0  0  0  0  0  0  0  0
  -13.5382    1.4710    0.0000 C   0  0  0  0  0  0  0  0  0  0  0  0
    2.8875   -2.4761    0.0000 C   0  0  0  0  0  0  0  0  0  0  0  0
    2.8875   -1.0472    0.0000 C   0  0  0  0  0  0  0  0  0  0  0  0
   -9.9689   -1.0696    0.0000 C   0  0  0  0  0  0  0  0  0  0  0  0
  -10.6834   -1.4821    0.0000 C   0  0  0  0  0  0  0  0  0  0  0  0
  -11.3979   -1.0696    0.0000 C   0  0  0  0  0  0  0  0  0  0  0  0
   -1.6500   -3.1906    0.0000 C   0  0  0  0  0  0  0  0  0  0  0  0
   -2.4750   -3.1906    0.0000 C   0  0  0  0  0  0  0  0  0  0  0  0
   -2.8875   -2.4761    0.0000 C   0  0  0  0  0  0  0  0  0  0  0  0
   -6.2387    1.7926    0.0000 C   0  0  0  0  0  0  0  0  0  0  0  0
   -3.5295    1.0381    0.0000 C   0  0  0  0  0  0  0  0  0  0  0  0
   -5.0720    0.6258    0.0000 C   0  0  0  0  0  0  0  0  0  0  0  0
  -13.6306    2.2908    0.0000 C   0  0  0  0  0  0  0  0  0  0  0  0
    3.3000   -1.7616    0.0000 C   0  0  0  0  0  0  0  0  0  0  0  0
   -6.0824   -0.3846    0.0000 C   0  0  0  0  0  0  0  0  0  0  0  0
   -4.7022   -0.7544    0.0000 C   0  0  0  0  0  0  0  0  0  0  0  0
   -5.4990   -0.9680    0.0000 C   0  0  0  0  0  0  0  0  0  0  0  0
   -5.7125   -1.7649    0.0000 C   0  0  0  0  0  0  0  0  0  0  0  0
   -5.9260   -2.5617    0.0000 C   0  0  0  0  0  0  0  0  0  0  0  0
  -11.4928    2.0824    0.0000 H   0  0  0  0  0  0  0  0  0  0  0  0
    1.2511   -1.1608    0.0000 H   0  0  0  0  0  0  0  0  0  0  0  0
 21  1  1  1  0  0  0
  1 45  1  0  0  0  0
 22  2  1  6  0  0  0
  2 46  1  0  0  0  0
  3 25  2  0  0  0  0
  4 27  2  0  0  0  0
  5 35  1  0  0  0  0
  5 49  1  0  0  0  0
  6 36  1  0  0  0  0
  6 50  1  0  0  0  0
  7 41  1  0  0  0  0
  7 53  1  0  0  0  0
  8 42  1  0  0  0  0
  8 54  1  0  0  0  0
  9 35  2  0  0  0  0
 10 36  2  0  0  0  0
 11 43  1  0  0  0  0
 11 67  1  0  0  0  0
 12 44  1  0  0  0  0
 12 68  1  0  0  0  0
 13 45  1  0  0  0  0
 13 57  1  0  0  0  0
 14 46  1  0  0  0  0
 14 59  1  0  0  0  0
 15 19  1  0  0  0  0
 15 25  1  0  0  0  0
 15 31  1  0  0  0  0
 16 20  1  0  0  0  0
 16 27  1  0  0  0  0
 16 32  1  0  0  0  0
 17 21  1  0  0  0  0
 17 23  1  0  0  0  0
 17 35  1  0  0  0  0
 18 22  1  0  0  0  0
 18 24  1  0  0  0  0
 18 36  1  0  0  0  0
 19 21  1  0  0  0  0
 19 29  1  0  0  0  0
 19 77  1  1  0  0  0
 20 22  1  0  0  0  0
 20 30  1  0  0  0  0
 20 78  1  6  0  0  0
 23 26  1  0  0  0  0
 23 37  2  0  0  0  0
 24 28  1  0  0  0  0
 24 38  2  0  0  0  0
 25 26  1  0  0  0  0
 26 39  2  0  0  0  0
 27 28  1  0  0  0  0
 28 40  2  0  0  0  0
 29 33  1  0  0  0  0
 30 34  1  0  0  0  0
 31 33  1  0  0  0  0
 32 34  1  0  0  0  0
 33 47  2  0  0  0  0
 34 48  2  0  0  0  0
 37 41  1  0  0  0  0
 38 42  1  0  0  0  0
 39 43  1  0  0  0  0
 40 44  1  0  0  0  0
 41 43  2  0  0  0  0
 42 44  2  0  0  0  0
 45 51  1  0  0  0  0
 46 52  1  0  0  0  0
 49 61  1  0  0  0  0
 49 62  1  0  0  0  0
 49 63  1  0  0  0  0
 50 64  1  0  0  0  0
 50 65  1  0  0  0  0
 50 66  1  0  0  0  0
 51 58  1  0  0  0  0
 52 60  1  0  0  0  0
 53 55  1  0  0  0  0
 54 56  1  0  0  0  0
 55 69  2  0  0  0  0
 55 72  1  0  0  0  0
 56 69  1  0  0  0  0
 56 73  2  0  0  0  0
 57 70  1  0  0  0  0
 58 70  1  0  0  0  0
 59 71  1  0  0  0  0
 60 71  1  0  0  0  0
 72 74  2  0  0  0  0
 73 74  1  0  0  0  0
 74 75  1  0  0  0  0
 75 76  3  0  0  0  0
M  END
> <PUBCHEM_COMPOUND_ID_TYPE>
0

> <PUBCHEM_TOTAL_CHARGE>
0

> <PUBCHEM_SUBSTANCE_ID>
310929696

> <PUBCHEM_SUBSTANCE_VERSION>
1

> <PUBCHEM_EXT_DATASOURCE_NAME>
4488

> <PUBCHEM_EXT_DATASOURCE_REGID>
SCHEMBL16106888

> <PUBCHEM_SUBSTANCE_COMMENT>
InChI=1S/C58H70N4O14/c1-12-36-23-37(32-71-47-28-41-39(26-45(47)67-10)51(63)59-30-34(2)21-43(59)53(73-49-17-13-15-19-69-49)61(41)55(65)75-57(4,5)6)25-38(24-36)33-72-48-29-42-40(27-46(48)68-11)52(64)60-31-35(3)22-44(60)54(74-50-18-14-16-20-70-50)62(42)56(66)76-58(7,8)9/h1,23-29,43-44,49-50,53-54H,2-3,13-22,30-33H2,4-11H3/t43-,44-,49?,50?,53-,54-/m0/s1
InChIKey=IIWQTJYUHXCYER-XOPNFIDCSA-N

> <PUBCHEM_SUBSTANCE_SYNONYM>
SCHEMBL16106888

> <PUBCHEM_XREF_EXT_ID>
SCHEMBL16106888

> <PUBCHEM_EXT_DATASOURCE_URL>
https://www.surechembl.org/

> <PUBCHEM_EXT_SUBSTANCE_URL>
https://www.surechembl.org/chemical/SCHEMBL16106888

> <PUBCHEM_CID_ASSOCIATIONS>
117598994  1

> <PUBCHEM_COORDINATE_TYPE>
1
3

> <PUBCHEM_BONDANNOTATIONS>
21  1  5
19  77  5
22  2  6
20  78  6

$$$$
