310940419
  -OEChem-07211613022D

 17 18  0     0  0  0  0  0  0999 V2000
    1.6172   -0.3940    0.0000 O   0  0  0  0  0  0  0  0  0  0  0  0
   -2.3222    1.6104    0.0000 O   0  0  0  0  0  0  0  0  0  0  0  0
   -0.0968   -0.1590    0.0000 N   0  0  0  0  0  0  0  0  0  0  0  0
    3.0963    0.5184    0.0000 N   0  0  0  0  0  0  0  0  0  0  0  0
    1.0643   -1.0021    0.0000 C   0  0  0  0  0  0  0  0  0  0  0  0
    2.3774   -0.7118    0.0000 C   0  0  0  0  0  0  0  0  0  0  0  0
   -0.9123   -0.0622    0.0000 C   0  0  0  0  0  0  0  0  0  0  0  0
    1.4929   -1.7071    0.0000 C   0  0  0  0  0  0  0  0  0  0  0  0
    0.2350   -0.8915    0.0000 C   0  0  0  0  0  0  0  0  0  0  0  0
    2.2807   -1.5412    0.0000 C   0  0  0  0  0  0  0  0  0  0  0  0
   -2.0320    0.8639    0.0000 C   0  0  0  0  0  0  0  0  0  0  0  0
   -1.2026    0.6980    0.0000 C   0  0  0  0  0  0  0  0  0  0  0  0
   -1.4237   -0.6980    0.0000 C   0  0  0  0  0  0  0  0  0  0  0  0
    3.0963   -0.2972    0.0000 C   0  0  0  0  0  0  0  0  0  0  0  0
   -2.5295    0.1866    0.0000 C   0  0  0  0  0  0  0  0  0  0  0  0
   -2.2530   -0.5598    0.0000 C   0  0  0  0  0  0  0  0  0  0  0  0
   -3.0963    1.7071    0.0000 C   0  0  0  0  0  0  0  0  0  0  0  0
  1  5  1  0  0  0  0
  1  6  1  0  0  0  0
  2 11  1  0  0  0  0
  2 17  1  0  0  0  0
  3  7  1  0  0  0  0
  3  9  2  0  0  0  0
  4 14  2  3  0  0  0
  5  8  2  0  0  0  0
  5  9  1  0  0  0  0
  6 10  2  0  0  0  0
  6 14  1  0  0  0  0
  7 12  2  0  0  0  0
  7 13  1  0  0  0  0
  8 10  1  0  0  0  0
 11 12  1  0  0  0  0
 11 15  2  0  0  0  0
 13 16  2  0  0  0  0
 15 16  1  0  0  0  0
M  END
> <PUBCHEM_COMPOUND_ID_TYPE>
0

> <PUBCHEM_TOTAL_CHARGE>
0

> <PUBCHEM_SUBSTANCE_ID>
310940419

> <PUBCHEM_SUBSTANCE_VERSION>
1

> <PUBCHEM_EXT_DATASOURCE_NAME>
4488

> <PUBCHEM_EXT_DATASOURCE_REGID>
SCHEMBL16118367

> <PUBCHEM_SUBSTANCE_COMMENT>
InChI=1S/C13H12N2O2/c1-16-11-4-2-3-10(7-11)15-9-13-6-5-12(8-14)17-13/h2-9,14H,1H3/b14-8?,15-9+
InChIKey=YDFTUJPMCGTMMA-LLMPCGPXSA-N

> <PUBCHEM_SUBSTANCE_SYNONYM>
SCHEMBL16118367

> <PUBCHEM_XREF_EXT_ID>
SCHEMBL16118367

> <PUBCHEM_EXT_DATASOURCE_URL>
https://www.surechembl.org/

> <PUBCHEM_EXT_SUBSTANCE_URL>
https://www.surechembl.org/chemical/SCHEMBL16118367

> <PUBCHEM_CID_ASSOCIATIONS>
117607444  1

> <PUBCHEM_COORDINATE_TYPE>
1
3

> <PUBCHEM_BONDANNOTATIONS>
3  7  3

$$$$
