310940941
  -OEChem-07211613022D

 40 43  0     1  0  0  0  0  0999 V2000
    4.6939    0.6825    0.0000 O   0  0  0  0  0  0  0  0  0  0  0  0
    3.5518   -1.2953    0.0000 O   0  0  0  0  0  0  0  0  0  0  0  0
    1.3789    0.7940    0.0000 O   0  0  0  0  0  0  0  0  0  0  0  0
   -0.7940   -1.2953    0.0000 O   0  0  0  0  0  0  0  0  0  0  0  0
    3.5518   -2.9668    0.0000 O   0  0  0  0  0  0  0  0  0  0  0  0
   -2.9529    0.7940    0.0000 O   0  0  0  0  0  0  0  0  0  0  0  0
    2.1032   -0.4596    0.0000 N   0  0  0  0  0  0  0  0  0  0  0  0
   -0.0557   -0.0418    0.0000 N   0  0  0  0  0  0  0  0  0  0  0  0
   -2.2286   -0.4596    0.0000 N   0  0  0  0  0  0  0  0  0  0  0  0
    4.2621    0.0000    0.0000 C   0  0  3  0  0  0  0  0  0  0  0  0
    3.5518   -0.4317    0.0000 C   0  0  0  0  0  0  0  0  0  0  0  0
    3.8861    0.6965    0.0000 C   0  0  0  0  0  0  0  0  0  0  0  0
    2.8135   -0.0139    0.0000 C   0  0  3  0  0  0  0  0  0  0  0  0
    4.9864   -0.4179    0.0000 C   0  0  0  0  0  0  0  0  0  0  0  0
    2.8275    1.3093    0.0000 C   0  0  0  0  0  0  0  0  0  0  0  0
    1.3789   -0.0418    0.0000 C   0  0  0  0  0  0  0  0  0  0  0  0
    0.6686   -0.4317    0.0000 C   0  0  3  0  0  0  0  0  0  0  0  0
    2.0893    1.7411    0.0000 C   0  0  0  0  0  0  0  0  0  0  0  0
    0.6546   -1.2814    0.0000 C   0  0  0  0  0  0  0  0  0  0  0  0
   -0.7800   -0.4179    0.0000 C   0  0  0  0  0  0  0  0  0  0  0  0
    1.4068   -1.6853    0.0000 C   0  0  0  0  0  0  0  0  0  0  0  0
    2.1032    2.5628    0.0000 C   0  0  0  0  0  0  0  0  0  0  0  0
    1.3928    1.3232    0.0000 C   0  0  0  0  0  0  0  0  0  0  0  0
   -1.5043   -0.0139    0.0000 C   0  0  3  0  0  0  0  0  0  0  0  0
    1.4068   -2.5210    0.0000 C   0  0  0  0  0  0  0  0  0  0  0  0
    2.0893   -1.2814    0.0000 C   0  0  0  0  0  0  0  0  0  0  0  0
   -2.9529   -0.0418    0.0000 C   0  0  0  0  0  0  0  0  0  0  0  0
   -3.6771   -0.4317    0.0000 C   0  0  0  0  0  0  0  0  0  0  0  0
    1.3789    2.9668    0.0000 C   0  0  0  0  0  0  0  0  0  0  0  0
    0.6825    1.7272    0.0000 C   0  0  0  0  0  0  0  0  0  0  0  0
    2.8275   -2.5072    0.0000 C   0  0  0  0  0  0  0  0  0  0  0  0
    2.1172   -2.9250    0.0000 C   0  0  0  0  0  0  0  0  0  0  0  0
    2.8275   -1.6853    0.0000 C   0  0  0  0  0  0  0  0  0  0  0  0
    0.6825    2.5628    0.0000 C   0  0  0  0  0  0  0  0  0  0  0  0
   -4.4292   -0.1114    0.0000 C   0  0  0  0  0  0  0  0  0  0  0  0
   -3.7746   -1.2536    0.0000 C   0  0  0  0  0  0  0  0  0  0  0  0
   -1.5043    0.7940    0.0000 C   0  0  0  0  0  0  0  0  0  0  0  0
   -4.9864   -0.7104    0.0000 C   0  0  0  0  0  0  0  0  0  0  0  0
   -4.5825   -1.4207    0.0000 C   0  0  0  0  0  0  0  0  0  0  0  0
    4.3039   -2.5350    0.0000 C   0  0  0  0  0  0  0  0  0  0  0  0
  1 10  1  0  0  0  0
  1 12  1  0  0  0  0
  2 11  2  0  0  0  0
  3 16  2  0  0  0  0
  4 20  2  0  0  0  0
  5 31  1  0  0  0  0
  5 40  1  0  0  0  0
  6 27  2  0  0  0  0
 13  7  1  1  0  0  0
  7 16  1  0  0  0  0
 17  8  1  6  0  0  0
  8 20  1  0  0  0  0
  9 24  1  0  0  0  0
  9 27  1  0  0  0  0
 10 11  1  1  0  0  0
 10 12  1  0  0  0  0
 10 14  1  6  0  0  0
 11 13  1  0  0  0  0
 13 15  1  0  0  0  0
 15 18  1  0  0  0  0
 16 17  1  0  0  0  0
 17 19  1  0  0  0  0
 18 22  2  0  0  0  0
 18 23  1  0  0  0  0
 19 21  1  0  0  0  0
 20 24  1  0  0  0  0
 21 25  2  0  0  0  0
 21 26  1  0  0  0  0
 22 29  1  0  0  0  0
 23 30  2  0  0  0  0
 24 37  1  6  0  0  0
 25 32  1  0  0  0  0
 26 33  2  0  0  0  0
 27 28  1  0  0  0  0
 28 35  1  0  0  0  0
 28 36  1  0  0  0  0
 29 34  2  0  0  0  0
 30 34  1  0  0  0  0
 31 32  2  0  0  0  0
 31 33  1  0  0  0  0
 35 38  1  0  0  0  0
 36 39  1  0  0  0  0
 38 39  1  0  0  0  0
M  END
> <PUBCHEM_COMPOUND_ID_TYPE>
0

> <PUBCHEM_TOTAL_CHARGE>
0

> <PUBCHEM_SUBSTANCE_ID>
310940941

> <PUBCHEM_SUBSTANCE_VERSION>
1

> <PUBCHEM_EXT_DATASOURCE_NAME>
4488

> <PUBCHEM_EXT_DATASOURCE_REGID>
SCHEMBL16118900

> <PUBCHEM_SUBSTANCE_COMMENT>
InChI=1S/C31H39N3O6/c1-20(32-29(37)23-11-7-8-12-23)28(36)34-26(18-22-13-15-24(39-3)16-14-22)30(38)33-25(27(35)31(2)19-40-31)17-21-9-5-4-6-10-21/h4-6,9-10,13-16,20,23,25-26H,7-8,11-12,17-19H2,1-3H3,(H,32,37)(H,33,38)(H,34,36)/t20-,25+,26+,31-/m1/s1
InChIKey=HIGZIRXPKCIIOX-OTXFKJLGSA-N

> <PUBCHEM_SUBSTANCE_SYNONYM>
SCHEMBL16118900

> <PUBCHEM_XREF_EXT_ID>
SCHEMBL16118900

> <PUBCHEM_EXT_DATASOURCE_URL>
https://www.surechembl.org/

> <PUBCHEM_EXT_SUBSTANCE_URL>
https://www.surechembl.org/chemical/SCHEMBL16118900

> <PUBCHEM_CID_ASSOCIATIONS>
117607849  1

> <PUBCHEM_COORDINATE_TYPE>
1
3

> <PUBCHEM_BONDANNOTATIONS>
10  11  5
10  14  6
24  37  6
13  7  5
17  8  6

$$$$
