310933302
  -OEChem-07211613022D

 43 48  0     1  0  0  0  0  0999 V2000
    1.8161   -0.6918    0.0000 Cl  0  0  0  0  0  0  0  0  0  0  0  0
    2.4503   -2.1908    0.0000 F   0  0  0  0  0  0  0  0  0  0  0  0
    3.0556   -5.7653    0.0000 O   0  0  0  0  0  0  0  0  0  0  0  0
    2.3638   -3.6898    0.0000 O   0  0  0  0  0  0  0  0  0  0  0  0
    8.0138   -4.5834    0.0000 O   0  0  0  0  0  0  0  0  0  0  0  0
    5.9095    0.0000    0.0000 O   0  0  0  0  0  0  0  0  0  0  0  0
    6.6301   -1.2395    0.0000 O   0  0  0  0  0  0  0  0  0  0  0  0
    3.7475   -4.5258    0.0000 N   0  0  0  0  0  0  0  0  0  0  0  0
    6.6013   -3.7475    0.0000 N   0  0  0  0  0  0  0  0  0  0  0  0
    1.4702   -3.5169    0.0000 N   0  0  0  0  0  0  0  0  0  0  0  0
    3.0556   -2.4791    0.0000 N   0  0  0  0  0  0  0  0  0  0  0  0
    1.0377   -4.2375    0.0000 N   0  0  0  0  0  0  0  0  0  0  0  0
    3.7763   -3.6898    0.0000 C   0  0  3  0  0  0  0  0  0  0  0  0
    4.4970   -3.2862    0.0000 C   0  0  0  0  0  0  0  0  0  0  0  0
    5.1888   -3.7186    0.0000 C   0  0  0  0  0  0  0  0  0  0  0  0
    3.0556   -4.9294    0.0000 C   0  0  0  0  0  0  0  0  0  0  0  0
    5.9095   -3.3151    0.0000 C   0  0  0  0  0  0  0  0  0  0  0  0
    3.0556   -3.2862    0.0000 C   0  0  0  0  0  0  0  0  0  0  0  0
    2.3638   -4.4970    0.0000 C   0  0  0  0  0  0  0  0  0  0  0  0
    4.4681   -4.9294    0.0000 C   0  0  0  0  0  0  0  0  0  0  0  0
    5.1888   -4.5258    0.0000 C   0  0  0  0  0  0  0  0  0  0  0  0
    4.6411   -2.6521    0.0000 C   0  0  0  0  0  0  0  0  0  0  0  0
    5.9095   -2.4791    0.0000 C   0  0  0  0  0  0  0  0  0  0  0  0
    2.2773   -3.6898    0.0000 C   0  0  0  0  0  0  0  0  0  0  0  0
    1.1531   -2.7674    0.0000 C   0  0  0  0  0  0  0  0  0  0  0  0
    5.3618   -2.2196    0.0000 C   0  0  0  0  0  0  0  0  0  0  0  0
    1.5855   -4.8429    0.0000 C   0  0  0  0  0  0  0  0  0  0  0  0
    1.6432   -2.1044    0.0000 C   0  0  0  0  0  0  0  0  0  0  0  0
    3.7763   -2.0467    0.0000 C   0  0  0  0  0  0  0  0  0  0  0  0
    7.3220   -3.3151    0.0000 C   0  0  0  0  0  0  0  0  0  0  0  0
    6.6013   -4.5546    0.0000 C   0  0  0  0  0  0  0  0  0  0  0  0
    0.3171   -2.6521    0.0000 C   0  0  0  0  0  0  0  0  0  0  0  0
    1.3260   -1.3549    0.0000 C   0  0  0  0  0  0  0  0  0  0  0  0
    0.0000   -1.9025    0.0000 C   0  0  0  0  0  0  0  0  0  0  0  0
    0.4901   -1.2395    0.0000 C   0  0  0  0  0  0  0  0  0  0  0  0
    3.7763   -1.2395    0.0000 C   0  0  0  0  0  0  0  0  0  0  0  0
    4.4970   -2.4791    0.0000 C   0  0  0  0  0  0  0  0  0  0  0  0
    8.0427   -3.7475    0.0000 C   0  0  0  0  0  0  0  0  0  0  0  0
    7.2932   -4.9582    0.0000 C   0  0  0  0  0  0  0  0  0  0  0  0
    5.2177   -1.2395    0.0000 C   0  0  0  0  0  0  0  0  0  0  0  0
    4.4970   -0.8360    0.0000 C   0  0  0  0  0  0  0  0  0  0  0  0
    5.2177   -2.0467    0.0000 C   0  0  0  0  0  0  0  0  0  0  0  0
    5.9095   -0.8360    0.0000 C   0  0  0  0  0  0  0  0  0  0  0  0
  1 33  1  0  0  0  0
  2 28  1  0  0  0  0
  3 16  2  0  0  0  0
  4 18  2  0  0  0  0
  5 38  1  0  0  0  0
  5 39  1  0  0  0  0
  6 43  2  0  0  0  0
  7 43  1  0  0  0  0
  8 13  1  0  0  0  0
  8 16  1  0  0  0  0
  8 20  1  0  0  0  0
  9 17  1  0  0  0  0
  9 30  1  0  0  0  0
  9 31  1  0  0  0  0
 10 12  1  0  0  0  0
 10 24  1  0  0  0  0
 10 25  1  0  0  0  0
 11 18  1  0  0  0  0
 11 29  1  0  0  0  0
 12 27  2  0  0  0  0
 13 14  1  0  0  0  0
 13 18  1  1  0  0  0
 14 15  2  0  0  0  0
 14 22  1  0  0  0  0
 15 17  1  0  0  0  0
 15 21  1  0  0  0  0
 16 19  1  0  0  0  0
 17 23  2  0  0  0  0
 19 24  2  0  0  0  0
 19 27  1  0  0  0  0
 20 21  1  0  0  0  0
 22 26  2  0  0  0  0
 23 26  1  0  0  0  0
 25 28  1  0  0  0  0
 25 32  2  0  0  0  0
 28 33  2  0  0  0  0
 29 36  2  0  0  0  0
 29 37  1  0  0  0  0
 30 38  1  0  0  0  0
 31 39  1  0  0  0  0
 32 34  1  0  0  0  0
 33 35  1  0  0  0  0
 34 35  2  0  0  0  0
 36 41  1  0  0  0  0
 37 42  2  0  0  0  0
 40 41  2  0  0  0  0
 40 42  1  0  0  0  0
 40 43  1  0  0  0  0
M  END
> <PUBCHEM_COMPOUND_ID_TYPE>
0

> <PUBCHEM_TOTAL_CHARGE>
0

> <PUBCHEM_SUBSTANCE_ID>
310933302

> <PUBCHEM_SUBSTANCE_VERSION>
1

> <PUBCHEM_EXT_DATASOURCE_NAME>
4488

> <PUBCHEM_EXT_DATASOURCE_REGID>
SCHEMBL16110713

> <PUBCHEM_SUBSTANCE_COMMENT>
InChI=1S/C31H27ClFN5O5/c32-24-4-2-6-26(27(24)33)38-18-20(17-34-38)30(40)37-12-11-22-23(3-1-5-25(22)36-13-15-43-16-14-36)28(37)29(39)35-21-9-7-19(8-10-21)31(41)42/h1-10,17-18,28H,11-16H2,(H,35,39)(H,41,42)/t28-/m1/s1
InChIKey=AZMXBQFTTJWWIS-MUUNZHRXSA-N

> <PUBCHEM_SUBSTANCE_SYNONYM>
SCHEMBL16110713

> <PUBCHEM_XREF_EXT_ID>
SCHEMBL16110713

> <PUBCHEM_EXT_DATASOURCE_URL>
https://www.surechembl.org/

> <PUBCHEM_EXT_SUBSTANCE_URL>
https://www.surechembl.org/chemical/SCHEMBL16110713

> <PUBCHEM_CID_ASSOCIATIONS>
117601721  1

> <PUBCHEM_COORDINATE_TYPE>
1
3

> <PUBCHEM_BONDANNOTATIONS>
13  18  5

$$$$
