310929845
  -OEChem-07211613022D

 62 69  0     1  0  0  0  0  0999 V2000
    4.6320   -0.9502    0.0000 S   0  0  0  0  0  0  0  0  0  0  0  0
    4.2757   -2.4941    0.0000 O   0  0  0  0  0  0  0  0  0  0  0  0
    4.8695   -1.7222    0.0000 O   0  0  0  0  0  0  0  0  0  0  0  0
    4.3944   -0.1188    0.0000 O   0  0  0  0  0  0  0  0  0  0  0  0
    4.2163   -3.1474    0.0000 O   0  0  0  0  0  0  0  0  0  0  0  0
    5.2852   -5.4634    0.0000 O   0  0  0  0  0  0  0  0  0  0  0  0
    1.4846   -3.9788    0.0000 O   0  0  0  0  0  0  0  0  0  0  0  0
    6.3541   -8.3138    0.0000 O   0  0  0  0  0  0  0  0  0  0  0  0
    0.8908   -7.4824    0.0000 O   0  0  0  0  0  0  0  0  0  0  0  0
    0.0000   -6.6510    0.0000 O   0  0  0  0  0  0  0  0  0  0  0  0
    2.8505   -2.9692    0.0000 N   0  0  0  0  0  0  0  0  0  0  0  0
    3.8600   -1.1877    0.0000 N   0  0  0  0  0  0  0  0  0  0  0  0
    2.6129   -4.2757    0.0000 N   0  0  0  0  0  0  0  0  0  0  0  0
    6.2948   -5.8196    0.0000 N   0  0  0  0  0  0  0  0  0  0  0  0
    0.8908   -5.8196    0.0000 N   0  0  0  0  0  0  0  0  0  0  0  0
    4.9883  -10.8080    0.0000 N   0  0  0  0  0  0  0  0  0  0  0  0
    2.9099   -2.1972    0.0000 C   0  0  3  0  0  0  0  0  0  0  0  0
    2.1972   -1.7816    0.0000 C   0  0  3  0  0  0  0  0  0  0  0  0
    2.8505   -1.3658    0.0000 C   0  0  0  0  0  0  0  0  0  0  0  0
    3.6818   -1.9597    0.0000 C   0  0  0  0  0  0  0  0  0  0  0  0
    5.4040   -0.7126    0.0000 C   0  0  0  0  0  0  0  0  0  0  0  0
    3.5037   -3.4443    0.0000 C   0  0  0  0  0  0  0  0  0  0  0  0
    1.3658   -1.8409    0.0000 C   0  0  0  0  0  0  0  0  0  0  0  0
    5.9978   -0.1188    0.0000 C   0  0  0  0  0  0  0  0  0  0  0  0
    6.2354   -0.8908    0.0000 C   0  0  0  0  0  0  0  0  0  0  0  0
    3.3849   -4.2757    0.0000 C   0  0  3  0  0  0  0  0  0  0  0  0
    4.9883    0.0000    0.0000 C   0  0  0  0  0  0  0  0  0  0  0  0
    4.2163   -4.4538    0.0000 C   0  0  0  0  0  0  0  0  0  0  0  0
    4.8695   -4.8102    0.0000 C   0  0  3  0  0  0  0  0  0  0  0  0
    1.9003   -4.6320    0.0000 C   0  0  0  0  0  0  0  0  0  0  0  0
    3.9194   -3.9194    0.0000 C   0  0  0  0  0  0  0  0  0  0  0  0
    1.2471   -5.2258    0.0000 C   0  0  3  0  0  0  0  0  0  0  0  0
    1.0095   -2.5535    0.0000 C   0  0  0  0  0  0  0  0  0  0  0  0
    5.5821   -6.2948    0.0000 C   0  0  0  0  0  0  0  0  0  0  0  0
    5.5821   -7.0668    0.0000 C   0  0  0  0  0  0  0  0  0  0  0  0
    6.2948   -7.4824    0.0000 C   0  0  0  0  0  0  0  0  0  0  0  0
    7.0074   -7.0668    0.0000 C   0  0  0  0  0  0  0  0  0  0  0  0
    0.6533   -4.6913    0.0000 C   0  0  0  0  0  0  0  0  0  0  0  0
    7.0074   -6.2948    0.0000 C   0  0  0  0  0  0  0  0  0  0  0  0
    5.2852   -7.8387    0.0000 C   0  0  0  0  0  0  0  0  0  0  0  0
    7.7200   -5.8196    0.0000 C   0  0  0  0  0  0  0  0  0  0  0  0
    7.7200   -7.4824    0.0000 C   0  0  0  0  0  0  0  0  0  0  0  0
    0.8314   -6.6510    0.0000 C   0  0  0  0  0  0  0  0  0  0  0  0
    8.4326   -6.2948    0.0000 C   0  0  0  0  0  0  0  0  0  0  0  0
    1.2471   -8.1357    0.0000 C   0  0  3  0  0  0  0  0  0  0  0  0
    8.4326   -7.0668    0.0000 C   0  0  0  0  0  0  0  0  0  0  0  0
    1.9003   -8.6701    0.0000 C   0  0  3  0  0  0  0  0  0  0  0  0
    1.1877   -4.0382    0.0000 C   0  0  0  0  0  0  0  0  0  0  0  0
    0.0000   -4.1569    0.0000 C   0  0  0  0  0  0  0  0  0  0  0  0
    0.1188   -5.2852    0.0000 C   0  0  0  0  0  0  0  0  0  0  0  0
    1.0689   -8.9670    0.0000 C   0  0  0  0  0  0  0  0  0  0  0  0
    4.8695   -8.4920    0.0000 C   0  0  0  0  0  0  0  0  0  0  0  0
    5.6415   -8.7295    0.0000 C   0  0  0  0  0  0  0  0  0  0  0  0
    2.6129   -9.0858    0.0000 C   0  0  0  0  0  0  0  0  0  0  0  0
    4.2163   -8.8483    0.0000 C   0  0  0  0  0  0  0  0  0  0  0  0
    9.1452   -5.8791    0.0000 C   0  0  0  0  0  0  0  0  0  0  0  0
    3.3849   -9.0858    0.0000 C   0  0  0  0  0  0  0  0  0  0  0  0
    5.7009   -9.5609    0.0000 C   0  0  0  0  0  0  0  0  0  0  0  0
    4.9883   -9.9766    0.0000 C   0  0  0  0  0  0  0  0  0  0  0  0
    5.7009  -11.1642    0.0000 C   0  0  0  0  0  0  0  0  0  0  0  0
    6.5323  -11.1642    0.0000 C   0  0  0  0  0  0  0  0  0  0  0  0
    6.1760  -11.8769    0.0000 C   0  0  0  0  0  0  0  0  0  0  0  0
  1  3  2  0  0  0  0
  1  4  2  0  0  0  0
  1 12  1  0  0  0  0
  1 21  1  0  0  0  0
  2 20  2  0  0  0  0
  5 22  2  0  0  0  0
  6 29  1  0  0  0  0
  6 34  1  0  0  0  0
  7 30  2  0  0  0  0
  8 36  1  0  0  0  0
  8 53  1  0  0  0  0
  9 43  1  0  0  0  0
  9 45  1  0  0  0  0
 10 43  2  0  0  0  0
 17 11  1  1  0  0  0
 11 22  1  0  0  0  0
 12 20  1  0  0  0  0
 13 26  1  0  0  0  0
 13 30  1  0  0  0  0
 13 31  1  0  0  0  0
 14 34  1  0  0  0  0
 14 39  2  0  0  0  0
 15 32  1  0  0  0  0
 15 43  1  0  0  0  0
 16 59  1  0  0  0  0
 16 60  1  0  0  0  0
 17 18  1  0  0  0  0
 17 19  1  0  0  0  0
 17 20  1  6  0  0  0
 18 19  1  0  0  0  0
 18 23  1  6  0  0  0
 21 24  1  0  0  0  0
 21 25  1  0  0  0  0
 21 27  1  0  0  0  0
 26 22  1  6  0  0  0
 23 33  2  0  0  0  0
 24 25  1  0  0  0  0
 26 28  1  0  0  0  0
 29 28  1  1  0  0  0
 29 31  1  0  0  0  0
 30 32  1  0  0  0  0
 32 38  1  1  0  0  0
 34 35  2  0  0  0  0
 35 36  1  0  0  0  0
 35 40  1  0  0  0  0
 36 37  2  0  0  0  0
 37 39  1  0  0  0  0
 37 42  1  0  0  0  0
 38 48  1  0  0  0  0
 38 49  1  0  0  0  0
 38 50  1  0  0  0  0
 39 41  1  0  0  0  0
 40 52  1  0  0  0  0
 41 44  2  0  0  0  0
 42 46  2  0  0  0  0
 44 46  1  0  0  0  0
 44 56  1  0  0  0  0
 45 47  1  0  0  0  0
 45 51  1  1  0  0  0
 47 51  1  6  0  0  0
 47 54  1  0  0  0  0
 52 55  1  0  0  0  0
 53 58  1  0  0  0  0
 54 57  1  0  0  0  0
 55 57  1  0  0  0  0
 58 59  1  0  0  0  0
 60 61  1  0  0  0  0
 60 62  1  0  0  0  0
 61 62  1  0  0  0  0
M  END
> <PUBCHEM_COMPOUND_ID_TYPE>
0

> <PUBCHEM_TOTAL_CHARGE>
0

> <PUBCHEM_SUBSTANCE_ID>
310929845

> <PUBCHEM_SUBSTANCE_VERSION>
1

> <PUBCHEM_EXT_DATASOURCE_NAME>
4488

> <PUBCHEM_EXT_DATASOURCE_REGID>
SCHEMBL16107057

> <PUBCHEM_SUBSTANCE_COMMENT>
InChI=1S/C46H64N6O9S/c1-7-29-25-46(29,42(55)51-62(57,58)45(6)18-19-45)50-39(53)35-24-31-26-52(35)41(54)38(44(3,4)5)49-43(56)61-36-23-28(36)12-9-8-10-13-33-37(59-21-11-20-47-30-15-16-30)32-17-14-27(2)22-34(32)48-40(33)60-31/h7,14,17,22,28-31,35-36,38,47H,1,8-13,15-16,18-21,23-26H2,2-6H3,(H,49,56)(H,50,53)(H,51,55)/t28-,29-,31-,35+,36-,38-,46-/m1/s1
InChIKey=VNPSNLSDAOOSPN-DBKUCNJASA-N

> <PUBCHEM_SUBSTANCE_SYNONYM>
SCHEMBL16107057

> <PUBCHEM_XREF_EXT_ID>
SCHEMBL16107057

> <PUBCHEM_EXT_DATASOURCE_URL>
https://www.surechembl.org/

> <PUBCHEM_EXT_SUBSTANCE_URL>
https://www.surechembl.org/chemical/SCHEMBL16107057

> <PUBCHEM_CID_ASSOCIATIONS>
117599118  1

> <PUBCHEM_COORDINATE_TYPE>
1
3

> <PUBCHEM_BONDANNOTATIONS>
17  11  5
17  20  6
18  23  6
26  22  6
29  28  5
32  38  5
45  51  5
47  51  6

$$$$
