310949653
  -OEChem-07211613022D

 23 24  0     0  0  0  0  0  0999 V2000
    2.8807   -2.1842    0.0000 F   0  0  0  0  0  0  0  0  0  0  0  0
    1.6366    1.4540    0.0000 O   0  0  0  0  0  0  0  0  0  0  0  0
    2.4615    1.4540    0.0000 O   0  0  0  0  0  0  0  0  0  0  0  0
    3.6923    0.7236    0.0000 O   0  0  0  0  0  0  0  0  0  0  0  0
   -3.6923    2.1842    0.0000 O   0  0  0  0  0  0  0  0  0  0  0  0
   -3.6923    0.7236    0.0000 O   0  0  0  0  0  0  0  0  0  0  0  0
    0.4057    0.7236    0.0000 N   0  0  0  0  0  0  0  0  0  0  0  0
    1.6366    0.0068    0.0000 C   0  0  0  0  0  0  0  0  0  0  0  0
    2.4480   -0.0068    0.0000 C   0  0  0  0  0  0  0  0  0  0  0  0
    1.2172    0.7100    0.0000 C   0  0  0  0  0  0  0  0  0  0  0  0
    2.8672   -0.7236    0.0000 C   0  0  0  0  0  0  0  0  0  0  0  0
    1.2443   -0.7371    0.0000 C   0  0  0  0  0  0  0  0  0  0  0  0
    2.8807    0.7236    0.0000 C   0  0  0  0  0  0  0  0  0  0  0  0
    2.4615   -1.4540    0.0000 C   0  0  0  0  0  0  0  0  0  0  0  0
    1.6366   -1.4405    0.0000 C   0  0  0  0  0  0  0  0  0  0  0  0
   -0.8250    1.4675    0.0000 C   0  0  0  0  0  0  0  0  0  0  0  0
    0.0135    1.4405    0.0000 C   0  0  0  0  0  0  0  0  0  0  0  0
   -2.4615    1.4540    0.0000 C   0  0  0  0  0  0  0  0  0  0  0  0
   -1.2308    2.1842    0.0000 C   0  0  0  0  0  0  0  0  0  0  0  0
   -1.2443    0.7236    0.0000 C   0  0  0  0  0  0  0  0  0  0  0  0
   -2.0423    2.1842    0.0000 C   0  0  0  0  0  0  0  0  0  0  0  0
   -2.0558    0.7371    0.0000 C   0  0  0  0  0  0  0  0  0  0  0  0
   -3.2730    1.4540    0.0000 C   0  0  0  0  0  0  0  0  0  0  0  0
  1 14  1  0  0  0  0
  2 10  2  0  0  0  0
  3 13  2  0  0  0  0
  4 13  1  0  0  0  0
  5 23  2  0  0  0  0
  6 23  1  0  0  0  0
  7 10  1  0  0  0  0
  7 17  1  0  0  0  0
  8  9  2  0  0  0  0
  8 10  1  0  0  0  0
  8 12  1  0  0  0  0
  9 11  1  0  0  0  0
  9 13  1  0  0  0  0
 11 14  2  0  0  0  0
 12 15  2  0  0  0  0
 14 15  1  0  0  0  0
 16 17  1  0  0  0  0
 16 19  2  0  0  0  0
 16 20  1  0  0  0  0
 18 21  2  0  0  0  0
 18 22  1  0  0  0  0
 18 23  1  0  0  0  0
 19 21  1  0  0  0  0
 20 22  2  0  0  0  0
M  END
> <PUBCHEM_COMPOUND_ID_TYPE>
0

> <PUBCHEM_TOTAL_CHARGE>
0

> <PUBCHEM_SUBSTANCE_ID>
310949653

> <PUBCHEM_SUBSTANCE_VERSION>
1

> <PUBCHEM_EXT_DATASOURCE_NAME>
4488

> <PUBCHEM_EXT_DATASOURCE_REGID>
SCHEMBL16127851

> <PUBCHEM_SUBSTANCE_COMMENT>
InChI=1S/C16H12FNO5/c17-11-5-6-12(13(7-11)16(22)23)14(19)18-8-9-1-3-10(4-2-9)15(20)21/h1-7H,8H2,(H,18,19)(H,20,21)(H,22,23)
InChIKey=GSWGJUOVNMNBAX-UHFFFAOYSA-N

> <PUBCHEM_SUBSTANCE_SYNONYM>
SCHEMBL16127851

> <PUBCHEM_XREF_EXT_ID>
SCHEMBL16127851

> <PUBCHEM_EXT_DATASOURCE_URL>
https://www.surechembl.org/

> <PUBCHEM_EXT_SUBSTANCE_URL>
https://www.surechembl.org/chemical/SCHEMBL16127851

> <PUBCHEM_CID_ASSOCIATIONS>
117615030  1

> <PUBCHEM_COORDINATE_TYPE>
1
3

$$$$
