310940523
  -OEChem-07211613022D

 37 42  0     0  0  0  0  0  0999 V2000
    1.6175   -0.1514    0.0000 O   0  0  0  0  0  0  0  0  0  0  0  0
   -2.5811   -0.3166    0.0000 O   0  0  0  0  0  0  0  0  0  0  0  0
    1.6725    1.3215    0.0000 O   0  0  0  0  0  0  0  0  0  0  0  0
   -3.8888   -2.2438    0.0000 O   0  0  0  0  0  0  0  0  0  0  0  0
    0.4474    0.5093    0.0000 N   0  0  0  0  0  0  0  0  0  0  0  0
    0.2960   -1.9685    0.0000 N   0  0  0  0  0  0  0  0  0  0  0  0
   -3.4758   -2.9734    0.0000 N   0  0  0  0  0  0  0  0  0  0  0  0
    0.2960   -0.3442    0.0000 C   0  0  0  0  0  0  0  0  0  0  0  0
   -0.4061   -0.7709    0.0000 C   0  0  0  0  0  0  0  0  0  0  0  0
    1.0393   -0.7571    0.0000 C   0  0  0  0  0  0  0  0  0  0  0  0
   -0.4198   -1.5830    0.0000 C   0  0  0  0  0  0  0  0  0  0  0  0
    1.0256   -1.5968    0.0000 C   0  0  0  0  0  0  0  0  0  0  0  0
   -1.8515   -1.5968    0.0000 C   0  0  0  0  0  0  0  0  0  0  0  0
    1.3009    0.5368    0.0000 C   0  0  0  0  0  0  0  0  0  0  0  0
   -1.1357   -0.3717    0.0000 C   0  0  0  0  0  0  0  0  0  0  0  0
   -1.8377   -0.7709    0.0000 C   0  0  0  0  0  0  0  0  0  0  0  0
   -1.1357   -1.9960    0.0000 C   0  0  0  0  0  0  0  0  0  0  0  0
   -2.5673   -2.0098    0.0000 C   0  0  0  0  0  0  0  0  0  0  0  0
   -0.2134    0.9361    0.0000 C   0  0  0  0  0  0  0  0  0  0  0  0
    1.7689   -1.9960    0.0000 C   0  0  0  0  0  0  0  0  0  0  0  0
   -3.3244   -1.6519    0.0000 C   0  0  0  0  0  0  0  0  0  0  0  0
   -2.6499   -2.8357    0.0000 C   0  0  0  0  0  0  0  0  0  0  0  0
   -0.1583    1.7758    0.0000 C   0  0  0  0  0  0  0  0  0  0  0  0
    2.4571   -1.5968    0.0000 C   0  0  0  0  0  0  0  0  0  0  0  0
   -3.4758   -0.8534    0.0000 C   0  0  0  0  0  0  0  0  0  0  0  0
   -2.0304   -3.3863    0.0000 C   0  0  0  0  0  0  0  0  0  0  0  0
    0.5850    2.1337    0.0000 C   0  0  0  0  0  0  0  0  0  0  0  0
   -0.8328    2.2163    0.0000 C   0  0  0  0  0  0  0  0  0  0  0  0
    2.4847   -0.7433    0.0000 C   0  0  0  0  0  0  0  0  0  0  0  0
    3.1730   -1.9960    0.0000 C   0  0  0  0  0  0  0  0  0  0  0  0
   -2.5673    0.4818    0.0000 C   0  0  0  0  0  0  0  0  0  0  0  0
    0.6401    2.9320    0.0000 C   0  0  0  0  0  0  0  0  0  0  0  0
   -0.7640    3.0422    0.0000 C   0  0  0  0  0  0  0  0  0  0  0  0
    3.1867   -0.3717    0.0000 C   0  0  0  0  0  0  0  0  0  0  0  0
    3.8888   -1.5830    0.0000 C   0  0  0  0  0  0  0  0  0  0  0  0
   -0.0206    3.3863    0.0000 C   0  0  0  0  0  0  0  0  0  0  0  0
    3.8888   -0.7709    0.0000 C   0  0  0  0  0  0  0  0  0  0  0  0
  1 10  1  0  0  0  0
  1 14  1  0  0  0  0
  2 16  1  0  0  0  0
  2 31  1  0  0  0  0
  3 14  2  0  0  0  0
  4  7  1  0  0  0  0
  4 21  1  0  0  0  0
  5  8  1  0  0  0  0
  5 14  1  0  0  0  0
  5 19  1  0  0  0  0
  6 11  1  0  0  0  0
  6 12  2  0  0  0  0
  7 22  2  0  0  0  0
  8  9  1  0  0  0  0
  8 10  2  0  0  0  0
  9 11  1  0  0  0  0
  9 15  2  0  0  0  0
 10 12  1  0  0  0  0
 11 17  2  0  0  0  0
 12 20  1  0  0  0  0
 13 16  2  0  0  0  0
 13 17  1  0  0  0  0
 13 18  1  0  0  0  0
 15 16  1  0  0  0  0
 18 21  2  0  0  0  0
 18 22  1  0  0  0  0
 19 23  1  0  0  0  0
 20 24  1  0  0  0  0
 21 25  1  0  0  0  0
 22 26  1  0  0  0  0
 23 27  2  0  0  0  0
 23 28  1  0  0  0  0
 24 29  2  0  0  0  0
 24 30  1  0  0  0  0
 27 32  1  0  0  0  0
 28 33  2  0  0  0  0
 29 34  1  0  0  0  0
 30 35  2  0  0  0  0
 32 36  2  0  0  0  0
 33 36  1  0  0  0  0
 34 37  2  0  0  0  0
 35 37  1  0  0  0  0
M  END
> <PUBCHEM_COMPOUND_ID_TYPE>
0

> <PUBCHEM_TOTAL_CHARGE>
0

> <PUBCHEM_SUBSTANCE_ID>
310940523

> <PUBCHEM_SUBSTANCE_VERSION>
1

> <PUBCHEM_EXT_DATASOURCE_NAME>
4488

> <PUBCHEM_EXT_DATASOURCE_REGID>
SCHEMBL16118477

> <PUBCHEM_SUBSTANCE_COMMENT>
InChI=1S/C30H25N3O4/c1-18-27(19(2)37-32-18)23-15-24-22(16-26(23)35-3)28-29(25(31-24)14-20-10-6-4-7-11-20)36-30(34)33(28)17-21-12-8-5-9-13-21/h4-13,15-16H,14,17H2,1-3H3
InChIKey=HWEJRLDMEGBTMR-UHFFFAOYSA-N

> <PUBCHEM_SUBSTANCE_SYNONYM>
SCHEMBL16118477

> <PUBCHEM_XREF_EXT_ID>
SCHEMBL16118477

> <PUBCHEM_EXT_DATASOURCE_URL>
https://www.surechembl.org/

> <PUBCHEM_EXT_SUBSTANCE_URL>
https://www.surechembl.org/chemical/SCHEMBL16118477

> <PUBCHEM_CID_ASSOCIATIONS>
86303423  1

> <PUBCHEM_COORDINATE_TYPE>
1
3

$$$$
