310929499
  -OEChem-07211613022D

 73 81  0     1  0  0  0  0  0999 V2000
    2.3848   -5.1547    0.0000 S   0  0  0  0  0  0  0  0  0  0  0  0
   -4.2868   -0.8250    0.0000 O   0  0  0  0  0  0  0  0  0  0  0  0
    1.5598   -3.7257    0.0000 O   0  0  0  0  0  0  0  0  0  0  0  0
   -1.4290   -0.8250    0.0000 O   0  0  0  0  0  0  0  0  0  0  0  0
    2.3848   -5.9797    0.0000 O   0  0  0  0  0  0  0  0  0  0  0  0
    2.3848   -4.3297    0.0000 O   0  0  0  0  0  0  0  0  0  0  0  0
   -1.3277   -4.4402    0.0000 O   0  0  0  0  0  0  0  0  0  0  0  0
   -2.8579   -4.1250    0.0000 O   0  0  0  0  0  0  0  0  0  0  0  0
   -5.0013   -2.0625    0.0000 O   0  0  0  0  0  0  0  0  0  0  0  0
    0.0000    1.6500    0.0000 O   0  0  0  0  0  0  0  0  0  0  0  0
   -0.0902   -3.7257    0.0000 N   0  0  0  0  0  0  0  0  0  0  0  0
    1.5598   -5.1547    0.0000 N   0  0  0  0  0  0  0  0  0  0  0  0
   -2.1434   -2.8875    0.0000 N   0  0  0  0  0  0  0  0  0  0  0  0
   -3.5724   -2.0625    0.0000 N   0  0  0  0  0  0  0  0  0  0  0  0
    0.0000   -0.8250    0.0000 N   0  0  0  0  0  0  0  0  0  0  0  0
    1.4290    4.1250    0.0000 N   0  0  3  0  0  0  0  0  0  0  0  0
    2.8108    5.8474    0.0000 N   0  0  0  0  0  0  0  0  0  0  0  0
    1.4760    5.8474    0.0000 N   0  0  0  0  0  0  0  0  0  0  0  0
    0.3223   -4.4402    0.0000 C   0  0  3  0  0  0  0  0  0  0  0  0
    0.3223   -5.2651    0.0000 C   0  0  3  0  0  0  0  0  0  0  0  0
   -5.0013   -0.4125    0.0000 C   0  0  3  0  0  0  0  0  0  0  0  0
   -5.0013    0.4125    0.0000 C   0  0  3  0  0  0  0  0  0  0  0  0
   -0.3922   -4.8526    0.0000 C   0  0  0  0  0  0  0  0  0  0  0  0
    1.1473   -4.4402    0.0000 C   0  0  0  0  0  0  0  0  0  0  0  0
   -5.7158    0.0000    0.0000 C   0  0  0  0  0  0  0  0  0  0  0  0
    3.2098   -5.1547    0.0000 C   0  0  0  0  0  0  0  0  0  0  0  0
   -0.9152   -3.7257    0.0000 C   0  0  0  0  0  0  0  0  0  0  0  0
   -1.3277   -3.0112    0.0000 C   0  0  3  0  0  0  0  0  0  0  0  0
   -4.2868    0.8250    0.0000 C   0  0  0  0  0  0  0  0  0  0  0  0
    0.7348   -5.9797    0.0000 C   0  0  0  0  0  0  0  0  0  0  0  0
   -1.4290   -1.6500    0.0000 C   0  0  3  0  0  0  0  0  0  0  0  0
    3.6223   -4.4402    0.0000 C   0  0  0  0  0  0  0  0  0  0  0  0
    4.0348   -5.1547    0.0000 C   0  0  0  0  0  0  0  0  0  0  0  0
   -0.9152   -2.2967    0.0000 C   0  0  0  0  0  0  0  0  0  0  0  0
   -2.8579   -3.3000    0.0000 C   0  0  0  0  0  0  0  0  0  0  0  0
   -2.1434   -2.0625    0.0000 C   0  0  0  0  0  0  0  0  0  0  0  0
   -4.2868   -1.6500    0.0000 C   0  0  0  0  0  0  0  0  0  0  0  0
   -3.5724   -2.8875    0.0000 C   0  0  3  0  0  0  0  0  0  0  0  0
    2.7973   -5.8691    0.0000 C   0  0  0  0  0  0  0  0  0  0  0  0
   -0.7144   -0.4125    0.0000 C   0  0  0  0  0  0  0  0  0  0  0  0
   -3.5724    0.4125    0.0000 C   0  0  0  0  0  0  0  0  0  0  0  0
   -4.2868   -3.3000    0.0000 C   0  0  0  0  0  0  0  0  0  0  0  0
   -0.7144    0.4125    0.0000 C   0  0  0  0  0  0  0  0  0  0  0  0
    1.5598   -5.9797    0.0000 C   0  0  0  0  0  0  0  0  0  0  0  0
    0.0000    0.8250    0.0000 C   0  0  0  0  0  0  0  0  0  0  0  0
    0.7144    0.4125    0.0000 C   0  0  0  0  0  0  0  0  0  0  0  0
    0.7144   -0.4125    0.0000 C   0  0  0  0  0  0  0  0  0  0  0  0
   -2.8579    0.8250    0.0000 C   0  0  0  0  0  0  0  0  0  0  0  0
   -1.4290    0.8250    0.0000 C   0  0  0  0  0  0  0  0  0  0  0  0
   -2.1434    0.4125    0.0000 C   0  0  0  0  0  0  0  0  0  0  0  0
   -4.2868   -4.1250    0.0000 C   0  0  0  0  0  0  0  0  0  0  0  0
   -5.0013   -3.7125    0.0000 C   0  0  0  0  0  0  0  0  0  0  0  0
   -5.0013   -2.8875    0.0000 C   0  0  0  0  0  0  0  0  0  0  0  0
    1.4290    0.8250    0.0000 C   0  0  0  0  0  0  0  0  0  0  0  0
    1.4290   -0.8250    0.0000 C   0  0  0  0  0  0  0  0  0  0  0  0
    2.1434    0.4125    0.0000 C   0  0  0  0  0  0  0  0  0  0  0  0
    2.1434   -0.4125    0.0000 C   0  0  0  0  0  0  0  0  0  0  0  0
    0.7144    2.0625    0.0000 C   0  0  0  0  0  0  0  0  0  0  0  0
    0.7144    2.8875    0.0000 C   0  0  0  0  0  0  0  0  0  0  0  0
    1.4290    3.3000    0.0000 C   0  0  0  0  0  0  0  0  0  0  0  0
    2.5559    6.6321    0.0000 C   0  0  0  0  0  0  0  0  0  0  0  0
    1.7309    6.6321    0.0000 C   0  0  0  0  0  0  0  0  0  0  0  0
    2.1434    5.3625    0.0000 C   0  0  0  0  0  0  0  0  0  0  0  0
    2.1434    4.5375    0.0000 C   0  0  0  0  0  0  0  0  0  0  0  0
    2.9684    7.3465    0.0000 C   0  0  0  0  0  0  0  0  0  0  0  0
    1.3184    7.3465    0.0000 C   0  0  0  0  0  0  0  0  0  0  0  0
    2.5559    8.0610    0.0000 C   0  0  0  0  0  0  0  0  0  0  0  0
    1.7309    8.0610    0.0000 C   0  0  0  0  0  0  0  0  0  0  0  0
    0.7144    4.5375    0.0000 C   0  0  0  0  0  0  0  0  0  0  0  0
    2.9684    8.7755    0.0000 C   0  0  0  0  0  0  0  0  0  0  0  0
   -5.4138   -1.1270    0.0000 H   0  0  0  0  0  0  0  0  0  0  0  0
   -5.4138    1.1270    0.0000 H   0  0  0  0  0  0  0  0  0  0  0  0
   -0.6500   -1.3783    0.0000 H   0  0  0  0  0  0  0  0  0  0  0  0
  1  5  2  0  0  0  0
  1  6  2  0  0  0  0
  1 12  1  0  0  0  0
  1 26  1  0  0  0  0
  2 21  1  0  0  0  0
  2 37  1  0  0  0  0
  3 24  2  0  0  0  0
  4 31  1  0  0  0  0
  4 40  1  0  0  0  0
  7 27  2  0  0  0  0
  8 35  2  0  0  0  0
  9 37  2  0  0  0  0
 10 45  1  0  0  0  0
 10 58  1  0  0  0  0
 19 11  1  1  0  0  0
 11 27  1  0  0  0  0
 12 24  1  0  0  0  0
 13 28  1  0  0  0  0
 13 35  1  0  0  0  0
 13 36  1  0  0  0  0
 14 37  1  0  0  0  0
 14 38  1  0  0  0  0
 15 40  2  0  0  0  0
 15 47  1  0  0  0  0
 16 60  1  0  0  0  0
 16 64  1  0  0  0  0
 16 69  1  0  0  0  0
 17 61  1  0  0  0  0
 17 63  2  0  0  0  0
 18 62  1  0  0  0  0
 18 63  1  0  0  0  0
 19 20  1  0  0  0  0
 19 23  1  0  0  0  0
 19 24  1  6  0  0  0
 20 23  1  0  0  0  0
 20 30  1  6  0  0  0
 21 22  1  0  0  0  0
 21 25  1  0  0  0  0
 21 71  1  1  0  0  0
 22 25  1  0  0  0  0
 22 29  1  0  0  0  0
 22 72  1  6  0  0  0
 26 32  1  0  0  0  0
 26 33  1  0  0  0  0
 26 39  1  0  0  0  0
 28 27  1  1  0  0  0
 28 34  1  0  0  0  0
 29 41  1  0  0  0  0
 30 44  2  0  0  0  0
 31 34  1  0  0  0  0
 31 36  1  0  0  0  0
 31 73  1  1  0  0  0
 32 33  1  0  0  0  0
 35 38  1  0  0  0  0
 38 42  1  6  0  0  0
 40 43  1  0  0  0  0
 41 48  1  0  0  0  0
 42 51  1  0  0  0  0
 42 52  1  0  0  0  0
 42 53  1  0  0  0  0
 43 45  2  0  0  0  0
 43 49  1  0  0  0  0
 45 46  1  0  0  0  0
 46 47  1  0  0  0  0
 46 54  2  0  0  0  0
 47 55  2  0  0  0  0
 48 50  1  0  0  0  0
 49 50  1  0  0  0  0
 54 56  1  0  0  0  0
 55 57  1  0  0  0  0
 56 57  2  0  0  0  0
 58 59  1  0  0  0  0
 59 60  1  0  0  0  0
 61 62  1  0  0  0  0
 61 65  2  0  0  0  0
 62 66  2  0  0  0  0
 63 64  1  0  0  0  0
 65 67  1  0  0  0  0
 66 68  1  0  0  0  0
 67 68  2  0  0  0  0
 67 70  1  0  0  0  0
M  END
> <PUBCHEM_COMPOUND_ID_TYPE>
0

> <PUBCHEM_TOTAL_CHARGE>
0

> <PUBCHEM_SUBSTANCE_ID>
310929499

> <PUBCHEM_SUBSTANCE_VERSION>
1

> <PUBCHEM_EXT_DATASOURCE_NAME>
4488

> <PUBCHEM_EXT_DATASOURCE_REGID>
SCHEMBL16106676

> <PUBCHEM_SUBSTANCE_COMMENT>
InChI=1S/C52H68N8O9S/c1-8-33-28-52(33,48(63)58-70(65,66)51(6)21-22-51)57-45(61)40-27-34-29-60(40)47(62)44(50(3,4)5)56-49(64)69-41-26-32(41)15-10-9-11-17-36-43(35-16-12-13-18-37(35)55-46(36)68-34)67-24-14-23-59(7)30-42-53-38-20-19-31(2)25-39(38)54-42/h8,12-13,16,18-20,25,32-34,40-41,44H,1,9-11,14-15,17,21-24,26-30H2,2-7H3,(H,53,54)(H,56,64)(H,57,61)(H,58,63)/t32-,33-,34-,40+,41-,44-,52-/m1/s1
InChIKey=MDYXKPQVGMRQEC-FXXQOOMMSA-N

> <PUBCHEM_SUBSTANCE_SYNONYM>
SCHEMBL16106676

> <PUBCHEM_XREF_EXT_ID>
SCHEMBL16106676

> <PUBCHEM_EXT_DATASOURCE_URL>
https://www.surechembl.org/

> <PUBCHEM_EXT_SUBSTANCE_URL>
https://www.surechembl.org/chemical/SCHEMBL16106676

> <PUBCHEM_CID_ASSOCIATIONS>
117598825  1

> <PUBCHEM_COORDINATE_TYPE>
1
3

> <PUBCHEM_BONDANNOTATIONS>
19  11  5
19  24  6
20  30  6
21  71  5
22  72  6
28  27  5
31  73  5
38  42  6

$$$$
