310945242
  -OEChem-07211613022D

 14 15  0     0  0  0  0  0  0999 V2000
   -2.0219    0.2967    0.0000 O   0  0  0  0  0  0  0  0  0  0  0  0
   -0.7936   -0.4071    0.0000 N   0  0  0  0  0  0  0  0  0  0  0  0
    2.0219    0.3657    0.0000 N   0  0  0  0  0  0  0  0  0  0  0  0
    0.0207   -0.5038    0.0000 C   0  0  0  0  0  0  0  0  0  0  0  0
    0.1863   -1.3180    0.0000 C   0  0  0  0  0  0  0  0  0  0  0  0
   -1.1248   -1.1800    0.0000 C   0  0  0  0  0  0  0  0  0  0  0  0
    0.6279    0.0483    0.0000 C   0  0  0  0  0  0  0  0  0  0  0  0
   -0.5176   -1.7182    0.0000 C   0  0  0  0  0  0  0  0  0  0  0  0
   -1.1800    0.3105    0.0000 C   0  0  0  0  0  0  0  0  0  0  0  0
    0.9730   -1.5665    0.0000 C   0  0  0  0  0  0  0  0  0  0  0  0
    1.4146   -0.2002    0.0000 C   0  0  0  0  0  0  0  0  0  0  0  0
    1.5802   -1.0144    0.0000 C   0  0  0  0  0  0  0  0  0  0  0  0
   -0.7936    1.0282    0.0000 C   0  0  0  0  0  0  0  0  0  0  0  0
   -1.2628    1.7182    0.0000 C   0  0  0  0  0  0  0  0  0  0  0  0
  1  9  2  0  0  0  0
  2  4  1  0  0  0  0
  2  6  1  0  0  0  0
  2  9  1  0  0  0  0
  3 11  1  0  0  0  0
  4  5  2  0  0  0  0
  4  7  1  0  0  0  0
  5  8  1  0  0  0  0
  5 10  1  0  0  0  0
  6  8  1  0  0  0  0
  7 11  2  0  0  0  0
  9 13  1  0  0  0  0
 10 12  2  0  0  0  0
 11 12  1  0  0  0  0
 13 14  2  0  0  0  0
M  END
> <PUBCHEM_COMPOUND_ID_TYPE>
0

> <PUBCHEM_TOTAL_CHARGE>
0

> <PUBCHEM_SUBSTANCE_ID>
310945242

> <PUBCHEM_SUBSTANCE_VERSION>
1

> <PUBCHEM_EXT_DATASOURCE_NAME>
4488

> <PUBCHEM_EXT_DATASOURCE_REGID>
SCHEMBL16123336

> <PUBCHEM_SUBSTANCE_COMMENT>
InChI=1S/C11H12N2O/c1-2-11(14)13-6-5-8-3-4-9(12)7-10(8)13/h2-4,7H,1,5-6,12H2
InChIKey=RTNHOFWPJRPPEI-UHFFFAOYSA-N

> <PUBCHEM_SUBSTANCE_SYNONYM>
SCHEMBL16123336

> <PUBCHEM_XREF_EXT_ID>
SCHEMBL16123336

> <PUBCHEM_EXT_DATASOURCE_URL>
https://www.surechembl.org/

> <PUBCHEM_EXT_SUBSTANCE_URL>
https://www.surechembl.org/chemical/SCHEMBL16123336

> <PUBCHEM_CID_ASSOCIATIONS>
117611312  1

> <PUBCHEM_COORDINATE_TYPE>
1
3

$$$$
