310941849
  -OEChem-07211613022D

 20 21  0     0  0  0  0  0  0999 V2000
    2.1014    1.1150    0.0000 O   0  0  0  0  0  0  0  0  0  0  0  0
    0.8148   -1.0721    0.0000 N   0  0  0  0  0  0  0  0  0  0  0  0
    2.0585    2.5731    0.0000 N   0  0  0  0  0  0  0  0  0  0  0  0
   -0.4289    1.1579    0.0000 C   0  0  0  0  0  0  0  0  0  0  0  0
    0.8577    0.3860    0.0000 C   0  0  0  0  0  0  0  0  0  0  0  0
    1.2008    1.1150    0.0000 C   0  0  0  0  0  0  0  0  0  0  0  0
    0.8148    1.8442    0.0000 C   0  0  0  0  0  0  0  0  0  0  0  0
   -1.2866    1.1579    0.0000 C   0  0  0  0  0  0  0  0  0  0  0  0
   -0.0429    0.4289    0.0000 C   0  0  0  0  0  0  0  0  0  0  0  0
    0.0000    1.8012    0.0000 C   0  0  0  0  0  0  0  0  0  0  0  0
    1.2437   -0.3432    0.0000 C   0  0  0  0  0  0  0  0  0  0  0  0
    1.2437    2.5731    0.0000 C   0  0  0  0  0  0  0  0  0  0  0  0
   -1.6726    0.3860    0.0000 C   0  0  0  0  0  0  0  0  0  0  0  0
   -2.1014    1.1150    0.0000 C   0  0  0  0  0  0  0  0  0  0  0  0
   -1.6726    1.8442    0.0000 C   0  0  0  0  0  0  0  0  0  0  0  0
    0.0000   -1.0721    0.0000 C   0  0  0  0  0  0  0  0  0  0  0  0
    1.2437   -1.8012    0.0000 C   0  0  0  0  0  0  0  0  0  0  0  0
   -0.4289   -1.8442    0.0000 C   0  0  0  0  0  0  0  0  0  0  0  0
    0.8148   -2.5731    0.0000 C   0  0  0  0  0  0  0  0  0  0  0  0
    0.0000   -2.5303    0.0000 C   0  0  0  0  0  0  0  0  0  0  0  0
  1  6  1  0  0  0  0
  2 11  1  0  0  0  0
  2 16  1  0  0  0  0
  2 17  1  0  0  0  0
  3 12  2  3  0  0  0
  4  8  1  0  0  0  0
  4  9  2  0  0  0  0
  4 10  1  0  0  0  0
  5  6  2  0  0  0  0
  5  9  1  0  0  0  0
  5 11  1  0  0  0  0
  6  7  1  0  0  0  0
  7 10  2  0  0  0  0
  7 12  1  0  0  0  0
  8 13  1  0  0  0  0
  8 14  1  0  0  0  0
  8 15  1  0  0  0  0
 16 18  1  0  0  0  0
 17 19  1  0  0  0  0
 18 20  1  0  0  0  0
 19 20  1  0  0  0  0
M  END
> <PUBCHEM_COMPOUND_ID_TYPE>
0

> <PUBCHEM_TOTAL_CHARGE>
0

> <PUBCHEM_SUBSTANCE_ID>
310941849

> <PUBCHEM_SUBSTANCE_VERSION>
1

> <PUBCHEM_EXT_DATASOURCE_NAME>
4488

> <PUBCHEM_EXT_DATASOURCE_REGID>
SCHEMBL16119881

> <PUBCHEM_SUBSTANCE_COMMENT>
InChI=1S/C17H26N2O/c1-17(2,3)15-9-13(11-18)16(20)14(10-15)12-19-7-5-4-6-8-19/h9-11,18,20H,4-8,12H2,1-3H3
InChIKey=VAMJMDZEUAACLW-UHFFFAOYSA-N

> <PUBCHEM_SUBSTANCE_SYNONYM>
SCHEMBL16119881

> <PUBCHEM_XREF_EXT_ID>
SCHEMBL16119881

> <PUBCHEM_EXT_DATASOURCE_URL>
https://www.surechembl.org/

> <PUBCHEM_EXT_SUBSTANCE_URL>
https://www.surechembl.org/chemical/SCHEMBL16119881

> <PUBCHEM_CID_ASSOCIATIONS>
117608590  1

> <PUBCHEM_COORDINATE_TYPE>
1
3

$$$$
