310937139
  -OEChem-07211613022D

 15 15  0     0  0  0  0  0  0999 V2000
    5.0093   -2.4795    0.0000 Br  0  0  0  0  0  0  0  0  0  0  0  0
    5.0261   -0.8377    0.0000 O   0  0  0  0  0  0  0  0  0  0  0  0
    0.7204   -3.3172    0.0000 O   0  0  0  0  0  0  0  0  0  0  0  0
    2.8649   -2.0775    0.0000 C   0  0  0  0  0  0  0  0  0  0  0  0
    4.3057   -1.2398    0.0000 C   0  0  0  0  0  0  0  0  0  0  0  0
    4.2889   -2.0775    0.0000 C   0  0  0  0  0  0  0  0  0  0  0  0
    3.5853   -2.4795    0.0000 C   0  0  0  0  0  0  0  0  0  0  0  0
    2.8649   -1.2398    0.0000 C   0  0  0  0  0  0  0  0  0  0  0  0
    3.5853   -0.8209    0.0000 C   0  0  0  0  0  0  0  0  0  0  0  0
    2.1445   -2.4795    0.0000 C   0  0  0  0  0  0  0  0  0  0  0  0
    0.7204   -2.4795    0.0000 C   0  0  0  0  0  0  0  0  0  0  0  0
    1.4241   -2.0775    0.0000 C   0  0  0  0  0  0  0  0  0  0  0  0
    0.0000   -2.0775    0.0000 C   0  0  0  0  0  0  0  0  0  0  0  0
    0.0000   -2.8984    0.0000 C   0  0  0  0  0  0  0  0  0  0  0  0
    5.0261    0.0000    0.0000 C   0  0  0  0  0  0  0  0  0  0  0  0
  1  6  1  0  0  0  0
  2  5  1  0  0  0  0
  2 15  1  0  0  0  0
  3 11  1  0  0  0  0
  4  7  1  0  0  0  0
  4  8  2  0  0  0  0
  4 10  1  0  0  0  0
  5  6  1  0  0  0  0
  5  9  2  0  0  0  0
  6  7  2  0  0  0  0
  8  9  1  0  0  0  0
 10 12  1  0  0  0  0
 11 12  1  0  0  0  0
 11 13  1  0  0  0  0
 11 14  1  0  0  0  0
M  END
> <PUBCHEM_COMPOUND_ID_TYPE>
0

> <PUBCHEM_TOTAL_CHARGE>
0

> <PUBCHEM_SUBSTANCE_ID>
310937139

> <PUBCHEM_SUBSTANCE_VERSION>
1

> <PUBCHEM_EXT_DATASOURCE_NAME>
4488

> <PUBCHEM_EXT_DATASOURCE_REGID>
SCHEMBL16114860

> <PUBCHEM_SUBSTANCE_COMMENT>
InChI=1S/C12H17BrO2/c1-12(2,14)7-6-9-4-5-11(15-3)10(13)8-9/h4-5,8,14H,6-7H2,1-3H3
InChIKey=LXOHRLAXJXLXHO-UHFFFAOYSA-N

> <PUBCHEM_SUBSTANCE_SYNONYM>
SCHEMBL16114860

> <PUBCHEM_XREF_EXT_ID>
SCHEMBL16114860

> <PUBCHEM_EXT_DATASOURCE_URL>
https://www.surechembl.org/

> <PUBCHEM_EXT_SUBSTANCE_URL>
https://www.surechembl.org/chemical/SCHEMBL16114860

> <PUBCHEM_CID_ASSOCIATIONS>
82134526  1

> <PUBCHEM_COORDINATE_TYPE>
1
3

$$$$
