310944464
  -OEChem-07211613022D

 32 36  0     1  0  0  0  0  0999 V2000
    2.3774   -0.4323    0.0000 O   0  0  0  0  0  0  0  0  0  0  0  0
    5.3700   -0.2882    0.0000 O   0  0  0  0  0  0  0  0  0  0  0  0
    5.1373   -1.7512    0.0000 O   0  0  0  0  0  0  0  0  0  0  0  0
   -0.3491   -0.4101    0.0000 O   0  0  0  0  0  0  0  0  0  0  0  0
    3.4193    0.6096    0.0000 N   0  0  0  0  0  0  0  0  0  0  0  0
    0.4821    1.0197    0.0000 N   0  0  0  0  0  0  0  0  0  0  0  0
   -4.0843    0.3104    0.0000 N   0  0  0  0  0  0  0  0  0  0  0  0
   -2.0116   -0.4101    0.0000 N   0  0  0  0  0  0  0  0  0  0  0  0
   -2.8430    1.0197    0.0000 N   0  0  0  0  0  0  0  0  0  0  0  0
   -4.5720    0.9754    0.0000 N   0  0  0  0  0  0  0  0  0  0  0  0
   -5.3700    0.7205    0.0000 N   0  0  0  0  0  0  0  0  0  0  0  0
   -5.3700   -0.1108    0.0000 N   0  0  0  0  0  0  0  0  0  0  0  0
    2.1447    1.0419    0.0000 C   0  0  0  0  0  0  0  0  0  0  0  0
    2.6324    0.3990    0.0000 C   0  0  0  0  0  0  0  0  0  0  0  0
    4.1065    0.1330    0.0000 C   0  0  0  0  0  0  0  0  0  0  0  0
    2.6324    1.6958    0.0000 C   0  0  0  0  0  0  0  0  0  0  0  0
    3.4193    1.4520    0.0000 C   0  0  0  0  0  0  0  0  0  0  0  0
    1.7235    0.3214    0.0000 C   0  0  0  0  0  0  0  0  0  0  0  0
    1.7346    1.7401    0.0000 C   0  0  0  0  0  0  0  0  0  0  0  0
    4.0954   -0.6983    0.0000 C   0  0  0  0  0  0  0  0  0  0  0  0
    4.8823    0.3769    0.0000 C   0  0  0  0  0  0  0  0  0  0  0  0
    4.8823   -0.9310    0.0000 C   0  0  0  0  0  0  0  0  0  0  0  0
    0.8922    0.3214    0.0000 C   0  0  0  0  0  0  0  0  0  0  0  0
    0.8922    1.7512    0.0000 C   0  0  0  0  0  0  0  0  0  0  0  0
   -0.3381    1.0419    0.0000 C   0  0  0  0  0  0  0  0  0  0  0  0
   -0.7703    0.3104    0.0000 C   0  0  3  0  0  0  0  0  0  0  0  0
   -1.5905    0.3214    0.0000 C   0  0  0  0  0  0  0  0  0  0  0  0
    3.4193   -1.1971    0.0000 C   0  0  0  0  0  0  0  0  0  0  0  0
   -3.2641    0.3104    0.0000 C   0  0  0  0  0  0  0  0  0  0  0  0
   -2.0116    1.0308    0.0000 C   0  0  0  0  0  0  0  0  0  0  0  0
   -2.8430   -0.3990    0.0000 C   0  0  0  0  0  0  0  0  0  0  0  0
   -4.5720   -0.3547    0.0000 C   0  0  0  0  0  0  0  0  0  0  0  0
  1 14  2  0  0  0  0
  2 21  1  0  0  0  0
  2 22  1  0  0  0  0
  3 22  2  0  0  0  0
 26  4  1  1  0  0  0
  5 14  1  0  0  0  0
  5 15  1  0  0  0  0
  5 17  1  0  0  0  0
  6 23  1  0  0  0  0
  6 24  1  0  0  0  0
  6 25  1  0  0  0  0
  7 10  1  0  0  0  0
  7 29  1  0  0  0  0
  7 32  1  0  0  0  0
  8 27  2  0  0  0  0
  8 31  1  0  0  0  0
  9 29  1  0  0  0  0
  9 30  2  0  0  0  0
 10 11  2  0  0  0  0
 11 12  1  0  0  0  0
 12 32  2  0  0  0  0
 13 14  1  0  0  0  0
 13 16  1  0  0  0  0
 13 18  1  0  0  0  0
 13 19  1  0  0  0  0
 15 20  2  0  0  0  0
 15 21  1  0  0  0  0
 16 17  1  0  0  0  0
 18 23  1  0  0  0  0
 19 24  1  0  0  0  0
 20 22  1  0  0  0  0
 20 28  1  0  0  0  0
 25 26  1  0  0  0  0
 26 27  1  0  0  0  0
 27 30  1  0  0  0  0
 29 31  2  0  0  0  0
M  END
> <PUBCHEM_COMPOUND_ID_TYPE>
0

> <PUBCHEM_TOTAL_CHARGE>
0

> <PUBCHEM_SUBSTANCE_ID>
310944464

> <PUBCHEM_SUBSTANCE_VERSION>
1

> <PUBCHEM_EXT_DATASOURCE_NAME>
4488

> <PUBCHEM_EXT_DATASOURCE_REGID>
SCHEMBL16122539

> <PUBCHEM_SUBSTANCE_COMMENT>
InChI=1S/C20H24N8O4/c1-13-15(11-32-18(13)30)27-7-4-20(19(27)31)2-5-26(6-3-20)10-16(29)14-8-22-17(9-21-14)28-12-23-24-25-28/h8-9,12,16,29H,2-7,10-11H2,1H3/t16-/m1/s1
InChIKey=HMKSNLNCMLEFSB-MRXNPFEDSA-N

> <PUBCHEM_SUBSTANCE_SYNONYM>
SCHEMBL16122539

> <PUBCHEM_XREF_EXT_ID>
SCHEMBL16122539

> <PUBCHEM_EXT_DATASOURCE_URL>
https://www.surechembl.org/

> <PUBCHEM_EXT_SUBSTANCE_URL>
https://www.surechembl.org/chemical/SCHEMBL16122539

> <PUBCHEM_CID_ASSOCIATIONS>
86271176  1

> <PUBCHEM_COORDINATE_TYPE>
1
3

> <PUBCHEM_BONDANNOTATIONS>
26  4  5

$$$$
