310947451
  -OEChem-07211613022D

 24 25  0     0  0  0  0  0  0999 V2000
   -1.0277   -7.8320    0.0000 O   0  0  0  0  0  0  0  0  0  0  0  0
    3.2590  -11.1319    0.0000 O   0  0  0  0  0  0  0  0  0  0  0  0
    3.3328  -12.8245    0.0000 O   0  0  0  0  0  0  0  0  0  0  0  0
   -1.7422   -9.0694    0.0000 N   0  0  0  0  0  0  0  0  0  0  0  0
   -0.3132   -9.8944    0.0000 N   0  0  0  0  0  0  0  0  0  0  0  0
    2.5446  -12.3693    0.0000 N   0  0  0  0  0  0  0  0  0  0  0  0
   -1.7422   -9.8944    0.0000 C   0  0  0  0  0  0  0  0  0  0  0  0
   -1.0277   -8.6569    0.0000 C   0  0  0  0  0  0  0  0  0  0  0  0
    0.4012  -10.3068    0.0000 C   0  0  0  0  0  0  0  0  0  0  0  0
    1.8301  -11.1319    0.0000 C   0  0  0  0  0  0  0  0  0  0  0  0
   -0.3132   -9.0694    0.0000 C   0  0  0  0  0  0  0  0  0  0  0  0
    1.1157   -9.8944    0.0000 C   0  0  0  0  0  0  0  0  0  0  0  0
    0.4012  -11.1319    0.0000 C   0  0  0  0  0  0  0  0  0  0  0  0
    1.8301  -10.3068    0.0000 C   0  0  0  0  0  0  0  0  0  0  0  0
    1.1157  -11.5443    0.0000 C   0  0  0  0  0  0  0  0  0  0  0  0
    2.5446  -11.5443    0.0000 C   0  0  0  0  0  0  0  0  0  0  0  0
   -2.4567   -8.6569    0.0000 C   0  0  0  0  0  0  0  0  0  0  0  0
   -2.4567  -10.3068    0.0000 C   0  0  0  0  0  0  0  0  0  0  0  0
   -1.0277  -10.3068    0.0000 C   0  0  0  0  0  0  0  0  0  0  0  0
   -2.4567  -11.1319    0.0000 C   0  0  0  0  0  0  0  0  0  0  0  0
   -1.0277  -11.1319    0.0000 C   0  0  0  0  0  0  0  0  0  0  0  0
   -1.7422  -11.5443    0.0000 C   0  0  0  0  0  0  0  0  0  0  0  0
   -2.4567   -7.8320    0.0000 C   0  0  0  0  0  0  0  0  0  0  0  0
   -3.1710   -7.4194    0.0000 C   0  0  0  0  0  0  0  0  0  0  0  0
  1  8  2  0  0  0  0
  2 16  2  0  0  0  0
  3  6  1  0  0  0  0
  4  7  1  0  0  0  0
  4  8  1  0  0  0  0
  4 17  1  0  0  0  0
  5  9  1  0  0  0  0
  5 11  1  0  0  0  0
  6 16  1  0  0  0  0
  7 18  2  0  0  0  0
  7 19  1  0  0  0  0
  8 11  1  0  0  0  0
  9 12  2  0  0  0  0
  9 13  1  0  0  0  0
 10 14  2  0  0  0  0
 10 15  1  0  0  0  0
 10 16  1  0  0  0  0
 12 14  1  0  0  0  0
 13 15  2  0  0  0  0
 17 23  1  0  0  0  0
 18 20  1  0  0  0  0
 19 21  2  0  0  0  0
 20 22  2  0  0  0  0
 21 22  1  0  0  0  0
 23 24  1  0  0  0  0
M  END
> <PUBCHEM_COMPOUND_ID_TYPE>
0

> <PUBCHEM_TOTAL_CHARGE>
0

> <PUBCHEM_SUBSTANCE_ID>
310947451

> <PUBCHEM_SUBSTANCE_VERSION>
1

> <PUBCHEM_EXT_DATASOURCE_NAME>
4488

> <PUBCHEM_EXT_DATASOURCE_REGID>
SCHEMBL16125612

> <PUBCHEM_SUBSTANCE_COMMENT>
InChI=1S/C18H21N3O3/c1-2-12-21(16-6-4-3-5-7-16)17(22)13-19-15-10-8-14(9-11-15)18(23)20-24/h3-11,19,24H,2,12-13H2,1H3,(H,20,23)
InChIKey=DIEPSBPMOBVHGA-UHFFFAOYSA-N

> <PUBCHEM_SUBSTANCE_SYNONYM>
SCHEMBL16125612

> <PUBCHEM_XREF_EXT_ID>
SCHEMBL16125612

> <PUBCHEM_EXT_DATASOURCE_URL>
https://www.surechembl.org/

> <PUBCHEM_EXT_SUBSTANCE_URL>
https://www.surechembl.org/chemical/SCHEMBL16125612

> <PUBCHEM_CID_ASSOCIATIONS>
117613182  1

> <PUBCHEM_COORDINATE_TYPE>
1
3

$$$$
