310936414
  -OEChem-07211613022D

 33 36  0     1  0  0  0  0  0999 V2000
    0.7434   -0.5605    0.0000 S   0  0  0  0  0  0  0  0  0  0  0  0
    0.5314    0.2971    0.0000 O   0  0  0  0  0  0  0  0  0  0  0  0
    1.9233    3.5854    0.0000 O   0  0  0  0  0  0  0  0  0  0  0  0
    6.5402    2.4343    0.0000 O   0  0  0  0  0  0  0  0  0  0  0  0
    3.1924    3.7472    0.0000 O   0  0  0  0  0  0  0  0  0  0  0  0
    1.9233    1.9354    0.0000 C   0  0  3  0  0  0  0  0  0  0  0  0
    2.6378    2.3479    0.0000 C   0  0  3  0  0  0  0  0  0  0  0  0
    1.9233    1.1104    0.0000 C   0  0  3  0  0  0  0  0  0  0  0  0
    3.3523    1.9354    0.0000 C   0  0  3  0  0  0  0  0  0  0  0  0
    1.1387    0.8555    0.0000 C   0  0  3  0  0  0  0  0  0  0  0  0
    4.0668    2.3479    0.0000 C   0  0  3  0  0  0  0  0  0  0  0  0
    1.1387    2.1904    0.0000 C   0  0  0  0  0  0  0  0  0  0  0  0
    2.6378    0.6979    0.0000 C   0  0  0  0  0  0  0  0  0  0  0  0
    3.3523    1.1104    0.0000 C   0  0  0  0  0  0  0  0  0  0  0  0
    4.4541    3.0764    0.0000 C   0  0  3  0  0  0  0  0  0  0  0  0
    0.6538    1.5229    0.0000 C   0  0  0  0  0  0  0  0  0  0  0  0
    1.3018    0.0468    0.0000 C   0  0  0  0  0  0  0  0  0  0  0  0
    2.6378    3.1729    0.0000 C   0  0  0  0  0  0  0  0  0  0  0  0
    1.8371    0.2900    0.0000 C   0  0  0  0  0  0  0  0  0  0  0  0
    4.5039    1.6483    0.0000 C   0  0  0  0  0  0  0  0  0  0  0  0
    5.2786    3.1052    0.0000 C   0  0  0  0  0  0  0  0  0  0  0  0
    3.3253    2.7096    0.0000 C   0  0  0  0  0  0  0  0  0  0  0  0
    5.7158    2.4055    0.0000 C   0  0  3  0  0  0  0  0  0  0  0  0
    4.0169    3.7760    0.0000 C   0  0  0  0  0  0  0  0  0  0  0  0
    5.3284    1.6771    0.0000 C   0  0  0  0  0  0  0  0  0  0  0  0
    2.0519   -0.2967    0.0000 C   0  0  0  0  0  0  0  0  0  0  0  0
    1.1484   -1.2793    0.0000 C   0  0  0  0  0  0  0  0  0  0  0  0
    1.9571   -1.1162    0.0000 C   0  0  0  0  0  0  0  0  0  0  0  0
    1.8371    2.7559    0.0000 H   0  0  0  0  0  0  0  0  0  0  0  0
    3.1681    2.9799    0.0000 H   0  0  0  0  0  0  0  0  0  0  0  0
    4.0668    1.5229    0.0000 H   0  0  0  0  0  0  0  0  0  0  0  0
    4.8414    3.8048    0.0000 H   0  0  0  0  0  0  0  0  0  0  0  0
    6.1529    1.7059    0.0000 H   0  0  0  0  0  0  0  0  0  0  0  0
  1 17  1  0  0  0  0
  1 27  1  0  0  0  0
 10  2  1  1  0  0  0
  3 18  1  0  0  0  0
 23  4  1  1  0  0  0
  5 24  1  0  0  0  0
  6  7  1  0  0  0  0
  6  8  1  0  0  0  0
  6 12  1  0  0  0  0
  6 29  1  6  0  0  0
  7  9  1  0  0  0  0
  7 18  1  0  0  0  0
  7 30  1  1  0  0  0
  8 10  1  0  0  0  0
  8 13  1  0  0  0  0
  8 19  1  1  0  0  0
  9 11  1  0  0  0  0
  9 14  1  0  0  0  0
  9 31  1  6  0  0  0
 10 16  1  0  0  0  0
 10 17  1  0  0  0  0
 11 15  1  0  0  0  0
 11 20  1  0  0  0  0
 11 22  1  1  0  0  0
 12 16  1  0  0  0  0
 13 14  1  0  0  0  0
 15 21  1  0  0  0  0
 15 24  1  0  0  0  0
 15 32  1  6  0  0  0
 17 26  2  0  0  0  0
 20 25  1  0  0  0  0
 21 23  1  0  0  0  0
 23 25  1  0  0  0  0
 23 33  1  6  0  0  0
 26 28  1  0  0  0  0
 27 28  2  0  0  0  0
M  END
> <PUBCHEM_COMPOUND_ID_TYPE>
0

> <PUBCHEM_TOTAL_CHARGE>
0

> <PUBCHEM_SUBSTANCE_ID>
310936414

> <PUBCHEM_SUBSTANCE_VERSION>
1

> <PUBCHEM_EXT_DATASOURCE_NAME>
4488

> <PUBCHEM_EXT_DATASOURCE_REGID>
SCHEMBL16114055

> <PUBCHEM_SUBSTANCE_COMMENT>
InChI=1S/C23H36O4S/c1-21(8-5-16(26)12-15(21)13-24)18-6-9-22(2)19(17(18)14-25)7-10-23(22,27)20-4-3-11-28-20/h3-4,11,15-19,24-27H,5-10,12-14H2,1-2H3/t15-,16+,17-,18+,19+,21+,22+,23-/m1/s1
InChIKey=ILAKHIGPVUAZHP-XLEAOOKDSA-N

> <PUBCHEM_SUBSTANCE_SYNONYM>
SCHEMBL16114055

> <PUBCHEM_XREF_EXT_ID>
SCHEMBL16114055

> <PUBCHEM_EXT_DATASOURCE_URL>
https://www.surechembl.org/

> <PUBCHEM_EXT_SUBSTANCE_URL>
https://www.surechembl.org/chemical/SCHEMBL16114055

> <PUBCHEM_CID_ASSOCIATIONS>
117604349  1

> <PUBCHEM_COORDINATE_TYPE>
1
3

> <PUBCHEM_BONDANNOTATIONS>
11  22  5
15  32  6
10  2  5
23  33  6
23  4  5
6  29  6
7  30  5
8  19  5
9  31  6

$$$$
