310940185
  -OEChem-07211613022D

 38 41  0     1  0  0  0  0  0999 V2000
   -2.5274   -4.2157    0.0000 S   0  0  0  0  0  0  0  0  0  0  0  0
   -1.4018   -2.1897    0.0000 O   0  0  0  0  0  0  0  0  0  0  0  0
    0.8493    3.2334    0.0000 O   0  0  0  0  0  0  0  0  0  0  0  0
    2.2818    3.0901    0.0000 O   0  0  0  0  0  0  0  0  0  0  0  0
   -3.2436   -4.6250    0.0000 O   0  0  0  0  0  0  0  0  0  0  0  0
   -2.1181   -4.9320    0.0000 O   0  0  0  0  0  0  0  0  0  0  0  0
    0.7674   -0.4093    0.0000 N   0  0  0  0  0  0  0  0  0  0  0  0
    1.0335   -1.2074    0.0000 N   0  0  0  0  0  0  0  0  0  0  0  0
    1.4223    1.9236    0.0000 N   0  0  0  0  0  0  0  0  0  0  0  0
    0.3581   -2.5376    0.0000 N   0  0  0  0  0  0  0  0  0  0  0  0
   -1.7088   -0.7572    0.0000 N   0  0  0  0  0  0  0  0  0  0  0  0
    3.2436   -0.6753    0.0000 N   0  0  0  0  0  0  0  0  0  0  0  0
    1.2791    0.2251    0.0000 C   0  0  3  0  0  0  0  0  0  0  0  0
   -0.0716   -0.3888    0.0000 C   0  0  0  0  0  0  0  0  0  0  0  0
   -0.3377   -1.1870    0.0000 C   0  0  0  0  0  0  0  0  0  0  0  0
    0.3581   -1.6781    0.0000 C   0  0  0  0  0  0  0  0  0  0  0  0
    0.5628    0.7572    0.0000 C   0  0  3  0  0  0  0  0  0  0  0  0
    2.0157    0.5934    0.0000 C   0  0  0  0  0  0  0  0  0  0  0  0
   -1.1357   -1.3507    0.0000 C   0  0  0  0  0  0  0  0  0  0  0  0
    1.6064   -0.4912    0.0000 C   0  0  0  0  0  0  0  0  0  0  0  0
   -0.6037    0.2046    0.0000 C   0  0  0  0  0  0  0  0  0  0  0  0
    0.6855    1.5963    0.0000 C   0  0  0  0  0  0  0  0  0  0  0  0
    2.1181    1.4325    0.0000 C   0  0  0  0  0  0  0  0  0  0  0  0
   -1.4223    0.0409    0.0000 C   0  0  0  0  0  0  0  0  0  0  0  0
   -0.3581   -2.9264    0.0000 C   0  0  0  0  0  0  0  0  0  0  0  0
   -0.1740    0.4297    0.0000 C   0  0  0  0  0  0  0  0  0  0  0  0
    1.5246    2.7627    0.0000 C   0  0  0  0  0  0  0  0  0  0  0  0
    2.4046   -0.5730    0.0000 C   0  0  0  0  0  0  0  0  0  0  0  0
   -1.1153   -2.5376    0.0000 C   0  0  0  0  0  0  0  0  0  0  0  0
   -0.3786   -3.7859    0.0000 C   0  0  0  0  0  0  0  0  0  0  0  0
   -1.8111   -3.7655    0.0000 C   0  0  0  0  0  0  0  0  0  0  0  0
   -1.7906   -2.9469    0.0000 C   0  0  0  0  0  0  0  0  0  0  0  0
   -1.0744   -4.1748    0.0000 C   0  0  0  0  0  0  0  0  0  0  0  0
    0.9311    4.1134    0.0000 C   0  0  0  0  0  0  0  0  0  0  0  0
   -2.9571   -3.4585    0.0000 C   0  0  0  0  0  0  0  0  0  0  0  0
    1.0335    4.9320    0.0000 C   0  0  0  0  0  0  0  0  0  0  0  0
    0.2558    4.5636    0.0000 C   0  0  0  0  0  0  0  0  0  0  0  0
    1.7293    4.3999    0.0000 C   0  0  0  0  0  0  0  0  0  0  0  0
  1  5  2  0  0  0  0
  1  6  2  0  0  0  0
  1 31  1  0  0  0  0
  1 35  1  0  0  0  0
  2 19  2  0  0  0  0
  3 27  1  0  0  0  0
  3 34  1  0  0  0  0
  4 27  2  0  0  0  0
  7  8  1  0  0  0  0
  7 13  1  0  0  0  0
  7 14  1  0  0  0  0
  8 16  2  0  0  0  0
  9 22  1  0  0  0  0
  9 23  1  0  0  0  0
  9 27  1  0  0  0  0
 10 16  1  0  0  0  0
 10 25  1  0  0  0  0
 11 19  1  0  0  0  0
 11 24  1  0  0  0  0
 12 28  3  0  0  0  0
 13 17  1  0  0  0  0
 13 18  1  0  0  0  0
 13 20  1  1  0  0  0
 14 15  2  0  0  0  0
 14 21  1  0  0  0  0
 15 16  1  0  0  0  0
 15 19  1  0  0  0  0
 17 22  1  0  0  0  0
 17 26  1  1  0  0  0
 18 23  1  0  0  0  0
 20 28  1  0  0  0  0
 21 24  2  0  0  0  0
 25 29  2  0  0  0  0
 25 30  1  0  0  0  0
 29 32  1  0  0  0  0
 30 33  2  0  0  0  0
 31 32  2  0  0  0  0
 31 33  1  0  0  0  0
 34 36  1  0  0  0  0
 34 37  1  0  0  0  0
 34 38  1  0  0  0  0
M  END
> <PUBCHEM_COMPOUND_ID_TYPE>
0

> <PUBCHEM_TOTAL_CHARGE>
0

> <PUBCHEM_SUBSTANCE_ID>
310940185

> <PUBCHEM_SUBSTANCE_VERSION>
1

> <PUBCHEM_EXT_DATASOURCE_NAME>
4488

> <PUBCHEM_EXT_DATASOURCE_REGID>
SCHEMBL16118119

> <PUBCHEM_SUBSTANCE_COMMENT>
InChI=1S/C26H32N6O5S/c1-17-16-31(24(34)37-25(2,3)4)15-12-26(17,11-13-27)32-20-10-14-28-23(33)21(20)22(30-32)29-18-6-8-19(9-7-18)38(5,35)36/h6-10,14,17H,11-12,15-16H2,1-5H3,(H,28,33)(H,29,30)/t17-,26-/m0/s1
InChIKey=SVSICBNDPXKYPD-QLXKLKPCSA-N

> <PUBCHEM_SUBSTANCE_SYNONYM>
SCHEMBL16118119

> <PUBCHEM_XREF_EXT_ID>
SCHEMBL16118119

> <PUBCHEM_EXT_DATASOURCE_URL>
https://www.surechembl.org/

> <PUBCHEM_EXT_SUBSTANCE_URL>
https://www.surechembl.org/chemical/SCHEMBL16118119

> <PUBCHEM_CID_ASSOCIATIONS>
117607293  1

> <PUBCHEM_COORDINATE_TYPE>
1
3

> <PUBCHEM_BONDANNOTATIONS>
13  20  5
17  26  5

$$$$
