310940703
  -OEChem-07211613022D

 27 29  0     0  0  0  0  0  0999 V2000
   -4.0198   -0.9424    0.0000 F   0  0  0  0  0  0  0  0  0  0  0  0
    1.3546    1.8994    0.0000 O   0  0  0  0  0  0  0  0  0  0  0  0
    0.6773    0.4712    0.0000 N   0  0  0  0  0  0  0  0  0  0  0  0
    2.0172    0.4712    0.0000 N   0  0  0  0  0  0  0  0  0  0  0  0
    2.6945   -1.8847    0.0000 N   0  0  0  0  0  0  0  0  0  0  0  0
    1.3399    0.9129    0.0000 C   0  0  0  0  0  0  0  0  0  0  0  0
    0.6773   -0.4712    0.0000 C   0  0  0  0  0  0  0  0  0  0  0  0
    1.3546   -0.9424    0.0000 C   0  0  0  0  0  0  0  0  0  0  0  0
    0.0147    0.9424    0.0000 C   0  0  0  0  0  0  0  0  0  0  0  0
    2.6945    0.9571    0.0000 C   0  0  0  0  0  0  0  0  0  0  0  0
   -2.0024    0.4859    0.0000 C   0  0  0  0  0  0  0  0  0  0  0  0
   -0.6625    0.4712    0.0000 C   0  0  0  0  0  0  0  0  0  0  0  0
    1.3546   -1.8994    0.0000 C   0  0  0  0  0  0  0  0  0  0  0  0
    2.0319   -0.4712    0.0000 C   0  0  0  0  0  0  0  0  0  0  0  0
   -1.3252    0.9424    0.0000 C   0  0  0  0  0  0  0  0  0  0  0  0
    2.6945    1.8994    0.0000 C   0  0  0  0  0  0  0  0  0  0  0  0
    3.3719    0.4859    0.0000 C   0  0  0  0  0  0  0  0  0  0  0  0
   -2.6798    0.9424    0.0000 C   0  0  0  0  0  0  0  0  0  0  0  0
   -2.0172   -0.4712    0.0000 C   0  0  0  0  0  0  0  0  0  0  0  0
   -3.3572   -0.4859    0.0000 C   0  0  0  0  0  0  0  0  0  0  0  0
    2.0466   -2.3559    0.0000 C   0  0  0  0  0  0  0  0  0  0  0  0
    2.6945   -0.9424    0.0000 C   0  0  0  0  0  0  0  0  0  0  0  0
   -3.3424    0.4712    0.0000 C   0  0  0  0  0  0  0  0  0  0  0  0
   -2.6651   -0.9424    0.0000 C   0  0  0  0  0  0  0  0  0  0  0  0
    3.3719    2.3559    0.0000 C   0  0  0  0  0  0  0  0  0  0  0  0
    4.0198    0.9424    0.0000 C   0  0  0  0  0  0  0  0  0  0  0  0
    4.0198    1.8994    0.0000 C   0  0  0  0  0  0  0  0  0  0  0  0
  1 20  1  0  0  0  0
  2  6  2  0  0  0  0
  3  6  1  0  0  0  0
  3  7  1  0  0  0  0
  3  9  1  0  0  0  0
  4  6  1  0  0  0  0
  4 10  1  0  0  0  0
  5 21  1  0  0  0  0
  5 22  1  0  0  0  0
  7  8  1  0  0  0  0
  8 13  1  0  0  0  0
  8 14  1  0  0  0  0
  9 12  1  0  0  0  0
 10 16  1  0  0  0  0
 10 17  1  0  0  0  0
 11 15  1  0  0  0  0
 11 18  2  0  0  0  0
 11 19  1  0  0  0  0
 12 15  2  0  0  0  0
 13 21  1  0  0  0  0
 14 22  1  0  0  0  0
 16 25  1  0  0  0  0
 17 26  1  0  0  0  0
 18 23  1  0  0  0  0
 19 24  2  0  0  0  0
 20 23  2  0  0  0  0
 20 24  1  0  0  0  0
 25 27  1  0  0  0  0
 26 27  1  0  0  0  0
M  END
> <PUBCHEM_COMPOUND_ID_TYPE>
0

> <PUBCHEM_TOTAL_CHARGE>
0

> <PUBCHEM_SUBSTANCE_ID>
310940703

> <PUBCHEM_SUBSTANCE_VERSION>
1

> <PUBCHEM_EXT_DATASOURCE_NAME>
4488

> <PUBCHEM_EXT_DATASOURCE_REGID>
SCHEMBL16118659

> <PUBCHEM_SUBSTANCE_COMMENT>
InChI=1S/C22H32FN3O/c23-20-10-8-18(9-11-20)5-4-16-26(17-19-12-14-24-15-13-19)22(27)25-21-6-2-1-3-7-21/h4-5,8-11,19,21,24H,1-3,6-7,12-17H2,(H,25,27)/b5-4+
InChIKey=CPRBOVOTNVCLDU-SNAWJCMRSA-N

> <PUBCHEM_SUBSTANCE_SYNONYM>
SCHEMBL16118659

> <PUBCHEM_XREF_EXT_ID>
SCHEMBL16118659

> <PUBCHEM_EXT_DATASOURCE_URL>
https://www.surechembl.org/

> <PUBCHEM_EXT_SUBSTANCE_URL>
https://www.surechembl.org/chemical/SCHEMBL16118659

> <PUBCHEM_CID_ASSOCIATIONS>
86300359  1

> <PUBCHEM_COORDINATE_TYPE>
1
3

$$$$
