310936468
  -OEChem-07211613022D

 21 22  0     0  0  0  0  0  0999 V2000
    0.0000   -1.3750    0.0000 Cl  0  0  0  0  0  0  0  0  0  0  0  0
    4.9709    0.0000    0.0000 F   0  0  0  0  0  0  0  0  0  0  0  0
    3.7229   -0.6769    0.0000 F   0  0  0  0  0  0  0  0  0  0  0  0
    2.4326   -4.2306    0.0000 O   0  0  0  0  0  0  0  0  0  0  0  0
    4.9286   -1.4172    0.0000 O   0  0  0  0  0  0  0  0  0  0  0  0
    1.2057   -3.5114    0.0000 N   0  0  0  0  0  0  0  0  0  0  0  0
    4.9075   -2.8133    0.0000 N   0  0  0  0  0  0  0  0  0  0  0  0
    2.4537   -2.8133    0.0000 C   0  0  0  0  0  0  0  0  0  0  0  0
    3.2787   -2.8133    0.0000 C   0  0  0  0  0  0  0  0  0  0  0  0
    2.0095   -3.5114    0.0000 C   0  0  0  0  0  0  0  0  0  0  0  0
    2.0095   -2.0941    0.0000 C   0  0  0  0  0  0  0  0  0  0  0  0
    3.6806   -2.0730    0.0000 C   0  0  0  0  0  0  0  0  0  0  0  0
    4.5056   -2.1153    0.0000 C   0  0  0  0  0  0  0  0  0  0  0  0
    1.2057   -2.0941    0.0000 C   0  0  0  0  0  0  0  0  0  0  0  0
    3.6806   -3.5114    0.0000 C   0  0  0  0  0  0  0  0  0  0  0  0
    0.7826   -2.8133    0.0000 C   0  0  0  0  0  0  0  0  0  0  0  0
    4.5056   -3.5325    0.0000 C   0  0  0  0  0  0  0  0  0  0  0  0
    0.8038   -1.3961    0.0000 C   0  0  0  0  0  0  0  0  0  0  0  0
    4.5478   -0.6981    0.0000 C   0  0  0  0  0  0  0  0  0  0  0  0
    3.2363   -4.2306    0.0000 C   0  0  0  0  0  0  0  0  0  0  0  0
    3.8287   -3.6806    0.0000 C   0  0  0  0  0  0  0  0  0  0  0  0
  1 18  1  0  0  0  0
  2 19  1  0  0  0  0
  3 19  1  0  0  0  0
  4 10  1  0  0  0  0
  4 20  1  0  0  0  0
  5 13  1  0  0  0  0
  5 19  1  0  0  0  0
  6 10  1  0  0  0  0
  6 16  2  0  0  0  0
  7 13  1  0  0  0  0
  7 17  2  0  0  0  0
  8  9  1  0  0  0  0
  8 10  2  0  0  0  0
  8 11  1  0  0  0  0
  9 12  1  0  0  0  0
  9 15  2  0  0  0  0
 11 14  2  0  0  0  0
 12 13  2  0  0  0  0
 14 16  1  0  0  0  0
 14 18  1  0  0  0  0
 15 17  1  0  0  0  0
 20 21  1  0  0  0  0
M  END
> <PUBCHEM_COMPOUND_ID_TYPE>
0

> <PUBCHEM_TOTAL_CHARGE>
0

> <PUBCHEM_SUBSTANCE_ID>
310936468

> <PUBCHEM_SUBSTANCE_VERSION>
1

> <PUBCHEM_EXT_DATASOURCE_NAME>
4488

> <PUBCHEM_EXT_DATASOURCE_REGID>
SCHEMBL16114112

> <PUBCHEM_SUBSTANCE_COMMENT>
InChI=1S/C14H13ClF2N2O2/c1-2-20-13-11(5-9(7-15)8-19-13)10-3-4-18-12(6-10)21-14(16)17/h3-6,8,14H,2,7H2,1H3
InChIKey=ZPQHQZXXLUOPIW-UHFFFAOYSA-N

> <PUBCHEM_SUBSTANCE_SYNONYM>
SCHEMBL16114112

> <PUBCHEM_XREF_EXT_ID>
SCHEMBL16114112

> <PUBCHEM_EXT_DATASOURCE_URL>
https://www.surechembl.org/

> <PUBCHEM_EXT_SUBSTANCE_URL>
https://www.surechembl.org/chemical/SCHEMBL16114112

> <PUBCHEM_CID_ASSOCIATIONS>
117604399  1

> <PUBCHEM_COORDINATE_TYPE>
1
3

$$$$
