310947528
  -OEChem-07211613022D

 22 24  0     1  0  0  0  0  0999 V2000
   -5.3162   -3.2983    0.0000 O   0  0  0  0  0  0  0  0  0  0  0  0
   -4.4912   -5.2823    0.0000 O   0  0  0  0  0  0  0  0  0  0  0  0
   -2.7372   -0.7513    0.0000 O   0  0  0  0  0  0  0  0  0  0  0  0
   -7.3639   -3.4134    0.0000 O   0  0  0  0  0  0  0  0  0  0  0  0
   -4.2363   -3.0687    0.0000 N   0  0  0  0  0  0  0  0  0  0  0  0
   -4.2363   -1.7339    0.0000 N   0  0  0  0  0  0  0  0  0  0  0  0
   -2.7372   -3.2263    0.0000 N   0  0  0  0  0  0  0  0  0  0  0  0
   -2.0227   -1.9888    0.0000 N   0  0  0  0  0  0  0  0  0  0  0  0
   -1.3083   -3.2263    0.0000 N   0  0  0  0  0  0  0  0  0  0  0  0
   -4.9037   -4.5678    0.0000 C   0  0  3  0  0  0  0  0  0  0  0  0
   -4.6488   -3.7832    0.0000 C   0  0  3  0  0  0  0  0  0  0  0  0
   -5.7287   -4.5678    0.0000 C   0  0  0  0  0  0  0  0  0  0  0  0
   -5.9837   -3.7832    0.0000 C   0  0  3  0  0  0  0  0  0  0  0  0
   -3.4517   -2.8138    0.0000 C   0  0  0  0  0  0  0  0  0  0  0  0
   -3.4517   -1.9888    0.0000 C   0  0  0  0  0  0  0  0  0  0  0  0
   -4.7212   -2.4013    0.0000 C   0  0  0  0  0  0  0  0  0  0  0  0
   -4.1068   -4.3543    0.0000 C   0  0  0  0  0  0  0  0  0  0  0  0
   -2.7372   -1.5763    0.0000 C   0  0  0  0  0  0  0  0  0  0  0  0
   -6.1412   -5.2823    0.0000 C   0  0  0  0  0  0  0  0  0  0  0  0
   -6.4432   -4.1553    0.0000 C   0  0  0  0  0  0  0  0  0  0  0  0
   -6.5670   -3.1999    0.0000 C   0  0  0  0  0  0  0  0  0  0  0  0
   -2.0227   -2.8138    0.0000 C   0  0  0  0  0  0  0  0  0  0  0  0
 11  1  1  1  0  0  0
  1 13  1  0  0  0  0
 10  2  1  6  0  0  0
  3 18  1  0  0  0  0
  4 21  1  0  0  0  0
  5 11  1  0  0  0  0
  5 14  1  0  0  0  0
  5 16  1  0  0  0  0
  6 15  1  0  0  0  0
  6 16  2  0  0  0  0
  7 14  1  0  0  0  0
  7 22  2  0  0  0  0
  8 18  2  0  0  0  0
  8 22  1  0  0  0  0
  9 22  1  0  0  0  0
 10 11  1  0  0  0  0
 10 12  1  0  0  0  0
 10 17  1  1  0  0  0
 12 13  1  0  0  0  0
 12 19  1  0  0  0  0
 12 20  1  0  0  0  0
 13 21  1  1  0  0  0
 14 15  2  0  0  0  0
 15 18  1  0  0  0  0
M  END
> <PUBCHEM_COMPOUND_ID_TYPE>
0

> <PUBCHEM_TOTAL_CHARGE>
0

> <PUBCHEM_SUBSTANCE_ID>
310947528

> <PUBCHEM_SUBSTANCE_VERSION>
1

> <PUBCHEM_EXT_DATASOURCE_NAME>
4488

> <PUBCHEM_EXT_DATASOURCE_REGID>
SCHEMBL16125690

> <PUBCHEM_SUBSTANCE_COMMENT>
InChI=1S/C13H19N5O4/c1-12(2)6(4-19)22-10(13(12,3)21)18-5-15-7-8(18)16-11(14)17-9(7)20/h5-6,10,19,21H,4H2,1-3H3,(H3,14,16,17,20)/t6-,10-,13+/m1/s1
InChIKey=LGKWDUXKTRTIMR-RMCLDHHASA-N

> <PUBCHEM_SUBSTANCE_SYNONYM>
SCHEMBL16125690

> <PUBCHEM_XREF_EXT_ID>
SCHEMBL16125690

> <PUBCHEM_EXT_DATASOURCE_URL>
https://www.surechembl.org/

> <PUBCHEM_EXT_SUBSTANCE_URL>
https://www.surechembl.org/chemical/SCHEMBL16125690

> <PUBCHEM_CID_ASSOCIATIONS>
117613250  1

> <PUBCHEM_COORDINATE_TYPE>
1
3

> <PUBCHEM_BONDANNOTATIONS>
11  1  5
10  17  5
13  21  5
10  2  6

$$$$
