310940742
  -OEChem-07211613022D

 15 17  0     0  0  0  0  0  0999 V2000
    0.0500   -0.1187    0.0000 N   0  0  0  0  0  0  0  0  0  0  0  0
   -0.7500   -0.3688    0.0000 C   0  0  0  0  0  0  0  0  0  0  0  0
   -0.7625   -1.1938    0.0000 C   0  0  0  0  0  0  0  0  0  0  0  0
    0.5250   -0.7813    0.0000 C   0  0  0  0  0  0  0  0  0  0  0  0
    0.0375   -1.2938    0.0000 C   0  0  0  0  0  0  0  0  0  0  0  0
    0.2750    0.6938    0.0000 C   0  0  0  0  0  0  0  0  0  0  0  0
   -1.4751    0.0312    0.0000 C   0  0  0  0  0  0  0  0  0  0  0  0
    1.0626    0.9063    0.0000 C   0  0  0  0  0  0  0  0  0  0  0  0
   -1.4625   -1.6188    0.0000 C   0  0  0  0  0  0  0  0  0  0  0  0
   -2.1876   -0.3813    0.0000 C   0  0  0  0  0  0  0  0  0  0  0  0
   -2.1876   -1.2063    0.0000 C   0  0  0  0  0  0  0  0  0  0  0  0
    1.3626   -0.7813    0.0000 C   0  0  0  0  0  0  0  0  0  0  0  0
    1.4876    1.6188    0.0000 C   0  0  0  0  0  0  0  0  0  0  0  0
    1.7876    0.4938    0.0000 C   0  0  0  0  0  0  0  0  0  0  0  0
    2.1876    1.1938    0.0000 C   0  0  0  0  0  0  0  0  0  0  0  0
  1  2  1  0  0  0  0
  1  4  1  0  0  0  0
  1  6  1  0  0  0  0
  2  3  1  0  0  0  0
  2  7  2  0  0  0  0
  3  5  1  0  0  0  0
  3  9  2  0  0  0  0
  4  5  2  0  0  0  0
  4 12  1  0  0  0  0
  6  8  1  0  0  0  0
  7 10  1  0  0  0  0
  8 13  1  0  0  0  0
  8 14  1  0  0  0  0
  9 11  1  0  0  0  0
 10 11  2  0  0  0  0
 13 15  1  0  0  0  0
 14 15  1  0  0  0  0
M  END
> <PUBCHEM_COMPOUND_ID_TYPE>
0

> <PUBCHEM_TOTAL_CHARGE>
0

> <PUBCHEM_SUBSTANCE_ID>
310940742

> <PUBCHEM_SUBSTANCE_VERSION>
1

> <PUBCHEM_EXT_DATASOURCE_NAME>
4488

> <PUBCHEM_EXT_DATASOURCE_REGID>
SCHEMBL16118700

> <PUBCHEM_SUBSTANCE_COMMENT>
InChI=1S/C14H17N/c1-11-9-13-7-2-3-8-14(13)15(11)10-12-5-4-6-12/h2-3,7-9,12H,4-6,10H2,1H3
InChIKey=MPLZZLUNGWJDBY-UHFFFAOYSA-N

> <PUBCHEM_SUBSTANCE_SYNONYM>
SCHEMBL16118700

> <PUBCHEM_XREF_EXT_ID>
SCHEMBL16118700

> <PUBCHEM_EXT_DATASOURCE_URL>
https://www.surechembl.org/

> <PUBCHEM_EXT_SUBSTANCE_URL>
https://www.surechembl.org/chemical/SCHEMBL16118700

> <PUBCHEM_CID_ASSOCIATIONS>
65462261  1

> <PUBCHEM_COORDINATE_TYPE>
1
3

$$$$
