310931691
  -OEChem-07211613022D

 12 11  0     0  0  0  0  0  0999 V2000
    1.6271   -0.7152    0.0000 O   0  0  0  0  0  0  0  0  0  0  0  0
    3.2900   -2.1456    0.0000 O   0  0  0  0  0  0  0  0  0  0  0  0
    1.2338   -2.8609    0.0000 N   0  3  0  0  0  0  0  0  0  0  0  0
    1.6450   -2.1456    0.0000 C   0  0  0  0  0  0  0  0  0  0  0  0
    2.0562   -2.8609    0.0000 C   0  0  0  0  0  0  0  0  0  0  0  0
    0.4113   -2.8609    0.0000 C   0  0  0  0  0  0  0  0  0  0  0  0
    1.6450   -3.5761    0.0000 C   0  0  0  0  0  0  0  0  0  0  0  0
    1.2159   -1.4304    0.0000 C   0  0  0  0  0  0  0  0  0  0  0  0
    2.4675   -2.1456    0.0000 C   0  0  0  0  0  0  0  0  0  0  0  0
    0.0000   -3.5761    0.0000 C   0  0  0  0  0  0  0  0  0  0  0  0
    1.2159    0.0000    0.0000 C   0  0  0  0  0  0  0  0  0  0  0  0
    3.7012   -1.4304    0.0000 C   0  0  0  0  0  0  0  0  0  0  0  0
  1  8  1  0  0  0  0
  1 11  1  0  0  0  0
  2  9  1  0  0  0  0
  2 12  1  0  0  0  0
  3  4  1  0  0  0  0
  3  5  1  0  0  0  0
  3  6  1  0  0  0  0
  3  7  1  0  0  0  0
  4  8  1  0  0  0  0
  5  9  1  0  0  0  0
  6 10  1  0  0  0  0
M  CHG  1   3   1
M  END
> <PUBCHEM_COMPOUND_ID_TYPE>
0

> <PUBCHEM_TOTAL_CHARGE>
1

> <PUBCHEM_SUBSTANCE_ID>
310931691

> <PUBCHEM_SUBSTANCE_VERSION>
1

> <PUBCHEM_EXT_DATASOURCE_NAME>
4488

> <PUBCHEM_EXT_DATASOURCE_REGID>
SCHEMBL16109018

> <PUBCHEM_SUBSTANCE_COMMENT>
InChI=1S/C9H22NO2/c1-5-10(2,6-8-11-3)7-9-12-4/h5-9H2,1-4H3/q+1
InChIKey=GGGBLXQJLXVLFX-UHFFFAOYSA-N

> <PUBCHEM_SUBSTANCE_SYNONYM>
SCHEMBL16109018

> <PUBCHEM_XREF_EXT_ID>
SCHEMBL16109018

> <PUBCHEM_EXT_DATASOURCE_URL>
https://www.surechembl.org/

> <PUBCHEM_EXT_SUBSTANCE_URL>
https://www.surechembl.org/chemical/SCHEMBL16109018

> <PUBCHEM_CID_ASSOCIATIONS>
102502069  1

> <PUBCHEM_COORDINATE_TYPE>
1
3

$$$$
