310933943
  -OEChem-07211613022D

 24 25  0     0  0  0  0  0  0999 V2000
    3.5751   -2.4973    0.0000 O   0  0  0  0  0  0  0  0  0  0  0  0
    5.0209   -2.4973    0.0000 O   0  0  0  0  0  0  0  0  0  0  0  0
    0.7098   -0.8412    0.0000 O   0  0  0  0  0  0  0  0  0  0  0  0
    7.8862   -0.8412    0.0000 O   0  0  0  0  0  0  0  0  0  0  0  0
    4.2848   -1.2355    0.0000 O   0  0  0  0  0  0  0  0  0  0  0  0
    3.5751    0.0000    0.0000 O   0  0  0  0  0  0  0  0  0  0  0  0
    7.1501   -3.7328    0.0000 O   0  0  0  0  0  0  0  0  0  0  0  0
    2.8653   -2.0767    0.0000 C   0  0  0  0  0  0  0  0  0  0  0  0
    5.7306   -2.0767    0.0000 C   0  0  0  0  0  0  0  0  0  0  0  0
    2.8653   -1.2355    0.0000 C   0  0  0  0  0  0  0  0  0  0  0  0
    6.4404   -2.4710    0.0000 C   0  0  0  0  0  0  0  0  0  0  0  0
    4.2848   -2.0767    0.0000 C   0  0  0  0  0  0  0  0  0  0  0  0
    1.4195   -1.2355    0.0000 C   0  0  0  0  0  0  0  0  0  0  0  0
    7.1501   -1.2355    0.0000 C   0  0  0  0  0  0  0  0  0  0  0  0
    2.1556   -0.8412    0.0000 C   0  0  0  0  0  0  0  0  0  0  0  0
    7.1501   -2.0767    0.0000 C   0  0  0  0  0  0  0  0  0  0  0  0
    2.1293   -2.4973    0.0000 C   0  0  0  0  0  0  0  0  0  0  0  0
    5.7306   -1.2355    0.0000 C   0  0  0  0  0  0  0  0  0  0  0  0
    1.4195   -2.0767    0.0000 C   0  0  0  0  0  0  0  0  0  0  0  0
    6.4404   -0.8149    0.0000 C   0  0  0  0  0  0  0  0  0  0  0  0
    3.5751   -0.8149    0.0000 C   0  0  0  0  0  0  0  0  0  0  0  0
    6.4404   -3.3122    0.0000 C   0  0  0  0  0  0  0  0  0  0  0  0
    0.0000   -1.2355    0.0000 C   0  0  0  0  0  0  0  0  0  0  0  0
    7.8862    0.0000    0.0000 C   0  0  0  0  0  0  0  0  0  0  0  0
  1  8  1  0  0  0  0
  1 12  1  0  0  0  0
  2  9  1  0  0  0  0
  2 12  1  0  0  0  0
  3 13  1  0  0  0  0
  3 23  1  0  0  0  0
  4 14  1  0  0  0  0
  4 24  1  0  0  0  0
  5 12  2  0  0  0  0
  6 21  1  0  0  0  0
  7 22  1  0  0  0  0
  8 10  1  0  0  0  0
  8 17  2  0  0  0  0
  9 11  1  0  0  0  0
  9 18  2  0  0  0  0
 10 15  2  0  0  0  0
 10 21  1  0  0  0  0
 11 16  2  0  0  0  0
 11 22  1  0  0  0  0
 13 15  1  0  0  0  0
 13 19  2  0  0  0  0
 14 16  1  0  0  0  0
 14 20  2  0  0  0  0
 17 19  1  0  0  0  0
 18 20  1  0  0  0  0
M  END
> <PUBCHEM_COMPOUND_ID_TYPE>
0

> <PUBCHEM_TOTAL_CHARGE>
0

> <PUBCHEM_SUBSTANCE_ID>
310933943

> <PUBCHEM_SUBSTANCE_VERSION>
1

> <PUBCHEM_EXT_DATASOURCE_NAME>
4488

> <PUBCHEM_EXT_DATASOURCE_REGID>
SCHEMBL16111382

> <PUBCHEM_SUBSTANCE_COMMENT>
InChI=1S/C17H18O7/c1-21-13-3-5-15(11(7-13)9-18)23-17(20)24-16-6-4-14(22-2)8-12(16)10-19/h3-8,18-19H,9-10H2,1-2H3
InChIKey=UUBASEKHVFJFOT-UHFFFAOYSA-N

> <PUBCHEM_SUBSTANCE_SYNONYM>
SCHEMBL16111382

> <PUBCHEM_XREF_EXT_ID>
SCHEMBL16111382

> <PUBCHEM_EXT_DATASOURCE_URL>
https://www.surechembl.org/

> <PUBCHEM_EXT_SUBSTANCE_URL>
https://www.surechembl.org/chemical/SCHEMBL16111382

> <PUBCHEM_CID_ASSOCIATIONS>
117602263  1

> <PUBCHEM_COORDINATE_TYPE>
1
3

$$$$
