310934509
  -OEChem-07211613022D

 28 27  0     1  0  0  0  0  0999 V2000
    2.1435    0.4125    0.0000 O   0  0  0  0  0  0  0  0  0  0  0  0
   -2.8579    0.0000    0.0000 O   0  0  0  0  0  0  0  0  0  0  0  0
   -0.7145   -1.2375    0.0000 O   0  0  0  0  0  0  0  0  0  0  0  0
    0.7145   -1.2375    0.0000 O   0  0  0  0  0  0  0  0  0  0  0  0
    2.1435   -1.2375    0.0000 O   0  0  0  0  0  0  0  0  0  0  0  0
    3.5724   -1.2375    0.0000 O   0  0  0  0  0  0  0  0  0  0  0  0
   -2.8579    1.6500    0.0000 O   0  0  0  0  0  0  0  0  0  0  0  0
   -4.2869    1.6500    0.0000 O   0  0  0  0  0  0  0  0  0  0  0  0
    4.2869   -0.8250    0.0000 O   0  0  0  0  0  0  0  0  0  0  0  0
    5.0014    0.4125    0.0000 O   0  0  0  0  0  0  0  0  0  0  0  0
   -5.0014    1.2375    0.0000 O   0  0  0  0  0  0  0  0  0  0  0  0
   -5.7159    0.0000    0.0000 O   0  0  0  0  0  0  0  0  0  0  0  0
   -0.7145    0.4125    0.0000 N   0  0  3  0  0  0  0  0  0  0  0  0
    0.0000    0.0000    0.0000 C   0  0  3  0  0  0  0  0  0  0  0  0
    2.8579    0.0000    0.0000 C   0  0  3  0  0  0  0  0  0  0  0  0
    0.0000   -0.8250    0.0000 C   0  0  0  0  0  0  0  0  0  0  0  0
   -3.5724    0.4125    0.0000 C   0  0  3  0  0  0  0  0  0  0  0  0
    0.7145    0.4125    0.0000 C   0  0  0  0  0  0  0  0  0  0  0  0
   -1.4290    0.0000    0.0000 C   0  0  0  0  0  0  0  0  0  0  0  0
    1.4290    0.0000    0.0000 C   0  0  0  0  0  0  0  0  0  0  0  0
    2.8579   -0.8250    0.0000 C   0  0  0  0  0  0  0  0  0  0  0  0
   -3.5724    1.2375    0.0000 C   0  0  0  0  0  0  0  0  0  0  0  0
   -2.1435    0.4125    0.0000 C   0  0  0  0  0  0  0  0  0  0  0  0
    3.5724    0.4125    0.0000 C   0  0  0  0  0  0  0  0  0  0  0  0
   -4.2869    0.0000    0.0000 C   0  0  0  0  0  0  0  0  0  0  0  0
   -0.7145    1.2375    0.0000 C   0  0  0  0  0  0  0  0  0  0  0  0
    4.2869    0.0000    0.0000 C   0  0  0  0  0  0  0  0  0  0  0  0
   -5.0014    0.4125    0.0000 C   0  0  0  0  0  0  0  0  0  0  0  0
  1 15  1  0  0  0  0
  1 20  1  0  0  0  0
  2 17  1  0  0  0  0
  2 23  1  0  0  0  0
  3 16  2  0  0  0  0
  4 16  1  0  0  0  0
  5 21  2  0  0  0  0
  6 21  1  0  0  0  0
  7 22  2  0  0  0  0
  8 22  1  0  0  0  0
  9 27  2  0  0  0  0
 10 27  1  0  0  0  0
 11 28  2  0  0  0  0
 12 28  1  0  0  0  0
 14 13  1  1  0  0  0
 13 19  1  0  0  0  0
 13 26  1  0  0  0  0
 14 16  1  0  0  0  0
 14 18  1  0  0  0  0
 15 21  1  0  0  0  0
 15 24  1  0  0  0  0
 17 22  1  0  0  0  0
 17 25  1  0  0  0  0
 18 20  1  0  0  0  0
 19 23  1  0  0  0  0
 24 27  1  0  0  0  0
 25 28  1  0  0  0  0
M  END
> <PUBCHEM_COMPOUND_ID_TYPE>
0

> <PUBCHEM_TOTAL_CHARGE>
0

> <PUBCHEM_SUBSTANCE_ID>
310934509

> <PUBCHEM_SUBSTANCE_VERSION>
1

> <PUBCHEM_EXT_DATASOURCE_NAME>
4488

> <PUBCHEM_EXT_DATASOURCE_REGID>
SCHEMBL16111994

> <PUBCHEM_SUBSTANCE_COMMENT>
InChI=1S/C15H23NO12/c1-16(3-5-28-10(15(25)26)7-12(19)20)8(13(21)22)2-4-27-9(14(23)24)6-11(17)18/h8-10H,2-7H2,1H3,(H,17,18)(H,19,20)(H,21,22)(H,23,24)(H,25,26)/t8-,9?,10?/m0/s1
InChIKey=RHESJQMYWJTWNW-IDKOKCKLSA-N

> <PUBCHEM_SUBSTANCE_SYNONYM>
SCHEMBL16111994

> <PUBCHEM_XREF_EXT_ID>
SCHEMBL16111994

> <PUBCHEM_EXT_DATASOURCE_URL>
https://www.surechembl.org/

> <PUBCHEM_EXT_SUBSTANCE_URL>
https://www.surechembl.org/chemical/SCHEMBL16111994

> <PUBCHEM_CID_ASSOCIATIONS>
117602707  1

> <PUBCHEM_COORDINATE_TYPE>
1
3

> <PUBCHEM_BONDANNOTATIONS>
14  13  5

$$$$
