310929376
  -OEChem-07211613022D

 47 52  0     1  0  0  0  0  0999 V2000
    5.3624   -2.4749    0.0000 O   0  0  0  0  0  0  0  0  0  0  0  0
    6.3936   -5.3212    0.0000 O   0  0  0  0  0  0  0  0  0  0  0  0
    0.9075   -4.5374    0.0000 O   0  0  0  0  0  0  0  0  0  0  0  0
    1.4849   -0.9900    0.0000 O   0  0  0  0  0  0  0  0  0  0  0  0
    4.2487   -0.1650    0.0000 O   0  0  0  0  0  0  0  0  0  0  0  0
    2.8462    0.0000    0.0000 O   0  0  0  0  0  0  0  0  0  0  0  0
    0.0000   -3.6712    0.0000 O   0  0  0  0  0  0  0  0  0  0  0  0
    3.6299   -7.8786    0.0000 O   0  0  0  0  0  0  0  0  0  0  0  0
    2.6812   -1.2787    0.0000 N   0  0  0  0  0  0  0  0  0  0  0  0
    6.3524   -2.8462    0.0000 N   0  0  0  0  0  0  0  0  0  0  0  0
    0.9075   -2.8462    0.0000 N   0  0  0  0  0  0  0  0  0  0  0  0
    5.0324   -7.0123    0.0000 N   0  0  0  0  0  0  0  0  0  0  0  0
    5.6511   -3.2999    0.0000 C   0  0  0  0  0  0  0  0  0  0  0  0
    5.6511   -4.0424    0.0000 C   0  0  0  0  0  0  0  0  0  0  0  0
    3.4237   -1.2787    0.0000 C   0  0  3  0  0  0  0  0  0  0  0  0
    6.3524   -4.5374    0.0000 C   0  0  0  0  0  0  0  0  0  0  0  0
    4.9087   -1.8562    0.0000 C   0  0  3  0  0  0  0  0  0  0  0  0
    7.0123   -4.0424    0.0000 C   0  0  0  0  0  0  0  0  0  0  0  0
    1.9387   -1.6499    0.0000 C   0  0  0  0  0  0  0  0  0  0  0  0
    7.0123   -3.2999    0.0000 C   0  0  0  0  0  0  0  0  0  0  0  0
    1.3200   -2.2274    0.0000 C   0  0  3  0  0  0  0  0  0  0  0  0
    3.9599   -0.9075    0.0000 C   0  0  0  0  0  0  0  0  0  0  0  0
    4.2487   -1.4849    0.0000 C   0  0  0  0  0  0  0  0  0  0  0  0
    0.6600   -1.6912    0.0000 C   0  0  0  0  0  0  0  0  0  0  0  0
    3.5062   -0.4950    0.0000 C   0  0  0  0  0  0  0  0  0  0  0  0
    5.3624   -4.8674    0.0000 C   0  0  0  0  0  0  0  0  0  0  0  0
    7.7548   -4.5374    0.0000 C   0  0  0  0  0  0  0  0  0  0  0  0
    1.3200   -5.1562    0.0000 C   0  0  3  0  0  0  0  0  0  0  0  0
    7.7548   -2.8462    0.0000 C   0  0  0  0  0  0  0  0  0  0  0  0
    1.9387   -5.6924    0.0000 C   0  0  3  0  0  0  0  0  0  0  0  0
    0.8250   -3.6712    0.0000 C   0  0  0  0  0  0  0  0  0  0  0  0
    1.1137   -5.9811    0.0000 C   0  0  0  0  0  0  0  0  0  0  0  0
    8.4973   -4.0424    0.0000 C   0  0  0  0  0  0  0  0  0  0  0  0
    8.4973   -3.2999    0.0000 C   0  0  0  0  0  0  0  0  0  0  0  0
    4.9087   -5.5274    0.0000 C   0  0  0  0  0  0  0  0  0  0  0  0
    2.6812   -6.0636    0.0000 C   0  0  0  0  0  0  0  0  0  0  0  0
    1.1962   -1.0725    0.0000 C   0  0  0  0  0  0  0  0  0  0  0  0
    0.0412   -1.1962    0.0000 C   0  0  0  0  0  0  0  0  0  0  0  0
    0.1650   -2.3099    0.0000 C   0  0  0  0  0  0  0  0  0  0  0  0
    5.6924   -5.7336    0.0000 C   0  0  0  0  0  0  0  0  0  0  0  0
    4.2487   -5.8986    0.0000 C   0  0  0  0  0  0  0  0  0  0  0  0
    3.4237   -6.0636    0.0000 C   0  0  0  0  0  0  0  0  0  0  0  0
    5.7336   -6.5586    0.0000 C   0  0  0  0  0  0  0  0  0  0  0  0
    5.0737   -7.8373    0.0000 C   0  0  0  0  0  0  0  0  0  0  0  0
    4.3312   -6.6411    0.0000 C   0  0  0  0  0  0  0  0  0  0  0  0
    3.6299   -7.0536    0.0000 C   0  0  0  0  0  0  0  0  0  0  0  0
    4.3724   -8.2498    0.0000 C   0  0  0  0  0  0  0  0  0  0  0  0
  1 13  1  0  0  0  0
  1 17  1  0  0  0  0
  2 16  1  0  0  0  0
  2 40  1  0  0  0  0
  3 28  1  0  0  0  0
  3 31  1  0  0  0  0
  4 19  2  0  0  0  0
  5 25  2  0  0  0  0
  6 25  1  0  0  0  0
  7 31  2  0  0  0  0
  8 46  1  0  0  0  0
  8 47  1  0  0  0  0
  9 15  1  0  0  0  0
  9 19  1  0  0  0  0
  9 22  1  0  0  0  0
 10 13  1  0  0  0  0
 10 20  2  0  0  0  0
 11 21  1  0  0  0  0
 11 31  1  0  0  0  0
 12 43  1  0  0  0  0
 12 44  1  0  0  0  0
 12 45  1  0  0  0  0
 13 14  2  0  0  0  0
 14 16  1  0  0  0  0
 14 26  1  0  0  0  0
 15 23  1  0  0  0  0
 15 25  1  6  0  0  0
 16 18  2  0  0  0  0
 17 22  1  0  0  0  0
 17 23  1  1  0  0  0
 18 20  1  0  0  0  0
 18 27  1  0  0  0  0
 19 21  1  0  0  0  0
 20 29  1  0  0  0  0
 21 24  1  1  0  0  0
 24 37  1  0  0  0  0
 24 38  1  0  0  0  0
 24 39  1  0  0  0  0
 26 35  1  0  0  0  0
 27 33  2  0  0  0  0
 28 30  1  0  0  0  0
 28 32  1  1  0  0  0
 29 34  2  0  0  0  0
 30 32  1  6  0  0  0
 30 36  1  0  0  0  0
 33 34  1  0  0  0  0
 35 41  1  0  0  0  0
 36 42  1  0  0  0  0
 40 43  1  0  0  0  0
 41 42  1  0  0  0  0
 44 47  1  0  0  0  0
 45 46  1  0  0  0  0
M  END
> <PUBCHEM_COMPOUND_ID_TYPE>
0

> <PUBCHEM_TOTAL_CHARGE>
0

> <PUBCHEM_SUBSTANCE_ID>
310929376

> <PUBCHEM_SUBSTANCE_VERSION>
1

> <PUBCHEM_EXT_DATASOURCE_NAME>
4488

> <PUBCHEM_EXT_DATASOURCE_REGID>
SCHEMBL16106549

> <PUBCHEM_SUBSTANCE_COMMENT>
InChI=1S/C35H48N4O8/c1-35(2,3)30-32(40)39-21-23(20-27(39)33(41)42)46-31-25(11-6-4-5-9-22-19-28(22)47-34(43)37-30)29(24-10-7-8-12-26(24)36-31)45-18-15-38-13-16-44-17-14-38/h7-8,10,12,22-23,27-28,30H,4-6,9,11,13-21H2,1-3H3,(H,37,43)(H,41,42)/t22-,23-,27+,28-,30-/m1/s1
InChIKey=RIVPABNUYJCBTP-YCNCWQCXSA-N

> <PUBCHEM_SUBSTANCE_SYNONYM>
SCHEMBL16106549

> <PUBCHEM_XREF_EXT_ID>
SCHEMBL16106549

> <PUBCHEM_EXT_DATASOURCE_URL>
https://www.surechembl.org/

> <PUBCHEM_EXT_SUBSTANCE_URL>
https://www.surechembl.org/chemical/SCHEMBL16106549

> <PUBCHEM_CID_ASSOCIATIONS>
117598750  1

> <PUBCHEM_COORDINATE_TYPE>
1
3

> <PUBCHEM_BONDANNOTATIONS>
15  25  6
17  23  5
21  24  5
28  32  5
30  32  6

$$$$
