310949986
  -OEChem-07211613022D

 26 25  0     1  0  0  0  0  0999 V2000
    2.4744    1.5244    0.0000 O   0  0  0  0  0  0  0  0  0  0  0  0
    0.9608   -0.1503    0.0000 O   0  0  0  0  0  0  0  0  0  0  0  0
   -0.2738    2.1578    0.0000 O   0  0  0  0  0  0  0  0  0  0  0  0
    0.3489    3.2313    0.0000 O   0  0  0  0  0  0  0  0  0  0  0  0
   -2.4530    1.8250    0.0000 O   0  0  0  0  0  0  0  0  0  0  0  0
    0.8105    1.1916    0.0000 N   0  0  0  0  0  0  0  0  0  0  0  0
    1.1003    2.1685    0.0000 N   0  0  0  0  0  0  0  0  0  0  0  0
    0.2415    1.1916    0.0000 N   0  0  0  0  0  0  0  0  0  0  0  0
    0.5959   -1.8895    0.0000 N   0  0  0  0  0  0  0  0  0  0  0  0
   -2.4744    0.5260    0.0000 N   0  0  0  0  0  0  0  0  0  0  0  0
   -0.4884   -2.8233    0.0000 N   0  0  0  0  0  0  0  0  0  0  0  0
    0.8105   -3.2314    0.0000 N   0  0  0  0  0  0  0  0  0  0  0  0
    1.3902    0.5797    0.0000 C   0  0  3  0  0  0  0  0  0  0  0  0
    2.2169    0.7729    0.0000 C   0  0  0  0  0  0  0  0  0  0  0  0
    0.2415   -0.1610    0.0000 C   0  0  0  0  0  0  0  0  0  0  0  0
   -0.1556    0.5045    0.0000 C   0  0  3  0  0  0  0  0  0  0  0  0
    1.1111   -0.2684    0.0000 C   0  0  0  0  0  0  0  0  0  0  0  0
    0.3596    2.5121    0.0000 C   0  0  0  0  0  0  0  0  0  0  0  0
   -0.9179    0.4938    0.0000 C   0  0  0  0  0  0  0  0  0  0  0  0
    0.2845   -0.3757    0.0000 C   0  0  0  0  0  0  0  0  0  0  0  0
   -1.3151    1.2023    0.0000 C   0  0  0  0  0  0  0  0  0  0  0  0
    0.0161   -1.2560    0.0000 C   0  0  0  0  0  0  0  0  0  0  0  0
   -2.0773    1.1916    0.0000 C   0  0  0  0  0  0  0  0  0  0  0  0
   -1.0038    2.6087    0.0000 C   0  0  0  0  0  0  0  0  0  0  0  0
    0.3274   -2.6408    0.0000 C   0  0  0  0  0  0  0  0  0  0  0  0
   -1.7551    2.1793    0.0000 C   0  0  0  0  0  0  0  0  0  0  0  0
  1 14  2  0  0  0  0
  2 15  2  0  0  0  0
  3 18  1  0  0  0  0
  3 24  1  0  0  0  0
  4 18  2  0  0  0  0
  5 23  2  0  0  0  0
 13  6  1  6  0  0  0
  6 15  1  0  0  0  0
  7 14  1  0  0  0  0
  7 18  1  0  0  0  0
 16  8  1  6  0  0  0
  9 22  1  0  0  0  0
  9 25  1  0  0  0  0
 10 23  1  0  0  0  0
 11 25  1  0  0  0  0
 12 25  1  0  0  0  0
 13 14  1  0  0  0  0
 13 17  1  0  0  0  0
 15 16  1  0  0  0  0
 16 19  1  0  0  0  0
 17 20  1  0  0  0  0
 19 21  1  0  0  0  0
 20 22  1  0  0  0  0
 21 23  1  0  0  0  0
 24 26  1  0  0  0  0
M  END
> <PUBCHEM_COMPOUND_ID_TYPE>
0

> <PUBCHEM_TOTAL_CHARGE>
0

> <PUBCHEM_SUBSTANCE_ID>
310949986

> <PUBCHEM_SUBSTANCE_VERSION>
1

> <PUBCHEM_EXT_DATASOURCE_NAME>
4488

> <PUBCHEM_EXT_DATASOURCE_REGID>
SCHEMBL16128215

> <PUBCHEM_SUBSTANCE_COMMENT>
InChI=1S/C14H29N7O5/c1-2-26-14(25)21-12(24)9(4-3-7-19-13(17)18)20-11(23)8(15)5-6-10(16)22/h8-9,13,19H,2-7,15,17-18H2,1H3,(H2,16,22)(H,20,23)(H,21,24,25)/t8-,9-/m0/s1
InChIKey=RLIFZXTZJPHWAC-IUCAKERBSA-N

> <PUBCHEM_SUBSTANCE_SYNONYM>
SCHEMBL16128215

> <PUBCHEM_XREF_EXT_ID>
SCHEMBL16128215

> <PUBCHEM_EXT_DATASOURCE_URL>
https://www.surechembl.org/

> <PUBCHEM_EXT_SUBSTANCE_URL>
https://www.surechembl.org/chemical/SCHEMBL16128215

> <PUBCHEM_CID_ASSOCIATIONS>
117615226  1

> <PUBCHEM_COORDINATE_TYPE>
1
3

> <PUBCHEM_BONDANNOTATIONS>
13  6  6
16  8  6

$$$$
