310939625
  -OEChem-07211613022D

 33 36  0     1  0  0  0  0  0999 V2000
    0.1594   -1.9350    0.0000 O   0  0  0  0  0  0  0  0  0  0  0  0
   -1.4289    0.9525    0.0000 O   0  0  0  0  0  0  0  0  0  0  0  0
    5.0013    2.1900    0.0000 O   0  0  0  0  0  0  0  0  0  0  0  0
   -2.8579    0.1275    0.0000 O   0  0  0  0  0  0  0  0  0  0  0  0
    1.4289    0.1275    0.0000 N   0  0  0  0  0  0  0  0  0  0  0  0
    2.1434   -1.1100    0.0000 N   0  0  0  0  0  0  0  0  0  0  0  0
    2.1434    1.3650    0.0000 N   0  0  0  0  0  0  0  0  0  0  0  0
    3.5724    1.3650    0.0000 N   0  0  0  0  0  0  0  0  0  0  0  0
   -4.2868    0.9525    0.0000 N   0  0  0  0  0  0  0  0  0  0  0  0
    2.1434   -0.2850    0.0000 C   0  0  0  0  0  0  0  0  0  0  0  0
    2.8579    0.9525    0.0000 C   0  0  0  0  0  0  0  0  0  0  0  0
    2.8579    0.1275    0.0000 C   0  0  0  0  0  0  0  0  0  0  0  0
    1.4289    0.9525    0.0000 C   0  0  0  0  0  0  0  0  0  0  0  0
    0.7145    1.3650    0.0000 C   0  0  0  0  0  0  0  0  0  0  0  0
    1.4289   -1.5225    0.0000 C   0  0  3  0  0  0  0  0  0  0  0  0
    0.0000    0.9525    0.0000 C   0  0  0  0  0  0  0  0  0  0  0  0
    3.5724   -0.2850    0.0000 C   0  0  0  0  0  0  0  0  0  0  0  0
    0.7145    2.1900    0.0000 C   0  0  0  0  0  0  0  0  0  0  0  0
    4.2868    0.9525    0.0000 C   0  0  0  0  0  0  0  0  0  0  0  0
    3.5724    2.1900    0.0000 C   0  0  0  0  0  0  0  0  0  0  0  0
   -0.7145    1.3650    0.0000 C   0  0  0  0  0  0  0  0  0  0  0  0
    0.6443   -1.2676    0.0000 C   0  0  0  0  0  0  0  0  0  0  0  0
    1.4289   -2.3475    0.0000 C   0  0  0  0  0  0  0  0  0  0  0  0
    2.8579   -1.5225    0.0000 C   0  0  0  0  0  0  0  0  0  0  0  0
    0.0000    2.6025    0.0000 C   0  0  0  0  0  0  0  0  0  0  0  0
   -0.7145    2.1900    0.0000 C   0  0  0  0  0  0  0  0  0  0  0  0
    5.0013    1.3650    0.0000 C   0  0  0  0  0  0  0  0  0  0  0  0
    4.2868    2.6025    0.0000 C   0  0  0  0  0  0  0  0  0  0  0  0
    0.6443   -2.6025    0.0000 C   0  0  0  0  0  0  0  0  0  0  0  0
   -2.1434    1.3650    0.0000 C   0  0  0  0  0  0  0  0  0  0  0  0
   -2.8579    0.9525    0.0000 C   0  0  3  0  0  0  0  0  0  0  0  0
   -3.5724    1.3650    0.0000 C   0  0  0  0  0  0  0  0  0  0  0  0
   -5.0013    1.3650    0.0000 C   0  0  0  0  0  0  0  0  0  0  0  0
  1 22  1  0  0  0  0
  1 29  1  0  0  0  0
  2 21  1  0  0  0  0
  2 30  1  0  0  0  0
  3 27  1  0  0  0  0
  3 28  1  0  0  0  0
  4 31  1  0  0  0  0
  5 10  2  0  0  0  0
  5 13  1  0  0  0  0
  6 10  1  0  0  0  0
 15  6  1  1  0  0  0
  6 24  1  0  0  0  0
  7 11  1  0  0  0  0
  7 13  2  0  0  0  0
  8 11  1  0  0  0  0
  8 19  1  0  0  0  0
  8 20  1  0  0  0  0
  9 32  1  0  0  0  0
  9 33  1  0  0  0  0
 10 12  1  0  0  0  0
 11 12  2  0  0  0  0
 12 17  1  0  0  0  0
 13 14  1  0  0  0  0
 14 16  2  0  0  0  0
 14 18  1  0  0  0  0
 15 22  1  0  0  0  0
 15 23  1  0  0  0  0
 16 21  1  0  0  0  0
 18 25  2  0  0  0  0
 19 27  1  0  0  0  0
 20 28  1  0  0  0  0
 21 26  2  0  0  0  0
 23 29  1  0  0  0  0
 25 26  1  0  0  0  0
 30 31  1  0  0  0  0
 31 32  1  0  0  0  0
M  END
> <PUBCHEM_COMPOUND_ID_TYPE>
0

> <PUBCHEM_TOTAL_CHARGE>
0

> <PUBCHEM_SUBSTANCE_ID>
310939625

> <PUBCHEM_SUBSTANCE_VERSION>
1

> <PUBCHEM_EXT_DATASOURCE_NAME>
4488

> <PUBCHEM_EXT_DATASOURCE_REGID>
SCHEMBL16117555

> <PUBCHEM_SUBSTANCE_COMMENT>
InChI=1S/C24H35N5O4/c1-17-23(28(3)19-7-10-32-15-19)26-22(27-24(17)29-8-11-31-12-9-29)18-5-4-6-21(13-18)33-16-20(30)14-25-2/h4-6,13,19-20,25,30H,7-12,14-16H2,1-3H3/t19-,20?/m0/s1
InChIKey=JGTLBPFEYWIJBL-XJDOXCRVSA-N

> <PUBCHEM_SUBSTANCE_SYNONYM>
SCHEMBL16117555

> <PUBCHEM_XREF_EXT_ID>
SCHEMBL16117555

> <PUBCHEM_EXT_DATASOURCE_URL>
https://www.surechembl.org/

> <PUBCHEM_EXT_SUBSTANCE_URL>
https://www.surechembl.org/chemical/SCHEMBL16117555

> <PUBCHEM_CID_ASSOCIATIONS>
85472161  1

> <PUBCHEM_COORDINATE_TYPE>
1
3

> <PUBCHEM_BONDANNOTATIONS>
15  6  5

$$$$
