310947018
  -OEChem-07211613022D

 39 43  0     0  0  0  0  0  0999 V2000
   -1.5600    2.0766    0.0000 S   0  0  0  0  0  0  0  0  0  0  0  0
   -0.7632    1.8630    0.0000 O   0  0  0  0  0  0  0  0  0  0  0  0
   -1.7736    2.8734    0.0000 O   0  0  0  0  0  0  0  0  0  0  0  0
   -2.8579   -3.0443    0.0000 O   0  0  0  0  0  0  0  0  0  0  0  0
   -4.2868   -0.5693    0.0000 O   0  0  0  0  0  0  0  0  0  0  0  0
    4.2868    0.2557    0.0000 O   0  0  0  0  0  0  0  0  0  0  0  0
   -2.1434    1.4932    0.0000 N   0  0  0  0  0  0  0  0  0  0  0  0
   -1.4289   -0.5693    0.0000 N   0  0  0  0  0  0  0  0  0  0  0  0
    0.0000   -0.5693    0.0000 N   0  0  0  0  0  0  0  0  0  0  0  0
   -2.9280    0.4133    0.0000 N   0  0  0  0  0  0  0  0  0  0  0  0
   -0.9767    2.6599    0.0000 N   0  0  0  0  0  0  0  0  0  0  0  0
    1.4289   -0.5693    0.0000 N   0  0  0  0  0  0  0  0  0  0  0  0
    1.4289   -2.2193    0.0000 N   0  0  0  0  0  0  0  0  0  0  0  0
    2.8579   -0.5693    0.0000 N   0  0  0  0  0  0  0  0  0  0  0  0
   -2.1434    0.6682    0.0000 C   0  0  0  0  0  0  0  0  0  0  0  0
   -0.7145   -0.9818    0.0000 C   0  0  0  0  0  0  0  0  0  0  0  0
   -2.1434   -0.9818    0.0000 C   0  0  0  0  0  0  0  0  0  0  0  0
   -1.4289    0.2557    0.0000 C   0  0  0  0  0  0  0  0  0  0  0  0
    0.7145   -0.9818    0.0000 C   0  0  0  0  0  0  0  0  0  0  0  0
    0.7145   -1.8068    0.0000 C   0  0  0  0  0  0  0  0  0  0  0  0
   -2.9280    1.7481    0.0000 C   0  0  0  0  0  0  0  0  0  0  0  0
   -0.7145   -1.8068    0.0000 C   0  0  0  0  0  0  0  0  0  0  0  0
    2.1434   -0.9818    0.0000 C   0  0  0  0  0  0  0  0  0  0  0  0
    0.0000   -2.2193    0.0000 C   0  0  0  0  0  0  0  0  0  0  0  0
   -2.8579   -0.5693    0.0000 C   0  0  0  0  0  0  0  0  0  0  0  0
   -2.1434   -1.8068    0.0000 C   0  0  0  0  0  0  0  0  0  0  0  0
   -3.4130    1.0807    0.0000 C   0  0  0  0  0  0  0  0  0  0  0  0
   -2.8579   -2.2193    0.0000 C   0  0  0  0  0  0  0  0  0  0  0  0
   -3.5724   -0.9818    0.0000 C   0  0  0  0  0  0  0  0  0  0  0  0
    2.1434   -1.8068    0.0000 C   0  0  0  0  0  0  0  0  0  0  0  0
   -3.5724   -1.8068    0.0000 C   0  0  0  0  0  0  0  0  0  0  0  0
   -0.1798    2.4464    0.0000 C   0  0  0  0  0  0  0  0  0  0  0  0
   -1.1902    3.4568    0.0000 C   0  0  0  0  0  0  0  0  0  0  0  0
    3.5724   -0.9818    0.0000 C   0  0  0  0  0  0  0  0  0  0  0  0
    2.8579    0.2557    0.0000 C   0  0  0  0  0  0  0  0  0  0  0  0
    4.2868   -0.5693    0.0000 C   0  0  0  0  0  0  0  0  0  0  0  0
    3.5724    0.6682    0.0000 C   0  0  0  0  0  0  0  0  0  0  0  0
   -3.5724   -3.4568    0.0000 C   0  0  0  0  0  0  0  0  0  0  0  0
   -4.2868    0.2557    0.0000 C   0  0  0  0  0  0  0  0  0  0  0  0
  1  2  2  0  0  0  0
  1  3  2  0  0  0  0
  1  7  1  0  0  0  0
  1 11  1  0  0  0  0
  4 28  1  0  0  0  0
  4 38  1  0  0  0  0
  5 29  1  0  0  0  0
  5 39  1  0  0  0  0
  6 36  1  0  0  0  0
  6 37  1  0  0  0  0
  7 15  1  0  0  0  0
  7 21  1  0  0  0  0
  8 16  1  0  0  0  0
  8 17  1  0  0  0  0
  8 18  1  0  0  0  0
  9 16  1  0  0  0  0
  9 19  2  0  0  0  0
 10 15  2  0  0  0  0
 10 27  1  0  0  0  0
 11 32  1  0  0  0  0
 11 33  1  0  0  0  0
 12 19  1  0  0  0  0
 12 23  2  0  0  0  0
 13 20  1  0  0  0  0
 13 30  2  0  0  0  0
 14 23  1  0  0  0  0
 14 34  1  0  0  0  0
 14 35  1  0  0  0  0
 15 18  1  0  0  0  0
 16 22  2  0  0  0  0
 17 25  2  0  0  0  0
 17 26  1  0  0  0  0
 19 20  1  0  0  0  0
 20 24  2  0  0  0  0
 21 27  2  0  0  0  0
 22 24  1  0  0  0  0
 23 30  1  0  0  0  0
 25 29  1  0  0  0  0
 26 28  2  0  0  0  0
 28 31  1  0  0  0  0
 29 31  2  0  0  0  0
 34 36  1  0  0  0  0
 35 37  1  0  0  0  0
M  END
> <PUBCHEM_COMPOUND_ID_TYPE>
0

> <PUBCHEM_TOTAL_CHARGE>
0

> <PUBCHEM_SUBSTANCE_ID>
310947018

> <PUBCHEM_SUBSTANCE_VERSION>
1

> <PUBCHEM_EXT_DATASOURCE_NAME>
4488

> <PUBCHEM_EXT_DATASOURCE_REGID>
SCHEMBL16125170

> <PUBCHEM_SUBSTANCE_COMMENT>
InChI=1S/C25H30N8O5S/c1-30(2)39(34,35)33-8-7-26-24(33)17-32(18-13-19(36-3)15-20(14-18)37-4)22-6-5-21-25(28-22)29-23(16-27-21)31-9-11-38-12-10-31/h5-8,13-16H,9-12,17H2,1-4H3
InChIKey=IWMSOTRIVKJUEL-UHFFFAOYSA-N

> <PUBCHEM_SUBSTANCE_SYNONYM>
SCHEMBL16125170

> <PUBCHEM_XREF_EXT_ID>
SCHEMBL16125170

> <PUBCHEM_EXT_DATASOURCE_URL>
https://www.surechembl.org/

> <PUBCHEM_EXT_SUBSTANCE_URL>
https://www.surechembl.org/chemical/SCHEMBL16125170

> <PUBCHEM_CID_ASSOCIATIONS>
117612870  1

> <PUBCHEM_COORDINATE_TYPE>
1
3

$$$$
