310929605
  -OEChem-07211613022D

 55 61  0     1  0  0  0  0  0999 V2000
    4.6115   -0.9042    0.0000 S   0  0  0  0  0  0  0  0  0  0  0  0
    4.2498   -2.4866    0.0000 O   0  0  0  0  0  0  0  0  0  0  0  0
    4.8827   -1.7180    0.0000 O   0  0  0  0  0  0  0  0  0  0  0  0
    4.3854   -0.1356    0.0000 O   0  0  0  0  0  0  0  0  0  0  0  0
    4.2046   -3.1195    0.0000 O   0  0  0  0  0  0  0  0  0  0  0  0
    5.2896   -5.4705    0.0000 O   0  0  0  0  0  0  0  0  0  0  0  0
    1.4468   -3.9785    0.0000 O   0  0  0  0  0  0  0  0  0  0  0  0
    0.9042   -7.5049    0.0000 O   0  0  0  0  0  0  0  0  0  0  0  0
    6.3295   -8.2735    0.0000 O   0  0  0  0  0  0  0  0  0  0  0  0
    0.0000   -6.6460    0.0000 O   0  0  0  0  0  0  0  0  0  0  0  0
    2.8030   -2.9839    0.0000 N   0  0  0  0  0  0  0  0  0  0  0  0
    3.8429   -1.1303    0.0000 N   0  0  0  0  0  0  0  0  0  0  0  0
    2.6222   -4.2498    0.0000 N   0  0  0  0  0  0  0  0  0  0  0  0
    6.2842   -5.8321    0.0000 N   0  0  0  0  0  0  0  0  0  0  0  0
    0.9042   -5.8321    0.0000 N   0  0  0  0  0  0  0  0  0  0  0  0
    2.8934   -2.1701    0.0000 C   0  0  3  0  0  0  0  0  0  0  0  0
    2.1701   -1.8084    0.0000 C   0  0  3  0  0  0  0  0  0  0  0  0
    2.8483   -1.3563    0.0000 C   0  0  0  0  0  0  0  0  0  0  0  0
    3.6620   -1.9440    0.0000 C   0  0  0  0  0  0  0  0  0  0  0  0
    5.3801   -0.7234    0.0000 C   0  0  0  0  0  0  0  0  0  0  0  0
    3.4360   -3.4812    0.0000 C   0  0  0  0  0  0  0  0  0  0  0  0
    1.3563   -1.8084    0.0000 C   0  0  0  0  0  0  0  0  0  0  0  0
    3.3456   -4.2498    0.0000 C   0  0  3  0  0  0  0  0  0  0  0  0
    5.9677   -0.0904    0.0000 C   0  0  0  0  0  0  0  0  0  0  0  0
    6.1938   -0.8590    0.0000 C   0  0  0  0  0  0  0  0  0  0  0  0
    4.2046   -4.4306    0.0000 C   0  0  0  0  0  0  0  0  0  0  0  0
    4.9732    0.0000    0.0000 C   0  0  0  0  0  0  0  0  0  0  0  0
    4.8375   -4.7923    0.0000 C   0  0  3  0  0  0  0  0  0  0  0  0
    1.8988   -4.6567    0.0000 C   0  0  0  0  0  0  0  0  0  0  0  0
    3.8881   -3.8881    0.0000 C   0  0  0  0  0  0  0  0  0  0  0  0
    1.2659   -5.1992    0.0000 C   0  0  3  0  0  0  0  0  0  0  0  0
    0.9946   -2.5318    0.0000 C   0  0  0  0  0  0  0  0  0  0  0  0
    5.5609   -6.2842    0.0000 C   0  0  0  0  0  0  0  0  0  0  0  0
    5.5609   -7.0076    0.0000 C   0  0  0  0  0  0  0  0  0  0  0  0
    0.6329   -4.6567    0.0000 C   0  0  0  0  0  0  0  0  0  0  0  0
    6.2842   -7.5049    0.0000 C   0  0  0  0  0  0  0  0  0  0  0  0
    6.9624   -7.0076    0.0000 C   0  0  0  0  0  0  0  0  0  0  0  0
    6.9624   -6.2842    0.0000 C   0  0  0  0  0  0  0  0  0  0  0  0
    0.8138   -6.6460    0.0000 C   0  0  0  0  0  0  0  0  0  0  0  0
    5.2896   -7.8666    0.0000 C   0  0  0  0  0  0  0  0  0  0  0  0
    7.6858   -5.8321    0.0000 C   0  0  0  0  0  0  0  0  0  0  0  0
    7.6858   -7.5049    0.0000 C   0  0  0  0  0  0  0  0  0  0  0  0
    1.2659   -8.1379    0.0000 C   0  0  3  0  0  0  0  0  0  0  0  0
    1.8988   -8.6804    0.0000 C   0  0  3  0  0  0  0  0  0  0  0  0
    8.4091   -6.2842    0.0000 C   0  0  0  0  0  0  0  0  0  0  0  0
    1.1755   -4.0237    0.0000 C   0  0  0  0  0  0  0  0  0  0  0  0
    0.0000   -4.1593    0.0000 C   0  0  0  0  0  0  0  0  0  0  0  0
    0.1356   -5.2896    0.0000 C   0  0  0  0  0  0  0  0  0  0  0  0
    1.0850   -8.9516    0.0000 C   0  0  0  0  0  0  0  0  0  0  0  0
    8.4091   -7.0076    0.0000 C   0  0  0  0  0  0  0  0  0  0  0  0
    4.8375   -8.4995    0.0000 C   0  0  0  0  0  0  0  0  0  0  0  0
    2.6222   -9.0420    0.0000 C   0  0  0  0  0  0  0  0  0  0  0  0
    4.2046   -8.8613    0.0000 C   0  0  0  0  0  0  0  0  0  0  0  0
    3.3456   -9.0420    0.0000 C   0  0  0  0  0  0  0  0  0  0  0  0
    9.1325   -5.8773    0.0000 C   0  0  0  0  0  0  0  0  0  0  0  0
  1  3  2  0  0  0  0
  1  4  2  0  0  0  0
  1 12  1  0  0  0  0
  1 20  1  0  0  0  0
  2 19  2  0  0  0  0
  5 21  2  0  0  0  0
  6 28  1  0  0  0  0
  6 33  1  0  0  0  0
  7 29  2  0  0  0  0
  8 39  1  0  0  0  0
  8 43  1  0  0  0  0
  9 36  1  0  0  0  0
 10 39  2  0  0  0  0
 16 11  1  1  0  0  0
 11 21  1  0  0  0  0
 12 19  1  0  0  0  0
 13 23  1  0  0  0  0
 13 29  1  0  0  0  0
 13 30  1  0  0  0  0
 14 33  1  0  0  0  0
 14 38  2  0  0  0  0
 15 31  1  0  0  0  0
 15 39  1  0  0  0  0
 16 17  1  0  0  0  0
 16 18  1  0  0  0  0
 16 19  1  6  0  0  0
 17 18  1  0  0  0  0
 17 22  1  6  0  0  0
 20 24  1  0  0  0  0
 20 25  1  0  0  0  0
 20 27  1  0  0  0  0
 23 21  1  6  0  0  0
 22 32  2  0  0  0  0
 23 26  1  0  0  0  0
 24 25  1  0  0  0  0
 28 26  1  1  0  0  0
 28 30  1  0  0  0  0
 29 31  1  0  0  0  0
 31 35  1  1  0  0  0
 33 34  2  0  0  0  0
 34 36  1  0  0  0  0
 34 40  1  0  0  0  0
 35 46  1  0  0  0  0
 35 47  1  0  0  0  0
 35 48  1  0  0  0  0
 36 37  2  0  0  0  0
 37 38  1  0  0  0  0
 37 42  1  0  0  0  0
 38 41  1  0  0  0  0
 40 51  1  0  0  0  0
 41 45  2  0  0  0  0
 42 50  2  0  0  0  0
 43 44  1  0  0  0  0
 43 49  1  1  0  0  0
 44 49  1  6  0  0  0
 44 52  1  0  0  0  0
 45 50  1  0  0  0  0
 45 55  1  0  0  0  0
 51 53  1  0  0  0  0
 52 54  1  0  0  0  0
 53 54  1  0  0  0  0
M  END
> <PUBCHEM_COMPOUND_ID_TYPE>
0

> <PUBCHEM_TOTAL_CHARGE>
0

> <PUBCHEM_SUBSTANCE_ID>
310929605

> <PUBCHEM_SUBSTANCE_VERSION>
1

> <PUBCHEM_EXT_DATASOURCE_NAME>
4488

> <PUBCHEM_EXT_DATASOURCE_REGID>
SCHEMBL16106792

> <PUBCHEM_SUBSTANCE_COMMENT>
InChI=1S/C40H53N5O9S/c1-7-24-20-40(24,36(49)44-55(51,52)39(6)15-16-39)43-33(47)29-19-25-21-45(29)35(48)32(38(3,4)5)42-37(50)54-30-18-23(30)11-9-8-10-12-27-31(46)26-14-13-22(2)17-28(26)41-34(27)53-25/h7,13-14,17,23-25,29-30,32H,1,8-12,15-16,18-21H2,2-6H3,(H,41,46)(H,42,50)(H,43,47)(H,44,49)/t23-,24-,25-,29+,30-,32-,40-/m1/s1
InChIKey=QAWMBZGZCSEGMB-KOJXATGWSA-N

> <PUBCHEM_SUBSTANCE_SYNONYM>
SCHEMBL16106792

> <PUBCHEM_XREF_EXT_ID>
SCHEMBL16106792

> <PUBCHEM_EXT_DATASOURCE_URL>
https://www.surechembl.org/

> <PUBCHEM_EXT_SUBSTANCE_URL>
https://www.surechembl.org/chemical/SCHEMBL16106792

> <PUBCHEM_CID_ASSOCIATIONS>
117598913  1

> <PUBCHEM_COORDINATE_TYPE>
1
3

> <PUBCHEM_BONDANNOTATIONS>
16  11  5
16  19  6
17  22  6
23  21  6
28  26  5
31  35  5
43  49  5
44  49  6

$$$$
