310944539
  -OEChem-07211613022D

 23 24  0     0  0  0  0  0  0999 V2000
   -0.9904   -0.6437    0.0000 Cl  0  0  0  0  0  0  0  0  0  0  0  0
   -4.0110   -0.6437    0.0000 Cl  0  0  0  0  0  0  0  0  0  0  0  0
    0.4333    1.8322    0.0000 O   0  0  0  0  0  0  0  0  0  0  0  0
    4.0110   -0.2228    0.0000 O   0  0  0  0  0  0  0  0  0  0  0  0
    1.1637    0.5943    0.0000 N   0  0  0  0  0  0  0  0  0  0  0  0
    2.6122   -0.2228    0.0000 N   0  0  0  0  0  0  0  0  0  0  0  0
   -0.9780    1.0151    0.0000 N   0  0  0  0  0  0  0  0  0  0  0  0
   -1.6960    0.6066    0.0000 C   0  0  0  0  0  0  0  0  0  0  0  0
   -1.7084   -0.2228    0.0000 C   0  0  0  0  0  0  0  0  0  0  0  0
    0.4333    1.0028    0.0000 C   0  0  0  0  0  0  0  0  0  0  0  0
   -3.1321    0.5943    0.0000 C   0  0  0  0  0  0  0  0  0  0  0  0
   -3.1321   -0.2228    0.0000 C   0  0  0  0  0  0  0  0  0  0  0  0
   -2.4017    1.0028    0.0000 C   0  0  0  0  0  0  0  0  0  0  0  0
   -2.4017   -0.6313    0.0000 C   0  0  0  0  0  0  0  0  0  0  0  0
    1.8941    1.0151    0.0000 C   0  0  0  0  0  0  0  0  0  0  0  0
    1.1761   -0.2228    0.0000 C   0  0  0  0  0  0  0  0  0  0  0  0
   -0.2600    0.6066    0.0000 C   0  0  0  0  0  0  0  0  0  0  0  0
    2.5997    0.6066    0.0000 C   0  0  0  0  0  0  0  0  0  0  0  0
    1.8941   -0.6313    0.0000 C   0  0  0  0  0  0  0  0  0  0  0  0
    3.3054   -0.6437    0.0000 C   0  0  0  0  0  0  0  0  0  0  0  0
   -3.8377    1.0151    0.0000 C   0  0  0  0  0  0  0  0  0  0  0  0
    3.3178   -1.4732    0.0000 C   0  0  0  0  0  0  0  0  0  0  0  0
    2.5750   -1.8322    0.0000 C   0  0  0  0  0  0  0  0  0  0  0  0
  1  9  1  0  0  0  0
  2 12  1  0  0  0  0
  3 10  2  0  0  0  0
  4 20  2  0  0  0  0
  5 10  1  0  0  0  0
  5 15  1  0  0  0  0
  5 16  1  0  0  0  0
  6 18  1  0  0  0  0
  6 19  1  0  0  0  0
  6 20  1  0  0  0  0
  7  8  1  0  0  0  0
  7 17  1  0  0  0  0
  8  9  1  0  0  0  0
  8 13  2  0  0  0  0
  9 14  2  0  0  0  0
 10 17  1  0  0  0  0
 11 12  2  0  0  0  0
 11 13  1  0  0  0  0
 11 21  1  0  0  0  0
 12 14  1  0  0  0  0
 15 18  1  0  0  0  0
 16 19  1  0  0  0  0
 20 22  1  0  0  0  0
 22 23  2  0  0  0  0
M  END
> <PUBCHEM_COMPOUND_ID_TYPE>
0

> <PUBCHEM_TOTAL_CHARGE>
0

> <PUBCHEM_SUBSTANCE_ID>
310944539

> <PUBCHEM_SUBSTANCE_VERSION>
1

> <PUBCHEM_EXT_DATASOURCE_NAME>
4488

> <PUBCHEM_EXT_DATASOURCE_REGID>
SCHEMBL16122615

> <PUBCHEM_SUBSTANCE_COMMENT>
InChI=1S/C16H19Cl2N3O2/c1-3-15(22)20-4-6-21(7-5-20)16(23)10-19-14-8-11(2)12(17)9-13(14)18/h3,8-9,19H,1,4-7,10H2,2H3
InChIKey=WLPMKUYDJMJDGV-UHFFFAOYSA-N

> <PUBCHEM_SUBSTANCE_SYNONYM>
SCHEMBL16122615

> <PUBCHEM_XREF_EXT_ID>
SCHEMBL16122615

> <PUBCHEM_EXT_DATASOURCE_URL>
https://www.surechembl.org/

> <PUBCHEM_EXT_SUBSTANCE_URL>
https://www.surechembl.org/chemical/SCHEMBL16122615

> <PUBCHEM_CID_ASSOCIATIONS>
117610774  1

> <PUBCHEM_COORDINATE_TYPE>
1
3

$$$$
