310934671
  -OEChem-07211613022D

 32 35  0     1  0  0  0  0  0999 V2000
   -2.0035   -0.3544    0.0000 F   0  0  0  0  0  0  0  0  0  0  0  0
    0.0032   -5.3493    0.0000 F   0  0  0  0  0  0  0  0  0  0  0  0
    1.0116    0.1602    0.0000 O   0  0  0  0  0  0  0  0  0  0  0  0
    2.0735   -0.7959    0.0000 O   0  0  0  0  0  0  0  0  0  0  0  0
   -1.6377   -5.1768    0.0000 O   0  0  0  0  0  0  0  0  0  0  0  0
   -1.4884   -3.7557    0.0000 N   0  0  0  0  0  0  0  0  0  0  0  0
   -1.4515   -7.3516    0.0000 N   0  0  0  0  0  0  0  0  0  0  0  0
    0.7145   -1.2375    0.0000 C   0  0  3  0  0  0  0  0  0  0  0  0
    0.1624   -0.6244    0.0000 C   0  0  0  0  0  0  0  0  0  0  0  0
    0.0470   -1.7224    0.0000 C   0  0  0  0  0  0  0  0  0  0  0  0
    0.3020   -2.5070    0.0000 C   0  0  3  0  0  0  0  0  0  0  0  0
    1.2665   -0.6244    0.0000 C   0  0  0  0  0  0  0  0  0  0  0  0
    1.3819   -1.7224    0.0000 C   0  0  0  0  0  0  0  0  0  0  0  0
   -0.6445   -0.7959    0.0000 C   0  0  0  0  0  0  0  0  0  0  0  0
    1.1270   -2.5070    0.0000 C   0  0  0  0  0  0  0  0  0  0  0  0
   -0.1830   -3.1745    0.0000 C   0  0  0  0  0  0  0  0  0  0  0  0
    0.4174    0.1602    0.0000 C   0  0  0  0  0  0  0  0  0  0  0  0
   -1.1966   -0.1828    0.0000 C   0  0  0  0  0  0  0  0  0  0  0  0
    0.1526   -3.9282    0.0000 C   0  0  0  0  0  0  0  0  0  0  0  0
   -1.0034   -3.0882    0.0000 C   0  0  0  0  0  0  0  0  0  0  0  0
   -0.1347    0.7733    0.0000 C   0  0  0  0  0  0  0  0  0  0  0  0
   -0.3323   -4.5956    0.0000 C   0  0  0  0  0  0  0  0  0  0  0  0
   -0.9416    0.6018    0.0000 C   0  0  0  0  0  0  0  0  0  0  0  0
   -1.1528   -4.5094    0.0000 C   0  0  0  0  0  0  0  0  0  0  0  0
   -0.8995   -1.5806    0.0000 C   0  0  0  0  0  0  0  0  0  0  0  0
    1.5636    0.7733    0.0000 C   0  0  0  0  0  0  0  0  0  0  0  0
   -1.3022   -5.9305    0.0000 C   0  0  0  0  0  0  0  0  0  0  0  0
   -1.7871   -6.5979    0.0000 C   0  0  0  0  0  0  0  0  0  0  0  0
   -1.8640   -8.0661    0.0000 C   0  0  0  0  0  0  0  0  0  0  0  0
   -0.6446   -7.5231    0.0000 C   0  0  0  0  0  0  0  0  0  0  0  0
   -1.3120   -8.6792    0.0000 C   0  0  0  0  0  0  0  0  0  0  0  0
   -0.5583   -8.3436    0.0000 C   0  0  0  0  0  0  0  0  0  0  0  0
  1 18  1  0  0  0  0
  2 22  1  0  0  0  0
  3 12  1  0  0  0  0
  3 26  1  0  0  0  0
  4 12  2  0  0  0  0
  5 24  1  0  0  0  0
  5 27  1  0  0  0  0
  6 20  2  0  0  0  0
  6 24  1  0  0  0  0
  7 28  1  0  0  0  0
  7 29  1  0  0  0  0
  7 30  1  0  0  0  0
  8  9  1  0  0  0  0
  8 10  1  0  0  0  0
  8 12  1  1  0  0  0
  8 13  1  0  0  0  0
  9 14  2  0  0  0  0
  9 17  1  0  0  0  0
 10 11  1  0  0  0  0
 11 15  1  0  0  0  0
 11 16  1  0  0  0  0
 13 15  1  0  0  0  0
 14 18  1  0  0  0  0
 14 25  1  0  0  0  0
 16 19  2  0  0  0  0
 16 20  1  0  0  0  0
 17 21  2  0  0  0  0
 18 23  2  0  0  0  0
 19 22  1  0  0  0  0
 21 23  1  0  0  0  0
 22 24  2  0  0  0  0
 27 28  1  0  0  0  0
 29 31  1  0  0  0  0
 30 32  1  0  0  0  0
 31 32  1  0  0  0  0
M  END
> <PUBCHEM_COMPOUND_ID_TYPE>
0

> <PUBCHEM_TOTAL_CHARGE>
0

> <PUBCHEM_SUBSTANCE_ID>
310934671

> <PUBCHEM_SUBSTANCE_VERSION>
1

> <PUBCHEM_EXT_DATASOURCE_NAME>
4488

> <PUBCHEM_EXT_DATASOURCE_REGID>
SCHEMBL16112170

> <PUBCHEM_SUBSTANCE_COMMENT>
InChI=1S/C25H30F2N2O3/c1-17-20(6-5-7-21(17)26)25(24(30)31-2)9-8-18(15-25)19-14-22(27)23(28-16-19)32-13-12-29-10-3-4-11-29/h5-7,14,16,18H,3-4,8-13,15H2,1-2H3/t18?,25-/m0/s1
InChIKey=POIOTTJRMNJSEK-LYIYLXCWSA-N

> <PUBCHEM_SUBSTANCE_SYNONYM>
SCHEMBL16112170

> <PUBCHEM_XREF_EXT_ID>
SCHEMBL16112170

> <PUBCHEM_EXT_DATASOURCE_URL>
https://www.surechembl.org/

> <PUBCHEM_EXT_SUBSTANCE_URL>
https://www.surechembl.org/chemical/SCHEMBL16112170

> <PUBCHEM_CID_ASSOCIATIONS>
117602837  1

> <PUBCHEM_COORDINATE_TYPE>
1
3

> <PUBCHEM_BONDANNOTATIONS>
8  12  5

$$$$
