310942895
  -OEChem-07211613022D

 32 36  0     0  0  0  0  0  0999 V2000
    6.3699   -0.5253    0.0000 F   0  0  0  0  0  0  0  0  0  0  0  0
    4.0715    1.3353    0.0000 O   0  0  0  0  0  0  0  0  0  0  0  0
   -5.6475   -1.3353    0.0000 O   0  0  0  0  0  0  0  0  0  0  0  0
   -2.7800   -1.3353    0.0000 O   0  0  0  0  0  0  0  0  0  0  0  0
   -5.6475    1.1602    0.0000 O   0  0  0  0  0  0  0  0  0  0  0  0
    3.2615    1.1602    0.0000 N   0  0  0  0  0  0  0  0  0  0  0  0
    1.0288   -0.8975    0.0000 N   0  0  0  0  0  0  0  0  0  0  0  0
    3.9401    0.0000    0.0000 C   0  0  0  0  0  0  0  0  0  0  0  0
    3.1521    0.3502    0.0000 C   0  0  0  0  0  0  0  0  0  0  0  0
    4.4654    0.6348    0.0000 C   0  0  0  0  0  0  0  0  0  0  0  0
    2.4735   -0.0657    0.0000 C   0  0  0  0  0  0  0  0  0  0  0  0
    4.2028   -0.7880    0.0000 C   0  0  0  0  0  0  0  0  0  0  0  0
    5.2972    0.4378    0.0000 C   0  0  0  0  0  0  0  0  0  0  0  0
   -4.9251   -0.0657    0.0000 C   0  0  0  0  0  0  0  0  0  0  0  0
   -4.9470   -0.8975    0.0000 C   0  0  0  0  0  0  0  0  0  0  0  0
    5.5381   -0.3502    0.0000 C   0  0  0  0  0  0  0  0  0  0  0  0
    4.9908   -0.9632    0.0000 C   0  0  0  0  0  0  0  0  0  0  0  0
    2.4516   -0.9194    0.0000 C   0  0  0  0  0  0  0  0  0  0  0  0
    1.7074    0.3284    0.0000 C   0  0  0  0  0  0  0  0  0  0  0  0
   -5.6694    0.3284    0.0000 C   0  0  0  0  0  0  0  0  0  0  0  0
   -4.2028   -1.3134    0.0000 C   0  0  0  0  0  0  0  0  0  0  0  0
   -3.5023   -0.8975    0.0000 C   0  0  0  0  0  0  0  0  0  0  0  0
   -4.2028    0.3284    0.0000 C   0  0  0  0  0  0  0  0  0  0  0  0
    1.7512   -1.3134    0.0000 C   0  0  0  0  0  0  0  0  0  0  0  0
    1.0507   -0.0657    0.0000 C   0  0  0  0  0  0  0  0  0  0  0  0
   -3.5023   -0.0875    0.0000 C   0  0  0  0  0  0  0  0  0  0  0  0
   -6.3479   -0.0657    0.0000 C   0  0  0  0  0  0  0  0  0  0  0  0
   -6.3699   -0.9194    0.0000 C   0  0  0  0  0  0  0  0  0  0  0  0
    0.2846   -1.3134    0.0000 C   0  0  0  0  0  0  0  0  0  0  0  0
   -1.9044   -0.9194    0.0000 C   0  0  0  0  0  0  0  0  0  0  0  0
   -0.4597   -0.9194    0.0000 C   0  0  0  0  0  0  0  0  0  0  0  0
   -1.1164   -1.3134    0.0000 C   0  0  0  0  0  0  0  0  0  0  0  0
  1 16  1  0  0  0  0
  2  6  1  0  0  0  0
  2 10  1  0  0  0  0
  3 15  1  0  0  0  0
  3 28  1  0  0  0  0
  4 22  1  0  0  0  0
  4 30  1  0  0  0  0
  5 20  2  0  0  0  0
  6  9  2  0  0  0  0
  7 24  1  0  0  0  0
  7 25  1  0  0  0  0
  7 29  1  0  0  0  0
  8  9  1  0  0  0  0
  8 10  2  0  0  0  0
  8 12  1  0  0  0  0
  9 11  1  0  0  0  0
 10 13  1  0  0  0  0
 11 18  1  0  0  0  0
 11 19  1  0  0  0  0
 12 17  2  0  0  0  0
 13 16  2  0  0  0  0
 14 15  1  0  0  0  0
 14 20  1  0  0  0  0
 14 23  2  0  0  0  0
 15 21  2  0  0  0  0
 16 17  1  0  0  0  0
 18 24  1  0  0  0  0
 19 25  1  0  0  0  0
 20 27  1  0  0  0  0
 21 22  1  0  0  0  0
 22 26  2  0  0  0  0
 23 26  1  0  0  0  0
 27 28  1  0  0  0  0
 29 31  1  0  0  0  0
 30 32  1  0  0  0  0
 31 32  1  0  0  0  0
M  END
> <PUBCHEM_COMPOUND_ID_TYPE>
0

> <PUBCHEM_TOTAL_CHARGE>
0

> <PUBCHEM_SUBSTANCE_ID>
310942895

> <PUBCHEM_SUBSTANCE_VERSION>
1

> <PUBCHEM_EXT_DATASOURCE_NAME>
4488

> <PUBCHEM_EXT_DATASOURCE_REGID>
SCHEMBL16120953

> <PUBCHEM_SUBSTANCE_COMMENT>
InChI=1S/C25H27FN2O4/c26-18-3-5-21-24(15-18)32-27-25(21)17-7-11-28(12-8-17)10-1-2-13-30-19-4-6-20-22(29)9-14-31-23(20)16-19/h3-6,15-17H,1-2,7-14H2
InChIKey=RHFUEBGOINRCJJ-UHFFFAOYSA-N

> <PUBCHEM_SUBSTANCE_SYNONYM>
SCHEMBL16120953

> <PUBCHEM_XREF_EXT_ID>
SCHEMBL16120953

> <PUBCHEM_EXT_DATASOURCE_URL>
https://www.surechembl.org/

> <PUBCHEM_EXT_SUBSTANCE_URL>
https://www.surechembl.org/chemical/SCHEMBL16120953

> <PUBCHEM_CID_ASSOCIATIONS>
86272093  1

> <PUBCHEM_COORDINATE_TYPE>
1
3

$$$$
