310936872
  -OEChem-07211613022D

 25 27  0     0  0  0  0  0  0999 V2000
    0.8349   -0.6910    0.0000 Cl  0  0  0  0  0  0  0  0  0  0  0  0
    0.0000   -2.1018    0.0000 F   0  0  0  0  0  0  0  0  0  0  0  0
    3.2535   -3.5990    0.0000 O   0  0  0  0  0  0  0  0  0  0  0  0
    4.4916   -2.8505    0.0000 N   0  0  0  0  0  0  0  0  0  0  0  0
    6.9677   -0.0288    0.0000 N   0  0  0  0  0  0  0  0  0  0  0  0
    6.9677   -1.4396    0.0000 N   0  0  0  0  0  0  0  0  0  0  0  0
    8.6377    0.0000    0.0000 N   0  0  0  0  0  0  0  0  0  0  0  0
    3.2535   -2.1594    0.0000 C   0  0  0  0  0  0  0  0  0  0  0  0
    2.4474   -2.1306    0.0000 C   0  0  0  0  0  0  0  0  0  0  0  0
    3.6566   -2.8792    0.0000 C   0  0  0  0  0  0  0  0  0  0  0  0
    4.4916   -1.4396    0.0000 C   0  0  0  0  0  0  0  0  0  0  0  0
    3.6566   -1.4684    0.0000 C   0  0  0  0  0  0  0  0  0  0  0  0
    2.0443   -1.4396    0.0000 C   0  0  0  0  0  0  0  0  0  0  0  0
    1.2380   -1.4108    0.0000 C   0  0  0  0  0  0  0  0  0  0  0  0
    2.0443   -2.8505    0.0000 C   0  0  0  0  0  0  0  0  0  0  0  0
    4.8947   -2.1594    0.0000 C   0  0  0  0  0  0  0  0  0  0  0  0
    0.8062   -2.1306    0.0000 C   0  0  0  0  0  0  0  0  0  0  0  0
    4.9235   -0.7198    0.0000 C   0  0  0  0  0  0  0  0  0  0  0  0
    5.7297   -0.7198    0.0000 C   0  0  0  0  0  0  0  0  0  0  0  0
    1.2093   -2.8505    0.0000 C   0  0  0  0  0  0  0  0  0  0  0  0
    6.1615   -0.0288    0.0000 C   0  0  0  0  0  0  0  0  0  0  0  0
    6.1615   -1.4396    0.0000 C   0  0  0  0  0  0  0  0  0  0  0  0
    7.3996   -0.7198    0.0000 C   0  0  0  0  0  0  0  0  0  0  0  0
    3.6566   -4.3189    0.0000 C   0  0  0  0  0  0  0  0  0  0  0  0
    8.2346   -0.7198    0.0000 C   0  0  0  0  0  0  0  0  0  0  0  0
  1 14  1  0  0  0  0
  2 17  1  0  0  0  0
  3 10  1  0  0  0  0
  3 24  1  0  0  0  0
  4 10  2  0  0  0  0
  4 16  1  0  0  0  0
  5 21  1  0  0  0  0
  5 23  2  0  0  0  0
  6 22  2  0  0  0  0
  6 23  1  0  0  0  0
  7 25  3  0  0  0  0
  8  9  1  0  0  0  0
  8 10  1  0  0  0  0
  8 12  2  0  0  0  0
  9 13  1  0  0  0  0
  9 15  2  0  0  0  0
 11 12  1  0  0  0  0
 11 16  2  0  0  0  0
 11 18  1  0  0  0  0
 13 14  2  0  0  0  0
 14 17  1  0  0  0  0
 15 20  1  0  0  0  0
 17 20  2  0  0  0  0
 18 19  1  0  0  0  0
 19 21  2  0  0  0  0
 19 22  1  0  0  0  0
 23 25  1  0  0  0  0
M  END
> <PUBCHEM_COMPOUND_ID_TYPE>
0

> <PUBCHEM_TOTAL_CHARGE>
0

> <PUBCHEM_SUBSTANCE_ID>
310936872

> <PUBCHEM_SUBSTANCE_VERSION>
1

> <PUBCHEM_EXT_DATASOURCE_NAME>
4488

> <PUBCHEM_EXT_DATASOURCE_REGID>
SCHEMBL16114566

> <PUBCHEM_SUBSTANCE_COMMENT>
InChI=1S/C18H12ClFN4O/c1-25-18-14(13-2-3-16(20)15(19)6-13)5-11(8-24-18)4-12-9-22-17(7-21)23-10-12/h2-3,5-6,8-10H,4H2,1H3
InChIKey=YMCAUTPIIDFGLP-UHFFFAOYSA-N

> <PUBCHEM_SUBSTANCE_SYNONYM>
SCHEMBL16114566

> <PUBCHEM_XREF_EXT_ID>
SCHEMBL16114566

> <PUBCHEM_EXT_DATASOURCE_URL>
https://www.surechembl.org/

> <PUBCHEM_EXT_SUBSTANCE_URL>
https://www.surechembl.org/chemical/SCHEMBL16114566

> <PUBCHEM_CID_ASSOCIATIONS>
117604763  1

> <PUBCHEM_COORDINATE_TYPE>
1
3

$$$$
