310941156
  -OEChem-07211613022D

 42 46  0     1  0  0  0  0  0999 V2000
    5.1658   -1.4563    0.0000 O   0  0  0  0  0  0  0  0  0  0  0  0
    4.0356    0.5144    0.0000 O   0  0  0  0  0  0  0  0  0  0  0  0
    1.6736   -1.4417    0.0000 O   0  0  0  0  0  0  0  0  0  0  0  0
   -0.4709    0.6303    0.0000 O   0  0  0  0  0  0  0  0  0  0  0  0
   -2.6155   -1.4417    0.0000 O   0  0  0  0  0  0  0  0  0  0  0  0
   -5.4845   -1.4417    0.0000 O   0  0  0  0  0  0  0  0  0  0  0  0
    2.3982   -0.1956    0.0000 N   0  0  0  0  0  0  0  0  0  0  0  0
    0.2535   -0.6013    0.0000 N   0  0  0  0  0  0  0  0  0  0  0  0
    3.7313    2.4272    0.0000 N   0  0  0  0  0  0  0  0  0  0  0  0
    3.3834    3.1806    0.0000 N   0  0  0  0  0  0  0  0  0  0  0  0
   -1.9054   -0.1956    0.0000 N   0  0  0  0  0  0  0  0  0  0  0  0
   -4.0500   -0.6013    0.0000 N   0  0  0  0  0  0  0  0  0  0  0  0
    4.7745   -0.7173    0.0000 C   0  0  3  0  0  0  0  0  0  0  0  0
    3.9921   -0.2970    0.0000 C   0  0  0  0  0  0  0  0  0  0  0  0
    4.3688   -1.4273    0.0000 C   0  0  0  0  0  0  0  0  0  0  0  0
    3.3400   -0.7028    0.0000 C   0  0  3  0  0  0  0  0  0  0  0  0
    5.4845   -0.2970    0.0000 C   0  0  0  0  0  0  0  0  0  0  0  0
    3.3545   -1.7751    0.0000 C   0  0  0  0  0  0  0  0  0  0  0  0
    1.6881   -0.5578    0.0000 C   0  0  0  0  0  0  0  0  0  0  0  0
    0.9636   -0.1667    0.0000 C   0  0  3  0  0  0  0  0  0  0  0  0
    2.6155   -2.1953    0.0000 C   0  0  0  0  0  0  0  0  0  0  0  0
    1.6881    1.0795    0.0000 C   0  0  0  0  0  0  0  0  0  0  0  0
    2.3982    2.3112    0.0000 C   0  0  0  0  0  0  0  0  0  0  0  0
    0.9781    0.6592    0.0000 C   0  0  0  0  0  0  0  0  0  0  0  0
    3.1226    1.9054    0.0000 C   0  0  0  0  0  0  0  0  0  0  0  0
    1.7026    1.9054    0.0000 C   0  0  0  0  0  0  0  0  0  0  0  0
    2.3982    0.6738    0.0000 C   0  0  0  0  0  0  0  0  0  0  0  0
    3.1226    1.0795    0.0000 C   0  0  0  0  0  0  0  0  0  0  0  0
   -0.4709   -0.1811    0.0000 C   0  0  0  0  0  0  0  0  0  0  0  0
    2.5865    3.1226    0.0000 C   0  0  0  0  0  0  0  0  0  0  0  0
    1.8619   -1.8765    0.0000 C   0  0  0  0  0  0  0  0  0  0  0  0
    2.5141   -3.0212    0.0000 C   0  0  0  0  0  0  0  0  0  0  0  0
   -1.1665   -0.5723    0.0000 C   0  0  3  0  0  0  0  0  0  0  0  0
    1.3259   -2.4851    0.0000 C   0  0  0  0  0  0  0  0  0  0  0  0
    1.7170   -3.1806    0.0000 C   0  0  0  0  0  0  0  0  0  0  0  0
   -2.6010   -0.5578    0.0000 C   0  0  0  0  0  0  0  0  0  0  0  0
   -1.1810   -1.3838    0.0000 C   0  0  0  0  0  0  0  0  0  0  0  0
   -3.3399   -0.1667    0.0000 C   0  0  0  0  0  0  0  0  0  0  0  0
   -4.0356   -1.4128    0.0000 C   0  0  0  0  0  0  0  0  0  0  0  0
   -4.7745   -0.1667    0.0000 C   0  0  0  0  0  0  0  0  0  0  0  0
   -4.7455   -1.8185    0.0000 C   0  0  0  0  0  0  0  0  0  0  0  0
   -5.4555   -0.5723    0.0000 C   0  0  0  0  0  0  0  0  0  0  0  0
  1 13  1  0  0  0  0
  1 15  1  0  0  0  0
  2 14  2  0  0  0  0
  3 19  2  0  0  0  0
  4 29  2  0  0  0  0
  5 36  2  0  0  0  0
  6 41  1  0  0  0  0
  6 42  1  0  0  0  0
 16  7  1  6  0  0  0
  7 19  1  0  0  0  0
 20  8  1  1  0  0  0
  8 29  1  0  0  0  0
  9 10  1  0  0  0  0
  9 25  1  0  0  0  0
 10 30  2  0  0  0  0
 11 33  1  0  0  0  0
 11 36  1  0  0  0  0
 12 38  1  0  0  0  0
 12 39  1  0  0  0  0
 12 40  1  0  0  0  0
 13 14  1  6  0  0  0
 13 15  1  0  0  0  0
 13 17  1  1  0  0  0
 14 16  1  0  0  0  0
 16 18  1  0  0  0  0
 18 21  1  0  0  0  0
 19 20  1  0  0  0  0
 20 24  1  0  0  0  0
 21 31  1  0  0  0  0
 21 32  1  0  0  0  0
 22 24  1  0  0  0  0
 22 26  1  0  0  0  0
 22 27  2  0  0  0  0
 23 25  1  0  0  0  0
 23 26  2  0  0  0  0
 23 30  1  0  0  0  0
 25 28  2  0  0  0  0
 27 28  1  0  0  0  0
 29 33  1  0  0  0  0
 31 34  1  0  0  0  0
 32 35  1  0  0  0  0
 33 37  1  6  0  0  0
 34 35  1  0  0  0  0
 36 38  1  0  0  0  0
 39 41  1  0  0  0  0
 40 42  1  0  0  0  0
M  END
> <PUBCHEM_COMPOUND_ID_TYPE>
0

> <PUBCHEM_TOTAL_CHARGE>
0

> <PUBCHEM_SUBSTANCE_ID>
310941156

> <PUBCHEM_SUBSTANCE_VERSION>
1

> <PUBCHEM_EXT_DATASOURCE_NAME>
4488

> <PUBCHEM_EXT_DATASOURCE_REGID>
SCHEMBL16119116

> <PUBCHEM_SUBSTANCE_COMMENT>
InChI=1S/C30H42N6O6/c1-19(32-26(37)17-36-9-11-41-12-10-36)28(39)34-25(15-21-7-8-23-22(13-21)16-31-35-23)29(40)33-24(14-20-5-3-4-6-20)27(38)30(2)18-42-30/h7-8,13,16,19-20,24-25H,3-6,9-12,14-15,17-18H2,1-2H3,(H,31,35)(H,32,37)(H,33,40)(H,34,39)/t19-,24-,25-,30+/m0/s1
InChIKey=UWODHVGTNZLZHO-DYJHIYBCSA-N

> <PUBCHEM_SUBSTANCE_SYNONYM>
SCHEMBL16119116

> <PUBCHEM_XREF_EXT_ID>
SCHEMBL16119116

> <PUBCHEM_EXT_DATASOURCE_URL>
https://www.surechembl.org/

> <PUBCHEM_EXT_SUBSTANCE_URL>
https://www.surechembl.org/chemical/SCHEMBL16119116

> <PUBCHEM_CID_ASSOCIATIONS>
117608036  1

> <PUBCHEM_COORDINATE_TYPE>
1
3

> <PUBCHEM_BONDANNOTATIONS>
13  14  6
13  17  5
33  37  6
16  7  6
20  8  5

$$$$
