310936122
  -OEChem-07211613022D

 34 36  0     0  0  0  0  0  0999 V2000
    4.5224   -6.7225    0.0000 S   0  0  0  0  0  0  0  0  0  0  0  0
    5.7854   -7.4558    0.0000 F   0  0  0  0  0  0  0  0  0  0  0  0
    5.7854   -6.0299    0.0000 F   0  0  0  0  0  0  0  0  0  0  0  0
    6.1928   -6.7225    0.0000 F   0  0  0  0  0  0  0  0  0  0  0  0
    0.0000   -7.4151    0.0000 F   0  0  0  0  0  0  0  0  0  0  0  0
    1.2223   -8.1485    0.0000 F   0  0  0  0  0  0  0  0  0  0  0  0
    0.4074   -8.1485    0.0000 F   0  0  0  0  0  0  0  0  0  0  0  0
    2.9334    0.0000    0.0000 F   0  0  0  0  0  0  0  0  0  0  0  0
    2.2408   -3.7890    0.0000 O   0  0  0  0  0  0  0  0  0  0  0  0
    3.7483   -6.7225    0.0000 O   0  0  0  0  0  0  0  0  0  0  0  0
    2.0371   -6.7225    0.0000 O   0  0  0  0  0  0  0  0  0  0  0  0
    4.5224   -5.8262    0.0000 O   0  0  0  0  0  0  0  0  0  0  0  0
    4.5224   -7.5374    0.0000 O   0  0  0  0  0  0  0  0  0  0  0  0
    4.9705   -4.1150    0.0000 O   0  0  0  0  0  0  0  0  0  0  0  0
    4.5224   -2.7705    0.0000 N   0  0  0  0  0  0  0  0  0  0  0  0
    3.3408   -4.6039    0.0000 C   0  0  0  0  0  0  0  0  0  0  0  0
    3.5853   -3.7890    0.0000 C   0  0  0  0  0  0  0  0  0  0  0  0
    2.4853   -4.5631    0.0000 C   0  0  0  0  0  0  0  0  0  0  0  0
    2.8927   -3.3002    0.0000 C   0  0  0  0  0  0  0  0  0  0  0  0
    3.3408   -6.0299    0.0000 C   0  0  0  0  0  0  0  0  0  0  0  0
    3.7076   -5.2965    0.0000 C   0  0  0  0  0  0  0  0  0  0  0  0
    2.4853   -5.9891    0.0000 C   0  0  0  0  0  0  0  0  0  0  0  0
    2.0779   -5.2965    0.0000 C   0  0  0  0  0  0  0  0  0  0  0  0
    2.8927   -2.4853    0.0000 C   0  0  0  0  0  0  0  0  0  0  0  0
    4.3594   -3.5446    0.0000 C   0  0  0  0  0  0  0  0  0  0  0  0
    5.3780   -6.7225    0.0000 C   0  0  0  0  0  0  0  0  0  0  0  0
    2.2001   -2.0371    0.0000 C   0  0  0  0  0  0  0  0  0  0  0  0
    3.6261   -2.0779    0.0000 C   0  0  0  0  0  0  0  0  0  0  0  0
    1.2223   -6.7225    0.0000 C   0  0  0  0  0  0  0  0  0  0  0  0
    2.2001   -1.2223    0.0000 C   0  0  0  0  0  0  0  0  0  0  0  0
    3.6261   -1.2630    0.0000 C   0  0  0  0  0  0  0  0  0  0  0  0
    2.9334   -0.8148    0.0000 C   0  0  0  0  0  0  0  0  0  0  0  0
    0.8148   -7.4151    0.0000 C   0  0  0  0  0  0  0  0  0  0  0  0
    5.3373   -2.4853    0.0000 C   0  0  0  0  0  0  0  0  0  0  0  0
  1 10  1  0  0  0  0
  1 12  2  0  0  0  0
  1 13  2  0  0  0  0
  1 26  1  0  0  0  0
  2 26  1  0  0  0  0
  3 26  1  0  0  0  0
  4 26  1  0  0  0  0
  5 33  1  0  0  0  0
  6 33  1  0  0  0  0
  7 33  1  0  0  0  0
  8 32  1  0  0  0  0
  9 18  1  0  0  0  0
  9 19  1  0  0  0  0
 10 20  1  0  0  0  0
 11 22  1  0  0  0  0
 11 29  1  0  0  0  0
 14 25  2  0  0  0  0
 15 25  1  0  0  0  0
 15 34  1  0  0  0  0
 16 17  1  0  0  0  0
 16 18  2  0  0  0  0
 16 21  1  0  0  0  0
 17 19  2  0  0  0  0
 17 25  1  0  0  0  0
 18 23  1  0  0  0  0
 19 24  1  0  0  0  0
 20 21  2  0  0  0  0
 20 22  1  0  0  0  0
 22 23  2  0  0  0  0
 24 27  2  0  0  0  0
 24 28  1  0  0  0  0
 27 30  1  0  0  0  0
 28 31  2  0  0  0  0
 29 33  1  0  0  0  0
 30 32  2  0  0  0  0
 31 32  1  0  0  0  0
M  END
> <PUBCHEM_COMPOUND_ID_TYPE>
0

> <PUBCHEM_TOTAL_CHARGE>
0

> <PUBCHEM_SUBSTANCE_ID>
310936122

> <PUBCHEM_SUBSTANCE_VERSION>
1

> <PUBCHEM_EXT_DATASOURCE_NAME>
4488

> <PUBCHEM_EXT_DATASOURCE_REGID>
SCHEMBL16113732

> <PUBCHEM_SUBSTANCE_COMMENT>
InChI=1S/C19H12F7NO6S/c1-27-17(28)15-11-6-14(33-34(29,30)19(24,25)26)13(31-8-18(21,22)23)7-12(11)32-16(15)9-2-4-10(20)5-3-9/h2-7H,8H2,1H3,(H,27,28)
InChIKey=HKGFEYMZEUYIGA-UHFFFAOYSA-N

> <PUBCHEM_SUBSTANCE_SYNONYM>
SCHEMBL16113732

> <PUBCHEM_XREF_EXT_ID>
SCHEMBL16113732

> <PUBCHEM_EXT_DATASOURCE_URL>
https://www.surechembl.org/

> <PUBCHEM_EXT_SUBSTANCE_URL>
https://www.surechembl.org/chemical/SCHEMBL16113732

> <PUBCHEM_CID_ASSOCIATIONS>
117604086  1

> <PUBCHEM_COORDINATE_TYPE>
1
3

$$$$
