310943555
  -OEChem-07211613022D

 23 26  0     0  0  0  0  0  0999 V2000
   -3.2402    1.4751    0.0000 O   0  0  0  0  0  0  0  0  0  0  0  0
   -1.7907    0.6395    0.0000 N   0  0  0  0  0  0  0  0  0  0  0  0
   -1.6884   -1.1512    0.0000 N   0  0  0  0  0  0  0  0  0  0  0  0
   -0.5287   -1.8163    0.0000 N   0  0  0  0  0  0  0  0  0  0  0  0
    1.7907    1.8845    0.0000 N   0  0  0  0  0  0  0  0  0  0  0  0
    3.2402    0.2302    0.0000 N   0  0  0  0  0  0  0  0  0  0  0  0
   -1.0744   -0.5883    0.0000 C   0  0  0  0  0  0  0  0  0  0  0  0
   -1.0744    0.2473    0.0000 C   0  0  0  0  0  0  0  0  0  0  0  0
   -0.3581   -0.9976    0.0000 C   0  0  0  0  0  0  0  0  0  0  0  0
    0.3752    0.2473    0.0000 C   0  0  0  0  0  0  0  0  0  0  0  0
   -0.3752    0.6395    0.0000 C   0  0  0  0  0  0  0  0  0  0  0  0
    1.0744    0.6566    0.0000 C   0  0  0  0  0  0  0  0  0  0  0  0
    0.3581   -0.5883    0.0000 C   0  0  0  0  0  0  0  0  0  0  0  0
    1.0914    1.4751    0.0000 C   0  0  0  0  0  0  0  0  0  0  0  0
   -1.3472   -1.9015    0.0000 C   0  0  0  0  0  0  0  0  0  0  0  0
    1.8078    0.2473    0.0000 C   0  0  0  0  0  0  0  0  0  0  0  0
   -1.8078    1.4751    0.0000 C   0  0  0  0  0  0  0  0  0  0  0  0
   -2.4899    0.2473    0.0000 C   0  0  0  0  0  0  0  0  0  0  0  0
    2.5240    0.6566    0.0000 C   0  0  0  0  0  0  0  0  0  0  0  0
    2.5240    1.4751    0.0000 C   0  0  0  0  0  0  0  0  0  0  0  0
   -2.5069    1.8845    0.0000 C   0  0  0  0  0  0  0  0  0  0  0  0
   -3.2232    0.6395    0.0000 C   0  0  0  0  0  0  0  0  0  0  0  0
    0.3752    1.9015    0.0000 C   0  0  0  0  0  0  0  0  0  0  0  0
  1 21  1  0  0  0  0
  1 22  1  0  0  0  0
  2  8  1  0  0  0  0
  2 17  1  0  0  0  0
  2 18  1  0  0  0  0
  3  7  1  0  0  0  0
  3 15  2  0  0  0  0
  4  9  1  0  0  0  0
  4 15  1  0  0  0  0
  5 14  1  0  0  0  0
  5 20  2  0  0  0  0
  6 19  1  0  0  0  0
  7  8  1  0  0  0  0
  7  9  2  0  0  0  0
  8 11  2  0  0  0  0
  9 13  1  0  0  0  0
 10 11  1  0  0  0  0
 10 12  1  0  0  0  0
 10 13  2  0  0  0  0
 12 14  2  0  0  0  0
 12 16  1  0  0  0  0
 14 23  1  0  0  0  0
 16 19  2  0  0  0  0
 17 21  1  0  0  0  0
 18 22  1  0  0  0  0
 19 20  1  0  0  0  0
M  END
> <PUBCHEM_COMPOUND_ID_TYPE>
0

> <PUBCHEM_TOTAL_CHARGE>
0

> <PUBCHEM_SUBSTANCE_ID>
310943555

> <PUBCHEM_SUBSTANCE_VERSION>
1

> <PUBCHEM_EXT_DATASOURCE_NAME>
4488

> <PUBCHEM_EXT_DATASOURCE_REGID>
SCHEMBL16121622

> <PUBCHEM_SUBSTANCE_COMMENT>
InChI=1S/C17H19N5O/c1-11-14(8-13(18)9-19-11)12-6-15-17(21-10-20-15)16(7-12)22-2-4-23-5-3-22/h6-10H,2-5,18H2,1H3,(H,20,21)
InChIKey=HGGBZKIRQAZYDO-UHFFFAOYSA-N

> <PUBCHEM_SUBSTANCE_SYNONYM>
SCHEMBL16121622

> <PUBCHEM_XREF_EXT_ID>
SCHEMBL16121622

> <PUBCHEM_EXT_DATASOURCE_URL>
https://www.surechembl.org/

> <PUBCHEM_EXT_SUBSTANCE_URL>
https://www.surechembl.org/chemical/SCHEMBL16121622

> <PUBCHEM_CID_ASSOCIATIONS>
117609966  1

> <PUBCHEM_COORDINATE_TYPE>
1
3

$$$$
