310949225
  -OEChem-07211613022D

 23 24  0     0  0  0  0  0  0999 V2000
    2.2497    1.3348    0.0000 Cl  0  0  0  0  0  0  0  0  0  0  0  0
    0.0900   -1.5598    0.0000 F   0  0  0  0  0  0  0  0  0  0  0  0
    2.9696    0.0900    0.0000 O   0  0  0  0  0  0  0  0  0  0  0  0
    2.2347   -1.1398    0.0000 O   0  0  0  0  0  0  0  0  0  0  0  0
    0.8099   -0.3299    0.0000 N   0  0  0  0  0  0  0  0  0  0  0  0
    0.8099    2.1447    0.0000 N   0  0  0  0  0  0  0  0  0  0  0  0
    0.0600    0.0600    0.0000 C   0  0  0  0  0  0  0  0  0  0  0  0
    1.5148    0.0600    0.0000 C   0  0  0  0  0  0  0  0  0  0  0  0
   -0.6599   -0.3449    0.0000 C   0  0  0  0  0  0  0  0  0  0  0  0
    1.5298    0.8999    0.0000 C   0  0  0  0  0  0  0  0  0  0  0  0
    0.7799    1.3048    0.0000 C   0  0  0  0  0  0  0  0  0  0  0  0
    0.0900    0.8999    0.0000 C   0  0  0  0  0  0  0  0  0  0  0  0
   -0.6749   -1.1698    0.0000 C   0  0  0  0  0  0  0  0  0  0  0  0
    2.2347   -0.3299    0.0000 C   0  0  0  0  0  0  0  0  0  0  0  0
   -1.3948    0.0450    0.0000 C   0  0  0  0  0  0  0  0  0  0  0  0
   -1.3798   -1.5748    0.0000 C   0  0  0  0  0  0  0  0  0  0  0  0
   -2.1297   -1.1698    0.0000 C   0  0  0  0  0  0  0  0  0  0  0  0
   -2.1147   -0.3599    0.0000 C   0  0  0  0  0  0  0  0  0  0  0  0
   -2.8196   -1.5748    0.0000 C   0  0  0  0  0  0  0  0  0  0  0  0
    3.7045   -0.3150    0.0000 C   0  0  0  0  0  0  0  0  0  0  0  0
   -3.3895   -1.7248    0.0000 C   0  0  0  0  0  0  0  0  0  0  0  0
   -3.4045   -2.1447    0.0000 C   0  0  0  0  0  0  0  0  0  0  0  0
   -3.7045   -1.7997    0.0000 C   0  0  0  0  0  0  0  0  0  0  0  0
  1 10  1  0  0  0  0
  2 13  1  0  0  0  0
  3 14  1  0  0  0  0
  3 20  1  0  0  0  0
  4 14  2  0  0  0  0
  5  7  1  0  0  0  0
  5  8  2  0  0  0  0
  6 11  1  0  0  0  0
  7  9  1  0  0  0  0
  7 12  2  0  0  0  0
  8 10  1  0  0  0  0
  8 14  1  0  0  0  0
  9 13  1  0  0  0  0
  9 15  2  0  0  0  0
 10 11  2  0  0  0  0
 11 12  1  0  0  0  0
 13 16  2  0  0  0  0
 15 18  1  0  0  0  0
 16 17  1  0  0  0  0
 17 18  2  0  0  0  0
 17 19  1  0  0  0  0
 19 21  3  0  0  0  0
 21 22  1  0  0  0  0
 22 23  2  0  0  0  0
M  END
> <PUBCHEM_COMPOUND_ID_TYPE>
0

> <PUBCHEM_TOTAL_CHARGE>
0

> <PUBCHEM_SUBSTANCE_ID>
310949225

> <PUBCHEM_SUBSTANCE_VERSION>
1

> <PUBCHEM_EXT_DATASOURCE_NAME>
4488

> <PUBCHEM_EXT_DATASOURCE_REGID>
SCHEMBL16127415

> <PUBCHEM_SUBSTANCE_COMMENT>
InChI=1S/C17H12ClFN2O2/c1-3-4-5-10-6-7-11(12(19)8-10)14-9-13(20)15(18)16(21-14)17(22)23-2/h3,6-9H,1H2,2H3,(H2,20,21)
InChIKey=DSRFKTUPZAYGDW-UHFFFAOYSA-N

> <PUBCHEM_SUBSTANCE_SYNONYM>
SCHEMBL16127415

> <PUBCHEM_XREF_EXT_ID>
SCHEMBL16127415

> <PUBCHEM_EXT_DATASOURCE_URL>
https://www.surechembl.org/

> <PUBCHEM_EXT_SUBSTANCE_URL>
https://www.surechembl.org/chemical/SCHEMBL16127415

> <PUBCHEM_CID_ASSOCIATIONS>
117614713  1

> <PUBCHEM_COORDINATE_TYPE>
1
3

$$$$
