310939784
  -OEChem-07211613022D

 27 29  0     0  0  0  0  0  0999 V2000
    1.4289    3.0584    0.0000 Cl  0  0  0  0  0  0  0  0  0  0  0  0
    1.4289    4.7084    0.0000 Cl  0  0  0  0  0  0  0  0  0  0  0  0
    0.0000    2.2334    0.0000 O   0  0  0  0  0  0  0  0  0  0  0  0
   -1.4289    4.7084    0.0000 O   0  0  0  0  0  0  0  0  0  0  0  0
    0.0000   -3.8834    0.0000 O   0  0  0  0  0  0  0  0  0  0  0  0
   -0.7145    0.9959    0.0000 N   0  0  0  0  0  0  0  0  0  0  0  0
   -0.7145   -0.9959    0.0000 N   0  0  0  0  0  0  0  0  0  0  0  0
   -0.7145   -2.6459    0.0000 N   0  0  0  0  0  0  0  0  0  0  0  0
   -1.4289    3.0584    0.0000 N   0  0  0  0  0  0  0  0  0  0  0  0
   -0.7145   -0.1709    0.0000 C   0  0  0  0  0  0  0  0  0  0  0  0
   -1.2978    0.4125    0.0000 C   0  0  0  0  0  0  0  0  0  0  0  0
   -0.1311    0.4125    0.0000 C   0  0  0  0  0  0  0  0  0  0  0  0
   -0.7145    1.8209    0.0000 C   0  0  0  0  0  0  0  0  0  0  0  0
   -0.7145    3.4709    0.0000 C   0  0  0  0  0  0  0  0  0  0  0  0
   -1.4289   -1.4084    0.0000 C   0  0  0  0  0  0  0  0  0  0  0  0
    0.0000   -1.4084    0.0000 C   0  0  0  0  0  0  0  0  0  0  0  0
   -0.7145    4.2959    0.0000 C   0  0  0  0  0  0  0  0  0  0  0  0
   -1.4289    2.2334    0.0000 C   0  0  0  0  0  0  0  0  0  0  0  0
    0.7145    3.4709    0.0000 C   0  0  0  0  0  0  0  0  0  0  0  0
    0.7145    4.2959    0.0000 C   0  0  0  0  0  0  0  0  0  0  0  0
    0.0000    3.0584    0.0000 C   0  0  0  0  0  0  0  0  0  0  0  0
   -1.4289   -2.2334    0.0000 C   0  0  0  0  0  0  0  0  0  0  0  0
    0.0000   -2.2334    0.0000 C   0  0  0  0  0  0  0  0  0  0  0  0
    0.0000    4.7084    0.0000 C   0  0  0  0  0  0  0  0  0  0  0  0
   -0.7145   -3.4709    0.0000 C   0  0  0  0  0  0  0  0  0  0  0  0
   -1.4289   -3.8834    0.0000 C   0  0  0  0  0  0  0  0  0  0  0  0
   -1.4289   -4.7084    0.0000 C   0  0  0  0  0  0  0  0  0  0  0  0
  1 19  1  0  0  0  0
  2 20  1  0  0  0  0
  3 13  2  0  0  0  0
  4 17  1  0  0  0  0
  5 25  2  0  0  0  0
  6 11  1  0  0  0  0
  6 12  1  0  0  0  0
  6 13  1  0  0  0  0
  7 10  1  0  0  0  0
  7 15  1  0  0  0  0
  7 16  1  0  0  0  0
  8 22  1  0  0  0  0
  8 23  1  0  0  0  0
  8 25  1  0  0  0  0
  9 14  1  0  0  0  0
  9 18  1  0  0  0  0
 10 11  1  0  0  0  0
 10 12  1  0  0  0  0
 13 18  1  0  0  0  0
 14 17  2  0  0  0  0
 14 21  1  0  0  0  0
 15 22  1  0  0  0  0
 16 23  1  0  0  0  0
 17 24  1  0  0  0  0
 19 20  1  0  0  0  0
 19 21  2  0  0  0  0
 20 24  2  0  0  0  0
 25 26  1  0  0  0  0
 26 27  2  0  0  0  0
M  END
> <PUBCHEM_COMPOUND_ID_TYPE>
0

> <PUBCHEM_TOTAL_CHARGE>
0

> <PUBCHEM_SUBSTANCE_ID>
310939784

> <PUBCHEM_SUBSTANCE_VERSION>
1

> <PUBCHEM_EXT_DATASOURCE_NAME>
4488

> <PUBCHEM_EXT_DATASOURCE_REGID>
SCHEMBL16117714

> <PUBCHEM_SUBSTANCE_COMMENT>
InChI=1S/C18H22Cl2N4O3/c1-2-17(26)23-5-3-22(4-6-23)12-10-24(11-12)18(27)9-21-15-7-13(19)14(20)8-16(15)25/h2,7-8,12,21,25H,1,3-6,9-11H2
InChIKey=UXVPKHUVXFZNPH-UHFFFAOYSA-N

> <PUBCHEM_SUBSTANCE_SYNONYM>
SCHEMBL16117714

> <PUBCHEM_XREF_EXT_ID>
SCHEMBL16117714

> <PUBCHEM_EXT_DATASOURCE_URL>
https://www.surechembl.org/

> <PUBCHEM_EXT_SUBSTANCE_URL>
https://www.surechembl.org/chemical/SCHEMBL16117714

> <PUBCHEM_CID_ASSOCIATIONS>
86279952  1

> <PUBCHEM_COORDINATE_TYPE>
1
3

$$$$
