310936192
  -OEChem-07211613022D

 16 17  0     0  0  0  0  0  0999 V2000
    0.0000   -4.2982    0.0000 O   0  0  0  0  0  0  0  0  0  0  0  0
    1.2494   -4.9979    0.0000 O   0  0  0  0  0  0  0  0  0  0  0  0
    1.2245   -3.5735    0.0000 N   0  0  0  0  0  0  0  0  0  0  0  0
    2.0491   -2.1491    0.0000 C   0  0  0  0  0  0  0  0  0  0  0  0
    2.4490   -1.4494    0.0000 C   0  0  0  0  0  0  0  0  0  0  0  0
    2.4739   -2.8738    0.0000 C   0  0  0  0  0  0  0  0  0  0  0  0
    1.2245   -2.1491    0.0000 C   0  0  0  0  0  0  0  0  0  0  0  0
    2.0491   -3.5735    0.0000 C   0  0  0  0  0  0  0  0  0  0  0  0
    0.7997   -2.8738    0.0000 C   0  0  0  0  0  0  0  0  0  0  0  0
    0.8246   -4.2982    0.0000 C   0  0  0  0  0  0  0  0  0  0  0  0
    3.2736   -1.4244    0.0000 C   0  0  0  0  0  0  0  0  0  0  0  0
    2.0241   -0.7247    0.0000 C   0  0  0  0  0  0  0  0  0  0  0  0
    3.6734   -0.7247    0.0000 C   0  0  0  0  0  0  0  0  0  0  0  0
    2.4240   -0.0250    0.0000 C   0  0  0  0  0  0  0  0  0  0  0  0
    3.2486    0.0000    0.0000 C   0  0  0  0  0  0  0  0  0  0  0  0
    4.4981   -0.6997    0.0000 C   0  0  0  0  0  0  0  0  0  0  0  0
  1 10  2  0  0  0  0
  2 10  1  0  0  0  0
  3  8  1  0  0  0  0
  3  9  1  0  0  0  0
  3 10  1  0  0  0  0
  4  5  1  0  0  0  0
  4  6  2  0  0  0  0
  4  7  1  0  0  0  0
  5 11  1  0  0  0  0
  5 12  2  0  0  0  0
  6  8  1  0  0  0  0
  7  9  1  0  0  0  0
 11 13  2  0  0  0  0
 12 14  1  0  0  0  0
 13 15  1  0  0  0  0
 13 16  1  0  0  0  0
 14 15  2  0  0  0  0
M  END
> <PUBCHEM_COMPOUND_ID_TYPE>
0

> <PUBCHEM_TOTAL_CHARGE>
0

> <PUBCHEM_SUBSTANCE_ID>
310936192

> <PUBCHEM_SUBSTANCE_VERSION>
1

> <PUBCHEM_EXT_DATASOURCE_NAME>
4488

> <PUBCHEM_EXT_DATASOURCE_REGID>
SCHEMBL16113804

> <PUBCHEM_SUBSTANCE_COMMENT>
InChI=1S/C13H15NO2/c1-10-3-2-4-12(9-10)11-5-7-14(8-6-11)13(15)16/h2-5,9H,6-8H2,1H3,(H,15,16)
InChIKey=WODDAJOVBADSTR-UHFFFAOYSA-N

> <PUBCHEM_SUBSTANCE_SYNONYM>
SCHEMBL16113804

> <PUBCHEM_XREF_EXT_ID>
SCHEMBL16113804

> <PUBCHEM_EXT_DATASOURCE_URL>
https://www.surechembl.org/

> <PUBCHEM_EXT_SUBSTANCE_URL>
https://www.surechembl.org/chemical/SCHEMBL16113804

> <PUBCHEM_CID_ASSOCIATIONS>
117604148  1

> <PUBCHEM_COORDINATE_TYPE>
1
3

$$$$
