310938093
  -OEChem-07211613022D

 15 15  0     0  0  0  0  0  0999 V2000
    2.4788   -1.3989    0.0000 Cl  0  0  0  0  0  0  0  0  0  0  0  0
    0.0245    0.0000    0.0000 F   0  0  0  0  0  0  0  0  0  0  0  0
    1.2517   -3.5096    0.0000 O   0  0  0  0  0  0  0  0  0  0  0  0
    1.2271   -2.1106    0.0000 N   0  0  0  0  0  0  0  0  0  0  0  0
    1.2271   -0.7117    0.0000 N   0  0  0  0  0  0  0  0  0  0  0  0
    0.4172   -2.1106    0.0000 C   0  0  0  0  0  0  0  0  0  0  0  0
    1.6443   -1.3989    0.0000 C   0  0  0  0  0  0  0  0  0  0  0  0
    0.4172   -0.7117    0.0000 C   0  0  0  0  0  0  0  0  0  0  0  0
    0.0000   -1.3989    0.0000 C   0  0  0  0  0  0  0  0  0  0  0  0
    0.0245   -2.8224    0.0000 C   0  0  0  0  0  0  0  0  0  0  0  0
    0.4418   -3.5341    0.0000 C   0  0  0  0  0  0  0  0  0  0  0  0
    1.6689   -4.2213    0.0000 C   0  0  0  0  0  0  0  0  0  0  0  0
    2.4788   -4.1968    0.0000 C   0  0  0  0  0  0  0  0  0  0  0  0
    2.8960   -4.9085    0.0000 C   0  0  0  0  0  0  0  0  0  0  0  0
    3.7305   -4.8349    0.0000 C   0  0  0  0  0  0  0  0  0  0  0  0
  1  7  1  0  0  0  0
  2  8  1  0  0  0  0
  3 11  1  0  0  0  0
  3 12  1  0  0  0  0
  4  6  2  0  0  0  0
  4  7  1  0  0  0  0
  5  7  2  0  0  0  0
  5  8  1  0  0  0  0
  6  9  1  0  0  0  0
  6 10  1  0  0  0  0
  8  9  2  0  0  0  0
 10 11  2  0  0  0  0
 12 13  1  0  0  0  0
 13 14  1  0  0  0  0
 14 15  1  0  0  0  0
M  END
> <PUBCHEM_COMPOUND_ID_TYPE>
0

> <PUBCHEM_TOTAL_CHARGE>
0

> <PUBCHEM_SUBSTANCE_ID>
310938093

> <PUBCHEM_SUBSTANCE_VERSION>
1

> <PUBCHEM_EXT_DATASOURCE_NAME>
4488

> <PUBCHEM_EXT_DATASOURCE_REGID>
SCHEMBL16115938

> <PUBCHEM_SUBSTANCE_COMMENT>
InChI=1S/C10H12ClFN2O/c1-2-3-5-15-6-4-8-7-9(12)14-10(11)13-8/h4,6-7H,2-3,5H2,1H3/b6-4-
InChIKey=LZUZXJYHIBUSEI-XQRVVYSFSA-N

> <PUBCHEM_SUBSTANCE_SYNONYM>
SCHEMBL16115938

> <PUBCHEM_XREF_EXT_ID>
SCHEMBL16115938

> <PUBCHEM_EXT_DATASOURCE_URL>
https://www.surechembl.org/

> <PUBCHEM_EXT_SUBSTANCE_URL>
https://www.surechembl.org/chemical/SCHEMBL16115938

> <PUBCHEM_CID_ASSOCIATIONS>
117605656  1

> <PUBCHEM_COORDINATE_TYPE>
1
3

$$$$
