310941964
  -OEChem-07211613022D

 21 23  0     0  0  0  0  0  0999 V2000
   -1.9696   -2.8094    0.0000 F   0  0  0  0  0  0  0  0  0  0  0  0
   -1.2561    2.3337    0.0000 O   0  0  0  0  0  0  0  0  0  0  0  0
    2.5790    1.8655    0.0000 O   0  0  0  0  0  0  0  0  0  0  0  0
   -0.5352   -0.3345    0.0000 N   0  0  0  0  0  0  0  0  0  0  0  0
   -1.5087    1.5533    0.0000 N   0  3  0  0  0  0  0  0  0  0  0  0
   -0.9662    0.9439    0.0000 C   0  0  0  0  0  0  0  0  0  0  0  0
   -0.1263    0.9364    0.0000 C   0  0  0  0  0  0  0  0  0  0  0  0
    0.1189    0.1635    0.0000 C   0  0  0  0  0  0  0  0  0  0  0  0
   -1.2263    0.1561    0.0000 C   0  0  0  0  0  0  0  0  0  0  0  0
    0.4236    1.5533    0.0000 C   0  0  0  0  0  0  0  0  0  0  0  0
    0.9290   -0.0149    0.0000 C   0  0  0  0  0  0  0  0  0  0  0  0
   -2.0364   -0.0149    0.0000 C   0  0  0  0  0  0  0  0  0  0  0  0
    1.2263    1.3973    0.0000 C   0  0  0  0  0  0  0  0  0  0  0  0
   -0.5426   -1.1595    0.0000 C   0  0  0  0  0  0  0  0  0  0  0  0
    1.4790    0.5946    0.0000 C   0  0  0  0  0  0  0  0  0  0  0  0
   -2.3114    1.3824    0.0000 C   0  0  0  0  0  0  0  0  0  0  0  0
   -2.5790    0.5946    0.0000 C   0  0  0  0  0  0  0  0  0  0  0  0
    1.7540    2.0290    0.0000 C   0  0  0  0  0  0  0  0  0  0  0  0
   -1.2487   -1.5682    0.0000 C   0  0  0  0  0  0  0  0  0  0  0  0
    1.4939    2.8094    0.0000 C   0  0  0  0  0  0  0  0  0  0  0  0
   -1.2561   -2.3932    0.0000 C   0  0  0  0  0  0  0  0  0  0  0  0
  1 21  1  0  0  0  0
  2  5  1  0  0  0  0
  3 18  2  0  0  0  0
  4  8  1  0  0  0  0
  4  9  1  0  0  0  0
  4 14  1  0  0  0  0
  5  6  2  0  0  0  0
  5 16  1  0  0  0  0
  6  7  1  0  0  0  0
  6  9  1  0  0  0  0
  7  8  2  0  0  0  0
  7 10  1  0  0  0  0
  8 11  1  0  0  0  0
  9 12  2  0  0  0  0
 10 13  2  0  0  0  0
 11 15  2  0  0  0  0
 12 17  1  0  0  0  0
 13 15  1  0  0  0  0
 13 18  1  0  0  0  0
 14 19  1  0  0  0  0
 16 17  2  0  0  0  0
 18 20  1  0  0  0  0
 19 21  1  0  0  0  0
M  CHG  1   5   1
M  END
> <PUBCHEM_COMPOUND_ID_TYPE>
0

> <PUBCHEM_TOTAL_CHARGE>
1

> <PUBCHEM_SUBSTANCE_ID>
310941964

> <PUBCHEM_SUBSTANCE_VERSION>
1

> <PUBCHEM_EXT_DATASOURCE_NAME>
4488

> <PUBCHEM_EXT_DATASOURCE_REGID>
SCHEMBL16119998

> <PUBCHEM_SUBSTANCE_COMMENT>
InChI=1S/C16H16FN2O2/c1-11(20)12-5-6-14-13(10-12)16-15(4-2-9-19(16)21)18(14)8-3-7-17/h2,4-6,9-10,21H,3,7-8H2,1H3/q+1
InChIKey=WCGSRTWJOYRLAZ-UHFFFAOYSA-N

> <PUBCHEM_SUBSTANCE_SYNONYM>
SCHEMBL16119998

> <PUBCHEM_XREF_EXT_ID>
SCHEMBL16119998

> <PUBCHEM_EXT_DATASOURCE_URL>
https://www.surechembl.org/

> <PUBCHEM_EXT_SUBSTANCE_URL>
https://www.surechembl.org/chemical/SCHEMBL16119998

> <PUBCHEM_CID_ASSOCIATIONS>
117608676  1

> <PUBCHEM_COORDINATE_TYPE>
1
3

$$$$
