310943911
  -OEChem-07211613022D

 32 36  0     1  0  0  0  0  0999 V2000
    2.4883    0.2869    0.0000 O   0  0  0  0  0  0  0  0  0  0  0  0
    5.0152   -1.2690    0.0000 O   0  0  0  0  0  0  0  0  0  0  0  0
    5.4787    0.1214    0.0000 O   0  0  0  0  0  0  0  0  0  0  0  0
   -1.3076   -0.8497    0.0000 O   0  0  0  0  0  0  0  0  0  0  0  0
    2.8746   -1.1366    0.0000 N   0  0  0  0  0  0  0  0  0  0  0  0
    0.1269   -0.0221    0.0000 N   0  0  0  0  0  0  0  0  0  0  0  0
   -4.1656    1.6221    0.0000 N   0  0  0  0  0  0  0  0  0  0  0  0
   -2.0138    1.2138    0.0000 N   0  0  0  0  0  0  0  0  0  0  0  0
   -2.7311    1.6221    0.0000 N   0  0  0  0  0  0  0  0  0  0  0  0
   -4.2538    2.4497    0.0000 N   0  0  0  0  0  0  0  0  0  0  0  0
   -5.0594    2.6153    0.0000 N   0  0  0  0  0  0  0  0  0  0  0  0
   -5.4787    1.8980    0.0000 N   0  0  0  0  0  0  0  0  0  0  0  0
    1.5614   -0.8387    0.0000 C   0  0  0  0  0  0  0  0  0  0  0  0
    2.3007   -0.5297    0.0000 C   0  0  0  0  0  0  0  0  0  0  0  0
    2.4552   -1.8428    0.0000 C   0  0  0  0  0  0  0  0  0  0  0  0
    1.6497   -1.6662    0.0000 C   0  0  0  0  0  0  0  0  0  0  0  0
    3.6911   -1.0373    0.0000 C   0  0  0  0  0  0  0  0  0  0  0  0
    0.8552   -1.2580    0.0000 C   0  0  0  0  0  0  0  0  0  0  0  0
    1.5614   -0.0221    0.0000 C   0  0  0  0  0  0  0  0  0  0  0  0
    0.1269   -0.8497    0.0000 C   0  0  0  0  0  0  0  0  0  0  0  0
    0.8331    0.3862    0.0000 C   0  0  0  0  0  0  0  0  0  0  0  0
    4.0884   -0.3090    0.0000 C   0  0  0  0  0  0  0  0  0  0  0  0
    4.2649   -1.6221    0.0000 C   0  0  0  0  0  0  0  0  0  0  0  0
    2.8083   -2.6153    0.0000 C   0  0  0  0  0  0  0  0  0  0  0  0
    4.8718   -0.4634    0.0000 C   0  0  0  0  0  0  0  0  0  0  0  0
   -0.5904    0.3862    0.0000 C   0  0  0  0  0  0  0  0  0  0  0  0
   -1.2855   -0.0110    0.0000 C   0  0  3  0  0  0  0  0  0  0  0  0
   -2.0249    0.3972    0.0000 C   0  0  0  0  0  0  0  0  0  0  0  0
   -3.4483    1.2248    0.0000 C   0  0  0  0  0  0  0  0  0  0  0  0
   -2.7311   -0.0221    0.0000 C   0  0  0  0  0  0  0  0  0  0  0  0
   -3.4483    0.3862    0.0000 C   0  0  0  0  0  0  0  0  0  0  0  0
   -4.9160    1.3021    0.0000 C   0  0  0  0  0  0  0  0  0  0  0  0
  1 14  2  0  0  0  0
  2 23  1  0  0  0  0
  2 25  1  0  0  0  0
  3 25  2  0  0  0  0
 27  4  1  6  0  0  0
  5 14  1  0  0  0  0
  5 15  1  0  0  0  0
  5 17  1  0  0  0  0
  6 20  1  0  0  0  0
  6 21  1  0  0  0  0
  6 26  1  0  0  0  0
  7 10  1  0  0  0  0
  7 29  1  0  0  0  0
  7 32  1  0  0  0  0
  8  9  1  0  0  0  0
  8 28  2  0  0  0  0
  9 29  2  0  0  0  0
 10 11  2  0  0  0  0
 11 12  1  0  0  0  0
 12 32  2  0  0  0  0
 13 14  1  0  0  0  0
 13 16  1  0  0  0  0
 13 18  1  0  0  0  0
 13 19  1  0  0  0  0
 15 16  2  0  0  0  0
 15 24  1  0  0  0  0
 17 22  2  0  0  0  0
 17 23  1  0  0  0  0
 18 20  1  0  0  0  0
 19 21  1  0  0  0  0
 22 25  1  0  0  0  0
 26 27  1  0  0  0  0
 27 28  1  0  0  0  0
 28 30  1  0  0  0  0
 29 31  1  0  0  0  0
 30 31  2  0  0  0  0
M  END
> <PUBCHEM_COMPOUND_ID_TYPE>
0

> <PUBCHEM_TOTAL_CHARGE>
0

> <PUBCHEM_SUBSTANCE_ID>
310943911

> <PUBCHEM_SUBSTANCE_VERSION>
1

> <PUBCHEM_EXT_DATASOURCE_NAME>
4488

> <PUBCHEM_EXT_DATASOURCE_REGID>
SCHEMBL16121982

> <PUBCHEM_SUBSTANCE_COMMENT>
InChI=1S/C20H22N8O4/c1-13-9-20(19(31)28(13)14-8-18(30)32-11-14)4-6-26(7-5-20)10-16(29)15-2-3-17(23-22-15)27-12-21-24-25-27/h2-3,8-9,12,16,29H,4-7,10-11H2,1H3/t16-/m0/s1
InChIKey=MWEDLBLCUITNSG-INIZCTEOSA-N

> <PUBCHEM_SUBSTANCE_SYNONYM>
SCHEMBL16121982

> <PUBCHEM_XREF_EXT_ID>
SCHEMBL16121982

> <PUBCHEM_EXT_DATASOURCE_URL>
https://www.surechembl.org/

> <PUBCHEM_EXT_SUBSTANCE_URL>
https://www.surechembl.org/chemical/SCHEMBL16121982

> <PUBCHEM_CID_ASSOCIATIONS>
117610226  1

> <PUBCHEM_COORDINATE_TYPE>
1
3

> <PUBCHEM_BONDANNOTATIONS>
27  4  6

$$$$
