310936975
  -OEChem-07211613022D

 23 25  0     0  0  0  0  0  0999 V2000
    8.0174   -3.5010    0.0000 F   0  0  0  0  0  0  0  0  0  0  0  0
    5.6656   -0.8285    0.0000 O   0  0  0  0  0  0  0  0  0  0  0  0
    0.0000   -0.8285    0.0000 O   0  0  0  0  0  0  0  0  0  0  0  0
    2.2182   -2.4319    0.0000 N   0  0  0  0  0  0  0  0  0  0  0  0
    4.2225   -0.9888    0.0000 N   0  0  0  0  0  0  0  0  0  0  0  0
    2.0311   -1.6302    0.0000 N   0  0  0  0  0  0  0  0  0  0  0  0
    1.4966   -2.8329    0.0000 N   0  0  0  0  0  0  0  0  0  0  0  0
    0.9087   -2.2983    0.0000 N   0  0  0  0  0  0  0  0  0  0  0  0
    5.0510   -2.1380    0.0000 C   0  0  0  0  0  0  0  0  0  0  0  0
    3.6345   -2.2716    0.0000 C   0  0  0  0  0  0  0  0  0  0  0  0
    4.9975   -1.3095    0.0000 C   0  0  0  0  0  0  0  0  0  0  0  0
    5.7993   -2.4854    0.0000 C   0  0  0  0  0  0  0  0  0  0  0  0
    4.4096   -2.5923    0.0000 C   0  0  0  0  0  0  0  0  0  0  0  0
    2.9664   -2.7794    0.0000 C   0  0  0  0  0  0  0  0  0  0  0  0
    3.5811   -1.4699    0.0000 C   0  0  0  0  0  0  0  0  0  0  0  0
    1.2293   -1.5500    0.0000 C   0  0  0  0  0  0  0  0  0  0  0  0
    6.4674   -2.0044    0.0000 C   0  0  0  0  0  0  0  0  0  0  0  0
    5.8794   -3.2871    0.0000 C   0  0  0  0  0  0  0  0  0  0  0  0
    7.2692   -3.1535    0.0000 C   0  0  0  0  0  0  0  0  0  0  0  0
    7.2157   -2.3250    0.0000 C   0  0  0  0  0  0  0  0  0  0  0  0
    6.6277   -3.6345    0.0000 C   0  0  0  0  0  0  0  0  0  0  0  0
    0.8285   -0.8285    0.0000 C   0  0  0  0  0  0  0  0  0  0  0  0
    5.5855    0.0000    0.0000 C   0  0  0  0  0  0  0  0  0  0  0  0
  1 19  1  0  0  0  0
  2 11  1  0  0  0  0
  2 23  1  0  0  0  0
  3 22  1  0  0  0  0
  4  6  1  0  0  0  0
  4  7  1  0  0  0  0
  4 14  1  0  0  0  0
  5 11  2  0  0  0  0
  5 15  1  0  0  0  0
  6 16  2  0  0  0  0
  7  8  2  0  0  0  0
  8 16  1  0  0  0  0
  9 11  1  0  0  0  0
  9 12  1  0  0  0  0
  9 13  2  0  0  0  0
 10 13  1  0  0  0  0
 10 14  1  0  0  0  0
 10 15  2  0  0  0  0
 12 17  2  0  0  0  0
 12 18  1  0  0  0  0
 16 22  1  0  0  0  0
 17 20  1  0  0  0  0
 18 21  2  0  0  0  0
 19 20  2  0  0  0  0
 19 21  1  0  0  0  0
M  END
> <PUBCHEM_COMPOUND_ID_TYPE>
0

> <PUBCHEM_TOTAL_CHARGE>
0

> <PUBCHEM_SUBSTANCE_ID>
310936975

> <PUBCHEM_SUBSTANCE_VERSION>
1

> <PUBCHEM_EXT_DATASOURCE_NAME>
4488

> <PUBCHEM_EXT_DATASOURCE_REGID>
SCHEMBL16114678

> <PUBCHEM_SUBSTANCE_COMMENT>
InChI=1S/C15H14FN5O2/c1-23-15-13(11-2-4-12(16)5-3-11)6-10(7-17-15)8-21-19-14(9-22)18-20-21/h2-7,22H,8-9H2,1H3
InChIKey=GIEFYQBIIOWCNO-UHFFFAOYSA-N

> <PUBCHEM_SUBSTANCE_SYNONYM>
SCHEMBL16114678

> <PUBCHEM_XREF_EXT_ID>
SCHEMBL16114678

> <PUBCHEM_EXT_DATASOURCE_URL>
https://www.surechembl.org/

> <PUBCHEM_EXT_SUBSTANCE_URL>
https://www.surechembl.org/chemical/SCHEMBL16114678

> <PUBCHEM_CID_ASSOCIATIONS>
117604840  1

> <PUBCHEM_COORDINATE_TYPE>
1
3

$$$$
