310929031
  -OEChem-07211613022D

 37 40  0     0  0  0  0  0  0999 V2000
    5.6492   -1.2020    0.0000 O   0  0  0  0  0  0  0  0  0  0  0  0
    1.4423   -2.8848    0.0000 O   0  0  0  0  0  0  0  0  0  0  0  0
    2.1235   -1.6427    0.0000 O   0  0  0  0  0  0  0  0  0  0  0  0
   11.2985   -0.3205    0.0000 O   0  0  0  0  0  0  0  0  0  0  0  0
   12.0197   -1.5626    0.0000 O   0  0  0  0  0  0  0  0  0  0  0  0
    2.8447   -2.8848    0.0000 N   0  0  0  0  0  0  0  0  0  0  0  0
    8.4538   -1.1619    0.0000 N   0  0  0  0  0  0  0  0  0  0  0  0
    7.7728   -2.3639    0.0000 N   0  0  0  0  0  0  0  0  0  0  0  0
    4.2469   -1.2420    0.0000 C   0  0  0  0  0  0  0  0  0  0  0  0
    3.5257   -1.6427    0.0000 C   0  0  0  0  0  0  0  0  0  0  0  0
    4.9281   -1.6026    0.0000 C   0  0  0  0  0  0  0  0  0  0  0  0
    3.5257   -2.4440    0.0000 C   0  0  0  0  0  0  0  0  0  0  0  0
    4.9682   -2.4440    0.0000 C   0  0  0  0  0  0  0  0  0  0  0  0
    4.2870   -2.8447    0.0000 C   0  0  0  0  0  0  0  0  0  0  0  0
    4.2469   -0.4007    0.0000 C   0  0  0  0  0  0  0  0  0  0  0  0
    2.8046   -1.2420    0.0000 C   0  0  0  0  0  0  0  0  0  0  0  0
    6.3704   -1.5626    0.0000 C   0  0  0  0  0  0  0  0  0  0  0  0
    7.7728   -1.5626    0.0000 C   0  0  0  0  0  0  0  0  0  0  0  0
    7.0516   -1.1218    0.0000 C   0  0  0  0  0  0  0  0  0  0  0  0
    9.1750   -1.5626    0.0000 C   0  0  0  0  0  0  0  0  0  0  0  0
    3.5257    0.0000    0.0000 C   0  0  0  0  0  0  0  0  0  0  0  0
    2.8046   -0.4407    0.0000 C   0  0  0  0  0  0  0  0  0  0  0  0
    2.1235   -2.4841    0.0000 C   0  0  0  0  0  0  0  0  0  0  0  0
   10.5773   -1.5626    0.0000 C   0  0  0  0  0  0  0  0  0  0  0  0
    6.3704   -2.3639    0.0000 C   0  0  0  0  0  0  0  0  0  0  0  0
    9.8962   -1.1619    0.0000 C   0  0  0  0  0  0  0  0  0  0  0  0
    9.8962   -2.7645    0.0000 C   0  0  0  0  0  0  0  0  0  0  0  0
    9.1750   -2.3639    0.0000 C   0  0  0  0  0  0  0  0  0  0  0  0
   10.5773   -2.3639    0.0000 C   0  0  0  0  0  0  0  0  0  0  0  0
    7.0916   -2.8046    0.0000 C   0  0  0  0  0  0  0  0  0  0  0  0
   11.2985   -1.1619    0.0000 C   0  0  0  0  0  0  0  0  0  0  0  0
    0.7212   -2.4841    0.0000 C   0  0  0  0  0  0  0  0  0  0  0  0
    9.8962   -3.6059    0.0000 C   0  0  0  0  0  0  0  0  0  0  0  0
    0.0000   -2.0834    0.0000 C   0  0  0  0  0  0  0  0  0  0  0  0
    1.1218   -1.7629    0.0000 C   0  0  0  0  0  0  0  0  0  0  0  0
    0.3205   -3.2052    0.0000 C   0  0  0  0  0  0  0  0  0  0  0  0
   10.6174   -4.0066    0.0000 C   0  0  0  0  0  0  0  0  0  0  0  0
  1 11  1  0  0  0  0
  1 17  1  0  0  0  0
  2 23  1  0  0  0  0
  2 32  1  0  0  0  0
  3 23  2  0  0  0  0
  4 31  2  0  0  0  0
  5 31  1  0  0  0  0
  6 12  1  0  0  0  0
  6 23  1  0  0  0  0
  7 18  1  0  0  0  0
  7 20  1  0  0  0  0
  8 18  1  0  0  0  0
  8 30  2  0  0  0  0
  9 10  2  0  0  0  0
  9 11  1  0  0  0  0
  9 15  1  0  0  0  0
 10 12  1  0  0  0  0
 10 16  1  0  0  0  0
 11 13  2  0  0  0  0
 12 14  2  0  0  0  0
 13 14  1  0  0  0  0
 15 21  2  0  0  0  0
 16 22  2  0  0  0  0
 17 19  1  0  0  0  0
 17 25  2  0  0  0  0
 18 19  2  0  0  0  0
 20 26  1  0  0  0  0
 20 28  2  0  0  0  0
 21 22  1  0  0  0  0
 24 26  2  0  0  0  0
 24 29  1  0  0  0  0
 24 31  1  0  0  0  0
 25 30  1  0  0  0  0
 27 28  1  0  0  0  0
 27 29  2  0  0  0  0
 27 33  1  0  0  0  0
 32 34  1  0  0  0  0
 32 35  1  0  0  0  0
 32 36  1  0  0  0  0
 33 37  3  0  0  0  0
M  END
> <PUBCHEM_COMPOUND_ID_TYPE>
0

> <PUBCHEM_TOTAL_CHARGE>
0

> <PUBCHEM_SUBSTANCE_ID>
310929031

> <PUBCHEM_SUBSTANCE_VERSION>
1

> <PUBCHEM_EXT_DATASOURCE_NAME>
4488

> <PUBCHEM_EXT_DATASOURCE_REGID>
SCHEMBL16106193

> <PUBCHEM_SUBSTANCE_COMMENT>
InChI=1S/C29H25N3O5/c1-5-18-14-19(27(33)34)16-20(15-18)31-26-17-21(12-13-30-26)36-25-11-10-24(22-8-6-7-9-23(22)25)32-28(35)37-29(2,3)4/h1,6-17H,2-4H3,(H,30,31)(H,32,35)(H,33,34)
InChIKey=WYJPYIJJAAJOMN-UHFFFAOYSA-N

> <PUBCHEM_SUBSTANCE_SYNONYM>
SCHEMBL16106193

> <PUBCHEM_XREF_EXT_ID>
SCHEMBL16106193

> <PUBCHEM_EXT_DATASOURCE_URL>
https://www.surechembl.org/

> <PUBCHEM_EXT_SUBSTANCE_URL>
https://www.surechembl.org/chemical/SCHEMBL16106193

> <PUBCHEM_CID_ASSOCIATIONS>
117598550  1

> <PUBCHEM_COORDINATE_TYPE>
1
3

$$$$
