310934572
  -OEChem-07211613022D

 32 34  0     1  0  0  0  0  0999 V2000
    5.5926    1.2375    0.0000 S   0  0  0  0  0  0  0  0  0  0  0  0
    2.0202    2.4750    0.0000 O   0  0  0  0  0  0  0  0  0  0  0  0
    2.7346    2.8875    0.0000 O   0  0  0  0  0  0  0  0  0  0  0  0
    4.1636    2.8875    0.0000 O   0  0  0  0  0  0  0  0  0  0  0  0
    2.7346    1.2375    0.0000 N   0  0  0  0  0  0  0  0  0  0  0  0
   -1.5522    0.4125    0.0000 N   0  0  0  0  0  0  0  0  0  0  0  0
   -3.7348    0.0770    0.0000 N   0  0  0  0  0  0  0  0  0  0  0  0
   -3.8743    1.4045    0.0000 N   0  0  0  0  0  0  0  0  0  0  0  0
    1.3057    0.4125    0.0000 C   0  0  0  0  0  0  0  0  0  0  0  0
    1.3057    1.2375    0.0000 C   0  0  0  0  0  0  0  0  0  0  0  0
    2.0202    0.0000    0.0000 C   0  0  0  0  0  0  0  0  0  0  0  0
    2.0202    1.6500    0.0000 C   0  0  0  0  0  0  0  0  0  0  0  0
    0.5912    0.0000    0.0000 C   0  0  0  0  0  0  0  0  0  0  0  0
   -0.1232    0.4125    0.0000 C   0  0  0  0  0  0  0  0  0  0  0  0
    0.5912    1.6500    0.0000 C   0  0  0  0  0  0  0  0  0  0  0  0
    2.0202   -0.8250    0.0000 C   0  0  0  0  0  0  0  0  0  0  0  0
   -0.1232    1.2375    0.0000 C   0  0  0  0  0  0  0  0  0  0  0  0
    2.7346    0.4125    0.0000 C   0  0  0  0  0  0  0  0  0  0  0  0
    3.4491    1.6500    0.0000 C   0  0  3  0  0  0  0  0  0  0  0  0
    2.7346   -1.2375    0.0000 C   0  0  0  0  0  0  0  0  0  0  0  0
   -0.8377    0.0000    0.0000 C   0  0  0  0  0  0  0  0  0  0  0  0
    3.4491    0.0000    0.0000 C   0  0  0  0  0  0  0  0  0  0  0  0
    3.4491   -0.8250    0.0000 C   0  0  0  0  0  0  0  0  0  0  0  0
    3.4491    2.4750    0.0000 C   0  0  0  0  0  0  0  0  0  0  0  0
    1.3057   -1.2375    0.0000 C   0  0  0  0  0  0  0  0  0  0  0  0
    4.1636    1.2375    0.0000 C   0  0  0  0  0  0  0  0  0  0  0  0
   -2.9811    0.4125    0.0000 C   0  0  0  0  0  0  0  0  0  0  0  0
   -2.2666    0.0000    0.0000 C   0  0  0  0  0  0  0  0  0  0  0  0
    4.8780    1.6500    0.0000 C   0  0  0  0  0  0  0  0  0  0  0  0
   -3.0673    1.2330    0.0000 C   0  0  0  0  0  0  0  0  0  0  0  0
   -4.2868    0.6901    0.0000 C   0  0  0  0  0  0  0  0  0  0  0  0
    6.3070    1.6500    0.0000 C   0  0  0  0  0  0  0  0  0  0  0  0
  1 29  1  0  0  0  0
  1 32  1  0  0  0  0
  2 12  2  0  0  0  0
  3 24  2  0  0  0  0
  4 24  1  0  0  0  0
  5 12  1  0  0  0  0
 19  5  1  1  0  0  0
  6 21  1  0  0  0  0
  6 28  1  0  0  0  0
  7 27  1  0  0  0  0
  7 31  1  0  0  0  0
  8 30  1  0  0  0  0
  8 31  2  0  0  0  0
  9 10  1  0  0  0  0
  9 11  1  0  0  0  0
  9 13  2  0  0  0  0
 10 12  1  0  0  0  0
 10 15  2  0  0  0  0
 11 16  1  0  0  0  0
 11 18  2  0  0  0  0
 13 14  1  0  0  0  0
 14 17  2  0  0  0  0
 14 21  1  0  0  0  0
 15 17  1  0  0  0  0
 16 20  2  0  0  0  0
 16 25  1  0  0  0  0
 18 22  1  0  0  0  0
 19 24  1  0  0  0  0
 19 26  1  0  0  0  0
 20 23  1  0  0  0  0
 22 23  2  0  0  0  0
 26 29  1  0  0  0  0
 27 28  1  0  0  0  0
 27 30  2  0  0  0  0
M  END
> <PUBCHEM_COMPOUND_ID_TYPE>
0

> <PUBCHEM_TOTAL_CHARGE>
0

> <PUBCHEM_SUBSTANCE_ID>
310934572

> <PUBCHEM_SUBSTANCE_VERSION>
1

> <PUBCHEM_EXT_DATASOURCE_NAME>
4488

> <PUBCHEM_EXT_DATASOURCE_REGID>
SCHEMBL16112063

> <PUBCHEM_SUBSTANCE_COMMENT>
InChI=1S/C24H28N4O3S/c1-16-5-3-4-6-19(16)21-11-17(12-25-13-18-14-26-15-27-18)7-8-20(21)23(29)28-22(24(30)31)9-10-32-2/h3-8,11,14-15,22,25H,9-10,12-13H2,1-2H3,(H,26,27)(H,28,29)(H,30,31)/t22-/m1/s1
InChIKey=KULAYTGUTXCHSV-JOCHJYFZSA-N

> <PUBCHEM_SUBSTANCE_SYNONYM>
SCHEMBL16112063

> <PUBCHEM_XREF_EXT_ID>
SCHEMBL16112063

> <PUBCHEM_EXT_DATASOURCE_URL>
https://www.surechembl.org/

> <PUBCHEM_EXT_SUBSTANCE_URL>
https://www.surechembl.org/chemical/SCHEMBL16112063

> <PUBCHEM_CID_ASSOCIATIONS>
9933592  1

> <PUBCHEM_COORDINATE_TYPE>
1
3

> <PUBCHEM_BONDANNOTATIONS>
19  5  5

$$$$
