310938785
  -OEChem-07211613022D

 10 10  0     0  0  0  0  0  0999 V2000
   -3.0975    2.0459    0.0000 N   0  0  0  0  0  0  0  0  0  0  0  0
   -3.8119    2.4584    0.0000 N   0  0  0  0  0  0  0  0  0  0  0  0
   -0.9541    1.6334    0.0000 N   0  0  0  0  0  0  0  0  0  0  0  0
   -3.0975    1.2209    0.0000 C   0  0  0  0  0  0  0  0  0  0  0  0
   -4.5264    2.0459    0.0000 C   0  0  0  0  0  0  0  0  0  0  0  0
   -3.8119    0.8084    0.0000 C   0  0  0  0  0  0  0  0  0  0  0  0
   -4.5264    1.2209    0.0000 C   0  0  0  0  0  0  0  0  0  0  0  0
   -2.3830    0.8084    0.0000 C   0  0  0  0  0  0  0  0  0  0  0  0
   -5.2409    2.4584    0.0000 C   0  0  0  0  0  0  0  0  0  0  0  0
   -1.6685    1.2209    0.0000 C   0  0  0  0  0  0  0  0  0  0  0  0
  1  2  2  0  0  0  0
  1  4  1  0  0  0  0
  2  5  1  0  0  0  0
  3 10  3  0  0  0  0
  4  6  2  0  0  0  0
  4  8  1  0  0  0  0
  5  7  2  0  0  0  0
  5  9  1  0  0  0  0
  6  7  1  0  0  0  0
  8 10  1  0  0  0  0
M  END
> <PUBCHEM_COMPOUND_ID_TYPE>
0

> <PUBCHEM_TOTAL_CHARGE>
0

> <PUBCHEM_SUBSTANCE_ID>
310938785

> <PUBCHEM_SUBSTANCE_VERSION>
1

> <PUBCHEM_EXT_DATASOURCE_NAME>
4488

> <PUBCHEM_EXT_DATASOURCE_REGID>
SCHEMBL16116701

> <PUBCHEM_SUBSTANCE_COMMENT>
InChI=1S/C7H7N3/c1-6-2-3-7(4-5-8)10-9-6/h2-3H,4H2,1H3
InChIKey=SUBUNYSLMCHRAG-UHFFFAOYSA-N

> <PUBCHEM_SUBSTANCE_SYNONYM>
SCHEMBL16116701

> <PUBCHEM_XREF_EXT_ID>
SCHEMBL16116701

> <PUBCHEM_EXT_DATASOURCE_URL>
https://www.surechembl.org/

> <PUBCHEM_EXT_SUBSTANCE_URL>
https://www.surechembl.org/chemical/SCHEMBL16116701

> <PUBCHEM_CID_ASSOCIATIONS>
63204030  1

> <PUBCHEM_COORDINATE_TYPE>
1
3

$$$$
