310947232
  -OEChem-07211613022D

 12 11  0     0  0  0  0  0  0999 V2000
   -1.1128    2.3423    0.0000 O   0  0  0  0  0  0  0  0  0  0  0  0
    1.2319    2.3423    0.0000 O   0  0  0  0  0  0  0  0  0  0  0  0
   -2.6239    2.3423    0.0000 N   0  0  0  0  0  0  0  0  0  0  0  0
    2.7430    2.3423    0.0000 N   0  0  0  0  0  0  0  0  0  0  0  0
   -1.9464    2.3423    0.0000 C   0  0  0  0  0  0  0  0  0  0  0  0
    1.9095    2.3423    0.0000 C   0  0  0  0  0  0  0  0  0  0  0  0
   -0.4353    2.3423    0.0000 C   0  0  0  0  0  0  0  0  0  0  0  0
    0.3983    2.3423    0.0000 C   0  0  0  0  0  0  0  0  0  0  0  0
   -3.2107    2.6810    0.0000 C   0  0  0  0  0  0  0  0  0  0  0  0
   -3.3298    1.9320    0.0000 C   0  0  0  0  0  0  0  0  0  0  0  0
    3.3298    2.0035    0.0000 C   0  0  0  0  0  0  0  0  0  0  0  0
    3.3298    2.6810    0.0000 C   0  0  0  0  0  0  0  0  0  0  0  0
  1  5  1  0  0  0  0
  1  7  1  0  0  0  0
  2  6  1  0  0  0  0
  2  8  1  0  0  0  0
  3  5  1  0  0  0  0
  3  9  1  0  0  0  0
  3 10  1  0  0  0  0
  4  6  1  0  0  0  0
  4 11  1  0  0  0  0
  4 12  1  0  0  0  0
  7  8  1  0  0  0  0
M  END
> <PUBCHEM_COMPOUND_ID_TYPE>
0

> <PUBCHEM_TOTAL_CHARGE>
0

> <PUBCHEM_SUBSTANCE_ID>
310947232

> <PUBCHEM_SUBSTANCE_VERSION>
1

> <PUBCHEM_EXT_DATASOURCE_NAME>
4488

> <PUBCHEM_EXT_DATASOURCE_REGID>
SCHEMBL16125387

> <PUBCHEM_SUBSTANCE_COMMENT>
InChI=1S/C8H20N2O2/c1-9(2)7-11-5-6-12-8-10(3)4/h5-8H2,1-4H3
InChIKey=IFXXVXAKBTZDGM-UHFFFAOYSA-N

> <PUBCHEM_SUBSTANCE_SYNONYM>
SCHEMBL16125387

> <PUBCHEM_XREF_EXT_ID>
SCHEMBL16125387

> <PUBCHEM_EXT_DATASOURCE_URL>
https://www.surechembl.org/

> <PUBCHEM_EXT_SUBSTANCE_URL>
https://www.surechembl.org/chemical/SCHEMBL16125387

> <PUBCHEM_CID_ASSOCIATIONS>
117613047  1

> <PUBCHEM_COORDINATE_TYPE>
1
3

$$$$
