310943390
  -OEChem-07211613022D

 36 39  0     0  0  0  0  0  0999 V2000
    4.2684   -2.4681    0.0000 F   0  0  0  0  0  0  0  0  0  0  0  0
   -2.8311    0.0000    0.0000 O   0  0  0  0  0  0  0  0  0  0  0  0
   -4.2684    2.4536    0.0000 O   0  0  0  0  0  0  0  0  0  0  0  0
    1.4228   -0.0145    0.0000 O   0  0  0  0  0  0  0  0  0  0  0  0
   -3.5425   -2.0616    0.0000 O   0  0  0  0  0  0  0  0  0  0  0  0
   -2.8455    1.6406    0.0000 N   0  0  0  0  0  0  0  0  0  0  0  0
   -1.4228    0.0000    0.0000 N   0  0  0  0  0  0  0  0  0  0  0  0
    0.7114    2.8746    0.0000 N   0  0  0  0  0  0  0  0  0  0  0  0
    2.1342    1.2341    0.0000 N   0  0  0  0  0  0  0  0  0  0  0  0
    4.2684   -0.8275    0.0000 N   0  0  0  0  0  0  0  0  0  0  0  0
   -0.6968    1.2341    0.0000 C   0  0  0  0  0  0  0  0  0  0  0  0
   -0.0145    1.6406    0.0000 C   0  0  0  0  0  0  0  0  0  0  0  0
   -2.1197    1.2341    0.0000 C   0  0  0  0  0  0  0  0  0  0  0  0
   -2.1342    0.4065    0.0000 C   0  0  0  0  0  0  0  0  0  0  0  0
   -1.4373    1.6406    0.0000 C   0  0  0  0  0  0  0  0  0  0  0  0
    0.0000    2.4681    0.0000 C   0  0  0  0  0  0  0  0  0  0  0  0
    0.7114    1.2341    0.0000 C   0  0  0  0  0  0  0  0  0  0  0  0
    1.4083    1.6406    0.0000 C   0  0  0  0  0  0  0  0  0  0  0  0
   -0.7114    0.4065    0.0000 C   0  0  0  0  0  0  0  0  0  0  0  0
    2.8455    0.0000    0.0000 C   0  0  0  0  0  0  0  0  0  0  0  0
    2.1342    0.4210    0.0000 C   0  0  0  0  0  0  0  0  0  0  0  0
    3.5570   -1.2341    0.0000 C   0  0  0  0  0  0  0  0  0  0  0  0
    1.4228    2.4536    0.0000 C   0  0  0  0  0  0  0  0  0  0  0  0
    3.5425   -2.0761    0.0000 C   0  0  0  0  0  0  0  0  0  0  0  0
    2.8455   -0.8275    0.0000 C   0  0  0  0  0  0  0  0  0  0  0  0
   -2.8455    2.4536    0.0000 C   0  0  0  0  0  0  0  0  0  0  0  0
   -3.5425    1.2341    0.0000 C   0  0  0  0  0  0  0  0  0  0  0  0
    3.5570    0.4065    0.0000 C   0  0  0  0  0  0  0  0  0  0  0  0
   -0.7259    2.8601    0.0000 C   0  0  0  0  0  0  0  0  0  0  0  0
    4.2684   -0.0145    0.0000 C   0  0  0  0  0  0  0  0  0  0  0  0
   -3.5715    2.8746    0.0000 C   0  0  0  0  0  0  0  0  0  0  0  0
   -4.2684    1.6406    0.0000 C   0  0  0  0  0  0  0  0  0  0  0  0
   -2.8455   -0.8275    0.0000 C   0  0  0  0  0  0  0  0  0  0  0  0
    2.8311   -2.4826    0.0000 C   0  0  0  0  0  0  0  0  0  0  0  0
    3.3682   -2.8746    0.0000 C   0  0  0  0  0  0  0  0  0  0  0  0
   -3.5279   -1.2195    0.0000 C   0  0  0  0  0  0  0  0  0  0  0  0
  1 24  1  0  0  0  0
  2 14  1  0  0  0  0
  2 33  1  0  0  0  0
  3 31  1  0  0  0  0
  3 32  1  0  0  0  0
  4 21  2  0  0  0  0
  5 36  1  0  0  0  0
  6 13  1  0  0  0  0
  6 26  1  0  0  0  0
  6 27  1  0  0  0  0
  7 14  2  0  0  0  0
  7 19  1  0  0  0  0
  8 16  1  0  0  0  0
  8 23  2  0  0  0  0
  9 18  1  0  0  0  0
  9 21  1  0  0  0  0
 10 22  2  0  0  0  0
 10 30  1  0  0  0  0
 11 12  1  0  0  0  0
 11 15  1  0  0  0  0
 11 19  2  0  0  0  0
 12 16  2  0  0  0  0
 12 17  1  0  0  0  0
 13 14  1  0  0  0  0
 13 15  2  0  0  0  0
 16 29  1  0  0  0  0
 17 18  2  0  0  0  0
 18 23  1  0  0  0  0
 20 21  1  0  0  0  0
 20 25  2  0  0  0  0
 20 28  1  0  0  0  0
 22 24  1  0  0  0  0
 22 25  1  0  0  0  0
 24 34  1  0  0  0  0
 24 35  1  0  0  0  0
 26 31  1  0  0  0  0
 27 32  1  0  0  0  0
 28 30  2  0  0  0  0
 33 36  1  0  0  0  0
M  END
> <PUBCHEM_COMPOUND_ID_TYPE>
0

> <PUBCHEM_TOTAL_CHARGE>
0

> <PUBCHEM_SUBSTANCE_ID>
310943390

> <PUBCHEM_SUBSTANCE_VERSION>
1

> <PUBCHEM_EXT_DATASOURCE_NAME>
4488

> <PUBCHEM_EXT_DATASOURCE_REGID>
SCHEMBL16121453

> <PUBCHEM_SUBSTANCE_COMMENT>
InChI=1S/C26H30FN5O4/c1-17-21(19-12-22(32-6-9-35-10-7-32)25(30-15-19)36-11-8-33)14-20(16-29-17)31-24(34)18-4-5-28-23(13-18)26(2,3)27/h4-5,12-16,33H,6-11H2,1-3H3,(H,31,34)
InChIKey=IQMIDCUMDOPUNC-UHFFFAOYSA-N

> <PUBCHEM_SUBSTANCE_SYNONYM>
SCHEMBL16121453

> <PUBCHEM_XREF_EXT_ID>
SCHEMBL16121453

> <PUBCHEM_EXT_DATASOURCE_URL>
https://www.surechembl.org/

> <PUBCHEM_EXT_SUBSTANCE_URL>
https://www.surechembl.org/chemical/SCHEMBL16121453

> <PUBCHEM_CID_ASSOCIATIONS>
117609814  1

> <PUBCHEM_COORDINATE_TYPE>
1
3

$$$$
