310946120
  -OEChem-07211613022D

 10  9  0     0  0  0  0  0  0999 V2000
   -0.7761    3.5578    0.0000 O   0  0  0  0  0  0  0  0  0  0  0  0
   -2.2050    3.5578    0.0000 O   0  0  0  0  0  0  0  0  0  0  0  0
   -1.4906    4.7953    0.0000 O   0  0  0  0  0  0  0  0  0  0  0  0
    2.7963    4.7953    0.0000 O   0  0  0  0  0  0  0  0  0  0  0  0
    1.3673    3.9703    0.0000 N   0  0  0  0  0  0  0  0  0  0  0  0
   -1.4906    3.9703    0.0000 C   0  0  0  0  0  0  0  0  0  0  0  0
   -0.0616    3.9703    0.0000 C   0  0  0  0  0  0  0  0  0  0  0  0
    0.6528    3.5578    0.0000 C   0  0  0  0  0  0  0  0  0  0  0  0
   -2.9195    3.9703    0.0000 C   0  0  0  0  0  0  0  0  0  0  0  0
    2.0818    4.3828    0.0000 C   0  0  0  0  0  0  0  0  0  0  0  0
  1  6  1  0  0  0  0
  1  7  1  0  0  0  0
  2  6  1  0  0  0  0
  2  9  1  0  0  0  0
  3  6  2  0  0  0  0
  4 10  2  0  0  0  0
  5  8  1  0  0  0  0
  5 10  2  0  0  0  0
  7  8  1  0  0  0  0
M  END
> <PUBCHEM_COMPOUND_ID_TYPE>
0

> <PUBCHEM_TOTAL_CHARGE>
0

> <PUBCHEM_SUBSTANCE_ID>
310946120

> <PUBCHEM_SUBSTANCE_VERSION>
1

> <PUBCHEM_EXT_DATASOURCE_NAME>
4488

> <PUBCHEM_EXT_DATASOURCE_REGID>
SCHEMBL16124229

> <PUBCHEM_SUBSTANCE_COMMENT>
InChI=1S/C5H7NO4/c1-9-5(8)10-3-2-6-4-7/h2-3H2,1H3
InChIKey=IWFCXFDZLBYTFR-UHFFFAOYSA-N

> <PUBCHEM_SUBSTANCE_SYNONYM>
SCHEMBL16124229

> <PUBCHEM_XREF_EXT_ID>
SCHEMBL16124229

> <PUBCHEM_EXT_DATASOURCE_URL>
https://www.surechembl.org/

> <PUBCHEM_EXT_SUBSTANCE_URL>
https://www.surechembl.org/chemical/SCHEMBL16124229

> <PUBCHEM_CID_ASSOCIATIONS>
15480515  1

> <PUBCHEM_COORDINATE_TYPE>
1
3

$$$$
