310946046
  -OEChem-07211613022D

 40 42  0     1  0  0  0  0  0999 V2000
    4.7026    0.6669    0.0000 O   0  0  0  0  0  0  0  0  0  0  0  0
    3.5751   -1.2856    0.0000 O   0  0  0  0  0  0  0  0  0  0  0  0
    1.4301    0.7769    0.0000 O   0  0  0  0  0  0  0  0  0  0  0  0
   -0.7150   -1.2856    0.0000 O   0  0  0  0  0  0  0  0  0  0  0  0
    3.5751   -2.9220    0.0000 O   0  0  0  0  0  0  0  0  0  0  0  0
   -2.8601    0.7769    0.0000 O   0  0  0  0  0  0  0  0  0  0  0  0
   -5.0051    0.3644    0.0000 O   0  0  0  0  0  0  0  0  0  0  0  0
    2.1588   -0.4469    0.0000 N   0  0  0  0  0  0  0  0  0  0  0  0
    0.0000   -0.0344    0.0000 N   0  0  0  0  0  0  0  0  0  0  0  0
   -2.1450   -0.4469    0.0000 N   0  0  0  0  0  0  0  0  0  0  0  0
    4.2901   -0.0069    0.0000 C   0  0  3  0  0  0  0  0  0  0  0  0
    3.5751   -0.4194    0.0000 C   0  0  0  0  0  0  0  0  0  0  0  0
    3.9051    0.6806    0.0000 C   0  0  0  0  0  0  0  0  0  0  0  0
    2.8738   -0.0206    0.0000 C   0  0  3  0  0  0  0  0  0  0  0  0
    5.0051   -0.4194    0.0000 C   0  0  0  0  0  0  0  0  0  0  0  0
    2.8738    1.2856    0.0000 C   0  0  0  0  0  0  0  0  0  0  0  0
    1.4301   -0.0344    0.0000 C   0  0  0  0  0  0  0  0  0  0  0  0
    0.7425   -0.4194    0.0000 C   0  0  3  0  0  0  0  0  0  0  0  0
    2.1588    1.7119    0.0000 C   0  0  0  0  0  0  0  0  0  0  0  0
    0.7150   -1.2719    0.0000 C   0  0  0  0  0  0  0  0  0  0  0  0
    1.4438   -1.6569    0.0000 C   0  0  0  0  0  0  0  0  0  0  0  0
   -0.7012   -0.4056    0.0000 C   0  0  0  0  0  0  0  0  0  0  0  0
    1.4438    1.2994    0.0000 C   0  0  0  0  0  0  0  0  0  0  0  0
    2.1588    2.5094    0.0000 C   0  0  0  0  0  0  0  0  0  0  0  0
   -1.4301   -0.0206    0.0000 C   0  0  3  0  0  0  0  0  0  0  0  0
    2.1450   -1.2719    0.0000 C   0  0  0  0  0  0  0  0  0  0  0  0
    1.4575   -2.4957    0.0000 C   0  0  0  0  0  0  0  0  0  0  0  0
    0.7425    1.6982    0.0000 C   0  0  0  0  0  0  0  0  0  0  0  0
    1.4301    2.9220    0.0000 C   0  0  0  0  0  0  0  0  0  0  0  0
    2.8738   -2.4820    0.0000 C   0  0  0  0  0  0  0  0  0  0  0  0
    2.8738   -1.6707    0.0000 C   0  0  0  0  0  0  0  0  0  0  0  0
    2.1588   -2.8945    0.0000 C   0  0  0  0  0  0  0  0  0  0  0  0
   -2.8601   -0.0344    0.0000 C   0  0  0  0  0  0  0  0  0  0  0  0
    0.7425    2.5232    0.0000 C   0  0  0  0  0  0  0  0  0  0  0  0
   -3.5476   -0.4194    0.0000 C   0  0  0  0  0  0  0  0  0  0  0  0
   -4.3039   -0.0069    0.0000 C   0  0  0  0  0  0  0  0  0  0  0  0
   -1.4301    0.7907    0.0000 C   0  0  0  0  0  0  0  0  0  0  0  0
   -5.0051   -0.4469    0.0000 C   0  0  0  0  0  0  0  0  0  0  0  0
   -4.2763    0.8182    0.0000 C   0  0  0  0  0  0  0  0  0  0  0  0
    4.2901   -2.4820    0.0000 C   0  0  0  0  0  0  0  0  0  0  0  0
  1 11  1  0  0  0  0
  1 13  1  0  0  0  0
  2 12  2  0  0  0  0
  3 17  2  0  0  0  0
  4 22  2  0  0  0  0
  5 30  1  0  0  0  0
  5 40  1  0  0  0  0
  6 33  2  0  0  0  0
  7 36  1  0  0  0  0
 14  8  1  1  0  0  0
  8 17  1  0  0  0  0
 18  9  1  6  0  0  0
  9 22  1  0  0  0  0
 10 25  1  0  0  0  0
 10 33  1  0  0  0  0
 11 12  1  1  0  0  0
 11 13  1  0  0  0  0
 11 15  1  6  0  0  0
 12 14  1  0  0  0  0
 14 16  1  0  0  0  0
 16 19  1  0  0  0  0
 17 18  1  0  0  0  0
 18 20  1  0  0  0  0
 19 23  2  0  0  0  0
 19 24  1  0  0  0  0
 20 21  1  0  0  0  0
 21 26  2  0  0  0  0
 21 27  1  0  0  0  0
 22 25  1  0  0  0  0
 23 28  1  0  0  0  0
 24 29  2  0  0  0  0
 25 37  1  6  0  0  0
 26 31  1  0  0  0  0
 27 32  2  0  0  0  0
 28 34  2  0  0  0  0
 29 34  1  0  0  0  0
 30 31  2  0  0  0  0
 30 32  1  0  0  0  0
 33 35  1  0  0  0  0
 35 36  1  0  0  0  0
 36 38  1  0  0  0  0
 36 39  1  0  0  0  0
M  END
> <PUBCHEM_COMPOUND_ID_TYPE>
0

> <PUBCHEM_TOTAL_CHARGE>
0

> <PUBCHEM_SUBSTANCE_ID>
310946046

> <PUBCHEM_SUBSTANCE_VERSION>
1

> <PUBCHEM_EXT_DATASOURCE_NAME>
4488

> <PUBCHEM_EXT_DATASOURCE_REGID>
SCHEMBL16124152

> <PUBCHEM_SUBSTANCE_COMMENT>
InChI=1S/C30H39N3O7/c1-19(31-25(34)17-29(2,3)38)27(36)33-24(16-21-11-13-22(39-5)14-12-21)28(37)32-23(26(35)30(4)18-40-30)15-20-9-7-6-8-10-20/h6-14,19,23-24,38H,15-18H2,1-5H3,(H,31,34)(H,32,37)(H,33,36)/t19-,23+,24+,30-/m1/s1
InChIKey=BXPUATCUOXVIAI-LLUDFKRASA-N

> <PUBCHEM_SUBSTANCE_SYNONYM>
SCHEMBL16124152

> <PUBCHEM_XREF_EXT_ID>
SCHEMBL16124152

> <PUBCHEM_EXT_DATASOURCE_URL>
https://www.surechembl.org/

> <PUBCHEM_EXT_SUBSTANCE_URL>
https://www.surechembl.org/chemical/SCHEMBL16124152

> <PUBCHEM_CID_ASSOCIATIONS>
117612017  1

> <PUBCHEM_COORDINATE_TYPE>
1
3

> <PUBCHEM_BONDANNOTATIONS>
11  12  5
11  15  6
25  37  6
14  8  5
18  9  6

$$$$
