310945111
  -OEChem-07211613022D

 24 24  0     0  0  0  0  0  0999 V2000
    2.8801    1.1133    0.0000 Br  0  0  0  0  0  0  0  0  0  0  0  0
    0.0099   -0.5693    0.0000 O   0  0  0  0  0  0  0  0  0  0  0  0
   -0.8485   -2.3899    0.0000 O   0  0  0  0  0  0  0  0  0  0  0  0
   -0.7225    2.3603    0.0000 O   0  0  0  0  0  0  0  0  0  0  0  0
   -1.3481   -3.2115    0.0000 O   0  0  0  0  0  0  0  0  0  0  0  0
    0.0099    1.1133    0.0000 N   0  0  0  0  0  0  0  0  0  0  0  0
   -2.8801   -0.5693    0.0000 N   0  0  0  0  0  0  0  0  0  0  0  0
    0.7225    0.6975    0.0000 C   0  0  0  0  0  0  0  0  0  0  0  0
    0.7225   -0.1338    0.0000 C   0  0  0  0  0  0  0  0  0  0  0  0
    1.4153    1.0935    0.0000 C   0  0  0  0  0  0  0  0  0  0  0  0
    2.1675    0.6975    0.0000 C   0  0  0  0  0  0  0  0  0  0  0  0
    1.4549   -0.5495    0.0000 C   0  0  0  0  0  0  0  0  0  0  0  0
    2.1675   -0.1536    0.0000 C   0  0  0  0  0  0  0  0  0  0  0  0
    0.0099    1.9447    0.0000 C   0  0  0  0  0  0  0  0  0  0  0  0
   -0.8374   -1.8349    0.0000 C   0  0  0  0  0  0  0  0  0  0  0  0
   -0.7225   -0.1536    0.0000 C   0  0  0  0  0  0  0  0  0  0  0  0
   -1.3481   -2.6786    0.0000 C   0  0  0  0  0  0  0  0  0  0  0  0
   -1.4351   -0.5693    0.0000 C   0  0  0  0  0  0  0  0  0  0  0  0
    0.7027    2.3603    0.0000 C   0  0  0  0  0  0  0  0  0  0  0  0
   -2.1675   -0.1536    0.0000 C   0  0  0  0  0  0  0  0  0  0  0  0
   -0.3378   -1.8127    0.0000 C   0  0  0  0  0  0  0  0  0  0  0  0
   -1.3481   -1.8349    0.0000 C   0  0  0  0  0  0  0  0  0  0  0  0
   -0.8485   -1.2909    0.0000 C   0  0  0  0  0  0  0  0  0  0  0  0
    0.6235    3.2115    0.0000 C   0  0  0  0  0  0  0  0  0  0  0  0
  1 11  1  0  0  0  0
  2  9  1  0  0  0  0
  2 16  1  0  0  0  0
  3 15  1  0  0  0  0
  3 17  1  0  0  0  0
  4 14  2  0  0  0  0
  5 17  2  0  0  0  0
  6  8  1  0  0  0  0
  6 14  1  0  0  0  0
  7 17  1  0  0  0  0
  7 20  1  0  0  0  0
  8  9  2  0  0  0  0
  8 10  1  0  0  0  0
  9 12  1  0  0  0  0
 10 11  2  0  0  0  0
 11 13  1  0  0  0  0
 12 13  2  0  0  0  0
 14 19  1  0  0  0  0
 15 21  1  0  0  0  0
 15 22  1  0  0  0  0
 15 23  1  0  0  0  0
 16 18  1  0  0  0  0
 18 20  1  0  0  0  0
 19 24  2  0  0  0  0
M  END
> <PUBCHEM_COMPOUND_ID_TYPE>
0

> <PUBCHEM_TOTAL_CHARGE>
0

> <PUBCHEM_SUBSTANCE_ID>
310945111

> <PUBCHEM_SUBSTANCE_VERSION>
1

> <PUBCHEM_EXT_DATASOURCE_NAME>
4488

> <PUBCHEM_EXT_DATASOURCE_REGID>
SCHEMBL16123201

> <PUBCHEM_SUBSTANCE_COMMENT>
InChI=1S/C17H23BrN2O4/c1-5-15(21)20-13-11-12(18)7-8-14(13)23-10-6-9-19-16(22)24-17(2,3)4/h5,7-8,11H,1,6,9-10H2,2-4H3,(H,19,22)(H,20,21)
InChIKey=HMJPFXNRHKSRRS-UHFFFAOYSA-N

> <PUBCHEM_SUBSTANCE_SYNONYM>
SCHEMBL16123201

> <PUBCHEM_XREF_EXT_ID>
SCHEMBL16123201

> <PUBCHEM_EXT_DATASOURCE_URL>
https://www.surechembl.org/

> <PUBCHEM_EXT_SUBSTANCE_URL>
https://www.surechembl.org/chemical/SCHEMBL16123201

> <PUBCHEM_CID_ASSOCIATIONS>
117611207  1

> <PUBCHEM_COORDINATE_TYPE>
1
3

$$$$
