310940077
  -OEChem-07211613022D

 22 25  0     1  0  0  0  0  0999 V2000
    3.3238    0.9685    0.0000 O   0  0  0  0  0  0  0  0  0  0  0  0
    3.8210   -0.4354    0.0000 O   0  0  0  0  0  0  0  0  0  0  0  0
   -0.4569    0.6910    0.0000 O   0  0  0  0  0  0  0  0  0  0  0  0
   -1.2819   -0.7380    0.0000 N   0  0  3  0  0  0  0  0  0  0  0  0
   -3.3360   -1.4054    0.0000 N   0  0  0  0  0  0  0  0  0  0  0  0
    2.0181    0.6910    0.0000 C   0  0  0  0  0  0  0  0  0  0  0  0
    2.4306   -0.0235    0.0000 C   0  0  0  0  0  0  0  0  0  0  0  0
    1.1931    0.6910    0.0000 C   0  0  0  0  0  0  0  0  0  0  0  0
    0.7806   -0.0235    0.0000 C   0  0  0  0  0  0  0  0  0  0  0  0
    3.2376    0.1480    0.0000 C   0  0  0  0  0  0  0  0  0  0  0  0
   -0.0444   -0.0235    0.0000 C   0  0  3  0  0  0  0  0  0  0  0  0
    2.0181   -0.7380    0.0000 C   0  0  0  0  0  0  0  0  0  0  0  0
    2.5702    1.3040    0.0000 C   0  0  0  0  0  0  0  0  0  0  0  0
   -2.5514   -1.1505    0.0000 C   0  0  3  0  0  0  0  0  0  0  0  0
   -2.5514   -0.3255    0.0000 C   0  0  3  0  0  0  0  0  0  0  0  0
    1.1931   -0.7380    0.0000 C   0  0  0  0  0  0  0  0  0  0  0  0
   -0.4569   -0.7380    0.0000 C   0  0  0  0  0  0  0  0  0  0  0  0
   -1.7668   -1.4054    0.0000 C   0  0  0  0  0  0  0  0  0  0  0  0
   -1.7668   -0.0705    0.0000 C   0  0  0  0  0  0  0  0  0  0  0  0
   -3.3360   -0.0705    0.0000 C   0  0  0  0  0  0  0  0  0  0  0  0
    0.7806    1.4054    0.0000 C   0  0  0  0  0  0  0  0  0  0  0  0
   -3.8210   -0.7380    0.0000 C   0  0  0  0  0  0  0  0  0  0  0  0
  1 10  1  0  0  0  0
  1 13  1  0  0  0  0
  2 10  2  0  0  0  0
 11  3  1  6  0  0  0
  4 17  1  0  0  0  0
  4 18  1  0  0  0  0
  4 19  1  0  0  0  0
  5 14  1  0  0  0  0
  5 22  1  0  0  0  0
  6  7  1  0  0  0  0
  6  8  2  0  0  0  0
  6 13  1  0  0  0  0
  7 10  1  0  0  0  0
  7 12  2  0  0  0  0
  8  9  1  0  0  0  0
  8 21  1  0  0  0  0
  9 11  1  0  0  0  0
  9 16  2  0  0  0  0
 11 17  1  0  0  0  0
 12 16  1  0  0  0  0
 14 15  1  0  0  0  0
 14 18  1  0  0  0  0
 15 19  1  0  0  0  0
 15 20  1  0  0  0  0
 20 22  1  0  0  0  0
M  END
> <PUBCHEM_COMPOUND_ID_TYPE>
0

> <PUBCHEM_TOTAL_CHARGE>
0

> <PUBCHEM_SUBSTANCE_ID>
310940077

> <PUBCHEM_SUBSTANCE_VERSION>
1

> <PUBCHEM_EXT_DATASOURCE_NAME>
4488

> <PUBCHEM_EXT_DATASOURCE_REGID>
SCHEMBL16118008

> <PUBCHEM_SUBSTANCE_COMMENT>
InChI=1S/C17H22N2O3/c1-10-12(2-3-13-14(10)9-22-17(13)21)16(20)8-19-6-11-4-5-18-15(11)7-19/h2-3,11,15-16,18,20H,4-9H2,1H3/t11?,15?,16-/m0/s1
InChIKey=HZYIRMVFIUJMPF-LNTUIOFPSA-N

> <PUBCHEM_SUBSTANCE_SYNONYM>
SCHEMBL16118008

> <PUBCHEM_XREF_EXT_ID>
SCHEMBL16118008

> <PUBCHEM_EXT_DATASOURCE_URL>
https://www.surechembl.org/

> <PUBCHEM_EXT_SUBSTANCE_URL>
https://www.surechembl.org/chemical/SCHEMBL16118008

> <PUBCHEM_CID_ASSOCIATIONS>
117607219  1

> <PUBCHEM_COORDINATE_TYPE>
1
3

> <PUBCHEM_BONDANNOTATIONS>
11  3  6

$$$$
