310929928
  -OEChem-07211613022D

 20 22  0     0  0  0  0  0  0999 V2000
    0.0000   -3.6594    0.0000 O   0  0  0  0  0  0  0  0  0  0  0  0
    3.5526    0.0000    0.0000 O   0  0  0  0  0  0  0  0  0  0  0  0
    2.1369    0.0000    0.0000 O   0  0  0  0  0  0  0  0  0  0  0  0
    1.4157   -3.6862    0.0000 N   0  0  0  0  0  0  0  0  0  0  0  0
    2.8314   -1.2287    0.0000 N   0  0  0  0  0  0  0  0  0  0  0  0
    2.1369   -4.0868    0.0000 C   0  0  0  0  0  0  0  0  0  0  0  0
    2.8314   -3.6862    0.0000 C   0  0  0  0  0  0  0  0  0  0  0  0
    2.8314   -2.8581    0.0000 C   0  0  0  0  0  0  0  0  0  0  0  0
    2.1369   -4.9149    0.0000 C   0  0  0  0  0  0  0  0  0  0  0  0
    3.5259   -4.1135    0.0000 C   0  0  0  0  0  0  0  0  0  0  0  0
    2.8047   -5.3423    0.0000 C   0  0  0  0  0  0  0  0  0  0  0  0
    3.5526   -2.4574    0.0000 C   0  0  0  0  0  0  0  0  0  0  0  0
    2.1369   -2.4574    0.0000 C   0  0  0  0  0  0  0  0  0  0  0  0
    0.6945   -4.0868    0.0000 C   0  0  0  0  0  0  0  0  0  0  0  0
    1.4157   -5.3155    0.0000 C   0  0  0  0  0  0  0  0  0  0  0  0
    3.5259   -4.9416    0.0000 C   0  0  0  0  0  0  0  0  0  0  0  0
    3.5526   -1.6294    0.0000 C   0  0  0  0  0  0  0  0  0  0  0  0
    2.1369   -1.6294    0.0000 C   0  0  0  0  0  0  0  0  0  0  0  0
    0.6945   -4.8881    0.0000 C   0  0  0  0  0  0  0  0  0  0  0  0
    2.8314   -0.4007    0.0000 C   0  0  0  0  0  0  0  0  0  0  0  0
  1 14  2  0  0  0  0
  2 20  2  0  0  0  0
  3 20  1  0  0  0  0
  4  6  1  0  0  0  0
  4 14  1  0  0  0  0
  5 17  1  0  0  0  0
  5 18  1  0  0  0  0
  5 20  1  0  0  0  0
  6  7  1  0  0  0  0
  6  9  2  0  0  0  0
  7  8  1  0  0  0  0
  7 10  2  0  0  0  0
  8 12  1  0  0  0  0
  8 13  1  0  0  0  0
  9 11  1  0  0  0  0
  9 15  1  0  0  0  0
 10 16  1  0  0  0  0
 11 16  2  0  0  0  0
 12 17  1  0  0  0  0
 13 18  1  0  0  0  0
 14 19  1  0  0  0  0
 15 19  2  0  0  0  0
M  END
> <PUBCHEM_COMPOUND_ID_TYPE>
0

> <PUBCHEM_TOTAL_CHARGE>
0

> <PUBCHEM_SUBSTANCE_ID>
310929928

> <PUBCHEM_SUBSTANCE_VERSION>
1

> <PUBCHEM_EXT_DATASOURCE_NAME>
4488

> <PUBCHEM_EXT_DATASOURCE_REGID>
SCHEMBL16107149

> <PUBCHEM_SUBSTANCE_COMMENT>
InChI=1S/C15H16N2O3/c18-13-5-4-11-2-1-3-12(14(11)16-13)10-6-8-17(9-7-10)15(19)20/h1-5,10H,6-9H2,(H,16,18)(H,19,20)
InChIKey=LKTSMWUOLPVQIN-UHFFFAOYSA-N

> <PUBCHEM_SUBSTANCE_SYNONYM>
SCHEMBL16107149

> <PUBCHEM_XREF_EXT_ID>
SCHEMBL16107149

> <PUBCHEM_EXT_DATASOURCE_URL>
https://www.surechembl.org/

> <PUBCHEM_EXT_SUBSTANCE_URL>
https://www.surechembl.org/chemical/SCHEMBL16107149

> <PUBCHEM_CID_ASSOCIATIONS>
117599191  1

> <PUBCHEM_COORDINATE_TYPE>
1
3

$$$$
