310945793
  -OEChem-07211613022D

 37 40  0     1  0  0  0  0  0999 V2000
    3.6472    1.3763    0.0000 O   0  0  0  0  0  0  0  0  0  0  0  0
    1.3900    1.3900    0.0000 O   0  0  0  0  0  0  0  0  0  0  0  0
   -0.0413    1.3900    0.0000 O   0  0  0  0  0  0  0  0  0  0  0  0
    0.6744    0.9772    0.0000 O   0  0  0  0  0  0  0  0  0  0  0  0
   -2.1883    0.1652    0.0000 O   0  0  0  0  0  0  0  0  0  0  0  0
   -2.9177   -2.7113    0.0000 O   0  0  0  0  0  0  0  0  0  0  0  0
    1.3900   -0.2615    0.0000 N   0  0  0  0  0  0  0  0  0  0  0  0
   -0.7570    0.1652    0.0000 N   0  0  0  0  0  0  0  0  0  0  0  0
   -2.2984    1.5001    0.0000 N   0  0  0  0  0  0  0  0  0  0  0  0
    2.8352    1.4038    0.0000 C   0  0  3  0  0  0  0  0  0  0  0  0
    2.0919    0.9359    0.0000 C   0  0  0  0  0  0  0  0  0  0  0  0
    3.2342    0.7157    0.0000 C   0  0  0  0  0  0  0  0  0  0  0  0
    2.1057    0.1652    0.0000 C   0  0  3  0  0  0  0  0  0  0  0  0
   -1.4726    1.4314    0.0000 C   0  0  3  0  0  0  0  0  0  0  0  0
   -0.7295    0.9634    0.0000 C   0  0  0  0  0  0  0  0  0  0  0  0
    2.8214    2.2158    0.0000 C   0  0  0  0  0  0  0  0  0  0  0  0
   -0.0275   -0.2202    0.0000 C   0  0  3  0  0  0  0  0  0  0  0  0
    0.6606    0.1652    0.0000 C   0  0  0  0  0  0  0  0  0  0  0  0
    2.8352   -0.2202    0.0000 C   0  0  0  0  0  0  0  0  0  0  0  0
   -1.1423    2.1745    0.0000 C   0  0  0  0  0  0  0  0  0  0  0  0
   -1.4864    0.5780    0.0000 C   0  0  0  0  0  0  0  0  0  0  0  0
    2.8076   -1.0597    0.0000 C   0  0  0  0  0  0  0  0  0  0  0  0
   -0.0275   -1.0460    0.0000 C   0  0  0  0  0  0  0  0  0  0  0  0
   -2.4636    2.3121    0.0000 C   0  0  0  0  0  0  0  0  0  0  0  0
   -1.7617    2.7113    0.0000 C   0  0  0  0  0  0  0  0  0  0  0  0
   -0.7707   -1.4451    0.0000 C   0  0  0  0  0  0  0  0  0  0  0  0
    3.5233   -1.4726    0.0000 C   0  0  0  0  0  0  0  0  0  0  0  0
    2.1057   -1.4726    0.0000 C   0  0  0  0  0  0  0  0  0  0  0  0
   -1.4864   -1.0735    0.0000 C   0  0  0  0  0  0  0  0  0  0  0  0
   -0.7707   -2.2846    0.0000 C   0  0  0  0  0  0  0  0  0  0  0  0
   -2.2020   -2.2709    0.0000 C   0  0  0  0  0  0  0  0  0  0  0  0
   -2.1883   -1.4451    0.0000 C   0  0  0  0  0  0  0  0  0  0  0  0
   -1.4864   -2.6838    0.0000 C   0  0  0  0  0  0  0  0  0  0  0  0
    3.5233   -2.2984    0.0000 C   0  0  0  0  0  0  0  0  0  0  0  0
    2.1057   -2.2984    0.0000 C   0  0  0  0  0  0  0  0  0  0  0  0
    2.8076   -2.6975    0.0000 C   0  0  0  0  0  0  0  0  0  0  0  0
   -3.6472   -2.2846    0.0000 C   0  0  0  0  0  0  0  0  0  0  0  0
  1 10  1  0  0  0  0
  1 12  1  0  0  0  0
  2 11  2  0  0  0  0
  3 15  2  0  0  0  0
  4 18  2  0  0  0  0
  5 21  1  0  0  0  0
  6 31  1  0  0  0  0
  6 37  1  0  0  0  0
 13  7  1  6  0  0  0
  7 18  1  0  0  0  0
  8 15  1  0  0  0  0
 17  8  1  6  0  0  0
  9 14  1  0  0  0  0
  9 24  1  0  0  0  0
 10 11  1  6  0  0  0
 10 12  1  0  0  0  0
 10 16  1  1  0  0  0
 11 13  1  0  0  0  0
 13 19  1  0  0  0  0
 14 15  1  6  0  0  0
 14 20  1  0  0  0  0
 14 21  1  1  0  0  0
 17 18  1  0  0  0  0
 17 23  1  0  0  0  0
 19 22  1  0  0  0  0
 20 25  1  0  0  0  0
 22 27  2  0  0  0  0
 22 28  1  0  0  0  0
 23 26  1  0  0  0  0
 24 25  1  0  0  0  0
 26 29  2  0  0  0  0
 26 30  1  0  0  0  0
 27 34  1  0  0  0  0
 28 35  2  0  0  0  0
 29 32  1  0  0  0  0
 30 33  2  0  0  0  0
 31 32  2  0  0  0  0
 31 33  1  0  0  0  0
 34 36  2  0  0  0  0
 35 36  1  0  0  0  0
M  END
> <PUBCHEM_COMPOUND_ID_TYPE>
0

> <PUBCHEM_TOTAL_CHARGE>
0

> <PUBCHEM_SUBSTANCE_ID>
310945793

> <PUBCHEM_SUBSTANCE_VERSION>
1

> <PUBCHEM_EXT_DATASOURCE_NAME>
4488

> <PUBCHEM_EXT_DATASOURCE_REGID>
SCHEMBL16123897

> <PUBCHEM_SUBSTANCE_COMMENT>
InChI=1S/C28H35N3O6/c1-27(18-37-27)24(33)22(15-19-7-4-3-5-8-19)30-25(34)23(16-20-9-11-21(36-2)12-10-20)31-26(35)28(17-32)13-6-14-29-28/h3-5,7-12,22-23,29,32H,6,13-18H2,1-2H3,(H,30,34)(H,31,35)/t22-,23-,27+,28-/m0/s1
InChIKey=XEIJPGARXIZOBO-DIMQNKOASA-N

> <PUBCHEM_SUBSTANCE_SYNONYM>
SCHEMBL16123897

> <PUBCHEM_XREF_EXT_ID>
SCHEMBL16123897

> <PUBCHEM_EXT_DATASOURCE_URL>
https://www.surechembl.org/

> <PUBCHEM_EXT_SUBSTANCE_URL>
https://www.surechembl.org/chemical/SCHEMBL16123897

> <PUBCHEM_CID_ASSOCIATIONS>
117611780  1

> <PUBCHEM_COORDINATE_TYPE>
1
3

> <PUBCHEM_BONDANNOTATIONS>
10  11  6
10  16  5
14  15  6
14  21  5
13  7  6
17  8  6

$$$$
