310947514
  -OEChem-07211613022D

 48 53  0     1  0  0  0  0  0999 V2000
   -1.3926   -0.1488    0.0000 P   0  0  3  0  0  0  0  0  0  0  0  0
    0.4134   -2.6011    0.0000 F   0  0  0  0  0  0  0  0  0  0  0  0
    1.2384   -0.6171    0.0000 O   0  0  0  0  0  0  0  0  0  0  0  0
    2.0634   -2.6011    0.0000 O   0  0  0  0  0  0  0  0  0  0  0  0
   -0.8093   -0.7322    0.0000 O   0  0  0  0  0  0  0  0  0  0  0  0
   -1.9760    0.4346    0.0000 O   0  0  0  0  0  0  0  0  0  0  0  0
   -0.8093    0.4346    0.0000 O   0  0  0  0  0  0  0  0  0  0  0  0
   -2.6905   -2.7947    0.0000 O   0  0  0  0  0  0  0  0  0  0  0  0
   -3.4049   -1.5572    0.0000 O   0  0  0  0  0  0  0  0  0  0  0  0
    1.9059   -0.2770    0.0000 N   0  0  0  0  0  0  0  0  0  0  0  0
    1.9059    1.0579    0.0000 N   0  0  0  0  0  0  0  0  0  0  0  0
    3.4049   -0.4346    0.0000 N   0  0  0  0  0  0  0  0  0  0  0  0
    3.4049    2.0404    0.0000 N   0  0  0  0  0  0  0  0  0  0  0  0
    4.1194    0.8029    0.0000 N   0  0  0  0  0  0  0  0  0  0  0  0
    4.8339   -0.4346    0.0000 N   0  0  0  0  0  0  0  0  0  0  0  0
   -1.9760   -0.7322    0.0000 N   0  0  0  0  0  0  0  0  0  0  0  0
    1.9059   -1.1020    0.0000 C   0  0  3  0  0  0  0  0  0  0  0  0
    1.6509   -1.8866    0.0000 C   0  0  3  0  0  0  0  0  0  0  0  0
    2.6905   -0.0221    0.0000 C   0  0  0  0  0  0  0  0  0  0  0  0
    0.8259   -1.8866    0.0000 C   0  0  3  0  0  0  0  0  0  0  0  0
    2.6905    0.8029    0.0000 C   0  0  0  0  0  0  0  0  0  0  0  0
    0.5710   -1.1020    0.0000 C   0  0  3  0  0  0  0  0  0  0  0  0
    3.4049    1.2154    0.0000 C   0  0  0  0  0  0  0  0  0  0  0  0
    1.4209    0.3904    0.0000 C   0  0  0  0  0  0  0  0  0  0  0  0
    4.1194   -0.0221    0.0000 C   0  0  0  0  0  0  0  0  0  0  0  0
    2.3654   -1.4741    0.0000 C   0  0  0  0  0  0  0  0  0  0  0  0
   -0.0124   -0.5186    0.0000 C   0  0  0  0  0  0  0  0  0  0  0  0
    3.9883    2.6238    0.0000 C   0  0  0  0  0  0  0  0  0  0  0  0
    2.8216    2.6238    0.0000 C   0  0  0  0  0  0  0  0  0  0  0  0
    3.4049    3.2072    0.0000 C   0  0  0  0  0  0  0  0  0  0  0  0
   -1.9760    1.2596    0.0000 C   0  0  0  0  0  0  0  0  0  0  0  0
   -2.6905    1.6721    0.0000 C   0  0  0  0  0  0  0  0  0  0  0  0
   -2.6905    2.4971    0.0000 C   0  0  0  0  0  0  0  0  0  0  0  0
   -1.9760   -1.5572    0.0000 C   0  0  3  0  0  0  0  0  0  0  0  0
   -1.2615    1.6721    0.0000 C   0  0  0  0  0  0  0  0  0  0  0  0
   -3.4049    1.2596    0.0000 C   0  0  0  0  0  0  0  0  0  0  0  0
   -1.9760    2.9096    0.0000 C   0  0  0  0  0  0  0  0  0  0  0  0
   -1.2615    2.4971    0.0000 C   0  0  0  0  0  0  0  0  0  0  0  0
   -2.6905   -1.9697    0.0000 C   0  0  0  0  0  0  0  0  0  0  0  0
   -3.4049    2.9096    0.0000 C   0  0  0  0  0  0  0  0  0  0  0  0
   -4.1194    1.6721    0.0000 C   0  0  0  0  0  0  0  0  0  0  0  0
   -4.1194    2.4971    0.0000 C   0  0  0  0  0  0  0  0  0  0  0  0
   -1.2615   -1.9697    0.0000 C   0  0  0  0  0  0  0  0  0  0  0  0
   -3.4049   -3.2072    0.0000 C   0  0  0  0  0  0  0  0  0  0  0  0
   -4.1194   -2.7947    0.0000 C   0  0  0  0  0  0  0  0  0  0  0  0
   -4.8339   -3.2072    0.0000 C   0  0  0  0  0  0  0  0  0  0  0  0
   -4.1194   -1.9697    0.0000 C   0  0  0  0  0  0  0  0  0  0  0  0
   -4.8339   -2.3822    0.0000 C   0  0  0  0  0  0  0  0  0  0  0  0
  1  5  1  0  0  0  0
  1  6  1  0  0  0  0
  1  7  2  0  0  0  0
  1 16  1  0  0  0  0
 20  2  1  6  0  0  0
 17  3  1  6  0  0  0
  3 22  1  0  0  0  0
 18  4  1  6  0  0  0
  5 27  1  0  0  0  0
  6 31  1  0  0  0  0
  8 39  1  0  0  0  0
  8 44  1  0  0  0  0
  9 39  2  0  0  0  0
 10 17  1  0  0  0  0
 10 19  1  0  0  0  0
 10 24  1  0  0  0  0
 11 21  1  0  0  0  0
 11 24  2  0  0  0  0
 12 19  1  0  0  0  0
 12 25  2  0  0  0  0
 13 23  1  0  0  0  0
 13 28  1  0  0  0  0
 13 29  1  0  0  0  0
 14 23  2  0  0  0  0
 14 25  1  0  0  0  0
 15 25  1  0  0  0  0
 16 34  1  0  0  0  0
 17 18  1  0  0  0  0
 18 20  1  0  0  0  0
 18 26  1  1  0  0  0
 19 21  2  0  0  0  0
 20 22  1  0  0  0  0
 21 23  1  0  0  0  0
 22 27  1  1  0  0  0
 28 30  1  0  0  0  0
 29 30  1  0  0  0  0
 31 32  1  0  0  0  0
 31 35  2  0  0  0  0
 32 33  2  0  0  0  0
 32 36  1  0  0  0  0
 33 37  1  0  0  0  0
 33 40  1  0  0  0  0
 34 39  1  0  0  0  0
 34 43  1  1  0  0  0
 35 38  1  0  0  0  0
 36 41  2  0  0  0  0
 37 38  2  0  0  0  0
 40 42  2  0  0  0  0
 41 42  1  0  0  0  0
 44 45  1  0  0  0  0
 45 46  1  0  0  0  0
 45 47  1  0  0  0  0
 45 48  1  0  0  0  0
M  END
> <PUBCHEM_COMPOUND_ID_TYPE>
0

> <PUBCHEM_TOTAL_CHARGE>
0

> <PUBCHEM_SUBSTANCE_ID>
310947514

> <PUBCHEM_SUBSTANCE_VERSION>
1

> <PUBCHEM_EXT_DATASOURCE_NAME>
4488

> <PUBCHEM_EXT_DATASOURCE_REGID>
SCHEMBL16125676

> <PUBCHEM_SUBSTANCE_COMMENT>
InChI=1S/C32H41FN7O7P/c1-19(28(41)44-17-31(2,3)4)38-48(43,47-22-13-8-11-20-10-6-7-12-21(20)22)45-16-23-25(33)32(5,42)29(46-23)40-18-35-24-26(39-14-9-15-39)36-30(34)37-27(24)40/h6-8,10-13,18-19,23,25,29,42H,9,14-17H2,1-5H3,(H,38,43)(H2,34,36,37)/t19-,23+,25+,29+,32+,48?/m0/s1
InChIKey=YAKKAEBOZGOVJJ-WXMKZUHCSA-N

> <PUBCHEM_SUBSTANCE_SYNONYM>
SCHEMBL16125676

> <PUBCHEM_XREF_EXT_ID>
SCHEMBL16125676

> <PUBCHEM_EXT_DATASOURCE_URL>
https://www.surechembl.org/

> <PUBCHEM_EXT_SUBSTANCE_URL>
https://www.surechembl.org/chemical/SCHEMBL16125676

> <PUBCHEM_CID_ASSOCIATIONS>
71565747  1

> <PUBCHEM_COORDINATE_TYPE>
1
3

> <PUBCHEM_BONDANNOTATIONS>
18  26  5
20  2  6
22  27  5
17  3  6
34  43  5
18  4  6

$$$$
