310947551
  -OEChem-07211613022D

 48 53  0     1  0  0  0  0  0999 V2000
   -0.7958   -0.2627    0.0000 P   0  0  3  0  0  0  0  0  0  0  0  0
   -0.1152    2.3633    0.0000 F   0  0  0  0  0  0  0  0  0  0  0  0
    1.6792    1.1662    0.0000 O   0  0  0  0  0  0  0  0  0  0  0  0
    1.6792    3.1502    0.0000 O   0  0  0  0  0  0  0  0  0  0  0  0
   -0.3833    0.4517    0.0000 O   0  0  0  0  0  0  0  0  0  0  0  0
    5.4046    2.5127    0.0000 O   0  0  0  0  0  0  0  0  0  0  0  0
   -0.0813   -0.6752    0.0000 O   0  0  0  0  0  0  0  0  0  0  0  0
   -1.5103    0.1498    0.0000 O   0  0  0  0  0  0  0  0  0  0  0  0
   -3.2708   -1.6917    0.0000 O   0  0  0  0  0  0  0  0  0  0  0  0
   -2.0333   -2.4061    0.0000 O   0  0  0  0  0  0  0  0  0  0  0  0
    2.6486    2.3633    0.0000 N   0  0  0  0  0  0  0  0  0  0  0  0
    3.7286    3.1480    0.0000 N   0  0  0  0  0  0  0  0  0  0  0  0
    3.4023    1.0579    0.0000 N   0  0  0  0  0  0  0  0  0  0  0  0
    4.8234    1.2073    0.0000 N   0  0  0  0  0  0  0  0  0  0  0  0
   -1.2083   -0.9772    0.0000 N   0  0  0  0  0  0  0  0  0  0  0  0
    4.2422   -0.0981    0.0000 N   0  0  0  0  0  0  0  0  0  0  0  0
    1.9342    1.9508    0.0000 C   0  0  3  0  0  0  0  0  0  0  0  0
    1.2667    2.4358    0.0000 C   0  0  3  0  0  0  0  0  0  0  0  0
    0.5993    1.9508    0.0000 C   0  0  3  0  0  0  0  0  0  0  0  0
    3.3161    1.8784    0.0000 C   0  0  0  0  0  0  0  0  0  0  0  0
    0.8542    1.1662    0.0000 C   0  0  3  0  0  0  0  0  0  0  0  0
    3.9835    2.3633    0.0000 C   0  0  0  0  0  0  0  0  0  0  0  0
    2.9036    3.1480    0.0000 C   0  0  0  0  0  0  0  0  0  0  0  0
    4.7372    2.0278    0.0000 C   0  0  0  0  0  0  0  0  0  0  0  0
    0.8542    3.1502    0.0000 C   0  0  0  0  0  0  0  0  0  0  0  0
    0.4417    0.4517    0.0000 C   0  0  0  0  0  0  0  0  0  0  0  0
    4.1560    0.7224    0.0000 C   0  0  0  0  0  0  0  0  0  0  0  0
   -0.0813   -1.5002    0.0000 C   0  0  0  0  0  0  0  0  0  0  0  0
    0.6332   -1.9127    0.0000 C   0  0  0  0  0  0  0  0  0  0  0  0
    0.6332   -2.7377    0.0000 C   0  0  0  0  0  0  0  0  0  0  0  0
   -2.0333   -0.9772    0.0000 C   0  0  3  0  0  0  0  0  0  0  0  0
   -0.7958   -1.9127    0.0000 C   0  0  0  0  0  0  0  0  0  0  0  0
    6.1583    2.1771    0.0000 C   0  0  0  0  0  0  0  0  0  0  0  0
    1.3476   -1.5002    0.0000 C   0  0  0  0  0  0  0  0  0  0  0  0
   -0.0813   -3.1502    0.0000 C   0  0  0  0  0  0  0  0  0  0  0  0
   -0.7958   -2.7377    0.0000 C   0  0  0  0  0  0  0  0  0  0  0  0
   -2.4458   -1.6917    0.0000 C   0  0  0  0  0  0  0  0  0  0  0  0
    1.3476   -3.1502    0.0000 C   0  0  0  0  0  0  0  0  0  0  0  0
    2.0621   -1.9127    0.0000 C   0  0  0  0  0  0  0  0  0  0  0  0
    2.0621   -2.7377    0.0000 C   0  0  0  0  0  0  0  0  0  0  0  0
   -2.4458   -0.2627    0.0000 C   0  0  0  0  0  0  0  0  0  0  0  0
   -3.6833   -2.4061    0.0000 C   0  0  0  0  0  0  0  0  0  0  0  0
   -4.5083   -2.4061    0.0000 C   0  0  0  0  0  0  0  0  0  0  0  0
   -4.9208   -3.1206    0.0000 C   0  0  0  0  0  0  0  0  0  0  0  0
   -4.9208   -1.6917    0.0000 C   0  0  0  0  0  0  0  0  0  0  0  0
   -5.7458   -3.1206    0.0000 C   0  0  0  0  0  0  0  0  0  0  0  0
   -5.7458   -1.6917    0.0000 C   0  0  0  0  0  0  0  0  0  0  0  0
   -6.1583   -2.4061    0.0000 C   0  0  0  0  0  0  0  0  0  0  0  0
  1  5  1  0  0  0  0
  1  7  1  0  0  0  0
  1  8  2  0  0  0  0
  1 15  1  0  0  0  0
 19  2  1  6  0  0  0
  3 17  1  0  0  0  0
  3 21  1  0  0  0  0
 18  4  1  1  0  0  0
  5 26  1  0  0  0  0
  6 24  1  0  0  0  0
  6 33  1  0  0  0  0
  7 28  1  0  0  0  0
  9 37  1  0  0  0  0
  9 42  1  0  0  0  0
 10 37  2  0  0  0  0
 11 17  1  0  0  0  0
 11 20  1  0  0  0  0
 11 23  1  0  0  0  0
 12 22  1  0  0  0  0
 12 23  2  0  0  0  0
 13 20  1  0  0  0  0
 13 27  2  0  0  0  0
 14 24  2  0  0  0  0
 14 27  1  0  0  0  0
 15 31  1  0  0  0  0
 16 27  1  0  0  0  0
 17 18  1  0  0  0  0
 18 19  1  0  0  0  0
 18 25  1  6  0  0  0
 19 21  1  0  0  0  0
 20 22  2  0  0  0  0
 21 26  1  6  0  0  0
 22 24  1  0  0  0  0
 28 29  1  0  0  0  0
 28 32  2  0  0  0  0
 29 30  2  0  0  0  0
 29 34  1  0  0  0  0
 30 35  1  0  0  0  0
 30 38  1  0  0  0  0
 31 37  1  0  0  0  0
 31 41  1  6  0  0  0
 32 36  1  0  0  0  0
 34 39  2  0  0  0  0
 35 36  2  0  0  0  0
 38 40  2  0  0  0  0
 39 40  1  0  0  0  0
 42 43  1  0  0  0  0
 43 44  2  0  0  0  0
 43 45  1  0  0  0  0
 44 46  1  0  0  0  0
 45 47  2  0  0  0  0
 46 48  2  0  0  0  0
 47 48  1  0  0  0  0
M  END
> <PUBCHEM_COMPOUND_ID_TYPE>
0

> <PUBCHEM_TOTAL_CHARGE>
0

> <PUBCHEM_SUBSTANCE_ID>
310947551

> <PUBCHEM_SUBSTANCE_VERSION>
1

> <PUBCHEM_EXT_DATASOURCE_NAME>
4488

> <PUBCHEM_EXT_DATASOURCE_REGID>
SCHEMBL16125714

> <PUBCHEM_SUBSTANCE_COMMENT>
InChI=1S/C32H34FN6O8P/c1-19(29(40)44-16-20-10-5-4-6-11-20)38-48(42,47-23-15-9-13-21-12-7-8-14-22(21)23)45-17-24-26(33)32(2,41)30(46-24)39-18-35-25-27(39)36-31(34)37-28(25)43-3/h4-15,18-19,24,26,30,41H,16-17H2,1-3H3,(H,38,42)(H2,34,36,37)/t19-,24+,26-,30?,32+,48?/m0/s1
InChIKey=JVRPLUKVYMZKBT-RXOBFRMCSA-N

> <PUBCHEM_SUBSTANCE_SYNONYM>
SCHEMBL16125714

> <PUBCHEM_XREF_EXT_ID>
SCHEMBL16125714

> <PUBCHEM_EXT_DATASOURCE_URL>
https://www.surechembl.org/

> <PUBCHEM_EXT_SUBSTANCE_URL>
https://www.surechembl.org/chemical/SCHEMBL16125714

> <PUBCHEM_CID_ASSOCIATIONS>
117613273  1

> <PUBCHEM_COORDINATE_TYPE>
1
3

> <PUBCHEM_BONDANNOTATIONS>
18  25  6
19  2  6
21  26  6
31  41  6
18  4  5

$$$$
