310929508
  -OEChem-07211613022D

 61 68  0     1  0  0  0  0  0999 V2000
    4.6618   -0.9435    0.0000 S   0  0  0  0  0  0  0  0  0  0  0  0
    4.2733   -2.4974    0.0000 O   0  0  0  0  0  0  0  0  0  0  0  0
    4.8838   -1.7204    0.0000 O   0  0  0  0  0  0  0  0  0  0  0  0
    4.3843   -0.1110    0.0000 O   0  0  0  0  0  0  0  0  0  0  0  0
    4.2178   -3.1633    0.0000 O   0  0  0  0  0  0  0  0  0  0  0  0
    5.3277   -5.4387    0.0000 O   0  0  0  0  0  0  0  0  0  0  0  0
    1.4430   -3.9403    0.0000 O   0  0  0  0  0  0  0  0  0  0  0  0
    6.3267   -8.2690    0.0000 O   0  0  0  0  0  0  0  0  0  0  0  0
    0.8879   -7.4921    0.0000 O   0  0  0  0  0  0  0  0  0  0  0  0
    0.0000   -6.6597    0.0000 O   0  0  0  0  0  0  0  0  0  0  0  0
    7.7696   -9.8785    0.0000 O   0  0  0  0  0  0  0  0  0  0  0  0
    2.8304   -2.9968    0.0000 N   0  0  0  0  0  0  0  0  0  0  0  0
    3.8293   -1.1654    0.0000 N   0  0  0  0  0  0  0  0  0  0  0  0
    2.6084   -4.2733    0.0000 N   0  0  0  0  0  0  0  0  0  0  0  0
    6.3267   -5.8272    0.0000 N   0  0  0  0  0  0  0  0  0  0  0  0
    0.8879   -5.8272    0.0000 N   0  0  0  0  0  0  0  0  0  0  0  0
    6.3822  -10.7109    0.0000 N   0  0  0  0  0  0  0  0  0  0  0  0
    2.8858   -2.1644    0.0000 C   0  0  3  0  0  0  0  0  0  0  0  0
    2.1644   -1.7759    0.0000 C   0  0  3  0  0  0  0  0  0  0  0  0
    2.8858   -1.3319    0.0000 C   0  0  0  0  0  0  0  0  0  0  0  0
    3.6628   -1.9424    0.0000 C   0  0  0  0  0  0  0  0  0  0  0  0
    5.3832   -0.7214    0.0000 C   0  0  0  0  0  0  0  0  0  0  0  0
    3.4408   -3.4408    0.0000 C   0  0  0  0  0  0  0  0  0  0  0  0
    1.3874   -1.8314    0.0000 C   0  0  0  0  0  0  0  0  0  0  0  0
    5.9937   -0.1110    0.0000 C   0  0  0  0  0  0  0  0  0  0  0  0
    6.2156   -0.8879    0.0000 C   0  0  0  0  0  0  0  0  0  0  0  0
    3.3853   -4.2733    0.0000 C   0  0  3  0  0  0  0  0  0  0  0  0
    4.9947    0.0000    0.0000 C   0  0  0  0  0  0  0  0  0  0  0  0
    4.2178   -4.4397    0.0000 C   0  0  0  0  0  0  0  0  0  0  0  0
    4.8282   -4.8282    0.0000 C   0  0  3  0  0  0  0  0  0  0  0  0
    1.8869   -4.6063    0.0000 C   0  0  0  0  0  0  0  0  0  0  0  0
    3.8848   -3.8848    0.0000 C   0  0  0  0  0  0  0  0  0  0  0  0
    1.2764   -5.1612    0.0000 C   0  0  3  0  0  0  0  0  0  0  0  0
    0.9989   -2.5529    0.0000 C   0  0  0  0  0  0  0  0  0  0  0  0
    5.5497   -6.2712    0.0000 C   0  0  0  0  0  0  0  0  0  0  0  0
    5.5497   -7.0481    0.0000 C   0  0  0  0  0  0  0  0  0  0  0  0
    6.3267   -7.4921    0.0000 C   0  0  0  0  0  0  0  0  0  0  0  0
    0.6660   -4.6618    0.0000 C   0  0  0  0  0  0  0  0  0  0  0  0
    6.9372   -7.0481    0.0000 C   0  0  0  0  0  0  0  0  0  0  0  0
    6.9372   -6.2712    0.0000 C   0  0  0  0  0  0  0  0  0  0  0  0
    5.3277   -7.8251    0.0000 C   0  0  0  0  0  0  0  0  0  0  0  0
    0.7770   -6.6597    0.0000 C   0  0  0  0  0  0  0  0  0  0  0  0
    7.7141   -7.4921    0.0000 C   0  0  0  0  0  0  0  0  0  0  0  0
    7.7141   -5.8272    0.0000 C   0  0  0  0  0  0  0  0  0  0  0  0
    1.2764   -8.1026    0.0000 C   0  0  3  0  0  0  0  0  0  0  0  0
    1.8869   -8.6575    0.0000 C   0  0  3  0  0  0  0  0  0  0  0  0
    1.1654   -4.0513    0.0000 C   0  0  0  0  0  0  0  0  0  0  0  0
    0.0000   -4.1623    0.0000 C   0  0  0  0  0  0  0  0  0  0  0  0
    0.1110   -5.2722    0.0000 C   0  0  0  0  0  0  0  0  0  0  0  0
    1.0545   -8.9350    0.0000 C   0  0  0  0  0  0  0  0  0  0  0  0
    8.4355   -7.0481    0.0000 C   0  0  0  0  0  0  0  0  0  0  0  0
    8.4355   -6.2712    0.0000 C   0  0  0  0  0  0  0  0  0  0  0  0
    4.8282   -8.4911    0.0000 C   0  0  0  0  0  0  0  0  0  0  0  0
    7.0481   -8.6575    0.0000 C   0  0  0  0  0  0  0  0  0  0  0  0
    2.6084   -9.0460    0.0000 C   0  0  0  0  0  0  0  0  0  0  0  0
    7.0481   -9.4900    0.0000 C   0  0  3  0  0  0  0  0  0  0  0  0
    4.2178   -8.8240    0.0000 C   0  0  0  0  0  0  0  0  0  0  0  0
    3.3853   -9.0460    0.0000 C   0  0  0  0  0  0  0  0  0  0  0  0
    6.3822   -9.9339    0.0000 C   0  0  0  0  0  0  0  0  0  0  0  0
    7.8251  -10.6555    0.0000 C   0  0  0  0  0  0  0  0  0  0  0  0
    7.1036  -11.0994    0.0000 C   0  0  0  0  0  0  0  0  0  0  0  0
  1  3  2  0  0  0  0
  1  4  2  0  0  0  0
  1 13  1  0  0  0  0
  1 22  1  0  0  0  0
  2 21  2  0  0  0  0
  5 23  2  0  0  0  0
  6 30  1  0  0  0  0
  6 35  1  0  0  0  0
  7 31  2  0  0  0  0
  8 37  1  0  0  0  0
  8 54  1  0  0  0  0
  9 42  1  0  0  0  0
  9 45  1  0  0  0  0
 10 42  2  0  0  0  0
 11 56  1  0  0  0  0
 11 60  1  0  0  0  0
 18 12  1  1  0  0  0
 12 23  1  0  0  0  0
 13 21  1  0  0  0  0
 14 27  1  0  0  0  0
 14 31  1  0  0  0  0
 14 32  1  0  0  0  0
 15 35  1  0  0  0  0
 15 40  2  0  0  0  0
 16 33  1  0  0  0  0
 16 42  1  0  0  0  0
 17 59  1  0  0  0  0
 17 61  1  0  0  0  0
 18 19  1  0  0  0  0
 18 20  1  0  0  0  0
 18 21  1  6  0  0  0
 19 20  1  0  0  0  0
 19 24  1  6  0  0  0
 22 25  1  0  0  0  0
 22 26  1  0  0  0  0
 22 28  1  0  0  0  0
 27 23  1  6  0  0  0
 24 34  2  0  0  0  0
 25 26  1  0  0  0  0
 27 29  1  0  0  0  0
 30 29  1  1  0  0  0
 30 32  1  0  0  0  0
 31 33  1  0  0  0  0
 33 38  1  1  0  0  0
 35 36  2  0  0  0  0
 36 37  1  0  0  0  0
 36 41  1  0  0  0  0
 37 39  2  0  0  0  0
 38 47  1  0  0  0  0
 38 48  1  0  0  0  0
 38 49  1  0  0  0  0
 39 40  1  0  0  0  0
 39 43  1  0  0  0  0
 40 44  1  0  0  0  0
 41 53  1  0  0  0  0
 43 51  2  0  0  0  0
 44 52  2  0  0  0  0
 45 46  1  0  0  0  0
 45 50  1  1  0  0  0
 46 50  1  6  0  0  0
 46 55  1  0  0  0  0
 51 52  1  0  0  0  0
 53 57  1  0  0  0  0
 56 54  1  6  0  0  0
 55 58  1  0  0  0  0
 56 59  1  0  0  0  0
 57 58  1  0  0  0  0
 60 61  1  0  0  0  0
M  END
> <PUBCHEM_COMPOUND_ID_TYPE>
0

> <PUBCHEM_TOTAL_CHARGE>
0

> <PUBCHEM_SUBSTANCE_ID>
310929508

> <PUBCHEM_SUBSTANCE_VERSION>
1

> <PUBCHEM_EXT_DATASOURCE_NAME>
4488

> <PUBCHEM_EXT_DATASOURCE_REGID>
SCHEMBL16106687

> <PUBCHEM_SUBSTANCE_COMMENT>
InChI=1S/C44H60N6O10S/c1-6-27-22-44(27,40(53)49-61(55,56)43(5)16-17-43)48-37(51)33-21-28-24-50(33)39(52)36(42(2,3)4)47-41(54)60-34-20-26(34)12-8-7-9-14-31-35(58-25-29-23-45-18-19-57-29)30-13-10-11-15-32(30)46-38(31)59-28/h6,10-11,13,15,26-29,33-34,36,45H,1,7-9,12,14,16-25H2,2-5H3,(H,47,54)(H,48,51)(H,49,53)/t26-,27-,28-,29-,33+,34-,36-,44-/m1/s1
InChIKey=YRBRNRGAQFUVDD-GOTHGYHMSA-N

> <PUBCHEM_SUBSTANCE_SYNONYM>
SCHEMBL16106687

> <PUBCHEM_XREF_EXT_ID>
SCHEMBL16106687

> <PUBCHEM_EXT_DATASOURCE_URL>
https://www.surechembl.org/

> <PUBCHEM_EXT_SUBSTANCE_URL>
https://www.surechembl.org/chemical/SCHEMBL16106687

> <PUBCHEM_CID_ASSOCIATIONS>
117598832  1

> <PUBCHEM_COORDINATE_TYPE>
1
3

> <PUBCHEM_BONDANNOTATIONS>
18  12  5
18  21  6
19  24  6
27  23  6
30  29  5
33  38  5
45  50  5
46  50  6
56  54  6

$$$$
