310949680
  -OEChem-07211613022D

 25 26  0     0  0  0  0  0  0999 V2000
    1.7764   -1.0379    0.0000 O   0  0  0  0  0  0  0  0  0  0  0  0
    0.3393    1.4637    0.0000 O   0  0  0  0  0  0  0  0  0  0  0  0
    3.9187   -1.4637    0.0000 O   0  0  0  0  0  0  0  0  0  0  0  0
    2.4950   -1.4637    0.0000 O   0  0  0  0  0  0  0  0  0  0  0  0
   -3.9187   -1.0512    0.0000 O   0  0  0  0  0  0  0  0  0  0  0  0
    1.0712    0.2129    0.0000 N   0  0  0  0  0  0  0  0  0  0  0  0
    2.4817    0.2262    0.0000 C   0  0  0  0  0  0  0  0  0  0  0  0
    0.3526   -0.2129    0.0000 C   0  0  0  0  0  0  0  0  0  0  0  0
   -0.3659    0.2129    0.0000 C   0  0  0  0  0  0  0  0  0  0  0  0
    1.7897   -0.1863    0.0000 C   0  0  0  0  0  0  0  0  0  0  0  0
    3.2135   -0.2129    0.0000 C   0  0  0  0  0  0  0  0  0  0  0  0
   -1.0712   -0.2262    0.0000 C   0  0  0  0  0  0  0  0  0  0  0  0
   -1.0845   -1.0379    0.0000 C   0  0  0  0  0  0  0  0  0  0  0  0
    0.3526   -1.0379    0.0000 C   0  0  0  0  0  0  0  0  0  0  0  0
   -0.3792    1.0379    0.0000 C   0  0  0  0  0  0  0  0  0  0  0  0
    2.4950    1.0379    0.0000 C   0  0  0  0  0  0  0  0  0  0  0  0
    3.1736   -1.0246    0.0000 C   0  0  0  0  0  0  0  0  0  0  0  0
    3.9054    0.2129    0.0000 C   0  0  0  0  0  0  0  0  0  0  0  0
   -0.3393   -1.4504    0.0000 C   0  0  0  0  0  0  0  0  0  0  0  0
    3.1736    1.4504    0.0000 C   0  0  0  0  0  0  0  0  0  0  0  0
    3.9054    1.0379    0.0000 C   0  0  0  0  0  0  0  0  0  0  0  0
   -1.8030   -1.4637    0.0000 C   0  0  0  0  0  0  0  0  0  0  0  0
   -1.1111    1.4637    0.0000 C   0  0  0  0  0  0  0  0  0  0  0  0
   -2.5083   -1.0512    0.0000 C   0  0  0  0  0  0  0  0  0  0  0  0
   -3.2268   -1.4637    0.0000 C   0  0  0  0  0  0  0  0  0  0  0  0
  1 10  2  0  0  0  0
  2 15  2  0  0  0  0
  3 17  2  0  0  0  0
  4 17  1  0  0  0  0
  5 25  1  0  0  0  0
  6  8  1  0  0  0  0
  6 10  1  0  0  0  0
  7 10  1  0  0  0  0
  7 11  1  0  0  0  0
  7 16  2  0  0  0  0
  8  9  1  0  0  0  0
  8 14  2  0  0  0  0
  9 12  2  0  0  0  0
  9 15  1  0  0  0  0
 11 17  1  0  0  0  0
 11 18  2  0  0  0  0
 12 13  1  0  0  0  0
 13 19  2  0  0  0  0
 13 22  1  0  0  0  0
 14 19  1  0  0  0  0
 15 23  1  0  0  0  0
 16 20  1  0  0  0  0
 18 21  1  0  0  0  0
 20 21  2  0  0  0  0
 22 24  1  0  0  0  0
 24 25  1  0  0  0  0
M  END
> <PUBCHEM_COMPOUND_ID_TYPE>
0

> <PUBCHEM_TOTAL_CHARGE>
0

> <PUBCHEM_SUBSTANCE_ID>
310949680

> <PUBCHEM_SUBSTANCE_VERSION>
1

> <PUBCHEM_EXT_DATASOURCE_NAME>
4488

> <PUBCHEM_EXT_DATASOURCE_REGID>
SCHEMBL16127878

> <PUBCHEM_SUBSTANCE_COMMENT>
InChI=1S/C19H19NO5/c1-12(22)16-11-13(5-4-10-21)8-9-17(16)20-18(23)14-6-2-3-7-15(14)19(24)25/h2-3,6-9,11,21H,4-5,10H2,1H3,(H,20,23)(H,24,25)
InChIKey=KOKLPHDCMDOUTJ-UHFFFAOYSA-N

> <PUBCHEM_SUBSTANCE_SYNONYM>
SCHEMBL16127878

> <PUBCHEM_XREF_EXT_ID>
SCHEMBL16127878

> <PUBCHEM_EXT_DATASOURCE_URL>
https://www.surechembl.org/

> <PUBCHEM_EXT_SUBSTANCE_URL>
https://www.surechembl.org/chemical/SCHEMBL16127878

> <PUBCHEM_CID_ASSOCIATIONS>
85473209  1

> <PUBCHEM_COORDINATE_TYPE>
1
3

$$$$
