310939147
  -OEChem-07211613022D

 24 26  0     1  0  0  0  0  0999 V2000
    0.6592    0.0000    0.0000 F   0  0  0  0  0  0  0  0  0  0  0  0
   -0.7697   -2.4750    0.0000 F   0  0  0  0  0  0  0  0  0  0  0  0
   -0.7697   -0.8250    0.0000 O   0  0  0  0  0  0  0  0  0  0  0  0
    2.0881    2.4750    0.0000 O   0  0  0  0  0  0  0  0  0  0  0  0
    2.8026   -1.2375    0.0000 N   0  0  0  0  0  0  0  0  0  0  0  0
    2.8026    1.2375    0.0000 N   0  0  0  0  0  0  0  0  0  0  0  0
    1.3737   -1.2375    0.0000 C   0  0  0  0  0  0  0  0  0  0  0  0
    0.6592   -0.8250    0.0000 C   0  0  0  0  0  0  0  0  0  0  0  0
   -0.0553   -1.2375    0.0000 C   0  0  0  0  0  0  0  0  0  0  0  0
    2.0881   -0.8250    0.0000 C   0  0  3  0  0  0  0  0  0  0  0  0
   -0.0553   -2.0625    0.0000 C   0  0  0  0  0  0  0  0  0  0  0  0
    2.0881    0.0000    0.0000 C   0  0  3  0  0  0  0  0  0  0  0  0
    1.3737   -2.0625    0.0000 C   0  0  0  0  0  0  0  0  0  0  0  0
    0.6592   -2.4750    0.0000 C   0  0  0  0  0  0  0  0  0  0  0  0
   -1.4842   -1.2375    0.0000 C   0  0  0  0  0  0  0  0  0  0  0  0
    2.8026    0.4125    0.0000 C   0  0  0  0  0  0  0  0  0  0  0  0
    1.3737    0.4125    0.0000 C   0  0  0  0  0  0  0  0  0  0  0  0
    2.0881    1.6500    0.0000 C   0  0  0  0  0  0  0  0  0  0  0  0
    1.3737    1.2375    0.0000 C   0  0  0  0  0  0  0  0  0  0  0  0
   -1.4842   -2.0625    0.0000 C   0  0  0  0  0  0  0  0  0  0  0  0
   -2.1987   -0.8250    0.0000 C   0  0  0  0  0  0  0  0  0  0  0  0
   -2.1987   -2.4750    0.0000 C   0  0  0  0  0  0  0  0  0  0  0  0
   -2.9131   -1.2375    0.0000 C   0  0  0  0  0  0  0  0  0  0  0  0
   -2.9131   -2.0625    0.0000 C   0  0  0  0  0  0  0  0  0  0  0  0
  1  8  1  0  0  0  0
  2 11  1  0  0  0  0
  3  9  1  0  0  0  0
  3 15  1  0  0  0  0
  4 18  2  0  0  0  0
 10  5  1  1  0  0  0
  6 16  1  0  0  0  0
  6 18  1  0  0  0  0
  7  8  2  0  0  0  0
  7 10  1  0  0  0  0
  7 13  1  0  0  0  0
  8  9  1  0  0  0  0
  9 11  2  0  0  0  0
 10 12  1  0  0  0  0
 11 14  1  0  0  0  0
 12 16  1  1  0  0  0
 12 17  1  0  0  0  0
 13 14  2  0  0  0  0
 15 20  2  0  0  0  0
 15 21  1  0  0  0  0
 17 19  1  0  0  0  0
 18 19  1  0  0  0  0
 20 22  1  0  0  0  0
 21 23  2  0  0  0  0
 22 24  2  0  0  0  0
 23 24  1  0  0  0  0
M  END
> <PUBCHEM_COMPOUND_ID_TYPE>
0

> <PUBCHEM_TOTAL_CHARGE>
0

> <PUBCHEM_SUBSTANCE_ID>
310939147

> <PUBCHEM_SUBSTANCE_VERSION>
1

> <PUBCHEM_EXT_DATASOURCE_NAME>
4488

> <PUBCHEM_EXT_DATASOURCE_REGID>
SCHEMBL16117068

> <PUBCHEM_SUBSTANCE_COMMENT>
InChI=1S/C18H18F2N2O2/c19-14-8-7-13(17(21)11-6-9-15(23)22-10-11)16(20)18(14)24-12-4-2-1-3-5-12/h1-5,7-8,11,17H,6,9-10,21H2,(H,22,23)/t11-,17+/m0/s1
InChIKey=QQYHEUKSPZGAFW-APPDUMDISA-N

> <PUBCHEM_SUBSTANCE_SYNONYM>
SCHEMBL16117068

> <PUBCHEM_XREF_EXT_ID>
SCHEMBL16117068

> <PUBCHEM_EXT_DATASOURCE_URL>
https://www.surechembl.org/

> <PUBCHEM_EXT_SUBSTANCE_URL>
https://www.surechembl.org/chemical/SCHEMBL16117068

> <PUBCHEM_CID_ASSOCIATIONS>
117606502  1

> <PUBCHEM_COORDINATE_TYPE>
1
3

> <PUBCHEM_BONDANNOTATIONS>
12  16  5
10  5  5

$$$$
