310940765
  -OEChem-07211613022D

 11 12  0     0  0  0  0  0  0999 V2000
    2.4531   -0.0756    0.0000 Cl  0  0  0  0  0  0  0  0  0  0  0  0
    0.8590   -0.0619    0.0000 N   0  0  0  0  0  0  0  0  0  0  0  0
   -0.7902   -0.0481    0.0000 C   0  0  0  0  0  0  0  0  0  0  0  0
    0.0343   -0.0481    0.0000 C   0  0  0  0  0  0  0  0  0  0  0  0
   -0.3917    0.6391    0.0000 C   0  0  0  0  0  0  0  0  0  0  0  0
    0.0894   -0.6115    0.0000 C   0  0  0  0  0  0  0  0  0  0  0  0
   -0.8177   -0.6803    0.0000 C   0  0  0  0  0  0  0  0  0  0  0  0
   -1.6286   -0.0343    0.0000 C   0  0  0  0  0  0  0  0  0  0  0  0
   -2.1920   -0.6528    0.0000 C   0  0  0  0  0  0  0  0  0  0  0  0
   -2.4531   -0.0619    0.0000 C   0  0  0  0  0  0  0  0  0  0  0  0
   -2.0409    0.6803    0.0000 C   0  0  0  0  0  0  0  0  0  0  0  0
  1  2  1  0  0  0  0
  2  4  1  0  0  0  0
  3  5  1  0  0  0  0
  3  6  1  0  0  0  0
  3  7  1  0  0  0  0
  3  8  1  0  0  0  0
  4  5  1  0  0  0  0
  4  6  1  0  0  0  0
  4  7  1  0  0  0  0
  8  9  1  0  0  0  0
  8 10  1  0  0  0  0
  8 11  1  0  0  0  0
M  END
> <PUBCHEM_COMPOUND_ID_TYPE>
0

> <PUBCHEM_TOTAL_CHARGE>
0

> <PUBCHEM_SUBSTANCE_ID>
310940765

> <PUBCHEM_SUBSTANCE_VERSION>
1

> <PUBCHEM_EXT_DATASOURCE_NAME>
4488

> <PUBCHEM_EXT_DATASOURCE_REGID>
SCHEMBL16118724

> <PUBCHEM_SUBSTANCE_COMMENT>
InChI=1S/C9H16ClN/c1-7(2,3)8-4-9(5-8,6-8)11-10/h11H,4-6H2,1-3H3
InChIKey=BVHUJFXGDZBCKI-UHFFFAOYSA-N

> <PUBCHEM_SUBSTANCE_SYNONYM>
SCHEMBL16118724

> <PUBCHEM_XREF_EXT_ID>
SCHEMBL16118724

> <PUBCHEM_EXT_DATASOURCE_URL>
https://www.surechembl.org/

> <PUBCHEM_EXT_SUBSTANCE_URL>
https://www.surechembl.org/chemical/SCHEMBL16118724

> <PUBCHEM_CID_ASSOCIATIONS>
117607718  1

> <PUBCHEM_COORDINATE_TYPE>
1
3

$$$$
