310931237
  -OEChem-07211613022D

 14 15  0     0  0  0  0  0  0999 V2000
    0.7078   -0.0147    0.0000 Cl  0  0  0  0  0  0  0  0  0  0  0  0
    2.1529    0.0000    0.0000 O   0  0  0  0  0  0  0  0  0  0  0  0
    2.8606   -2.0644    0.0000 O   0  0  0  0  0  0  0  0  0  0  0  0
    2.1529   -0.8257    0.0000 C   0  0  0  0  0  0  0  0  0  0  0  0
    1.4303   -1.2387    0.0000 C   0  0  0  0  0  0  0  0  0  0  0  0
    2.8606   -1.2387    0.0000 C   0  0  0  0  0  0  0  0  0  0  0  0
    3.5832   -0.8257    0.0000 C   0  0  0  0  0  0  0  0  0  0  0  0
    0.7078   -0.8405    0.0000 C   0  0  0  0  0  0  0  0  0  0  0  0
    3.9960   -0.1327    0.0000 C   0  0  0  0  0  0  0  0  0  0  0  0
    4.4237   -0.8257    0.0000 C   0  0  0  0  0  0  0  0  0  0  0  0
    1.4156   -2.0644    0.0000 C   0  0  0  0  0  0  0  0  0  0  0  0
    0.0000   -1.2387    0.0000 C   0  0  0  0  0  0  0  0  0  0  0  0
    0.7078   -2.4772    0.0000 C   0  0  0  0  0  0  0  0  0  0  0  0
    0.0000   -2.0644    0.0000 C   0  0  0  0  0  0  0  0  0  0  0  0
  1  8  1  0  0  0  0
  2  4  2  0  0  0  0
  3  6  2  0  0  0  0
  4  5  1  0  0  0  0
  4  6  1  0  0  0  0
  5  8  1  0  0  0  0
  5 11  2  0  0  0  0
  6  7  1  0  0  0  0
  7  9  1  0  0  0  0
  7 10  1  0  0  0  0
  8 12  2  0  0  0  0
  9 10  1  0  0  0  0
 11 13  1  0  0  0  0
 12 14  1  0  0  0  0
 13 14  2  0  0  0  0
M  END
> <PUBCHEM_COMPOUND_ID_TYPE>
0

> <PUBCHEM_TOTAL_CHARGE>
0

> <PUBCHEM_SUBSTANCE_ID>
310931237

> <PUBCHEM_SUBSTANCE_VERSION>
1

> <PUBCHEM_EXT_DATASOURCE_NAME>
4488

> <PUBCHEM_EXT_DATASOURCE_REGID>
SCHEMBL16108548

> <PUBCHEM_SUBSTANCE_COMMENT>
InChI=1S/C11H9ClO2/c12-9-4-2-1-3-8(9)11(14)10(13)7-5-6-7/h1-4,7H,5-6H2
InChIKey=VSTGJSMKCAUXIR-UHFFFAOYSA-N

> <PUBCHEM_SUBSTANCE_SYNONYM>
SCHEMBL16108548

> <PUBCHEM_XREF_EXT_ID>
SCHEMBL16108548

> <PUBCHEM_EXT_DATASOURCE_URL>
https://www.surechembl.org/

> <PUBCHEM_EXT_SUBSTANCE_URL>
https://www.surechembl.org/chemical/SCHEMBL16108548

> <PUBCHEM_CID_ASSOCIATIONS>
117600075  1

> <PUBCHEM_COORDINATE_TYPE>
1
3

$$$$
