310942764
  -OEChem-07211613022D

 53 57  0     1  0  0  0  0  0999 V2000
   -4.8099   -0.5641    0.0000 F   0  0  0  0  0  0  0  0  0  0  0  0
    1.7419   -1.7518    0.0000 F   0  0  0  0  0  0  0  0  0  0  0  0
   -4.8099   -3.9292    0.0000 F   0  0  0  0  0  0  0  0  0  0  0  0
   -2.0784   -2.4248    0.0000 O   0  0  0  0  0  0  0  0  0  0  0  0
   -1.2470   -3.8895    0.0000 O   0  0  0  0  0  0  0  0  0  0  0  0
    1.2668    0.4652    0.0000 O   0  0  0  0  0  0  0  0  0  0  0  0
   -4.6516    1.8706    0.0000 O   0  0  0  0  0  0  0  0  0  0  0  0
    1.2668    1.9299    0.0000 O   0  0  0  0  0  0  0  0  0  0  0  0
    5.5028    1.9695    0.0000 O   0  0  0  0  0  0  0  0  0  0  0  0
    3.1275    3.7114    0.0000 O   0  0  0  0  0  0  0  0  0  0  0  0
   -2.5732   -0.3068    0.0000 N   0  0  0  0  0  0  0  0  0  0  0  0
   -0.8313   -1.7122    0.0000 N   0  0  0  0  0  0  0  0  0  0  0  0
   -2.5732   -1.6528    0.0000 N   0  0  0  0  0  0  0  0  0  0  0  0
    0.8511   -3.7312    0.0000 N   0  0  0  0  0  0  0  0  0  0  0  0
    4.1765    2.6425    0.0000 N   0  0  0  0  0  0  0  0  0  0  0  0
    2.5139    1.1975    0.0000 N   0  0  0  0  0  0  0  0  0  0  0  0
   -1.2470   -0.9798    0.0000 C   0  0  3  0  0  0  0  0  0  0  0  0
   -2.0784   -0.9600    0.0000 C   0  0  0  0  0  0  0  0  0  0  0  0
   -0.8115   -0.1880    0.0000 C   0  0  0  0  0  0  0  0  0  0  0  0
   -3.3650   -1.3955    0.0000 C   0  0  0  0  0  0  0  0  0  0  0  0
   -3.3254   -0.5641    0.0000 C   0  0  0  0  0  0  0  0  0  0  0  0
   -4.0776   -1.8111    0.0000 C   0  0  0  0  0  0  0  0  0  0  0  0
   -1.2273   -2.4248    0.0000 C   0  0  0  0  0  0  0  0  0  0  0  0
    0.0198   -1.7122    0.0000 C   0  0  0  0  0  0  0  0  0  0  0  0
   -2.1576    0.4454    0.0000 C   0  0  0  0  0  0  0  0  0  0  0  0
    0.0000   -0.2474    0.0000 C   0  0  0  0  0  0  0  0  0  0  0  0
   -4.8099   -1.3955    0.0000 C   0  0  0  0  0  0  0  0  0  0  0  0
    0.4355   -2.4248    0.0000 C   0  0  3  0  0  0  0  0  0  0  0  0
   -1.2668    0.4850    0.0000 C   0  0  0  0  0  0  0  0  0  0  0  0
   -0.3761    0.4652    0.0000 C   0  0  0  0  0  0  0  0  0  0  0  0
   -4.0974   -2.6623    0.0000 C   0  0  0  0  0  0  0  0  0  0  0  0
   -2.5732    1.1579    0.0000 C   0  0  0  0  0  0  0  0  0  0  0  0
   -0.8313   -3.1572    0.0000 C   0  0  3  0  0  0  0  0  0  0  0  0
    1.2470   -2.4445    0.0000 C   0  0  3  0  0  0  0  0  0  0  0  0
   -4.7902   -3.0582    0.0000 C   0  0  0  0  0  0  0  0  0  0  0  0
   -5.5028   -1.8111    0.0000 C   0  0  0  0  0  0  0  0  0  0  0  0
    0.4157    0.4652    0.0000 C   0  0  0  0  0  0  0  0  0  0  0  0
    0.1979   -3.2363    0.0000 C   0  0  0  0  0  0  0  0  0  0  0  0
   -5.5028   -2.6623    0.0000 C   0  0  0  0  0  0  0  0  0  0  0  0
   -3.3848    1.1579    0.0000 C   0  0  0  0  0  0  0  0  0  0  0  0
   -2.1576    1.8904    0.0000 C   0  0  0  0  0  0  0  0  0  0  0  0
    1.5043   -3.2165    0.0000 C   0  0  0  0  0  0  0  0  0  0  0  0
   -3.8203    1.8706    0.0000 C   0  0  0  0  0  0  0  0  0  0  0  0
   -0.2574   -3.7312    0.0000 C   0  0  0  0  0  0  0  0  0  0  0  0
   -2.5732    2.6029    0.0000 C   0  0  0  0  0  0  0  0  0  0  0  0
   -3.4045    2.5831    0.0000 C   0  0  0  0  0  0  0  0  0  0  0  0
    1.6825    1.1975    0.0000 C   0  0  0  0  0  0  0  0  0  0  0  0
    4.9881    2.6623    0.0000 C   0  0  0  0  0  0  0  0  0  0  0  0
    3.9588    3.4343    0.0000 C   0  0  0  0  0  0  0  0  0  0  0  0
    3.7609    1.9299    0.0000 C   0  0  0  0  0  0  0  0  0  0  0  0
    2.9493    1.9299    0.0000 C   0  0  0  0  0  0  0  0  0  0  0  0
    5.2652    3.4541    0.0000 C   0  0  0  0  0  0  0  0  0  0  0  0
    4.5527    3.9292    0.0000 C   0  0  0  0  0  0  0  0  0  0  0  0
  1 27  1  0  0  0  0
 34  2  1  1  0  0  0
  3 35  1  0  0  0  0
  4 23  2  0  0  0  0
 33  5  1  6  0  0  0
  6 37  1  0  0  0  0
  6 47  1  0  0  0  0
  7 43  1  0  0  0  0
  8 47  2  0  0  0  0
  9 48  2  0  0  0  0
 10 49  2  0  0  0  0
 11 18  1  0  0  0  0
 11 21  1  0  0  0  0
 11 25  1  0  0  0  0
 17 12  1  1  0  0  0
 12 23  1  0  0  0  0
 12 24  1  0  0  0  0
 13 18  2  0  0  0  0
 13 20  1  0  0  0  0
 14 38  1  0  0  0  0
 14 42  1  0  0  0  0
 15 48  1  0  0  0  0
 15 49  1  0  0  0  0
 15 50  1  0  0  0  0
 16 47  1  0  0  0  0
 16 51  1  0  0  0  0
 17 18  1  0  0  0  0
 17 19  1  0  0  0  0
 19 26  1  0  0  0  0
 19 29  1  0  0  0  0
 19 30  1  0  0  0  0
 20 21  2  0  0  0  0
 20 22  1  0  0  0  0
 22 27  2  0  0  0  0
 22 31  1  0  0  0  0
 23 33  1  0  0  0  0
 28 24  1  1  0  0  0
 25 32  1  0  0  0  0
 26 37  1  0  0  0  0
 27 36  1  0  0  0  0
 28 34  1  0  0  0  0
 28 38  1  0  0  0  0
 31 35  2  0  0  0  0
 32 40  1  0  0  0  0
 32 41  2  0  0  0  0
 33 44  1  0  0  0  0
 34 42  1  0  0  0  0
 35 39  1  0  0  0  0
 36 39  2  0  0  0  0
 40 43  2  0  0  0  0
 41 45  1  0  0  0  0
 43 46  1  0  0  0  0
 45 46  2  0  0  0  0
 48 52  1  0  0  0  0
 49 53  1  0  0  0  0
 50 51  1  0  0  0  0
 52 53  2  0  0  0  0
M  END
> <PUBCHEM_COMPOUND_ID_TYPE>
0

> <PUBCHEM_TOTAL_CHARGE>
0

> <PUBCHEM_SUBSTANCE_ID>
310942764

> <PUBCHEM_SUBSTANCE_VERSION>
1

> <PUBCHEM_EXT_DATASOURCE_NAME>
4488

> <PUBCHEM_EXT_DATASOURCE_REGID>
SCHEMBL16120817

> <PUBCHEM_SUBSTANCE_COMMENT>
InChI=1S/C37H43F3N6O7/c1-22(47)35(51)46(20-24-17-41-18-29(24)40)33(37(2,3)11-14-53-36(52)42-12-13-45-31(49)9-10-32(45)50)34-43-30(27-16-25(38)7-8-28(27)39)21-44(34)19-23-5-4-6-26(48)15-23/h4-10,15-16,21-22,24,29,33,41,47-48H,11-14,17-20H2,1-3H3,(H,42,52)/t22-,24-,29-,33-/m0/s1
InChIKey=YYKGHHDUEZCZSE-YRANEEFYSA-N

> <PUBCHEM_SUBSTANCE_SYNONYM>
SCHEMBL16120817

> <PUBCHEM_XREF_EXT_ID>
SCHEMBL16120817

> <PUBCHEM_EXT_DATASOURCE_URL>
https://www.surechembl.org/

> <PUBCHEM_EXT_SUBSTANCE_URL>
https://www.surechembl.org/chemical/SCHEMBL16120817

> <PUBCHEM_CID_ASSOCIATIONS>
117609277  1

> <PUBCHEM_COORDINATE_TYPE>
1
3

> <PUBCHEM_BONDANNOTATIONS>
17  12  5
34  2  5
28  24  5
33  5  6

$$$$
