310948598
  -OEChem-07211613022D

 34 36  0     1  0  0  0  0  0999 V2000
    4.1498    0.6176    0.0000 F   0  0  0  0  0  0  0  0  0  0  0  0
    3.7473   -0.4372    0.0000 F   0  0  0  0  0  0  0  0  0  0  0  0
    2.6786   -0.0347    0.0000 F   0  0  0  0  0  0  0  0  0  0  0  0
    2.9285    2.3803    0.0000 O   0  0  0  0  0  0  0  0  0  0  0  0
   -4.1498    0.0208    0.0000 O   0  0  0  0  0  0  0  0  0  0  0  0
   -2.9007   -0.6176    0.0000 O   0  0  0  0  0  0  0  0  0  0  0  0
    0.0000    2.4635    0.0000 O   0  0  0  0  0  0  0  0  0  0  0  0
    0.7217   -0.4094    0.0000 N   0  0  0  0  0  0  0  0  0  0  0  0
    0.7217    1.2422    0.0000 N   0  0  0  0  0  0  0  0  0  0  0  0
    1.4434    2.4774    0.0000 N   0  0  0  0  0  0  0  0  0  0  0  0
    3.4836    1.7835    0.0000 N   0  0  0  0  0  0  0  0  0  0  0  0
   -2.2067    1.2560    0.0000 C   0  0  3  0  0  0  0  0  0  0  0  0
   -2.9007    0.8397    0.0000 C   0  0  3  0  0  0  0  0  0  0  0  0
   -1.4156    0.8119    0.0000 C   0  0  0  0  0  0  0  0  0  0  0  0
   -2.8868    1.6308    0.0000 C   0  0  0  0  0  0  0  0  0  0  0  0
    0.0000    0.8258    0.0000 C   0  0  0  0  0  0  0  0  0  0  0  0
   -0.0138    0.0208    0.0000 C   0  0  0  0  0  0  0  0  0  0  0  0
   -0.7494    1.2282    0.0000 C   0  0  0  0  0  0  0  0  0  0  0  0
   -3.3309    0.0902    0.0000 C   0  0  0  0  0  0  0  0  0  0  0  0
   -1.4434    0.0069    0.0000 C   0  0  0  0  0  0  0  0  0  0  0  0
   -0.7078   -0.3955    0.0000 C   0  0  0  0  0  0  0  0  0  0  0  0
    3.0534    1.0756    0.0000 C   0  0  0  0  0  0  0  0  0  0  0  0
    2.1651    2.0749    0.0000 C   0  0  0  0  0  0  0  0  0  0  0  0
    3.4003    0.2984    0.0000 C   0  0  0  0  0  0  0  0  0  0  0  0
    0.7356    2.0611    0.0000 C   0  0  0  0  0  0  0  0  0  0  0  0
    2.2484    1.2560    0.0000 C   0  0  0  0  0  0  0  0  0  0  0  0
    0.7078   -1.2282    0.0000 C   0  0  0  0  0  0  0  0  0  0  0  0
    1.4434    0.0069    0.0000 C   0  0  0  0  0  0  0  0  0  0  0  0
    0.0000   -1.6308    0.0000 C   0  0  0  0  0  0  0  0  0  0  0  0
    2.1651   -0.3955    0.0000 C   0  0  0  0  0  0  0  0  0  0  0  0
   -0.7494   -1.2422    0.0000 C   0  0  0  0  0  0  0  0  0  0  0  0
    0.0138   -2.4774    0.0000 C   0  0  0  0  0  0  0  0  0  0  0  0
    2.8868    0.0208    0.0000 C   0  0  0  0  0  0  0  0  0  0  0  0
    2.1790   -1.2422    0.0000 C   0  0  0  0  0  0  0  0  0  0  0  0
  1 24  1  0  0  0  0
  2 24  1  0  0  0  0
  3 24  1  0  0  0  0
  4 11  1  0  0  0  0
  4 23  1  0  0  0  0
  5 19  2  0  0  0  0
  6 19  1  0  0  0  0
  7 25  2  0  0  0  0
  8 17  1  0  0  0  0
  8 27  1  0  0  0  0
  8 28  1  0  0  0  0
  9 16  1  0  0  0  0
  9 25  1  0  0  0  0
 10 23  1  0  0  0  0
 10 25  1  0  0  0  0
 11 22  2  0  0  0  0
 12 13  1  0  0  0  0
 12 14  1  0  0  0  0
 12 15  1  1  0  0  0
 13 15  1  0  0  0  0
 13 19  1  1  0  0  0
 14 18  1  0  0  0  0
 14 20  2  0  0  0  0
 16 17  1  0  0  0  0
 16 18  2  0  0  0  0
 17 21  2  0  0  0  0
 20 21  1  0  0  0  0
 22 24  1  0  0  0  0
 22 26  1  0  0  0  0
 23 26  2  0  0  0  0
 27 29  1  0  0  0  0
 28 30  1  0  0  0  0
 29 31  1  0  0  0  0
 29 32  1  0  0  0  0
 30 33  1  0  0  0  0
 30 34  1  0  0  0  0
M  END
> <PUBCHEM_COMPOUND_ID_TYPE>
0

> <PUBCHEM_TOTAL_CHARGE>
0

> <PUBCHEM_SUBSTANCE_ID>
310948598

> <PUBCHEM_SUBSTANCE_VERSION>
1

> <PUBCHEM_EXT_DATASOURCE_NAME>
4488

> <PUBCHEM_EXT_DATASOURCE_REGID>
SCHEMBL16126781

> <PUBCHEM_SUBSTANCE_COMMENT>
InChI=1S/C23H29F3N4O4/c1-12(2)10-30(11-13(3)4)18-6-5-14(15-8-16(15)21(31)32)7-17(18)27-22(33)28-20-9-19(29-34-20)23(24,25)26/h5-7,9,12-13,15-16H,8,10-11H2,1-4H3,(H,31,32)(H2,27,28,33)/t15-,16-/m0/s1
InChIKey=BVGVCVRWHHUXFD-HOTGVXAUSA-N

> <PUBCHEM_SUBSTANCE_SYNONYM>
SCHEMBL16126781

> <PUBCHEM_XREF_EXT_ID>
SCHEMBL16126781

> <PUBCHEM_EXT_DATASOURCE_URL>
https://www.surechembl.org/

> <PUBCHEM_EXT_SUBSTANCE_URL>
https://www.surechembl.org/chemical/SCHEMBL16126781

> <PUBCHEM_CID_ASSOCIATIONS>
117614144  1

> <PUBCHEM_COORDINATE_TYPE>
1
3

> <PUBCHEM_BONDANNOTATIONS>
12  15  5
13  19  5

$$$$
