310932591
  -OEChem-07211613022D

 42 47  0     0  0  0  0  0  0999 V2000
    3.5689   -2.4784    0.0000 O   0  0  0  0  0  0  0  0  0  0  0  0
    3.5689   -0.8427    0.0000 O   0  0  0  0  0  0  0  0  0  0  0  0
    0.7435   -3.2715    0.0000 N   0  0  0  0  0  0  0  0  0  0  0  0
    0.0000   -2.0819    0.0000 N   0  0  0  0  0  0  0  0  0  0  0  0
    0.7435   -0.8427    0.0000 N   0  0  0  0  0  0  0  0  0  0  0  0
    0.7435   -4.9568    0.0000 N   0  0  0  0  0  0  0  0  0  0  0  0
    0.0496   -6.1960    0.0000 N   0  0  0  0  0  0  0  0  0  0  0  0
    1.4375   -6.1960    0.0000 N   0  0  0  0  0  0  0  0  0  0  0  0
    5.0063   -4.9568    0.0000 N   0  0  0  0  0  0  0  0  0  0  0  0
    6.4438   -5.7499    0.0000 N   0  0  0  0  0  0  0  0  0  0  0  0
    1.4375   -2.0819    0.0000 C   0  0  0  0  0  0  0  0  0  0  0  0
    0.7435   -2.4784    0.0000 C   0  0  0  0  0  0  0  0  0  0  0  0
    1.4375   -1.2392    0.0000 C   0  0  0  0  0  0  0  0  0  0  0  0
    2.1314   -2.4784    0.0000 C   0  0  0  0  0  0  0  0  0  0  0  0
    2.8750   -2.0819    0.0000 C   0  0  0  0  0  0  0  0  0  0  0  0
    2.8750   -1.2392    0.0000 C   0  0  0  0  0  0  0  0  0  0  0  0
    2.1314   -0.8427    0.0000 C   0  0  0  0  0  0  0  0  0  0  0  0
    0.0000   -3.7176    0.0000 C   0  0  0  0  0  0  0  0  0  0  0  0
    1.4375   -3.7176    0.0000 C   0  0  0  0  0  0  0  0  0  0  0  0
    0.0000   -1.2392    0.0000 C   0  0  0  0  0  0  0  0  0  0  0  0
    1.4375   -4.5107    0.0000 C   0  0  0  0  0  0  0  0  0  0  0  0
    0.0000   -4.5107    0.0000 C   0  0  0  0  0  0  0  0  0  0  0  0
    0.7435   -5.7499    0.0000 C   0  0  0  0  0  0  0  0  0  0  0  0
    0.7435   -7.4352    0.0000 C   0  0  0  0  0  0  0  0  0  0  0  0
    3.5689   -3.2715    0.0000 C   0  0  0  0  0  0  0  0  0  0  0  0
    0.0496   -6.9891    0.0000 C   0  0  0  0  0  0  0  0  0  0  0  0
    1.4375   -6.9891    0.0000 C   0  0  0  0  0  0  0  0  0  0  0  0
    3.5689    0.0000    0.0000 C   0  0  0  0  0  0  0  0  0  0  0  0
    0.7435   -8.2779    0.0000 C   0  0  0  0  0  0  0  0  0  0  0  0
    4.3124   -3.7176    0.0000 C   0  0  0  0  0  0  0  0  0  0  0  0
    1.4375   -8.6744    0.0000 C   0  0  0  0  0  0  0  0  0  0  0  0
    4.3124   -4.5107    0.0000 C   0  0  0  0  0  0  0  0  0  0  0  0
    1.4375   -9.5171    0.0000 C   0  0  0  0  0  0  0  0  0  0  0  0
    2.1810   -8.2779    0.0000 C   0  0  0  0  0  0  0  0  0  0  0  0
    5.0063   -5.7499    0.0000 C   0  0  0  0  0  0  0  0  0  0  0  0
    5.7003   -4.5107    0.0000 C   0  0  0  0  0  0  0  0  0  0  0  0
    6.4438   -4.9568    0.0000 C   0  0  0  0  0  0  0  0  0  0  0  0
    5.7003   -6.1960    0.0000 C   0  0  0  0  0  0  0  0  0  0  0  0
    2.1810   -9.9136    0.0000 C   0  0  0  0  0  0  0  0  0  0  0  0
    2.8750   -8.6744    0.0000 C   0  0  0  0  0  0  0  0  0  0  0  0
    2.8750   -9.5171    0.0000 C   0  0  0  0  0  0  0  0  0  0  0  0
    7.1378   -6.1464    0.0000 C   0  0  0  0  0  0  0  0  0  0  0  0
  1 15  1  0  0  0  0
  1 25  1  0  0  0  0
  2 16  1  0  0  0  0
  2 28  1  0  0  0  0
  3 12  1  0  0  0  0
  3 18  1  0  0  0  0
  3 19  1  0  0  0  0
  4 12  1  0  0  0  0
  4 20  2  0  0  0  0
  5 13  2  0  0  0  0
  5 20  1  0  0  0  0
  6 21  1  0  0  0  0
  6 22  1  0  0  0  0
  6 23  1  0  0  0  0
  7 23  2  0  0  0  0
  7 26  1  0  0  0  0
  8 23  1  0  0  0  0
  8 27  2  0  0  0  0
  9 32  1  0  0  0  0
  9 35  1  0  0  0  0
  9 36  1  0  0  0  0
 10 37  1  0  0  0  0
 10 38  1  0  0  0  0
 10 42  1  0  0  0  0
 11 12  2  0  0  0  0
 11 13  1  0  0  0  0
 11 14  1  0  0  0  0
 13 17  1  0  0  0  0
 14 15  2  0  0  0  0
 15 16  1  0  0  0  0
 16 17  2  0  0  0  0
 18 22  1  0  0  0  0
 19 21  1  0  0  0  0
 24 26  2  0  0  0  0
 24 27  1  0  0  0  0
 24 29  1  0  0  0  0
 25 30  1  0  0  0  0
 29 31  1  0  0  0  0
 30 32  1  0  0  0  0
 31 33  2  0  0  0  0
 31 34  1  0  0  0  0
 33 39  1  0  0  0  0
 34 40  2  0  0  0  0
 35 38  1  0  0  0  0
 36 37  1  0  0  0  0
 39 41  2  0  0  0  0
 40 41  1  0  0  0  0
M  END
> <PUBCHEM_COMPOUND_ID_TYPE>
0

> <PUBCHEM_TOTAL_CHARGE>
0

> <PUBCHEM_SUBSTANCE_ID>
310932591

> <PUBCHEM_SUBSTANCE_VERSION>
1

> <PUBCHEM_EXT_DATASOURCE_NAME>
4488

> <PUBCHEM_EXT_DATASOURCE_REGID>
SCHEMBL16109969

> <PUBCHEM_SUBSTANCE_COMMENT>
InChI=1S/C32H40N8O2/c1-37-10-12-38(13-11-37)9-6-18-42-30-20-27-28(21-29(30)41-2)35-24-36-31(27)39-14-16-40(17-15-39)32-33-22-26(23-34-32)19-25-7-4-3-5-8-25/h3-5,7-8,20-24H,6,9-19H2,1-2H3
InChIKey=POXBJFSXYYFBKF-UHFFFAOYSA-N

> <PUBCHEM_SUBSTANCE_SYNONYM>
SCHEMBL16109969

> <PUBCHEM_XREF_EXT_ID>
SCHEMBL16109969

> <PUBCHEM_EXT_DATASOURCE_URL>
https://www.surechembl.org/

> <PUBCHEM_EXT_SUBSTANCE_URL>
https://www.surechembl.org/chemical/SCHEMBL16109969

> <PUBCHEM_CID_ASSOCIATIONS>
117601113  1

> <PUBCHEM_COORDINATE_TYPE>
1
3

$$$$
