310943532
  -OEChem-07211613022D

 41 44  0     1  0  0  0  0  0999 V2000
    2.8773   -2.1369    0.0000 F   0  0  0  0  0  0  0  0  0  0  0  0
    4.3019   -2.1369    0.0000 F   0  0  0  0  0  0  0  0  0  0  0  0
    3.8146   -2.5305    0.0000 F   0  0  0  0  0  0  0  0  0  0  0  0
   -2.9148    0.4124    0.0000 O   0  0  0  0  0  0  0  0  0  0  0  0
   -4.2832    2.9242    0.0000 O   0  0  0  0  0  0  0  0  0  0  0  0
    1.4528    0.3374    0.0000 O   0  0  0  0  0  0  0  0  0  0  0  0
   -1.4715   -2.9054    0.0000 O   0  0  0  0  0  0  0  0  0  0  0  0
   -0.7591   -1.6683    0.0000 O   0  0  0  0  0  0  0  0  0  0  0  0
   -2.8773    2.0620    0.0000 N   0  0  0  0  0  0  0  0  0  0  0  0
   -1.4715    0.3749    0.0000 N   0  0  0  0  0  0  0  0  0  0  0  0
    0.7404    3.2428    0.0000 N   0  0  0  0  0  0  0  0  0  0  0  0
    2.1650    1.5746    0.0000 N   0  0  0  0  0  0  0  0  0  0  0  0
   -2.2025   -1.6496    0.0000 N   0  0  0  0  0  0  0  0  0  0  0  0
   -0.7404    1.6120    0.0000 C   0  0  0  0  0  0  0  0  0  0  0  0
   -2.1650    1.6496    0.0000 C   0  0  0  0  0  0  0  0  0  0  0  0
    0.0093    2.0057    0.0000 C   0  0  0  0  0  0  0  0  0  0  0  0
   -2.2025    0.8248    0.0000 C   0  0  0  0  0  0  0  0  0  0  0  0
   -1.4715    2.0244    0.0000 C   0  0  0  0  0  0  0  0  0  0  0  0
    0.0281    2.8304    0.0000 C   0  0  0  0  0  0  0  0  0  0  0  0
   -0.7591    0.7686    0.0000 C   0  0  0  0  0  0  0  0  0  0  0  0
    0.7404    1.5746    0.0000 C   0  0  0  0  0  0  0  0  0  0  0  0
    1.4340    1.9870    0.0000 C   0  0  0  0  0  0  0  0  0  0  0  0
    2.8961    0.3562    0.0000 C   0  0  0  0  0  0  0  0  0  0  0  0
    2.1650    0.7686    0.0000 C   0  0  0  0  0  0  0  0  0  0  0  0
    1.4528    2.8118    0.0000 C   0  0  0  0  0  0  0  0  0  0  0  0
    3.6083   -0.8998    0.0000 C   0  0  0  0  0  0  0  0  0  0  0  0
   -2.8773    2.9054    0.0000 C   0  0  0  0  0  0  0  0  0  0  0  0
   -3.5897    1.6683    0.0000 C   0  0  0  0  0  0  0  0  0  0  0  0
    3.5897   -1.7433    0.0000 C   0  0  0  0  0  0  0  0  0  0  0  0
    2.8961   -0.4874    0.0000 C   0  0  0  0  0  0  0  0  0  0  0  0
   -2.9336   -0.4124    0.0000 C   0  0  3  0  0  0  0  0  0  0  0  0
    3.5897    0.7498    0.0000 C   0  0  0  0  0  0  0  0  0  0  0  0
   -0.7029    3.2241    0.0000 C   0  0  0  0  0  0  0  0  0  0  0  0
    4.3019   -0.4874    0.0000 C   0  0  0  0  0  0  0  0  0  0  0  0
   -3.5709    3.3178    0.0000 C   0  0  0  0  0  0  0  0  0  0  0  0
   -4.3020    2.0994    0.0000 C   0  0  0  0  0  0  0  0  0  0  0  0
    4.3019    0.3374    0.0000 C   0  0  0  0  0  0  0  0  0  0  0  0
   -2.2025   -0.8248    0.0000 C   0  0  0  0  0  0  0  0  0  0  0  0
   -3.6083   -0.8248    0.0000 C   0  0  0  0  0  0  0  0  0  0  0  0
   -1.4902   -2.0620    0.0000 C   0  0  0  0  0  0  0  0  0  0  0  0
   -2.1463   -3.3178    0.0000 C   0  0  0  0  0  0  0  0  0  0  0  0
  1 29  1  0  0  0  0
  2 29  1  0  0  0  0
  3 29  1  0  0  0  0
  4 17  1  0  0  0  0
  4 31  1  0  0  0  0
  5 35  1  0  0  0  0
  5 36  1  0  0  0  0
  6 24  2  0  0  0  0
  7 40  1  0  0  0  0
  7 41  1  0  0  0  0
  8 40  2  0  0  0  0
  9 15  1  0  0  0  0
  9 27  1  0  0  0  0
  9 28  1  0  0  0  0
 10 17  1  0  0  0  0
 10 20  2  0  0  0  0
 11 19  1  0  0  0  0
 11 25  2  0  0  0  0
 12 22  1  0  0  0  0
 12 24  1  0  0  0  0
 13 38  1  0  0  0  0
 13 40  1  0  0  0  0
 14 16  1  0  0  0  0
 14 18  2  0  0  0  0
 14 20  1  0  0  0  0
 15 17  2  0  0  0  0
 15 18  1  0  0  0  0
 16 19  2  0  0  0  0
 16 21  1  0  0  0  0
 19 33  1  0  0  0  0
 21 22  2  0  0  0  0
 22 25  1  0  0  0  0
 23 24  1  0  0  0  0
 23 30  2  0  0  0  0
 23 32  1  0  0  0  0
 26 29  1  0  0  0  0
 26 30  1  0  0  0  0
 26 34  2  0  0  0  0
 27 35  1  0  0  0  0
 28 36  1  0  0  0  0
 31 38  1  0  0  0  0
 31 39  1  1  0  0  0
 32 37  2  0  0  0  0
 34 37  1  0  0  0  0
M  END
> <PUBCHEM_COMPOUND_ID_TYPE>
0

> <PUBCHEM_TOTAL_CHARGE>
0

> <PUBCHEM_SUBSTANCE_ID>
310943532

> <PUBCHEM_SUBSTANCE_VERSION>
1

> <PUBCHEM_EXT_DATASOURCE_NAME>
4488

> <PUBCHEM_EXT_DATASOURCE_REGID>
SCHEMBL16121598

> <PUBCHEM_SUBSTANCE_COMMENT>
InChI=1S/C28H30F3N5O5/c1-17(14-34-27(38)39-3)41-26-24(36-7-9-40-10-8-36)12-20(15-33-26)23-13-22(16-32-18(23)2)35-25(37)19-5-4-6-21(11-19)28(29,30)31/h4-6,11-13,15-17H,7-10,14H2,1-3H3,(H,34,38)(H,35,37)/t17-/m1/s1
InChIKey=YNOJZMGJHBXBNH-QGZVFWFLSA-N

> <PUBCHEM_SUBSTANCE_SYNONYM>
SCHEMBL16121598

> <PUBCHEM_XREF_EXT_ID>
SCHEMBL16121598

> <PUBCHEM_EXT_DATASOURCE_URL>
https://www.surechembl.org/

> <PUBCHEM_EXT_SUBSTANCE_URL>
https://www.surechembl.org/chemical/SCHEMBL16121598

> <PUBCHEM_CID_ASSOCIATIONS>
117609946  1

> <PUBCHEM_COORDINATE_TYPE>
1
3

> <PUBCHEM_BONDANNOTATIONS>
31  39  5

$$$$
