310937779
  -OEChem-07211613022D

 19 20  0     0  0  0  0  0  0999 V2000
    6.3669   -2.8769    0.0000 O   0  0  0  0  0  0  0  0  0  0  0  0
    4.9521   -0.4244    0.0000 O   0  0  0  0  0  0  0  0  0  0  0  0
    3.5372   -2.8769    0.0000 N   0  0  0  0  0  0  0  0  0  0  0  0
    4.2446   -2.4524    0.0000 C   0  0  0  0  0  0  0  0  0  0  0  0
    5.6595   -2.4524    0.0000 C   0  0  0  0  0  0  0  0  0  0  0  0
    4.9521   -1.2262    0.0000 C   0  0  0  0  0  0  0  0  0  0  0  0
    4.2446   -1.6507    0.0000 C   0  0  0  0  0  0  0  0  0  0  0  0
    4.9521   -2.8769    0.0000 C   0  0  0  0  0  0  0  0  0  0  0  0
    5.6595   -1.6507    0.0000 C   0  0  0  0  0  0  0  0  0  0  0  0
    2.1223   -2.8769    0.0000 C   0  0  0  0  0  0  0  0  0  0  0  0
    2.8297   -2.4524    0.0000 C   0  0  0  0  0  0  0  0  0  0  0  0
    2.1223   -3.6786    0.0000 C   0  0  0  0  0  0  0  0  0  0  0  0
    1.4149   -2.4524    0.0000 C   0  0  0  0  0  0  0  0  0  0  0  0
    0.7074   -3.6786    0.0000 C   0  0  0  0  0  0  0  0  0  0  0  0
    1.4149   -4.1031    0.0000 C   0  0  0  0  0  0  0  0  0  0  0  0
    0.7074   -2.8533    0.0000 C   0  0  0  0  0  0  0  0  0  0  0  0
    7.0743   -2.4524    0.0000 C   0  0  0  0  0  0  0  0  0  0  0  0
    4.2446    0.0000    0.0000 C   0  0  0  0  0  0  0  0  0  0  0  0
    0.0000   -4.1031    0.0000 C   0  0  0  0  0  0  0  0  0  0  0  0
  1  5  1  0  0  0  0
  1 17  1  0  0  0  0
  2  6  1  0  0  0  0
  2 18  1  0  0  0  0
  3  4  1  0  0  0  0
  3 11  2  0  0  0  0
  4  7  2  0  0  0  0
  4  8  1  0  0  0  0
  5  8  2  0  0  0  0
  5  9  1  0  0  0  0
  6  7  1  0  0  0  0
  6  9  2  0  0  0  0
 10 11  1  0  0  0  0
 10 12  2  0  0  0  0
 10 13  1  0  0  0  0
 12 15  1  0  0  0  0
 13 16  2  0  0  0  0
 14 15  2  0  0  0  0
 14 16  1  0  0  0  0
 14 19  1  0  0  0  0
M  END
> <PUBCHEM_COMPOUND_ID_TYPE>
0

> <PUBCHEM_TOTAL_CHARGE>
0

> <PUBCHEM_SUBSTANCE_ID>
310937779

> <PUBCHEM_SUBSTANCE_VERSION>
1

> <PUBCHEM_EXT_DATASOURCE_NAME>
4488

> <PUBCHEM_EXT_DATASOURCE_REGID>
SCHEMBL16115591

> <PUBCHEM_SUBSTANCE_COMMENT>
InChI=1S/C16H17NO2/c1-12-4-6-13(7-5-12)11-17-14-8-15(18-2)10-16(9-14)19-3/h4-11H,1-3H3/b17-11+
InChIKey=XTULDWYCBUQEJS-GZTJUZNOSA-N

> <PUBCHEM_SUBSTANCE_SYNONYM>
SCHEMBL16115591

> <PUBCHEM_XREF_EXT_ID>
SCHEMBL16115591

> <PUBCHEM_EXT_DATASOURCE_URL>
https://www.surechembl.org/

> <PUBCHEM_EXT_SUBSTANCE_URL>
https://www.surechembl.org/chemical/SCHEMBL16115591

> <PUBCHEM_CID_ASSOCIATIONS>
117605434  1

> <PUBCHEM_COORDINATE_TYPE>
1
3

$$$$
