310934248
  -OEChem-07211613022D

 22 23  0     0  0  0  0  0  0999 V2000
    0.8450   -4.3331    0.0000 Br  0  0  0  0  0  0  0  0  0  0  0  0
    5.3948   -0.7150    0.0000 S   0  0  0  0  0  0  0  0  0  0  0  0
    0.0000   -2.9248    0.0000 F   0  0  0  0  0  0  0  0  0  0  0  0
    2.4699   -1.4299    0.0000 O   0  0  0  0  0  0  0  0  0  0  0  0
    2.4699    0.0000    0.0000 O   0  0  0  0  0  0  0  0  0  0  0  0
    6.2398   -0.7150    0.0000 O   0  0  0  0  0  0  0  0  0  0  0  0
    5.8064    0.0000    0.0000 O   0  0  0  0  0  0  0  0  0  0  0  0
    3.3148   -1.4516    0.0000 N   0  0  0  0  0  0  0  0  0  0  0  0
    3.7048   -0.7150    0.0000 C   0  0  0  0  0  0  0  0  0  0  0  0
    2.8816   -0.7150    0.0000 C   0  0  0  0  0  0  0  0  0  0  0  0
    4.1598   -1.4299    0.0000 C   0  0  0  0  0  0  0  0  0  0  0  0
    4.1598   -0.0216    0.0000 C   0  0  0  0  0  0  0  0  0  0  0  0
    4.9615   -1.4299    0.0000 C   0  0  0  0  0  0  0  0  0  0  0  0
    4.9615   -0.0216    0.0000 C   0  0  0  0  0  0  0  0  0  0  0  0
    2.6432   -1.6249    0.0000 C   0  0  0  0  0  0  0  0  0  0  0  0
    2.0799   -2.1666    0.0000 C   0  0  0  0  0  0  0  0  0  0  0  0
    1.2350   -2.1882    0.0000 C   0  0  0  0  0  0  0  0  0  0  0  0
    0.8450   -2.9032    0.0000 C   0  0  0  0  0  0  0  0  0  0  0  0
    2.4916   -2.8816    0.0000 C   0  0  0  0  0  0  0  0  0  0  0  0
    1.2566   -3.6182    0.0000 C   0  0  0  0  0  0  0  0  0  0  0  0
    2.0799   -3.6182    0.0000 C   0  0  0  0  0  0  0  0  0  0  0  0
    1.6466   -1.4299    0.0000 C   0  0  0  0  0  0  0  0  0  0  0  0
  1 20  1  0  0  0  0
  2  6  2  0  0  0  0
  2  7  2  0  0  0  0
  2 13  1  0  0  0  0
  2 14  1  0  0  0  0
  3 18  1  0  0  0  0
  4 10  1  0  0  0  0
  4 22  1  0  0  0  0
  5 10  2  0  0  0  0
  8  9  1  0  0  0  0
  8 15  1  0  0  0  0
  9 10  1  0  0  0  0
  9 11  1  0  0  0  0
  9 12  1  0  0  0  0
 11 13  1  0  0  0  0
 12 14  1  0  0  0  0
 15 16  1  0  0  0  0
 16 17  2  0  0  0  0
 16 19  1  0  0  0  0
 17 18  1  0  0  0  0
 18 20  2  0  0  0  0
 19 21  2  0  0  0  0
 20 21  1  0  0  0  0
M  END
> <PUBCHEM_COMPOUND_ID_TYPE>
0

> <PUBCHEM_TOTAL_CHARGE>
0

> <PUBCHEM_SUBSTANCE_ID>
310934248

> <PUBCHEM_SUBSTANCE_VERSION>
1

> <PUBCHEM_EXT_DATASOURCE_NAME>
4488

> <PUBCHEM_EXT_DATASOURCE_REGID>
SCHEMBL16111706

> <PUBCHEM_SUBSTANCE_COMMENT>
InChI=1S/C14H17BrFNO4S/c1-21-13(18)14(4-6-22(19,20)7-5-14)17-9-10-2-3-11(15)12(16)8-10/h2-3,8,17H,4-7,9H2,1H3
InChIKey=AJGGFIRFHVLLBM-UHFFFAOYSA-N

> <PUBCHEM_SUBSTANCE_SYNONYM>
SCHEMBL16111706

> <PUBCHEM_XREF_EXT_ID>
SCHEMBL16111706

> <PUBCHEM_EXT_DATASOURCE_URL>
https://www.surechembl.org/

> <PUBCHEM_EXT_SUBSTANCE_URL>
https://www.surechembl.org/chemical/SCHEMBL16111706

> <PUBCHEM_CID_ASSOCIATIONS>
117602506  1

> <PUBCHEM_COORDINATE_TYPE>
1
3

$$$$
