310943449
  -OEChem-07211613022D

 35 38  0     0  0  0  0  0  0999 V2000
   -4.3160   -1.0385    0.0000 O   0  0  0  0  0  0  0  0  0  0  0  0
    0.7218   -0.6261    0.0000 O   0  0  0  0  0  0  0  0  0  0  0  0
   -5.7595    1.4656    0.0000 O   0  0  0  0  0  0  0  0  0  0  0  0
   -2.8723   -1.0238    0.0000 N   0  0  0  0  0  0  0  0  0  0  0  0
   -4.3160    0.6408    0.0000 N   0  0  0  0  0  0  0  0  0  0  0  0
   -0.7218    1.8782    0.0000 N   0  0  0  0  0  0  0  0  0  0  0  0
    1.4435    0.6261    0.0000 N   0  0  0  0  0  0  0  0  0  0  0  0
    5.7595   -0.1988    0.0000 N   0  0  0  0  0  0  0  0  0  0  0  0
   -2.1506    0.2283    0.0000 C   0  0  0  0  0  0  0  0  0  0  0  0
   -1.4435    0.6408    0.0000 C   0  0  0  0  0  0  0  0  0  0  0  0
   -3.5942    0.2283    0.0000 C   0  0  0  0  0  0  0  0  0  0  0  0
   -3.5942   -0.5966    0.0000 C   0  0  0  0  0  0  0  0  0  0  0  0
   -2.8723    0.6408    0.0000 C   0  0  0  0  0  0  0  0  0  0  0  0
   -2.1654   -0.6114    0.0000 C   0  0  0  0  0  0  0  0  0  0  0  0
   -1.4288    1.4656    0.0000 C   0  0  0  0  0  0  0  0  0  0  0  0
   -0.0147    0.6261    0.0000 C   0  0  0  0  0  0  0  0  0  0  0  0
   -0.6924    0.2283    0.0000 C   0  0  0  0  0  0  0  0  0  0  0  0
    0.7218    0.2430    0.0000 C   0  0  0  0  0  0  0  0  0  0  0  0
    0.0000    1.4509    0.0000 C   0  0  0  0  0  0  0  0  0  0  0  0
    2.1654    0.2135    0.0000 C   0  0  0  0  0  0  0  0  0  0  0  0
    3.6089    0.2135    0.0000 C   0  0  0  0  0  0  0  0  0  0  0  0
   -4.3160    1.4656    0.0000 C   0  0  0  0  0  0  0  0  0  0  0  0
   -5.0230    0.2283    0.0000 C   0  0  0  0  0  0  0  0  0  0  0  0
    4.3160    0.6556    0.0000 C   0  0  0  0  0  0  0  0  0  0  0  0
    2.8723    0.6261    0.0000 C   0  0  0  0  0  0  0  0  0  0  0  0
   -2.8576   -1.8782    0.0000 C   0  0  0  0  0  0  0  0  0  0  0  0
   -2.1654    1.8634    0.0000 C   0  0  0  0  0  0  0  0  0  0  0  0
    3.5942   -0.6114    0.0000 C   0  0  0  0  0  0  0  0  0  0  0  0
    2.1654   -0.6114    0.0000 C   0  0  0  0  0  0  0  0  0  0  0  0
   -5.0524    1.8782    0.0000 C   0  0  0  0  0  0  0  0  0  0  0  0
   -5.7448    0.6261    0.0000 C   0  0  0  0  0  0  0  0  0  0  0  0
    2.8871   -1.0238    0.0000 C   0  0  0  0  0  0  0  0  0  0  0  0
    5.0230    0.2135    0.0000 C   0  0  0  0  0  0  0  0  0  0  0  0
    3.8887    1.3478    0.0000 C   0  0  0  0  0  0  0  0  0  0  0  0
    4.7284    1.3625    0.0000 C   0  0  0  0  0  0  0  0  0  0  0  0
  1 12  2  0  0  0  0
  2 18  2  0  0  0  0
  3 30  1  0  0  0  0
  3 31  1  0  0  0  0
  4 12  1  0  0  0  0
  4 14  1  0  0  0  0
  4 26  1  0  0  0  0
  5 11  1  0  0  0  0
  5 22  1  0  0  0  0
  5 23  1  0  0  0  0
  6 15  1  0  0  0  0
  6 19  2  0  0  0  0
  7 18  1  0  0  0  0
  7 20  1  0  0  0  0
  8 33  3  0  0  0  0
  9 10  1  0  0  0  0
  9 13  1  0  0  0  0
  9 14  2  0  0  0  0
 10 15  2  0  0  0  0
 10 17  1  0  0  0  0
 11 12  1  0  0  0  0
 11 13  2  0  0  0  0
 15 27  1  0  0  0  0
 16 17  2  0  0  0  0
 16 18  1  0  0  0  0
 16 19  1  0  0  0  0
 20 25  1  0  0  0  0
 20 29  2  0  0  0  0
 21 24  1  0  0  0  0
 21 25  2  0  0  0  0
 21 28  1  0  0  0  0
 22 30  1  0  0  0  0
 23 31  1  0  0  0  0
 24 33  1  0  0  0  0
 24 34  1  0  0  0  0
 24 35  1  0  0  0  0
 28 32  2  0  0  0  0
 29 32  1  0  0  0  0
M  END
> <PUBCHEM_COMPOUND_ID_TYPE>
0

> <PUBCHEM_TOTAL_CHARGE>
0

> <PUBCHEM_SUBSTANCE_ID>
310943449

> <PUBCHEM_SUBSTANCE_VERSION>
1

> <PUBCHEM_EXT_DATASOURCE_NAME>
4488

> <PUBCHEM_EXT_DATASOURCE_REGID>
SCHEMBL16121513

> <PUBCHEM_SUBSTANCE_COMMENT>
InChI=1S/C27H29N5O3/c1-18-23(20-13-24(26(34)31(4)16-20)32-8-10-35-11-9-32)12-19(15-29-18)25(33)30-22-7-5-6-21(14-22)27(2,3)17-28/h5-7,12-16H,8-11H2,1-4H3,(H,30,33)
InChIKey=ZNHFSALJUQMPRP-UHFFFAOYSA-N

> <PUBCHEM_SUBSTANCE_SYNONYM>
SCHEMBL16121513

> <PUBCHEM_XREF_EXT_ID>
SCHEMBL16121513

> <PUBCHEM_EXT_DATASOURCE_URL>
https://www.surechembl.org/

> <PUBCHEM_EXT_SUBSTANCE_URL>
https://www.surechembl.org/chemical/SCHEMBL16121513

> <PUBCHEM_CID_ASSOCIATIONS>
117609873  1

> <PUBCHEM_COORDINATE_TYPE>
1
3

$$$$
