310940859
  -OEChem-07211613022D

 40 43  0     1  0  0  0  0  0999 V2000
    5.1758   -1.6333    0.0000 O   0  0  0  0  0  0  0  0  0  0  0  0
    4.0433    0.3122    0.0000 O   0  0  0  0  0  0  0  0  0  0  0  0
    1.6769   -1.6188    0.0000 O   0  0  0  0  0  0  0  0  0  0  0  0
   -0.4718    0.4428    0.0000 O   0  0  0  0  0  0  0  0  0  0  0  0
   -2.6206   -1.6188    0.0000 O   0  0  0  0  0  0  0  0  0  0  0  0
   -5.4952   -1.6188    0.0000 O   0  0  0  0  0  0  0  0  0  0  0  0
    2.4028   -0.3848    0.0000 N   0  0  0  0  0  0  0  0  0  0  0  0
    0.2540   -0.7913    0.0000 N   0  0  0  0  0  0  0  0  0  0  0  0
   -1.9091   -0.3848    0.0000 N   0  0  0  0  0  0  0  0  0  0  0  0
   -4.0579   -0.7913    0.0000 N   0  0  0  0  0  0  0  0  0  0  0  0
    4.7693   -0.9074    0.0000 C   0  0  3  0  0  0  0  0  0  0  0  0
    3.9998   -0.4864    0.0000 C   0  0  0  0  0  0  0  0  0  0  0  0
    4.3773   -1.6043    0.0000 C   0  0  0  0  0  0  0  0  0  0  0  0
    3.3320   -0.8783    0.0000 C   0  0  3  0  0  0  0  0  0  0  0  0
    5.4952   -0.4864    0.0000 C   0  0  0  0  0  0  0  0  0  0  0  0
    3.3610   -1.9672    0.0000 C   0  0  0  0  0  0  0  0  0  0  0  0
    1.6914   -0.7477    0.0000 C   0  0  0  0  0  0  0  0  0  0  0  0
    2.6206   -2.3882    0.0000 C   0  0  0  0  0  0  0  0  0  0  0  0
    0.9655   -0.3557    0.0000 C   0  0  3  0  0  0  0  0  0  0  0  0
    1.8656   -2.0543    0.0000 C   0  0  0  0  0  0  0  0  0  0  0  0
    2.5190   -3.2013    0.0000 C   0  0  0  0  0  0  0  0  0  0  0  0
    0.9800    0.4718    0.0000 C   0  0  0  0  0  0  0  0  0  0  0  0
   -0.4718   -0.3702    0.0000 C   0  0  0  0  0  0  0  0  0  0  0  0
   -1.1687   -0.7622    0.0000 C   0  0  3  0  0  0  0  0  0  0  0  0
    1.3285   -2.6786    0.0000 C   0  0  0  0  0  0  0  0  0  0  0  0
    1.7204   -3.3610    0.0000 C   0  0  0  0  0  0  0  0  0  0  0  0
    1.6914    0.8929    0.0000 C   0  0  0  0  0  0  0  0  0  0  0  0
    1.6914    1.7204    0.0000 C   0  0  0  0  0  0  0  0  0  0  0  0
   -2.6060   -0.7477    0.0000 C   0  0  0  0  0  0  0  0  0  0  0  0
   -3.3465   -0.3557    0.0000 C   0  0  0  0  0  0  0  0  0  0  0  0
   -1.1833   -1.5753    0.0000 C   0  0  0  0  0  0  0  0  0  0  0  0
    0.9800    2.1269    0.0000 C   0  0  0  0  0  0  0  0  0  0  0  0
    2.4028    2.1269    0.0000 C   0  0  0  0  0  0  0  0  0  0  0  0
   -4.0433   -1.5897    0.0000 C   0  0  0  0  0  0  0  0  0  0  0  0
   -4.7838   -0.3557    0.0000 C   0  0  0  0  0  0  0  0  0  0  0  0
    0.9800    2.9544    0.0000 C   0  0  0  0  0  0  0  0  0  0  0  0
    2.4028    2.9544    0.0000 C   0  0  0  0  0  0  0  0  0  0  0  0
   -4.7693   -1.9963    0.0000 C   0  0  0  0  0  0  0  0  0  0  0  0
   -5.4662   -0.7622    0.0000 C   0  0  0  0  0  0  0  0  0  0  0  0
    1.6914    3.3610    0.0000 C   0  0  0  0  0  0  0  0  0  0  0  0
  1 11  1  0  0  0  0
  1 13  1  0  0  0  0
  2 12  2  0  0  0  0
  3 17  2  0  0  0  0
  4 23  2  0  0  0  0
  5 29  2  0  0  0  0
  6 38  1  0  0  0  0
  6 39  1  0  0  0  0
 14  7  1  6  0  0  0
  7 17  1  0  0  0  0
 19  8  1  1  0  0  0
  8 23  1  0  0  0  0
  9 24  1  0  0  0  0
  9 29  1  0  0  0  0
 10 30  1  0  0  0  0
 10 34  1  0  0  0  0
 10 35  1  0  0  0  0
 11 12  1  6  0  0  0
 11 13  1  0  0  0  0
 11 15  1  1  0  0  0
 12 14  1  0  0  0  0
 14 16  1  0  0  0  0
 16 18  1  0  0  0  0
 17 19  1  0  0  0  0
 18 20  2  0  0  0  0
 18 21  1  0  0  0  0
 19 22  1  0  0  0  0
 20 25  1  0  0  0  0
 21 26  1  0  0  0  0
 22 27  1  0  0  0  0
 23 24  1  0  0  0  0
 24 31  1  6  0  0  0
 25 26  1  0  0  0  0
 27 28  1  0  0  0  0
 28 32  2  0  0  0  0
 28 33  1  0  0  0  0
 29 30  1  0  0  0  0
 32 36  1  0  0  0  0
 33 37  2  0  0  0  0
 34 38  1  0  0  0  0
 35 39  1  0  0  0  0
 36 40  2  0  0  0  0
 37 40  1  0  0  0  0
M  END
> <PUBCHEM_COMPOUND_ID_TYPE>
0

> <PUBCHEM_TOTAL_CHARGE>
0

> <PUBCHEM_SUBSTANCE_ID>
310940859

> <PUBCHEM_SUBSTANCE_VERSION>
1

> <PUBCHEM_EXT_DATASOURCE_NAME>
4488

> <PUBCHEM_EXT_DATASOURCE_REGID>
SCHEMBL16118818

> <PUBCHEM_SUBSTANCE_COMMENT>
InChI=1S/C30H42N4O6/c1-21(31-26(35)19-34-14-16-39-17-15-34)28(37)32-24(13-12-22-8-4-3-5-9-22)29(38)33-25(18-23-10-6-7-11-23)27(36)30(2)20-40-30/h3-5,8-10,21,24-25H,6-7,11-20H2,1-2H3,(H,31,35)(H,32,37)(H,33,38)/t21-,24-,25-,30+/m0/s1
InChIKey=LRUHUZPKZNJSOW-IAWILJFASA-N

> <PUBCHEM_SUBSTANCE_SYNONYM>
SCHEMBL16118818

> <PUBCHEM_XREF_EXT_ID>
SCHEMBL16118818

> <PUBCHEM_EXT_DATASOURCE_URL>
https://www.surechembl.org/

> <PUBCHEM_EXT_SUBSTANCE_URL>
https://www.surechembl.org/chemical/SCHEMBL16118818

> <PUBCHEM_CID_ASSOCIATIONS>
117607776  1

> <PUBCHEM_COORDINATE_TYPE>
1
3

> <PUBCHEM_BONDANNOTATIONS>
11  12  6
11  15  5
24  31  6
14  7  6
19  8  5

$$$$
