310943921
  -OEChem-07211613022D

 32 36  0     1  0  0  0  0  0999 V2000
    2.5779    1.0930    0.0000 O   0  0  0  0  0  0  0  0  0  0  0  0
    5.3932    0.1656    0.0000 O   0  0  0  0  0  0  0  0  0  0  0  0
    5.5258    1.6340    0.0000 O   0  0  0  0  0  0  0  0  0  0  0  0
    3.2845   -0.1988    0.0000 N   0  0  0  0  0  0  0  0  0  0  0  0
    0.3588    0.2429    0.0000 N   0  0  0  0  0  0  0  0  0  0  0  0
   -4.1898    0.8611    0.0000 N   0  0  0  0  0  0  0  0  0  0  0  0
   -2.0038    0.9605    0.0000 N   0  0  0  0  0  0  0  0  0  0  0  0
   -2.7987    1.1923    0.0000 N   0  0  0  0  0  0  0  0  0  0  0  0
   -4.4548    1.6450    0.0000 N   0  0  0  0  0  0  0  0  0  0  0  0
   -5.2828    1.6229    0.0000 N   0  0  0  0  0  0  0  0  0  0  0  0
   -5.5258    0.8280    0.0000 N   0  0  0  0  0  0  0  0  0  0  0  0
    1.9376   -0.2098    0.0000 C   0  0  0  0  0  0  0  0  0  0  0  0
    2.6000    0.2650    0.0000 C   0  0  0  0  0  0  0  0  0  0  0  0
    3.0416   -0.9826    0.0000 C   0  0  3  0  0  0  0  0  0  0  0  0
    2.2246   -1.0047    0.0000 C   0  0  0  0  0  0  0  0  0  0  0  0
    4.0463    0.0883    0.0000 C   0  0  0  0  0  0  0  0  0  0  0  0
    1.3524   -0.7839    0.0000 C   0  0  0  0  0  0  0  0  0  0  0  0
    1.7499    0.5851    0.0000 C   0  0  0  0  0  0  0  0  0  0  0  0
    0.5576   -0.5521    0.0000 C   0  0  0  0  0  0  0  0  0  0  0  0
    0.9660    0.8170    0.0000 C   0  0  0  0  0  0  0  0  0  0  0  0
    4.2671    0.8832    0.0000 C   0  0  0  0  0  0  0  0  0  0  0  0
    4.7639   -0.3533    0.0000 C   0  0  0  0  0  0  0  0  0  0  0  0
    3.5495   -1.6450    0.0000 C   0  0  0  0  0  0  0  0  0  0  0  0
    5.0620    0.9164    0.0000 C   0  0  0  0  0  0  0  0  0  0  0  0
   -0.4250    0.4858    0.0000 C   0  0  0  0  0  0  0  0  0  0  0  0
   -1.8161    0.1656    0.0000 C   0  0  0  0  0  0  0  0  0  0  0  0
   -3.4060    0.6293    0.0000 C   0  0  0  0  0  0  0  0  0  0  0  0
   -2.4123   -0.4085    0.0000 C   0  0  0  0  0  0  0  0  0  0  0  0
   -1.0212   -0.0773    0.0000 C   0  0  0  0  0  0  0  0  0  0  0  0
   -3.2072   -0.1656    0.0000 C   0  0  0  0  0  0  0  0  0  0  0  0
   -4.8522    0.3754    0.0000 C   0  0  0  0  0  0  0  0  0  0  0  0
   -2.2026   -1.2255    0.0000 C   0  0  0  0  0  0  0  0  0  0  0  0
  1 13  2  0  0  0  0
  2 22  1  0  0  0  0
  2 24  1  0  0  0  0
  3 24  2  0  0  0  0
  4 13  1  0  0  0  0
  4 14  1  0  0  0  0
  4 16  1  0  0  0  0
  5 19  1  0  0  0  0
  5 20  1  0  0  0  0
  5 25  1  0  0  0  0
  6  9  1  0  0  0  0
  6 27  1  0  0  0  0
  6 31  1  0  0  0  0
  7  8  1  0  0  0  0
  7 26  2  0  0  0  0
  8 27  2  0  0  0  0
  9 10  2  0  0  0  0
 10 11  1  0  0  0  0
 11 31  2  0  0  0  0
 12 13  1  0  0  0  0
 12 15  1  0  0  0  0
 12 17  1  0  0  0  0
 12 18  1  0  0  0  0
 14 15  1  0  0  0  0
 14 23  1  1  0  0  0
 16 21  2  0  0  0  0
 16 22  1  0  0  0  0
 17 19  1  0  0  0  0
 18 20  1  0  0  0  0
 21 24  1  0  0  0  0
 25 29  1  0  0  0  0
 26 28  1  0  0  0  0
 26 29  1  0  0  0  0
 27 30  1  0  0  0  0
 28 30  2  0  0  0  0
 28 32  1  0  0  0  0
M  END
> <PUBCHEM_COMPOUND_ID_TYPE>
0

> <PUBCHEM_TOTAL_CHARGE>
0

> <PUBCHEM_SUBSTANCE_ID>
310943921

> <PUBCHEM_SUBSTANCE_VERSION>
1

> <PUBCHEM_EXT_DATASOURCE_NAME>
4488

> <PUBCHEM_EXT_DATASOURCE_REGID>
SCHEMBL16121992

> <PUBCHEM_SUBSTANCE_COMMENT>
InChI=1S/C21H26N8O3/c1-14-9-18(28-13-22-25-26-28)24-23-17(14)3-6-27-7-4-21(5-8-27)11-15(2)29(20(21)31)16-10-19(30)32-12-16/h9-10,13,15H,3-8,11-12H2,1-2H3/t15-/m0/s1
InChIKey=ZYCKPBSZLRPFFH-HNNXBMFYSA-N

> <PUBCHEM_SUBSTANCE_SYNONYM>
SCHEMBL16121992

> <PUBCHEM_XREF_EXT_ID>
SCHEMBL16121992

> <PUBCHEM_EXT_DATASOURCE_URL>
https://www.surechembl.org/

> <PUBCHEM_EXT_SUBSTANCE_URL>
https://www.surechembl.org/chemical/SCHEMBL16121992

> <PUBCHEM_CID_ASSOCIATIONS>
117610234  1

> <PUBCHEM_COORDINATE_TYPE>
1
3

> <PUBCHEM_BONDANNOTATIONS>
14  23  5

$$$$
