310940990
  -OEChem-07211613022D

 40 42  0     1  0  0  0  0  0999 V2000
    5.3938   -0.0285    0.0000 F   0  0  0  0  0  0  0  0  0  0  0  0
    5.3938   -0.8549    0.0000 F   0  0  0  0  0  0  0  0  0  0  0  0
    4.6670   -1.2683    0.0000 F   0  0  0  0  0  0  0  0  0  0  0  0
    4.6670   -2.1091    0.0000 O   0  0  0  0  0  0  0  0  0  0  0  0
    2.5009   -1.6958    0.0000 O   0  0  0  0  0  0  0  0  0  0  0  0
    1.7884   -1.2683    0.0000 O   0  0  0  0  0  0  0  0  0  0  0  0
   -0.3634    0.7980    0.0000 O   0  0  0  0  0  0  0  0  0  0  0  0
    3.9403    2.4653    0.0000 O   0  0  0  0  0  0  0  0  0  0  0  0
   -2.5294   -1.2683    0.0000 O   0  0  0  0  0  0  0  0  0  0  0  0
   -5.3938   -1.2683    0.0000 O   0  0  0  0  0  0  0  0  0  0  0  0
    2.5151   -0.0285    0.0000 N   0  0  0  0  0  0  0  0  0  0  0  0
    0.3491   -0.4418    0.0000 N   0  0  0  0  0  0  0  0  0  0  0  0
   -1.8027   -0.0285    0.0000 N   0  0  0  0  0  0  0  0  0  0  0  0
   -3.9544   -0.4418    0.0000 N   0  0  0  0  0  0  0  0  0  0  0  0
    3.9403   -1.5533    0.0000 C   0  0  3  0  0  0  0  0  0  0  0  0
    3.1707   -1.2255    0.0000 C   0  0  0  0  0  0  0  0  0  0  0  0
    3.9403   -2.4653    0.0000 C   0  0  0  0  0  0  0  0  0  0  0  0
    3.2277   -0.4133    0.0000 C   0  0  3  0  0  0  0  0  0  0  0  0
    3.9403   -0.8407    0.0000 C   0  0  0  0  0  0  0  0  0  0  0  0
    3.9260    0.0000    0.0000 C   0  0  0  0  0  0  0  0  0  0  0  0
    1.7884   -0.3990    0.0000 C   0  0  0  0  0  0  0  0  0  0  0  0
    4.6812   -0.4276    0.0000 C   0  0  0  0  0  0  0  0  0  0  0  0
    1.0617    0.0000    0.0000 C   0  0  3  0  0  0  0  0  0  0  0  0
    1.0759    0.8265    0.0000 C   0  0  0  0  0  0  0  0  0  0  0  0
    1.7742    1.2540    0.0000 C   0  0  0  0  0  0  0  0  0  0  0  0
   -0.3634   -0.0143    0.0000 C   0  0  0  0  0  0  0  0  0  0  0  0
   -1.0759   -0.4133    0.0000 C   0  0  3  0  0  0  0  0  0  0  0  0
    2.5009    0.8407    0.0000 C   0  0  0  0  0  0  0  0  0  0  0  0
    1.8027    2.0806    0.0000 C   0  0  0  0  0  0  0  0  0  0  0  0
    3.2277    2.0806    0.0000 C   0  0  0  0  0  0  0  0  0  0  0  0
    3.2277    1.2540    0.0000 C   0  0  0  0  0  0  0  0  0  0  0  0
    2.5009    2.4653    0.0000 C   0  0  0  0  0  0  0  0  0  0  0  0
   -2.5151   -0.3990    0.0000 C   0  0  0  0  0  0  0  0  0  0  0  0
   -3.2562    0.0000    0.0000 C   0  0  0  0  0  0  0  0  0  0  0  0
   -1.0901   -1.2255    0.0000 C   0  0  0  0  0  0  0  0  0  0  0  0
   -3.9544   -1.2397    0.0000 C   0  0  0  0  0  0  0  0  0  0  0  0
   -4.6955    0.0000    0.0000 C   0  0  0  0  0  0  0  0  0  0  0  0
   -4.6670   -1.6530    0.0000 C   0  0  0  0  0  0  0  0  0  0  0  0
   -5.3796   -0.4133    0.0000 C   0  0  0  0  0  0  0  0  0  0  0  0
    4.6812    2.0521    0.0000 C   0  0  0  0  0  0  0  0  0  0  0  0
  1 22  1  0  0  0  0
  2 22  1  0  0  0  0
  3 22  1  0  0  0  0
  4 15  1  0  0  0  0
  4 17  1  0  0  0  0
  5 16  2  0  0  0  0
  6 21  2  0  0  0  0
  7 26  2  0  0  0  0
  8 30  1  0  0  0  0
  8 40  1  0  0  0  0
  9 33  2  0  0  0  0
 10 38  1  0  0  0  0
 10 39  1  0  0  0  0
 18 11  1  1  0  0  0
 11 21  1  0  0  0  0
 23 12  1  1  0  0  0
 12 26  1  0  0  0  0
 13 27  1  0  0  0  0
 13 33  1  0  0  0  0
 14 34  1  0  0  0  0
 14 36  1  0  0  0  0
 14 37  1  0  0  0  0
 15 16  1  6  0  0  0
 15 17  1  0  0  0  0
 15 19  1  1  0  0  0
 16 18  1  0  0  0  0
 18 20  1  0  0  0  0
 20 22  1  0  0  0  0
 21 23  1  0  0  0  0
 23 24  1  0  0  0  0
 24 25  1  0  0  0  0
 25 28  2  0  0  0  0
 25 29  1  0  0  0  0
 26 27  1  0  0  0  0
 27 35  1  6  0  0  0
 28 31  1  0  0  0  0
 29 32  2  0  0  0  0
 30 31  2  0  0  0  0
 30 32  1  0  0  0  0
 33 34  1  0  0  0  0
 36 38  1  0  0  0  0
 37 39  1  0  0  0  0
M  END
> <PUBCHEM_COMPOUND_ID_TYPE>
0

> <PUBCHEM_TOTAL_CHARGE>
0

> <PUBCHEM_SUBSTANCE_ID>
310940990

> <PUBCHEM_SUBSTANCE_VERSION>
1

> <PUBCHEM_EXT_DATASOURCE_NAME>
4488

> <PUBCHEM_EXT_DATASOURCE_REGID>
SCHEMBL16118949

> <PUBCHEM_SUBSTANCE_COMMENT>
InChI=1S/C26H35F3N4O7/c1-16(30-21(34)14-33-8-10-39-11-9-33)23(36)31-19(12-17-4-6-18(38-3)7-5-17)24(37)32-20(13-26(27,28)29)22(35)25(2)15-40-25/h4-7,16,19-20H,8-15H2,1-3H3,(H,30,34)(H,31,36)(H,32,37)/t16-,19-,20-,25+/m0/s1
InChIKey=BWPGQBWXTDDSBP-SBSRMGESSA-N

> <PUBCHEM_SUBSTANCE_SYNONYM>
SCHEMBL16118949

> <PUBCHEM_XREF_EXT_ID>
SCHEMBL16118949

> <PUBCHEM_EXT_DATASOURCE_URL>
https://www.surechembl.org/

> <PUBCHEM_EXT_SUBSTANCE_URL>
https://www.surechembl.org/chemical/SCHEMBL16118949

> <PUBCHEM_CID_ASSOCIATIONS>
117607896  1

> <PUBCHEM_COORDINATE_TYPE>
1
3

> <PUBCHEM_BONDANNOTATIONS>
18  11  5
23  12  5
15  16  6
15  19  5
27  35  6

$$$$
