310934145
  -OEChem-07211613022D

 29 31  0     0  0  0  0  0  0999 V2000
    8.1533   -0.7203    0.0000 S   0  0  0  0  0  0  0  0  0  0  0  0
    2.5065   -2.1320    0.0000 F   0  0  0  0  0  0  0  0  0  0  0  0
    0.0000   -5.6180    0.0000 F   0  0  0  0  0  0  0  0  0  0  0  0
    1.4405   -5.7620    0.0000 F   0  0  0  0  0  0  0  0  0  0  0  0
    1.5269   -4.9553    0.0000 F   0  0  0  0  0  0  0  0  0  0  0  0
    4.5520   -3.4860    0.0000 O   0  0  0  0  0  0  0  0  0  0  0  0
    0.8643   -4.4656    0.0000 O   0  0  0  0  0  0  0  0  0  0  0  0
    5.2146    0.0000    0.0000 O   0  0  0  0  0  0  0  0  0  0  0  0
    5.6468   -2.1608    0.0000 O   0  0  0  0  0  0  0  0  0  0  0  0
    6.0501   -1.4405    0.0000 N   0  0  0  0  0  0  0  0  0  0  0  0
    5.1858   -2.9098    0.0000 N   0  0  0  0  0  0  0  0  0  0  0  0
    5.2146   -1.4405    0.0000 N   0  0  0  0  0  0  0  0  0  0  0  0
    6.4535   -0.7203    0.0000 C   0  0  0  0  0  0  0  0  0  0  0  0
    3.1115   -3.4284    0.0000 C   0  0  0  0  0  0  0  0  0  0  0  0
    3.8605   -3.0827    0.0000 C   0  0  0  0  0  0  0  0  0  0  0  0
    4.8401   -2.1608    0.0000 C   0  0  0  0  0  0  0  0  0  0  0  0
    2.4200   -2.9675    0.0000 C   0  0  0  0  0  0  0  0  0  0  0  0
    5.6468   -0.7203    0.0000 C   0  0  0  0  0  0  0  0  0  0  0  0
    4.0046   -2.2472    0.0000 C   0  0  0  0  0  0  0  0  0  0  0  0
    6.9144   -1.4405    0.0000 C   0  0  0  0  0  0  0  0  0  0  0  0
    6.9144    0.0000    0.0000 C   0  0  0  0  0  0  0  0  0  0  0  0
    1.6134   -4.0911    0.0000 C   0  0  0  0  0  0  0  0  0  0  0  0
    5.4163   -1.6134    0.0000 C   0  0  0  0  0  0  0  0  0  0  0  0
    3.0251   -4.2639    0.0000 C   0  0  0  0  0  0  0  0  0  0  0  0
    1.6998   -3.2844    0.0000 C   0  0  0  0  0  0  0  0  0  0  0  0
    2.2760   -4.5808    0.0000 C   0  0  0  0  0  0  0  0  0  0  0  0
    7.7212   -1.4405    0.0000 C   0  0  0  0  0  0  0  0  0  0  0  0
    7.7212    0.0000    0.0000 C   0  0  0  0  0  0  0  0  0  0  0  0
    0.7779   -5.2723    0.0000 C   0  0  0  0  0  0  0  0  0  0  0  0
  1 27  1  0  0  0  0
  1 28  1  0  0  0  0
  2 17  1  0  0  0  0
  3 29  1  0  0  0  0
  4 29  1  0  0  0  0
  5 29  1  0  0  0  0
  6 11  1  0  0  0  0
  6 15  1  0  0  0  0
  7 22  1  0  0  0  0
  7 29  1  0  0  0  0
  8 18  2  0  0  0  0
  9 12  1  0  0  0  0
 10 13  1  0  0  0  0
 10 23  1  0  0  0  0
 11 16  2  0  0  0  0
 12 18  1  0  0  0  0
 13 18  1  0  0  0  0
 13 20  1  0  0  0  0
 13 21  1  0  0  0  0
 14 15  1  0  0  0  0
 14 17  1  0  0  0  0
 14 24  2  0  0  0  0
 15 19  2  0  0  0  0
 16 19  1  0  0  0  0
 16 23  1  0  0  0  0
 17 25  2  0  0  0  0
 20 27  1  0  0  0  0
 21 28  1  0  0  0  0
 22 25  1  0  0  0  0
 22 26  2  0  0  0  0
 24 26  1  0  0  0  0
M  END
> <PUBCHEM_COMPOUND_ID_TYPE>
0

> <PUBCHEM_TOTAL_CHARGE>
0

> <PUBCHEM_SUBSTANCE_ID>
310934145

> <PUBCHEM_SUBSTANCE_VERSION>
1

> <PUBCHEM_EXT_DATASOURCE_NAME>
4488

> <PUBCHEM_EXT_DATASOURCE_REGID>
SCHEMBL16111595

> <PUBCHEM_SUBSTANCE_COMMENT>
InChI=1S/C17H17F4N3O4S/c18-13-8-11(27-17(19,20)21)1-2-12(13)14-7-10(24-28-14)9-22-16(15(25)23-26)3-5-29-6-4-16/h1-2,7-8,22,26H,3-6,9H2,(H,23,25)
InChIKey=DWKJYJGTWODKRT-UHFFFAOYSA-N

> <PUBCHEM_SUBSTANCE_SYNONYM>
SCHEMBL16111595

> <PUBCHEM_XREF_EXT_ID>
SCHEMBL16111595

> <PUBCHEM_EXT_DATASOURCE_URL>
https://www.surechembl.org/

> <PUBCHEM_EXT_SUBSTANCE_URL>
https://www.surechembl.org/chemical/SCHEMBL16111595

> <PUBCHEM_CID_ASSOCIATIONS>
117602421  1

> <PUBCHEM_COORDINATE_TYPE>
1
3

$$$$
