310933006
  -OEChem-07211613022D

 28 31  0     0  0  0  0  0  0999 V2000
    2.8558   -2.1260    0.0000 O   0  0  0  0  0  0  0  0  0  0  0  0
    7.3615   -2.2212    0.0000 O   0  0  0  0  0  0  0  0  0  0  0  0
    3.7760   -0.9837    0.0000 N   0  0  0  0  0  0  0  0  0  0  0  0
    3.6808   -0.1587    0.0000 N   0  0  0  0  0  0  0  0  0  0  0  0
    5.2038   -0.9837    0.0000 N   0  0  0  0  0  0  0  0  0  0  0  0
    6.6635   -3.4587    0.0000 N   0  0  0  0  0  0  0  0  0  0  0  0
    0.0000   -0.9837    0.0000 N   0  0  0  0  0  0  0  0  0  0  0  0
    3.0144   -1.3010    0.0000 C   0  0  0  0  0  0  0  0  0  0  0  0
    2.4433   -0.6981    0.0000 C   0  0  0  0  0  0  0  0  0  0  0  0
    4.5058   -1.3962    0.0000 C   0  0  0  0  0  0  0  0  0  0  0  0
    1.6500   -0.7933    0.0000 C   0  0  0  0  0  0  0  0  0  0  0  0
    2.8558    0.0000    0.0000 C   0  0  0  0  0  0  0  0  0  0  0  0
    4.5058   -2.2212    0.0000 C   0  0  0  0  0  0  0  0  0  0  0  0
    5.9337   -2.2212    0.0000 C   0  0  0  0  0  0  0  0  0  0  0  0
    5.9337   -1.3962    0.0000 C   0  0  0  0  0  0  0  0  0  0  0  0
    5.2038   -2.6337    0.0000 C   0  0  0  0  0  0  0  0  0  0  0  0
    1.1740   -0.1587    0.0000 C   0  0  0  0  0  0  0  0  0  0  0  0
    1.3010   -1.5865    0.0000 C   0  0  0  0  0  0  0  0  0  0  0  0
    6.6635   -2.6337    0.0000 C   0  0  0  0  0  0  0  0  0  0  0  0
    0.3173   -0.1904    0.0000 C   0  0  0  0  0  0  0  0  0  0  0  0
    0.4760   -1.6500    0.0000 C   0  0  0  0  0  0  0  0  0  0  0  0
    7.3615   -3.8712    0.0000 C   0  0  0  0  0  0  0  0  0  0  0  0
    8.0913   -3.4587    0.0000 C   0  0  0  0  0  0  0  0  0  0  0  0
    8.7894   -3.8712    0.0000 C   0  0  0  0  0  0  0  0  0  0  0  0
    8.0913   -2.6337    0.0000 C   0  0  0  0  0  0  0  0  0  0  0  0
    9.5192   -3.4587    0.0000 C   0  0  0  0  0  0  0  0  0  0  0  0
    8.7894   -2.2212    0.0000 C   0  0  0  0  0  0  0  0  0  0  0  0
    9.5192   -2.6337    0.0000 C   0  0  0  0  0  0  0  0  0  0  0  0
  1  8  1  0  0  0  0
  2 19  2  0  0  0  0
  3  4  1  0  0  0  0
  3  8  1  0  0  0  0
  3 10  1  0  0  0  0
  4 12  2  0  0  0  0
  5 10  2  0  0  0  0
  5 15  1  0  0  0  0
  6 19  1  0  0  0  0
  6 22  1  0  0  0  0
  7 20  2  0  0  0  0
  7 21  1  0  0  0  0
  8  9  2  0  0  0  0
  9 11  1  0  0  0  0
  9 12  1  0  0  0  0
 10 13  1  0  0  0  0
 11 17  2  0  0  0  0
 11 18  1  0  0  0  0
 13 16  2  0  0  0  0
 14 15  2  0  0  0  0
 14 16  1  0  0  0  0
 14 19  1  0  0  0  0
 17 20  1  0  0  0  0
 18 21  2  0  0  0  0
 22 23  1  0  0  0  0
 23 24  2  0  0  0  0
 23 25  1  0  0  0  0
 24 26  1  0  0  0  0
 25 27  2  0  0  0  0
 26 28  2  0  0  0  0
 27 28  1  0  0  0  0
M  END
> <PUBCHEM_COMPOUND_ID_TYPE>
0

> <PUBCHEM_TOTAL_CHARGE>
0

> <PUBCHEM_SUBSTANCE_ID>
310933006

> <PUBCHEM_SUBSTANCE_VERSION>
1

> <PUBCHEM_EXT_DATASOURCE_NAME>
4488

> <PUBCHEM_EXT_DATASOURCE_REGID>
SCHEMBL16110405

> <PUBCHEM_SUBSTANCE_COMMENT>
InChI=1S/C21H17N5O2/c27-20(24-12-15-4-2-1-3-5-15)17-6-7-19(23-13-17)26-21(28)18(14-25-26)16-8-10-22-11-9-16/h1-11,13-14,28H,12H2,(H,24,27)
InChIKey=XJDNFZIZPPFERS-UHFFFAOYSA-N

> <PUBCHEM_SUBSTANCE_SYNONYM>
SCHEMBL16110405

> <PUBCHEM_XREF_EXT_ID>
SCHEMBL16110405

> <PUBCHEM_EXT_DATASOURCE_URL>
https://www.surechembl.org/

> <PUBCHEM_EXT_SUBSTANCE_URL>
https://www.surechembl.org/chemical/SCHEMBL16110405

> <PUBCHEM_CID_ASSOCIATIONS>
117601476  1

> <PUBCHEM_COORDINATE_TYPE>
1
3

$$$$
