310945055
  -OEChem-07211613022D

 32 35  0     0  0  0  0  0  0999 V2000
   -2.2141   -2.3357    0.0000 S   0  0  0  0  0  0  0  0  0  0  0  0
    2.8914   -1.8320    0.0000 O   0  0  0  0  0  0  0  0  0  0  0  0
    3.6034   -0.5817    0.0000 O   0  0  0  0  0  0  0  0  0  0  0  0
   -3.5512   -2.3183    0.0000 N   0  0  0  0  0  0  0  0  0  0  0  0
   -1.4500    0.6686    0.0000 C   0  0  0  0  0  0  0  0  0  0  0  0
   -2.1447    0.2518    0.0000 C   0  0  0  0  0  0  0  0  0  0  0  0
   -1.4327    1.5021    0.0000 C   0  0  0  0  0  0  0  0  0  0  0  0
   -0.7033    0.2518    0.0000 C   0  0  0  0  0  0  0  0  0  0  0  0
   -2.8740   -0.9985    0.0000 C   0  0  0  0  0  0  0  0  0  0  0  0
   -2.1620   -0.5991    0.0000 C   0  0  0  0  0  0  0  0  0  0  0  0
   -0.7207    1.9189    0.0000 C   0  0  0  0  0  0  0  0  0  0  0  0
   -2.8914    0.6512    0.0000 C   0  0  0  0  0  0  0  0  0  0  0  0
   -2.8914   -1.8494    0.0000 C   0  0  0  0  0  0  0  0  0  0  0  0
   -0.6860   -0.5991    0.0000 C   0  0  0  0  0  0  0  0  0  0  0  0
   -0.0087    0.6512    0.0000 C   0  0  0  0  0  0  0  0  0  0  0  0
   -3.6034   -0.5817    0.0000 C   0  0  0  0  0  0  0  0  0  0  0  0
   -2.1447    1.9015    0.0000 C   0  0  0  0  0  0  0  0  0  0  0  0
   -3.5860    0.2344    0.0000 C   0  0  0  0  0  0  0  0  0  0  0  0
    0.7207   -0.5991    0.0000 C   0  0  0  0  0  0  0  0  0  0  0  0
    0.0260   -0.9985    0.0000 C   0  0  0  0  0  0  0  0  0  0  0  0
    0.7207    0.2344    0.0000 C   0  0  0  0  0  0  0  0  0  0  0  0
    0.0087    1.5021    0.0000 C   0  0  0  0  0  0  0  0  0  0  0  0
   -0.6860    2.7698    0.0000 C   0  0  0  0  0  0  0  0  0  0  0  0
   -2.4746   -3.1518    0.0000 C   0  0  0  0  0  0  0  0  0  0  0  0
   -3.2907   -3.1345    0.0000 C   0  0  0  0  0  0  0  0  0  0  0  0
    0.7207    1.9189    0.0000 C   0  0  0  0  0  0  0  0  0  0  0  0
    0.0087    3.1518    0.0000 C   0  0  0  0  0  0  0  0  0  0  0  0
    1.4674   -1.0159    0.0000 C   0  0  0  0  0  0  0  0  0  0  0  0
   -2.1447    2.7698    0.0000 C   0  0  0  0  0  0  0  0  0  0  0  0
    0.7207    2.7350    0.0000 C   0  0  0  0  0  0  0  0  0  0  0  0
    2.1447   -0.5991    0.0000 C   0  0  0  0  0  0  0  0  0  0  0  0
    2.8914   -0.9985    0.0000 C   0  0  0  0  0  0  0  0  0  0  0  0
  1 13  1  0  0  0  0
  1 24  1  0  0  0  0
  2 32  2  0  0  0  0
  3 32  1  0  0  0  0
  4 13  2  0  0  0  0
  4 25  1  0  0  0  0
  5  6  1  0  0  0  0
  5  7  2  0  0  0  0
  5  8  1  0  0  0  0
  6 10  1  0  0  0  0
  6 12  2  0  0  0  0
  7 11  1  0  0  0  0
  7 17  1  0  0  0  0
  8 14  2  0  0  0  0
  8 15  1  0  0  0  0
  9 10  2  0  0  0  0
  9 13  1  0  0  0  0
  9 16  1  0  0  0  0
 11 22  2  0  0  0  0
 11 23  1  0  0  0  0
 12 18  1  0  0  0  0
 14 20  1  0  0  0  0
 15 21  2  0  0  0  0
 16 18  2  0  0  0  0
 17 29  1  0  0  0  0
 19 20  2  0  0  0  0
 19 21  1  0  0  0  0
 19 28  1  0  0  0  0
 22 26  1  0  0  0  0
 23 27  2  0  0  0  0
 24 25  2  0  0  0  0
 26 30  2  0  0  0  0
 27 30  1  0  0  0  0
 28 31  2  0  0  0  0
 31 32  1  0  0  0  0
M  END
> <PUBCHEM_COMPOUND_ID_TYPE>
0

> <PUBCHEM_TOTAL_CHARGE>
0

> <PUBCHEM_SUBSTANCE_ID>
310945055

> <PUBCHEM_SUBSTANCE_VERSION>
1

> <PUBCHEM_EXT_DATASOURCE_NAME>
4488

> <PUBCHEM_EXT_DATASOURCE_REGID>
SCHEMBL16123144

> <PUBCHEM_SUBSTANCE_COMMENT>
InChI=1S/C28H23NO2S/c1-2-25(21-7-4-3-5-8-21)27(22-14-11-20(12-15-22)13-16-26(30)31)23-9-6-10-24(19-23)28-29-17-18-32-28/h3-19H,2H2,1H3,(H,30,31)/b16-13+,27-25+
InChIKey=XMKBJBSAEMDSFZ-BKQDKSOFSA-N

> <PUBCHEM_SUBSTANCE_SYNONYM>
SCHEMBL16123144

> <PUBCHEM_XREF_EXT_ID>
SCHEMBL16123144

> <PUBCHEM_EXT_DATASOURCE_URL>
https://www.surechembl.org/

> <PUBCHEM_EXT_SUBSTANCE_URL>
https://www.surechembl.org/chemical/SCHEMBL16123144

> <PUBCHEM_CID_ASSOCIATIONS>
86271091  1

> <PUBCHEM_COORDINATE_TYPE>
1
3

$$$$
