310949777
  -OEChem-07211613022D

 23 24  0     0  0  0  0  0  0999 V2000
   -2.0890   -1.0844    0.0000 O   0  0  0  0  0  0  0  0  0  0  0  0
   -2.9140   -1.0844    0.0000 O   0  0  0  0  0  0  0  0  0  0  0  0
   -4.1647   -0.3659    0.0000 O   0  0  0  0  0  0  0  0  0  0  0  0
    2.9140    0.3526    0.0000 O   0  0  0  0  0  0  0  0  0  0  0  0
   -0.8383   -0.3659    0.0000 N   0  0  0  0  0  0  0  0  0  0  0  0
    4.1647   -0.3659    0.0000 N   0  0  0  0  0  0  0  0  0  0  0  0
   -2.1023    0.3659    0.0000 C   0  0  0  0  0  0  0  0  0  0  0  0
   -2.9140    0.3659    0.0000 C   0  0  0  0  0  0  0  0  0  0  0  0
   -1.6765   -0.3393    0.0000 C   0  0  0  0  0  0  0  0  0  0  0  0
   -3.3530   -0.3526    0.0000 C   0  0  0  0  0  0  0  0  0  0  0  0
   -1.6765    1.0578    0.0000 C   0  0  0  0  0  0  0  0  0  0  0  0
   -3.3264    1.0578    0.0000 C   0  0  0  0  0  0  0  0  0  0  0  0
    0.4125   -1.0844    0.0000 C   0  0  0  0  0  0  0  0  0  0  0  0
   -0.4258   -1.0711    0.0000 C   0  0  0  0  0  0  0  0  0  0  0  0
   -2.1023    1.7896    0.0000 C   0  0  0  0  0  0  0  0  0  0  0  0
   -2.9140    1.7896    0.0000 C   0  0  0  0  0  0  0  0  0  0  0  0
    2.0757   -1.0711    0.0000 C   0  0  0  0  0  0  0  0  0  0  0  0
    0.8383   -1.7896    0.0000 C   0  0  0  0  0  0  0  0  0  0  0  0
    0.8383   -0.3659    0.0000 C   0  0  0  0  0  0  0  0  0  0  0  0
    1.6633   -1.7896    0.0000 C   0  0  0  0  0  0  0  0  0  0  0  0
    1.6633   -0.3659    0.0000 C   0  0  0  0  0  0  0  0  0  0  0  0
    2.9140   -1.0844    0.0000 C   0  0  0  0  0  0  0  0  0  0  0  0
    3.3398   -0.3659    0.0000 C   0  0  0  0  0  0  0  0  0  0  0  0
  1  9  2  0  0  0  0
  2 10  2  0  0  0  0
  3 10  1  0  0  0  0
  4 23  2  0  0  0  0
  5  9  1  0  0  0  0
  5 14  1  0  0  0  0
  6 23  1  0  0  0  0
  7  8  2  0  0  0  0
  7  9  1  0  0  0  0
  7 11  1  0  0  0  0
  8 10  1  0  0  0  0
  8 12  1  0  0  0  0
 11 15  2  0  0  0  0
 12 16  2  0  0  0  0
 13 14  1  0  0  0  0
 13 18  2  0  0  0  0
 13 19  1  0  0  0  0
 15 16  1  0  0  0  0
 17 20  2  0  0  0  0
 17 21  1  0  0  0  0
 17 22  1  0  0  0  0
 18 20  1  0  0  0  0
 19 21  2  0  0  0  0
 22 23  1  0  0  0  0
M  END
> <PUBCHEM_COMPOUND_ID_TYPE>
0

> <PUBCHEM_TOTAL_CHARGE>
0

> <PUBCHEM_SUBSTANCE_ID>
310949777

> <PUBCHEM_SUBSTANCE_VERSION>
1

> <PUBCHEM_EXT_DATASOURCE_NAME>
4488

> <PUBCHEM_EXT_DATASOURCE_REGID>
SCHEMBL16127975

> <PUBCHEM_SUBSTANCE_COMMENT>
InChI=1S/C17H16N2O4/c18-15(20)9-11-5-7-12(8-6-11)10-19-16(21)13-3-1-2-4-14(13)17(22)23/h1-8H,9-10H2,(H2,18,20)(H,19,21)(H,22,23)
InChIKey=RSCCPCHIGTWMDM-UHFFFAOYSA-N

> <PUBCHEM_SUBSTANCE_SYNONYM>
SCHEMBL16127975

> <PUBCHEM_XREF_EXT_ID>
SCHEMBL16127975

> <PUBCHEM_EXT_DATASOURCE_URL>
https://www.surechembl.org/

> <PUBCHEM_EXT_SUBSTANCE_URL>
https://www.surechembl.org/chemical/SCHEMBL16127975

> <PUBCHEM_CID_ASSOCIATIONS>
117615101  1

> <PUBCHEM_COORDINATE_TYPE>
1
3

$$$$
