310947532
  -OEChem-07211613022D

 20 21  0     1  0  0  0  0  0999 V2000
   -3.9765   -3.9262    0.0000 F   0  0  0  0  0  0  0  0  0  0  0  0
   -2.3265   -3.9262    0.0000 O   0  0  0  0  0  0  0  0  0  0  0  0
   -3.1515   -1.9422    0.0000 O   0  0  0  0  0  0  0  0  0  0  0  0
   -1.7696   -2.0146    0.0000 O   0  0  0  0  0  0  0  0  0  0  0  0
   -3.5640   -4.6407    0.0000 O   0  0  0  0  0  0  0  0  0  0  0  0
   -2.7390   -3.2117    0.0000 C   0  0  3  0  0  0  0  0  0  0  0  0
   -3.5640   -3.2117    0.0000 C   0  0  3  0  0  0  0  0  0  0  0  0
   -2.4841   -2.4271    0.0000 C   0  0  3  0  0  0  0  0  0  0  0  0
   -3.8190   -2.4271    0.0000 C   0  0  3  0  0  0  0  0  0  0  0  0
   -2.7390   -4.6407    0.0000 C   0  0  0  0  0  0  0  0  0  0  0  0
   -1.9140   -3.2117    0.0000 C   0  0  0  0  0  0  0  0  0  0  0  0
   -4.2315   -1.7127    0.0000 C   0  0  0  0  0  0  0  0  0  0  0  0
   -2.3265   -5.3552    0.0000 C   0  0  0  0  0  0  0  0  0  0  0  0
   -2.7390   -6.0696    0.0000 C   0  0  0  0  0  0  0  0  0  0  0  0
   -1.5015   -5.3552    0.0000 C   0  0  0  0  0  0  0  0  0  0  0  0
   -1.0552   -2.4271    0.0000 C   0  0  0  0  0  0  0  0  0  0  0  0
   -5.0565   -1.7127    0.0000 C   0  0  0  0  0  0  0  0  0  0  0  0
   -2.3265   -6.7841    0.0000 C   0  0  0  0  0  0  0  0  0  0  0  0
   -1.0890   -6.0696    0.0000 C   0  0  0  0  0  0  0  0  0  0  0  0
   -1.5015   -6.7841    0.0000 C   0  0  0  0  0  0  0  0  0  0  0  0
  7  1  1  6  0  0  0
  6  2  1  6  0  0  0
  2 10  1  0  0  0  0
  3  8  1  0  0  0  0
  3  9  1  0  0  0  0
  8  4  1  1  0  0  0
  4 16  1  0  0  0  0
  5 10  2  0  0  0  0
  6  7  1  0  0  0  0
  6  8  1  0  0  0  0
  6 11  1  1  0  0  0
  7  9  1  0  0  0  0
  9 12  1  1  0  0  0
 10 13  1  0  0  0  0
 12 17  1  0  0  0  0
 13 14  2  0  0  0  0
 13 15  1  0  0  0  0
 14 18  1  0  0  0  0
 15 19  2  0  0  0  0
 18 20  2  0  0  0  0
 19 20  1  0  0  0  0
M  END
> <PUBCHEM_COMPOUND_ID_TYPE>
0

> <PUBCHEM_TOTAL_CHARGE>
0

> <PUBCHEM_SUBSTANCE_ID>
310947532

> <PUBCHEM_SUBSTANCE_VERSION>
1

> <PUBCHEM_EXT_DATASOURCE_NAME>
4488

> <PUBCHEM_EXT_DATASOURCE_REGID>
SCHEMBL16125695

> <PUBCHEM_SUBSTANCE_COMMENT>
InChI=1S/C15H19FO4/c1-4-11-12(16)15(2,14(18-3)19-11)20-13(17)10-8-6-5-7-9-10/h5-9,11-12,14H,4H2,1-3H3/t11-,12-,14-,15-/m1/s1
InChIKey=YFSUEHBAKGNMFA-QHSBEEBCSA-N

> <PUBCHEM_SUBSTANCE_SYNONYM>
SCHEMBL16125695

> <PUBCHEM_XREF_EXT_ID>
SCHEMBL16125695

> <PUBCHEM_EXT_DATASOURCE_URL>
https://www.surechembl.org/

> <PUBCHEM_EXT_SUBSTANCE_URL>
https://www.surechembl.org/chemical/SCHEMBL16125695

> <PUBCHEM_CID_ASSOCIATIONS>
117613254  1

> <PUBCHEM_COORDINATE_TYPE>
1
3

> <PUBCHEM_BONDANNOTATIONS>
7  1  6
6  2  6
8  4  5
6  11  5
9  12  5

$$$$
