310932834
  -OEChem-07211613022D

 24 26  0     0  0  0  0  0  0999 V2000
    4.0184   -2.1224    0.0000 O   0  0  0  0  0  0  0  0  0  0  0  0
    8.4895   -2.2073    0.0000 O   0  0  0  0  0  0  0  0  0  0  0  0
    4.8956   -0.9621    0.0000 N   0  0  0  0  0  0  0  0  0  0  0  0
    4.8390   -0.1415    0.0000 N   0  0  0  0  0  0  0  0  0  0  0  0
    6.3388   -0.9621    0.0000 N   0  0  0  0  0  0  0  0  0  0  0  0
    7.7820   -3.4241    0.0000 N   0  0  0  0  0  0  0  0  0  0  0  0
    0.0000   -1.8394    0.0000 N   0  0  0  0  0  0  0  0  0  0  0  0
    4.1599   -1.3017    0.0000 C   0  0  0  0  0  0  0  0  0  0  0  0
    3.5939   -0.7075    0.0000 C   0  0  0  0  0  0  0  0  0  0  0  0
    5.6313   -1.3866    0.0000 C   0  0  0  0  0  0  0  0  0  0  0  0
    2.8016   -0.7923    0.0000 C   0  0  0  0  0  0  0  0  0  0  0  0
    4.0184    0.0000    0.0000 C   0  0  0  0  0  0  0  0  0  0  0  0
    5.6313   -2.2073    0.0000 C   0  0  0  0  0  0  0  0  0  0  0  0
    7.0463   -2.2073    0.0000 C   0  0  0  0  0  0  0  0  0  0  0  0
    2.4619   -1.5564    0.0000 C   0  0  0  0  0  0  0  0  0  0  0  0
    2.2922   -0.1415    0.0000 C   0  0  0  0  0  0  0  0  0  0  0  0
    7.0463   -1.3866    0.0000 C   0  0  0  0  0  0  0  0  0  0  0  0
    6.3388   -2.6034    0.0000 C   0  0  0  0  0  0  0  0  0  0  0  0
    7.7820   -2.6034    0.0000 C   0  0  0  0  0  0  0  0  0  0  0  0
    1.1603   -0.9905    0.0000 C   0  0  0  0  0  0  0  0  0  0  0  0
    1.6413   -1.6413    0.0000 C   0  0  0  0  0  0  0  0  0  0  0  0
    1.4715   -0.2264    0.0000 C   0  0  0  0  0  0  0  0  0  0  0  0
    0.3396   -1.0753    0.0000 C   0  0  0  0  0  0  0  0  0  0  0  0
    8.4895   -3.8485    0.0000 C   0  0  0  0  0  0  0  0  0  0  0  0
  1  8  1  0  0  0  0
  2 19  2  0  0  0  0
  3  4  1  0  0  0  0
  3  8  1  0  0  0  0
  3 10  1  0  0  0  0
  4 12  2  0  0  0  0
  5 10  2  0  0  0  0
  5 17  1  0  0  0  0
  6 19  1  0  0  0  0
  6 24  1  0  0  0  0
  7 23  3  0  0  0  0
  8  9  2  0  0  0  0
  9 11  1  0  0  0  0
  9 12  1  0  0  0  0
 10 13  1  0  0  0  0
 11 15  2  0  0  0  0
 11 16  1  0  0  0  0
 13 18  2  0  0  0  0
 14 17  2  0  0  0  0
 14 18  1  0  0  0  0
 14 19  1  0  0  0  0
 15 21  1  0  0  0  0
 16 22  2  0  0  0  0
 20 21  2  0  0  0  0
 20 22  1  0  0  0  0
 20 23  1  0  0  0  0
M  END
> <PUBCHEM_COMPOUND_ID_TYPE>
0

> <PUBCHEM_TOTAL_CHARGE>
0

> <PUBCHEM_SUBSTANCE_ID>
310932834

> <PUBCHEM_SUBSTANCE_VERSION>
1

> <PUBCHEM_EXT_DATASOURCE_NAME>
4488

> <PUBCHEM_EXT_DATASOURCE_REGID>
SCHEMBL16110223

> <PUBCHEM_SUBSTANCE_COMMENT>
InChI=1S/C17H13N5O2/c1-19-16(23)13-6-7-15(20-9-13)22-17(24)14(10-21-22)12-4-2-11(8-18)3-5-12/h2-7,9-10,24H,1H3,(H,19,23)
InChIKey=LUSDUMLZQBZEHJ-UHFFFAOYSA-N

> <PUBCHEM_SUBSTANCE_SYNONYM>
SCHEMBL16110223

> <PUBCHEM_XREF_EXT_ID>
SCHEMBL16110223

> <PUBCHEM_EXT_DATASOURCE_URL>
https://www.surechembl.org/

> <PUBCHEM_EXT_SUBSTANCE_URL>
https://www.surechembl.org/chemical/SCHEMBL16110223

> <PUBCHEM_CID_ASSOCIATIONS>
117601323  1

> <PUBCHEM_COORDINATE_TYPE>
1
3

$$$$
