310941702
  -OEChem-07211613022D

 18 17  0     1  0  0  0  0  0999 V2000
   -0.4281   -0.7117    0.0000 O   0  0  0  0  0  0  0  0  0  0  0  0
   -1.6290    0.0000    0.0000 O   0  0  0  0  0  0  0  0  0  0  0  0
    2.0627    0.7228    0.0000 O   0  0  0  0  0  0  0  0  0  0  0  0
   -2.0627    2.1238    0.0000 O   0  0  0  0  0  0  0  0  0  0  0  0
   -2.0627    0.7228    0.0000 O   0  0  0  0  0  0  0  0  0  0  0  0
    2.0627   -0.7117    0.0000 O   0  0  0  0  0  0  0  0  0  0  0  0
   -0.8173    1.4122    0.0000 N   0  0  0  0  0  0  0  0  0  0  0  0
   -0.4058    0.7339    0.0000 C   0  0  3  0  0  0  0  0  0  0  0  0
   -0.8173    0.0111    0.0000 C   0  0  0  0  0  0  0  0  0  0  0  0
   -0.8173   -1.4011    0.0000 C   0  0  0  0  0  0  0  0  0  0  0  0
    0.4170    0.7117    0.0000 C   0  0  0  0  0  0  0  0  0  0  0  0
   -1.6290    1.4344    0.0000 C   0  0  0  0  0  0  0  0  0  0  0  0
    0.8173    0.0223    0.0000 C   0  0  0  0  0  0  0  0  0  0  0  0
    1.6290    0.0223    0.0000 C   0  0  0  0  0  0  0  0  0  0  0  0
   -1.5401   -1.0008    0.0000 C   0  0  0  0  0  0  0  0  0  0  0  0
   -1.2287   -2.1238    0.0000 C   0  0  0  0  0  0  0  0  0  0  0  0
   -0.0945   -1.8014    0.0000 C   0  0  0  0  0  0  0  0  0  0  0  0
    1.6401    1.4455    0.0000 C   0  0  0  0  0  0  0  0  0  0  0  0
  1  9  1  0  0  0  0
  1 10  1  0  0  0  0
  2  9  2  0  0  0  0
  3 14  1  0  0  0  0
  3 18  1  0  0  0  0
  4 12  2  0  0  0  0
  5 12  1  0  0  0  0
  6 14  2  0  0  0  0
  8  7  1  1  0  0  0
  7 12  1  0  0  0  0
  8  9  1  0  0  0  0
  8 11  1  0  0  0  0
 10 15  1  0  0  0  0
 10 16  1  0  0  0  0
 10 17  1  0  0  0  0
 11 13  1  0  0  0  0
 13 14  1  0  0  0  0
M  END
> <PUBCHEM_COMPOUND_ID_TYPE>
0

> <PUBCHEM_TOTAL_CHARGE>
0

> <PUBCHEM_SUBSTANCE_ID>
310941702

> <PUBCHEM_SUBSTANCE_VERSION>
1

> <PUBCHEM_EXT_DATASOURCE_NAME>
4488

> <PUBCHEM_EXT_DATASOURCE_REGID>
SCHEMBL16119733

> <PUBCHEM_SUBSTANCE_COMMENT>
InChI=1S/C11H19NO6/c1-11(2,3)18-9(14)7(12-10(15)16)5-6-8(13)17-4/h7,12H,5-6H2,1-4H3,(H,15,16)/t7-/m0/s1
InChIKey=FFGUCTRBNFJKBB-ZETCQYMHSA-N

> <PUBCHEM_SUBSTANCE_SYNONYM>
SCHEMBL16119733

> <PUBCHEM_XREF_EXT_ID>
SCHEMBL16119733

> <PUBCHEM_EXT_DATASOURCE_URL>
https://www.surechembl.org/

> <PUBCHEM_EXT_SUBSTANCE_URL>
https://www.surechembl.org/chemical/SCHEMBL16119733

> <PUBCHEM_CID_ASSOCIATIONS>
117608475  1

> <PUBCHEM_COORDINATE_TYPE>
1
3

> <PUBCHEM_BONDANNOTATIONS>
8  7  5

$$$$
