310936782
  -OEChem-07211613022D

 25 27  0     0  0  0  0  0  0999 V2000
    7.1761   -2.4972    0.0000 F   0  0  0  0  0  0  0  0  0  0  0  0
    5.0207   -1.2617    0.0000 O   0  0  0  0  0  0  0  0  0  0  0  0
    0.7097   -3.7326    0.0000 O   0  0  0  0  0  0  0  0  0  0  0  0
    0.0000   -2.4972    0.0000 O   0  0  0  0  0  0  0  0  0  0  0  0
    2.1555   -1.2617    0.0000 N   0  0  0  0  0  0  0  0  0  0  0  0
    2.8652   -1.6561    0.0000 C   0  0  0  0  0  0  0  0  0  0  0  0
    2.8652   -2.4972    0.0000 C   0  0  0  0  0  0  0  0  0  0  0  0
    1.4195   -2.4972    0.0000 C   0  0  0  0  0  0  0  0  0  0  0  0
    1.4195   -1.6561    0.0000 C   0  0  0  0  0  0  0  0  0  0  0  0
    2.1555   -2.9178    0.0000 C   0  0  0  0  0  0  0  0  0  0  0  0
    3.5749   -1.2617    0.0000 C   0  0  0  0  0  0  0  0  0  0  0  0
    4.2846   -1.6561    0.0000 C   0  0  0  0  0  0  0  0  0  0  0  0
    3.5749   -2.9178    0.0000 C   0  0  0  0  0  0  0  0  0  0  0  0
    0.7097   -2.9178    0.0000 C   0  0  0  0  0  0  0  0  0  0  0  0
    4.2846   -2.4972    0.0000 C   0  0  0  0  0  0  0  0  0  0  0  0
    6.4664   -1.2617    0.0000 C   0  0  0  0  0  0  0  0  0  0  0  0
    0.7097   -1.2617    0.0000 C   0  0  0  0  0  0  0  0  0  0  0  0
    5.7303   -1.6561    0.0000 C   0  0  0  0  0  0  0  0  0  0  0  0
    7.1761   -1.6561    0.0000 C   0  0  0  0  0  0  0  0  0  0  0  0
    6.4664   -0.4206    0.0000 C   0  0  0  0  0  0  0  0  0  0  0  0
    7.8858   -1.2617    0.0000 C   0  0  0  0  0  0  0  0  0  0  0  0
    7.1761    0.0000    0.0000 C   0  0  0  0  0  0  0  0  0  0  0  0
    0.0000   -4.1532    0.0000 C   0  0  0  0  0  0  0  0  0  0  0  0
    7.8858   -0.4206    0.0000 C   0  0  0  0  0  0  0  0  0  0  0  0
    0.0263   -4.9944    0.0000 C   0  0  0  0  0  0  0  0  0  0  0  0
  1 19  1  0  0  0  0
  2 12  1  0  0  0  0
  2 18  1  0  0  0  0
  3 14  1  0  0  0  0
  3 23  1  0  0  0  0
  4 14  2  0  0  0  0
  5  6  2  0  0  0  0
  5  9  1  0  0  0  0
  6  7  1  0  0  0  0
  6 11  1  0  0  0  0
  7 10  2  0  0  0  0
  7 13  1  0  0  0  0
  8  9  2  0  0  0  0
  8 10  1  0  0  0  0
  8 14  1  0  0  0  0
  9 17  1  0  0  0  0
 11 12  2  0  0  0  0
 12 15  1  0  0  0  0
 13 15  2  0  0  0  0
 16 18  1  0  0  0  0
 16 19  2  0  0  0  0
 16 20  1  0  0  0  0
 19 21  1  0  0  0  0
 20 22  2  0  0  0  0
 21 24  2  0  0  0  0
 22 24  1  0  0  0  0
 23 25  1  0  0  0  0
M  END
> <PUBCHEM_COMPOUND_ID_TYPE>
0

> <PUBCHEM_TOTAL_CHARGE>
0

> <PUBCHEM_SUBSTANCE_ID>
310936782

> <PUBCHEM_SUBSTANCE_VERSION>
1

> <PUBCHEM_EXT_DATASOURCE_NAME>
4488

> <PUBCHEM_EXT_DATASOURCE_REGID>
SCHEMBL16114466

> <PUBCHEM_SUBSTANCE_COMMENT>
InChI=1S/C20H18FNO3/c1-3-24-20(23)17-10-14-8-9-16(11-19(14)22-13(17)2)25-12-15-6-4-5-7-18(15)21/h4-11H,3,12H2,1-2H3
InChIKey=XEFRCKVIDYWIBZ-UHFFFAOYSA-N

> <PUBCHEM_SUBSTANCE_SYNONYM>
SCHEMBL16114466

> <PUBCHEM_XREF_EXT_ID>
SCHEMBL16114466

> <PUBCHEM_EXT_DATASOURCE_URL>
https://www.surechembl.org/

> <PUBCHEM_EXT_SUBSTANCE_URL>
https://www.surechembl.org/chemical/SCHEMBL16114466

> <PUBCHEM_CID_ASSOCIATIONS>
117604676  1

> <PUBCHEM_COORDINATE_TYPE>
1
3

$$$$
