310945584
  -OEChem-07211613022D

 37 39  0     1  0  0  0  0  0999 V2000
   -2.7197   -1.4302    0.0000 O   0  0  0  0  0  0  0  0  0  0  0  0
    3.6579   -0.7244    0.0000 O   0  0  0  0  0  0  0  0  0  0  0  0
    3.1585   -1.5458    0.0000 O   0  0  0  0  0  0  0  0  0  0  0  0
   -2.7197    1.9317    0.0000 N   0  0  0  0  0  0  0  0  0  0  0  0
   -1.9953    0.6687    0.0000 N   0  0  0  0  0  0  0  0  0  0  0  0
    0.1779    1.9317    0.0000 N   0  0  0  0  0  0  0  0  0  0  0  0
   -1.2709    3.6034    0.0000 N   0  0  0  0  0  0  0  0  0  0  0  0
    1.6267    1.0959    0.0000 N   0  0  0  0  0  0  0  0  0  0  0  0
   -3.4255    3.9563    0.0000 N   0  0  0  0  0  0  0  0  0  0  0  0
   -1.9953    2.3589    0.0000 C   0  0  0  0  0  0  0  0  0  0  0  0
   -2.7197    1.0959    0.0000 C   0  0  0  0  0  0  0  0  0  0  0  0
   -0.5465    2.3589    0.0000 C   0  0  0  0  0  0  0  0  0  0  0  0
   -1.9767    3.1948    0.0000 C   0  0  0  0  0  0  0  0  0  0  0  0
   -2.7011   -0.5758    0.0000 C   0  0  0  0  0  0  0  0  0  0  0  0
   -1.2337    1.9317    0.0000 C   0  0  0  0  0  0  0  0  0  0  0  0
   -1.9953   -0.1486    0.0000 C   0  0  0  0  0  0  0  0  0  0  0  0
   -3.4441   -0.1486    0.0000 C   0  0  0  0  0  0  0  0  0  0  0  0
    0.9209    2.3404    0.0000 C   0  0  3  0  0  0  0  0  0  0  0  0
   -3.4070    0.6872    0.0000 C   0  0  0  0  0  0  0  0  0  0  0  0
    1.6639    1.9503    0.0000 C   0  0  3  0  0  0  0  0  0  0  0  0
   -0.5279    3.1762    0.0000 C   0  0  0  0  0  0  0  0  0  0  0  0
    0.9394    3.1948    0.0000 C   0  0  0  0  0  0  0  0  0  0  0  0
   -2.7197    3.6034    0.0000 C   0  0  0  0  0  0  0  0  0  0  0  0
    2.3511    2.3589    0.0000 C   0  0  0  0  0  0  0  0  0  0  0  0
    3.1585   -1.0131    0.0000 C   0  0  0  0  0  0  0  0  0  0  0  0
   -1.2337   -0.5758    0.0000 C   0  0  0  0  0  0  0  0  0  0  0  0
   -4.1685   -0.5944    0.0000 C   0  0  0  0  0  0  0  0  0  0  0  0
    1.6453    3.5849    0.0000 C   0  0  0  0  0  0  0  0  0  0  0  0
    2.3511    3.1762    0.0000 C   0  0  0  0  0  0  0  0  0  0  0  0
    3.6690   -0.1695    0.0000 C   0  0  0  0  0  0  0  0  0  0  0  0
   -2.0325   -1.8574    0.0000 C   0  0  0  0  0  0  0  0  0  0  0  0
   -2.0882   -2.6933    0.0000 C   0  0  0  0  0  0  0  0  0  0  0  0
    4.1685   -0.1473    0.0000 C   0  0  0  0  0  0  0  0  0  0  0  0
    3.1585   -0.1695    0.0000 C   0  0  0  0  0  0  0  0  0  0  0  0
    3.6579    0.3744    0.0000 C   0  0  0  0  0  0  0  0  0  0  0  0
   -1.3824   -3.1391    0.0000 C   0  0  0  0  0  0  0  0  0  0  0  0
   -1.4380   -3.9563    0.0000 C   0  0  0  0  0  0  0  0  0  0  0  0
  1 14  1  0  0  0  0
  1 31  1  0  0  0  0
  2 25  1  0  0  0  0
  2 30  1  0  0  0  0
  3 25  2  0  0  0  0
  4 10  1  0  0  0  0
  4 11  1  0  0  0  0
  5 11  1  0  0  0  0
  5 16  2  0  0  0  0
  6 12  1  0  0  0  0
 18  6  1  6  0  0  0
  7 13  1  0  0  0  0
  7 21  2  0  0  0  0
 20  8  1  6  0  0  0
  8 25  1  0  0  0  0
  9 23  3  0  0  0  0
 10 13  2  0  0  0  0
 10 15  1  0  0  0  0
 11 19  2  0  0  0  0
 12 15  2  0  0  0  0
 12 21  1  0  0  0  0
 13 23  1  0  0  0  0
 14 16  1  0  0  0  0
 14 17  2  0  0  0  0
 16 26  1  0  0  0  0
 17 19  1  0  0  0  0
 17 27  1  0  0  0  0
 18 20  1  0  0  0  0
 18 22  1  0  0  0  0
 20 24  1  0  0  0  0
 22 28  1  0  0  0  0
 24 29  1  0  0  0  0
 28 29  1  0  0  0  0
 30 33  1  0  0  0  0
 30 34  1  0  0  0  0
 30 35  1  0  0  0  0
 31 32  1  0  0  0  0
 32 36  1  0  0  0  0
 36 37  1  0  0  0  0
M  END
> <PUBCHEM_COMPOUND_ID_TYPE>
0

> <PUBCHEM_TOTAL_CHARGE>
0

> <PUBCHEM_SUBSTANCE_ID>
310945584

> <PUBCHEM_SUBSTANCE_VERSION>
1

> <PUBCHEM_EXT_DATASOURCE_NAME>
4488

> <PUBCHEM_EXT_DATASOURCE_REGID>
SCHEMBL16123683

> <PUBCHEM_SUBSTANCE_COMMENT>
InChI=1S/C28H40N6O3/c1-7-8-13-36-26-18(2)14-25(31-19(26)3)33-23-15-20(17-30-24(23)16-29)32-21-11-9-10-12-22(21)34-27(35)37-28(4,5)6/h14-15,17,21-22,32H,7-13H2,1-6H3,(H,31,33)(H,34,35)/t21-,22+/m1/s1
InChIKey=SSUQWNNNWMWMLL-YADHBBJMSA-N

> <PUBCHEM_SUBSTANCE_SYNONYM>
SCHEMBL16123683

> <PUBCHEM_XREF_EXT_ID>
SCHEMBL16123683

> <PUBCHEM_EXT_DATASOURCE_URL>
https://www.surechembl.org/

> <PUBCHEM_EXT_SUBSTANCE_URL>
https://www.surechembl.org/chemical/SCHEMBL16123683

> <PUBCHEM_CID_ASSOCIATIONS>
117611612  1

> <PUBCHEM_COORDINATE_TYPE>
1
3

> <PUBCHEM_BONDANNOTATIONS>
18  6  6
20  8  6

$$$$
