310945247
  -OEChem-07211613022D

 13 13  0     0  0  0  0  0  0999 V2000
    0.0000   -0.1659    0.0000 N   0  0  0  0  0  0  0  0  0  0  0  0
   -1.4557    0.6634    0.0000 N   0  0  0  0  0  0  0  0  0  0  0  0
    1.4372    0.6634    0.0000 N   0  0  0  0  0  0  0  0  0  0  0  0
    0.7187   -0.5712    0.0000 C   0  0  0  0  0  0  0  0  0  0  0  0
   -0.7187   -0.5712    0.0000 C   0  0  0  0  0  0  0  0  0  0  0  0
    0.0000    0.6634    0.0000 C   0  0  0  0  0  0  0  0  0  0  0  0
    1.4188   -0.1474    0.0000 C   0  0  0  0  0  0  0  0  0  0  0  0
   -1.4372   -0.1659    0.0000 C   0  0  0  0  0  0  0  0  0  0  0  0
   -0.7371    1.0872    0.0000 C   0  0  0  0  0  0  0  0  0  0  0  0
    0.8108   -1.0872    0.0000 C   0  0  0  0  0  0  0  0  0  0  0  0
    2.1375   -0.5712    0.0000 C   0  0  0  0  0  0  0  0  0  0  0  0
   -2.1744    1.0872    0.0000 C   0  0  0  0  0  0  0  0  0  0  0  0
    2.1744   -1.0872    0.0000 C   0  0  0  0  0  0  0  0  0  0  0  0
  1  4  1  0  0  0  0
  1  5  1  0  0  0  0
  1  6  1  0  0  0  0
  2  8  1  0  0  0  0
  2  9  1  0  0  0  0
  2 12  1  0  0  0  0
  3  7  1  0  0  0  0
  4  7  1  0  0  0  0
  4 10  2  0  0  0  0
  5  8  1  0  0  0  0
  6  9  1  0  0  0  0
  7 11  2  0  0  0  0
 11 13  1  0  0  0  0
M  END
> <PUBCHEM_COMPOUND_ID_TYPE>
0

> <PUBCHEM_TOTAL_CHARGE>
0

> <PUBCHEM_SUBSTANCE_ID>
310945247

> <PUBCHEM_SUBSTANCE_VERSION>
1

> <PUBCHEM_EXT_DATASOURCE_NAME>
4488

> <PUBCHEM_EXT_DATASOURCE_REGID>
SCHEMBL16123341

> <PUBCHEM_SUBSTANCE_COMMENT>
InChI=1S/C10H19N3/c1-4-10(11)9(2)13-7-5-12(3)6-8-13/h4H,2,5-8,11H2,1,3H3/b10-4+
InChIKey=ZWCBDCQMGZROGI-ONNFQVAWSA-N

> <PUBCHEM_SUBSTANCE_SYNONYM>
SCHEMBL16123341

> <PUBCHEM_XREF_EXT_ID>
SCHEMBL16123341

> <PUBCHEM_EXT_DATASOURCE_URL>
https://www.surechembl.org/

> <PUBCHEM_EXT_SUBSTANCE_URL>
https://www.surechembl.org/chemical/SCHEMBL16123341

> <PUBCHEM_CID_ASSOCIATIONS>
117611314  1

> <PUBCHEM_COORDINATE_TYPE>
1
3

$$$$
