310932801
  -OEChem-07211613022D

 33 37  0     0  0  0  0  0  0999 V2000
    7.9320   -1.4677    0.0000 F   0  0  0  0  0  0  0  0  0  0  0  0
    5.5899   -2.8105    0.0000 O   0  0  0  0  0  0  0  0  0  0  0  0
    1.4677   -4.5282    0.0000 O   0  0  0  0  0  0  0  0  0  0  0  0
    5.1839   -4.2158    0.0000 N   0  0  0  0  0  0  0  0  0  0  0  0
    5.6211   -4.9341    0.0000 N   0  0  0  0  0  0  0  0  0  0  0  0
    3.9035   -4.7779    0.0000 N   0  0  0  0  0  0  0  0  0  0  0  0
    1.6239   -3.0916    0.0000 N   0  0  0  0  0  0  0  0  0  0  0  0
    0.9681   -1.5927    0.0000 N   0  0  0  0  0  0  0  0  0  0  0  0
    9.3686   -1.4677    0.0000 N   0  0  0  0  0  0  0  0  0  0  0  0
    6.4955   -3.9348    0.0000 C   0  0  0  0  0  0  0  0  0  0  0  0
    5.7460   -3.5913    0.0000 C   0  0  0  0  0  0  0  0  0  0  0  0
    7.2137   -3.5288    0.0000 C   0  0  0  0  0  0  0  0  0  0  0  0
    4.3720   -4.1221    0.0000 C   0  0  0  0  0  0  0  0  0  0  0  0
    6.4018   -4.7468    0.0000 C   0  0  0  0  0  0  0  0  0  0  0  0
    7.9320   -3.9348    0.0000 C   0  0  0  0  0  0  0  0  0  0  0  0
    7.2137   -2.6857    0.0000 C   0  0  0  0  0  0  0  0  0  0  0  0
    2.7481   -3.9348    0.0000 C   0  0  0  0  0  0  0  0  0  0  0  0
    7.9320   -2.2797    0.0000 C   0  0  0  0  0  0  0  0  0  0  0  0
    4.0597   -3.3414    0.0000 C   0  0  0  0  0  0  0  0  0  0  0  0
    1.9361   -3.8411    0.0000 C   0  0  0  0  0  0  0  0  0  0  0  0
    8.6503   -2.6857    0.0000 C   0  0  0  0  0  0  0  0  0  0  0  0
    8.6503   -3.5288    0.0000 C   0  0  0  0  0  0  0  0  0  0  0  0
    3.0916   -4.7155    0.0000 C   0  0  0  0  0  0  0  0  0  0  0  0
    3.2165   -3.2790    0.0000 C   0  0  0  0  0  0  0  0  0  0  0  0
    0.6246   -0.8432    0.0000 C   0  0  0  0  0  0  0  0  0  0  0  0
    2.1235   -2.4358    0.0000 C   0  0  0  0  0  0  0  0  0  0  0  0
    0.8119   -2.9979    0.0000 C   0  0  0  0  0  0  0  0  0  0  0  0
    0.4684   -2.2485    0.0000 C   0  0  0  0  0  0  0  0  0  0  0  0
    1.7800   -1.6863    0.0000 C   0  0  0  0  0  0  0  0  0  0  0  0
    0.0000   -0.3435    0.0000 C   0  0  0  0  0  0  0  0  0  0  0  0
    0.7183    0.0000    0.0000 C   0  0  0  0  0  0  0  0  0  0  0  0
    7.9320   -4.7468    0.0000 C   0  0  0  0  0  0  0  0  0  0  0  0
    9.3686   -2.2797    0.0000 C   0  0  0  0  0  0  0  0  0  0  0  0
  1 18  1  0  0  0  0
  2 11  1  0  0  0  0
  3 20  2  0  0  0  0
  4  5  1  0  0  0  0
  4 11  1  0  0  0  0
  4 13  1  0  0  0  0
  5 14  2  0  0  0  0
  6 13  1  0  0  0  0
  6 23  2  0  0  0  0
  7 20  1  0  0  0  0
  7 26  1  0  0  0  0
  7 27  1  0  0  0  0
  8 25  1  0  0  0  0
  8 28  1  0  0  0  0
  8 29  1  0  0  0  0
  9 33  3  0  0  0  0
 10 11  2  0  0  0  0
 10 12  1  0  0  0  0
 10 14  1  0  0  0  0
 12 15  1  0  0  0  0
 12 16  2  0  0  0  0
 13 19  2  0  0  0  0
 15 22  2  0  0  0  0
 15 32  1  0  0  0  0
 16 18  1  0  0  0  0
 17 20  1  0  0  0  0
 17 23  1  0  0  0  0
 17 24  2  0  0  0  0
 18 21  2  0  0  0  0
 19 24  1  0  0  0  0
 21 22  1  0  0  0  0
 21 33  1  0  0  0  0
 25 30  1  0  0  0  0
 25 31  1  0  0  0  0
 26 29  1  0  0  0  0
 27 28  1  0  0  0  0
 30 31  1  0  0  0  0
M  END
> <PUBCHEM_COMPOUND_ID_TYPE>
0

> <PUBCHEM_TOTAL_CHARGE>
0

> <PUBCHEM_SUBSTANCE_ID>
310932801

> <PUBCHEM_SUBSTANCE_VERSION>
1

> <PUBCHEM_EXT_DATASOURCE_NAME>
4488

> <PUBCHEM_EXT_DATASOURCE_REGID>
SCHEMBL16110189

> <PUBCHEM_SUBSTANCE_COMMENT>
InChI=1S/C24H23FN6O2/c1-15-10-17(12-26)21(25)11-19(15)20-14-28-31(24(20)33)22-5-2-16(13-27-22)23(32)30-8-6-29(7-9-30)18-3-4-18/h2,5,10-11,13-14,18,33H,3-4,6-9H2,1H3
InChIKey=XXNZHNBMTBCMSS-UHFFFAOYSA-N

> <PUBCHEM_SUBSTANCE_SYNONYM>
SCHEMBL16110189

> <PUBCHEM_XREF_EXT_ID>
SCHEMBL16110189

> <PUBCHEM_EXT_DATASOURCE_URL>
https://www.surechembl.org/

> <PUBCHEM_EXT_SUBSTANCE_URL>
https://www.surechembl.org/chemical/SCHEMBL16110189

> <PUBCHEM_CID_ASSOCIATIONS>
117601291  1

> <PUBCHEM_COORDINATE_TYPE>
1
3

$$$$
