310938693
  -OEChem-07211613022D

 28 30  0     0  0  0  0  0  0999 V2000
   -0.7278    3.6081    0.0000 Cl  0  0  0  0  0  0  0  0  0  0  0  0
   -0.7278    0.7502    0.0000 Cl  0  0  0  0  0  0  0  0  0  0  0  0
    2.0812    1.3542    0.0000 S   0  0  0  0  0  0  0  0  0  0  0  0
    3.5102    1.3542    0.0000 F   0  0  0  0  0  0  0  0  0  0  0  0
    2.7957    2.5917    0.0000 F   0  0  0  0  0  0  0  0  0  0  0  0
    0.0972    2.1792    0.0000 N   0  0  0  0  0  0  0  0  0  0  0  0
    0.5821    2.8466    0.0000 N   0  0  0  0  0  0  0  0  0  0  0  0
    0.1696    0.7972    0.0000 N   0  0  0  0  0  0  0  0  0  0  0  0
    2.7957    3.4167    0.0000 N   0  0  0  0  0  0  0  0  0  0  0  0
    1.8196    0.7972    0.0000 N   0  0  0  0  0  0  0  0  0  0  0  0
    2.6446   -0.6317    0.0000 N   0  0  0  0  0  0  0  0  0  0  0  0
    0.5821    1.5117    0.0000 C   0  0  0  0  0  0  0  0  0  0  0  0
   -0.7278    2.1792    0.0000 C   0  0  0  0  0  0  0  0  0  0  0  0
    1.3668    1.7667    0.0000 C   0  0  0  0  0  0  0  0  0  0  0  0
    1.3668    2.5917    0.0000 C   0  0  0  0  0  0  0  0  0  0  0  0
   -1.1403    2.8936    0.0000 C   0  0  0  0  0  0  0  0  0  0  0  0
   -1.1403    1.4647    0.0000 C   0  0  0  0  0  0  0  0  0  0  0  0
   -1.9653    2.8936    0.0000 C   0  0  0  0  0  0  0  0  0  0  0  0
   -1.9653    1.4647    0.0000 C   0  0  0  0  0  0  0  0  0  0  0  0
    2.0812    3.0042    0.0000 C   0  0  0  0  0  0  0  0  0  0  0  0
   -2.3778    2.1792    0.0000 C   0  0  0  0  0  0  0  0  0  0  0  0
    0.5821    0.0828    0.0000 C   0  0  0  0  0  0  0  0  0  0  0  0
    2.7957    1.7667    0.0000 C   0  0  0  0  0  0  0  0  0  0  0  0
    1.4071    0.0828    0.0000 C   0  0  0  0  0  0  0  0  0  0  0  0
   -3.2028    2.1792    0.0000 C   0  0  0  0  0  0  0  0  0  0  0  0
    1.8196   -0.6317    0.0000 C   0  0  0  0  0  0  0  0  0  0  0  0
    2.6446    0.7972    0.0000 C   0  0  0  0  0  0  0  0  0  0  0  0
    3.0571    0.0828    0.0000 C   0  0  0  0  0  0  0  0  0  0  0  0
  1 16  1  0  0  0  0
  2 17  1  0  0  0  0
  3 14  1  0  0  0  0
  3 23  1  0  0  0  0
  4 23  1  0  0  0  0
  5 23  1  0  0  0  0
  6  7  1  0  0  0  0
  6 12  1  0  0  0  0
  6 13  1  0  0  0  0
  7 15  2  0  0  0  0
  8 12  1  0  0  0  0
  8 22  1  0  0  0  0
  9 20  3  0  0  0  0
 10 24  2  0  0  0  0
 10 27  1  0  0  0  0
 11 26  2  0  0  0  0
 11 28  1  0  0  0  0
 12 14  2  0  0  0  0
 13 16  2  0  0  0  0
 13 17  1  0  0  0  0
 14 15  1  0  0  0  0
 15 20  1  0  0  0  0
 16 18  1  0  0  0  0
 17 19  2  0  0  0  0
 18 21  2  0  0  0  0
 19 21  1  0  0  0  0
 21 25  1  0  0  0  0
 22 24  1  0  0  0  0
 24 26  1  0  0  0  0
 27 28  2  0  0  0  0
M  END
> <PUBCHEM_COMPOUND_ID_TYPE>
0

> <PUBCHEM_TOTAL_CHARGE>
0

> <PUBCHEM_SUBSTANCE_ID>
310938693

> <PUBCHEM_SUBSTANCE_VERSION>
1

> <PUBCHEM_EXT_DATASOURCE_NAME>
4488

> <PUBCHEM_EXT_DATASOURCE_REGID>
SCHEMBL16116607

> <PUBCHEM_SUBSTANCE_COMMENT>
InChI=1S/C17H12Cl2F2N6S/c1-9-4-11(18)14(12(19)5-9)27-16(25-8-10-7-23-2-3-24-10)15(28-17(20)21)13(6-22)26-27/h2-5,7,17,25H,8H2,1H3
InChIKey=BCOYQGDRSSTPGF-UHFFFAOYSA-N

> <PUBCHEM_SUBSTANCE_SYNONYM>
SCHEMBL16116607

> <PUBCHEM_XREF_EXT_ID>
SCHEMBL16116607

> <PUBCHEM_EXT_DATASOURCE_URL>
https://www.surechembl.org/

> <PUBCHEM_EXT_SUBSTANCE_URL>
https://www.surechembl.org/chemical/SCHEMBL16116607

> <PUBCHEM_CID_ASSOCIATIONS>
117606124  1

> <PUBCHEM_COORDINATE_TYPE>
1
3

$$$$
