310944054
  -OEChem-07211613022D

 15 16  0     1  0  0  0  0  0999 V2000
    2.4975   -1.7625    0.0000 O   0  0  0  0  0  0  0  0  0  0  0  0
    0.4575    0.2775    0.0000 N   0  0  0  0  0  0  0  0  0  0  0  0
    0.9525    0.9525    0.0000 N   0  0  0  0  0  0  0  0  0  0  0  0
   -0.3375    0.5475    0.0000 C   0  0  0  0  0  0  0  0  0  0  0  0
   -0.3225    1.3725    0.0000 C   0  0  0  0  0  0  0  0  0  0  0  0
    0.4575    1.6125    0.0000 C   0  0  0  0  0  0  0  0  0  0  0  0
   -1.0425    0.1275    0.0000 C   0  0  0  0  0  0  0  0  0  0  0  0
   -1.0575    1.7625    0.0000 C   0  0  0  0  0  0  0  0  0  0  0  0
    0.6675   -0.5175    0.0000 C   0  0  0  0  0  0  0  0  0  0  0  0
   -1.7625    1.3725    0.0000 C   0  0  0  0  0  0  0  0  0  0  0  0
   -1.7625    0.5475    0.0000 C   0  0  0  0  0  0  0  0  0  0  0  0
    1.4775   -0.7425    0.0000 C   0  0  3  0  0  0  0  0  0  0  0  0
   -2.4975    1.7625    0.0000 C   0  0  0  0  0  0  0  0  0  0  0  0
    1.6875   -1.5375    0.0000 C   0  0  0  0  0  0  0  0  0  0  0  0
    2.0325   -0.1875    0.0000 C   0  0  0  0  0  0  0  0  0  0  0  0
  1 14  1  0  0  0  0
  2  3  1  0  0  0  0
  2  4  1  0  0  0  0
  2  9  1  0  0  0  0
  3  6  2  0  0  0  0
  4  5  1  0  0  0  0
  4  7  2  0  0  0  0
  5  6  1  0  0  0  0
  5  8  2  0  0  0  0
  7 11  1  0  0  0  0
  8 10  1  0  0  0  0
  9 12  1  0  0  0  0
 10 11  2  0  0  0  0
 10 13  1  0  0  0  0
 12 14  1  0  0  0  0
 12 15  1  6  0  0  0
M  END
> <PUBCHEM_COMPOUND_ID_TYPE>
0

> <PUBCHEM_TOTAL_CHARGE>
0

> <PUBCHEM_SUBSTANCE_ID>
310944054

> <PUBCHEM_SUBSTANCE_VERSION>
1

> <PUBCHEM_EXT_DATASOURCE_NAME>
4488

> <PUBCHEM_EXT_DATASOURCE_REGID>
SCHEMBL16122127

> <PUBCHEM_SUBSTANCE_COMMENT>
InChI=1S/C12H16N2O/c1-9-3-4-12-11(5-9)6-13-14(12)7-10(2)8-15/h3-6,10,15H,7-8H2,1-2H3/t10-/m0/s1
InChIKey=WEVHRBPPNCEYEM-JTQLQIEISA-N

> <PUBCHEM_SUBSTANCE_SYNONYM>
SCHEMBL16122127

> <PUBCHEM_XREF_EXT_ID>
SCHEMBL16122127

> <PUBCHEM_EXT_DATASOURCE_URL>
https://www.surechembl.org/

> <PUBCHEM_EXT_SUBSTANCE_URL>
https://www.surechembl.org/chemical/SCHEMBL16122127

> <PUBCHEM_CID_ASSOCIATIONS>
117610350  1

> <PUBCHEM_COORDINATE_TYPE>
1
3

> <PUBCHEM_BONDANNOTATIONS>
12  15  6

$$$$
