310945705
  -OEChem-07211613022D

 38 40  0     1  0  0  0  0  0999 V2000
   -4.0622    0.1666    0.0000 O   0  0  0  0  0  0  0  0  0  0  0  0
    2.4790   -0.9999    0.0000 O   0  0  0  0  0  0  0  0  0  0  0  0
    0.3124    1.0833    0.0000 O   0  0  0  0  0  0  0  0  0  0  0  0
   -1.8540   -0.9999    0.0000 O   0  0  0  0  0  0  0  0  0  0  0  0
    4.6455    2.7498    0.0000 O   0  0  0  0  0  0  0  0  0  0  0  0
    4.8538    0.9583    0.0000 O   0  0  0  0  0  0  0  0  0  0  0  0
    1.0346   -0.1666    0.0000 N   0  0  0  0  0  0  0  0  0  0  0  0
    3.2011    0.2500    0.0000 N   0  0  0  0  0  0  0  0  0  0  0  0
   -1.1319    0.2500    0.0000 N   0  0  0  0  0  0  0  0  0  0  0  0
   -4.2011   -1.1666    0.0000 N   0  0  0  0  0  0  0  0  0  0  0  0
   -5.4510   -0.3611    0.0000 N   0  0  0  0  0  0  0  0  0  0  0  0
    1.7429    0.2777    0.0000 C   0  0  3  0  0  0  0  0  0  0  0  0
    2.4790   -0.1250    0.0000 C   0  0  0  0  0  0  0  0  0  0  0  0
    0.2986    0.2500    0.0000 C   0  0  0  0  0  0  0  0  0  0  0  0
    1.7568    1.0972    0.0000 C   0  0  0  0  0  0  0  0  0  0  0  0
    2.4652    1.5277    0.0000 C   0  0  0  0  0  0  0  0  0  0  0  0
    4.1456   -0.2639    0.0000 C   0  0  3  0  0  0  0  0  0  0  0  0
   -0.3958   -0.1389    0.0000 C   0  0  3  0  0  0  0  0  0  0  0  0
   -3.2844   -0.1389    0.0000 C   0  0  0  0  0  0  0  0  0  0  0  0
   -1.8540   -0.1250    0.0000 C   0  0  0  0  0  0  0  0  0  0  0  0
    4.1316   -1.3472    0.0000 C   0  0  0  0  0  0  0  0  0  0  0  0
   -2.6040    0.2639    0.0000 C   0  0  0  0  0  0  0  0  0  0  0  0
    4.7982    0.1250    0.0000 C   0  0  0  0  0  0  0  0  0  0  0  0
    3.2150    1.1111    0.0000 C   0  0  0  0  0  0  0  0  0  0  0  0
    2.4929    2.3610    0.0000 C   0  0  0  0  0  0  0  0  0  0  0  0
    3.4233   -1.7638    0.0000 C   0  0  0  0  0  0  0  0  0  0  0  0
   -4.6177   -0.4305    0.0000 C   0  0  0  0  0  0  0  0  0  0  0  0
   -3.3955   -0.9722    0.0000 C   0  0  0  0  0  0  0  0  0  0  0  0
    3.9233    2.3610    0.0000 C   0  0  0  0  0  0  0  0  0  0  0  0
    3.9233    1.5277    0.0000 C   0  0  0  0  0  0  0  0  0  0  0  0
    3.2011    2.7498    0.0000 C   0  0  0  0  0  0  0  0  0  0  0  0
    2.6595   -1.4443    0.0000 C   0  0  0  0  0  0  0  0  0  0  0  0
    3.3261   -2.5831    0.0000 C   0  0  0  0  0  0  0  0  0  0  0  0
   -0.4097   -0.9583    0.0000 C   0  0  0  0  0  0  0  0  0  0  0  0
    2.1178   -2.0554    0.0000 C   0  0  0  0  0  0  0  0  0  0  0  0
    2.5068   -2.7498    0.0000 C   0  0  0  0  0  0  0  0  0  0  0  0
    5.4510   -0.1944    0.0000 C   0  0  0  0  0  0  0  0  0  0  0  0
    5.3814    2.3471    0.0000 C   0  0  0  0  0  0  0  0  0  0  0  0
  1 19  1  0  0  0  0
  1 27  1  0  0  0  0
  2 13  2  0  0  0  0
  3 14  2  0  0  0  0
  4 20  2  0  0  0  0
  5 29  1  0  0  0  0
  5 38  1  0  0  0  0
  6 23  2  0  0  0  0
 12  7  1  1  0  0  0
  7 14  1  0  0  0  0
  8 13  1  0  0  0  0
 17  8  1  6  0  0  0
  9 18  1  0  0  0  0
  9 20  1  0  0  0  0
 10 27  2  0  0  0  0
 10 28  1  0  0  0  0
 11 27  1  0  0  0  0
 12 13  1  0  0  0  0
 12 15  1  0  0  0  0
 14 18  1  0  0  0  0
 15 16  1  0  0  0  0
 16 24  2  0  0  0  0
 16 25  1  0  0  0  0
 17 21  1  0  0  0  0
 17 23  1  0  0  0  0
 18 34  1  6  0  0  0
 19 22  1  0  0  0  0
 19 28  2  0  0  0  0
 20 22  1  0  0  0  0
 21 26  1  0  0  0  0
 23 37  1  0  0  0  0
 24 30  1  0  0  0  0
 25 31  2  0  0  0  0
 26 32  2  0  0  0  0
 26 33  1  0  0  0  0
 29 30  2  0  0  0  0
 29 31  1  0  0  0  0
 32 35  1  0  0  0  0
 33 36  1  0  0  0  0
 35 36  1  0  0  0  0
M  END
> <PUBCHEM_COMPOUND_ID_TYPE>
0

> <PUBCHEM_TOTAL_CHARGE>
0

> <PUBCHEM_SUBSTANCE_ID>
310945705

> <PUBCHEM_SUBSTANCE_VERSION>
1

> <PUBCHEM_EXT_DATASOURCE_NAME>
4488

> <PUBCHEM_EXT_DATASOURCE_REGID>
SCHEMBL16123806

> <PUBCHEM_SUBSTANCE_COMMENT>
InChI=1S/C27H35N5O6/c1-16(30-24(34)14-21-15-29-27(28)38-21)25(35)32-23(13-19-8-10-20(37-3)11-9-19)26(36)31-22(17(2)33)12-18-6-4-5-7-18/h6,8-11,15-16,22-23H,4-5,7,12-14H2,1-3H3,(H2,28,29)(H,30,34)(H,31,36)(H,32,35)/t16-,22-,23-/m0/s1
InChIKey=ZOVCYPOMPULVNW-GMWOSMDTSA-N

> <PUBCHEM_SUBSTANCE_SYNONYM>
SCHEMBL16123806

> <PUBCHEM_XREF_EXT_ID>
SCHEMBL16123806

> <PUBCHEM_EXT_DATASOURCE_URL>
https://www.surechembl.org/

> <PUBCHEM_EXT_SUBSTANCE_URL>
https://www.surechembl.org/chemical/SCHEMBL16123806

> <PUBCHEM_CID_ASSOCIATIONS>
117611702  1

> <PUBCHEM_COORDINATE_TYPE>
1
3

> <PUBCHEM_BONDANNOTATIONS>
18  34  6
12  7  5
17  8  6

$$$$
