310929400
  -OEChem-07211613022D

 42 45  0     0  0  0  0  0  0999 V2000
    2.1619   -6.6479    0.0000 F   0  0  0  0  0  0  0  0  0  0  0  0
    2.1619   -4.9724    0.0000 F   0  0  0  0  0  0  0  0  0  0  0  0
    3.5672   -6.6479    0.0000 O   0  0  0  0  0  0  0  0  0  0  0  0
    0.7026   -4.1617    0.0000 O   0  0  0  0  0  0  0  0  0  0  0  0
    5.7290   -7.8910    0.0000 O   0  0  0  0  0  0  0  0  0  0  0  0
    5.0265   -6.6479    0.0000 O   0  0  0  0  0  0  0  0  0  0  0  0
    1.4052   -8.7557    0.0000 O   0  0  0  0  0  0  0  0  0  0  0  0
    2.1619   -7.5127    0.0000 N   0  0  0  0  0  0  0  0  0  0  0  0
    0.7026   -7.5127    0.0000 N   0  0  0  0  0  0  0  0  0  0  0  0
    2.8645   -2.9186    0.0000 N   0  0  0  0  0  0  0  0  0  0  0  0
    2.1619   -1.6755    0.0000 N   0  0  0  0  0  0  0  0  0  0  0  0
    3.5672   -7.5127    0.0000 C   0  0  0  0  0  0  0  0  0  0  0  0
    2.8645   -7.8910    0.0000 C   0  0  0  0  0  0  0  0  0  0  0  0
    4.3238   -7.8910    0.0000 C   0  0  0  0  0  0  0  0  0  0  0  0
    3.5672   -9.1341    0.0000 C   0  0  0  0  0  0  0  0  0  0  0  0
    2.8645   -8.7557    0.0000 C   0  0  0  0  0  0  0  0  0  0  0  0
    4.3238   -8.7557    0.0000 C   0  0  0  0  0  0  0  0  0  0  0  0
    3.5672   -9.9989    0.0000 C   0  0  0  0  0  0  0  0  0  0  0  0
    0.7026   -6.6479    0.0000 C   0  0  0  0  0  0  0  0  0  0  0  0
    1.4052   -6.2155    0.0000 C   0  0  0  0  0  0  0  0  0  0  0  0
    1.4052   -5.4048    0.0000 C   0  0  0  0  0  0  0  0  0  0  0  0
    0.7026   -4.9724    0.0000 C   0  0  0  0  0  0  0  0  0  0  0  0
    5.0265   -7.5127    0.0000 C   0  0  0  0  0  0  0  0  0  0  0  0
    1.4052   -7.8910    0.0000 C   0  0  0  0  0  0  0  0  0  0  0  0
    0.0000   -6.2155    0.0000 C   0  0  0  0  0  0  0  0  0  0  0  0
    0.0000   -5.4048    0.0000 C   0  0  0  0  0  0  0  0  0  0  0  0
    1.4052   -3.7293    0.0000 C   0  0  0  0  0  0  0  0  0  0  0  0
    2.7564   -9.9989    0.0000 C   0  0  0  0  0  0  0  0  0  0  0  0
    3.5672  -10.8096    0.0000 C   0  0  0  0  0  0  0  0  0  0  0  0
    4.4319   -9.9989    0.0000 C   0  0  0  0  0  0  0  0  0  0  0  0
    1.4052   -2.9186    0.0000 C   0  0  0  0  0  0  0  0  0  0  0  0
    2.1619   -2.5403    0.0000 C   0  0  0  0  0  0  0  0  0  0  0  0
    2.1079   -4.1617    0.0000 C   0  0  0  0  0  0  0  0  0  0  0  0
    2.8645   -6.2695    0.0000 C   0  0  0  0  0  0  0  0  0  0  0  0
    2.8645   -3.7833    0.0000 C   0  0  0  0  0  0  0  0  0  0  0  0
    1.4593   -1.2431    0.0000 C   0  0  0  0  0  0  0  0  0  0  0  0
    5.7290   -8.7557    0.0000 C   0  0  0  0  0  0  0  0  0  0  0  0
    0.7567   -1.6755    0.0000 C   0  0  0  0  0  0  0  0  0  0  0  0
    1.4593   -0.4324    0.0000 C   0  0  0  0  0  0  0  0  0  0  0  0
    0.0541   -1.2431    0.0000 C   0  0  0  0  0  0  0  0  0  0  0  0
    0.7567    0.0000    0.0000 C   0  0  0  0  0  0  0  0  0  0  0  0
    0.0541   -0.3783    0.0000 C   0  0  0  0  0  0  0  0  0  0  0  0
  1 20  1  0  0  0  0
  2 21  1  0  0  0  0
  3 12  1  0  0  0  0
  3 34  1  0  0  0  0
  4 22  1  0  0  0  0
  4 27  1  0  0  0  0
  5 23  1  0  0  0  0
  5 37  1  0  0  0  0
  6 23  2  0  0  0  0
  7 24  2  0  0  0  0
  8 13  1  0  0  0  0
  8 24  1  0  0  0  0
  9 19  1  0  0  0  0
  9 24  1  0  0  0  0
 10 32  1  0  0  0  0
 10 35  2  0  0  0  0
 11 32  1  0  0  0  0
 11 36  1  0  0  0  0
 12 13  1  0  0  0  0
 12 14  2  0  0  0  0
 13 16  2  0  0  0  0
 14 17  1  0  0  0  0
 14 23  1  0  0  0  0
 15 16  1  0  0  0  0
 15 17  2  0  0  0  0
 15 18  1  0  0  0  0
 18 28  1  0  0  0  0
 18 29  1  0  0  0  0
 18 30  1  0  0  0  0
 19 20  1  0  0  0  0
 19 25  2  0  0  0  0
 20 21  2  0  0  0  0
 21 22  1  0  0  0  0
 22 26  2  0  0  0  0
 25 26  1  0  0  0  0
 27 31  1  0  0  0  0
 27 33  2  0  0  0  0
 31 32  2  0  0  0  0
 33 35  1  0  0  0  0
 36 38  2  0  0  0  0
 36 39  1  0  0  0  0
 38 40  1  0  0  0  0
 39 41  2  0  0  0  0
 40 42  2  0  0  0  0
 41 42  1  0  0  0  0
M  END
> <PUBCHEM_COMPOUND_ID_TYPE>
0

> <PUBCHEM_TOTAL_CHARGE>
0

> <PUBCHEM_SUBSTANCE_ID>
310929400

> <PUBCHEM_SUBSTANCE_VERSION>
1

> <PUBCHEM_EXT_DATASOURCE_NAME>
4488

> <PUBCHEM_EXT_DATASOURCE_REGID>
SCHEMBL16106573

> <PUBCHEM_SUBSTANCE_COMMENT>
InChI=1S/C31H30F2N4O5/c1-31(2,3)18-15-21(29(38)41-5)28(40-4)23(16-18)37-30(39)36-22-11-12-24(27(33)26(22)32)42-20-13-14-34-25(17-20)35-19-9-7-6-8-10-19/h6-17H,1-5H3,(H,34,35)(H2,36,37,39)
InChIKey=KSPJYWDCVNSGKZ-UHFFFAOYSA-N

> <PUBCHEM_SUBSTANCE_SYNONYM>
SCHEMBL16106573

> <PUBCHEM_XREF_EXT_ID>
SCHEMBL16106573

> <PUBCHEM_EXT_DATASOURCE_URL>
https://www.surechembl.org/

> <PUBCHEM_EXT_SUBSTANCE_URL>
https://www.surechembl.org/chemical/SCHEMBL16106573

> <PUBCHEM_CID_ASSOCIATIONS>
117598764  1

> <PUBCHEM_COORDINATE_TYPE>
1
3

$$$$
