310932662
  -OEChem-07211613022D

 26 30  0     0  0  0  0  0  0999 V2000
    2.8581   -0.3739    0.0000 O   0  0  0  0  0  0  0  0  0  0  0  0
    2.1636   -1.6294    0.0000 N   0  0  0  0  0  0  0  0  0  0  0  0
    4.3540   -1.3890    0.0000 N   0  0  0  0  0  0  0  0  0  0  0  0
    2.1636   -2.4574    0.0000 N   0  0  0  0  0  0  0  0  0  0  0  0
    3.6061   -2.4574    0.0000 C   0  0  0  0  0  0  0  0  0  0  0  0
    3.6061   -1.6294    0.0000 C   0  0  0  0  0  0  0  0  0  0  0  0
    4.3540   -2.6978    0.0000 C   0  0  0  0  0  0  0  0  0  0  0  0
    2.8581   -2.8848    0.0000 C   0  0  0  0  0  0  0  0  0  0  0  0
    2.8581   -1.2020    0.0000 C   0  0  0  0  0  0  0  0  0  0  0  0
    4.8615   -2.0568    0.0000 C   0  0  0  0  0  0  0  0  0  0  0  0
    2.8581   -3.7129    0.0000 C   0  0  0  0  0  0  0  0  0  0  0  0
    1.4424   -1.2287    0.0000 C   0  0  0  0  0  0  0  0  0  0  0  0
    4.7279   -3.4458    0.0000 C   0  0  0  0  0  0  0  0  0  0  0  0
    5.6628   -2.1369    0.0000 C   0  0  0  0  0  0  0  0  0  0  0  0
    3.5526   -4.1403    0.0000 C   0  0  0  0  0  0  0  0  0  0  0  0
    2.1369   -4.1136    0.0000 C   0  0  0  0  0  0  0  0  0  0  0  0
    5.5293   -3.5526    0.0000 C   0  0  0  0  0  0  0  0  0  0  0  0
    5.9834   -2.8848    0.0000 C   0  0  0  0  0  0  0  0  0  0  0  0
    0.7212   -1.6561    0.0000 C   0  0  0  0  0  0  0  0  0  0  0  0
    1.4424   -0.4007    0.0000 C   0  0  0  0  0  0  0  0  0  0  0  0
    3.5526   -4.9416    0.0000 C   0  0  0  0  0  0  0  0  0  0  0  0
    2.1369   -4.9149    0.0000 C   0  0  0  0  0  0  0  0  0  0  0  0
    0.0267   -1.2554    0.0000 C   0  0  0  0  0  0  0  0  0  0  0  0
    0.7212    0.0000    0.0000 C   0  0  0  0  0  0  0  0  0  0  0  0
    2.8314   -5.3423    0.0000 C   0  0  0  0  0  0  0  0  0  0  0  0
    0.0000   -0.4274    0.0000 C   0  0  0  0  0  0  0  0  0  0  0  0
  1  9  2  0  0  0  0
  2  4  1  0  0  0  0
  2  9  1  0  0  0  0
  2 12  1  0  0  0  0
  3  6  1  0  0  0  0
  3 10  1  0  0  0  0
  4  8  2  0  0  0  0
  5  6  2  0  0  0  0
  5  7  1  0  0  0  0
  5  8  1  0  0  0  0
  6  9  1  0  0  0  0
  7 10  2  0  0  0  0
  7 13  1  0  0  0  0
  8 11  1  0  0  0  0
 10 14  1  0  0  0  0
 11 15  2  0  0  0  0
 11 16  1  0  0  0  0
 12 19  2  0  0  0  0
 12 20  1  0  0  0  0
 13 17  2  0  0  0  0
 14 18  2  0  0  0  0
 15 21  1  0  0  0  0
 16 22  2  0  0  0  0
 17 18  1  0  0  0  0
 19 23  1  0  0  0  0
 20 24  2  0  0  0  0
 21 25  2  0  0  0  0
 22 25  1  0  0  0  0
 23 26  2  0  0  0  0
 24 26  1  0  0  0  0
M  END
> <PUBCHEM_COMPOUND_ID_TYPE>
0

> <PUBCHEM_TOTAL_CHARGE>
0

> <PUBCHEM_SUBSTANCE_ID>
310932662

> <PUBCHEM_SUBSTANCE_VERSION>
1

> <PUBCHEM_EXT_DATASOURCE_NAME>
4488

> <PUBCHEM_EXT_DATASOURCE_REGID>
SCHEMBL16110041

> <PUBCHEM_SUBSTANCE_COMMENT>
InChI=1S/C22H15N3O/c26-22-21-19(17-13-7-8-14-18(17)23-21)20(15-9-3-1-4-10-15)24-25(22)16-11-5-2-6-12-16/h1-14,23H
InChIKey=BRKMDDFVZCHOES-UHFFFAOYSA-N

> <PUBCHEM_SUBSTANCE_SYNONYM>
SCHEMBL16110041

> <PUBCHEM_XREF_EXT_ID>
SCHEMBL16110041

> <PUBCHEM_EXT_DATASOURCE_URL>
https://www.surechembl.org/

> <PUBCHEM_EXT_SUBSTANCE_URL>
https://www.surechembl.org/chemical/SCHEMBL16110041

> <PUBCHEM_CID_ASSOCIATIONS>
117601177  1

> <PUBCHEM_COORDINATE_TYPE>
1
3

$$$$
