310940159
  -OEChem-07211613022D

 33 37  0     0  0  0  0  0  0999 V2000
   -0.7778   -4.6043    0.0000 Cl  0  0  0  0  0  0  0  0  0  0  0  0
   -2.8698   -0.0089    0.0000 O   0  0  0  0  0  0  0  0  0  0  0  0
    1.8864    4.3718    0.0000 O   0  0  0  0  0  0  0  0  0  0  0  0
   -0.0805   -0.1520    0.0000 N   0  0  0  0  0  0  0  0  0  0  0  0
   -0.4202   -0.9208    0.0000 N   0  0  0  0  0  0  0  0  0  0  0  0
   -1.8149   -1.4394    0.0000 N   0  0  0  0  0  0  0  0  0  0  0  0
    1.3678    2.4228    0.0000 N   0  0  0  0  0  0  0  0  0  0  0  0
   -2.1367    1.2427    0.0000 N   0  0  0  0  0  0  0  0  0  0  0  0
    2.8698   -0.2771    0.0000 N   0  0  0  0  0  0  0  0  0  0  0  0
    0.6884    0.0268    0.0000 C   0  0  0  0  0  0  0  0  0  0  0  0
   -0.7242    0.4023    0.0000 C   0  0  0  0  0  0  0  0  0  0  0  0
   -1.4394   -0.0089    0.0000 C   0  0  0  0  0  0  0  0  0  0  0  0
   -1.2427   -0.8136    0.0000 C   0  0  0  0  0  0  0  0  0  0  0  0
   -2.1367    0.4202    0.0000 C   0  0  0  0  0  0  0  0  0  0  0  0
    0.1520    0.6169    0.0000 C   0  0  0  0  0  0  0  0  0  0  0  0
    1.5288    0.2593    0.0000 C   0  0  0  0  0  0  0  0  0  0  0  0
   -0.7063    1.2427    0.0000 C   0  0  0  0  0  0  0  0  0  0  0  0
    1.2606   -0.5990    0.0000 C   0  0  0  0  0  0  0  0  0  0  0  0
    1.1533    1.6182    0.0000 C   0  0  0  0  0  0  0  0  0  0  0  0
    0.3665    1.4036    0.0000 C   0  0  0  0  0  0  0  0  0  0  0  0
    1.7255    1.0460    0.0000 C   0  0  0  0  0  0  0  0  0  0  0  0
   -1.4215    1.6539    0.0000 C   0  0  0  0  0  0  0  0  0  0  0  0
   -1.5467   -2.2082    0.0000 C   0  0  0  0  0  0  0  0  0  0  0  0
    2.0831    2.8698    0.0000 C   0  0  0  0  0  0  0  0  0  0  0  0
    0.9566    3.1380    0.0000 C   0  0  0  0  0  0  0  0  0  0  0  0
    1.6539    3.5671    0.0000 C   0  0  0  0  0  0  0  0  0  0  0  0
    2.0831   -0.4202    0.0000 C   0  0  0  0  0  0  0  0  0  0  0  0
   -2.0831   -2.8340    0.0000 C   0  0  0  0  0  0  0  0  0  0  0  0
   -0.7420   -2.4049    0.0000 C   0  0  0  0  0  0  0  0  0  0  0  0
   -1.8327   -3.6208    0.0000 C   0  0  0  0  0  0  0  0  0  0  0  0
   -0.4917   -3.1917    0.0000 C   0  0  0  0  0  0  0  0  0  0  0  0
   -1.0460   -3.7996    0.0000 C   0  0  0  0  0  0  0  0  0  0  0  0
    2.7089    4.6043    0.0000 C   0  0  0  0  0  0  0  0  0  0  0  0
  1 32  1  0  0  0  0
  2 14  2  0  0  0  0
  3 26  1  0  0  0  0
  3 33  1  0  0  0  0
  4  5  1  0  0  0  0
  4 10  1  0  0  0  0
  4 11  1  0  0  0  0
  5 13  2  0  0  0  0
  6 13  1  0  0  0  0
  6 23  1  0  0  0  0
 19  7  1  1  0  0  0
  7 24  1  0  0  0  0
  7 25  1  0  0  0  0
  8 14  1  0  0  0  0
  8 22  1  0  0  0  0
  9 27  3  0  0  0  0
 10 15  1  0  0  0  0
 10 16  1  0  0  0  0
 10 18  1  6  0  0  0
 11 12  2  0  0  0  0
 11 17  1  0  0  0  0
 12 13  1  0  0  0  0
 12 14  1  0  0  0  0
 15 20  1  0  0  0  0
 16 21  1  0  0  0  0
 17 22  2  0  0  0  0
 18 27  1  0  0  0  0
 19 20  1  0  0  0  0
 19 21  1  0  0  0  0
 23 28  2  0  0  0  0
 23 29  1  0  0  0  0
 24 26  1  0  0  0  0
 25 26  1  0  0  0  0
 28 30  1  0  0  0  0
 29 31  2  0  0  0  0
 30 32  2  0  0  0  0
 31 32  1  0  0  0  0
M  END
> <PUBCHEM_COMPOUND_ID_TYPE>
0

> <PUBCHEM_TOTAL_CHARGE>
0

> <PUBCHEM_SUBSTANCE_ID>
310940159

> <PUBCHEM_SUBSTANCE_VERSION>
1

> <PUBCHEM_EXT_DATASOURCE_NAME>
4488

> <PUBCHEM_EXT_DATASOURCE_REGID>
SCHEMBL16118092

> <PUBCHEM_SUBSTANCE_COMMENT>
InChI=1S/C24H27ClN6O2/c1-33-19-14-30(15-19)18-6-9-24(10-7-18,11-12-26)31-20-8-13-27-23(32)21(20)22(29-31)28-17-4-2-16(25)3-5-17/h2-5,8,13,18-19H,6-7,9-11,14-15H2,1H3,(H,27,32)(H,28,29)/t18-,24+
InChIKey=MECRHGTYHNILSM-OWWJJEGGSA-N

> <PUBCHEM_SUBSTANCE_SYNONYM>
SCHEMBL16118092

> <PUBCHEM_XREF_EXT_ID>
SCHEMBL16118092

> <PUBCHEM_EXT_DATASOURCE_URL>
https://www.surechembl.org/

> <PUBCHEM_EXT_SUBSTANCE_URL>
https://www.surechembl.org/chemical/SCHEMBL16118092

> <PUBCHEM_CID_ASSOCIATIONS>
86275047  1

> <PUBCHEM_COORDINATE_TYPE>
1
3

> <PUBCHEM_BONDANNOTATIONS>
10  18  6
19  7  5

$$$$
