310943146
  -OEChem-07211613022D

 35 39  0     0  0  0  0  0  0999 V2000
   -3.2234    0.0000    0.0000 O   0  0  0  0  0  0  0  0  0  0  0  0
    1.0744    0.0000    0.0000 O   0  0  0  0  0  0  0  0  0  0  0  0
   -4.6560    2.4705    0.0000 O   0  0  0  0  0  0  0  0  0  0  0  0
    3.9397   -0.8187    0.0000 N   0  0  0  0  0  0  0  0  0  0  0  0
   -3.2234    1.6519    0.0000 N   0  0  0  0  0  0  0  0  0  0  0  0
    1.7907    1.2279    0.0000 N   0  0  0  0  0  0  0  0  0  0  0  0
   -1.7907    0.0000    0.0000 N   0  0  0  0  0  0  0  0  0  0  0  0
    0.3581    2.8798    0.0000 N   0  0  0  0  0  0  0  0  0  0  0  0
    4.6560   -2.8798    0.0000 N   0  0  0  0  0  0  0  0  0  0  0  0
    3.2088   -2.0612    0.0000 C   0  0  0  0  0  0  0  0  0  0  0  0
    3.2379   -1.2279    0.0000 C   0  0  0  0  0  0  0  0  0  0  0  0
    2.8141   -2.7482    0.0000 C   0  0  0  0  0  0  0  0  0  0  0  0
    2.4194   -2.0904    0.0000 C   0  0  0  0  0  0  0  0  0  0  0  0
    3.9250   -2.4705    0.0000 C   0  0  0  0  0  0  0  0  0  0  0  0
    2.5071   -0.8187    0.0000 C   0  0  0  0  0  0  0  0  0  0  0  0
   -1.0744    1.2426    0.0000 C   0  0  0  0  0  0  0  0  0  0  0  0
   -0.3728    1.6519    0.0000 C   0  0  0  0  0  0  0  0  0  0  0  0
    2.5217    0.0146    0.0000 C   0  0  0  0  0  0  0  0  0  0  0  0
   -2.5071    1.2426    0.0000 C   0  0  0  0  0  0  0  0  0  0  0  0
   -1.7907    1.6519    0.0000 C   0  0  0  0  0  0  0  0  0  0  0  0
   -2.5217    0.4093    0.0000 C   0  0  0  0  0  0  0  0  0  0  0  0
    1.8054    0.4240    0.0000 C   0  0  0  0  0  0  0  0  0  0  0  0
   -0.3581    2.4705    0.0000 C   0  0  0  0  0  0  0  0  0  0  0  0
    1.0598    1.6519    0.0000 C   0  0  0  0  0  0  0  0  0  0  0  0
    0.3728    1.2426    0.0000 C   0  0  0  0  0  0  0  0  0  0  0  0
   -1.0744    0.4093    0.0000 C   0  0  0  0  0  0  0  0  0  0  0  0
    3.2088    0.4093    0.0000 C   0  0  0  0  0  0  0  0  0  0  0  0
    3.9397    0.0000    0.0000 C   0  0  0  0  0  0  0  0  0  0  0  0
    1.0744    2.4559    0.0000 C   0  0  0  0  0  0  0  0  0  0  0  0
   -3.2379    2.4705    0.0000 C   0  0  0  0  0  0  0  0  0  0  0  0
   -3.9397    1.2426    0.0000 C   0  0  0  0  0  0  0  0  0  0  0  0
   -1.0891    2.8652    0.0000 C   0  0  0  0  0  0  0  0  0  0  0  0
   -3.9543    2.8798    0.0000 C   0  0  0  0  0  0  0  0  0  0  0  0
   -4.6560    1.6519    0.0000 C   0  0  0  0  0  0  0  0  0  0  0  0
   -3.9543    0.4093    0.0000 C   0  0  0  0  0  0  0  0  0  0  0  0
  1 21  1  0  0  0  0
  1 35  1  0  0  0  0
  2 22  2  0  0  0  0
  3 33  1  0  0  0  0
  3 34  1  0  0  0  0
  4 11  2  0  0  0  0
  4 28  1  0  0  0  0
  5 19  1  0  0  0  0
  5 30  1  0  0  0  0
  5 31  1  0  0  0  0
  6 22  1  0  0  0  0
  6 24  1  0  0  0  0
  7 21  2  0  0  0  0
  7 26  1  0  0  0  0
  8 23  1  0  0  0  0
  8 29  2  0  0  0  0
  9 14  3  0  0  0  0
 10 11  1  0  0  0  0
 10 12  1  0  0  0  0
 10 13  1  0  0  0  0
 10 14  1  0  0  0  0
 11 15  1  0  0  0  0
 12 13  1  0  0  0  0
 15 18  2  0  0  0  0
 16 17  1  0  0  0  0
 16 20  1  0  0  0  0
 16 26  2  0  0  0  0
 17 23  2  0  0  0  0
 17 25  1  0  0  0  0
 18 22  1  0  0  0  0
 18 27  1  0  0  0  0
 19 20  2  0  0  0  0
 19 21  1  0  0  0  0
 23 32  1  0  0  0  0
 24 25  2  0  0  0  0
 24 29  1  0  0  0  0
 27 28  2  0  0  0  0
 30 33  1  0  0  0  0
 31 34  1  0  0  0  0
M  END
> <PUBCHEM_COMPOUND_ID_TYPE>
0

> <PUBCHEM_TOTAL_CHARGE>
0

> <PUBCHEM_SUBSTANCE_ID>
310943146

> <PUBCHEM_SUBSTANCE_VERSION>
1

> <PUBCHEM_EXT_DATASOURCE_NAME>
4488

> <PUBCHEM_EXT_DATASOURCE_REGID>
SCHEMBL16121206

> <PUBCHEM_SUBSTANCE_COMMENT>
InChI=1S/C26H26N6O3/c1-17-21(19-11-22(25(34-2)30-14-19)32-7-9-35-10-8-32)13-20(15-29-17)31-24(33)18-3-6-28-23(12-18)26(16-27)4-5-26/h3,6,11-15H,4-5,7-10H2,1-2H3,(H,31,33)
InChIKey=FZIOFRSOILSRKO-UHFFFAOYSA-N

> <PUBCHEM_SUBSTANCE_SYNONYM>
SCHEMBL16121206

> <PUBCHEM_XREF_EXT_ID>
SCHEMBL16121206

> <PUBCHEM_EXT_DATASOURCE_URL>
https://www.surechembl.org/

> <PUBCHEM_EXT_SUBSTANCE_URL>
https://www.surechembl.org/chemical/SCHEMBL16121206

> <PUBCHEM_CID_ASSOCIATIONS>
117609576  1

> <PUBCHEM_COORDINATE_TYPE>
1
3

$$$$
