310947395
  -OEChem-07211613022D

 17 16  0     0  0  0  0  0  0999 V2000
   -1.2896    2.2853    0.0000 O   0  0  0  0  0  0  0  0  0  0  0  0
    0.1393    2.2853    0.0000 O   0  0  0  0  0  0  0  0  0  0  0  0
   -4.8620    1.8729    0.0000 O   0  0  0  0  0  0  0  0  0  0  0  0
   -6.2909    1.8729    0.0000 O   0  0  0  0  0  0  0  0  0  0  0  0
    3.7116    1.8729    0.0000 O   0  0  0  0  0  0  0  0  0  0  0  0
   -2.0041    1.8729    0.0000 C   0  0  0  0  0  0  0  0  0  0  0  0
   -0.5752    1.8729    0.0000 C   0  0  0  0  0  0  0  0  0  0  0  0
   -2.7187    2.2853    0.0000 C   0  0  0  0  0  0  0  0  0  0  0  0
   -3.4330    1.8729    0.0000 C   0  0  0  0  0  0  0  0  0  0  0  0
    0.8537    1.8729    0.0000 C   0  0  0  0  0  0  0  0  0  0  0  0
   -4.1476    2.2853    0.0000 C   0  0  0  0  0  0  0  0  0  0  0  0
    1.5683    2.2853    0.0000 C   0  0  0  0  0  0  0  0  0  0  0  0
    2.2827    1.8729    0.0000 C   0  0  0  0  0  0  0  0  0  0  0  0
   -5.5765    2.2853    0.0000 C   0  0  0  0  0  0  0  0  0  0  0  0
    2.9972    2.2853    0.0000 C   0  0  0  0  0  0  0  0  0  0  0  0
   -7.0054    2.2853    0.0000 C   0  0  0  0  0  0  0  0  0  0  0  0
    4.4261    2.2853    0.0000 C   0  0  0  0  0  0  0  0  0  0  0  0
  1  6  1  0  0  0  0
  1  7  1  0  0  0  0
  2  7  1  0  0  0  0
  2 10  1  0  0  0  0
  3 11  1  0  0  0  0
  3 14  1  0  0  0  0
  4 14  1  0  0  0  0
  4 16  1  0  0  0  0
  5 15  1  0  0  0  0
  5 17  1  0  0  0  0
  6  8  1  0  0  0  0
  8  9  1  0  0  0  0
  9 11  1  0  0  0  0
 10 12  1  0  0  0  0
 12 13  1  0  0  0  0
 13 15  1  0  0  0  0
M  END
> <PUBCHEM_COMPOUND_ID_TYPE>
0

> <PUBCHEM_TOTAL_CHARGE>
0

> <PUBCHEM_SUBSTANCE_ID>
310947395

> <PUBCHEM_SUBSTANCE_VERSION>
1

> <PUBCHEM_EXT_DATASOURCE_NAME>
4488

> <PUBCHEM_EXT_DATASOURCE_REGID>
SCHEMBL16125551

> <PUBCHEM_SUBSTANCE_COMMENT>
InChI=1S/C12H26O5/c1-13-7-3-4-9-16-12-17-10-6-5-8-15-11-14-2/h3-12H2,1-2H3
InChIKey=XYKPCHRVDQXYNL-UHFFFAOYSA-N

> <PUBCHEM_SUBSTANCE_SYNONYM>
SCHEMBL16125551

> <PUBCHEM_XREF_EXT_ID>
SCHEMBL16125551

> <PUBCHEM_EXT_DATASOURCE_URL>
https://www.surechembl.org/

> <PUBCHEM_EXT_SUBSTANCE_URL>
https://www.surechembl.org/chemical/SCHEMBL16125551

> <PUBCHEM_CID_ASSOCIATIONS>
117613137  1

> <PUBCHEM_COORDINATE_TYPE>
1
3

$$$$
