310937815
  -OEChem-07211613022D

 40 42  0     1  0  0  0  0  0999 V2000
    1.6750    0.4041    0.0000 O   0  0  0  0  0  0  0  0  0  0  0  0
    0.7659    1.0646    0.0000 O   0  0  0  0  0  0  0  0  0  0  0  0
   10.2487    0.4041    0.0000 O   0  0  0  0  0  0  0  0  0  0  0  0
    9.5342    1.6416    0.0000 O   0  0  0  0  0  0  0  0  0  0  0  0
    2.3895    1.6416    0.0000 N   0  0  0  0  0  0  0  0  0  0  0  0
    0.3243    2.4236    0.0000 N   0  0  0  0  0  0  0  0  0  0  0  0
    3.8184    0.8166    0.0000 N   0  0  0  0  0  0  0  0  0  0  0  0
   -0.9872    3.5412    0.0000 N   0  0  0  0  0  0  0  0  0  0  0  0
   -1.8804    2.5492    0.0000 N   0  0  0  0  0  0  0  0  0  0  0  0
   -1.7408    3.8768    0.0000 N   0  0  0  0  0  0  0  0  0  0  0  0
   -2.2929    3.2637    0.0000 N   0  0  0  0  0  0  0  0  0  0  0  0
    5.9618    0.4041    0.0000 N   0  0  0  0  0  0  0  0  0  0  0  0
    8.8197    0.4041    0.0000 N   0  0  0  0  0  0  0  0  0  0  0  0
    3.0569    2.1265    0.0000 C   0  0  0  0  0  0  0  0  0  0  0  0
    1.7220    2.1265    0.0000 C   0  0  3  0  0  0  0  0  0  0  0  0
    2.8020    2.9112    0.0000 C   0  0  0  0  0  0  0  0  0  0  0  0
    1.9770    2.9112    0.0000 C   0  0  0  0  0  0  0  0  0  0  0  0
    2.3895    0.8166    0.0000 C   0  0  0  0  0  0  0  0  0  0  0  0
    0.9374    1.8716    0.0000 C   0  0  0  0  0  0  0  0  0  0  0  0
    3.8639    1.9550    0.0000 C   0  0  0  0  0  0  0  0  0  0  0  0
    3.3540    3.5243    0.0000 C   0  0  0  0  0  0  0  0  0  0  0  0
    4.4159    2.5681    0.0000 C   0  0  0  0  0  0  0  0  0  0  0  0
    3.1039    0.4041    0.0000 C   0  0  0  0  0  0  0  0  0  0  0  0
    4.1610    3.3527    0.0000 C   0  0  0  0  0  0  0  0  0  0  0  0
   -0.4603    2.1687    0.0000 C   0  0  0  0  0  0  0  0  0  0  0  0
   -1.0734    2.7207    0.0000 C   0  0  0  0  0  0  0  0  0  0  0  0
    4.5329    0.4041    0.0000 C   0  0  0  0  0  0  0  0  0  0  0  0
    5.2474    0.8166    0.0000 C   0  0  3  0  0  0  0  0  0  0  0  0
    5.2474    1.6416    0.0000 C   0  0  3  0  0  0  0  0  0  0  0  0
    5.9618    2.0541    0.0000 C   0  0  0  0  0  0  0  0  0  0  0  0
    6.6763    0.8166    0.0000 C   0  0  0  0  0  0  0  0  0  0  0  0
   10.2487   -0.4209    0.0000 C   0  0  0  0  0  0  0  0  0  0  0  0
    4.5329    2.0541    0.0000 C   0  0  0  0  0  0  0  0  0  0  0  0
    9.5342    0.8166    0.0000 C   0  0  0  0  0  0  0  0  0  0  0  0
    7.3908    0.4041    0.0000 C   0  0  0  0  0  0  0  0  0  0  0  0
    8.1052    0.8166    0.0000 C   0  0  0  0  0  0  0  0  0  0  0  0
   10.2487   -1.2459    0.0000 C   0  0  0  0  0  0  0  0  0  0  0  0
    9.4237   -0.4209    0.0000 C   0  0  0  0  0  0  0  0  0  0  0  0
   11.0737   -0.4209    0.0000 C   0  0  0  0  0  0  0  0  0  0  0  0
    6.6763    1.6416    0.0000 C   0  0  0  0  0  0  0  0  0  0  0  0
  1 18  2  0  0  0  0
  2 19  2  0  0  0  0
  3 32  1  0  0  0  0
  3 34  1  0  0  0  0
  4 34  2  0  0  0  0
  5 14  1  0  0  0  0
  5 15  1  0  0  0  0
  5 18  1  0  0  0  0
  6 19  1  0  0  0  0
  6 25  1  0  0  0  0
  7 23  1  0  0  0  0
  7 27  1  0  0  0  0
  8 10  2  0  0  0  0
  8 26  1  0  0  0  0
  9 11  1  0  0  0  0
  9 26  2  0  0  0  0
 10 11  1  0  0  0  0
 28 12  1  1  0  0  0
 12 31  1  0  0  0  0
 13 34  1  0  0  0  0
 13 36  1  0  0  0  0
 14 16  1  0  0  0  0
 14 20  2  0  0  0  0
 15 17  1  0  0  0  0
 15 19  1  6  0  0  0
 16 17  1  0  0  0  0
 16 21  2  0  0  0  0
 18 23  1  0  0  0  0
 20 22  1  0  0  0  0
 21 24  1  0  0  0  0
 22 24  2  0  0  0  0
 25 26  1  0  0  0  0
 27 28  1  0  0  0  0
 28 29  1  0  0  0  0
 29 30  1  0  0  0  0
 29 33  1  1  0  0  0
 30 40  1  0  0  0  0
 31 35  1  0  0  0  0
 32 37  1  0  0  0  0
 32 38  1  0  0  0  0
 32 39  1  0  0  0  0
 35 36  1  0  0  0  0
M  END
> <PUBCHEM_COMPOUND_ID_TYPE>
0

> <PUBCHEM_TOTAL_CHARGE>
0

> <PUBCHEM_SUBSTANCE_ID>
310937815

> <PUBCHEM_SUBSTANCE_VERSION>
1

> <PUBCHEM_EXT_DATASOURCE_NAME>
4488

> <PUBCHEM_EXT_DATASOURCE_REGID>
SCHEMBL16115632

> <PUBCHEM_SUBSTANCE_COMMENT>
InChI=1S/C27H43N9O4/c1-6-18(2)20(29-12-9-13-30-26(39)40-27(3,4)5)15-28-17-24(37)36-21-11-8-7-10-19(21)14-22(36)25(38)31-16-23-32-34-35-33-23/h7-8,10-11,18,20,22,28-29H,6,9,12-17H2,1-5H3,(H,30,39)(H,31,38)(H,32,33,34,35)/t18-,20-,22-/m0/s1
InChIKey=HEFGSGYPHSDMMZ-VCOUNFBDSA-N

> <PUBCHEM_SUBSTANCE_SYNONYM>
SCHEMBL16115632

> <PUBCHEM_XREF_EXT_ID>
SCHEMBL16115632

> <PUBCHEM_EXT_DATASOURCE_URL>
https://www.surechembl.org/

> <PUBCHEM_EXT_SUBSTANCE_URL>
https://www.surechembl.org/chemical/SCHEMBL16115632

> <PUBCHEM_CID_ASSOCIATIONS>
117605461  1

> <PUBCHEM_COORDINATE_TYPE>
1
3

> <PUBCHEM_BONDANNOTATIONS>
28  12  5
15  19  6
29  33  5

$$$$
