310935176
  -OEChem-07211613022D

 39 44  0     0  0  0  0  0  0999 V2000
    4.5696    0.0000    0.0000 F   0  0  0  0  0  0  0  0  0  0  0  0
    0.7846    0.6674    0.0000 O   0  0  0  0  0  0  0  0  0  0  0  0
   -4.2868    0.4125    0.0000 O   0  0  0  0  0  0  0  0  0  0  0  0
    0.4875   -2.0652    0.0000 O   0  0  0  0  0  0  0  0  0  0  0  0
   -3.5724    1.6500    0.0000 O   0  0  0  0  0  0  0  0  0  0  0  0
   -2.8579    2.8875    0.0000 O   0  0  0  0  0  0  0  0  0  0  0  0
   -5.0013   -0.8250    0.0000 N   0  0  0  0  0  0  0  0  0  0  0  0
    1.8465   -1.6236    0.0000 N   0  0  0  0  0  0  0  0  0  0  0  0
   -5.7158   -0.4125    0.0000 C   0  0  0  0  0  0  0  0  0  0  0  0
   -6.7262    0.1708    0.0000 C   0  0  0  0  0  0  0  0  0  0  0  0
   -6.3845   -0.4034    0.0000 C   0  0  0  0  0  0  0  0  0  0  0  0
   -6.5127   -0.6260    0.0000 C   0  0  0  0  0  0  0  0  0  0  0  0
   -5.9293    0.3844    0.0000 C   0  0  0  0  0  0  0  0  0  0  0  0
    0.0000   -0.4125    0.0000 C   0  0  0  0  0  0  0  0  0  0  0  0
    0.7846   -0.6674    0.0000 C   0  0  0  0  0  0  0  0  0  0  0  0
    0.0000    0.4125    0.0000 C   0  0  0  0  0  0  0  0  0  0  0  0
    1.2696    0.0000    0.0000 C   0  0  0  0  0  0  0  0  0  0  0  0
   -1.4290   -0.4125    0.0000 C   0  0  0  0  0  0  0  0  0  0  0  0
   -0.7145   -0.8250    0.0000 C   0  0  0  0  0  0  0  0  0  0  0  0
   -1.4290    0.4125    0.0000 C   0  0  0  0  0  0  0  0  0  0  0  0
   -4.2868   -0.4125    0.0000 C   0  0  0  0  0  0  0  0  0  0  0  0
   -0.7145    0.8250    0.0000 C   0  0  0  0  0  0  0  0  0  0  0  0
   -2.1434   -0.8250    0.0000 C   0  0  0  0  0  0  0  0  0  0  0  0
    2.0946    0.0000    0.0000 C   0  0  0  0  0  0  0  0  0  0  0  0
    1.0396   -1.4521    0.0000 C   0  0  0  0  0  0  0  0  0  0  0  0
   -3.5724   -0.8250    0.0000 C   0  0  0  0  0  0  0  0  0  0  0  0
   -2.8579   -0.4125    0.0000 C   0  0  0  0  0  0  0  0  0  0  0  0
   -2.1434   -1.6500    0.0000 C   0  0  0  0  0  0  0  0  0  0  0  0
   -2.1434    0.8250    0.0000 C   0  0  0  0  0  0  0  0  0  0  0  0
   -3.5724   -1.6500    0.0000 C   0  0  0  0  0  0  0  0  0  0  0  0
    2.5071   -0.7145    0.0000 C   0  0  0  0  0  0  0  0  0  0  0  0
    2.5071    0.7145    0.0000 C   0  0  0  0  0  0  0  0  0  0  0  0
   -2.8579   -2.0625    0.0000 C   0  0  0  0  0  0  0  0  0  0  0  0
    3.3321   -0.7145    0.0000 C   0  0  0  0  0  0  0  0  0  0  0  0
    3.3321    0.7145    0.0000 C   0  0  0  0  0  0  0  0  0  0  0  0
    3.7446    0.0000    0.0000 C   0  0  0  0  0  0  0  0  0  0  0  0
   -2.1434    1.6500    0.0000 C   0  0  0  0  0  0  0  0  0  0  0  0
    2.1015   -2.4082    0.0000 C   0  0  0  0  0  0  0  0  0  0  0  0
   -2.8579    2.0625    0.0000 C   0  0  0  0  0  0  0  0  0  0  0  0
  1 36  1  0  0  0  0
  2 16  1  0  0  0  0
  2 17  1  0  0  0  0
  3 21  2  0  0  0  0
  4 25  2  0  0  0  0
  5 39  2  0  0  0  0
  6 39  1  0  0  0  0
  7  9  1  0  0  0  0
  7 21  1  0  0  0  0
  8 25  1  0  0  0  0
  8 38  1  0  0  0  0
  9 11  1  0  0  0  0
  9 12  1  0  0  0  0
  9 13  1  0  0  0  0
 10 11  1  0  0  0  0
 10 12  1  0  0  0  0
 10 13  1  0  0  0  0
 14 15  1  0  0  0  0
 14 16  1  0  0  0  0
 14 19  2  0  0  0  0
 15 17  2  0  0  0  0
 15 25  1  0  0  0  0
 16 22  2  0  0  0  0
 17 24  1  0  0  0  0
 18 19  1  0  0  0  0
 18 20  2  0  0  0  0
 18 23  1  0  0  0  0
 20 22  1  0  0  0  0
 20 29  1  0  0  0  0
 21 26  1  0  0  0  0
 23 27  1  0  0  0  0
 23 28  2  0  0  0  0
 24 31  2  0  0  0  0
 24 32  1  0  0  0  0
 26 27  2  0  0  0  0
 26 30  1  0  0  0  0
 28 33  1  0  0  0  0
 29 37  1  0  0  0  0
 30 33  2  0  0  0  0
 31 34  1  0  0  0  0
 32 35  2  0  0  0  0
 34 36  2  0  0  0  0
 35 36  1  0  0  0  0
 37 39  1  0  0  0  0
M  END
> <PUBCHEM_COMPOUND_ID_TYPE>
0

> <PUBCHEM_TOTAL_CHARGE>
0

> <PUBCHEM_SUBSTANCE_ID>
310935176

> <PUBCHEM_SUBSTANCE_VERSION>
1

> <PUBCHEM_EXT_DATASOURCE_NAME>
4488

> <PUBCHEM_EXT_DATASOURCE_REGID>
SCHEMBL16112704

> <PUBCHEM_SUBSTANCE_COMMENT>
InChI=1S/C31H27FN2O5/c1-33-30(38)27-24-13-23(19-3-2-4-21(11-19)29(37)34-31-14-17(15-31)16-31)20(7-10-26(35)36)12-25(24)39-28(27)18-5-8-22(32)9-6-18/h2-6,8-9,11-13,17H,7,10,14-16H2,1H3,(H,33,38)(H,34,37)(H,35,36)
InChIKey=CHVHGCWLAQVYFH-UHFFFAOYSA-N

> <PUBCHEM_SUBSTANCE_SYNONYM>
SCHEMBL16112704

> <PUBCHEM_XREF_EXT_ID>
SCHEMBL16112704

> <PUBCHEM_EXT_DATASOURCE_URL>
https://www.surechembl.org/

> <PUBCHEM_EXT_SUBSTANCE_URL>
https://www.surechembl.org/chemical/SCHEMBL16112704

> <PUBCHEM_CID_ASSOCIATIONS>
117603259  1

> <PUBCHEM_COORDINATE_TYPE>
1
3

$$$$
