310947033
  -OEChem-07211613022D

 40 44  0     0  0  0  0  0  0999 V2000
   -1.8900    6.7794    0.0000 S   0  0  0  0  0  0  0  0  0  0  0  0
   -1.6063    2.0150    0.0000 F   0  0  0  0  0  0  0  0  0  0  0  0
   -2.6869    6.9929    0.0000 O   0  0  0  0  0  0  0  0  0  0  0  0
   -2.4734    6.1960    0.0000 O   0  0  0  0  0  0  0  0  0  0  0  0
   -3.0353    1.1900    0.0000 O   0  0  0  0  0  0  0  0  0  0  0  0
   -4.4642    3.6650    0.0000 O   0  0  0  0  0  0  0  0  0  0  0  0
   -0.1774    3.6650    0.0000 N   0  0  0  0  0  0  0  0  0  0  0  0
    1.2516    3.6650    0.0000 N   0  0  0  0  0  0  0  0  0  0  0  0
   -1.6765    5.9825    0.0000 N   0  0  0  0  0  0  0  0  0  0  0  0
   -1.6063    3.6650    0.0000 N   0  0  0  0  0  0  0  0  0  0  0  0
    1.2516    2.0150    0.0000 N   0  0  0  0  0  0  0  0  0  0  0  0
   -1.6765    4.6476    0.0000 N   0  0  0  0  0  0  0  0  0  0  0  0
   -1.3066    7.3627    0.0000 N   0  0  0  0  0  0  0  0  0  0  0  0
    3.4651    4.7450    0.0000 N   0  0  0  0  0  0  0  0  0  0  0  0
    3.9500    4.0775    0.0000 N   0  0  0  0  0  0  0  0  0  0  0  0
    0.5371    3.2525    0.0000 C   0  0  0  0  0  0  0  0  0  0  0  0
   -0.8919    3.2525    0.0000 C   0  0  0  0  0  0  0  0  0  0  0  0
    0.5371    2.4275    0.0000 C   0  0  0  0  0  0  0  0  0  0  0  0
   -0.1774    4.4900    0.0000 C   0  0  0  0  0  0  0  0  0  0  0  0
   -0.8919    4.9025    0.0000 C   0  0  0  0  0  0  0  0  0  0  0  0
    1.9660    3.2525    0.0000 C   0  0  0  0  0  0  0  0  0  0  0  0
   -0.8919    2.4275    0.0000 C   0  0  0  0  0  0  0  0  0  0  0  0
   -0.1774    2.0150    0.0000 C   0  0  0  0  0  0  0  0  0  0  0  0
   -2.3208    3.2525    0.0000 C   0  0  0  0  0  0  0  0  0  0  0  0
   -0.8919    5.7275    0.0000 C   0  0  0  0  0  0  0  0  0  0  0  0
    2.6805    3.6650    0.0000 C   0  0  0  0  0  0  0  0  0  0  0  0
    1.9660    2.4275    0.0000 C   0  0  0  0  0  0  0  0  0  0  0  0
   -2.3208    2.4275    0.0000 C   0  0  0  0  0  0  0  0  0  0  0  0
   -2.1614    5.3150    0.0000 C   0  0  0  0  0  0  0  0  0  0  0  0
   -3.0353    2.0150    0.0000 C   0  0  0  0  0  0  0  0  0  0  0  0
   -3.0353    3.6650    0.0000 C   0  0  0  0  0  0  0  0  0  0  0  0
   -3.7497    3.2525    0.0000 C   0  0  0  0  0  0  0  0  0  0  0  0
    2.6805    4.4900    0.0000 C   0  0  0  0  0  0  0  0  0  0  0  0
    3.4651    3.4101    0.0000 C   0  0  0  0  0  0  0  0  0  0  0  0
   -3.7497    2.4275    0.0000 C   0  0  0  0  0  0  0  0  0  0  0  0
   -0.5098    7.1492    0.0000 C   0  0  0  0  0  0  0  0  0  0  0  0
   -1.5202    8.1596    0.0000 C   0  0  0  0  0  0  0  0  0  0  0  0
    3.8776    5.4594    0.0000 C   0  0  0  0  0  0  0  0  0  0  0  0
   -3.7497    0.7775    0.0000 C   0  0  0  0  0  0  0  0  0  0  0  0
   -4.4642    4.4900    0.0000 C   0  0  0  0  0  0  0  0  0  0  0  0
  1  3  2  0  0  0  0
  1  4  2  0  0  0  0
  1  9  1  0  0  0  0
  1 13  1  0  0  0  0
  2 28  1  0  0  0  0
  5 30  1  0  0  0  0
  5 39  1  0  0  0  0
  6 32  1  0  0  0  0
  6 40  1  0  0  0  0
  7 16  1  0  0  0  0
  7 17  1  0  0  0  0
  7 19  1  0  0  0  0
  8 16  1  0  0  0  0
  8 21  2  0  0  0  0
  9 25  1  0  0  0  0
  9 29  1  0  0  0  0
 10 17  2  0  0  0  0
 10 24  1  0  0  0  0
 11 18  1  0  0  0  0
 11 27  2  0  0  0  0
 12 20  1  0  0  0  0
 12 29  2  0  0  0  0
 13 36  1  0  0  0  0
 13 37  1  0  0  0  0
 14 15  1  0  0  0  0
 14 33  1  0  0  0  0
 14 38  1  0  0  0  0
 15 34  2  0  0  0  0
 16 18  2  0  0  0  0
 17 22  1  0  0  0  0
 18 23  1  0  0  0  0
 19 20  1  0  0  0  0
 20 25  2  0  0  0  0
 21 26  1  0  0  0  0
 21 27  1  0  0  0  0
 22 23  2  0  0  0  0
 24 28  1  0  0  0  0
 24 31  2  0  0  0  0
 26 33  2  0  0  0  0
 26 34  1  0  0  0  0
 28 30  2  0  0  0  0
 30 35  1  0  0  0  0
 31 32  1  0  0  0  0
 32 35  2  0  0  0  0
M  END
> <PUBCHEM_COMPOUND_ID_TYPE>
0

> <PUBCHEM_TOTAL_CHARGE>
0

> <PUBCHEM_SUBSTANCE_ID>
310947033

> <PUBCHEM_SUBSTANCE_VERSION>
1

> <PUBCHEM_EXT_DATASOURCE_NAME>
4488

> <PUBCHEM_EXT_DATASOURCE_REGID>
SCHEMBL16125186

> <PUBCHEM_SUBSTANCE_COMMENT>
InChI=1S/C25H26FN9O4S/c1-32(2)40(36,37)34-13-17(28-15-34)14-35-23(30-20-8-18(38-4)9-22(39-5)24(20)26)7-6-19-25(35)31-21(11-27-19)16-10-29-33(3)12-16/h6-13,15H,14H2,1-5H3/b30-23+
InChIKey=NQSWUDFBQAGPHH-JJKYIXSRSA-N

> <PUBCHEM_SUBSTANCE_SYNONYM>
SCHEMBL16125186

> <PUBCHEM_XREF_EXT_ID>
SCHEMBL16125186

> <PUBCHEM_EXT_DATASOURCE_URL>
https://www.surechembl.org/

> <PUBCHEM_EXT_SUBSTANCE_URL>
https://www.surechembl.org/chemical/SCHEMBL16125186

> <PUBCHEM_CID_ASSOCIATIONS>
117612884  1

> <PUBCHEM_COORDINATE_TYPE>
1
3

$$$$
