310946053
  -OEChem-07211613022D

 40 42  0     1  0  0  0  0  0999 V2000
    3.5196    2.1929    0.0000 S   0  0  0  0  0  0  0  0  0  0  0  0
    4.6470   -1.4367    0.0000 O   0  0  0  0  0  0  0  0  0  0  0  0
    3.5196    0.5293    0.0000 O   0  0  0  0  0  0  0  0  0  0  0  0
    1.3886   -1.5467    0.0000 O   0  0  0  0  0  0  0  0  0  0  0  0
    3.1071    2.9078    0.0000 O   0  0  0  0  0  0  0  0  0  0  0  0
    3.9320    1.4642    0.0000 O   0  0  0  0  0  0  0  0  0  0  0  0
   -0.7561    0.5293    0.0000 O   0  0  0  0  0  0  0  0  0  0  0  0
   -2.9009   -1.5467    0.0000 O   0  0  0  0  0  0  0  0  0  0  0  0
   -5.0320   -1.1343    0.0000 O   0  0  0  0  0  0  0  0  0  0  0  0
    2.1035   -0.2956    0.0000 N   0  0  0  0  0  0  0  0  0  0  0  0
   -0.0412   -0.7081    0.0000 N   0  0  0  0  0  0  0  0  0  0  0  0
   -2.1860   -0.2956    0.0000 N   0  0  0  0  0  0  0  0  0  0  0  0
    4.2482   -0.6806    0.0000 C   0  0  3  0  0  0  0  0  0  0  0  0
    3.5058   -0.2681    0.0000 C   0  0  0  0  0  0  0  0  0  0  0  0
    2.8322   -0.6668    0.0000 C   0  0  3  0  0  0  0  0  0  0  0  0
    0.6737   -0.2681    0.0000 C   0  0  3  0  0  0  0  0  0  0  0  0
    1.4023   -0.6531    0.0000 C   0  0  0  0  0  0  0  0  0  0  0  0
    5.0457   -0.6943    0.0000 C   0  0  0  0  0  0  0  0  0  0  0  0
    1.3748    0.9830    0.0000 C   0  0  0  0  0  0  0  0  0  0  0  0
    2.8184   -1.4917    0.0000 C   0  0  0  0  0  0  0  0  0  0  0  0
    2.8184    1.8079    0.0000 C   0  0  0  0  0  0  0  0  0  0  0  0
    0.6874    0.5568    0.0000 C   0  0  0  0  0  0  0  0  0  0  0  0
    3.5333   -1.9179    0.0000 C   0  0  0  0  0  0  0  0  0  0  0  0
    1.4023    1.8079    0.0000 C   0  0  0  0  0  0  0  0  0  0  0  0
    2.1035    0.5706    0.0000 C   0  0  0  0  0  0  0  0  0  0  0  0
   -0.7561   -0.2819    0.0000 C   0  0  0  0  0  0  0  0  0  0  0  0
    2.0898    2.2066    0.0000 C   0  0  0  0  0  0  0  0  0  0  0  0
    2.8184    0.9830    0.0000 C   0  0  0  0  0  0  0  0  0  0  0  0
   -1.4573   -0.6668    0.0000 C   0  0  3  0  0  0  0  0  0  0  0  0
    3.6158   -2.7428    0.0000 C   0  0  0  0  0  0  0  0  0  0  0  0
    4.2620   -1.6017    0.0000 C   0  0  0  0  0  0  0  0  0  0  0  0
    4.2482    2.6465    0.0000 C   0  0  0  0  0  0  0  0  0  0  0  0
   -2.8872   -0.6531    0.0000 C   0  0  0  0  0  0  0  0  0  0  0  0
    4.8120   -2.2204    0.0000 C   0  0  0  0  0  0  0  0  0  0  0  0
    4.4132   -2.9078    0.0000 C   0  0  0  0  0  0  0  0  0  0  0  0
   -4.3170   -0.6806    0.0000 C   0  0  0  0  0  0  0  0  0  0  0  0
   -3.6158   -0.2681    0.0000 C   0  0  0  0  0  0  0  0  0  0  0  0
   -1.4573   -1.5192    0.0000 C   0  0  0  0  0  0  0  0  0  0  0  0
   -4.3170   -1.5192    0.0000 C   0  0  0  0  0  0  0  0  0  0  0  0
   -5.0457   -0.2819    0.0000 C   0  0  0  0  0  0  0  0  0  0  0  0
  1  5  2  0  0  0  0
  1  6  2  0  0  0  0
  1 21  1  0  0  0  0
  1 32  1  0  0  0  0
  2 13  1  0  0  0  0
  2 18  1  0  0  0  0
  3 14  2  0  0  0  0
  4 17  2  0  0  0  0
  7 26  2  0  0  0  0
  8 33  2  0  0  0  0
  9 36  1  0  0  0  0
 15 10  1  6  0  0  0
 10 17  1  0  0  0  0
 16 11  1  1  0  0  0
 11 26  1  0  0  0  0
 12 29  1  0  0  0  0
 12 33  1  0  0  0  0
 13 14  1  1  0  0  0
 13 18  1  0  0  0  0
 14 15  1  0  0  0  0
 15 20  1  0  0  0  0
 16 17  1  0  0  0  0
 16 22  1  0  0  0  0
 19 22  1  0  0  0  0
 19 24  2  0  0  0  0
 19 25  1  0  0  0  0
 20 23  1  0  0  0  0
 21 27  2  0  0  0  0
 21 28  1  0  0  0  0
 23 30  1  0  0  0  0
 23 31  1  0  0  0  0
 24 27  1  0  0  0  0
 25 28  2  0  0  0  0
 26 29  1  0  0  0  0
 29 38  1  1  0  0  0
 30 35  1  0  0  0  0
 31 34  1  0  0  0  0
 33 37  1  0  0  0  0
 34 35  1  0  0  0  0
 36 37  1  0  0  0  0
 36 39  1  0  0  0  0
 36 40  1  0  0  0  0
M  END
> <PUBCHEM_COMPOUND_ID_TYPE>
0

> <PUBCHEM_TOTAL_CHARGE>
0

> <PUBCHEM_SUBSTANCE_ID>
310946053

> <PUBCHEM_SUBSTANCE_VERSION>
1

> <PUBCHEM_EXT_DATASOURCE_NAME>
4488

> <PUBCHEM_EXT_DATASOURCE_REGID>
SCHEMBL16124159

> <PUBCHEM_SUBSTANCE_COMMENT>
InChI=1S/C28H41N3O8S/c1-17(29-24(32)15-28(2,3)36)26(34)31-22(14-19-9-11-20(12-10-19)40(4,37)38)27(35)30-21(25(33)23-16-39-23)13-18-7-5-6-8-18/h9-12,17-18,21-23,36H,5-8,13-16H2,1-4H3,(H,29,32)(H,30,35)(H,31,34)/t17-,21+,22+,23-/m1/s1
InChIKey=YUQAGWNKACXLPK-LMDOGRNLSA-N

> <PUBCHEM_SUBSTANCE_SYNONYM>
SCHEMBL16124159

> <PUBCHEM_XREF_EXT_ID>
SCHEMBL16124159

> <PUBCHEM_EXT_DATASOURCE_URL>
https://www.surechembl.org/

> <PUBCHEM_EXT_SUBSTANCE_URL>
https://www.surechembl.org/chemical/SCHEMBL16124159

> <PUBCHEM_CID_ASSOCIATIONS>
117612024  1

> <PUBCHEM_COORDINATE_TYPE>
1
3

> <PUBCHEM_BONDANNOTATIONS>
15  10  6
16  11  5
13  14  5
29  38  5

$$$$
