310944881
  -OEChem-07211613022D

 32 35  0     0  0  0  0  0  0999 V2000
   -4.5016   -1.6497    0.0000 Br  0  0  0  0  0  0  0  0  0  0  0  0
    3.7820   -1.2460    0.0000 O   0  0  0  0  0  0  0  0  0  0  0  0
    3.0625   -2.4921    0.0000 O   0  0  0  0  0  0  0  0  0  0  0  0
   -1.2899    0.0000    0.0000 C   0  0  0  0  0  0  0  0  0  0  0  0
   -1.2723    0.8424    0.0000 C   0  0  0  0  0  0  0  0  0  0  0  0
   -2.0271    1.2812    0.0000 C   0  0  0  0  0  0  0  0  0  0  0  0
   -0.5528   -0.4037    0.0000 C   0  0  0  0  0  0  0  0  0  0  0  0
   -1.9919   -0.4037    0.0000 C   0  0  0  0  0  0  0  0  0  0  0  0
   -0.5528    1.2636    0.0000 C   0  0  0  0  0  0  0  0  0  0  0  0
   -2.7993    1.0530    0.0000 C   0  0  0  0  0  0  0  0  0  0  0  0
   -2.2201    2.0534    0.0000 C   0  0  0  0  0  0  0  0  0  0  0  0
   -0.5353   -1.2460    0.0000 C   0  0  0  0  0  0  0  0  0  0  0  0
    0.1843   -0.0176    0.0000 C   0  0  0  0  0  0  0  0  0  0  0  0
   -2.7114   -0.0176    0.0000 C   0  0  0  0  0  0  0  0  0  0  0  0
   -2.0095   -1.2460    0.0000 C   0  0  0  0  0  0  0  0  0  0  0  0
    0.2018    0.8599    0.0000 C   0  0  0  0  0  0  0  0  0  0  0  0
   -0.5353    2.0884    0.0000 C   0  0  0  0  0  0  0  0  0  0  0  0
   -3.0098    1.8428    0.0000 C   0  0  0  0  0  0  0  0  0  0  0  0
    0.9038   -1.2460    0.0000 C   0  0  0  0  0  0  0  0  0  0  0  0
    0.2018   -1.6497    0.0000 C   0  0  0  0  0  0  0  0  0  0  0  0
    0.8862   -0.4212    0.0000 C   0  0  0  0  0  0  0  0  0  0  0  0
   -3.4135   -0.4037    0.0000 C   0  0  0  0  0  0  0  0  0  0  0  0
   -2.6940   -1.6497    0.0000 C   0  0  0  0  0  0  0  0  0  0  0  0
   -3.4486   -1.2460    0.0000 C   0  0  0  0  0  0  0  0  0  0  0  0
    0.8862    1.2636    0.0000 C   0  0  0  0  0  0  0  0  0  0  0  0
    0.1843    2.4921    0.0000 C   0  0  0  0  0  0  0  0  0  0  0  0
    0.8862    2.0884    0.0000 C   0  0  0  0  0  0  0  0  0  0  0  0
    1.6058   -1.6673    0.0000 C   0  0  0  0  0  0  0  0  0  0  0  0
    2.3253   -1.2636    0.0000 C   0  0  0  0  0  0  0  0  0  0  0  0
    3.0801   -1.6497    0.0000 C   0  0  0  0  0  0  0  0  0  0  0  0
    4.4840   -1.6497    0.0000 C   0  0  0  0  0  0  0  0  0  0  0  0
    4.5016   -2.4921    0.0000 C   0  0  0  0  0  0  0  0  0  0  0  0
  1 24  1  0  0  0  0
  2 30  1  0  0  0  0
  2 31  1  0  0  0  0
  3 30  2  0  0  0  0
  4  5  2  0  0  0  0
  4  7  1  0  0  0  0
  4  8  1  0  0  0  0
  5  6  1  0  0  0  0
  5  9  1  0  0  0  0
  6 10  1  0  0  0  0
  6 11  1  0  0  0  0
  7 12  2  0  0  0  0
  7 13  1  0  0  0  0
  8 14  2  0  0  0  0
  8 15  1  0  0  0  0
  9 16  2  0  0  0  0
  9 17  1  0  0  0  0
 10 18  1  0  0  0  0
 11 18  1  0  0  0  0
 12 20  1  0  0  0  0
 13 21  2  0  0  0  0
 14 22  1  0  0  0  0
 15 23  2  0  0  0  0
 16 25  1  0  0  0  0
 17 26  2  0  0  0  0
 19 20  2  0  0  0  0
 19 21  1  0  0  0  0
 19 28  1  0  0  0  0
 22 24  2  0  0  0  0
 23 24  1  0  0  0  0
 25 27  2  0  0  0  0
 26 27  1  0  0  0  0
 28 29  2  0  0  0  0
 29 30  1  0  0  0  0
 31 32  1  0  0  0  0
M  END
> <PUBCHEM_COMPOUND_ID_TYPE>
0

> <PUBCHEM_TOTAL_CHARGE>
0

> <PUBCHEM_SUBSTANCE_ID>
310944881

> <PUBCHEM_SUBSTANCE_VERSION>
1

> <PUBCHEM_EXT_DATASOURCE_NAME>
4488

> <PUBCHEM_EXT_DATASOURCE_REGID>
SCHEMBL16122965

> <PUBCHEM_SUBSTANCE_COMMENT>
InChI=1S/C29H27BrO2/c1-2-32-27(31)20-13-21-11-14-24(15-12-21)29(25-16-18-26(30)19-17-25)28(23-9-6-10-23)22-7-4-3-5-8-22/h3-5,7-8,11-20,23H,2,6,9-10H2,1H3/b20-13+,29-28-
InChIKey=DNKZKYNYJFUKNZ-DCHLROMLSA-N

> <PUBCHEM_SUBSTANCE_SYNONYM>
SCHEMBL16122965

> <PUBCHEM_XREF_EXT_ID>
SCHEMBL16122965

> <PUBCHEM_EXT_DATASOURCE_URL>
https://www.surechembl.org/

> <PUBCHEM_EXT_SUBSTANCE_URL>
https://www.surechembl.org/chemical/SCHEMBL16122965

> <PUBCHEM_CID_ASSOCIATIONS>
117611070  1

> <PUBCHEM_COORDINATE_TYPE>
1
3

$$$$
