310940136
  -OEChem-07211613022D

 35 39  0     0  0  0  0  0  0999 V2000
   -1.2221   -4.1107    0.0000 Cl  0  0  0  0  0  0  0  0  0  0  0  0
   -0.1282   -2.8800    0.0000 F   0  0  0  0  0  0  0  0  0  0  0  0
   -3.2902    0.4530    0.0000 O   0  0  0  0  0  0  0  0  0  0  0  0
   -0.5213    0.3333    0.0000 N   0  0  0  0  0  0  0  0  0  0  0  0
   -0.8632   -0.4358    0.0000 N   0  0  0  0  0  0  0  0  0  0  0  0
   -2.2305   -0.9486    0.0000 N   0  0  0  0  0  0  0  0  0  0  0  0
   -2.5723    1.7178    0.0000 N   0  0  0  0  0  0  0  0  0  0  0  0
    0.9144    2.8971    0.0000 N   0  0  0  0  0  0  0  0  0  0  0  0
    2.4185    0.1794    0.0000 N   0  0  0  0  0  0  0  0  0  0  0  0
    0.2308    0.5042    0.0000 C   0  0  0  0  0  0  0  0  0  0  0  0
   -1.1537    0.8802    0.0000 C   0  0  0  0  0  0  0  0  0  0  0  0
   -1.8545    0.4701    0.0000 C   0  0  0  0  0  0  0  0  0  0  0  0
   -1.6835   -0.3333    0.0000 C   0  0  0  0  0  0  0  0  0  0  0  0
   -2.5723    0.8973    0.0000 C   0  0  0  0  0  0  0  0  0  0  0  0
   -0.2991    1.0854    0.0000 C   0  0  0  0  0  0  0  0  0  0  0  0
    1.0683    0.7264    0.0000 C   0  0  0  0  0  0  0  0  0  0  0  0
   -1.1366    1.7007    0.0000 C   0  0  0  0  0  0  0  0  0  0  0  0
    0.8118   -0.1282    0.0000 C   0  0  0  0  0  0  0  0  0  0  0  0
   -1.8545    2.1280    0.0000 C   0  0  0  0  0  0  0  0  0  0  0  0
   -0.0940    1.8716    0.0000 C   0  0  0  0  0  0  0  0  0  0  0  0
    1.2734    1.5127    0.0000 C   0  0  0  0  0  0  0  0  0  0  0  0
    0.7094    2.0767    0.0000 C   0  0  0  0  0  0  0  0  0  0  0  0
   -1.9912   -1.7178    0.0000 C   0  0  0  0  0  0  0  0  0  0  0  0
    1.6323    0.0427    0.0000 C   0  0  0  0  0  0  0  0  0  0  0  0
   -1.1879   -1.9228    0.0000 C   0  0  0  0  0  0  0  0  0  0  0  0
   -2.5211   -2.3502    0.0000 C   0  0  0  0  0  0  0  0  0  0  0  0
   -0.9315   -2.6920    0.0000 C   0  0  0  0  0  0  0  0  0  0  0  0
   -1.4785   -3.3244    0.0000 C   0  0  0  0  0  0  0  0  0  0  0  0
   -2.2818   -3.1364    0.0000 C   0  0  0  0  0  0  0  0  0  0  0  0
    1.7007    3.1193    0.0000 C   0  0  0  0  0  0  0  0  0  0  0  0
    2.3160    2.5382    0.0000 C   0  0  0  0  0  0  0  0  0  0  0  0
    1.9228    3.8885    0.0000 C   0  0  0  0  0  0  0  0  0  0  0  0
    2.7262    4.1107    0.0000 C   0  0  0  0  0  0  0  0  0  0  0  0
    3.0852    2.7433    0.0000 C   0  0  0  0  0  0  0  0  0  0  0  0
    3.2902    3.5466    0.0000 C   0  0  0  0  0  0  0  0  0  0  0  0
  1 28  1  0  0  0  0
  2 27  1  0  0  0  0
  3 14  2  0  0  0  0
  4  5  1  0  0  0  0
  4 10  1  0  0  0  0
  4 11  1  0  0  0  0
  5 13  2  0  0  0  0
  6 13  1  0  0  0  0
  6 23  1  0  0  0  0
  7 14  1  0  0  0  0
  7 19  1  0  0  0  0
 22  8  1  6  0  0  0
  8 30  1  0  0  0  0
  9 24  3  0  0  0  0
 10 15  1  0  0  0  0
 10 16  1  0  0  0  0
 10 18  1  6  0  0  0
 11 12  2  0  0  0  0
 11 17  1  0  0  0  0
 12 13  1  0  0  0  0
 12 14  1  0  0  0  0
 15 20  1  0  0  0  0
 16 21  1  0  0  0  0
 17 19  2  0  0  0  0
 18 24  1  0  0  0  0
 20 22  1  0  0  0  0
 21 22  1  0  0  0  0
 23 25  1  0  0  0  0
 23 26  2  0  0  0  0
 25 27  2  0  0  0  0
 26 29  1  0  0  0  0
 27 28  1  0  0  0  0
 28 29  2  0  0  0  0
 30 31  1  0  0  0  0
 30 32  1  0  0  0  0
 31 34  1  0  0  0  0
 32 33  1  0  0  0  0
 33 35  1  0  0  0  0
 34 35  1  0  0  0  0
M  END
> <PUBCHEM_COMPOUND_ID_TYPE>
0

> <PUBCHEM_TOTAL_CHARGE>
0

> <PUBCHEM_SUBSTANCE_ID>
310940136

> <PUBCHEM_SUBSTANCE_VERSION>
1

> <PUBCHEM_EXT_DATASOURCE_NAME>
4488

> <PUBCHEM_EXT_DATASOURCE_REGID>
SCHEMBL16118069

> <PUBCHEM_SUBSTANCE_COMMENT>
InChI=1S/C26H30ClFN6O/c27-20-7-6-19(16-21(20)28)32-24-23-22(10-15-30-25(23)35)34(33-24)26(13-14-29)11-8-18(9-12-26)31-17-4-2-1-3-5-17/h6-7,10,15-18,31H,1-5,8-9,11-13H2,(H,30,35)(H,32,33)/t18-,26-
InChIKey=AZXMOJFOZVXJNF-AJHAWQTOSA-N

> <PUBCHEM_SUBSTANCE_SYNONYM>
SCHEMBL16118069

> <PUBCHEM_XREF_EXT_ID>
SCHEMBL16118069

> <PUBCHEM_EXT_DATASOURCE_URL>
https://www.surechembl.org/

> <PUBCHEM_EXT_SUBSTANCE_URL>
https://www.surechembl.org/chemical/SCHEMBL16118069

> <PUBCHEM_CID_ASSOCIATIONS>
86275049  1

> <PUBCHEM_COORDINATE_TYPE>
1
3

> <PUBCHEM_BONDANNOTATIONS>
10  18  6
22  8  6

$$$$
