310932110
  -OEChem-07211613022D

 52 56  0     1  0  0  0  0  0999 V2000
   17.6788    3.0130    0.0000 Cl  0  0  0  0  0  0  0  0  0  0  0  0
   17.8618   -0.1615    0.0000 S   0  0  0  0  0  0  0  0  0  0  0  0
   17.9088    1.5610    0.0000 S   0  0  0  0  0  0  0  0  0  0  0  0
   17.8618   -1.8115    0.0000 F   0  0  0  0  0  0  0  0  0  0  0  0
   15.0039   -0.1615    0.0000 F   0  0  0  0  0  0  0  0  0  0  0  0
   16.4328   -2.6365    0.0000 F   0  0  0  0  0  0  0  0  0  0  0  0
   16.4328   -4.2865    0.0000 F   0  0  0  0  0  0  0  0  0  0  0  0
   17.4493    0.5530    0.0000 O   0  0  0  0  0  0  0  0  0  0  0  0
   18.2743   -0.8759    0.0000 O   0  0  0  0  0  0  0  0  0  0  0  0
   15.0039   -1.8115    0.0000 O   0  0  0  0  0  0  0  0  0  0  0  0
   20.7196   -0.9865    0.0000 O   0  0  0  0  0  0  0  0  0  0  0  0
   22.1486    1.4885    0.0000 O   0  0  0  0  0  0  0  0  0  0  0  0
   10.7170   -1.8115    0.0000 O   0  0  0  0  0  0  0  0  0  0  0  0
   11.4316   -0.5740    0.0000 O   0  0  0  0  0  0  0  0  0  0  0  0
   18.5762    0.2510    0.0000 N   0  0  0  0  0  0  0  0  0  0  0  0
   19.2437    1.5610    0.0000 N   0  0  0  0  0  0  0  0  0  0  0  0
   12.1460   -1.8115    0.0000 N   0  0  0  0  0  0  0  0  0  0  0  0
   17.1473   -0.5740    0.0000 C   0  0  0  0  0  0  0  0  0  0  0  0
   18.5762    1.0760    0.0000 C   0  0  0  0  0  0  0  0  0  0  0  0
   17.1473   -1.3990    0.0000 C   0  0  0  0  0  0  0  0  0  0  0  0
   16.4328   -0.1615    0.0000 C   0  0  0  0  0  0  0  0  0  0  0  0
   19.2907   -0.1615    0.0000 C   0  0  0  0  0  0  0  0  0  0  0  0
   15.7184   -0.5740    0.0000 C   0  0  0  0  0  0  0  0  0  0  0  0
   15.7184   -1.3990    0.0000 C   0  0  0  0  0  0  0  0  0  0  0  0
   16.4328   -1.8115    0.0000 C   0  0  0  0  0  0  0  0  0  0  0  0
   20.0052    0.2510    0.0000 C   0  0  0  0  0  0  0  0  0  0  0  0
   18.1637    2.3456    0.0000 C   0  0  0  0  0  0  0  0  0  0  0  0
   20.7196   -0.1615    0.0000 C   0  0  0  0  0  0  0  0  0  0  0  0
   13.5750   -1.8115    0.0000 C   0  0  3  0  0  0  0  0  0  0  0  0
   18.9887    2.3456    0.0000 C   0  0  0  0  0  0  0  0  0  0  0  0
   13.5750   -2.6365    0.0000 C   0  0  3  0  0  0  0  0  0  0  0  0
   20.0052    1.0760    0.0000 C   0  0  0  0  0  0  0  0  0  0  0  0
   14.2894   -1.3990    0.0000 C   0  0  0  0  0  0  0  0  0  0  0  0
   14.2894   -3.0490    0.0000 C   0  0  0  0  0  0  0  0  0  0  0  0
   21.4341    0.2510    0.0000 C   0  0  0  0  0  0  0  0  0  0  0  0
   12.8605   -1.3990    0.0000 C   0  0  0  0  0  0  0  0  0  0  0  0
   21.4341    1.0760    0.0000 C   0  0  0  0  0  0  0  0  0  0  0  0
   12.8605   -3.0490    0.0000 C   0  0  0  0  0  0  0  0  0  0  0  0
   20.7196    1.4885    0.0000 C   0  0  0  0  0  0  0  0  0  0  0  0
   12.1460   -2.6365    0.0000 C   0  0  0  0  0  0  0  0  0  0  0  0
   15.0039   -2.6365    0.0000 C   0  0  0  0  0  0  0  0  0  0  0  0
   11.4316   -1.3990    0.0000 C   0  0  0  0  0  0  0  0  0  0  0  0
   14.2894   -3.8740    0.0000 C   0  0  0  0  0  0  0  0  0  0  0  0
   15.7184   -3.0490    0.0000 C   0  0  0  0  0  0  0  0  0  0  0  0
   15.7184   -3.8740    0.0000 C   0  0  0  0  0  0  0  0  0  0  0  0
   15.0039   -4.2865    0.0000 C   0  0  0  0  0  0  0  0  0  0  0  0
   10.0026   -1.3990    0.0000 C   0  0  0  0  0  0  0  0  0  0  0  0
   21.4341   -1.3990    0.0000 C   0  0  0  0  0  0  0  0  0  0  0  0
   22.8630    1.0760    0.0000 C   0  0  0  0  0  0  0  0  0  0  0  0
   10.0026   -0.5740    0.0000 C   0  0  0  0  0  0  0  0  0  0  0  0
    9.2881   -0.9865    0.0000 C   0  0  0  0  0  0  0  0  0  0  0  0
    9.2881   -1.8115    0.0000 C   0  0  0  0  0  0  0  0  0  0  0  0
  1 27  1  0  0  0  0
  2  8  2  0  0  0  0
  2  9  2  0  0  0  0
  2 15  1  0  0  0  0
  2 18  1  0  0  0  0
  3 19  1  0  0  0  0
  3 27  1  0  0  0  0
  4 20  1  0  0  0  0
  5 23  1  0  0  0  0
  6 44  1  0  0  0  0
  7 45  1  0  0  0  0
 10 24  1  0  0  0  0
 10 33  1  0  0  0  0
 11 28  1  0  0  0  0
 11 48  1  0  0  0  0
 12 37  1  0  0  0  0
 12 49  1  0  0  0  0
 13 42  1  0  0  0  0
 13 47  1  0  0  0  0
 14 42  2  0  0  0  0
 15 19  1  0  0  0  0
 15 22  1  0  0  0  0
 16 19  2  0  0  0  0
 16 30  1  0  0  0  0
 17 36  1  0  0  0  0
 17 40  1  0  0  0  0
 17 42  1  0  0  0  0
 18 20  2  0  0  0  0
 18 21  1  0  0  0  0
 20 25  1  0  0  0  0
 21 23  2  0  0  0  0
 22 26  1  0  0  0  0
 23 24  1  0  0  0  0
 24 25  2  0  0  0  0
 26 28  1  0  0  0  0
 26 32  2  0  0  0  0
 27 30  2  0  0  0  0
 28 35  2  0  0  0  0
 29 31  1  0  0  0  0
 29 33  1  6  0  0  0
 29 36  1  0  0  0  0
 31 34  1  0  0  0  0
 31 38  1  1  0  0  0
 32 39  1  0  0  0  0
 34 41  1  0  0  0  0
 34 43  2  0  0  0  0
 35 37  1  0  0  0  0
 37 39  2  0  0  0  0
 38 40  1  0  0  0  0
 41 44  2  0  0  0  0
 43 46  1  0  0  0  0
 44 45  1  0  0  0  0
 45 46  2  0  0  0  0
 47 50  1  0  0  0  0
 47 51  1  0  0  0  0
 47 52  1  0  0  0  0
M  END
> <PUBCHEM_COMPOUND_ID_TYPE>
0

> <PUBCHEM_TOTAL_CHARGE>
0

> <PUBCHEM_SUBSTANCE_ID>
310932110

> <PUBCHEM_SUBSTANCE_VERSION>
1

> <PUBCHEM_EXT_DATASOURCE_NAME>
4488

> <PUBCHEM_EXT_DATASOURCE_REGID>
SCHEMBL16109460

> <PUBCHEM_SUBSTANCE_COMMENT>
InChI=1S/C35H36ClF4N3O7S2/c1-35(2,3)50-34(44)42-11-10-24(20-7-9-25(37)26(38)12-20)22(17-42)19-49-30-14-28(40)31(15-27(30)39)52(45,46)43(33-41-16-32(36)51-33)18-21-6-8-23(47-4)13-29(21)48-5/h6-9,12-16,22,24H,10-11,17-19H2,1-5H3/t22-,24-/m1/s1
InChIKey=WESOFTKMOTTXQX-ISKFKSNPSA-N

> <PUBCHEM_SUBSTANCE_SYNONYM>
SCHEMBL16109460

> <PUBCHEM_XREF_EXT_ID>
SCHEMBL16109460

> <PUBCHEM_EXT_DATASOURCE_URL>
https://www.surechembl.org/

> <PUBCHEM_EXT_SUBSTANCE_URL>
https://www.surechembl.org/chemical/SCHEMBL16109460

> <PUBCHEM_CID_ASSOCIATIONS>
117600728  1

> <PUBCHEM_COORDINATE_TYPE>
1
3

> <PUBCHEM_BONDANNOTATIONS>
29  33  6
31  38  5

$$$$
