310933014
  -OEChem-07211613022D

 13 14  0     0  0  0  0  0  0999 V2000
    0.0000   -2.1381    0.0000 Br  0  0  0  0  0  0  0  0  0  0  0  0
    0.6669   -3.4328    0.0000 N   0  0  0  0  0  0  0  0  0  0  0  0
    1.4516   -3.7074    0.0000 N   0  0  0  0  0  0  0  0  0  0  0  0
    1.4516   -2.3539    0.0000 C   0  0  0  0  0  0  0  0  0  0  0  0
    0.6669   -2.6286    0.0000 C   0  0  0  0  0  0  0  0  0  0  0  0
    1.7066   -1.5693    0.0000 C   0  0  0  0  0  0  0  0  0  0  0  0
    1.9420   -3.0208    0.0000 C   0  0  0  0  0  0  0  0  0  0  0  0
    1.1573   -0.9612    0.0000 C   0  0  0  0  0  0  0  0  0  0  0  0
    2.5305   -1.3927    0.0000 C   0  0  0  0  0  0  0  0  0  0  0  0
    0.0000   -3.9232    0.0000 C   0  0  0  0  0  0  0  0  0  0  0  0
    1.4123   -0.1766    0.0000 C   0  0  0  0  0  0  0  0  0  0  0  0
    2.7659   -0.6081    0.0000 C   0  0  0  0  0  0  0  0  0  0  0  0
    2.2166    0.0000    0.0000 C   0  0  0  0  0  0  0  0  0  0  0  0
  1  5  1  0  0  0  0
  2  3  1  0  0  0  0
  2  5  1  0  0  0  0
  2 10  1  0  0  0  0
  3  7  2  0  0  0  0
  4  5  2  0  0  0  0
  4  6  1  0  0  0  0
  4  7  1  0  0  0  0
  6  8  2  0  0  0  0
  6  9  1  0  0  0  0
  8 11  1  0  0  0  0
  9 12  2  0  0  0  0
 11 13  2  0  0  0  0
 12 13  1  0  0  0  0
M  END
> <PUBCHEM_COMPOUND_ID_TYPE>
0

> <PUBCHEM_TOTAL_CHARGE>
0

> <PUBCHEM_SUBSTANCE_ID>
310933014

> <PUBCHEM_SUBSTANCE_VERSION>
1

> <PUBCHEM_EXT_DATASOURCE_NAME>
4488

> <PUBCHEM_EXT_DATASOURCE_REGID>
SCHEMBL16110414

> <PUBCHEM_SUBSTANCE_COMMENT>
InChI=1S/C10H9BrN2/c1-13-10(11)9(7-12-13)8-5-3-2-4-6-8/h2-7H,1H3
InChIKey=UZQOAKHXPRHASO-UHFFFAOYSA-N

> <PUBCHEM_SUBSTANCE_SYNONYM>
SCHEMBL16110414

> <PUBCHEM_XREF_EXT_ID>
SCHEMBL16110414

> <PUBCHEM_EXT_DATASOURCE_URL>
https://www.surechembl.org/

> <PUBCHEM_EXT_SUBSTANCE_URL>
https://www.surechembl.org/chemical/SCHEMBL16110414

> <PUBCHEM_CID_ASSOCIATIONS>
83382776  1

> <PUBCHEM_COORDINATE_TYPE>
1
3

$$$$
