310943366
  -OEChem-07211613022D

 32 35  0     0  0  0  0  0  0999 V2000
    4.6415   -1.2426    0.0000 F   0  0  0  0  0  0  0  0  0  0  0  0
    3.2088   -2.0613    0.0000 F   0  0  0  0  0  0  0  0  0  0  0  0
    4.6269   -2.0613    0.0000 F   0  0  0  0  0  0  0  0  0  0  0  0
    2.4925    1.6373    0.0000 O   0  0  0  0  0  0  0  0  0  0  0  0
   -4.6415    1.6373    0.0000 O   0  0  0  0  0  0  0  0  0  0  0  0
   -1.7908    0.8186    0.0000 N   0  0  0  0  0  0  0  0  0  0  0  0
   -3.2234    0.8186    0.0000 N   0  0  0  0  0  0  0  0  0  0  0  0
    1.7762    0.4094    0.0000 N   0  0  0  0  0  0  0  0  0  0  0  0
    0.3435    2.0613    0.0000 N   0  0  0  0  0  0  0  0  0  0  0  0
    4.6269   -0.4239    0.0000 N   0  0  0  0  0  0  0  0  0  0  0  0
   -1.7908   -0.8333    0.0000 N   0  0  0  0  0  0  0  0  0  0  0  0
   -0.3728    0.8186    0.0000 C   0  0  0  0  0  0  0  0  0  0  0  0
   -1.0744    0.4094    0.0000 C   0  0  0  0  0  0  0  0  0  0  0  0
   -0.3581    1.6519    0.0000 C   0  0  0  0  0  0  0  0  0  0  0  0
    1.0599    0.8333    0.0000 C   0  0  0  0  0  0  0  0  0  0  0  0
   -2.4925    0.4094    0.0000 C   0  0  0  0  0  0  0  0  0  0  0  0
    0.3728    0.4094    0.0000 C   0  0  0  0  0  0  0  0  0  0  0  0
    3.2088    0.4094    0.0000 C   0  0  0  0  0  0  0  0  0  0  0  0
    3.9252   -0.8333    0.0000 C   0  0  0  0  0  0  0  0  0  0  0  0
    2.4779    0.8040    0.0000 C   0  0  0  0  0  0  0  0  0  0  0  0
    3.9252   -1.6373    0.0000 C   0  0  0  0  0  0  0  0  0  0  0  0
    3.2088   -0.4094    0.0000 C   0  0  0  0  0  0  0  0  0  0  0  0
   -1.0744   -0.4094    0.0000 C   0  0  0  0  0  0  0  0  0  0  0  0
    1.0744    1.6373    0.0000 C   0  0  0  0  0  0  0  0  0  0  0  0
   -2.5071   -0.4094    0.0000 C   0  0  0  0  0  0  0  0  0  0  0  0
    3.8959    0.8186    0.0000 C   0  0  0  0  0  0  0  0  0  0  0  0
    4.6415    0.4094    0.0000 C   0  0  0  0  0  0  0  0  0  0  0  0
   -3.2234    1.6519    0.0000 C   0  0  0  0  0  0  0  0  0  0  0  0
   -3.9106    0.4094    0.0000 C   0  0  0  0  0  0  0  0  0  0  0  0
   -1.0891    2.0466    0.0000 C   0  0  0  0  0  0  0  0  0  0  0  0
   -3.9397    2.0613    0.0000 C   0  0  0  0  0  0  0  0  0  0  0  0
   -4.6415    0.8186    0.0000 C   0  0  0  0  0  0  0  0  0  0  0  0
  1 21  1  0  0  0  0
  2 21  1  0  0  0  0
  3 21  1  0  0  0  0
  4 20  2  0  0  0  0
  5 31  1  0  0  0  0
  5 32  1  0  0  0  0
  6 13  1  0  0  0  0
  6 16  2  0  0  0  0
  7 16  1  0  0  0  0
  7 28  1  0  0  0  0
  7 29  1  0  0  0  0
  8 15  1  0  0  0  0
  8 20  1  0  0  0  0
  9 14  2  0  0  0  0
  9 24  1  0  0  0  0
 10 19  2  0  0  0  0
 10 27  1  0  0  0  0
 11 23  1  0  0  0  0
 11 25  2  0  0  0  0
 12 13  1  0  0  0  0
 12 14  1  0  0  0  0
 12 17  2  0  0  0  0
 13 23  2  0  0  0  0
 14 30  1  0  0  0  0
 15 17  1  0  0  0  0
 15 24  2  0  0  0  0
 16 25  1  0  0  0  0
 18 20  1  0  0  0  0
 18 22  2  0  0  0  0
 18 26  1  0  0  0  0
 19 21  1  0  0  0  0
 19 22  1  0  0  0  0
 26 27  2  0  0  0  0
 28 31  1  0  0  0  0
 29 32  1  0  0  0  0
M  END
> <PUBCHEM_COMPOUND_ID_TYPE>
0

> <PUBCHEM_TOTAL_CHARGE>
0

> <PUBCHEM_SUBSTANCE_ID>
310943366

> <PUBCHEM_SUBSTANCE_VERSION>
1

> <PUBCHEM_EXT_DATASOURCE_NAME>
4488

> <PUBCHEM_EXT_DATASOURCE_REGID>
SCHEMBL16121429

> <PUBCHEM_SUBSTANCE_COMMENT>
InChI=1S/C21H19F3N6O2/c1-13-16(17-11-25-12-19(29-17)30-4-6-32-7-5-30)9-15(10-27-13)28-20(31)14-2-3-26-18(8-14)21(22,23)24/h2-3,8-12H,4-7H2,1H3,(H,28,31)
InChIKey=GDQORUHUAZQWQJ-UHFFFAOYSA-N

> <PUBCHEM_SUBSTANCE_SYNONYM>
SCHEMBL16121429

> <PUBCHEM_XREF_EXT_ID>
SCHEMBL16121429

> <PUBCHEM_EXT_DATASOURCE_URL>
https://www.surechembl.org/

> <PUBCHEM_EXT_SUBSTANCE_URL>
https://www.surechembl.org/chemical/SCHEMBL16121429

> <PUBCHEM_CID_ASSOCIATIONS>
117609790  1

> <PUBCHEM_COORDINATE_TYPE>
1
3

$$$$
