310948838
  -OEChem-07211613022D

 20 20  0     1  0  0  0  0  0999 V2000
   -2.5462    1.2351    0.0000 O   0  0  0  0  0  0  0  0  0  0  0  0
   -1.0641    1.1781    0.0000 O   0  0  0  0  0  0  0  0  0  0  0  0
   -1.1210   -0.4180    0.0000 O   0  0  0  0  0  0  0  0  0  0  0  0
   -2.5462   -1.2541    0.0000 O   0  0  0  0  0  0  0  0  0  0  0  0
   -4.6933    0.8361    0.0000 O   0  0  0  0  0  0  0  0  0  0  0  0
    1.1021    0.7790    0.0000 O   0  0  0  0  0  0  0  0  0  0  0  0
    3.9713   -0.0570    0.0000 O   0  0  0  0  0  0  0  0  0  0  0  0
    3.2492    1.1971    0.0000 N   0  0  0  0  0  0  0  0  0  0  0  0
   -1.8241    0.8171    0.0000 C   0  0  3  0  0  0  0  0  0  0  0  0
   -1.8431    0.0000    0.0000 C   0  0  3  0  0  0  0  0  0  0  0  0
   -2.5462   -0.3991    0.0000 C   0  0  3  0  0  0  0  0  0  0  0  0
   -3.2682    0.8361    0.0000 C   0  0  3  0  0  0  0  0  0  0  0  0
   -3.2682    0.0000    0.0000 C   0  0  0  0  0  0  0  0  0  0  0  0
   -3.9903    1.2541    0.0000 C   0  0  0  0  0  0  0  0  0  0  0  0
   -0.3610    0.7790    0.0000 C   0  0  0  0  0  0  0  0  0  0  0  0
    0.3610    1.1781    0.0000 C   0  0  0  0  0  0  0  0  0  0  0  0
    1.7861    1.1781    0.0000 C   0  0  0  0  0  0  0  0  0  0  0  0
    2.5462    0.7790    0.0000 C   0  0  0  0  0  0  0  0  0  0  0  0
    3.9713    0.7980    0.0000 C   0  0  0  0  0  0  0  0  0  0  0  0
    4.6933    1.1781    0.0000 C   0  0  0  0  0  0  0  0  0  0  0  0
  1  9  1  0  0  0  0
  1 12  1  0  0  0  0
  9  2  1  6  0  0  0
  2 15  1  0  0  0  0
 10  3  1  1  0  0  0
 11  4  1  1  0  0  0
  5 14  1  0  0  0  0
  6 16  1  0  0  0  0
  6 17  1  0  0  0  0
  7 19  2  0  0  0  0
  8 18  1  0  0  0  0
  8 19  1  0  0  0  0
  9 10  1  0  0  0  0
 10 11  1  0  0  0  0
 11 13  1  0  0  0  0
 12 13  1  0  0  0  0
 12 14  1  1  0  0  0
 15 16  1  0  0  0  0
 17 18  1  0  0  0  0
 19 20  1  0  0  0  0
M  END
> <PUBCHEM_COMPOUND_ID_TYPE>
0

> <PUBCHEM_TOTAL_CHARGE>
0

> <PUBCHEM_SUBSTANCE_ID>
310948838

> <PUBCHEM_SUBSTANCE_VERSION>
1

> <PUBCHEM_EXT_DATASOURCE_NAME>
4488

> <PUBCHEM_EXT_DATASOURCE_REGID>
SCHEMBL16127022

> <PUBCHEM_SUBSTANCE_COMMENT>
InChI=1S/C12H23NO7/c1-8(15)13-2-3-18-4-5-19-12-11(17)10(16)6-9(7-14)20-12/h9-12,14,16-17H,2-7H2,1H3,(H,13,15)/t9-,10-,11-,12-/m0/s1
InChIKey=ONVIRUIIVFQZOX-BJDJZHNGSA-N

> <PUBCHEM_SUBSTANCE_SYNONYM>
SCHEMBL16127022

> <PUBCHEM_XREF_EXT_ID>
SCHEMBL16127022

> <PUBCHEM_EXT_DATASOURCE_URL>
https://www.surechembl.org/

> <PUBCHEM_EXT_SUBSTANCE_URL>
https://www.surechembl.org/chemical/SCHEMBL16127022

> <PUBCHEM_CID_ASSOCIATIONS>
117614375  1

> <PUBCHEM_COORDINATE_TYPE>
1
3

> <PUBCHEM_BONDANNOTATIONS>
12  14  5
9  2  6
10  3  5
11  4  5

$$$$
