310936487
  -OEChem-07211613022D

 23 25  0     0  0  0  0  0  0999 V2000
    3.1037   -7.7396    0.0000 O   0  0  0  0  0  0  0  0  0  0  0  0
    4.2430   -7.1110    0.0000 O   0  0  0  0  0  0  0  0  0  0  0  0
    0.8251   -1.6501    0.0000 O   0  0  0  0  0  0  0  0  0  0  0  0
    2.2394   -1.6501    0.0000 O   0  0  0  0  0  0  0  0  0  0  0  0
    1.5322   -2.8680    0.0000 N   0  0  0  0  0  0  0  0  0  0  0  0
    2.9466   -6.9539    0.0000 C   0  0  0  0  0  0  0  0  0  0  0  0
    3.6537   -6.5610    0.0000 C   0  0  0  0  0  0  0  0  0  0  0  0
    2.2394   -5.7359    0.0000 C   0  0  0  0  0  0  0  0  0  0  0  0
    2.2394   -6.5217    0.0000 C   0  0  0  0  0  0  0  0  0  0  0  0
    1.5322   -4.4787    0.0000 C   0  0  0  0  0  0  0  0  0  0  0  0
    3.6537   -5.6967    0.0000 C   0  0  0  0  0  0  0  0  0  0  0  0
    1.5322   -5.3038    0.0000 C   0  0  0  0  0  0  0  0  0  0  0  0
    2.9858   -5.3038    0.0000 C   0  0  0  0  0  0  0  0  0  0  0  0
    1.5322   -2.0429    0.0000 C   0  0  0  0  0  0  0  0  0  0  0  0
    3.9287   -7.8575    0.0000 C   0  0  0  0  0  0  0  0  0  0  0  0
    2.2394   -4.0859    0.0000 C   0  0  0  0  0  0  0  0  0  0  0  0
    0.8251   -4.0859    0.0000 C   0  0  0  0  0  0  0  0  0  0  0  0
    2.2394   -3.2609    0.0000 C   0  0  0  0  0  0  0  0  0  0  0  0
    0.8251   -3.2609    0.0000 C   0  0  0  0  0  0  0  0  0  0  0  0
    0.8251   -0.8251    0.0000 C   0  0  0  0  0  0  0  0  0  0  0  0
    1.6501   -0.8251    0.0000 C   0  0  0  0  0  0  0  0  0  0  0  0
    0.8251    0.0000    0.0000 C   0  0  0  0  0  0  0  0  0  0  0  0
    0.0000   -0.8251    0.0000 C   0  0  0  0  0  0  0  0  0  0  0  0
  1  6  1  0  0  0  0
  1 15  1  0  0  0  0
  2  7  1  0  0  0  0
  2 15  1  0  0  0  0
  3 14  1  0  0  0  0
  3 20  1  0  0  0  0
  4 14  2  0  0  0  0
  5 14  1  0  0  0  0
  5 18  1  0  0  0  0
  5 19  1  0  0  0  0
  6  7  2  0  0  0  0
  6  9  1  0  0  0  0
  7 11  1  0  0  0  0
  8  9  2  0  0  0  0
  8 12  1  0  0  0  0
  8 13  1  0  0  0  0
 10 12  1  0  0  0  0
 10 16  1  0  0  0  0
 10 17  1  0  0  0  0
 11 13  2  0  0  0  0
 16 18  1  0  0  0  0
 17 19  1  0  0  0  0
 20 21  1  0  0  0  0
 20 22  1  0  0  0  0
 20 23  1  0  0  0  0
M  END
> <PUBCHEM_COMPOUND_ID_TYPE>
0

> <PUBCHEM_TOTAL_CHARGE>
0

> <PUBCHEM_SUBSTANCE_ID>
310936487

> <PUBCHEM_SUBSTANCE_VERSION>
1

> <PUBCHEM_EXT_DATASOURCE_NAME>
4488

> <PUBCHEM_EXT_DATASOURCE_REGID>
SCHEMBL16114136

> <PUBCHEM_SUBSTANCE_COMMENT>
InChI=1S/C18H25NO4/c1-18(2,3)23-17(20)19-8-6-13(7-9-19)10-14-4-5-15-16(11-14)22-12-21-15/h4-5,11,13H,6-10,12H2,1-3H3
InChIKey=VZUIZLHOSPZYBX-UHFFFAOYSA-N

> <PUBCHEM_SUBSTANCE_SYNONYM>
SCHEMBL16114136

> <PUBCHEM_XREF_EXT_ID>
SCHEMBL16114136

> <PUBCHEM_EXT_DATASOURCE_URL>
https://www.surechembl.org/

> <PUBCHEM_EXT_SUBSTANCE_URL>
https://www.surechembl.org/chemical/SCHEMBL16114136

> <PUBCHEM_CID_ASSOCIATIONS>
117604415  1

> <PUBCHEM_COORDINATE_TYPE>
1
3

$$$$
