310932549
  -OEChem-07211613022D

 38 43  0     1  0  0  0  0  0999 V2000
    4.5376   -1.3407    0.0000 S   0  0  0  0  0  0  0  0  0  0  0  0
    1.2375   -4.2282    0.0000 F   0  0  0  0  0  0  0  0  0  0  0  0
    2.9219   -4.2282    0.0000 O   0  0  0  0  0  0  0  0  0  0  0  0
    0.3438    0.0000    0.0000 O   0  0  0  0  0  0  0  0  0  0  0  0
    6.1876   -2.7844    0.0000 O   0  0  0  0  0  0  0  0  0  0  0  0
    9.9001   -3.5063    0.0000 O   0  0  0  0  0  0  0  0  0  0  0  0
    4.5376   -2.7500    0.0000 N   0  0  0  0  0  0  0  0  0  0  0  0
    1.2719   -2.8188    0.0000 N   0  0  0  0  0  0  0  0  0  0  0  0
    6.1876   -4.1938    0.0000 N   0  0  0  0  0  0  0  0  0  0  0  0
    5.7751   -2.0625    0.0000 N   0  0  0  0  0  0  0  0  0  0  0  0
    7.8376   -4.1938    0.0000 N   0  0  0  0  0  0  0  0  0  0  0  0
    8.6282   -2.7844    0.0000 N   0  0  0  0  0  0  0  0  0  0  0  0
    3.7126   -2.7844    0.0000 C   0  0  3  0  0  0  0  0  0  0  0  0
    2.8875   -2.8188    0.0000 C   0  0  0  0  0  0  0  0  0  0  0  0
    4.1594   -3.5063    0.0000 C   0  0  0  0  0  0  0  0  0  0  0  0
    2.4750   -3.5063    0.0000 C   0  0  0  0  0  0  0  0  0  0  0  0
    3.7469   -4.2282    0.0000 C   0  0  0  0  0  0  0  0  0  0  0  0
    3.3344   -2.0625    0.0000 C   0  0  0  0  0  0  0  0  0  0  0  0
    2.4750   -2.0969    0.0000 C   0  0  0  0  0  0  0  0  0  0  0  0
    1.6500   -3.5407    0.0000 C   0  0  0  0  0  0  0  0  0  0  0  0
    4.9844   -3.5063    0.0000 C   0  0  0  0  0  0  0  0  0  0  0  0
    1.6844   -2.1313    0.0000 C   0  0  0  0  0  0  0  0  0  0  0  0
    4.1594   -4.9501    0.0000 C   0  0  0  0  0  0  0  0  0  0  0  0
    4.9501   -2.0625    0.0000 C   0  0  0  0  0  0  0  0  0  0  0  0
    5.3626   -4.1938    0.0000 C   0  0  0  0  0  0  0  0  0  0  0  0
    3.7126   -1.3750    0.0000 C   0  0  0  0  0  0  0  0  0  0  0  0
    4.9501   -4.9157    0.0000 C   0  0  0  0  0  0  0  0  0  0  0  0
    1.2375   -1.4094    0.0000 C   0  0  0  0  0  0  0  0  0  0  0  0
    1.6157   -0.6875    0.0000 C   0  0  0  0  0  0  0  0  0  0  0  0
    0.4125   -1.4094    0.0000 C   0  0  0  0  0  0  0  0  0  0  0  0
    6.6001   -3.5063    0.0000 C   0  0  0  0  0  0  0  0  0  0  0  0
    7.3907   -3.5063    0.0000 C   0  0  0  0  0  0  0  0  0  0  0  0
    1.2032    0.0000    0.0000 C   0  0  0  0  0  0  0  0  0  0  0  0
    0.0000   -0.7563    0.0000 C   0  0  0  0  0  0  0  0  0  0  0  0
    7.8376   -2.7844    0.0000 C   0  0  0  0  0  0  0  0  0  0  0  0
    9.0751   -3.5063    0.0000 C   0  0  0  0  0  0  0  0  0  0  0  0
    8.6282   -4.1938    0.0000 C   0  0  0  0  0  0  0  0  0  0  0  0
   10.3126   -2.7844    0.0000 C   0  0  0  0  0  0  0  0  0  0  0  0
  1 24  1  0  0  0  0
  1 26  1  0  0  0  0
  2 20  1  0  0  0  0
  3 16  1  0  0  0  0
  3 17  1  0  0  0  0
  4 33  1  0  0  0  0
  4 34  1  0  0  0  0
  5 31  2  0  0  0  0
  6 36  1  0  0  0  0
  6 38  1  0  0  0  0
 13  7  1  1  0  0  0
  7 24  2  0  0  0  0
  8 20  1  0  0  0  0
  8 22  2  0  0  0  0
  9 25  1  0  0  0  0
  9 31  1  0  0  0  0
 10 24  1  0  0  0  0
 11 32  2  0  0  0  0
 11 37  1  0  0  0  0
 12 35  2  0  0  0  0
 12 36  1  0  0  0  0
 13 14  1  0  0  0  0
 13 15  1  0  0  0  0
 13 18  1  0  0  0  0
 14 16  1  0  0  0  0
 14 19  2  0  0  0  0
 15 17  2  0  0  0  0
 15 21  1  0  0  0  0
 16 20  2  0  0  0  0
 17 23  1  0  0  0  0
 18 26  1  0  0  0  0
 19 22  1  0  0  0  0
 21 25  2  0  0  0  0
 22 28  1  0  0  0  0
 23 27  2  0  0  0  0
 25 27  1  0  0  0  0
 28 29  2  0  0  0  0
 28 30  1  0  0  0  0
 29 33  1  0  0  0  0
 30 34  1  0  0  0  0
 31 32  1  0  0  0  0
 32 35  1  0  0  0  0
 36 37  2  0  0  0  0
M  END
> <PUBCHEM_COMPOUND_ID_TYPE>
0

> <PUBCHEM_TOTAL_CHARGE>
0

> <PUBCHEM_SUBSTANCE_ID>
310932549

> <PUBCHEM_SUBSTANCE_VERSION>
1

> <PUBCHEM_EXT_DATASOURCE_NAME>
4488

> <PUBCHEM_EXT_DATASOURCE_REGID>
SCHEMBL16109926

> <PUBCHEM_SUBSTANCE_COMMENT>
InChI=1S/C26H23FN6O4S/c1-35-21-13-29-19(12-30-21)24(34)31-15-2-3-20-16(10-15)26(6-9-38-25(28)33-26)17-11-18(14-4-7-36-8-5-14)32-23(27)22(17)37-20/h2-4,10-13H,5-9H2,1H3,(H2,28,33)(H,31,34)/t26-/m0/s1
InChIKey=VCIRIEUMQQAGKR-SANMLTNESA-N

> <PUBCHEM_SUBSTANCE_SYNONYM>
SCHEMBL16109926

> <PUBCHEM_XREF_EXT_ID>
SCHEMBL16109926

> <PUBCHEM_EXT_DATASOURCE_URL>
https://www.surechembl.org/

> <PUBCHEM_EXT_SUBSTANCE_URL>
https://www.surechembl.org/chemical/SCHEMBL16109926

> <PUBCHEM_CID_ASSOCIATIONS>
71542875  1

> <PUBCHEM_COORDINATE_TYPE>
1
3

> <PUBCHEM_BONDANNOTATIONS>
13  7  5

$$$$
