310942508
  -OEChem-07211613022D

 43 48  0     1  0  0  0  0  0999 V2000
    1.8111    1.0729    0.0000 O   0  0  0  0  0  0  0  0  0  0  0  0
    2.3132   -1.0729    0.0000 O   0  0  0  0  0  0  0  0  0  0  0  0
    1.0653   -0.9968    0.0000 O   0  0  0  0  0  0  0  0  0  0  0  0
    3.2264    0.7533    0.0000 N   0  0  0  0  0  0  0  0  0  0  0  0
    3.9264   -0.6316    0.0000 N   0  0  0  0  0  0  0  0  0  0  0  0
   -0.3501    0.6316    0.0000 N   0  0  3  0  0  0  0  0  0  0  0  0
    5.3722   -0.5251    0.0000 N   0  0  0  0  0  0  0  0  0  0  0  0
    6.0267    0.7837    0.0000 N   0  0  0  0  0  0  0  0  0  0  0  0
   -2.7242   -0.8903    0.0000 N   0  0  0  0  0  0  0  0  0  0  0  0
   -3.3939   -2.0774    0.0000 N   0  0  0  0  0  0  0  0  0  0  0  0
    3.8960    0.2207    0.0000 C   0  0  0  0  0  0  0  0  0  0  0  0
    2.4350    0.5251    0.0000 C   0  0  3  0  0  0  0  0  0  0  0  0
    4.5657    0.6773    0.0000 C   0  0  0  0  0  0  0  0  0  0  0  0
    4.3374    1.4687    0.0000 C   0  0  0  0  0  0  0  0  0  0  0  0
    2.1003   -0.2359    0.0000 C   0  0  3  0  0  0  0  0  0  0  0  0
    3.5308    1.5295    0.0000 C   0  0  0  0  0  0  0  0  0  0  0  0
    1.0957    0.6621    0.0000 C   0  0  3  0  0  0  0  0  0  0  0  0
    1.2631   -0.1598    0.0000 C   0  0  3  0  0  0  0  0  0  0  0  0
    5.3418    0.3272    0.0000 C   0  0  0  0  0  0  0  0  0  0  0  0
    0.3653    1.0425    0.0000 C   0  0  0  0  0  0  0  0  0  0  0  0
   -0.5631   -0.2054    0.0000 C   0  0  0  0  0  0  0  0  0  0  0  0
    4.8701    2.1383    0.0000 C   0  0  0  0  0  0  0  0  0  0  0  0
    4.6723   -1.0121    0.0000 C   0  0  0  0  0  0  0  0  0  0  0  0
   -0.8370   -1.3164    0.0000 C   0  0  0  0  0  0  0  0  0  0  0  0
   -1.2480   -0.6164    0.0000 C   0  0  0  0  0  0  0  0  0  0  0  0
   -0.1522   -0.9207    0.0000 C   0  0  0  0  0  0  0  0  0  0  0  0
   -1.0957    1.0577    0.0000 C   0  0  0  0  0  0  0  0  0  0  0  0
   -3.5461   -0.7077    0.0000 C   0  0  0  0  0  0  0  0  0  0  0  0
   -3.9569   -1.4687    0.0000 C   0  0  0  0  0  0  0  0  0  0  0  0
   -2.6329   -1.7274    0.0000 C   0  0  0  0  0  0  0  0  0  0  0  0
   -4.7940    0.0076    0.0000 C   0  0  0  0  0  0  0  0  0  0  0  0
   -3.9569   -0.0229    0.0000 C   0  0  0  0  0  0  0  0  0  0  0  0
   -1.0653   -2.1383    0.0000 C   0  0  0  0  0  0  0  0  0  0  0  0
   -5.2201    0.7380    0.0000 C   0  0  0  0  0  0  0  0  0  0  0  0
   -1.9329   -2.1383    0.0000 C   0  0  0  0  0  0  0  0  0  0  0  0
   -4.7940   -1.4534    0.0000 C   0  0  0  0  0  0  0  0  0  0  0  0
    5.7071    2.0318    0.0000 C   0  0  0  0  0  0  0  0  0  0  0  0
   -5.1897   -0.7380    0.0000 C   0  0  0  0  0  0  0  0  0  0  0  0
   -1.0957    1.8796    0.0000 C   0  0  0  0  0  0  0  0  0  0  0  0
   -1.7655    0.6164    0.0000 C   0  0  0  0  0  0  0  0  0  0  0  0
   -6.0267    0.6925    0.0000 C   0  0  0  0  0  0  0  0  0  0  0  0
   -5.6462    1.4382    0.0000 C   0  0  0  0  0  0  0  0  0  0  0  0
   -4.8092    1.4382    0.0000 C   0  0  0  0  0  0  0  0  0  0  0  0
 12  1  1  1  0  0  0
  1 17  1  0  0  0  0
 15  2  1  6  0  0  0
 18  3  1  6  0  0  0
  4 11  1  0  0  0  0
  4 12  1  0  0  0  0
  4 16  1  0  0  0  0
  5 11  1  0  0  0  0
  5 23  2  0  0  0  0
  6 20  1  0  0  0  0
 21  6  1  1  0  0  0
  6 27  1  0  0  0  0
  7 19  2  0  0  0  0
  7 23  1  0  0  0  0
  8 19  1  0  0  0  0
  9 28  1  0  0  0  0
  9 30  2  0  0  0  0
 10 29  1  0  0  0  0
 10 30  1  0  0  0  0
 11 13  2  0  0  0  0
 12 15  1  0  0  0  0
 13 14  1  0  0  0  0
 13 19  1  0  0  0  0
 14 16  2  0  0  0  0
 14 22  1  0  0  0  0
 15 18  1  0  0  0  0
 17 18  1  0  0  0  0
 17 20  1  1  0  0  0
 21 25  1  0  0  0  0
 21 26  1  0  0  0  0
 22 37  1  0  0  0  0
 24 25  1  0  0  0  0
 24 26  1  0  0  0  0
 24 33  1  1  0  0  0
 27 39  1  0  0  0  0
 27 40  1  0  0  0  0
 28 29  2  0  0  0  0
 28 32  1  0  0  0  0
 29 36  1  0  0  0  0
 30 35  1  0  0  0  0
 31 32  2  0  0  0  0
 31 34  1  0  0  0  0
 31 38  1  0  0  0  0
 33 35  1  0  0  0  0
 34 41  1  0  0  0  0
 34 42  1  0  0  0  0
 34 43  1  0  0  0  0
 36 38  2  0  0  0  0
M  END
> <PUBCHEM_COMPOUND_ID_TYPE>
0

> <PUBCHEM_TOTAL_CHARGE>
0

> <PUBCHEM_SUBSTANCE_ID>
310942508

> <PUBCHEM_SUBSTANCE_VERSION>
1

> <PUBCHEM_EXT_DATASOURCE_NAME>
4488

> <PUBCHEM_EXT_DATASOURCE_REGID>
SCHEMBL16120544

> <PUBCHEM_SUBSTANCE_COMMENT>
InChI=1S/C33H47N7O3/c1-7-20-15-40(31-27(20)30(34)35-17-36-31)32-29(42)28(41)25(43-32)16-39(18(2)3)22-12-19(13-22)8-11-26-37-23-10-9-21(33(4,5)6)14-24(23)38-26/h9-10,14-15,17-19,22,25,28-29,32,41-42H,7-8,11-13,16H2,1-6H3,(H,37,38)(H2,34,35,36)/t19-,22+,25-,28-,29-,32-/m1/s1
InChIKey=IKCSLMOKJNWXGP-BHFADHLPSA-N

> <PUBCHEM_SUBSTANCE_SYNONYM>
SCHEMBL16120544

> <PUBCHEM_XREF_EXT_ID>
SCHEMBL16120544

> <PUBCHEM_EXT_DATASOURCE_URL>
https://www.surechembl.org/

> <PUBCHEM_EXT_SUBSTANCE_URL>
https://www.surechembl.org/chemical/SCHEMBL16120544

> <PUBCHEM_CID_ASSOCIATIONS>
86272337  1

> <PUBCHEM_COORDINATE_TYPE>
1
3

> <PUBCHEM_BONDANNOTATIONS>
12  1  5
17  20  5
15  2  6
24  33  5
18  3  6
21  6  5

$$$$
