310930155
  -OEChem-07211613022D

 21 22  0     0  0  0  0  0  0999 V2000
    1.2058   -6.3460    0.0000 Br  0  0  0  0  0  0  0  0  0  0  0  0
    4.0932   -4.2519    0.0000 O   0  0  0  0  0  0  0  0  0  0  0  0
    1.2375   -0.6981    0.0000 O   0  0  0  0  0  0  0  0  0  0  0  0
    4.0932   -5.6797    0.0000 O   0  0  0  0  0  0  0  0  0  0  0  0
    2.4749   -1.3962    0.0000 O   0  0  0  0  0  0  0  0  0  0  0  0
    0.4442   -3.5221    0.0000 N   0  0  0  0  0  0  0  0  0  0  0  0
    1.6500   -4.2201    0.0000 C   0  0  0  0  0  0  0  0  0  0  0  0
    1.2375   -3.5221    0.0000 C   0  0  0  0  0  0  0  0  0  0  0  0
    2.8557   -4.9499    0.0000 C   0  0  0  0  0  0  0  0  0  0  0  0
    2.4749   -4.2519    0.0000 C   0  0  0  0  0  0  0  0  0  0  0  0
    1.2375   -4.9499    0.0000 C   0  0  0  0  0  0  0  0  0  0  0  0
    1.2375   -2.1259    0.0000 C   0  0  0  0  0  0  0  0  0  0  0  0
    1.6817   -2.8240    0.0000 C   0  0  0  0  0  0  0  0  0  0  0  0
    1.6500   -5.6480    0.0000 C   0  0  0  0  0  0  0  0  0  0  0  0
    2.4432   -5.6480    0.0000 C   0  0  0  0  0  0  0  0  0  0  0  0
    3.6807   -4.9499    0.0000 C   0  0  0  0  0  0  0  0  0  0  0  0
    1.6500   -1.3962    0.0000 C   0  0  0  0  0  0  0  0  0  0  0  0
    0.4442   -2.1259    0.0000 C   0  0  0  0  0  0  0  0  0  0  0  0
    0.0000   -2.8240    0.0000 C   0  0  0  0  0  0  0  0  0  0  0  0
    4.9182   -4.2836    0.0000 C   0  0  0  0  0  0  0  0  0  0  0  0
    1.6500    0.0000    0.0000 C   0  0  0  0  0  0  0  0  0  0  0  0
  1 14  1  0  0  0  0
  2 16  1  0  0  0  0
  2 20  1  0  0  0  0
  3 17  1  0  0  0  0
  3 21  1  0  0  0  0
  4 16  2  0  0  0  0
  5 17  2  0  0  0  0
  6  8  1  0  0  0  0
  6 19  2  0  0  0  0
  7  8  1  0  0  0  0
  7 10  2  0  0  0  0
  7 11  1  0  0  0  0
  8 13  2  0  0  0  0
  9 10  1  0  0  0  0
  9 15  2  0  0  0  0
  9 16  1  0  0  0  0
 11 14  2  0  0  0  0
 12 13  1  0  0  0  0
 12 17  1  0  0  0  0
 12 18  2  0  0  0  0
 14 15  1  0  0  0  0
 18 19  1  0  0  0  0
M  END
> <PUBCHEM_COMPOUND_ID_TYPE>
0

> <PUBCHEM_TOTAL_CHARGE>
0

> <PUBCHEM_SUBSTANCE_ID>
310930155

> <PUBCHEM_SUBSTANCE_VERSION>
1

> <PUBCHEM_EXT_DATASOURCE_NAME>
4488

> <PUBCHEM_EXT_DATASOURCE_REGID>
SCHEMBL16107415

> <PUBCHEM_SUBSTANCE_COMMENT>
InChI=1S/C15H12BrNO4/c1-20-14(18)9-3-4-17-13(8-9)10-5-11(15(19)21-2)7-12(16)6-10/h3-8H,1-2H3
InChIKey=IQCQMLLZMPQHEO-UHFFFAOYSA-N

> <PUBCHEM_SUBSTANCE_SYNONYM>
SCHEMBL16107415

> <PUBCHEM_XREF_EXT_ID>
SCHEMBL16107415

> <PUBCHEM_EXT_DATASOURCE_URL>
https://www.surechembl.org/

> <PUBCHEM_EXT_SUBSTANCE_URL>
https://www.surechembl.org/chemical/SCHEMBL16107415

> <PUBCHEM_CID_ASSOCIATIONS>
117599379  1

> <PUBCHEM_COORDINATE_TYPE>
1
3

$$$$
