310948188
  -OEChem-07211613022D

 50 54  0     0  0  0  0  0  0999 V2000
    3.5261   -2.4783    0.0000 S   0  0  0  0  0  0  0  0  0  0  0  0
   -3.7630   -0.8929    0.0000 F   0  0  0  0  0  0  0  0  0  0  0  0
   -4.2186    0.0547    0.0000 F   0  0  0  0  0  0  0  0  0  0  0  0
    3.5261    0.3644    0.0000 F   0  0  0  0  0  0  0  0  0  0  0  0
    2.4509    0.2187    0.0000 F   0  0  0  0  0  0  0  0  0  0  0  0
    2.7608    3.1708    0.0000 F   0  0  0  0  0  0  0  0  0  0  0  0
    4.0910    2.6423    0.0000 F   0  0  0  0  0  0  0  0  0  0  0  0
   -1.4669    0.4373    0.0000 O   0  0  0  0  0  0  0  0  0  0  0  0
   -2.5603    0.9841    0.0000 O   0  0  0  0  0  0  0  0  0  0  0  0
    3.9452   -3.1708    0.0000 O   0  0  0  0  0  0  0  0  0  0  0  0
    2.7972   -2.8792    0.0000 O   0  0  0  0  0  0  0  0  0  0  0  0
    2.9612    1.7676    0.0000 O   0  0  0  0  0  0  0  0  0  0  0  0
    4.7653   -0.3463    0.0000 O   0  0  0  0  0  0  0  0  0  0  0  0
   -1.9589   -1.7129    0.0000 N   0  0  0  0  0  0  0  0  0  0  0  0
   -2.7425   -1.4578    0.0000 N   0  0  0  0  0  0  0  0  0  0  0  0
   -0.9203    1.6583    0.0000 N   0  0  0  0  0  0  0  0  0  0  0  0
   -3.9999    1.1298    0.0000 N   0  0  0  0  0  0  0  0  0  0  0  0
   -0.2278   -0.3280    0.0000 C   0  0  0  0  0  0  0  0  0  0  0  0
   -0.6287   -1.0569    0.0000 C   0  0  0  0  0  0  0  0  0  0  0  0
   -1.4669   -1.0205    0.0000 C   0  0  0  0  0  0  0  0  0  0  0  0
   -0.6469    0.3644    0.0000 C   0  0  0  0  0  0  0  0  0  0  0  0
   -0.2825    1.1116    0.0000 C   0  0  0  0  0  0  0  0  0  0  0  0
   -2.7243   -0.6196    0.0000 C   0  0  0  0  0  0  0  0  0  0  0  0
    1.0296   -1.0387    0.0000 C   0  0  0  0  0  0  0  0  0  0  0  0
    0.6287   -0.3644    0.0000 C   0  0  0  0  0  0  0  0  0  0  0  0
   -3.4168   -0.1458    0.0000 C   0  0  0  0  0  0  0  0  0  0  0  0
   -1.9407   -0.3827    0.0000 C   0  0  0  0  0  0  0  0  0  0  0  0
    1.8679   -1.0569    0.0000 C   0  0  0  0  0  0  0  0  0  0  0  0
   -0.2096   -1.7493    0.0000 C   0  0  0  0  0  0  0  0  0  0  0  0
    0.5194    1.2756    0.0000 C   0  0  0  0  0  0  0  0  0  0  0  0
    0.6104   -1.7493    0.0000 C   0  0  0  0  0  0  0  0  0  0  0  0
   -1.6309    1.2391    0.0000 C   0  0  0  0  0  0  0  0  0  0  0  0
    3.1252   -1.7493    0.0000 C   0  0  0  0  0  0  0  0  0  0  0  0
   -3.3257    0.6560    0.0000 C   0  0  0  0  0  0  0  0  0  0  0  0
    2.2870   -1.7493    0.0000 C   0  0  0  0  0  0  0  0  0  0  0  0
    3.5079   -1.0387    0.0000 C   0  0  0  0  0  0  0  0  0  0  0  0
    2.2870   -0.3463    0.0000 C   0  0  0  0  0  0  0  0  0  0  0  0
    3.1070   -0.3463    0.0000 C   0  0  0  0  0  0  0  0  0  0  0  0
    1.0843    0.6742    0.0000 C   0  0  0  0  0  0  0  0  0  0  0  0
    0.7927    2.0410    0.0000 C   0  0  0  0  0  0  0  0  0  0  0  0
   -1.6674   -2.5147    0.0000 C   0  0  0  0  0  0  0  0  0  0  0  0
    1.9043    0.8200    0.0000 C   0  0  0  0  0  0  0  0  0  0  0  0
    2.1594    1.6036    0.0000 C   0  0  0  0  0  0  0  0  0  0  0  0
    1.6127    2.2049    0.0000 C   0  0  0  0  0  0  0  0  0  0  0  0
    4.3643   -1.0387    0.0000 C   0  0  0  0  0  0  0  0  0  0  0  0
   -2.3963    1.5490    0.0000 C   0  0  0  0  0  0  0  0  0  0  0  0
    4.2914   -2.0410    0.0000 C   0  0  0  0  0  0  0  0  0  0  0  0
   -3.9270    1.9681    0.0000 C   0  0  0  0  0  0  0  0  0  0  0  0
   -4.7653    0.7836    0.0000 C   0  0  0  0  0  0  0  0  0  0  0  0
    3.2892    2.5330    0.0000 C   0  0  0  0  0  0  0  0  0  0  0  0
  1 10  2  0  0  0  0
  1 11  2  0  0  0  0
  1 33  1  0  0  0  0
  1 47  1  0  0  0  0
  2 26  1  0  0  0  0
  3 26  1  0  0  0  0
  4 38  1  0  0  0  0
  5 42  1  0  0  0  0
  6 50  1  0  0  0  0
  7 50  1  0  0  0  0
  8 21  1  0  0  0  0
  8 32  1  0  0  0  0
  9 34  2  0  0  0  0
 12 43  1  0  0  0  0
 12 50  1  0  0  0  0
 13 45  1  0  0  0  0
 14 15  1  0  0  0  0
 14 20  1  0  0  0  0
 14 41  1  0  0  0  0
 15 23  2  0  0  0  0
 16 22  1  0  0  0  0
 16 32  2  0  0  0  0
 17 34  1  0  0  0  0
 17 48  1  0  0  0  0
 17 49  1  0  0  0  0
 18 19  1  0  0  0  0
 18 21  1  0  0  0  0
 18 25  2  0  0  0  0
 19 20  1  0  0  0  0
 19 29  2  0  0  0  0
 20 27  2  0  0  0  0
 21 22  2  0  0  0  0
 22 30  1  0  0  0  0
 23 26  1  0  0  0  0
 23 27  1  0  0  0  0
 24 25  1  0  0  0  0
 24 28  1  0  0  0  0
 24 31  2  0  0  0  0
 26 34  1  0  0  0  0
 28 35  2  0  0  0  0
 28 37  1  0  0  0  0
 29 31  1  0  0  0  0
 30 39  1  0  0  0  0
 30 40  2  0  0  0  0
 32 46  1  0  0  0  0
 33 35  1  0  0  0  0
 33 36  2  0  0  0  0
 36 38  1  0  0  0  0
 36 45  1  0  0  0  0
 37 38  2  0  0  0  0
 39 42  2  0  0  0  0
 40 44  1  0  0  0  0
 42 43  1  0  0  0  0
 43 44  2  0  0  0  0
M  END
> <PUBCHEM_COMPOUND_ID_TYPE>
0

> <PUBCHEM_TOTAL_CHARGE>
0

> <PUBCHEM_SUBSTANCE_ID>
310948188

> <PUBCHEM_SUBSTANCE_VERSION>
1

> <PUBCHEM_EXT_DATASOURCE_NAME>
4488

> <PUBCHEM_EXT_DATASOURCE_REGID>
SCHEMBL16126365

> <PUBCHEM_SUBSTANCE_COMMENT>
InChI=1S/C33H28F6N4O6S/c1-16-40-29(18-7-9-26(24(35)11-18)49-32(36)37)30(48-16)21-10-17(19-12-23(34)22(15-44)27(13-19)50(5,46)47)6-8-20(21)25-14-28(41-43(25)4)33(38,39)31(45)42(2)3/h6-14,32,44H,15H2,1-5H3
InChIKey=SVLMNKYVMYENGT-UHFFFAOYSA-N

> <PUBCHEM_SUBSTANCE_SYNONYM>
SCHEMBL16126365

> <PUBCHEM_XREF_EXT_ID>
SCHEMBL16126365

> <PUBCHEM_EXT_DATASOURCE_URL>
https://www.surechembl.org/

> <PUBCHEM_EXT_SUBSTANCE_URL>
https://www.surechembl.org/chemical/SCHEMBL16126365

> <PUBCHEM_CID_ASSOCIATIONS>
86276034  1

> <PUBCHEM_COORDINATE_TYPE>
1
3

$$$$
