310940076
  -OEChem-07211613022D

 24 27  0     1  0  0  0  0  0999 V2000
    3.7702   -0.3403    0.0000 O   0  0  0  0  0  0  0  0  0  0  0  0
    3.6978   -1.7222    0.0000 O   0  0  0  0  0  0  0  0  0  0  0  0
    0.3572    1.3097    0.0000 O   0  0  0  0  0  0  0  0  0  0  0  0
   -1.0717    0.4847    0.0000 N   0  0  3  0  0  0  0  0  0  0  0  0
   -3.0919    0.7396    0.0000 N   0  0  0  0  0  0  0  0  0  0  0  0
    2.5006    0.0722    0.0000 C   0  0  0  0  0  0  0  0  0  0  0  0
    2.5006   -0.7528    0.0000 C   0  0  0  0  0  0  0  0  0  0  0  0
    1.7862    0.4847    0.0000 C   0  0  0  0  0  0  0  0  0  0  0  0
    1.0717    0.0722    0.0000 C   0  0  0  0  0  0  0  0  0  0  0  0
   -2.5006    0.4847    0.0000 C   0  0  3  0  0  0  0  0  0  0  0  0
    3.2853   -1.0077    0.0000 C   0  0  0  0  0  0  0  0  0  0  0  0
    0.3572    0.4847    0.0000 C   0  0  3  0  0  0  0  0  0  0  0  0
    1.7862   -1.1653    0.0000 C   0  0  0  0  0  0  0  0  0  0  0  0
    3.2853    0.3271    0.0000 C   0  0  0  0  0  0  0  0  0  0  0  0
    1.0717   -0.7528    0.0000 C   0  0  0  0  0  0  0  0  0  0  0  0
   -1.7862    0.0722    0.0000 C   0  0  0  0  0  0  0  0  0  0  0  0
   -0.3572    0.0722    0.0000 C   0  0  0  0  0  0  0  0  0  0  0  0
   -2.5006    1.3097    0.0000 C   0  0  0  0  0  0  0  0  0  0  0  0
   -2.5006   -0.3403    0.0000 C   0  0  0  0  0  0  0  0  0  0  0  0
   -1.0717    1.3097    0.0000 C   0  0  0  0  0  0  0  0  0  0  0  0
    1.7862    1.3097    0.0000 C   0  0  0  0  0  0  0  0  0  0  0  0
   -1.7862    1.7222    0.0000 C   0  0  0  0  0  0  0  0  0  0  0  0
   -3.7702    0.0722    0.0000 C   0  0  0  0  0  0  0  0  0  0  0  0
   -3.2853   -0.5952    0.0000 C   0  0  0  0  0  0  0  0  0  0  0  0
  1 11  1  0  0  0  0
  1 14  1  0  0  0  0
  2 11  2  0  0  0  0
 12  3  1  6  0  0  0
  4 16  1  0  0  0  0
  4 17  1  0  0  0  0
  4 20  1  0  0  0  0
  5 10  1  0  0  0  0
  5 23  1  0  0  0  0
  6  7  1  0  0  0  0
  6  8  2  0  0  0  0
  6 14  1  0  0  0  0
  7 11  1  0  0  0  0
  7 13  2  0  0  0  0
  8  9  1  0  0  0  0
  8 21  1  0  0  0  0
  9 12  1  0  0  0  0
  9 15  2  0  0  0  0
 10 16  1  0  0  0  0
 10 18  1  0  0  0  0
 10 19  1  0  0  0  0
 12 17  1  0  0  0  0
 13 15  1  0  0  0  0
 18 22  1  0  0  0  0
 19 24  1  0  0  0  0
 20 22  1  0  0  0  0
 23 24  1  0  0  0  0
M  END
> <PUBCHEM_COMPOUND_ID_TYPE>
0

> <PUBCHEM_TOTAL_CHARGE>
0

> <PUBCHEM_SUBSTANCE_ID>
310940076

> <PUBCHEM_SUBSTANCE_VERSION>
1

> <PUBCHEM_EXT_DATASOURCE_NAME>
4488

> <PUBCHEM_EXT_DATASOURCE_REGID>
SCHEMBL16118007

> <PUBCHEM_SUBSTANCE_COMMENT>
InChI=1S/C19H26N2O3/c1-13-14(4-5-15-16(13)11-24-18(15)23)17(22)10-21-9-3-7-19(12-21)6-2-8-20-19/h4-5,17,20,22H,2-3,6-12H2,1H3/t17-,19?/m0/s1
InChIKey=LHGQPDURHLRZPJ-KKFHFHRHSA-N

> <PUBCHEM_SUBSTANCE_SYNONYM>
SCHEMBL16118007

> <PUBCHEM_XREF_EXT_ID>
SCHEMBL16118007

> <PUBCHEM_EXT_DATASOURCE_URL>
https://www.surechembl.org/

> <PUBCHEM_EXT_SUBSTANCE_URL>
https://www.surechembl.org/chemical/SCHEMBL16118007

> <PUBCHEM_CID_ASSOCIATIONS>
117607218  1

> <PUBCHEM_COORDINATE_TYPE>
1
3

> <PUBCHEM_BONDANNOTATIONS>
12  3  6

$$$$
