310930991
  -OEChem-07211613022D

 32 36  0     0  0  0  0  0  0999 V2000
    2.4265   -6.8913    0.0000 S   0  0  0  0  0  0  0  0  0  0  0  0
    3.2030   -6.4545    0.0000 O   0  0  0  0  0  0  0  0  0  0  0  0
    1.7471   -7.2795    0.0000 O   0  0  0  0  0  0  0  0  0  0  0  0
    0.0000   -2.7177    0.0000 O   0  0  0  0  0  0  0  0  0  0  0  0
    4.1251   -9.6090    0.0000 N   0  0  0  0  0  0  0  0  0  0  0  0
    4.9015   -9.3178    0.0000 N   0  0  0  0  0  0  0  0  0  0  0  0
    2.4265   -1.3103    0.0000 N   0  0  0  0  0  0  0  0  0  0  0  0
    2.5721    0.0000    0.0000 N   0  0  0  0  0  0  0  0  0  0  0  0
    1.2132   -3.3971    0.0000 N   0  0  0  0  0  0  0  0  0  0  0  0
    2.8148   -7.6192    0.0000 C   0  0  0  0  0  0  0  0  0  0  0  0
    2.0383   -6.2119    0.0000 C   0  0  0  0  0  0  0  0  0  0  0  0
    4.0280   -8.2987    0.0000 C   0  0  0  0  0  0  0  0  0  0  0  0
    3.5912   -9.0266    0.0000 C   0  0  0  0  0  0  0  0  0  0  0  0
    3.5912   -7.6192    0.0000 C   0  0  0  0  0  0  0  0  0  0  0  0
    2.4265   -8.3472    0.0000 C   0  0  0  0  0  0  0  0  0  0  0  0
    2.7662   -9.0266    0.0000 C   0  0  0  0  0  0  0  0  0  0  0  0
    4.8045   -8.4928    0.0000 C   0  0  0  0  0  0  0  0  0  0  0  0
    2.4265   -5.5324    0.0000 C   0  0  0  0  0  0  0  0  0  0  0  0
    1.2132   -6.2119    0.0000 C   0  0  0  0  0  0  0  0  0  0  0  0
    1.2132   -4.8045    0.0000 C   0  0  0  0  0  0  0  0  0  0  0  0
    2.0383   -0.6309    0.0000 C   0  0  0  0  0  0  0  0  0  0  0  0
    1.2132   -2.0383    0.0000 C   0  0  0  0  0  0  0  0  0  0  0  0
    2.0383   -4.8045    0.0000 C   0  0  0  0  0  0  0  0  0  0  0  0
    0.8250   -5.5324    0.0000 C   0  0  0  0  0  0  0  0  0  0  0  0
    2.0383   -2.0383    0.0000 C   0  0  0  0  0  0  0  0  0  0  0  0
    0.8250   -2.7177    0.0000 C   0  0  0  0  0  0  0  0  0  0  0  0
    1.2132   -0.6309    0.0000 C   0  0  0  0  0  0  0  0  0  0  0  0
    0.8250   -1.3103    0.0000 C   0  0  0  0  0  0  0  0  0  0  0  0
    3.2515   -1.1162    0.0000 C   0  0  0  0  0  0  0  0  0  0  0  0
    0.8250   -4.1251    0.0000 C   0  0  0  0  0  0  0  0  0  0  0  0
    3.3001   -0.3397    0.0000 C   0  0  0  0  0  0  0  0  0  0  0  0
    5.5810   -9.7061    0.0000 C   0  0  0  0  0  0  0  0  0  0  0  0
  1  2  2  0  0  0  0
  1  3  2  0  0  0  0
  1 10  1  0  0  0  0
  1 11  1  0  0  0  0
  4 26  2  0  0  0  0
  5  6  1  0  0  0  0
  5 13  2  0  0  0  0
  6 17  1  0  0  0  0
  6 32  1  0  0  0  0
  7 21  1  0  0  0  0
  7 25  1  0  0  0  0
  7 29  1  0  0  0  0
  8 21  2  0  0  0  0
  8 31  1  0  0  0  0
  9 26  1  0  0  0  0
  9 30  1  0  0  0  0
 10 14  2  0  0  0  0
 10 15  1  0  0  0  0
 11 18  2  0  0  0  0
 11 19  1  0  0  0  0
 12 13  1  0  0  0  0
 12 14  1  0  0  0  0
 12 17  2  0  0  0  0
 13 16  1  0  0  0  0
 15 16  2  0  0  0  0
 18 23  1  0  0  0  0
 19 24  2  0  0  0  0
 20 23  2  0  0  0  0
 20 24  1  0  0  0  0
 20 30  1  0  0  0  0
 21 27  1  0  0  0  0
 22 25  2  0  0  0  0
 22 26  1  0  0  0  0
 22 28  1  0  0  0  0
 27 28  2  0  0  0  0
 29 31  2  0  0  0  0
M  END
> <PUBCHEM_COMPOUND_ID_TYPE>
0

> <PUBCHEM_TOTAL_CHARGE>
0

> <PUBCHEM_SUBSTANCE_ID>
310930991

> <PUBCHEM_SUBSTANCE_VERSION>
1

> <PUBCHEM_EXT_DATASOURCE_NAME>
4488

> <PUBCHEM_EXT_DATASOURCE_REGID>
SCHEMBL16108291

> <PUBCHEM_SUBSTANCE_COMMENT>
InChI=1S/C23H19N5O3S/c1-27-14-18-12-20(7-8-21(18)26-27)32(30,31)19-5-2-16(3-6-19)13-25-23(29)17-4-9-22-24-10-11-28(22)15-17/h2-12,14-15H,13H2,1H3,(H,25,29)
InChIKey=GHWFEICDEKWSSA-UHFFFAOYSA-N

> <PUBCHEM_SUBSTANCE_SYNONYM>
SCHEMBL16108291

> <PUBCHEM_XREF_EXT_ID>
SCHEMBL16108291

> <PUBCHEM_EXT_DATASOURCE_URL>
https://www.surechembl.org/

> <PUBCHEM_EXT_SUBSTANCE_URL>
https://www.surechembl.org/chemical/SCHEMBL16108291

> <PUBCHEM_CID_ASSOCIATIONS>
90033229  1

> <PUBCHEM_COORDINATE_TYPE>
1
3

$$$$
