310929869
  -OEChem-07211613022D

 39 42  0     1  0  0  0  0  0999 V2000
    5.2897   -4.0279    0.0000 F   0  0  0  0  0  0  0  0  0  0  0  0
    4.1249   -3.2514    0.0000 F   0  0  0  0  0  0  0  0  0  0  0  0
    4.8044   -4.7073    0.0000 F   0  0  0  0  0  0  0  0  0  0  0  0
    4.3676   -4.8044    0.0000 O   0  0  0  0  0  0  0  0  0  0  0  0
    1.4559   -6.1632    0.0000 O   0  0  0  0  0  0  0  0  0  0  0  0
    2.1353   -1.2132    0.0000 O   0  0  0  0  0  0  0  0  0  0  0  0
    1.4074    0.0000    0.0000 O   0  0  0  0  0  0  0  0  0  0  0  0
    2.5235   -8.9293    0.0000 O   0  0  0  0  0  0  0  0  0  0  0  0
    0.7279   -2.0382    0.0000 N   0  0  0  0  0  0  0  0  0  0  0  0
    0.0485   -2.5235    0.0000 N   0  0  0  0  0  0  0  0  0  0  0  0
    3.7367   -4.3191    0.0000 C   0  0  3  0  0  0  0  0  0  0  0  0
    2.9602   -4.5617    0.0000 C   0  0  0  0  0  0  0  0  0  0  0  0
    2.4749   -3.8823    0.0000 C   0  0  0  0  0  0  0  0  0  0  0  0
    3.7367   -3.4941    0.0000 C   0  0  0  0  0  0  0  0  0  0  0  0
    2.9602   -3.2514    0.0000 C   0  0  0  0  0  0  0  0  0  0  0  0
    4.4647   -3.9794    0.0000 C   0  0  0  0  0  0  0  0  0  0  0  0
    1.6014   -3.9794    0.0000 C   0  0  0  0  0  0  0  0  0  0  0  0
    2.6206   -5.3867    0.0000 C   0  0  0  0  0  0  0  0  0  0  0  0
    4.3191   -2.9602    0.0000 C   0  0  0  0  0  0  0  0  0  0  0  0
    1.1161   -3.3485    0.0000 C   0  0  0  0  0  0  0  0  0  0  0  0
    1.7956   -5.4352    0.0000 C   0  0  0  0  0  0  0  0  0  0  0  0
    2.8147   -2.4264    0.0000 C   0  0  0  0  0  0  0  0  0  0  0  0
    1.3103   -4.7558    0.0000 C   0  0  0  0  0  0  0  0  0  0  0  0
    4.1734   -2.1353    0.0000 C   0  0  0  0  0  0  0  0  0  0  0  0
    1.3588   -2.5235    0.0000 C   0  0  0  0  0  0  0  0  0  0  0  0
    3.3970   -1.8926    0.0000 C   0  0  0  0  0  0  0  0  0  0  0  0
    0.3397   -3.3485    0.0000 C   0  0  0  0  0  0  0  0  0  0  0  0
    0.7279   -1.2132    0.0000 C   0  0  0  0  0  0  0  0  0  0  0  0
    1.4074   -0.8250    0.0000 C   0  0  0  0  0  0  0  0  0  0  0  0
    1.9411   -6.8425    0.0000 C   0  0  0  0  0  0  0  0  0  0  0  0
    0.0000   -0.8250    0.0000 C   0  0  0  0  0  0  0  0  0  0  0  0
    0.0000   -1.6500    0.0000 C   0  0  0  0  0  0  0  0  0  0  0  0
    1.6014   -7.6190    0.0000 C   0  0  0  0  0  0  0  0  0  0  0  0
    2.8632   -0.8250    0.0000 C   0  0  0  0  0  0  0  0  0  0  0  0
    2.0867   -8.2499    0.0000 C   0  0  0  0  0  0  0  0  0  0  0  0
    1.7470   -9.0263    0.0000 C   0  0  0  0  0  0  0  0  0  0  0  0
    2.8632    0.0000    0.0000 C   0  0  0  0  0  0  0  0  0  0  0  0
    2.1838   -9.7057    0.0000 C   0  0  0  0  0  0  0  0  0  0  0  0
    0.9221   -9.1234    0.0000 C   0  0  0  0  0  0  0  0  0  0  0  0
  1 16  1  0  0  0  0
  2 16  1  0  0  0  0
  3 16  1  0  0  0  0
 11  4  1  1  0  0  0
  5 21  1  0  0  0  0
  5 30  1  0  0  0  0
  6 29  1  0  0  0  0
  6 34  1  0  0  0  0
  7 29  2  0  0  0  0
  8 36  1  0  0  0  0
  9 10  1  0  0  0  0
  9 25  1  0  0  0  0
  9 28  1  0  0  0  0
 10 27  2  0  0  0  0
 11 12  1  0  0  0  0
 11 14  1  0  0  0  0
 11 16  1  6  0  0  0
 12 13  2  0  0  0  0
 12 18  1  0  0  0  0
 13 15  1  0  0  0  0
 13 17  1  0  0  0  0
 14 15  2  0  0  0  0
 14 19  1  0  0  0  0
 15 22  1  0  0  0  0
 17 20  1  0  0  0  0
 17 23  2  0  0  0  0
 18 21  2  0  0  0  0
 19 24  2  0  0  0  0
 20 25  2  0  0  0  0
 20 27  1  0  0  0  0
 21 23  1  0  0  0  0
 22 26  2  0  0  0  0
 24 26  1  0  0  0  0
 28 29  1  0  0  0  0
 28 31  1  0  0  0  0
 28 32  1  0  0  0  0
 30 33  1  0  0  0  0
 33 35  1  0  0  0  0
 34 37  1  0  0  0  0
 35 36  1  0  0  0  0
 36 38  1  0  0  0  0
 36 39  1  0  0  0  0
M  END
> <PUBCHEM_COMPOUND_ID_TYPE>
0

> <PUBCHEM_TOTAL_CHARGE>
0

> <PUBCHEM_SUBSTANCE_ID>
310929869

> <PUBCHEM_SUBSTANCE_VERSION>
1

> <PUBCHEM_EXT_DATASOURCE_NAME>
4488

> <PUBCHEM_EXT_DATASOURCE_REGID>
SCHEMBL16107084

> <PUBCHEM_SUBSTANCE_COMMENT>
InChI=1S/C29H33F3N2O5/c1-6-38-25(35)27(4,5)34-17-18(16-33-34)21-14-19(39-13-9-12-26(2,3)36)15-23-24(21)20-10-7-8-11-22(20)28(23,37)29(30,31)32/h7-8,10-11,14-17,36-37H,6,9,12-13H2,1-5H3/t28-/m1/s1
InChIKey=OBMBVLHNIFMHHE-MUUNZHRXSA-N

> <PUBCHEM_SUBSTANCE_SYNONYM>
SCHEMBL16107084

> <PUBCHEM_XREF_EXT_ID>
SCHEMBL16107084

> <PUBCHEM_EXT_DATASOURCE_URL>
https://www.surechembl.org/

> <PUBCHEM_EXT_SUBSTANCE_URL>
https://www.surechembl.org/chemical/SCHEMBL16107084

> <PUBCHEM_CID_ASSOCIATIONS>
117599138  1

> <PUBCHEM_COORDINATE_TYPE>
1
3

> <PUBCHEM_BONDANNOTATIONS>
11  16  6
11  4  5

$$$$
