310937690
  -OEChem-07211613022D

 24 26  0     0  0  0  0  0  0999 V2000
    0.0000   -5.5653    0.0000 F   0  0  0  0  0  0  0  0  0  0  0  0
    1.2986   -6.1837    0.0000 F   0  0  0  0  0  0  0  0  0  0  0  0
    0.3401   -4.8233    0.0000 F   0  0  0  0  0  0  0  0  0  0  0  0
    6.3384   -3.0300    0.0000 F   0  0  0  0  0  0  0  0  0  0  0  0
    5.9982   -1.6387    0.0000 F   0  0  0  0  0  0  0  0  0  0  0  0
    6.5548   -2.2261    0.0000 F   0  0  0  0  0  0  0  0  0  0  0  0
    2.7517   -4.6069    0.0000 O   0  0  0  0  0  0  0  0  0  0  0  0
    4.3904   -2.0097    0.0000 O   0  0  0  0  0  0  0  0  0  0  0  0
    1.4841   -4.2049    0.0000 N   0  0  0  0  0  0  0  0  0  0  0  0
    2.2571   -5.2871    0.0000 N   0  0  0  0  0  0  0  0  0  0  0  0
    1.9788   -2.5663    0.0000 N   0  0  0  0  0  0  0  0  0  0  0  0
    2.2571   -3.9267    0.0000 C   0  0  0  0  0  0  0  0  0  0  0  0
    2.5353   -3.1537    0.0000 C   0  0  0  0  0  0  0  0  0  0  0  0
    1.4841   -5.0088    0.0000 C   0  0  0  0  0  0  0  0  0  0  0  0
    3.0300   -1.6078    0.0000 C   0  0  0  0  0  0  0  0  0  0  0  0
    3.5866   -2.1952    0.0000 C   0  0  0  0  0  0  0  0  0  0  0  0
    0.8039   -5.5036    0.0000 C   0  0  0  0  0  0  0  0  0  0  0  0
    3.2774   -0.8039    0.0000 C   0  0  0  0  0  0  0  0  0  0  0  0
    3.3392   -2.9991    0.0000 C   0  0  0  0  0  0  0  0  0  0  0  0
    2.1952   -1.7624    0.0000 C   0  0  0  0  0  0  0  0  0  0  0  0
    3.1228    0.0000    0.0000 C   0  0  0  0  0  0  0  0  0  0  0  0
    3.8957   -0.2473    0.0000 C   0  0  0  0  0  0  0  0  0  0  0  0
    4.9470   -2.5972    0.0000 C   0  0  0  0  0  0  0  0  0  0  0  0
    5.7509   -2.4116    0.0000 C   0  0  0  0  0  0  0  0  0  0  0  0
  1 17  1  0  0  0  0
  2 17  1  0  0  0  0
  3 17  1  0  0  0  0
  4 24  1  0  0  0  0
  5 24  1  0  0  0  0
  6 24  1  0  0  0  0
  7 10  1  0  0  0  0
  7 12  1  0  0  0  0
  8 16  1  0  0  0  0
  8 23  1  0  0  0  0
  9 12  2  0  0  0  0
  9 14  1  0  0  0  0
 10 14  2  0  0  0  0
 11 13  1  0  0  0  0
 11 20  2  0  0  0  0
 12 13  1  0  0  0  0
 13 19  2  0  0  0  0
 14 17  1  0  0  0  0
 15 16  2  0  0  0  0
 15 18  1  0  0  0  0
 15 20  1  0  0  0  0
 16 19  1  0  0  0  0
 18 21  1  0  0  0  0
 18 22  1  0  0  0  0
 21 22  1  0  0  0  0
 23 24  1  0  0  0  0
M  END
> <PUBCHEM_COMPOUND_ID_TYPE>
0

> <PUBCHEM_TOTAL_CHARGE>
0

> <PUBCHEM_SUBSTANCE_ID>
310937690

> <PUBCHEM_SUBSTANCE_VERSION>
1

> <PUBCHEM_EXT_DATASOURCE_NAME>
4488

> <PUBCHEM_EXT_DATASOURCE_REGID>
SCHEMBL16115482

> <PUBCHEM_SUBSTANCE_COMMENT>
InChI=1S/C13H9F6N3O2/c14-12(15,16)5-23-9-3-8(20-4-7(9)6-1-2-6)10-21-11(22-24-10)13(17,18)19/h3-4,6H,1-2,5H2
InChIKey=SOZHFYIMWLIKPE-UHFFFAOYSA-N

> <PUBCHEM_SUBSTANCE_SYNONYM>
SCHEMBL16115482

> <PUBCHEM_XREF_EXT_ID>
SCHEMBL16115482

> <PUBCHEM_EXT_DATASOURCE_URL>
https://www.surechembl.org/

> <PUBCHEM_EXT_SUBSTANCE_URL>
https://www.surechembl.org/chemical/SCHEMBL16115482

> <PUBCHEM_CID_ASSOCIATIONS>
86275959  1

> <PUBCHEM_COORDINATE_TYPE>
1
3

$$$$
