310933796
  -OEChem-07211613022D

 24 26  0     0  0  0  0  0  0999 V2000
    4.2388   -2.8448    0.0000 O   0  0  0  0  0  0  0  0  0  0  0  0
    5.6612   -2.8448    0.0000 O   0  0  0  0  0  0  0  0  0  0  0  0
    2.8733   -2.0483    0.0000 O   0  0  0  0  0  0  0  0  0  0  0  0
    3.5276   -3.2715    0.0000 N   0  0  0  0  0  0  0  0  0  0  0  0
    4.9500    0.0000    0.0000 N   0  0  0  0  0  0  0  0  0  0  0  0
    4.9500   -1.6215    0.0000 C   0  0  0  0  0  0  0  0  0  0  0  0
    4.2388   -2.0483    0.0000 C   0  0  0  0  0  0  0  0  0  0  0  0
    4.9500   -2.4465    0.0000 C   0  0  0  0  0  0  0  0  0  0  0  0
    5.6897   -1.2233    0.0000 C   0  0  0  0  0  0  0  0  0  0  0  0
    4.2673   -1.2233    0.0000 C   0  0  0  0  0  0  0  0  0  0  0  0
    2.8448   -2.8448    0.0000 C   0  0  0  0  0  0  0  0  0  0  0  0
    2.1336   -4.0681    0.0000 C   0  0  0  0  0  0  0  0  0  0  0  0
    4.4095   -3.0156    0.0000 C   0  0  0  0  0  0  0  0  0  0  0  0
    2.1052   -3.2431    0.0000 C   0  0  0  0  0  0  0  0  0  0  0  0
    3.5560   -4.0965    0.0000 C   0  0  0  0  0  0  0  0  0  0  0  0
    1.4224   -4.4664    0.0000 C   0  0  0  0  0  0  0  0  0  0  0  0
    2.8164   -4.4664    0.0000 C   0  0  0  0  0  0  0  0  0  0  0  0
    5.6897   -0.3983    0.0000 C   0  0  0  0  0  0  0  0  0  0  0  0
    4.2673   -0.3983    0.0000 C   0  0  0  0  0  0  0  0  0  0  0  0
    1.4224   -5.2914    0.0000 C   0  0  0  0  0  0  0  0  0  0  0  0
    0.7112   -4.0681    0.0000 C   0  0  0  0  0  0  0  0  0  0  0  0
    0.7112   -5.6897    0.0000 C   0  0  0  0  0  0  0  0  0  0  0  0
    0.0000   -4.4664    0.0000 C   0  0  0  0  0  0  0  0  0  0  0  0
    0.0000   -5.2914    0.0000 C   0  0  0  0  0  0  0  0  0  0  0  0
  1  8  2  0  0  0  0
  2  8  1  0  0  0  0
  3 11  2  0  0  0  0
  4 11  1  0  0  0  0
  4 13  1  0  0  0  0
  4 15  1  0  0  0  0
  5 18  1  0  0  0  0
  5 19  1  0  0  0  0
  6  7  1  0  0  0  0
  6  8  1  0  0  0  0
  6  9  1  0  0  0  0
  6 10  1  0  0  0  0
  7 13  1  0  0  0  0
  9 18  1  0  0  0  0
 10 19  1  0  0  0  0
 11 14  1  0  0  0  0
 12 14  2  0  0  0  0
 12 16  1  0  0  0  0
 12 17  1  0  0  0  0
 15 17  2  0  0  0  0
 16 20  2  0  0  0  0
 16 21  1  0  0  0  0
 20 22  1  0  0  0  0
 21 23  2  0  0  0  0
 22 24  2  0  0  0  0
 23 24  1  0  0  0  0
M  END
> <PUBCHEM_COMPOUND_ID_TYPE>
0

> <PUBCHEM_TOTAL_CHARGE>
0

> <PUBCHEM_SUBSTANCE_ID>
310933796

> <PUBCHEM_SUBSTANCE_VERSION>
1

> <PUBCHEM_EXT_DATASOURCE_NAME>
4488

> <PUBCHEM_EXT_DATASOURCE_REGID>
SCHEMBL16111234

> <PUBCHEM_SUBSTANCE_COMMENT>
InChI=1S/C19H22N2O3/c22-17-14-16(15-4-2-1-3-5-15)6-12-21(17)13-9-19(18(23)24)7-10-20-11-8-19/h1-6,12,14,20H,7-11,13H2,(H,23,24)
InChIKey=HLQJPQXGPBGJMG-UHFFFAOYSA-N

> <PUBCHEM_SUBSTANCE_SYNONYM>
SCHEMBL16111234

> <PUBCHEM_XREF_EXT_ID>
SCHEMBL16111234

> <PUBCHEM_EXT_DATASOURCE_URL>
https://www.surechembl.org/

> <PUBCHEM_EXT_SUBSTANCE_URL>
https://www.surechembl.org/chemical/SCHEMBL16111234

> <PUBCHEM_CID_ASSOCIATIONS>
117602145  1

> <PUBCHEM_COORDINATE_TYPE>
1
3

$$$$
