310946305
  -OEChem-07211613022D

 27 29  0     0  0  0  0  0  0999 V2000
   -1.7217   -7.9081    0.0000 I   0  0  0  0  0  0  0  0  0  0  0  0
   -0.2928   -5.4331    0.0000 I   0  0  0  0  0  0  0  0  0  0  0  0
   -1.7217   -6.2581    0.0000 O   0  0  0  0  0  0  0  0  0  0  0  0
    1.8506   -6.6706    0.0000 O   0  0  0  0  0  0  0  0  0  0  0  0
   -4.5796   -7.9081    0.0000 O   0  0  0  0  0  0  0  0  0  0  0  0
    4.7085   -7.4956    0.0000 O   0  0  0  0  0  0  0  0  0  0  0  0
    2.5651   -7.9081    0.0000 N   0  0  0  0  0  0  0  0  0  0  0  0
    3.9940   -8.7331    0.0000 N   0  0  0  0  0  0  0  0  0  0  0  0
   -1.0073   -6.6706    0.0000 C   0  0  0  0  0  0  0  0  0  0  0  0
   -1.0073   -7.4956    0.0000 C   0  0  0  0  0  0  0  0  0  0  0  0
   -0.2928   -6.2581    0.0000 C   0  0  0  0  0  0  0  0  0  0  0  0
    0.4217   -7.4956    0.0000 C   0  0  0  0  0  0  0  0  0  0  0  0
   -0.2928   -7.9081    0.0000 C   0  0  0  0  0  0  0  0  0  0  0  0
    0.4217   -6.6706    0.0000 C   0  0  0  0  0  0  0  0  0  0  0  0
    1.1362   -7.9081    0.0000 C   0  0  0  0  0  0  0  0  0  0  0  0
    1.8506   -7.4956    0.0000 C   0  0  0  0  0  0  0  0  0  0  0  0
   -2.4362   -6.6706    0.0000 C   0  0  0  0  0  0  0  0  0  0  0  0
    3.2796   -7.4956    0.0000 C   0  0  0  0  0  0  0  0  0  0  0  0
   -3.1507   -6.2581    0.0000 C   0  0  0  0  0  0  0  0  0  0  0  0
   -2.4362   -7.4956    0.0000 C   0  0  0  0  0  0  0  0  0  0  0  0
    2.5651   -8.7331    0.0000 C   0  0  0  0  0  0  0  0  0  0  0  0
    3.9940   -7.9081    0.0000 C   0  0  0  0  0  0  0  0  0  0  0  0
   -3.8651   -7.4956    0.0000 C   0  0  0  0  0  0  0  0  0  0  0  0
   -3.8651   -6.6706    0.0000 C   0  0  0  0  0  0  0  0  0  0  0  0
   -3.1507   -7.9081    0.0000 C   0  0  0  0  0  0  0  0  0  0  0  0
    3.2796   -9.1456    0.0000 C   0  0  0  0  0  0  0  0  0  0  0  0
   -4.5796   -8.7331    0.0000 C   0  0  0  0  0  0  0  0  0  0  0  0
  1 10  1  0  0  0  0
  2 11  1  0  0  0  0
  3  9  1  0  0  0  0
  3 17  1  0  0  0  0
  4 16  2  0  0  0  0
  5 23  1  0  0  0  0
  5 27  1  0  0  0  0
  6 22  2  0  0  0  0
  7 16  1  0  0  0  0
  7 18  1  0  0  0  0
  7 21  1  0  0  0  0
  8 22  1  0  0  0  0
  8 26  1  0  0  0  0
  9 10  2  0  0  0  0
  9 11  1  0  0  0  0
 10 13  1  0  0  0  0
 11 14  2  0  0  0  0
 12 13  2  0  0  0  0
 12 14  1  0  0  0  0
 12 15  1  0  0  0  0
 15 16  1  0  0  0  0
 17 19  2  0  0  0  0
 17 20  1  0  0  0  0
 18 22  1  0  0  0  0
 19 24  1  0  0  0  0
 20 25  2  0  0  0  0
 21 26  1  0  0  0  0
 23 24  2  0  0  0  0
 23 25  1  0  0  0  0
M  END
> <PUBCHEM_COMPOUND_ID_TYPE>
0

> <PUBCHEM_TOTAL_CHARGE>
0

> <PUBCHEM_SUBSTANCE_ID>
310946305

> <PUBCHEM_SUBSTANCE_VERSION>
1

> <PUBCHEM_EXT_DATASOURCE_NAME>
4488

> <PUBCHEM_EXT_DATASOURCE_REGID>
SCHEMBL16124424

> <PUBCHEM_SUBSTANCE_COMMENT>
InChI=1S/C19H18I2N2O4/c1-26-13-2-4-14(5-3-13)27-19-15(20)8-12(9-16(19)21)10-18(25)23-7-6-22-17(24)11-23/h2-5,8-9H,6-7,10-11H2,1H3,(H,22,24)
InChIKey=UILROWDGGRXATE-UHFFFAOYSA-N

> <PUBCHEM_SUBSTANCE_SYNONYM>
SCHEMBL16124424

> <PUBCHEM_XREF_EXT_ID>
SCHEMBL16124424

> <PUBCHEM_EXT_DATASOURCE_URL>
https://www.surechembl.org/

> <PUBCHEM_EXT_SUBSTANCE_URL>
https://www.surechembl.org/chemical/SCHEMBL16124424

> <PUBCHEM_CID_ASSOCIATIONS>
71487295  1

> <PUBCHEM_COORDINATE_TYPE>
1
3

$$$$
