310944048
  -OEChem-07211613022D

 14 15  0     0  0  0  0  0  0999 V2000
    2.4585    0.7159    0.0000 O   0  0  0  0  0  0  0  0  0  0  0  0
   -1.1488   -0.5161    0.0000 N   0  0  0  0  0  0  0  0  0  0  0  0
   -1.9036   -0.1831    0.0000 N   0  0  0  0  0  0  0  0  0  0  0  0
   -2.4585   -0.7936    0.0000 N   0  0  0  0  0  0  0  0  0  0  0  0
   -2.0478   -1.5151    0.0000 N   0  0  0  0  0  0  0  0  0  0  0  0
   -0.4384   -0.1055    0.0000 C   0  0  0  0  0  0  0  0  0  0  0  0
    0.2941   -0.5161    0.0000 C   0  0  0  0  0  0  0  0  0  0  0  0
    1.0045   -0.1055    0.0000 C   0  0  0  0  0  0  0  0  0  0  0  0
    1.0156    0.7159    0.0000 C   0  0  0  0  0  0  0  0  0  0  0  0
   -0.4163    0.7159    0.0000 C   0  0  0  0  0  0  0  0  0  0  0  0
   -1.2375   -1.3375    0.0000 C   0  0  0  0  0  0  0  0  0  0  0  0
    0.2830    1.1155    0.0000 C   0  0  0  0  0  0  0  0  0  0  0  0
    2.4585    1.5151    0.0000 C   0  0  0  0  0  0  0  0  0  0  0  0
    1.7593   -0.5273    0.0000 C   0  0  0  0  0  0  0  0  0  0  0  0
  1 13  1  0  0  0  0
  2  3  1  0  0  0  0
  2  6  1  0  0  0  0
  2 11  1  0  0  0  0
  3  4  2  0  0  0  0
  4  5  1  0  0  0  0
  5 11  2  0  0  0  0
  6  7  1  0  0  0  0
  6 10  2  0  0  0  0
  7  8  2  0  0  0  0
  8  9  1  0  0  0  0
  8 14  1  0  0  0  0
  9 12  2  0  0  0  0
  9 13  1  0  0  0  0
 10 12  1  0  0  0  0
M  END
> <PUBCHEM_COMPOUND_ID_TYPE>
0

> <PUBCHEM_TOTAL_CHARGE>
0

> <PUBCHEM_SUBSTANCE_ID>
310944048

> <PUBCHEM_SUBSTANCE_VERSION>
1

> <PUBCHEM_EXT_DATASOURCE_NAME>
4488

> <PUBCHEM_EXT_DATASOURCE_REGID>
SCHEMBL16122121

> <PUBCHEM_SUBSTANCE_COMMENT>
InChI=1S/C9H10N4O/c1-7-4-9(3-2-8(7)5-14)13-6-10-11-12-13/h2-4,6,14H,5H2,1H3
InChIKey=UEQNPAMVJDZDKK-UHFFFAOYSA-N

> <PUBCHEM_SUBSTANCE_SYNONYM>
SCHEMBL16122121

> <PUBCHEM_XREF_EXT_ID>
SCHEMBL16122121

> <PUBCHEM_EXT_DATASOURCE_URL>
https://www.surechembl.org/

> <PUBCHEM_EXT_SUBSTANCE_URL>
https://www.surechembl.org/chemical/SCHEMBL16122121

> <PUBCHEM_CID_ASSOCIATIONS>
117610344  1

> <PUBCHEM_COORDINATE_TYPE>
1
3

$$$$
