310942977
  -OEChem-07211613022D

 35 39  0     1  0  0  0  0  0999 V2000
   -1.7364   -2.4450    0.0000 S   0  0  0  0  0  0  0  0  0  0  0  0
   -2.3594   -1.8999    0.0000 O   0  0  0  0  0  0  0  0  0  0  0  0
   -2.2814   -3.0679    0.0000 O   0  0  0  0  0  0  0  0  0  0  0  0
   -1.3004   -0.1713    0.0000 O   0  0  0  0  0  0  0  0  0  0  0  0
    0.1168    4.3605    0.0000 O   0  0  0  0  0  0  0  0  0  0  0  0
    0.1791    2.1647    0.0000 N   0  0  0  0  0  0  0  0  0  0  0  0
   -1.1135   -2.9901    0.0000 N   0  0  3  0  0  0  0  0  0  0  0  0
    0.6775    1.4950    0.0000 N   0  0  0  0  0  0  0  0  0  0  0  0
    0.4594    0.0312    0.0000 N   0  0  0  0  0  0  0  0  0  0  0  0
   -2.0323    1.0590    0.0000 N   0  0  0  0  0  0  0  0  0  0  0  0
    2.3594    1.9155    0.0000 N   0  0  0  0  0  0  0  0  0  0  0  0
   -0.6151    1.0746    0.0000 C   0  0  0  0  0  0  0  0  0  0  0  0
   -0.5840    1.9155    0.0000 C   0  0  0  0  0  0  0  0  0  0  0  0
    0.1791    0.8098    0.0000 C   0  0  0  0  0  0  0  0  0  0  0  0
    0.4283    2.9745    0.0000 C   0  0  3  0  0  0  0  0  0  0  0  0
   -1.2069   -3.8154    0.0000 C   0  0  0  0  0  0  0  0  0  0  0  0
   -1.3160    0.6697    0.0000 C   0  0  0  0  0  0  0  0  0  0  0  0
   -1.1758   -1.8065    0.0000 C   0  0  0  0  0  0  0  0  0  0  0  0
   -1.3471    2.3048    0.0000 C   0  0  0  0  0  0  0  0  0  0  0  0
   -0.1012   -0.5762    0.0000 C   0  0  0  0  0  0  0  0  0  0  0  0
    1.2225    3.1302    0.0000 C   0  0  3  0  0  0  0  0  0  0  0  0
   -0.3037   -2.8187    0.0000 C   0  0  0  0  0  0  0  0  0  0  0  0
   -0.4283   -4.1269    0.0000 C   0  0  0  0  0  0  0  0  0  0  0  0
   -1.4405   -1.0434    0.0000 C   0  0  0  0  0  0  0  0  0  0  0  0
   -0.3815   -1.9778    0.0000 C   0  0  0  0  0  0  0  0  0  0  0  0
   -2.0167    1.8999    0.0000 C   0  0  0  0  0  0  0  0  0  0  0  0
   -0.1324    3.5662    0.0000 C   0  0  0  0  0  0  0  0  0  0  0  0
   -0.9110   -0.4205    0.0000 C   0  0  0  0  0  0  0  0  0  0  0  0
    0.1635   -1.3704    0.0000 C   0  0  0  0  0  0  0  0  0  0  0  0
    0.1012   -3.5040    0.0000 C   0  0  0  0  0  0  0  0  0  0  0  0
   -2.0323   -3.8154    0.0000 C   0  0  0  0  0  0  0  0  0  0  0  0
   -1.5807   -4.5474    0.0000 C   0  0  0  0  0  0  0  0  0  0  0  0
    1.4717    3.9400    0.0000 C   0  0  0  0  0  0  0  0  0  0  0  0
    1.7831    2.5072    0.0000 C   0  0  0  0  0  0  0  0  0  0  0  0
    0.9110    4.5474    0.0000 C   0  0  0  0  0  0  0  0  0  0  0  0
  1  2  2  0  0  0  0
  1  3  2  0  0  0  0
  1  7  1  0  0  0  0
  1 18  1  0  0  0  0
  4 17  2  0  0  0  0
  5 27  1  0  0  0  0
  5 35  1  0  0  0  0
  6  8  1  0  0  0  0
  6 13  1  0  0  0  0
 15  6  1  1  0  0  0
  7 16  1  0  0  0  0
  7 22  1  0  0  0  0
  8 14  2  0  0  0  0
  9 14  1  0  0  0  0
  9 20  1  0  0  0  0
 10 17  1  0  0  0  0
 10 26  1  0  0  0  0
 11 34  3  0  0  0  0
 12 13  2  0  0  0  0
 12 14  1  0  0  0  0
 12 17  1  0  0  0  0
 13 19  1  0  0  0  0
 15 21  1  0  0  0  0
 15 27  1  0  0  0  0
 16 23  1  0  0  0  0
 16 31  1  0  0  0  0
 16 32  1  0  0  0  0
 18 24  2  0  0  0  0
 18 25  1  0  0  0  0
 19 26  2  0  0  0  0
 20 28  2  0  0  0  0
 20 29  1  0  0  0  0
 21 33  1  0  0  0  0
 21 34  1  6  0  0  0
 22 30  1  0  0  0  0
 23 30  1  0  0  0  0
 24 28  1  0  0  0  0
 25 29  2  0  0  0  0
 33 35  1  0  0  0  0
M  END
> <PUBCHEM_COMPOUND_ID_TYPE>
0

> <PUBCHEM_TOTAL_CHARGE>
0

> <PUBCHEM_SUBSTANCE_ID>
310942977

> <PUBCHEM_SUBSTANCE_VERSION>
1

> <PUBCHEM_EXT_DATASOURCE_NAME>
4488

> <PUBCHEM_EXT_DATASOURCE_REGID>
SCHEMBL16121036

> <PUBCHEM_SUBSTANCE_COMMENT>
InChI=1S/C24H28N6O4S/c1-24(2)10-3-12-29(24)35(32,33)18-6-4-17(5-7-18)27-22-21-19(8-11-26-23(21)31)30(28-22)20-15-34-13-9-16(20)14-25/h4-8,11,16,20H,3,9-10,12-13,15H2,1-2H3,(H,26,31)(H,27,28)/t16-,20+/m1/s1
InChIKey=NKAVHSSKHLLZAC-UZLBHIALSA-N

> <PUBCHEM_SUBSTANCE_SYNONYM>
SCHEMBL16121036

> <PUBCHEM_XREF_EXT_ID>
SCHEMBL16121036

> <PUBCHEM_EXT_DATASOURCE_URL>
https://www.surechembl.org/

> <PUBCHEM_EXT_SUBSTANCE_URL>
https://www.surechembl.org/chemical/SCHEMBL16121036

> <PUBCHEM_CID_ASSOCIATIONS>
117609439  1

> <PUBCHEM_COORDINATE_TYPE>
1
3

> <PUBCHEM_BONDANNOTATIONS>
21  34  6
15  6  5

$$$$
