310941441
  -OEChem-07211613022D

 36 40  0     1  0  0  0  0  0999 V2000
   -0.4327    3.7090    0.0000 F   0  0  0  0  0  0  0  0  0  0  0  0
   -0.4451    2.0647    0.0000 O   0  0  0  0  0  0  0  0  0  0  0  0
    0.2967    0.8284    0.0000 N   0  0  0  0  0  0  0  0  0  0  0  0
   -0.4204   -0.4080    0.0000 N   0  0  0  0  0  0  0  0  0  0  0  0
    1.1251   -1.2363    0.0000 N   0  0  0  0  0  0  0  0  0  0  0  0
    1.7185   -2.4726    0.0000 N   0  0  0  0  0  0  0  0  0  0  0  0
   -2.5592    3.3010    0.0000 N   0  0  0  0  0  0  0  0  0  0  0  0
    1.0014   -3.7090    0.0000 N   0  0  0  0  0  0  0  0  0  0  0  0
    2.5592   -3.7090    0.0000 N   0  0  0  0  0  0  0  0  0  0  0  0
   -1.1374   -1.6938    0.0000 N   0  0  0  0  0  0  0  0  0  0  0  0
   -1.1374    0.8284    0.0000 C   0  0  0  0  0  0  0  0  0  0  0  0
   -0.4451    1.2240    0.0000 C   0  0  0  0  0  0  0  0  0  0  0  0
    0.2843    0.0000    0.0000 C   0  0  0  0  0  0  0  0  0  0  0  0
   -1.1498    0.0000    0.0000 C   0  0  0  0  0  0  0  0  0  0  0  0
   -1.8668    1.2363    0.0000 C   0  0  0  0  0  0  0  0  0  0  0  0
    1.0014    1.2363    0.0000 C   0  0  0  0  0  0  0  0  0  0  0  0
    1.0014   -0.4080    0.0000 C   0  0  3  0  0  0  0  0  0  0  0  0
   -1.8545    2.0647    0.0000 C   0  0  0  0  0  0  0  0  0  0  0  0
   -1.8545   -0.4080    0.0000 C   0  0  0  0  0  0  0  0  0  0  0  0
   -2.5592    0.8284    0.0000 C   0  0  0  0  0  0  0  0  0  0  0  0
   -2.5592    0.0000    0.0000 C   0  0  0  0  0  0  0  0  0  0  0  0
    1.7185    0.8284    0.0000 C   0  0  0  0  0  0  0  0  0  0  0  0
    1.0138    2.0647    0.0000 C   0  0  0  0  0  0  0  0  0  0  0  0
    0.9891   -2.0647    0.0000 C   0  0  0  0  0  0  0  0  0  0  0  0
   -1.1498    2.4726    0.0000 C   0  0  0  0  0  0  0  0  0  0  0  0
   -2.5592    2.4726    0.0000 C   0  0  0  0  0  0  0  0  0  0  0  0
    1.7062    0.0000    0.0000 C   0  0  0  0  0  0  0  0  0  0  0  0
    0.2967   -2.4603    0.0000 C   0  0  0  0  0  0  0  0  0  0  0  0
   -1.1374    3.3010    0.0000 C   0  0  0  0  0  0  0  0  0  0  0  0
    2.4232    1.2363    0.0000 C   0  0  0  0  0  0  0  0  0  0  0  0
    1.7062    2.4603    0.0000 C   0  0  0  0  0  0  0  0  0  0  0  0
   -1.8545    3.7090    0.0000 C   0  0  0  0  0  0  0  0  0  0  0  0
    1.6938   -3.2887    0.0000 C   0  0  0  0  0  0  0  0  0  0  0  0
    2.4232    2.0647    0.0000 C   0  0  0  0  0  0  0  0  0  0  0  0
    0.2843   -3.2887    0.0000 C   0  0  0  0  0  0  0  0  0  0  0  0
   -0.4327   -2.0647    0.0000 C   0  0  0  0  0  0  0  0  0  0  0  0
  1 29  1  0  0  0  0
  2 12  2  0  0  0  0
  3 12  1  0  0  0  0
  3 13  1  0  0  0  0
  3 16  1  0  0  0  0
  4 13  2  0  0  0  0
  4 14  1  0  0  0  0
  5 17  1  0  0  0  0
  5 24  1  0  0  0  0
  6 24  1  0  0  0  0
  6 33  2  0  0  0  0
  7 26  2  0  0  0  0
  7 32  1  0  0  0  0
  8 33  1  0  0  0  0
  8 35  2  0  0  0  0
  9 33  1  0  0  0  0
 10 36  3  0  0  0  0
 11 12  1  0  0  0  0
 11 14  1  0  0  0  0
 11 15  2  0  0  0  0
 13 17  1  0  0  0  0
 14 19  2  0  0  0  0
 15 18  1  0  0  0  0
 15 20  1  0  0  0  0
 16 22  2  0  0  0  0
 16 23  1  0  0  0  0
 17 27  1  6  0  0  0
 18 25  2  0  0  0  0
 18 26  1  0  0  0  0
 19 21  1  0  0  0  0
 20 21  2  0  0  0  0
 22 30  1  0  0  0  0
 23 31  2  0  0  0  0
 24 28  2  0  0  0  0
 25 29  1  0  0  0  0
 28 35  1  0  0  0  0
 28 36  1  0  0  0  0
 29 32  2  0  0  0  0
 30 34  2  0  0  0  0
 31 34  1  0  0  0  0
M  END
> <PUBCHEM_COMPOUND_ID_TYPE>
0

> <PUBCHEM_TOTAL_CHARGE>
0

> <PUBCHEM_SUBSTANCE_ID>
310941441

> <PUBCHEM_SUBSTANCE_VERSION>
1

> <PUBCHEM_EXT_DATASOURCE_NAME>
4488

> <PUBCHEM_EXT_DATASOURCE_REGID>
SCHEMBL16119401

> <PUBCHEM_SUBSTANCE_COMMENT>
InChI=1S/C26H19FN8O/c1-15(32-23-17(11-28)13-31-26(29)34-23)24-33-21-9-5-8-20(16-10-18(27)14-30-12-16)22(21)25(36)35(24)19-6-3-2-4-7-19/h2-10,12-15H,1H3,(H3,29,31,32,34)/t15-/m0/s1
InChIKey=BRYFMBSRYBYIDX-HNNXBMFYSA-N

> <PUBCHEM_SUBSTANCE_SYNONYM>
SCHEMBL16119401

> <PUBCHEM_XREF_EXT_ID>
SCHEMBL16119401

> <PUBCHEM_EXT_DATASOURCE_URL>
https://www.surechembl.org/

> <PUBCHEM_EXT_SUBSTANCE_URL>
https://www.surechembl.org/chemical/SCHEMBL16119401

> <PUBCHEM_CID_ASSOCIATIONS>
117608266  1

> <PUBCHEM_COORDINATE_TYPE>
1
3

> <PUBCHEM_BONDANNOTATIONS>
17  27  6

$$$$
