310943102
  -OEChem-07211613022D

 24 26  0     0  0  0  0  0  0999 V2000
    1.6249   -1.8118    0.0000 Cl  0  0  0  0  0  0  0  0  0  0  0  0
    3.0224    1.8118    0.0000 F   0  0  0  0  0  0  0  0  0  0  0  0
    3.6886    1.3569    0.0000 F   0  0  0  0  0  0  0  0  0  0  0  0
    3.6886    0.4468    0.0000 F   0  0  0  0  0  0  0  0  0  0  0  0
   -3.6886   -0.7718    0.0000 F   0  0  0  0  0  0  0  0  0  0  0  0
   -3.6886    0.7881    0.0000 F   0  0  0  0  0  0  0  0  0  0  0  0
   -2.9249    0.7881    0.0000 F   0  0  0  0  0  0  0  0  0  0  0  0
    0.2437   -0.7394    0.0000 N   0  0  0  0  0  0  0  0  0  0  0  0
    0.2437    0.7394    0.0000 N   0  0  0  0  0  0  0  0  0  0  0  0
   -2.1287   -0.7718    0.0000 N   0  0  0  0  0  0  0  0  0  0  0  0
    0.9912   -0.4794    0.0000 C   0  0  0  0  0  0  0  0  0  0  0  0
    0.9912    0.4306    0.0000 C   0  0  0  0  0  0  0  0  0  0  0  0
   -0.2113   -0.0244    0.0000 C   0  0  0  0  0  0  0  0  0  0  0  0
    2.3237    0.4306    0.0000 C   0  0  0  0  0  0  0  0  0  0  0  0
    1.6575   -0.9344    0.0000 C   0  0  0  0  0  0  0  0  0  0  0  0
    1.6575    0.8531    0.0000 C   0  0  0  0  0  0  0  0  0  0  0  0
   -0.9750   -0.0081    0.0000 C   0  0  0  0  0  0  0  0  0  0  0  0
    2.3237   -0.4956    0.0000 C   0  0  0  0  0  0  0  0  0  0  0  0
    3.0224    0.8693    0.0000 C   0  0  0  0  0  0  0  0  0  0  0  0
   -2.5349   -0.0244    0.0000 C   0  0  0  0  0  0  0  0  0  0  0  0
   -1.3650   -0.8206    0.0000 C   0  0  0  0  0  0  0  0  0  0  0  0
   -1.3487    0.7556    0.0000 C   0  0  0  0  0  0  0  0  0  0  0  0
   -3.2986    0.0081    0.0000 C   0  0  0  0  0  0  0  0  0  0  0  0
   -2.1287    0.7556    0.0000 C   0  0  0  0  0  0  0  0  0  0  0  0
  1 15  1  0  0  0  0
  2 19  1  0  0  0  0
  3 19  1  0  0  0  0
  4 19  1  0  0  0  0
  5 23  1  0  0  0  0
  6 23  1  0  0  0  0
  7 23  1  0  0  0  0
  8 11  1  0  0  0  0
  8 13  2  0  0  0  0
  9 12  1  0  0  0  0
  9 13  1  0  0  0  0
 10 20  1  0  0  0  0
 10 21  2  0  0  0  0
 11 12  2  0  0  0  0
 11 15  1  0  0  0  0
 12 16  1  0  0  0  0
 13 17  1  0  0  0  0
 14 16  2  0  0  0  0
 14 18  1  0  0  0  0
 14 19  1  0  0  0  0
 15 18  2  0  0  0  0
 17 21  1  0  0  0  0
 17 22  2  0  0  0  0
 20 23  1  0  0  0  0
 20 24  2  0  0  0  0
 22 24  1  0  0  0  0
M  END
> <PUBCHEM_COMPOUND_ID_TYPE>
0

> <PUBCHEM_TOTAL_CHARGE>
0

> <PUBCHEM_SUBSTANCE_ID>
310943102

> <PUBCHEM_SUBSTANCE_VERSION>
1

> <PUBCHEM_EXT_DATASOURCE_NAME>
4488

> <PUBCHEM_EXT_DATASOURCE_REGID>
SCHEMBL16121161

> <PUBCHEM_SUBSTANCE_COMMENT>
InChI=1S/C14H6ClF6N3/c15-8-3-7(13(16,17)18)4-9-11(8)24-12(23-9)6-1-2-10(22-5-6)14(19,20)21/h1-5H,(H,23,24)
InChIKey=ZYXCYNLWBAOOLW-UHFFFAOYSA-N

> <PUBCHEM_SUBSTANCE_SYNONYM>
SCHEMBL16121161

> <PUBCHEM_XREF_EXT_ID>
SCHEMBL16121161

> <PUBCHEM_EXT_DATASOURCE_URL>
https://www.surechembl.org/

> <PUBCHEM_EXT_SUBSTANCE_URL>
https://www.surechembl.org/chemical/SCHEMBL16121161

> <PUBCHEM_CID_ASSOCIATIONS>
117609533  1

> <PUBCHEM_COORDINATE_TYPE>
1
3

$$$$
