310945932
  -OEChem-07211613022D

 41 44  0     1  0  0  0  0  0999 V2000
    5.5071   -1.0038    0.0000 O   0  0  0  0  0  0  0  0  0  0  0  0
    4.3796    0.9488    0.0000 O   0  0  0  0  0  0  0  0  0  0  0  0
    2.0282   -0.9900    0.0000 O   0  0  0  0  0  0  0  0  0  0  0  0
   -0.1169    1.0725    0.0000 O   0  0  0  0  0  0  0  0  0  0  0  0
   -3.7745   -0.9900    0.0000 O   0  0  0  0  0  0  0  0  0  0  0  0
    4.1733    2.7226    0.0000 O   0  0  0  0  0  0  0  0  0  0  0  0
   -2.2620   -0.9900    0.0000 O   0  0  0  0  0  0  0  0  0  0  0  0
    2.7433    0.2475    0.0000 N   0  0  0  0  0  0  0  0  0  0  0  0
    0.5982   -0.1650    0.0000 N   0  0  0  0  0  0  0  0  0  0  0  0
   -1.5469    0.2475    0.0000 N   0  0  0  0  0  0  0  0  0  0  0  0
   -4.5858   -1.1551    0.0000 N   0  0  0  0  0  0  0  0  0  0  0  0
    5.1084   -0.2750    0.0000 C   0  0  3  0  0  0  0  0  0  0  0  0
    4.3384    0.1375    0.0000 C   0  0  0  0  0  0  0  0  0  0  0  0
    4.7096   -0.9763    0.0000 C   0  0  0  0  0  0  0  0  0  0  0  0
    3.6783   -0.2613    0.0000 C   0  0  3  0  0  0  0  0  0  0  0  0
    5.8234    0.1375    0.0000 C   0  0  0  0  0  0  0  0  0  0  0  0
    3.6646   -1.3338    0.0000 C   0  0  0  0  0  0  0  0  0  0  0  0
    2.0420   -0.1238    0.0000 C   0  0  0  0  0  0  0  0  0  0  0  0
    1.2995    0.2750    0.0000 C   0  0  3  0  0  0  0  0  0  0  0  0
    2.9633   -1.7463    0.0000 C   0  0  0  0  0  0  0  0  0  0  0  0
    1.3269    1.1001    0.0000 C   0  0  0  0  0  0  0  0  0  0  0  0
   -0.1169    0.2475    0.0000 C   0  0  0  0  0  0  0  0  0  0  0  0
    2.0145    1.5126    0.0000 C   0  0  0  0  0  0  0  0  0  0  0  0
    2.2070   -1.4301    0.0000 C   0  0  0  0  0  0  0  0  0  0  0  0
    2.8670   -2.5576    0.0000 C   0  0  0  0  0  0  0  0  0  0  0  0
   -0.8182   -0.1375    0.0000 C   0  0  3  0  0  0  0  0  0  0  0  0
    1.6707   -2.0489    0.0000 C   0  0  0  0  0  0  0  0  0  0  0  0
    2.0558   -2.7226    0.0000 C   0  0  0  0  0  0  0  0  0  0  0  0
    2.7570    1.1001    0.0000 C   0  0  0  0  0  0  0  0  0  0  0  0
    2.0420    2.3376    0.0000 C   0  0  0  0  0  0  0  0  0  0  0  0
   -3.6783   -0.1375    0.0000 C   0  0  0  0  0  0  0  0  0  0  0  0
   -2.2482   -0.1238    0.0000 C   0  0  0  0  0  0  0  0  0  0  0  0
    3.4583    2.3376    0.0000 C   0  0  0  0  0  0  0  0  0  0  0  0
   -3.0045    0.2613    0.0000 C   0  0  0  0  0  0  0  0  0  0  0  0
    3.4583    1.5126    0.0000 C   0  0  0  0  0  0  0  0  0  0  0  0
    2.7433    2.7226    0.0000 C   0  0  0  0  0  0  0  0  0  0  0  0
   -4.4483    0.1925    0.0000 C   0  0  0  0  0  0  0  0  0  0  0  0
   -4.9984   -0.4263    0.0000 C   0  0  0  0  0  0  0  0  0  0  0  0
   -0.8319   -0.9488    0.0000 C   0  0  0  0  0  0  0  0  0  0  0  0
   -5.8234   -0.3575    0.0000 C   0  0  0  0  0  0  0  0  0  0  0  0
    4.9022    2.3101    0.0000 C   0  0  0  0  0  0  0  0  0  0  0  0
  1 12  1  0  0  0  0
  1 14  1  0  0  0  0
  2 13  2  0  0  0  0
  3 18  2  0  0  0  0
  4 22  2  0  0  0  0
  5 11  1  0  0  0  0
  5 31  1  0  0  0  0
  6 33  1  0  0  0  0
  6 41  1  0  0  0  0
  7 32  2  0  0  0  0
 15  8  1  6  0  0  0
  8 18  1  0  0  0  0
 19  9  1  1  0  0  0
  9 22  1  0  0  0  0
 10 26  1  0  0  0  0
 10 32  1  0  0  0  0
 11 38  2  0  0  0  0
 12 13  1  6  0  0  0
 12 14  1  0  0  0  0
 12 16  1  1  0  0  0
 13 15  1  0  0  0  0
 15 17  1  0  0  0  0
 17 20  1  0  0  0  0
 18 19  1  0  0  0  0
 19 21  1  0  0  0  0
 20 24  1  0  0  0  0
 20 25  1  0  0  0  0
 21 23  1  0  0  0  0
 22 26  1  0  0  0  0
 23 29  2  0  0  0  0
 23 30  1  0  0  0  0
 24 27  1  0  0  0  0
 25 28  1  0  0  0  0
 26 39  1  6  0  0  0
 27 28  1  0  0  0  0
 29 35  1  0  0  0  0
 30 36  2  0  0  0  0
 31 34  1  0  0  0  0
 31 37  2  0  0  0  0
 32 34  1  0  0  0  0
 33 35  2  0  0  0  0
 33 36  1  0  0  0  0
 37 38  1  0  0  0  0
 38 40  1  0  0  0  0
M  END
> <PUBCHEM_COMPOUND_ID_TYPE>
0

> <PUBCHEM_TOTAL_CHARGE>
0

> <PUBCHEM_SUBSTANCE_ID>
310945932

> <PUBCHEM_SUBSTANCE_VERSION>
1

> <PUBCHEM_EXT_DATASOURCE_NAME>
4488

> <PUBCHEM_EXT_DATASOURCE_REGID>
SCHEMBL16124037

> <PUBCHEM_SUBSTANCE_COMMENT>
InChI=1S/C30H40N4O7/c1-18-13-23(41-34-18)16-26(35)31-19(2)28(37)33-25(15-21-9-11-22(39-4)12-10-21)29(38)32-24(14-20-7-5-6-8-20)27(36)30(3)17-40-30/h9-13,19-20,24-25H,5-8,14-17H2,1-4H3,(H,31,35)(H,32,38)(H,33,37)/t19-,24-,25-,30+/m0/s1
InChIKey=AVKVXSONZGJWDS-DYJHIYBCSA-N

> <PUBCHEM_SUBSTANCE_SYNONYM>
SCHEMBL16124037

> <PUBCHEM_XREF_EXT_ID>
SCHEMBL16124037

> <PUBCHEM_EXT_DATASOURCE_URL>
https://www.surechembl.org/

> <PUBCHEM_EXT_SUBSTANCE_URL>
https://www.surechembl.org/chemical/SCHEMBL16124037

> <PUBCHEM_CID_ASSOCIATIONS>
117611915  1

> <PUBCHEM_COORDINATE_TYPE>
1
3

> <PUBCHEM_BONDANNOTATIONS>
12  13  6
12  16  5
26  39  6
15  8  6
19  9  5

$$$$
