310932831
  -OEChem-07211613022D

 28 32  0     0  0  0  0  0  0999 V2000
    0.0000   -4.3979    0.0000 O   0  0  0  0  0  0  0  0  0  0  0  0
    5.5249   -3.2984    0.0000 O   0  0  0  0  0  0  0  0  0  0  0  0
    4.2054   -2.6387    0.0000 N   0  0  0  0  0  0  0  0  0  0  0  0
    4.2054   -3.9581    0.0000 N   0  0  0  0  0  0  0  0  0  0  0  0
    3.4083   -0.4123    0.0000 N   0  0  0  0  0  0  0  0  0  0  0  0
    2.6662    0.0000    0.0000 N   0  0  0  0  0  0  0  0  0  0  0  0
    0.4123   -5.1400    0.0000 N   0  0  0  0  0  0  0  0  0  0  0  0
    2.6937   -2.4738    0.0000 C   0  0  0  0  0  0  0  0  0  0  0  0
    3.4358   -2.8586    0.0000 C   0  0  0  0  0  0  0  0  0  0  0  0
    2.6937   -1.6492    0.0000 C   0  0  0  0  0  0  0  0  0  0  0  0
    3.4358   -3.7107    0.0000 C   0  0  0  0  0  0  0  0  0  0  0  0
    2.0065   -3.7107    0.0000 C   0  0  0  0  0  0  0  0  0  0  0  0
    2.0065   -2.8586    0.0000 C   0  0  0  0  0  0  0  0  0  0  0  0
    1.9791   -1.2369    0.0000 C   0  0  0  0  0  0  0  0  0  0  0  0
    1.2919   -4.1230    0.0000 C   0  0  0  0  0  0  0  0  0  0  0  0
    2.6937   -4.1230    0.0000 C   0  0  0  0  0  0  0  0  0  0  0  0
    3.4083   -1.2369    0.0000 C   0  0  0  0  0  0  0  0  0  0  0  0
    1.9516   -0.4123    0.0000 C   0  0  0  0  0  0  0  0  0  0  0  0
    4.7002   -3.2984    0.0000 C   0  0  0  0  0  0  0  0  0  0  0  0
    0.5497   -3.8207    0.0000 C   0  0  0  0  0  0  0  0  0  0  0  0
    1.2094   -4.9476    0.0000 C   0  0  0  0  0  0  0  0  0  0  0  0
    1.2919   -1.6492    0.0000 C   0  0  0  0  0  0  0  0  0  0  0  0
    1.2644   -0.0275    0.0000 C   0  0  0  0  0  0  0  0  0  0  0  0
    4.1230   -1.6217    0.0000 C   0  0  0  0  0  0  0  0  0  0  0  0
    0.5772   -1.2644    0.0000 C   0  0  0  0  0  0  0  0  0  0  0  0
    0.5497   -0.4398    0.0000 C   0  0  0  0  0  0  0  0  0  0  0  0
    0.3573   -2.9960    0.0000 C   0  0  0  0  0  0  0  0  0  0  0  0
    1.8141   -5.4974    0.0000 C   0  0  0  0  0  0  0  0  0  0  0  0
  1  7  1  0  0  0  0
  1 20  1  0  0  0  0
  2 19  2  0  0  0  0
  3  9  1  0  0  0  0
  3 19  1  0  0  0  0
  4 11  1  0  0  0  0
  4 19  1  0  0  0  0
  5  6  2  0  0  0  0
  5 17  1  0  0  0  0
  6 18  1  0  0  0  0
  7 21  2  0  0  0  0
  8  9  1  0  0  0  0
  8 10  1  0  0  0  0
  8 13  2  0  0  0  0
  9 11  2  0  0  0  0
 10 14  1  0  0  0  0
 10 17  2  0  0  0  0
 11 16  1  0  0  0  0
 12 13  1  0  0  0  0
 12 15  1  0  0  0  0
 12 16  2  0  0  0  0
 14 18  2  0  0  0  0
 14 22  1  0  0  0  0
 15 20  2  0  0  0  0
 15 21  1  0  0  0  0
 17 24  1  0  0  0  0
 18 23  1  0  0  0  0
 20 27  1  0  0  0  0
 21 28  1  0  0  0  0
 22 25  2  0  0  0  0
 23 26  2  0  0  0  0
 25 26  1  0  0  0  0
M  END
> <PUBCHEM_COMPOUND_ID_TYPE>
0

> <PUBCHEM_TOTAL_CHARGE>
0

> <PUBCHEM_SUBSTANCE_ID>
310932831

> <PUBCHEM_SUBSTANCE_VERSION>
1

> <PUBCHEM_EXT_DATASOURCE_NAME>
4488

> <PUBCHEM_EXT_DATASOURCE_REGID>
SCHEMBL16110219

> <PUBCHEM_SUBSTANCE_COMMENT>
InChI=1S/C21H17N5O2/c1-10-19(14-6-4-5-7-16(14)25-24-10)15-8-13(18-11(2)26-28-12(18)3)9-17-20(15)23-21(27)22-17/h4-9H,1-3H3,(H2,22,23,27)
InChIKey=KYJUZBJENKGQHB-UHFFFAOYSA-N

> <PUBCHEM_SUBSTANCE_SYNONYM>
SCHEMBL16110219

> <PUBCHEM_XREF_EXT_ID>
SCHEMBL16110219

> <PUBCHEM_EXT_DATASOURCE_URL>
https://www.surechembl.org/

> <PUBCHEM_EXT_SUBSTANCE_URL>
https://www.surechembl.org/chemical/SCHEMBL16110219

> <PUBCHEM_CID_ASSOCIATIONS>
117601320  1

> <PUBCHEM_COORDINATE_TYPE>
1
3

$$$$
