310949705
  -OEChem-07211613022D

 27 28  0     0  0  0  0  0  0999 V2000
    2.6535    1.8205    0.0000 F   0  0  0  0  0  0  0  0  0  0  0  0
    3.0566    1.0950    0.0000 F   0  0  0  0  0  0  0  0  0  0  0  0
    2.6535    0.3694    0.0000 F   0  0  0  0  0  0  0  0  0  0  0  0
    1.4040    1.0950    0.0000 O   0  0  0  0  0  0  0  0  0  0  0  0
   -1.0413   -1.8205    0.0000 O   0  0  0  0  0  0  0  0  0  0  0  0
   -2.6939    1.0816    0.0000 O   0  0  0  0  0  0  0  0  0  0  0  0
   -1.4577    0.3561    0.0000 O   0  0  0  0  0  0  0  0  0  0  0  0
    3.8897   -1.8071    0.0000 O   0  0  0  0  0  0  0  0  0  0  0  0
   -1.0413   -0.3694    0.0000 N   0  0  0  0  0  0  0  0  0  0  0  0
    1.0009    0.3561    0.0000 C   0  0  0  0  0  0  0  0  0  0  0  0
   -0.2217   -0.3694    0.0000 C   0  0  0  0  0  0  0  0  0  0  0  0
   -2.2640   -1.0950    0.0000 C   0  0  0  0  0  0  0  0  0  0  0  0
    1.4175   -0.3561    0.0000 C   0  0  0  0  0  0  0  0  0  0  0  0
   -1.4577   -1.0950    0.0000 C   0  0  0  0  0  0  0  0  0  0  0  0
   -2.6804   -0.3829    0.0000 C   0  0  0  0  0  0  0  0  0  0  0  0
    0.1948    0.3561    0.0000 C   0  0  0  0  0  0  0  0  0  0  0  0
    0.1948   -1.0816    0.0000 C   0  0  0  0  0  0  0  0  0  0  0  0
    1.0144   -1.0816    0.0000 C   0  0  0  0  0  0  0  0  0  0  0  0
    2.2371    1.0950    0.0000 C   0  0  0  0  0  0  0  0  0  0  0  0
   -2.6804   -1.8205    0.0000 C   0  0  0  0  0  0  0  0  0  0  0  0
   -2.2773    0.3426    0.0000 C   0  0  0  0  0  0  0  0  0  0  0  0
   -3.4866   -0.3829    0.0000 C   0  0  0  0  0  0  0  0  0  0  0  0
    2.2505   -0.3694    0.0000 C   0  0  0  0  0  0  0  0  0  0  0  0
   -3.4866   -1.8205    0.0000 C   0  0  0  0  0  0  0  0  0  0  0  0
   -3.8897   -1.1084    0.0000 C   0  0  0  0  0  0  0  0  0  0  0  0
    2.6535   -1.0682    0.0000 C   0  0  0  0  0  0  0  0  0  0  0  0
    3.4866   -1.0950    0.0000 C   0  0  0  0  0  0  0  0  0  0  0  0
  1 19  1  0  0  0  0
  2 19  1  0  0  0  0
  3 19  1  0  0  0  0
  4 10  1  0  0  0  0
  4 19  1  0  0  0  0
  5 14  2  0  0  0  0
  6 21  2  0  0  0  0
  7 21  1  0  0  0  0
  8 27  1  0  0  0  0
  9 11  1  0  0  0  0
  9 14  1  0  0  0  0
 10 13  1  0  0  0  0
 10 16  2  0  0  0  0
 11 16  1  0  0  0  0
 11 17  2  0  0  0  0
 12 14  1  0  0  0  0
 12 15  1  0  0  0  0
 12 20  2  0  0  0  0
 13 18  2  0  0  0  0
 13 23  1  0  0  0  0
 15 21  1  0  0  0  0
 15 22  2  0  0  0  0
 17 18  1  0  0  0  0
 20 24  1  0  0  0  0
 22 25  1  0  0  0  0
 23 26  1  0  0  0  0
 24 25  2  0  0  0  0
 26 27  1  0  0  0  0
M  END
> <PUBCHEM_COMPOUND_ID_TYPE>
0

> <PUBCHEM_TOTAL_CHARGE>
0

> <PUBCHEM_SUBSTANCE_ID>
310949705

> <PUBCHEM_SUBSTANCE_VERSION>
1

> <PUBCHEM_EXT_DATASOURCE_NAME>
4488

> <PUBCHEM_EXT_DATASOURCE_REGID>
SCHEMBL16127903

> <PUBCHEM_SUBSTANCE_COMMENT>
InChI=1S/C18H16F3NO5/c19-18(20,21)27-15-10-12(8-7-11(15)4-3-9-23)22-16(24)13-5-1-2-6-14(13)17(25)26/h1-2,5-8,10,23H,3-4,9H2,(H,22,24)(H,25,26)
InChIKey=VNMYXNKRRXNGDC-UHFFFAOYSA-N

> <PUBCHEM_SUBSTANCE_SYNONYM>
SCHEMBL16127903

> <PUBCHEM_XREF_EXT_ID>
SCHEMBL16127903

> <PUBCHEM_EXT_DATASOURCE_URL>
https://www.surechembl.org/

> <PUBCHEM_EXT_SUBSTANCE_URL>
https://www.surechembl.org/chemical/SCHEMBL16127903

> <PUBCHEM_CID_ASSOCIATIONS>
85473341  1

> <PUBCHEM_COORDINATE_TYPE>
1
3

$$$$
