310944921
  -OEChem-07211613022D

 35 39  0     0  0  0  0  0  0999 V2000
    3.8824   -2.4320    0.0000 O   0  0  0  0  0  0  0  0  0  0  0  0
    4.5898   -1.1585    0.0000 O   0  0  0  0  0  0  0  0  0  0  0  0
    1.0171    0.9463    0.0000 N   0  0  0  0  0  0  0  0  0  0  0  0
   -4.5898   -1.8483    0.0000 N   0  0  0  0  0  0  0  0  0  0  0  0
   -4.1830   -2.5912    0.0000 N   0  0  0  0  0  0  0  0  0  0  0  0
   -0.4156    0.9286    0.0000 C   0  0  0  0  0  0  0  0  0  0  0  0
   -0.4333    0.0795    0.0000 C   0  0  0  0  0  0  0  0  0  0  0  0
    0.2742    1.3531    0.0000 C   0  0  0  0  0  0  0  0  0  0  0  0
   -1.1585    1.3531    0.0000 C   0  0  0  0  0  0  0  0  0  0  0  0
   -1.1232   -0.3272    0.0000 C   0  0  0  0  0  0  0  0  0  0  0  0
    0.3095   -0.3272    0.0000 C   0  0  0  0  0  0  0  0  0  0  0  0
    0.3095    2.1844    0.0000 C   0  0  0  0  0  0  0  0  0  0  0  0
   -1.9367    1.1409    0.0000 C   0  0  0  0  0  0  0  0  0  0  0  0
   -1.3531    2.1490    0.0000 C   0  0  0  0  0  0  0  0  0  0  0  0
   -1.8483    0.0619    0.0000 C   0  0  0  0  0  0  0  0  0  0  0  0
   -1.1409   -1.1763    0.0000 C   0  0  0  0  0  0  0  0  0  0  0  0
   -2.5735   -1.1763    0.0000 C   0  0  0  0  0  0  0  0  0  0  0  0
    0.3272   -1.1763    0.0000 C   0  0  0  0  0  0  0  0  0  0  0  0
    0.9994    0.0795    0.0000 C   0  0  0  0  0  0  0  0  0  0  0  0
   -2.1312    1.9191    0.0000 C   0  0  0  0  0  0  0  0  0  0  0  0
   -2.5381   -0.3272    0.0000 C   0  0  0  0  0  0  0  0  0  0  0  0
   -1.8306   -1.5830    0.0000 C   0  0  0  0  0  0  0  0  0  0  0  0
   -3.2809   -1.6007    0.0000 C   0  0  0  0  0  0  0  0  0  0  0  0
    0.9994    2.5912    0.0000 C   0  0  0  0  0  0  0  0  0  0  0  0
    1.7245   -1.1763    0.0000 C   0  0  0  0  0  0  0  0  0  0  0  0
    1.0171   -1.5830    0.0000 C   0  0  0  0  0  0  0  0  0  0  0  0
    1.7245   -0.3449    0.0000 C   0  0  0  0  0  0  0  0  0  0  0  0
    1.7245    1.3531    0.0000 C   0  0  0  0  0  0  0  0  0  0  0  0
    1.7422    2.1667    0.0000 C   0  0  0  0  0  0  0  0  0  0  0  0
   -0.4333    2.5912    0.0000 C   0  0  0  0  0  0  0  0  0  0  0  0
   -4.0416   -1.2646    0.0000 C   0  0  0  0  0  0  0  0  0  0  0  0
   -3.3694   -2.4320    0.0000 C   0  0  0  0  0  0  0  0  0  0  0  0
    2.4497   -1.6007    0.0000 C   0  0  0  0  0  0  0  0  0  0  0  0
    3.1571   -1.1763    0.0000 C   0  0  0  0  0  0  0  0  0  0  0  0
    3.8824   -1.5653    0.0000 C   0  0  0  0  0  0  0  0  0  0  0  0
  1 35  2  0  0  0  0
  2 35  1  0  0  0  0
  3  8  2  0  0  0  0
  3 28  1  0  0  0  0
  4  5  1  0  0  0  0
  4 31  2  0  0  0  0
  5 32  1  0  0  0  0
  6  7  2  0  0  0  0
  6  8  1  0  0  0  0
  6  9  1  0  0  0  0
  7 10  1  0  0  0  0
  7 11  1  0  0  0  0
  8 12  1  0  0  0  0
  9 13  1  0  0  0  0
  9 14  1  0  0  0  0
 10 15  2  0  0  0  0
 10 16  1  0  0  0  0
 11 18  2  0  0  0  0
 11 19  1  0  0  0  0
 12 24  2  0  0  0  0
 12 30  1  0  0  0  0
 13 20  1  0  0  0  0
 14 20  1  0  0  0  0
 15 21  1  0  0  0  0
 16 22  2  0  0  0  0
 17 21  2  0  0  0  0
 17 22  1  0  0  0  0
 17 23  1  0  0  0  0
 18 26  1  0  0  0  0
 19 27  2  0  0  0  0
 23 31  1  0  0  0  0
 23 32  2  0  0  0  0
 24 29  1  0  0  0  0
 25 26  2  0  0  0  0
 25 27  1  0  0  0  0
 25 33  1  0  0  0  0
 28 29  2  0  0  0  0
 33 34  2  0  0  0  0
 34 35  1  0  0  0  0
M  END
> <PUBCHEM_COMPOUND_ID_TYPE>
0

> <PUBCHEM_TOTAL_CHARGE>
0

> <PUBCHEM_SUBSTANCE_ID>
310944921

> <PUBCHEM_SUBSTANCE_VERSION>
1

> <PUBCHEM_EXT_DATASOURCE_NAME>
4488

> <PUBCHEM_EXT_DATASOURCE_REGID>
SCHEMBL16123006

> <PUBCHEM_SUBSTANCE_COMMENT>
InChI=1S/C30H27N3O2/c1-20-4-3-17-31-30(20)29(23-5-2-6-23)28(24-10-7-21(8-11-24)9-16-27(34)35)25-14-12-22(13-15-25)26-18-32-33-19-26/h3-4,7-19,23H,2,5-6H2,1H3,(H,32,33)(H,34,35)/b16-9+,29-28+
InChIKey=LASJCVUZNVESLB-FRDZDWAOSA-N

> <PUBCHEM_SUBSTANCE_SYNONYM>
SCHEMBL16123006

> <PUBCHEM_XREF_EXT_ID>
SCHEMBL16123006

> <PUBCHEM_EXT_DATASOURCE_URL>
https://www.surechembl.org/

> <PUBCHEM_EXT_SUBSTANCE_URL>
https://www.surechembl.org/chemical/SCHEMBL16123006

> <PUBCHEM_CID_ASSOCIATIONS>
86271642  1

> <PUBCHEM_COORDINATE_TYPE>
1
3

$$$$
