310948460
  -OEChem-07211613022D

 35 38  0     1  0  0  0  0  0999 V2000
   -0.9685   -2.3429    0.0000 F   0  0  0  0  0  0  0  0  0  0  0  0
   -2.9978    2.2507    0.0000 O   0  0  0  0  0  0  0  0  0  0  0  0
    1.4113   -2.9333    0.0000 O   0  0  0  0  0  0  0  0  0  0  0  0
    1.7618   -1.5497    0.0000 O   0  0  0  0  0  0  0  0  0  0  0  0
   -0.2306    2.1031    0.0000 N   0  0  0  0  0  0  0  0  0  0  0  0
   -0.5811    1.3467    0.0000 N   0  0  0  0  0  0  0  0  0  0  0  0
   -1.9648    0.8302    0.0000 N   0  0  0  0  0  0  0  0  0  0  0  0
   -2.2599    3.5051    0.0000 N   0  0  0  0  0  0  0  0  0  0  0  0
    0.3598    0.2214    0.0000 N   0  0  0  0  0  0  0  0  0  0  0  0
    0.3966   -1.9186    0.0000 N   0  0  0  0  0  0  0  0  0  0  0  0
   -1.5589    2.2691    0.0000 C   0  0  0  0  0  0  0  0  0  0  0  0
   -0.8394    2.6565    0.0000 C   0  0  0  0  0  0  0  0  0  0  0  0
   -1.4113    1.4574    0.0000 C   0  0  0  0  0  0  0  0  0  0  0  0
    0.5811    2.2691    0.0000 C   0  0  3  0  0  0  0  0  0  0  0  0
   -2.2783    2.6750    0.0000 C   0  0  0  0  0  0  0  0  0  0  0  0
   -0.8210    3.5051    0.0000 C   0  0  0  0  0  0  0  0  0  0  0  0
    1.1162    1.6604    0.0000 C   0  0  3  0  0  0  0  0  0  0  0  0
   -1.7065    0.0553    0.0000 C   0  0  0  0  0  0  0  0  0  0  0  0
   -1.5405    3.9294    0.0000 C   0  0  0  0  0  0  0  0  0  0  0  0
    0.8394    3.0624    0.0000 C   0  0  0  0  0  0  0  0  0  0  0  0
    1.9279    1.8079    0.0000 C   0  0  0  0  0  0  0  0  0  0  0  0
   -0.9132   -0.1476    0.0000 C   0  0  0  0  0  0  0  0  0  0  0  0
   -0.6549   -0.9224    0.0000 C   0  0  0  0  0  0  0  0  0  0  0  0
   -2.2414   -0.5534    0.0000 C   0  0  0  0  0  0  0  0  0  0  0  0
    0.7287    0.9408    0.0000 C   0  0  0  0  0  0  0  0  0  0  0  0
    1.6511    3.2100    0.0000 C   0  0  0  0  0  0  0  0  0  0  0  0
   -1.2268   -1.5497    0.0000 C   0  0  0  0  0  0  0  0  0  0  0  0
    2.1861    2.5827    0.0000 C   0  0  0  0  0  0  0  0  0  0  0  0
   -2.0201   -1.3651    0.0000 C   0  0  0  0  0  0  0  0  0  0  0  0
    0.1568   -1.1254    0.0000 C   0  0  0  0  0  0  0  0  0  0  0  0
    1.1715   -2.1400    0.0000 C   0  0  0  0  0  0  0  0  0  0  0  0
    2.2230   -3.1362    0.0000 C   0  0  0  0  0  0  0  0  0  0  0  0
    2.7950   -2.5274    0.0000 C   0  0  0  0  0  0  0  0  0  0  0  0
    2.9978   -3.3207    0.0000 C   0  0  0  0  0  0  0  0  0  0  0  0
    2.4260   -3.9294    0.0000 C   0  0  0  0  0  0  0  0  0  0  0  0
  1 27  1  0  0  0  0
  2 15  2  0  0  0  0
  3 31  1  0  0  0  0
  3 32  1  0  0  0  0
  4 31  2  0  0  0  0
  5  6  1  0  0  0  0
  5 12  1  0  0  0  0
 14  5  1  1  0  0  0
  6 13  2  0  0  0  0
  7 13  1  0  0  0  0
  7 18  1  0  0  0  0
  8 15  1  0  0  0  0
  8 19  1  0  0  0  0
  9 25  3  0  0  0  0
 10 30  1  0  0  0  0
 10 31  1  0  0  0  0
 11 12  2  0  0  0  0
 11 13  1  0  0  0  0
 11 15  1  0  0  0  0
 12 16  1  0  0  0  0
 14 17  1  0  0  0  0
 14 20  1  0  0  0  0
 16 19  2  0  0  0  0
 17 21  1  0  0  0  0
 17 25  1  6  0  0  0
 18 22  1  0  0  0  0
 18 24  2  0  0  0  0
 20 26  1  0  0  0  0
 21 28  1  0  0  0  0
 22 23  2  0  0  0  0
 23 27  1  0  0  0  0
 23 30  1  0  0  0  0
 24 29  1  0  0  0  0
 26 28  1  0  0  0  0
 27 29  2  0  0  0  0
 32 33  1  0  0  0  0
 32 34  1  0  0  0  0
 32 35  1  0  0  0  0
M  END
> <PUBCHEM_COMPOUND_ID_TYPE>
0

> <PUBCHEM_TOTAL_CHARGE>
0

> <PUBCHEM_SUBSTANCE_ID>
310948460

> <PUBCHEM_SUBSTANCE_VERSION>
1

> <PUBCHEM_EXT_DATASOURCE_NAME>
4488

> <PUBCHEM_EXT_DATASOURCE_REGID>
SCHEMBL16126641

> <PUBCHEM_SUBSTANCE_COMMENT>
InChI=1S/C25H29FN6O3/c1-25(2,3)35-24(34)29-14-16-12-17(8-9-18(16)26)30-22-21-20(10-11-28-23(21)33)32(31-22)19-7-5-4-6-15(19)13-27/h8-12,15,19H,4-7,14H2,1-3H3,(H,28,33)(H,29,34)(H,30,31)/t15-,19+/m1/s1
InChIKey=LOIVFFKZFYNZEX-BEFAXECRSA-N

> <PUBCHEM_SUBSTANCE_SYNONYM>
SCHEMBL16126641

> <PUBCHEM_XREF_EXT_ID>
SCHEMBL16126641

> <PUBCHEM_EXT_DATASOURCE_URL>
https://www.surechembl.org/

> <PUBCHEM_EXT_SUBSTANCE_URL>
https://www.surechembl.org/chemical/SCHEMBL16126641

> <PUBCHEM_CID_ASSOCIATIONS>
117614018  1

> <PUBCHEM_COORDINATE_TYPE>
1
3

> <PUBCHEM_BONDANNOTATIONS>
17  25  6
14  5  5

$$$$
