310933822
  -OEChem-07211613022D

 16 17  0     0  0  0  0  0  0999 V2000
    0.4391   -1.7853    0.0000 O   0  0  0  0  0  0  0  0  0  0  0  0
    2.1605   -4.7066    0.0000 O   0  0  0  0  0  0  0  0  0  0  0  0
    0.9395   -4.7349    0.0000 O   0  0  0  0  0  0  0  0  0  0  0  0
    1.0895   -1.5907    0.0000 C   0  0  0  0  0  0  0  0  0  0  0  0
    0.8758   -0.9587    0.0000 C   0  0  0  0  0  0  0  0  0  0  0  0
    1.7999   -1.9199    0.0000 C   0  0  0  0  0  0  0  0  0  0  0  0
    0.2147   -2.0096    0.0000 C   0  0  0  0  0  0  0  0  0  0  0  0
    1.1438   -0.6833    0.0000 C   0  0  0  0  0  0  0  0  0  0  0  0
    1.5767   -1.2741    0.0000 C   0  0  0  0  0  0  0  0  0  0  0  0
    0.1129   -1.2927    0.0000 C   0  0  0  0  0  0  0  0  0  0  0  0
    0.9116   -0.1083    0.0000 C   0  0  0  0  0  0  0  0  0  0  0  0
    0.9330   -2.6325    0.0000 C   0  0  0  0  0  0  0  0  0  0  0  0
    1.3580   -3.4066    0.0000 C   0  0  0  0  0  0  0  0  0  0  0  0
    1.5245   -4.2146    0.0000 C   0  0  0  0  0  0  0  0  0  0  0  0
    1.1986   -2.1724    0.0000 C   0  0  0  0  0  0  0  0  0  0  0  0
    2.0552   -5.4824    0.0000 C   0  0  0  0  0  0  0  0  0  0  0  0
  1  5  1  0  0  0  0
  1 15  1  0  0  0  0
  2 14  1  0  0  0  0
  2 16  1  0  0  0  0
  3 14  2  0  0  0  0
  4  6  1  0  0  0  0
  4  7  1  0  0  0  0
  4  8  1  0  0  0  0
  4 12  1  0  0  0  0
  5  9  1  0  0  0  0
  5 10  1  0  0  0  0
  5 11  1  0  0  0  0
  6  9  1  0  0  0  0
  7 10  1  0  0  0  0
  8 11  1  0  0  0  0
 12 13  1  0  0  0  0
 13 14  1  0  0  0  0
M  END
> <PUBCHEM_COMPOUND_ID_TYPE>
0

> <PUBCHEM_TOTAL_CHARGE>
0

> <PUBCHEM_SUBSTANCE_ID>
310933822

> <PUBCHEM_SUBSTANCE_VERSION>
1

> <PUBCHEM_EXT_DATASOURCE_NAME>
4488

> <PUBCHEM_EXT_DATASOURCE_REGID>
SCHEMBL16111260

> <PUBCHEM_SUBSTANCE_COMMENT>
InChI=1S/C13H22O3/c1-15-11(14)3-4-12-5-8-13(16-2,9-6-12)10-7-12/h3-10H2,1-2H3
InChIKey=IJUYOTPQWFODAK-UHFFFAOYSA-N

> <PUBCHEM_SUBSTANCE_SYNONYM>
SCHEMBL16111260

> <PUBCHEM_XREF_EXT_ID>
SCHEMBL16111260

> <PUBCHEM_EXT_DATASOURCE_URL>
https://www.surechembl.org/

> <PUBCHEM_EXT_SUBSTANCE_URL>
https://www.surechembl.org/chemical/SCHEMBL16111260

> <PUBCHEM_CID_ASSOCIATIONS>
117602170  1

> <PUBCHEM_COORDINATE_TYPE>
1
3

$$$$
