310942057
  -OEChem-07211613022D

 19 21  0     0  0  0  0  0  0999 V2000
    2.5701    1.6513    0.0000 O   0  0  0  0  0  0  0  0  0  0  0  0
   -0.5526   -0.5461    0.0000 N   0  0  0  0  0  0  0  0  0  0  0  0
    1.4778    0.3791    0.0000 N   0  0  0  0  0  0  0  0  0  0  0  0
   -0.1414    0.7389    0.0000 C   0  0  0  0  0  0  0  0  0  0  0  0
    0.1028   -0.0449    0.0000 C   0  0  0  0  0  0  0  0  0  0  0  0
   -0.9767    0.7518    0.0000 C   0  0  0  0  0  0  0  0  0  0  0  0
   -1.2337   -0.0321    0.0000 C   0  0  0  0  0  0  0  0  0  0  0  0
    0.4112    1.3686    0.0000 C   0  0  0  0  0  0  0  0  0  0  0  0
    0.9252   -0.2120    0.0000 C   0  0  0  0  0  0  0  0  0  0  0  0
    1.2079    1.2015    0.0000 C   0  0  0  0  0  0  0  0  0  0  0  0
   -1.5293    1.3557    0.0000 C   0  0  0  0  0  0  0  0  0  0  0  0
   -2.0304   -0.2249    0.0000 C   0  0  0  0  0  0  0  0  0  0  0  0
   -0.5526   -1.3686    0.0000 C   0  0  0  0  0  0  0  0  0  0  0  0
    1.7349    1.8441    0.0000 C   0  0  0  0  0  0  0  0  0  0  0  0
   -2.3131    1.1887    0.0000 C   0  0  0  0  0  0  0  0  0  0  0  0
   -2.5701    0.3919    0.0000 C   0  0  0  0  0  0  0  0  0  0  0  0
   -1.2465   -1.7798    0.0000 C   0  0  0  0  0  0  0  0  0  0  0  0
    1.4650    2.6280    0.0000 C   0  0  0  0  0  0  0  0  0  0  0  0
   -1.2465   -2.6280    0.0000 C   0  0  0  0  0  0  0  0  0  0  0  0
  1 14  2  0  0  0  0
  2  5  1  0  0  0  0
  2  7  1  0  0  0  0
  2 13  1  0  0  0  0
  3  9  2  0  0  0  0
  3 10  1  0  0  0  0
  4  5  2  0  0  0  0
  4  6  1  0  0  0  0
  4  8  1  0  0  0  0
  5  9  1  0  0  0  0
  6  7  1  0  0  0  0
  6 11  2  0  0  0  0
  7 12  2  0  0  0  0
  8 10  2  0  0  0  0
 10 14  1  0  0  0  0
 11 15  1  0  0  0  0
 12 16  1  0  0  0  0
 13 17  1  0  0  0  0
 14 18  1  0  0  0  0
 15 16  2  0  0  0  0
 17 19  1  0  0  0  0
M  END
> <PUBCHEM_COMPOUND_ID_TYPE>
0

> <PUBCHEM_TOTAL_CHARGE>
0

> <PUBCHEM_SUBSTANCE_ID>
310942057

> <PUBCHEM_SUBSTANCE_VERSION>
1

> <PUBCHEM_EXT_DATASOURCE_NAME>
4488

> <PUBCHEM_EXT_DATASOURCE_REGID>
SCHEMBL16120092

> <PUBCHEM_SUBSTANCE_COMMENT>
InChI=1S/C16H16N2O/c1-3-8-18-15-7-5-4-6-12(15)13-9-14(11(2)19)17-10-16(13)18/h4-7,9-10H,3,8H2,1-2H3
InChIKey=ZCPHLKPKZQFAEV-UHFFFAOYSA-N

> <PUBCHEM_SUBSTANCE_SYNONYM>
SCHEMBL16120092

> <PUBCHEM_XREF_EXT_ID>
SCHEMBL16120092

> <PUBCHEM_EXT_DATASOURCE_URL>
https://www.surechembl.org/

> <PUBCHEM_EXT_SUBSTANCE_URL>
https://www.surechembl.org/chemical/SCHEMBL16120092

> <PUBCHEM_CID_ASSOCIATIONS>
86271052  1

> <PUBCHEM_COORDINATE_TYPE>
1
3

$$$$
