310945125
  -OEChem-07211613022D

 29 33  0     0  0  0  0  0  0999 V2000
    4.2211    0.1650    0.0000 O   0  0  0  0  0  0  0  0  0  0  0  0
   -2.8050    1.4300    0.0000 O   0  0  0  0  0  0  0  0  0  0  0  0
    1.6774   -1.0175    0.0000 N   0  0  0  0  0  0  0  0  0  0  0  0
   -0.6462    1.0312    0.0000 N   0  0  0  0  0  0  0  0  0  0  0  0
   -3.5199    0.2062    0.0000 N   0  0  0  0  0  0  0  0  0  0  0  0
    1.5262   -0.2062    0.0000 C   0  0  0  0  0  0  0  0  0  0  0  0
    2.2274    0.2200    0.0000 C   0  0  0  0  0  0  0  0  0  0  0  0
    2.8461   -0.3437    0.0000 C   0  0  0  0  0  0  0  0  0  0  0  0
    0.7975    0.2062    0.0000 C   0  0  0  0  0  0  0  0  0  0  0  0
    2.5024   -1.1000    0.0000 C   0  0  0  0  0  0  0  0  0  0  0  0
    0.7975    1.0312    0.0000 C   0  0  0  0  0  0  0  0  0  0  0  0
    3.6436   -0.4538    0.0000 C   0  0  0  0  0  0  0  0  0  0  0  0
    2.2274    1.0312    0.0000 C   0  0  0  0  0  0  0  0  0  0  0  0
    0.0962   -0.1925    0.0000 C   0  0  0  0  0  0  0  0  0  0  0  0
   -0.6462    0.2062    0.0000 C   0  0  0  0  0  0  0  0  0  0  0  0
    3.1211   -1.6499    0.0000 C   0  0  0  0  0  0  0  0  0  0  0  0
    1.4987    1.4300    0.0000 C   0  0  0  0  0  0  0  0  0  0  0  0
    3.8362   -1.2375    0.0000 C   0  0  0  0  0  0  0  0  0  0  0  0
    0.0550    1.4437    0.0000 C   0  0  0  0  0  0  0  0  0  0  0  0
   -1.3612   -0.2062    0.0000 C   0  0  0  0  0  0  0  0  0  0  0  0
   -2.0762    0.1925    0.0000 C   0  0  0  0  0  0  0  0  0  0  0  0
   -1.3612   -1.0312    0.0000 C   0  0  0  0  0  0  0  0  0  0  0  0
   -2.7912   -0.2062    0.0000 C   0  0  0  0  0  0  0  0  0  0  0  0
   -2.0762   -1.4300    0.0000 C   0  0  0  0  0  0  0  0  0  0  0  0
   -2.7912   -1.0312    0.0000 C   0  0  0  0  0  0  0  0  0  0  0  0
   -3.5336    1.0312    0.0000 C   0  0  0  0  0  0  0  0  0  0  0  0
   -2.0624   -2.2825    0.0000 C   0  0  0  0  0  0  0  0  0  0  0  0
   -4.2211    1.4437    0.0000 C   0  0  0  0  0  0  0  0  0  0  0  0
   -4.1661    2.2825    0.0000 C   0  0  0  0  0  0  0  0  0  0  0  0
  1 12  2  0  0  0  0
  2 26  2  0  0  0  0
  3  6  1  0  0  0  0
  3 10  1  0  0  0  0
  4 15  2  0  0  0  0
  4 19  1  0  0  0  0
  5 23  1  0  0  0  0
  5 26  1  0  0  0  0
  6  7  2  0  0  0  0
  6  9  1  0  0  0  0
  7  8  1  0  0  0  0
  7 13  1  0  0  0  0
  8 10  2  0  0  0  0
  8 12  1  0  0  0  0
  9 11  1  0  0  0  0
  9 14  2  0  0  0  0
 10 16  1  0  0  0  0
 11 17  1  0  0  0  0
 11 19  2  0  0  0  0
 12 18  1  0  0  0  0
 13 17  2  0  0  0  0
 14 15  1  0  0  0  0
 15 20  1  0  0  0  0
 16 18  1  0  0  0  0
 20 21  2  0  0  0  0
 20 22  1  0  0  0  0
 21 23  1  0  0  0  0
 22 24  2  0  0  0  0
 23 25  2  0  0  0  0
 24 25  1  0  0  0  0
 24 27  1  0  0  0  0
 26 28  1  0  0  0  0
 28 29  2  0  0  0  0
M  END
> <PUBCHEM_COMPOUND_ID_TYPE>
0

> <PUBCHEM_TOTAL_CHARGE>
0

> <PUBCHEM_SUBSTANCE_ID>
310945125

> <PUBCHEM_SUBSTANCE_VERSION>
1

> <PUBCHEM_EXT_DATASOURCE_NAME>
4488

> <PUBCHEM_EXT_DATASOURCE_REGID>
SCHEMBL16123215

> <PUBCHEM_SUBSTANCE_COMMENT>
InChI=1S/C24H19N3O2/c1-3-22(29)26-16-9-13(2)8-15(10-16)20-11-18-14(12-25-20)4-5-17-23-19(27-24(17)18)6-7-21(23)28/h3-5,8-12,27H,1,6-7H2,2H3,(H,26,29)
InChIKey=TUNCAJPNGQHWKR-UHFFFAOYSA-N

> <PUBCHEM_SUBSTANCE_SYNONYM>
SCHEMBL16123215

> <PUBCHEM_XREF_EXT_ID>
SCHEMBL16123215

> <PUBCHEM_EXT_DATASOURCE_URL>
https://www.surechembl.org/

> <PUBCHEM_EXT_SUBSTANCE_URL>
https://www.surechembl.org/chemical/SCHEMBL16123215

> <PUBCHEM_CID_ASSOCIATIONS>
117611220  1

> <PUBCHEM_COORDINATE_TYPE>
1
3

$$$$
