310948149
  -OEChem-07211613022D

 49 54  0     0  0  0  0  0  0999 V2000
    3.4536   -2.7173    0.0000 S   0  0  0  0  0  0  0  0  0  0  0  0
   -3.7572   -1.1234    0.0000 F   0  0  0  0  0  0  0  0  0  0  0  0
   -2.8160    0.2126    0.0000 F   0  0  0  0  0  0  0  0  0  0  0  0
    2.8464    3.4308    0.0000 F   0  0  0  0  0  0  0  0  0  0  0  0
    3.5902    2.5959    0.0000 F   0  0  0  0  0  0  0  0  0  0  0  0
    3.4536    0.1670    0.0000 F   0  0  0  0  0  0  0  0  0  0  0  0
   -1.4649    0.2429    0.0000 O   0  0  0  0  0  0  0  0  0  0  0  0
    1.9507    2.7629    0.0000 O   0  0  0  0  0  0  0  0  0  0  0  0
    2.8464    1.7762    0.0000 O   0  0  0  0  0  0  0  0  0  0  0  0
   -3.5295    1.0475    0.0000 O   0  0  0  0  0  0  0  0  0  0  0  0
   -4.6984    0.2278    0.0000 O   0  0  0  0  0  0  0  0  0  0  0  0
    2.7401   -3.1423    0.0000 O   0  0  0  0  0  0  0  0  0  0  0  0
    4.1671   -2.3074    0.0000 O   0  0  0  0  0  0  0  0  0  0  0  0
    4.6984   -0.5617    0.0000 O   0  0  0  0  0  0  0  0  0  0  0  0
   -1.9507   -1.9582    0.0000 N   0  0  0  0  0  0  0  0  0  0  0  0
   -0.9336    1.4725    0.0000 N   0  0  0  0  0  0  0  0  0  0  0  0
   -2.7401   -1.7002    0.0000 N   0  0  0  0  0  0  0  0  0  0  0  0
   -0.2353   -0.5465    0.0000 C   0  0  0  0  0  0  0  0  0  0  0  0
   -0.6603    0.1670    0.0000 C   0  0  0  0  0  0  0  0  0  0  0  0
   -0.6451   -1.2600    0.0000 C   0  0  0  0  0  0  0  0  0  0  0  0
   -0.3112    0.9260    0.0000 C   0  0  0  0  0  0  0  0  0  0  0  0
   -1.4801   -1.2600    0.0000 C   0  0  0  0  0  0  0  0  0  0  0  0
    0.4934    1.0930    0.0000 C   0  0  0  0  0  0  0  0  0  0  0  0
    0.9943   -1.2600    0.0000 C   0  0  0  0  0  0  0  0  0  0  0  0
    0.5845   -0.5617    0.0000 C   0  0  0  0  0  0  0  0  0  0  0  0
   -2.7401   -0.8501    0.0000 C   0  0  0  0  0  0  0  0  0  0  0  0
   -1.9507   -0.6072    0.0000 C   0  0  0  0  0  0  0  0  0  0  0  0
   -3.3928   -0.3644    0.0000 C   0  0  0  0  0  0  0  0  0  0  0  0
    1.5409    2.0493    0.0000 C   0  0  0  0  0  0  0  0  0  0  0  0
   -0.2353   -1.9886    0.0000 C   0  0  0  0  0  0  0  0  0  0  0  0
    1.8140   -1.2751    0.0000 C   0  0  0  0  0  0  0  0  0  0  0  0
    2.1025    1.4422    0.0000 C   0  0  0  0  0  0  0  0  0  0  0  0
   -1.6320    1.0626    0.0000 C   0  0  0  0  0  0  0  0  0  0  0  0
    0.7666    1.8823    0.0000 C   0  0  0  0  0  0  0  0  0  0  0  0
    0.5845   -1.9886    0.0000 C   0  0  0  0  0  0  0  0  0  0  0  0
    2.7705    2.6111    0.0000 C   0  0  0  0  0  0  0  0  0  0  0  0
    3.0589   -1.9886    0.0000 C   0  0  0  0  0  0  0  0  0  0  0  0
    1.0398    0.4858    0.0000 C   0  0  0  0  0  0  0  0  0  0  0  0
    2.2391   -1.9886    0.0000 C   0  0  0  0  0  0  0  0  0  0  0  0
    3.4536   -1.2600    0.0000 C   0  0  0  0  0  0  0  0  0  0  0  0
    1.8444    0.6679    0.0000 C   0  0  0  0  0  0  0  0  0  0  0  0
    2.2391   -0.5617    0.0000 C   0  0  0  0  0  0  0  0  0  0  0  0
    3.0436   -0.5617    0.0000 C   0  0  0  0  0  0  0  0  0  0  0  0
   -3.8635    0.3188    0.0000 C   0  0  0  0  0  0  0  0  0  0  0  0
   -1.6775   -2.7629    0.0000 C   0  0  0  0  0  0  0  0  0  0  0  0
   -2.3909    1.3815    0.0000 C   0  0  0  0  0  0  0  0  0  0  0  0
    4.2885   -1.2751    0.0000 C   0  0  0  0  0  0  0  0  0  0  0  0
    3.8938   -3.4308    0.0000 C   0  0  0  0  0  0  0  0  0  0  0  0
   -3.9849    1.7610    0.0000 C   0  0  0  0  0  0  0  0  0  0  0  0
  1 12  2  0  0  0  0
  1 13  2  0  0  0  0
  1 37  1  0  0  0  0
  1 48  1  0  0  0  0
  2 28  1  0  0  0  0
  3 28  1  0  0  0  0
  4 36  1  0  0  0  0
  5 36  1  0  0  0  0
  6 43  1  0  0  0  0
  7 19  1  0  0  0  0
  7 33  1  0  0  0  0
  8 29  1  0  0  0  0
  8 36  1  0  0  0  0
  9 32  1  0  0  0  0
  9 36  1  0  0  0  0
 10 44  1  0  0  0  0
 10 49  1  0  0  0  0
 11 44  2  0  0  0  0
 14 47  1  0  0  0  0
 15 17  1  0  0  0  0
 15 22  1  0  0  0  0
 15 45  1  0  0  0  0
 16 21  1  0  0  0  0
 16 33  2  0  0  0  0
 17 26  2  0  0  0  0
 18 19  1  0  0  0  0
 18 20  2  0  0  0  0
 18 25  1  0  0  0  0
 19 21  2  0  0  0  0
 20 22  1  0  0  0  0
 20 30  1  0  0  0  0
 21 23  1  0  0  0  0
 22 27  2  0  0  0  0
 23 34  1  0  0  0  0
 23 38  2  0  0  0  0
 24 25  2  0  0  0  0
 24 31  1  0  0  0  0
 24 35  1  0  0  0  0
 26 27  1  0  0  0  0
 26 28  1  0  0  0  0
 28 44  1  0  0  0  0
 29 32  1  0  0  0  0
 29 34  2  0  0  0  0
 30 35  2  0  0  0  0
 31 39  2  0  0  0  0
 31 42  1  0  0  0  0
 32 41  2  0  0  0  0
 33 46  1  0  0  0  0
 37 39  1  0  0  0  0
 37 40  2  0  0  0  0
 38 41  1  0  0  0  0
 40 43  1  0  0  0  0
 40 47  1  0  0  0  0
 42 43  2  0  0  0  0
M  END
> <PUBCHEM_COMPOUND_ID_TYPE>
0

> <PUBCHEM_TOTAL_CHARGE>
0

> <PUBCHEM_SUBSTANCE_ID>
310948149

> <PUBCHEM_SUBSTANCE_VERSION>
1

> <PUBCHEM_EXT_DATASOURCE_NAME>
4488

> <PUBCHEM_EXT_DATASOURCE_REGID>
SCHEMBL16126326

> <PUBCHEM_SUBSTANCE_COMMENT>
InChI=1S/C32H24F5N3O8S/c1-15-38-28(17-6-8-24-25(11-17)48-32(36,37)47-24)29(46-15)20-9-16(18-10-22(33)21(14-41)26(12-18)49(4,43)44)5-7-19(20)23-13-27(39-40(23)2)31(34,35)30(42)45-3/h5-13,41H,14H2,1-4H3
InChIKey=ZZCKFQMZZZFQQF-UHFFFAOYSA-N

> <PUBCHEM_SUBSTANCE_SYNONYM>
SCHEMBL16126326

> <PUBCHEM_XREF_EXT_ID>
SCHEMBL16126326

> <PUBCHEM_EXT_DATASOURCE_URL>
https://www.surechembl.org/

> <PUBCHEM_EXT_SUBSTANCE_URL>
https://www.surechembl.org/chemical/SCHEMBL16126326

> <PUBCHEM_CID_ASSOCIATIONS>
117613755  1

> <PUBCHEM_COORDINATE_TYPE>
1
3

$$$$
