310934571
  -OEChem-07211613022D

 38 42  0     1  0  0  0  0  0999 V2000
   -6.5401   -0.0413    0.0000 F   0  0  0  0  0  0  0  0  0  0  0  0
    2.5071   -0.7144    0.0000 F   0  0  0  0  0  0  0  0  0  0  0  0
    2.9196    0.0000    0.0000 F   0  0  0  0  0  0  0  0  0  0  0  0
    2.5071    0.7144    0.0000 F   0  0  0  0  0  0  0  0  0  0  0  0
   -4.1636    2.3401    0.0000 O   0  0  0  0  0  0  0  0  0  0  0  0
   -4.8780    1.1026    0.0000 O   0  0  0  0  0  0  0  0  0  0  0  0
   -0.6677   -2.7678    0.0000 O   0  0  0  0  0  0  0  0  0  0  0  0
    0.7846    0.6674    0.0000 N   0  0  0  0  0  0  0  0  0  0  0  0
    0.7846   -0.6674    0.0000 N   0  0  0  0  0  0  0  0  0  0  0  0
   -3.4491    1.1026    0.0000 C   0  0  3  0  0  0  0  0  0  0  0  0
   -2.8971    0.4895    0.0000 C   0  0  0  0  0  0  0  0  0  0  0  0
   -2.1434    0.8250    0.0000 C   0  0  0  0  0  0  0  0  0  0  0  0
   -4.3661    0.1530    0.0000 C   0  0  0  0  0  0  0  0  0  0  0  0
   -3.0366    1.8170    0.0000 C   0  0  0  0  0  0  0  0  0  0  0  0
   -4.1636    1.5151    0.0000 C   0  0  0  0  0  0  0  0  0  0  0  0
   -1.4290    0.4125    0.0000 C   0  0  0  0  0  0  0  0  0  0  0  0
   -2.2296    1.6455    0.0000 C   0  0  0  0  0  0  0  0  0  0  0  0
   -5.1666    0.3526    0.0000 C   0  0  0  0  0  0  0  0  0  0  0  0
   -3.1201   -0.5596    0.0000 C   0  0  0  0  0  0  0  0  0  0  0  0
    0.0000    0.4125    0.0000 C   0  0  0  0  0  0  0  0  0  0  0  0
   -0.7144    0.8250    0.0000 C   0  0  0  0  0  0  0  0  0  0  0  0
   -4.1387   -0.6400    0.0000 C   0  0  0  0  0  0  0  0  0  0  0  0
    0.0000   -0.4125    0.0000 C   0  0  0  0  0  0  0  0  0  0  0  0
   -1.4290   -0.4125    0.0000 C   0  0  0  0  0  0  0  0  0  0  0  0
   -5.7396   -0.2408    0.0000 C   0  0  0  0  0  0  0  0  0  0  0  0
    1.2696    0.0000    0.0000 C   0  0  0  0  0  0  0  0  0  0  0  0
   -2.5070   -1.1116    0.0000 C   0  0  0  0  0  0  0  0  0  0  0  0
   -0.7144   -0.8250    0.0000 C   0  0  0  0  0  0  0  0  0  0  0  0
    2.0946    0.0000    0.0000 C   0  0  0  0  0  0  0  0  0  0  0  0
   -4.7118   -1.2335    0.0000 C   0  0  0  0  0  0  0  0  0  0  0  0
   -5.5122   -1.0339    0.0000 C   0  0  0  0  0  0  0  0  0  0  0  0
   -5.3940    1.1456    0.0000 C   0  0  0  0  0  0  0  0  0  0  0  0
   -1.7224   -0.8567    0.0000 C   0  0  0  0  0  0  0  0  0  0  0  0
   -2.6785   -1.9186    0.0000 C   0  0  0  0  0  0  0  0  0  0  0  0
   -1.1093   -1.4087    0.0000 C   0  0  0  0  0  0  0  0  0  0  0  0
   -2.0654   -2.4706    0.0000 C   0  0  0  0  0  0  0  0  0  0  0  0
   -1.2808   -2.2157    0.0000 C   0  0  0  0  0  0  0  0  0  0  0  0
    0.1169   -2.5128    0.0000 C   0  0  0  0  0  0  0  0  0  0  0  0
  1 25  1  0  0  0  0
  2 29  1  0  0  0  0
  3 29  1  0  0  0  0
  4 29  1  0  0  0  0
  5 15  2  0  0  0  0
  6 15  1  0  0  0  0
  7 37  1  0  0  0  0
  7 38  1  0  0  0  0
  8 20  1  0  0  0  0
  8 26  1  0  0  0  0
  9 23  1  0  0  0  0
  9 26  2  0  0  0  0
 10 11  1  0  0  0  0
 10 13  1  0  0  0  0
 10 14  1  0  0  0  0
 10 15  1  1  0  0  0
 11 12  2  0  0  0  0
 11 19  1  0  0  0  0
 12 16  1  0  0  0  0
 12 17  1  0  0  0  0
 13 18  1  0  0  0  0
 13 22  2  0  0  0  0
 14 17  1  0  0  0  0
 16 21  1  0  0  0  0
 16 24  2  0  0  0  0
 18 25  2  0  0  0  0
 18 32  1  0  0  0  0
 19 27  1  0  0  0  0
 20 21  2  0  0  0  0
 20 23  1  0  0  0  0
 22 30  1  0  0  0  0
 23 28  2  0  0  0  0
 24 28  1  0  0  0  0
 25 31  1  0  0  0  0
 26 29  1  0  0  0  0
 27 33  2  0  0  0  0
 27 34  1  0  0  0  0
 30 31  2  0  0  0  0
 33 35  1  0  0  0  0
 34 36  2  0  0  0  0
 35 37  2  0  0  0  0
 36 37  1  0  0  0  0
M  END
> <PUBCHEM_COMPOUND_ID_TYPE>
0

> <PUBCHEM_TOTAL_CHARGE>
0

> <PUBCHEM_SUBSTANCE_ID>
310934571

> <PUBCHEM_SUBSTANCE_VERSION>
1

> <PUBCHEM_EXT_DATASOURCE_NAME>
4488

> <PUBCHEM_EXT_DATASOURCE_REGID>
SCHEMBL16112062

> <PUBCHEM_SUBSTANCE_COMMENT>
InChI=1S/C29H24F4N2O3/c1-16-21(4-3-5-23(16)30)28(27(36)37)13-12-20(22(28)14-17-6-9-19(38-2)10-7-17)18-8-11-24-25(15-18)35-26(34-24)29(31,32)33/h3-11,15H,12-14H2,1-2H3,(H,34,35)(H,36,37)/t28-/m1/s1
InChIKey=FQFLCWOKQOWDAC-MUUNZHRXSA-N

> <PUBCHEM_SUBSTANCE_SYNONYM>
SCHEMBL16112062

> <PUBCHEM_XREF_EXT_ID>
SCHEMBL16112062

> <PUBCHEM_EXT_DATASOURCE_URL>
https://www.surechembl.org/

> <PUBCHEM_EXT_SUBSTANCE_URL>
https://www.surechembl.org/chemical/SCHEMBL16112062

> <PUBCHEM_CID_ASSOCIATIONS>
117602761  1

> <PUBCHEM_COORDINATE_TYPE>
1
3

> <PUBCHEM_BONDANNOTATIONS>
10  15  5

$$$$
