310938263
  -OEChem-07211613022D

 37 40  0     0  0  0  0  0  0999 V2000
   10.7206   -4.0738    0.0000 O   0  0  0  0  0  0  0  0  0  0  0  0
    7.2186   -6.1465    0.0000 O   0  0  0  0  0  0  0  0  0  0  0  0
    8.6480   -6.1465    0.0000 O   0  0  0  0  0  0  0  0  0  0  0  0
    1.4651   -1.2507    0.0000 O   0  0  0  0  0  0  0  0  0  0  0  0
    2.1442    0.0000    0.0000 O   0  0  0  0  0  0  0  0  0  0  0  0
    9.4342   -3.4306    0.0000 N   0  0  0  0  0  0  0  0  0  0  0  0
    5.0745   -3.2877    0.0000 N   0  0  0  0  0  0  0  0  0  0  0  0
    4.3240   -2.0369    0.0000 N   0  0  0  0  0  0  0  0  0  0  0  0
    2.8588   -1.2507    0.0000 N   0  0  0  0  0  0  0  0  0  0  0  0
    8.6480   -4.5027    0.0000 C   0  0  0  0  0  0  0  0  0  0  0  0
    9.4342   -4.7528    0.0000 C   0  0  0  0  0  0  0  0  0  0  0  0
    8.6480   -3.6808    0.0000 C   0  0  0  0  0  0  0  0  0  0  0  0
    9.8987   -4.0738    0.0000 C   0  0  0  0  0  0  0  0  0  0  0  0
    7.9333   -4.8958    0.0000 C   0  0  0  0  0  0  0  0  0  0  0  0
    7.9333   -3.2519    0.0000 C   0  0  0  0  0  0  0  0  0  0  0  0
    7.2186   -3.6808    0.0000 C   0  0  0  0  0  0  0  0  0  0  0  0
    7.2186   -4.5027    0.0000 C   0  0  0  0  0  0  0  0  0  0  0  0
    9.6843   -2.6444    0.0000 C   0  0  0  0  0  0  0  0  0  0  0  0
    7.9333   -5.7534    0.0000 C   0  0  0  0  0  0  0  0  0  0  0  0
    9.6843   -5.5390    0.0000 C   0  0  0  0  0  0  0  0  0  0  0  0
   10.2561   -4.8958    0.0000 C   0  0  0  0  0  0  0  0  0  0  0  0
    6.5039   -3.2877    0.0000 C   0  0  0  0  0  0  0  0  0  0  0  0
    5.7534   -3.6808    0.0000 C   0  0  0  0  0  0  0  0  0  0  0  0
    6.4681   -2.4300    0.0000 C   0  0  0  0  0  0  0  0  0  0  0  0
    9.1126   -2.0012    0.0000 C   0  0  0  0  0  0  0  0  0  0  0  0
   10.4705   -2.4658    0.0000 C   0  0  0  0  0  0  0  0  0  0  0  0
    5.0387   -2.4658    0.0000 C   0  0  0  0  0  0  0  0  0  0  0  0
    5.7534   -2.0369    0.0000 C   0  0  0  0  0  0  0  0  0  0  0  0
    4.3240   -1.2150    0.0000 C   0  0  0  0  0  0  0  0  0  0  0  0
    3.6093   -2.4658    0.0000 C   0  0  0  0  0  0  0  0  0  0  0  0
    2.8946   -2.0727    0.0000 C   0  0  0  0  0  0  0  0  0  0  0  0
    3.5736   -0.8219    0.0000 C   0  0  0  0  0  0  0  0  0  0  0  0
    2.1442   -0.8219    0.0000 C   0  0  0  0  0  0  0  0  0  0  0  0
    0.7147   -0.8577    0.0000 C   0  0  0  0  0  0  0  0  0  0  0  0
    0.0000   -0.4288    0.0000 C   0  0  0  0  0  0  0  0  0  0  0  0
    1.1435   -0.1429    0.0000 C   0  0  0  0  0  0  0  0  0  0  0  0
    0.3216   -1.5723    0.0000 C   0  0  0  0  0  0  0  0  0  0  0  0
  1 13  2  0  0  0  0
  2 19  2  0  0  0  0
  3 19  1  0  0  0  0
  4 33  1  0  0  0  0
  4 34  1  0  0  0  0
  5 33  2  0  0  0  0
  6 12  1  0  0  0  0
  6 13  1  0  0  0  0
  6 18  1  0  0  0  0
  7 23  1  0  0  0  0
  7 27  2  0  0  0  0
  8 27  1  0  0  0  0
  8 29  1  0  0  0  0
  8 30  1  0  0  0  0
  9 31  1  0  0  0  0
  9 32  1  0  0  0  0
  9 33  1  0  0  0  0
 10 11  1  0  0  0  0
 10 12  2  0  0  0  0
 10 14  1  0  0  0  0
 11 13  1  0  0  0  0
 11 20  1  0  0  0  0
 11 21  1  0  0  0  0
 12 15  1  0  0  0  0
 14 17  2  0  0  0  0
 14 19  1  0  0  0  0
 15 16  2  0  0  0  0
 16 17  1  0  0  0  0
 16 22  1  0  0  0  0
 18 25  1  0  0  0  0
 18 26  1  0  0  0  0
 22 23  2  0  0  0  0
 22 24  1  0  0  0  0
 24 28  2  0  0  0  0
 27 28  1  0  0  0  0
 29 32  1  0  0  0  0
 30 31  1  0  0  0  0
 34 35  1  0  0  0  0
 34 36  1  0  0  0  0
 34 37  1  0  0  0  0
M  END
> <PUBCHEM_COMPOUND_ID_TYPE>
0

> <PUBCHEM_TOTAL_CHARGE>
0

> <PUBCHEM_SUBSTANCE_ID>
310938263

> <PUBCHEM_SUBSTANCE_VERSION>
1

> <PUBCHEM_EXT_DATASOURCE_NAME>
4488

> <PUBCHEM_EXT_DATASOURCE_REGID>
SCHEMBL16116131

> <PUBCHEM_SUBSTANCE_COMMENT>
InChI=1S/C28H36N4O5/c1-17(2)32-21-15-19(14-20(24(33)34)23(21)28(6,7)25(32)35)18-8-9-22(29-16-18)30-10-12-31(13-11-30)26(36)37-27(3,4)5/h8-9,14-17H,10-13H2,1-7H3,(H,33,34)
InChIKey=DCUCPWGBDWFRQJ-UHFFFAOYSA-N

> <PUBCHEM_SUBSTANCE_SYNONYM>
SCHEMBL16116131

> <PUBCHEM_XREF_EXT_ID>
SCHEMBL16116131

> <PUBCHEM_EXT_DATASOURCE_URL>
https://www.surechembl.org/

> <PUBCHEM_EXT_SUBSTANCE_URL>
https://www.surechembl.org/chemical/SCHEMBL16116131

> <PUBCHEM_CID_ASSOCIATIONS>
117605776  1

> <PUBCHEM_COORDINATE_TYPE>
1
3

$$$$
