310938214
  -OEChem-07211613022D

 23 24  0     0  0  0  0  0  0999 V2000
   -1.1779    1.7442    0.0000 Br  0  0  0  0  0  0  0  0  0  0  0  0
   -1.8475   -1.7707    0.0000 O   0  0  0  0  0  0  0  0  0  0  0  0
   -2.8579   -0.7603    0.0000 O   0  0  0  0  0  0  0  0  0  0  0  0
    2.4053   -1.4067    0.0000 O   0  0  0  0  0  0  0  0  0  0  0  0
    1.6908   -2.6442    0.0000 O   0  0  0  0  0  0  0  0  0  0  0  0
    0.2619   -1.8192    0.0000 N   0  0  0  0  0  0  0  0  0  0  0  0
   -1.0438   -2.0968    0.0000 N   0  0  0  0  0  0  0  0  0  0  0  0
   -1.6194    0.3852    0.0000 N   0  0  0  0  0  0  0  0  0  0  0  0
   -0.6633   -0.6767    0.0000 C   0  0  0  0  0  0  0  0  0  0  0  0
   -0.4918   -1.4837    0.0000 C   0  0  0  0  0  0  0  0  0  0  0  0
   -1.4479   -0.4218    0.0000 C   0  0  0  0  0  0  0  0  0  0  0  0
   -0.0502   -0.1247    0.0000 C   0  0  0  0  0  0  0  0  0  0  0  0
   -2.0610   -0.9738    0.0000 C   0  0  0  0  0  0  0  0  0  0  0  0
   -1.0063    0.9373    0.0000 C   0  0  0  0  0  0  0  0  0  0  0  0
    0.1757   -2.6397    0.0000 C   0  0  0  0  0  0  0  0  0  0  0  0
   -0.2217    0.6823    0.0000 C   0  0  0  0  0  0  0  0  0  0  0  0
    0.9764   -1.4067    0.0000 C   0  0  0  0  0  0  0  0  0  0  0  0
   -0.6313   -2.8112    0.0000 C   0  0  0  0  0  0  0  0  0  0  0  0
    1.6908   -1.8192    0.0000 C   0  0  0  0  0  0  0  0  0  0  0  0
   -2.4308   -2.3541    0.0000 C   0  0  0  0  0  0  0  0  0  0  0  0
    3.1198   -1.8192    0.0000 C   0  0  0  0  0  0  0  0  0  0  0  0
   -2.2173   -3.1510    0.0000 C   0  0  0  0  0  0  0  0  0  0  0  0
    3.8343   -1.4067    0.0000 C   0  0  0  0  0  0  0  0  0  0  0  0
  1 14  1  0  0  0  0
  2 13  1  0  0  0  0
  2 20  1  0  0  0  0
  3 13  2  0  0  0  0
  4 19  1  0  0  0  0
  4 21  1  0  0  0  0
  5 19  2  0  0  0  0
  6 10  1  0  0  0  0
  6 15  1  0  0  0  0
  6 17  1  0  0  0  0
  7 10  2  0  0  0  0
  7 18  1  0  0  0  0
  8 11  2  0  0  0  0
  8 14  1  0  0  0  0
  9 10  1  0  0  0  0
  9 11  1  0  0  0  0
  9 12  2  0  0  0  0
 11 13  1  0  0  0  0
 12 16  1  0  0  0  0
 14 16  2  0  0  0  0
 15 18  2  0  0  0  0
 17 19  1  0  0  0  0
 20 22  1  0  0  0  0
 21 23  1  0  0  0  0
M  END
> <PUBCHEM_COMPOUND_ID_TYPE>
0

> <PUBCHEM_TOTAL_CHARGE>
0

> <PUBCHEM_SUBSTANCE_ID>
310938214

> <PUBCHEM_SUBSTANCE_VERSION>
1

> <PUBCHEM_EXT_DATASOURCE_NAME>
4488

> <PUBCHEM_EXT_DATASOURCE_REGID>
SCHEMBL16116073

> <PUBCHEM_SUBSTANCE_COMMENT>
InChI=1S/C15H16BrN3O4/c1-3-22-12(20)9-19-8-7-17-14(19)10-5-6-11(16)18-13(10)15(21)23-4-2/h5-8H,3-4,9H2,1-2H3
InChIKey=OZUGYHARYVBBQF-UHFFFAOYSA-N

> <PUBCHEM_SUBSTANCE_SYNONYM>
SCHEMBL16116073

> <PUBCHEM_XREF_EXT_ID>
SCHEMBL16116073

> <PUBCHEM_EXT_DATASOURCE_URL>
https://www.surechembl.org/

> <PUBCHEM_EXT_SUBSTANCE_URL>
https://www.surechembl.org/chemical/SCHEMBL16116073

> <PUBCHEM_CID_ASSOCIATIONS>
117605741  1

> <PUBCHEM_COORDINATE_TYPE>
1
3

$$$$
