310945015
  -OEChem-07211613022D

 29 32  0     1  0  0  0  0  0999 V2000
    1.1917   -1.5125    0.0000 S   0  0  0  0  0  0  0  0  0  0  0  0
    2.7195   -2.1440    0.0000 O   0  0  0  0  0  0  0  0  0  0  0  0
   -0.8861    1.6347    0.0000 O   0  0  0  0  0  0  0  0  0  0  0  0
   -4.2574    1.4310    0.0000 O   0  0  0  0  0  0  0  0  0  0  0  0
    2.0676    0.4736    0.0000 N   0  0  0  0  0  0  0  0  0  0  0  0
    3.3611   -0.8810    0.0000 N   0  0  0  0  0  0  0  0  0  0  0  0
   -1.9556    0.6774    0.0000 N   0  0  0  0  0  0  0  0  0  0  0  0
   -3.6769    0.1171    0.0000 N   0  0  0  0  0  0  0  0  0  0  0  0
    0.7741   -0.2088    0.0000 C   0  0  0  0  0  0  0  0  0  0  0  0
    1.6093   -0.2190    0.0000 C   0  0  0  0  0  0  0  0  0  0  0  0
    1.8639   -1.0033    0.0000 C   0  0  0  0  0  0  0  0  0  0  0  0
    0.5093   -1.0033    0.0000 C   0  0  0  0  0  0  0  0  0  0  0  0
    0.2241    0.4023    0.0000 C   0  0  0  0  0  0  0  0  0  0  0  0
   -0.5806    0.2291    0.0000 C   0  0  0  0  0  0  0  0  0  0  0  0
    2.6481   -1.2884    0.0000 C   0  0  0  0  0  0  0  0  0  0  0  0
   -0.2750   -1.1764    0.0000 C   0  0  0  0  0  0  0  0  0  0  0  0
   -0.8250   -0.5755    0.0000 C   0  0  0  0  0  0  0  0  0  0  0  0
   -1.1611    0.8301    0.0000 C   0  0  0  0  0  0  0  0  0  0  0  0
    2.8824    0.5551    0.0000 C   0  0  0  0  0  0  0  0  0  0  0  0
    3.4732   -0.0459    0.0000 C   0  0  3  0  0  0  0  0  0  0  0  0
   -2.2204   -0.1171    0.0000 C   0  0  3  0  0  0  0  0  0  0  0  0
   -2.9945   -0.3819    0.0000 C   0  0  3  0  0  0  0  0  0  0  0  0
   -1.7315   -0.7894    0.0000 C   0  0  0  0  0  0  0  0  0  0  0  0
   -2.9945   -1.2069    0.0000 C   0  0  0  0  0  0  0  0  0  0  0  0
   -2.2102   -1.4514    0.0000 C   0  0  0  0  0  0  0  0  0  0  0  0
    4.2574    0.2088    0.0000 C   0  0  0  0  0  0  0  0  0  0  0  0
   -3.5750    0.9421    0.0000 C   0  0  0  0  0  0  0  0  0  0  0  0
   -2.8315    1.2783    0.0000 C   0  0  0  0  0  0  0  0  0  0  0  0
   -2.8111    2.1440    0.0000 C   0  0  0  0  0  0  0  0  0  0  0  0
  1 11  1  0  0  0  0
  1 12  1  0  0  0  0
  2 15  2  0  0  0  0
  3 18  2  0  0  0  0
  4 27  2  0  0  0  0
  5 10  1  0  0  0  0
  5 19  1  0  0  0  0
  6 15  1  0  0  0  0
  6 20  1  0  0  0  0
  7 18  1  0  0  0  0
 21  7  1  1  0  0  0
 22  8  1  6  0  0  0
  8 27  1  0  0  0  0
  9 10  1  0  0  0  0
  9 12  1  0  0  0  0
  9 13  2  0  0  0  0
 10 11  2  0  0  0  0
 11 15  1  0  0  0  0
 12 16  2  0  0  0  0
 13 14  1  0  0  0  0
 14 17  2  0  0  0  0
 14 18  1  0  0  0  0
 16 17  1  0  0  0  0
 19 20  1  0  0  0  0
 20 26  1  1  0  0  0
 21 22  1  0  0  0  0
 21 23  1  0  0  0  0
 22 24  1  0  0  0  0
 23 25  1  0  0  0  0
 24 25  1  0  0  0  0
 27 28  1  0  0  0  0
 28 29  2  0  0  0  0
M  END
> <PUBCHEM_COMPOUND_ID_TYPE>
0

> <PUBCHEM_TOTAL_CHARGE>
0

> <PUBCHEM_SUBSTANCE_ID>
310945015

> <PUBCHEM_SUBSTANCE_VERSION>
1

> <PUBCHEM_EXT_DATASOURCE_NAME>
4488

> <PUBCHEM_EXT_DATASOURCE_REGID>
SCHEMBL16123103

> <PUBCHEM_SUBSTANCE_COMMENT>
InChI=1S/C21H24N4O3S/c1-3-17(26)24-14-5-4-6-15(14)25-20(27)12-7-8-16-13(9-12)18-19(29-16)21(28)23-11(2)10-22-18/h3,7-9,11,14-15,22H,1,4-6,10H2,2H3,(H,23,28)(H,24,26)(H,25,27)/t11-,14+,15+/m1/s1
InChIKey=IWRRIDADTCIEEA-UGFHNGPFSA-N

> <PUBCHEM_SUBSTANCE_SYNONYM>
SCHEMBL16123103

> <PUBCHEM_XREF_EXT_ID>
SCHEMBL16123103

> <PUBCHEM_EXT_DATASOURCE_URL>
https://www.surechembl.org/

> <PUBCHEM_EXT_SUBSTANCE_URL>
https://www.surechembl.org/chemical/SCHEMBL16123103

> <PUBCHEM_CID_ASSOCIATIONS>
117611153  1

> <PUBCHEM_COORDINATE_TYPE>
1
3

> <PUBCHEM_BONDANNOTATIONS>
20  26  5
21  7  5
22  8  6

$$$$
