310931997
  -OEChem-07211613022D

 32 36  0     0  0  0  0  0  0999 V2000
    7.5125   -1.1877    0.0000 F   0  0  0  0  0  0  0  0  0  0  0  0
    1.0689   -4.2165    0.0000 O   0  0  0  0  0  0  0  0  0  0  0  0
    5.1667   -2.5240    0.0000 O   0  0  0  0  0  0  0  0  0  0  0  0
    1.2174   -2.7912    0.0000 N   0  0  0  0  0  0  0  0  0  0  0  0
    0.3266   -0.7423    0.0000 N   0  0  0  0  0  0  0  0  0  0  0  0
    4.7806   -3.9196    0.0000 N   0  0  0  0  0  0  0  0  0  0  0  0
    5.1964   -4.6322    0.0000 N   0  0  0  0  0  0  0  0  0  0  0  0
    3.5038   -4.4838    0.0000 N   0  0  0  0  0  0  0  0  0  0  0  0
    8.9081   -1.1877    0.0000 N   0  0  0  0  0  0  0  0  0  0  0  0
    0.7423   -1.6925    0.0000 C   0  0  0  0  0  0  0  0  0  0  0  0
    1.5440   -2.0191    0.0000 C   0  0  0  0  0  0  0  0  0  0  0  0
    0.4454   -2.4943    0.0000 C   0  0  0  0  0  0  0  0  0  0  0  0
    0.0297   -1.5440    0.0000 C   0  0  0  0  0  0  0  0  0  0  0  0
    1.1284   -1.0689    0.0000 C   0  0  0  0  0  0  0  0  0  0  0  0
    1.5440   -3.5633    0.0000 C   0  0  0  0  0  0  0  0  0  0  0  0
    6.0872   -3.6226    0.0000 C   0  0  0  0  0  0  0  0  0  0  0  0
    2.3755   -3.6523    0.0000 C   0  0  0  0  0  0  0  0  0  0  0  0
    5.3152   -3.2960    0.0000 C   0  0  0  0  0  0  0  0  0  0  0  0
    6.7998   -3.2366    0.0000 C   0  0  0  0  0  0  0  0  0  0  0  0
    3.9789   -3.8305    0.0000 C   0  0  0  0  0  0  0  0  0  0  0  0
    5.9981   -4.4540    0.0000 C   0  0  0  0  0  0  0  0  0  0  0  0
    7.5125   -3.6226    0.0000 C   0  0  0  0  0  0  0  0  0  0  0  0
    2.6724   -4.3947    0.0000 C   0  0  0  0  0  0  0  0  0  0  0  0
    2.8209   -2.9991    0.0000 C   0  0  0  0  0  0  0  0  0  0  0  0
    3.6523   -3.0584    0.0000 C   0  0  0  0  0  0  0  0  0  0  0  0
    6.7998   -2.4052    0.0000 C   0  0  0  0  0  0  0  0  0  0  0  0
    0.0000    0.0000    0.0000 C   0  0  0  0  0  0  0  0  0  0  0  0
    7.5125   -1.9895    0.0000 C   0  0  0  0  0  0  0  0  0  0  0  0
    8.1955   -2.4052    0.0000 C   0  0  0  0  0  0  0  0  0  0  0  0
    8.1955   -3.2366    0.0000 C   0  0  0  0  0  0  0  0  0  0  0  0
    7.5125   -4.4540    0.0000 C   0  0  0  0  0  0  0  0  0  0  0  0
    8.9081   -1.9895    0.0000 C   0  0  0  0  0  0  0  0  0  0  0  0
  1 28  1  0  0  0  0
  2 15  2  0  0  0  0
  3 18  1  0  0  0  0
  4 11  1  0  0  0  0
  4 12  1  0  0  0  0
  4 15  1  0  0  0  0
  5 13  1  0  0  0  0
  5 14  1  0  0  0  0
  5 27  1  0  0  0  0
  6  7  1  0  0  0  0
  6 18  1  0  0  0  0
  6 20  1  0  0  0  0
  7 21  2  0  0  0  0
  8 20  1  0  0  0  0
  8 23  2  0  0  0  0
  9 32  3  0  0  0  0
 10 11  1  0  0  0  0
 10 12  1  0  0  0  0
 10 13  1  0  0  0  0
 10 14  1  0  0  0  0
 15 17  1  0  0  0  0
 16 18  2  0  0  0  0
 16 19  1  0  0  0  0
 16 21  1  0  0  0  0
 17 23  1  0  0  0  0
 17 24  2  0  0  0  0
 19 22  1  0  0  0  0
 19 26  2  0  0  0  0
 20 25  2  0  0  0  0
 22 30  2  0  0  0  0
 22 31  1  0  0  0  0
 24 25  1  0  0  0  0
 26 28  1  0  0  0  0
 28 29  2  0  0  0  0
 29 30  1  0  0  0  0
 29 32  1  0  0  0  0
M  END
> <PUBCHEM_COMPOUND_ID_TYPE>
0

> <PUBCHEM_TOTAL_CHARGE>
0

> <PUBCHEM_SUBSTANCE_ID>
310931997

> <PUBCHEM_SUBSTANCE_VERSION>
1

> <PUBCHEM_EXT_DATASOURCE_NAME>
4488

> <PUBCHEM_EXT_DATASOURCE_REGID>
SCHEMBL16109338

> <PUBCHEM_SUBSTANCE_COMMENT>
InChI=1S/C23H21FN6O2/c1-14-5-16(7-25)19(24)6-17(14)18-9-27-30(22(18)32)20-4-3-15(8-26-20)21(31)29-12-23(13-29)10-28(2)11-23/h3-6,8-9,32H,10-13H2,1-2H3
InChIKey=CORRUQPUBKVDOT-UHFFFAOYSA-N

> <PUBCHEM_SUBSTANCE_SYNONYM>
SCHEMBL16109338

> <PUBCHEM_XREF_EXT_ID>
SCHEMBL16109338

> <PUBCHEM_EXT_DATASOURCE_URL>
https://www.surechembl.org/

> <PUBCHEM_EXT_SUBSTANCE_URL>
https://www.surechembl.org/chemical/SCHEMBL16109338

> <PUBCHEM_CID_ASSOCIATIONS>
117600637  1

> <PUBCHEM_COORDINATE_TYPE>
1
3

$$$$
