310943875
  -OEChem-07211613022D

  9  9  0     0  0  0  0  0  0999 V2000
    0.3311    1.6282    0.0000 Br  0  0  0  0  0  0  0  0  0  0  0  0
    1.0583    0.4233    0.0000 N   0  0  0  0  0  0  0  0  0  0  0  0
    1.0801   -0.3908    0.0000 N   0  0  0  0  0  0  0  0  0  0  0  0
    0.3962   -1.6282    0.0000 N   0  0  0  0  0  0  0  0  0  0  0  0
    0.3311    0.8250    0.0000 C   0  0  0  0  0  0  0  0  0  0  0  0
   -0.3528    0.4016    0.0000 C   0  0  0  0  0  0  0  0  0  0  0  0
    0.3853   -0.8141    0.0000 C   0  0  0  0  0  0  0  0  0  0  0  0
   -0.3419   -0.4233    0.0000 C   0  0  0  0  0  0  0  0  0  0  0  0
   -1.0801    0.8033    0.0000 C   0  0  0  0  0  0  0  0  0  0  0  0
  1  5  1  0  0  0  0
  2  3  2  0  0  0  0
  2  5  1  0  0  0  0
  3  7  1  0  0  0  0
  4  7  1  0  0  0  0
  5  6  2  0  0  0  0
  6  8  1  0  0  0  0
  6  9  1  0  0  0  0
  7  8  2  0  0  0  0
M  END
> <PUBCHEM_COMPOUND_ID_TYPE>
0

> <PUBCHEM_TOTAL_CHARGE>
0

> <PUBCHEM_SUBSTANCE_ID>
310943875

> <PUBCHEM_SUBSTANCE_VERSION>
1

> <PUBCHEM_EXT_DATASOURCE_NAME>
4488

> <PUBCHEM_EXT_DATASOURCE_REGID>
SCHEMBL16121946

> <PUBCHEM_SUBSTANCE_COMMENT>
InChI=1S/C5H6BrN3/c1-3-2-4(7)8-9-5(3)6/h2H,1H3,(H2,7,8)
InChIKey=CAGVHYUDSYQEHN-UHFFFAOYSA-N

> <PUBCHEM_SUBSTANCE_SYNONYM>
SCHEMBL16121946

> <PUBCHEM_XREF_EXT_ID>
SCHEMBL16121946

> <PUBCHEM_EXT_DATASOURCE_URL>
https://www.surechembl.org/

> <PUBCHEM_EXT_SUBSTANCE_URL>
https://www.surechembl.org/chemical/SCHEMBL16121946

> <PUBCHEM_CID_ASSOCIATIONS>
117610201  1

> <PUBCHEM_COORDINATE_TYPE>
1
3

$$$$
