310947134
  -OEChem-07211613022D

 49 51  0     1  0  0  0  0  0999 V2000
   -4.1089   -0.0731    0.0000 P   0  0  3  0  0  0  0  0  0  0  0  0
   -5.4067   -0.2439    0.0000 O   0  0  0  0  0  0  0  0  0  0  0  0
   -3.8954   -0.8699    0.0000 O   0  0  0  0  0  0  0  0  0  0  0  0
   -4.1089    0.7519    0.0000 O   0  0  0  0  0  0  0  0  0  0  0  0
   -0.4260    0.7519    0.0000 O   0  0  0  0  0  0  0  0  0  0  0  0
   -6.8357    0.5811    0.0000 N   0  0  0  0  0  0  0  0  0  0  0  0
   -6.4232    1.8506    0.0000 N   0  0  0  0  0  0  0  0  0  0  0  0
   -8.3101    0.8945    0.0000 N   0  0  0  0  0  0  0  0  0  0  0  0
   -8.6072    2.2922    0.0000 N   0  0  0  0  0  0  0  0  0  0  0  0
   -7.5867    3.2606    0.0000 N   0  0  0  0  0  0  0  0  0  0  0  0
   -3.2839   -0.0731    0.0000 N   0  0  0  0  0  0  0  0  0  0  0  0
   -1.1405   -0.4856    0.0000 N   0  0  0  0  0  0  0  0  0  0  0  0
   -7.5031    1.0660    0.0000 C   0  0  0  0  0  0  0  0  0  0  0  0
   -7.2482    1.8506    0.0000 C   0  0  0  0  0  0  0  0  0  0  0  0
   -7.8002    2.4637    0.0000 C   0  0  0  0  0  0  0  0  0  0  0  0
   -6.1682    1.0660    0.0000 C   0  0  0  0  0  0  0  0  0  0  0  0
   -6.8357   -0.2439    0.0000 C   0  0  0  0  0  0  0  0  0  0  0  0
   -8.8621    1.5076    0.0000 C   0  0  0  0  0  0  0  0  0  0  0  0
   -6.1212   -0.6564    0.0000 C   0  0  3  0  0  0  0  0  0  0  0  0
   -4.6923   -0.6564    0.0000 C   0  0  0  0  0  0  0  0  0  0  0  0
   -4.1089   -1.6668    0.0000 C   0  0  0  0  0  0  0  0  0  0  0  0
   -5.7087   -1.3709    0.0000 C   0  0  0  0  0  0  0  0  0  0  0  0
   -3.5255   -2.2502    0.0000 C   0  0  0  0  0  0  0  0  0  0  0  0
   -4.9058   -1.8804    0.0000 C   0  0  0  0  0  0  0  0  0  0  0  0
   -2.5694   -0.4856    0.0000 C   0  0  0  0  0  0  0  0  0  0  0  0
   -3.7391   -3.0471    0.0000 C   0  0  0  0  0  0  0  0  0  0  0  0
   -5.1193   -2.6772    0.0000 C   0  0  0  0  0  0  0  0  0  0  0  0
   -4.5359   -3.2606    0.0000 C   0  0  0  0  0  0  0  0  0  0  0  0
   -1.8550   -0.0731    0.0000 C   0  0  0  0  0  0  0  0  0  0  0  0
   -0.4260   -0.0731    0.0000 C   0  0  0  0  0  0  0  0  0  0  0  0
    0.2885   -0.4856    0.0000 C   0  0  0  0  0  0  0  0  0  0  0  0
    1.0029   -0.0731    0.0000 C   0  0  0  0  0  0  0  0  0  0  0  0
    1.0029    0.7519    0.0000 C   0  0  0  0  0  0  0  0  0  0  0  0
    1.7174    1.1644    0.0000 C   0  0  0  0  0  0  0  0  0  0  0  0
    2.4319    0.7519    0.0000 C   0  0  0  0  0  0  0  0  0  0  0  0
    2.4319   -0.0731    0.0000 C   0  0  0  0  0  0  0  0  0  0  0  0
    3.1463   -0.4856    0.0000 C   0  0  0  0  0  0  0  0  0  0  0  0
    3.8608   -0.0731    0.0000 C   0  0  0  0  0  0  0  0  0  0  0  0
    3.8608    0.7519    0.0000 C   0  0  0  0  0  0  0  0  0  0  0  0
    4.5753    1.1644    0.0000 C   0  0  0  0  0  0  0  0  0  0  0  0
    5.2898    0.7519    0.0000 C   0  0  0  0  0  0  0  0  0  0  0  0
    5.2898   -0.0731    0.0000 C   0  0  0  0  0  0  0  0  0  0  0  0
    6.0042   -0.4856    0.0000 C   0  0  0  0  0  0  0  0  0  0  0  0
    6.7187   -0.0731    0.0000 C   0  0  0  0  0  0  0  0  0  0  0  0
    6.7187    0.7519    0.0000 C   0  0  0  0  0  0  0  0  0  0  0  0
    7.4332    1.1644    0.0000 C   0  0  0  0  0  0  0  0  0  0  0  0
    8.1476    0.7519    0.0000 C   0  0  0  0  0  0  0  0  0  0  0  0
    8.1476   -0.0731    0.0000 C   0  0  0  0  0  0  0  0  0  0  0  0
    8.8621   -0.4856    0.0000 C   0  0  0  0  0  0  0  0  0  0  0  0
  1  3  1  0  0  0  0
  1  4  2  0  0  0  0
  1 11  1  0  0  0  0
  1 20  1  0  0  0  0
  2 19  1  0  0  0  0
  2 20  1  0  0  0  0
  3 21  1  0  0  0  0
  5 30  2  0  0  0  0
  6 13  1  0  0  0  0
  6 16  1  0  0  0  0
  6 17  1  0  0  0  0
  7 14  1  0  0  0  0
  7 16  2  0  0  0  0
  8 13  1  0  0  0  0
  8 18  2  0  0  0  0
  9 15  2  0  0  0  0
  9 18  1  0  0  0  0
 10 15  1  0  0  0  0
 11 25  1  0  0  0  0
 12 29  1  0  0  0  0
 12 30  1  0  0  0  0
 13 14  2  0  0  0  0
 14 15  1  0  0  0  0
 17 19  1  0  0  0  0
 19 22  1  6  0  0  0
 21 23  2  0  0  0  0
 21 24  1  0  0  0  0
 23 26  1  0  0  0  0
 24 27  2  0  0  0  0
 25 29  1  0  0  0  0
 26 28  2  0  0  0  0
 27 28  1  0  0  0  0
 30 31  1  0  0  0  0
 31 32  1  0  0  0  0
 32 33  1  0  0  0  0
 33 34  1  0  0  0  0
 34 35  2  0  0  0  0
 35 36  1  0  0  0  0
 36 37  1  0  0  0  0
 37 38  2  0  0  0  0
 38 39  1  0  0  0  0
 39 40  1  0  0  0  0
 40 41  2  0  0  0  0
 41 42  1  0  0  0  0
 42 43  1  0  0  0  0
 43 44  2  0  0  0  0
 44 45  1  0  0  0  0
 45 46  1  0  0  0  0
 46 47  2  0  0  0  0
 47 48  1  0  0  0  0
 48 49  1  0  0  0  0
M  END
> <PUBCHEM_COMPOUND_ID_TYPE>
0

> <PUBCHEM_TOTAL_CHARGE>
0

> <PUBCHEM_SUBSTANCE_ID>
310947134

> <PUBCHEM_SUBSTANCE_VERSION>
1

> <PUBCHEM_EXT_DATASOURCE_NAME>
4488

> <PUBCHEM_EXT_DATASOURCE_REGID>
SCHEMBL16125288

> <PUBCHEM_SUBSTANCE_COMMENT>
InChI=1S/C37H52N7O4P/c1-3-4-5-6-7-8-9-10-11-12-13-14-15-16-17-18-22-25-34(45)39-26-27-43-49(46,48-33-23-20-19-21-24-33)31-47-32(2)28-44-30-42-35-36(38)40-29-41-37(35)44/h4-5,7-8,10-11,13-14,16-17,19-21,23-24,29-30,32H,3,6,9,12,15,18,22,25-28,31H2,1-2H3,(H,39,45)(H,43,46)(H2,38,40,41)/b5-4-,8-7-,11-10-,14-13-,17-16-/t32-,49?/m1/s1
InChIKey=NQKIULXUGCDBEX-UHRVFOMWSA-N

> <PUBCHEM_SUBSTANCE_SYNONYM>
SCHEMBL16125288

> <PUBCHEM_XREF_EXT_ID>
SCHEMBL16125288

> <PUBCHEM_EXT_DATASOURCE_URL>
https://www.surechembl.org/

> <PUBCHEM_EXT_SUBSTANCE_URL>
https://www.surechembl.org/chemical/SCHEMBL16125288

> <PUBCHEM_CID_ASSOCIATIONS>
86270689  1

> <PUBCHEM_COORDINATE_TYPE>
1
3

> <PUBCHEM_BONDANNOTATIONS>
19  22  6

$$$$
