310939457
  -OEChem-07211613022D

 21 22  0     1  0  0  0  0  0999 V2000
   -1.4631   -4.6740    0.0000 O   0  0  0  0  0  0  0  0  0  0  0  0
   -0.0342   -4.6740    0.0000 O   0  0  0  0  0  0  0  0  0  0  0  0
   -1.4631   -7.1490    0.0000 O   0  0  0  0  0  0  0  0  0  0  0  0
    2.1092   -6.7365    0.0000 O   0  0  0  0  0  0  0  0  0  0  0  0
    1.3948   -7.9740    0.0000 O   0  0  0  0  0  0  0  0  0  0  0  0
   -1.4631   -5.4990    0.0000 C   0  0  3  0  0  0  0  0  0  0  0  0
   -2.1776   -5.9115    0.0000 C   0  0  0  0  0  0  0  0  0  0  0  0
   -0.7486   -5.9115    0.0000 C   0  0  3  0  0  0  0  0  0  0  0  0
   -0.7486   -4.2615    0.0000 C   0  0  0  0  0  0  0  0  0  0  0  0
   -2.1776   -6.7365    0.0000 C   0  0  0  0  0  0  0  0  0  0  0  0
   -0.0342   -5.4990    0.0000 C   0  0  0  0  0  0  0  0  0  0  0  0
   -2.8921   -5.4990    0.0000 C   0  0  0  0  0  0  0  0  0  0  0  0
   -0.7486   -6.7365    0.0000 C   0  0  0  0  0  0  0  0  0  0  0  0
   -2.8921   -7.1490    0.0000 C   0  0  0  0  0  0  0  0  0  0  0  0
   -1.1611   -3.5470    0.0000 C   0  0  0  0  0  0  0  0  0  0  0  0
   -0.3361   -3.5470    0.0000 C   0  0  0  0  0  0  0  0  0  0  0  0
   -3.6065   -5.9115    0.0000 C   0  0  0  0  0  0  0  0  0  0  0  0
   -3.6065   -6.7365    0.0000 C   0  0  0  0  0  0  0  0  0  0  0  0
   -0.0342   -7.1490    0.0000 C   0  0  0  0  0  0  0  0  0  0  0  0
    0.6803   -6.7365    0.0000 C   0  0  0  0  0  0  0  0  0  0  0  0
    1.3948   -7.1490    0.0000 C   0  0  0  0  0  0  0  0  0  0  0  0
  1  6  1  0  0  0  0
  1  9  1  0  0  0  0
  2  9  1  0  0  0  0
  2 11  1  0  0  0  0
  3 10  1  0  0  0  0
  4 21  2  0  0  0  0
  5 21  1  0  0  0  0
  6  7  1  0  0  0  0
  6  8  1  0  0  0  0
  7 10  1  0  0  0  0
  7 12  2  0  0  0  0
  8 11  1  0  0  0  0
  8 13  1  1  0  0  0
  9 15  1  0  0  0  0
  9 16  1  0  0  0  0
 10 14  2  0  0  0  0
 12 17  1  0  0  0  0
 13 19  1  0  0  0  0
 14 18  1  0  0  0  0
 17 18  2  0  0  0  0
 19 20  2  0  0  0  0
 20 21  1  0  0  0  0
M  END
> <PUBCHEM_COMPOUND_ID_TYPE>
0

> <PUBCHEM_TOTAL_CHARGE>
0

> <PUBCHEM_SUBSTANCE_ID>
310939457

> <PUBCHEM_SUBSTANCE_VERSION>
1

> <PUBCHEM_EXT_DATASOURCE_NAME>
4488

> <PUBCHEM_EXT_DATASOURCE_REGID>
SCHEMBL16117381

> <PUBCHEM_SUBSTANCE_COMMENT>
InChI=1S/C16H20O5/c1-16(2)20-10-11(6-5-9-14(18)19)15(21-16)12-7-3-4-8-13(12)17/h3-5,7-9,11,15,17H,6,10H2,1-2H3,(H,18,19)/b9-5+/t11-,15?/m1/s1
InChIKey=GMSDRPRHXHFBQB-CUQVTKTQSA-N

> <PUBCHEM_SUBSTANCE_SYNONYM>
SCHEMBL16117381

> <PUBCHEM_XREF_EXT_ID>
SCHEMBL16117381

> <PUBCHEM_EXT_DATASOURCE_URL>
https://www.surechembl.org/

> <PUBCHEM_EXT_SUBSTANCE_URL>
https://www.surechembl.org/chemical/SCHEMBL16117381

> <PUBCHEM_CID_ASSOCIATIONS>
117606772  1

> <PUBCHEM_COORDINATE_TYPE>
1
3

> <PUBCHEM_BONDANNOTATIONS>
8  13  5

$$$$
