310929163
  -OEChem-07211613022D

 61 65  0     0  0  0  0  0  0999 V2000
    0.6584   -2.8312    0.0000 S   0  0  0  0  0  0  0  0  0  0  0  0
    7.7034   -2.8312    0.0000 O   0  0  0  0  0  0  0  0  0  0  0  0
    2.7653   -1.5802    0.0000 O   0  0  0  0  0  0  0  0  0  0  0  0
    3.4896   -1.1851    0.0000 O   0  0  0  0  0  0  0  0  0  0  0  0
    1.1193   -3.5554    0.0000 O   0  0  0  0  0  0  0  0  0  0  0  0
    0.3292   -2.1069    0.0000 O   0  0  0  0  0  0  0  0  0  0  0  0
   12.6415   -4.8722    0.0000 O   0  0  0  0  0  0  0  0  0  0  0  0
   14.0900   -1.5802    0.0000 O   0  0  0  0  0  0  0  0  0  0  0  0
   16.1969   -1.1851    0.0000 O   0  0  0  0  0  0  0  0  0  0  0  0
   18.3039   -1.5802    0.0000 O   0  0  0  0  0  0  0  0  0  0  0  0
   19.0281   -3.6213    0.0000 O   0  0  0  0  0  0  0  0  0  0  0  0
    4.2138   -2.4361    0.0000 N   0  0  0  0  0  0  0  0  0  0  0  0
    4.9381   -1.1851    0.0000 N   0  0  0  0  0  0  0  0  0  0  0  0
    1.3827   -2.4361    0.0000 N   0  0  0  0  0  0  0  0  0  0  0  0
    9.1520   -2.8312    0.0000 N   0  0  0  0  0  0  0  0  0  0  0  0
    9.8104   -1.5802    0.0000 N   0  0  0  0  0  0  0  0  0  0  0  0
   10.5346   -2.8312    0.0000 N   0  0  0  0  0  0  0  0  0  0  0  0
   14.7485   -2.8312    0.0000 N   0  0  0  0  0  0  0  0  0  0  0  0
    3.4896   -2.8312    0.0000 C   0  0  0  0  0  0  0  0  0  0  0  0
    2.7653   -2.4361    0.0000 C   0  0  0  0  0  0  0  0  0  0  0  0
    6.3208   -1.2510    0.0000 C   0  0  0  0  0  0  0  0  0  0  0  0
    6.9792   -1.6461    0.0000 C   0  0  0  0  0  0  0  0  0  0  0  0
    2.1069   -2.8312    0.0000 C   0  0  0  0  0  0  0  0  0  0  0  0
    2.7653   -4.0163    0.0000 C   0  0  0  0  0  0  0  0  0  0  0  0
    5.5965   -1.5802    0.0000 C   0  0  0  0  0  0  0  0  0  0  0  0
    7.0450   -2.4361    0.0000 C   0  0  0  0  0  0  0  0  0  0  0  0
    3.4896   -3.6213    0.0000 C   0  0  0  0  0  0  0  0  0  0  0  0
    2.1069   -3.6213    0.0000 C   0  0  0  0  0  0  0  0  0  0  0  0
    2.7653   -4.8722    0.0000 C   0  0  0  0  0  0  0  0  0  0  0  0
    4.2138   -1.6461    0.0000 C   0  0  0  0  0  0  0  0  0  0  0  0
    5.5965   -2.4361    0.0000 C   0  0  0  0  0  0  0  0  0  0  0  0
    6.3208   -2.8312    0.0000 C   0  0  0  0  0  0  0  0  0  0  0  0
    6.3208   -0.3950    0.0000 C   0  0  0  0  0  0  0  0  0  0  0  0
    7.7034   -1.2510    0.0000 C   0  0  0  0  0  0  0  0  0  0  0  0
    8.4277   -2.4361    0.0000 C   0  0  0  0  0  0  0  0  0  0  0  0
    6.9792    0.0000    0.0000 C   0  0  0  0  0  0  0  0  0  0  0  0
    7.7034   -0.3950    0.0000 C   0  0  0  0  0  0  0  0  0  0  0  0
    1.9094   -4.8722    0.0000 C   0  0  0  0  0  0  0  0  0  0  0  0
    2.7653   -5.6623    0.0000 C   0  0  0  0  0  0  0  0  0  0  0  0
    3.5554   -4.8722    0.0000 C   0  0  0  0  0  0  0  0  0  0  0  0
    9.8762   -2.4361    0.0000 C   0  0  0  0  0  0  0  0  0  0  0  0
    8.4277   -1.5802    0.0000 C   0  0  0  0  0  0  0  0  0  0  0  0
    2.1069   -1.1851    0.0000 C   0  0  0  0  0  0  0  0  0  0  0  0
    0.0000   -3.2262    0.0000 C   0  0  0  0  0  0  0  0  0  0  0  0
   11.9831   -2.8312    0.0000 C   0  0  0  0  0  0  0  0  0  0  0  0
    9.1520   -1.1851    0.0000 C   0  0  0  0  0  0  0  0  0  0  0  0
   13.3658   -2.8312    0.0000 C   0  0  0  0  0  0  0  0  0  0  0  0
   12.6415   -2.4361    0.0000 C   0  0  0  0  0  0  0  0  0  0  0  0
   12.6415   -4.0821    0.0000 C   0  0  0  0  0  0  0  0  0  0  0  0
   11.2588   -2.4361    0.0000 C   0  0  0  0  0  0  0  0  0  0  0  0
   11.9831   -3.6213    0.0000 C   0  0  0  0  0  0  0  0  0  0  0  0
   13.3658   -3.6213    0.0000 C   0  0  0  0  0  0  0  0  0  0  0  0
   14.0900   -2.4361    0.0000 C   0  0  0  0  0  0  0  0  0  0  0  0
   15.4727   -2.4361    0.0000 C   0  0  0  0  0  0  0  0  0  0  0  0
   13.3658   -5.2673    0.0000 C   0  0  0  0  0  0  0  0  0  0  0  0
   15.4727   -1.5802    0.0000 C   0  0  0  0  0  0  0  0  0  0  0  0
   16.9212   -1.5802    0.0000 C   0  0  0  0  0  0  0  0  0  0  0  0
   17.5796   -1.1851    0.0000 C   0  0  0  0  0  0  0  0  0  0  0  0
   18.3039   -2.4361    0.0000 C   0  0  0  0  0  0  0  0  0  0  0  0
   19.0281   -2.8312    0.0000 C   0  0  0  0  0  0  0  0  0  0  0  0
   19.7524   -4.0163    0.0000 C   0  0  0  0  0  0  0  0  0  0  0  0
  1  5  2  0  0  0  0
  1  6  2  0  0  0  0
  1 14  1  0  0  0  0
  1 44  1  0  0  0  0
  2 26  1  0  0  0  0
  2 35  1  0  0  0  0
  3 20  1  0  0  0  0
  3 43  1  0  0  0  0
  4 30  2  0  0  0  0
  7 49  1  0  0  0  0
  7 55  1  0  0  0  0
  8 53  2  0  0  0  0
  9 56  1  0  0  0  0
  9 57  1  0  0  0  0
 10 58  1  0  0  0  0
 10 59  1  0  0  0  0
 11 60  1  0  0  0  0
 11 61  1  0  0  0  0
 12 19  1  0  0  0  0
 12 30  1  0  0  0  0
 13 25  1  0  0  0  0
 13 30  1  0  0  0  0
 14 23  1  0  0  0  0
 15 35  2  0  0  0  0
 15 41  1  0  0  0  0
 16 41  2  0  0  0  0
 16 46  1  0  0  0  0
 17 41  1  0  0  0  0
 17 50  1  0  0  0  0
 18 53  1  0  0  0  0
 18 54  1  0  0  0  0
 19 20  1  0  0  0  0
 19 27  2  0  0  0  0
 20 23  2  0  0  0  0
 21 22  2  0  0  0  0
 21 25  1  0  0  0  0
 21 33  1  0  0  0  0
 22 26  1  0  0  0  0
 22 34  1  0  0  0  0
 23 28  1  0  0  0  0
 24 27  1  0  0  0  0
 24 28  2  0  0  0  0
 24 29  1  0  0  0  0
 25 31  2  0  0  0  0
 26 32  2  0  0  0  0
 29 38  1  0  0  0  0
 29 39  1  0  0  0  0
 29 40  1  0  0  0  0
 31 32  1  0  0  0  0
 33 36  2  0  0  0  0
 34 37  2  0  0  0  0
 35 42  1  0  0  0  0
 36 37  1  0  0  0  0
 42 46  2  0  0  0  0
 45 48  1  0  0  0  0
 45 50  1  0  0  0  0
 45 51  2  0  0  0  0
 47 48  2  0  0  0  0
 47 52  1  0  0  0  0
 47 53  1  0  0  0  0
 49 51  1  0  0  0  0
 49 52  2  0  0  0  0
 54 56  1  0  0  0  0
 57 58  1  0  0  0  0
 59 60  1  0  0  0  0
M  END
> <PUBCHEM_COMPOUND_ID_TYPE>
0

> <PUBCHEM_TOTAL_CHARGE>
0

> <PUBCHEM_SUBSTANCE_ID>
310929163

> <PUBCHEM_SUBSTANCE_VERSION>
1

> <PUBCHEM_EXT_DATASOURCE_NAME>
4488

> <PUBCHEM_EXT_DATASOURCE_REGID>
SCHEMBL16106326

> <PUBCHEM_SUBSTANCE_COMMENT>
InChI=1S/C43H53N7O10S/c1-43(2,3)30-25-35(39(57-6)36(26-30)50-61(7,53)54)48-42(52)47-34-12-13-37(33-11-9-8-10-32(33)34)60-38-14-15-45-41(49-38)46-27-28-22-29(24-31(23-28)56-5)40(51)44-16-17-58-20-21-59-19-18-55-4/h8-15,22-26,50H,16-21,27H2,1-7H3,(H,44,51)(H,45,46,49)(H2,47,48,52)
InChIKey=VZPIIZMGKKGHCR-UHFFFAOYSA-N

> <PUBCHEM_SUBSTANCE_SYNONYM>
SCHEMBL16106326

> <PUBCHEM_XREF_EXT_ID>
SCHEMBL16106326

> <PUBCHEM_EXT_DATASOURCE_URL>
https://www.surechembl.org/

> <PUBCHEM_EXT_SUBSTANCE_URL>
https://www.surechembl.org/chemical/SCHEMBL16106326

> <PUBCHEM_CID_ASSOCIATIONS>
117598625  1

> <PUBCHEM_COORDINATE_TYPE>
1
3

$$$$
