310941600
  -OEChem-07211613022D

 30 33  0     0  0  0  0  0  0999 V2000
    1.4947    1.9586    0.0000 S   0  0  0  0  0  0  0  0  0  0  0  0
   -0.8590   -0.7217    0.0000 O   0  0  0  0  0  0  0  0  0  0  0  0
   -2.3023   -1.5463    0.0000 O   0  0  0  0  0  0  0  0  0  0  0  0
    0.5669   -0.7217    0.0000 O   0  0  0  0  0  0  0  0  0  0  0  0
    4.3811    0.9793    0.0000 O   0  0  0  0  0  0  0  0  0  0  0  0
    1.3400    0.6358    0.0000 N   0  0  0  0  0  0  0  0  0  0  0  0
    2.7317    1.1511    0.0000 N   0  0  0  0  0  0  0  0  0  0  0  0
   -4.4499   -1.9586    0.0000 N   0  0  0  0  0  0  0  0  0  0  0  0
   -0.1374    0.5497    0.0000 C   0  0  0  0  0  0  0  0  0  0  0  0
   -1.5806   -0.2749    0.0000 C   0  0  0  0  0  0  0  0  0  0  0  0
   -1.5634    0.5497    0.0000 C   0  0  0  0  0  0  0  0  0  0  0  0
    0.5669    0.9793    0.0000 C   0  0  0  0  0  0  0  0  0  0  0  0
   -0.1718   -0.2577    0.0000 C   0  0  0  0  0  0  0  0  0  0  0  0
   -0.8762    0.9621    0.0000 C   0  0  0  0  0  0  0  0  0  0  0  0
   -2.2851   -0.6872    0.0000 C   0  0  0  0  0  0  0  0  0  0  0  0
    1.8899    1.2542    0.0000 C   0  0  0  0  0  0  0  0  0  0  0  0
    0.6872    1.7868    0.0000 C   0  0  0  0  0  0  0  0  0  0  0  0
   -2.2678    0.9449    0.0000 C   0  0  0  0  0  0  0  0  0  0  0  0
   -3.0067   -0.2920    0.0000 C   0  0  0  0  0  0  0  0  0  0  0  0
   -3.0067    0.5497    0.0000 C   0  0  0  0  0  0  0  0  0  0  0  0
    3.0411    0.4295    0.0000 C   0  0  0  0  0  0  0  0  0  0  0  0
    3.8829    0.3092    0.0000 C   0  0  0  0  0  0  0  0  0  0  0  0
    2.5943   -0.2749    0.0000 C   0  0  0  0  0  0  0  0  0  0  0  0
    4.2265   -0.4467    0.0000 C   0  0  0  0  0  0  0  0  0  0  0  0
   -2.9895   -1.9415    0.0000 C   0  0  0  0  0  0  0  0  0  0  0  0
    2.9207   -1.0309    0.0000 C   0  0  0  0  0  0  0  0  0  0  0  0
    3.7282   -1.1168    0.0000 C   0  0  0  0  0  0  0  0  0  0  0  0
   -3.7454   -1.5290    0.0000 C   0  0  0  0  0  0  0  0  0  0  0  0
    5.1886    0.8762    0.0000 C   0  0  0  0  0  0  0  0  0  0  0  0
   -5.1886   -1.5463    0.0000 C   0  0  0  0  0  0  0  0  0  0  0  0
  1 16  1  0  0  0  0
  1 17  1  0  0  0  0
  2 10  1  0  0  0  0
  2 13  1  0  0  0  0
  3 15  1  0  0  0  0
  3 25  1  0  0  0  0
  4 13  2  0  0  0  0
  5 22  1  0  0  0  0
  5 29  1  0  0  0  0
  6 12  1  0  0  0  0
  6 16  2  0  0  0  0
  7 16  1  0  0  0  0
  7 21  1  0  0  0  0
  8 28  1  0  0  0  0
  8 30  1  0  0  0  0
  9 12  1  0  0  0  0
  9 13  1  0  0  0  0
  9 14  2  0  0  0  0
 10 11  1  0  0  0  0
 10 15  2  0  0  0  0
 11 14  1  0  0  0  0
 11 18  2  0  0  0  0
 12 17  2  0  0  0  0
 15 19  1  0  0  0  0
 18 20  1  0  0  0  0
 19 20  2  0  0  0  0
 21 22  1  0  0  0  0
 21 23  2  0  0  0  0
 22 24  2  0  0  0  0
 23 26  1  0  0  0  0
 24 27  1  0  0  0  0
 25 28  1  0  0  0  0
 26 27  2  0  0  0  0
M  END
> <PUBCHEM_COMPOUND_ID_TYPE>
0

> <PUBCHEM_TOTAL_CHARGE>
0

> <PUBCHEM_SUBSTANCE_ID>
310941600

> <PUBCHEM_SUBSTANCE_VERSION>
1

> <PUBCHEM_EXT_DATASOURCE_NAME>
4488

> <PUBCHEM_EXT_DATASOURCE_REGID>
SCHEMBL16119631

> <PUBCHEM_SUBSTANCE_COMMENT>
InChI=1S/C22H21N3O4S/c1-23-10-11-28-19-9-5-6-14-12-15(21(26)29-20(14)19)17-13-30-22(25-17)24-16-7-3-4-8-18(16)27-2/h3-9,12-13,23H,10-11H2,1-2H3,(H,24,25)
InChIKey=ZTSHCFXGXUFSGB-UHFFFAOYSA-N

> <PUBCHEM_SUBSTANCE_SYNONYM>
SCHEMBL16119631

> <PUBCHEM_XREF_EXT_ID>
SCHEMBL16119631

> <PUBCHEM_EXT_DATASOURCE_URL>
https://www.surechembl.org/

> <PUBCHEM_EXT_SUBSTANCE_URL>
https://www.surechembl.org/chemical/SCHEMBL16119631

> <PUBCHEM_CID_ASSOCIATIONS>
117608399  1

> <PUBCHEM_COORDINATE_TYPE>
1
3

$$$$
