310949577
  -OEChem-07211613022D

 40 45  0     1  0  0  0  0  0999 V2000
   -1.4320   -0.6848    0.0000 O   0  0  0  0  0  0  0  0  0  0  0  0
    4.5699    0.2242    0.0000 O   0  0  0  0  0  0  0  0  0  0  0  0
    5.9023    0.6226    0.0000 O   0  0  0  0  0  0  0  0  0  0  0  0
    1.5316    0.2989    0.0000 N   0  0  0  0  0  0  0  0  0  0  0  0
    2.0297    0.9713    0.0000 N   0  0  0  0  0  0  0  0  0  0  0  0
   -2.1418    0.5604    0.0000 N   0  0  0  0  0  0  0  0  0  0  0  0
    0.7347    0.5729    0.0000 C   0  0  0  0  0  0  0  0  0  0  0  0
    0.7347    1.3946    0.0000 C   0  0  0  0  0  0  0  0  0  0  0  0
    1.5192    1.6562    0.0000 C   0  0  0  0  0  0  0  0  0  0  0  0
    0.0249    0.1495    0.0000 C   0  0  0  0  0  0  0  0  0  0  0  0
   -0.6973    0.5604    0.0000 C   0  0  0  0  0  0  0  0  0  0  0  0
    0.0124    1.7931    0.0000 C   0  0  0  0  0  0  0  0  0  0  0  0
    1.7432   -0.4982    0.0000 C   0  0  0  0  0  0  0  0  0  0  0  0
   -0.6848    1.3946    0.0000 C   0  0  0  0  0  0  0  0  0  0  0  0
   -1.4196    0.1619    0.0000 C   0  0  0  0  0  0  0  0  0  0  0  0
    2.5527   -0.7097    0.0000 C   0  0  0  0  0  0  0  0  0  0  0  0
    4.1466   -1.1332    0.0000 C   0  0  0  0  0  0  0  0  0  0  0  0
    4.9560   -1.3573    0.0000 C   0  0  0  0  0  0  0  0  0  0  0  0
    1.9425    2.3659    0.0000 C   0  0  0  0  0  0  0  0  0  0  0  0
    2.7769   -1.5067    0.0000 C   0  0  0  0  0  0  0  0  0  0  0  0
    3.1255   -0.1369    0.0000 C   0  0  0  0  0  0  0  0  0  0  0  0
   -2.8516    0.1495    0.0000 C   0  0  3  0  0  0  0  0  0  0  0  0
    5.5287   -0.7720    0.0000 C   0  0  0  0  0  0  0  0  0  0  0  0
   -3.5862    0.5729    0.0000 C   0  0  0  0  0  0  0  0  0  0  0  0
   -5.0058    0.5604    0.0000 C   0  0  0  0  0  0  0  0  0  0  0  0
    3.5613   -1.7185    0.0000 C   0  0  0  0  0  0  0  0  0  0  0  0
    3.9349   -0.3487    0.0000 C   0  0  0  0  0  0  0  0  0  0  0  0
   -5.7404    0.1495    0.0000 C   0  0  0  0  0  0  0  0  0  0  0  0
   -4.2835    0.1495    0.0000 C   0  0  0  0  0  0  0  0  0  0  0  0
    5.1800   -2.1542    0.0000 C   0  0  0  0  0  0  0  0  0  0  0  0
   -6.1389   -0.5729    0.0000 C   0  0  0  0  0  0  0  0  0  0  0  0
   -6.5498    0.1369    0.0000 C   0  0  0  0  0  0  0  0  0  0  0  0
    5.3295    0.0249    0.0000 C   0  0  0  0  0  0  0  0  0  0  0  0
   -3.5738    1.3946    0.0000 C   0  0  0  0  0  0  0  0  0  0  0  0
   -4.9933    1.3946    0.0000 C   0  0  0  0  0  0  0  0  0  0  0  0
    6.3381   -0.9961    0.0000 C   0  0  0  0  0  0  0  0  0  0  0  0
   -4.2959    1.7931    0.0000 C   0  0  0  0  0  0  0  0  0  0  0  0
    5.9770   -2.3659    0.0000 C   0  0  0  0  0  0  0  0  0  0  0  0
    6.5498   -1.7931    0.0000 C   0  0  0  0  0  0  0  0  0  0  0  0
   -2.8516   -0.6848    0.0000 C   0  0  0  0  0  0  0  0  0  0  0  0
  1 15  2  0  0  0  0
  2 33  2  0  0  0  0
  3 33  1  0  0  0  0
  4  5  1  0  0  0  0
  4  7  1  0  0  0  0
  4 13  1  0  0  0  0
  5  9  2  0  0  0  0
  6 15  1  0  0  0  0
  6 22  1  0  0  0  0
  7  8  1  0  0  0  0
  7 10  2  0  0  0  0
  8  9  1  0  0  0  0
  8 12  2  0  0  0  0
  9 19  1  0  0  0  0
 10 11  1  0  0  0  0
 11 14  2  0  0  0  0
 11 15  1  0  0  0  0
 12 14  1  0  0  0  0
 13 16  1  0  0  0  0
 16 20  2  0  0  0  0
 16 21  1  0  0  0  0
 17 18  1  0  0  0  0
 17 26  2  0  0  0  0
 17 27  1  0  0  0  0
 18 23  1  0  0  0  0
 18 30  2  0  0  0  0
 20 26  1  0  0  0  0
 21 27  2  0  0  0  0
 22 24  1  0  0  0  0
 22 40  1  1  0  0  0
 23 33  1  0  0  0  0
 23 36  2  0  0  0  0
 24 29  2  0  0  0  0
 24 34  1  0  0  0  0
 25 28  1  0  0  0  0
 25 29  1  0  0  0  0
 25 35  2  0  0  0  0
 28 31  1  0  0  0  0
 28 32  1  0  0  0  0
 30 38  1  0  0  0  0
 31 32  1  0  0  0  0
 34 37  2  0  0  0  0
 35 37  1  0  0  0  0
 36 39  1  0  0  0  0
 38 39  2  0  0  0  0
M  END
> <PUBCHEM_COMPOUND_ID_TYPE>
0

> <PUBCHEM_TOTAL_CHARGE>
0

> <PUBCHEM_SUBSTANCE_ID>
310949577

> <PUBCHEM_SUBSTANCE_VERSION>
1

> <PUBCHEM_EXT_DATASOURCE_NAME>
4488

> <PUBCHEM_EXT_DATASOURCE_REGID>
SCHEMBL16127773

> <PUBCHEM_SUBSTANCE_COMMENT>
InChI=1S/C34H31N3O3/c1-21(26-6-5-7-27(18-26)24-14-15-24)35-33(38)28-16-17-29-22(2)36-37(32(29)19-28)20-23-10-12-25(13-11-23)30-8-3-4-9-31(30)34(39)40/h3-13,16-19,21,24H,14-15,20H2,1-2H3,(H,35,38)(H,39,40)/t21-/m0/s1
InChIKey=KLGVIWNHBIPASZ-NRFANRHFSA-N

> <PUBCHEM_SUBSTANCE_SYNONYM>
SCHEMBL16127773

> <PUBCHEM_XREF_EXT_ID>
SCHEMBL16127773

> <PUBCHEM_EXT_DATASOURCE_URL>
https://www.surechembl.org/

> <PUBCHEM_EXT_SUBSTANCE_URL>
https://www.surechembl.org/chemical/SCHEMBL16127773

> <PUBCHEM_CID_ASSOCIATIONS>
71577816  1

> <PUBCHEM_COORDINATE_TYPE>
1
3

> <PUBCHEM_BONDANNOTATIONS>
22  40  5

$$$$
