310930942
  -OEChem-07211613022D

 32 35  0     1  0  0  0  0  0999 V2000
    2.8734   -5.6899    0.0000 Cl  0  0  0  0  0  0  0  0  0  0  0  0
    6.1736   -1.4225    0.0000 S   0  0  0  0  0  0  0  0  0  0  0  0
    6.1736   -2.3329    0.0000 O   0  0  0  0  0  0  0  0  0  0  0  0
    6.1736   -0.6259    0.0000 O   0  0  0  0  0  0  0  0  0  0  0  0
    2.8450   -1.4225    0.0000 O   0  0  0  0  0  0  0  0  0  0  0  0
    6.9417   -1.4225    0.0000 N   0  0  0  0  0  0  0  0  0  0  0  0
    6.0598   -0.1707    0.0000 N   0  0  0  0  0  0  0  0  0  0  0  0
    0.3983   -1.4510    0.0000 N   0  0  0  0  0  0  0  0  0  0  0  0
    2.8734    0.0000    0.0000 N   0  0  0  0  0  0  0  0  0  0  0  0
    7.3685   -0.7113    0.0000 C   0  0  0  0  0  0  0  0  0  0  0  0
    7.8521   -0.0854    0.0000 C   0  0  0  0  0  0  0  0  0  0  0  0
    8.1935   -0.8251    0.0000 C   0  0  0  0  0  0  0  0  0  0  0  0
    5.3486   -1.4225    0.0000 C   0  0  0  0  0  0  0  0  0  0  0  0
    6.8564   -0.0569    0.0000 C   0  0  0  0  0  0  0  0  0  0  0  0
    4.9218   -0.7113    0.0000 C   0  0  0  0  0  0  0  0  0  0  0  0
    4.0968   -0.7113    0.0000 C   0  0  0  0  0  0  0  0  0  0  0  0
    3.6700   -1.4225    0.0000 C   0  0  0  0  0  0  0  0  0  0  0  0
    4.9218   -2.1338    0.0000 C   0  0  0  0  0  0  0  0  0  0  0  0
    4.0968   -2.1338    0.0000 C   0  0  0  0  0  0  0  0  0  0  0  0
    1.2233   -2.8450    0.0000 C   0  0  3  0  0  0  0  0  0  0  0  0
    1.6216   -2.1338    0.0000 C   0  0  3  0  0  0  0  0  0  0  0  0
    1.6216   -3.5562    0.0000 C   0  0  0  0  0  0  0  0  0  0  0  0
    2.4466   -2.1338    0.0000 C   0  0  0  0  0  0  0  0  0  0  0  0
    3.6984    0.0000    0.0000 C   0  0  0  0  0  0  0  0  0  0  0  0
    0.3983   -2.8450    0.0000 C   0  0  0  0  0  0  0  0  0  0  0  0
    1.2233   -1.4510    0.0000 C   0  0  0  0  0  0  0  0  0  0  0  0
    2.4466   -3.5562    0.0000 C   0  0  0  0  0  0  0  0  0  0  0  0
    1.2233   -4.2675    0.0000 C   0  0  0  0  0  0  0  0  0  0  0  0
    0.0000   -2.1622    0.0000 C   0  0  0  0  0  0  0  0  0  0  0  0
    2.4466   -4.9787    0.0000 C   0  0  0  0  0  0  0  0  0  0  0  0
    2.8450   -4.2675    0.0000 C   0  0  0  0  0  0  0  0  0  0  0  0
    1.6216   -4.9787    0.0000 C   0  0  0  0  0  0  0  0  0  0  0  0
  1 30  1  0  0  0  0
  2  3  2  0  0  0  0
  2  4  2  0  0  0  0
  2  6  1  0  0  0  0
  2 13  1  0  0  0  0
  5 17  1  0  0  0  0
  5 23  1  0  0  0  0
  6 10  1  0  0  0  0
  7 14  3  0  0  0  0
  8 26  1  0  0  0  0
  8 29  1  0  0  0  0
  9 24  3  0  0  0  0
 10 11  1  0  0  0  0
 10 12  1  0  0  0  0
 10 14  1  0  0  0  0
 11 12  1  0  0  0  0
 13 15  1  0  0  0  0
 13 18  2  0  0  0  0
 15 16  2  0  0  0  0
 16 17  1  0  0  0  0
 16 24  1  0  0  0  0
 17 19  2  0  0  0  0
 18 19  1  0  0  0  0
 20 21  1  0  0  0  0
 20 22  1  0  0  0  0
 20 25  1  1  0  0  0
 21 23  1  6  0  0  0
 21 26  1  0  0  0  0
 22 27  2  0  0  0  0
 22 28  1  0  0  0  0
 25 29  1  0  0  0  0
 27 31  1  0  0  0  0
 28 32  2  0  0  0  0
 30 31  2  0  0  0  0
 30 32  1  0  0  0  0
M  END
> <PUBCHEM_COMPOUND_ID_TYPE>
0

> <PUBCHEM_TOTAL_CHARGE>
0

> <PUBCHEM_SUBSTANCE_ID>
310930942

> <PUBCHEM_SUBSTANCE_VERSION>
1

> <PUBCHEM_EXT_DATASOURCE_NAME>
4488

> <PUBCHEM_EXT_DATASOURCE_REGID>
SCHEMBL16108241

> <PUBCHEM_SUBSTANCE_COMMENT>
InChI=1S/C23H23ClN4O3S/c24-19-3-1-16(2-4-19)21-7-10-27-13-18(21)14-31-22-6-5-20(11-17(22)12-25)32(29,30)28-23(15-26)8-9-23/h1-6,11,18,21,27-28H,7-10,13-14H2/t18-,21-/m1/s1
InChIKey=JYDXODVSBUPPCH-WIYYLYMNSA-N

> <PUBCHEM_SUBSTANCE_SYNONYM>
SCHEMBL16108241

> <PUBCHEM_XREF_EXT_ID>
SCHEMBL16108241

> <PUBCHEM_EXT_DATASOURCE_URL>
https://www.surechembl.org/

> <PUBCHEM_EXT_SUBSTANCE_URL>
https://www.surechembl.org/chemical/SCHEMBL16108241

> <PUBCHEM_CID_ASSOCIATIONS>
71558729  1

> <PUBCHEM_COORDINATE_TYPE>
1
3

> <PUBCHEM_BONDANNOTATIONS>
20  25  5
21  23  6

$$$$
