310930979
  -OEChem-07211613022D

 26 25  0     0  0  0  0  0  0999 V2000
   -3.5724   -1.2375    0.0000 S   0  0  0  0  0  0  0  0  0  0  0  0
   -2.8579    0.0000    0.0000 S   0  0  0  0  0  0  0  0  0  0  0  0
   -5.0014   -2.0625    0.0000 F   0  0  0  0  0  0  0  0  0  0  0  0
   -4.2869   -2.4751    0.0000 F   0  0  0  0  0  0  0  0  0  0  0  0
   -5.0014   -1.2375    0.0000 F   0  0  0  0  0  0  0  0  0  0  0  0
   -3.5724    1.2375    0.0000 F   0  0  0  0  0  0  0  0  0  0  0  0
   -2.1435    1.2375    0.0000 F   0  0  0  0  0  0  0  0  0  0  0  0
   -2.8579    1.6500    0.0000 F   0  0  0  0  0  0  0  0  0  0  0  0
   -3.9850   -0.5231    0.0000 O   0  0  0  0  0  0  0  0  0  0  0  0
   -3.1599   -1.9520    0.0000 O   0  0  0  0  0  0  0  0  0  0  0  0
   -2.0329    0.0000    0.0000 O   0  0  0  0  0  0  0  0  0  0  0  0
   -3.6829    0.0000    0.0000 O   0  0  0  0  0  0  0  0  0  0  0  0
   -2.8579   -0.8250    0.0000 N   0  3  0  0  0  0  0  0  0  0  0  0
   -1.4290   -0.8250    0.0000 N   0  0  0  0  0  0  0  0  0  0  0  0
    1.4290   -0.8250    0.0000 N   0  3  0  0  0  0  0  0  0  0  0  0
   -4.2869   -1.6500    0.0000 C   0  0  0  0  0  0  0  0  0  0  0  0
   -2.8579    0.8250    0.0000 C   0  0  0  0  0  0  0  0  0  0  0  0
   -2.1435   -1.2375    0.0000 C   0  0  0  0  0  0  0  0  0  0  0  0
   -2.1435   -2.0625    0.0000 C   0  0  0  0  0  0  0  0  0  0  0  0
   -0.7145   -1.2375    0.0000 C   0  0  0  0  0  0  0  0  0  0  0  0
   -2.8579   -2.4751    0.0000 C   0  0  0  0  0  0  0  0  0  0  0  0
    0.0000   -0.8250    0.0000 C   0  0  0  0  0  0  0  0  0  0  0  0
    0.7145   -1.2375    0.0000 C   0  0  0  0  0  0  0  0  0  0  0  0
    2.1435   -0.4125    0.0000 C   0  0  0  0  0  0  0  0  0  0  0  0
    1.4290    0.0000    0.0000 C   0  0  0  0  0  0  0  0  0  0  0  0
    2.1435   -1.2375    0.0000 C   0  0  0  0  0  0  0  0  0  0  0  0
  1  9  2  0  0  0  0
  1 10  2  0  0  0  0
  1 13  1  0  0  0  0
  1 16  1  0  0  0  0
  2 11  2  0  0  0  0
  2 12  2  0  0  0  0
  2 13  1  0  0  0  0
  2 17  1  0  0  0  0
  3 16  1  0  0  0  0
  4 16  1  0  0  0  0
  5 16  1  0  0  0  0
  6 17  1  0  0  0  0
  7 17  1  0  0  0  0
  8 17  1  0  0  0  0
 13 18  2  0  0  0  0
 14 18  1  0  0  0  0
 14 20  1  0  0  0  0
 15 23  1  0  0  0  0
 15 24  1  0  0  0  0
 15 25  1  0  0  0  0
 15 26  1  0  0  0  0
 18 19  1  0  0  0  0
 19 21  2  0  0  0  0
 20 22  1  0  0  0  0
 22 23  1  0  0  0  0
M  CHG  2  13   1  15   1
M  END
> <PUBCHEM_COMPOUND_ID_TYPE>
0

> <PUBCHEM_TOTAL_CHARGE>
2

> <PUBCHEM_SUBSTANCE_ID>
310930979

> <PUBCHEM_SUBSTANCE_VERSION>
1

> <PUBCHEM_EXT_DATASOURCE_NAME>
4488

> <PUBCHEM_EXT_DATASOURCE_REGID>
SCHEMBL16108279

> <PUBCHEM_SUBSTANCE_COMMENT>
InChI=1S/C11H18F6N3O4S2/c1-5-9(18-7-6-8-20(2,3)4)19(25(21,22)10(12,13)14)26(23,24)11(15,16)17/h5H,1,6-8H2,2-4H3/q+1/p+1
InChIKey=KZLALZJLJQSGEP-UHFFFAOYSA-O

> <PUBCHEM_SUBSTANCE_SYNONYM>
SCHEMBL16108279

> <PUBCHEM_XREF_EXT_ID>
SCHEMBL16108279

> <PUBCHEM_EXT_DATASOURCE_URL>
https://www.surechembl.org/

> <PUBCHEM_EXT_SUBSTANCE_URL>
https://www.surechembl.org/chemical/SCHEMBL16108279

> <PUBCHEM_CID_ASSOCIATIONS>
117599917  1

> <PUBCHEM_COORDINATE_TYPE>
1
3

$$$$
