310941274
  -OEChem-07211613022D

 54 56  0     1  0  0  0  0  0999 V2000
    3.8787   -1.1482    0.0000 S   0  0  0  0  0  0  0  0  0  0  0  0
    0.9936    2.1638    0.0000 O   0  0  0  0  0  0  0  0  0  0  0  0
   -3.3193    2.1638    0.0000 O   0  0  0  0  0  0  0  0  0  0  0  0
   -1.1703    0.0883    0.0000 O   0  0  0  0  0  0  0  0  0  0  0  0
   -6.0425    1.9724    0.0000 O   0  0  0  0  0  0  0  0  0  0  0  0
    3.1574    0.0883    0.0000 O   0  0  0  0  0  0  0  0  0  0  0  0
    5.3065    2.1638    0.0000 O   0  0  0  0  0  0  0  0  0  0  0  0
    3.1574    2.5907    0.0000 O   0  0  0  0  0  0  0  0  0  0  0  0
    3.0396   -1.1482    0.0000 O   0  0  0  0  0  0  0  0  0  0  0  0
    4.7030   -1.1482    0.0000 O   0  0  0  0  0  0  0  0  0  0  0  0
    3.8787   -1.9872    0.0000 O   0  0  0  0  0  0  0  0  0  0  0  0
    0.5225   -1.3248    0.0000 N   0  0  0  0  0  0  0  0  0  0  0  0
   -4.7913    1.2659    0.0000 N   0  0  0  0  0  0  0  0  0  0  0  0
   -0.4489    1.3395    0.0000 N   0  0  0  0  0  0  0  0  0  0  0  0
   -2.5981    0.9274    0.0000 N   0  0  0  0  0  0  0  0  0  0  0  0
    1.8621   -1.4131    0.0000 N   0  0  0  0  0  0  0  0  0  0  0  0
    1.7148    0.9274    0.0000 N   0  0  0  0  0  0  0  0  0  0  0  0
    3.8787    1.3395    0.0000 N   0  0  0  0  0  0  0  0  0  0  0  0
    6.0425    0.9274    0.0000 N   0  0  0  0  0  0  0  0  0  0  0  0
    0.8169   -0.5299    0.0000 C   0  0  0  0  0  0  0  0  0  0  0  0
    0.3018    0.9421    0.0000 C   0  0  3  0  0  0  0  0  0  0  0  0
   -0.4932   -1.5750    0.0000 C   0  0  3  0  0  0  0  0  0  0  0  0
    0.2723    0.0883    0.0000 C   0  0  0  0  0  0  0  0  0  0  0  0
   -4.0111    0.9568    0.0000 C   0  0  3  0  0  0  0  0  0  0  0  0
    0.9936    1.3395    0.0000 C   0  0  0  0  0  0  0  0  0  0  0  0
   -3.3340    1.3395    0.0000 C   0  0  0  0  0  0  0  0  0  0  0  0
   -1.8915    1.3542    0.0000 C   0  0  3  0  0  0  0  0  0  0  0  0
   -1.1703    0.9715    0.0000 C   0  0  0  0  0  0  0  0  0  0  0  0
    1.1703   -1.8253    0.0000 C   0  0  0  0  0  0  0  0  0  0  0  0
    1.6560   -0.5888    0.0000 C   0  0  0  0  0  0  0  0  0  0  0  0
   -0.7286   -2.0313    0.0000 C   0  0  0  0  0  0  0  0  0  0  0  0
    2.4361    1.3542    0.0000 C   0  0  3  0  0  0  0  0  0  0  0  0
   -4.0995    0.1325    0.0000 C   0  0  0  0  0  0  0  0  0  0  0  0
   -5.3359    0.6330    0.0000 C   0  0  0  0  0  0  0  0  0  0  0  0
   -5.1887    1.9872    0.0000 C   0  0  0  0  0  0  0  0  0  0  0  0
    3.1721    0.9568    0.0000 C   0  0  0  0  0  0  0  0  0  0  0  0
    4.6000    0.9274    0.0000 C   0  0  3  0  0  0  0  0  0  0  0  0
   -4.9385   -0.0295    0.0000 C   0  0  0  0  0  0  0  0  0  0  0  0
   -1.8621    2.1932    0.0000 C   0  0  0  0  0  0  0  0  0  0  0  0
   -1.5382   -2.0313    0.0000 C   0  0  0  0  0  0  0  0  0  0  0  0
   -0.3165   -2.7379    0.0000 C   0  0  0  0  0  0  0  0  0  0  0  0
   -0.4637   -1.0010    0.0000 C   0  0  0  0  0  0  0  0  0  0  0  0
    4.5852    0.1031    0.0000 C   0  0  3  0  0  0  0  0  0  0  0  0
    5.3653    1.3395    0.0000 C   0  0  0  0  0  0  0  0  0  0  0  0
    2.4509    2.1932    0.0000 C   0  0  0  0  0  0  0  0  0  0  0  0
   -1.1703    2.6054    0.0000 C   0  0  0  0  0  0  0  0  0  0  0  0
    3.8934   -0.3091    0.0000 C   0  0  0  0  0  0  0  0  0  0  0  0
   -1.9503   -2.7379    0.0000 C   0  0  0  0  0  0  0  0  0  0  0  0
   -0.7139   -3.4445    0.0000 C   0  0  0  0  0  0  0  0  0  0  0  0
   -4.7913    2.7231    0.0000 C   0  0  0  0  0  0  0  0  0  0  0  0
   -1.5530   -3.4445    0.0000 C   0  0  0  0  0  0  0  0  0  0  0  0
    5.3212   -0.3091    0.0000 C   0  0  0  0  0  0  0  0  0  0  0  0
   -1.1703    3.4445    0.0000 C   0  0  0  0  0  0  0  0  0  0  0  0
   -0.3312    2.3993    0.0000 C   0  0  0  0  0  0  0  0  0  0  0  0
  1  9  2  0  0  0  0
  1 10  2  0  0  0  0
  1 11  1  0  0  0  0
  1 47  1  0  0  0  0
  2 25  2  0  0  0  0
  3 26  2  0  0  0  0
  4 28  2  0  0  0  0
  5 35  2  0  0  0  0
  6 36  2  0  0  0  0
  7 44  2  0  0  0  0
  8 45  1  0  0  0  0
 12 20  1  0  0  0  0
 12 22  1  0  0  0  0
 12 29  1  0  0  0  0
 13 24  1  0  0  0  0
 13 34  1  0  0  0  0
 13 35  1  0  0  0  0
 21 14  1  6  0  0  0
 14 28  1  0  0  0  0
 15 26  1  0  0  0  0
 27 15  1  1  0  0  0
 16 29  2  0  0  0  0
 16 30  1  0  0  0  0
 17 25  1  0  0  0  0
 32 17  1  1  0  0  0
 18 36  1  0  0  0  0
 37 18  1  6  0  0  0
 19 44  1  0  0  0  0
 20 23  1  0  0  0  0
 20 30  2  0  0  0  0
 21 23  1  0  0  0  0
 21 25  1  0  0  0  0
 22 31  1  0  0  0  0
 22 42  1  0  0  0  0
 24 26  1  6  0  0  0
 24 33  1  0  0  0  0
 27 28  1  0  0  0  0
 27 39  1  0  0  0  0
 31 40  2  0  0  0  0
 31 41  1  0  0  0  0
 32 36  1  0  0  0  0
 32 45  1  0  0  0  0
 33 38  1  0  0  0  0
 34 38  1  0  0  0  0
 35 50  1  0  0  0  0
 37 43  1  0  0  0  0
 37 44  1  0  0  0  0
 39 46  1  0  0  0  0
 40 48  1  0  0  0  0
 41 49  2  0  0  0  0
 43 47  1  0  0  0  0
 43 52  1  1  0  0  0
 46 53  1  0  0  0  0
 46 54  1  0  0  0  0
 48 51  2  0  0  0  0
 49 51  1  0  0  0  0
M  END
> <PUBCHEM_COMPOUND_ID_TYPE>
0

> <PUBCHEM_TOTAL_CHARGE>
0

> <PUBCHEM_SUBSTANCE_ID>
310941274

> <PUBCHEM_SUBSTANCE_VERSION>
1

> <PUBCHEM_EXT_DATASOURCE_NAME>
4488

> <PUBCHEM_EXT_DATASOURCE_REGID>
SCHEMBL16119234

> <PUBCHEM_SUBSTANCE_COMMENT>
InChI=1S/C35H52N8O10S/c1-20(2)14-26(39-35(50)29-12-9-13-42(29)23(5)45)32(47)38-27(15-25-16-37-19-43(25)22(4)24-10-7-6-8-11-24)33(48)40-28(17-44)34(49)41-30(31(36)46)21(3)18-54(51,52)53/h6-8,10-11,16,19-22,26-30,44H,9,12-15,17-18H2,1-5H3,(H2,36,46)(H,38,47)(H,39,50)(H,40,48)(H,41,49)(H,51,52,53)/t21-,22?,26-,27-,28-,29-,30-/m0/s1
InChIKey=CXVOAAFEUGWFTR-QIPBOHLXSA-N

> <PUBCHEM_SUBSTANCE_SYNONYM>
SCHEMBL16119234

> <PUBCHEM_XREF_EXT_ID>
SCHEMBL16119234

> <PUBCHEM_EXT_DATASOURCE_URL>
https://www.surechembl.org/

> <PUBCHEM_EXT_SUBSTANCE_URL>
https://www.surechembl.org/chemical/SCHEMBL16119234

> <PUBCHEM_CID_ASSOCIATIONS>
117608127  1

> <PUBCHEM_COORDINATE_TYPE>
1
3

> <PUBCHEM_BONDANNOTATIONS>
12  22  3
21  14  6
27  15  5
32  17  5
37  18  6
24  26  6
43  52  5

$$$$
