310928909
  -OEChem-07211613022D

  7  7  0     0  0  0  0  0  0999 V2000
   -0.9685    0.0000    0.0000 S   0  0  0  0  0  0  0  0  0  0  0  0
   -0.4836    0.6674    0.0000 N   0  0  0  0  0  0  0  0  0  0  0  0
    0.9685   -0.8974    0.0000 N   0  0  0  0  0  0  0  0  0  0  0  0
    0.3011    0.4125    0.0000 C   0  0  0  0  0  0  0  0  0  0  0  0
    0.3011   -0.4125    0.0000 C   0  0  0  0  0  0  0  0  0  0  0  0
   -0.4836   -0.6674    0.0000 C   0  0  0  0  0  0  0  0  0  0  0  0
    0.9685    0.8974    0.0000 C   0  0  0  0  0  0  0  0  0  0  0  0
  1  2  1  0  0  0  0
  1  6  1  0  0  0  0
  2  4  2  0  0  0  0
  3  5  1  0  0  0  0
  4  5  1  0  0  0  0
  4  7  1  0  0  0  0
  5  6  2  0  0  0  0
M  END
> <PUBCHEM_COMPOUND_ID_TYPE>
0

> <PUBCHEM_TOTAL_CHARGE>
0

> <PUBCHEM_SUBSTANCE_ID>
310928909

> <PUBCHEM_SUBSTANCE_VERSION>
1

> <PUBCHEM_EXT_DATASOURCE_NAME>
11752

> <PUBCHEM_EXT_DATASOURCE_REGID>
BD237800

> <PUBCHEM_SUBSTANCE_SYNONYM>
3-Methylisothiazol-4-amine
53483-97-9

> <PUBCHEM_GENERIC_REGISTRY_NAME>
53483-97-9

> <PUBCHEM_XREF_EXT_ID>
BD237800

> <PUBCHEM_EXT_DATASOURCE_URL>
http://www.bidepharmatech.com/en/index.html

> <PUBCHEM_EXT_SUBSTANCE_URL>
http://www.bidepharmatech.com/en/goodsview_goodscode_BD237800.html

> <PUBCHEM_CID_ASSOCIATIONS>
13348970  1

> <PUBCHEM_COORDINATE_TYPE>
1
3

$$$$
