310949244
  -OEChem-07211613022D

 43 48  0     0  0  0  0  0  0999 V2000
    0.0546    0.1822    0.0000 N   0  0  0  0  0  0  0  0  0  0  0  0
    2.2230   -0.2187    0.0000 N   0  0  0  0  0  0  0  0  0  0  0  0
    0.0546   -3.9176    0.0000 N   0  0  0  0  0  0  0  0  0  0  0  0
    0.0546   -0.6195    0.0000 C   0  0  0  0  0  0  0  0  0  0  0  0
    0.7288    0.7288    0.0000 C   0  0  0  0  0  0  0  0  0  0  0  0
   -0.6742    0.6742    0.0000 C   0  0  0  0  0  0  0  0  0  0  0  0
   -0.4009    1.4395    0.0000 C   0  0  0  0  0  0  0  0  0  0  0  0
    0.4738    1.4578    0.0000 C   0  0  0  0  0  0  0  0  0  0  0  0
   -0.6560   -1.0386    0.0000 C   0  0  0  0  0  0  0  0  0  0  0  0
    0.8017   -1.0204    0.0000 C   0  0  0  0  0  0  0  0  0  0  0  0
    0.7653   -1.8403    0.0000 C   0  0  0  0  0  0  0  0  0  0  0  0
    0.0729   -2.2412    0.0000 C   0  0  0  0  0  0  0  0  0  0  0  0
   -1.4395   -0.6195    0.0000 C   0  0  0  0  0  0  0  0  0  0  0  0
   -0.6560   -1.8768    0.0000 C   0  0  0  0  0  0  0  0  0  0  0  0
   -0.9658    2.0226    0.0000 C   0  0  0  0  0  0  0  0  0  0  0  0
    1.0386    2.0590    0.0000 C   0  0  0  0  0  0  0  0  0  0  0  0
   -1.4759    0.4920    0.0000 C   0  0  0  0  0  0  0  0  0  0  0  0
    1.5670    0.5649    0.0000 C   0  0  0  0  0  0  0  0  0  0  0  0
    1.5306   -2.2412    0.0000 C   0  0  0  0  0  0  0  0  0  0  0  0
   -1.8222    1.8586    0.0000 C   0  0  0  0  0  0  0  0  0  0  0  0
    1.8768    1.9497    0.0000 C   0  0  0  0  0  0  0  0  0  0  0  0
    1.5124   -0.6013    0.0000 C   0  0  0  0  0  0  0  0  0  0  0  0
   -2.0590    1.0569    0.0000 C   0  0  0  0  0  0  0  0  0  0  0  0
    2.1137    1.1480    0.0000 C   0  0  0  0  0  0  0  0  0  0  0  0
   -2.4234    2.4599    0.0000 C   0  0  0  0  0  0  0  0  0  0  0  0
    2.4052    2.5693    0.0000 C   0  0  0  0  0  0  0  0  0  0  0  0
    0.0546   -3.0976    0.0000 C   0  0  0  0  0  0  0  0  0  0  0  0
   -2.1501   -1.0751    0.0000 C   0  0  0  0  0  0  0  0  0  0  0  0
   -1.4030    0.1640    0.0000 C   0  0  0  0  0  0  0  0  0  0  0  0
   -0.7835   -0.0729    0.0000 C   0  0  0  0  0  0  0  0  0  0  0  0
    0.9475   -2.8426    0.0000 C   0  0  0  0  0  0  0  0  0  0  0  0
    2.2777   -1.8403    0.0000 C   0  0  0  0  0  0  0  0  0  0  0  0
    1.5670   -3.0612    0.0000 C   0  0  0  0  0  0  0  0  0  0  0  0
   -2.1501    3.2435    0.0000 C   0  0  0  0  0  0  0  0  0  0  0  0
    3.2435    2.4053    0.0000 C   0  0  0  0  0  0  0  0  0  0  0  0
   -3.2070    2.2777    0.0000 C   0  0  0  0  0  0  0  0  0  0  0  0
    2.1684    3.3163    0.0000 C   0  0  0  0  0  0  0  0  0  0  0  0
   -2.6968    3.8083    0.0000 C   0  0  0  0  0  0  0  0  0  0  0  0
    3.7901    2.9701    0.0000 C   0  0  0  0  0  0  0  0  0  0  0  0
   -3.7901    2.8426    0.0000 C   0  0  0  0  0  0  0  0  0  0  0  0
    2.7332    3.9176    0.0000 C   0  0  0  0  0  0  0  0  0  0  0  0
   -3.5350    3.6079    0.0000 C   0  0  0  0  0  0  0  0  0  0  0  0
    3.5350    3.7719    0.0000 C   0  0  0  0  0  0  0  0  0  0  0  0
  1  4  1  0  0  0  0
  1  5  1  0  0  0  0
  1  6  1  0  0  0  0
  2 22  3  0  0  0  0
  3 27  3  0  0  0  0
  4  9  1  0  0  0  0
  4 10  2  0  0  0  0
  5  8  2  0  0  0  0
  5 18  1  0  0  0  0
  6  7  2  0  0  0  0
  6 17  1  0  0  0  0
  7  8  1  0  0  0  0
  7 15  1  0  0  0  0
  8 16  1  0  0  0  0
  9 13  1  0  0  0  0
  9 14  2  0  0  0  0
 10 11  1  0  0  0  0
 10 22  1  0  0  0  0
 11 12  2  0  0  0  0
 11 19  1  0  0  0  0
 12 14  1  0  0  0  0
 12 27  1  0  0  0  0
 13 28  1  0  0  0  0
 13 29  1  0  0  0  0
 13 30  1  0  0  0  0
 15 20  2  0  0  0  0
 16 21  2  0  0  0  0
 17 23  2  0  0  0  0
 18 24  2  0  0  0  0
 19 31  1  0  0  0  0
 19 32  1  0  0  0  0
 19 33  1  0  0  0  0
 20 23  1  0  0  0  0
 20 25  1  0  0  0  0
 21 24  1  0  0  0  0
 21 26  1  0  0  0  0
 25 34  2  0  0  0  0
 25 36  1  0  0  0  0
 26 35  2  0  0  0  0
 26 37  1  0  0  0  0
 34 38  1  0  0  0  0
 35 39  1  0  0  0  0
 36 40  2  0  0  0  0
 37 41  2  0  0  0  0
 38 42  2  0  0  0  0
 39 43  2  0  0  0  0
 40 42  1  0  0  0  0
 41 43  1  0  0  0  0
M  END
> <PUBCHEM_COMPOUND_ID_TYPE>
0

> <PUBCHEM_TOTAL_CHARGE>
0

> <PUBCHEM_SUBSTANCE_ID>
310949244

> <PUBCHEM_SUBSTANCE_VERSION>
1

> <PUBCHEM_EXT_DATASOURCE_NAME>
4488

> <PUBCHEM_EXT_DATASOURCE_REGID>
SCHEMBL16127434

> <PUBCHEM_SUBSTANCE_COMMENT>
InChI=1S/C40H35N3/c1-39(2,3)34-23-30(24-41)37(40(4,5)6)33(25-42)38(34)43-35-19-17-28(26-13-9-7-10-14-26)21-31(35)32-22-29(18-20-36(32)43)27-15-11-8-12-16-27/h7-23H,1-6H3
InChIKey=XOPVNAJCHKDGRW-UHFFFAOYSA-N

> <PUBCHEM_SUBSTANCE_SYNONYM>
SCHEMBL16127434

> <PUBCHEM_XREF_EXT_ID>
SCHEMBL16127434

> <PUBCHEM_EXT_DATASOURCE_URL>
https://www.surechembl.org/

> <PUBCHEM_EXT_SUBSTANCE_URL>
https://www.surechembl.org/chemical/SCHEMBL16127434

> <PUBCHEM_CID_ASSOCIATIONS>
117614732  1

> <PUBCHEM_COORDINATE_TYPE>
1
3

$$$$
