310943904
  -OEChem-07211613022D

 34 38  0     1  0  0  0  0  0999 V2000
    2.4929    0.2813    0.0000 O   0  0  0  0  0  0  0  0  0  0  0  0
    5.0190   -1.2520    0.0000 O   0  0  0  0  0  0  0  0  0  0  0  0
    5.4602    0.1489    0.0000 O   0  0  0  0  0  0  0  0  0  0  0  0
   -1.2906   -0.8549    0.0000 O   0  0  0  0  0  0  0  0  0  0  0  0
    2.8790   -1.1417    0.0000 N   0  0  0  0  0  0  0  0  0  0  0  0
    0.1434   -0.0386    0.0000 N   0  0  0  0  0  0  0  0  0  0  0  0
   -3.4306    0.3806    0.0000 N   0  0  0  0  0  0  0  0  0  0  0  0
   -4.1476    1.6160    0.0000 N   0  0  0  0  0  0  0  0  0  0  0  0
   -4.9087    1.2740    0.0000 N   0  0  0  0  0  0  0  0  0  0  0  0
   -5.4602    1.8918    0.0000 N   0  0  0  0  0  0  0  0  0  0  0  0
   -5.0410    2.6088    0.0000 N   0  0  0  0  0  0  0  0  0  0  0  0
    1.5664   -0.8438    0.0000 C   0  0  0  0  0  0  0  0  0  0  0  0
    2.3054   -0.5349    0.0000 C   0  0  0  0  0  0  0  0  0  0  0  0
    2.4598   -1.8477    0.0000 C   0  0  3  0  0  0  0  0  0  0  0  0
    3.7063   -1.0424    0.0000 C   0  0  0  0  0  0  0  0  0  0  0  0
    1.6546   -1.6711    0.0000 C   0  0  0  0  0  0  0  0  0  0  0  0
    0.8604   -1.2630    0.0000 C   0  0  0  0  0  0  0  0  0  0  0  0
    1.5664   -0.0276    0.0000 C   0  0  0  0  0  0  0  0  0  0  0  0
    4.0703   -0.3034    0.0000 C   0  0  0  0  0  0  0  0  0  0  0  0
    4.2909   -1.6270    0.0000 C   0  0  0  0  0  0  0  0  0  0  0  0
    4.8645   -0.4578    0.0000 C   0  0  0  0  0  0  0  0  0  0  0  0
    0.1434   -0.8549    0.0000 C   0  0  0  0  0  0  0  0  0  0  0  0
    0.8493    0.3806    0.0000 C   0  0  0  0  0  0  0  0  0  0  0  0
    2.8128   -2.6088    0.0000 C   0  0  0  0  0  0  0  0  0  0  0  0
   -0.5736    0.3806    0.0000 C   0  0  0  0  0  0  0  0  0  0  0  0
   -2.0076    0.3806    0.0000 C   0  0  0  0  0  0  0  0  0  0  0  0
   -1.2795   -0.0276    0.0000 C   0  0  3  0  0  0  0  0  0  0  0  0
    3.6842    0.4247    0.0000 C   0  0  0  0  0  0  0  0  0  0  0  0
   -2.7135   -0.0276    0.0000 C   0  0  0  0  0  0  0  0  0  0  0  0
   -3.4306    1.2189    0.0000 C   0  0  0  0  0  0  0  0  0  0  0  0
   -2.0076    1.2078    0.0000 C   0  0  0  0  0  0  0  0  0  0  0  0
   -2.7246    1.6270    0.0000 C   0  0  0  0  0  0  0  0  0  0  0  0
   -4.2358    2.4433    0.0000 C   0  0  0  0  0  0  0  0  0  0  0  0
   -2.7356   -0.8659    0.0000 C   0  0  0  0  0  0  0  0  0  0  0  0
  1 13  2  0  0  0  0
  2 20  1  0  0  0  0
  2 21  1  0  0  0  0
  3 21  2  0  0  0  0
 27  4  1  1  0  0  0
  5 13  1  0  0  0  0
  5 14  1  0  0  0  0
  5 15  1  0  0  0  0
  6 22  1  0  0  0  0
  6 23  1  0  0  0  0
  6 25  1  0  0  0  0
  7 29  2  0  0  0  0
  7 30  1  0  0  0  0
  8  9  1  0  0  0  0
  8 30  1  0  0  0  0
  8 33  1  0  0  0  0
  9 10  2  0  0  0  0
 10 11  1  0  0  0  0
 11 33  2  0  0  0  0
 12 13  1  0  0  0  0
 12 16  1  0  0  0  0
 12 17  1  0  0  0  0
 12 18  1  0  0  0  0
 14 16  1  0  0  0  0
 14 24  1  0  0  0  0
 15 19  2  0  0  0  0
 15 20  1  0  0  0  0
 17 22  1  0  0  0  0
 18 23  1  0  0  0  0
 19 21  1  0  0  0  0
 19 28  1  0  0  0  0
 25 27  1  0  0  0  0
 26 27  1  0  0  0  0
 26 29  1  0  0  0  0
 26 31  2  0  0  0  0
 29 34  1  0  0  0  0
 30 32  2  0  0  0  0
 31 32  1  0  0  0  0
M  END
> <PUBCHEM_COMPOUND_ID_TYPE>
0

> <PUBCHEM_TOTAL_CHARGE>
0

> <PUBCHEM_SUBSTANCE_ID>
310943904

> <PUBCHEM_SUBSTANCE_VERSION>
1

> <PUBCHEM_EXT_DATASOURCE_NAME>
4488

> <PUBCHEM_EXT_DATASOURCE_REGID>
SCHEMBL16121975

> <PUBCHEM_SUBSTANCE_COMMENT>
InChI=1S/C23H29N7O4/c1-14-10-23(22(33)30(14)18-12-34-21(32)15(18)2)6-8-28(9-7-23)11-19(31)17-4-5-20(25-16(17)3)29-13-24-26-27-29/h4-5,13-14,19,31H,6-12H2,1-3H3/t14?,19-/m1/s1
InChIKey=AJRGQCXYEICMNR-JANGERMGSA-N

> <PUBCHEM_SUBSTANCE_SYNONYM>
SCHEMBL16121975

> <PUBCHEM_XREF_EXT_ID>
SCHEMBL16121975

> <PUBCHEM_EXT_DATASOURCE_URL>
https://www.surechembl.org/

> <PUBCHEM_EXT_SUBSTANCE_URL>
https://www.surechembl.org/chemical/SCHEMBL16121975

> <PUBCHEM_CID_ASSOCIATIONS>
117610221  1

> <PUBCHEM_COORDINATE_TYPE>
1
3

> <PUBCHEM_BONDANNOTATIONS>
27  4  5

$$$$
