310941642
  -OEChem-07211613022D

 25 27  0     0  0  0  0  0  0999 V2000
   -3.6934   -1.4430    0.0000 I   0  0  0  0  0  0  0  0  0  0  0  0
   -0.0859    2.1473    0.0000 S   0  0  0  0  0  0  0  0  0  0  0  0
   -2.3019   -0.6013    0.0000 O   0  0  0  0  0  0  0  0  0  0  0  0
   -0.8760   -0.6013    0.0000 O   0  0  0  0  0  0  0  0  0  0  0  0
   -0.0687    0.7902    0.0000 N   0  0  0  0  0  0  0  0  0  0  0  0
    1.2540    1.4602    0.0000 N   0  0  0  0  0  0  0  0  0  0  0  0
    2.9204   -1.4086    0.0000 N   0  0  0  0  0  0  0  0  0  0  0  0
   -1.5804    0.6355    0.0000 C   0  0  0  0  0  0  0  0  0  0  0  0
   -0.8760    1.0651    0.0000 C   0  0  0  0  0  0  0  0  0  0  0  0
   -1.6148   -0.1718    0.0000 C   0  0  0  0  0  0  0  0  0  0  0  0
    0.3951    1.4945    0.0000 C   0  0  0  0  0  0  0  0  0  0  0  0
   -2.3019    1.0651    0.0000 C   0  0  0  0  0  0  0  0  0  0  0  0
   -3.0234    0.6527    0.0000 C   0  0  0  0  0  0  0  0  0  0  0  0
   -3.0406   -0.1889    0.0000 C   0  0  0  0  0  0  0  0  0  0  0  0
   -0.8417    1.9068    0.0000 C   0  0  0  0  0  0  0  0  0  0  0  0
    1.6491    0.7558    0.0000 C   0  0  0  0  0  0  0  0  0  0  0  0
   -3.7449   -0.6013    0.0000 C   0  0  0  0  0  0  0  0  0  0  0  0
    2.4909   -0.7043    0.0000 C   0  0  0  0  0  0  0  0  0  0  0  0
    1.2540    0.0343    0.0000 C   0  0  0  0  0  0  0  0  0  0  0  0
    2.4909    0.7387    0.0000 C   0  0  0  0  0  0  0  0  0  0  0  0
   -3.7620    0.9792    0.0000 C   0  0  0  0  0  0  0  0  0  0  0  0
    1.6491   -0.6871    0.0000 C   0  0  0  0  0  0  0  0  0  0  0  0
    2.8860    0.0172    0.0000 C   0  0  0  0  0  0  0  0  0  0  0  0
    3.7620   -1.4086    0.0000 C   0  0  0  0  0  0  0  0  0  0  0  0
    2.5080   -2.1473    0.0000 C   0  0  0  0  0  0  0  0  0  0  0  0
  1 17  1  0  0  0  0
  2 11  1  0  0  0  0
  2 15  1  0  0  0  0
  3 10  1  0  0  0  0
  3 14  1  0  0  0  0
  4 10  2  0  0  0  0
  5  9  1  0  0  0  0
  5 11  2  0  0  0  0
  6 11  1  0  0  0  0
  6 16  1  0  0  0  0
  7 18  1  0  0  0  0
  7 24  1  0  0  0  0
  7 25  1  0  0  0  0
  8  9  1  0  0  0  0
  8 10  1  0  0  0  0
  8 12  2  0  0  0  0
  9 15  2  0  0  0  0
 12 13  1  0  0  0  0
 13 14  1  0  0  0  0
 13 21  2  0  0  0  0
 14 17  2  0  0  0  0
 16 19  2  0  0  0  0
 16 20  1  0  0  0  0
 18 22  2  0  0  0  0
 18 23  1  0  0  0  0
 19 22  1  0  0  0  0
 20 23  2  0  0  0  0
M  END
> <PUBCHEM_COMPOUND_ID_TYPE>
0

> <PUBCHEM_TOTAL_CHARGE>
0

> <PUBCHEM_SUBSTANCE_ID>
310941642

> <PUBCHEM_SUBSTANCE_VERSION>
1

> <PUBCHEM_EXT_DATASOURCE_NAME>
4488

> <PUBCHEM_EXT_DATASOURCE_REGID>
SCHEMBL16119673

> <PUBCHEM_SUBSTANCE_COMMENT>
InChI=1S/C18H16IN3O2S/c1-11-8-14(17(23)24-16(11)9-19)15-10-25-18(21-15)20-12-4-6-13(7-5-12)22(2)3/h4-10H,1H2,2-3H3,(H,20,21)/b16-9-
InChIKey=DBWLAZUZVLMGHK-SXGWCWSVSA-N

> <PUBCHEM_SUBSTANCE_SYNONYM>
SCHEMBL16119673

> <PUBCHEM_XREF_EXT_ID>
SCHEMBL16119673

> <PUBCHEM_EXT_DATASOURCE_URL>
https://www.surechembl.org/

> <PUBCHEM_EXT_SUBSTANCE_URL>
https://www.surechembl.org/chemical/SCHEMBL16119673

> <PUBCHEM_CID_ASSOCIATIONS>
117608428  1

> <PUBCHEM_COORDINATE_TYPE>
1
3

$$$$
