310936167
  -OEChem-07211613022D

 40 44  0     1  0  0  0  0  0999 V2000
    4.0226   -1.1368    0.0000 O   0  0  0  0  0  0  0  0  0  0  0  0
    4.7222   -3.1919    0.0000 O   0  0  0  0  0  0  0  0  0  0  0  0
    5.4656   -1.9676    0.0000 O   0  0  0  0  0  0  0  0  0  0  0  0
    1.8801   -3.1919    0.0000 N   0  0  0  0  0  0  0  0  0  0  0  0
    4.0226   -3.5854    0.0000 N   0  0  0  0  0  0  0  0  0  0  0  0
    1.2680   -3.7603    0.0000 N   0  0  0  0  0  0  0  0  0  0  0  0
    3.3230   -3.1919    0.0000 C   0  0  0  0  0  0  0  0  0  0  0  0
    2.5797   -3.5854    0.0000 C   0  0  0  0  0  0  0  0  0  0  0  0
    3.3230   -2.3611    0.0000 C   0  0  0  0  0  0  0  0  0  0  0  0
    2.5797   -1.9676    0.0000 C   0  0  0  0  0  0  0  0  0  0  0  0
    1.6178   -4.5036    0.0000 C   0  0  0  0  0  0  0  0  0  0  0  0
    2.4486   -4.4162    0.0000 C   0  0  0  0  0  0  0  0  0  0  0  0
    4.0226   -1.9676    0.0000 C   0  0  3  0  0  0  0  0  0  0  0  0
    1.8801   -2.3611    0.0000 C   0  0  0  0  0  0  0  0  0  0  0  0
    1.2243   -5.2032    0.0000 C   0  0  0  0  0  0  0  0  0  0  0  0
    4.8971   -3.3668    0.0000 C   0  0  0  0  0  0  0  0  0  0  0  0
    4.0226   -4.4162    0.0000 C   0  0  0  0  0  0  0  0  0  0  0  0
    4.7222   -2.3611    0.0000 C   0  0  0  0  0  0  0  0  0  0  0  0
    5.4218   -4.4162    0.0000 C   0  0  0  0  0  0  0  0  0  0  0  0
    1.6178   -5.9028    0.0000 C   0  0  0  0  0  0  0  0  0  0  0  0
    2.5797   -1.1368    0.0000 C   0  0  0  0  0  0  0  0  0  0  0  0
    5.4218   -3.5854    0.0000 C   0  0  0  0  0  0  0  0  0  0  0  0
    4.7222   -4.8097    0.0000 C   0  0  0  0  0  0  0  0  0  0  0  0
    3.3230   -0.6996    0.0000 C   0  0  0  0  0  0  0  0  0  0  0  0
    0.3935   -5.2032    0.0000 C   0  0  0  0  0  0  0  0  0  0  0  0
    1.2243   -6.6024    0.0000 C   0  0  0  0  0  0  0  0  0  0  0  0
    1.6178   -7.3457    0.0000 C   0  0  0  0  0  0  0  0  0  0  0  0
    0.0000   -5.9028    0.0000 C   0  0  0  0  0  0  0  0  0  0  0  0
    0.3935   -6.6024    0.0000 C   0  0  0  0  0  0  0  0  0  0  0  0
    1.2243   -8.0453    0.0000 C   0  0  0  0  0  0  0  0  0  0  0  0
    6.1214   -4.8534    0.0000 C   0  0  0  0  0  0  0  0  0  0  0  0
    5.4218   -5.2469    0.0000 C   0  0  0  0  0  0  0  0  0  0  0  0
    2.6235   -0.3060    0.0000 C   0  0  0  0  0  0  0  0  0  0  0  0
    3.7603    0.0000    0.0000 C   0  0  0  0  0  0  0  0  0  0  0  0
    2.8858   -1.3992    0.0000 C   0  0  0  0  0  0  0  0  0  0  0  0
    2.4486   -7.3457    0.0000 C   0  0  0  0  0  0  0  0  0  0  0  0
    1.6178   -8.7449    0.0000 C   0  0  0  0  0  0  0  0  0  0  0  0
    2.8421   -8.0453    0.0000 C   0  0  0  0  0  0  0  0  0  0  0  0
    2.4486   -8.7449    0.0000 C   0  0  0  0  0  0  0  0  0  0  0  0
    0.3935   -8.0453    0.0000 C   0  0  0  0  0  0  0  0  0  0  0  0
 13  1  1  6  0  0  0
  1 24  1  0  0  0  0
  2 18  2  0  0  0  0
  3 18  1  0  0  0  0
  4  6  1  0  0  0  0
  4  8  1  0  0  0  0
  4 14  1  0  0  0  0
  5  7  1  0  0  0  0
  5 16  1  0  0  0  0
  5 17  1  0  0  0  0
  6 11  2  0  0  0  0
  7  8  1  0  0  0  0
  7  9  2  0  0  0  0
  8 12  2  0  0  0  0
  9 10  1  0  0  0  0
  9 13  1  0  0  0  0
 10 14  2  0  0  0  0
 10 21  1  0  0  0  0
 11 12  1  0  0  0  0
 11 15  1  0  0  0  0
 13 18  1  0  0  0  0
 15 20  2  0  0  0  0
 15 25  1  0  0  0  0
 16 22  1  0  0  0  0
 17 23  1  0  0  0  0
 19 22  1  0  0  0  0
 19 23  1  0  0  0  0
 19 31  1  0  0  0  0
 19 32  1  0  0  0  0
 20 26  1  0  0  0  0
 24 33  1  0  0  0  0
 24 34  1  0  0  0  0
 24 35  1  0  0  0  0
 25 28  2  0  0  0  0
 26 27  1  0  0  0  0
 26 29  2  0  0  0  0
 27 30  1  0  0  0  0
 27 36  2  0  0  0  0
 28 29  1  0  0  0  0
 30 37  2  0  0  0  0
 30 40  1  0  0  0  0
 36 38  1  0  0  0  0
 37 39  1  0  0  0  0
 38 39  2  0  0  0  0
M  END
> <PUBCHEM_COMPOUND_ID_TYPE>
0

> <PUBCHEM_TOTAL_CHARGE>
0

> <PUBCHEM_SUBSTANCE_ID>
310936167

> <PUBCHEM_SUBSTANCE_VERSION>
1

> <PUBCHEM_EXT_DATASOURCE_NAME>
4488

> <PUBCHEM_EXT_DATASOURCE_REGID>
SCHEMBL16113777

> <PUBCHEM_SUBSTANCE_COMMENT>
InChI=1S/C34H41N3O3/c1-22-11-8-9-14-26(22)24-12-10-13-25(19-24)27-20-28-30(36-17-15-34(6,7)16-18-36)29(23(2)21-37(28)35-27)31(32(38)39)40-33(3,4)5/h8-14,19-21,31H,15-18H2,1-7H3,(H,38,39)/t31-/m0/s1
InChIKey=WYBIOEWALLFXIA-HKBQPEDESA-N

> <PUBCHEM_SUBSTANCE_SYNONYM>
SCHEMBL16113777

> <PUBCHEM_XREF_EXT_ID>
SCHEMBL16113777

> <PUBCHEM_EXT_DATASOURCE_URL>
https://www.surechembl.org/

> <PUBCHEM_EXT_SUBSTANCE_URL>
https://www.surechembl.org/chemical/SCHEMBL16113777

> <PUBCHEM_CID_ASSOCIATIONS>
86300022  1

> <PUBCHEM_COORDINATE_TYPE>
1
3

> <PUBCHEM_BONDANNOTATIONS>
13  1  6

$$$$
