310945282
  -OEChem-07211613022D

 29 32  0     1  0  0  0  0  0999 V2000
   -0.1843   -1.8599    0.0000 O   0  0  0  0  0  0  0  0  0  0  0  0
   -4.5073   -1.7761    0.0000 O   0  0  0  0  0  0  0  0  0  0  0  0
    3.6863    0.8211    0.0000 O   0  0  0  0  0  0  0  0  0  0  0  0
    3.3345    2.2118    0.0000 O   0  0  0  0  0  0  0  0  0  0  0  0
   -0.1508    0.6535    0.0000 C   0  0  3  0  0  0  0  0  0  0  0  0
   -0.8880   -0.5864    0.0000 C   0  0  3  0  0  0  0  0  0  0  0  0
   -0.1676   -0.1843    0.0000 C   0  0  3  0  0  0  0  0  0  0  0  0
   -1.6085   -0.1676    0.0000 C   0  0  3  0  0  0  0  0  0  0  0  0
   -2.3458   -0.5361    0.0000 C   0  0  3  0  0  0  0  0  0  0  0  0
    0.6368    0.8714    0.0000 C   0  0  3  0  0  0  0  0  0  0  0  0
   -2.3290   -1.4242    0.0000 C   0  0  3  0  0  0  0  0  0  0  0  0
   -0.9048   -1.4410    0.0000 C   0  0  3  0  0  0  0  0  0  0  0  0
   -0.8714    1.0556    0.0000 C   0  0  0  0  0  0  0  0  0  0  0  0
   -1.5751    0.6703    0.0000 C   0  0  0  0  0  0  0  0  0  0  0  0
    0.6199   -0.4692    0.0000 C   0  0  0  0  0  0  0  0  0  0  0  0
   -1.6085   -1.8096    0.0000 C   0  0  0  0  0  0  0  0  0  0  0  0
    1.1227    0.1843    0.0000 C   0  0  0  0  0  0  0  0  0  0  0  0
   -3.0327   -0.1508    0.0000 C   0  0  0  0  0  0  0  0  0  0  0  0
    0.9216    1.6588    0.0000 C   0  0  3  0  0  0  0  0  0  0  0  0
   -0.1341    1.4745    0.0000 C   0  0  0  0  0  0  0  0  0  0  0  0
   -3.0495   -1.7928    0.0000 C   0  0  0  0  0  0  0  0  0  0  0  0
   -2.3123    0.2513    0.0000 C   0  0  0  0  0  0  0  0  0  0  0  0
   -3.7700   -1.3572    0.0000 C   0  0  3  0  0  0  0  0  0  0  0  0
   -3.7533   -0.5361    0.0000 C   0  0  0  0  0  0  0  0  0  0  0  0
    1.7593    1.8096    0.0000 C   0  0  0  0  0  0  0  0  0  0  0  0
    0.3686    2.2286    0.0000 C   0  0  0  0  0  0  0  0  0  0  0  0
    2.3458    1.2065    0.0000 C   0  0  0  0  0  0  0  0  0  0  0  0
    3.0830    1.3907    0.0000 C   0  0  0  0  0  0  0  0  0  0  0  0
    4.5073    0.9886    0.0000 C   0  0  0  0  0  0  0  0  0  0  0  0
 12  1  1  6  0  0  0
 23  2  1  6  0  0  0
  3 28  1  0  0  0  0
  3 29  1  0  0  0  0
  4 28  2  0  0  0  0
  5  7  1  0  0  0  0
  5 10  1  0  0  0  0
  5 13  1  0  0  0  0
  5 20  1  0  0  0  0
  6  7  1  0  0  0  0
  6  8  1  0  0  0  0
  6 12  1  0  0  0  0
  7 15  1  1  0  0  0
  8  9  1  0  0  0  0
  8 14  1  0  0  0  0
  9 11  1  0  0  0  0
  9 18  1  0  0  0  0
  9 22  1  0  0  0  0
 10 17  1  0  0  0  0
 10 19  1  1  0  0  0
 11 16  1  0  0  0  0
 11 21  1  0  0  0  0
 12 16  1  0  0  0  0
 13 14  1  0  0  0  0
 15 17  1  0  0  0  0
 18 24  1  0  0  0  0
 19 25  1  0  0  0  0
 19 26  1  6  0  0  0
 21 23  1  0  0  0  0
 23 24  1  0  0  0  0
 25 27  1  0  0  0  0
 27 28  1  0  0  0  0
M  END
> <PUBCHEM_COMPOUND_ID_TYPE>
0

> <PUBCHEM_TOTAL_CHARGE>
0

> <PUBCHEM_SUBSTANCE_ID>
310945282

> <PUBCHEM_SUBSTANCE_VERSION>
1

> <PUBCHEM_EXT_DATASOURCE_NAME>
4488

> <PUBCHEM_EXT_DATASOURCE_REGID>
SCHEMBL16123377

> <PUBCHEM_SUBSTANCE_COMMENT>
InChI=1S/C25H42O4/c1-15(5-8-22(28)29-4)18-6-7-19-23-20(10-12-25(18,19)3)24(2)11-9-17(26)13-16(24)14-21(23)27/h15-21,23,26-27H,5-14H2,1-4H3/t15-,16?,17-,18-,19+,20?,21-,23?,24?,25?/m1/s1
InChIKey=GRQROVWZGGDYSW-BVBTYPIWSA-N

> <PUBCHEM_SUBSTANCE_SYNONYM>
SCHEMBL16123377

> <PUBCHEM_XREF_EXT_ID>
SCHEMBL16123377

> <PUBCHEM_EXT_DATASOURCE_URL>
https://www.surechembl.org/

> <PUBCHEM_EXT_SUBSTANCE_URL>
https://www.surechembl.org/chemical/SCHEMBL16123377

> <PUBCHEM_CID_ASSOCIATIONS>
117611343  1

> <PUBCHEM_COORDINATE_TYPE>
1
3

> <PUBCHEM_BONDANNOTATIONS>
12  1  6
10  19  5
19  26  6
23  2  6
7  15  5

$$$$
