310929871
  -OEChem-07211613022D

 51 56  0     1  0  0  0  0  0999 V2000
    1.4616   -0.4972    0.0000 O   0  0  0  0  0  0  0  0  0  0  0  0
    5.1028   -1.5144    0.0000 O   0  0  0  0  0  0  0  0  0  0  0  0
    0.2870    0.3166    0.0000 O   0  0  0  0  0  0  0  0  0  0  0  0
    2.2838   -0.5650    0.0000 O   0  0  0  0  0  0  0  0  0  0  0  0
    3.4902    1.7663    0.0000 O   0  0  0  0  0  0  0  0  0  0  0  0
    4.9188    1.7983    0.0000 O   0  0  0  0  0  0  0  0  0  0  0  0
    8.6266   -3.9557    0.0000 O   0  0  0  0  0  0  0  0  0  0  0  0
    3.5759    0.0454    0.0000 N   0  0  0  0  0  0  0  0  0  0  0  0
    1.5791    0.9270    0.0000 N   0  0  0  0  0  0  0  0  0  0  0  0
    5.0403   -1.1700    0.0000 N   0  0  0  0  0  0  0  0  0  0  0  0
    6.9822   -3.8201    0.0000 N   0  0  0  0  0  0  0  0  0  0  0  0
    0.9918   -1.1753    0.0000 C   0  0  3  0  0  0  0  0  0  0  0  0
    1.3442   -1.9213    0.0000 C   0  0  3  0  0  0  0  0  0  0  0  0
    0.5219   -1.8534    0.0000 C   0  0  3  0  0  0  0  0  0  0  0  0
    2.1664   -1.9891    0.0000 C   0  0  0  0  0  0  0  0  0  0  0  0
    2.4013    0.8591    0.0000 C   0  0  3  0  0  0  0  0  0  0  0  0
    4.2323    0.5451    0.0000 C   0  0  3  0  0  0  0  0  0  0  0  0
    1.1092    0.2488    0.0000 C   0  0  0  0  0  0  0  0  0  0  0  0
   -0.2240   -2.2058    0.0000 C   0  0  0  0  0  0  0  0  0  0  0  0
    2.7537    0.1132    0.0000 C   0  0  0  0  0  0  0  0  0  0  0  0
    4.7504   -0.7684    0.0000 C   0  0  3  0  0  0  0  0  0  0  0  0
    4.9104    0.0753    0.0000 C   0  0  0  0  0  0  0  0  0  0  0  0
    3.9282   -0.7006    0.0000 C   0  0  0  0  0  0  0  0  0  0  0  0
    2.8711    1.5373    0.0000 C   0  0  0  0  0  0  0  0  0  0  0  0
    2.5187   -2.7350    0.0000 C   0  0  0  0  0  0  0  0  0  0  0  0
    4.2138    1.3699    0.0000 C   0  0  0  0  0  0  0  0  0  0  0  0
    4.6330   -2.1925    0.0000 C   0  0  0  0  0  0  0  0  0  0  0  0
    4.9854   -2.9385    0.0000 C   0  0  0  0  0  0  0  0  0  0  0  0
    5.8076   -3.0063    0.0000 C   0  0  0  0  0  0  0  0  0  0  0  0
    3.3409   -2.8028    0.0000 C   0  0  0  0  0  0  0  0  0  0  0  0
    6.2774   -2.3281    0.0000 C   0  0  0  0  0  0  0  0  0  0  0  0
    5.9250   -1.5822    0.0000 C   0  0  0  0  0  0  0  0  0  0  0  0
    3.3409    2.2154    0.0000 C   0  0  0  0  0  0  0  0  0  0  0  0
    2.1930    2.0071    0.0000 C   0  0  0  0  0  0  0  0  0  0  0  0
    3.5493    1.0675    0.0000 C   0  0  0  0  0  0  0  0  0  0  0  0
    4.5155   -3.6166    0.0000 C   0  0  0  0  0  0  0  0  0  0  0  0
    3.6933   -3.5488    0.0000 C   0  0  0  0  0  0  0  0  0  0  0  0
    6.1599   -3.7523    0.0000 C   0  0  0  0  0  0  0  0  0  0  0  0
    7.0996   -2.3960    0.0000 C   0  0  0  0  0  0  0  0  0  0  0  0
    6.3949   -0.9040    0.0000 C   0  0  0  0  0  0  0  0  0  0  0  0
    7.5694   -1.7178    0.0000 C   0  0  0  0  0  0  0  0  0  0  0  0
    7.2171   -0.9719    0.0000 C   0  0  0  0  0  0  0  0  0  0  0  0
    7.3345   -4.5660    0.0000 C   0  0  0  0  0  0  0  0  0  0  0  0
    7.4520   -3.1419    0.0000 C   0  0  0  0  0  0  0  0  0  0  0  0
    8.1567   -4.6338    0.0000 C   0  0  0  0  0  0  0  0  0  0  0  0
    8.2742   -3.2097    0.0000 C   0  0  0  0  0  0  0  0  0  0  0  0
    0.3136   -0.7055    0.0000 H   0  0  0  0  0  0  0  0  0  0  0  0
    1.2763   -2.7435    0.0000 H   0  0  0  0  0  0  0  0  0  0  0  0
    3.2235    0.7913    0.0000 H   0  0  0  0  0  0  0  0  0  0  0  0
    4.9588    0.9361    0.0000 H   0  0  0  0  0  0  0  0  0  0  0  0
    5.5688   -0.6639    0.0000 H   0  0  0  0  0  0  0  0  0  0  0  0
  1 12  1  0  0  0  0
  1 18  1  0  0  0  0
  2 21  1  0  0  0  0
  2 27  1  0  0  0  0
  3 18  2  0  0  0  0
  4 20  2  0  0  0  0
  5 26  2  0  0  0  0
  6 26  1  0  0  0  0
  7 45  1  0  0  0  0
  7 46  1  0  0  0  0
  8 17  1  0  0  0  0
  8 20  1  0  0  0  0
  8 23  1  0  0  0  0
  9 16  1  0  0  0  0
  9 18  1  0  0  0  0
 10 27  2  0  0  0  0
 10 32  1  0  0  0  0
 11 38  1  0  0  0  0
 11 43  1  0  0  0  0
 11 44  1  0  0  0  0
 12 13  1  0  0  0  0
 12 14  1  0  0  0  0
 12 47  1  6  0  0  0
 13 14  1  0  0  0  0
 13 15  1  0  0  0  0
 13 48  1  1  0  0  0
 14 19  1  0  0  0  0
 15 25  1  0  0  0  0
 16 20  1  0  0  0  0
 16 24  1  0  0  0  0
 16 49  1  6  0  0  0
 17 22  1  0  0  0  0
 17 26  1  0  0  0  0
 17 50  1  1  0  0  0
 21 22  1  0  0  0  0
 21 23  1  0  0  0  0
 21 51  1  6  0  0  0
 24 33  1  0  0  0  0
 24 34  1  0  0  0  0
 24 35  1  0  0  0  0
 25 30  1  0  0  0  0
 27 28  1  0  0  0  0
 28 29  2  0  0  0  0
 28 36  1  0  0  0  0
 29 31  1  0  0  0  0
 29 38  1  0  0  0  0
 30 37  1  0  0  0  0
 31 32  2  0  0  0  0
 31 39  1  0  0  0  0
 32 40  1  0  0  0  0
 36 37  1  0  0  0  0
 39 41  2  0  0  0  0
 40 42  2  0  0  0  0
 41 42  1  0  0  0  0
 43 45  1  0  0  0  0
 44 46  1  0  0  0  0
M  END
> <PUBCHEM_COMPOUND_ID_TYPE>
0

> <PUBCHEM_TOTAL_CHARGE>
0

> <PUBCHEM_SUBSTANCE_ID>
310929871

> <PUBCHEM_SUBSTANCE_VERSION>
1

> <PUBCHEM_EXT_DATASOURCE_NAME>
4488

> <PUBCHEM_EXT_DATASOURCE_REGID>
SCHEMBL16107086

> <PUBCHEM_SUBSTANCE_COMMENT>
InChI=1S/C35H48N4O7/c1-21-23-10-6-5-7-12-25-26(20-38-14-16-44-17-15-38)24-11-8-9-13-27(24)36-31(25)45-22-18-28(33(41)42)39(19-22)32(40)30(35(2,3)4)37-34(43)46-29(21)23/h8-9,11,13,21-23,28-30H,5-7,10,12,14-20H2,1-4H3,(H,37,43)(H,41,42)/t21?,22-,23-,28+,29-,30-/m1/s1
InChIKey=BBGLZUURQRZBHE-KOVGGIHFSA-N

> <PUBCHEM_SUBSTANCE_SYNONYM>
SCHEMBL16107086

> <PUBCHEM_XREF_EXT_ID>
SCHEMBL16107086

> <PUBCHEM_EXT_DATASOURCE_URL>
https://www.surechembl.org/

> <PUBCHEM_EXT_SUBSTANCE_URL>
https://www.surechembl.org/chemical/SCHEMBL16107086

> <PUBCHEM_CID_ASSOCIATIONS>
117599140  1

> <PUBCHEM_COORDINATE_TYPE>
1
3

> <PUBCHEM_BONDANNOTATIONS>
12  47  6
13  48  5
16  49  6
17  50  5
21  51  6

$$$$
