310934409
  -OEChem-07211613022D

 43 48  0     0  0  0  0  0  0999 V2000
    2.5876   -0.1125    0.0000 Cl  0  0  0  0  0  0  0  0  0  0  0  0
    6.2627   -0.9001    0.0000 S   0  0  0  0  0  0  0  0  0  0  0  0
    5.4752   -0.9001    0.0000 O   0  0  0  0  0  0  0  0  0  0  0  0
    5.4002   -3.7877    0.0000 O   0  0  0  0  0  0  0  0  0  0  0  0
    7.5378   -2.8126    0.0000 O   0  0  0  0  0  0  0  0  0  0  0  0
    6.3003    0.0000    0.0000 O   0  0  0  0  0  0  0  0  0  0  0  0
    6.2627   -1.7251    0.0000 O   0  0  0  0  0  0  0  0  0  0  0  0
    0.4500   -3.6751    0.0000 O   0  0  0  0  0  0  0  0  0  0  0  0
    4.2002   -3.0376    0.0000 N   0  0  0  0  0  0  0  0  0  0  0  0
    6.7878   -1.6876    0.0000 N   0  0  0  0  0  0  0  0  0  0  0  0
    5.0252   -1.6126    0.0000 C   0  0  0  0  0  0  0  0  0  0  0  0
    5.4377   -2.3626    0.0000 C   0  0  0  0  0  0  0  0  0  0  0  0
    4.2002   -1.6126    0.0000 C   0  0  0  0  0  0  0  0  0  0  0  0
    3.7877   -2.2876    0.0000 C   0  0  0  0  0  0  0  0  0  0  0  0
    5.0252   -3.0751    0.0000 C   0  0  0  0  0  0  0  0  0  0  0  0
    6.2627   -2.3626    0.0000 C   0  0  0  0  0  0  0  0  0  0  0  0
    3.8251   -0.9001    0.0000 C   0  0  0  0  0  0  0  0  0  0  0  0
    2.9626   -2.2876    0.0000 C   0  0  0  0  0  0  0  0  0  0  0  0
    3.7501   -3.7501    0.0000 C   0  0  0  0  0  0  0  0  0  0  0  0
    3.0001   -0.8625    0.0000 C   0  0  0  0  0  0  0  0  0  0  0  0
    7.1253   -0.9001    0.0000 C   0  0  0  0  0  0  0  0  0  0  0  0
    6.7503   -3.0376    0.0000 C   0  0  0  0  0  0  0  0  0  0  0  0
    2.5501   -1.5751    0.0000 C   0  0  0  0  0  0  0  0  0  0  0  0
    2.9251   -3.7127    0.0000 C   0  0  0  0  0  0  0  0  0  0  0  0
    7.5378   -1.9876    0.0000 C   0  0  0  0  0  0  0  0  0  0  0  0
    7.5378   -0.1875    0.0000 C   0  0  0  0  0  0  0  0  0  0  0  0
    7.5003   -1.6501    0.0000 C   0  0  0  0  0  0  0  0  0  0  0  0
    8.7753   -0.9375    0.0000 C   0  0  0  0  0  0  0  0  0  0  0  0
    2.5126   -3.0001    0.0000 C   0  0  0  0  0  0  0  0  0  0  0  0
    2.4751   -4.4252    0.0000 C   0  0  0  0  0  0  0  0  0  0  0  0
    8.3628   -0.1875    0.0000 C   0  0  0  0  0  0  0  0  0  0  0  0
    8.3628   -1.6501    0.0000 C   0  0  0  0  0  0  0  0  0  0  0  0
    8.2503   -1.5001    0.0000 C   0  0  0  0  0  0  0  0  0  0  0  0
    9.6004   -0.9001    0.0000 C   0  0  0  0  0  0  0  0  0  0  0  0
    1.6876   -3.0001    0.0000 C   0  0  0  0  0  0  0  0  0  0  0  0
    1.6876   -4.4252    0.0000 C   0  0  0  0  0  0  0  0  0  0  0  0
    1.2751   -3.7127    0.0000 C   0  0  0  0  0  0  0  0  0  0  0  0
   10.0129   -1.6501    0.0000 C   0  0  0  0  0  0  0  0  0  0  0  0
   10.0129   -0.1875    0.0000 C   0  0  0  0  0  0  0  0  0  0  0  0
   10.8379   -1.6501    0.0000 C   0  0  0  0  0  0  0  0  0  0  0  0
   10.8379   -0.1875    0.0000 C   0  0  0  0  0  0  0  0  0  0  0  0
   11.2504   -0.9001    0.0000 C   0  0  0  0  0  0  0  0  0  0  0  0
    0.0000   -4.3877    0.0000 C   0  0  0  0  0  0  0  0  0  0  0  0
  1 20  1  0  0  0  0
  2  3  1  0  0  0  0
  2  6  2  0  0  0  0
  2  7  2  0  0  0  0
  2 21  1  0  0  0  0
  3 11  1  0  0  0  0
  4 15  2  0  0  0  0
  5 22  1  0  0  0  0
  5 25  1  0  0  0  0
  8 37  1  0  0  0  0
  8 43  1  0  0  0  0
  9 14  1  0  0  0  0
  9 15  1  0  0  0  0
  9 19  1  0  0  0  0
 10 16  1  0  0  0  0
 10 25  2  0  0  0  0
 11 12  2  0  0  0  0
 11 13  1  0  0  0  0
 12 15  1  0  0  0  0
 12 16  1  0  0  0  0
 13 14  2  0  0  0  0
 13 17  1  0  0  0  0
 14 18  1  0  0  0  0
 16 22  2  0  0  0  0
 17 20  2  0  0  0  0
 18 23  2  0  0  0  0
 19 24  1  0  0  0  0
 20 23  1  0  0  0  0
 21 26  2  0  0  0  0
 21 27  1  0  0  0  0
 24 29  2  0  0  0  0
 24 30  1  0  0  0  0
 25 33  1  0  0  0  0
 26 31  1  0  0  0  0
 27 32  2  0  0  0  0
 28 31  2  0  0  0  0
 28 32  1  0  0  0  0
 28 34  1  0  0  0  0
 29 35  1  0  0  0  0
 30 36  2  0  0  0  0
 34 38  2  0  0  0  0
 34 39  1  0  0  0  0
 35 37  2  0  0  0  0
 36 37  1  0  0  0  0
 38 40  1  0  0  0  0
 39 41  2  0  0  0  0
 40 42  2  0  0  0  0
 41 42  1  0  0  0  0
M  END
> <PUBCHEM_COMPOUND_ID_TYPE>
0

> <PUBCHEM_TOTAL_CHARGE>
0

> <PUBCHEM_SUBSTANCE_ID>
310934409

> <PUBCHEM_SUBSTANCE_VERSION>
1

> <PUBCHEM_EXT_DATASOURCE_NAME>
4488

> <PUBCHEM_EXT_DATASOURCE_REGID>
SCHEMBL16111882

> <PUBCHEM_SUBSTANCE_COMMENT>
InChI=1S/C33H25ClN2O6S/c1-21-35-29(20-41-21)31-32(42-43(38,39)27-15-10-24(11-16-27)23-6-4-3-5-7-23)28-18-25(34)12-17-30(28)36(33(31)37)19-22-8-13-26(40-2)14-9-22/h3-18,20H,19H2,1-2H3
InChIKey=NZEIKKNAFFKJOH-UHFFFAOYSA-N

> <PUBCHEM_SUBSTANCE_SYNONYM>
SCHEMBL16111882

> <PUBCHEM_XREF_EXT_ID>
SCHEMBL16111882

> <PUBCHEM_EXT_DATASOURCE_URL>
https://www.surechembl.org/

> <PUBCHEM_EXT_SUBSTANCE_URL>
https://www.surechembl.org/chemical/SCHEMBL16111882

> <PUBCHEM_CID_ASSOCIATIONS>
117602629  1

> <PUBCHEM_COORDINATE_TYPE>
1
3

$$$$
