310941963
  -OEChem-07211613022D

 22 25  0     0  0  0  0  0  0999 V2000
   -1.9649   -2.8686    0.0000 F   0  0  0  0  0  0  0  0  0  0  0  0
    2.5649    1.7812    0.0000 O   0  0  0  0  0  0  0  0  0  0  0  0
   -0.5400   -0.4012    0.0000 N   0  0  0  0  0  0  0  0  0  0  0  0
   -1.5074    1.4812    0.0000 N   0  0  0  0  0  0  0  0  0  0  0  0
    1.6200    2.7112    0.0000 N   0  0  0  0  0  0  0  0  0  0  0  0
    0.6975    2.8686    0.0000 N   0  0  0  0  0  0  0  0  0  0  0  0
   -0.1275    0.8662    0.0000 C   0  0  0  0  0  0  0  0  0  0  0  0
    0.1200    0.0938    0.0000 C   0  0  0  0  0  0  0  0  0  0  0  0
   -0.9600    0.8737    0.0000 C   0  0  0  0  0  0  0  0  0  0  0  0
   -1.2149    0.0862    0.0000 C   0  0  0  0  0  0  0  0  0  0  0  0
    0.4200    1.4887    0.0000 C   0  0  0  0  0  0  0  0  0  0  0  0
    1.2149    1.3237    0.0000 C   0  0  0  0  0  0  0  0  0  0  0  0
    0.9300   -0.0788    0.0000 C   0  0  0  0  0  0  0  0  0  0  0  0
    1.4699    0.5212    0.0000 C   0  0  0  0  0  0  0  0  0  0  0  0
    1.7399    1.9462    0.0000 C   0  0  0  0  0  0  0  0  0  0  0  0
    0.1575    2.2387    0.0000 C   0  0  0  0  0  0  0  0  0  0  0  0
   -2.0099   -0.0938    0.0000 C   0  0  0  0  0  0  0  0  0  0  0  0
   -0.5400   -1.2262    0.0000 C   0  0  0  0  0  0  0  0  0  0  0  0
   -2.3024    1.3162    0.0000 C   0  0  0  0  0  0  0  0  0  0  0  0
   -2.5649    0.5212    0.0000 C   0  0  0  0  0  0  0  0  0  0  0  0
   -1.2450   -1.6312    0.0000 C   0  0  0  0  0  0  0  0  0  0  0  0
   -1.2524   -2.4562    0.0000 C   0  0  0  0  0  0  0  0  0  0  0  0
  1 22  1  0  0  0  0
  2 15  2  0  0  0  0
  3  8  1  0  0  0  0
  3 10  1  0  0  0  0
  3 18  1  0  0  0  0
  4  9  2  0  0  0  0
  4 19  1  0  0  0  0
  5  6  1  0  0  0  0
  5 15  1  0  0  0  0
  6 16  2  0  0  0  0
  7  8  2  0  0  0  0
  7  9  1  0  0  0  0
  7 11  1  0  0  0  0
  8 13  1  0  0  0  0
  9 10  1  0  0  0  0
 10 17  2  0  0  0  0
 11 12  2  0  0  0  0
 11 16  1  0  0  0  0
 12 14  1  0  0  0  0
 12 15  1  0  0  0  0
 13 14  2  0  0  0  0
 17 20  1  0  0  0  0
 18 21  1  0  0  0  0
 19 20  2  0  0  0  0
 21 22  1  0  0  0  0
M  END
> <PUBCHEM_COMPOUND_ID_TYPE>
0

> <PUBCHEM_TOTAL_CHARGE>
0

> <PUBCHEM_SUBSTANCE_ID>
310941963

> <PUBCHEM_SUBSTANCE_VERSION>
1

> <PUBCHEM_EXT_DATASOURCE_NAME>
4488

> <PUBCHEM_EXT_DATASOURCE_REGID>
SCHEMBL16119997

> <PUBCHEM_SUBSTANCE_COMMENT>
InChI=1S/C16H13FN4O/c17-6-2-8-21-12-5-4-10-11(9-19-20-16(10)22)14(12)15-13(21)3-1-7-18-15/h1,3-5,7,9H,2,6,8H2,(H,20,22)
InChIKey=ZFHJIPPHVFNUJG-UHFFFAOYSA-N

> <PUBCHEM_SUBSTANCE_SYNONYM>
SCHEMBL16119997

> <PUBCHEM_XREF_EXT_ID>
SCHEMBL16119997

> <PUBCHEM_EXT_DATASOURCE_URL>
https://www.surechembl.org/

> <PUBCHEM_EXT_SUBSTANCE_URL>
https://www.surechembl.org/chemical/SCHEMBL16119997

> <PUBCHEM_CID_ASSOCIATIONS>
86274291  1

> <PUBCHEM_COORDINATE_TYPE>
1
3

$$$$
