310931939
  -OEChem-07211613022D

 31 35  0     0  0  0  0  0  0999 V2000
   10.3124   -5.5343    0.0000 O   0  0  0  0  0  0  0  0  0  0  0  0
    3.9875   -2.7156    0.0000 O   0  0  0  0  0  0  0  0  0  0  0  0
    8.3874   -2.8187    0.0000 O   0  0  0  0  0  0  0  0  0  0  0  0
    4.8468   -1.5812    0.0000 N   0  0  0  0  0  0  0  0  0  0  0  0
    7.6999   -4.0218    0.0000 N   0  0  0  0  0  0  0  0  0  0  0  0
    4.7781   -0.7563    0.0000 N   0  0  0  0  0  0  0  0  0  0  0  0
    6.2562   -1.5812    0.0000 N   0  0  0  0  0  0  0  0  0  0  0  0
    0.0000   -2.4406    0.0000 N   0  0  0  0  0  0  0  0  0  0  0  0
    9.2811   -4.9499    0.0000 C   0  0  0  0  0  0  0  0  0  0  0  0
    8.3874   -4.4343    0.0000 C   0  0  0  0  0  0  0  0  0  0  0  0
    8.6280   -5.2593    0.0000 C   0  0  0  0  0  0  0  0  0  0  0  0
    9.2124   -4.2281    0.0000 C   0  0  0  0  0  0  0  0  0  0  0  0
    3.5750   -1.3406    0.0000 C   0  0  0  0  0  0  0  0  0  0  0  0
    4.1249   -1.9250    0.0000 C   0  0  0  0  0  0  0  0  0  0  0  0
   10.1061   -4.7093    0.0000 C   0  0  0  0  0  0  0  0  0  0  0  0
    9.4874   -5.7749    0.0000 C   0  0  0  0  0  0  0  0  0  0  0  0
    2.7843   -1.4094    0.0000 C   0  0  0  0  0  0  0  0  0  0  0  0
    5.5687   -1.9937    0.0000 C   0  0  0  0  0  0  0  0  0  0  0  0
    3.9875   -0.6187    0.0000 C   0  0  0  0  0  0  0  0  0  0  0  0
    7.6999   -3.1968    0.0000 C   0  0  0  0  0  0  0  0  0  0  0  0
    6.9780   -2.8187    0.0000 C   0  0  0  0  0  0  0  0  0  0  0  0
    2.2687   -0.7563    0.0000 C   0  0  0  0  0  0  0  0  0  0  0  0
    5.5687   -2.8187    0.0000 C   0  0  0  0  0  0  0  0  0  0  0  0
    2.4406   -2.1656    0.0000 C   0  0  0  0  0  0  0  0  0  0  0  0
    6.9780   -1.9937    0.0000 C   0  0  0  0  0  0  0  0  0  0  0  0
    6.2562   -3.1968    0.0000 C   0  0  0  0  0  0  0  0  0  0  0  0
    1.4781   -0.8594    0.0000 C   0  0  0  0  0  0  0  0  0  0  0  0
    1.1343   -1.6156    0.0000 C   0  0  0  0  0  0  0  0  0  0  0  0
    1.6156   -2.2687    0.0000 C   0  0  0  0  0  0  0  0  0  0  0  0
    2.6125    0.0000    0.0000 C   0  0  0  0  0  0  0  0  0  0  0  0
    0.3438   -1.6844    0.0000 C   0  0  0  0  0  0  0  0  0  0  0  0
  1 15  1  0  0  0  0
  1 16  1  0  0  0  0
  2 14  1  0  0  0  0
  3 20  2  0  0  0  0
  4  6  1  0  0  0  0
  4 14  1  0  0  0  0
  4 18  1  0  0  0  0
  5 10  1  0  0  0  0
  5 20  1  0  0  0  0
  6 19  2  0  0  0  0
  7 18  2  0  0  0  0
  7 25  1  0  0  0  0
  8 31  3  0  0  0  0
  9 11  1  0  0  0  0
  9 12  1  0  0  0  0
  9 15  1  0  0  0  0
  9 16  1  0  0  0  0
 10 11  1  0  0  0  0
 10 12  1  0  0  0  0
 13 14  2  0  0  0  0
 13 17  1  0  0  0  0
 13 19  1  0  0  0  0
 17 22  1  0  0  0  0
 17 24  2  0  0  0  0
 18 23  1  0  0  0  0
 20 21  1  0  0  0  0
 21 25  2  0  0  0  0
 21 26  1  0  0  0  0
 22 27  2  0  0  0  0
 22 30  1  0  0  0  0
 23 26  2  0  0  0  0
 24 29  1  0  0  0  0
 27 28  1  0  0  0  0
 28 29  2  0  0  0  0
 28 31  1  0  0  0  0
M  END
> <PUBCHEM_COMPOUND_ID_TYPE>
0

> <PUBCHEM_TOTAL_CHARGE>
0

> <PUBCHEM_SUBSTANCE_ID>
310931939

> <PUBCHEM_SUBSTANCE_VERSION>
1

> <PUBCHEM_EXT_DATASOURCE_NAME>
4488

> <PUBCHEM_EXT_DATASOURCE_REGID>
SCHEMBL16109275

> <PUBCHEM_SUBSTANCE_COMMENT>
InChI=1S/C23H21N5O3/c1-14-6-15(9-24)2-4-18(14)19-11-26-28(22(19)30)20-5-3-16(10-25-20)21(29)27-17-7-23(8-17)12-31-13-23/h2-6,10-11,17,30H,7-8,12-13H2,1H3,(H,27,29)
InChIKey=BKKLDBLGIMCZMT-UHFFFAOYSA-N

> <PUBCHEM_SUBSTANCE_SYNONYM>
SCHEMBL16109275

> <PUBCHEM_XREF_EXT_ID>
SCHEMBL16109275

> <PUBCHEM_EXT_DATASOURCE_URL>
https://www.surechembl.org/

> <PUBCHEM_EXT_SUBSTANCE_URL>
https://www.surechembl.org/chemical/SCHEMBL16109275

> <PUBCHEM_CID_ASSOCIATIONS>
117600590  1

> <PUBCHEM_COORDINATE_TYPE>
1
3

$$$$
