310945615
  -OEChem-07211613022D

 30 33  0     0  0  0  0  0  0999 V2000
   -3.5348   -2.5966    0.0000 F   0  0  0  0  0  0  0  0  0  0  0  0
   -4.6113   -2.3347    0.0000 F   0  0  0  0  0  0  0  0  0  0  0  0
   -4.3494   -1.2583    0.0000 F   0  0  0  0  0  0  0  0  0  0  0  0
    3.6948    1.3019    0.0000 O   0  0  0  0  0  0  0  0  0  0  0  0
    2.9093   -0.2982    0.0000 O   0  0  0  0  0  0  0  0  0  0  0  0
   -1.1346   -1.7528    0.0000 N   0  0  0  0  0  0  0  0  0  0  0  0
   -1.1346   -0.3419    0.0000 N   0  0  0  0  0  0  0  0  0  0  0  0
   -2.5747   -0.1673    0.0000 N   0  0  0  0  0  0  0  0  0  0  0  0
    1.7165    0.4582    0.0000 N   0  0  0  0  0  0  0  0  0  0  0  0
    3.1857    2.5966    0.0000 N   0  0  0  0  0  0  0  0  0  0  0  0
   -1.8911   -1.4765    0.0000 C   0  0  0  0  0  0  0  0  0  0  0  0
   -0.6691   -1.0255    0.0000 C   0  0  0  0  0  0  0  0  0  0  0  0
   -1.8765   -0.6037    0.0000 C   0  0  0  0  0  0  0  0  0  0  0  0
    0.1454   -1.0255    0.0000 C   0  0  0  0  0  0  0  0  0  0  0  0
   -3.2729   -1.4765    0.0000 C   0  0  0  0  0  0  0  0  0  0  0  0
   -2.5747   -1.9129    0.0000 C   0  0  0  0  0  0  0  0  0  0  0  0
   -3.9567   -1.9129    0.0000 C   0  0  0  0  0  0  0  0  0  0  0  0
    0.5237   -1.7819    0.0000 C   0  0  0  0  0  0  0  0  0  0  0  0
    0.5382   -0.2982    0.0000 C   0  0  0  0  0  0  0  0  0  0  0  0
    1.3092   -0.2982    0.0000 C   0  0  0  0  0  0  0  0  0  0  0  0
   -3.2584   -0.6037    0.0000 C   0  0  0  0  0  0  0  0  0  0  0  0
    2.9239    1.2291    0.0000 C   0  0  0  0  0  0  0  0  0  0  0  0
    2.5020    0.4873    0.0000 C   0  0  0  0  0  0  0  0  0  0  0  0
    2.5893    2.0002    0.0000 C   0  0  0  0  0  0  0  0  0  0  0  0
    1.3238   -1.7819    0.0000 C   0  0  0  0  0  0  0  0  0  0  0  0
    1.7165   -1.0546    0.0000 C   0  0  0  0  0  0  0  0  0  0  0  0
    3.8694    2.1601    0.0000 C   0  0  0  0  0  0  0  0  0  0  0  0
    0.3055   -2.2619    0.0000 C   0  0  0  0  0  0  0  0  0  0  0  0
    1.8038    2.1747    0.0000 C   0  0  0  0  0  0  0  0  0  0  0  0
    4.6113    2.5384    0.0000 C   0  0  0  0  0  0  0  0  0  0  0  0
  1 17  1  0  0  0  0
  2 17  1  0  0  0  0
  3 17  1  0  0  0  0
  4 22  1  0  0  0  0
  4 27  1  0  0  0  0
  5 23  2  0  0  0  0
  6 11  1  0  0  0  0
  6 12  1  0  0  0  0
  7 12  2  0  0  0  0
  7 13  1  0  0  0  0
  8 13  2  0  0  0  0
  8 21  1  0  0  0  0
  9 20  1  0  0  0  0
  9 23  1  0  0  0  0
 10 24  1  0  0  0  0
 10 27  2  0  0  0  0
 11 13  1  0  0  0  0
 11 16  2  0  0  0  0
 12 14  1  0  0  0  0
 14 18  2  0  0  0  0
 14 19  1  0  0  0  0
 15 16  1  0  0  0  0
 15 17  1  0  0  0  0
 15 21  2  0  0  0  0
 18 25  1  0  0  0  0
 18 28  1  0  0  0  0
 19 20  2  0  0  0  0
 20 26  1  0  0  0  0
 22 23  1  0  0  0  0
 22 24  2  0  0  0  0
 24 29  1  0  0  0  0
 25 26  2  0  0  0  0
 27 30  1  0  0  0  0
M  END
> <PUBCHEM_COMPOUND_ID_TYPE>
0

> <PUBCHEM_TOTAL_CHARGE>
0

> <PUBCHEM_SUBSTANCE_ID>
310945615

> <PUBCHEM_SUBSTANCE_VERSION>
1

> <PUBCHEM_EXT_DATASOURCE_NAME>
4488

> <PUBCHEM_EXT_DATASOURCE_REGID>
SCHEMBL16123714

> <PUBCHEM_SUBSTANCE_COMMENT>
InChI=1S/C20H16F3N5O2/c1-9-4-5-13(26-19(29)16-10(2)25-11(3)30-16)7-14(9)17-27-15-6-12(20(21,22)23)8-24-18(15)28-17/h4-8H,1-3H3,(H,26,29)(H,24,27,28)
InChIKey=DZDICXXHBVWPCE-UHFFFAOYSA-N

> <PUBCHEM_SUBSTANCE_SYNONYM>
SCHEMBL16123714

> <PUBCHEM_XREF_EXT_ID>
SCHEMBL16123714

> <PUBCHEM_EXT_DATASOURCE_URL>
https://www.surechembl.org/

> <PUBCHEM_EXT_SUBSTANCE_URL>
https://www.surechembl.org/chemical/SCHEMBL16123714

> <PUBCHEM_CID_ASSOCIATIONS>
117611633  1

> <PUBCHEM_COORDINATE_TYPE>
1
3

$$$$
