310941952
  -OEChem-07211613022D

 18 20  0     0  0  0  0  0  0999 V2000
   -0.4045   -0.4605    0.0000 N   0  0  0  0  0  0  0  0  0  0  0  0
    2.4331    2.5265    0.0000 N   0  0  0  0  0  0  0  0  0  0  0  0
   -0.0062    0.8338    0.0000 C   0  0  0  0  0  0  0  0  0  0  0  0
    0.2551    0.0498    0.0000 C   0  0  0  0  0  0  0  0  0  0  0  0
   -0.8401    0.8463    0.0000 C   0  0  0  0  0  0  0  0  0  0  0  0
   -1.0890    0.0498    0.0000 C   0  0  0  0  0  0  0  0  0  0  0  0
    0.5414    1.4437    0.0000 C   0  0  0  0  0  0  0  0  0  0  0  0
    1.0641   -0.1120    0.0000 C   0  0  0  0  0  0  0  0  0  0  0  0
   -1.3752    1.4313    0.0000 C   0  0  0  0  0  0  0  0  0  0  0  0
   -1.8980   -0.1120    0.0000 C   0  0  0  0  0  0  0  0  0  0  0  0
    1.3379    1.2944    0.0000 C   0  0  0  0  0  0  0  0  0  0  0  0
   -0.4169   -1.2695    0.0000 C   0  0  0  0  0  0  0  0  0  0  0  0
    1.5993    0.4854    0.0000 C   0  0  0  0  0  0  0  0  0  0  0  0
   -2.1593    1.2819    0.0000 C   0  0  0  0  0  0  0  0  0  0  0  0
   -2.4331    0.4854    0.0000 C   0  0  0  0  0  0  0  0  0  0  0  0
    1.8731    1.9167    0.0000 C   0  0  0  0  0  0  0  0  0  0  0  0
   -1.1139   -1.6678    0.0000 C   0  0  0  0  0  0  0  0  0  0  0  0
   -1.1014   -2.5265    0.0000 C   0  0  0  0  0  0  0  0  0  0  0  0
  1  4  1  0  0  0  0
  1  6  1  0  0  0  0
  1 12  1  0  0  0  0
  2 16  3  0  0  0  0
  3  4  2  0  0  0  0
  3  5  1  0  0  0  0
  3  7  1  0  0  0  0
  4  8  1  0  0  0  0
  5  6  1  0  0  0  0
  5  9  2  0  0  0  0
  6 10  2  0  0  0  0
  7 11  2  0  0  0  0
  8 13  2  0  0  0  0
  9 14  1  0  0  0  0
 10 15  1  0  0  0  0
 11 13  1  0  0  0  0
 11 16  1  0  0  0  0
 12 17  1  0  0  0  0
 14 15  2  0  0  0  0
 17 18  1  0  0  0  0
M  END
> <PUBCHEM_COMPOUND_ID_TYPE>
0

> <PUBCHEM_TOTAL_CHARGE>
0

> <PUBCHEM_SUBSTANCE_ID>
310941952

> <PUBCHEM_SUBSTANCE_VERSION>
1

> <PUBCHEM_EXT_DATASOURCE_NAME>
4488

> <PUBCHEM_EXT_DATASOURCE_REGID>
SCHEMBL16119985

> <PUBCHEM_SUBSTANCE_COMMENT>
InChI=1S/C16H14N2/c1-2-9-18-15-6-4-3-5-13(15)14-10-12(11-17)7-8-16(14)18/h3-8,10H,2,9H2,1H3
InChIKey=XLOLFDXALDTACH-UHFFFAOYSA-N

> <PUBCHEM_SUBSTANCE_SYNONYM>
SCHEMBL16119985

> <PUBCHEM_XREF_EXT_ID>
SCHEMBL16119985

> <PUBCHEM_EXT_DATASOURCE_URL>
https://www.surechembl.org/

> <PUBCHEM_EXT_SUBSTANCE_URL>
https://www.surechembl.org/chemical/SCHEMBL16119985

> <PUBCHEM_CID_ASSOCIATIONS>
86271056  1

> <PUBCHEM_COORDINATE_TYPE>
1
3

$$$$
