310944441
  -OEChem-07211613022D

 26 28  0     0  0  0  0  0  0999 V2000
   -2.3590   -1.4435    0.0000 Cl  0  0  0  0  0  0  0  0  0  0  0  0
   -1.4022    1.4435    0.0000 Cl  0  0  0  0  0  0  0  0  0  0  0  0
   -4.4871   -0.2062    0.0000 Cl  0  0  0  0  0  0  0  0  0  0  0  0
    0.7259   -1.4435    0.0000 O   0  0  0  0  0  0  0  0  0  0  0  0
    0.7424    0.2062    0.0000 N   0  0  0  0  0  0  0  0  0  0  0  0
    2.8869   -0.2062    0.0000 N   0  0  0  0  0  0  0  0  0  0  0  0
    4.4871   -1.0310    0.0000 N   0  0  0  0  0  0  0  0  0  0  0  0
   -1.3857   -0.2062    0.0000 C   0  0  0  0  0  0  0  0  0  0  0  0
   -2.1281    0.2227    0.0000 C   0  0  0  0  0  0  0  0  0  0  0  0
   -1.4022   -1.0310    0.0000 C   0  0  0  0  0  0  0  0  0  0  0  0
    0.0165   -0.1897    0.0000 C   0  0  0  0  0  0  0  0  0  0  0  0
   -0.7093    0.1897    0.0000 C   0  0  0  0  0  0  0  0  0  0  0  0
    0.0000   -1.0145    0.0000 C   0  0  0  0  0  0  0  0  0  0  0  0
   -2.1281    1.0476    0.0000 C   0  0  0  0  0  0  0  0  0  0  0  0
   -0.6764   -1.4269    0.0000 C   0  0  0  0  0  0  0  0  0  0  0  0
   -2.8540   -0.1897    0.0000 C   0  0  0  0  0  0  0  0  0  0  0  0
   -3.5468    0.2062    0.0000 C   0  0  0  0  0  0  0  0  0  0  0  0
   -2.8540    1.4269    0.0000 C   0  0  0  0  0  0  0  0  0  0  0  0
   -3.5303    1.0310    0.0000 C   0  0  0  0  0  0  0  0  0  0  0  0
    1.4682   -0.2062    0.0000 C   0  0  0  0  0  0  0  0  0  0  0  0
    2.1611    0.2062    0.0000 C   0  0  0  0  0  0  0  0  0  0  0  0
    1.4352   -1.0476    0.0000 C   0  0  0  0  0  0  0  0  0  0  0  0
    3.5798    0.2062    0.0000 C   0  0  0  0  0  0  0  0  0  0  0  0
    2.8869   -1.0310    0.0000 C   0  0  0  0  0  0  0  0  0  0  0  0
    4.3057   -0.2062    0.0000 C   0  0  0  0  0  0  0  0  0  0  0  0
    3.6128   -1.4435    0.0000 C   0  0  0  0  0  0  0  0  0  0  0  0
  1 10  1  0  0  0  0
  2 14  1  0  0  0  0
  3 17  1  0  0  0  0
  4 13  1  0  0  0  0
  4 22  1  0  0  0  0
  5 11  1  0  0  0  0
  5 20  1  0  0  0  0
  6 21  1  0  0  0  0
  6 23  1  0  0  0  0
  6 24  1  0  0  0  0
  7 25  1  0  0  0  0
  7 26  1  0  0  0  0
  8  9  1  0  0  0  0
  8 10  2  0  0  0  0
  8 12  1  0  0  0  0
  9 14  1  0  0  0  0
  9 16  2  0  0  0  0
 10 15  1  0  0  0  0
 11 12  2  0  0  0  0
 11 13  1  0  0  0  0
 13 15  2  0  0  0  0
 14 18  2  0  0  0  0
 16 17  1  0  0  0  0
 17 19  2  0  0  0  0
 18 19  1  0  0  0  0
 20 21  1  0  0  0  0
 23 25  1  0  0  0  0
 24 26  1  0  0  0  0
M  END
> <PUBCHEM_COMPOUND_ID_TYPE>
0

> <PUBCHEM_TOTAL_CHARGE>
0

> <PUBCHEM_SUBSTANCE_ID>
310944441

> <PUBCHEM_SUBSTANCE_VERSION>
1

> <PUBCHEM_EXT_DATASOURCE_NAME>
4488

> <PUBCHEM_EXT_DATASOURCE_REGID>
SCHEMBL16122516

> <PUBCHEM_SUBSTANCE_COMMENT>
InChI=1S/C19H22Cl3N3O/c1-26-19-12-17(22)15(14-10-13(20)2-3-16(14)21)11-18(19)24-6-9-25-7-4-23-5-8-25/h2-3,10-12,23-24H,4-9H2,1H3
InChIKey=YSCNHJZMXUIWLV-UHFFFAOYSA-N

> <PUBCHEM_SUBSTANCE_SYNONYM>
SCHEMBL16122516

> <PUBCHEM_XREF_EXT_ID>
SCHEMBL16122516

> <PUBCHEM_EXT_DATASOURCE_URL>
https://www.surechembl.org/

> <PUBCHEM_EXT_SUBSTANCE_URL>
https://www.surechembl.org/chemical/SCHEMBL16122516

> <PUBCHEM_CID_ASSOCIATIONS>
117610695  1

> <PUBCHEM_COORDINATE_TYPE>
1
3

$$$$
