310935182
  -OEChem-07211613022D

 11 11  0     0  0  0  0  0  0999 V2000
    2.0885   -3.5100    0.0000 O   0  0  0  0  0  0  0  0  0  0  0  0
    0.0000   -2.8080    0.0000 O   0  0  0  0  0  0  0  0  0  0  0  0
    0.5090    0.0000    0.0000 O   0  0  0  0  0  0  0  0  0  0  0  0
    1.2285   -2.0709    0.0000 C   0  0  0  0  0  0  0  0  0  0  0  0
    0.8424   -2.8080    0.0000 C   0  0  0  0  0  0  0  0  0  0  0  0
    2.0709   -2.0885    0.0000 C   0  0  0  0  0  0  0  0  0  0  0  0
    1.2285   -1.2460    0.0000 C   0  0  0  0  0  0  0  0  0  0  0  0
    0.4037   -2.0885    0.0000 C   0  0  0  0  0  0  0  0  0  0  0  0
    1.2636   -3.5100    0.0000 C   0  0  0  0  0  0  0  0  0  0  0  0
    2.4746   -2.7729    0.0000 C   0  0  0  0  0  0  0  0  0  0  0  0
    0.5090   -0.8249    0.0000 C   0  0  0  0  0  0  0  0  0  0  0  0
  1  9  1  0  0  0  0
  1 10  1  0  0  0  0
  2  8  1  0  0  0  0
  3 11  1  0  0  0  0
  4  5  1  0  0  0  0
  4  6  1  0  0  0  0
  4  7  1  0  0  0  0
  4  8  1  0  0  0  0
  5  9  1  0  0  0  0
  6 10  1  0  0  0  0
  7 11  1  0  0  0  0
M  END
> <PUBCHEM_COMPOUND_ID_TYPE>
0

> <PUBCHEM_TOTAL_CHARGE>
0

> <PUBCHEM_SUBSTANCE_ID>
310935182

> <PUBCHEM_SUBSTANCE_VERSION>
1

> <PUBCHEM_EXT_DATASOURCE_NAME>
4488

> <PUBCHEM_EXT_DATASOURCE_REGID>
SCHEMBL16112710

> <PUBCHEM_SUBSTANCE_COMMENT>
InChI=1S/C8H16O3/c9-4-1-8(7-10)2-5-11-6-3-8/h9-10H,1-7H2
InChIKey=XESQAIPRYGOOHJ-UHFFFAOYSA-N

> <PUBCHEM_SUBSTANCE_SYNONYM>
SCHEMBL16112710

> <PUBCHEM_XREF_EXT_ID>
SCHEMBL16112710

> <PUBCHEM_EXT_DATASOURCE_URL>
https://www.surechembl.org/

> <PUBCHEM_EXT_SUBSTANCE_URL>
https://www.surechembl.org/chemical/SCHEMBL16112710

> <PUBCHEM_CID_ASSOCIATIONS>
117603265  1

> <PUBCHEM_COORDINATE_TYPE>
1
3

$$$$
