310944427
  -OEChem-07211613022D

 18 19  0     1  0  0  0  0  0999 V2000
    2.9890   -1.5049    0.0000 Br  0  0  0  0  0  0  0  0  0  0  0  0
   -1.8933   -0.8669    0.0000 F   0  0  0  0  0  0  0  0  0  0  0  0
   -2.9890   -0.5756    0.0000 F   0  0  0  0  0  0  0  0  0  0  0  0
   -2.6838    0.5201    0.0000 F   0  0  0  0  0  0  0  0  0  0  0  0
    0.6588    0.0070    0.0000 N   0  0  0  0  0  0  0  0  0  0  0  0
    1.1443    0.6727    0.0000 N   0  0  0  0  0  0  0  0  0  0  0  0
   -0.1456    0.2844    0.0000 C   0  0  0  0  0  0  0  0  0  0  0  0
   -0.1318    1.1027    0.0000 C   0  0  0  0  0  0  0  0  0  0  0  0
   -1.5742    0.2704    0.0000 C   0  0  0  0  0  0  0  0  0  0  0  0
   -0.8669   -0.1318    0.0000 C   0  0  0  0  0  0  0  0  0  0  0  0
   -2.2955   -0.1595    0.0000 C   0  0  0  0  0  0  0  0  0  0  0  0
   -0.8530    1.5049    0.0000 C   0  0  0  0  0  0  0  0  0  0  0  0
    0.6588    1.3384    0.0000 C   0  0  0  0  0  0  0  0  0  0  0  0
   -1.5604    1.1027    0.0000 C   0  0  0  0  0  0  0  0  0  0  0  0
    0.9224   -0.7698    0.0000 C   0  0  0  0  0  0  0  0  0  0  0  0
    1.7546   -0.7976    0.0000 C   0  0  3  0  0  0  0  0  0  0  0  0
    2.1707   -1.4910    0.0000 C   0  0  0  0  0  0  0  0  0  0  0  0
    2.1568   -0.0763    0.0000 C   0  0  0  0  0  0  0  0  0  0  0  0
  1 17  1  0  0  0  0
  2 11  1  0  0  0  0
  3 11  1  0  0  0  0
  4 11  1  0  0  0  0
  5  6  1  0  0  0  0
  5  7  1  0  0  0  0
  5 15  1  0  0  0  0
  6 13  2  0  0  0  0
  7  8  1  0  0  0  0
  7 10  2  0  0  0  0
  8 12  2  0  0  0  0
  8 13  1  0  0  0  0
  9 10  1  0  0  0  0
  9 11  1  0  0  0  0
  9 14  2  0  0  0  0
 12 14  1  0  0  0  0
 15 16  1  0  0  0  0
 16 17  1  0  0  0  0
 16 18  1  6  0  0  0
M  END
> <PUBCHEM_COMPOUND_ID_TYPE>
0

> <PUBCHEM_TOTAL_CHARGE>
0

> <PUBCHEM_SUBSTANCE_ID>
310944427

> <PUBCHEM_SUBSTANCE_VERSION>
1

> <PUBCHEM_EXT_DATASOURCE_NAME>
4488

> <PUBCHEM_EXT_DATASOURCE_REGID>
SCHEMBL16122502

> <PUBCHEM_SUBSTANCE_COMMENT>
InChI=1S/C12H12BrF3N2/c1-8(5-13)7-18-11-4-10(12(14,15)16)3-2-9(11)6-17-18/h2-4,6,8H,5,7H2,1H3/t8-/m1/s1
InChIKey=SFIWXNCZBQFZOB-MRVPVSSYSA-N

> <PUBCHEM_SUBSTANCE_SYNONYM>
SCHEMBL16122502

> <PUBCHEM_XREF_EXT_ID>
SCHEMBL16122502

> <PUBCHEM_EXT_DATASOURCE_URL>
https://www.surechembl.org/

> <PUBCHEM_EXT_SUBSTANCE_URL>
https://www.surechembl.org/chemical/SCHEMBL16122502

> <PUBCHEM_CID_ASSOCIATIONS>
117610681  1

> <PUBCHEM_COORDINATE_TYPE>
1
3

> <PUBCHEM_BONDANNOTATIONS>
16  18  6

$$$$
