310937458
  -OEChem-07211613022D

  7  6  0     0  0  0  0  0  0999 V2000
    1.4335   -2.0625    0.0000 Br  0  0  0  0  0  0  0  0  0  0  0  0
    0.0000   -1.2272    0.0000 Cl  0  0  0  0  0  0  0  0  0  0  0  0
    2.1450    0.0000    0.0000 O   0  0  0  0  0  0  0  0  0  0  0  0
    2.8566   -1.2375    0.0000 N   0  0  0  0  0  0  0  0  0  0  0  0
    1.4335   -1.2375    0.0000 C   0  0  0  0  0  0  0  0  0  0  0  0
    2.1450   -0.8250    0.0000 C   0  0  0  0  0  0  0  0  0  0  0  0
    0.7219   -0.8147    0.0000 C   0  0  0  0  0  0  0  0  0  0  0  0
  1  5  1  0  0  0  0
  2  7  1  0  0  0  0
  3  6  2  0  0  0  0
  4  6  1  0  0  0  0
  5  6  1  0  0  0  0
  5  7  2  0  0  0  0
M  END
> <PUBCHEM_COMPOUND_ID_TYPE>
0

> <PUBCHEM_TOTAL_CHARGE>
0

> <PUBCHEM_SUBSTANCE_ID>
310937458

> <PUBCHEM_SUBSTANCE_VERSION>
1

> <PUBCHEM_EXT_DATASOURCE_NAME>
4488

> <PUBCHEM_EXT_DATASOURCE_REGID>
SCHEMBL16115226

> <PUBCHEM_SUBSTANCE_COMMENT>
InChI=1S/C3H3BrClNO/c4-2(1-5)3(6)7/h1H,(H2,6,7)/b2-1-
InChIKey=FNBNDJIABHKLIB-UPHRSURJSA-N

> <PUBCHEM_SUBSTANCE_SYNONYM>
SCHEMBL16115226

> <PUBCHEM_XREF_EXT_ID>
SCHEMBL16115226

> <PUBCHEM_EXT_DATASOURCE_URL>
https://www.surechembl.org/

> <PUBCHEM_EXT_SUBSTANCE_URL>
https://www.surechembl.org/chemical/SCHEMBL16115226

> <PUBCHEM_CID_ASSOCIATIONS>
117605203  1

> <PUBCHEM_COORDINATE_TYPE>
1
3

$$$$
