310933935
  -OEChem-07211613022D

 26 28  0     0  0  0  0  0  0999 V2000
    5.3183   -2.1445    0.0000 Cl  0  0  0  0  0  0  0  0  0  0  0  0
    2.8736   -3.5599    0.0000 S   0  0  0  0  0  0  0  0  0  0  0  0
    3.6027   -3.9887    0.0000 O   0  0  0  0  0  0  0  0  0  0  0  0
    2.1445   -3.1738    0.0000 O   0  0  0  0  0  0  0  0  0  0  0  0
    4.5034   -0.6863    0.0000 O   0  0  0  0  0  0  0  0  0  0  0  0
    2.4876   -4.2890    0.0000 N   0  0  0  0  0  0  0  0  0  0  0  0
    0.4718   -7.8488    0.0000 N   0  0  0  0  0  0  0  0  0  0  0  0
    2.5305   -7.1626    0.0000 N   0  0  0  0  0  0  0  0  0  0  0  0
    1.6727   -8.5780    0.0000 N   0  0  0  0  0  0  0  0  0  0  0  0
    3.2596   -2.8736    0.0000 C   0  0  0  0  0  0  0  0  0  0  0  0
    1.6727   -5.7043    0.0000 C   0  0  0  0  0  0  0  0  0  0  0  0
    1.2438   -6.4335    0.0000 C   0  0  0  0  0  0  0  0  0  0  0  0
    4.1174   -2.8307    0.0000 C   0  0  0  0  0  0  0  0  0  0  0  0
    2.9165   -5.0181    0.0000 C   0  0  0  0  0  0  0  0  0  0  0  0
    1.6727   -4.2890    0.0000 C   0  0  0  0  0  0  0  0  0  0  0  0
    2.8736   -2.1445    0.0000 C   0  0  0  0  0  0  0  0  0  0  0  0
    4.5034   -2.1445    0.0000 C   0  0  0  0  0  0  0  0  0  0  0  0
    2.4876   -5.7043    0.0000 C   0  0  0  0  0  0  0  0  0  0  0  0
    1.2438   -5.0181    0.0000 C   0  0  0  0  0  0  0  0  0  0  0  0
    4.0745   -1.4154    0.0000 C   0  0  0  0  0  0  0  0  0  0  0  0
    1.7156   -7.1626    0.0000 C   0  0  0  0  0  0  0  0  0  0  0  0
    3.2596   -1.4582    0.0000 C   0  0  0  0  0  0  0  0  0  0  0  0
    1.2438   -7.8488    0.0000 C   0  0  0  0  0  0  0  0  0  0  0  0
    0.4718   -6.4335    0.0000 C   0  0  0  0  0  0  0  0  0  0  0  0
    0.0000   -7.1626    0.0000 C   0  0  0  0  0  0  0  0  0  0  0  0
    4.0745    0.0000    0.0000 C   0  0  0  0  0  0  0  0  0  0  0  0
  1 17  1  0  0  0  0
  2  3  2  0  0  0  0
  2  4  2  0  0  0  0
  2  6  1  0  0  0  0
  2 10  1  0  0  0  0
  5 20  1  0  0  0  0
  5 26  1  0  0  0  0
  6 14  1  0  0  0  0
  6 15  1  0  0  0  0
  7 23  1  0  0  0  0
  7 25  2  0  0  0  0
  8 21  1  0  0  0  0
  9 23  1  0  0  0  0
 10 13  1  0  0  0  0
 10 16  2  0  0  0  0
 11 12  1  0  0  0  0
 11 18  1  0  0  0  0
 11 19  1  0  0  0  0
 12 21  1  0  0  0  0
 12 24  2  0  0  0  0
 13 17  2  0  0  0  0
 14 18  1  0  0  0  0
 15 19  1  0  0  0  0
 16 22  1  0  0  0  0
 17 20  1  0  0  0  0
 20 22  2  0  0  0  0
 21 23  2  0  0  0  0
 24 25  1  0  0  0  0
M  END
> <PUBCHEM_COMPOUND_ID_TYPE>
0

> <PUBCHEM_TOTAL_CHARGE>
0

> <PUBCHEM_SUBSTANCE_ID>
310933935

> <PUBCHEM_SUBSTANCE_VERSION>
1

> <PUBCHEM_EXT_DATASOURCE_NAME>
4488

> <PUBCHEM_EXT_DATASOURCE_REGID>
SCHEMBL16111374

> <PUBCHEM_SUBSTANCE_COMMENT>
InChI=1S/C17H21ClN4O3S/c1-25-15-3-2-12(10-14(15)18)26(23,24)22-8-5-11(6-9-22)13-4-7-21-17(20)16(13)19/h2-4,7,10-11H,5-6,8-9,19H2,1H3,(H2,20,21)
InChIKey=ZHJNSEHTRGKEGR-UHFFFAOYSA-N

> <PUBCHEM_SUBSTANCE_SYNONYM>
SCHEMBL16111374

> <PUBCHEM_XREF_EXT_ID>
SCHEMBL16111374

> <PUBCHEM_EXT_DATASOURCE_URL>
https://www.surechembl.org/

> <PUBCHEM_EXT_SUBSTANCE_URL>
https://www.surechembl.org/chemical/SCHEMBL16111374

> <PUBCHEM_CID_ASSOCIATIONS>
117602257  1

> <PUBCHEM_COORDINATE_TYPE>
1
3

$$$$
