310945797
  -OEChem-07211613022D

 43 47  0     1  0  0  0  0  0999 V2000
    4.0178    0.2009    0.0000 O   0  0  0  0  0  0  0  0  0  0  0  0
    1.7457    0.2009    0.0000 O   0  0  0  0  0  0  0  0  0  0  0  0
    1.0252   -0.2147    0.0000 O   0  0  0  0  0  0  0  0  0  0  0  0
    0.3048    0.2009    0.0000 O   0  0  0  0  0  0  0  0  0  0  0  0
   -2.5769   -3.9417    0.0000 O   0  0  0  0  0  0  0  0  0  0  0  0
   -4.0178    3.5260    0.0000 O   0  0  0  0  0  0  0  0  0  0  0  0
    1.7457   -1.4340    0.0000 N   0  0  0  0  0  0  0  0  0  0  0  0
   -0.4157   -1.0183    0.0000 N   0  0  0  0  0  0  0  0  0  0  0  0
   -1.1360    1.0460    0.0000 N   0  0  0  0  0  0  0  0  0  0  0  0
   -2.5769    1.0460    0.0000 N   0  0  0  0  0  0  0  0  0  0  0  0
   -2.5769    2.7086    0.0000 N   0  0  0  0  0  0  0  0  0  0  0  0
    3.2004    0.2147    0.0000 C   0  0  3  0  0  0  0  0  0  0  0  0
    2.4384   -0.2563    0.0000 C   0  0  0  0  0  0  0  0  0  0  0  0
    3.6160   -0.4780    0.0000 C   0  0  0  0  0  0  0  0  0  0  0  0
    2.4662   -1.0183    0.0000 C   0  0  3  0  0  0  0  0  0  0  0  0
    3.1865    1.0460    0.0000 C   0  0  0  0  0  0  0  0  0  0  0  0
    3.1865   -1.4201    0.0000 C   0  0  0  0  0  0  0  0  0  0  0  0
    1.0114   -1.0459    0.0000 C   0  0  0  0  0  0  0  0  0  0  0  0
    0.3187   -1.4340    0.0000 C   0  0  3  0  0  0  0  0  0  0  0  0
    3.1865   -2.2653    0.0000 C   0  0  0  0  0  0  0  0  0  0  0  0
   -0.4434   -0.2009    0.0000 C   0  0  0  0  0  0  0  0  0  0  0  0
   -1.1360    0.2147    0.0000 C   0  0  0  0  0  0  0  0  0  0  0  0
    0.3187   -2.2653    0.0000 C   0  0  0  0  0  0  0  0  0  0  0  0
   -0.4157   -2.6809    0.0000 C   0  0  0  0  0  0  0  0  0  0  0  0
   -1.8566    1.4755    0.0000 C   0  0  0  0  0  0  0  0  0  0  0  0
    3.8932   -2.6809    0.0000 C   0  0  0  0  0  0  0  0  0  0  0  0
    2.4662   -2.6809    0.0000 C   0  0  0  0  0  0  0  0  0  0  0  0
   -1.8566   -0.1871    0.0000 C   0  0  0  0  0  0  0  0  0  0  0  0
   -1.8427    2.2792    0.0000 C   0  0  0  0  0  0  0  0  0  0  0  0
   -1.1222   -2.2792    0.0000 C   0  0  0  0  0  0  0  0  0  0  0  0
   -0.4157   -3.5122    0.0000 C   0  0  0  0  0  0  0  0  0  0  0  0
   -2.5769    0.2286    0.0000 C   0  0  0  0  0  0  0  0  0  0  0  0
    3.8932   -3.5122    0.0000 C   0  0  0  0  0  0  0  0  0  0  0  0
    2.4662   -3.4983    0.0000 C   0  0  0  0  0  0  0  0  0  0  0  0
   -1.8566   -3.5122    0.0000 C   0  0  0  0  0  0  0  0  0  0  0  0
   -1.8427   -2.6947    0.0000 C   0  0  0  0  0  0  0  0  0  0  0  0
   -1.1360   -3.9140    0.0000 C   0  0  0  0  0  0  0  0  0  0  0  0
    3.1727   -3.9140    0.0000 C   0  0  0  0  0  0  0  0  0  0  0  0
   -2.5631    3.5260    0.0000 C   0  0  0  0  0  0  0  0  0  0  0  0
   -3.2835    2.2930    0.0000 C   0  0  0  0  0  0  0  0  0  0  0  0
   -3.3112    3.9417    0.0000 C   0  0  0  0  0  0  0  0  0  0  0  0
   -4.0040    2.7086    0.0000 C   0  0  0  0  0  0  0  0  0  0  0  0
   -3.3112   -3.5260    0.0000 C   0  0  0  0  0  0  0  0  0  0  0  0
  1 12  1  0  0  0  0
  1 14  1  0  0  0  0
  2 13  2  0  0  0  0
  3 18  2  0  0  0  0
  4 21  2  0  0  0  0
  5 35  1  0  0  0  0
  5 43  1  0  0  0  0
  6 41  1  0  0  0  0
  6 42  1  0  0  0  0
 15  7  1  6  0  0  0
  7 18  1  0  0  0  0
 19  8  1  6  0  0  0
  8 21  1  0  0  0  0
  9 22  1  0  0  0  0
  9 25  2  0  0  0  0
 10 25  1  0  0  0  0
 10 32  2  0  0  0  0
 11 29  1  0  0  0  0
 11 39  1  0  0  0  0
 11 40  1  0  0  0  0
 12 13  1  6  0  0  0
 12 14  1  0  0  0  0
 12 16  1  1  0  0  0
 13 15  1  0  0  0  0
 15 17  1  0  0  0  0
 17 20  1  0  0  0  0
 18 19  1  0  0  0  0
 19 23  1  0  0  0  0
 20 26  2  0  0  0  0
 20 27  1  0  0  0  0
 21 22  1  0  0  0  0
 22 28  2  0  0  0  0
 23 24  1  0  0  0  0
 24 30  2  0  0  0  0
 24 31  1  0  0  0  0
 25 29  1  0  0  0  0
 26 33  1  0  0  0  0
 27 34  2  0  0  0  0
 28 32  1  0  0  0  0
 30 36  1  0  0  0  0
 31 37  2  0  0  0  0
 33 38  2  0  0  0  0
 34 38  1  0  0  0  0
 35 36  2  0  0  0  0
 35 37  1  0  0  0  0
 39 41  1  0  0  0  0
 40 42  1  0  0  0  0
M  END
> <PUBCHEM_COMPOUND_ID_TYPE>
0

> <PUBCHEM_TOTAL_CHARGE>
0

> <PUBCHEM_SUBSTANCE_ID>
310945797

> <PUBCHEM_SUBSTANCE_VERSION>
1

> <PUBCHEM_EXT_DATASOURCE_NAME>
4488

> <PUBCHEM_EXT_DATASOURCE_REGID>
SCHEMBL16123901

> <PUBCHEM_SUBSTANCE_COMMENT>
InChI=1S/C32H37N5O6/c1-32(21-43-32)29(38)26(18-22-6-4-3-5-7-22)35-31(40)27(19-23-8-10-24(41-2)11-9-23)36-30(39)25-12-13-33-28(34-25)20-37-14-16-42-17-15-37/h3-13,26-27H,14-21H2,1-2H3,(H,35,40)(H,36,39)/t26-,27-,32+/m0/s1
InChIKey=BENNZAOVXOIYET-KWHBQZNLSA-N

> <PUBCHEM_SUBSTANCE_SYNONYM>
SCHEMBL16123901

> <PUBCHEM_XREF_EXT_ID>
SCHEMBL16123901

> <PUBCHEM_EXT_DATASOURCE_URL>
https://www.surechembl.org/

> <PUBCHEM_EXT_SUBSTANCE_URL>
https://www.surechembl.org/chemical/SCHEMBL16123901

> <PUBCHEM_CID_ASSOCIATIONS>
117611784  1

> <PUBCHEM_COORDINATE_TYPE>
1
3

> <PUBCHEM_BONDANNOTATIONS>
12  13  6
12  16  5
15  7  6
19  8  6

$$$$
