310943108
  -OEChem-07211613022D

 14 15  0     0  0  0  0  0  0999 V2000
    2.1343    0.2193    0.0000 Br  0  0  0  0  0  0  0  0  0  0  0  0
   -0.7017   -1.4326    0.0000 F   0  0  0  0  0  0  0  0  0  0  0  0
   -2.1343    1.0379    0.0000 O   0  0  0  0  0  0  0  0  0  0  0  0
   -0.7163    0.2193    0.0000 N   0  0  0  0  0  0  0  0  0  0  0  0
    0.7163   -1.4472    0.0000 N   0  0  0  0  0  0  0  0  0  0  0  0
    0.0000   -0.1900    0.0000 C   0  0  0  0  0  0  0  0  0  0  0  0
   -0.0146   -1.0233    0.0000 C   0  0  0  0  0  0  0  0  0  0  0  0
    0.7163    0.2193    0.0000 C   0  0  0  0  0  0  0  0  0  0  0  0
    1.4326   -0.1900    0.0000 C   0  0  0  0  0  0  0  0  0  0  0  0
   -0.7163    1.0379    0.0000 C   0  0  0  0  0  0  0  0  0  0  0  0
   -1.4180   -0.1900    0.0000 C   0  0  0  0  0  0  0  0  0  0  0  0
    1.4180   -1.0233    0.0000 C   0  0  0  0  0  0  0  0  0  0  0  0
   -1.4326    1.4472    0.0000 C   0  0  0  0  0  0  0  0  0  0  0  0
   -2.1343    0.2047    0.0000 C   0  0  0  0  0  0  0  0  0  0  0  0
  1  9  1  0  0  0  0
  2  7  1  0  0  0  0
  3 13  1  0  0  0  0
  3 14  1  0  0  0  0
  4  6  1  0  0  0  0
  4 10  1  0  0  0  0
  4 11  1  0  0  0  0
  5  7  2  0  0  0  0
  5 12  1  0  0  0  0
  6  7  1  0  0  0  0
  6  8  2  0  0  0  0
  8  9  1  0  0  0  0
  9 12  2  0  0  0  0
 10 13  1  0  0  0  0
 11 14  1  0  0  0  0
M  END
> <PUBCHEM_COMPOUND_ID_TYPE>
0

> <PUBCHEM_TOTAL_CHARGE>
0

> <PUBCHEM_SUBSTANCE_ID>
310943108

> <PUBCHEM_SUBSTANCE_VERSION>
1

> <PUBCHEM_EXT_DATASOURCE_NAME>
4488

> <PUBCHEM_EXT_DATASOURCE_REGID>
SCHEMBL16121167

> <PUBCHEM_SUBSTANCE_COMMENT>
InChI=1S/C9H10BrFN2O/c10-7-5-8(9(11)12-6-7)13-1-3-14-4-2-13/h5-6H,1-4H2
InChIKey=RBQLFQDAQLBVBX-UHFFFAOYSA-N

> <PUBCHEM_SUBSTANCE_SYNONYM>
SCHEMBL16121167

> <PUBCHEM_XREF_EXT_ID>
SCHEMBL16121167

> <PUBCHEM_EXT_DATASOURCE_URL>
https://www.surechembl.org/

> <PUBCHEM_EXT_SUBSTANCE_URL>
https://www.surechembl.org/chemical/SCHEMBL16121167

> <PUBCHEM_CID_ASSOCIATIONS>
117609538  1

> <PUBCHEM_COORDINATE_TYPE>
1
3

$$$$
