310946656
  -OEChem-07211613022D

 24 27  0     1  0  0  0  0  0999 V2000
    0.5181    2.1126    0.0000 O   0  0  0  0  0  0  0  0  0  0  0  0
   -3.0542   -1.5999    0.0000 O   0  0  0  0  0  0  0  0  0  0  0  0
    1.2326    0.8751    0.0000 C   0  0  3  0  0  0  0  0  0  0  0  0
    1.2326    0.0501    0.0000 C   0  0  3  0  0  0  0  0  0  0  0  0
   -0.1963    0.0501    0.0000 C   0  0  3  0  0  0  0  0  0  0  0  0
    0.5181   -0.3624    0.0000 C   0  0  3  0  0  0  0  0  0  0  0  0
   -0.9108   -0.3624    0.0000 C   0  0  3  0  0  0  0  0  0  0  0  0
    0.5181    1.2876    0.0000 C   0  0  3  0  0  0  0  0  0  0  0  0
    2.0172    1.1300    0.0000 C   0  0  3  0  0  0  0  0  0  0  0  0
   -0.1963    0.8751    0.0000 C   0  0  0  0  0  0  0  0  0  0  0  0
   -0.9108   -1.1874    0.0000 C   0  0  0  0  0  0  0  0  0  0  0  0
    2.0172   -0.2048    0.0000 C   0  0  0  0  0  0  0  0  0  0  0  0
    0.5181   -1.1874    0.0000 C   0  0  0  0  0  0  0  0  0  0  0  0
    2.5022    0.4626    0.0000 C   0  0  0  0  0  0  0  0  0  0  0  0
   -1.6253    0.0501    0.0000 C   0  0  0  0  0  0  0  0  0  0  0  0
   -0.1963   -1.5999    0.0000 C   0  0  0  0  0  0  0  0  0  0  0  0
    1.2326    1.7001    0.0000 C   0  0  0  0  0  0  0  0  0  0  0  0
    2.0172    1.9550    0.0000 C   0  0  0  0  0  0  0  0  0  0  0  0
   -1.6253   -1.5999    0.0000 C   0  0  0  0  0  0  0  0  0  0  0  0
   -0.9108    0.4626    0.0000 C   0  0  0  0  0  0  0  0  0  0  0  0
   -2.3397   -1.1874    0.0000 C   0  0  0  0  0  0  0  0  0  0  0  0
   -2.3397   -0.3624    0.0000 C   0  0  0  0  0  0  0  0  0  0  0  0
    2.7317    2.3675    0.0000 C   0  0  0  0  0  0  0  0  0  0  0  0
    1.3028    2.3675    0.0000 C   0  0  0  0  0  0  0  0  0  0  0  0
  8  1  1  1  0  0  0
  2 21  2  0  0  0  0
  3  4  1  0  0  0  0
  3  8  1  0  0  0  0
  3  9  1  0  0  0  0
  3 17  1  1  0  0  0
  4  6  1  0  0  0  0
  4 12  1  1  0  0  0
  5  6  1  0  0  0  0
  5  7  1  0  0  0  0
  5 10  1  1  0  0  0
  6 13  1  6  0  0  0
  7 11  1  0  0  0  0
  7 15  1  0  0  0  0
  7 20  1  1  0  0  0
  8 10  1  0  0  0  0
  9 14  1  0  0  0  0
  9 18  1  0  0  0  0
 11 16  1  0  0  0  0
 11 19  2  0  0  0  0
 12 14  1  0  0  0  0
 13 16  2  0  0  0  0
 15 22  1  0  0  0  0
 18 23  2  0  0  0  0
 18 24  1  0  0  0  0
 19 21  1  0  0  0  0
 21 22  1  0  0  0  0
M  END
> <PUBCHEM_COMPOUND_ID_TYPE>
0

> <PUBCHEM_TOTAL_CHARGE>
0

> <PUBCHEM_SUBSTANCE_ID>
310946656

> <PUBCHEM_SUBSTANCE_VERSION>
1

> <PUBCHEM_EXT_DATASOURCE_NAME>
4488

> <PUBCHEM_EXT_DATASOURCE_REGID>
SCHEMBL16124777

> <PUBCHEM_SUBSTANCE_COMMENT>
InChI=1S/C22H30O2/c1-13(2)17-7-8-18-16-6-5-14-11-15(23)9-10-21(14,3)19(16)12-20(24)22(17,18)4/h5-6,11,16-20,24H,1,7-10,12H2,2-4H3/t16-,17?,18-,19-,20+,21-,22+/m0/s1
InChIKey=MKVCUPXCIWHVLP-LEGHGDHHSA-N

> <PUBCHEM_SUBSTANCE_SYNONYM>
SCHEMBL16124777

> <PUBCHEM_XREF_EXT_ID>
SCHEMBL16124777

> <PUBCHEM_EXT_DATASOURCE_URL>
https://www.surechembl.org/

> <PUBCHEM_EXT_SUBSTANCE_URL>
https://www.surechembl.org/chemical/SCHEMBL16124777

> <PUBCHEM_CID_ASSOCIATIONS>
117612556  1

> <PUBCHEM_COORDINATE_TYPE>
1
3

> <PUBCHEM_BONDANNOTATIONS>
8  1  5
3  17  5
4  12  5
5  10  5
6  13  6
7  20  5

$$$$
