310948634
  -OEChem-07211613022D

 25 26  0     0  0  0  0  0  0999 V2000
   -1.3211   -0.9796    0.0000 N   0  0  0  0  0  0  0  0  0  0  0  0
   -0.7283    0.3866    0.0000 C   0  0  0  0  0  0  0  0  0  0  0  0
   -1.4501   -0.0258    0.0000 C   0  0  0  0  0  0  0  0  0  0  0  0
   -0.0193    0.0645    0.0000 C   0  0  0  0  0  0  0  0  0  0  0  0
    0.7283    0.3996    0.0000 C   0  0  0  0  0  0  0  0  0  0  0  0
   -0.7153    1.2245    0.0000 C   0  0  0  0  0  0  0  0  0  0  0  0
    0.2771   -0.3351    0.0000 C   0  0  0  0  0  0  0  0  0  0  0  0
    1.4629   -0.0258    0.0000 C   0  0  0  0  0  0  0  0  0  0  0  0
    0.2771    0.1031    0.0000 C   0  0  0  0  0  0  0  0  0  0  0  0
   -2.1976    0.3866    0.0000 C   0  0  0  0  0  0  0  0  0  0  0  0
    0.7411    1.2245    0.0000 C   0  0  0  0  0  0  0  0  0  0  0  0
   -0.0065    1.6498    0.0000 C   0  0  0  0  0  0  0  0  0  0  0  0
   -2.1847   -1.2889    0.0000 C   0  0  0  0  0  0  0  0  0  0  0  0
   -2.9065   -0.0258    0.0000 C   0  0  0  0  0  0  0  0  0  0  0  0
   -0.0322   -0.3996    0.0000 C   0  0  0  0  0  0  0  0  0  0  0  0
    2.1718    0.3866    0.0000 C   0  0  0  0  0  0  0  0  0  0  0  0
   -2.9194   -0.8636    0.0000 C   0  0  0  0  0  0  0  0  0  0  0  0
    1.4629   -0.8765    0.0000 C   0  0  0  0  0  0  0  0  0  0  0  0
    2.9194   -0.0387    0.0000 C   0  0  0  0  0  0  0  0  0  0  0  0
    1.9527   -1.0698    0.0000 C   0  0  0  0  0  0  0  0  0  0  0  0
    2.9065   -0.8636    0.0000 C   0  0  0  0  0  0  0  0  0  0  0  0
    2.4682   -1.1600    0.0000 C   0  0  0  0  0  0  0  0  0  0  0  0
    2.4682   -1.5853    0.0000 C   0  0  0  0  0  0  0  0  0  0  0  0
    2.1718   -1.1987    0.0000 C   0  0  0  0  0  0  0  0  0  0  0  0
    2.1460   -1.6498    0.0000 C   0  0  0  0  0  0  0  0  0  0  0  0
  1  3  2  0  0  0  0
  1 13  1  0  0  0  0
  2  3  1  0  0  0  0
  2  4  2  0  0  0  0
  2  6  1  0  0  0  0
  3 10  1  0  0  0  0
  4  7  1  0  0  0  0
  4 15  1  0  0  0  0
  5  8  1  0  0  0  0
  5  9  1  0  0  0  0
  5 11  2  0  0  0  0
  6 12  2  0  0  0  0
  7  9  1  0  0  0  0
  8 16  2  0  0  0  0
  8 18  1  0  0  0  0
 10 14  2  0  0  0  0
 11 12  1  0  0  0  0
 13 17  2  0  0  0  0
 14 17  1  0  0  0  0
 16 19  1  0  0  0  0
 18 20  2  0  0  0  0
 19 21  2  0  0  0  0
 21 22  1  0  0  0  0
 22 23  1  0  0  0  0
 23 24  1  0  0  0  0
 24 25  1  0  0  0  0
M  END
> <PUBCHEM_COMPOUND_ID_TYPE>
0

> <PUBCHEM_TOTAL_CHARGE>
0

> <PUBCHEM_SUBSTANCE_ID>
310948634

> <PUBCHEM_SUBSTANCE_VERSION>
1

> <PUBCHEM_EXT_DATASOURCE_NAME>
4488

> <PUBCHEM_EXT_DATASOURCE_REGID>
SCHEMBL16126818

> <PUBCHEM_SUBSTANCE_COMMENT>
InChI=1S/C24H29N/c1-4-6-7-8-9-13-21(5-2)22-14-12-15-23(20(3)17-18-22)24-16-10-11-19-25-24/h5,8-16,19H,2,4,6-7,17-18H2,1,3H3/b9-8-,15-12-,21-13+,22-14+,23-20+
InChIKey=YZUBFPWWKAMGLM-DFUHUGIVSA-N

> <PUBCHEM_SUBSTANCE_SYNONYM>
SCHEMBL16126818

> <PUBCHEM_XREF_EXT_ID>
SCHEMBL16126818

> <PUBCHEM_EXT_DATASOURCE_URL>
https://www.surechembl.org/

> <PUBCHEM_EXT_SUBSTANCE_URL>
https://www.surechembl.org/chemical/SCHEMBL16126818

> <PUBCHEM_CID_ASSOCIATIONS>
117614178  1

> <PUBCHEM_COORDINATE_TYPE>
1
3

$$$$
