310935228
  -OEChem-07211613022D

 31 34  0     0  0  0  0  0  0999 V2000
    6.9395   -6.4335    0.0000 S   0  0  0  0  0  0  0  0  0  0  0  0
    3.6866   -0.6867    0.0000 O   0  0  0  0  0  0  0  0  0  0  0  0
    6.9395   -5.5299    0.0000 O   0  0  0  0  0  0  0  0  0  0  0  0
    6.9395   -7.2286    0.0000 O   0  0  0  0  0  0  0  0  0  0  0  0
    3.2529   -5.7106    0.0000 N   0  0  0  0  0  0  0  0  0  0  0  0
    0.7951   -5.7106    0.0000 N   0  0  0  0  0  0  0  0  0  0  0  0
    2.0240   -6.4335    0.0000 N   0  0  0  0  0  0  0  0  0  0  0  0
    2.4577   -1.4457    0.0000 N   0  0  0  0  0  0  0  0  0  0  0  0
    6.1082   -6.4335    0.0000 N   0  0  0  0  0  0  0  0  0  0  0  0
    2.0240   -4.9878    0.0000 C   0  0  0  0  0  0  0  0  0  0  0  0
    1.1928   -4.9878    0.0000 C   0  0  0  0  0  0  0  0  0  0  0  0
    2.4216   -5.7106    0.0000 C   0  0  0  0  0  0  0  0  0  0  0  0
    2.0240   -3.5782    0.0000 C   0  0  0  0  0  0  0  0  0  0  0  0
    0.7951   -4.2649    0.0000 C   0  0  0  0  0  0  0  0  0  0  0  0
    2.4577   -4.3011    0.0000 C   0  0  0  0  0  0  0  0  0  0  0  0
    1.2289   -3.5782    0.0000 C   0  0  0  0  0  0  0  0  0  0  0  0
    2.4577   -2.8553    0.0000 C   0  0  0  0  0  0  0  0  0  0  0  0
    1.1928   -6.4335    0.0000 C   0  0  0  0  0  0  0  0  0  0  0  0
    3.6505   -4.9878    0.0000 C   0  0  0  0  0  0  0  0  0  0  0  0
    3.6505   -6.3973    0.0000 C   0  0  0  0  0  0  0  0  0  0  0  0
    2.0602   -2.1325    0.0000 C   0  0  0  0  0  0  0  0  0  0  0  0
    3.2890   -2.8553    0.0000 C   0  0  0  0  0  0  0  0  0  0  0  0
    4.8793   -5.7106    0.0000 C   0  0  0  0  0  0  0  0  0  0  0  0
    0.0000   -4.3011    0.0000 C   0  0  0  0  0  0  0  0  0  0  0  0
    4.4818   -4.9878    0.0000 C   0  0  0  0  0  0  0  0  0  0  0  0
    4.4818   -6.4335    0.0000 C   0  0  0  0  0  0  0  0  0  0  0  0
    3.2890   -1.4096    0.0000 C   0  0  0  0  0  0  0  0  0  0  0  0
    3.6866   -2.1325    0.0000 C   0  0  0  0  0  0  0  0  0  0  0  0
    5.7106   -5.7106    0.0000 C   0  0  0  0  0  0  0  0  0  0  0  0
    7.7346   -6.4335    0.0000 C   0  0  0  0  0  0  0  0  0  0  0  0
    3.2890    0.0000    0.0000 C   0  0  0  0  0  0  0  0  0  0  0  0
  1  3  2  0  0  0  0
  1  4  2  0  0  0  0
  1  9  1  0  0  0  0
  1 30  1  0  0  0  0
  2 27  1  0  0  0  0
  2 31  1  0  0  0  0
  5 12  1  0  0  0  0
  5 19  1  0  0  0  0
  5 20  1  0  0  0  0
  6 11  2  0  0  0  0
  6 18  1  0  0  0  0
  7 12  1  0  0  0  0
  7 18  2  0  0  0  0
  8 21  1  0  0  0  0
  8 27  2  0  0  0  0
  9 29  1  0  0  0  0
 10 11  1  0  0  0  0
 10 12  2  0  0  0  0
 10 15  1  0  0  0  0
 11 14  1  0  0  0  0
 13 15  2  0  0  0  0
 13 16  1  0  0  0  0
 13 17  1  0  0  0  0
 14 16  2  0  0  0  0
 14 24  1  0  0  0  0
 17 21  2  0  0  0  0
 17 22  1  0  0  0  0
 19 25  1  0  0  0  0
 20 26  1  0  0  0  0
 22 28  2  0  0  0  0
 23 25  1  0  0  0  0
 23 26  1  0  0  0  0
 23 29  1  0  0  0  0
 27 28  1  0  0  0  0
M  END
> <PUBCHEM_COMPOUND_ID_TYPE>
0

> <PUBCHEM_TOTAL_CHARGE>
0

> <PUBCHEM_SUBSTANCE_ID>
310935228

> <PUBCHEM_SUBSTANCE_VERSION>
1

> <PUBCHEM_EXT_DATASOURCE_NAME>
4488

> <PUBCHEM_EXT_DATASOURCE_REGID>
SCHEMBL16112756

> <PUBCHEM_SUBSTANCE_COMMENT>
InChI=1S/C22H27N5O3S/c1-15-10-18(17-4-5-20(30-2)23-13-17)11-19-21(15)24-14-25-22(19)27-8-6-16(7-9-27)12-26-31(3,28)29/h4-5,10-11,13-14,16,26H,6-9,12H2,1-3H3
InChIKey=DLLGFWLCWHGOAS-UHFFFAOYSA-N

> <PUBCHEM_SUBSTANCE_SYNONYM>
SCHEMBL16112756

> <PUBCHEM_XREF_EXT_ID>
SCHEMBL16112756

> <PUBCHEM_EXT_DATASOURCE_URL>
https://www.surechembl.org/

> <PUBCHEM_EXT_SUBSTANCE_URL>
https://www.surechembl.org/chemical/SCHEMBL16112756

> <PUBCHEM_CID_ASSOCIATIONS>
117603304  1

> <PUBCHEM_COORDINATE_TYPE>
1
3

$$$$
