310929791
  -OEChem-07211613022D

 22 23  0     1  0  0  0  0  0999 V2000
   -1.0165    1.6821    0.0000 O   0  0  0  0  0  0  0  0  0  0  0  0
   -0.3019    0.4446    0.0000 O   0  0  0  0  0  0  0  0  0  0  0  0
    1.8415    2.5071    0.0000 O   0  0  0  0  0  0  0  0  0  0  0  0
    2.5559    1.2696    0.0000 O   0  0  0  0  0  0  0  0  0  0  0  0
    0.4125    1.6821    0.0000 N   0  0  0  0  0  0  0  0  0  0  0  0
   -1.7309    1.2696    0.0000 C   0  0  3  0  0  0  0  0  0  0  0  0
   -2.1434    0.5550    0.0000 C   0  0  3  0  0  0  0  0  0  0  0  0
   -1.3184    0.5550    0.0000 C   0  0  0  0  0  0  0  0  0  0  0  0
    1.1269    1.2696    0.0000 C   0  0  3  0  0  0  0  0  0  0  0  0
   -0.3019    1.2696    0.0000 C   0  0  0  0  0  0  0  0  0  0  0  0
    1.1269    0.4446    0.0000 C   0  0  0  0  0  0  0  0  0  0  0  0
   -2.8579    0.1425    0.0000 C   0  0  0  0  0  0  0  0  0  0  0  0
   -2.4454    1.6821    0.0000 C   0  0  0  0  0  0  0  0  0  0  0  0
    1.8415    1.6821    0.0000 C   0  0  0  0  0  0  0  0  0  0  0  0
    0.4595   -0.0404    0.0000 C   0  0  0  0  0  0  0  0  0  0  0  0
    1.7944   -0.0404    0.0000 C   0  0  0  0  0  0  0  0  0  0  0  0
    1.1269    2.0946    0.0000 C   0  0  0  0  0  0  0  0  0  0  0  0
   -3.5724    0.5550    0.0000 C   0  0  0  0  0  0  0  0  0  0  0  0
    0.7144   -0.8250    0.0000 C   0  0  0  0  0  0  0  0  0  0  0  0
    1.5394   -0.8250    0.0000 C   0  0  0  0  0  0  0  0  0  0  0  0
   -4.2868    0.1425    0.0000 C   0  0  0  0  0  0  0  0  0  0  0  0
   -5.0013    0.5550    0.0000 C   0  0  0  0  0  0  0  0  0  0  0  0
  6  1  1  6  0  0  0
  1 10  1  0  0  0  0
  2 10  2  0  0  0  0
  3 14  2  0  0  0  0
  4 14  1  0  0  0  0
  9  5  1  6  0  0  0
  5 10  1  0  0  0  0
  6  7  1  0  0  0  0
  6  8  1  0  0  0  0
  6 13  1  1  0  0  0
  7  8  1  0  0  0  0
  7 12  1  1  0  0  0
  9 11  1  0  0  0  0
  9 14  1  0  0  0  0
  9 17  1  1  0  0  0
 11 15  1  0  0  0  0
 11 16  1  0  0  0  0
 12 18  1  0  0  0  0
 15 19  1  0  0  0  0
 16 20  1  0  0  0  0
 18 21  1  0  0  0  0
 19 20  1  0  0  0  0
 21 22  2  0  0  0  0
M  END
> <PUBCHEM_COMPOUND_ID_TYPE>
0

> <PUBCHEM_TOTAL_CHARGE>
0

> <PUBCHEM_SUBSTANCE_ID>
310929791

> <PUBCHEM_SUBSTANCE_VERSION>
1

> <PUBCHEM_EXT_DATASOURCE_NAME>
4488

> <PUBCHEM_EXT_DATASOURCE_REGID>
SCHEMBL16106993

> <PUBCHEM_SUBSTANCE_COMMENT>
InChI=1S/C17H27NO4/c1-4-5-8-13-11-16(13,2)22-15(21)18-17(3,14(19)20)12-9-6-7-10-12/h4,12-13H,1,5-11H2,2-3H3,(H,18,21)(H,19,20)/t13-,16-,17+/m1/s1
InChIKey=OIEQEXKXQQIMSO-XYPHTWIQSA-N

> <PUBCHEM_SUBSTANCE_SYNONYM>
SCHEMBL16106993

> <PUBCHEM_XREF_EXT_ID>
SCHEMBL16106993

> <PUBCHEM_EXT_DATASOURCE_URL>
https://www.surechembl.org/

> <PUBCHEM_EXT_SUBSTANCE_URL>
https://www.surechembl.org/chemical/SCHEMBL16106993

> <PUBCHEM_CID_ASSOCIATIONS>
117599074  1

> <PUBCHEM_COORDINATE_TYPE>
1
3

> <PUBCHEM_BONDANNOTATIONS>
6  1  6
9  5  6
6  13  5
7  12  5
9  17  5

$$$$
