310941456
  -OEChem-07211613022D

 17 18  0     1  0  0  0  0  0999 V2000
    1.8467    0.1777    0.0000 O   0  0  0  0  0  0  0  0  0  0  0  0
   -0.3363   -0.2538    0.0000 N   0  0  0  0  0  0  0  0  0  0  0  0
   -1.4913   -2.2592    0.0000 N   0  0  0  0  0  0  0  0  0  0  0  0
    1.5294   -2.6780    0.0000 N   0  0  0  0  0  0  0  0  0  0  0  0
   -0.3491   -1.1550    0.0000 C   0  0  0  0  0  0  0  0  0  0  0  0
    0.0825   -1.8277    0.0000 C   0  0  0  0  0  0  0  0  0  0  0  0
   -0.7679   -1.8150    0.0000 C   0  0  0  0  0  0  0  0  0  0  0  0
    0.8187   -2.2592    0.0000 C   0  0  0  0  0  0  0  0  0  0  0  0
    0.3871    0.1650    0.0000 C   0  0  3  0  0  0  0  0  0  0  0  0
    0.3871    1.0153    0.0000 C   0  0  0  0  0  0  0  0  0  0  0  0
   -0.3998    1.4723    0.0000 C   0  0  0  0  0  0  0  0  0  0  0  0
    1.1360   -0.2412    0.0000 C   0  0  0  0  0  0  0  0  0  0  0  0
   -1.1106    1.0535    0.0000 C   0  0  0  0  0  0  0  0  0  0  0  0
   -0.4125    2.2846    0.0000 C   0  0  0  0  0  0  0  0  0  0  0  0
   -1.8340    1.4469    0.0000 C   0  0  0  0  0  0  0  0  0  0  0  0
   -1.1360    2.6780    0.0000 C   0  0  0  0  0  0  0  0  0  0  0  0
   -1.8467    2.2465    0.0000 C   0  0  0  0  0  0  0  0  0  0  0  0
  1 12  1  0  0  0  0
  2  5  2  0  0  0  0
  9  2  1  1  0  0  0
  3  7  1  0  0  0  0
  4  8  3  0  0  0  0
  5  6  1  0  0  0  0
  5  7  1  0  0  0  0
  6  7  2  0  0  0  0
  6  8  1  0  0  0  0
  9 10  1  0  0  0  0
  9 12  1  0  0  0  0
 10 11  1  0  0  0  0
 11 13  2  0  0  0  0
 11 14  1  0  0  0  0
 13 15  1  0  0  0  0
 14 16  2  0  0  0  0
 15 17  2  0  0  0  0
 16 17  1  0  0  0  0
M  END
> <PUBCHEM_COMPOUND_ID_TYPE>
0

> <PUBCHEM_TOTAL_CHARGE>
0

> <PUBCHEM_SUBSTANCE_ID>
310941456

> <PUBCHEM_SUBSTANCE_VERSION>
1

> <PUBCHEM_EXT_DATASOURCE_NAME>
4488

> <PUBCHEM_EXT_DATASOURCE_REGID>
SCHEMBL16119442

> <PUBCHEM_SUBSTANCE_COMMENT>
InChI=1S/C13H13N3O/c14-7-11-12(15)13(11)16-10(8-17)6-9-4-2-1-3-5-9/h1-5,10,17H,6,8,15H2/b16-13+/t10-/m0/s1
InChIKey=OBKAWLKQBOQDRL-CDSOTZFASA-N

> <PUBCHEM_SUBSTANCE_SYNONYM>
SCHEMBL16119442

> <PUBCHEM_XREF_EXT_ID>
SCHEMBL16119442

> <PUBCHEM_EXT_DATASOURCE_URL>
https://www.surechembl.org/

> <PUBCHEM_EXT_SUBSTANCE_URL>
https://www.surechembl.org/chemical/SCHEMBL16119442

> <PUBCHEM_CID_ASSOCIATIONS>
117608279  1

> <PUBCHEM_COORDINATE_TYPE>
1
3

> <PUBCHEM_BONDANNOTATIONS>
9  2  5

$$$$
