310941811
  -OEChem-07211613022D

 19 19  0     0  0  0  0  0  0999 V2000
    0.7250   -0.2000    0.0000 N   0  0  0  0  0  0  0  0  0  0  0  0
   -0.0125   -1.4625    0.0000 C   0  0  0  0  0  0  0  0  0  0  0  0
    0.0000   -0.6125    0.0000 C   0  0  0  0  0  0  0  0  0  0  0  0
    0.7125   -1.8625    0.0000 C   0  0  0  0  0  0  0  0  0  0  0  0
   -0.7250   -1.8750    0.0000 C   0  0  0  0  0  0  0  0  0  0  0  0
   -0.7250   -0.2000    0.0000 C   0  0  0  0  0  0  0  0  0  0  0  0
    0.7125   -2.6999    0.0000 C   0  0  0  0  0  0  0  0  0  0  0  0
   -0.0250    1.0500    0.0000 C   0  0  0  0  0  0  0  0  0  0  0  0
   -0.7250    0.6250    0.0000 C   0  0  0  0  0  0  0  0  0  0  0  0
   -0.7250   -2.6999    0.0000 C   0  0  0  0  0  0  0  0  0  0  0  0
   -0.0125   -3.1125    0.0000 C   0  0  0  0  0  0  0  0  0  0  0  0
    0.4750   -0.2875    0.0000 C   0  0  0  0  0  0  0  0  0  0  0  0
    1.4374   -1.4750    0.0000 C   0  0  0  0  0  0  0  0  0  0  0  0
   -0.0125    1.8750    0.0000 C   0  0  0  0  0  0  0  0  0  0  0  0
    0.7125    0.6250    0.0000 C   0  0  0  0  0  0  0  0  0  0  0  0
   -0.7250    2.2875    0.0000 C   0  0  0  0  0  0  0  0  0  0  0  0
   -1.4374    1.8750    0.0000 C   0  0  0  0  0  0  0  0  0  0  0  0
   -0.7375    3.1125    0.0000 C   0  0  0  0  0  0  0  0  0  0  0  0
    1.4374   -0.6250    0.0000 C   0  0  0  0  0  0  0  0  0  0  0  0
  1 15  1  0  0  0  0
  1 19  1  0  0  0  0
  2  3  1  0  0  0  0
  2  4  1  0  0  0  0
  2  5  2  0  0  0  0
  3  6  1  0  0  0  0
  3 12  2  0  0  0  0
  4  7  2  0  0  0  0
  4 13  1  0  0  0  0
  5 10  1  0  0  0  0
  6  9  2  0  0  0  0
  7 11  1  0  0  0  0
  8  9  1  0  0  0  0
  8 14  1  0  0  0  0
  8 15  2  0  0  0  0
 10 11  2  0  0  0  0
 14 16  1  0  0  0  0
 16 17  1  0  0  0  0
 16 18  1  0  0  0  0
M  END
> <PUBCHEM_COMPOUND_ID_TYPE>
0

> <PUBCHEM_TOTAL_CHARGE>
0

> <PUBCHEM_SUBSTANCE_ID>
310941811

> <PUBCHEM_SUBSTANCE_VERSION>
1

> <PUBCHEM_EXT_DATASOURCE_NAME>
4488

> <PUBCHEM_EXT_DATASOURCE_REGID>
SCHEMBL16119843

> <PUBCHEM_SUBSTANCE_COMMENT>
InChI=1S/C18H25N/c1-14(2)12-17(13-19-5)11-10-16(4)18-9-7-6-8-15(18)3/h6-11,13-14,19H,4,12H2,1-3,5H3/b11-10-,17-13+
InChIKey=BIBAPQDUJYMJTI-QVVPLNIUSA-N

> <PUBCHEM_SUBSTANCE_SYNONYM>
SCHEMBL16119843

> <PUBCHEM_XREF_EXT_ID>
SCHEMBL16119843

> <PUBCHEM_EXT_DATASOURCE_URL>
https://www.surechembl.org/

> <PUBCHEM_EXT_SUBSTANCE_URL>
https://www.surechembl.org/chemical/SCHEMBL16119843

> <PUBCHEM_CID_ASSOCIATIONS>
117608558  1

> <PUBCHEM_COORDINATE_TYPE>
1
3

$$$$
