310946023
  -OEChem-07211613022D

 39 42  0     1  0  0  0  0  0999 V2000
    4.7851    0.9821    0.0000 O   0  0  0  0  0  0  0  0  0  0  0  0
    3.6566   -0.9821    0.0000 O   0  0  0  0  0  0  0  0  0  0  0  0
    1.2607    0.9682    0.0000 O   0  0  0  0  0  0  0  0  0  0  0  0
   -0.8985   -1.1074    0.0000 O   0  0  0  0  0  0  0  0  0  0  0  0
   -3.0716    0.9682    0.0000 O   0  0  0  0  0  0  0  0  0  0  0  0
    3.4337   -2.7791    0.0000 O   0  0  0  0  0  0  0  0  0  0  0  0
    1.9990   -0.2716    0.0000 N   0  0  0  0  0  0  0  0  0  0  0  0
   -0.1741    0.1463    0.0000 N   0  0  0  0  0  0  0  0  0  0  0  0
   -2.3472   -0.2716    0.0000 N   0  0  0  0  0  0  0  0  0  0  0  0
    4.3671    0.2994    0.0000 C   0  0  3  0  0  0  0  0  0  0  0  0
    3.6427   -0.1184    0.0000 C   0  0  0  0  0  0  0  0  0  0  0  0
    3.9771    0.9960    0.0000 C   0  0  0  0  0  0  0  0  0  0  0  0
    2.9323    0.2855    0.0000 C   0  0  3  0  0  0  0  0  0  0  0  0
    5.0915   -0.1184    0.0000 C   0  0  0  0  0  0  0  0  0  0  0  0
    2.9323    1.3721    0.0000 C   0  0  0  0  0  0  0  0  0  0  0  0
    1.2607    0.1463    0.0000 C   0  0  0  0  0  0  0  0  0  0  0  0
    0.5642   -0.2437    0.0000 C   0  0  3  0  0  0  0  0  0  0  0  0
    2.1940    1.8040    0.0000 C   0  0  0  0  0  0  0  0  0  0  0  0
    0.5364   -1.0935    0.0000 C   0  0  0  0  0  0  0  0  0  0  0  0
   -0.8846   -0.2298    0.0000 C   0  0  0  0  0  0  0  0  0  0  0  0
    1.2885   -1.4974    0.0000 C   0  0  0  0  0  0  0  0  0  0  0  0
    1.4696    1.4557    0.0000 C   0  0  0  0  0  0  0  0  0  0  0  0
    2.1243    2.6118    0.0000 C   0  0  0  0  0  0  0  0  0  0  0  0
   -1.6229    0.1602    0.0000 C   0  0  3  0  0  0  0  0  0  0  0  0
   -3.0716    0.1463    0.0000 C   0  0  0  0  0  0  0  0  0  0  0  0
    0.9124    2.0547    0.0000 C   0  0  0  0  0  0  0  0  0  0  0  0
    1.3164    2.7791    0.0000 C   0  0  0  0  0  0  0  0  0  0  0  0
    1.2885   -2.3333    0.0000 C   0  0  0  0  0  0  0  0  0  0  0  0
    1.9850   -1.0935    0.0000 C   0  0  0  0  0  0  0  0  0  0  0  0
   -3.7821   -0.2437    0.0000 C   0  0  0  0  0  0  0  0  0  0  0  0
    2.7234   -2.3194    0.0000 C   0  0  0  0  0  0  0  0  0  0  0  0
    1.9990   -2.7373    0.0000 C   0  0  0  0  0  0  0  0  0  0  0  0
    2.7234   -1.5114    0.0000 C   0  0  0  0  0  0  0  0  0  0  0  0
   -3.8796   -1.0657    0.0000 C   0  0  0  0  0  0  0  0  0  0  0  0
   -4.5482    0.0627    0.0000 C   0  0  0  0  0  0  0  0  0  0  0  0
   -1.6229    0.9821    0.0000 C   0  0  0  0  0  0  0  0  0  0  0  0
   -4.6874   -1.2328    0.0000 C   0  0  0  0  0  0  0  0  0  0  0  0
   -5.0915   -0.5223    0.0000 C   0  0  0  0  0  0  0  0  0  0  0  0
    4.1860   -2.3472    0.0000 C   0  0  0  0  0  0  0  0  0  0  0  0
  1 10  1  0  0  0  0
  1 12  1  0  0  0  0
  2 11  2  0  0  0  0
  3 16  2  0  0  0  0
  4 20  2  0  0  0  0
  5 25  2  0  0  0  0
  6 31  1  0  0  0  0
  6 39  1  0  0  0  0
 13  7  1  1  0  0  0
  7 16  1  0  0  0  0
 17  8  1  6  0  0  0
  8 20  1  0  0  0  0
  9 24  1  0  0  0  0
  9 25  1  0  0  0  0
 10 11  1  1  0  0  0
 10 12  1  0  0  0  0
 10 14  1  6  0  0  0
 11 13  1  0  0  0  0
 13 15  1  0  0  0  0
 15 18  1  0  0  0  0
 16 17  1  0  0  0  0
 17 19  1  0  0  0  0
 18 22  1  0  0  0  0
 18 23  1  0  0  0  0
 19 21  1  0  0  0  0
 20 24  1  0  0  0  0
 21 28  2  0  0  0  0
 21 29  1  0  0  0  0
 22 26  1  0  0  0  0
 23 27  1  0  0  0  0
 24 36  1  6  0  0  0
 25 30  1  0  0  0  0
 26 27  1  0  0  0  0
 28 32  1  0  0  0  0
 29 33  2  0  0  0  0
 30 34  2  0  0  0  0
 30 35  1  0  0  0  0
 31 32  2  0  0  0  0
 31 33  1  0  0  0  0
 34 37  1  0  0  0  0
 35 38  1  0  0  0  0
 37 38  1  0  0  0  0
M  END
> <PUBCHEM_COMPOUND_ID_TYPE>
0

> <PUBCHEM_TOTAL_CHARGE>
0

> <PUBCHEM_SUBSTANCE_ID>
310946023

> <PUBCHEM_SUBSTANCE_VERSION>
1

> <PUBCHEM_EXT_DATASOURCE_NAME>
4488

> <PUBCHEM_EXT_DATASOURCE_REGID>
SCHEMBL16124129

> <PUBCHEM_SUBSTANCE_COMMENT>
InChI=1S/C30H41N3O6/c1-19(31-28(36)22-10-6-7-11-22)27(35)33-25(17-21-12-14-23(38-3)15-13-21)29(37)32-24(16-20-8-4-5-9-20)26(34)30(2)18-39-30/h10,12-15,19-20,24-25H,4-9,11,16-18H2,1-3H3,(H,31,36)(H,32,37)(H,33,35)/t19-,24+,25+,30-/m1/s1
InChIKey=DXVNEUGQQFAXJN-LTNBHBMDSA-N

> <PUBCHEM_SUBSTANCE_SYNONYM>
SCHEMBL16124129

> <PUBCHEM_XREF_EXT_ID>
SCHEMBL16124129

> <PUBCHEM_EXT_DATASOURCE_URL>
https://www.surechembl.org/

> <PUBCHEM_EXT_SUBSTANCE_URL>
https://www.surechembl.org/chemical/SCHEMBL16124129

> <PUBCHEM_CID_ASSOCIATIONS>
117611994  1

> <PUBCHEM_COORDINATE_TYPE>
1
3

> <PUBCHEM_BONDANNOTATIONS>
10  11  5
10  14  6
24  36  6
13  7  5
17  8  6

$$$$
