310941768
  -OEChem-07211613022D

 38 41  0     0  0  0  0  0  0999 V2000
   -1.6253    1.2871    0.0000 S   0  0  0  0  0  0  0  0  0  0  0  0
   -1.3778   -1.2706    0.0000 F   0  0  0  0  0  0  0  0  0  0  0  0
   -1.3778   -2.0956    0.0000 F   0  0  0  0  0  0  0  0  0  0  0  0
   -0.6518   -2.5246    0.0000 F   0  0  0  0  0  0  0  0  0  0  0  0
    0.0412   -1.2540    0.0000 O   0  0  0  0  0  0  0  0  0  0  0  0
    0.7673    2.4916    0.0000 O   0  0  0  0  0  0  0  0  0  0  0  0
    2.2028    0.8250    0.0000 O   0  0  0  0  0  0  0  0  0  0  0  0
   -0.6848    2.4751    0.0000 N   0  0  0  0  0  0  0  0  0  0  0  0
    1.4933   -0.4455    0.0000 N   0  0  0  0  0  0  0  0  0  0  0  0
   -2.7639    1.9966    0.0000 N   0  0  0  0  0  0  0  0  0  0  0  0
   -2.1203    2.5246    0.0000 N   0  0  0  0  0  0  0  0  0  0  0  0
    3.6549   -0.0165    0.0000 N   0  0  0  0  0  0  0  0  0  0  0  0
    5.1069    0.8085    0.0000 N   0  0  0  0  0  0  0  0  0  0  0  0
   -5.8165   -0.1650    0.0000 N   0  0  0  0  0  0  0  0  0  0  0  0
    0.7508    0.0000    0.0000 C   0  0  0  0  0  0  0  0  0  0  0  0
    0.0412    1.2540    0.0000 C   0  0  0  0  0  0  0  0  0  0  0  0
    0.0577   -0.4125    0.0000 C   0  0  0  0  0  0  0  0  0  0  0  0
    0.0412    2.0791    0.0000 C   0  0  0  0  0  0  0  0  0  0  0  0
    0.7508    0.8250    0.0000 C   0  0  0  0  0  0  0  0  0  0  0  0
   -2.4503    1.2540    0.0000 C   0  0  0  0  0  0  0  0  0  0  0  0
   -1.4273    2.1121    0.0000 C   0  0  0  0  0  0  0  0  0  0  0  0
   -2.9124    0.5280    0.0000 C   0  0  0  0  0  0  0  0  0  0  0  0
   -0.6683    0.8416    0.0000 C   0  0  0  0  0  0  0  0  0  0  0  0
   -0.6518   -0.0165    0.0000 C   0  0  0  0  0  0  0  0  0  0  0  0
   -0.6848   -1.6501    0.0000 C   0  0  0  0  0  0  0  0  0  0  0  0
    2.1864   -0.0165    0.0000 C   0  0  0  0  0  0  0  0  0  0  0  0
   -3.7209    0.5115    0.0000 C   0  0  0  0  0  0  0  0  0  0  0  0
   -2.5163   -0.1815    0.0000 C   0  0  0  0  0  0  0  0  0  0  0  0
   -4.1664   -0.1485    0.0000 C   0  0  0  0  0  0  0  0  0  0  0  0
    2.9124   -0.4125    0.0000 C   0  0  0  0  0  0  0  0  0  0  0  0
   -2.9289   -0.8745    0.0000 C   0  0  0  0  0  0  0  0  0  0  0  0
   -3.7539   -0.8745    0.0000 C   0  0  0  0  0  0  0  0  0  0  0  0
   -4.9584   -0.1485    0.0000 C   0  0  0  0  0  0  0  0  0  0  0  0
    4.3974   -0.4125    0.0000 C   0  0  0  0  0  0  0  0  0  0  0  0
    3.6714    0.8580    0.0000 C   0  0  0  0  0  0  0  0  0  0  0  0
    5.1069    0.0000    0.0000 C   0  0  0  0  0  0  0  0  0  0  0  0
    4.3479    1.2375    0.0000 C   0  0  0  0  0  0  0  0  0  0  0  0
    5.8165    1.2375    0.0000 C   0  0  0  0  0  0  0  0  0  0  0  0
  1 20  1  0  0  0  0
  1 21  1  0  0  0  0
  2 25  1  0  0  0  0
  3 25  1  0  0  0  0
  4 25  1  0  0  0  0
  5 17  1  0  0  0  0
  5 25  1  0  0  0  0
  6 18  2  0  0  0  0
  7 26  2  0  0  0  0
  8 18  1  0  0  0  0
  8 21  1  0  0  0  0
  9 15  1  0  0  0  0
  9 26  1  0  0  0  0
 10 11  1  0  0  0  0
 10 20  2  0  0  0  0
 11 21  2  0  0  0  0
 12 30  1  0  0  0  0
 12 34  1  0  0  0  0
 12 35  1  0  0  0  0
 13 36  1  0  0  0  0
 13 37  1  0  0  0  0
 13 38  1  0  0  0  0
 14 33  3  0  0  0  0
 15 17  1  0  0  0  0
 15 19  2  0  0  0  0
 16 18  1  0  0  0  0
 16 19  1  0  0  0  0
 16 23  2  0  0  0  0
 17 24  2  0  0  0  0
 20 22  1  0  0  0  0
 22 27  1  0  0  0  0
 22 28  2  0  0  0  0
 23 24  1  0  0  0  0
 26 30  1  0  0  0  0
 27 29  2  0  0  0  0
 28 31  1  0  0  0  0
 29 32  1  0  0  0  0
 29 33  1  0  0  0  0
 31 32  2  0  0  0  0
 34 36  1  0  0  0  0
 35 37  1  0  0  0  0
M  END
> <PUBCHEM_COMPOUND_ID_TYPE>
0

> <PUBCHEM_TOTAL_CHARGE>
0

> <PUBCHEM_SUBSTANCE_ID>
310941768

> <PUBCHEM_SUBSTANCE_VERSION>
1

> <PUBCHEM_EXT_DATASOURCE_NAME>
4488

> <PUBCHEM_EXT_DATASOURCE_REGID>
SCHEMBL16119799

> <PUBCHEM_SUBSTANCE_COMMENT>
InChI=1S/C24H22F3N7O3S/c1-33-7-9-34(10-8-33)14-20(35)29-18-12-16(5-6-19(18)37-24(25,26)27)21(36)30-23-32-31-22(38-23)17-4-2-3-15(11-17)13-28/h2-6,11-12H,7-10,14H2,1H3,(H,29,35)(H,30,32,36)
InChIKey=PTZVQYLAEACEBD-UHFFFAOYSA-N

> <PUBCHEM_SUBSTANCE_SYNONYM>
SCHEMBL16119799

> <PUBCHEM_XREF_EXT_ID>
SCHEMBL16119799

> <PUBCHEM_EXT_DATASOURCE_URL>
https://www.surechembl.org/

> <PUBCHEM_EXT_SUBSTANCE_URL>
https://www.surechembl.org/chemical/SCHEMBL16119799

> <PUBCHEM_CID_ASSOCIATIONS>
117608523  1

> <PUBCHEM_COORDINATE_TYPE>
1
3

$$$$
