310937737
  -OEChem-07211613022D

 28 31  0     1  0  0  0  0  0999 V2000
   -2.2297    2.0580    0.0000 O   0  0  0  0  0  0  0  0  0  0  0  0
    0.7145    2.0625    0.0000 O   0  0  0  0  0  0  0  0  0  0  0  0
    1.7411    2.5196    0.0000 O   0  0  0  0  0  0  0  0  0  0  0  0
    3.1388    2.2225    0.0000 O   0  0  0  0  0  0  0  0  0  0  0  0
    2.1826    1.1606    0.0000 N   0  0  0  0  0  0  0  0  0  0  0  0
   -1.4290    0.0000    0.0000 N   0  0  0  0  0  0  0  0  0  0  0  0
   -2.8972    0.9020    0.0000 N   0  0  0  0  0  0  0  0  0  0  0  0
   -3.0367    2.2296    0.0000 N   0  0  0  0  0  0  0  0  0  0  0  0
    0.0000    0.8250    0.0000 C   0  0  0  0  0  0  0  0  0  0  0  0
    0.0000    0.0000    0.0000 C   0  0  0  0  0  0  0  0  0  0  0  0
    0.7145    1.2375    0.0000 C   0  0  0  0  0  0  0  0  0  0  0  0
   -1.4290    0.8250    0.0000 C   0  0  0  0  0  0  0  0  0  0  0  0
    0.7145   -0.4125    0.0000 C   0  0  0  0  0  0  0  0  0  0  0  0
    1.4290    0.8250    0.0000 C   0  0  3  0  0  0  0  0  0  0  0  0
   -2.1435    1.2375    0.0000 C   0  0  0  0  0  0  0  0  0  0  0  0
   -0.7145    1.2375    0.0000 C   0  0  0  0  0  0  0  0  0  0  0  0
   -0.7145   -0.4125    0.0000 C   0  0  0  0  0  0  0  0  0  0  0  0
   -3.4492    1.5151    0.0000 C   0  0  0  0  0  0  0  0  0  0  0  0
    1.5395   -0.4125    0.0000 C   0  0  0  0  0  0  0  0  0  0  0  0
    1.1270   -1.1270    0.0000 C   0  0  0  0  0  0  0  0  0  0  0  0
   -4.2697    1.4288    0.0000 C   0  0  0  0  0  0  0  0  0  0  0  0
    1.5152    0.0045    0.0000 C   0  0  0  0  0  0  0  0  0  0  0  0
    2.7347    0.5475    0.0000 C   0  0  0  0  0  0  0  0  0  0  0  0
    2.3542    1.9676    0.0000 C   0  0  0  0  0  0  0  0  0  0  0  0
    2.3222   -0.1670    0.0000 C   0  0  0  0  0  0  0  0  0  0  0  0
   -4.6053    0.6752    0.0000 C   0  0  0  0  0  0  0  0  0  0  0  0
   -5.0902    1.3426    0.0000 C   0  0  0  0  0  0  0  0  0  0  0  0
   -4.7546    2.0963    0.0000 C   0  0  0  0  0  0  0  0  0  0  0  0
  1  8  1  0  0  0  0
  1 15  1  0  0  0  0
  2 11  2  0  0  0  0
  3 24  2  0  0  0  0
  4 24  1  0  0  0  0
  5 14  1  0  0  0  0
  5 23  1  0  0  0  0
  5 24  1  0  0  0  0
  6 12  2  0  0  0  0
  6 17  1  0  0  0  0
  7 15  2  0  0  0  0
  7 18  1  0  0  0  0
  8 18  2  0  0  0  0
  9 10  1  0  0  0  0
  9 11  1  0  0  0  0
  9 16  2  0  0  0  0
 10 13  1  0  0  0  0
 10 17  2  0  0  0  0
 14 11  1  1  0  0  0
 12 15  1  0  0  0  0
 12 16  1  0  0  0  0
 13 19  1  0  0  0  0
 13 20  1  0  0  0  0
 14 22  1  0  0  0  0
 18 21  1  0  0  0  0
 19 20  1  0  0  0  0
 21 26  1  0  0  0  0
 21 27  1  0  0  0  0
 21 28  1  0  0  0  0
 22 25  1  0  0  0  0
 23 25  1  0  0  0  0
M  END
> <PUBCHEM_COMPOUND_ID_TYPE>
0

> <PUBCHEM_TOTAL_CHARGE>
0

> <PUBCHEM_SUBSTANCE_ID>
310937737

> <PUBCHEM_SUBSTANCE_VERSION>
1

> <PUBCHEM_EXT_DATASOURCE_NAME>
4488

> <PUBCHEM_EXT_DATASOURCE_REGID>
SCHEMBL16115538

> <PUBCHEM_SUBSTANCE_COMMENT>
InChI=1S/C20H24N4O4/c1-20(2,3)18-22-17(28-23-18)14-9-12(13(10-21-14)11-6-7-11)16(25)15-5-4-8-24(15)19(26)27/h9-11,15H,4-8H2,1-3H3,(H,26,27)/t15-/m0/s1
InChIKey=RBNIQNIQAZGVHH-HNNXBMFYSA-N

> <PUBCHEM_SUBSTANCE_SYNONYM>
SCHEMBL16115538

> <PUBCHEM_XREF_EXT_ID>
SCHEMBL16115538

> <PUBCHEM_EXT_DATASOURCE_URL>
https://www.surechembl.org/

> <PUBCHEM_EXT_SUBSTANCE_URL>
https://www.surechembl.org/chemical/SCHEMBL16115538

> <PUBCHEM_CID_ASSOCIATIONS>
117605406  1

> <PUBCHEM_COORDINATE_TYPE>
1
3

> <PUBCHEM_BONDANNOTATIONS>
14  11  5

$$$$
