310944446
  -OEChem-07211613022D

 25 28  0     1  0  0  0  0  0999 V2000
    3.8765    1.6231    0.0000 O   0  0  0  0  0  0  0  0  0  0  0  0
    0.3940    0.2048    0.0000 N   0  0  0  0  0  0  0  0  0  0  0  0
   -2.5685    0.1733    0.0000 N   0  0  0  0  0  0  0  0  0  0  0  0
   -2.8995    0.9297    0.0000 N   0  0  0  0  0  0  0  0  0  0  0  0
    1.1819   -0.1418    0.0000 C   0  0  3  0  0  0  0  0  0  0  0  0
    0.4885    1.0873    0.0000 C   0  0  3  0  0  0  0  0  0  0  0  0
   -3.1674   -0.3940    0.0000 C   0  0  0  0  0  0  0  0  0  0  0  0
   -3.9080    0.0315    0.0000 C   0  0  0  0  0  0  0  0  0  0  0  0
    1.8437    1.0401    0.0000 C   0  0  0  0  0  0  0  0  0  0  0  0
   -0.5200   -0.4098    0.0000 C   0  0  0  0  0  0  0  0  0  0  0  0
    1.1188    1.4340    0.0000 C   0  0  0  0  0  0  0  0  0  0  0  0
    1.8280    0.2048    0.0000 C   0  0  0  0  0  0  0  0  0  0  0  0
    1.6073    0.4412    0.0000 C   0  0  0  0  0  0  0  0  0  0  0  0
    1.1977    1.1661    0.0000 C   0  0  0  0  0  0  0  0  0  0  0  0
   -1.2607   -0.0157    0.0000 C   0  0  3  0  0  0  0  0  0  0  0  0
   -1.9540   -0.4098    0.0000 C   0  0  0  0  0  0  0  0  0  0  0  0
   -3.7190    0.8352    0.0000 C   0  0  0  0  0  0  0  0  0  0  0  0
   -3.1831   -1.2134    0.0000 C   0  0  0  0  0  0  0  0  0  0  0  0
   -4.6171   -0.3940    0.0000 C   0  0  0  0  0  0  0  0  0  0  0  0
    2.4267    1.6231    0.0000 C   0  0  0  0  0  0  0  0  0  0  0  0
   -3.8923   -1.6231    0.0000 C   0  0  0  0  0  0  0  0  0  0  0  0
   -4.6014   -1.2292    0.0000 C   0  0  0  0  0  0  0  0  0  0  0  0
   -1.2921    0.8982    0.0000 C   0  0  0  0  0  0  0  0  0  0  0  0
    3.1831    1.2292    0.0000 C   0  0  0  0  0  0  0  0  0  0  0  0
    4.6171    1.1977    0.0000 C   0  0  0  0  0  0  0  0  0  0  0  0
  1 24  1  0  0  0  0
  1 25  1  0  0  0  0
  5  2  1  6  0  0  0
  6  2  1  6  0  0  0
  2 10  1  0  0  0  0
  3  4  1  0  0  0  0
  3  7  1  0  0  0  0
  3 16  1  0  0  0  0
  4 17  2  0  0  0  0
  5 12  1  0  0  0  0
  5 13  1  0  0  0  0
  6 11  1  0  0  0  0
  6 14  1  0  0  0  0
  7  8  2  0  0  0  0
  7 18  1  0  0  0  0
  8 17  1  0  0  0  0
  8 19  1  0  0  0  0
  9 11  1  0  0  0  0
  9 12  1  0  0  0  0
  9 20  2  0  0  0  0
 10 15  1  0  0  0  0
 13 14  1  0  0  0  0
 15 16  1  0  0  0  0
 15 23  1  6  0  0  0
 18 21  2  0  0  0  0
 19 22  2  0  0  0  0
 20 24  1  0  0  0  0
 21 22  1  0  0  0  0
M  END
> <PUBCHEM_COMPOUND_ID_TYPE>
0

> <PUBCHEM_TOTAL_CHARGE>
0

> <PUBCHEM_SUBSTANCE_ID>
310944446

> <PUBCHEM_SUBSTANCE_VERSION>
1

> <PUBCHEM_EXT_DATASOURCE_NAME>
4488

> <PUBCHEM_EXT_DATASOURCE_REGID>
SCHEMBL16122521

> <PUBCHEM_SUBSTANCE_COMMENT>
InChI=1S/C21H29N3O/c1-16(15-24-21-6-4-3-5-18(21)13-22-24)14-23-19-7-8-20(23)12-17(11-19)9-10-25-2/h3-6,9,13,16,19-20H,7-8,10-12,14-15H2,1-2H3/b17-9-/t16-,19+,20-/m1/s1
InChIKey=QHOHEECPFBHOPV-QKRYFSISSA-N

> <PUBCHEM_SUBSTANCE_SYNONYM>
SCHEMBL16122521

> <PUBCHEM_XREF_EXT_ID>
SCHEMBL16122521

> <PUBCHEM_EXT_DATASOURCE_URL>
https://www.surechembl.org/

> <PUBCHEM_EXT_SUBSTANCE_URL>
https://www.surechembl.org/chemical/SCHEMBL16122521

> <PUBCHEM_CID_ASSOCIATIONS>
117610700  1

> <PUBCHEM_COORDINATE_TYPE>
1
3

> <PUBCHEM_BONDANNOTATIONS>
15  23  6
5  2  6
6  2  6

$$$$
