310949932
  -OEChem-07211613022D

 28 32  0     1  0  0  0  0  0999 V2000
   -0.7347    1.4830    0.0000 N   0  0  0  0  0  0  0  0  0  0  0  0
   -0.7347    2.8426    0.0000 N   0  0  0  0  0  0  0  0  0  0  0  0
    0.0344   -0.8926    0.0000 N   0  0  0  0  0  0  0  0  0  0  0  0
    1.8469    1.7439    0.0000 N   0  0  0  0  0  0  0  0  0  0  0  0
   -0.2540    2.1696    0.0000 C   0  0  0  0  0  0  0  0  0  0  0  0
   -1.5311    1.7577    0.0000 C   0  0  0  0  0  0  0  0  0  0  0  0
   -1.5174    2.5817    0.0000 C   0  0  0  0  0  0  0  0  0  0  0  0
   -0.4874    0.7140    0.0000 C   0  0  0  0  0  0  0  0  0  0  0  0
    0.5835    2.1559    0.0000 C   0  0  3  0  0  0  0  0  0  0  0  0
   -2.2315    1.3320    0.0000 C   0  0  0  0  0  0  0  0  0  0  0  0
   -2.2315    2.9936    0.0000 C   0  0  0  0  0  0  0  0  0  0  0  0
   -1.0368    0.0686    0.0000 C   0  0  0  0  0  0  0  0  0  0  0  0
    0.3364    0.5218    0.0000 C   0  0  0  0  0  0  0  0  0  0  0  0
    1.0643    1.4968    0.0000 C   0  0  0  0  0  0  0  0  0  0  0  0
    1.0643    2.8426    0.0000 C   0  0  0  0  0  0  0  0  0  0  0  0
   -2.9456    1.7577    0.0000 C   0  0  0  0  0  0  0  0  0  0  0  0
   -2.9456    2.5817    0.0000 C   0  0  0  0  0  0  0  0  0  0  0  0
   -0.7759   -0.7140    0.0000 C   0  0  0  0  0  0  0  0  0  0  0  0
    0.5835   -0.2609    0.0000 C   0  0  0  0  0  0  0  0  0  0  0  0
    1.8469    2.5817    0.0000 C   0  0  0  0  0  0  0  0  0  0  0  0
    0.2952   -1.6753    0.0000 C   0  0  0  0  0  0  0  0  0  0  0  0
    1.0918   -1.8538    0.0000 C   0  0  0  0  0  0  0  0  0  0  0  0
    1.3114   -2.6641    0.0000 C   0  0  0  0  0  0  0  0  0  0  0  0
    1.5860   -1.1535    0.0000 C   0  0  0  0  0  0  0  0  0  0  0  0
    2.4100   -1.1535    0.0000 C   0  0  0  0  0  0  0  0  0  0  0  0
    2.0803   -2.9936    0.0000 C   0  0  0  0  0  0  0  0  0  0  0  0
    2.9456   -1.7714    0.0000 C   0  0  0  0  0  0  0  0  0  0  0  0
    2.7945   -2.5954    0.0000 C   0  0  0  0  0  0  0  0  0  0  0  0
  1  5  1  0  0  0  0
  1  6  1  0  0  0  0
  1  8  1  0  0  0  0
  2  5  2  0  0  0  0
  2  7  1  0  0  0  0
  3 18  1  0  0  0  0
  3 19  1  0  0  0  0
  3 21  1  0  0  0  0
  4 14  1  0  0  0  0
  4 20  1  0  0  0  0
  9  5  1  1  0  0  0
  6  7  1  0  0  0  0
  6 10  2  0  0  0  0
  7 11  2  0  0  0  0
  8 12  1  0  0  0  0
  8 13  1  0  0  0  0
  9 14  1  0  0  0  0
  9 15  1  0  0  0  0
 10 16  1  0  0  0  0
 11 17  1  0  0  0  0
 12 18  1  0  0  0  0
 13 19  1  0  0  0  0
 15 20  1  0  0  0  0
 16 17  2  0  0  0  0
 21 22  1  0  0  0  0
 22 23  1  0  0  0  0
 22 24  1  0  0  0  0
 23 26  1  0  0  0  0
 24 25  1  0  0  0  0
 25 27  1  0  0  0  0
 26 28  1  0  0  0  0
 27 28  1  0  0  0  0
M  END
> <PUBCHEM_COMPOUND_ID_TYPE>
0

> <PUBCHEM_TOTAL_CHARGE>
0

> <PUBCHEM_SUBSTANCE_ID>
310949932

> <PUBCHEM_SUBSTANCE_VERSION>
1

> <PUBCHEM_EXT_DATASOURCE_NAME>
4488

> <PUBCHEM_EXT_DATASOURCE_REGID>
SCHEMBL16128159

> <PUBCHEM_SUBSTANCE_COMMENT>
InChI=1S/C24H36N4/c1-2-4-8-19(7-3-1)18-27-15-12-21(13-16-27)28-23-10-6-5-9-22(23)26-24(28)20-11-14-25-17-20/h5-6,9-10,19-21,25H,1-4,7-8,11-18H2/t20-/m0/s1
InChIKey=LLYFYCOUPFGHHU-FQEVSTJZSA-N

> <PUBCHEM_SUBSTANCE_SYNONYM>
SCHEMBL16128159

> <PUBCHEM_XREF_EXT_ID>
SCHEMBL16128159

> <PUBCHEM_EXT_DATASOURCE_URL>
https://www.surechembl.org/

> <PUBCHEM_EXT_SUBSTANCE_URL>
https://www.surechembl.org/chemical/SCHEMBL16128159

> <PUBCHEM_CID_ASSOCIATIONS>
86272139  1

> <PUBCHEM_COORDINATE_TYPE>
1
3

> <PUBCHEM_BONDANNOTATIONS>
9  5  5

$$$$
