310948989
  -OEChem-07211613022D

 21 22  0     0  0  0  0  0  0999 V2000
   -3.2963   -1.5690    0.0000 Br  0  0  0  0  0  0  0  0  0  0  0  0
    1.8099    1.4865    0.0000 Cl  0  0  0  0  0  0  0  0  0  0  0  0
   -1.6172   -2.2710    0.0000 S   0  0  0  0  0  0  0  0  0  0  0  0
   -1.0392    1.4039    0.0000 F   0  0  0  0  0  0  0  0  0  0  0  0
    2.5669    0.2890    0.0000 O   0  0  0  0  0  0  0  0  0  0  0  0
    1.8925   -0.9634    0.0000 O   0  0  0  0  0  0  0  0  0  0  0  0
    0.4335   -0.1927    0.0000 N   0  0  0  0  0  0  0  0  0  0  0  0
    0.3648    2.2710    0.0000 N   0  0  0  0  0  0  0  0  0  0  0  0
   -0.3096    0.1651    0.0000 C   0  0  0  0  0  0  0  0  0  0  0  0
   -0.3234    0.9910    0.0000 C   0  0  0  0  0  0  0  0  0  0  0  0
    1.1217    0.2065    0.0000 C   0  0  0  0  0  0  0  0  0  0  0  0
    0.3785    1.4314    0.0000 C   0  0  0  0  0  0  0  0  0  0  0  0
    1.1079    1.0460    0.0000 C   0  0  0  0  0  0  0  0  0  0  0  0
   -0.9840   -0.2615    0.0000 C   0  0  0  0  0  0  0  0  0  0  0  0
    1.8511   -0.1651    0.0000 C   0  0  0  0  0  0  0  0  0  0  0  0
   -0.9703   -1.0873    0.0000 C   0  0  0  0  0  0  0  0  0  0  0  0
   -1.7273    0.0963    0.0000 C   0  0  0  0  0  0  0  0  0  0  0  0
   -1.6585   -1.5415    0.0000 C   0  0  0  0  0  0  0  0  0  0  0  0
   -2.4017   -1.1286    0.0000 C   0  0  0  0  0  0  0  0  0  0  0  0
   -2.4155   -0.3304    0.0000 C   0  0  0  0  0  0  0  0  0  0  0  0
    3.2963   -0.1101    0.0000 C   0  0  0  0  0  0  0  0  0  0  0  0
  1 19  1  0  0  0  0
  2 13  1  0  0  0  0
  3 18  1  0  0  0  0
  4 10  1  0  0  0  0
  5 15  1  0  0  0  0
  5 21  1  0  0  0  0
  6 15  2  0  0  0  0
  7  9  2  0  0  0  0
  7 11  1  0  0  0  0
  8 12  1  0  0  0  0
  9 10  1  0  0  0  0
  9 14  1  0  0  0  0
 10 12  2  0  0  0  0
 11 13  2  0  0  0  0
 11 15  1  0  0  0  0
 12 13  1  0  0  0  0
 14 16  1  0  0  0  0
 14 17  2  0  0  0  0
 16 18  2  0  0  0  0
 17 20  1  0  0  0  0
 18 19  1  0  0  0  0
 19 20  2  0  0  0  0
M  END
> <PUBCHEM_COMPOUND_ID_TYPE>
0

> <PUBCHEM_TOTAL_CHARGE>
0

> <PUBCHEM_SUBSTANCE_ID>
310948989

> <PUBCHEM_SUBSTANCE_VERSION>
1

> <PUBCHEM_EXT_DATASOURCE_NAME>
4488

> <PUBCHEM_EXT_DATASOURCE_REGID>
SCHEMBL16127177

> <PUBCHEM_SUBSTANCE_COMMENT>
InChI=1S/C13H9BrClFN2O2S/c1-20-13(19)12-8(15)10(17)9(16)11(18-12)5-2-3-6(14)7(21)4-5/h2-4,21H,1H3,(H2,17,18)
InChIKey=GJWLOJFLRJBKOZ-UHFFFAOYSA-N

> <PUBCHEM_SUBSTANCE_SYNONYM>
SCHEMBL16127177

> <PUBCHEM_XREF_EXT_ID>
SCHEMBL16127177

> <PUBCHEM_EXT_DATASOURCE_URL>
https://www.surechembl.org/

> <PUBCHEM_EXT_SUBSTANCE_URL>
https://www.surechembl.org/chemical/SCHEMBL16127177

> <PUBCHEM_CID_ASSOCIATIONS>
117614498  1

> <PUBCHEM_COORDINATE_TYPE>
1
3

$$$$
