310936224
  -OEChem-07211613022D

 35 38  0     0  0  0  0  0  0999 V2000
    2.8657    0.0000    0.0000 F   0  0  0  0  0  0  0  0  0  0  0  0
    5.5143   -8.6840    0.0000 F   0  0  0  0  0  0  0  0  0  0  0  0
    0.6947   -1.2592    0.0000 F   0  0  0  0  0  0  0  0  0  0  0  0
    0.0000   -2.5183    0.0000 F   0  0  0  0  0  0  0  0  0  0  0  0
    3.0394   -5.7314    0.0000 O   0  0  0  0  0  0  0  0  0  0  0  0
    5.5577   -5.5143    0.0000 O   0  0  0  0  0  0  0  0  0  0  0  0
    4.2986    0.0000    0.0000 O   0  0  0  0  0  0  0  0  0  0  0  0
    5.0367   -1.2592    0.0000 O   0  0  0  0  0  0  0  0  0  0  0  0
    2.1276   -4.5156    0.0000 N   0  0  0  0  0  0  0  0  0  0  0  0
    1.4329   -3.2999    0.0000 N   0  0  0  0  0  0  0  0  0  0  0  0
    5.2538   -4.1249    0.0000 N   0  0  0  0  0  0  0  0  0  0  0  0
    3.6039   -4.5156    0.0000 C   0  0  0  0  0  0  0  0  0  0  0  0
    4.1683   -5.0801    0.0000 C   0  0  0  0  0  0  0  0  0  0  0  0
    2.8657   -4.9499    0.0000 C   0  0  0  0  0  0  0  0  0  0  0  0
    3.8644   -5.8617    0.0000 C   0  0  0  0  0  0  0  0  0  0  0  0
    2.8657   -3.2999    0.0000 C   0  0  0  0  0  0  0  0  0  0  0  0
    3.5604   -3.6907    0.0000 C   0  0  0  0  0  0  0  0  0  0  0  0
    2.1276   -3.7341    0.0000 C   0  0  0  0  0  0  0  0  0  0  0  0
    4.2986   -6.5564    0.0000 C   0  0  0  0  0  0  0  0  0  0  0  0
    4.9933   -4.9065    0.0000 C   0  0  0  0  0  0  0  0  0  0  0  0
    2.8657   -2.4749    0.0000 C   0  0  0  0  0  0  0  0  0  0  0  0
    3.6039   -2.0407    0.0000 C   0  0  0  0  0  0  0  0  0  0  0  0
    2.1710   -2.0407    0.0000 C   0  0  0  0  0  0  0  0  0  0  0  0
    5.1236   -6.5564    0.0000 C   0  0  0  0  0  0  0  0  0  0  0  0
    3.8644   -7.2511    0.0000 C   0  0  0  0  0  0  0  0  0  0  0  0
    3.6039   -1.2592    0.0000 C   0  0  0  0  0  0  0  0  0  0  0  0
    2.8657   -0.8250    0.0000 C   0  0  0  0  0  0  0  0  0  0  0  0
    2.1710   -1.2592    0.0000 C   0  0  0  0  0  0  0  0  0  0  0  0
    5.5143   -7.2511    0.0000 C   0  0  0  0  0  0  0  0  0  0  0  0
    4.2986   -7.9893    0.0000 C   0  0  0  0  0  0  0  0  0  0  0  0
    4.2986   -0.8250    0.0000 C   0  0  0  0  0  0  0  0  0  0  0  0
    5.1236   -7.9893    0.0000 C   0  0  0  0  0  0  0  0  0  0  0  0
    1.4329   -2.5183    0.0000 C   0  0  0  0  0  0  0  0  0  0  0  0
    6.0354   -3.9512    0.0000 C   0  0  0  0  0  0  0  0  0  0  0  0
    0.6947   -2.0842    0.0000 C   0  0  0  0  0  0  0  0  0  0  0  0
  1 27  1  0  0  0  0
  2 32  1  0  0  0  0
  3 35  1  0  0  0  0
  4 35  1  0  0  0  0
  5 14  1  0  0  0  0
  5 15  1  0  0  0  0
  6 20  2  0  0  0  0
  7 31  2  0  0  0  0
  8 31  1  0  0  0  0
  9 14  1  0  0  0  0
  9 18  2  0  0  0  0
 10 18  1  0  0  0  0
 10 33  1  0  0  0  0
 11 20  1  0  0  0  0
 11 34  1  0  0  0  0
 12 13  1  0  0  0  0
 12 14  2  0  0  0  0
 12 17  1  0  0  0  0
 13 15  2  0  0  0  0
 13 20  1  0  0  0  0
 15 19  1  0  0  0  0
 16 17  2  0  0  0  0
 16 18  1  0  0  0  0
 16 21  1  0  0  0  0
 19 24  2  0  0  0  0
 19 25  1  0  0  0  0
 21 22  2  0  0  0  0
 21 23  1  0  0  0  0
 22 26  1  0  0  0  0
 23 28  2  0  0  0  0
 24 29  1  0  0  0  0
 25 30  2  0  0  0  0
 26 27  2  0  0  0  0
 26 31  1  0  0  0  0
 27 28  1  0  0  0  0
 29 32  2  0  0  0  0
 30 32  1  0  0  0  0
 33 35  1  0  0  0  0
M  END
> <PUBCHEM_COMPOUND_ID_TYPE>
0

> <PUBCHEM_TOTAL_CHARGE>
0

> <PUBCHEM_SUBSTANCE_ID>
310936224

> <PUBCHEM_SUBSTANCE_VERSION>
1

> <PUBCHEM_EXT_DATASOURCE_NAME>
4488

> <PUBCHEM_EXT_DATASOURCE_REGID>
SCHEMBL16113837

> <PUBCHEM_SUBSTANCE_COMMENT>
InChI=1S/C24H17F4N3O4/c1-29-22(32)19-16-9-14(12-4-7-17(26)15(8-12)24(33)34)21(30-10-18(27)28)31-23(16)35-20(19)11-2-5-13(25)6-3-11/h2-9,18H,10H2,1H3,(H,29,32)(H,30,31)(H,33,34)
InChIKey=UXJXBTIHVGXFQD-UHFFFAOYSA-N

> <PUBCHEM_SUBSTANCE_SYNONYM>
SCHEMBL16113837

> <PUBCHEM_XREF_EXT_ID>
SCHEMBL16113837

> <PUBCHEM_EXT_DATASOURCE_URL>
https://www.surechembl.org/

> <PUBCHEM_EXT_SUBSTANCE_URL>
https://www.surechembl.org/chemical/SCHEMBL16113837

> <PUBCHEM_CID_ASSOCIATIONS>
117604177  1

> <PUBCHEM_COORDINATE_TYPE>
1
3

$$$$
