310943158
  -OEChem-07211613022D

 40 44  0     0  0  0  0  0  0999 V2000
    4.6623   -0.7010    0.0000 F   0  0  0  0  0  0  0  0  0  0  0  0
    3.8472   -1.4998    0.0000 F   0  0  0  0  0  0  0  0  0  0  0  0
    3.0648   -0.6846    0.0000 F   0  0  0  0  0  0  0  0  0  0  0  0
   -3.2767    0.1467    0.0000 O   0  0  0  0  0  0  0  0  0  0  0  0
   -4.5482    2.8854    0.0000 O   0  0  0  0  0  0  0  0  0  0  0  0
    2.4290    2.6246    0.0000 O   0  0  0  0  0  0  0  0  0  0  0  0
   -3.2767   -3.1789    0.0000 O   0  0  0  0  0  0  0  0  0  0  0  0
   -3.2604    1.8421    0.0000 N   0  0  0  0  0  0  0  0  0  0  0  0
   -1.8421    0.1467    0.0000 N   0  0  0  0  0  0  0  0  0  0  0  0
    0.2935    3.0485    0.0000 N   0  0  0  0  0  0  0  0  0  0  0  0
    1.7117    1.3857    0.0000 N   0  0  0  0  0  0  0  0  0  0  0  0
   -2.5431    1.3857    0.0000 C   0  0  0  0  0  0  0  0  0  0  0  0
   -1.1249    1.4019    0.0000 C   0  0  0  0  0  0  0  0  0  0  0  0
   -0.4401    1.8095    0.0000 C   0  0  0  0  0  0  0  0  0  0  0  0
   -2.5757    0.5542    0.0000 C   0  0  0  0  0  0  0  0  0  0  0  0
   -1.8584    1.7932    0.0000 C   0  0  0  0  0  0  0  0  0  0  0  0
   -0.4076    2.6409    0.0000 C   0  0  0  0  0  0  0  0  0  0  0  0
   -1.1411    0.5542    0.0000 C   0  0  0  0  0  0  0  0  0  0  0  0
    0.2772    1.3857    0.0000 C   0  0  0  0  0  0  0  0  0  0  0  0
    0.9944    1.8095    0.0000 C   0  0  0  0  0  0  0  0  0  0  0  0
    3.1462    1.3857    0.0000 C   0  0  0  0  0  0  0  0  0  0  0  0
    2.4290    1.7932    0.0000 C   0  0  0  0  0  0  0  0  0  0  0  0
    1.0107    2.6246    0.0000 C   0  0  0  0  0  0  0  0  0  0  0  0
    3.8635    0.1467    0.0000 C   0  0  0  0  0  0  0  0  0  0  0  0
   -3.2604   -0.7010    0.0000 C   0  0  0  0  0  0  0  0  0  0  0  0
   -3.1299    2.6572    0.0000 C   0  0  0  0  0  0  0  0  0  0  0  0
   -4.0103    1.5487    0.0000 C   0  0  0  0  0  0  0  0  0  0  0  0
    3.8472   -0.6846    0.0000 C   0  0  0  0  0  0  0  0  0  0  0  0
    3.1462    0.5542    0.0000 C   0  0  0  0  0  0  0  0  0  0  0  0
    3.8472    1.7769    0.0000 C   0  0  0  0  0  0  0  0  0  0  0  0
   -1.1411    3.0321    0.0000 C   0  0  0  0  0  0  0  0  0  0  0  0
    4.5482    0.5542    0.0000 C   0  0  0  0  0  0  0  0  0  0  0  0
   -3.7820    3.1789    0.0000 C   0  0  0  0  0  0  0  0  0  0  0  0
   -4.6623    2.0703    0.0000 C   0  0  0  0  0  0  0  0  0  0  0  0
   -3.9776   -1.1085    0.0000 C   0  0  0  0  0  0  0  0  0  0  0  0
   -2.5594   -1.1085    0.0000 C   0  0  0  0  0  0  0  0  0  0  0  0
    4.5482    1.3857    0.0000 C   0  0  0  0  0  0  0  0  0  0  0  0
   -3.9613   -1.9236    0.0000 C   0  0  0  0  0  0  0  0  0  0  0  0
   -2.5594   -1.9236    0.0000 C   0  0  0  0  0  0  0  0  0  0  0  0
   -3.2440   -2.3312    0.0000 C   0  0  0  0  0  0  0  0  0  0  0  0
  1 28  1  0  0  0  0
  2 28  1  0  0  0  0
  3 28  1  0  0  0  0
  4 15  1  0  0  0  0
 25  4  1  6  0  0  0
  5 33  1  0  0  0  0
  5 34  1  0  0  0  0
  6 22  2  0  0  0  0
 40  7  1  6  0  0  0
  8 12  1  0  0  0  0
  8 26  1  0  0  0  0
  8 27  1  0  0  0  0
  9 15  1  0  0  0  0
  9 18  2  0  0  0  0
 10 17  2  0  0  0  0
 10 23  1  0  0  0  0
 11 20  1  0  0  0  0
 11 22  1  0  0  0  0
 12 15  2  0  0  0  0
 12 16  1  0  0  0  0
 13 14  1  0  0  0  0
 13 16  2  0  0  0  0
 13 18  1  0  0  0  0
 14 17  1  0  0  0  0
 14 19  2  0  0  0  0
 17 31  1  0  0  0  0
 19 20  1  0  0  0  0
 20 23  2  0  0  0  0
 21 22  1  0  0  0  0
 21 29  2  0  0  0  0
 21 30  1  0  0  0  0
 24 28  1  0  0  0  0
 24 29  1  0  0  0  0
 24 32  2  0  0  0  0
 25 35  1  0  0  0  0
 25 36  1  0  0  0  0
 26 33  1  0  0  0  0
 27 34  1  0  0  0  0
 30 37  2  0  0  0  0
 32 37  1  0  0  0  0
 35 38  1  0  0  0  0
 36 39  1  0  0  0  0
 38 40  1  0  0  0  0
 39 40  1  0  0  0  0
M  END
> <PUBCHEM_COMPOUND_ID_TYPE>
0

> <PUBCHEM_TOTAL_CHARGE>
0

> <PUBCHEM_SUBSTANCE_ID>
310943158

> <PUBCHEM_SUBSTANCE_VERSION>
1

> <PUBCHEM_EXT_DATASOURCE_NAME>
4488

> <PUBCHEM_EXT_DATASOURCE_REGID>
SCHEMBL16121218

> <PUBCHEM_SUBSTANCE_COMMENT>
InChI=1S/C29H31F3N4O4/c1-18-25(15-22(17-33-18)35-27(38)19-3-2-4-21(13-19)29(30,31)32)20-14-26(36-9-11-39-12-10-36)28(34-16-20)40-24-7-5-23(37)6-8-24/h2-4,13-17,23-24,37H,5-12H2,1H3,(H,35,38)/t23-,24+
InChIKey=IJGVWFVFWOQAPF-PSWAGMNNSA-N

> <PUBCHEM_SUBSTANCE_SYNONYM>
SCHEMBL16121218

> <PUBCHEM_XREF_EXT_ID>
SCHEMBL16121218

> <PUBCHEM_EXT_DATASOURCE_URL>
https://www.surechembl.org/

> <PUBCHEM_EXT_SUBSTANCE_URL>
https://www.surechembl.org/chemical/SCHEMBL16121218

> <PUBCHEM_CID_ASSOCIATIONS>
90456257  1

> <PUBCHEM_COORDINATE_TYPE>
1
3

> <PUBCHEM_BONDANNOTATIONS>
25  4  6
40  7  6

$$$$
