310947959
  -OEChem-07211613022D

 15 14  0     1  0  0  0  0  0999 V2000
   -1.5519   -4.6084    0.0000 O   0  0  0  0  0  0  0  0  0  0  0  0
   -2.2664   -2.5459    0.0000 O   0  0  0  0  0  0  0  0  0  0  0  0
   -0.8374   -2.5459    0.0000 O   0  0  0  0  0  0  0  0  0  0  0  0
    1.3060   -4.6084    0.0000 O   0  0  0  0  0  0  0  0  0  0  0  0
   -0.1229   -3.7834    0.0000 N   0  0  0  0  0  0  0  0  0  0  0  0
   -1.5519   -3.7834    0.0000 C   0  0  3  0  0  0  0  0  0  0  0  0
   -2.2664   -3.3709    0.0000 C   0  0  3  0  0  0  0  0  0  0  0  0
   -0.8374   -3.3709    0.0000 C   0  0  0  0  0  0  0  0  0  0  0  0
   -2.9808   -3.7834    0.0000 C   0  0  0  0  0  0  0  0  0  0  0  0
    0.5915   -3.3709    0.0000 C   0  0  0  0  0  0  0  0  0  0  0  0
    1.3060   -3.7834    0.0000 C   0  0  3  0  0  0  0  0  0  0  0  0
   -3.3933   -3.0689    0.0000 C   0  0  0  0  0  0  0  0  0  0  0  0
   -2.5683   -4.4979    0.0000 C   0  0  0  0  0  0  0  0  0  0  0  0
    2.0205   -3.3709    0.0000 C   0  0  0  0  0  0  0  0  0  0  0  0
    2.7349   -3.7834    0.0000 C   0  0  0  0  0  0  0  0  0  0  0  0
  6  1  1  6  0  0  0
  7  2  1  6  0  0  0
  3  8  2  0  0  0  0
  4 11  1  0  0  0  0
  5  8  1  0  0  0  0
  5 10  1  0  0  0  0
  6  7  1  0  0  0  0
  6  8  1  0  0  0  0
  7  9  1  0  0  0  0
  9 12  1  0  0  0  0
  9 13  1  0  0  0  0
 10 11  1  0  0  0  0
 11 14  1  0  0  0  0
 14 15  1  0  0  0  0
M  END
> <PUBCHEM_COMPOUND_ID_TYPE>
0

> <PUBCHEM_TOTAL_CHARGE>
0

> <PUBCHEM_SUBSTANCE_ID>
310947959

> <PUBCHEM_SUBSTANCE_VERSION>
1

> <PUBCHEM_EXT_DATASOURCE_NAME>
4488

> <PUBCHEM_EXT_DATASOURCE_REGID>
SCHEMBL16126133

> <PUBCHEM_SUBSTANCE_COMMENT>
InChI=1S/C10H21NO4/c1-4-7(12)5-11-10(15)9(14)8(13)6(2)3/h6-9,12-14H,4-5H2,1-3H3,(H,11,15)/t7?,8-,9+/m0/s1
InChIKey=GUYZOEPJPZQEOE-SXNZSPLWSA-N

> <PUBCHEM_SUBSTANCE_SYNONYM>
SCHEMBL16126133

> <PUBCHEM_XREF_EXT_ID>
SCHEMBL16126133

> <PUBCHEM_EXT_DATASOURCE_URL>
https://www.surechembl.org/

> <PUBCHEM_EXT_SUBSTANCE_URL>
https://www.surechembl.org/chemical/SCHEMBL16126133

> <PUBCHEM_CID_ASSOCIATIONS>
117613610  1

> <PUBCHEM_COORDINATE_TYPE>
1
3

> <PUBCHEM_BONDANNOTATIONS>
6  1  6
7  2  6
9  12  3
9  13  3

$$$$
