310949186
  -OEChem-07211613022D

 29 32  0     0  0  0  0  0  0999 V2000
    0.9122    4.1191    0.0000 O   0  0  0  0  0  0  0  0  0  0  0  0
    0.0847   -4.1191    0.0000 O   0  0  0  0  0  0  0  0  0  0  0  0
   -0.3291   -0.3385    0.0000 N   0  0  0  0  0  0  0  0  0  0  0  0
    0.1787    0.3385    0.0000 N   0  0  0  0  0  0  0  0  0  0  0  0
   -1.8150   -0.4702    0.0000 N   0  0  0  0  0  0  0  0  0  0  0  0
   -2.4922    0.7900    0.0000 N   0  0  0  0  0  0  0  0  0  0  0  0
   -1.7774    2.0313    0.0000 N   0  0  0  0  0  0  0  0  0  0  0  0
   -0.3856   -2.5391    0.0000 N   0  0  0  0  0  0  0  0  0  0  0  0
    1.7210    3.9122    0.0000 N   0  0  0  0  0  0  0  0  0  0  0  0
    2.5110    2.6520    0.0000 N   0  0  0  0  0  0  0  0  0  0  0  0
   -1.0815    0.7900    0.0000 C   0  0  0  0  0  0  0  0  0  0  0  0
   -0.3103    1.0157    0.0000 C   0  0  0  0  0  0  0  0  0  0  0  0
   -1.1191   -0.0564    0.0000 C   0  0  0  0  0  0  0  0  0  0  0  0
   -0.0282    1.8433    0.0000 C   0  0  0  0  0  0  0  0  0  0  0  0
   -1.8150    1.2226    0.0000 C   0  0  0  0  0  0  0  0  0  0  0  0
    0.7805    1.9937    0.0000 C   0  0  0  0  0  0  0  0  0  0  0  0
    1.0627    2.7837    0.0000 C   0  0  0  0  0  0  0  0  0  0  0  0
   -0.0847   -1.1097    0.0000 C   0  0  0  0  0  0  0  0  0  0  0  0
   -0.5548    2.4263    0.0000 C   0  0  0  0  0  0  0  0  0  0  0  0
   -2.5110   -0.0376    0.0000 C   0  0  0  0  0  0  0  0  0  0  0  0
    0.4985    3.4044    0.0000 C   0  0  0  0  0  0  0  0  0  0  0  0
   -0.2916    3.2351    0.0000 C   0  0  0  0  0  0  0  0  0  0  0  0
    1.7774    3.1035    0.0000 C   0  0  0  0  0  0  0  0  0  0  0  0
   -0.6113   -1.6928    0.0000 C   0  0  0  0  0  0  0  0  0  0  0  0
   -0.9498   -3.1410    0.0000 C   0  0  0  0  0  0  0  0  0  0  0  0
    0.4044   -2.7085    0.0000 C   0  0  0  0  0  0  0  0  0  0  0  0
   -0.7241   -3.9122    0.0000 C   0  0  0  0  0  0  0  0  0  0  0  0
    0.6489   -3.5173    0.0000 C   0  0  0  0  0  0  0  0  0  0  0  0
    1.2132    4.0250    0.0000 C   0  0  0  0  0  0  0  0  0  0  0  0
  1 21  1  0  0  0  0
  2 27  1  0  0  0  0
  2 28  1  0  0  0  0
  3  4  1  0  0  0  0
  3 13  1  0  0  0  0
  3 18  1  0  0  0  0
  4 12  2  0  0  0  0
  5 13  2  0  0  0  0
  5 20  1  0  0  0  0
  6 15  1  0  0  0  0
  6 20  2  0  0  0  0
  7 15  1  0  0  0  0
  8 24  1  0  0  0  0
  8 25  1  0  0  0  0
  8 26  1  0  0  0  0
  9 23  2  0  0  0  0
  9 29  1  0  0  0  0
 10 23  1  0  0  0  0
 11 12  1  0  0  0  0
 11 13  1  0  0  0  0
 11 15  2  0  0  0  0
 12 14  1  0  0  0  0
 14 16  2  0  0  0  0
 14 19  1  0  0  0  0
 16 17  1  0  0  0  0
 17 21  2  0  0  0  0
 17 23  1  0  0  0  0
 18 24  1  0  0  0  0
 19 22  2  0  0  0  0
 21 22  1  0  0  0  0
 25 27  1  0  0  0  0
 26 28  1  0  0  0  0
M  END
> <PUBCHEM_COMPOUND_ID_TYPE>
0

> <PUBCHEM_TOTAL_CHARGE>
0

> <PUBCHEM_SUBSTANCE_ID>
310949186

> <PUBCHEM_SUBSTANCE_VERSION>
1

> <PUBCHEM_EXT_DATASOURCE_NAME>
4488

> <PUBCHEM_EXT_DATASOURCE_REGID>
SCHEMBL16127376

> <PUBCHEM_SUBSTANCE_COMMENT>
InChI=1S/C19H24N8O2/c1-22-17(20)13-10-12(2-3-14(13)28)16-15-18(21)23-11-24-19(15)27(25-16)5-4-26-6-8-29-9-7-26/h2-3,10-11,28H,4-9H2,1H3,(H2,20,22)(H2,21,23,24)
InChIKey=MIAZMVHHDDJQTB-UHFFFAOYSA-N

> <PUBCHEM_SUBSTANCE_SYNONYM>
SCHEMBL16127376

> <PUBCHEM_XREF_EXT_ID>
SCHEMBL16127376

> <PUBCHEM_EXT_DATASOURCE_URL>
https://www.surechembl.org/

> <PUBCHEM_EXT_SUBSTANCE_URL>
https://www.surechembl.org/chemical/SCHEMBL16127376

> <PUBCHEM_CID_ASSOCIATIONS>
117614676  1

> <PUBCHEM_COORDINATE_TYPE>
1
3

$$$$
