310942531
  -OEChem-07211613022D

 36 40  0     1  0  0  0  0  0999 V2000
   -2.7493   -2.7794    0.0000 F   0  0  0  0  0  0  0  0  0  0  0  0
   -5.1575   -0.4716    0.0000 F   0  0  0  0  0  0  0  0  0  0  0  0
    2.2275    0.6723    0.0000 O   0  0  0  0  0  0  0  0  0  0  0  0
    1.2643    1.7760    0.0000 O   0  0  0  0  0  0  0  0  0  0  0  0
   -1.4650   -0.1104    0.0000 N   0  0  0  0  0  0  0  0  0  0  0  0
   -1.8262   -1.5151    0.0000 N   0  0  0  0  0  0  0  0  0  0  0  0
    0.9232    0.2910    0.0000 N   0  0  0  0  0  0  0  0  0  0  0  0
   -0.2408   -2.0770    0.0000 N   0  0  0  0  0  0  0  0  0  0  0  0
   -1.2041   -0.9532    0.0000 C   0  0  0  0  0  0  0  0  0  0  0  0
   -0.4415   -1.2342    0.0000 C   0  0  3  0  0  0  0  0  0  0  0  0
   -2.4884   -0.9934    0.0000 C   0  0  0  0  0  0  0  0  0  0  0  0
    0.1204   -0.5920    0.0000 C   0  0  0  0  0  0  0  0  0  0  0  0
   -3.2109   -1.3144    0.0000 C   0  0  0  0  0  0  0  0  0  0  0  0
   -2.2476   -0.1505    0.0000 C   0  0  0  0  0  0  0  0  0  0  0  0
    0.1405    0.2709    0.0000 C   0  0  0  0  0  0  0  0  0  0  0  0
    0.9031   -0.6120    0.0000 C   0  0  0  0  0  0  0  0  0  0  0  0
   -0.9031    0.5318    0.0000 C   0  0  0  0  0  0  0  0  0  0  0  0
   -3.3714   -2.1975    0.0000 C   0  0  0  0  0  0  0  0  0  0  0  0
    1.4851    0.9131    0.0000 C   0  0  0  0  0  0  0  0  0  0  0  0
   -3.8130   -0.7525    0.0000 C   0  0  0  0  0  0  0  0  0  0  0  0
   -1.4248    1.3747    0.0000 C   0  0  0  0  0  0  0  0  0  0  0  0
   -4.5555   -1.0536    0.0000 C   0  0  0  0  0  0  0  0  0  0  0  0
   -4.0939   -2.4985    0.0000 C   0  0  0  0  0  0  0  0  0  0  0  0
   -4.6959   -1.9165    0.0000 C   0  0  0  0  0  0  0  0  0  0  0  0
   -1.0234    2.0570    0.0000 C   0  0  0  0  0  0  0  0  0  0  0  0
   -2.2275    1.3546    0.0000 C   0  0  0  0  0  0  0  0  0  0  0  0
    2.7894    1.2944    0.0000 C   0  0  0  0  0  0  0  0  0  0  0  0
   -1.4449    2.7794    0.0000 C   0  0  0  0  0  0  0  0  0  0  0  0
   -2.6690    2.0570    0.0000 C   0  0  0  0  0  0  0  0  0  0  0  0
    3.5521    1.0937    0.0000 C   0  0  0  0  0  0  0  0  0  0  0  0
   -2.2677    2.7794    0.0000 C   0  0  0  0  0  0  0  0  0  0  0  0
    3.7527    0.3110    0.0000 C   0  0  0  0  0  0  0  0  0  0  0  0
    4.1340    1.6757    0.0000 C   0  0  0  0  0  0  0  0  0  0  0  0
    4.5755    0.0903    0.0000 C   0  0  0  0  0  0  0  0  0  0  0  0
    4.9368    1.4550    0.0000 C   0  0  0  0  0  0  0  0  0  0  0  0
    5.1575    0.6723    0.0000 C   0  0  0  0  0  0  0  0  0  0  0  0
  1 18  1  0  0  0  0
  2 22  1  0  0  0  0
  3 19  1  0  0  0  0
  3 27  1  0  0  0  0
  4 19  2  0  0  0  0
  5  9  1  0  0  0  0
  5 14  1  0  0  0  0
  5 17  1  0  0  0  0
  6  9  2  0  0  0  0
  6 11  1  0  0  0  0
  7 15  1  0  0  0  0
  7 16  1  0  0  0  0
  7 19  1  0  0  0  0
 10  8  1  1  0  0  0
  9 10  1  0  0  0  0
 10 12  1  0  0  0  0
 11 13  1  0  0  0  0
 11 14  2  0  0  0  0
 12 15  1  0  0  0  0
 12 16  1  0  0  0  0
 13 18  2  0  0  0  0
 13 20  1  0  0  0  0
 17 21  1  0  0  0  0
 18 23  1  0  0  0  0
 20 22  2  0  0  0  0
 21 25  2  0  0  0  0
 21 26  1  0  0  0  0
 22 24  1  0  0  0  0
 23 24  2  0  0  0  0
 25 28  1  0  0  0  0
 26 29  2  0  0  0  0
 27 30  1  0  0  0  0
 28 31  2  0  0  0  0
 29 31  1  0  0  0  0
 30 32  2  0  0  0  0
 30 33  1  0  0  0  0
 32 34  1  0  0  0  0
 33 35  2  0  0  0  0
 34 36  2  0  0  0  0
 35 36  1  0  0  0  0
M  END
> <PUBCHEM_COMPOUND_ID_TYPE>
0

> <PUBCHEM_TOTAL_CHARGE>
0

> <PUBCHEM_SUBSTANCE_ID>
310942531

> <PUBCHEM_SUBSTANCE_VERSION>
1

> <PUBCHEM_EXT_DATASOURCE_NAME>
4488

> <PUBCHEM_EXT_DATASOURCE_REGID>
SCHEMBL16120568

> <PUBCHEM_SUBSTANCE_COMMENT>
InChI=1S/C28H26F2N4O2/c29-22-11-12-24(30)23(13-22)25-17-33(14-19-7-3-1-4-8-19)27(32-25)26(31)21-15-34(16-21)28(35)36-18-20-9-5-2-6-10-20/h1-13,17,21,26H,14-16,18,31H2/t26-/m1/s1
InChIKey=VPWRUCMFGLPUBI-AREMUKBSSA-N

> <PUBCHEM_SUBSTANCE_SYNONYM>
SCHEMBL16120568

> <PUBCHEM_XREF_EXT_ID>
SCHEMBL16120568

> <PUBCHEM_EXT_DATASOURCE_URL>
https://www.surechembl.org/

> <PUBCHEM_EXT_SUBSTANCE_URL>
https://www.surechembl.org/chemical/SCHEMBL16120568

> <PUBCHEM_CID_ASSOCIATIONS>
117609090  1

> <PUBCHEM_COORDINATE_TYPE>
1
3

> <PUBCHEM_BONDANNOTATIONS>
10  8  5

$$$$
