310949982
  -OEChem-07211613022D

 34 33  0     1  0  0  0  0  0999 V2000
   -2.3686    1.1814    0.0000 S   0  0  0  0  0  0  0  0  0  0  0  0
    1.3526   -0.4623    0.0000 O   0  0  0  0  0  0  0  0  0  0  0  0
    2.7453    1.3983    0.0000 O   0  0  0  0  0  0  0  0  0  0  0  0
   -0.0286    2.1517    0.0000 O   0  0  0  0  0  0  0  0  0  0  0  0
    0.6335    3.2932    0.0000 O   0  0  0  0  0  0  0  0  0  0  0  0
   -2.5056    1.7180    0.0000 O   0  0  0  0  0  0  0  0  0  0  0  0
    0.5194    1.0330    0.0000 N   0  0  0  0  0  0  0  0  0  0  0  0
    1.1130    1.0330    0.0000 N   0  0  0  0  0  0  0  0  0  0  0  0
    1.4211    2.1517    0.0000 N   0  0  0  0  0  0  0  0  0  0  0  0
   -0.0970    1.0330    0.0000 N   0  0  0  0  0  0  0  0  0  0  0  0
    0.9645   -1.9804    0.0000 N   0  0  0  0  0  0  0  0  0  0  0  0
   -2.5056    0.2569    0.0000 N   0  0  0  0  0  0  0  0  0  0  0  0
   -0.0856   -2.9165    0.0000 N   0  0  0  0  0  0  0  0  0  0  0  0
    1.1928   -3.2931    0.0000 N   0  0  0  0  0  0  0  0  0  0  0  0
    0.5536   -0.4852    0.0000 C   0  0  0  0  0  0  0  0  0  0  0  0
    0.0856    0.2569    0.0000 C   0  0  3  0  0  0  0  0  0  0  0  0
   -0.1312   -0.3595    0.0000 C   0  0  0  0  0  0  0  0  0  0  0  0
    1.6951    0.4395    0.0000 C   0  0  3  0  0  0  0  0  0  0  0  0
    2.4941    0.6449    0.0000 C   0  0  0  0  0  0  0  0  0  0  0  0
   -0.4737    0.3481    0.0000 C   0  0  3  0  0  0  0  0  0  0  0  0
   -0.7590    0.2340    0.0000 C   0  0  0  0  0  0  0  0  0  0  0  0
    1.4325   -0.3824    0.0000 C   0  0  0  0  0  0  0  0  0  0  0  0
    0.6449   -0.4166    0.0000 C   0  0  0  0  0  0  0  0  0  0  0  0
   -1.2271    0.4052    0.0000 C   0  0  0  0  0  0  0  0  0  0  0  0
    0.6335    2.5284    0.0000 C   0  0  0  0  0  0  0  0  0  0  0  0
   -1.2157    1.0330    0.0000 C   0  0  0  0  0  0  0  0  0  0  0  0
    0.6221   -0.5080    0.0000 C   0  0  0  0  0  0  0  0  0  0  0  0
   -2.0718    1.0216    0.0000 C   0  0  0  0  0  0  0  0  0  0  0  0
   -1.6266    1.1244    0.0000 C   0  0  0  0  0  0  0  0  0  0  0  0
    0.3824   -1.3754    0.0000 C   0  0  0  0  0  0  0  0  0  0  0  0
   -0.7134    2.5741    0.0000 C   0  0  0  0  0  0  0  0  0  0  0  0
    0.7020   -2.7224    0.0000 C   0  0  0  0  0  0  0  0  0  0  0  0
   -1.4440    2.1631    0.0000 C   0  0  0  0  0  0  0  0  0  0  0  0
   -2.7453    1.9463    0.0000 C   0  0  0  0  0  0  0  0  0  0  0  0
  1 29  1  0  0  0  0
  1 34  1  0  0  0  0
  2 15  2  0  0  0  0
  3 19  2  0  0  0  0
  4 25  1  0  0  0  0
  4 31  1  0  0  0  0
  5 25  2  0  0  0  0
  6 28  2  0  0  0  0
  7  8  1  0  0  0  0
 16  7  1  6  0  0  0
 18  8  1  6  0  0  0
  9 19  1  0  0  0  0
  9 25  1  0  0  0  0
 20 10  1  6  0  0  0
 11 30  1  0  0  0  0
 11 32  1  0  0  0  0
 12 28  1  0  0  0  0
 13 32  1  0  0  0  0
 14 32  1  0  0  0  0
 15 16  1  0  0  0  0
 15 17  1  0  0  0  0
 16 21  1  0  0  0  0
 17 20  1  0  0  0  0
 17 23  2  0  0  0  0
 18 19  1  0  0  0  0
 18 22  1  0  0  0  0
 20 24  1  0  0  0  0
 21 26  1  0  0  0  0
 22 27  1  0  0  0  0
 24 29  1  0  0  0  0
 26 28  1  0  0  0  0
 27 30  1  0  0  0  0
 31 33  1  0  0  0  0
M  END
> <PUBCHEM_COMPOUND_ID_TYPE>
0

> <PUBCHEM_TOTAL_CHARGE>
0

> <PUBCHEM_SUBSTANCE_ID>
310949982

> <PUBCHEM_SUBSTANCE_VERSION>
1

> <PUBCHEM_EXT_DATASOURCE_NAME>
4488

> <PUBCHEM_EXT_DATASOURCE_REGID>
SCHEMBL16128211

> <PUBCHEM_SUBSTANCE_COMMENT>
InChI=1S/C20H40N8O5S/c1-4-33-20(32)26-18(31)15(6-5-10-25-19(23)24)28-27-14(7-8-16(22)29)17(30)12(2)13(21)9-11-34-3/h13-15,19,25,27-28H,2,4-11,21,23-24H2,1,3H3,(H2,22,29)(H,26,31,32)/t13-,14-,15-/m0/s1
InChIKey=CFENPXKMUTXEFI-KKUMJFAQSA-N

> <PUBCHEM_SUBSTANCE_SYNONYM>
SCHEMBL16128211

> <PUBCHEM_XREF_EXT_ID>
SCHEMBL16128211

> <PUBCHEM_EXT_DATASOURCE_URL>
https://www.surechembl.org/

> <PUBCHEM_EXT_SUBSTANCE_URL>
https://www.surechembl.org/chemical/SCHEMBL16128211

> <PUBCHEM_CID_ASSOCIATIONS>
117615222  1

> <PUBCHEM_COORDINATE_TYPE>
1
3

> <PUBCHEM_BONDANNOTATIONS>
20  10  6
16  7  6
18  8  6

$$$$
