310946700
  -OEChem-07211613022D

 19 20  0     1  0  0  0  0  0999 V2000
    4.2198   -3.9615    0.0000 P   0  0  0  0  0  0  0  0  0  0  0  0
    0.9272   -1.9635    0.0000 O   0  0  0  0  0  0  0  0  0  0  0  0
    3.6364   -3.3781    0.0000 O   0  0  0  0  0  0  0  0  0  0  0  0
    0.0020   -0.8209    0.0000 O   0  0  0  0  0  0  0  0  0  0  0  0
    4.2198   -4.7865    0.0000 O   0  0  0  0  0  0  0  0  0  0  0  0
    4.2198   -3.1365    0.0000 O   0  0  0  0  0  0  0  0  0  0  0  0
    5.0448   -3.9615    0.0000 O   0  0  0  0  0  0  0  0  0  0  0  0
    0.0340   -2.9555    0.0000 C   0  0  0  0  0  0  0  0  0  0  0  0
   -0.3785   -2.2410    0.0000 C   0  0  0  0  0  0  0  0  0  0  0  0
    0.8410   -2.7839    0.0000 C   0  0  3  0  0  0  0  0  0  0  0  0
    0.1736   -1.6279    0.0000 C   0  0  0  0  0  0  0  0  0  0  0  0
   -0.3785   -3.6699    0.0000 C   0  0  0  0  0  0  0  0  0  0  0  0
    1.4541   -3.3360    0.0000 C   0  0  0  0  0  0  0  0  0  0  0  0
   -1.2035   -2.2410    0.0000 C   0  0  0  0  0  0  0  0  0  0  0  0
    2.8518   -3.6331    0.0000 C   0  0  3  0  0  0  0  0  0  0  0  0
    2.2387   -3.0810    0.0000 C   0  0  0  0  0  0  0  0  0  0  0  0
   -1.2035   -3.6699    0.0000 C   0  0  0  0  0  0  0  0  0  0  0  0
   -1.6160   -2.9555    0.0000 C   0  0  0  0  0  0  0  0  0  0  0  0
    2.6803   -4.4400    0.0000 C   0  0  0  0  0  0  0  0  0  0  0  0
  1  3  1  0  0  0  0
  1  5  2  0  0  0  0
  1  6  1  0  0  0  0
  1  7  1  0  0  0  0
  2 10  1  0  0  0  0
  2 11  1  0  0  0  0
  3 15  1  0  0  0  0
  4 11  2  0  0  0  0
  8  9  1  0  0  0  0
  8 10  1  0  0  0  0
  8 12  2  0  0  0  0
  9 11  1  0  0  0  0
  9 14  2  0  0  0  0
 10 13  1  1  0  0  0
 12 17  1  0  0  0  0
 13 16  1  0  0  0  0
 14 18  1  0  0  0  0
 15 16  1  0  0  0  0
 15 19  1  0  0  0  0
 17 18  2  0  0  0  0
M  END
> <PUBCHEM_COMPOUND_ID_TYPE>
0

> <PUBCHEM_TOTAL_CHARGE>
0

> <PUBCHEM_SUBSTANCE_ID>
310946700

> <PUBCHEM_SUBSTANCE_VERSION>
1

> <PUBCHEM_EXT_DATASOURCE_NAME>
4488

> <PUBCHEM_EXT_DATASOURCE_REGID>
SCHEMBL16124824

> <PUBCHEM_SUBSTANCE_COMMENT>
InChI=1S/C12H15O6P/c1-8(18-19(14,15)16)6-7-11-9-4-2-3-5-10(9)12(13)17-11/h2-5,8,11H,6-7H2,1H3,(H2,14,15,16)/t8?,11-/m0/s1
InChIKey=XSTSTWJGLXHPSO-LYNSQETBSA-N

> <PUBCHEM_SUBSTANCE_SYNONYM>
SCHEMBL16124824

> <PUBCHEM_XREF_EXT_ID>
SCHEMBL16124824

> <PUBCHEM_EXT_DATASOURCE_URL>
https://www.surechembl.org/

> <PUBCHEM_EXT_SUBSTANCE_URL>
https://www.surechembl.org/chemical/SCHEMBL16124824

> <PUBCHEM_CID_ASSOCIATIONS>
60172719  1

> <PUBCHEM_COORDINATE_TYPE>
1
3

> <PUBCHEM_BONDANNOTATIONS>
10  13  5

$$$$
