310934860
  -OEChem-07211613022D

 15 16  0     0  0  0  0  0  0999 V2000
    5.0259   -1.2230    0.0000 Cl  0  0  0  0  0  0  0  0  0  0  0  0
    0.7204   -1.2397    0.0000 O   0  0  0  0  0  0  0  0  0  0  0  0
    2.8815   -2.4628    0.0000 N   0  0  0  0  0  0  0  0  0  0  0  0
    1.4240    0.0000    0.0000 N   0  0  0  0  0  0  0  0  0  0  0  0
    3.5852   -1.2230    0.0000 C   0  0  0  0  0  0  0  0  0  0  0  0
    2.8648   -1.6418    0.0000 C   0  0  0  0  0  0  0  0  0  0  0  0
    4.3056   -1.6251    0.0000 C   0  0  0  0  0  0  0  0  0  0  0  0
    2.1444   -0.4188    0.0000 C   0  0  0  0  0  0  0  0  0  0  0  0
    2.1612   -1.2397    0.0000 C   0  0  0  0  0  0  0  0  0  0  0  0
    3.5852   -0.4188    0.0000 C   0  0  0  0  0  0  0  0  0  0  0  0
    2.8648    0.0000    0.0000 C   0  0  0  0  0  0  0  0  0  0  0  0
    4.3223   -2.4795    0.0000 C   0  0  0  0  0  0  0  0  0  0  0  0
    3.6019   -2.8815    0.0000 C   0  0  0  0  0  0  0  0  0  0  0  0
    0.7204   -0.4188    0.0000 C   0  0  0  0  0  0  0  0  0  0  0  0
    0.0000    0.0000    0.0000 C   0  0  0  0  0  0  0  0  0  0  0  0
  1  7  1  0  0  0  0
  2 14  2  0  0  0  0
  3  6  2  0  0  0  0
  3 13  1  0  0  0  0
  4  8  1  0  0  0  0
  4 14  1  0  0  0  0
  5  6  1  0  0  0  0
  5  7  2  0  0  0  0
  5 10  1  0  0  0  0
  6  9  1  0  0  0  0
  7 12  1  0  0  0  0
  8  9  2  0  0  0  0
  8 11  1  0  0  0  0
 10 11  2  0  0  0  0
 12 13  2  0  0  0  0
 14 15  1  0  0  0  0
M  END
> <PUBCHEM_COMPOUND_ID_TYPE>
0

> <PUBCHEM_TOTAL_CHARGE>
0

> <PUBCHEM_SUBSTANCE_ID>
310934860

> <PUBCHEM_SUBSTANCE_VERSION>
1

> <PUBCHEM_EXT_DATASOURCE_NAME>
4488

> <PUBCHEM_EXT_DATASOURCE_REGID>
SCHEMBL16112369

> <PUBCHEM_SUBSTANCE_COMMENT>
InChI=1S/C11H9ClN2O/c1-7(15)14-8-2-3-9-10(12)4-5-13-11(9)6-8/h2-6H,1H3,(H,14,15)
InChIKey=QSMITBFFCSBJBF-UHFFFAOYSA-N

> <PUBCHEM_SUBSTANCE_SYNONYM>
SCHEMBL16112369

> <PUBCHEM_XREF_EXT_ID>
SCHEMBL16112369

> <PUBCHEM_EXT_DATASOURCE_URL>
https://www.surechembl.org/

> <PUBCHEM_EXT_SUBSTANCE_URL>
https://www.surechembl.org/chemical/SCHEMBL16112369

> <PUBCHEM_CID_ASSOCIATIONS>
117602995  1

> <PUBCHEM_COORDINATE_TYPE>
1
3

$$$$
