310933885
  -OEChem-07211613022D

 41 46  0     1  0  0  0  0  0999 V2000
    0.0000   -0.5746    0.0000 Cl  0  0  0  0  0  0  0  0  0  0  0  0
    4.1866   -8.2091    0.0000 F   0  0  0  0  0  0  0  0  0  0  0  0
    4.3098   -3.2015    0.0000 O   0  0  0  0  0  0  0  0  0  0  0  0
    2.9963   -3.7762    0.0000 N   0  0  0  0  0  0  0  0  0  0  0  0
    3.2836   -0.9030    0.0000 N   0  0  0  0  0  0  0  0  0  0  0  0
    4.7202   -3.9814    0.0000 N   0  0  0  0  0  0  0  0  0  0  0  0
    4.5560   -5.2949    0.0000 N   0  0  0  0  0  0  0  0  0  0  0  0
    3.8173   -0.2873    0.0000 N   0  0  0  0  0  0  0  0  0  0  0  0
    4.5971   -0.6157    0.0000 N   0  0  0  0  0  0  0  0  0  0  0  0
    4.5150   -1.4366    0.0000 N   0  0  0  0  0  0  0  0  0  0  0  0
    8.2912   -1.8471    0.0000 N   0  0  0  0  0  0  0  0  0  0  0  0
    3.3247   -4.5150    0.0000 C   0  0  3  0  0  0  0  0  0  0  0  0
    2.0112   -1.5187    0.0000 C   0  0  0  0  0  0  0  0  0  0  0  0
    2.3396   -2.2575    0.0000 C   0  0  0  0  0  0  0  0  0  0  0  0
    4.1456   -4.5971    0.0000 C   0  0  0  0  0  0  0  0  0  0  0  0
    2.4627   -0.8209    0.0000 C   0  0  0  0  0  0  0  0  0  0  0  0
    3.4889   -3.1195    0.0000 C   0  0  0  0  0  0  0  0  0  0  0  0
    3.1605   -2.3396    0.0000 C   0  0  0  0  0  0  0  0  0  0  0  0
    2.1754   -3.6941    0.0000 C   0  0  0  0  0  0  0  0  0  0  0  0
    1.8471   -2.9142    0.0000 C   0  0  0  0  0  0  0  0  0  0  0  0
    5.4591   -4.3098    0.0000 C   0  0  0  0  0  0  0  0  0  0  0  0
    1.1493   -1.4366    0.0000 C   0  0  0  0  0  0  0  0  0  0  0  0
    2.8321   -5.1717    0.0000 C   0  0  0  0  0  0  0  0  0  0  0  0
    2.1343   -0.0821    0.0000 C   0  0  0  0  0  0  0  0  0  0  0  0
    0.8209   -0.6568    0.0000 C   0  0  0  0  0  0  0  0  0  0  0  0
    5.3769   -5.1307    0.0000 C   0  0  0  0  0  0  0  0  0  0  0  0
    6.1568   -3.8993    0.0000 C   0  0  0  0  0  0  0  0  0  0  0  0
    3.2015   -5.9516    0.0000 C   0  0  0  0  0  0  0  0  0  0  0  0
    1.3134    0.0000    0.0000 C   0  0  0  0  0  0  0  0  0  0  0  0
    3.6941   -1.6008    0.0000 C   0  0  0  0  0  0  0  0  0  0  0  0
    6.1568   -3.0784    0.0000 C   0  0  0  0  0  0  0  0  0  0  0  0
    6.8956   -4.3098    0.0000 C   0  0  0  0  0  0  0  0  0  0  0  0
    4.0225   -6.0337    0.0000 C   0  0  0  0  0  0  0  0  0  0  0  0
    2.7090   -6.6083    0.0000 C   0  0  0  0  0  0  0  0  0  0  0  0
    7.5934   -3.0784    0.0000 C   0  0  0  0  0  0  0  0  0  0  0  0
    6.8956   -2.6680    0.0000 C   0  0  0  0  0  0  0  0  0  0  0  0
    7.5934   -3.8993    0.0000 C   0  0  0  0  0  0  0  0  0  0  0  0
    4.3508   -6.7725    0.0000 C   0  0  0  0  0  0  0  0  0  0  0  0
    3.0374   -7.3471    0.0000 C   0  0  0  0  0  0  0  0  0  0  0  0
    3.8583   -7.4703    0.0000 C   0  0  0  0  0  0  0  0  0  0  0  0
    8.2912   -2.6680    0.0000 C   0  0  0  0  0  0  0  0  0  0  0  0
  1 25  1  0  0  0  0
  2 40  1  0  0  0  0
  3 17  2  0  0  0  0
  4 12  1  0  0  0  0
  4 17  1  0  0  0  0
  4 19  1  0  0  0  0
  5  8  1  0  0  0  0
  5 16  1  0  0  0  0
  5 30  1  0  0  0  0
  6 15  1  0  0  0  0
  6 21  1  0  0  0  0
  7 15  2  0  0  0  0
  7 26  1  0  0  0  0
  8  9  2  0  0  0  0
  9 10  1  0  0  0  0
 10 30  2  0  0  0  0
 11 41  3  0  0  0  0
 12 15  1  0  0  0  0
 12 23  1  1  0  0  0
 13 14  1  0  0  0  0
 13 16  1  0  0  0  0
 13 22  2  0  0  0  0
 14 18  2  0  0  0  0
 14 20  1  0  0  0  0
 16 24  2  0  0  0  0
 17 18  1  0  0  0  0
 19 20  2  0  0  0  0
 21 26  2  0  0  0  0
 21 27  1  0  0  0  0
 22 25  1  0  0  0  0
 23 28  1  0  0  0  0
 24 29  1  0  0  0  0
 25 29  2  0  0  0  0
 27 31  2  0  0  0  0
 27 32  1  0  0  0  0
 28 33  2  0  0  0  0
 28 34  1  0  0  0  0
 31 36  1  0  0  0  0
 32 37  2  0  0  0  0
 33 38  1  0  0  0  0
 34 39  2  0  0  0  0
 35 36  2  0  0  0  0
 35 37  1  0  0  0  0
 35 41  1  0  0  0  0
 38 40  2  0  0  0  0
 39 40  1  0  0  0  0
M  END
> <PUBCHEM_COMPOUND_ID_TYPE>
0

> <PUBCHEM_TOTAL_CHARGE>
0

> <PUBCHEM_SUBSTANCE_ID>
310933885

> <PUBCHEM_SUBSTANCE_VERSION>
1

> <PUBCHEM_EXT_DATASOURCE_NAME>
4488

> <PUBCHEM_EXT_DATASOURCE_REGID>
SCHEMBL16111324

> <PUBCHEM_SUBSTANCE_COMMENT>
InChI=1S/C30H20ClFN8O/c31-23-7-10-27(40-18-35-37-38-40)25(15-23)22-11-12-39(29(41)14-22)28(13-19-3-8-24(32)9-4-19)30-34-17-26(36-30)21-5-1-20(16-33)2-6-21/h1-12,14-15,17-18,28H,13H2,(H,34,36)/t28-/m1/s1
InChIKey=YDJQQIAELKHJFC-MUUNZHRXSA-N

> <PUBCHEM_SUBSTANCE_SYNONYM>
SCHEMBL16111324

> <PUBCHEM_XREF_EXT_ID>
SCHEMBL16111324

> <PUBCHEM_EXT_DATASOURCE_URL>
https://www.surechembl.org/

> <PUBCHEM_EXT_SUBSTANCE_URL>
https://www.surechembl.org/chemical/SCHEMBL16111324

> <PUBCHEM_CID_ASSOCIATIONS>
117602217  1

> <PUBCHEM_COORDINATE_TYPE>
1
3

> <PUBCHEM_BONDANNOTATIONS>
12  23  5

$$$$
