310944295
  -OEChem-07211613022D

 29 31  0     0  0  0  0  0  0999 V2000
   -3.4088   -0.8476    0.0000 Cl  0  0  0  0  0  0  0  0  0  0  0  0
   -0.3677   -0.8476    0.0000 O   0  0  0  0  0  0  0  0  0  0  0  0
   -4.6801    1.6452    0.0000 O   0  0  0  0  0  0  0  0  0  0  0  0
    1.0782    1.6452    0.0000 O   0  0  0  0  0  0  0  0  0  0  0  0
    4.6801   -0.4362    0.0000 O   0  0  0  0  0  0  0  0  0  0  0  0
   -3.2219    0.8101    0.0000 N   0  0  0  0  0  0  0  0  0  0  0  0
   -0.3552    0.8101    0.0000 N   0  0  0  0  0  0  0  0  0  0  0  0
    1.8135    0.3989    0.0000 N   0  0  0  0  0  0  0  0  0  0  0  0
    3.2593   -0.4362    0.0000 N   0  0  0  0  0  0  0  0  0  0  0  0
   -2.4990    0.3989    0.0000 C   0  0  0  0  0  0  0  0  0  0  0  0
   -1.0782    0.3989    0.0000 C   0  0  0  0  0  0  0  0  0  0  0  0
   -2.5114   -0.4237    0.0000 C   0  0  0  0  0  0  0  0  0  0  0  0
   -1.0905   -0.4237    0.0000 C   0  0  0  0  0  0  0  0  0  0  0  0
   -1.7886    0.8101    0.0000 C   0  0  0  0  0  0  0  0  0  0  0  0
   -1.7886   -0.8476    0.0000 C   0  0  0  0  0  0  0  0  0  0  0  0
    1.0782    0.8101    0.0000 C   0  0  0  0  0  0  0  0  0  0  0  0
   -3.2344    1.6452    0.0000 C   0  0  0  0  0  0  0  0  0  0  0  0
   -3.9448    0.3989    0.0000 C   0  0  0  0  0  0  0  0  0  0  0  0
    0.3802    0.3989    0.0000 C   0  0  0  0  0  0  0  0  0  0  0  0
    2.5239    0.8101    0.0000 C   0  0  0  0  0  0  0  0  0  0  0  0
    1.8260   -0.4362    0.0000 C   0  0  0  0  0  0  0  0  0  0  0  0
    3.2468    0.3989    0.0000 C   0  0  0  0  0  0  0  0  0  0  0  0
    2.5489   -0.8476    0.0000 C   0  0  0  0  0  0  0  0  0  0  0  0
    3.9698   -0.8476    0.0000 C   0  0  0  0  0  0  0  0  0  0  0  0
   -3.9573    2.0565    0.0000 C   0  0  0  0  0  0  0  0  0  0  0  0
   -4.6553    0.8101    0.0000 C   0  0  0  0  0  0  0  0  0  0  0  0
    0.3677   -0.4362    0.0000 C   0  0  0  0  0  0  0  0  0  0  0  0
    3.9698   -1.6826    0.0000 C   0  0  0  0  0  0  0  0  0  0  0  0
    3.2344   -2.0565    0.0000 C   0  0  0  0  0  0  0  0  0  0  0  0
  1 12  1  0  0  0  0
  2 13  1  0  0  0  0
  2 27  1  0  0  0  0
  3 25  1  0  0  0  0
  3 26  1  0  0  0  0
  4 16  2  0  0  0  0
  5 24  2  0  0  0  0
  6 10  1  0  0  0  0
  6 17  1  0  0  0  0
  6 18  1  0  0  0  0
  7 11  1  0  0  0  0
  7 19  1  0  0  0  0
  8 16  1  0  0  0  0
  8 20  1  0  0  0  0
  8 21  1  0  0  0  0
  9 22  1  0  0  0  0
  9 23  1  0  0  0  0
  9 24  1  0  0  0  0
 10 12  1  0  0  0  0
 10 14  2  0  0  0  0
 11 13  2  0  0  0  0
 11 14  1  0  0  0  0
 12 15  2  0  0  0  0
 13 15  1  0  0  0  0
 16 19  1  0  0  0  0
 17 25  1  0  0  0  0
 18 26  1  0  0  0  0
 20 22  1  0  0  0  0
 21 23  1  0  0  0  0
 24 28  1  0  0  0  0
 28 29  2  0  0  0  0
M  END
> <PUBCHEM_COMPOUND_ID_TYPE>
0

> <PUBCHEM_TOTAL_CHARGE>
0

> <PUBCHEM_SUBSTANCE_ID>
310944295

> <PUBCHEM_SUBSTANCE_VERSION>
1

> <PUBCHEM_EXT_DATASOURCE_NAME>
4488

> <PUBCHEM_EXT_DATASOURCE_REGID>
SCHEMBL16122370

> <PUBCHEM_SUBSTANCE_COMMENT>
InChI=1S/C20H27ClN4O4/c1-3-19(26)24-4-6-25(7-5-24)20(27)14-22-16-13-17(15(21)12-18(16)28-2)23-8-10-29-11-9-23/h3,12-13,22H,1,4-11,14H2,2H3
InChIKey=BHHBULFYWUBJKY-UHFFFAOYSA-N

> <PUBCHEM_SUBSTANCE_SYNONYM>
SCHEMBL16122370

> <PUBCHEM_XREF_EXT_ID>
SCHEMBL16122370

> <PUBCHEM_EXT_DATASOURCE_URL>
https://www.surechembl.org/

> <PUBCHEM_EXT_SUBSTANCE_URL>
https://www.surechembl.org/chemical/SCHEMBL16122370

> <PUBCHEM_CID_ASSOCIATIONS>
117610560  1

> <PUBCHEM_COORDINATE_TYPE>
1
3

$$$$
