310932428
  -OEChem-07211613022D

 34 38  0     1  0  0  0  0  0999 V2000
    3.2946   -4.2316    0.0000 S   0  0  0  0  0  0  0  0  0  0  0  0
    0.0302   -1.2997    0.0000 F   0  0  0  0  0  0  0  0  0  0  0  0
    1.6926   -1.3299    0.0000 O   0  0  0  0  0  0  0  0  0  0  0  0
    0.0000   -4.1107    0.0000 O   0  0  0  0  0  0  0  0  0  0  0  0
    4.9570    0.0000    0.0000 O   0  0  0  0  0  0  0  0  0  0  0  0
    8.6749   -0.6952    0.0000 O   0  0  0  0  0  0  0  0  0  0  0  0
    2.0856   -3.5062    0.0000 N   0  0  0  0  0  0  0  0  0  0  0  0
    4.9570   -1.4206    0.0000 N   0  0  0  0  0  0  0  0  0  0  0  0
    2.0251   -4.8966    0.0000 N   0  0  0  0  0  0  0  0  0  0  0  0
    6.6195   -1.4206    0.0000 N   0  0  0  0  0  0  0  0  0  0  0  0
    7.4054    0.0000    0.0000 N   0  0  0  0  0  0  0  0  0  0  0  0
    2.4785   -2.7808    0.0000 C   0  0  3  0  0  0  0  0  0  0  0  0
    1.6624   -2.7808    0.0000 C   0  0  0  0  0  0  0  0  0  0  0  0
    2.9319   -2.0856    0.0000 C   0  0  0  0  0  0  0  0  0  0  0  0
    1.2695   -2.0554    0.0000 C   0  0  0  0  0  0  0  0  0  0  0  0
    2.5390   -1.3602    0.0000 C   0  0  0  0  0  0  0  0  0  0  0  0
    3.3248   -2.8412    0.0000 C   0  0  0  0  0  0  0  0  0  0  0  0
    1.2090   -3.4760    0.0000 C   0  0  0  0  0  0  0  0  0  0  0  0
    0.4232   -2.0251    0.0000 C   0  0  0  0  0  0  0  0  0  0  0  0
    3.7480   -2.0856    0.0000 C   0  0  0  0  0  0  0  0  0  0  0  0
    0.4232   -3.4155    0.0000 C   0  0  0  0  0  0  0  0  0  0  0  0
    2.9621   -0.6347    0.0000 C   0  0  0  0  0  0  0  0  0  0  0  0
    2.4483   -4.2014    0.0000 C   0  0  0  0  0  0  0  0  0  0  0  0
    4.1410   -1.4206    0.0000 C   0  0  0  0  0  0  0  0  0  0  0  0
    0.0302   -2.7203    0.0000 C   0  0  0  0  0  0  0  0  0  0  0  0
    3.6876   -3.5364    0.0000 C   0  0  0  0  0  0  0  0  0  0  0  0
    3.7480   -0.6952    0.0000 C   0  0  0  0  0  0  0  0  0  0  0  0
    5.3500   -0.6952    0.0000 C   0  0  0  0  0  0  0  0  0  0  0  0
    6.1661   -0.6952    0.0000 C   0  0  0  0  0  0  0  0  0  0  0  0
    0.3929   -4.8361    0.0000 C   0  0  0  0  0  0  0  0  0  0  0  0
    6.6195    0.0000    0.0000 C   0  0  0  0  0  0  0  0  0  0  0  0
    7.8587   -0.6952    0.0000 C   0  0  0  0  0  0  0  0  0  0  0  0
    7.4054   -1.4206    0.0000 C   0  0  0  0  0  0  0  0  0  0  0  0
    9.0678    0.0000    0.0000 C   0  0  0  0  0  0  0  0  0  0  0  0
  1 23  1  0  0  0  0
  1 26  1  0  0  0  0
  2 19  1  0  0  0  0
  3 15  1  0  0  0  0
  3 16  1  0  0  0  0
  4 21  1  0  0  0  0
  4 30  1  0  0  0  0
  5 28  2  0  0  0  0
  6 32  1  0  0  0  0
  6 34  1  0  0  0  0
 12  7  1  6  0  0  0
  7 23  2  0  0  0  0
  8 24  1  0  0  0  0
  8 28  1  0  0  0  0
  9 23  1  0  0  0  0
 10 29  2  0  0  0  0
 10 33  1  0  0  0  0
 11 31  2  0  0  0  0
 11 32  1  0  0  0  0
 12 13  1  0  0  0  0
 12 14  1  0  0  0  0
 12 17  1  0  0  0  0
 13 15  2  0  0  0  0
 13 18  1  0  0  0  0
 14 16  2  0  0  0  0
 14 20  1  0  0  0  0
 15 19  1  0  0  0  0
 16 22  1  0  0  0  0
 17 26  1  0  0  0  0
 18 21  2  0  0  0  0
 19 25  2  0  0  0  0
 20 24  2  0  0  0  0
 21 25  1  0  0  0  0
 22 27  2  0  0  0  0
 24 27  1  0  0  0  0
 28 29  1  0  0  0  0
 29 31  1  0  0  0  0
 32 33  2  0  0  0  0
M  END
> <PUBCHEM_COMPOUND_ID_TYPE>
0

> <PUBCHEM_TOTAL_CHARGE>
0

> <PUBCHEM_SUBSTANCE_ID>
310932428

> <PUBCHEM_SUBSTANCE_VERSION>
1

> <PUBCHEM_EXT_DATASOURCE_NAME>
4488

> <PUBCHEM_EXT_DATASOURCE_REGID>
SCHEMBL16109796

> <PUBCHEM_SUBSTANCE_COMMENT>
InChI=1S/C23H20FN5O4S/c1-31-13-8-15-20(16(24)9-13)33-18-4-3-12(7-14(18)23(15)5-6-34-22(25)29-23)28-21(30)17-10-27-19(32-2)11-26-17/h3-4,7-11H,5-6H2,1-2H3,(H2,25,29)(H,28,30)/t23-/m0/s1
InChIKey=GTNDHGPFQLLMRP-QHCPKHFHSA-N

> <PUBCHEM_SUBSTANCE_SYNONYM>
SCHEMBL16109796

> <PUBCHEM_XREF_EXT_ID>
SCHEMBL16109796

> <PUBCHEM_EXT_DATASOURCE_URL>
https://www.surechembl.org/

> <PUBCHEM_EXT_SUBSTANCE_URL>
https://www.surechembl.org/chemical/SCHEMBL16109796

> <PUBCHEM_CID_ASSOCIATIONS>
71542790  1

> <PUBCHEM_COORDINATE_TYPE>
1
3

> <PUBCHEM_BONDANNOTATIONS>
12  7  6

$$$$
