310931698
  -OEChem-07211613022D

 38 42  0     1  0  0  0  0  0999 V2000
    4.6987   -6.5563    0.0000 Cl  0  0  0  0  0  0  0  0  0  0  0  0
    8.7418   -2.0397    0.0000 S   0  0  0  0  0  0  0  0  0  0  0  0
    9.6159   -0.5828    0.0000 S   0  0  0  0  0  0  0  0  0  0  0  0
    7.9040   -0.6192    0.0000 F   0  0  0  0  0  0  0  0  0  0  0  0
    6.2649   -3.4603    0.0000 F   0  0  0  0  0  0  0  0  0  0  0  0
    5.4272   -2.0397    0.0000 O   0  0  0  0  0  0  0  0  0  0  0  0
    8.7418   -2.9503    0.0000 O   0  0  0  0  0  0  0  0  0  0  0  0
    8.7418   -1.2384    0.0000 O   0  0  0  0  0  0  0  0  0  0  0  0
    9.5431   -2.0397    0.0000 N   0  0  0  0  0  0  0  0  0  0  0  0
    2.9139   -2.3311    0.0000 N   0  0  3  0  0  0  0  0  0  0  0  0
   10.7815   -1.2384    0.0000 N   0  0  0  0  0  0  0  0  0  0  0  0
   10.2351    0.0000    0.0000 N   0  0  0  0  0  0  0  0  0  0  0  0
    7.9404   -2.0397    0.0000 C   0  0  0  0  0  0  0  0  0  0  0  0
    7.5033   -1.3113    0.0000 C   0  0  0  0  0  0  0  0  0  0  0  0
    6.2285   -2.0397    0.0000 C   0  0  0  0  0  0  0  0  0  0  0  0
    6.6656   -2.7318    0.0000 C   0  0  0  0  0  0  0  0  0  0  0  0
    7.5033   -2.7318    0.0000 C   0  0  0  0  0  0  0  0  0  0  0  0
    3.7153   -3.4239    0.0000 C   0  0  3  0  0  0  0  0  0  0  0  0
    4.1888   -2.7682    0.0000 C   0  0  3  0  0  0  0  0  0  0  0  0
    6.6656   -1.3113    0.0000 C   0  0  0  0  0  0  0  0  0  0  0  0
    3.9702   -4.1888    0.0000 C   0  0  0  0  0  0  0  0  0  0  0  0
    2.9139   -3.1689    0.0000 C   0  0  0  0  0  0  0  0  0  0  0  0
    3.7153   -2.0762    0.0000 C   0  0  0  0  0  0  0  0  0  0  0  0
    5.0265   -2.7682    0.0000 C   0  0  0  0  0  0  0  0  0  0  0  0
    9.9437   -1.3113    0.0000 C   0  0  0  0  0  0  0  0  0  0  0  0
    2.2583   -1.8576    0.0000 C   0  0  0  0  0  0  0  0  0  0  0  0
    4.7716   -4.3709    0.0000 C   0  0  0  0  0  0  0  0  0  0  0  0
    3.4239   -4.8080    0.0000 C   0  0  0  0  0  0  0  0  0  0  0  0
    1.4934   -2.1854    0.0000 C   0  0  0  0  0  0  0  0  0  0  0  0
    5.0265   -5.1722    0.0000 C   0  0  0  0  0  0  0  0  0  0  0  0
    3.6788   -5.5728    0.0000 C   0  0  0  0  0  0  0  0  0  0  0  0
    4.4437   -5.7550    0.0000 C   0  0  0  0  0  0  0  0  0  0  0  0
   10.9272   -0.4371    0.0000 C   0  0  0  0  0  0  0  0  0  0  0  0
    0.8378   -1.7119    0.0000 C   0  0  0  0  0  0  0  0  0  0  0  0
    1.4206   -2.9868    0.0000 C   0  0  0  0  0  0  0  0  0  0  0  0
    0.1093   -2.0397    0.0000 C   0  0  0  0  0  0  0  0  0  0  0  0
    0.6556   -3.3510    0.0000 C   0  0  0  0  0  0  0  0  0  0  0  0
    0.0000   -2.8411    0.0000 C   0  0  0  0  0  0  0  0  0  0  0  0
  1 32  1  0  0  0  0
  2  7  2  0  0  0  0
  2  8  2  0  0  0  0
  2  9  1  0  0  0  0
  2 13  1  0  0  0  0
  3 12  1  0  0  0  0
  3 25  1  0  0  0  0
  4 14  1  0  0  0  0
  5 16  1  0  0  0  0
  6 15  1  0  0  0  0
  6 24  1  0  0  0  0
  9 25  1  0  0  0  0
 10 22  1  0  0  0  0
 10 23  1  0  0  0  0
 10 26  1  0  0  0  0
 11 25  2  0  0  0  0
 11 33  1  0  0  0  0
 12 33  2  0  0  0  0
 13 14  1  0  0  0  0
 13 17  2  0  0  0  0
 14 20  2  0  0  0  0
 15 16  2  0  0  0  0
 15 20  1  0  0  0  0
 16 17  1  0  0  0  0
 18 19  1  0  0  0  0
 18 21  1  0  0  0  0
 18 22  1  1  0  0  0
 19 23  1  0  0  0  0
 19 24  1  6  0  0  0
 21 27  2  0  0  0  0
 21 28  1  0  0  0  0
 26 29  1  0  0  0  0
 27 30  1  0  0  0  0
 28 31  2  0  0  0  0
 29 34  2  0  0  0  0
 29 35  1  0  0  0  0
 30 32  2  0  0  0  0
 31 32  1  0  0  0  0
 34 36  1  0  0  0  0
 35 37  2  0  0  0  0
 36 38  2  0  0  0  0
 37 38  1  0  0  0  0
M  END
> <PUBCHEM_COMPOUND_ID_TYPE>
0

> <PUBCHEM_TOTAL_CHARGE>
0

> <PUBCHEM_SUBSTANCE_ID>
310931698

> <PUBCHEM_SUBSTANCE_VERSION>
1

> <PUBCHEM_EXT_DATASOURCE_NAME>
4488

> <PUBCHEM_EXT_DATASOURCE_REGID>
SCHEMBL16109025

> <PUBCHEM_SUBSTANCE_COMMENT>
InChI=1S/C26H23ClF2N4O3S2/c27-20-8-6-18(7-9-20)21-14-33(12-17-4-2-1-3-5-17)13-19(21)15-36-24-10-23(29)25(11-22(24)28)38(34,35)32-26-30-16-31-37-26/h1-11,16,19,21H,12-15H2,(H,30,31,32)/t19-,21-/m1/s1
InChIKey=GIVAEVQAUARJAN-TZIWHRDSSA-N

> <PUBCHEM_SUBSTANCE_SYNONYM>
SCHEMBL16109025

> <PUBCHEM_XREF_EXT_ID>
SCHEMBL16109025

> <PUBCHEM_EXT_DATASOURCE_URL>
https://www.surechembl.org/

> <PUBCHEM_EXT_SUBSTANCE_URL>
https://www.surechembl.org/chemical/SCHEMBL16109025

> <PUBCHEM_CID_ASSOCIATIONS>
71556988  1

> <PUBCHEM_COORDINATE_TYPE>
1
3

> <PUBCHEM_BONDANNOTATIONS>
18  22  5
19  24  6

$$$$
