310934937
  -OEChem-07211613022D

 37 43  0     0  0  0  0  0  0999 V2000
    0.4125   -3.7445    0.0000 N   0  0  0  0  0  0  0  0  0  0  0  0
   -0.4125   -3.7445    0.0000 N   0  0  0  0  0  0  0  0  0  0  0  0
    1.4744   -2.7884    0.0000 N   0  0  0  0  0  0  0  0  0  0  0  0
    0.0000    0.0000    0.0000 N   0  0  0  0  0  0  0  0  0  0  0  0
    3.9796   -6.6385    0.0000 N   0  0  0  0  0  0  0  0  0  0  0  0
    3.5724   -0.4125    0.0000 N   0  0  0  0  0  0  0  0  0  0  0  0
    5.0837   -7.8647    0.0000 N   0  0  0  0  0  0  0  0  0  0  0  0
   -0.0000   -2.4750    0.0000 C   0  0  0  0  0  0  0  0  0  0  0  0
    0.6674   -2.9599    0.0000 C   0  0  0  0  0  0  0  0  0  0  0  0
    0.0000   -1.6500    0.0000 C   0  0  0  0  0  0  0  0  0  0  0  0
    0.7145   -1.2375    0.0000 C   0  0  0  0  0  0  0  0  0  0  0  0
    0.7145   -0.4125    0.0000 C   0  0  0  0  0  0  0  0  0  0  0  0
   -0.6674   -2.9599    0.0000 C   0  0  0  0  0  0  0  0  0  0  0  0
    1.7715   -4.1861    0.0000 C   0  0  0  0  0  0  0  0  0  0  0  0
    0.9645   -4.3576    0.0000 C   0  0  0  0  0  0  0  0  0  0  0  0
   -0.7145   -1.2375    0.0000 C   0  0  0  0  0  0  0  0  0  0  0  0
    2.0264   -3.4015    0.0000 C   0  0  0  0  0  0  0  0  0  0  0  0
    1.4289   -1.6500    0.0000 C   0  0  0  0  0  0  0  0  0  0  0  0
    2.3235   -4.7992    0.0000 C   0  0  0  0  0  0  0  0  0  0  0  0
    1.4289    0.0000    0.0000 C   0  0  0  0  0  0  0  0  0  0  0  0
    2.1434   -0.4125    0.0000 C   0  0  0  0  0  0  0  0  0  0  0  0
   -0.7145   -0.4125    0.0000 C   0  0  0  0  0  0  0  0  0  0  0  0
    2.1434   -1.2375    0.0000 C   0  0  0  0  0  0  0  0  0  0  0  0
    3.1305   -4.6277    0.0000 C   0  0  0  0  0  0  0  0  0  0  0  0
    2.0686   -5.5838    0.0000 C   0  0  0  0  0  0  0  0  0  0  0  0
    3.4276   -6.0254    0.0000 C   0  0  0  0  0  0  0  0  0  0  0  0
    2.8579    0.0000    0.0000 C   0  0  0  0  0  0  0  0  0  0  0  0
    3.6825   -5.2408    0.0000 C   0  0  0  0  0  0  0  0  0  0  0  0
    2.6206   -6.1969    0.0000 C   0  0  0  0  0  0  0  0  0  0  0  0
    4.7866   -6.4670    0.0000 C   0  0  0  0  0  0  0  0  0  0  0  0
    3.7247   -7.4231    0.0000 C   0  0  0  0  0  0  0  0  0  0  0  0
    4.3260   -0.0769    0.0000 C   0  0  0  0  0  0  0  0  0  0  0  0
    3.6586   -1.2330    0.0000 C   0  0  0  0  0  0  0  0  0  0  0  0
    5.3386   -7.0801    0.0000 C   0  0  0  0  0  0  0  0  0  0  0  0
    4.2767   -8.0362    0.0000 C   0  0  0  0  0  0  0  0  0  0  0  0
    4.8781   -0.6900    0.0000 C   0  0  0  0  0  0  0  0  0  0  0  0
    4.4656   -1.4045    0.0000 C   0  0  0  0  0  0  0  0  0  0  0  0
  1  2  1  0  0  0  0
  1  9  1  0  0  0  0
  1 15  1  0  0  0  0
  2 13  2  0  0  0  0
  3  9  1  0  0  0  0
  3 17  2  0  0  0  0
  4 12  1  0  0  0  0
  4 22  2  0  0  0  0
  5 26  1  0  0  0  0
  5 30  1  0  0  0  0
  5 31  1  0  0  0  0
  6 27  1  0  0  0  0
  6 32  1  0  0  0  0
  6 33  1  0  0  0  0
  7 34  1  0  0  0  0
  7 35  1  0  0  0  0
  8  9  2  0  0  0  0
  8 10  1  0  0  0  0
  8 13  1  0  0  0  0
 10 11  1  0  0  0  0
 10 16  2  0  0  0  0
 11 12  2  0  0  0  0
 11 18  1  0  0  0  0
 12 20  1  0  0  0  0
 14 15  2  0  0  0  0
 14 17  1  0  0  0  0
 14 19  1  0  0  0  0
 16 22  1  0  0  0  0
 18 23  2  0  0  0  0
 19 24  2  0  0  0  0
 19 25  1  0  0  0  0
 20 21  2  0  0  0  0
 21 23  1  0  0  0  0
 21 27  1  0  0  0  0
 24 28  1  0  0  0  0
 25 29  2  0  0  0  0
 26 28  2  0  0  0  0
 26 29  1  0  0  0  0
 30 34  1  0  0  0  0
 31 35  1  0  0  0  0
 32 36  1  0  0  0  0
 33 37  1  0  0  0  0
 36 37  1  0  0  0  0
M  END
> <PUBCHEM_COMPOUND_ID_TYPE>
0

> <PUBCHEM_TOTAL_CHARGE>
0

> <PUBCHEM_SUBSTANCE_ID>
310934937

> <PUBCHEM_SUBSTANCE_VERSION>
1

> <PUBCHEM_EXT_DATASOURCE_NAME>
4488

> <PUBCHEM_EXT_DATASOURCE_REGID>
SCHEMBL16112451

> <PUBCHEM_SUBSTANCE_COMMENT>
InChI=1S/C30H31N7/c1-2-14-35(13-1)20-22-3-8-27-26(9-10-32-29(27)17-22)28-19-34-37-21-24(18-33-30(28)37)23-4-6-25(7-5-23)36-15-11-31-12-16-36/h3-10,17-19,21,31H,1-2,11-16,20H2
InChIKey=QTXBTKLWQFSQLZ-UHFFFAOYSA-N

> <PUBCHEM_SUBSTANCE_SYNONYM>
SCHEMBL16112451

> <PUBCHEM_XREF_EXT_ID>
SCHEMBL16112451

> <PUBCHEM_EXT_DATASOURCE_URL>
https://www.surechembl.org/

> <PUBCHEM_EXT_SUBSTANCE_URL>
https://www.surechembl.org/chemical/SCHEMBL16112451

> <PUBCHEM_CID_ASSOCIATIONS>
117603059  1

> <PUBCHEM_COORDINATE_TYPE>
1
3

$$$$
