310947552
  -OEChem-07211613022D

 47 52  0     1  0  0  0  0  0999 V2000
   -0.7958   -0.6200    0.0000 P   0  0  3  0  0  0  0  0  0  0  0  0
   -1.3527    2.7206    0.0000 F   0  0  0  0  0  0  0  0  0  0  0  0
    0.4417    1.5234    0.0000 O   0  0  0  0  0  0  0  0  0  0  0  0
    0.4417    3.5075    0.0000 O   0  0  0  0  0  0  0  0  0  0  0  0
   -0.3833    0.0945    0.0000 O   0  0  0  0  0  0  0  0  0  0  0  0
    4.1671    2.8699    0.0000 O   0  0  0  0  0  0  0  0  0  0  0  0
   -0.0813   -1.0325    0.0000 O   0  0  0  0  0  0  0  0  0  0  0  0
   -1.5103   -0.2075    0.0000 O   0  0  0  0  0  0  0  0  0  0  0  0
   -3.2708   -0.6200    0.0000 O   0  0  0  0  0  0  0  0  0  0  0  0
   -2.0333    0.0945    0.0000 O   0  0  0  0  0  0  0  0  0  0  0  0
   -4.5083    1.5234    0.0000 O   0  0  0  0  0  0  0  0  0  0  0  0
    1.4111    2.7206    0.0000 N   0  0  0  0  0  0  0  0  0  0  0  0
    2.4911    3.5052    0.0000 N   0  0  0  0  0  0  0  0  0  0  0  0
    2.1648    1.4152    0.0000 N   0  0  0  0  0  0  0  0  0  0  0  0
    3.5859    1.5645    0.0000 N   0  0  0  0  0  0  0  0  0  0  0  0
   -1.2083   -1.3344    0.0000 N   0  0  0  0  0  0  0  0  0  0  0  0
    3.0047    0.2591    0.0000 N   0  0  0  0  0  0  0  0  0  0  0  0
    0.6967    2.3081    0.0000 C   0  0  3  0  0  0  0  0  0  0  0  0
    0.0292    2.7930    0.0000 C   0  0  3  0  0  0  0  0  0  0  0  0
   -0.6382    2.3081    0.0000 C   0  0  3  0  0  0  0  0  0  0  0  0
    2.0786    2.2356    0.0000 C   0  0  0  0  0  0  0  0  0  0  0  0
   -0.3833    1.5234    0.0000 C   0  0  3  0  0  0  0  0  0  0  0  0
    2.7460    2.7206    0.0000 C   0  0  0  0  0  0  0  0  0  0  0  0
    1.6661    3.5052    0.0000 C   0  0  0  0  0  0  0  0  0  0  0  0
    3.4997    2.3850    0.0000 C   0  0  0  0  0  0  0  0  0  0  0  0
   -0.3833    3.5075    0.0000 C   0  0  0  0  0  0  0  0  0  0  0  0
   -0.7958    0.8090    0.0000 C   0  0  0  0  0  0  0  0  0  0  0  0
    2.9185    1.0796    0.0000 C   0  0  0  0  0  0  0  0  0  0  0  0
   -0.0813   -1.8575    0.0000 C   0  0  0  0  0  0  0  0  0  0  0  0
    0.6332   -2.2700    0.0000 C   0  0  0  0  0  0  0  0  0  0  0  0
    0.6332   -3.0950    0.0000 C   0  0  0  0  0  0  0  0  0  0  0  0
   -2.0333   -1.3344    0.0000 C   0  0  3  0  0  0  0  0  0  0  0  0
   -0.7958   -2.2700    0.0000 C   0  0  0  0  0  0  0  0  0  0  0  0
    4.9208    2.5344    0.0000 C   0  0  0  0  0  0  0  0  0  0  0  0
    1.3476   -1.8575    0.0000 C   0  0  0  0  0  0  0  0  0  0  0  0
   -0.0813   -3.5075    0.0000 C   0  0  0  0  0  0  0  0  0  0  0  0
   -2.4458   -0.6200    0.0000 C   0  0  0  0  0  0  0  0  0  0  0  0
   -0.7958   -3.0950    0.0000 C   0  0  0  0  0  0  0  0  0  0  0  0
    1.3476   -3.5075    0.0000 C   0  0  0  0  0  0  0  0  0  0  0  0
    2.0621   -2.2700    0.0000 C   0  0  0  0  0  0  0  0  0  0  0  0
    2.0621   -3.0950    0.0000 C   0  0  0  0  0  0  0  0  0  0  0  0
   -2.4458   -2.0489    0.0000 C   0  0  0  0  0  0  0  0  0  0  0  0
   -3.6833    0.0945    0.0000 C   0  0  0  0  0  0  0  0  0  0  0  0
   -4.5083    0.0945    0.0000 C   0  0  0  0  0  0  0  0  0  0  0  0
   -3.2708    0.8090    0.0000 C   0  0  0  0  0  0  0  0  0  0  0  0
   -3.6833    1.5234    0.0000 C   0  0  0  0  0  0  0  0  0  0  0  0
   -4.9208    0.8090    0.0000 C   0  0  0  0  0  0  0  0  0  0  0  0
  1  5  1  0  0  0  0
  1  7  1  0  0  0  0
  1  8  2  0  0  0  0
  1 16  1  0  0  0  0
 20  2  1  1  0  0  0
  3 18  1  0  0  0  0
  3 22  1  0  0  0  0
 19  4  1  1  0  0  0
  5 27  1  0  0  0  0
  6 25  1  0  0  0  0
  6 34  1  0  0  0  0
  7 29  1  0  0  0  0
  9 37  1  0  0  0  0
  9 43  1  0  0  0  0
 10 37  2  0  0  0  0
 11 46  1  0  0  0  0
 11 47  1  0  0  0  0
 12 18  1  0  0  0  0
 12 21  1  0  0  0  0
 12 24  1  0  0  0  0
 13 23  1  0  0  0  0
 13 24  2  0  0  0  0
 14 21  1  0  0  0  0
 14 28  2  0  0  0  0
 15 25  2  0  0  0  0
 15 28  1  0  0  0  0
 16 32  1  0  0  0  0
 17 28  1  0  0  0  0
 18 19  1  0  0  0  0
 19 20  1  0  0  0  0
 19 26  1  6  0  0  0
 20 22  1  0  0  0  0
 21 23  2  0  0  0  0
 22 27  1  6  0  0  0
 23 25  1  0  0  0  0
 29 30  1  0  0  0  0
 29 33  2  0  0  0  0
 30 31  2  0  0  0  0
 30 35  1  0  0  0  0
 31 36  1  0  0  0  0
 31 39  1  0  0  0  0
 32 37  1  0  0  0  0
 32 42  1  1  0  0  0
 33 38  1  0  0  0  0
 35 40  2  0  0  0  0
 36 38  2  0  0  0  0
 39 41  2  0  0  0  0
 40 41  1  0  0  0  0
 43 44  1  0  0  0  0
 43 45  1  0  0  0  0
 44 47  1  0  0  0  0
 45 46  1  0  0  0  0
M  END
> <PUBCHEM_COMPOUND_ID_TYPE>
0

> <PUBCHEM_TOTAL_CHARGE>
0

> <PUBCHEM_SUBSTANCE_ID>
310947552

> <PUBCHEM_SUBSTANCE_VERSION>
1

> <PUBCHEM_EXT_DATASOURCE_NAME>
4488

> <PUBCHEM_EXT_DATASOURCE_REGID>
SCHEMBL16125715

> <PUBCHEM_SUBSTANCE_COMMENT>
InChI=1S/C30H36FN6O9P/c1-17(27(38)44-19-11-13-42-14-12-19)36-47(40,46-21-10-6-8-18-7-4-5-9-20(18)21)43-15-22-24(31)30(2,39)28(45-22)37-16-33-23-25(37)34-29(32)35-26(23)41-3/h4-10,16-17,19,22,24,28,39H,11-15H2,1-3H3,(H,36,40)(H2,32,34,35)/t17-,22+,24+,28?,30+,47?/m0/s1
InChIKey=DNYFTPPFSRAPFL-WNUQEGRYSA-N

> <PUBCHEM_SUBSTANCE_SYNONYM>
SCHEMBL16125715

> <PUBCHEM_XREF_EXT_ID>
SCHEMBL16125715

> <PUBCHEM_EXT_DATASOURCE_URL>
https://www.surechembl.org/

> <PUBCHEM_EXT_SUBSTANCE_URL>
https://www.surechembl.org/chemical/SCHEMBL16125715

> <PUBCHEM_CID_ASSOCIATIONS>
117613274  1

> <PUBCHEM_COORDINATE_TYPE>
1
3

> <PUBCHEM_BONDANNOTATIONS>
19  26  6
20  2  5
22  27  6
32  42  5
19  4  5

$$$$
