310945419
  -OEChem-07211613022D

 35 38  0     0  0  0  0  0  0999 V2000
    3.6773    1.7244    0.0000 F   0  0  0  0  0  0  0  0  0  0  0  0
    3.1909    0.6632    0.0000 F   0  0  0  0  0  0  0  0  0  0  0  0
    2.1298    1.1643    0.0000 F   0  0  0  0  0  0  0  0  0  0  0  0
   -1.7613    2.7857    0.0000 O   0  0  0  0  0  0  0  0  0  0  0  0
   -3.4710   -2.5941    0.0000 O   0  0  0  0  0  0  0  0  0  0  0  0
   -3.6773   -1.1054    0.0000 O   0  0  0  0  0  0  0  0  0  0  0  0
    1.0981    2.0192    0.0000 N   0  0  0  0  0  0  0  0  0  0  0  0
    3.1467    2.9478    0.0000 N   0  0  0  0  0  0  0  0  0  0  0  0
   -0.3317   -0.4864    0.0000 N   0  0  0  0  0  0  0  0  0  0  0  0
   -1.7760   -1.3265    0.0000 N   0  0  0  0  0  0  0  0  0  0  0  0
    1.7760    2.5204    0.0000 C   0  0  0  0  0  0  0  0  0  0  0  0
    1.5107    3.2720    0.0000 C   0  0  0  0  0  0  0  0  0  0  0  0
    0.6854    3.3015    0.0000 C   0  0  0  0  0  0  0  0  0  0  0  0
    0.4054    2.5056    0.0000 C   0  0  0  0  0  0  0  0  0  0  0  0
    2.5867    2.3140    0.0000 C   0  0  0  0  0  0  0  0  0  0  0  0
    2.8962    1.4444    0.0000 C   0  0  0  0  0  0  0  0  0  0  0  0
    2.0708    3.9058    0.0000 C   0  0  0  0  0  0  0  0  0  0  0  0
   -0.3906    2.3582    0.0000 C   0  0  0  0  0  0  0  0  0  0  0  0
    0.1400    3.8911    0.0000 C   0  0  0  0  0  0  0  0  0  0  0  0
    1.0833    1.1496    0.0000 C   0  0  0  0  0  0  0  0  0  0  0  0
   -0.9359    2.9625    0.0000 C   0  0  0  0  0  0  0  0  0  0  0  0
    2.8962    3.7289    0.0000 C   0  0  0  0  0  0  0  0  0  0  0  0
   -0.6707    3.7437    0.0000 C   0  0  0  0  0  0  0  0  0  0  0  0
    0.3906    0.7369    0.0000 C   0  0  0  0  0  0  0  0  0  0  0  0
    0.3759   -0.1032    0.0000 C   0  0  0  0  0  0  0  0  0  0  0  0
   -0.3464   -1.3265    0.0000 C   0  0  0  0  0  0  0  0  0  0  0  0
   -1.0539   -0.0737    0.0000 C   0  0  0  0  0  0  0  0  0  0  0  0
   -3.1615   -1.7391    0.0000 C   0  0  0  0  0  0  0  0  0  0  0  0
   -2.3508    3.3457    0.0000 C   0  0  0  0  0  0  0  0  0  0  0  0
   -1.0391   -1.7391    0.0000 C   0  0  0  0  0  0  0  0  0  0  0  0
   -1.7613   -0.4864    0.0000 C   0  0  0  0  0  0  0  0  0  0  0  0
   -2.9404   -3.2720    0.0000 C   0  0  0  0  0  0  0  0  0  0  0  0
   -3.5004   -3.7879    0.0000 C   0  0  0  0  0  0  0  0  0  0  0  0
   -2.3214   -2.7415    0.0000 C   0  0  0  0  0  0  0  0  0  0  0  0
   -2.3803   -3.9058    0.0000 C   0  0  0  0  0  0  0  0  0  0  0  0
  1 16  1  0  0  0  0
  2 16  1  0  0  0  0
  3 16  1  0  0  0  0
  4 21  1  0  0  0  0
  4 29  1  0  0  0  0
  5 28  1  0  0  0  0
  5 32  1  0  0  0  0
  6 28  2  0  0  0  0
  7 11  1  0  0  0  0
  7 14  1  0  0  0  0
  7 20  1  0  0  0  0
  8 15  2  0  0  0  0
  8 22  1  0  0  0  0
  9 25  1  0  0  0  0
  9 26  1  0  0  0  0
  9 27  1  0  0  0  0
 10 28  1  0  0  0  0
 10 30  1  0  0  0  0
 10 31  1  0  0  0  0
 11 12  2  0  0  0  0
 11 15  1  0  0  0  0
 12 13  1  0  0  0  0
 12 17  1  0  0  0  0
 13 14  2  0  0  0  0
 13 19  1  0  0  0  0
 14 18  1  0  0  0  0
 15 16  1  0  0  0  0
 17 22  2  0  0  0  0
 18 21  2  0  0  0  0
 19 23  2  0  0  0  0
 20 24  1  0  0  0  0
 21 23  1  0  0  0  0
 24 25  1  0  0  0  0
 26 30  1  0  0  0  0
 27 31  1  0  0  0  0
 32 33  1  0  0  0  0
 32 34  1  0  0  0  0
 32 35  1  0  0  0  0
M  END
> <PUBCHEM_COMPOUND_ID_TYPE>
0

> <PUBCHEM_TOTAL_CHARGE>
0

> <PUBCHEM_SUBSTANCE_ID>
310945419

> <PUBCHEM_SUBSTANCE_VERSION>
1

> <PUBCHEM_EXT_DATASOURCE_NAME>
4488

> <PUBCHEM_EXT_DATASOURCE_REGID>
SCHEMBL16123517

> <PUBCHEM_SUBSTANCE_COMMENT>
InChI=1S/C25H31F3N4O3/c1-24(2,3)35-23(33)31-14-12-30(13-15-31)10-5-11-32-20-16-17(34-4)6-7-18(20)19-8-9-29-22(21(19)32)25(26,27)28/h6-9,16H,5,10-15H2,1-4H3
InChIKey=JEACNILVHRPQKV-UHFFFAOYSA-N

> <PUBCHEM_SUBSTANCE_SYNONYM>
SCHEMBL16123517

> <PUBCHEM_XREF_EXT_ID>
SCHEMBL16123517

> <PUBCHEM_EXT_DATASOURCE_URL>
https://www.surechembl.org/

> <PUBCHEM_EXT_SUBSTANCE_URL>
https://www.surechembl.org/chemical/SCHEMBL16123517

> <PUBCHEM_CID_ASSOCIATIONS>
117611465  1

> <PUBCHEM_COORDINATE_TYPE>
1
3

$$$$
