310947075
  -OEChem-07211613022D

 42 46  0     1  0  0  0  0  0999 V2000
   -1.8606   -3.8588    0.0000 S   0  0  0  0  0  0  0  0  0  0  0  0
   -0.6472    2.5321    0.0000 O   0  0  0  0  0  0  0  0  0  0  0  0
   -1.4238   -1.6099    0.0000 O   0  0  0  0  0  0  0  0  0  0  0  0
   -0.9870    4.1501    0.0000 O   0  0  0  0  0  0  0  0  0  0  0  0
   -2.4755   -3.3088    0.0000 O   0  0  0  0  0  0  0  0  0  0  0  0
   -2.4108   -4.4737    0.0000 O   0  0  0  0  0  0  0  0  0  0  0  0
    0.4045    4.4413    0.0000 O   0  0  0  0  0  0  0  0  0  0  0  0
   -0.0162   -5.4930    0.0000 O   0  0  0  0  0  0  0  0  0  0  0  0
    0.0647    0.7038    0.0000 N   0  0  0  0  0  0  0  0  0  0  0  0
    0.5501    0.0405    0.0000 N   0  0  0  0  0  0  0  0  0  0  0  0
    0.3236   -1.3995    0.0000 N   0  0  0  0  0  0  0  0  0  0  0  0
   -2.1357   -0.3802    0.0000 N   0  0  0  0  0  0  0  0  0  0  0  0
   -1.2459   -4.4089    0.0000 N   0  0  0  0  0  0  0  0  0  0  0  0
    2.4755    1.2216    0.0000 N   0  0  0  0  0  0  0  0  0  0  0  0
    0.3074    1.4966    0.0000 C   0  0  3  0  0  0  0  0  0  0  0  0
   -0.7119    0.4449    0.0000 C   0  0  0  0  0  0  0  0  0  0  0  0
   -0.7281   -0.3802    0.0000 C   0  0  0  0  0  0  0  0  0  0  0  0
    0.0647   -0.6229    0.0000 C   0  0  0  0  0  0  0  0  0  0  0  0
   -1.4077   -0.7685    0.0000 C   0  0  0  0  0  0  0  0  0  0  0  0
   -0.4692    1.7393    0.0000 C   0  0  0  0  0  0  0  0  0  0  0  0
    0.9223    2.0144    0.0000 C   0  0  0  0  0  0  0  0  0  0  0  0
   -1.4400    0.8495    0.0000 C   0  0  0  0  0  0  0  0  0  0  0  0
    0.8575    0.8818    0.0000 C   0  0  0  0  0  0  0  0  0  0  0  0
   -0.0323    3.0822    0.0000 C   0  0  3  0  0  0  0  0  0  0  0  0
   -0.2103   -2.0306    0.0000 C   0  0  0  0  0  0  0  0  0  0  0  0
    0.7605    2.8395    0.0000 C   0  0  0  0  0  0  0  0  0  0  0  0
   -2.1195    0.4449    0.0000 C   0  0  0  0  0  0  0  0  0  0  0  0
   -1.3106   -3.2440    0.0000 C   0  0  0  0  0  0  0  0  0  0  0  0
   -0.2103    3.8912    0.0000 C   0  0  0  0  0  0  0  0  0  0  0  0
    1.6503    1.0274    0.0000 C   0  0  0  0  0  0  0  0  0  0  0  0
   -1.0031   -1.8688    0.0000 C   0  0  0  0  0  0  0  0  0  0  0  0
    0.0323   -2.8071    0.0000 C   0  0  0  0  0  0  0  0  0  0  0  0
   -1.5532   -2.4512    0.0000 C   0  0  0  0  0  0  0  0  0  0  0  0
   -0.5016   -3.4058    0.0000 C   0  0  0  0  0  0  0  0  0  0  0  0
   -1.4077   -5.2179    0.0000 C   0  0  0  0  0  0  0  0  0  0  0  0
   -0.4854   -4.1501    0.0000 C   0  0  0  0  0  0  0  0  0  0  0  0
   -1.1649    4.9591    0.0000 C   0  0  0  0  0  0  0  0  0  0  0  0
   -0.7766   -5.7518    0.0000 C   0  0  0  0  0  0  0  0  0  0  0  0
    0.1456   -4.7002    0.0000 C   0  0  0  0  0  0  0  0  0  0  0  0
   -1.3429    5.7518    0.0000 C   0  0  0  0  0  0  0  0  0  0  0  0
   -1.9416    5.1694    0.0000 C   0  0  0  0  0  0  0  0  0  0  0  0
   -0.5177    5.4930    0.0000 C   0  0  0  0  0  0  0  0  0  0  0  0
  1  5  2  0  0  0  0
  1  6  2  0  0  0  0
  1 13  1  0  0  0  0
  1 28  1  0  0  0  0
  2 20  1  0  0  0  0
  2 24  1  0  0  0  0
  3 19  2  0  0  0  0
  4 29  1  0  0  0  0
  4 37  1  0  0  0  0
  7 29  2  0  0  0  0
  8 38  1  0  0  0  0
  8 39  1  0  0  0  0
  9 10  1  0  0  0  0
  9 15  1  0  0  0  0
  9 16  1  0  0  0  0
 10 18  2  0  0  0  0
 11 18  1  0  0  0  0
 11 25  1  0  0  0  0
 12 19  1  0  0  0  0
 12 27  1  0  0  0  0
 13 35  1  0  0  0  0
 13 36  1  0  0  0  0
 14 30  3  0  0  0  0
 15 20  1  0  0  0  0
 15 21  1  0  0  0  0
 15 23  1  6  0  0  0
 16 17  2  0  0  0  0
 16 22  1  0  0  0  0
 17 18  1  0  0  0  0
 17 19  1  0  0  0  0
 21 26  1  0  0  0  0
 22 27  2  0  0  0  0
 23 30  1  0  0  0  0
 24 26  1  0  0  0  0
 24 29  1  6  0  0  0
 25 31  2  0  0  0  0
 25 32  1  0  0  0  0
 28 33  2  0  0  0  0
 28 34  1  0  0  0  0
 31 33  1  0  0  0  0
 32 34  2  0  0  0  0
 35 38  1  0  0  0  0
 36 39  1  0  0  0  0
 37 40  1  0  0  0  0
 37 41  1  0  0  0  0
 37 42  1  0  0  0  0
M  END
> <PUBCHEM_COMPOUND_ID_TYPE>
0

> <PUBCHEM_TOTAL_CHARGE>
0

> <PUBCHEM_SUBSTANCE_ID>
310947075

> <PUBCHEM_SUBSTANCE_VERSION>
1

> <PUBCHEM_EXT_DATASOURCE_NAME>
4488

> <PUBCHEM_EXT_DATASOURCE_REGID>
SCHEMBL16125229

> <PUBCHEM_SUBSTANCE_COMMENT>
InChI=1S/C28H34N6O7S/c1-27(2,3)41-26(36)22-8-10-28(11-12-29,18-40-22)34-21-9-13-30-25(35)23(21)24(32-34)31-19-4-6-20(7-5-19)42(37,38)33-14-16-39-17-15-33/h4-7,9,13,22H,8,10-11,14-18H2,1-3H3,(H,30,35)(H,31,32)/t22-,28-/m0/s1
InChIKey=LROQWJDPVSQTKS-DWACAAAGSA-N

> <PUBCHEM_SUBSTANCE_SYNONYM>
SCHEMBL16125229

> <PUBCHEM_XREF_EXT_ID>
SCHEMBL16125229

> <PUBCHEM_EXT_DATASOURCE_URL>
https://www.surechembl.org/

> <PUBCHEM_EXT_SUBSTANCE_URL>
https://www.surechembl.org/chemical/SCHEMBL16125229

> <PUBCHEM_CID_ASSOCIATIONS>
117612927  1

> <PUBCHEM_COORDINATE_TYPE>
1
3

> <PUBCHEM_BONDANNOTATIONS>
15  23  6
24  29  6

$$$$
