310941479
  -OEChem-07211613022D

 31 33  0     0  0  0  0  0  0999 V2000
   -2.1779   -0.9711    0.0000 O   0  0  0  0  0  0  0  0  0  0  0  0
    2.1590   -0.9711    0.0000 O   0  0  0  0  0  0  0  0  0  0  0  0
   -4.6669   -0.3677    0.0000 O   0  0  0  0  0  0  0  0  0  0  0  0
    4.6669   -0.3677    0.0000 O   0  0  0  0  0  0  0  0  0  0  0  0
   -1.4613   -2.2344    0.0000 O   0  0  0  0  0  0  0  0  0  0  0  0
    1.4425   -2.2344    0.0000 O   0  0  0  0  0  0  0  0  0  0  0  0
   -3.6864   -0.9522    0.0000 C   0  0  0  0  0  0  0  0  0  0  0  0
    3.6110   -0.9333    0.0000 C   0  0  0  0  0  0  0  0  0  0  0  0
   -0.7825   -0.9522    0.0000 C   0  0  0  0  0  0  0  0  0  0  0  0
    0.6694   -0.9333    0.0000 C   0  0  0  0  0  0  0  0  0  0  0  0
   -0.0283    0.3111    0.0000 C   0  0  0  0  0  0  0  0  0  0  0  0
   -0.0283   -1.3482    0.0000 C   0  0  0  0  0  0  0  0  0  0  0  0
   -1.4613   -1.3482    0.0000 C   0  0  0  0  0  0  0  0  0  0  0  0
    1.4237   -1.3482    0.0000 C   0  0  0  0  0  0  0  0  0  0  0  0
   -0.7260   -0.0849    0.0000 C   0  0  0  0  0  0  0  0  0  0  0  0
    0.6882   -0.0849    0.0000 C   0  0  0  0  0  0  0  0  0  0  0  0
   -2.9321   -1.3671    0.0000 C   0  0  0  0  0  0  0  0  0  0  0  0
    2.9133   -1.3671    0.0000 C   0  0  0  0  0  0  0  0  0  0  0  0
   -4.4783   -1.1408    0.0000 C   0  0  0  0  0  0  0  0  0  0  0  0
   -3.8750   -0.1602    0.0000 C   0  0  0  0  0  0  0  0  0  0  0  0
    3.8372   -0.1414    0.0000 C   0  0  0  0  0  0  0  0  0  0  0  0
    4.4218   -1.1597    0.0000 C   0  0  0  0  0  0  0  0  0  0  0  0
   -0.0283    1.1785    0.0000 C   0  0  0  0  0  0  0  0  0  0  0  0
   -3.0264   -0.4620    0.0000 C   0  0  0  0  0  0  0  0  0  0  0  0
    2.9321   -0.4054    0.0000 C   0  0  0  0  0  0  0  0  0  0  0  0
    0.6882    1.5933    0.0000 C   0  0  0  0  0  0  0  0  0  0  0  0
   -0.7448    1.5745    0.0000 C   0  0  0  0  0  0  0  0  0  0  0  0
   -3.0453    0.4242    0.0000 C   0  0  0  0  0  0  0  0  0  0  0  0
    2.9510    0.4242    0.0000 C   0  0  0  0  0  0  0  0  0  0  0  0
    0.6882    2.2344    0.0000 C   0  0  0  0  0  0  0  0  0  0  0  0
   -0.6882    2.2344    0.0000 C   0  0  0  0  0  0  0  0  0  0  0  0
  1 13  1  0  0  0  0
  1 17  1  0  0  0  0
  2 14  1  0  0  0  0
  2 18  1  0  0  0  0
  3 19  1  0  0  0  0
  3 20  1  0  0  0  0
  4 21  1  0  0  0  0
  4 22  1  0  0  0  0
  5 13  2  0  0  0  0
  6 14  2  0  0  0  0
  7 17  1  0  0  0  0
  7 19  1  0  0  0  0
  7 20  1  0  0  0  0
  7 24  1  0  0  0  0
  8 18  1  0  0  0  0
  8 21  1  0  0  0  0
  8 22  1  0  0  0  0
  8 25  1  0  0  0  0
  9 12  2  0  0  0  0
  9 13  1  0  0  0  0
  9 15  1  0  0  0  0
 10 12  1  0  0  0  0
 10 14  1  0  0  0  0
 10 16  2  0  0  0  0
 11 15  2  0  0  0  0
 11 16  1  0  0  0  0
 11 23  1  0  0  0  0
 23 26  2  0  0  0  0
 23 27  1  0  0  0  0
 24 28  1  0  0  0  0
 25 29  1  0  0  0  0
 26 30  1  0  0  0  0
 27 31  2  0  0  0  0
M  END
> <PUBCHEM_COMPOUND_ID_TYPE>
0

> <PUBCHEM_TOTAL_CHARGE>
0

> <PUBCHEM_SUBSTANCE_ID>
310941479

> <PUBCHEM_SUBSTANCE_VERSION>
1

> <PUBCHEM_EXT_DATASOURCE_NAME>
4488

> <PUBCHEM_EXT_DATASOURCE_REGID>
SCHEMBL16119510

> <PUBCHEM_SUBSTANCE_COMMENT>
InChI=1S/C25H32O6/c1-5-18(6-2)19-9-20(22(26)30-16-24(7-3)12-28-13-24)11-21(10-19)23(27)31-17-25(8-4)14-29-15-25/h5-6,9-11H,1,7-8,12-17H2,2-4H3/b18-6+
InChIKey=JBPPDSIHZMOLPS-NGYBGAFCSA-N

> <PUBCHEM_SUBSTANCE_SYNONYM>
SCHEMBL16119510

> <PUBCHEM_XREF_EXT_ID>
SCHEMBL16119510

> <PUBCHEM_EXT_DATASOURCE_URL>
https://www.surechembl.org/

> <PUBCHEM_EXT_SUBSTANCE_URL>
https://www.surechembl.org/chemical/SCHEMBL16119510

> <PUBCHEM_CID_ASSOCIATIONS>
117608301  1

> <PUBCHEM_COORDINATE_TYPE>
1
3

$$$$
