310936688
  -OEChem-07211613022D

 43 47  0     1  0  0  0  0  0999 V2000
   -0.3956    6.9500    0.0000 F   0  0  0  0  0  0  0  0  0  0  0  0
    0.3481    6.0511    0.0000 F   0  0  0  0  0  0  0  0  0  0  0  0
   -1.2945    6.2063    0.0000 F   0  0  0  0  0  0  0  0  0  0  0  0
   -2.8788    3.4557    0.0000 F   0  0  0  0  0  0  0  0  0  0  0  0
   -1.7853    3.0490    0.0000 F   0  0  0  0  0  0  0  0  0  0  0  0
   -2.4721    4.5493    0.0000 F   0  0  0  0  0  0  0  0  0  0  0  0
    0.7251    2.7053    0.0000 O   0  0  0  0  0  0  0  0  0  0  0  0
    2.4327   -0.9876    0.0000 O   0  0  0  0  0  0  0  0  0  0  0  0
    1.7755    1.6766    0.0000 O   0  0  0  0  0  0  0  0  0  0  0  0
    5.2751    4.5944    0.0000 O   0  0  0  0  0  0  0  0  0  0  0  0
    1.9903    3.1310    0.0000 N   0  0  0  0  0  0  0  0  0  0  0  0
    2.8302    1.7108    0.0000 N   0  0  0  0  0  0  0  0  0  0  0  0
    4.4651    3.1569    0.0000 N   0  0  0  0  0  0  0  0  0  0  0  0
    4.4801    1.7281    0.0000 N   0  0  0  0  0  0  0  0  0  0  0  0
    2.1777   -0.2030    0.0000 N   0  0  0  0  0  0  0  0  0  0  0  0
    0.7165    3.5302    0.0000 C   0  0  3  0  0  0  0  0  0  0  0  0
    1.4984    3.7934    0.0000 C   0  0  3  0  0  0  0  0  0  0  0  0
    0.0440    4.0081    0.0000 C   0  0  0  0  0  0  0  0  0  0  0  0
    3.2352    2.4296    0.0000 C   0  0  0  0  0  0  0  0  0  0  0  0
    2.8452    0.2819    0.0000 C   0  0  3  0  0  0  0  0  0  0  0  0
    3.2502    1.0007    0.0000 C   0  0  0  0  0  0  0  0  0  0  0  0
    1.5124    2.4585    0.0000 C   0  0  0  0  0  0  0  0  0  0  0  0
    4.0601    2.4382    0.0000 C   0  0  0  0  0  0  0  0  0  0  0  0
    2.8152    3.1397    0.0000 C   0  0  0  0  0  0  0  0  0  0  0  0
   -0.5508    5.3074    0.0000 C   0  0  0  0  0  0  0  0  0  0  0  0
   -1.3786    4.1426    0.0000 C   0  0  0  0  0  0  0  0  0  0  0  0
   -0.7061    3.6647    0.0000 C   0  0  0  0  0  0  0  0  0  0  0  0
    0.1216    4.8295    0.0000 C   0  0  0  0  0  0  0  0  0  0  0  0
    4.0751    1.0093    0.0000 C   0  0  0  0  0  0  0  0  0  0  0  0
   -1.3010    4.9639    0.0000 C   0  0  0  0  0  0  0  0  0  0  0  0
   -0.4732    6.1287    0.0000 C   0  0  0  0  0  0  0  0  0  0  0  0
   -2.1287    3.7992    0.0000 C   0  0  0  0  0  0  0  0  0  0  0  0
    3.5126   -0.2030    0.0000 C   0  0  0  0  0  0  0  0  0  0  0  0
    3.2577   -0.9876    0.0000 C   0  0  0  0  0  0  0  0  0  0  0  0
    1.7451    4.5806    0.0000 C   0  0  0  0  0  0  0  0  0  0  0  0
    2.4402    1.0007    0.0000 C   0  0  0  0  0  0  0  0  0  0  0  0
    5.2901    3.1656    0.0000 C   0  0  0  0  0  0  0  0  0  0  0  0
    4.0452    3.8671    0.0000 C   0  0  0  0  0  0  0  0  0  0  0  0
    5.6951    3.8843    0.0000 C   0  0  3  0  0  0  0  0  0  0  0  0
    4.4502    4.5858    0.0000 C   0  0  3  0  0  0  0  0  0  0  0  0
    3.7426   -1.6550    0.0000 C   0  0  0  0  0  0  0  0  0  0  0  0
    4.0302    5.2959    0.0000 C   0  0  0  0  0  0  0  0  0  0  0  0
    6.5200    3.8930    0.0000 C   0  0  0  0  0  0  0  0  0  0  0  0
  1 31  1  0  0  0  0
  2 31  1  0  0  0  0
  3 31  1  0  0  0  0
  4 32  1  0  0  0  0
  5 32  1  0  0  0  0
  6 32  1  0  0  0  0
  7 16  1  0  0  0  0
  7 22  1  0  0  0  0
  8 15  1  0  0  0  0
  8 34  1  0  0  0  0
  9 22  2  0  0  0  0
 10 39  1  0  0  0  0
 10 40  1  0  0  0  0
 11 17  1  0  0  0  0
 11 22  1  0  0  0  0
 11 24  1  0  0  0  0
 12 19  2  0  0  0  0
 12 21  1  0  0  0  0
 13 23  1  0  0  0  0
 13 37  1  0  0  0  0
 13 38  1  0  0  0  0
 14 23  2  0  0  0  0
 14 29  1  0  0  0  0
 15 20  1  0  0  0  0
 16 17  1  0  0  0  0
 16 18  1  1  0  0  0
 17 35  1  6  0  0  0
 18 27  2  0  0  0  0
 18 28  1  0  0  0  0
 19 23  1  0  0  0  0
 19 24  1  0  0  0  0
 20 21  1  0  0  0  0
 20 33  1  0  0  0  0
 20 36  1  0  0  0  0
 21 29  2  0  0  0  0
 25 28  2  0  0  0  0
 25 30  1  0  0  0  0
 25 31  1  0  0  0  0
 26 27  1  0  0  0  0
 26 30  2  0  0  0  0
 26 32  1  0  0  0  0
 33 34  2  0  0  0  0
 34 41  1  0  0  0  0
 37 39  1  0  0  0  0
 38 40  1  0  0  0  0
 39 43  1  0  0  0  0
 40 42  1  0  0  0  0
M  END
> <PUBCHEM_COMPOUND_ID_TYPE>
0

> <PUBCHEM_TOTAL_CHARGE>
0

> <PUBCHEM_SUBSTANCE_ID>
310936688

> <PUBCHEM_SUBSTANCE_VERSION>
1

> <PUBCHEM_EXT_DATASOURCE_NAME>
4488

> <PUBCHEM_EXT_DATASOURCE_REGID>
SCHEMBL16114362

> <PUBCHEM_SUBSTANCE_COMMENT>
InChI=1S/C28H31F6N5O4/c1-14-9-26(5,37-43-14)22-10-35-24(38-11-15(2)41-16(3)12-38)21(36-22)13-39-17(4)23(42-25(39)40)18-6-19(27(29,30)31)8-20(7-18)28(32,33)34/h6-10,15-17,23,37H,11-13H2,1-5H3/t15?,16?,17-,23+,26?/m0/s1
InChIKey=DHCLKYHBVPQHSW-PKQRRFNYSA-N

> <PUBCHEM_SUBSTANCE_SYNONYM>
SCHEMBL16114362

> <PUBCHEM_XREF_EXT_ID>
SCHEMBL16114362

> <PUBCHEM_EXT_DATASOURCE_URL>
https://www.surechembl.org/

> <PUBCHEM_EXT_SUBSTANCE_URL>
https://www.surechembl.org/chemical/SCHEMBL16114362

> <PUBCHEM_CID_ASSOCIATIONS>
117604593  1

> <PUBCHEM_COORDINATE_TYPE>
1
3

> <PUBCHEM_BONDANNOTATIONS>
16  18  5
17  35  6

$$$$
