310949651
  -OEChem-07211613022D

 23 24  0     0  0  0  0  0  0999 V2000
    3.7552   -1.0739    0.0000 Cl  0  0  0  0  0  0  0  0  0  0  0  0
    1.6767    1.0601    0.0000 O   0  0  0  0  0  0  0  0  0  0  0  0
    2.5081    1.0601    0.0000 O   0  0  0  0  0  0  0  0  0  0  0  0
    3.7552    0.3533    0.0000 O   0  0  0  0  0  0  0  0  0  0  0  0
   -3.7552    1.7806    0.0000 O   0  0  0  0  0  0  0  0  0  0  0  0
   -3.7552    0.3533    0.0000 O   0  0  0  0  0  0  0  0  0  0  0  0
    0.4157    0.3533    0.0000 N   0  0  0  0  0  0  0  0  0  0  0  0
    2.4942   -0.3533    0.0000 C   0  0  0  0  0  0  0  0  0  0  0  0
    1.6767   -0.3533    0.0000 C   0  0  0  0  0  0  0  0  0  0  0  0
    2.9100   -1.0601    0.0000 C   0  0  0  0  0  0  0  0  0  0  0  0
    1.2471    0.3395    0.0000 C   0  0  0  0  0  0  0  0  0  0  0  0
    2.9238    0.3395    0.0000 C   0  0  0  0  0  0  0  0  0  0  0  0
    1.2748   -1.0878    0.0000 C   0  0  0  0  0  0  0  0  0  0  0  0
    2.5081   -1.7806    0.0000 C   0  0  0  0  0  0  0  0  0  0  0  0
    1.6767   -1.7806    0.0000 C   0  0  0  0  0  0  0  0  0  0  0  0
   -0.8314    1.0739    0.0000 C   0  0  0  0  0  0  0  0  0  0  0  0
    0.0138    1.0462    0.0000 C   0  0  0  0  0  0  0  0  0  0  0  0
   -2.5081    1.0601    0.0000 C   0  0  0  0  0  0  0  0  0  0  0  0
   -1.2610    1.7806    0.0000 C   0  0  0  0  0  0  0  0  0  0  0  0
   -1.2610    0.3533    0.0000 C   0  0  0  0  0  0  0  0  0  0  0  0
   -2.0785    1.7667    0.0000 C   0  0  0  0  0  0  0  0  0  0  0  0
   -2.0924    0.3672    0.0000 C   0  0  0  0  0  0  0  0  0  0  0  0
   -3.3257    1.0601    0.0000 C   0  0  0  0  0  0  0  0  0  0  0  0
  1 10  1  0  0  0  0
  2 11  2  0  0  0  0
  3 12  2  0  0  0  0
  4 12  1  0  0  0  0
  5 23  2  0  0  0  0
  6 23  1  0  0  0  0
  7 11  1  0  0  0  0
  7 17  1  0  0  0  0
  8  9  2  0  0  0  0
  8 10  1  0  0  0  0
  8 12  1  0  0  0  0
  9 11  1  0  0  0  0
  9 13  1  0  0  0  0
 10 14  2  0  0  0  0
 13 15  2  0  0  0  0
 14 15  1  0  0  0  0
 16 17  1  0  0  0  0
 16 19  2  0  0  0  0
 16 20  1  0  0  0  0
 18 21  2  0  0  0  0
 18 22  1  0  0  0  0
 18 23  1  0  0  0  0
 19 21  1  0  0  0  0
 20 22  2  0  0  0  0
M  END
> <PUBCHEM_COMPOUND_ID_TYPE>
0

> <PUBCHEM_TOTAL_CHARGE>
0

> <PUBCHEM_SUBSTANCE_ID>
310949651

> <PUBCHEM_SUBSTANCE_VERSION>
1

> <PUBCHEM_EXT_DATASOURCE_NAME>
4488

> <PUBCHEM_EXT_DATASOURCE_REGID>
SCHEMBL16127849

> <PUBCHEM_SUBSTANCE_COMMENT>
InChI=1S/C16H12ClNO5/c17-12-3-1-2-11(13(12)16(22)23)14(19)18-8-9-4-6-10(7-5-9)15(20)21/h1-7H,8H2,(H,18,19)(H,20,21)(H,22,23)
InChIKey=HILPSMGVPJJCPP-UHFFFAOYSA-N

> <PUBCHEM_SUBSTANCE_SYNONYM>
SCHEMBL16127849

> <PUBCHEM_XREF_EXT_ID>
SCHEMBL16127849

> <PUBCHEM_EXT_DATASOURCE_URL>
https://www.surechembl.org/

> <PUBCHEM_EXT_SUBSTANCE_URL>
https://www.surechembl.org/chemical/SCHEMBL16127849

> <PUBCHEM_CID_ASSOCIATIONS>
117615029  1

> <PUBCHEM_COORDINATE_TYPE>
1
3

$$$$
