310940699
  -OEChem-07211613022D

 24 26  0     0  0  0  0  0  0999 V2000
    0.0137    1.8640    0.0000 O   0  0  0  0  0  0  0  0  0  0  0  0
   -0.6828    0.6213    0.0000 N   0  0  0  0  0  0  0  0  0  0  0  0
    0.7510    0.6213    0.0000 N   0  0  0  0  0  0  0  0  0  0  0  0
   -0.6828   -1.8640    0.0000 N   0  0  0  0  0  0  0  0  0  0  0  0
   -0.7374   -0.1980    0.0000 C   0  0  0  0  0  0  0  0  0  0  0  0
   -0.0137    1.0310    0.0000 C   0  0  0  0  0  0  0  0  0  0  0  0
   -1.4612    1.0310    0.0000 C   0  0  0  0  0  0  0  0  0  0  0  0
   -2.1576    0.6213    0.0000 C   0  0  0  0  0  0  0  0  0  0  0  0
   -1.4339   -0.6213    0.0000 C   0  0  0  0  0  0  0  0  0  0  0  0
    0.0000   -0.6213    0.0000 C   0  0  0  0  0  0  0  0  0  0  0  0
    1.4339    1.0310    0.0000 C   0  0  0  0  0  0  0  0  0  0  0  0
   -2.8813    1.0174    0.0000 C   0  0  0  0  0  0  0  0  0  0  0  0
   -2.1712   -0.1980    0.0000 C   0  0  0  0  0  0  0  0  0  0  0  0
    2.1712    0.6213    0.0000 C   0  0  0  0  0  0  0  0  0  0  0  0
   -1.4339   -1.4543    0.0000 C   0  0  0  0  0  0  0  0  0  0  0  0
    0.0000   -1.4543    0.0000 C   0  0  0  0  0  0  0  0  0  0  0  0
   -3.6051    0.6076    0.0000 C   0  0  0  0  0  0  0  0  0  0  0  0
   -2.8949   -0.6076    0.0000 C   0  0  0  0  0  0  0  0  0  0  0  0
    2.1712   -0.2116    0.0000 C   0  0  0  0  0  0  0  0  0  0  0  0
    2.8813    1.0174    0.0000 C   0  0  0  0  0  0  0  0  0  0  0  0
   -3.6051   -0.1980    0.0000 C   0  0  0  0  0  0  0  0  0  0  0  0
    2.8949   -0.6076    0.0000 C   0  0  0  0  0  0  0  0  0  0  0  0
    3.6051    0.6213    0.0000 C   0  0  0  0  0  0  0  0  0  0  0  0
    3.6051   -0.1980    0.0000 C   0  0  0  0  0  0  0  0  0  0  0  0
  1  6  2  0  0  0  0
  2  5  1  0  0  0  0
  2  6  1  0  0  0  0
  2  7  1  0  0  0  0
  3  6  1  0  0  0  0
  3 11  1  0  0  0  0
  4 15  1  0  0  0  0
  4 16  1  0  0  0  0
  5  9  1  0  0  0  0
  5 10  1  0  0  0  0
  7  8  1  0  0  0  0
  8 12  2  0  0  0  0
  8 13  1  0  0  0  0
  9 15  1  0  0  0  0
 10 16  1  0  0  0  0
 11 14  1  0  0  0  0
 12 17  1  0  0  0  0
 13 18  2  0  0  0  0
 14 19  2  0  0  0  0
 14 20  1  0  0  0  0
 17 21  2  0  0  0  0
 18 21  1  0  0  0  0
 19 22  1  0  0  0  0
 20 23  2  0  0  0  0
 22 24  2  0  0  0  0
 23 24  1  0  0  0  0
M  END
> <PUBCHEM_COMPOUND_ID_TYPE>
0

> <PUBCHEM_TOTAL_CHARGE>
0

> <PUBCHEM_SUBSTANCE_ID>
310940699

> <PUBCHEM_SUBSTANCE_VERSION>
1

> <PUBCHEM_EXT_DATASOURCE_NAME>
4488

> <PUBCHEM_EXT_DATASOURCE_REGID>
SCHEMBL16118655

> <PUBCHEM_SUBSTANCE_COMMENT>
InChI=1S/C20H25N3O/c24-20(22-15-17-7-3-1-4-8-17)23(19-11-13-21-14-12-19)16-18-9-5-2-6-10-18/h1-10,19,21H,11-16H2,(H,22,24)
InChIKey=FXGITLYUJLATST-UHFFFAOYSA-N

> <PUBCHEM_SUBSTANCE_SYNONYM>
SCHEMBL16118655

> <PUBCHEM_XREF_EXT_ID>
SCHEMBL16118655

> <PUBCHEM_EXT_DATASOURCE_URL>
https://www.surechembl.org/

> <PUBCHEM_EXT_SUBSTANCE_URL>
https://www.surechembl.org/chemical/SCHEMBL16118655

> <PUBCHEM_CID_ASSOCIATIONS>
117607660  1

> <PUBCHEM_COORDINATE_TYPE>
1
3

$$$$
