310938215
  -OEChem-07211613022D

 15 16  0     0  0  0  0  0  0999 V2000
    5.3240   -2.9104    0.0000 O   0  0  0  0  0  0  0  0  0  0  0  0
    5.3240   -1.4730    0.0000 O   0  0  0  0  0  0  0  0  0  0  0  0
    3.6203   -2.8572    0.0000 N   0  0  0  0  0  0  0  0  0  0  0  0
    0.8518   -0.3549    0.0000 N   0  0  0  0  0  0  0  0  0  0  0  0
    2.8394   -1.7924    0.0000 C   0  0  0  0  0  0  0  0  0  0  0  0
    2.1651   -1.3132    0.0000 C   0  0  0  0  0  0  0  0  0  0  0  0
    4.0994   -2.1828    0.0000 C   0  0  0  0  0  0  0  0  0  0  0  0
    3.6203   -1.5262    0.0000 C   0  0  0  0  0  0  0  0  0  0  0  0
    2.8394   -2.5910    0.0000 C   0  0  0  0  0  0  0  0  0  0  0  0
    4.9158   -2.1828    0.0000 C   0  0  0  0  0  0  0  0  0  0  0  0
    1.4197   -1.6682    0.0000 C   0  0  0  0  0  0  0  0  0  0  0  0
    2.2538   -0.5146    0.0000 C   0  0  0  0  0  0  0  0  0  0  0  0
    0.7454   -1.1535    0.0000 C   0  0  0  0  0  0  0  0  0  0  0  0
    1.5972    0.0000    0.0000 C   0  0  0  0  0  0  0  0  0  0  0  0
    0.0000   -1.4730    0.0000 C   0  0  0  0  0  0  0  0  0  0  0  0
  1 10  2  0  0  0  0
  2 10  1  0  0  0  0
  3  7  1  0  0  0  0
  3  9  1  0  0  0  0
  4 13  1  0  0  0  0
  4 14  2  0  0  0  0
  5  6  1  0  0  0  0
  5  8  1  0  0  0  0
  5  9  2  0  0  0  0
  6 11  1  0  0  0  0
  6 12  2  0  0  0  0
  7  8  2  0  0  0  0
  7 10  1  0  0  0  0
 11 13  2  0  0  0  0
 12 14  1  0  0  0  0
 13 15  1  0  0  0  0
M  END
> <PUBCHEM_COMPOUND_ID_TYPE>
0

> <PUBCHEM_TOTAL_CHARGE>
0

> <PUBCHEM_SUBSTANCE_ID>
310938215

> <PUBCHEM_SUBSTANCE_VERSION>
1

> <PUBCHEM_EXT_DATASOURCE_NAME>
4488

> <PUBCHEM_EXT_DATASOURCE_REGID>
SCHEMBL16116075

> <PUBCHEM_SUBSTANCE_COMMENT>
InChI=1S/C11H10N2O2/c1-7-4-8(2-3-12-7)9-5-10(11(14)15)13-6-9/h2-6,13H,1H3,(H,14,15)
InChIKey=IZCVMQGAJOQDJO-UHFFFAOYSA-N

> <PUBCHEM_SUBSTANCE_SYNONYM>
SCHEMBL16116075

> <PUBCHEM_XREF_EXT_ID>
SCHEMBL16116075

> <PUBCHEM_EXT_DATASOURCE_URL>
https://www.surechembl.org/

> <PUBCHEM_EXT_SUBSTANCE_URL>
https://www.surechembl.org/chemical/SCHEMBL16116075

> <PUBCHEM_CID_ASSOCIATIONS>
117605669  1

> <PUBCHEM_COORDINATE_TYPE>
1
3

$$$$
