310947287
  -OEChem-07211613022D

 29 32  0     1  0  0  0  0  0999 V2000
   -4.9095   -0.3059    0.0000 Br  0  0  0  0  0  0  0  0  0  0  0  0
   -0.6227    2.1691    0.0000 O   0  0  0  0  0  0  0  0  0  0  0  0
    2.3053   -0.1483    0.0000 N   0  0  0  0  0  0  0  0  0  0  0  0
    2.7903    0.5191    0.0000 N   0  0  0  0  0  0  0  0  0  0  0  0
   -1.3372    0.9316    0.0000 N   0  0  0  0  0  0  0  0  0  0  0  0
    1.5207    0.1066    0.0000 C   0  0  0  0  0  0  0  0  0  0  0  0
    1.5207    0.9316    0.0000 C   0  0  0  0  0  0  0  0  0  0  0  0
    2.3053    1.1866    0.0000 C   0  0  0  0  0  0  0  0  0  0  0  0
    0.0918    0.9316    0.0000 C   0  0  0  0  0  0  0  0  0  0  0  0
    0.8062    1.3441    0.0000 C   0  0  0  0  0  0  0  0  0  0  0  0
    0.8062   -0.3059    0.0000 C   0  0  0  0  0  0  0  0  0  0  0  0
    0.0918    0.1066    0.0000 C   0  0  0  0  0  0  0  0  0  0  0  0
    2.5189   -0.9452    0.0000 C   0  0  0  0  0  0  0  0  0  0  0  0
   -0.6227    1.3441    0.0000 C   0  0  0  0  0  0  0  0  0  0  0  0
    3.3157   -1.1587    0.0000 C   0  0  0  0  0  0  0  0  0  0  0  0
    2.7178    1.9010    0.0000 C   0  0  0  0  0  0  0  0  0  0  0  0
   -2.0516    1.3441    0.0000 C   0  0  3  0  0  0  0  0  0  0  0  0
   -2.7661    0.9316    0.0000 C   0  0  0  0  0  0  0  0  0  0  0  0
    3.5293   -1.9556    0.0000 C   0  0  0  0  0  0  0  0  0  0  0  0
    3.8991   -0.5754    0.0000 C   0  0  0  0  0  0  0  0  0  0  0  0
   -3.4806    1.3441    0.0000 C   0  0  0  0  0  0  0  0  0  0  0  0
   -2.7661    0.1066    0.0000 C   0  0  0  0  0  0  0  0  0  0  0  0
   -4.1951    0.1066    0.0000 C   0  0  0  0  0  0  0  0  0  0  0  0
   -4.1951    0.9316    0.0000 C   0  0  0  0  0  0  0  0  0  0  0  0
   -3.4806   -0.3059    0.0000 C   0  0  0  0  0  0  0  0  0  0  0  0
   -2.0516    2.1691    0.0000 C   0  0  0  0  0  0  0  0  0  0  0  0
    4.3262   -2.1691    0.0000 C   0  0  0  0  0  0  0  0  0  0  0  0
    4.6960   -0.7889    0.0000 C   0  0  0  0  0  0  0  0  0  0  0  0
    4.9095   -1.5858    0.0000 C   0  0  0  0  0  0  0  0  0  0  0  0
  1 23  1  0  0  0  0
  2 14  2  0  0  0  0
  3  4  1  0  0  0  0
  3  6  1  0  0  0  0
  3 13  1  0  0  0  0
  4  8  2  0  0  0  0
  5 14  1  0  0  0  0
  5 17  1  0  0  0  0
  6  7  1  0  0  0  0
  6 11  2  0  0  0  0
  7  8  1  0  0  0  0
  7 10  2  0  0  0  0
  8 16  1  0  0  0  0
  9 10  1  0  0  0  0
  9 12  2  0  0  0  0
  9 14  1  0  0  0  0
 11 12  1  0  0  0  0
 13 15  1  0  0  0  0
 15 19  2  0  0  0  0
 15 20  1  0  0  0  0
 17 18  1  0  0  0  0
 17 26  1  6  0  0  0
 18 21  2  0  0  0  0
 18 22  1  0  0  0  0
 19 27  1  0  0  0  0
 20 28  2  0  0  0  0
 21 24  1  0  0  0  0
 22 25  2  0  0  0  0
 23 24  2  0  0  0  0
 23 25  1  0  0  0  0
 27 29  2  0  0  0  0
 28 29  1  0  0  0  0
M  END
> <PUBCHEM_COMPOUND_ID_TYPE>
0

> <PUBCHEM_TOTAL_CHARGE>
0

> <PUBCHEM_SUBSTANCE_ID>
310947287

> <PUBCHEM_SUBSTANCE_VERSION>
1

> <PUBCHEM_EXT_DATASOURCE_NAME>
4488

> <PUBCHEM_EXT_DATASOURCE_REGID>
SCHEMBL16125442

> <PUBCHEM_SUBSTANCE_COMMENT>
InChI=1S/C24H22BrN3O/c1-16(19-8-11-21(25)12-9-19)26-24(29)20-10-13-23-22(14-20)17(2)27-28(23)15-18-6-4-3-5-7-18/h3-14,16H,15H2,1-2H3,(H,26,29)/t16-/m0/s1
InChIKey=RDQSDMSXJUBCAA-INIZCTEOSA-N

> <PUBCHEM_SUBSTANCE_SYNONYM>
SCHEMBL16125442

> <PUBCHEM_XREF_EXT_ID>
SCHEMBL16125442

> <PUBCHEM_EXT_DATASOURCE_URL>
https://www.surechembl.org/

> <PUBCHEM_EXT_SUBSTANCE_URL>
https://www.surechembl.org/chemical/SCHEMBL16125442

> <PUBCHEM_CID_ASSOCIATIONS>
71577226  1

> <PUBCHEM_COORDINATE_TYPE>
1
3

> <PUBCHEM_BONDANNOTATIONS>
17  26  6

$$$$
