310941846
  -OEChem-07211613022D

 21 22  0     0  0  0  0  0  0999 V2000
    1.7586   -4.1033    0.0000 O   0  0  0  0  0  0  0  0  0  0  0  0
    1.7586   -2.6270    0.0000 N   0  0  0  0  0  0  0  0  0  0  0  0
    4.2770   -4.1033    0.0000 C   0  0  0  0  0  0  0  0  0  0  0  0
    3.0612   -3.4086    0.0000 C   0  0  0  0  0  0  0  0  0  0  0  0
    2.6270   -4.1467    0.0000 C   0  0  0  0  0  0  0  0  0  0  0  0
    3.0612   -4.7980    0.0000 C   0  0  0  0  0  0  0  0  0  0  0  0
    5.1454   -4.1467    0.0000 C   0  0  0  0  0  0  0  0  0  0  0  0
    3.8862   -3.4520    0.0000 C   0  0  0  0  0  0  0  0  0  0  0  0
    3.8862   -4.8415    0.0000 C   0  0  0  0  0  0  0  0  0  0  0  0
    2.6704   -2.7139    0.0000 C   0  0  0  0  0  0  0  0  0  0  0  0
    2.6270   -5.5796    0.0000 C   0  0  0  0  0  0  0  0  0  0  0  0
    1.3678   -1.9322    0.0000 C   0  0  0  0  0  0  0  0  0  0  0  0
    5.5796   -3.4086    0.0000 C   0  0  0  0  0  0  0  0  0  0  0  0
    6.0139   -4.1467    0.0000 C   0  0  0  0  0  0  0  0  0  0  0  0
    5.5796   -4.8415    0.0000 C   0  0  0  0  0  0  0  0  0  0  0  0
    0.5428   -1.9322    0.0000 C   0  0  0  0  0  0  0  0  0  0  0  0
    1.7586   -1.2375    0.0000 C   0  0  0  0  0  0  0  0  0  0  0  0
    3.1914   -6.4915    0.0000 C   0  0  0  0  0  0  0  0  0  0  0  0
    0.1520   -1.2375    0.0000 C   0  0  0  0  0  0  0  0  0  0  0  0
    1.3678   -0.5428    0.0000 C   0  0  0  0  0  0  0  0  0  0  0  0
    0.5428   -0.5428    0.0000 C   0  0  0  0  0  0  0  0  0  0  0  0
  1  5  1  0  0  0  0
  2 10  2  0  0  0  0
  2 12  1  0  0  0  0
  3  7  1  0  0  0  0
  3  8  2  0  0  0  0
  3  9  1  0  0  0  0
  4  5  2  0  0  0  0
  4  8  1  0  0  0  0
  4 10  1  0  0  0  0
  5  6  1  0  0  0  0
  6  9  2  0  0  0  0
  6 11  1  0  0  0  0
  7 13  1  0  0  0  0
  7 14  1  0  0  0  0
  7 15  1  0  0  0  0
 11 18  1  0  0  0  0
 12 16  1  0  0  0  0
 12 17  1  0  0  0  0
 16 19  1  0  0  0  0
 17 20  1  0  0  0  0
 19 21  1  0  0  0  0
 20 21  1  0  0  0  0
M  END
> <PUBCHEM_COMPOUND_ID_TYPE>
0

> <PUBCHEM_TOTAL_CHARGE>
0

> <PUBCHEM_SUBSTANCE_ID>
310941846

> <PUBCHEM_SUBSTANCE_VERSION>
1

> <PUBCHEM_EXT_DATASOURCE_NAME>
4488

> <PUBCHEM_EXT_DATASOURCE_REGID>
SCHEMBL16119878

> <PUBCHEM_SUBSTANCE_COMMENT>
InChI=1S/C19H29NO/c1-5-14-11-16(19(2,3)4)12-15(18(14)21)13-20-17-9-7-6-8-10-17/h11-13,17,21H,5-10H2,1-4H3/b20-13+
InChIKey=ANJIWNVHZDLKAL-DEDYPNTBSA-N

> <PUBCHEM_SUBSTANCE_SYNONYM>
SCHEMBL16119878

> <PUBCHEM_XREF_EXT_ID>
SCHEMBL16119878

> <PUBCHEM_EXT_DATASOURCE_URL>
https://www.surechembl.org/

> <PUBCHEM_EXT_SUBSTANCE_URL>
https://www.surechembl.org/chemical/SCHEMBL16119878

> <PUBCHEM_CID_ASSOCIATIONS>
117608587  1

> <PUBCHEM_COORDINATE_TYPE>
1
3

$$$$
