310945609
  -OEChem-07211613022D

 20 21  0     0  0  0  0  0  0999 V2000
   -1.3317   -0.8206    0.0000 F   0  0  0  0  0  0  0  0  0  0  0  0
   -2.1234   -1.6556    0.0000 F   0  0  0  0  0  0  0  0  0  0  0  0
   -2.9439   -0.8494    0.0000 F   0  0  0  0  0  0  0  0  0  0  0  0
   -0.6694    0.0000    0.0000 N   0  0  0  0  0  0  0  0  0  0  0  0
   -2.1666    0.0288    0.0000 C   0  0  0  0  0  0  0  0  0  0  0  0
   -1.4468    0.4319    0.0000 C   0  0  0  0  0  0  0  0  0  0  0  0
   -2.1522   -0.8350    0.0000 C   0  0  0  0  0  0  0  0  0  0  0  0
    0.0072    0.4319    0.0000 C   0  0  0  0  0  0  0  0  0  0  0  0
   -2.8864    0.4175    0.0000 C   0  0  0  0  0  0  0  0  0  0  0  0
   -1.4468    1.2524    0.0000 C   0  0  0  0  0  0  0  0  0  0  0  0
    0.7558    0.0144    0.0000 C   0  0  0  0  0  0  0  0  0  0  0  0
   -2.8864    1.2524    0.0000 C   0  0  0  0  0  0  0  0  0  0  0  0
   -2.1810    1.6556    0.0000 C   0  0  0  0  0  0  0  0  0  0  0  0
    0.7558   -0.8206    0.0000 C   0  0  0  0  0  0  0  0  0  0  0  0
    1.4756    0.4175    0.0000 C   0  0  0  0  0  0  0  0  0  0  0  0
    2.1810   -0.8062    0.0000 C   0  0  0  0  0  0  0  0  0  0  0  0
    1.4756   -1.2236    0.0000 C   0  0  0  0  0  0  0  0  0  0  0  0
    2.1954    0.0000    0.0000 C   0  0  0  0  0  0  0  0  0  0  0  0
    0.0072    1.2668    0.0000 C   0  0  0  0  0  0  0  0  0  0  0  0
    2.9439   -1.2380    0.0000 C   0  0  0  0  0  0  0  0  0  0  0  0
  1  7  1  0  0  0  0
  2  7  1  0  0  0  0
  3  7  1  0  0  0  0
  4  6  1  0  0  0  0
  4  8  2  0  0  0  0
  5  6  1  0  0  0  0
  5  7  1  0  0  0  0
  5  9  2  0  0  0  0
  6 10  2  0  0  0  0
  8 11  1  0  0  0  0
  8 19  1  0  0  0  0
  9 12  1  0  0  0  0
 10 13  1  0  0  0  0
 11 14  2  0  0  0  0
 11 15  1  0  0  0  0
 12 13  2  0  0  0  0
 14 17  1  0  0  0  0
 15 18  2  0  0  0  0
 16 17  2  0  0  0  0
 16 18  1  0  0  0  0
 16 20  1  0  0  0  0
M  END
> <PUBCHEM_COMPOUND_ID_TYPE>
0

> <PUBCHEM_TOTAL_CHARGE>
0

> <PUBCHEM_SUBSTANCE_ID>
310945609

> <PUBCHEM_SUBSTANCE_VERSION>
1

> <PUBCHEM_EXT_DATASOURCE_NAME>
4488

> <PUBCHEM_EXT_DATASOURCE_REGID>
SCHEMBL16123708

> <PUBCHEM_SUBSTANCE_COMMENT>
InChI=1S/C16H14F3N/c1-11-7-9-13(10-8-11)12(2)20-15-6-4-3-5-14(15)16(17,18)19/h3-10H,1-2H3/b20-12+
InChIKey=YOSBXUGSYHCGMS-UDWIEESQSA-N

> <PUBCHEM_SUBSTANCE_SYNONYM>
SCHEMBL16123708

> <PUBCHEM_XREF_EXT_ID>
SCHEMBL16123708

> <PUBCHEM_EXT_DATASOURCE_URL>
https://www.surechembl.org/

> <PUBCHEM_EXT_SUBSTANCE_URL>
https://www.surechembl.org/chemical/SCHEMBL16123708

> <PUBCHEM_CID_ASSOCIATIONS>
11747844  1

> <PUBCHEM_COORDINATE_TYPE>
1
3

$$$$
