310937548
  -OEChem-07211613022D

 16 17  0     0  0  0  0  0  0999 V2000
    5.3601   -2.9302    0.0000 O   0  0  0  0  0  0  0  0  0  0  0  0
    3.6449   -2.8765    0.0000 N   0  0  0  0  0  0  0  0  0  0  0  0
    0.8397   -0.3573    0.0000 N   0  0  0  0  0  0  0  0  0  0  0  0
    5.3601   -1.4829    0.0000 N   0  0  0  0  0  0  0  0  0  0  0  0
    2.8587   -1.8045    0.0000 C   0  0  0  0  0  0  0  0  0  0  0  0
    3.6449   -1.5366    0.0000 C   0  0  0  0  0  0  0  0  0  0  0  0
    4.1272   -2.1976    0.0000 C   0  0  0  0  0  0  0  0  0  0  0  0
    2.1798   -1.3222    0.0000 C   0  0  0  0  0  0  0  0  0  0  0  0
    2.8587   -2.6086    0.0000 C   0  0  0  0  0  0  0  0  0  0  0  0
    4.9491   -2.1976    0.0000 C   0  0  0  0  0  0  0  0  0  0  0  0
    1.4294   -1.6795    0.0000 C   0  0  0  0  0  0  0  0  0  0  0  0
    2.2691   -0.5181    0.0000 C   0  0  0  0  0  0  0  0  0  0  0  0
    0.7504   -1.1613    0.0000 C   0  0  0  0  0  0  0  0  0  0  0  0
    3.8950   -0.7504    0.0000 C   0  0  0  0  0  0  0  0  0  0  0  0
    1.6080    0.0000    0.0000 C   0  0  0  0  0  0  0  0  0  0  0  0
    0.0000   -1.4829    0.0000 C   0  0  0  0  0  0  0  0  0  0  0  0
  1 10  2  0  0  0  0
  2  7  1  0  0  0  0
  2  9  1  0  0  0  0
  3 13  1  0  0  0  0
  3 15  2  0  0  0  0
  4 10  1  0  0  0  0
  5  6  1  0  0  0  0
  5  8  1  0  0  0  0
  5  9  2  0  0  0  0
  6  7  2  0  0  0  0
  6 14  1  0  0  0  0
  7 10  1  0  0  0  0
  8 11  1  0  0  0  0
  8 12  2  0  0  0  0
 11 13  2  0  0  0  0
 12 15  1  0  0  0  0
 13 16  1  0  0  0  0
M  END
> <PUBCHEM_COMPOUND_ID_TYPE>
0

> <PUBCHEM_TOTAL_CHARGE>
0

> <PUBCHEM_SUBSTANCE_ID>
310937548

> <PUBCHEM_SUBSTANCE_VERSION>
1

> <PUBCHEM_EXT_DATASOURCE_NAME>
4488

> <PUBCHEM_EXT_DATASOURCE_REGID>
SCHEMBL16115325

> <PUBCHEM_SUBSTANCE_COMMENT>
InChI=1S/C12H13N3O/c1-7-5-9(3-4-14-7)10-6-15-11(8(10)2)12(13)16/h3-6,15H,1-2H3,(H2,13,16)
InChIKey=GBEUJGXZRJILPH-UHFFFAOYSA-N

> <PUBCHEM_SUBSTANCE_SYNONYM>
SCHEMBL16115325

> <PUBCHEM_XREF_EXT_ID>
SCHEMBL16115325

> <PUBCHEM_EXT_DATASOURCE_URL>
https://www.surechembl.org/

> <PUBCHEM_EXT_SUBSTANCE_URL>
https://www.surechembl.org/chemical/SCHEMBL16115325

> <PUBCHEM_CID_ASSOCIATIONS>
86275229  1

> <PUBCHEM_COORDINATE_TYPE>
1
3

$$$$
