310942075
  -OEChem-07211613022D

 29 32  0     1  0  0  0  0  0999 V2000
    0.7160   -1.0336    0.0000 F   0  0  0  0  0  0  0  0  0  0  0  0
    2.1606    1.4570    0.0000 F   0  0  0  0  0  0  0  0  0  0  0  0
    2.1481   -0.2117    0.0000 O   0  0  0  0  0  0  0  0  0  0  0  0
   -1.4384    0.2117    0.0000 N   0  0  0  0  0  0  0  0  0  0  0  0
   -3.5927    1.4570    0.0000 N   0  0  0  0  0  0  0  0  0  0  0  0
   -0.0062    0.2117    0.0000 C   0  0  0  0  0  0  0  0  0  0  0  0
    0.7160   -0.1992    0.0000 C   0  0  0  0  0  0  0  0  0  0  0  0
    1.4259    0.2242    0.0000 C   0  0  0  0  0  0  0  0  0  0  0  0
   -0.7160   -0.1992    0.0000 C   0  0  3  0  0  0  0  0  0  0  0  0
   -2.1606   -0.1992    0.0000 C   0  0  0  0  0  0  0  0  0  0  0  0
    1.4384    1.0460    0.0000 C   0  0  0  0  0  0  0  0  0  0  0  0
   -2.8828    0.2117    0.0000 C   0  0  0  0  0  0  0  0  0  0  0  0
    0.0062    1.0336    0.0000 C   0  0  0  0  0  0  0  0  0  0  0  0
   -3.5927   -0.1992    0.0000 C   0  0  0  0  0  0  0  0  0  0  0  0
    0.7160    1.4446    0.0000 C   0  0  0  0  0  0  0  0  0  0  0  0
   -2.1606   -1.0336    0.0000 C   0  0  0  0  0  0  0  0  0  0  0  0
    2.8704    0.2117    0.0000 C   0  0  0  0  0  0  0  0  0  0  0  0
   -0.7285   -1.0460    0.0000 C   0  0  0  0  0  0  0  0  0  0  0  0
   -2.8704    1.0460    0.0000 C   0  0  0  0  0  0  0  0  0  0  0  0
   -3.5803   -1.0336    0.0000 C   0  0  0  0  0  0  0  0  0  0  0  0
   -4.3150    0.2117    0.0000 C   0  0  0  0  0  0  0  0  0  0  0  0
   -2.8704   -1.4446    0.0000 C   0  0  0  0  0  0  0  0  0  0  0  0
   -4.3025    1.0460    0.0000 C   0  0  0  0  0  0  0  0  0  0  0  0
    3.6052   -0.1992    0.0000 C   0  0  0  0  0  0  0  0  0  0  0  0
    2.8828    1.0336    0.0000 C   0  0  0  0  0  0  0  0  0  0  0  0
   -1.4259   -1.4570    0.0000 C   0  0  0  0  0  0  0  0  0  0  0  0
    4.3150    0.2117    0.0000 C   0  0  0  0  0  0  0  0  0  0  0  0
    3.5927    1.4446    0.0000 C   0  0  0  0  0  0  0  0  0  0  0  0
    4.3150    1.0336    0.0000 C   0  0  0  0  0  0  0  0  0  0  0  0
  1  7  1  0  0  0  0
  2 11  1  0  0  0  0
  3  8  1  0  0  0  0
  3 17  1  0  0  0  0
  9  4  1  6  0  0  0
  4 10  1  0  0  0  0
  5 19  1  0  0  0  0
  5 23  1  0  0  0  0
  6  7  2  0  0  0  0
  6  9  1  0  0  0  0
  6 13  1  0  0  0  0
  7  8  1  0  0  0  0
  8 11  2  0  0  0  0
  9 18  1  0  0  0  0
 10 12  2  0  0  0  0
 10 16  1  0  0  0  0
 11 15  1  0  0  0  0
 12 14  1  0  0  0  0
 12 19  1  0  0  0  0
 13 15  2  0  0  0  0
 14 20  2  0  0  0  0
 14 21  1  0  0  0  0
 16 22  2  0  0  0  0
 17 24  2  0  0  0  0
 17 25  1  0  0  0  0
 18 26  1  0  0  0  0
 20 22  1  0  0  0  0
 21 23  1  0  0  0  0
 24 27  1  0  0  0  0
 25 28  2  0  0  0  0
 27 29  2  0  0  0  0
 28 29  1  0  0  0  0
M  END
> <PUBCHEM_COMPOUND_ID_TYPE>
0

> <PUBCHEM_TOTAL_CHARGE>
0

> <PUBCHEM_SUBSTANCE_ID>
310942075

> <PUBCHEM_SUBSTANCE_VERSION>
1

> <PUBCHEM_EXT_DATASOURCE_NAME>
4488

> <PUBCHEM_EXT_DATASOURCE_REGID>
SCHEMBL16120110

> <PUBCHEM_SUBSTANCE_COMMENT>
InChI=1S/C24H24F2N2O/c1-2-21(28-22-10-6-7-16-13-14-27-15-19(16)22)18-11-12-20(25)24(23(18)26)29-17-8-4-3-5-9-17/h3-12,21,27-28H,2,13-15H2,1H3/t21-/m0/s1
InChIKey=TUIJOGHQKGDHKR-NRFANRHFSA-N

> <PUBCHEM_SUBSTANCE_SYNONYM>
SCHEMBL16120110

> <PUBCHEM_XREF_EXT_ID>
SCHEMBL16120110

> <PUBCHEM_EXT_DATASOURCE_URL>
https://www.surechembl.org/

> <PUBCHEM_EXT_SUBSTANCE_URL>
https://www.surechembl.org/chemical/SCHEMBL16120110

> <PUBCHEM_CID_ASSOCIATIONS>
117608745  1

> <PUBCHEM_COORDINATE_TYPE>
1
3

> <PUBCHEM_BONDANNOTATIONS>
9  4  6

$$$$
