310943101
  -OEChem-07211613022D

 24 26  0     0  0  0  0  0  0999 V2000
    2.8712    1.4752    0.0000 F   0  0  0  0  0  0  0  0  0  0  0  0
    2.8712    0.4917    0.0000 F   0  0  0  0  0  0  0  0  0  0  0  0
    3.5216   -0.0159    0.0000 F   0  0  0  0  0  0  0  0  0  0  0  0
    2.8712   -1.4752    0.0000 F   0  0  0  0  0  0  0  0  0  0  0  0
   -3.5216   -0.3490    0.0000 F   0  0  0  0  0  0  0  0  0  0  0  0
   -3.5216    1.3484    0.0000 F   0  0  0  0  0  0  0  0  0  0  0  0
   -2.7919    1.3484    0.0000 F   0  0  0  0  0  0  0  0  0  0  0  0
    0.2221   -0.3014    0.0000 N   0  0  0  0  0  0  0  0  0  0  0  0
    0.2221    1.3008    0.0000 N   0  0  0  0  0  0  0  0  0  0  0  0
   -2.0464   -0.3490    0.0000 N   0  0  0  0  0  0  0  0  0  0  0  0
    0.9201    0.0000    0.0000 C   0  0  0  0  0  0  0  0  0  0  0  0
    0.9359    0.9676    0.0000 C   0  0  0  0  0  0  0  0  0  0  0  0
    2.2050   -0.0159    0.0000 C   0  0  0  0  0  0  0  0  0  0  0  0
   -0.2062    0.4759    0.0000 C   0  0  0  0  0  0  0  0  0  0  0  0
    2.2208    0.9676    0.0000 C   0  0  0  0  0  0  0  0  0  0  0  0
    1.5863   -0.5076    0.0000 C   0  0  0  0  0  0  0  0  0  0  0  0
    2.8554   -0.4917    0.0000 C   0  0  0  0  0  0  0  0  0  0  0  0
   -0.9359    0.4917    0.0000 C   0  0  0  0  0  0  0  0  0  0  0  0
    1.5704    1.4436    0.0000 C   0  0  0  0  0  0  0  0  0  0  0  0
   -2.4271    0.4759    0.0000 C   0  0  0  0  0  0  0  0  0  0  0  0
   -1.3166   -0.3807    0.0000 C   0  0  0  0  0  0  0  0  0  0  0  0
   -1.2849    1.3008    0.0000 C   0  0  0  0  0  0  0  0  0  0  0  0
   -3.1568    0.5076    0.0000 C   0  0  0  0  0  0  0  0  0  0  0  0
   -2.0464    1.3166    0.0000 C   0  0  0  0  0  0  0  0  0  0  0  0
  1 15  1  0  0  0  0
  2 17  1  0  0  0  0
  3 17  1  0  0  0  0
  4 17  1  0  0  0  0
  5 23  1  0  0  0  0
  6 23  1  0  0  0  0
  7 23  1  0  0  0  0
  8 11  1  0  0  0  0
  8 14  2  0  0  0  0
  9 12  1  0  0  0  0
  9 14  1  0  0  0  0
 10 20  1  0  0  0  0
 10 21  2  0  0  0  0
 11 12  2  0  0  0  0
 11 16  1  0  0  0  0
 12 19  1  0  0  0  0
 13 15  1  0  0  0  0
 13 16  2  0  0  0  0
 13 17  1  0  0  0  0
 14 18  1  0  0  0  0
 15 19  2  0  0  0  0
 18 21  1  0  0  0  0
 18 22  2  0  0  0  0
 20 23  1  0  0  0  0
 20 24  2  0  0  0  0
 22 24  1  0  0  0  0
M  END
> <PUBCHEM_COMPOUND_ID_TYPE>
0

> <PUBCHEM_TOTAL_CHARGE>
0

> <PUBCHEM_SUBSTANCE_ID>
310943101

> <PUBCHEM_SUBSTANCE_VERSION>
1

> <PUBCHEM_EXT_DATASOURCE_NAME>
4488

> <PUBCHEM_EXT_DATASOURCE_REGID>
SCHEMBL16121160

> <PUBCHEM_SUBSTANCE_COMMENT>
InChI=1S/C14H6F7N3/c15-8-4-10-9(3-7(8)13(16,17)18)23-12(24-10)6-1-2-11(22-5-6)14(19,20)21/h1-5H,(H,23,24)
InChIKey=ZPGVVMCRTQKYFP-UHFFFAOYSA-N

> <PUBCHEM_SUBSTANCE_SYNONYM>
SCHEMBL16121160

> <PUBCHEM_XREF_EXT_ID>
SCHEMBL16121160

> <PUBCHEM_EXT_DATASOURCE_URL>
https://www.surechembl.org/

> <PUBCHEM_EXT_SUBSTANCE_URL>
https://www.surechembl.org/chemical/SCHEMBL16121160

> <PUBCHEM_CID_ASSOCIATIONS>
117609532  1

> <PUBCHEM_COORDINATE_TYPE>
1
3

$$$$
