310944809
  -OEChem-07211613022D

 18 19  0     0  0  0  0  0  0999 V2000
   -3.3189   -1.4563    0.0000 Cl  0  0  0  0  0  0  0  0  0  0  0  0
    1.8939   -0.2063    0.0000 O   0  0  0  0  0  0  0  0  0  0  0  0
    1.1688    1.0438    0.0000 O   0  0  0  0  0  0  0  0  0  0  0  0
   -0.2562    0.2063    0.0000 N   0  0  0  0  0  0  0  0  0  0  0  0
   -1.7064    0.2188    0.0000 C   0  0  0  0  0  0  0  0  0  0  0  0
   -2.4064   -0.1937    0.0000 C   0  0  0  0  0  0  0  0  0  0  0  0
   -0.9813   -0.1937    0.0000 C   0  0  0  0  0  0  0  0  0  0  0  0
   -2.4314   -1.0313    0.0000 C   0  0  0  0  0  0  0  0  0  0  0  0
   -0.9813   -1.0438    0.0000 C   0  0  0  0  0  0  0  0  0  0  0  0
   -1.7064    1.0438    0.0000 C   0  0  0  0  0  0  0  0  0  0  0  0
   -1.6938   -1.4563    0.0000 C   0  0  0  0  0  0  0  0  0  0  0  0
   -3.1314    0.2188    0.0000 C   0  0  0  0  0  0  0  0  0  0  0  0
   -2.4189    1.4563    0.0000 C   0  0  0  0  0  0  0  0  0  0  0  0
   -3.1314    1.0438    0.0000 C   0  0  0  0  0  0  0  0  0  0  0  0
    0.4813   -0.2063    0.0000 C   0  0  0  0  0  0  0  0  0  0  0  0
    1.1813    0.1937    0.0000 C   0  0  0  0  0  0  0  0  0  0  0  0
    2.5939    0.1937    0.0000 C   0  0  0  0  0  0  0  0  0  0  0  0
    3.3189   -0.2063    0.0000 C   0  0  0  0  0  0  0  0  0  0  0  0
  1  8  1  0  0  0  0
  2 16  1  0  0  0  0
  2 17  1  0  0  0  0
  3 16  2  0  0  0  0
  4  7  1  0  0  0  0
  4 15  1  0  0  0  0
  5  6  2  0  0  0  0
  5  7  1  0  0  0  0
  5 10  1  0  0  0  0
  6  8  1  0  0  0  0
  6 12  1  0  0  0  0
  7  9  2  0  0  0  0
  8 11  2  0  0  0  0
  9 11  1  0  0  0  0
 10 13  2  0  0  0  0
 12 14  2  0  0  0  0
 13 14  1  0  0  0  0
 15 16  1  0  0  0  0
 17 18  1  0  0  0  0
M  END
> <PUBCHEM_COMPOUND_ID_TYPE>
0

> <PUBCHEM_TOTAL_CHARGE>
0

> <PUBCHEM_SUBSTANCE_ID>
310944809

> <PUBCHEM_SUBSTANCE_VERSION>
1

> <PUBCHEM_EXT_DATASOURCE_NAME>
4488

> <PUBCHEM_EXT_DATASOURCE_REGID>
SCHEMBL16122888

> <PUBCHEM_SUBSTANCE_COMMENT>
InChI=1S/C14H14ClNO2/c1-2-18-14(17)9-16-13-8-7-12(15)10-5-3-4-6-11(10)13/h3-8,16H,2,9H2,1H3
InChIKey=IWXBZULZZWNMTP-UHFFFAOYSA-N

> <PUBCHEM_SUBSTANCE_SYNONYM>
SCHEMBL16122888

> <PUBCHEM_XREF_EXT_ID>
SCHEMBL16122888

> <PUBCHEM_EXT_DATASOURCE_URL>
https://www.surechembl.org/

> <PUBCHEM_EXT_SUBSTANCE_URL>
https://www.surechembl.org/chemical/SCHEMBL16122888

> <PUBCHEM_CID_ASSOCIATIONS>
117611020  1

> <PUBCHEM_COORDINATE_TYPE>
1
3

$$$$
