310929193
  -OEChem-07211613022D

 56 61  0     0  0  0  0  0  0999 V2000
    7.1499   -2.5299    0.0000 O   0  0  0  0  0  0  0  0  0  0  0  0
    3.5749   -3.8499    0.0000 O   0  0  0  0  0  0  0  0  0  0  0  0
    5.0049   -5.4999    0.0000 O   0  0  0  0  0  0  0  0  0  0  0  0
    2.8599   -2.5849    0.0000 O   0  0  0  0  0  0  0  0  0  0  0  0
   12.9248   -1.6499    0.0000 O   0  0  0  0  0  0  0  0  0  0  0  0
   16.4997   -0.4400    0.0000 O   0  0  0  0  0  0  0  0  0  0  0  0
    3.5749   -5.4999    0.0000 N   0  0  0  0  0  0  0  0  0  0  0  0
    4.3449   -4.2349    0.0000 N   0  0  0  0  0  0  0  0  0  0  0  0
   10.0098   -2.5299    0.0000 N   0  0  0  0  0  0  0  0  0  0  0  0
    1.4300   -2.5849    0.0000 N   0  0  0  0  0  0  0  0  0  0  0  0
    9.2948   -3.7399    0.0000 N   0  0  0  0  0  0  0  0  0  0  0  0
   13.6397   -2.9149    0.0000 N   0  0  0  0  0  0  0  0  0  0  0  0
   15.0697   -1.2650    0.0000 N   0  0  0  0  0  0  0  0  0  0  0  0
    5.0049   -3.0249    0.0000 C   0  0  0  0  0  0  0  0  0  0  0  0
    5.7199   -2.5849    0.0000 C   0  0  0  0  0  0  0  0  0  0  0  0
    2.8599   -5.1149    0.0000 C   0  0  0  0  0  0  0  0  0  0  0  0
    2.8599   -4.2899    0.0000 C   0  0  0  0  0  0  0  0  0  0  0  0
    2.1449   -3.8499    0.0000 C   0  0  0  0  0  0  0  0  0  0  0  0
    1.4300   -5.1149    0.0000 C   0  0  0  0  0  0  0  0  0  0  0  0
    5.0049   -3.8499    0.0000 C   0  0  0  0  0  0  0  0  0  0  0  0
    6.4349   -2.9699    0.0000 C   0  0  0  0  0  0  0  0  0  0  0  0
    2.1449   -5.4999    0.0000 C   0  0  0  0  0  0  0  0  0  0  0  0
    1.4300   -4.2899    0.0000 C   0  0  0  0  0  0  0  0  0  0  0  0
    0.7150   -5.4999    0.0000 C   0  0  0  0  0  0  0  0  0  0  0  0
    4.3449   -5.0599    0.0000 C   0  0  0  0  0  0  0  0  0  0  0  0
    5.7749   -4.2349    0.0000 C   0  0  0  0  0  0  0  0  0  0  0  0
    6.4349   -3.7949    0.0000 C   0  0  0  0  0  0  0  0  0  0  0  0
    2.1449   -3.0249    0.0000 C   0  0  0  0  0  0  0  0  0  0  0  0
    4.2899   -2.5849    0.0000 C   0  0  0  0  0  0  0  0  0  0  0  0
    5.7199   -1.7599    0.0000 C   0  0  0  0  0  0  0  0  0  0  0  0
    7.8648   -2.9149    0.0000 C   0  0  0  0  0  0  0  0  0  0  0  0
    4.2899   -1.7599    0.0000 C   0  0  0  0  0  0  0  0  0  0  0  0
    5.0049   -1.3200    0.0000 C   0  0  0  0  0  0  0  0  0  0  0  0
    9.2948   -2.9149    0.0000 C   0  0  0  0  0  0  0  0  0  0  0  0
    8.5798   -2.4749    0.0000 C   0  0  0  0  0  0  0  0  0  0  0  0
    0.2750   -4.7849    0.0000 C   0  0  0  0  0  0  0  0  0  0  0  0
    0.0000   -5.9399    0.0000 C   0  0  0  0  0  0  0  0  0  0  0  0
    1.1550   -6.2149    0.0000 C   0  0  0  0  0  0  0  0  0  0  0  0
   10.7248   -2.9149    0.0000 C   0  0  0  0  0  0  0  0  0  0  0  0
    7.8648   -3.7399    0.0000 C   0  0  0  0  0  0  0  0  0  0  0  0
   12.1548   -2.9149    0.0000 C   0  0  0  0  0  0  0  0  0  0  0  0
   11.4398   -2.5299    0.0000 C   0  0  0  0  0  0  0  0  0  0  0  0
   11.4398   -4.1799    0.0000 C   0  0  0  0  0  0  0  0  0  0  0  0
   10.7248   -3.7399    0.0000 C   0  0  0  0  0  0  0  0  0  0  0  0
    8.6348   -4.1799    0.0000 C   0  0  0  0  0  0  0  0  0  0  0  0
    3.5749   -3.0249    0.0000 C   0  0  0  0  0  0  0  0  0  0  0  0
   12.1548   -3.7399    0.0000 C   0  0  0  0  0  0  0  0  0  0  0  0
   12.9248   -2.5299    0.0000 C   0  0  0  0  0  0  0  0  0  0  0  0
   11.4398   -5.0049    0.0000 C   0  0  0  0  0  0  0  0  0  0  0  0
   14.3547   -2.5299    0.0000 C   0  0  0  0  0  0  0  0  0  0  0  0
   12.2098   -5.3899    0.0000 C   0  0  0  0  0  0  0  0  0  0  0  0
   14.3547   -1.6499    0.0000 C   0  0  0  0  0  0  0  0  0  0  0  0
   15.0697   -0.4400    0.0000 C   0  0  0  0  0  0  0  0  0  0  0  0
   15.7847   -1.6499    0.0000 C   0  0  0  0  0  0  0  0  0  0  0  0
   15.7847    0.0000    0.0000 C   0  0  0  0  0  0  0  0  0  0  0  0
   16.4997   -1.2650    0.0000 C   0  0  0  0  0  0  0  0  0  0  0  0
  1 21  1  0  0  0  0
  1 31  1  0  0  0  0
  2 17  1  0  0  0  0
  2 46  1  0  0  0  0
  3 25  2  0  0  0  0
  4 28  2  0  0  0  0
  5 48  2  0  0  0  0
  6 55  1  0  0  0  0
  6 56  1  0  0  0  0
  7 16  1  0  0  0  0
  7 25  1  0  0  0  0
  8 20  1  0  0  0  0
  8 25  1  0  0  0  0
  9 34  1  0  0  0  0
  9 39  1  0  0  0  0
 10 28  1  0  0  0  0
 11 34  1  0  0  0  0
 11 45  2  0  0  0  0
 12 48  1  0  0  0  0
 12 50  1  0  0  0  0
 13 52  1  0  0  0  0
 13 53  1  0  0  0  0
 13 54  1  0  0  0  0
 14 15  2  0  0  0  0
 14 20  1  0  0  0  0
 14 29  1  0  0  0  0
 15 21  1  0  0  0  0
 15 30  1  0  0  0  0
 16 17  1  0  0  0  0
 16 22  2  0  0  0  0
 17 18  2  0  0  0  0
 18 23  1  0  0  0  0
 18 28  1  0  0  0  0
 19 22  1  0  0  0  0
 19 23  2  0  0  0  0
 19 24  1  0  0  0  0
 20 26  2  0  0  0  0
 21 27  2  0  0  0  0
 24 36  1  0  0  0  0
 24 37  1  0  0  0  0
 24 38  1  0  0  0  0
 26 27  1  0  0  0  0
 29 32  2  0  0  0  0
 30 33  2  0  0  0  0
 31 35  1  0  0  0  0
 31 40  2  0  0  0  0
 32 33  1  0  0  0  0
 34 35  2  0  0  0  0
 39 42  1  0  0  0  0
 39 44  2  0  0  0  0
 40 45  1  0  0  0  0
 41 42  2  0  0  0  0
 41 47  1  0  0  0  0
 41 48  1  0  0  0  0
 43 44  1  0  0  0  0
 43 47  2  0  0  0  0
 43 49  1  0  0  0  0
 49 51  3  0  0  0  0
 50 52  1  0  0  0  0
 53 55  1  0  0  0  0
 54 56  1  0  0  0  0
M  END
> <PUBCHEM_COMPOUND_ID_TYPE>
0

> <PUBCHEM_TOTAL_CHARGE>
0

> <PUBCHEM_SUBSTANCE_ID>
310929193

> <PUBCHEM_SUBSTANCE_VERSION>
1

> <PUBCHEM_EXT_DATASOURCE_NAME>
4488

> <PUBCHEM_EXT_DATASOURCE_REGID>
SCHEMBL16106356

> <PUBCHEM_SUBSTANCE_COMMENT>
InChI=1S/C43H45N7O6/c1-6-27-21-28(41(52)46-15-16-50-17-19-55-20-18-50)23-30(22-27)47-38-26-31(13-14-45-38)56-37-12-11-35(32-9-7-8-10-33(32)37)48-42(53)49-36-25-29(43(2,3)4)24-34(40(44)51)39(36)54-5/h1,7-14,21-26H,15-20H2,2-5H3,(H2,44,51)(H,45,47)(H,46,52)(H2,48,49,53)
InChIKey=KAEJJEOVKUZVFV-UHFFFAOYSA-N

> <PUBCHEM_SUBSTANCE_SYNONYM>
SCHEMBL16106356

> <PUBCHEM_XREF_EXT_ID>
SCHEMBL16106356

> <PUBCHEM_EXT_DATASOURCE_URL>
https://www.surechembl.org/

> <PUBCHEM_EXT_SUBSTANCE_URL>
https://www.surechembl.org/chemical/SCHEMBL16106356

> <PUBCHEM_CID_ASSOCIATIONS>
86274498  1

> <PUBCHEM_COORDINATE_TYPE>
1
3

$$$$
