310940390
  -OEChem-07211613022D

 29 31  0     0  0  0  0  0  0999 V2000
    0.2633   -1.2332    0.0000 O   0  0  0  0  0  0  0  0  0  0  0  0
    1.7459    2.1616    0.0000 O   0  0  0  0  0  0  0  0  0  0  0  0
   -2.3279    1.2609    0.0000 O   0  0  0  0  0  0  0  0  0  0  0  0
    1.0254    0.9145    0.0000 O   0  0  0  0  0  0  0  0  0  0  0  0
   -1.2332    0.3603    0.0000 O   0  0  0  0  0  0  0  0  0  0  0  0
    1.7459   -0.3187    0.0000 N   0  0  0  0  0  0  0  0  0  0  0  0
   -1.4549   -0.9977    0.0000 N   0  0  0  0  0  0  0  0  0  0  0  0
    2.4803    0.0831    0.0000 C   0  0  0  0  0  0  0  0  0  0  0  0
    2.4665    0.9284    0.0000 C   0  0  0  0  0  0  0  0  0  0  0  0
   -2.2863   -0.9145    0.0000 C   0  0  0  0  0  0  0  0  0  0  0  0
   -2.5773   -0.1386    0.0000 C   0  0  0  0  0  0  0  0  0  0  0  0
    1.0254   -1.5519    0.0000 C   0  0  0  0  0  0  0  0  0  0  0  0
   -0.2772   -1.8568    0.0000 C   0  0  0  0  0  0  0  0  0  0  0  0
    1.7459   -1.1501    0.0000 C   0  0  0  0  0  0  0  0  0  0  0  0
   -1.1224   -1.7459    0.0000 C   0  0  0  0  0  0  0  0  0  0  0  0
    1.7459    1.3441    0.0000 C   0  0  0  0  0  0  0  0  0  0  0  0
    0.9284   -2.3972    0.0000 C   0  0  0  0  0  0  0  0  0  0  0  0
    0.1109   -2.5496    0.0000 C   0  0  0  0  0  0  0  0  0  0  0  0
   -2.0646    0.5265    0.0000 C   0  0  0  0  0  0  0  0  0  0  0  0
    3.1870   -0.3187    0.0000 C   0  0  0  0  0  0  0  0  0  0  0  0
    3.1870    1.3302    0.0000 C   0  0  0  0  0  0  0  0  0  0  0  0
   -2.7990   -1.5519    0.0000 C   0  0  0  0  0  0  0  0  0  0  0  0
   -3.3810   -0.0139    0.0000 C   0  0  0  0  0  0  0  0  0  0  0  0
    3.8937    0.0970    0.0000 C   0  0  0  0  0  0  0  0  0  0  0  0
    3.8937    0.9284    0.0000 C   0  0  0  0  0  0  0  0  0  0  0  0
   -3.6165   -1.4133    0.0000 C   0  0  0  0  0  0  0  0  0  0  0  0
   -3.8937   -0.6512    0.0000 C   0  0  0  0  0  0  0  0  0  0  0  0
    2.4526    2.5496    0.0000 C   0  0  0  0  0  0  0  0  0  0  0  0
   -1.8152    1.8568    0.0000 C   0  0  0  0  0  0  0  0  0  0  0  0
  1 12  1  0  0  0  0
  1 13  1  0  0  0  0
  2 16  1  0  0  0  0
  2 28  1  0  0  0  0
  3 19  1  0  0  0  0
  3 29  1  0  0  0  0
  4 16  2  0  0  0  0
  5 19  2  0  0  0  0
  6  8  1  0  0  0  0
  6 14  2  0  0  0  0
  7 10  1  0  0  0  0
  7 15  2  0  0  0  0
  8  9  1  0  0  0  0
  8 20  2  0  0  0  0
  9 16  1  0  0  0  0
  9 21  2  0  0  0  0
 10 11  2  0  0  0  0
 10 22  1  0  0  0  0
 11 19  1  0  0  0  0
 11 23  1  0  0  0  0
 12 14  1  0  0  0  0
 12 17  2  0  0  0  0
 13 15  1  0  0  0  0
 13 18  2  0  0  0  0
 17 18  1  0  0  0  0
 20 24  1  0  0  0  0
 21 25  1  0  0  0  0
 22 26  2  0  0  0  0
 23 27  2  0  0  0  0
 24 25  2  0  0  0  0
 26 27  1  0  0  0  0
M  END
> <PUBCHEM_COMPOUND_ID_TYPE>
0

> <PUBCHEM_TOTAL_CHARGE>
0

> <PUBCHEM_SUBSTANCE_ID>
310940390

> <PUBCHEM_SUBSTANCE_VERSION>
1

> <PUBCHEM_EXT_DATASOURCE_NAME>
4488

> <PUBCHEM_EXT_DATASOURCE_REGID>
SCHEMBL16118336

> <PUBCHEM_SUBSTANCE_COMMENT>
InChI=1S/C22H18N2O5/c1-27-21(25)17-7-3-5-9-19(17)23-13-15-11-12-16(29-15)14-24-20-10-6-4-8-18(20)22(26)28-2/h3-14H,1-2H3/b23-13+,24-14+
InChIKey=LEFZKRZFQZTCTB-RNIAWFEPSA-N

> <PUBCHEM_SUBSTANCE_SYNONYM>
SCHEMBL16118336

> <PUBCHEM_XREF_EXT_ID>
SCHEMBL16118336

> <PUBCHEM_EXT_DATASOURCE_URL>
https://www.surechembl.org/

> <PUBCHEM_EXT_SUBSTANCE_URL>
https://www.surechembl.org/chemical/SCHEMBL16118336

> <PUBCHEM_CID_ASSOCIATIONS>
117607420  1

> <PUBCHEM_COORDINATE_TYPE>
1
3

> <PUBCHEM_BONDANNOTATIONS>
6  8  3
7  10  3

$$$$
