310946895
  -OEChem-07211613022D

 44 49  0     1  0  0  0  0  0999 V2000
    2.9609   -5.7924    0.0000 S   0  0  0  0  0  0  0  0  0  0  0  0
   -2.4270   -0.1295    0.0000 F   0  0  0  0  0  0  0  0  0  0  0  0
   -2.7991   -2.9447    0.0000 O   0  0  0  0  0  0  0  0  0  0  0  0
    2.7506   -2.8315    0.0000 O   0  0  0  0  0  0  0  0  0  0  0  0
   -1.2944   -0.6148    0.0000 N   0  0  0  0  0  0  0  0  0  0  0  0
   -0.8090   -1.2944    0.0000 N   0  0  0  0  0  0  0  0  0  0  0  0
   -1.3753    1.7798    0.0000 N   0  0  0  0  0  0  0  0  0  0  0  0
   -1.0355   -2.7506    0.0000 N   0  0  0  0  0  0  0  0  0  0  0  0
   -3.5110   -1.6989    0.0000 N   0  0  0  0  0  0  0  0  0  0  0  0
   -0.9384    3.1389    0.0000 N   0  0  0  0  0  0  0  0  0  0  0  0
    1.1164   -0.1456    0.0000 N   0  0  0  0  0  0  0  0  0  0  0  0
    2.4593   -4.2229    0.0000 N   0  0  0  0  0  0  0  0  0  0  0  0
   -2.2328    5.7924    0.0000 N   0  0  0  0  0  0  0  0  0  0  0  0
   -1.0355    0.1618    0.0000 C   0  0  3  0  0  0  0  0  0  0  0  0
   -2.0710   -0.8737    0.0000 C   0  0  0  0  0  0  0  0  0  0  0  0
   -2.0872   -1.6989    0.0000 C   0  0  0  0  0  0  0  0  0  0  0  0
   -1.2944   -1.9577    0.0000 C   0  0  0  0  0  0  0  0  0  0  0  0
   -1.8121    0.4531    0.0000 C   0  0  3  0  0  0  0  0  0  0  0  0
   -0.4207    0.7443    0.0000 C   0  0  0  0  0  0  0  0  0  0  0  0
   -2.7991   -2.0872    0.0000 C   0  0  0  0  0  0  0  0  0  0  0  0
   -0.4854   -0.4692    0.0000 C   0  0  0  0  0  0  0  0  0  0  0  0
   -2.7991   -0.4692    0.0000 C   0  0  0  0  0  0  0  0  0  0  0  0
   -1.9740    1.2458    0.0000 C   0  0  0  0  0  0  0  0  0  0  0  0
   -0.5825    1.5209    0.0000 C   0  0  0  0  0  0  0  0  0  0  0  0
   -3.4949   -0.8737    0.0000 C   0  0  0  0  0  0  0  0  0  0  0  0
   -0.2265   -2.9124    0.0000 C   0  0  0  0  0  0  0  0  0  0  0  0
   -1.5533    2.5888    0.0000 C   0  0  0  0  0  0  0  0  0  0  0  0
    0.3236   -0.2912    0.0000 C   0  0  0  0  0  0  0  0  0  0  0  0
    0.3236   -2.3137    0.0000 C   0  0  0  0  0  0  0  0  0  0  0  0
    0.0324   -3.6890    0.0000 C   0  0  0  0  0  0  0  0  0  0  0  0
    1.3753   -3.2522    0.0000 C   0  0  0  0  0  0  0  0  0  0  0  0
    1.1326   -2.4755    0.0000 C   0  0  0  0  0  0  0  0  0  0  0  0
   -2.3299    2.8476    0.0000 C   0  0  0  0  0  0  0  0  0  0  0  0
    0.8414   -3.8670    0.0000 C   0  0  0  0  0  0  0  0  0  0  0  0
    2.1843   -3.4625    0.0000 C   0  0  0  0  0  0  0  0  0  0  0  0
   -1.1002    3.9479    0.0000 C   0  0  0  0  0  0  0  0  0  0  0  0
   -2.4917    3.6729    0.0000 C   0  0  0  0  0  0  0  0  0  0  0  0
   -1.8930    4.2392    0.0000 C   0  0  0  0  0  0  0  0  0  0  0  0
    1.6989   -1.8607    0.0000 C   0  0  0  0  0  0  0  0  0  0  0  0
    1.9092   -4.8540    0.0000 C   0  0  0  0  0  0  0  0  0  0  0  0
    3.2683   -4.4009    0.0000 C   0  0  0  0  0  0  0  0  0  0  0  0
   -2.0710    5.0158    0.0000 C   0  0  0  0  0  0  0  0  0  0  0  0
    2.1681   -5.6144    0.0000 C   0  0  0  0  0  0  0  0  0  0  0  0
    3.5110   -5.1614    0.0000 C   0  0  0  0  0  0  0  0  0  0  0  0
  1 43  1  0  0  0  0
  1 44  1  0  0  0  0
 18  2  1  1  0  0  0
  3 20  2  0  0  0  0
  4 35  2  0  0  0  0
  5  6  1  0  0  0  0
  5 14  1  0  0  0  0
  5 15  1  0  0  0  0
  6 17  2  0  0  0  0
  7 23  1  0  0  0  0
  7 24  1  0  0  0  0
  7 27  1  0  0  0  0
  8 17  1  0  0  0  0
  8 26  1  0  0  0  0
  9 20  1  0  0  0  0
  9 25  1  0  0  0  0
 10 27  2  0  0  0  0
 10 36  1  0  0  0  0
 11 28  3  0  0  0  0
 12 35  1  0  0  0  0
 12 40  1  0  0  0  0
 12 41  1  0  0  0  0
 13 42  3  0  0  0  0
 14 18  1  0  0  0  0
 14 19  1  0  0  0  0
 14 21  1  6  0  0  0
 15 16  2  0  0  0  0
 15 22  1  0  0  0  0
 16 17  1  0  0  0  0
 16 20  1  0  0  0  0
 18 23  1  0  0  0  0
 19 24  1  0  0  0  0
 21 28  1  0  0  0  0
 22 25  2  0  0  0  0
 26 29  1  0  0  0  0
 26 30  2  0  0  0  0
 27 33  1  0  0  0  0
 29 32  2  0  0  0  0
 30 34  1  0  0  0  0
 31 32  1  0  0  0  0
 31 34  2  0  0  0  0
 31 35  1  0  0  0  0
 32 39  1  0  0  0  0
 33 37  2  0  0  0  0
 36 38  2  0  0  0  0
 37 38  1  0  0  0  0
 38 42  1  0  0  0  0
 40 43  1  0  0  0  0
 41 44  1  0  0  0  0
M  END
> <PUBCHEM_COMPOUND_ID_TYPE>
0

> <PUBCHEM_TOTAL_CHARGE>
0

> <PUBCHEM_SUBSTANCE_ID>
310946895

> <PUBCHEM_SUBSTANCE_VERSION>
1

> <PUBCHEM_EXT_DATASOURCE_NAME>
4488

> <PUBCHEM_EXT_DATASOURCE_REGID>
SCHEMBL16125019

> <PUBCHEM_SUBSTANCE_COMMENT>
InChI=1S/C31H30FN9O2S/c1-20-16-22(3-4-23(20)30(43)39-12-14-44-15-13-39)37-28-27-24(6-10-35-29(27)42)41(38-28)31(7-9-33)8-11-40(19-25(31)32)26-5-2-21(17-34)18-36-26/h2-6,10,16,18,25H,7-8,11-15,19H2,1H3,(H,35,42)(H,37,38)/t25-,31+/m0/s1
InChIKey=WFBYDUIMMVFPLN-VVFBEHOQSA-N

> <PUBCHEM_SUBSTANCE_SYNONYM>
SCHEMBL16125019

> <PUBCHEM_XREF_EXT_ID>
SCHEMBL16125019

> <PUBCHEM_EXT_DATASOURCE_URL>
https://www.surechembl.org/

> <PUBCHEM_EXT_SUBSTANCE_URL>
https://www.surechembl.org/chemical/SCHEMBL16125019

> <PUBCHEM_CID_ASSOCIATIONS>
117612753  1

> <PUBCHEM_COORDINATE_TYPE>
1
3

> <PUBCHEM_BONDANNOTATIONS>
14  21  6
18  2  5

$$$$
