310943423
  -OEChem-07211613022D

 36 39  0     1  0  0  0  0  0999 V2000
    4.6410    2.2546    0.0000 F   0  0  0  0  0  0  0  0  0  0  0  0
    5.3584    1.0248    0.0000 F   0  0  0  0  0  0  0  0  0  0  0  0
   -5.3584    2.2546    0.0000 O   0  0  0  0  0  0  0  0  0  0  0  0
    1.7861    2.2546    0.0000 O   0  0  0  0  0  0  0  0  0  0  0  0
   -1.0834   -2.6792    0.0000 O   0  0  0  0  0  0  0  0  0  0  0  0
   -3.9383    1.4347    0.0000 N   0  0  0  0  0  0  0  0  0  0  0  0
   -3.2208    0.2049    0.0000 N   0  0  0  0  0  0  0  0  0  0  0  0
   -0.3660    2.6792    0.0000 N   0  0  0  0  0  0  0  0  0  0  0  0
    1.0688    1.0248    0.0000 N   0  0  0  0  0  0  0  0  0  0  0  0
   -2.5035   -1.0395    0.0000 N   0  0  0  0  0  0  0  0  0  0  0  0
    3.9236    0.2049    0.0000 N   0  0  0  0  0  0  0  0  0  0  0  0
   -1.7861    1.0248    0.0000 C   0  0  0  0  0  0  0  0  0  0  0  0
   -1.0834    1.4347    0.0000 C   0  0  0  0  0  0  0  0  0  0  0  0
   -3.2208    1.0248    0.0000 C   0  0  0  0  0  0  0  0  0  0  0  0
   -2.5182    1.4347    0.0000 C   0  0  0  0  0  0  0  0  0  0  0  0
   -1.0688    2.2693    0.0000 C   0  0  0  0  0  0  0  0  0  0  0  0
   -2.5035   -0.2049    0.0000 C   0  0  0  0  0  0  0  0  0  0  0  0
   -1.8007    0.1903    0.0000 C   0  0  0  0  0  0  0  0  0  0  0  0
   -0.3367    1.0248    0.0000 C   0  0  0  0  0  0  0  0  0  0  0  0
    0.3514    1.4347    0.0000 C   0  0  0  0  0  0  0  0  0  0  0  0
   -3.9236    2.2693    0.0000 C   0  0  3  0  0  0  0  0  0  0  0  0
    0.3660    2.2546    0.0000 C   0  0  0  0  0  0  0  0  0  0  0  0
   -4.6263    1.0248    0.0000 C   0  0  0  0  0  0  0  0  0  0  0  0
    1.7714    1.4201    0.0000 C   0  0  0  0  0  0  0  0  0  0  0  0
    2.5035    1.0248    0.0000 C   0  0  0  0  0  0  0  0  0  0  0  0
   -4.6556    2.6645    0.0000 C   0  0  0  0  0  0  0  0  0  0  0  0
    3.1916    1.4347    0.0000 C   0  0  0  0  0  0  0  0  0  0  0  0
    3.9383    1.0395    0.0000 C   0  0  0  0  0  0  0  0  0  0  0  0
   -1.8007    2.6499    0.0000 C   0  0  0  0  0  0  0  0  0  0  0  0
   -5.3584    1.4347    0.0000 C   0  0  0  0  0  0  0  0  0  0  0  0
    2.5035    0.2049    0.0000 C   0  0  0  0  0  0  0  0  0  0  0  0
   -3.2355    2.6645    0.0000 C   0  0  0  0  0  0  0  0  0  0  0  0
    4.6263    1.4347    0.0000 C   0  0  0  0  0  0  0  0  0  0  0  0
    3.2208   -0.2049    0.0000 C   0  0  0  0  0  0  0  0  0  0  0  0
   -1.7861   -1.4494    0.0000 C   0  0  0  0  0  0  0  0  0  0  0  0
   -1.7861   -2.2693    0.0000 C   0  0  0  0  0  0  0  0  0  0  0  0
  1 33  1  0  0  0  0
  2 33  1  0  0  0  0
  3 26  1  0  0  0  0
  3 30  1  0  0  0  0
  4 24  2  0  0  0  0
  5 36  1  0  0  0  0
  6 14  1  0  0  0  0
  6 21  1  0  0  0  0
  6 23  1  0  0  0  0
  7 14  2  0  0  0  0
  7 17  1  0  0  0  0
  8 16  2  0  0  0  0
  8 22  1  0  0  0  0
  9 20  1  0  0  0  0
  9 24  1  0  0  0  0
 10 17  1  0  0  0  0
 10 35  1  0  0  0  0
 11 28  1  0  0  0  0
 11 34  2  0  0  0  0
 12 13  1  0  0  0  0
 12 15  2  0  0  0  0
 12 18  1  0  0  0  0
 13 16  1  0  0  0  0
 13 19  2  0  0  0  0
 14 15  1  0  0  0  0
 16 29  1  0  0  0  0
 17 18  2  0  0  0  0
 19 20  1  0  0  0  0
 20 22  2  0  0  0  0
 21 26  1  0  0  0  0
 21 32  1  1  0  0  0
 23 30  1  0  0  0  0
 24 25  1  0  0  0  0
 25 27  1  0  0  0  0
 25 31  2  0  0  0  0
 27 28  2  0  0  0  0
 28 33  1  0  0  0  0
 31 34  1  0  0  0  0
 35 36  1  0  0  0  0
M  END
> <PUBCHEM_COMPOUND_ID_TYPE>
0

> <PUBCHEM_TOTAL_CHARGE>
0

> <PUBCHEM_SUBSTANCE_ID>
310943423

> <PUBCHEM_SUBSTANCE_VERSION>
1

> <PUBCHEM_EXT_DATASOURCE_NAME>
4488

> <PUBCHEM_EXT_DATASOURCE_REGID>
SCHEMBL16121487

> <PUBCHEM_SUBSTANCE_COMMENT>
InChI=1S/C25H28F2N6O3/c1-15-14-36-8-6-33(15)23-11-18(10-22(32-23)29-5-7-34)20-12-19(13-30-16(20)2)31-25(35)17-3-4-28-21(9-17)24(26)27/h3-4,9-13,15,24,34H,5-8,14H2,1-2H3,(H,29,32)(H,31,35)/t15-/m1/s1
InChIKey=PDWRKVXPEBTHLG-OAHLLOKOSA-N

> <PUBCHEM_SUBSTANCE_SYNONYM>
SCHEMBL16121487

> <PUBCHEM_XREF_EXT_ID>
SCHEMBL16121487

> <PUBCHEM_EXT_DATASOURCE_URL>
https://www.surechembl.org/

> <PUBCHEM_EXT_SUBSTANCE_URL>
https://www.surechembl.org/chemical/SCHEMBL16121487

> <PUBCHEM_CID_ASSOCIATIONS>
117609847  1

> <PUBCHEM_COORDINATE_TYPE>
1
3

> <PUBCHEM_BONDANNOTATIONS>
21  32  5

$$$$
