310942336
  -OEChem-07211613022D

 18 18  0     0  0  0  0  0  0999 V2000
    1.7802   -0.0138    0.0000 O   0  0  0  0  0  0  0  0  0  0  0  0
   -0.3506   -1.2372    0.0000 O   0  0  0  0  0  0  0  0  0  0  0  0
    1.0654    1.2097    0.0000 O   0  0  0  0  0  0  0  0  0  0  0  0
   -1.7802   -1.2235    0.0000 N   0  0  0  0  0  0  0  0  0  0  0  0
    0.3643    0.0000    0.0000 N   0  0  0  0  0  0  0  0  0  0  0  0
   -1.0516    0.0000    0.0000 C   0  0  0  0  0  0  0  0  0  0  0  0
   -1.0929   -0.7973    0.0000 C   0  0  0  0  0  0  0  0  0  0  0  0
   -1.7802    0.4124    0.0000 C   0  0  0  0  0  0  0  0  0  0  0  0
   -2.4950   -0.8111    0.0000 C   0  0  0  0  0  0  0  0  0  0  0  0
   -0.3643    0.3986    0.0000 C   0  0  0  0  0  0  0  0  0  0  0  0
   -2.4675    0.0000    0.0000 C   0  0  0  0  0  0  0  0  0  0  0  0
    1.0654    0.3849    0.0000 C   0  0  0  0  0  0  0  0  0  0  0  0
    2.5087    0.4261    0.0000 C   0  0  0  0  0  0  0  0  0  0  0  0
   -1.7664    1.2509    0.0000 C   0  0  0  0  0  0  0  0  0  0  0  0
   -3.2373   -1.2509    0.0000 C   0  0  0  0  0  0  0  0  0  0  0  0
    3.2373    0.0000    0.0000 C   0  0  0  0  0  0  0  0  0  0  0  0
    2.5087    1.2509    0.0000 C   0  0  0  0  0  0  0  0  0  0  0  0
    3.2373    0.8248    0.0000 C   0  0  0  0  0  0  0  0  0  0  0  0
  1 12  1  0  0  0  0
  1 13  1  0  0  0  0
  2  7  2  0  0  0  0
  3 12  2  0  0  0  0
  4  7  1  0  0  0  0
  4  9  1  0  0  0  0
  5 10  1  0  0  0  0
  5 12  1  0  0  0  0
  6  7  1  0  0  0  0
  6  8  2  0  0  0  0
  6 10  1  0  0  0  0
  8 11  1  0  0  0  0
  8 14  1  0  0  0  0
  9 11  2  0  0  0  0
  9 15  1  0  0  0  0
 13 16  1  0  0  0  0
 13 17  1  0  0  0  0
 13 18  1  0  0  0  0
M  END
> <PUBCHEM_COMPOUND_ID_TYPE>
0

> <PUBCHEM_TOTAL_CHARGE>
0

> <PUBCHEM_SUBSTANCE_ID>
310942336

> <PUBCHEM_SUBSTANCE_VERSION>
1

> <PUBCHEM_EXT_DATASOURCE_NAME>
4488

> <PUBCHEM_EXT_DATASOURCE_REGID>
SCHEMBL16120372

> <PUBCHEM_SUBSTANCE_COMMENT>
InChI=1S/C13H20N2O3/c1-8-6-9(2)15-11(16)10(8)7-14-12(17)18-13(3,4)5/h6H,7H2,1-5H3,(H,14,17)(H,15,16)
InChIKey=WBJWUUNRPOSCGB-UHFFFAOYSA-N

> <PUBCHEM_SUBSTANCE_SYNONYM>
SCHEMBL16120372

> <PUBCHEM_XREF_EXT_ID>
SCHEMBL16120372

> <PUBCHEM_EXT_DATASOURCE_URL>
https://www.surechembl.org/

> <PUBCHEM_EXT_SUBSTANCE_URL>
https://www.surechembl.org/chemical/SCHEMBL16120372

> <PUBCHEM_CID_ASSOCIATIONS>
75466119  1

> <PUBCHEM_COORDINATE_TYPE>
1
3

$$$$
