310944640
  -OEChem-07211613022D

 31 35  0     0  0  0  0  0  0999 V2000
   -2.9858    2.8696    0.0000 F   0  0  0  0  0  0  0  0  0  0  0  0
   -0.7867    2.3869    0.0000 N   0  0  0  0  0  0  0  0  0  0  0  0
   -2.9680   -1.2247    0.0000 N   0  0  0  0  0  0  0  0  0  0  0  0
   -0.0357   -0.4023    0.0000 C   0  0  0  0  0  0  0  0  0  0  0  0
    0.7510   -0.7777    0.0000 C   0  0  0  0  0  0  0  0  0  0  0  0
   -0.7688   -0.7957    0.0000 C   0  0  0  0  0  0  0  0  0  0  0  0
   -0.0179    0.4202    0.0000 C   0  0  0  0  0  0  0  0  0  0  0  0
    0.7330   -1.6181    0.0000 C   0  0  0  0  0  0  0  0  0  0  0  0
    1.4661   -0.4023    0.0000 C   0  0  0  0  0  0  0  0  0  0  0  0
   -1.5018    0.4202    0.0000 C   0  0  0  0  0  0  0  0  0  0  0  0
   -2.2707    0.8314    0.0000 C   0  0  0  0  0  0  0  0  0  0  0  0
   -1.4840   -0.4023    0.0000 C   0  0  0  0  0  0  0  0  0  0  0  0
   -0.7867    0.8135    0.0000 C   0  0  0  0  0  0  0  0  0  0  0  0
    2.2170   -1.6359    0.0000 C   0  0  0  0  0  0  0  0  0  0  0  0
    1.5197   -1.9935    0.0000 C   0  0  0  0  0  0  0  0  0  0  0  0
    2.2170   -0.8135    0.0000 C   0  0  0  0  0  0  0  0  0  0  0  0
   -0.7510   -1.6181    0.0000 C   0  0  0  0  0  0  0  0  0  0  0  0
    0.7510    0.8135    0.0000 C   0  0  0  0  0  0  0  0  0  0  0  0
   -0.0179   -2.0114    0.0000 C   0  0  0  0  0  0  0  0  0  0  0  0
    1.4840    0.4202    0.0000 C   0  0  0  0  0  0  0  0  0  0  0  0
   -2.2528    1.6359    0.0000 C   0  0  0  0  0  0  0  0  0  0  0  0
   -3.0037    0.4380    0.0000 C   0  0  0  0  0  0  0  0  0  0  0  0
    2.9322   -2.0472    0.0000 C   0  0  0  0  0  0  0  0  0  0  0  0
   -2.9858    2.0472    0.0000 C   0  0  0  0  0  0  0  0  0  0  0  0
   -3.7189    0.8314    0.0000 C   0  0  0  0  0  0  0  0  0  0  0  0
   -3.7010    1.6539    0.0000 C   0  0  0  0  0  0  0  0  0  0  0  0
   -1.5197    2.0293    0.0000 C   0  0  0  0  0  0  0  0  0  0  0  0
   -2.9858   -0.4023    0.0000 C   0  0  0  0  0  0  0  0  0  0  0  0
    2.3601   -2.6193    0.0000 C   0  0  0  0  0  0  0  0  0  0  0  0
    3.7189   -1.6359    0.0000 C   0  0  0  0  0  0  0  0  0  0  0  0
    2.9680   -2.8696    0.0000 C   0  0  0  0  0  0  0  0  0  0  0  0
  1 24  1  0  0  0  0
  2 27  3  0  0  0  0
  3 28  3  0  0  0  0
  4  5  2  0  0  0  0
  4  6  1  0  0  0  0
  4  7  1  0  0  0  0
  5  8  1  0  0  0  0
  5  9  1  0  0  0  0
  6 12  1  0  0  0  0
  6 17  2  0  0  0  0
  7 13  2  0  0  0  0
  7 18  1  0  0  0  0
  8 15  1  0  0  0  0
  8 19  2  0  0  0  0
  9 16  2  0  0  0  0
  9 20  1  0  0  0  0
 10 11  1  0  0  0  0
 10 12  2  0  0  0  0
 10 13  1  0  0  0  0
 11 21  1  0  0  0  0
 11 22  2  0  0  0  0
 14 15  2  0  0  0  0
 14 16  1  0  0  0  0
 14 23  1  0  0  0  0
 17 19  1  0  0  0  0
 18 20  2  0  0  0  0
 21 24  2  0  0  0  0
 21 27  1  0  0  0  0
 22 25  1  0  0  0  0
 22 28  1  0  0  0  0
 23 29  1  0  0  0  0
 23 30  1  0  0  0  0
 23 31  1  0  0  0  0
 24 26  1  0  0  0  0
 25 26  2  0  0  0  0
M  END
> <PUBCHEM_COMPOUND_ID_TYPE>
0

> <PUBCHEM_TOTAL_CHARGE>
0

> <PUBCHEM_SUBSTANCE_ID>
310944640

> <PUBCHEM_SUBSTANCE_VERSION>
1

> <PUBCHEM_EXT_DATASOURCE_NAME>
4488

> <PUBCHEM_EXT_DATASOURCE_REGID>
SCHEMBL16122718

> <PUBCHEM_SUBSTANCE_COMMENT>
InChI=1S/C28H19FN2/c1-28(2,3)22-12-18-6-4-16-10-21(11-17-5-7-19(13-22)27(18)26(16)17)25-20(14-30)8-9-24(29)23(25)15-31/h4-13H,1-3H3
InChIKey=PUJWGQUAPRFOTG-UHFFFAOYSA-N

> <PUBCHEM_SUBSTANCE_SYNONYM>
SCHEMBL16122718

> <PUBCHEM_XREF_EXT_ID>
SCHEMBL16122718

> <PUBCHEM_EXT_DATASOURCE_URL>
https://www.surechembl.org/

> <PUBCHEM_EXT_SUBSTANCE_URL>
https://www.surechembl.org/chemical/SCHEMBL16122718

> <PUBCHEM_CID_ASSOCIATIONS>
117610870  1

> <PUBCHEM_COORDINATE_TYPE>
1
3

$$$$
