310947380
  -OEChem-07211613022D

 31 34  0     1  0  0  0  0  0999 V2000
   -1.7768    1.9629    0.0000 O   0  0  0  0  0  0  0  0  0  0  0  0
    1.1512   -0.3546    0.0000 N   0  0  0  0  0  0  0  0  0  0  0  0
    1.6361    0.3129    0.0000 N   0  0  0  0  0  0  0  0  0  0  0  0
   -2.4913    0.7254    0.0000 N   0  0  0  0  0  0  0  0  0  0  0  0
    5.3492   -2.2191    0.0000 N   0  0  0  0  0  0  0  0  0  0  0  0
    0.3666   -0.0996    0.0000 C   0  0  0  0  0  0  0  0  0  0  0  0
    0.3666    0.7254    0.0000 C   0  0  0  0  0  0  0  0  0  0  0  0
    1.1512    0.9803    0.0000 C   0  0  0  0  0  0  0  0  0  0  0  0
   -0.3479    1.1379    0.0000 C   0  0  0  0  0  0  0  0  0  0  0  0
   -1.0624    0.7254    0.0000 C   0  0  0  0  0  0  0  0  0  0  0  0
   -0.3479   -0.5121    0.0000 C   0  0  0  0  0  0  0  0  0  0  0  0
   -1.0624   -0.0996    0.0000 C   0  0  0  0  0  0  0  0  0  0  0  0
    1.3647   -1.1514    0.0000 C   0  0  0  0  0  0  0  0  0  0  0  0
   -1.7768    1.1379    0.0000 C   0  0  0  0  0  0  0  0  0  0  0  0
    2.1616   -1.3650    0.0000 C   0  0  0  0  0  0  0  0  0  0  0  0
    1.5637    1.6948    0.0000 C   0  0  0  0  0  0  0  0  0  0  0  0
   -3.2058    1.1379    0.0000 C   0  0  3  0  0  0  0  0  0  0  0  0
    2.3751   -2.1619    0.0000 C   0  0  0  0  0  0  0  0  0  0  0  0
    2.7450   -0.7816    0.0000 C   0  0  0  0  0  0  0  0  0  0  0  0
   -3.9202    0.7254    0.0000 C   0  0  0  0  0  0  0  0  0  0  0  0
    3.7554   -1.7920    0.0000 C   0  0  0  0  0  0  0  0  0  0  0  0
    3.1720   -2.3754    0.0000 C   0  0  0  0  0  0  0  0  0  0  0  0
    3.5419   -0.9951    0.0000 C   0  0  0  0  0  0  0  0  0  0  0  0
   -3.2058    1.9629    0.0000 C   0  0  0  0  0  0  0  0  0  0  0  0
   -4.6347    1.1379    0.0000 C   0  0  0  0  0  0  0  0  0  0  0  0
   -3.9202   -0.0992    0.0000 C   0  0  0  0  0  0  0  0  0  0  0  0
    4.5523   -2.0055    0.0000 C   0  0  0  0  0  0  0  0  0  0  0  0
   -5.3492    0.7254    0.0000 C   0  0  0  0  0  0  0  0  0  0  0  0
   -4.6342   -0.5117    0.0000 C   0  0  0  0  0  0  0  0  0  0  0  0
   -5.3485   -0.0992    0.0000 C   0  0  0  0  0  0  0  0  0  0  0  0
   -3.9202    2.3754    0.0000 C   0  0  0  0  0  0  0  0  0  0  0  0
  1 14  2  0  0  0  0
  2  3  1  0  0  0  0
  2  6  1  0  0  0  0
  2 13  1  0  0  0  0
  3  8  2  0  0  0  0
  4 14  1  0  0  0  0
 17  4  1  6  0  0  0
  5 27  3  0  0  0  0
  6  7  1  0  0  0  0
  6 11  2  0  0  0  0
  7  8  1  0  0  0  0
  7  9  2  0  0  0  0
  8 16  1  0  0  0  0
  9 10  1  0  0  0  0
 10 12  2  0  0  0  0
 10 14  1  0  0  0  0
 11 12  1  0  0  0  0
 13 15  1  0  0  0  0
 15 18  2  0  0  0  0
 15 19  1  0  0  0  0
 17 20  1  0  0  0  0
 17 24  1  0  0  0  0
 18 22  1  0  0  0  0
 19 23  2  0  0  0  0
 20 25  2  0  0  0  0
 20 26  1  0  0  0  0
 21 22  2  0  0  0  0
 21 23  1  0  0  0  0
 21 27  1  0  0  0  0
 24 31  1  0  0  0  0
 25 28  1  0  0  0  0
 26 29  2  0  0  0  0
 28 30  2  0  0  0  0
 29 30  1  0  0  0  0
M  END
> <PUBCHEM_COMPOUND_ID_TYPE>
0

> <PUBCHEM_TOTAL_CHARGE>
0

> <PUBCHEM_SUBSTANCE_ID>
310947380

> <PUBCHEM_SUBSTANCE_VERSION>
1

> <PUBCHEM_EXT_DATASOURCE_NAME>
4488

> <PUBCHEM_EXT_DATASOURCE_REGID>
SCHEMBL16125536

> <PUBCHEM_SUBSTANCE_COMMENT>
InChI=1S/C26H24N4O/c1-3-24(21-7-5-4-6-8-21)28-26(31)22-13-14-25-23(15-22)18(2)29-30(25)17-20-11-9-19(16-27)10-12-20/h4-15,24H,3,17H2,1-2H3,(H,28,31)/t24-/m0/s1
InChIKey=HTZOXEPRDBSXJT-DEOSSOPVSA-N

> <PUBCHEM_SUBSTANCE_SYNONYM>
SCHEMBL16125536

> <PUBCHEM_XREF_EXT_ID>
SCHEMBL16125536

> <PUBCHEM_EXT_DATASOURCE_URL>
https://www.surechembl.org/

> <PUBCHEM_EXT_SUBSTANCE_URL>
https://www.surechembl.org/chemical/SCHEMBL16125536

> <PUBCHEM_CID_ASSOCIATIONS>
117613124  1

> <PUBCHEM_COORDINATE_TYPE>
1
3

> <PUBCHEM_BONDANNOTATIONS>
17  4  6

$$$$
