310949208
  -OEChem-07211613022D

 15 17  0     0  0  0  0  0  0999 V2000
    0.3745    1.4481    0.0000 N   0  0  0  0  0  0  0  0  0  0  0  0
    1.0935    1.0486    0.0000 N   0  0  0  0  0  0  0  0  0  0  0  0
    0.3645   -1.0286    0.0000 N   0  0  0  0  0  0  0  0  0  0  0  0
   -1.0736    1.4381    0.0000 N   0  0  0  0  0  0  0  0  0  0  0  0
    1.7926   -0.1897    0.0000 N   0  0  0  0  0  0  0  0  0  0  0  0
   -1.7926    0.1798    0.0000 N   0  0  0  0  0  0  0  0  0  0  0  0
   -1.7926    1.0086    0.0000 N   0  0  0  0  0  0  0  0  0  0  0  0
    1.0836   -1.4481    0.0000 N   0  0  0  0  0  0  0  0  0  0  0  0
    1.7826   -1.0186    0.0000 N   0  0  0  0  0  0  0  0  0  0  0  0
   -0.3645    0.2098    0.0000 C   0  0  0  0  0  0  0  0  0  0  0  0
    0.3745   -0.1897    0.0000 C   0  0  0  0  0  0  0  0  0  0  0  0
   -0.3446    1.0386    0.0000 C   0  0  0  0  0  0  0  0  0  0  0  0
    1.0836    0.2197    0.0000 C   0  0  0  0  0  0  0  0  0  0  0  0
   -1.0635   -0.1997    0.0000 C   0  0  0  0  0  0  0  0  0  0  0  0
   -1.0635   -0.9287    0.0000 C   0  0  0  0  0  0  0  0  0  0  0  0
  1  2  2  0  0  0  0
  1 12  1  0  0  0  0
  2 13  1  0  0  0  0
  3  8  1  0  0  0  0
  3 11  2  0  0  0  0
  4  7  1  0  0  0  0
  4 12  2  0  0  0  0
  5  9  1  0  0  0  0
  5 13  2  0  0  0  0
  6  7  2  0  0  0  0
  6 14  1  0  0  0  0
  8  9  2  0  0  0  0
 10 11  1  0  0  0  0
 10 12  1  0  0  0  0
 10 14  2  0  0  0  0
 11 13  1  0  0  0  0
 14 15  1  0  0  0  0
M  END
> <PUBCHEM_COMPOUND_ID_TYPE>
0

> <PUBCHEM_TOTAL_CHARGE>
0

> <PUBCHEM_SUBSTANCE_ID>
310949208

> <PUBCHEM_SUBSTANCE_VERSION>
1

> <PUBCHEM_EXT_DATASOURCE_NAME>
4488

> <PUBCHEM_EXT_DATASOURCE_REGID>
SCHEMBL16127398

> <PUBCHEM_SUBSTANCE_COMMENT>
InChI=1S/C6H3N9/c1-2-3-4-6(12-15-14-8-4)10-9-5(3)11-13-7-2/h1H3
InChIKey=CGGHACXIGPDBQM-UHFFFAOYSA-N

> <PUBCHEM_SUBSTANCE_SYNONYM>
SCHEMBL16127398

> <PUBCHEM_XREF_EXT_ID>
SCHEMBL16127398

> <PUBCHEM_EXT_DATASOURCE_URL>
https://www.surechembl.org/

> <PUBCHEM_EXT_SUBSTANCE_URL>
https://www.surechembl.org/chemical/SCHEMBL16127398

> <PUBCHEM_CID_ASSOCIATIONS>
117614696  1

> <PUBCHEM_COORDINATE_TYPE>
1
3

$$$$
