310947588
  -OEChem-07211613022D

 20 22  0     1  0  0  0  0  0999 V2000
   -3.4047   -4.6287    0.0000 F   0  0  0  0  0  0  0  0  0  0  0  0
   -2.5797   -2.6447    0.0000 O   0  0  0  0  0  0  0  0  0  0  0  0
   -1.7547   -4.6287    0.0000 O   0  0  0  0  0  0  0  0  0  0  0  0
   -4.6274   -2.7598    0.0000 O   0  0  0  0  0  0  0  0  0  0  0  0
   -1.9122   -2.3047    0.0000 N   0  0  0  0  0  0  0  0  0  0  0  0
   -1.9122   -0.9698    0.0000 N   0  0  0  0  0  0  0  0  0  0  0  0
   -0.4132   -2.4622    0.0000 N   0  0  0  0  0  0  0  0  0  0  0  0
   -0.4132    0.0128    0.0000 N   0  0  0  0  0  0  0  0  0  0  0  0
   -2.1672   -3.9143    0.0000 C   0  0  3  0  0  0  0  0  0  0  0  0
   -1.9122   -3.1297    0.0000 C   0  0  3  0  0  0  0  0  0  0  0  0
   -2.9922   -3.9143    0.0000 C   0  0  3  0  0  0  0  0  0  0  0  0
   -1.1276   -2.0497    0.0000 C   0  0  0  0  0  0  0  0  0  0  0  0
   -3.2471   -3.1297    0.0000 C   0  0  3  0  0  0  0  0  0  0  0  0
   -1.1276   -1.2247    0.0000 C   0  0  0  0  0  0  0  0  0  0  0  0
   -2.3972   -1.6372    0.0000 C   0  0  0  0  0  0  0  0  0  0  0  0
   -0.4132   -0.8122    0.0000 C   0  0  0  0  0  0  0  0  0  0  0  0
   -1.3703   -3.7007    0.0000 C   0  0  0  0  0  0  0  0  0  0  0  0
   -3.8305   -2.5463    0.0000 C   0  0  0  0  0  0  0  0  0  0  0  0
    0.3013   -1.2247    0.0000 C   0  0  0  0  0  0  0  0  0  0  0  0
    0.3013   -2.0497    0.0000 C   0  0  0  0  0  0  0  0  0  0  0  0
 11  1  1  6  0  0  0
 10  2  1  6  0  0  0
  2 13  1  0  0  0  0
  9  3  1  6  0  0  0
  4 18  1  0  0  0  0
  5 10  1  0  0  0  0
  5 12  1  0  0  0  0
  5 15  1  0  0  0  0
  6 14  1  0  0  0  0
  6 15  2  0  0  0  0
  7 12  1  0  0  0  0
  7 20  2  0  0  0  0
  8 16  1  0  0  0  0
  9 10  1  0  0  0  0
  9 11  1  0  0  0  0
  9 17  1  1  0  0  0
 11 13  1  0  0  0  0
 12 14  2  0  0  0  0
 13 18  1  1  0  0  0
 14 16  1  0  0  0  0
 16 19  2  0  0  0  0
 19 20  1  0  0  0  0
M  END
> <PUBCHEM_COMPOUND_ID_TYPE>
0

> <PUBCHEM_TOTAL_CHARGE>
0

> <PUBCHEM_SUBSTANCE_ID>
310947588

> <PUBCHEM_SUBSTANCE_VERSION>
1

> <PUBCHEM_EXT_DATASOURCE_NAME>
4488

> <PUBCHEM_EXT_DATASOURCE_REGID>
SCHEMBL16125751

> <PUBCHEM_SUBSTANCE_COMMENT>
InChI=1S/C12H15FN4O3/c1-12(19)9(13)7(4-18)20-11(12)17-5-16-8-6(14)2-3-15-10(8)17/h2-3,5,7,9,11,18-19H,4H2,1H3,(H2,14,15)/t7-,9-,11-,12-/m1/s1
InChIKey=QGFHXOMFHBDMEY-COYOAVQYSA-N

> <PUBCHEM_SUBSTANCE_SYNONYM>
SCHEMBL16125751

> <PUBCHEM_XREF_EXT_ID>
SCHEMBL16125751

> <PUBCHEM_EXT_DATASOURCE_URL>
https://www.surechembl.org/

> <PUBCHEM_EXT_SUBSTANCE_URL>
https://www.surechembl.org/chemical/SCHEMBL16125751

> <PUBCHEM_CID_ASSOCIATIONS>
117613310  1

> <PUBCHEM_COORDINATE_TYPE>
1
3

> <PUBCHEM_BONDANNOTATIONS>
11  1  6
13  18  5
10  2  6
9  3  6
9  17  5

$$$$
