310928654
  -OEChem-07211613022D

 14 15  0     0  0  0  0  0  0999 V2000
    2.2279   -0.2334    0.0000 O   0  0  0  0  0  0  0  0  0  0  0  0
    2.3773    1.1877    0.0000 O   0  0  0  0  0  0  0  0  0  0  0  0
   -0.2338    0.3290    0.0000 N   0  0  0  0  0  0  0  0  0  0  0  0
   -0.1476    1.1495    0.0000 N   0  0  0  0  0  0  0  0  0  0  0  0
   -2.3773   -0.0835    0.0000 N   0  0  0  0  0  0  0  0  0  0  0  0
    1.0719    0.6065    0.0000 C   0  0  0  0  0  0  0  0  0  0  0  0
   -0.9483   -0.0835    0.0000 C   0  0  0  0  0  0  0  0  0  0  0  0
    0.5198   -0.0066    0.0000 C   0  0  0  0  0  0  0  0  0  0  0  0
    0.6594    1.3210    0.0000 C   0  0  0  0  0  0  0  0  0  0  0  0
    1.8923    0.5203    0.0000 C   0  0  0  0  0  0  0  0  0  0  0  0
   -1.6628    0.3290    0.0000 C   0  0  0  0  0  0  0  0  0  0  0  0
   -0.9483   -0.9085    0.0000 C   0  0  0  0  0  0  0  0  0  0  0  0
   -1.6628   -1.3210    0.0000 C   0  0  0  0  0  0  0  0  0  0  0  0
   -2.3773   -0.9085    0.0000 C   0  0  0  0  0  0  0  0  0  0  0  0
  1 10  2  0  0  0  0
  2 10  1  0  0  0  0
  3  4  1  0  0  0  0
  3  7  1  0  0  0  0
  3  8  1  0  0  0  0
  4  9  2  0  0  0  0
  5 11  2  0  0  0  0
  5 14  1  0  0  0  0
  6  8  2  0  0  0  0
  6  9  1  0  0  0  0
  6 10  1  0  0  0  0
  7 11  1  0  0  0  0
  7 12  2  0  0  0  0
 12 13  1  0  0  0  0
 13 14  2  0  0  0  0
M  END
> <PUBCHEM_COMPOUND_ID_TYPE>
0

> <PUBCHEM_TOTAL_CHARGE>
0

> <PUBCHEM_SUBSTANCE_ID>
310928654

> <PUBCHEM_SUBSTANCE_VERSION>
1

> <PUBCHEM_EXT_DATASOURCE_NAME>
11752

> <PUBCHEM_EXT_DATASOURCE_REGID>
BD246900

> <PUBCHEM_SUBSTANCE_SYNONYM>
1-(Pyridin-3-yl)-1H-pyrazole-4-carboxylic acid
1014631-89-0

> <PUBCHEM_GENERIC_REGISTRY_NAME>
1014631-89-0

> <PUBCHEM_XREF_EXT_ID>
BD246900

> <PUBCHEM_EXT_DATASOURCE_URL>
http://www.bidepharmatech.com/en/index.html

> <PUBCHEM_EXT_SUBSTANCE_URL>
http://www.bidepharmatech.com/en/goodsview_goodscode_BD246900.html

> <PUBCHEM_CID_ASSOCIATIONS>
54593071  1

> <PUBCHEM_COORDINATE_TYPE>
1
3

$$$$
