310934587
  -OEChem-07211613022D

 25 27  0     0  0  0  0  0  0999 V2000
    2.1708   -2.6051    0.0000 O   0  0  0  0  0  0  0  0  0  0  0  0
    0.7453   -2.7048    0.0000 O   0  0  0  0  0  0  0  0  0  0  0  0
    0.0602    0.6785    0.0000 O   0  0  0  0  0  0  0  0  0  0  0  0
    2.0862   -1.8329    0.0000 N   0  0  0  0  0  0  0  0  0  0  0  0
    1.3717   -1.4204    0.0000 C   0  0  0  0  0  0  0  0  0  0  0  0
    1.4293   -2.2434    0.0000 C   0  0  0  0  0  0  0  0  0  0  0  0
    0.5472   -1.4492    0.0000 C   0  0  0  0  0  0  0  0  0  0  0  0
    1.7590   -0.6920    0.0000 C   0  0  0  0  0  0  0  0  0  0  0  0
    2.8006   -1.4204    0.0000 C   0  0  0  0  0  0  0  0  0  0  0  0
    2.8006   -0.5954    0.0000 C   0  0  0  0  0  0  0  0  0  0  0  0
    0.1100   -0.7496    0.0000 C   0  0  0  0  0  0  0  0  0  0  0  0
    1.3218    0.0076    0.0000 C   0  0  0  0  0  0  0  0  0  0  0  0
    0.4973   -0.0212    0.0000 C   0  0  0  0  0  0  0  0  0  0  0  0
    2.8006    1.0546    0.0000 C   0  0  0  0  0  0  0  0  0  0  0  0
    2.8006    1.8796    0.0000 C   0  0  0  0  0  0  0  0  0  0  0  0
    3.5151   -0.1829    0.0000 C   0  0  0  0  0  0  0  0  0  0  0  0
    2.0862   -0.1829    0.0000 C   0  0  0  0  0  0  0  0  0  0  0  0
    3.5151    0.6421    0.0000 C   0  0  0  0  0  0  0  0  0  0  0  0
    2.0862    0.6421    0.0000 C   0  0  0  0  0  0  0  0  0  0  0  0
    2.0862    2.2921    0.0000 C   0  0  0  0  0  0  0  0  0  0  0  0
    3.5151    2.2921    0.0000 C   0  0  0  0  0  0  0  0  0  0  0  0
    2.2283   -3.4281    0.0000 C   0  0  0  0  0  0  0  0  0  0  0  0
    2.0862    3.1171    0.0000 C   0  0  0  0  0  0  0  0  0  0  0  0
    3.5151    3.1171    0.0000 C   0  0  0  0  0  0  0  0  0  0  0  0
    2.8006    3.5296    0.0000 C   0  0  0  0  0  0  0  0  0  0  0  0
  1  6  1  0  0  0  0
  1 22  1  0  0  0  0
  2  6  2  0  0  0  0
  3 13  1  0  0  0  0
  4  5  1  0  0  0  0
  4  9  1  0  0  0  0
  5  6  1  0  0  0  0
  5  7  1  0  0  0  0
  5  8  1  0  0  0  0
  7 11  1  0  0  0  0
  8 12  1  0  0  0  0
  9 10  1  0  0  0  0
 10 16  2  0  0  0  0
 10 17  1  0  0  0  0
 11 13  1  0  0  0  0
 12 13  1  0  0  0  0
 14 15  1  0  0  0  0
 14 18  2  0  0  0  0
 14 19  1  0  0  0  0
 15 20  2  0  0  0  0
 15 21  1  0  0  0  0
 16 18  1  0  0  0  0
 17 19  2  0  0  0  0
 20 23  1  0  0  0  0
 21 24  2  0  0  0  0
 23 25  2  0  0  0  0
 24 25  1  0  0  0  0
M  END
> <PUBCHEM_COMPOUND_ID_TYPE>
0

> <PUBCHEM_TOTAL_CHARGE>
0

> <PUBCHEM_SUBSTANCE_ID>
310934587

> <PUBCHEM_SUBSTANCE_VERSION>
1

> <PUBCHEM_EXT_DATASOURCE_NAME>
4488

> <PUBCHEM_EXT_DATASOURCE_REGID>
SCHEMBL16112079

> <PUBCHEM_SUBSTANCE_COMMENT>
InChI=1S/C21H25NO3/c1-25-20(24)21(13-11-19(23)12-14-21)22-15-16-7-9-18(10-8-16)17-5-3-2-4-6-17/h2-10,19,22-23H,11-15H2,1H3
InChIKey=DRQIJPRFSYBXDO-UHFFFAOYSA-N

> <PUBCHEM_SUBSTANCE_SYNONYM>
SCHEMBL16112079

> <PUBCHEM_XREF_EXT_ID>
SCHEMBL16112079

> <PUBCHEM_EXT_DATASOURCE_URL>
https://www.surechembl.org/

> <PUBCHEM_EXT_SUBSTANCE_URL>
https://www.surechembl.org/chemical/SCHEMBL16112079

> <PUBCHEM_CID_ASSOCIATIONS>
117602714  1

> <PUBCHEM_COORDINATE_TYPE>
1
3

$$$$
