310943235
  -OEChem-07211613022D

 39 44  0     0  0  0  0  0  0999 V2000
    3.1110   -1.3872    0.0000 F   0  0  0  0  0  0  0  0  0  0  0  0
    4.5557   -1.4857    0.0000 F   0  0  0  0  0  0  0  0  0  0  0  0
   -3.3244    0.1231    0.0000 O   0  0  0  0  0  0  0  0  0  0  0  0
   -3.3244   -3.0289    0.0000 O   0  0  0  0  0  0  0  0  0  0  0  0
   -4.7199    2.6349    0.0000 O   0  0  0  0  0  0  0  0  0  0  0  0
    2.6020    2.3558    0.0000 O   0  0  0  0  0  0  0  0  0  0  0  0
   -3.2752    1.7648    0.0000 N   0  0  0  0  0  0  0  0  0  0  0  0
   -1.8633    0.0903    0.0000 N   0  0  0  0  0  0  0  0  0  0  0  0
    0.4678    2.8976    0.0000 N   0  0  0  0  0  0  0  0  0  0  0  0
    1.8141    1.1574    0.0000 N   0  0  0  0  0  0  0  0  0  0  0  0
    4.6706    0.1559    0.0000 N   0  0  0  0  0  0  0  0  0  0  0  0
   -3.2752   -1.8469    0.0000 C   0  0  0  0  0  0  0  0  0  0  0  0
   -3.3244   -0.6977    0.0000 C   0  0  0  0  0  0  0  0  0  0  0  0
   -3.8662   -1.3051    0.0000 C   0  0  0  0  0  0  0  0  0  0  0  0
   -2.7334   -1.2723    0.0000 C   0  0  0  0  0  0  0  0  0  0  0  0
   -3.8826   -2.4379    0.0000 C   0  0  0  0  0  0  0  0  0  0  0  0
   -2.7170   -2.4543    0.0000 C   0  0  0  0  0  0  0  0  0  0  0  0
   -2.5857    0.5335    0.0000 C   0  0  0  0  0  0  0  0  0  0  0  0
   -2.5528    1.3544    0.0000 C   0  0  0  0  0  0  0  0  0  0  0  0
   -1.1081    1.3380    0.0000 C   0  0  0  0  0  0  0  0  0  0  0  0
   -0.3530    1.7156    0.0000 C   0  0  0  0  0  0  0  0  0  0  0  0
   -1.8305    1.7484    0.0000 C   0  0  0  0  0  0  0  0  0  0  0  0
   -1.1246    0.4843    0.0000 C   0  0  0  0  0  0  0  0  0  0  0  0
   -0.2709    2.5364    0.0000 C   0  0  0  0  0  0  0  0  0  0  0  0
    0.3694    1.2559    0.0000 C   0  0  0  0  0  0  0  0  0  0  0  0
    1.0917    1.6170    0.0000 C   0  0  0  0  0  0  0  0  0  0  0  0
   -3.2588    2.6020    0.0000 C   0  0  0  0  0  0  0  0  0  0  0  0
   -3.9811    1.3872    0.0000 C   0  0  0  0  0  0  0  0  0  0  0  0
    1.1738    2.4379    0.0000 C   0  0  0  0  0  0  0  0  0  0  0  0
    2.5528    1.5186    0.0000 C   0  0  0  0  0  0  0  0  0  0  0  0
    3.2752    1.0917    0.0000 C   0  0  0  0  0  0  0  0  0  0  0  0
   -3.9975    3.0289    0.0000 C   0  0  0  0  0  0  0  0  0  0  0  0
   -4.7199    1.8141    0.0000 C   0  0  0  0  0  0  0  0  0  0  0  0
   -0.9932    2.9796    0.0000 C   0  0  0  0  0  0  0  0  0  0  0  0
    3.2259    0.2544    0.0000 C   0  0  0  0  0  0  0  0  0  0  0  0
    3.9154   -0.1888    0.0000 C   0  0  0  0  0  0  0  0  0  0  0  0
    4.0139    1.4529    0.0000 C   0  0  0  0  0  0  0  0  0  0  0  0
    4.7199    0.9932    0.0000 C   0  0  0  0  0  0  0  0  0  0  0  0
    3.8498   -1.0096    0.0000 C   0  0  0  0  0  0  0  0  0  0  0  0
  1 39  1  0  0  0  0
  2 39  1  0  0  0  0
  3 13  1  0  0  0  0
  3 18  1  0  0  0  0
  4 16  1  0  0  0  0
  4 17  1  0  0  0  0
  5 32  1  0  0  0  0
  5 33  1  0  0  0  0
  6 30  2  0  0  0  0
  7 19  1  0  0  0  0
  7 27  1  0  0  0  0
  7 28  1  0  0  0  0
  8 18  1  0  0  0  0
  8 23  2  0  0  0  0
  9 24  2  0  0  0  0
  9 29  1  0  0  0  0
 10 26  1  0  0  0  0
 10 30  1  0  0  0  0
 11 36  2  0  0  0  0
 11 38  1  0  0  0  0
 12 14  1  0  0  0  0
 12 15  1  0  0  0  0
 12 16  1  0  0  0  0
 12 17  1  0  0  0  0
 13 14  1  0  0  0  0
 13 15  1  0  0  0  0
 18 19  2  0  0  0  0
 19 22  1  0  0  0  0
 20 21  1  0  0  0  0
 20 22  2  0  0  0  0
 20 23  1  0  0  0  0
 21 24  1  0  0  0  0
 21 25  2  0  0  0  0
 24 34  1  0  0  0  0
 25 26  1  0  0  0  0
 26 29  2  0  0  0  0
 27 32  1  0  0  0  0
 28 33  1  0  0  0  0
 30 31  1  0  0  0  0
 31 35  2  0  0  0  0
 31 37  1  0  0  0  0
 35 36  1  0  0  0  0
 36 39  1  0  0  0  0
 37 38  2  0  0  0  0
M  END
> <PUBCHEM_COMPOUND_ID_TYPE>
0

> <PUBCHEM_TOTAL_CHARGE>
0

> <PUBCHEM_SUBSTANCE_ID>
310943235

> <PUBCHEM_SUBSTANCE_VERSION>
1

> <PUBCHEM_EXT_DATASOURCE_NAME>
4488

> <PUBCHEM_EXT_DATASOURCE_REGID>
SCHEMBL16121297

> <PUBCHEM_SUBSTANCE_COMMENT>
InChI=1S/C28H29F2N5O4/c1-17-22(10-20(14-32-17)34-26(36)18-2-3-31-23(8-18)25(29)30)19-9-24(35-4-6-37-7-5-35)27(33-13-19)39-21-11-28(12-21)15-38-16-28/h2-3,8-10,13-14,21,25H,4-7,11-12,15-16H2,1H3,(H,34,36)
InChIKey=JDBHGMBVFCNSHY-UHFFFAOYSA-N

> <PUBCHEM_SUBSTANCE_SYNONYM>
SCHEMBL16121297

> <PUBCHEM_XREF_EXT_ID>
SCHEMBL16121297

> <PUBCHEM_EXT_DATASOURCE_URL>
https://www.surechembl.org/

> <PUBCHEM_EXT_SUBSTANCE_URL>
https://www.surechembl.org/chemical/SCHEMBL16121297

> <PUBCHEM_CID_ASSOCIATIONS>
117609660  1

> <PUBCHEM_COORDINATE_TYPE>
1
3

$$$$
