310929923
  -OEChem-07211613022D

 26 29  0     0  0  0  0  0  0999 V2000
    6.2193   -2.8792    0.0000 I   0  0  0  0  0  0  0  0  0  0  0  0
    5.3843   -4.3189    0.0000 Br  0  0  0  0  0  0  0  0  0  0  0  0
    2.4474   -3.5991    0.0000 N   0  0  0  0  0  0  0  0  0  0  0  0
    2.4474   -2.1595    0.0000 N   0  0  0  0  0  0  0  0  0  0  0  0
    2.8792   -2.8792    0.0000 C   0  0  0  0  0  0  0  0  0  0  0  0
    1.6412   -3.5991    0.0000 C   0  0  0  0  0  0  0  0  0  0  0  0
    1.6412   -2.1595    0.0000 C   0  0  0  0  0  0  0  0  0  0  0  0
    3.7142   -2.8792    0.0000 C   0  0  0  0  0  0  0  0  0  0  0  0
    1.2093   -2.8792    0.0000 C   0  0  0  0  0  0  0  0  0  0  0  0
    1.2381   -4.3189    0.0000 C   0  0  0  0  0  0  0  0  0  0  0  0
    1.2381   -1.4397    0.0000 C   0  0  0  0  0  0  0  0  0  0  0  0
    4.1462   -3.5991    0.0000 C   0  0  0  0  0  0  0  0  0  0  0  0
    4.1462   -2.1595    0.0000 C   0  0  0  0  0  0  0  0  0  0  0  0
    4.9523   -3.5991    0.0000 C   0  0  0  0  0  0  0  0  0  0  0  0
    5.3843   -2.8792    0.0000 C   0  0  0  0  0  0  0  0  0  0  0  0
    4.9523   -2.1595    0.0000 C   0  0  0  0  0  0  0  0  0  0  0  0
    1.6412   -5.0387    0.0000 C   0  0  0  0  0  0  0  0  0  0  0  0
    0.4031   -4.3189    0.0000 C   0  0  0  0  0  0  0  0  0  0  0  0
    0.4031   -1.4397    0.0000 C   0  0  0  0  0  0  0  0  0  0  0  0
    1.6412   -0.7198    0.0000 C   0  0  0  0  0  0  0  0  0  0  0  0
    1.2381   -5.7586    0.0000 C   0  0  0  0  0  0  0  0  0  0  0  0
    0.0000   -5.0387    0.0000 C   0  0  0  0  0  0  0  0  0  0  0  0
    0.0000   -0.7198    0.0000 C   0  0  0  0  0  0  0  0  0  0  0  0
    1.2381    0.0000    0.0000 C   0  0  0  0  0  0  0  0  0  0  0  0
    0.4319   -5.7586    0.0000 C   0  0  0  0  0  0  0  0  0  0  0  0
    0.4031    0.0000    0.0000 C   0  0  0  0  0  0  0  0  0  0  0  0
  1 15  1  0  0  0  0
  2 14  1  0  0  0  0
  3  5  1  0  0  0  0
  3  6  2  0  0  0  0
  4  5  2  0  0  0  0
  4  7  1  0  0  0  0
  5  8  1  0  0  0  0
  6  9  1  0  0  0  0
  6 10  1  0  0  0  0
  7  9  2  0  0  0  0
  7 11  1  0  0  0  0
  8 12  1  0  0  0  0
  8 13  2  0  0  0  0
 10 17  2  0  0  0  0
 10 18  1  0  0  0  0
 11 19  2  0  0  0  0
 11 20  1  0  0  0  0
 12 14  2  0  0  0  0
 13 16  1  0  0  0  0
 14 15  1  0  0  0  0
 15 16  2  0  0  0  0
 17 21  1  0  0  0  0
 18 22  2  0  0  0  0
 19 23  1  0  0  0  0
 20 24  2  0  0  0  0
 21 25  2  0  0  0  0
 22 25  1  0  0  0  0
 23 26  2  0  0  0  0
 24 26  1  0  0  0  0
M  END
> <PUBCHEM_COMPOUND_ID_TYPE>
0

> <PUBCHEM_TOTAL_CHARGE>
0

> <PUBCHEM_SUBSTANCE_ID>
310929923

> <PUBCHEM_SUBSTANCE_VERSION>
1

> <PUBCHEM_EXT_DATASOURCE_NAME>
4488

> <PUBCHEM_EXT_DATASOURCE_REGID>
SCHEMBL16107140

> <PUBCHEM_SUBSTANCE_COMMENT>
InChI=1S/C22H14BrIN2/c23-18-13-17(11-12-19(18)24)22-25-20(15-7-3-1-4-8-15)14-21(26-22)16-9-5-2-6-10-16/h1-14H
InChIKey=YPQWCOWHHLCEHY-UHFFFAOYSA-N

> <PUBCHEM_SUBSTANCE_SYNONYM>
SCHEMBL16107140

> <PUBCHEM_XREF_EXT_ID>
SCHEMBL16107140

> <PUBCHEM_EXT_DATASOURCE_URL>
https://www.surechembl.org/

> <PUBCHEM_EXT_SUBSTANCE_URL>
https://www.surechembl.org/chemical/SCHEMBL16107140

> <PUBCHEM_CID_ASSOCIATIONS>
117599186  1

> <PUBCHEM_COORDINATE_TYPE>
1
3

$$$$
