310941672
  -OEChem-07211613022D

 24 27  0     0  0  0  0  0  0999 V2000
   -2.9601   -1.7907    0.0000 Cl  0  0  0  0  0  0  0  0  0  0  0  0
    0.7089    1.7907    0.0000 S   0  0  0  0  0  0  0  0  0  0  0  0
   -1.5275   -0.9574    0.0000 O   0  0  0  0  0  0  0  0  0  0  0  0
   -0.0804   -0.9574    0.0000 O   0  0  0  0  0  0  0  0  0  0  0  0
    3.2817   -1.0305    0.0000 O   0  0  0  0  0  0  0  0  0  0  0  0
    0.7089    0.4458    0.0000 N   0  0  0  0  0  0  0  0  0  0  0  0
    2.0245    1.1328    0.0000 N   0  0  0  0  0  0  0  0  0  0  0  0
   -0.7967    0.2997    0.0000 C   0  0  0  0  0  0  0  0  0  0  0  0
   -0.0950    0.7236    0.0000 C   0  0  0  0  0  0  0  0  0  0  0  0
   -2.2585   -0.5189    0.0000 C   0  0  0  0  0  0  0  0  0  0  0  0
   -2.2438    0.2997    0.0000 C   0  0  0  0  0  0  0  0  0  0  0  0
   -0.8259   -0.5189    0.0000 C   0  0  0  0  0  0  0  0  0  0  0  0
   -1.5275    0.7089    0.0000 C   0  0  0  0  0  0  0  0  0  0  0  0
   -2.9747   -0.9429    0.0000 C   0  0  0  0  0  0  0  0  0  0  0  0
    1.1767    1.1328    0.0000 C   0  0  0  0  0  0  0  0  0  0  0  0
   -0.0804    1.5422    0.0000 C   0  0  0  0  0  0  0  0  0  0  0  0
   -2.9601    0.7089    0.0000 C   0  0  0  0  0  0  0  0  0  0  0  0
   -3.6910   -0.5189    0.0000 C   0  0  0  0  0  0  0  0  0  0  0  0
   -3.6910    0.2997    0.0000 C   0  0  0  0  0  0  0  0  0  0  0  0
    2.4339    0.4312    0.0000 C   0  0  0  0  0  0  0  0  0  0  0  0
    2.0245   -0.2997    0.0000 C   0  0  0  0  0  0  0  0  0  0  0  0
    3.2817    0.3874    0.0000 C   0  0  0  0  0  0  0  0  0  0  0  0
    2.4339   -1.0159    0.0000 C   0  0  0  0  0  0  0  0  0  0  0  0
    3.6910   -0.3143    0.0000 C   0  0  0  0  0  0  0  0  0  0  0  0
  1 14  1  0  0  0  0
  2 15  1  0  0  0  0
  2 16  1  0  0  0  0
  3 10  1  0  0  0  0
  3 12  1  0  0  0  0
  4 12  2  0  0  0  0
  5 23  1  0  0  0  0
  5 24  1  0  0  0  0
  6  9  1  0  0  0  0
  6 15  2  0  0  0  0
  7 15  1  0  0  0  0
  7 20  1  0  0  0  0
  8  9  1  0  0  0  0
  8 12  1  0  0  0  0
  8 13  2  0  0  0  0
  9 16  2  0  0  0  0
 10 11  1  0  0  0  0
 10 14  2  0  0  0  0
 11 13  1  0  0  0  0
 11 17  2  0  0  0  0
 14 18  1  0  0  0  0
 17 19  1  0  0  0  0
 18 19  2  0  0  0  0
 20 21  1  0  0  0  0
 20 22  1  0  0  0  0
 21 23  1  0  0  0  0
 22 24  1  0  0  0  0
M  END
> <PUBCHEM_COMPOUND_ID_TYPE>
0

> <PUBCHEM_TOTAL_CHARGE>
0

> <PUBCHEM_SUBSTANCE_ID>
310941672

> <PUBCHEM_SUBSTANCE_VERSION>
1

> <PUBCHEM_EXT_DATASOURCE_NAME>
4488

> <PUBCHEM_EXT_DATASOURCE_REGID>
SCHEMBL16119703

> <PUBCHEM_SUBSTANCE_COMMENT>
InChI=1S/C17H15ClN2O3S/c18-13-3-1-2-10-8-12(16(21)23-15(10)13)14-9-24-17(20-14)19-11-4-6-22-7-5-11/h1-3,8-9,11H,4-7H2,(H,19,20)
InChIKey=PBJDTUSOCJZDJY-UHFFFAOYSA-N

> <PUBCHEM_SUBSTANCE_SYNONYM>
SCHEMBL16119703

> <PUBCHEM_XREF_EXT_ID>
SCHEMBL16119703

> <PUBCHEM_EXT_DATASOURCE_URL>
https://www.surechembl.org/

> <PUBCHEM_EXT_SUBSTANCE_URL>
https://www.surechembl.org/chemical/SCHEMBL16119703

> <PUBCHEM_CID_ASSOCIATIONS>
117608452  1

> <PUBCHEM_COORDINATE_TYPE>
1
3

$$$$
