310931979
  -OEChem-07211613022D

 28 30  0     0  0  0  0  0  0999 V2000
    2.8474   -2.1197    0.0000 O   0  0  0  0  0  0  0  0  0  0  0  0
    0.1266   -2.3728    0.0000 O   0  0  0  0  0  0  0  0  0  0  0  0
    7.3398   -2.2146    0.0000 O   0  0  0  0  0  0  0  0  0  0  0  0
    8.7635   -6.3274    0.0000 O   0  0  0  0  0  0  0  0  0  0  0  0
    3.7648   -0.9807    0.0000 N   0  0  0  0  0  0  0  0  0  0  0  0
    3.6699   -0.1582    0.0000 N   0  0  0  0  0  0  0  0  0  0  0  0
    5.1885   -0.9807    0.0000 N   0  0  0  0  0  0  0  0  0  0  0  0
    0.0000   -0.9807    0.0000 N   0  0  0  0  0  0  0  0  0  0  0  0
    6.6122   -3.4485    0.0000 N   0  0  0  0  0  0  0  0  0  0  0  0
    2.4361   -0.6960    0.0000 C   0  0  0  0  0  0  0  0  0  0  0  0
    3.0055   -1.2971    0.0000 C   0  0  0  0  0  0  0  0  0  0  0  0
    4.4609   -1.3921    0.0000 C   0  0  0  0  0  0  0  0  0  0  0  0
    1.6135   -0.7909    0.0000 C   0  0  0  0  0  0  0  0  0  0  0  0
    2.8474    0.0000    0.0000 C   0  0  0  0  0  0  0  0  0  0  0  0
    4.4609   -2.2146    0.0000 C   0  0  0  0  0  0  0  0  0  0  0  0
    1.2971   -1.5819    0.0000 C   0  0  0  0  0  0  0  0  0  0  0  0
    5.8845   -2.2146    0.0000 C   0  0  0  0  0  0  0  0  0  0  0  0
    1.1706   -0.1582    0.0000 C   0  0  0  0  0  0  0  0  0  0  0  0
    0.4746   -1.6451    0.0000 C   0  0  0  0  0  0  0  0  0  0  0  0
    5.8845   -1.3921    0.0000 C   0  0  0  0  0  0  0  0  0  0  0  0
    5.1885   -2.6259    0.0000 C   0  0  0  0  0  0  0  0  0  0  0  0
    6.6122   -2.6259    0.0000 C   0  0  0  0  0  0  0  0  0  0  0  0
    0.3164   -0.2215    0.0000 C   0  0  0  0  0  0  0  0  0  0  0  0
    7.3398   -3.8597    0.0000 C   0  0  0  0  0  0  0  0  0  0  0  0
    0.6011   -3.0371    0.0000 C   0  0  0  0  0  0  0  0  0  0  0  0
    7.3398   -4.6823    0.0000 C   0  0  0  0  0  0  0  0  0  0  0  0
    8.0675   -5.0936    0.0000 C   0  0  0  0  0  0  0  0  0  0  0  0
    8.0675   -5.9162    0.0000 C   0  0  0  0  0  0  0  0  0  0  0  0
  1 11  1  0  0  0  0
  2 19  1  0  0  0  0
  2 25  1  0  0  0  0
  3 22  2  0  0  0  0
  4 28  1  0  0  0  0
  5  6  1  0  0  0  0
  5 11  1  0  0  0  0
  5 12  1  0  0  0  0
  6 14  2  0  0  0  0
  7 12  2  0  0  0  0
  7 20  1  0  0  0  0
  8 19  1  0  0  0  0
  8 23  2  0  0  0  0
  9 22  1  0  0  0  0
  9 24  1  0  0  0  0
 10 11  2  0  0  0  0
 10 13  1  0  0  0  0
 10 14  1  0  0  0  0
 12 15  1  0  0  0  0
 13 16  1  0  0  0  0
 13 18  2  0  0  0  0
 15 21  2  0  0  0  0
 16 19  2  0  0  0  0
 17 20  2  0  0  0  0
 17 21  1  0  0  0  0
 17 22  1  0  0  0  0
 18 23  1  0  0  0  0
 24 26  1  0  0  0  0
 26 27  1  0  0  0  0
 27 28  1  0  0  0  0
M  END
> <PUBCHEM_COMPOUND_ID_TYPE>
0

> <PUBCHEM_TOTAL_CHARGE>
0

> <PUBCHEM_SUBSTANCE_ID>
310931979

> <PUBCHEM_SUBSTANCE_VERSION>
1

> <PUBCHEM_EXT_DATASOURCE_NAME>
4488

> <PUBCHEM_EXT_DATASOURCE_REGID>
SCHEMBL16109319

> <PUBCHEM_SUBSTANCE_COMMENT>
InChI=1S/C19H21N5O4/c1-28-17-10-13(6-8-20-17)15-12-23-24(19(15)27)16-5-4-14(11-22-16)18(26)21-7-2-3-9-25/h4-6,8,10-12,25,27H,2-3,7,9H2,1H3,(H,21,26)
InChIKey=SSVBGAGVSDGPBU-UHFFFAOYSA-N

> <PUBCHEM_SUBSTANCE_SYNONYM>
SCHEMBL16109319

> <PUBCHEM_XREF_EXT_ID>
SCHEMBL16109319

> <PUBCHEM_EXT_DATASOURCE_URL>
https://www.surechembl.org/

> <PUBCHEM_EXT_SUBSTANCE_URL>
https://www.surechembl.org/chemical/SCHEMBL16109319

> <PUBCHEM_CID_ASSOCIATIONS>
117600624  1

> <PUBCHEM_COORDINATE_TYPE>
1
3

$$$$
