310937953
  -OEChem-07211613022D

 29 32  0     0  0  0  0  0  0999 V2000
    0.8427   -0.8675    0.0000 F   0  0  0  0  0  0  0  0  0  0  0  0
    1.5615   -2.1068    0.0000 F   0  0  0  0  0  0  0  0  0  0  0  0
    1.5367   -0.4462    0.0000 F   0  0  0  0  0  0  0  0  0  0  0  0
    1.2145   -1.7350    0.0000 F   0  0  0  0  0  0  0  0  0  0  0  0
    0.0000   -2.4538    0.0000 F   0  0  0  0  0  0  0  0  0  0  0  0
    1.6358   -2.4538    0.0000 F   0  0  0  0  0  0  0  0  0  0  0  0
    3.6435    0.0000    0.0000 O   0  0  0  0  0  0  0  0  0  0  0  0
    2.9743   -1.2393    0.0000 N   0  0  0  0  0  0  0  0  0  0  0  0
    3.6683   -3.2965    0.0000 N   0  0  0  0  0  0  0  0  0  0  0  0
    5.1802   -2.3547    0.0000 N   0  0  0  0  0  0  0  0  0  0  0  0
    5.6512   -1.6607    0.0000 N   0  0  0  0  0  0  0  0  0  0  0  0
    1.5367   -4.5110    0.0000 N   0  0  0  0  0  0  0  0  0  0  0  0
    2.9743   -2.0820    0.0000 C   0  0  0  0  0  0  0  0  0  0  0  0
    3.6683   -2.5034    0.0000 C   0  0  0  0  0  0  0  0  0  0  0  0
    4.3871   -2.0820    0.0000 C   0  0  0  0  0  0  0  0  0  0  0  0
    4.3871   -1.2393    0.0000 C   0  0  0  0  0  0  0  0  0  0  0  0
    3.6683   -0.8179    0.0000 C   0  0  0  0  0  0  0  0  0  0  0  0
    2.2555   -3.2965    0.0000 C   0  0  0  0  0  0  0  0  0  0  0  0
    2.2555   -2.5034    0.0000 C   0  0  0  0  0  0  0  0  0  0  0  0
    1.5367   -3.7179    0.0000 C   0  0  0  0  0  0  0  0  0  0  0  0
    2.2555   -0.8427    0.0000 C   0  0  0  0  0  0  0  0  0  0  0  0
    5.1802   -0.9915    0.0000 C   0  0  0  0  0  0  0  0  0  0  0  0
    2.9743   -3.7179    0.0000 C   0  0  0  0  0  0  0  0  0  0  0  0
    0.8179   -3.2718    0.0000 C   0  0  0  0  0  0  0  0  0  0  0  0
    1.5615   -1.2641    0.0000 C   0  0  0  0  0  0  0  0  0  0  0  0
    0.8179   -2.4538    0.0000 C   0  0  0  0  0  0  0  0  0  0  0  0
    0.1239   -3.7179    0.0000 C   0  0  0  0  0  0  0  0  0  0  0  0
    0.8179   -4.9572    0.0000 C   0  0  0  0  0  0  0  0  0  0  0  0
    0.1239   -4.5358    0.0000 C   0  0  0  0  0  0  0  0  0  0  0  0
  1 25  1  0  0  0  0
  2 25  1  0  0  0  0
  3 25  1  0  0  0  0
  4 26  1  0  0  0  0
  5 26  1  0  0  0  0
  6 26  1  0  0  0  0
  7 17  2  0  0  0  0
  8 13  1  0  0  0  0
  8 17  1  0  0  0  0
  8 21  1  0  0  0  0
  9 14  2  0  0  0  0
  9 23  1  0  0  0  0
 10 11  1  0  0  0  0
 10 15  1  0  0  0  0
 11 22  2  0  0  0  0
 12 20  1  0  0  0  0
 12 28  2  0  0  0  0
 13 14  1  0  0  0  0
 13 19  2  0  0  0  0
 14 15  1  0  0  0  0
 15 16  2  0  0  0  0
 16 17  1  0  0  0  0
 16 22  1  0  0  0  0
 18 19  1  0  0  0  0
 18 20  1  0  0  0  0
 18 23  2  0  0  0  0
 20 24  2  0  0  0  0
 21 25  1  0  0  0  0
 24 26  1  0  0  0  0
 24 27  1  0  0  0  0
 27 29  2  0  0  0  0
 28 29  1  0  0  0  0
M  END
> <PUBCHEM_COMPOUND_ID_TYPE>
0

> <PUBCHEM_TOTAL_CHARGE>
0

> <PUBCHEM_SUBSTANCE_ID>
310937953

> <PUBCHEM_SUBSTANCE_VERSION>
1

> <PUBCHEM_EXT_DATASOURCE_NAME>
4488

> <PUBCHEM_EXT_DATASOURCE_REGID>
SCHEMBL16115784

> <PUBCHEM_SUBSTANCE_COMMENT>
InChI=1S/C17H9F6N5O/c18-16(19,20)7-28-11-4-8(12-10(17(21,22)23)2-1-3-24-12)5-25-14(11)13-9(15(28)29)6-26-27-13/h1-6H,7H2,(H,26,27)
InChIKey=NRAUZVNKWRTDJP-UHFFFAOYSA-N

> <PUBCHEM_SUBSTANCE_SYNONYM>
SCHEMBL16115784

> <PUBCHEM_XREF_EXT_ID>
SCHEMBL16115784

> <PUBCHEM_EXT_DATASOURCE_URL>
https://www.surechembl.org/

> <PUBCHEM_EXT_SUBSTANCE_URL>
https://www.surechembl.org/chemical/SCHEMBL16115784

> <PUBCHEM_CID_ASSOCIATIONS>
86298896  1

> <PUBCHEM_COORDINATE_TYPE>
1
3

$$$$
