310943760
  -OEChem-07211613022D

 38 42  0     0  0  0  0  0  0999 V2000
    4.6334    2.3894    0.0000 F   0  0  0  0  0  0  0  0  0  0  0  0
   -2.0826   -2.8091    0.0000 O   0  0  0  0  0  0  0  0  0  0  0  0
   -5.3600    2.3894    0.0000 O   0  0  0  0  0  0  0  0  0  0  0  0
    1.7758    2.3894    0.0000 O   0  0  0  0  0  0  0  0  0  0  0  0
   -2.5024   -0.9203    0.0000 N   0  0  0  0  0  0  0  0  0  0  0  0
   -3.2127    0.3229    0.0000 N   0  0  0  0  0  0  0  0  0  0  0  0
   -3.9392    1.5660    0.0000 N   0  0  0  0  0  0  0  0  0  0  0  0
   -0.3713    2.8091    0.0000 N   0  0  0  0  0  0  0  0  0  0  0  0
    1.0656    1.1624    0.0000 N   0  0  0  0  0  0  0  0  0  0  0  0
    3.9231    0.3229    0.0000 N   0  0  0  0  0  0  0  0  0  0  0  0
   -2.5024   -0.0807    0.0000 C   0  0  0  0  0  0  0  0  0  0  0  0
   -2.5024   -2.0826    0.0000 C   0  0  0  0  0  0  0  0  0  0  0  0
   -1.7758    1.1624    0.0000 C   0  0  0  0  0  0  0  0  0  0  0  0
   -3.0674   -1.5014    0.0000 C   0  0  0  0  0  0  0  0  0  0  0  0
   -1.9373   -1.5176    0.0000 C   0  0  0  0  0  0  0  0  0  0  0  0
   -1.0817    1.5660    0.0000 C   0  0  0  0  0  0  0  0  0  0  0  0
   -3.2127    1.1624    0.0000 C   0  0  0  0  0  0  0  0  0  0  0  0
   -1.7920    0.3229    0.0000 C   0  0  0  0  0  0  0  0  0  0  0  0
   -2.5024    1.5660    0.0000 C   0  0  0  0  0  0  0  0  0  0  0  0
   -1.0656    2.4056    0.0000 C   0  0  0  0  0  0  0  0  0  0  0  0
   -0.3390    1.1624    0.0000 C   0  0  0  0  0  0  0  0  0  0  0  0
    0.3390    1.5660    0.0000 C   0  0  0  0  0  0  0  0  0  0  0  0
   -2.8898   -2.8253    0.0000 C   0  0  0  0  0  0  0  0  0  0  0  0
    0.3551    2.3894    0.0000 C   0  0  0  0  0  0  0  0  0  0  0  0
    1.7758    1.5498    0.0000 C   0  0  0  0  0  0  0  0  0  0  0  0
    2.5024    1.1624    0.0000 C   0  0  0  0  0  0  0  0  0  0  0  0
   -3.9231    2.3894    0.0000 C   0  0  0  0  0  0  0  0  0  0  0  0
   -4.6173    1.1624    0.0000 C   0  0  0  0  0  0  0  0  0  0  0  0
    3.9231    1.1624    0.0000 C   0  0  0  0  0  0  0  0  0  0  0  0
    4.6496    1.5660    0.0000 C   0  0  0  0  0  0  0  0  0  0  0  0
    3.1966    1.5660    0.0000 C   0  0  0  0  0  0  0  0  0  0  0  0
   -1.7758    2.8253    0.0000 C   0  0  0  0  0  0  0  0  0  0  0  0
    2.4863    0.3229    0.0000 C   0  0  0  0  0  0  0  0  0  0  0  0
   -4.6334    2.8091    0.0000 C   0  0  0  0  0  0  0  0  0  0  0  0
   -5.3600    1.5660    0.0000 C   0  0  0  0  0  0  0  0  0  0  0  0
    3.2289   -0.0807    0.0000 C   0  0  0  0  0  0  0  0  0  0  0  0
    5.3277    1.9857    0.0000 C   0  0  0  0  0  0  0  0  0  0  0  0
    5.3600    1.1624    0.0000 C   0  0  0  0  0  0  0  0  0  0  0  0
  1 30  1  0  0  0  0
  2 12  1  0  0  0  0
  3 34  1  0  0  0  0
  3 35  1  0  0  0  0
  4 25  2  0  0  0  0
  5 11  1  0  0  0  0
  5 14  1  0  0  0  0
  5 15  1  0  0  0  0
  6 11  1  0  0  0  0
  6 17  2  0  0  0  0
  7 17  1  0  0  0  0
  7 27  1  0  0  0  0
  7 28  1  0  0  0  0
  8 20  2  0  0  0  0
  8 24  1  0  0  0  0
  9 22  1  0  0  0  0
  9 25  1  0  0  0  0
 10 29  1  0  0  0  0
 10 36  2  0  0  0  0
 11 18  2  0  0  0  0
 12 14  1  0  0  0  0
 12 15  1  0  0  0  0
 12 23  1  0  0  0  0
 13 16  1  0  0  0  0
 13 18  1  0  0  0  0
 13 19  2  0  0  0  0
 16 20  1  0  0  0  0
 16 21  2  0  0  0  0
 17 19  1  0  0  0  0
 20 32  1  0  0  0  0
 21 22  1  0  0  0  0
 22 24  2  0  0  0  0
 25 26  1  0  0  0  0
 26 31  1  0  0  0  0
 26 33  2  0  0  0  0
 27 34  1  0  0  0  0
 28 35  1  0  0  0  0
 29 30  1  0  0  0  0
 29 31  2  0  0  0  0
 30 37  1  0  0  0  0
 30 38  1  0  0  0  0
 33 36  1  0  0  0  0
M  END
> <PUBCHEM_COMPOUND_ID_TYPE>
0

> <PUBCHEM_TOTAL_CHARGE>
0

> <PUBCHEM_SUBSTANCE_ID>
310943760

> <PUBCHEM_SUBSTANCE_VERSION>
1

> <PUBCHEM_EXT_DATASOURCE_NAME>
4488

> <PUBCHEM_EXT_DATASOURCE_REGID>
SCHEMBL16121829

> <PUBCHEM_SUBSTANCE_COMMENT>
InChI=1S/C28H33FN6O3/c1-18-22(14-21(15-31-18)32-26(36)19-5-6-30-23(11-19)27(2,3)29)20-12-24(34-7-9-38-10-8-34)33-25(13-20)35-16-28(4,37)17-35/h5-6,11-15,37H,7-10,16-17H2,1-4H3,(H,32,36)
InChIKey=JRLPAGHYXHPMSA-UHFFFAOYSA-N

> <PUBCHEM_SUBSTANCE_SYNONYM>
SCHEMBL16121829

> <PUBCHEM_XREF_EXT_ID>
SCHEMBL16121829

> <PUBCHEM_EXT_DATASOURCE_URL>
https://www.surechembl.org/

> <PUBCHEM_EXT_SUBSTANCE_URL>
https://www.surechembl.org/chemical/SCHEMBL16121829

> <PUBCHEM_CID_ASSOCIATIONS>
117610122  1

> <PUBCHEM_COORDINATE_TYPE>
1
3

$$$$
