310948960
  -OEChem-07211613022D

 21 22  0     0  0  0  0  0  0999 V2000
   -1.1636    1.0367    0.0000 F   0  0  0  0  0  0  0  0  0  0  0  0
    2.4210   -0.2096    0.0000 O   0  0  0  0  0  0  0  0  0  0  0  0
    1.7041   -1.4559    0.0000 O   0  0  0  0  0  0  0  0  0  0  0  0
    0.2703   -0.6287    0.0000 N   0  0  0  0  0  0  0  0  0  0  0  0
    0.2703    1.8641    0.0000 N   0  0  0  0  0  0  0  0  0  0  0  0
   -0.4578   -0.2096    0.0000 C   0  0  0  0  0  0  0  0  0  0  0  0
    0.9761   -0.2096    0.0000 C   0  0  0  0  0  0  0  0  0  0  0  0
    0.9981    0.6287    0.0000 C   0  0  0  0  0  0  0  0  0  0  0  0
   -0.4357    0.6287    0.0000 C   0  0  0  0  0  0  0  0  0  0  0  0
    0.2703    1.0367    0.0000 C   0  0  0  0  0  0  0  0  0  0  0  0
   -1.1526   -0.6287    0.0000 C   0  0  0  0  0  0  0  0  0  0  0  0
    1.7041   -0.5957    0.0000 C   0  0  0  0  0  0  0  0  0  0  0  0
    1.7041    1.0257    0.0000 C   0  0  0  0  0  0  0  0  0  0  0  0
   -1.8806   -0.2206    0.0000 C   0  0  0  0  0  0  0  0  0  0  0  0
   -1.1636   -1.4559    0.0000 C   0  0  0  0  0  0  0  0  0  0  0  0
   -2.5755   -0.6287    0.0000 C   0  0  0  0  0  0  0  0  0  0  0  0
   -1.8696   -1.8641    0.0000 C   0  0  0  0  0  0  0  0  0  0  0  0
   -2.5865   -1.4559    0.0000 C   0  0  0  0  0  0  0  0  0  0  0  0
    2.3879    0.5515    0.0000 C   0  0  0  0  0  0  0  0  0  0  0  0
    3.1380   -0.6287    0.0000 C   0  0  0  0  0  0  0  0  0  0  0  0
   -3.1380   -1.7869    0.0000 C   0  0  0  0  0  0  0  0  0  0  0  0
  1  9  1  0  0  0  0
  2 12  1  0  0  0  0
  2 20  1  0  0  0  0
  3 12  2  0  0  0  0
  4  6  1  0  0  0  0
  4  7  2  0  0  0  0
  5 10  1  0  0  0  0
  6  9  2  0  0  0  0
  6 11  1  0  0  0  0
  7  8  1  0  0  0  0
  7 12  1  0  0  0  0
  8 10  2  0  0  0  0
  8 13  1  0  0  0  0
  9 10  1  0  0  0  0
 11 14  2  0  0  0  0
 11 15  1  0  0  0  0
 13 19  2  0  0  0  0
 14 16  1  0  0  0  0
 15 17  2  0  0  0  0
 16 18  2  0  0  0  0
 17 18  1  0  0  0  0
 18 21  1  0  0  0  0
M  END
> <PUBCHEM_COMPOUND_ID_TYPE>
0

> <PUBCHEM_TOTAL_CHARGE>
0

> <PUBCHEM_SUBSTANCE_ID>
310948960

> <PUBCHEM_SUBSTANCE_VERSION>
1

> <PUBCHEM_EXT_DATASOURCE_NAME>
4488

> <PUBCHEM_EXT_DATASOURCE_REGID>
SCHEMBL16127148

> <PUBCHEM_SUBSTANCE_COMMENT>
InChI=1S/C16H15FN2O2/c1-4-11-13(18)12(17)14(19-15(11)16(20)21-3)10-7-5-9(2)6-8-10/h4-8H,1H2,2-3H3,(H2,18,19)
InChIKey=HONUKMZRJIYUKX-UHFFFAOYSA-N

> <PUBCHEM_SUBSTANCE_SYNONYM>
SCHEMBL16127148

> <PUBCHEM_XREF_EXT_ID>
SCHEMBL16127148

> <PUBCHEM_EXT_DATASOURCE_URL>
https://www.surechembl.org/

> <PUBCHEM_EXT_SUBSTANCE_URL>
https://www.surechembl.org/chemical/SCHEMBL16127148

> <PUBCHEM_CID_ASSOCIATIONS>
117614469  1

> <PUBCHEM_COORDINATE_TYPE>
1
3

$$$$
