310934559
  -OEChem-07211613022D

 26 28  0     0  0  0  0  0  0999 V2000
    4.4877   -0.7103    0.0000 S   0  0  0  0  0  0  0  0  0  0  0  0
    1.5497    0.0000    0.0000 O   0  0  0  0  0  0  0  0  0  0  0  0
    5.2948   -0.7103    0.0000 O   0  0  0  0  0  0  0  0  0  0  0  0
    4.8751    0.0000    0.0000 O   0  0  0  0  0  0  0  0  0  0  0  0
    0.7426   -1.4206    0.0000 O   0  0  0  0  0  0  0  0  0  0  0  0
    1.5497   -1.4206    0.0000 N   0  0  0  0  0  0  0  0  0  0  0  0
    2.8088   -0.7103    0.0000 C   0  0  0  0  0  0  0  0  0  0  0  0
    1.9694   -0.7103    0.0000 C   0  0  0  0  0  0  0  0  0  0  0  0
    3.2285   -1.4206    0.0000 C   0  0  0  0  0  0  0  0  0  0  0  0
    3.2285    0.0000    0.0000 C   0  0  0  0  0  0  0  0  0  0  0  0
    2.3891   -1.4206    0.0000 C   0  0  0  0  0  0  0  0  0  0  0  0
    4.0357   -1.4206    0.0000 C   0  0  0  0  0  0  0  0  0  0  0  0
    4.0357    0.0000    0.0000 C   0  0  0  0  0  0  0  0  0  0  0  0
    2.8088   -2.1309    0.0000 C   0  0  0  0  0  0  0  0  0  0  0  0
    2.4214   -2.8734    0.0000 C   0  0  0  0  0  0  0  0  0  0  0  0
    1.6143   -4.2940    0.0000 C   0  0  0  0  0  0  0  0  0  0  0  0
    1.5820   -2.8734    0.0000 C   0  0  0  0  0  0  0  0  0  0  0  0
    2.8411   -3.5837    0.0000 C   0  0  0  0  0  0  0  0  0  0  0  0
    1.2268   -5.0365    0.0000 C   0  0  0  0  0  0  0  0  0  0  0  0
    1.1945   -3.5837    0.0000 C   0  0  0  0  0  0  0  0  0  0  0  0
    2.4214   -4.2940    0.0000 C   0  0  0  0  0  0  0  0  0  0  0  0
    1.6466   -5.7145    0.0000 C   0  0  0  0  0  0  0  0  0  0  0  0
    0.3874   -5.0365    0.0000 C   0  0  0  0  0  0  0  0  0  0  0  0
    1.2268   -6.4571    0.0000 C   0  0  0  0  0  0  0  0  0  0  0  0
    0.0000   -5.7468    0.0000 C   0  0  0  0  0  0  0  0  0  0  0  0
    0.4197   -6.4571    0.0000 C   0  0  0  0  0  0  0  0  0  0  0  0
  1  3  2  0  0  0  0
  1  4  2  0  0  0  0
  1 12  1  0  0  0  0
  1 13  1  0  0  0  0
  2  8  2  0  0  0  0
  5  6  1  0  0  0  0
  6  8  1  0  0  0  0
  7  8  1  0  0  0  0
  7  9  1  0  0  0  0
  7 10  1  0  0  0  0
  7 11  1  0  0  0  0
  9 12  1  0  0  0  0
 10 13  1  0  0  0  0
 11 14  1  0  0  0  0
 14 15  1  0  0  0  0
 15 17  2  0  0  0  0
 15 18  1  0  0  0  0
 16 19  1  0  0  0  0
 16 20  2  0  0  0  0
 16 21  1  0  0  0  0
 17 20  1  0  0  0  0
 18 21  2  0  0  0  0
 19 22  2  0  0  0  0
 19 23  1  0  0  0  0
 22 24  1  0  0  0  0
 23 25  2  0  0  0  0
 24 26  2  0  0  0  0
 25 26  1  0  0  0  0
M  END
> <PUBCHEM_COMPOUND_ID_TYPE>
0

> <PUBCHEM_TOTAL_CHARGE>
0

> <PUBCHEM_SUBSTANCE_ID>
310934559

> <PUBCHEM_SUBSTANCE_VERSION>
1

> <PUBCHEM_EXT_DATASOURCE_NAME>
4488

> <PUBCHEM_EXT_DATASOURCE_REGID>
SCHEMBL16112050

> <PUBCHEM_SUBSTANCE_COMMENT>
InChI=1S/C20H23NO4S/c22-19(21-23)20(12-14-26(24,25)15-13-20)11-10-16-6-8-18(9-7-16)17-4-2-1-3-5-17/h1-9,23H,10-15H2,(H,21,22)
InChIKey=FOZBSVNOFCLOBE-UHFFFAOYSA-N

> <PUBCHEM_SUBSTANCE_SYNONYM>
SCHEMBL16112050

> <PUBCHEM_XREF_EXT_ID>
SCHEMBL16112050

> <PUBCHEM_EXT_DATASOURCE_URL>
https://www.surechembl.org/

> <PUBCHEM_EXT_SUBSTANCE_URL>
https://www.surechembl.org/chemical/SCHEMBL16112050

> <PUBCHEM_CID_ASSOCIATIONS>
117602750  1

> <PUBCHEM_COORDINATE_TYPE>
1
3

$$$$
