310940883
  -OEChem-07211613022D

 14 15  0     1  0  0  0  0  0999 V2000
    1.4204   -0.0956    0.0000 O   0  0  0  0  0  0  0  0  0  0  0  0
    0.0136   -1.7345    0.0000 O   0  0  0  0  0  0  0  0  0  0  0  0
   -1.4204   -0.9014    0.0000 N   0  0  0  0  0  0  0  0  0  0  0  0
    0.7375   -0.4780    0.0000 C   0  0  3  0  0  0  0  0  0  0  0  0
    0.0136   -0.8741    0.0000 C   0  0  0  0  0  0  0  0  0  0  0  0
    1.4067   -0.8741    0.0000 C   0  0  0  0  0  0  0  0  0  0  0  0
   -0.7102   -0.4917    0.0000 C   0  0  3  0  0  0  0  0  0  0  0  0
    0.3141    0.2321    0.0000 C   0  0  0  0  0  0  0  0  0  0  0  0
   -0.6965    0.3414    0.0000 C   0  0  0  0  0  0  0  0  0  0  0  0
    0.0136    0.7512    0.0000 C   0  0  0  0  0  0  0  0  0  0  0  0
    0.1093    1.5706    0.0000 C   0  0  0  0  0  0  0  0  0  0  0  0
    0.7785    0.4234    0.0000 C   0  0  0  0  0  0  0  0  0  0  0  0
    0.9287    1.7345    0.0000 C   0  0  0  0  0  0  0  0  0  0  0  0
    1.3248    1.0243    0.0000 C   0  0  0  0  0  0  0  0  0  0  0  0
  1  4  1  0  0  0  0
  1  6  1  0  0  0  0
  2  5  2  0  0  0  0
  7  3  1  1  0  0  0
  4  5  1  6  0  0  0
  4  6  1  0  0  0  0
  4  8  1  1  0  0  0
  5  7  1  0  0  0  0
  7  9  1  0  0  0  0
  9 10  1  0  0  0  0
 10 11  1  0  0  0  0
 10 12  1  0  0  0  0
 11 13  1  0  0  0  0
 12 14  1  0  0  0  0
 13 14  1  0  0  0  0
M  END
> <PUBCHEM_COMPOUND_ID_TYPE>
0

> <PUBCHEM_TOTAL_CHARGE>
0

> <PUBCHEM_SUBSTANCE_ID>
310940883

> <PUBCHEM_SUBSTANCE_VERSION>
1

> <PUBCHEM_EXT_DATASOURCE_NAME>
4488

> <PUBCHEM_EXT_DATASOURCE_REGID>
SCHEMBL16118842

> <PUBCHEM_SUBSTANCE_COMMENT>
InChI=1S/C11H19NO2/c1-11(7-14-11)10(13)9(12)6-8-4-2-3-5-8/h8-9H,2-7,12H2,1H3/t9-,11+/m0/s1
InChIKey=ADFOJOATDQVRNR-GXSJLCMTSA-N

> <PUBCHEM_SUBSTANCE_SYNONYM>
SCHEMBL16118842

> <PUBCHEM_XREF_EXT_ID>
SCHEMBL16118842

> <PUBCHEM_EXT_DATASOURCE_URL>
https://www.surechembl.org/

> <PUBCHEM_EXT_SUBSTANCE_URL>
https://www.surechembl.org/chemical/SCHEMBL16118842

> <PUBCHEM_CID_ASSOCIATIONS>
117607800  1

> <PUBCHEM_COORDINATE_TYPE>
1
3

> <PUBCHEM_BONDANNOTATIONS>
7  3  5
4  5  6
4  8  5

$$$$
