310943117
  -OEChem-07211613022D

 22 24  0     0  0  0  0  0  0999 V2000
    0.0873    1.8494    0.0000 Cl  0  0  0  0  0  0  0  0  0  0  0  0
   -1.7701   -1.0239    0.0000 O   0  0  0  0  0  0  0  0  0  0  0  0
   -3.1829    1.4366    0.0000 O   0  0  0  0  0  0  0  0  0  0  0  0
   -0.3572   -1.0081    0.0000 N   0  0  0  0  0  0  0  0  0  0  0  0
   -1.7701    0.6271    0.0000 N   0  0  0  0  0  0  0  0  0  0  0  0
    3.1829    0.2143    0.0000 N   0  0  0  0  0  0  0  0  0  0  0  0
   -1.0557    0.2143    0.0000 C   0  0  0  0  0  0  0  0  0  0  0  0
    0.3572    0.2143    0.0000 C   0  0  0  0  0  0  0  0  0  0  0  0
   -1.0557   -0.5794    0.0000 C   0  0  0  0  0  0  0  0  0  0  0  0
    1.0716    0.6271    0.0000 C   0  0  0  0  0  0  0  0  0  0  0  0
   -0.3572    0.6271    0.0000 C   0  0  0  0  0  0  0  0  0  0  0  0
    0.3413   -0.6112    0.0000 C   0  0  0  0  0  0  0  0  0  0  0  0
    1.0716    1.4526    0.0000 C   0  0  0  0  0  0  0  0  0  0  0  0
    1.7542    0.2302    0.0000 C   0  0  0  0  0  0  0  0  0  0  0  0
    2.4685    0.6429    0.0000 C   0  0  0  0  0  0  0  0  0  0  0  0
   -1.7542    1.4366    0.0000 C   0  0  0  0  0  0  0  0  0  0  0  0
   -2.4844    0.2143    0.0000 C   0  0  0  0  0  0  0  0  0  0  0  0
    1.7542    1.8494    0.0000 C   0  0  0  0  0  0  0  0  0  0  0  0
    2.4685    1.4366    0.0000 C   0  0  0  0  0  0  0  0  0  0  0  0
   -0.3413   -1.8494    0.0000 C   0  0  0  0  0  0  0  0  0  0  0  0
   -2.4685    1.8494    0.0000 C   0  0  0  0  0  0  0  0  0  0  0  0
   -3.1829    0.6271    0.0000 C   0  0  0  0  0  0  0  0  0  0  0  0
  1 13  1  0  0  0  0
  2  9  2  0  0  0  0
  3 21  1  0  0  0  0
  3 22  1  0  0  0  0
  4  9  1  0  0  0  0
  4 12  1  0  0  0  0
  4 20  1  0  0  0  0
  5  7  1  0  0  0  0
  5 16  1  0  0  0  0
  5 17  1  0  0  0  0
  6 15  1  0  0  0  0
  7  9  1  0  0  0  0
  7 11  2  0  0  0  0
  8 10  1  0  0  0  0
  8 11  1  0  0  0  0
  8 12  2  0  0  0  0
 10 13  2  0  0  0  0
 10 14  1  0  0  0  0
 13 18  1  0  0  0  0
 14 15  2  0  0  0  0
 15 19  1  0  0  0  0
 16 21  1  0  0  0  0
 17 22  1  0  0  0  0
 18 19  2  0  0  0  0
M  END
> <PUBCHEM_COMPOUND_ID_TYPE>
0

> <PUBCHEM_TOTAL_CHARGE>
0

> <PUBCHEM_SUBSTANCE_ID>
310943117

> <PUBCHEM_SUBSTANCE_VERSION>
1

> <PUBCHEM_EXT_DATASOURCE_NAME>
4488

> <PUBCHEM_EXT_DATASOURCE_REGID>
SCHEMBL16121177

> <PUBCHEM_SUBSTANCE_COMMENT>
InChI=1S/C16H18ClN3O2/c1-19-10-11(13-9-12(18)2-3-14(13)17)8-15(16(19)21)20-4-6-22-7-5-20/h2-3,8-10H,4-7,18H2,1H3
InChIKey=SQQSZINDJYZRJM-UHFFFAOYSA-N

> <PUBCHEM_SUBSTANCE_SYNONYM>
SCHEMBL16121177

> <PUBCHEM_XREF_EXT_ID>
SCHEMBL16121177

> <PUBCHEM_EXT_DATASOURCE_URL>
https://www.surechembl.org/

> <PUBCHEM_EXT_SUBSTANCE_URL>
https://www.surechembl.org/chemical/SCHEMBL16121177

> <PUBCHEM_CID_ASSOCIATIONS>
117609547  1

> <PUBCHEM_COORDINATE_TYPE>
1
3

$$$$
