310936160
  -OEChem-07211613022D

 27 27  0     1  0  0  0  0  0999 V2000
    9.3122   -1.0396    0.0000 O   0  0  0  0  0  0  0  0  0  0  0  0
    9.2652   -2.7620    0.0000 O   0  0  0  0  0  0  0  0  0  0  0  0
   11.4318   -1.2945    0.0000 O   0  0  0  0  0  0  0  0  0  0  0  0
   10.8771    0.4125    0.0000 O   0  0  0  0  0  0  0  0  0  0  0  0
   11.4086   -2.3495    0.0000 O   0  0  0  0  0  0  0  0  0  0  0  0
    8.5507   -1.5245    0.0000 O   0  0  0  0  0  0  0  0  0  0  0  0
    9.9797   -1.5245    0.0000 C   0  0  3  0  0  0  0  0  0  0  0  0
   10.6471   -1.0396    0.0000 C   0  0  3  0  0  0  0  0  0  0  0  0
    9.9797   -2.3495    0.0000 C   0  0  3  0  0  0  0  0  0  0  0  0
   10.3922   -0.2549    0.0000 C   0  0  3  0  0  0  0  0  0  0  0  0
    9.5672   -0.2549    0.0000 C   0  0  0  0  0  0  0  0  0  0  0  0
   10.6941   -2.7620    0.0000 C   0  0  0  0  0  0  0  0  0  0  0  0
    8.5507   -2.3495    0.0000 C   0  0  0  0  0  0  0  0  0  0  0  0
    7.8362   -2.7620    0.0000 C   0  0  0  0  0  0  0  0  0  0  0  0
    7.1217   -2.3495    0.0000 C   0  0  0  0  0  0  0  0  0  0  0  0
    6.4072   -2.7620    0.0000 C   0  0  0  0  0  0  0  0  0  0  0  0
    5.6928   -2.3495    0.0000 C   0  0  0  0  0  0  0  0  0  0  0  0
    4.9783   -2.7620    0.0000 C   0  0  0  0  0  0  0  0  0  0  0  0
    4.2638   -2.3495    0.0000 C   0  0  0  0  0  0  0  0  0  0  0  0
    3.5493   -2.7620    0.0000 C   0  0  0  0  0  0  0  0  0  0  0  0
    2.8348   -2.3495    0.0000 C   0  0  0  0  0  0  0  0  0  0  0  0
    2.1203   -2.7620    0.0000 C   0  0  0  0  0  0  0  0  0  0  0  0
    1.4058   -2.3495    0.0000 C   0  0  0  0  0  0  0  0  0  0  0  0
    0.6914   -2.7620    0.0000 C   0  0  0  0  0  0  0  0  0  0  0  0
   -0.0231   -2.3495    0.0000 C   0  0  0  0  0  0  0  0  0  0  0  0
   -0.7376   -2.7620    0.0000 C   0  0  0  0  0  0  0  0  0  0  0  0
   -1.4521   -2.3495    0.0000 C   0  0  0  0  0  0  0  0  0  0  0  0
  1  7  1  0  0  0  0
  1 11  1  0  0  0  0
  9  2  1  1  0  0  0
  2 13  1  0  0  0  0
  8  3  1  1  0  0  0
 10  4  1  6  0  0  0
  5 12  1  0  0  0  0
  6 13  2  0  0  0  0
  7  8  1  0  0  0  0
  7  9  1  1  0  0  0
  8 10  1  0  0  0  0
  9 12  1  0  0  0  0
 10 11  1  0  0  0  0
 13 14  1  0  0  0  0
 14 15  1  0  0  0  0
 15 16  1  0  0  0  0
 16 17  1  0  0  0  0
 17 18  1  0  0  0  0
 18 19  1  0  0  0  0
 19 20  1  0  0  0  0
 20 21  1  0  0  0  0
 21 22  2  3  0  0  0
 22 23  1  0  0  0  0
 23 24  1  0  0  0  0
 24 25  1  0  0  0  0
 25 26  1  0  0  0  0
 26 27  1  0  0  0  0
M  END
> <PUBCHEM_COMPOUND_ID_TYPE>
0

> <PUBCHEM_TOTAL_CHARGE>
0

> <PUBCHEM_SUBSTANCE_ID>
310936160

> <PUBCHEM_SUBSTANCE_VERSION>
1

> <PUBCHEM_EXT_DATASOURCE_NAME>
4488

> <PUBCHEM_EXT_DATASOURCE_REGID>
SCHEMBL16113770

> <PUBCHEM_SUBSTANCE_COMMENT>
InChI=1S/C21H38O6/c1-2-3-4-5-6-7-8-9-10-11-12-13-14-19(24)27-18(15-22)21-20(25)17(23)16-26-21/h6-7,17-18,20-23,25H,2-5,8-16H2,1H3/b7-6+/t17-,18+,20+,21+/m0/s1
InChIKey=KSABLGDWZNANNK-UOCRLOOASA-N

> <PUBCHEM_SUBSTANCE_SYNONYM>
SCHEMBL16113770

> <PUBCHEM_XREF_EXT_ID>
SCHEMBL16113770

> <PUBCHEM_EXT_DATASOURCE_URL>
https://www.surechembl.org/

> <PUBCHEM_EXT_SUBSTANCE_URL>
https://www.surechembl.org/chemical/SCHEMBL16113770

> <PUBCHEM_CID_ASSOCIATIONS>
117604121  1

> <PUBCHEM_COORDINATE_TYPE>
1
3

> <PUBCHEM_BONDANNOTATIONS>
9  2  5
21  22  1
8  3  5
10  4  6
7  9  5

$$$$
