310934548
  -OEChem-07211613022D

 21 23  0     0  0  0  0  0  0999 V2000
    5.0117   -1.6499    0.0000 Br  0  0  0  0  0  0  0  0  0  0  0  0
    0.7219    0.0000    0.0000 O   0  0  0  0  0  0  0  0  0  0  0  0
    0.7219   -2.4749    0.0000 O   0  0  0  0  0  0  0  0  0  0  0  0
    2.1450    0.0000    0.0000 N   0  0  0  0  0  0  0  0  0  0  0  0
    2.1450   -1.6499    0.0000 C   0  0  0  0  0  0  0  0  0  0  0  0
    2.8874   -1.2374    0.0000 C   0  0  0  0  0  0  0  0  0  0  0  0
    1.4231   -1.2374    0.0000 C   0  0  0  0  0  0  0  0  0  0  0  0
    2.8874   -0.4125    0.0000 C   0  0  0  0  0  0  0  0  0  0  0  0
    1.4231   -0.4125    0.0000 C   0  0  0  0  0  0  0  0  0  0  0  0
    2.1450   -2.4749    0.0000 C   0  0  0  0  0  0  0  0  0  0  0  0
    3.5680   -1.6499    0.0000 C   0  0  0  0  0  0  0  0  0  0  0  0
    0.7219   -1.6499    0.0000 C   0  0  0  0  0  0  0  0  0  0  0  0
    3.5680    0.0000    0.0000 C   0  0  0  0  0  0  0  0  0  0  0  0
    4.2898   -1.2374    0.0000 C   0  0  0  0  0  0  0  0  0  0  0  0
    4.2898   -0.4125    0.0000 C   0  0  0  0  0  0  0  0  0  0  0  0
    2.8874   -2.8874    0.0000 C   0  0  0  0  0  0  0  0  0  0  0  0
    1.4437   -2.8874    0.0000 C   0  0  0  0  0  0  0  0  0  0  0  0
    0.0000   -1.2374    0.0000 C   0  0  0  0  0  0  0  0  0  0  0  0
    2.8874   -3.7124    0.0000 C   0  0  0  0  0  0  0  0  0  0  0  0
    1.4437   -3.7124    0.0000 C   0  0  0  0  0  0  0  0  0  0  0  0
    2.1450   -4.1249    0.0000 C   0  0  0  0  0  0  0  0  0  0  0  0
  1 14  1  0  0  0  0
  2  9  2  0  0  0  0
  3 12  2  0  0  0  0
  4  8  1  0  0  0  0
  4  9  1  0  0  0  0
  5  6  1  0  0  0  0
  5  7  2  0  0  0  0
  5 10  1  0  0  0  0
  6  8  2  0  0  0  0
  6 11  1  0  0  0  0
  7  9  1  0  0  0  0
  7 12  1  0  0  0  0
  8 13  1  0  0  0  0
 10 16  2  0  0  0  0
 10 17  1  0  0  0  0
 11 14  2  0  0  0  0
 12 18  1  0  0  0  0
 13 15  2  0  0  0  0
 14 15  1  0  0  0  0
 16 19  1  0  0  0  0
 17 20  2  0  0  0  0
 19 21  2  0  0  0  0
 20 21  1  0  0  0  0
M  END
> <PUBCHEM_COMPOUND_ID_TYPE>
0

> <PUBCHEM_TOTAL_CHARGE>
0

> <PUBCHEM_SUBSTANCE_ID>
310934548

> <PUBCHEM_SUBSTANCE_VERSION>
1

> <PUBCHEM_EXT_DATASOURCE_NAME>
4488

> <PUBCHEM_EXT_DATASOURCE_REGID>
SCHEMBL16112039

> <PUBCHEM_SUBSTANCE_COMMENT>
InChI=1S/C17H12BrNO2/c1-10(20)15-16(11-5-3-2-4-6-11)13-9-12(18)7-8-14(13)19-17(15)21/h2-9H,1H3,(H,19,21)
InChIKey=FXROTDSWXRSXMK-UHFFFAOYSA-N

> <PUBCHEM_SUBSTANCE_SYNONYM>
SCHEMBL16112039

> <PUBCHEM_XREF_EXT_ID>
SCHEMBL16112039

> <PUBCHEM_EXT_DATASOURCE_URL>
https://www.surechembl.org/

> <PUBCHEM_EXT_SUBSTANCE_URL>
https://www.surechembl.org/chemical/SCHEMBL16112039

> <PUBCHEM_CID_ASSOCIATIONS>
678847  1

> <PUBCHEM_COORDINATE_TYPE>
1
3

$$$$
