310946503
  -OEChem-07211613022D

 17 17  0     0  0  0  0  0  0999 V2000
   -6.6351   12.1011    0.0000 O   0  0  0  0  0  0  0  0  0  0  0  0
   -8.0640   12.1011    0.0000 O   0  0  0  0  0  0  0  0  0  0  0  0
   -7.6515    8.9117    0.0000 O   0  0  0  0  0  0  0  0  0  0  0  0
   -8.3660   10.1492    0.0000 O   0  0  0  0  0  0  0  0  0  0  0  0
   -7.3495   10.8636    0.0000 N   0  0  0  0  0  0  0  0  0  0  0  0
   -5.2548   12.8980    0.0000 C   0  0  0  0  0  0  0  0  0  0  0  0
   -7.3495   11.6886    0.0000 C   0  0  0  0  0  0  0  0  0  0  0  0
   -6.0517   12.6845    0.0000 C   0  0  0  0  0  0  0  0  0  0  0  0
   -3.6610   13.3251    0.0000 C   0  0  0  0  0  0  0  0  0  0  0  0
   -4.6714   12.3147    0.0000 C   0  0  0  0  0  0  0  0  0  0  0  0
   -5.0413   13.6949    0.0000 C   0  0  0  0  0  0  0  0  0  0  0  0
   -3.8746   12.5282    0.0000 C   0  0  0  0  0  0  0  0  0  0  0  0
   -4.2444   13.9084    0.0000 C   0  0  0  0  0  0  0  0  0  0  0  0
   -6.9370   10.1492    0.0000 C   0  0  0  0  0  0  0  0  0  0  0  0
   -7.6515    9.7367    0.0000 C   0  0  0  0  0  0  0  0  0  0  0  0
   -2.8641   13.5386    0.0000 C   0  0  0  0  0  0  0  0  0  0  0  0
   -2.2808   12.9552    0.0000 C   0  0  0  0  0  0  0  0  0  0  0  0
  1  7  1  0  0  0  0
  1  8  1  0  0  0  0
  2  7  2  0  0  0  0
  3 15  2  0  0  0  0
  4 15  1  0  0  0  0
  5  7  1  0  0  0  0
  5 14  1  0  0  0  0
  6  8  1  0  0  0  0
  6 10  2  0  0  0  0
  6 11  1  0  0  0  0
  9 12  2  0  0  0  0
  9 13  1  0  0  0  0
  9 16  1  0  0  0  0
 10 12  1  0  0  0  0
 11 13  2  0  0  0  0
 14 15  1  0  0  0  0
 16 17  1  0  0  0  0
M  END
> <PUBCHEM_COMPOUND_ID_TYPE>
0

> <PUBCHEM_TOTAL_CHARGE>
0

> <PUBCHEM_SUBSTANCE_ID>
310946503

> <PUBCHEM_SUBSTANCE_VERSION>
1

> <PUBCHEM_EXT_DATASOURCE_NAME>
4488

> <PUBCHEM_EXT_DATASOURCE_REGID>
SCHEMBL16124624

> <PUBCHEM_SUBSTANCE_COMMENT>
InChI=1S/C12H15NO4/c1-2-9-3-5-10(6-4-9)8-17-12(16)13-7-11(14)15/h3-6H,2,7-8H2,1H3,(H,13,16)(H,14,15)
InChIKey=DJXIPORVAZTZHQ-UHFFFAOYSA-N

> <PUBCHEM_SUBSTANCE_SYNONYM>
SCHEMBL16124624

> <PUBCHEM_XREF_EXT_ID>
SCHEMBL16124624

> <PUBCHEM_EXT_DATASOURCE_URL>
https://www.surechembl.org/

> <PUBCHEM_EXT_SUBSTANCE_URL>
https://www.surechembl.org/chemical/SCHEMBL16124624

> <PUBCHEM_CID_ASSOCIATIONS>
95452896  1

> <PUBCHEM_COORDINATE_TYPE>
1
3

$$$$
