310941184
  -OEChem-07211613022D

 47 50  0     1  0  0  0  0  0999 V2000
    4.6764    0.6720    0.0000 O   0  0  0  0  0  0  0  0  0  0  0  0
    3.5402   -1.2817    0.0000 O   0  0  0  0  0  0  0  0  0  0  0  0
   -2.3347   -1.5865    0.0000 O   0  0  0  0  0  0  0  0  0  0  0  0
    1.3787    0.7828    0.0000 O   0  0  0  0  0  0  0  0  0  0  0  0
   -2.9305    0.7828    0.0000 O   0  0  0  0  0  0  0  0  0  0  0  0
   -3.2907   -2.6534    0.0000 O   0  0  0  0  0  0  0  0  0  0  0  0
   -0.7690   -1.2817    0.0000 O   0  0  0  0  0  0  0  0  0  0  0  0
    3.5402   -2.9444    0.0000 O   0  0  0  0  0  0  0  0  0  0  0  0
    2.0992   -0.4503    0.0000 N   0  0  0  0  0  0  0  0  0  0  0  0
   -3.7341   -1.2678    0.0000 N   0  0  0  0  0  0  0  0  0  0  0  0
   -0.0485   -0.0347    0.0000 N   0  0  0  0  0  0  0  0  0  0  0  0
   -2.2100   -0.4503    0.0000 N   0  0  0  0  0  0  0  0  0  0  0  0
    4.2468   -0.0069    0.0000 C   0  0  3  0  0  0  0  0  0  0  0  0
    3.5263   -0.4365    0.0000 C   0  0  0  0  0  0  0  0  0  0  0  0
    3.8588    0.6858    0.0000 C   0  0  0  0  0  0  0  0  0  0  0  0
    2.8197   -0.0347    0.0000 C   0  0  3  0  0  0  0  0  0  0  0  0
    4.9535   -0.4226    0.0000 C   0  0  0  0  0  0  0  0  0  0  0  0
    2.8197    1.2955    0.0000 C   0  0  0  0  0  0  0  0  0  0  0  0
    1.3787   -0.0485    0.0000 C   0  0  0  0  0  0  0  0  0  0  0  0
   -3.6371   -0.4365    0.0000 C   0  0  3  0  0  0  0  0  0  0  0  0
    0.6858   -0.4365    0.0000 C   0  0  3  0  0  0  0  0  0  0  0  0
    2.0992    1.7251    0.0000 C   0  0  0  0  0  0  0  0  0  0  0  0
   -2.9166   -0.0347    0.0000 C   0  0  0  0  0  0  0  0  0  0  0  0
   -3.1107   -1.7943    0.0000 C   0  0  0  0  0  0  0  0  0  0  0  0
   -4.3992   -0.1177    0.0000 C   0  0  0  0  0  0  0  0  0  0  0  0
   -4.5516   -1.4341    0.0000 C   0  0  0  0  0  0  0  0  0  0  0  0
   -0.7690   -0.4226    0.0000 C   0  0  0  0  0  0  0  0  0  0  0  0
   -1.4895   -0.0347    0.0000 C   0  0  3  0  0  0  0  0  0  0  0  0
    0.6582   -1.2955    0.0000 C   0  0  0  0  0  0  0  0  0  0  0  0
   -4.9535   -0.7413    0.0000 C   0  0  0  0  0  0  0  0  0  0  0  0
    1.3925   -1.6834    0.0000 C   0  0  0  0  0  0  0  0  0  0  0  0
    2.0992    2.5425    0.0000 C   0  0  0  0  0  0  0  0  0  0  0  0
    1.3787    1.3094    0.0000 C   0  0  0  0  0  0  0  0  0  0  0  0
   -1.6973   -2.1268    0.0000 C   0  0  0  0  0  0  0  0  0  0  0  0
    1.3925   -2.5148    0.0000 C   0  0  0  0  0  0  0  0  0  0  0  0
    2.0992   -1.2955    0.0000 C   0  0  0  0  0  0  0  0  0  0  0  0
    1.3787    2.9444    0.0000 C   0  0  0  0  0  0  0  0  0  0  0  0
    0.6720    1.7112    0.0000 C   0  0  0  0  0  0  0  0  0  0  0  0
   -1.4895    0.7967    0.0000 C   0  0  0  0  0  0  0  0  0  0  0  0
    2.8058   -2.5148    0.0000 C   0  0  0  0  0  0  0  0  0  0  0  0
    0.6720    2.5425    0.0000 C   0  0  0  0  0  0  0  0  0  0  0  0
    2.0992   -2.9166    0.0000 C   0  0  0  0  0  0  0  0  0  0  0  0
    2.8197   -1.6973    0.0000 C   0  0  0  0  0  0  0  0  0  0  0  0
   -0.9075   -1.8636    0.0000 C   0  0  0  0  0  0  0  0  0  0  0  0
   -1.0877   -2.7088    0.0000 C   0  0  0  0  0  0  0  0  0  0  0  0
   -1.8775   -2.9444    0.0000 C   0  0  0  0  0  0  0  0  0  0  0  0
    4.2884   -2.5287    0.0000 C   0  0  0  0  0  0  0  0  0  0  0  0
  1 13  1  0  0  0  0
  1 15  1  0  0  0  0
  2 14  2  0  0  0  0
  3 24  1  0  0  0  0
  3 34  1  0  0  0  0
  4 19  2  0  0  0  0
  5 23  2  0  0  0  0
  6 24  2  0  0  0  0
  7 27  2  0  0  0  0
  8 40  1  0  0  0  0
  8 47  1  0  0  0  0
 16  9  1  1  0  0  0
  9 19  1  0  0  0  0
 10 20  1  0  0  0  0
 10 24  1  0  0  0  0
 10 26  1  0  0  0  0
 21 11  1  6  0  0  0
 11 27  1  0  0  0  0
 12 23  1  0  0  0  0
 12 28  1  0  0  0  0
 13 14  1  1  0  0  0
 13 15  1  0  0  0  0
 13 17  1  6  0  0  0
 14 16  1  0  0  0  0
 16 18  1  0  0  0  0
 18 22  1  0  0  0  0
 19 21  1  0  0  0  0
 20 23  1  1  0  0  0
 20 25  1  0  0  0  0
 21 29  1  0  0  0  0
 22 32  2  0  0  0  0
 22 33  1  0  0  0  0
 25 30  1  0  0  0  0
 26 30  1  0  0  0  0
 27 28  1  0  0  0  0
 28 39  1  1  0  0  0
 29 31  1  0  0  0  0
 31 35  2  0  0  0  0
 31 36  1  0  0  0  0
 32 37  1  0  0  0  0
 33 38  2  0  0  0  0
 34 44  1  0  0  0  0
 34 45  1  0  0  0  0
 34 46  1  0  0  0  0
 35 42  1  0  0  0  0
 36 43  2  0  0  0  0
 37 41  2  0  0  0  0
 38 41  1  0  0  0  0
 40 42  2  0  0  0  0
 40 43  1  0  0  0  0
M  END
> <PUBCHEM_COMPOUND_ID_TYPE>
0

> <PUBCHEM_TOTAL_CHARGE>
0

> <PUBCHEM_SUBSTANCE_ID>
310941184

> <PUBCHEM_SUBSTANCE_VERSION>
1

> <PUBCHEM_EXT_DATASOURCE_NAME>
4488

> <PUBCHEM_EXT_DATASOURCE_REGID>
SCHEMBL16119144

> <PUBCHEM_SUBSTANCE_COMMENT>
InChI=1S/C35H46N4O8/c1-22(36-32(43)28-13-10-18-39(28)33(44)47-34(2,3)4)30(41)38-27(20-24-14-16-25(45-6)17-15-24)31(42)37-26(29(40)35(5)21-46-35)19-23-11-8-7-9-12-23/h7-9,11-12,14-17,22,26-28H,10,13,18-21H2,1-6H3,(H,36,43)(H,37,42)(H,38,41)/t22-,26-,27-,28-,35+/m0/s1
InChIKey=ZVITTYWSZOFAEA-OASXDQIOSA-N

> <PUBCHEM_SUBSTANCE_SYNONYM>
SCHEMBL16119144

> <PUBCHEM_XREF_EXT_ID>
SCHEMBL16119144

> <PUBCHEM_EXT_DATASOURCE_URL>
https://www.surechembl.org/

> <PUBCHEM_EXT_SUBSTANCE_URL>
https://www.surechembl.org/chemical/SCHEMBL16119144

> <PUBCHEM_CID_ASSOCIATIONS>
117608058  1

> <PUBCHEM_COORDINATE_TYPE>
1
3

> <PUBCHEM_BONDANNOTATIONS>
21  11  6
13  14  5
13  17  6
20  23  5
28  39  5
16  9  5

$$$$
