310930380
  -OEChem-07211613022D

 31 35  0     0  0  0  0  0  0999 V2000
    2.4292   -7.0125    0.0000 S   0  0  0  0  0  0  0  0  0  0  0  0
    4.2625   -7.1500    0.0000 O   0  0  0  0  0  0  0  0  0  0  0  0
    3.2083   -6.6000    0.0000 O   0  0  0  0  0  0  0  0  0  0  0  0
    1.7417   -7.4250    0.0000 O   0  0  0  0  0  0  0  0  0  0  0  0
    0.0000   -2.7500    0.0000 O   0  0  0  0  0  0  0  0  0  0  0  0
    2.4292   -1.3292    0.0000 N   0  0  0  0  0  0  0  0  0  0  0  0
    2.5667    0.0000    0.0000 N   0  0  0  0  0  0  0  0  0  0  0  0
    1.2375   -3.4375    0.0000 N   0  0  0  0  0  0  0  0  0  0  0  0
    2.8417   -7.7458    0.0000 C   0  0  0  0  0  0  0  0  0  0  0  0
    3.6667   -7.7458    0.0000 C   0  0  0  0  0  0  0  0  0  0  0  0
    2.0167   -6.3250    0.0000 C   0  0  0  0  0  0  0  0  0  0  0  0
    4.0792   -8.4792    0.0000 C   0  0  0  0  0  0  0  0  0  0  0  0
    2.4292   -8.4333    0.0000 C   0  0  0  0  0  0  0  0  0  0  0  0
    3.6667   -9.1667    0.0000 C   0  0  0  0  0  0  0  0  0  0  0  0
    2.4750   -5.5917    0.0000 C   0  0  0  0  0  0  0  0  0  0  0  0
    1.2375   -6.3250    0.0000 C   0  0  0  0  0  0  0  0  0  0  0  0
    4.8583   -8.2959    0.0000 C   0  0  0  0  0  0  0  0  0  0  0  0
    2.8417   -9.1667    0.0000 C   0  0  0  0  0  0  0  0  0  0  0  0
    4.9959   -7.4709    0.0000 C   0  0  0  0  0  0  0  0  0  0  0  0
    1.2375   -4.9042    0.0000 C   0  0  0  0  0  0  0  0  0  0  0  0
    2.0167   -0.6417    0.0000 C   0  0  0  0  0  0  0  0  0  0  0  0
    2.0625   -4.9042    0.0000 C   0  0  0  0  0  0  0  0  0  0  0  0
    0.8250   -5.5917    0.0000 C   0  0  0  0  0  0  0  0  0  0  0  0
    1.2375   -2.0625    0.0000 C   0  0  0  0  0  0  0  0  0  0  0  0
    2.0167   -2.0625    0.0000 C   0  0  0  0  0  0  0  0  0  0  0  0
    0.8250   -2.7500    0.0000 C   0  0  0  0  0  0  0  0  0  0  0  0
    1.2375   -0.6417    0.0000 C   0  0  0  0  0  0  0  0  0  0  0  0
    0.8250   -1.3292    0.0000 C   0  0  0  0  0  0  0  0  0  0  0  0
    0.8250   -4.1709    0.0000 C   0  0  0  0  0  0  0  0  0  0  0  0
    3.2542   -1.1458    0.0000 C   0  0  0  0  0  0  0  0  0  0  0  0
    3.3459   -0.3208    0.0000 C   0  0  0  0  0  0  0  0  0  0  0  0
  1  3  2  0  0  0  0
  1  4  2  0  0  0  0
  1  9  1  0  0  0  0
  1 11  1  0  0  0  0
  2 10  1  0  0  0  0
  2 19  1  0  0  0  0
  5 26  2  0  0  0  0
  6 21  1  0  0  0  0
  6 25  1  0  0  0  0
  6 30  1  0  0  0  0
  7 21  2  0  0  0  0
  7 31  1  0  0  0  0
  8 26  1  0  0  0  0
  8 29  1  0  0  0  0
  9 10  1  0  0  0  0
  9 13  2  0  0  0  0
 10 12  2  0  0  0  0
 11 15  2  0  0  0  0
 11 16  1  0  0  0  0
 12 14  1  0  0  0  0
 12 17  1  0  0  0  0
 13 18  1  0  0  0  0
 14 18  2  0  0  0  0
 15 22  1  0  0  0  0
 16 23  2  0  0  0  0
 17 19  1  0  0  0  0
 20 22  2  0  0  0  0
 20 23  1  0  0  0  0
 20 29  1  0  0  0  0
 21 27  1  0  0  0  0
 24 25  2  0  0  0  0
 24 26  1  0  0  0  0
 24 28  1  0  0  0  0
 27 28  2  0  0  0  0
 30 31  2  0  0  0  0
M  END
> <PUBCHEM_COMPOUND_ID_TYPE>
0

> <PUBCHEM_TOTAL_CHARGE>
0

> <PUBCHEM_SUBSTANCE_ID>
310930380

> <PUBCHEM_SUBSTANCE_VERSION>
1

> <PUBCHEM_EXT_DATASOURCE_NAME>
4488

> <PUBCHEM_EXT_DATASOURCE_REGID>
SCHEMBL16107665

> <PUBCHEM_SUBSTANCE_COMMENT>
InChI=1S/C23H19N3O4S/c27-23(18-6-9-21-24-11-12-26(21)15-18)25-14-16-4-7-19(8-5-16)31(28,29)20-3-1-2-17-10-13-30-22(17)20/h1-9,11-12,15H,10,13-14H2,(H,25,27)
InChIKey=URRYAAFPGXLFTJ-UHFFFAOYSA-N

> <PUBCHEM_SUBSTANCE_SYNONYM>
SCHEMBL16107665

> <PUBCHEM_XREF_EXT_ID>
SCHEMBL16107665

> <PUBCHEM_EXT_DATASOURCE_URL>
https://www.surechembl.org/

> <PUBCHEM_EXT_SUBSTANCE_URL>
https://www.surechembl.org/chemical/SCHEMBL16107665

> <PUBCHEM_CID_ASSOCIATIONS>
117599532  1

> <PUBCHEM_COORDINATE_TYPE>
1
3

$$$$
