310941022
  -OEChem-07211613022D

 25 26  0     1  0  0  0  0  0999 V2000
    3.7128    0.5993    0.0000 O   0  0  0  0  0  0  0  0  0  0  0  0
    0.7747    0.5116    0.0000 O   0  0  0  0  0  0  0  0  0  0  0  0
    2.9527   -1.5787    0.0000 O   0  0  0  0  0  0  0  0  0  0  0  0
   -1.3887   -1.5787    0.0000 O   0  0  0  0  0  0  0  0  0  0  0  0
   -4.2683   -1.5787    0.0000 O   0  0  0  0  0  0  0  0  0  0  0  0
    1.5056   -0.7455    0.0000 N   0  0  0  0  0  0  0  0  0  0  0  0
   -0.6578   -0.3215    0.0000 N   0  0  0  0  0  0  0  0  0  0  0  0
   -2.8211   -0.7455    0.0000 N   0  0  0  0  0  0  0  0  0  0  0  0
    2.2364   -0.2923    0.0000 C   0  0  3  0  0  0  0  0  0  0  0  0
    0.7747   -0.3215    0.0000 C   0  0  0  0  0  0  0  0  0  0  0  0
    0.0877   -0.7017    0.0000 C   0  0  3  0  0  0  0  0  0  0  0  0
    2.9381    0.9647    0.0000 C   0  0  0  0  0  0  0  0  0  0  0  0
    2.2511    0.5408    0.0000 C   0  0  0  0  0  0  0  0  0  0  0  0
    2.9673   -0.6870    0.0000 C   0  0  0  0  0  0  0  0  0  0  0  0
   -1.3740   -0.6870    0.0000 C   0  0  0  0  0  0  0  0  0  0  0  0
   -2.1341   -0.3070    0.0000 C   0  0  0  0  0  0  0  0  0  0  0  0
    3.0550    1.7979    0.0000 C   0  0  0  0  0  0  0  0  0  0  0  0
   -2.8211   -1.5494    0.0000 C   0  0  0  0  0  0  0  0  0  0  0  0
   -3.5520   -0.3070    0.0000 C   0  0  0  0  0  0  0  0  0  0  0  0
    4.2683    1.2425    0.0000 C   0  0  0  0  0  0  0  0  0  0  0  0
    3.8590    1.9587    0.0000 C   0  0  0  0  0  0  0  0  0  0  0  0
    0.0731   -1.5349    0.0000 C   0  0  0  0  0  0  0  0  0  0  0  0
    3.3913   -0.4677    0.0000 C   0  0  0  0  0  0  0  0  0  0  0  0
   -3.5374   -1.9587    0.0000 C   0  0  0  0  0  0  0  0  0  0  0  0
   -4.2536   -0.7017    0.0000 C   0  0  0  0  0  0  0  0  0  0  0  0
  1 12  1  0  0  0  0
  1 20  1  0  0  0  0
  2 10  2  0  0  0  0
  3 14  2  0  0  0  0
  4 15  2  0  0  0  0
  5 24  1  0  0  0  0
  5 25  1  0  0  0  0
  9  6  1  1  0  0  0
  6 10  1  0  0  0  0
  7 11  1  0  0  0  0
  7 15  1  0  0  0  0
  8 16  1  0  0  0  0
  8 18  1  0  0  0  0
  8 19  1  0  0  0  0
  9 13  1  0  0  0  0
  9 14  1  0  0  0  0
 10 11  1  0  0  0  0
 11 22  1  6  0  0  0
 12 13  1  0  0  0  0
 12 17  2  0  0  0  0
 14 23  1  0  0  0  0
 15 16  1  0  0  0  0
 17 21  1  0  0  0  0
 18 24  1  0  0  0  0
 19 25  1  0  0  0  0
 20 21  2  0  0  0  0
M  END
> <PUBCHEM_COMPOUND_ID_TYPE>
0

> <PUBCHEM_TOTAL_CHARGE>
0

> <PUBCHEM_SUBSTANCE_ID>
310941022

> <PUBCHEM_SUBSTANCE_VERSION>
1

> <PUBCHEM_EXT_DATASOURCE_NAME>
4488

> <PUBCHEM_EXT_DATASOURCE_REGID>
SCHEMBL16118981

> <PUBCHEM_SUBSTANCE_COMMENT>
InChI=1S/C17H25N3O5/c1-12(18-16(22)11-20-5-8-24-9-6-20)17(23)19-15(13(2)21)10-14-4-3-7-25-14/h3-4,7,12,15H,5-6,8-11H2,1-2H3,(H,18,22)(H,19,23)/t12-,15-/m0/s1
InChIKey=DLOKIKCZNVETDA-WFASDCNBSA-N

> <PUBCHEM_SUBSTANCE_SYNONYM>
SCHEMBL16118981

> <PUBCHEM_XREF_EXT_ID>
SCHEMBL16118981

> <PUBCHEM_EXT_DATASOURCE_URL>
https://www.surechembl.org/

> <PUBCHEM_EXT_SUBSTANCE_URL>
https://www.surechembl.org/chemical/SCHEMBL16118981

> <PUBCHEM_CID_ASSOCIATIONS>
117607921  1

> <PUBCHEM_COORDINATE_TYPE>
1
3

> <PUBCHEM_BONDANNOTATIONS>
11  22  6
9  6  5

$$$$
