310932091
  -OEChem-07211613022D

 32 36  0     0  0  0  0  0  0999 V2000
    0.0000   -4.3041    0.0000 O   0  0  0  0  0  0  0  0  0  0  0  0
    1.2553   -5.0214    0.0000 N   0  0  0  0  0  0  0  0  0  0  0  0
    6.2051   -3.5867    0.0000 N   0  0  0  0  0  0  0  0  0  0  0  0
    1.6857   -2.8335    0.0000 N   0  0  0  0  0  0  0  0  0  0  0  0
    0.0000   -5.7388    0.0000 N   0  0  0  0  0  0  0  0  0  0  0  0
    4.1965    0.0000    0.0000 N   0  0  0  0  0  0  0  0  0  0  0  0
    4.9497   -2.8694    0.0000 C   0  0  0  0  0  0  0  0  0  0  0  0
    3.7302   -3.5867    0.0000 C   0  0  0  0  0  0  0  0  0  0  0  0
    5.3802   -2.1520    0.0000 C   0  0  0  0  0  0  0  0  0  0  0  0
    5.3802   -3.5867    0.0000 C   0  0  0  0  0  0  0  0  0  0  0  0
    2.9053   -3.5509    0.0000 C   0  0  0  0  0  0  0  0  0  0  0  0
    4.1606   -2.8694    0.0000 C   0  0  0  0  0  0  0  0  0  0  0  0
    1.6499   -4.3041    0.0000 C   0  0  0  0  0  0  0  0  0  0  0  0
    2.5107   -4.2682    0.0000 C   0  0  0  0  0  0  0  0  0  0  0  0
    4.9856   -1.4347    0.0000 C   0  0  0  0  0  0  0  0  0  0  0  0
    4.1248   -4.3041    0.0000 C   0  0  0  0  0  0  0  0  0  0  0  0
    4.9856   -4.3041    0.0000 C   0  0  0  0  0  0  0  0  0  0  0  0
    1.6499   -5.7388    0.0000 C   0  0  0  0  0  0  0  0  0  0  0  0
    6.2410   -2.1520    0.0000 C   0  0  0  0  0  0  0  0  0  0  0  0
    2.5107   -2.8335    0.0000 C   0  0  0  0  0  0  0  0  0  0  0  0
    1.2553   -3.5509    0.0000 C   0  0  0  0  0  0  0  0  0  0  0  0
    0.4304   -5.0214    0.0000 C   0  0  0  0  0  0  0  0  0  0  0  0
    6.6355   -2.9053    0.0000 C   0  0  0  0  0  0  0  0  0  0  0  0
    5.4160   -0.7532    0.0000 C   0  0  0  0  0  0  0  0  0  0  0  0
    4.1606   -1.4347    0.0000 C   0  0  0  0  0  0  0  0  0  0  0  0
    2.5107   -5.7388    0.0000 C   0  0  0  0  0  0  0  0  0  0  0  0
    1.2553   -6.4561    0.0000 C   0  0  0  0  0  0  0  0  0  0  0  0
    5.0214    0.0000    0.0000 C   0  0  0  0  0  0  0  0  0  0  0  0
    3.7661   -0.6815    0.0000 C   0  0  0  0  0  0  0  0  0  0  0  0
    2.9053   -6.4561    0.0000 C   0  0  0  0  0  0  0  0  0  0  0  0
    1.6499   -7.1735    0.0000 C   0  0  0  0  0  0  0  0  0  0  0  0
    2.4749   -7.1735    0.0000 C   0  0  0  0  0  0  0  0  0  0  0  0
  1 22  2  0  0  0  0
  2 13  1  0  0  0  0
  2 18  1  0  0  0  0
  2 22  1  0  0  0  0
  3 10  2  0  0  0  0
  3 23  1  0  0  0  0
  4 20  2  0  0  0  0
  4 21  1  0  0  0  0
  5 22  1  0  0  0  0
  6 28  2  0  0  0  0
  6 29  1  0  0  0  0
  7  9  2  0  0  0  0
  7 10  1  0  0  0  0
  7 12  1  0  0  0  0
  8 11  1  0  0  0  0
  8 12  2  0  0  0  0
  8 16  1  0  0  0  0
  9 15  1  0  0  0  0
  9 19  1  0  0  0  0
 10 17  1  0  0  0  0
 11 14  2  0  0  0  0
 11 20  1  0  0  0  0
 13 14  1  0  0  0  0
 13 21  2  0  0  0  0
 15 24  2  0  0  0  0
 15 25  1  0  0  0  0
 16 17  2  0  0  0  0
 18 26  2  0  0  0  0
 18 27  1  0  0  0  0
 19 23  2  0  0  0  0
 24 28  1  0  0  0  0
 25 29  2  0  0  0  0
 26 30  1  0  0  0  0
 27 31  2  0  0  0  0
 30 32  2  0  0  0  0
 31 32  1  0  0  0  0
M  END
> <PUBCHEM_COMPOUND_ID_TYPE>
0

> <PUBCHEM_TOTAL_CHARGE>
0

> <PUBCHEM_SUBSTANCE_ID>
310932091

> <PUBCHEM_SUBSTANCE_VERSION>
1

> <PUBCHEM_EXT_DATASOURCE_NAME>
4488

> <PUBCHEM_EXT_DATASOURCE_REGID>
SCHEMBL16109439

> <PUBCHEM_SUBSTANCE_COMMENT>
InChI=1S/C26H19N5O/c27-26(32)31(21-4-2-1-3-5-21)22-14-20(16-29-17-22)19-6-7-25-24(15-19)23(10-13-30-25)18-8-11-28-12-9-18/h1-17H,(H2,27,32)
InChIKey=YEFDRADUMZEEGA-UHFFFAOYSA-N

> <PUBCHEM_SUBSTANCE_SYNONYM>
SCHEMBL16109439

> <PUBCHEM_XREF_EXT_ID>
SCHEMBL16109439

> <PUBCHEM_EXT_DATASOURCE_URL>
https://www.surechembl.org/

> <PUBCHEM_EXT_SUBSTANCE_URL>
https://www.surechembl.org/chemical/SCHEMBL16109439

> <PUBCHEM_CID_ASSOCIATIONS>
117600714  1

> <PUBCHEM_COORDINATE_TYPE>
1
3

$$$$
