310942649
  -OEChem-07211613022D

 70 75  0     1  0  0  0  0  0999 V2000
   -4.4298   -0.0269    0.0000 S   0  0  0  0  0  0  0  0  0  0  0  0
   -8.0167    3.3986    0.0000 F   0  0  0  0  0  0  0  0  0  0  0  0
   -8.0167    0.0807    0.0000 F   0  0  0  0  0  0  0  0  0  0  0  0
   -1.5603    2.2508    0.0000 F   0  0  0  0  0  0  0  0  0  0  0  0
   -5.2727    1.4078    0.0000 O   0  0  0  0  0  0  0  0  0  0  0  0
   -3.2103    4.9947    0.0000 O   0  0  0  0  0  0  0  0  0  0  0  0
    6.8868   -6.4115    0.0000 O   0  0  0  0  0  0  0  0  0  0  0  0
    8.3395   -3.8828    0.0000 O   0  0  0  0  0  0  0  0  0  0  0  0
   -5.2727   -2.8964    0.0000 O   0  0  0  0  0  0  0  0  0  0  0  0
    5.2548   -3.7931    0.0000 O   0  0  0  0  0  0  0  0  0  0  0  0
   -4.0352   -5.0305    0.0000 O   0  0  0  0  0  0  0  0  0  0  0  0
    2.4032   -4.6181    0.0000 O   0  0  0  0  0  0  0  0  0  0  0  0
   -1.8831   -4.6181    0.0000 O   0  0  0  0  0  0  0  0  0  0  0  0
    0.2511   -5.0305    0.0000 O   0  0  0  0  0  0  0  0  0  0  0  0
   -5.6852    3.5600    0.0000 N   0  0  0  0  0  0  0  0  0  0  0  0
   -4.0352    2.1252    0.0000 N   0  0  0  0  0  0  0  0  0  0  0  0
   -5.8286    2.2328    0.0000 N   0  0  0  0  0  0  0  0  0  0  0  0
   -2.1880    0.2242    0.0000 N   0  0  0  0  0  0  0  0  0  0  0  0
    7.4069   -5.0305    0.0000 N   0  0  0  0  0  0  0  0  0  0  0  0
   -4.0352   -2.1790    0.0000 N   0  0  0  0  0  0  0  0  0  0  0  0
    4.5374   -5.0305    0.0000 N   0  0  0  0  0  0  0  0  0  0  0  0
   -5.2727    2.8606    0.0000 C   0  0  0  0  0  0  0  0  0  0  0  0
   -4.4477    2.8426    0.0000 C   0  0  3  0  0  0  0  0  0  0  0  0
   -6.5998    2.5736    0.0000 C   0  0  0  0  0  0  0  0  0  0  0  0
   -6.4743    3.3986    0.0000 C   0  0  0  0  0  0  0  0  0  0  0  0
   -4.0352    3.5600    0.0000 C   0  0  0  0  0  0  0  0  0  0  0  0
   -7.2993    2.1611    0.0000 C   0  0  0  0  0  0  0  0  0  0  0  0
   -5.2727    4.2773    0.0000 C   0  0  0  0  0  0  0  0  0  0  0  0
   -4.4298    1.4078    0.0000 C   0  0  0  0  0  0  0  0  0  0  0  0
   -3.1923    2.1252    0.0000 C   0  0  0  0  0  0  0  0  0  0  0  0
   -8.0167    2.5736    0.0000 C   0  0  0  0  0  0  0  0  0  0  0  0
   -7.2993    1.3361    0.0000 C   0  0  0  0  0  0  0  0  0  0  0  0
   -4.4298    4.2773    0.0000 C   0  0  0  0  0  0  0  0  0  0  0  0
   -3.1923    3.5600    0.0000 C   0  0  0  0  0  0  0  0  0  0  0  0
   -2.7799    1.4258    0.0000 C   0  0  3  0  0  0  0  0  0  0  0  0
   -5.6852    4.9947    0.0000 C   0  0  0  0  0  0  0  0  0  0  0  0
   -7.9987    0.9415    0.0000 C   0  0  0  0  0  0  0  0  0  0  0  0
   -8.7161    2.1611    0.0000 C   0  0  0  0  0  0  0  0  0  0  0  0
   -1.9728    1.5334    0.0000 C   0  0  3  0  0  0  0  0  0  0  0  0
   -4.0173    0.6905    0.0000 C   0  0  0  0  0  0  0  0  0  0  0  0
   -8.7161    1.3182    0.0000 C   0  0  0  0  0  0  0  0  0  0  0  0
   -4.0352    4.9947    0.0000 C   0  0  0  0  0  0  0  0  0  0  0  0
   -2.7799    4.2953    0.0000 C   0  0  0  0  0  0  0  0  0  0  0  0
   -2.9053    0.6008    0.0000 C   0  0  0  0  0  0  0  0  0  0  0  0
   -5.2906    5.7301    0.0000 C   0  0  0  0  0  0  0  0  0  0  0  0
   -6.5102    5.0127    0.0000 C   0  0  0  0  0  0  0  0  0  0  0  0
   -1.5961    0.8160    0.0000 C   0  0  0  0  0  0  0  0  0  0  0  0
   -5.6852    6.4115    0.0000 C   0  0  0  0  0  0  0  0  0  0  0  0
   -6.9047    5.6941    0.0000 C   0  0  0  0  0  0  0  0  0  0  0  0
   -6.5102    6.4115    0.0000 C   0  0  0  0  0  0  0  0  0  0  0  0
   -4.0173   -0.7443    0.0000 C   0  0  0  0  0  0  0  0  0  0  0  0
   -4.4298   -1.4616    0.0000 C   0  0  0  0  0  0  0  0  0  0  0  0
    7.4965   -5.8377    0.0000 C   0  0  0  0  0  0  0  0  0  0  0  0
    8.1422   -4.7077    0.0000 C   0  0  0  0  0  0  0  0  0  0  0  0
    8.3036   -6.0170    0.0000 C   0  0  0  0  0  0  0  0  0  0  0  0
    8.7161   -5.2817    0.0000 C   0  0  0  0  0  0  0  0  0  0  0  0
    6.6895   -4.6181    0.0000 C   0  0  0  0  0  0  0  0  0  0  0  0
   -4.4298   -2.8784    0.0000 C   0  0  0  0  0  0  0  0  0  0  0  0
    5.9901   -5.0127    0.0000 C   0  0  0  0  0  0  0  0  0  0  0  0
    5.2548   -4.6181    0.0000 C   0  0  0  0  0  0  0  0  0  0  0  0
   -4.0173   -3.5958    0.0000 C   0  0  0  0  0  0  0  0  0  0  0  0
   -4.4298   -4.2953    0.0000 C   0  0  0  0  0  0  0  0  0  0  0  0
    3.8379   -4.6181    0.0000 C   0  0  0  0  0  0  0  0  0  0  0  0
    3.1385   -5.0127    0.0000 C   0  0  0  0  0  0  0  0  0  0  0  0
   -3.2999   -4.6181    0.0000 C   0  0  0  0  0  0  0  0  0  0  0  0
    1.7037   -5.0127    0.0000 C   0  0  0  0  0  0  0  0  0  0  0  0
   -2.5825   -5.0127    0.0000 C   0  0  0  0  0  0  0  0  0  0  0  0
    0.9684   -4.6181    0.0000 C   0  0  0  0  0  0  0  0  0  0  0  0
   -1.1478   -5.0127    0.0000 C   0  0  0  0  0  0  0  0  0  0  0  0
   -0.4484   -4.6181    0.0000 C   0  0  0  0  0  0  0  0  0  0  0  0
  1 40  1  0  0  0  0
  1 51  1  0  0  0  0
  2 31  1  0  0  0  0
  3 37  1  0  0  0  0
 39  4  1  1  0  0  0
  5 29  2  0  0  0  0
  6 42  1  0  0  0  0
  6 43  1  0  0  0  0
  7 53  2  0  0  0  0
  8 54  2  0  0  0  0
  9 58  2  0  0  0  0
 10 60  2  0  0  0  0
 11 62  1  0  0  0  0
 11 65  1  0  0  0  0
 12 64  1  0  0  0  0
 12 66  1  0  0  0  0
 13 67  1  0  0  0  0
 13 69  1  0  0  0  0
 14 68  1  0  0  0  0
 14 70  1  0  0  0  0
 15 22  1  0  0  0  0
 15 25  1  0  0  0  0
 15 28  1  0  0  0  0
 23 16  1  1  0  0  0
 16 29  1  0  0  0  0
 16 30  1  0  0  0  0
 17 22  2  0  0  0  0
 17 24  1  0  0  0  0
 18 44  1  0  0  0  0
 18 47  1  0  0  0  0
 19 53  1  0  0  0  0
 19 54  1  0  0  0  0
 19 57  1  0  0  0  0
 20 52  1  0  0  0  0
 20 58  1  0  0  0  0
 21 60  1  0  0  0  0
 21 63  1  0  0  0  0
 22 23  1  0  0  0  0
 23 26  1  0  0  0  0
 24 25  2  0  0  0  0
 24 27  1  0  0  0  0
 26 33  1  0  0  0  0
 26 34  1  0  0  0  0
 27 31  1  0  0  0  0
 27 32  2  0  0  0  0
 28 36  1  0  0  0  0
 29 40  1  0  0  0  0
 35 30  1  1  0  0  0
 31 38  2  0  0  0  0
 32 37  1  0  0  0  0
 33 42  1  0  0  0  0
 34 43  1  0  0  0  0
 35 39  1  0  0  0  0
 35 44  1  0  0  0  0
 36 45  2  0  0  0  0
 36 46  1  0  0  0  0
 37 41  2  0  0  0  0
 38 41  1  0  0  0  0
 39 47  1  0  0  0  0
 45 48  1  0  0  0  0
 46 49  2  0  0  0  0
 48 50  2  0  0  0  0
 49 50  1  0  0  0  0
 51 52  1  0  0  0  0
 53 55  1  0  0  0  0
 54 56  1  0  0  0  0
 55 56  2  0  0  0  0
 57 59  1  0  0  0  0
 58 61  1  0  0  0  0
 59 60  1  0  0  0  0
 61 62  1  0  0  0  0
 63 64  1  0  0  0  0
 65 67  1  0  0  0  0
 66 68  1  0  0  0  0
 69 70  1  0  0  0  0
M  END
> <PUBCHEM_COMPOUND_ID_TYPE>
0

> <PUBCHEM_TOTAL_CHARGE>
0

> <PUBCHEM_SUBSTANCE_ID>
310942649

> <PUBCHEM_SUBSTANCE_VERSION>
1

> <PUBCHEM_EXT_DATASOURCE_NAME>
4488

> <PUBCHEM_EXT_DATASOURCE_REGID>
SCHEMBL16120695

> <PUBCHEM_SUBSTANCE_COMMENT>
InChI=1S/C49H64F3N7O10S/c50-38-6-7-40(51)39(28-38)42-33-57(31-35-4-2-1-3-5-35)49(56-42)48(36-11-17-65-18-12-36)59(32-37-29-53-30-41(37)52)47(64)34-70-27-15-55-44(61)13-19-66-21-23-68-25-26-69-24-22-67-20-14-54-43(60)10-16-58-45(62)8-9-46(58)63/h1-9,28,33,36-37,41,48,53H,10-27,29-32,34H2,(H,54,60)(H,55,61)/t37-,41-,48+/m0/s1
InChIKey=JHNAXQYTFSXALD-HYTNOIGXSA-N

> <PUBCHEM_SUBSTANCE_SYNONYM>
SCHEMBL16120695

> <PUBCHEM_XREF_EXT_ID>
SCHEMBL16120695

> <PUBCHEM_EXT_DATASOURCE_URL>
https://www.surechembl.org/

> <PUBCHEM_EXT_SUBSTANCE_URL>
https://www.surechembl.org/chemical/SCHEMBL16120695

> <PUBCHEM_CID_ASSOCIATIONS>
117609179  1

> <PUBCHEM_COORDINATE_TYPE>
1
3

> <PUBCHEM_BONDANNOTATIONS>
23  16  5
35  30  5
39  4  5

$$$$
