310946964
  -OEChem-07211613022D

 25 27  0     1  0  0  0  0  0999 V2000
    1.2526    1.1356    0.0000 F   0  0  0  0  0  0  0  0  0  0  0  0
   -1.7757   -0.2271    0.0000 O   0  0  0  0  0  0  0  0  0  0  0  0
    3.3036    0.4199    0.0000 O   0  0  0  0  0  0  0  0  0  0  0  0
    0.9773   -0.3510    0.0000 N   0  0  0  0  0  0  0  0  0  0  0  0
    0.6470   -1.1081    0.0000 N   0  0  0  0  0  0  0  0  0  0  0  0
   -1.0599    1.0117    0.0000 N   0  0  0  0  0  0  0  0  0  0  0  0
   -0.7296   -1.6174    0.0000 N   0  0  0  0  0  0  0  0  0  0  0  0
    2.7255   -2.1267    0.0000 N   0  0  0  0  0  0  0  0  0  0  0  0
    1.7757   -0.1996    0.0000 C   0  0  3  0  0  0  0  0  0  0  0  0
    0.3441    0.1996    0.0000 C   0  0  0  0  0  0  0  0  0  0  0  0
   -0.3441   -0.2133    0.0000 C   0  0  0  0  0  0  0  0  0  0  0  0
   -0.1789   -0.9980    0.0000 C   0  0  0  0  0  0  0  0  0  0  0  0
    1.9133    0.6263    0.0000 C   0  0  3  0  0  0  0  0  0  0  0  0
   -1.0599    0.1996    0.0000 C   0  0  0  0  0  0  0  0  0  0  0  0
    2.4502   -0.6814    0.0000 C   0  0  0  0  0  0  0  0  0  0  0  0
    1.5692   -0.9842    0.0000 C   0  0  0  0  0  0  0  0  0  0  0  0
    0.3717    1.0117    0.0000 C   0  0  0  0  0  0  0  0  0  0  0  0
    2.6429    0.9292    0.0000 C   0  0  0  0  0  0  0  0  0  0  0  0
   -0.3579    1.4247    0.0000 C   0  0  0  0  0  0  0  0  0  0  0  0
    3.1935   -0.3785    0.0000 C   0  0  0  0  0  0  0  0  0  0  0  0
    2.1473   -1.5624    0.0000 C   0  0  0  0  0  0  0  0  0  0  0  0
   -2.4777    0.1170    0.0000 C   0  0  0  0  0  0  0  0  0  0  0  0
   -2.5190    0.9429    0.0000 C   0  0  0  0  0  0  0  0  0  0  0  0
   -3.2623    1.3008    0.0000 C   0  0  0  0  0  0  0  0  0  0  0  0
   -3.3036    2.1267    0.0000 C   0  0  0  0  0  0  0  0  0  0  0  0
 13  1  1  1  0  0  0
  2 14  1  0  0  0  0
  2 22  1  0  0  0  0
  3 18  1  0  0  0  0
  3 20  1  0  0  0  0
  4  5  1  0  0  0  0
  4  9  1  0  0  0  0
  4 10  1  0  0  0  0
  5 12  2  0  0  0  0
  6 14  2  0  0  0  0
  6 19  1  0  0  0  0
  7 12  1  0  0  0  0
  8 21  3  0  0  0  0
  9 13  1  0  0  0  0
  9 15  1  0  0  0  0
  9 16  1  6  0  0  0
 10 11  2  0  0  0  0
 10 17  1  0  0  0  0
 11 12  1  0  0  0  0
 11 14  1  0  0  0  0
 13 18  1  0  0  0  0
 15 20  1  0  0  0  0
 16 21  1  0  0  0  0
 17 19  2  0  0  0  0
 22 23  1  0  0  0  0
 23 24  1  0  0  0  0
 24 25  1  0  0  0  0
M  END
> <PUBCHEM_COMPOUND_ID_TYPE>
0

> <PUBCHEM_TOTAL_CHARGE>
0

> <PUBCHEM_SUBSTANCE_ID>
310946964

> <PUBCHEM_SUBSTANCE_VERSION>
1

> <PUBCHEM_EXT_DATASOURCE_NAME>
4488

> <PUBCHEM_EXT_DATASOURCE_REGID>
SCHEMBL16125094

> <PUBCHEM_SUBSTANCE_COMMENT>
InChI=1S/C17H22FN5O2/c1-2-3-9-25-16-14-12(4-8-21-16)23(22-15(14)20)17(5-7-19)6-10-24-11-13(17)18/h4,8,13H,2-3,5-6,9-11H2,1H3,(H2,20,22)/t13-,17+/m0/s1
InChIKey=VYMKAAXLHUAEFS-SUMWQHHRSA-N

> <PUBCHEM_SUBSTANCE_SYNONYM>
SCHEMBL16125094

> <PUBCHEM_XREF_EXT_ID>
SCHEMBL16125094

> <PUBCHEM_EXT_DATASOURCE_URL>
https://www.surechembl.org/

> <PUBCHEM_EXT_SUBSTANCE_URL>
https://www.surechembl.org/chemical/SCHEMBL16125094

> <PUBCHEM_CID_ASSOCIATIONS>
117612818  1

> <PUBCHEM_COORDINATE_TYPE>
1
3

> <PUBCHEM_BONDANNOTATIONS>
13  1  5
9  16  6

$$$$
