310935286
  -OEChem-07211613022D

 20 21  0     0  0  0  0  0  0999 V2000
    5.8257   -3.1279    0.0000 Br  0  0  0  0  0  0  0  0  0  0  0  0
    0.6647   -1.1534    0.0000 O   0  0  0  0  0  0  0  0  0  0  0  0
    1.5053    0.0000    0.0000 O   0  0  0  0  0  0  0  0  0  0  0  0
    0.8211   -3.9099    0.0000 O   0  0  0  0  0  0  0  0  0  0  0  0
    2.0722   -2.1113    0.0000 N   0  0  0  0  0  0  0  0  0  0  0  0
    2.8542   -2.3850    0.0000 N   0  0  0  0  0  0  0  0  0  0  0  0
    2.0722   -1.3098    0.0000 C   0  0  0  0  0  0  0  0  0  0  0  0
    3.3429   -1.7008    0.0000 C   0  0  0  0  0  0  0  0  0  0  0  0
    2.8542   -1.0361    0.0000 C   0  0  0  0  0  0  0  0  0  0  0  0
    4.1640   -1.7008    0.0000 C   0  0  0  0  0  0  0  0  0  0  0  0
    1.4075   -0.8211    0.0000 C   0  0  0  0  0  0  0  0  0  0  0  0
    1.4075   -2.6000    0.0000 C   0  0  0  0  0  0  0  0  0  0  0  0
    4.5941   -2.4241    0.0000 C   0  0  0  0  0  0  0  0  0  0  0  0
    4.5941   -0.9970    0.0000 C   0  0  0  0  0  0  0  0  0  0  0  0
    5.4151   -2.4241    0.0000 C   0  0  0  0  0  0  0  0  0  0  0  0
    1.4857   -3.4211    0.0000 C   0  0  0  0  0  0  0  0  0  0  0  0
    5.4151   -0.9970    0.0000 C   0  0  0  0  0  0  0  0  0  0  0  0
    5.8257   -1.7008    0.0000 C   0  0  0  0  0  0  0  0  0  0  0  0
    2.2482   -3.7730    0.0000 C   0  0  0  0  0  0  0  0  0  0  0  0
    0.0000   -0.6647    0.0000 C   0  0  0  0  0  0  0  0  0  0  0  0
  1 15  1  0  0  0  0
  2 11  1  0  0  0  0
  2 20  1  0  0  0  0
  3 11  2  0  0  0  0
  4 16  2  0  0  0  0
  5  6  1  0  0  0  0
  5  7  1  0  0  0  0
  5 12  1  0  0  0  0
  6  8  2  0  0  0  0
  7  9  2  0  0  0  0
  7 11  1  0  0  0  0
  8  9  1  0  0  0  0
  8 10  1  0  0  0  0
 10 13  1  0  0  0  0
 10 14  2  0  0  0  0
 12 16  1  0  0  0  0
 13 15  2  0  0  0  0
 14 17  1  0  0  0  0
 15 18  1  0  0  0  0
 16 19  1  0  0  0  0
 17 18  2  0  0  0  0
M  END
> <PUBCHEM_COMPOUND_ID_TYPE>
0

> <PUBCHEM_TOTAL_CHARGE>
0

> <PUBCHEM_SUBSTANCE_ID>
310935286

> <PUBCHEM_SUBSTANCE_VERSION>
1

> <PUBCHEM_EXT_DATASOURCE_NAME>
4488

> <PUBCHEM_EXT_DATASOURCE_REGID>
SCHEMBL16112818

> <PUBCHEM_SUBSTANCE_COMMENT>
InChI=1S/C14H13BrN2O3/c1-9(18)8-17-13(14(19)20-2)7-12(16-17)10-4-3-5-11(15)6-10/h3-7H,8H2,1-2H3
InChIKey=AABCTGDGHAEDGA-UHFFFAOYSA-N

> <PUBCHEM_SUBSTANCE_SYNONYM>
SCHEMBL16112818

> <PUBCHEM_XREF_EXT_ID>
SCHEMBL16112818

> <PUBCHEM_EXT_DATASOURCE_URL>
https://www.surechembl.org/

> <PUBCHEM_EXT_SUBSTANCE_URL>
https://www.surechembl.org/chemical/SCHEMBL16112818

> <PUBCHEM_CID_ASSOCIATIONS>
117603355  1

> <PUBCHEM_COORDINATE_TYPE>
1
3

$$$$
