310941256
  -OEChem-07211613022D

 40 43  0     1  0  0  0  0  0999 V2000
    4.6971    0.6690    0.0000 O   0  0  0  0  0  0  0  0  0  0  0  0
    3.5542   -1.2962    0.0000 O   0  0  0  0  0  0  0  0  0  0  0  0
    1.3799    0.7805    0.0000 O   0  0  0  0  0  0  0  0  0  0  0  0
   -0.7944   -1.2962    0.0000 O   0  0  0  0  0  0  0  0  0  0  0  0
   -4.4463   -0.1255    0.0000 O   0  0  0  0  0  0  0  0  0  0  0  0
   -2.9549    0.7805    0.0000 O   0  0  0  0  0  0  0  0  0  0  0  0
    3.5542   -2.9688    0.0000 O   0  0  0  0  0  0  0  0  0  0  0  0
    2.1046   -0.4600    0.0000 N   0  0  0  0  0  0  0  0  0  0  0  0
   -0.0558   -0.0418    0.0000 N   0  0  0  0  0  0  0  0  0  0  0  0
   -2.2301   -0.4600    0.0000 N   0  0  0  0  0  0  0  0  0  0  0  0
    4.2650    0.0000    0.0000 C   0  0  3  0  0  0  0  0  0  0  0  0
    3.5542   -0.4321    0.0000 C   0  0  0  0  0  0  0  0  0  0  0  0
    3.8887    0.6830    0.0000 C   0  0  0  0  0  0  0  0  0  0  0  0
    2.8294   -0.0279    0.0000 C   0  0  3  0  0  0  0  0  0  0  0  0
    4.9898   -0.4321    0.0000 C   0  0  0  0  0  0  0  0  0  0  0  0
    2.8294    1.3102    0.0000 C   0  0  0  0  0  0  0  0  0  0  0  0
    1.3799   -0.0418    0.0000 C   0  0  0  0  0  0  0  0  0  0  0  0
    0.6830   -0.4321    0.0000 C   0  0  3  0  0  0  0  0  0  0  0  0
    2.1046    1.7422    0.0000 C   0  0  0  0  0  0  0  0  0  0  0  0
    0.6551   -1.2962    0.0000 C   0  0  0  0  0  0  0  0  0  0  0  0
   -0.7806   -0.4182    0.0000 C   0  0  0  0  0  0  0  0  0  0  0  0
    1.3938   -1.6865    0.0000 C   0  0  0  0  0  0  0  0  0  0  0  0
   -1.5053   -0.0279    0.0000 C   0  0  3  0  0  0  0  0  0  0  0  0
    2.1046    2.5507    0.0000 C   0  0  0  0  0  0  0  0  0  0  0  0
    1.3938    1.3241    0.0000 C   0  0  0  0  0  0  0  0  0  0  0  0
   -2.8852   -0.0418    0.0000 C   0  0  0  0  0  0  0  0  0  0  0  0
   -3.6796   -0.4461    0.0000 C   0  0  3  0  0  0  0  0  0  0  0  0
    1.4077   -2.5367    0.0000 C   0  0  0  0  0  0  0  0  0  0  0  0
    2.1186   -1.2823    0.0000 C   0  0  0  0  0  0  0  0  0  0  0  0
    1.3799    2.9688    0.0000 C   0  0  0  0  0  0  0  0  0  0  0  0
    0.6830    1.7283    0.0000 C   0  0  0  0  0  0  0  0  0  0  0  0
    2.8155   -2.5228    0.0000 C   0  0  0  0  0  0  0  0  0  0  0  0
    2.1186   -2.9270    0.0000 C   0  0  0  0  0  0  0  0  0  0  0  0
    2.8294   -1.7005    0.0000 C   0  0  0  0  0  0  0  0  0  0  0  0
    0.6830    2.5507    0.0000 C   0  0  0  0  0  0  0  0  0  0  0  0
   -3.7772   -1.2823    0.0000 C   0  0  0  0  0  0  0  0  0  0  0  0
   -1.5053    0.8084    0.0000 C   0  0  0  0  0  0  0  0  0  0  0  0
   -4.9898   -0.7387    0.0000 C   0  0  0  0  0  0  0  0  0  0  0  0
   -4.5856   -1.4216    0.0000 C   0  0  0  0  0  0  0  0  0  0  0  0
    4.3068   -2.5228    0.0000 C   0  0  0  0  0  0  0  0  0  0  0  0
  1 11  1  0  0  0  0
  1 13  1  0  0  0  0
  2 12  2  0  0  0  0
  3 17  2  0  0  0  0
  4 21  2  0  0  0  0
  5 27  1  0  0  0  0
  5 38  1  0  0  0  0
  6 26  2  0  0  0  0
  7 32  1  0  0  0  0
  7 40  1  0  0  0  0
 14  8  1  1  0  0  0
  8 17  1  0  0  0  0
 18  9  1  6  0  0  0
  9 21  1  0  0  0  0
 10 23  1  0  0  0  0
 10 26  1  0  0  0  0
 11 12  1  1  0  0  0
 11 13  1  0  0  0  0
 11 15  1  6  0  0  0
 12 14  1  0  0  0  0
 14 16  1  0  0  0  0
 16 19  1  0  0  0  0
 17 18  1  0  0  0  0
 18 20  1  0  0  0  0
 19 24  2  0  0  0  0
 19 25  1  0  0  0  0
 20 22  1  0  0  0  0
 21 23  1  0  0  0  0
 22 28  2  0  0  0  0
 22 29  1  0  0  0  0
 23 37  1  1  0  0  0
 24 30  1  0  0  0  0
 25 31  2  0  0  0  0
 27 26  1  6  0  0  0
 27 36  1  0  0  0  0
 28 33  1  0  0  0  0
 29 34  2  0  0  0  0
 30 35  2  0  0  0  0
 31 35  1  0  0  0  0
 32 33  2  0  0  0  0
 32 34  1  0  0  0  0
 36 39  1  0  0  0  0
 38 39  1  0  0  0  0
M  END
> <PUBCHEM_COMPOUND_ID_TYPE>
0

> <PUBCHEM_TOTAL_CHARGE>
0

> <PUBCHEM_SUBSTANCE_ID>
310941256

> <PUBCHEM_SUBSTANCE_VERSION>
1

> <PUBCHEM_EXT_DATASOURCE_NAME>
4488

> <PUBCHEM_EXT_DATASOURCE_REGID>
SCHEMBL16119216

> <PUBCHEM_SUBSTANCE_COMMENT>
InChI=1S/C30H37N3O7/c1-19(31-29(37)25-10-7-15-39-25)27(35)33-24(17-21-11-13-22(38-3)14-12-21)28(36)32-23(26(34)30(2)18-40-30)16-20-8-5-4-6-9-20/h4-6,8-9,11-14,19,23-25H,7,10,15-18H2,1-3H3,(H,31,37)(H,32,36)(H,33,35)/t19-,23-,24-,25-,30+/m0/s1
InChIKey=JNPYJLRYYWWTQT-VYZFVWEISA-N

> <PUBCHEM_SUBSTANCE_SYNONYM>
SCHEMBL16119216

> <PUBCHEM_XREF_EXT_ID>
SCHEMBL16119216

> <PUBCHEM_EXT_DATASOURCE_URL>
https://www.surechembl.org/

> <PUBCHEM_EXT_SUBSTANCE_URL>
https://www.surechembl.org/chemical/SCHEMBL16119216

> <PUBCHEM_CID_ASSOCIATIONS>
117608115  1

> <PUBCHEM_COORDINATE_TYPE>
1
3

> <PUBCHEM_BONDANNOTATIONS>
11  12  5
11  15  6
23  37  5
27  26  6
14  8  5
18  9  6

$$$$
