310947566
  -OEChem-07211613022D

 46 50  0     1  0  0  0  0  0999 V2000
   -1.3926   -4.3607    0.0000 P   0  0  3  0  0  0  0  0  0  0  0  0
    0.4134   -6.8130    0.0000 F   0  0  0  0  0  0  0  0  0  0  0  0
    1.2384   -4.8290    0.0000 O   0  0  0  0  0  0  0  0  0  0  0  0
    2.0634   -6.8130    0.0000 O   0  0  0  0  0  0  0  0  0  0  0  0
   -0.8093   -4.9441    0.0000 O   0  0  0  0  0  0  0  0  0  0  0  0
    3.4049   -2.1715    0.0000 O   0  0  0  0  0  0  0  0  0  0  0  0
   -1.9760   -3.7773    0.0000 O   0  0  0  0  0  0  0  0  0  0  0  0
   -0.8093   -3.7773    0.0000 O   0  0  0  0  0  0  0  0  0  0  0  0
   -2.6905   -7.0066    0.0000 O   0  0  0  0  0  0  0  0  0  0  0  0
   -3.4049   -5.7691    0.0000 O   0  0  0  0  0  0  0  0  0  0  0  0
    1.9059   -4.4889    0.0000 N   0  0  0  0  0  0  0  0  0  0  0  0
    1.9059   -3.1540    0.0000 N   0  0  0  0  0  0  0  0  0  0  0  0
    3.4049   -4.6465    0.0000 N   0  0  0  0  0  0  0  0  0  0  0  0
    4.1194   -3.4090    0.0000 N   0  0  0  0  0  0  0  0  0  0  0  0
   -1.9760   -4.9441    0.0000 N   0  0  0  0  0  0  0  0  0  0  0  0
    1.9059   -5.3139    0.0000 C   0  0  3  0  0  0  0  0  0  0  0  0
    1.6509   -6.0985    0.0000 C   0  0  3  0  0  0  0  0  0  0  0  0
    0.8259   -6.0985    0.0000 C   0  0  3  0  0  0  0  0  0  0  0  0
    2.6905   -4.2340    0.0000 C   0  0  0  0  0  0  0  0  0  0  0  0
    0.5710   -5.3139    0.0000 C   0  0  3  0  0  0  0  0  0  0  0  0
    2.6905   -3.4090    0.0000 C   0  0  0  0  0  0  0  0  0  0  0  0
    1.4209   -3.8215    0.0000 C   0  0  0  0  0  0  0  0  0  0  0  0
    3.4049   -2.9965    0.0000 C   0  0  0  0  0  0  0  0  0  0  0  0
    2.4478   -5.8850    0.0000 C   0  0  0  0  0  0  0  0  0  0  0  0
   -0.0124   -4.7305    0.0000 C   0  0  0  0  0  0  0  0  0  0  0  0
    4.1194   -4.2340    0.0000 C   0  0  0  0  0  0  0  0  0  0  0  0
   -1.9760   -2.9523    0.0000 C   0  0  0  0  0  0  0  0  0  0  0  0
   -2.6905   -2.5398    0.0000 C   0  0  0  0  0  0  0  0  0  0  0  0
    4.8339   -4.6465    0.0000 C   0  0  0  0  0  0  0  0  0  0  0  0
   -2.6905   -1.7148    0.0000 C   0  0  0  0  0  0  0  0  0  0  0  0
   -1.9760   -5.7691    0.0000 C   0  0  3  0  0  0  0  0  0  0  0  0
   -1.2615   -2.5398    0.0000 C   0  0  0  0  0  0  0  0  0  0  0  0
   -3.4049   -2.9523    0.0000 C   0  0  0  0  0  0  0  0  0  0  0  0
    4.1194   -1.7590    0.0000 C   0  0  0  0  0  0  0  0  0  0  0  0
   -1.9760   -1.3023    0.0000 C   0  0  0  0  0  0  0  0  0  0  0  0
   -1.2615   -1.7148    0.0000 C   0  0  0  0  0  0  0  0  0  0  0  0
   -2.6905   -6.1816    0.0000 C   0  0  0  0  0  0  0  0  0  0  0  0
   -3.4049   -1.3023    0.0000 C   0  0  0  0  0  0  0  0  0  0  0  0
   -4.1194   -2.5398    0.0000 C   0  0  0  0  0  0  0  0  0  0  0  0
   -4.1194   -1.7148    0.0000 C   0  0  0  0  0  0  0  0  0  0  0  0
   -1.2615   -6.1816    0.0000 C   0  0  0  0  0  0  0  0  0  0  0  0
   -3.4049   -7.4191    0.0000 C   0  0  0  0  0  0  0  0  0  0  0  0
   -4.1194   -7.0066    0.0000 C   0  0  0  0  0  0  0  0  0  0  0  0
   -4.8339   -7.4191    0.0000 C   0  0  0  0  0  0  0  0  0  0  0  0
   -4.1194   -6.1816    0.0000 C   0  0  0  0  0  0  0  0  0  0  0  0
   -4.8339   -6.5941    0.0000 C   0  0  0  0  0  0  0  0  0  0  0  0
  1  5  1  0  0  0  0
  1  7  1  0  0  0  0
  1  8  2  0  0  0  0
  1 15  1  0  0  0  0
 18  2  1  6  0  0  0
 16  3  1  6  0  0  0
  3 20  1  0  0  0  0
 17  4  1  6  0  0  0
  5 25  1  0  0  0  0
  6 23  1  0  0  0  0
  6 34  1  0  0  0  0
  7 27  1  0  0  0  0
  9 37  1  0  0  0  0
  9 42  1  0  0  0  0
 10 37  2  0  0  0  0
 11 16  1  0  0  0  0
 11 19  1  0  0  0  0
 11 22  1  0  0  0  0
 12 21  1  0  0  0  0
 12 22  2  0  0  0  0
 13 19  1  0  0  0  0
 13 26  2  0  0  0  0
 14 23  2  0  0  0  0
 14 26  1  0  0  0  0
 15 31  1  0  0  0  0
 16 17  1  0  0  0  0
 17 18  1  0  0  0  0
 17 24  1  1  0  0  0
 18 20  1  0  0  0  0
 19 21  2  0  0  0  0
 20 25  1  1  0  0  0
 21 23  1  0  0  0  0
 26 29  1  0  0  0  0
 27 28  1  0  0  0  0
 27 32  2  0  0  0  0
 28 30  2  0  0  0  0
 28 33  1  0  0  0  0
 30 35  1  0  0  0  0
 30 38  1  0  0  0  0
 31 37  1  0  0  0  0
 31 41  1  1  0  0  0
 32 36  1  0  0  0  0
 33 39  2  0  0  0  0
 35 36  2  0  0  0  0
 38 40  2  0  0  0  0
 39 40  1  0  0  0  0
 42 43  1  0  0  0  0
 43 44  1  0  0  0  0
 43 45  1  0  0  0  0
 43 46  1  0  0  0  0
M  END
> <PUBCHEM_COMPOUND_ID_TYPE>
0

> <PUBCHEM_TOTAL_CHARGE>
0

> <PUBCHEM_SUBSTANCE_ID>
310947566

> <PUBCHEM_SUBSTANCE_VERSION>
1

> <PUBCHEM_EXT_DATASOURCE_NAME>
4488

> <PUBCHEM_EXT_DATASOURCE_REGID>
SCHEMBL16125729

> <PUBCHEM_SUBSTANCE_COMMENT>
InChI=1S/C31H39FN5O8P/c1-18(28(38)42-16-30(3,4)5)36-46(40,45-22-14-10-12-20-11-8-9-13-21(20)22)43-15-23-25(32)31(6,39)29(44-23)37-17-33-24-26(37)34-19(2)35-27(24)41-7/h8-14,17-18,23,25,29,39H,15-16H2,1-7H3,(H,36,40)/t18-,23+,25+,29+,31+,46?/m0/s1
InChIKey=SESLHVWHGKOKAC-LUUJWMOISA-N

> <PUBCHEM_SUBSTANCE_SYNONYM>
SCHEMBL16125729

> <PUBCHEM_XREF_EXT_ID>
SCHEMBL16125729

> <PUBCHEM_EXT_DATASOURCE_URL>
https://www.surechembl.org/

> <PUBCHEM_EXT_SUBSTANCE_URL>
https://www.surechembl.org/chemical/SCHEMBL16125729

> <PUBCHEM_CID_ASSOCIATIONS>
117613288  1

> <PUBCHEM_COORDINATE_TYPE>
1
3

> <PUBCHEM_BONDANNOTATIONS>
17  24  5
18  2  6
20  25  5
16  3  6
31  41  5
17  4  6

$$$$
