310948356
  -OEChem-07211613022D

 15 16  0     1  0  0  0  0  0999 V2000
   -0.7557    2.7620    0.0000 Br  0  0  0  0  0  0  0  0  0  0  0  0
    0.2198   -0.6184    0.0000 N   0  0  3  0  0  0  0  0  0  0  0  0
   -0.0550    0.7008    0.0000 C   0  0  0  0  0  0  0  0  0  0  0  0
   -0.7557    0.2885    0.0000 C   0  0  0  0  0  0  0  0  0  0  0  0
    0.5497    0.1374    0.0000 C   0  0  0  0  0  0  0  0  0  0  0  0
   -0.5909   -0.5222    0.0000 C   0  0  0  0  0  0  0  0  0  0  0  0
    0.6184   -1.3192    0.0000 C   0  0  3  0  0  0  0  0  0  0  0  0
   -0.0550    1.5116    0.0000 C   0  0  0  0  0  0  0  0  0  0  0  0
   -1.4703    0.7008    0.0000 C   0  0  0  0  0  0  0  0  0  0  0  0
   -0.7557    1.9375    0.0000 C   0  0  0  0  0  0  0  0  0  0  0  0
   -1.4703    1.5116    0.0000 C   0  0  0  0  0  0  0  0  0  0  0  0
    0.2198   -2.0474    0.0000 C   0  0  0  0  0  0  0  0  0  0  0  0
    1.4703   -1.3192    0.0000 C   0  0  0  0  0  0  0  0  0  0  0  0
   -0.6046   -2.0611    0.0000 C   0  0  0  0  0  0  0  0  0  0  0  0
    0.6459   -2.7620    0.0000 C   0  0  0  0  0  0  0  0  0  0  0  0
  1 10  1  0  0  0  0
  2  5  1  0  0  0  0
  2  6  1  0  0  0  0
  2  7  1  0  0  0  0
  3  4  2  0  0  0  0
  3  5  1  0  0  0  0
  3  8  1  0  0  0  0
  4  6  1  0  0  0  0
  4  9  1  0  0  0  0
  7 12  1  0  0  0  0
  7 13  1  1  0  0  0
  8 10  2  0  0  0  0
  9 11  2  0  0  0  0
 10 11  1  0  0  0  0
 12 14  1  0  0  0  0
 12 15  1  0  0  0  0
M  END
> <PUBCHEM_COMPOUND_ID_TYPE>
0

> <PUBCHEM_TOTAL_CHARGE>
0

> <PUBCHEM_SUBSTANCE_ID>
310948356

> <PUBCHEM_SUBSTANCE_VERSION>
1

> <PUBCHEM_EXT_DATASOURCE_NAME>
4488

> <PUBCHEM_EXT_DATASOURCE_REGID>
SCHEMBL16126534

> <PUBCHEM_SUBSTANCE_COMMENT>
InChI=1S/C13H18BrN/c1-9(2)10(3)15-7-11-4-5-13(14)6-12(11)8-15/h4-6,9-10H,7-8H2,1-3H3/t10-/m0/s1
InChIKey=LDNVGIKWHXWYBI-JTQLQIEISA-N

> <PUBCHEM_SUBSTANCE_SYNONYM>
SCHEMBL16126534

> <PUBCHEM_XREF_EXT_ID>
SCHEMBL16126534

> <PUBCHEM_EXT_DATASOURCE_URL>
https://www.surechembl.org/

> <PUBCHEM_EXT_SUBSTANCE_URL>
https://www.surechembl.org/chemical/SCHEMBL16126534

> <PUBCHEM_CID_ASSOCIATIONS>
117613920  1

> <PUBCHEM_COORDINATE_TYPE>
1
3

> <PUBCHEM_BONDANNOTATIONS>
7  13  5

$$$$
