310944800
  -OEChem-07211613022D

 12 13  0     0  0  0  0  0  0999 V2000
   -1.9582    0.4848    0.0000 O   0  0  0  0  0  0  0  0  0  0  0  0
   -0.5352    0.1070    0.0000 N   0  0  0  0  0  0  0  0  0  0  0  0
    0.5982    0.4218    0.0000 C   0  0  0  0  0  0  0  0  0  0  0  0
    0.1700   -0.2834    0.0000 C   0  0  0  0  0  0  0  0  0  0  0  0
   -0.1323    0.8374    0.0000 C   0  0  0  0  0  0  0  0  0  0  0  0
    1.1144    1.0515    0.0000 C   0  0  0  0  0  0  0  0  0  0  0  0
    1.2404   -0.0819    0.0000 C   0  0  0  0  0  0  0  0  0  0  0  0
    1.7692    0.5604    0.0000 C   0  0  0  0  0  0  0  0  0  0  0  0
   -1.3411   -0.1070    0.0000 C   0  0  0  0  0  0  0  0  0  0  0  0
   -1.5804   -0.9004    0.0000 C   0  0  0  0  0  0  0  0  0  0  0  0
    2.4115    0.6233    0.0000 C   0  0  0  0  0  0  0  0  0  0  0  0
   -2.4115   -1.0515    0.0000 C   0  0  0  0  0  0  0  0  0  0  0  0
  1  9  2  0  0  0  0
  2  4  1  0  0  0  0
  2  5  1  0  0  0  0
  2  9  1  0  0  0  0
  3  4  1  0  0  0  0
  3  5  1  0  0  0  0
  3  6  1  0  0  0  0
  3  7  1  0  0  0  0
  6  8  1  0  0  0  0
  7  8  1  0  0  0  0
  8 11  1  0  0  0  0
  9 10  1  0  0  0  0
 10 12  2  0  0  0  0
M  END
> <PUBCHEM_COMPOUND_ID_TYPE>
0

> <PUBCHEM_TOTAL_CHARGE>
0

> <PUBCHEM_SUBSTANCE_ID>
310944800

> <PUBCHEM_SUBSTANCE_VERSION>
1

> <PUBCHEM_EXT_DATASOURCE_NAME>
4488

> <PUBCHEM_EXT_DATASOURCE_REGID>
SCHEMBL16122879

> <PUBCHEM_SUBSTANCE_COMMENT>
InChI=1S/C10H15NO/c1-3-9(12)11-6-10(7-11)4-8(2)5-10/h3,8H,1,4-7H2,2H3
InChIKey=WDULTFMFTGLYTG-UHFFFAOYSA-N

> <PUBCHEM_SUBSTANCE_SYNONYM>
SCHEMBL16122879

> <PUBCHEM_XREF_EXT_ID>
SCHEMBL16122879

> <PUBCHEM_EXT_DATASOURCE_URL>
https://www.surechembl.org/

> <PUBCHEM_EXT_SUBSTANCE_URL>
https://www.surechembl.org/chemical/SCHEMBL16122879

> <PUBCHEM_CID_ASSOCIATIONS>
117611012  1

> <PUBCHEM_COORDINATE_TYPE>
1
3

$$$$
