310929360
  -OEChem-07211613022D

 32 34  0     0  0  0  0  0  0999 V2000
   13.4414   -5.1879    0.0000 Cl  0  0  0  0  0  0  0  0  0  0  0  0
   13.3942   -1.9337    0.0000 O   0  0  0  0  0  0  0  0  0  0  0  0
    0.0000   -3.1599    0.0000 O   0  0  0  0  0  0  0  0  0  0  0  0
   12.0265   -2.7354    0.0000 N   0  0  0  0  0  0  0  0  0  0  0  0
   12.7340   -3.1599    0.0000 C   0  0  0  0  0  0  0  0  0  0  0  0
   12.7340   -3.9617    0.0000 C   0  0  0  0  0  0  0  0  0  0  0  0
   13.4414   -2.7354    0.0000 C   0  0  0  0  0  0  0  0  0  0  0  0
   13.4414   -4.3861    0.0000 C   0  0  0  0  0  0  0  0  0  0  0  0
   11.3191   -3.1599    0.0000 C   0  0  0  0  0  0  0  0  0  0  0  0
   12.0265   -4.3861    0.0000 C   0  0  0  0  0  0  0  0  0  0  0  0
   14.1489   -3.1599    0.0000 C   0  0  0  0  0  0  0  0  0  0  0  0
   14.1489   -3.9617    0.0000 C   0  0  0  0  0  0  0  0  0  0  0  0
   11.3191   -3.9617    0.0000 C   0  0  0  0  0  0  0  0  0  0  0  0
   12.6868   -0.7074    0.0000 C   0  0  0  0  0  0  0  0  0  0  0  0
   12.6868   -1.5092    0.0000 C   0  0  0  0  0  0  0  0  0  0  0  0
   10.6117   -2.7354    0.0000 C   0  0  0  0  0  0  0  0  0  0  0  0
   12.2624    0.0000    0.0000 C   0  0  0  0  0  0  0  0  0  0  0  0
   13.0641    0.0000    0.0000 C   0  0  0  0  0  0  0  0  0  0  0  0
    9.9042   -3.1599    0.0000 C   0  0  0  0  0  0  0  0  0  0  0  0
    9.1968   -2.7354    0.0000 C   0  0  0  0  0  0  0  0  0  0  0  0
    8.4893   -3.1599    0.0000 C   0  0  0  0  0  0  0  0  0  0  0  0
    7.7819   -2.7354    0.0000 C   0  0  0  0  0  0  0  0  0  0  0  0
    7.0744   -3.1599    0.0000 C   0  0  0  0  0  0  0  0  0  0  0  0
    6.3670   -2.7354    0.0000 C   0  0  0  0  0  0  0  0  0  0  0  0
    5.6596   -3.1599    0.0000 C   0  0  0  0  0  0  0  0  0  0  0  0
    4.9521   -2.7354    0.0000 C   0  0  0  0  0  0  0  0  0  0  0  0
    4.2447   -3.1599    0.0000 C   0  0  0  0  0  0  0  0  0  0  0  0
    3.5372   -2.7354    0.0000 C   0  0  0  0  0  0  0  0  0  0  0  0
    2.8298   -3.1599    0.0000 C   0  0  0  0  0  0  0  0  0  0  0  0
    2.1224   -2.7354    0.0000 C   0  0  0  0  0  0  0  0  0  0  0  0
    1.4149   -3.1599    0.0000 C   0  0  0  0  0  0  0  0  0  0  0  0
    0.7074   -2.7354    0.0000 C   0  0  0  0  0  0  0  0  0  0  0  0
  1  8  1  0  0  0  0
  2  7  1  0  0  0  0
  2 15  1  0  0  0  0
  3 32  1  0  0  0  0
  4  5  2  0  0  0  0
  4  9  1  0  0  0  0
  5  6  1  0  0  0  0
  5  7  1  0  0  0  0
  6  8  1  0  0  0  0
  6 10  2  0  0  0  0
  7 11  2  0  0  0  0
  8 12  2  0  0  0  0
  9 13  2  0  0  0  0
  9 16  1  0  0  0  0
 10 13  1  0  0  0  0
 11 12  1  0  0  0  0
 14 15  1  0  0  0  0
 14 17  1  0  0  0  0
 14 18  1  0  0  0  0
 16 19  1  0  0  0  0
 17 18  1  0  0  0  0
 19 20  1  0  0  0  0
 20 21  1  0  0  0  0
 21 22  1  0  0  0  0
 22 23  1  0  0  0  0
 23 24  1  0  0  0  0
 24 25  1  0  0  0  0
 25 26  1  0  0  0  0
 26 27  1  0  0  0  0
 27 28  1  0  0  0  0
 28 29  1  0  0  0  0
 29 30  1  0  0  0  0
 30 31  1  0  0  0  0
 31 32  1  0  0  0  0
M  END
> <PUBCHEM_COMPOUND_ID_TYPE>
0

> <PUBCHEM_TOTAL_CHARGE>
0

> <PUBCHEM_SUBSTANCE_ID>
310929360

> <PUBCHEM_SUBSTANCE_VERSION>
1

> <PUBCHEM_EXT_DATASOURCE_NAME>
4488

> <PUBCHEM_EXT_DATASOURCE_REGID>
SCHEMBL16106528

> <PUBCHEM_SUBSTANCE_COMMENT>
InChI=1S/C28H42ClNO2/c29-26-19-20-27(32-22-23-15-16-23)28-25(26)18-17-24(30-28)14-12-10-8-6-4-2-1-3-5-7-9-11-13-21-31/h17-20,23,31H,1-16,21-22H2
InChIKey=NAWMIQVYUJPVNX-UHFFFAOYSA-N

> <PUBCHEM_SUBSTANCE_SYNONYM>
SCHEMBL16106528

> <PUBCHEM_XREF_EXT_ID>
SCHEMBL16106528

> <PUBCHEM_EXT_DATASOURCE_URL>
https://www.surechembl.org/

> <PUBCHEM_EXT_SUBSTANCE_URL>
https://www.surechembl.org/chemical/SCHEMBL16106528

> <PUBCHEM_CID_ASSOCIATIONS>
85472702  1

> <PUBCHEM_COORDINATE_TYPE>
1
3

$$$$
