310948953
  -OEChem-07211613022D

 51 52  0     1  0  0  0  0  0999 V2000
    3.5869    0.8345    0.0000 P   0  0  3  0  0  0  0  0  0  0  0  0
    7.2609   -1.0835    0.0000 F   0  0  0  0  0  0  0  0  0  0  0  0
    6.4140    0.9092    0.0000 O   0  0  0  0  0  0  0  0  0  0  0  0
    5.5795   -1.0835    0.0000 O   0  0  0  0  0  0  0  0  0  0  0  0
    4.3092    0.4234    0.0000 O   0  0  0  0  0  0  0  0  0  0  0  0
    8.6931   -0.0124    0.0000 O   0  0  0  0  0  0  0  0  0  0  0  0
    9.4404    2.7649    0.0000 O   0  0  0  0  0  0  0  0  0  0  0  0
    3.5869    1.6689    0.0000 O   0  0  0  0  0  0  0  0  0  0  0  0
    3.5869   -2.0425    0.0000 O   0  0  0  0  0  0  0  0  0  0  0  0
    2.4535   -0.9092    0.0000 O   0  0  0  0  0  0  0  0  0  0  0  0
   -0.1245    1.6689    0.0000 O   0  0  0  0  0  0  0  0  0  0  0  0
    7.6968    1.0088    0.0000 N   0  0  0  0  0  0  0  0  0  0  0  0
    9.2038    1.3824    0.0000 N   0  0  0  0  0  0  0  0  0  0  0  0
    3.1883    0.1245    0.0000 N   0  0  0  0  0  0  0  0  0  0  0  0
    2.7649    0.8345    0.0000 N   0  0  0  0  0  0  0  0  0  0  0  0
    0.6227    0.4234    0.0000 N   0  0  0  0  0  0  0  0  0  0  0  0
    6.8624   -0.3611    0.0000 C   0  0  3  0  0  0  0  0  0  0  0  0
    7.0990    0.4234    0.0000 C   0  0  3  0  0  0  0  0  0  0  0  0
    6.0030   -0.3487    0.0000 C   0  0  3  0  0  0  0  0  0  0  0  0
    5.7664    0.4359    0.0000 C   0  0  3  0  0  0  0  0  0  0  0  0
    8.4815    0.7971    0.0000 C   0  0  0  0  0  0  0  0  0  0  0  0
    7.6719   -0.3611    0.0000 C   0  0  0  0  0  0  0  0  0  0  0  0
    5.0316    0.8345    0.0000 C   0  0  0  0  0  0  0  0  0  0  0  0
    7.4727    1.8059    0.0000 C   0  0  0  0  0  0  0  0  0  0  0  0
    8.8550    2.1671    0.0000 C   0  0  0  0  0  0  0  0  0  0  0  0
    8.0705    2.4037    0.0000 C   0  0  0  0  0  0  0  0  0  0  0  0
    3.5993   -0.5978    0.0000 C   0  0  0  0  0  0  0  0  0  0  0  0
    2.0549    0.4234    0.0000 C   0  0  0  0  0  0  0  0  0  0  0  0
    3.2008   -1.3202    0.0000 C   0  0  0  0  0  0  0  0  0  0  0  0
    1.3326    0.8345    0.0000 C   0  0  0  0  0  0  0  0  0  0  0  0
   -0.1121    0.8220    0.0000 C   0  0  0  0  0  0  0  0  0  0  0  0
    3.2008   -2.7649    0.0000 C   0  0  0  0  0  0  0  0  0  0  0  0
   -0.8220    0.4234    0.0000 C   0  0  0  0  0  0  0  0  0  0  0  0
   -1.5443    0.8469    0.0000 C   0  0  0  0  0  0  0  0  0  0  0  0
   -1.5443    1.6689    0.0000 C   0  0  0  0  0  0  0  0  0  0  0  0
   -2.2667    2.0799    0.0000 C   0  0  0  0  0  0  0  0  0  0  0  0
   -2.9766    1.6689    0.0000 C   0  0  0  0  0  0  0  0  0  0  0  0
   -2.9891    0.8345    0.0000 C   0  0  0  0  0  0  0  0  0  0  0  0
   -3.6990    0.4234    0.0000 C   0  0  0  0  0  0  0  0  0  0  0  0
   -4.4213    0.8469    0.0000 C   0  0  0  0  0  0  0  0  0  0  0  0
   -4.4213    1.6689    0.0000 C   0  0  0  0  0  0  0  0  0  0  0  0
   -5.1437    2.0799    0.0000 C   0  0  0  0  0  0  0  0  0  0  0  0
   -5.8536    1.6689    0.0000 C   0  0  0  0  0  0  0  0  0  0  0  0
   -5.8660    0.8345    0.0000 C   0  0  0  0  0  0  0  0  0  0  0  0
   -6.5759    0.4234    0.0000 C   0  0  0  0  0  0  0  0  0  0  0  0
   -7.2983    0.8469    0.0000 C   0  0  0  0  0  0  0  0  0  0  0  0
   -7.2983    1.6689    0.0000 C   0  0  0  0  0  0  0  0  0  0  0  0
   -8.0206    2.0799    0.0000 C   0  0  0  0  0  0  0  0  0  0  0  0
   -8.7306    1.6689    0.0000 C   0  0  0  0  0  0  0  0  0  0  0  0
   -8.7430    0.8345    0.0000 C   0  0  0  0  0  0  0  0  0  0  0  0
   -9.4404    0.4110    0.0000 C   0  0  0  0  0  0  0  0  0  0  0  0
  1  5  1  0  0  0  0
  1  8  2  0  0  0  0
  1 14  1  0  0  0  0
  1 15  1  0  0  0  0
 17  2  1  6  0  0  0
  3 18  1  0  0  0  0
  3 20  1  0  0  0  0
 19  4  1  6  0  0  0
  5 23  1  0  0  0  0
  6 21  2  0  0  0  0
  7 25  2  0  0  0  0
  9 29  1  0  0  0  0
  9 32  1  0  0  0  0
 10 29  2  0  0  0  0
 11 31  2  0  0  0  0
 12 18  1  0  0  0  0
 12 21  1  0  0  0  0
 12 24  1  0  0  0  0
 13 21  1  0  0  0  0
 13 25  1  0  0  0  0
 14 27  1  0  0  0  0
 15 28  1  0  0  0  0
 16 30  1  0  0  0  0
 16 31  1  0  0  0  0
 17 18  1  0  0  0  0
 17 19  1  0  0  0  0
 17 22  1  1  0  0  0
 19 20  1  0  0  0  0
 20 23  1  1  0  0  0
 24 26  2  0  0  0  0
 25 26  1  0  0  0  0
 27 29  1  0  0  0  0
 28 30  1  0  0  0  0
 31 33  1  0  0  0  0
 33 34  1  0  0  0  0
 34 35  1  0  0  0  0
 35 36  1  0  0  0  0
 36 37  2  0  0  0  0
 37 38  1  0  0  0  0
 38 39  1  0  0  0  0
 39 40  2  0  0  0  0
 40 41  1  0  0  0  0
 41 42  1  0  0  0  0
 42 43  2  0  0  0  0
 43 44  1  0  0  0  0
 44 45  1  0  0  0  0
 45 46  2  0  0  0  0
 46 47  1  0  0  0  0
 47 48  1  0  0  0  0
 48 49  2  0  0  0  0
 49 50  1  0  0  0  0
 50 51  1  0  0  0  0
M  END
> <PUBCHEM_COMPOUND_ID_TYPE>
0

> <PUBCHEM_TOTAL_CHARGE>
0

> <PUBCHEM_SUBSTANCE_ID>
310948953

> <PUBCHEM_SUBSTANCE_VERSION>
1

> <PUBCHEM_EXT_DATASOURCE_NAME>
4488

> <PUBCHEM_EXT_DATASOURCE_REGID>
SCHEMBL16127141

> <PUBCHEM_SUBSTANCE_COMMENT>
InChI=1S/C35H53FN5O9P/c1-4-5-6-7-8-9-10-11-12-13-14-15-16-17-18-19-20-21-29(42)37-23-24-38-51(47,39-26-31(44)48-3)49-27-28-32(45)35(2,36)33(50-28)41-25-22-30(43)40-34(41)46/h5-6,8-9,11-12,14-15,17-18,22,25,28,32-33,45H,4,7,10,13,16,19-21,23-24,26-27H2,1-3H3,(H,37,42)(H2,38,39,47)(H,40,43,46)/b6-5-,9-8-,12-11-,15-14-,18-17-/t28-,32-,33?,35-,51?/m1/s1
InChIKey=KIMLSGYXOJNNOA-DBMSVFFZSA-N

> <PUBCHEM_SUBSTANCE_SYNONYM>
SCHEMBL16127141

> <PUBCHEM_XREF_EXT_ID>
SCHEMBL16127141

> <PUBCHEM_EXT_DATASOURCE_URL>
https://www.surechembl.org/

> <PUBCHEM_EXT_SUBSTANCE_URL>
https://www.surechembl.org/chemical/SCHEMBL16127141

> <PUBCHEM_CID_ASSOCIATIONS>
117614463  1

> <PUBCHEM_COORDINATE_TYPE>
1
3

> <PUBCHEM_BONDANNOTATIONS>
17  22  5
17  2  6
20  23  5
19  4  6

$$$$
