310944385
  -OEChem-07211613022D

 35 39  0     0  0  0  0  0  0999 V2000
   -1.1146    2.8676    0.0000 F   0  0  0  0  0  0  0  0  0  0  0  0
    1.0944    0.8208    0.0000 N   0  0  0  0  0  0  0  0  0  0  0  0
    0.3445   -0.4155    0.0000 N   0  0  0  0  0  0  0  0  0  0  0  0
    1.0741    2.3610    0.0000 N   0  0  0  0  0  0  0  0  0  0  0  0
   -1.1552   -1.2261    0.0000 N   0  0  0  0  0  0  0  0  0  0  0  0
   -0.4053    0.8613    0.0000 C   0  0  0  0  0  0  0  0  0  0  0  0
   -0.3850    1.6719    0.0000 C   0  0  0  0  0  0  0  0  0  0  0  0
    0.3648    0.4357    0.0000 C   0  0  0  0  0  0  0  0  0  0  0  0
   -1.1349    0.4357    0.0000 C   0  0  0  0  0  0  0  0  0  0  0  0
   -1.1552    2.0570    0.0000 C   0  0  0  0  0  0  0  0  0  0  0  0
   -1.8442    1.6719    0.0000 C   0  0  0  0  0  0  0  0  0  0  0  0
   -1.8442    0.8410    0.0000 C   0  0  0  0  0  0  0  0  0  0  0  0
    1.8442    0.4155    0.0000 C   0  0  0  0  0  0  0  0  0  0  0  0
    1.1146   -0.8208    0.0000 C   0  0  0  0  0  0  0  0  0  0  0  0
   -2.5941    2.0773    0.0000 C   0  0  0  0  0  0  0  0  0  0  0  0
    1.8240   -0.4357    0.0000 C   0  0  0  0  0  0  0  0  0  0  0  0
    0.3445    2.0367    0.0000 C   0  0  0  0  0  0  0  0  0  0  0  0
    2.5738    0.8410    0.0000 C   0  0  0  0  0  0  0  0  0  0  0  0
    1.0741   -1.6517    0.0000 C   0  0  0  0  0  0  0  0  0  0  0  0
   -1.1552   -0.4155    0.0000 C   0  0  0  0  0  0  0  0  0  0  0  0
   -2.5941    2.8676    0.0000 C   0  0  0  0  0  0  0  0  0  0  0  0
   -3.3034    1.6922    0.0000 C   0  0  0  0  0  0  0  0  0  0  0  0
    3.3439    0.4357    0.0000 C   0  0  0  0  0  0  0  0  0  0  0  0
    2.6144    1.6517    0.0000 C   0  0  0  0  0  0  0  0  0  0  0  0
    0.3648   -2.0570    0.0000 C   0  0  0  0  0  0  0  0  0  0  0  0
    1.8442   -2.1178    0.0000 C   0  0  0  0  0  0  0  0  0  0  0  0
   -3.3236    3.2730    0.0000 C   0  0  0  0  0  0  0  0  0  0  0  0
   -4.0330    2.0773    0.0000 C   0  0  0  0  0  0  0  0  0  0  0  0
   -4.0532    2.8676    0.0000 C   0  0  0  0  0  0  0  0  0  0  0  0
    4.0532    0.8208    0.0000 C   0  0  0  0  0  0  0  0  0  0  0  0
    3.3236    2.0367    0.0000 C   0  0  0  0  0  0  0  0  0  0  0  0
    0.3648   -2.8676    0.0000 C   0  0  0  0  0  0  0  0  0  0  0  0
    1.8240   -2.8879    0.0000 C   0  0  0  0  0  0  0  0  0  0  0  0
    4.0532    1.6314    0.0000 C   0  0  0  0  0  0  0  0  0  0  0  0
    1.0944   -3.2730    0.0000 C   0  0  0  0  0  0  0  0  0  0  0  0
  1 10  1  0  0  0  0
  2  8  1  0  0  0  0
  2 13  2  0  0  0  0
  3  8  2  0  0  0  0
  3 14  1  0  0  0  0
  4 17  3  0  0  0  0
  5 20  3  0  0  0  0
  6  7  1  0  0  0  0
  6  8  1  0  0  0  0
  6  9  2  0  0  0  0
  7 10  2  0  0  0  0
  7 17  1  0  0  0  0
  9 12  1  0  0  0  0
  9 20  1  0  0  0  0
 10 11  1  0  0  0  0
 11 12  2  0  0  0  0
 11 15  1  0  0  0  0
 13 16  1  0  0  0  0
 13 18  1  0  0  0  0
 14 16  2  0  0  0  0
 14 19  1  0  0  0  0
 15 21  2  0  0  0  0
 15 22  1  0  0  0  0
 18 23  2  0  0  0  0
 18 24  1  0  0  0  0
 19 25  2  0  0  0  0
 19 26  1  0  0  0  0
 21 27  1  0  0  0  0
 22 28  2  0  0  0  0
 23 30  1  0  0  0  0
 24 31  2  0  0  0  0
 25 32  1  0  0  0  0
 26 33  2  0  0  0  0
 27 29  2  0  0  0  0
 28 29  1  0  0  0  0
 30 34  2  0  0  0  0
 31 34  1  0  0  0  0
 32 35  2  0  0  0  0
 33 35  1  0  0  0  0
M  END
> <PUBCHEM_COMPOUND_ID_TYPE>
0

> <PUBCHEM_TOTAL_CHARGE>
0

> <PUBCHEM_SUBSTANCE_ID>
310944385

> <PUBCHEM_SUBSTANCE_VERSION>
1

> <PUBCHEM_EXT_DATASOURCE_NAME>
4488

> <PUBCHEM_EXT_DATASOURCE_REGID>
SCHEMBL16122460

> <PUBCHEM_SUBSTANCE_COMMENT>
InChI=1S/C30H17FN4/c31-29-24(20-10-4-1-5-11-20)16-23(18-32)28(25(29)19-33)30-34-26(21-12-6-2-7-13-21)17-27(35-30)22-14-8-3-9-15-22/h1-17H
InChIKey=RRLMYDOTYHGPEU-UHFFFAOYSA-N

> <PUBCHEM_SUBSTANCE_SYNONYM>
SCHEMBL16122460

> <PUBCHEM_XREF_EXT_ID>
SCHEMBL16122460

> <PUBCHEM_EXT_DATASOURCE_URL>
https://www.surechembl.org/

> <PUBCHEM_EXT_SUBSTANCE_URL>
https://www.surechembl.org/chemical/SCHEMBL16122460

> <PUBCHEM_CID_ASSOCIATIONS>
117610642  1

> <PUBCHEM_COORDINATE_TYPE>
1
3

$$$$
