310936640
  -OEChem-07211613022D

 40 43  0     0  0  0  0  0  0999 V2000
   14.5721    2.0625    0.0000 F   0  0  0  0  0  0  0  0  0  0  0  0
    5.7158    3.3000    0.0000 F   0  0  0  0  0  0  0  0  0  0  0  0
    6.0177    2.1730    0.0000 F   0  0  0  0  0  0  0  0  0  0  0  0
    6.8427    3.6020    0.0000 F   0  0  0  0  0  0  0  0  0  0  0  0
   10.7872    2.7299    0.0000 O   0  0  0  0  0  0  0  0  0  0  0  0
   11.8491    0.4389    0.0000 O   0  0  0  0  0  0  0  0  0  0  0  0
    7.8592    0.4125    0.0000 O   0  0  0  0  0  0  0  0  0  0  0  0
    9.2881    2.8875    0.0000 N   0  0  0  0  0  0  0  0  0  0  0  0
    7.8592    2.8875    0.0000 N   0  0  0  0  0  0  0  0  0  0  0  0
   10.4901   -0.0027    0.0000 N   0  0  0  0  0  0  0  0  0  0  0  0
    7.1447    1.6500    0.0000 N   0  0  0  0  0  0  0  0  0  0  0  0
   10.0026    1.6500    0.0000 C   0  0  0  0  0  0  0  0  0  0  0  0
    9.2881    1.2375    0.0000 C   0  0  0  0  0  0  0  0  0  0  0  0
   10.7872    1.3951    0.0000 C   0  0  0  0  0  0  0  0  0  0  0  0
   10.0026    2.4750    0.0000 C   0  0  0  0  0  0  0  0  0  0  0  0
   11.2721    2.0625    0.0000 C   0  0  0  0  0  0  0  0  0  0  0  0
    8.5737    1.6500    0.0000 C   0  0  0  0  0  0  0  0  0  0  0  0
    8.5737    2.4750    0.0000 C   0  0  0  0  0  0  0  0  0  0  0  0
    9.2881    0.4125    0.0000 C   0  0  0  0  0  0  0  0  0  0  0  0
   11.0422    0.6104    0.0000 C   0  0  0  0  0  0  0  0  0  0  0  0
   12.0971    2.0625    0.0000 C   0  0  0  0  0  0  0  0  0  0  0  0
    7.8592    1.2375    0.0000 C   0  0  0  0  0  0  0  0  0  0  0  0
   10.0026    0.0000    0.0000 C   0  0  0  0  0  0  0  0  0  0  0  0
    8.5737    0.0000    0.0000 C   0  0  0  0  0  0  0  0  0  0  0  0
   12.5096    2.7770    0.0000 C   0  0  0  0  0  0  0  0  0  0  0  0
   12.5096    1.3480    0.0000 C   0  0  0  0  0  0  0  0  0  0  0  0
    7.1447    2.4750    0.0000 C   0  0  0  0  0  0  0  0  0  0  0  0
   10.0026   -0.8250    0.0000 C   0  0  0  0  0  0  0  0  0  0  0  0
    8.5737   -0.8250    0.0000 C   0  0  0  0  0  0  0  0  0  0  0  0
   13.3346    2.7770    0.0000 C   0  0  0  0  0  0  0  0  0  0  0  0
   13.3346    1.3480    0.0000 C   0  0  0  0  0  0  0  0  0  0  0  0
   13.7471    2.0625    0.0000 C   0  0  0  0  0  0  0  0  0  0  0  0
    6.4302    2.8875    0.0000 C   0  0  0  0  0  0  0  0  0  0  0  0
    9.2881   -1.2375    0.0000 C   0  0  0  0  0  0  0  0  0  0  0  0
    6.4302    1.2375    0.0000 C   0  0  0  0  0  0  0  0  0  0  0  0
   10.7451   -0.7873    0.0000 C   0  0  0  0  0  0  0  0  0  0  0  0
    5.7158    1.6500    0.0000 C   0  0  0  0  0  0  0  0  0  0  0  0
    5.0013    1.2375    0.0000 C   0  0  0  0  0  0  0  0  0  0  0  0
    4.2868    1.6500    0.0000 C   0  0  0  0  0  0  0  0  0  0  0  0
    3.5724    1.2375    0.0000 C   0  0  0  0  0  0  0  0  0  0  0  0
  1 32  1  0  0  0  0
  2 33  1  0  0  0  0
  3 33  1  0  0  0  0
  4 33  1  0  0  0  0
  5 15  1  0  0  0  0
  5 16  1  0  0  0  0
  6 20  2  0  0  0  0
  7 22  2  0  0  0  0
  8 15  2  0  0  0  0
  8 18  1  0  0  0  0
  9 18  1  0  0  0  0
  9 27  1  0  0  0  0
 10 20  1  0  0  0  0
 10 36  1  0  0  0  0
 11 22  1  0  0  0  0
 11 35  1  0  0  0  0
 12 13  2  0  0  0  0
 12 14  1  0  0  0  0
 12 15  1  0  0  0  0
 13 17  1  0  0  0  0
 13 19  1  0  0  0  0
 14 16  2  0  0  0  0
 14 20  1  0  0  0  0
 16 21  1  0  0  0  0
 17 18  2  0  0  0  0
 17 22  1  0  0  0  0
 19 23  2  0  0  0  0
 19 24  1  0  0  0  0
 21 25  2  0  0  0  0
 21 26  1  0  0  0  0
 23 28  1  0  0  0  0
 24 29  2  0  0  0  0
 25 30  1  0  0  0  0
 26 31  2  0  0  0  0
 27 33  1  0  0  0  0
 28 34  2  0  0  0  0
 29 34  1  0  0  0  0
 30 32  2  0  0  0  0
 31 32  1  0  0  0  0
 35 37  1  0  0  0  0
 37 38  1  0  0  0  0
 38 39  1  0  0  0  0
 39 40  1  0  0  0  0
M  END
> <PUBCHEM_COMPOUND_ID_TYPE>
0

> <PUBCHEM_TOTAL_CHARGE>
0

> <PUBCHEM_SUBSTANCE_ID>
310936640

> <PUBCHEM_SUBSTANCE_VERSION>
1

> <PUBCHEM_EXT_DATASOURCE_NAME>
4488

> <PUBCHEM_EXT_DATASOURCE_REGID>
SCHEMBL16114303

> <PUBCHEM_SUBSTANCE_COMMENT>
InChI=1S/C29H28F4N4O3/c1-3-4-8-15-35-27(39)23-20(17-9-6-5-7-10-17)21-22(26(38)34-2)24(18-11-13-19(30)14-12-18)40-28(21)37-25(23)36-16-29(31,32)33/h5-7,9-14H,3-4,8,15-16H2,1-2H3,(H,34,38)(H,35,39)(H,36,37)
InChIKey=TZUSIYBIXRWMEG-UHFFFAOYSA-N

> <PUBCHEM_SUBSTANCE_SYNONYM>
SCHEMBL16114303

> <PUBCHEM_XREF_EXT_ID>
SCHEMBL16114303

> <PUBCHEM_EXT_DATASOURCE_URL>
https://www.surechembl.org/

> <PUBCHEM_EXT_SUBSTANCE_URL>
https://www.surechembl.org/chemical/SCHEMBL16114303

> <PUBCHEM_CID_ASSOCIATIONS>
117604554  1

> <PUBCHEM_COORDINATE_TYPE>
1
3

$$$$
