310940348
  -OEChem-07211613022D

 25 26  0     0  0  0  0  0  0999 V2000
   -1.4784    1.6730    0.0000 O   0  0  0  0  0  0  0  0  0  0  0  0
    1.5562   -1.2061    0.0000 O   0  0  0  0  0  0  0  0  0  0  0  0
    4.3729   -0.2101    0.0000 O   0  5  0  0  0  0  0  0  0  0  0  0
    4.2796    1.2061    0.0000 O   0  0  0  0  0  0  0  0  0  0  0  0
    0.5758    0.1323    0.0000 N   0  0  0  0  0  0  0  0  0  0  0  0
    3.9061    0.4902    0.0000 N   0  3  0  0  0  0  0  0  0  0  0  0
   -0.6536   -0.4124    0.0000 N   0  0  0  0  0  0  0  0  0  0  0  0
    0.1556   -0.5836    0.0000 N   0  0  0  0  0  0  0  0  0  0  0  0
   -2.1942    0.4280    0.0000 C   0  0  0  0  0  0  0  0  0  0  0  0
    1.4161    0.2412    0.0000 C   0  0  0  0  0  0  0  0  0  0  0  0
   -1.4784    0.8326    0.0000 C   0  0  0  0  0  0  0  0  0  0  0  0
   -0.7314    0.4280    0.0000 C   0  0  0  0  0  0  0  0  0  0  0  0
    1.8986   -0.4280    0.0000 C   0  0  0  0  0  0  0  0  0  0  0  0
    3.0658    0.4124    0.0000 C   0  0  0  0  0  0  0  0  0  0  0  0
    2.7389   -0.3346    0.0000 C   0  0  0  0  0  0  0  0  0  0  0  0
    1.7585    0.9882    0.0000 C   0  0  0  0  0  0  0  0  0  0  0  0
    0.0155    0.7703    0.0000 C   0  0  0  0  0  0  0  0  0  0  0  0
   -2.9412    0.8326    0.0000 C   0  0  0  0  0  0  0  0  0  0  0  0
   -2.1942   -0.3968    0.0000 C   0  0  0  0  0  0  0  0  0  0  0  0
    2.5833    1.0660    0.0000 C   0  0  0  0  0  0  0  0  0  0  0  0
   -3.6415    0.4280    0.0000 C   0  0  0  0  0  0  0  0  0  0  0  0
   -2.9102   -0.8014    0.0000 C   0  0  0  0  0  0  0  0  0  0  0  0
   -3.6260   -0.4124    0.0000 C   0  0  0  0  0  0  0  0  0  0  0  0
   -4.3729    0.8170    0.0000 C   0  0  0  0  0  0  0  0  0  0  0  0
   -2.8945   -1.6730    0.0000 C   0  0  0  0  0  0  0  0  0  0  0  0
  1 11  2  0  0  0  0
  2 13  1  0  0  0  0
  3  6  1  0  0  0  0
  4  6  2  0  0  0  0
  5 10  1  0  0  0  0
  5 17  1  0  0  0  0
  6 14  1  0  0  0  0
  7  8  2  3  0  0  0
  7 12  1  0  0  0  0
  9 11  1  0  0  0  0
  9 18  2  0  0  0  0
  9 19  1  0  0  0  0
 10 13  2  0  0  0  0
 10 16  1  0  0  0  0
 11 12  1  0  0  0  0
 12 17  2  0  0  0  0
 13 15  1  0  0  0  0
 14 15  2  0  0  0  0
 14 20  1  0  0  0  0
 16 20  2  0  0  0  0
 18 21  1  0  0  0  0
 19 22  2  0  0  0  0
 21 23  2  0  0  0  0
 21 24  1  0  0  0  0
 22 23  1  0  0  0  0
 22 25  1  0  0  0  0
M  CHG  2   3  -1   6   1
M  END
> <PUBCHEM_COMPOUND_ID_TYPE>
0

> <PUBCHEM_TOTAL_CHARGE>
0

> <PUBCHEM_SUBSTANCE_ID>
310940348

> <PUBCHEM_SUBSTANCE_VERSION>
1

> <PUBCHEM_EXT_DATASOURCE_NAME>
4488

> <PUBCHEM_EXT_DATASOURCE_REGID>
SCHEMBL16118292

> <PUBCHEM_SUBSTANCE_COMMENT>
InChI=1S/C17H16N4O4/c1-10-5-11(2)7-12(6-10)17(23)15(20-18)9-19-14-4-3-13(21(24)25)8-16(14)22/h3-9,18-19,22H,1-2H3/b15-9-,20-18?
InChIKey=PYSVOQOSNZHDTR-YMMLTTEXSA-N

> <PUBCHEM_SUBSTANCE_SYNONYM>
SCHEMBL16118292

> <PUBCHEM_XREF_EXT_ID>
SCHEMBL16118292

> <PUBCHEM_EXT_DATASOURCE_URL>
https://www.surechembl.org/

> <PUBCHEM_EXT_SUBSTANCE_URL>
https://www.surechembl.org/chemical/SCHEMBL16118292

> <PUBCHEM_CID_ASSOCIATIONS>
117607394  1

> <PUBCHEM_COORDINATE_TYPE>
1
3

$$$$
