310929790
  -OEChem-07211613022D

 55 61  0     1  0  0  0  0  0999 V2000
    1.4616   -0.4972    0.0000 O   0  0  0  0  0  0  0  0  0  0  0  0
    5.1028   -1.5144    0.0000 O   0  0  0  0  0  0  0  0  0  0  0  0
    2.2838   -0.5650    0.0000 O   0  0  0  0  0  0  0  0  0  0  0  0
    0.2870    0.3166    0.0000 O   0  0  0  0  0  0  0  0  0  0  0  0
    3.8614    2.1159    0.0000 O   0  0  0  0  0  0  0  0  0  0  0  0
    4.9188    1.7983    0.0000 O   0  0  0  0  0  0  0  0  0  0  0  0
    6.1599   -3.7523    0.0000 O   0  0  0  0  0  0  0  0  0  0  0  0
    3.5759    0.0454    0.0000 N   0  0  0  0  0  0  0  0  0  0  0  0
    1.5791    0.9270    0.0000 N   0  0  0  0  0  0  0  0  0  0  0  0
    5.0403   -1.1700    0.0000 N   0  0  0  0  0  0  0  0  0  0  0  0
    8.6266   -3.9557    0.0000 N   0  0  0  0  0  0  0  0  0  0  0  0
    0.9918   -1.1753    0.0000 C   0  0  3  0  0  0  0  0  0  0  0  0
    1.3442   -1.9213    0.0000 C   0  0  3  0  0  0  0  0  0  0  0  0
    0.5219   -1.8534    0.0000 C   0  0  3  0  0  0  0  0  0  0  0  0
    2.1664   -1.9891    0.0000 C   0  0  0  0  0  0  0  0  0  0  0  0
    2.4013    0.8591    0.0000 C   0  0  3  0  0  0  0  0  0  0  0  0
    4.2323    0.5451    0.0000 C   0  0  3  0  0  0  0  0  0  0  0  0
    1.1092    0.2488    0.0000 C   0  0  0  0  0  0  0  0  0  0  0  0
    2.7537    0.1132    0.0000 C   0  0  0  0  0  0  0  0  0  0  0  0
   -0.2240   -2.2058    0.0000 C   0  0  0  0  0  0  0  0  0  0  0  0
    2.8711    1.5373    0.0000 C   0  0  0  0  0  0  0  0  0  0  0  0
    4.7504   -0.7684    0.0000 C   0  0  3  0  0  0  0  0  0  0  0  0
    3.9282   -0.7006    0.0000 C   0  0  0  0  0  0  0  0  0  0  0  0
    4.9104    0.0753    0.0000 C   0  0  0  0  0  0  0  0  0  0  0  0
    2.5187   -2.7350    0.0000 C   0  0  0  0  0  0  0  0  0  0  0  0
    4.2138    1.3699    0.0000 C   0  0  0  0  0  0  0  0  0  0  0  0
    2.1217    1.8822    0.0000 C   0  0  0  0  0  0  0  0  0  0  0  0
    3.5446    2.0138    0.0000 C   0  0  0  0  0  0  0  0  0  0  0  0
    4.6330   -2.1925    0.0000 C   0  0  0  0  0  0  0  0  0  0  0  0
    4.9854   -2.9385    0.0000 C   0  0  0  0  0  0  0  0  0  0  0  0
    3.4574    0.9568    0.0000 C   0  0  0  0  0  0  0  0  0  0  0  0
    5.8076   -3.0063    0.0000 C   0  0  0  0  0  0  0  0  0  0  0  0
    3.3409   -2.8028    0.0000 C   0  0  0  0  0  0  0  0  0  0  0  0
    6.2774   -2.3281    0.0000 C   0  0  0  0  0  0  0  0  0  0  0  0
    5.9250   -1.5822    0.0000 C   0  0  0  0  0  0  0  0  0  0  0  0
    2.0457    2.7037    0.0000 C   0  0  0  0  0  0  0  0  0  0  0  0
    3.4686    2.8353    0.0000 C   0  0  0  0  0  0  0  0  0  0  0  0
    4.5155   -3.6166    0.0000 C   0  0  0  0  0  0  0  0  0  0  0  0
    3.6933   -3.5488    0.0000 C   0  0  0  0  0  0  0  0  0  0  0  0
    2.7191    3.1803    0.0000 C   0  0  0  0  0  0  0  0  0  0  0  0
    7.0996   -2.3960    0.0000 C   0  0  0  0  0  0  0  0  0  0  0  0
    6.3949   -0.9040    0.0000 C   0  0  0  0  0  0  0  0  0  0  0  0
    6.9822   -3.8201    0.0000 C   0  0  0  0  0  0  0  0  0  0  0  0
    7.5694   -1.7178    0.0000 C   0  0  0  0  0  0  0  0  0  0  0  0
    7.2171   -0.9719    0.0000 C   0  0  0  0  0  0  0  0  0  0  0  0
    7.3345   -4.5660    0.0000 C   0  0  0  0  0  0  0  0  0  0  0  0
    7.4520   -3.1419    0.0000 C   0  0  0  0  0  0  0  0  0  0  0  0
    8.1567   -4.6338    0.0000 C   0  0  0  0  0  0  0  0  0  0  0  0
    8.2742   -3.2097    0.0000 C   0  0  0  0  0  0  0  0  0  0  0  0
    9.4488   -4.0235    0.0000 C   0  0  0  0  0  0  0  0  0  0  0  0
    0.3136   -0.7055    0.0000 H   0  0  0  0  0  0  0  0  0  0  0  0
    1.2763   -2.7435    0.0000 H   0  0  0  0  0  0  0  0  0  0  0  0
    3.2235    0.7913    0.0000 H   0  0  0  0  0  0  0  0  0  0  0  0
    4.9588    0.9361    0.0000 H   0  0  0  0  0  0  0  0  0  0  0  0
    5.5688   -0.6639    0.0000 H   0  0  0  0  0  0  0  0  0  0  0  0
  1 12  1  0  0  0  0
  1 18  1  0  0  0  0
  2 22  1  0  0  0  0
  2 29  1  0  0  0  0
  3 19  2  0  0  0  0
  4 18  2  0  0  0  0
  5 26  2  0  0  0  0
  6 26  1  0  0  0  0
  7 32  1  0  0  0  0
  7 43  1  0  0  0  0
  8 17  1  0  0  0  0
  8 19  1  0  0  0  0
  8 23  1  0  0  0  0
  9 16  1  0  0  0  0
  9 18  1  0  0  0  0
 10 29  2  0  0  0  0
 10 35  1  0  0  0  0
 11 48  1  0  0  0  0
 11 49  1  0  0  0  0
 11 50  1  0  0  0  0
 12 13  1  0  0  0  0
 12 14  1  0  0  0  0
 12 51  1  6  0  0  0
 13 14  1  0  0  0  0
 13 15  1  0  0  0  0
 13 52  1  1  0  0  0
 14 20  1  0  0  0  0
 15 25  1  0  0  0  0
 16 19  1  0  0  0  0
 16 21  1  0  0  0  0
 16 53  1  6  0  0  0
 17 24  1  0  0  0  0
 17 26  1  0  0  0  0
 17 54  1  1  0  0  0
 21 27  1  0  0  0  0
 21 28  1  0  0  0  0
 21 31  1  0  0  0  0
 22 23  1  0  0  0  0
 22 24  1  0  0  0  0
 22 55  1  6  0  0  0
 25 33  1  0  0  0  0
 27 36  1  0  0  0  0
 28 37  1  0  0  0  0
 29 30  1  0  0  0  0
 30 32  2  0  0  0  0
 30 38  1  0  0  0  0
 32 34  1  0  0  0  0
 33 39  1  0  0  0  0
 34 35  2  0  0  0  0
 34 41  1  0  0  0  0
 35 42  1  0  0  0  0
 36 40  1  0  0  0  0
 37 40  1  0  0  0  0
 38 39  1  0  0  0  0
 41 44  2  0  0  0  0
 42 45  2  0  0  0  0
 43 46  1  0  0  0  0
 43 47  1  0  0  0  0
 44 45  1  0  0  0  0
 46 48  1  0  0  0  0
 47 49  1  0  0  0  0
M  END
> <PUBCHEM_COMPOUND_ID_TYPE>
0

> <PUBCHEM_TOTAL_CHARGE>
0

> <PUBCHEM_SUBSTANCE_ID>
310929790

> <PUBCHEM_SUBSTANCE_VERSION>
1

> <PUBCHEM_EXT_DATASOURCE_NAME>
4488

> <PUBCHEM_EXT_DATASOURCE_REGID>
SCHEMBL16106992

> <PUBCHEM_SUBSTANCE_COMMENT>
InChI=1S/C39H54N4O7/c1-24-27-12-6-4-7-14-29-33(48-25-16-20-42(3)21-17-25)28-13-8-9-15-30(28)40-35(29)49-26-22-31(37(45)46)43(23-26)36(44)34(41-38(47)50-32(24)27)39(2)18-10-5-11-19-39/h8-9,13,15,24-27,31-32,34H,4-7,10-12,14,16-23H2,1-3H3,(H,41,47)(H,45,46)/t24?,26-,27-,31+,32-,34-/m1/s1
InChIKey=FEFRWQOHCDUPDH-IKKKWUQRSA-N

> <PUBCHEM_SUBSTANCE_SYNONYM>
SCHEMBL16106992

> <PUBCHEM_XREF_EXT_ID>
SCHEMBL16106992

> <PUBCHEM_EXT_DATASOURCE_URL>
https://www.surechembl.org/

> <PUBCHEM_EXT_SUBSTANCE_URL>
https://www.surechembl.org/chemical/SCHEMBL16106992

> <PUBCHEM_CID_ASSOCIATIONS>
117599073  1

> <PUBCHEM_COORDINATE_TYPE>
1
3

> <PUBCHEM_BONDANNOTATIONS>
12  51  6
13  52  5
16  53  6
17  54  5
22  55  6

$$$$
