310944981
  -OEChem-07211613022D

 33 37  0     1  0  0  0  0  0999 V2000
    2.0625   -2.5391    0.0000 S   0  0  0  0  0  0  0  0  0  0  0  0
   -4.4642    0.2291    0.0000 O   0  0  0  0  0  0  0  0  0  0  0  0
    3.7309   -2.6125    0.0000 O   0  0  0  0  0  0  0  0  0  0  0  0
   -0.8708   -0.1925    0.0000 O   0  0  0  0  0  0  0  0  0  0  0  0
   -1.6042    1.0725    0.0000 O   0  0  0  0  0  0  0  0  0  0  0  0
    2.2825   -0.3392    0.0000 N   0  0  0  0  0  0  0  0  0  0  0  0
   -3.0341    1.0725    0.0000 N   0  0  0  0  0  0  0  0  0  0  0  0
    3.9325   -1.2375    0.0000 N   0  0  0  0  0  0  0  0  0  0  0  0
   -1.6042   -1.4392    0.0000 N   0  0  0  0  0  0  0  0  0  0  0  0
    1.2925   -1.4392    0.0000 C   0  0  0  0  0  0  0  0  0  0  0  0
    2.0625   -1.1825    0.0000 C   0  0  0  0  0  0  0  0  0  0  0  0
    2.5575   -1.8425    0.0000 C   0  0  0  0  0  0  0  0  0  0  0  0
    1.2742   -2.2459    0.0000 C   0  0  0  0  0  0  0  0  0  0  0  0
    0.5591   -1.0358    0.0000 C   0  0  0  0  0  0  0  0  0  0  0  0
   -0.1558   -1.4392    0.0000 C   0  0  0  0  0  0  0  0  0  0  0  0
    3.3825   -1.8425    0.0000 C   0  0  0  0  0  0  0  0  0  0  0  0
    0.5775   -2.6859    0.0000 C   0  0  0  0  0  0  0  0  0  0  0  0
   -3.0341    0.2475    0.0000 C   0  0  0  0  0  0  0  0  0  0  0  0
   -0.1375   -2.2642    0.0000 C   0  0  0  0  0  0  0  0  0  0  0  0
   -0.8891   -1.0358    0.0000 C   0  0  0  0  0  0  0  0  0  0  0  0
   -3.7309   -0.1742    0.0000 C   0  0  0  0  0  0  0  0  0  0  0  0
   -2.3192   -1.0175    0.0000 C   0  0  0  0  0  0  0  0  0  0  0  0
   -2.3192   -0.1925    0.0000 C   0  0  0  0  0  0  0  0  0  0  0  0
    3.0525   -0.0092    0.0000 C   0  0  0  0  0  0  0  0  0  0  0  0
    3.8042   -0.3941    0.0000 C   0  0  3  0  0  0  0  0  0  0  0  0
   -3.7309   -1.0175    0.0000 C   0  0  0  0  0  0  0  0  0  0  0  0
   -3.0159   -1.4209    0.0000 C   0  0  0  0  0  0  0  0  0  0  0  0
   -2.3375    1.5125    0.0000 C   0  0  0  0  0  0  0  0  0  0  0  0
   -3.7675    1.4758    0.0000 C   0  0  0  0  0  0  0  0  0  0  0  0
   -4.4642    1.0725    0.0000 C   0  0  0  0  0  0  0  0  0  0  0  0
    4.4642    0.0825    0.0000 C   0  0  0  0  0  0  0  0  0  0  0  0
   -2.2825    2.3375    0.0000 C   0  0  0  0  0  0  0  0  0  0  0  0
   -1.5491    2.6859    0.0000 C   0  0  0  0  0  0  0  0  0  0  0  0
  1 12  1  0  0  0  0
  1 13  1  0  0  0  0
  2 21  1  0  0  0  0
  2 30  1  0  0  0  0
  3 16  2  0  0  0  0
  4 20  2  0  0  0  0
  5 28  2  0  0  0  0
  6 11  1  0  0  0  0
  6 24  1  0  0  0  0
  7 18  1  0  0  0  0
  7 28  1  0  0  0  0
  7 29  1  0  0  0  0
  8 16  1  0  0  0  0
  8 25  1  0  0  0  0
  9 20  1  0  0  0  0
  9 22  1  0  0  0  0
 10 11  1  0  0  0  0
 10 13  1  0  0  0  0
 10 14  2  0  0  0  0
 11 12  2  0  0  0  0
 12 16  1  0  0  0  0
 13 17  2  0  0  0  0
 14 15  1  0  0  0  0
 15 19  2  0  0  0  0
 15 20  1  0  0  0  0
 17 19  1  0  0  0  0
 18 21  2  0  0  0  0
 18 23  1  0  0  0  0
 21 26  1  0  0  0  0
 22 23  2  0  0  0  0
 22 27  1  0  0  0  0
 24 25  1  0  0  0  0
 25 31  1  1  0  0  0
 26 27  2  0  0  0  0
 28 32  1  0  0  0  0
 29 30  1  0  0  0  0
 32 33  2  0  0  0  0
M  END
> <PUBCHEM_COMPOUND_ID_TYPE>
0

> <PUBCHEM_TOTAL_CHARGE>
0

> <PUBCHEM_SUBSTANCE_ID>
310944981

> <PUBCHEM_SUBSTANCE_VERSION>
1

> <PUBCHEM_EXT_DATASOURCE_NAME>
4488

> <PUBCHEM_EXT_DATASOURCE_REGID>
SCHEMBL16123069

> <PUBCHEM_SUBSTANCE_COMMENT>
InChI=1S/C24H22N4O4S/c1-3-20(29)28-8-9-32-18-6-5-15(11-17(18)28)27-23(30)14-4-7-19-16(10-14)21-22(33-19)24(31)26-13(2)12-25-21/h3-7,10-11,13,25H,1,8-9,12H2,2H3,(H,26,31)(H,27,30)/t13-/m1/s1
InChIKey=FKDSVFYFFHBJJO-CYBMUJFWSA-N

> <PUBCHEM_SUBSTANCE_SYNONYM>
SCHEMBL16123069

> <PUBCHEM_XREF_EXT_ID>
SCHEMBL16123069

> <PUBCHEM_EXT_DATASOURCE_URL>
https://www.surechembl.org/

> <PUBCHEM_EXT_SUBSTANCE_URL>
https://www.surechembl.org/chemical/SCHEMBL16123069

> <PUBCHEM_CID_ASSOCIATIONS>
117611127  1

> <PUBCHEM_COORDINATE_TYPE>
1
3

> <PUBCHEM_BONDANNOTATIONS>
25  31  5

$$$$
