310938707
  -OEChem-07211613022D

 21 22  0     1  0  0  0  0  0999 V2000
   -0.6124   12.8264    0.0000 O   0  0  0  0  0  0  0  0  0  0  0  0
   -0.1168   11.6320    0.0000 O   0  0  0  0  0  0  0  0  0  0  0  0
   -1.1103   11.5308    0.0000 O   0  0  0  0  0  0  0  0  0  0  0  0
   -2.1318   13.8221    0.0000 O   0  0  0  0  0  0  0  0  0  0  0  0
    1.3183   15.9723    0.0000 O   0  0  0  0  0  0  0  0  0  0  0  0
    2.0266   11.2195    0.0000 O   0  0  0  0  0  0  0  0  0  0  0  0
    0.1913   13.4653    0.0000 N   0  0  0  0  0  0  0  0  0  0  0  0
    0.8588   13.9502    0.0000 N   0  0  0  0  0  0  0  0  0  0  0  0
   -0.2212   14.7348    0.0000 N   0  0  0  0  0  0  0  0  0  0  0  0
    0.1913   12.6403    0.0000 C   0  0  3  0  0  0  0  0  0  0  0  0
   -0.1168   12.3381    0.0000 C   0  0  3  0  0  0  0  0  0  0  0  0
   -1.1103   12.3381    0.0000 C   0  0  3  0  0  0  0  0  0  0  0  0
   -1.4173   12.6403    0.0000 C   0  0  3  0  0  0  0  0  0  0  0  0
    0.6038   14.7348    0.0000 C   0  0  0  0  0  0  0  0  0  0  0  0
   -0.4761   13.9502    0.0000 C   0  0  0  0  0  0  0  0  0  0  0  0
   -1.4173   13.4096    0.0000 C   0  0  0  0  0  0  0  0  0  0  0  0
    1.3183   15.1473    0.0000 C   0  0  0  0  0  0  0  0  0  0  0  0
    0.5976   11.2195    0.0000 C   0  0  0  0  0  0  0  0  0  0  0  0
    2.0328   14.7348    0.0000 C   0  0  0  0  0  0  0  0  0  0  0  0
    1.3121   11.6320    0.0000 C   0  0  0  0  0  0  0  0  0  0  0  0
    2.7410   11.6320    0.0000 C   0  0  0  0  0  0  0  0  0  0  0  0
 10  1  1  6  0  0  0
  1 13  1  0  0  0  0
 11  2  1  1  0  0  0
  2 18  1  0  0  0  0
  3 12  1  0  0  0  0
  4 16  1  0  0  0  0
  5 17  2  0  0  0  0
  6 20  1  0  0  0  0
  6 21  1  0  0  0  0
  7  8  1  0  0  0  0
  7 10  1  0  0  0  0
  7 15  1  0  0  0  0
  8 14  2  0  0  0  0
  9 14  1  0  0  0  0
  9 15  2  0  0  0  0
 10 11  1  0  0  0  0
 11 12  1  0  0  0  0
 12 13  1  0  0  0  0
 13 16  1  1  0  0  0
 14 17  1  0  0  0  0
 17 19  1  0  0  0  0
 18 20  1  0  0  0  0
M  END
> <PUBCHEM_COMPOUND_ID_TYPE>
0

> <PUBCHEM_TOTAL_CHARGE>
0

> <PUBCHEM_SUBSTANCE_ID>
310938707

> <PUBCHEM_SUBSTANCE_VERSION>
1

> <PUBCHEM_EXT_DATASOURCE_NAME>
4488

> <PUBCHEM_EXT_DATASOURCE_REGID>
SCHEMBL16116621

> <PUBCHEM_SUBSTANCE_COMMENT>
InChI=1S/C12H19N3O6/c1-7(17)11-13-6-15(14-11)12-10(20-4-3-19-2)9(18)8(5-16)21-12/h6,8-10,12,16,18H,3-5H2,1-2H3/t8-,9?,10+,12-/m1/s1
InChIKey=WWUSIIMIGOSWBY-WSVRWTTQSA-N

> <PUBCHEM_SUBSTANCE_SYNONYM>
SCHEMBL16116621

> <PUBCHEM_XREF_EXT_ID>
SCHEMBL16116621

> <PUBCHEM_EXT_DATASOURCE_URL>
https://www.surechembl.org/

> <PUBCHEM_EXT_SUBSTANCE_URL>
https://www.surechembl.org/chemical/SCHEMBL16116621

> <PUBCHEM_CID_ASSOCIATIONS>
117606136  1

> <PUBCHEM_COORDINATE_TYPE>
1
3

> <PUBCHEM_BONDANNOTATIONS>
10  1  6
13  16  5
11  2  5

$$$$
