310931005
  -OEChem-07211613022D

 37 41  0     1  0  0  0  0  0999 V2000
    6.4060   -5.8435    0.0000 F   0  0  0  0  0  0  0  0  0  0  0  0
    0.7187   -2.5624    0.0000 F   0  0  0  0  0  0  0  0  0  0  0  0
    0.0312   -3.8124    0.0000 F   0  0  0  0  0  0  0  0  0  0  0  0
    0.0000   -2.9687    0.0000 F   0  0  0  0  0  0  0  0  0  0  0  0
    4.9998   -5.8435    0.0000 O   0  0  0  0  0  0  0  0  0  0  0  0
    1.4375   -4.6248    0.0000 O   0  0  0  0  0  0  0  0  0  0  0  0
    4.2811   -4.5936    0.0000 N   0  0  0  0  0  0  0  0  0  0  0  0
    4.9998   -3.3749    0.0000 N   0  0  0  0  0  0  0  0  0  0  0  0
    3.5936   -2.5624    0.0000 N   0  0  0  0  0  0  0  0  0  0  0  0
    2.1874   -2.5624    0.0000 N   0  0  0  0  0  0  0  0  0  0  0  0
    1.4687   -1.3125    0.0000 N   0  0  0  0  0  0  0  0  0  0  0  0
    2.3437   -0.0937    0.0000 N   0  0  0  0  0  0  0  0  0  0  0  0
    4.2811   -3.7811    0.0000 C   0  0  0  0  0  0  0  0  0  0  0  0
    5.7185   -4.5936    0.0000 C   0  0  0  0  0  0  0  0  0  0  0  0
    4.9998   -4.9998    0.0000 C   0  0  0  0  0  0  0  0  0  0  0  0
    5.7185   -3.7811    0.0000 C   0  0  0  0  0  0  0  0  0  0  0  0
    3.5624   -4.9998    0.0000 C   0  0  0  0  0  0  0  0  0  0  0  0
    3.5624   -3.3749    0.0000 C   0  0  3  0  0  0  0  0  0  0  0  0
    6.4060   -4.9998    0.0000 C   0  0  0  0  0  0  0  0  0  0  0  0
    6.4060   -3.3749    0.0000 C   0  0  0  0  0  0  0  0  0  0  0  0
    2.8749   -2.1562    0.0000 C   0  0  0  0  0  0  0  0  0  0  0  0
    3.0312   -4.7811    0.0000 C   0  0  0  0  0  0  0  0  0  0  0  0
    2.9062   -1.3125    0.0000 C   0  0  0  0  0  0  0  0  0  0  0  0
    3.5624   -5.8435    0.0000 C   0  0  0  0  0  0  0  0  0  0  0  0
    7.1247   -4.5936    0.0000 C   0  0  0  0  0  0  0  0  0  0  0  0
    2.1562   -0.9062    0.0000 C   0  0  0  0  0  0  0  0  0  0  0  0
    2.8749   -3.7811    0.0000 C   0  0  0  0  0  0  0  0  0  0  0  0
    2.1562   -5.0310    0.0000 C   0  0  0  0  0  0  0  0  0  0  0  0
    7.1247   -3.7811    0.0000 C   0  0  0  0  0  0  0  0  0  0  0  0
    2.8749   -6.2498    0.0000 C   0  0  0  0  0  0  0  0  0  0  0  0
    3.4999   -0.7500    0.0000 C   0  0  0  0  0  0  0  0  0  0  0  0
    2.1562   -5.8435    0.0000 C   0  0  0  0  0  0  0  0  0  0  0  0
    1.4375   -2.1249    0.0000 C   0  0  0  0  0  0  0  0  0  0  0  0
    3.1562    0.0000    0.0000 C   0  0  0  0  0  0  0  0  0  0  0  0
    2.8749   -4.5936    0.0000 C   0  0  0  0  0  0  0  0  0  0  0  0
    1.4375   -3.8124    0.0000 C   0  0  0  0  0  0  0  0  0  0  0  0
    0.7187   -3.3749    0.0000 C   0  0  0  0  0  0  0  0  0  0  0  0
  1 19  1  0  0  0  0
  2 37  1  0  0  0  0
  3 37  1  0  0  0  0
  4 37  1  0  0  0  0
  5 15  2  0  0  0  0
  6 28  1  0  0  0  0
  6 36  1  0  0  0  0
  7 13  1  0  0  0  0
  7 15  1  0  0  0  0
  7 17  1  0  0  0  0
  8 13  2  0  0  0  0
  8 16  1  0  0  0  0
 18  9  1  6  0  0  0
  9 21  1  0  0  0  0
 10 21  1  0  0  0  0
 10 33  2  0  0  0  0
 11 26  2  0  0  0  0
 11 33  1  0  0  0  0
 12 26  1  0  0  0  0
 12 34  1  0  0  0  0
 13 18  1  0  0  0  0
 14 15  1  0  0  0  0
 14 16  2  0  0  0  0
 14 19  1  0  0  0  0
 16 20  1  0  0  0  0
 17 22  1  0  0  0  0
 17 24  2  0  0  0  0
 18 27  1  0  0  0  0
 19 25  2  0  0  0  0
 20 29  2  0  0  0  0
 21 23  2  0  0  0  0
 22 28  2  0  0  0  0
 23 26  1  0  0  0  0
 23 31  1  0  0  0  0
 24 30  1  0  0  0  0
 25 29  1  0  0  0  0
 27 35  1  0  0  0  0
 28 32  1  0  0  0  0
 30 32  2  0  0  0  0
 31 34  2  0  0  0  0
 36 37  1  0  0  0  0
M  END
> <PUBCHEM_COMPOUND_ID_TYPE>
0

> <PUBCHEM_TOTAL_CHARGE>
0

> <PUBCHEM_SUBSTANCE_ID>
310931005

> <PUBCHEM_SUBSTANCE_VERSION>
1

> <PUBCHEM_EXT_DATASOURCE_NAME>
4488

> <PUBCHEM_EXT_DATASOURCE_REGID>
SCHEMBL16108305

> <PUBCHEM_SUBSTANCE_COMMENT>
InChI=1S/C25H20F4N6O2/c1-2-18(33-22-16-9-10-30-21(16)31-13-32-22)23-34-19-8-4-7-17(26)20(19)24(36)35(23)14-5-3-6-15(11-14)37-12-25(27,28)29/h3-11,13,18H,2,12H2,1H3,(H2,30,31,32,33)/t18-/m0/s1
InChIKey=UFCDXFNLTBHTGX-SFHVURJKSA-N

> <PUBCHEM_SUBSTANCE_SYNONYM>
SCHEMBL16108305

> <PUBCHEM_XREF_EXT_ID>
SCHEMBL16108305

> <PUBCHEM_EXT_DATASOURCE_URL>
https://www.surechembl.org/

> <PUBCHEM_EXT_SUBSTANCE_URL>
https://www.surechembl.org/chemical/SCHEMBL16108305

> <PUBCHEM_CID_ASSOCIATIONS>
86272388  1

> <PUBCHEM_COORDINATE_TYPE>
1
3

> <PUBCHEM_BONDANNOTATIONS>
18  9  6

$$$$
