310947443
  -OEChem-07211613022D

 28 29  0     0  0  0  0  0  0999 V2000
   -1.1420   -0.0054    0.0000 O   0  0  0  0  0  0  0  0  0  0  0  0
    1.7160    1.6447    0.0000 O   0  0  0  0  0  0  0  0  0  0  0  0
    3.8496    3.6901    0.0000 O   0  0  0  0  0  0  0  0  0  0  0  0
    4.5542    2.4697    0.0000 O   0  0  0  0  0  0  0  0  0  0  0  0
   -1.8566   -1.2429    0.0000 N   0  0  0  0  0  0  0  0  0  0  0  0
    2.4306    0.4070    0.0000 N   0  0  0  0  0  0  0  0  0  0  0  0
   -1.1420   -0.8304    0.0000 C   0  0  0  0  0  0  0  0  0  0  0  0
   -1.8566   -2.0680    0.0000 C   0  0  0  0  0  0  0  0  0  0  0  0
    0.2871   -0.8304    0.0000 C   0  0  0  0  0  0  0  0  0  0  0  0
   -0.4276   -1.2429    0.0000 C   0  0  0  0  0  0  0  0  0  0  0  0
    1.7160   -0.0054    0.0000 C   0  0  0  0  0  0  0  0  0  0  0  0
    0.2871   -0.0054    0.0000 C   0  0  0  0  0  0  0  0  0  0  0  0
    1.0016   -1.2429    0.0000 C   0  0  0  0  0  0  0  0  0  0  0  0
   -2.5710   -0.8304    0.0000 C   0  0  0  0  0  0  0  0  0  0  0  0
    1.0016    0.4070    0.0000 C   0  0  0  0  0  0  0  0  0  0  0  0
    1.7160   -0.8304    0.0000 C   0  0  0  0  0  0  0  0  0  0  0  0
   -2.5710   -2.4806    0.0000 C   0  0  0  0  0  0  0  0  0  0  0  0
   -1.1420   -2.4806    0.0000 C   0  0  0  0  0  0  0  0  0  0  0  0
    2.4306    1.2320    0.0000 C   0  0  0  0  0  0  0  0  0  0  0  0
   -2.5710   -3.3056    0.0000 C   0  0  0  0  0  0  0  0  0  0  0  0
   -1.1420   -3.3056    0.0000 C   0  0  0  0  0  0  0  0  0  0  0  0
   -1.8566   -3.7180    0.0000 C   0  0  0  0  0  0  0  0  0  0  0  0
   -2.5710   -0.0054    0.0000 C   0  0  0  0  0  0  0  0  0  0  0  0
    3.1450    1.6447    0.0000 C   0  0  0  0  0  0  0  0  0  0  0  0
    3.1450    2.4697    0.0000 C   0  0  0  0  0  0  0  0  0  0  0  0
    3.8496    2.8764    0.0000 C   0  0  0  0  0  0  0  0  0  0  0  0
   -3.2854    0.4070    0.0000 C   0  0  0  0  0  0  0  0  0  0  0  0
    3.0028    4.1790    0.0000 C   0  0  0  0  0  0  0  0  0  0  0  0
  1  7  2  0  0  0  0
  2 19  2  0  0  0  0
  3 26  1  0  0  0  0
  3 28  1  0  0  0  0
  4 26  2  0  0  0  0
  5  7  1  0  0  0  0
  5  8  1  0  0  0  0
  5 14  1  0  0  0  0
  6 11  1  0  0  0  0
  6 19  1  0  0  0  0
  7 10  1  0  0  0  0
  8 17  2  0  0  0  0
  8 18  1  0  0  0  0
  9 10  1  0  0  0  0
  9 12  2  0  0  0  0
  9 13  1  0  0  0  0
 11 15  2  0  0  0  0
 11 16  1  0  0  0  0
 12 15  1  0  0  0  0
 13 16  2  0  0  0  0
 14 23  1  0  0  0  0
 17 20  1  0  0  0  0
 18 21  2  0  0  0  0
 19 24  1  0  0  0  0
 20 22  2  0  0  0  0
 21 22  1  0  0  0  0
 23 27  1  0  0  0  0
 24 25  2  0  0  0  0
 25 26  1  0  0  0  0
M  END
> <PUBCHEM_COMPOUND_ID_TYPE>
0

> <PUBCHEM_TOTAL_CHARGE>
0

> <PUBCHEM_SUBSTANCE_ID>
310947443

> <PUBCHEM_SUBSTANCE_VERSION>
1

> <PUBCHEM_EXT_DATASOURCE_NAME>
4488

> <PUBCHEM_EXT_DATASOURCE_REGID>
SCHEMBL16125604

> <PUBCHEM_SUBSTANCE_COMMENT>
InChI=1S/C22H24N2O4/c1-3-15-24(19-7-5-4-6-8-19)21(26)16-17-9-11-18(12-10-17)23-20(25)13-14-22(27)28-2/h4-14H,3,15-16H2,1-2H3,(H,23,25)/b14-13+
InChIKey=KAHSUCPYYYENNR-BUHFOSPRSA-N

> <PUBCHEM_SUBSTANCE_SYNONYM>
SCHEMBL16125604

> <PUBCHEM_XREF_EXT_ID>
SCHEMBL16125604

> <PUBCHEM_EXT_DATASOURCE_URL>
https://www.surechembl.org/

> <PUBCHEM_EXT_SUBSTANCE_URL>
https://www.surechembl.org/chemical/SCHEMBL16125604

> <PUBCHEM_CID_ASSOCIATIONS>
117613175  1

> <PUBCHEM_COORDINATE_TYPE>
1
3

$$$$
