310941945
  -OEChem-07211613022D

 23 25  0     1  0  0  0  0  0999 V2000
   -2.1846    1.9627    0.0000 O   0  0  0  0  0  0  0  0  0  0  0  0
    3.3497   -1.9627    0.0000 O   0  5  0  0  0  0  0  0  0  0  0  0
    4.0571   -0.7421    0.0000 O   0  0  0  0  0  0  0  0  0  0  0  0
   -0.5617    1.3662    0.0000 N   0  0  0  0  0  0  0  0  0  0  0  0
    3.3497   -1.1304    0.0000 N   0  3  0  0  0  0  0  0  0  0  0  0
   -1.2275    0.8946    0.0000 C   0  0  3  0  0  0  0  0  0  0  0  0
    0.1179    0.8808    0.0000 C   0  0  0  0  0  0  0  0  0  0  0  0
   -2.0320    1.1582    0.0000 C   0  0  3  0  0  0  0  0  0  0  0  0
   -2.6562    0.5895    0.0000 C   0  0  0  0  0  0  0  0  0  0  0  0
    1.5188    0.5617    0.0000 C   0  0  0  0  0  0  0  0  0  0  0  0
   -1.0056    0.0763    0.0000 C   0  0  0  0  0  0  0  0  0  0  0  0
    0.9085    1.1165    0.0000 C   0  0  0  0  0  0  0  0  0  0  0  0
   -0.1595    0.0902    0.0000 C   0  0  0  0  0  0  0  0  0  0  0  0
    2.7256   -0.5617    0.0000 C   0  0  0  0  0  0  0  0  0  0  0  0
    1.3385   -0.2566    0.0000 C   0  0  0  0  0  0  0  0  0  0  0  0
    2.3094    0.7975    0.0000 C   0  0  0  0  0  0  0  0  0  0  0  0
    1.9488   -0.8114    0.0000 C   0  0  0  0  0  0  0  0  0  0  0  0
    2.9197    0.2427    0.0000 C   0  0  0  0  0  0  0  0  0  0  0  0
   -3.4468    0.8531    0.0000 C   0  0  0  0  0  0  0  0  0  0  0  0
   -2.5036   -0.2150    0.0000 C   0  0  0  0  0  0  0  0  0  0  0  0
   -4.0571    0.3121    0.0000 C   0  0  0  0  0  0  0  0  0  0  0  0
   -3.1139   -0.7560    0.0000 C   0  0  0  0  0  0  0  0  0  0  0  0
   -3.8906   -0.4924    0.0000 C   0  0  0  0  0  0  0  0  0  0  0  0
  8  1  1  1  0  0  0
  2  5  1  0  0  0  0
  3  5  2  0  0  0  0
  4  6  1  0  0  0  0
  4  7  2  0  0  0  0
  5 14  1  0  0  0  0
  6  8  1  6  0  0  0
  6 11  1  0  0  0  0
  7 12  1  0  0  0  0
  7 13  1  0  0  0  0
  8  9  1  0  0  0  0
  9 19  2  0  0  0  0
  9 20  1  0  0  0  0
 10 12  1  0  0  0  0
 10 15  2  0  0  0  0
 10 16  1  0  0  0  0
 11 13  1  0  0  0  0
 14 17  2  0  0  0  0
 14 18  1  0  0  0  0
 15 17  1  0  0  0  0
 16 18  2  0  0  0  0
 19 21  1  0  0  0  0
 20 22  2  0  0  0  0
 21 23  2  0  0  0  0
 22 23  1  0  0  0  0
M  CHG  2   2  -1   5   1
M  END
> <PUBCHEM_COMPOUND_ID_TYPE>
0

> <PUBCHEM_TOTAL_CHARGE>
0

> <PUBCHEM_SUBSTANCE_ID>
310941945

> <PUBCHEM_SUBSTANCE_VERSION>
1

> <PUBCHEM_EXT_DATASOURCE_NAME>
4488

> <PUBCHEM_EXT_DATASOURCE_REGID>
SCHEMBL16119978

> <PUBCHEM_SUBSTANCE_COMMENT>
InChI=1S/C18H18N2O3/c21-18(14-4-2-1-3-5-14)17-11-8-15(19-17)12-13-6-9-16(10-7-13)20(22)23/h1-7,9-10,17-18,21H,8,11-12H2/t17-,18-/m1/s1
InChIKey=MSZCNMLZUMALEC-QZTJIDSGSA-N

> <PUBCHEM_SUBSTANCE_SYNONYM>
SCHEMBL16119978

> <PUBCHEM_XREF_EXT_ID>
SCHEMBL16119978

> <PUBCHEM_EXT_DATASOURCE_URL>
https://www.surechembl.org/

> <PUBCHEM_EXT_SUBSTANCE_URL>
https://www.surechembl.org/chemical/SCHEMBL16119978

> <PUBCHEM_CID_ASSOCIATIONS>
117608668  1

> <PUBCHEM_COORDINATE_TYPE>
1
3

> <PUBCHEM_BONDANNOTATIONS>
8  1  5
6  8  6

$$$$
