310949852
  -OEChem-07211613022D

 44 47  0     1  0  0  0  0  0999 V2000
   -1.2124    0.6457    0.0000 P   0  0  3  0  0  0  0  0  0  0  0  0
    2.7205   -0.3458    0.0000 F   0  0  0  0  0  0  0  0  0  0  0  0
    1.9872   -0.8707    0.0000 F   0  0  0  0  0  0  0  0  0  0  0  0
    1.5373    1.2290    0.0000 O   0  0  0  0  0  0  0  0  0  0  0  0
    0.6958   -0.7374    0.0000 O   0  0  0  0  0  0  0  0  0  0  0  0
   -0.4541    0.4041    0.0000 O   0  0  0  0  0  0  0  0  0  0  0  0
    2.5288    2.3788    0.0000 O   0  0  0  0  0  0  0  0  0  0  0  0
   -1.0040    1.4456    0.0000 O   0  0  0  0  0  0  0  0  0  0  0  0
    1.8289   -1.5623    0.0000 O   0  0  0  0  0  0  0  0  0  0  0  0
   -1.4290   -0.1625    0.0000 O   0  0  0  0  0  0  0  0  0  0  0  0
   -3.9203   -0.1458    0.0000 O   0  0  0  0  0  0  0  0  0  0  0  0
   -3.5870    1.2623    0.0000 O   0  0  0  0  0  0  0  0  0  0  0  0
    2.9788    1.0207    0.0000 N   0  0  0  0  0  0  0  0  0  0  0  0
    3.9203    2.1122    0.0000 N   0  0  0  0  0  0  0  0  0  0  0  0
    0.8291   -2.9537    0.0000 N   0  0  3  0  0  0  0  0  0  0  0  0
   -1.9955    0.8541    0.0000 N   0  0  0  0  0  0  0  0  0  0  0  0
    5.2868    1.8372    0.0000 N   0  0  0  0  0  0  0  0  0  0  0  0
    1.9622   -0.0375    0.0000 C   0  0  0  0  0  0  0  0  0  0  0  0
    2.2205    0.7707    0.0000 C   0  0  3  0  0  0  0  0  0  0  0  0
    1.1623   -0.0458    0.0000 C   0  0  3  0  0  0  0  0  0  0  0  0
    0.9124    0.7457    0.0000 C   0  0  3  0  0  0  0  0  0  0  0  0
    3.1621    1.8539    0.0000 C   0  0  0  0  0  0  0  0  0  0  0  0
    0.1542    0.9790    0.0000 C   0  0  0  0  0  0  0  0  0  0  0  0
    3.6120    0.4874    0.0000 C   0  0  0  0  0  0  0  0  0  0  0  0
    1.0040   -1.4623    0.0000 C   0  0  0  0  0  0  0  0  0  0  0  0
    0.5624   -2.1622    0.0000 C   0  0  3  0  0  0  0  0  0  0  0  0
    4.3369    0.7624    0.0000 C   0  0  0  0  0  0  0  0  0  0  0  0
    4.5119    1.5873    0.0000 C   0  0  0  0  0  0  0  0  0  0  0  0
   -0.2125   -2.1706    0.0000 C   0  0  0  0  0  0  0  0  0  0  0  0
   -1.5623    2.0539    0.0000 C   0  0  0  0  0  0  0  0  0  0  0  0
   -2.5788    0.2541    0.0000 C   0  0  3  0  0  0  0  0  0  0  0  0
    0.1792   -3.4370    0.0000 C   0  0  0  0  0  0  0  0  0  0  0  0
   -0.4541   -2.9621    0.0000 C   0  0  0  0  0  0  0  0  0  0  0  0
   -3.3453    0.4458    0.0000 C   0  0  0  0  0  0  0  0  0  0  0  0
    1.5873   -3.2037    0.0000 C   0  0  0  0  0  0  0  0  0  0  0  0
   -1.3457    2.8538    0.0000 C   0  0  0  0  0  0  0  0  0  0  0  0
   -2.3289    1.8456    0.0000 C   0  0  0  0  0  0  0  0  0  0  0  0
   -2.3455   -0.5624    0.0000 C   0  0  0  0  0  0  0  0  0  0  0  0
   -1.8705    3.4370    0.0000 C   0  0  0  0  0  0  0  0  0  0  0  0
   -2.8788    2.4289    0.0000 C   0  0  0  0  0  0  0  0  0  0  0  0
   -2.6704    3.2288    0.0000 C   0  0  0  0  0  0  0  0  0  0  0  0
   -4.7202    0.0625    0.0000 C   0  0  0  0  0  0  0  0  0  0  0  0
   -4.9368    0.8541    0.0000 C   0  0  0  0  0  0  0  0  0  0  0  0
   -5.2868   -0.5458    0.0000 C   0  0  0  0  0  0  0  0  0  0  0  0
  1  6  1  0  0  0  0
  1  8  1  0  0  0  0
  1 10  2  0  0  0  0
  1 16  1  0  0  0  0
  2 18  1  0  0  0  0
  3 18  1  0  0  0  0
 19  4  1  1  0  0  0
  4 21  1  0  0  0  0
 20  5  1  6  0  0  0
  5 25  1  0  0  0  0
  6 23  1  0  0  0  0
  7 22  2  0  0  0  0
  8 30  1  0  0  0  0
  9 25  2  0  0  0  0
 11 34  1  0  0  0  0
 11 42  1  0  0  0  0
 12 34  2  0  0  0  0
 13 19  1  0  0  0  0
 13 22  1  0  0  0  0
 13 24  1  0  0  0  0
 14 22  1  0  0  0  0
 14 28  2  0  0  0  0
 15 26  1  0  0  0  0
 15 32  1  0  0  0  0
 15 35  1  0  0  0  0
 16 31  1  0  0  0  0
 17 28  1  0  0  0  0
 18 19  1  0  0  0  0
 18 20  1  0  0  0  0
 20 21  1  0  0  0  0
 21 23  1  1  0  0  0
 24 27  2  0  0  0  0
 26 25  1  1  0  0  0
 26 29  1  0  0  0  0
 27 28  1  0  0  0  0
 29 33  1  0  0  0  0
 30 36  2  0  0  0  0
 30 37  1  0  0  0  0
 31 34  1  0  0  0  0
 31 38  1  1  0  0  0
 32 33  1  0  0  0  0
 36 39  1  0  0  0  0
 37 40  2  0  0  0  0
 39 41  2  0  0  0  0
 40 41  1  0  0  0  0
 42 43  1  0  0  0  0
 42 44  1  0  0  0  0
M  END
> <PUBCHEM_COMPOUND_ID_TYPE>
0

> <PUBCHEM_TOTAL_CHARGE>
0

> <PUBCHEM_SUBSTANCE_ID>
310949852

> <PUBCHEM_SUBSTANCE_VERSION>
1

> <PUBCHEM_EXT_DATASOURCE_NAME>
4488

> <PUBCHEM_EXT_DATASOURCE_REGID>
SCHEMBL16128056

> <PUBCHEM_SUBSTANCE_COMMENT>
InChI=1S/C27H36F2N5O9P/c1-16(2)40-23(35)17(3)32-44(38,43-18-9-6-5-7-10-18)39-15-20-22(42-24(36)19-11-8-13-33(19)4)27(28,29)25(41-20)34-14-12-21(30)31-26(34)37/h5-7,9-10,12,14,16-17,19-20,22,25H,8,11,13,15H2,1-4H3,(H,32,38)(H2,30,31,37)/t17-,19-,20+,22+,25+,44?/m0/s1
InChIKey=QOBDFADSZSZFMG-MHOALHDBSA-N

> <PUBCHEM_SUBSTANCE_SYNONYM>
SCHEMBL16128056

> <PUBCHEM_XREF_EXT_ID>
SCHEMBL16128056

> <PUBCHEM_EXT_DATASOURCE_URL>
https://www.surechembl.org/

> <PUBCHEM_EXT_SUBSTANCE_URL>
https://www.surechembl.org/chemical/SCHEMBL16128056

> <PUBCHEM_CID_ASSOCIATIONS>
86269327  1

> <PUBCHEM_COORDINATE_TYPE>
1
3

> <PUBCHEM_BONDANNOTATIONS>
21  23  5
26  25  5
31  38  5
19  4  5
20  5  6

$$$$
