310931935
  -OEChem-07211613022D

 31 33  0     0  0  0  0  0  0999 V2000
   11.2737   -4.4344    0.0000 F   0  0  0  0  0  0  0  0  0  0  0  0
   10.5597   -3.1942    0.0000 F   0  0  0  0  0  0  0  0  0  0  0  0
    9.8457   -3.6076    0.0000 F   0  0  0  0  0  0  0  0  0  0  0  0
    3.9834   -2.7057    0.0000 O   0  0  0  0  0  0  0  0  0  0  0  0
    8.4178   -2.7809    0.0000 O   0  0  0  0  0  0  0  0  0  0  0  0
    9.8457   -4.4344    0.0000 O   0  0  0  0  0  0  0  0  0  0  0  0
    4.8853   -1.5783    0.0000 N   0  0  0  0  0  0  0  0  0  0  0  0
    4.7725   -0.7516    0.0000 N   0  0  0  0  0  0  0  0  0  0  0  0
    6.2757   -1.5783    0.0000 N   0  0  0  0  0  0  0  0  0  0  0  0
    7.7037   -4.0210    0.0000 N   0  0  0  0  0  0  0  0  0  0  0  0
    0.0000   -2.4050    0.0000 N   0  0  0  0  0  0  0  0  0  0  0  0
    3.5700   -1.3153    0.0000 C   0  0  0  0  0  0  0  0  0  0  0  0
    4.1337   -1.9165    0.0000 C   0  0  0  0  0  0  0  0  0  0  0  0
    2.7433   -1.3904    0.0000 C   0  0  0  0  0  0  0  0  0  0  0  0
    5.5617   -1.9917    0.0000 C   0  0  0  0  0  0  0  0  0  0  0  0
    3.9834   -0.6013    0.0000 C   0  0  0  0  0  0  0  0  0  0  0  0
    2.2547   -0.7516    0.0000 C   0  0  0  0  0  0  0  0  0  0  0  0
    2.4426   -2.1420    0.0000 C   0  0  0  0  0  0  0  0  0  0  0  0
    5.5617   -2.7809    0.0000 C   0  0  0  0  0  0  0  0  0  0  0  0
    6.9897   -2.7809    0.0000 C   0  0  0  0  0  0  0  0  0  0  0  0
    1.4656   -0.8267    0.0000 C   0  0  0  0  0  0  0  0  0  0  0  0
    6.9897   -1.9917    0.0000 C   0  0  0  0  0  0  0  0  0  0  0  0
    6.2757   -3.1942    0.0000 C   0  0  0  0  0  0  0  0  0  0  0  0
    1.1274   -1.5783    0.0000 C   0  0  0  0  0  0  0  0  0  0  0  0
    1.6159   -2.2547    0.0000 C   0  0  0  0  0  0  0  0  0  0  0  0
    7.7037   -3.1942    0.0000 C   0  0  0  0  0  0  0  0  0  0  0  0
    2.5930    0.0000    0.0000 C   0  0  0  0  0  0  0  0  0  0  0  0
    0.3007   -1.6911    0.0000 C   0  0  0  0  0  0  0  0  0  0  0  0
    8.4178   -4.4344    0.0000 C   0  0  0  0  0  0  0  0  0  0  0  0
   10.5597   -4.0210    0.0000 C   0  0  0  0  0  0  0  0  0  0  0  0
    9.1317   -4.0210    0.0000 C   0  0  0  0  0  0  0  0  0  0  0  0
  1 30  1  0  0  0  0
  2 30  1  0  0  0  0
  3 30  1  0  0  0  0
  4 13  1  0  0  0  0
  5 26  2  0  0  0  0
  6 30  1  0  0  0  0
  6 31  1  0  0  0  0
  7  8  1  0  0  0  0
  7 13  1  0  0  0  0
  7 15  1  0  0  0  0
  8 16  2  0  0  0  0
  9 15  2  0  0  0  0
  9 22  1  0  0  0  0
 10 26  1  0  0  0  0
 10 29  1  0  0  0  0
 11 28  3  0  0  0  0
 12 13  2  0  0  0  0
 12 14  1  0  0  0  0
 12 16  1  0  0  0  0
 14 17  1  0  0  0  0
 14 18  2  0  0  0  0
 15 19  1  0  0  0  0
 17 21  2  0  0  0  0
 17 27  1  0  0  0  0
 18 25  1  0  0  0  0
 19 23  2  0  0  0  0
 20 22  2  0  0  0  0
 20 23  1  0  0  0  0
 20 26  1  0  0  0  0
 21 24  1  0  0  0  0
 24 25  2  0  0  0  0
 24 28  1  0  0  0  0
 29 31  1  0  0  0  0
M  END
> <PUBCHEM_COMPOUND_ID_TYPE>
0

> <PUBCHEM_TOTAL_CHARGE>
0

> <PUBCHEM_SUBSTANCE_ID>
310931935

> <PUBCHEM_SUBSTANCE_VERSION>
1

> <PUBCHEM_EXT_DATASOURCE_NAME>
4488

> <PUBCHEM_EXT_DATASOURCE_REGID>
SCHEMBL16109271

> <PUBCHEM_SUBSTANCE_COMMENT>
InChI=1S/C20H16F3N5O3/c1-12-8-13(9-24)2-4-15(12)16-11-27-28(19(16)30)17-5-3-14(10-26-17)18(29)25-6-7-31-20(21,22)23/h2-5,8,10-11,30H,6-7H2,1H3,(H,25,29)
InChIKey=AYPCQSUZDQIKOQ-UHFFFAOYSA-N

> <PUBCHEM_SUBSTANCE_SYNONYM>
SCHEMBL16109271

> <PUBCHEM_XREF_EXT_ID>
SCHEMBL16109271

> <PUBCHEM_EXT_DATASOURCE_URL>
https://www.surechembl.org/

> <PUBCHEM_EXT_SUBSTANCE_URL>
https://www.surechembl.org/chemical/SCHEMBL16109271

> <PUBCHEM_CID_ASSOCIATIONS>
117600586  1

> <PUBCHEM_COORDINATE_TYPE>
1
3

$$$$
