310949908
  -OEChem-07211613022D

 27 31  0     1  0  0  0  0  0999 V2000
    2.8286   -2.2932    0.0000 O   0  0  0  0  0  0  0  0  0  0  0  0
   -0.6179    1.4006    0.0000 N   0  0  0  0  0  0  0  0  0  0  0  0
   -0.6179    2.7325    0.0000 N   0  0  0  0  0  0  0  0  0  0  0  0
    0.1511   -0.9749    0.0000 N   0  0  0  0  0  0  0  0  0  0  0  0
    1.9635    1.6478    0.0000 N   0  0  0  0  0  0  0  0  0  0  0  0
   -0.1373    2.0735    0.0000 C   0  0  0  0  0  0  0  0  0  0  0  0
   -1.4143    1.6615    0.0000 C   0  0  0  0  0  0  0  0  0  0  0  0
   -1.4006    2.4854    0.0000 C   0  0  0  0  0  0  0  0  0  0  0  0
   -0.3708    0.6179    0.0000 C   0  0  0  0  0  0  0  0  0  0  0  0
    0.7003    2.0597    0.0000 C   0  0  3  0  0  0  0  0  0  0  0  0
   -2.1146    1.2495    0.0000 C   0  0  0  0  0  0  0  0  0  0  0  0
   -2.1284    2.8836    0.0000 C   0  0  0  0  0  0  0  0  0  0  0  0
   -0.9062   -0.0275    0.0000 C   0  0  0  0  0  0  0  0  0  0  0  0
    0.4394    0.4256    0.0000 C   0  0  0  0  0  0  0  0  0  0  0  0
    1.1672    1.4006    0.0000 C   0  0  0  0  0  0  0  0  0  0  0  0
    1.1672    2.7188    0.0000 C   0  0  0  0  0  0  0  0  0  0  0  0
   -2.8286    1.6615    0.0000 C   0  0  0  0  0  0  0  0  0  0  0  0
   -2.8286    2.4854    0.0000 C   0  0  0  0  0  0  0  0  0  0  0  0
   -0.6591   -0.7964    0.0000 C   0  0  0  0  0  0  0  0  0  0  0  0
    0.7003   -0.3433    0.0000 C   0  0  0  0  0  0  0  0  0  0  0  0
    1.9635    2.4854    0.0000 C   0  0  0  0  0  0  0  0  0  0  0  0
    0.3982   -1.7576    0.0000 C   0  0  0  0  0  0  0  0  0  0  0  0
    1.2084   -1.9361    0.0000 C   0  0  0  0  0  0  0  0  0  0  0  0
    1.4693   -2.7188    0.0000 C   0  0  0  0  0  0  0  0  0  0  0  0
    1.7576   -1.3182    0.0000 C   0  0  0  0  0  0  0  0  0  0  0  0
    2.5677   -1.4967    0.0000 C   0  0  0  0  0  0  0  0  0  0  0  0
    2.2794   -2.8836    0.0000 C   0  0  0  0  0  0  0  0  0  0  0  0
  1 26  1  0  0  0  0
  1 27  1  0  0  0  0
  2  6  1  0  0  0  0
  2  7  1  0  0  0  0
  2  9  1  0  0  0  0
  3  6  2  0  0  0  0
  3  8  1  0  0  0  0
  4 19  1  0  0  0  0
  4 20  1  0  0  0  0
  4 22  1  0  0  0  0
  5 15  1  0  0  0  0
  5 21  1  0  0  0  0
 10  6  1  6  0  0  0
  7  8  1  0  0  0  0
  7 11  2  0  0  0  0
  8 12  2  0  0  0  0
  9 13  1  0  0  0  0
  9 14  1  0  0  0  0
 10 15  1  0  0  0  0
 10 16  1  0  0  0  0
 11 17  1  0  0  0  0
 12 18  1  0  0  0  0
 13 19  1  0  0  0  0
 14 20  1  0  0  0  0
 16 21  1  0  0  0  0
 17 18  2  0  0  0  0
 22 23  1  0  0  0  0
 23 24  1  0  0  0  0
 23 25  1  0  0  0  0
 24 27  1  0  0  0  0
 25 26  1  0  0  0  0
M  END
> <PUBCHEM_COMPOUND_ID_TYPE>
0

> <PUBCHEM_TOTAL_CHARGE>
0

> <PUBCHEM_SUBSTANCE_ID>
310949908

> <PUBCHEM_SUBSTANCE_VERSION>
1

> <PUBCHEM_EXT_DATASOURCE_NAME>
4488

> <PUBCHEM_EXT_DATASOURCE_REGID>
SCHEMBL16128129

> <PUBCHEM_SUBSTANCE_COMMENT>
InChI=1S/C22H32N4O/c1-2-4-21-20(3-1)24-22(18-5-10-23-15-18)26(21)19-6-11-25(12-7-19)16-17-8-13-27-14-9-17/h1-4,17-19,23H,5-16H2/t18-/m1/s1
InChIKey=BXRXOGGIETULLN-GOSISDBHSA-N

> <PUBCHEM_SUBSTANCE_SYNONYM>
SCHEMBL16128129

> <PUBCHEM_XREF_EXT_ID>
SCHEMBL16128129

> <PUBCHEM_EXT_DATASOURCE_URL>
https://www.surechembl.org/

> <PUBCHEM_EXT_SUBSTANCE_URL>
https://www.surechembl.org/chemical/SCHEMBL16128129

> <PUBCHEM_CID_ASSOCIATIONS>
86272859  1

> <PUBCHEM_COORDINATE_TYPE>
1
3

> <PUBCHEM_BONDANNOTATIONS>
10  6  6

$$$$
