310948314
  -OEChem-07211613022D

 48 53  0     0  0  0  0  0  0999 V2000
   -1.9804   -3.2535    0.0000 S   0  0  0  0  0  0  0  0  0  0  0  0
   -0.3890    4.2968    0.0000 F   0  0  0  0  0  0  0  0  0  0  0  0
    0.7250    4.4913    0.0000 F   0  0  0  0  0  0  0  0  0  0  0  0
    0.8841    3.3597    0.0000 F   0  0  0  0  0  0  0  0  0  0  0  0
    0.6365   -3.2358    0.0000 F   0  0  0  0  0  0  0  0  0  0  0  0
    2.8999   -3.5188    0.0000 F   0  0  0  0  0  0  0  0  0  0  0  0
    2.6170   -2.3871    0.0000 F   0  0  0  0  0  0  0  0  0  0  0  0
    1.7683   -3.7487    0.0000 F   0  0  0  0  0  0  0  0  0  0  0  0
    0.9549    1.8743    0.0000 O   0  0  0  0  0  0  0  0  0  0  0  0
   -2.5463   -2.7230    0.0000 O   0  0  0  0  0  0  0  0  0  0  0  0
   -1.3792   -3.8017    0.0000 O   0  0  0  0  0  0  0  0  0  0  0  0
    1.4853   -2.6523    0.0000 O   0  0  0  0  0  0  0  0  0  0  0  0
   -0.0707   -4.4913    0.0000 O   0  0  0  0  0  0  0  0  0  0  0  0
   -0.6543    1.9097    0.0000 N   0  0  0  0  0  0  0  0  0  0  0  0
    0.0177    2.3871    0.0000 N   0  0  0  0  0  0  0  0  0  0  0  0
    2.1219    1.2201    0.0000 N   0  0  0  0  0  0  0  0  0  0  0  0
   -0.6543    1.0786    0.0000 C   0  0  0  0  0  0  0  0  0  0  0  0
    0.0707    0.6719    0.0000 C   0  0  0  0  0  0  0  0  0  0  0  0
   -1.3615    2.3871    0.0000 C   0  0  0  0  0  0  0  0  0  0  0  0
    0.7780    1.0786    0.0000 C   0  0  0  0  0  0  0  0  0  0  0  0
   -2.1395    2.1395    0.0000 C   0  0  0  0  0  0  0  0  0  0  0  0
   -0.2475    3.1651    0.0000 C   0  0  0  0  0  0  0  0  0  0  0  0
    1.5030    0.6719    0.0000 C   0  0  0  0  0  0  0  0  0  0  0  0
   -0.6543   -0.5659    0.0000 C   0  0  0  0  0  0  0  0  0  0  0  0
   -1.0786    3.1651    0.0000 C   0  0  0  0  0  0  0  0  0  0  0  0
    0.0530   -0.1591    0.0000 C   0  0  0  0  0  0  0  0  0  0  0  0
   -1.3615    0.6719    0.0000 C   0  0  0  0  0  0  0  0  0  0  0  0
   -0.6719   -1.3969    0.0000 C   0  0  0  0  0  0  0  0  0  0  0  0
    0.2475    3.8370    0.0000 C   0  0  0  0  0  0  0  0  0  0  0  0
   -1.3615   -0.1768    0.0000 C   0  0  0  0  0  0  0  0  0  0  0  0
   -2.8999    2.2810    0.0000 C   0  0  0  0  0  0  0  0  0  0  0  0
   -2.6523    1.5560    0.0000 C   0  0  0  0  0  0  0  0  0  0  0  0
    1.4853   -0.1591    0.0000 C   0  0  0  0  0  0  0  0  0  0  0  0
    1.7859    1.9628    0.0000 C   0  0  0  0  0  0  0  0  0  0  0  0
   -1.3792   -2.6346    0.0000 C   0  0  0  0  0  0  0  0  0  0  0  0
   -1.3615   -1.8213    0.0000 C   0  0  0  0  0  0  0  0  0  0  0  0
   -0.6543   -3.0590    0.0000 C   0  0  0  0  0  0  0  0  0  0  0  0
    0.0530   -1.8213    0.0000 C   0  0  0  0  0  0  0  0  0  0  0  0
    0.0530   -2.6523    0.0000 C   0  0  0  0  0  0  0  0  0  0  0  0
    0.7957   -0.5659    0.0000 C   0  0  0  0  0  0  0  0  0  0  0  0
    2.2103   -0.5835    0.0000 C   0  0  0  0  0  0  0  0  0  0  0  0
   -0.6543   -3.8900    0.0000 C   0  0  0  0  0  0  0  0  0  0  0  0
    2.1926    2.7054    0.0000 C   0  0  0  0  0  0  0  0  0  0  0  0
    1.5030   -1.8036    0.0000 C   0  0  0  0  0  0  0  0  0  0  0  0
    0.7957   -1.4146    0.0000 C   0  0  0  0  0  0  0  0  0  0  0  0
    2.2103   -1.3969    0.0000 C   0  0  0  0  0  0  0  0  0  0  0  0
   -2.5109   -3.8370    0.0000 C   0  0  0  0  0  0  0  0  0  0  0  0
    2.1926   -3.0767    0.0000 C   0  0  0  0  0  0  0  0  0  0  0  0
  1 10  2  0  0  0  0
  1 11  2  0  0  0  0
  1 35  1  0  0  0  0
  1 47  1  0  0  0  0
  2 29  1  0  0  0  0
  3 29  1  0  0  0  0
  4 29  1  0  0  0  0
  5 39  1  0  0  0  0
  6 48  1  0  0  0  0
  7 48  1  0  0  0  0
  8 48  1  0  0  0  0
  9 20  1  0  0  0  0
  9 34  1  0  0  0  0
 12 44  1  0  0  0  0
 12 48  1  0  0  0  0
 13 42  1  0  0  0  0
 14 15  1  0  0  0  0
 14 17  1  0  0  0  0
 14 19  1  0  0  0  0
 15 22  2  0  0  0  0
 16 23  1  0  0  0  0
 16 34  2  0  0  0  0
 17 18  1  0  0  0  0
 17 27  2  0  0  0  0
 18 20  1  0  0  0  0
 18 26  2  0  0  0  0
 19 21  1  0  0  0  0
 19 25  2  0  0  0  0
 20 23  2  0  0  0  0
 21 31  1  0  0  0  0
 21 32  1  0  0  0  0
 22 25  1  0  0  0  0
 22 29  1  0  0  0  0
 23 33  1  0  0  0  0
 24 26  1  0  0  0  0
 24 28  1  0  0  0  0
 24 30  2  0  0  0  0
 27 30  1  0  0  0  0
 28 36  2  0  0  0  0
 28 38  1  0  0  0  0
 31 32  1  0  0  0  0
 33 40  2  0  0  0  0
 33 41  1  0  0  0  0
 34 43  1  0  0  0  0
 35 36  1  0  0  0  0
 35 37  2  0  0  0  0
 37 39  1  0  0  0  0
 37 42  1  0  0  0  0
 38 39  2  0  0  0  0
 40 45  1  0  0  0  0
 41 46  2  0  0  0  0
 44 45  2  0  0  0  0
 44 46  1  0  0  0  0
M  END
> <PUBCHEM_COMPOUND_ID_TYPE>
0

> <PUBCHEM_TOTAL_CHARGE>
0

> <PUBCHEM_SUBSTANCE_ID>
310948314

> <PUBCHEM_SUBSTANCE_VERSION>
1

> <PUBCHEM_EXT_DATASOURCE_NAME>
4488

> <PUBCHEM_EXT_DATASOURCE_REGID>
SCHEMBL16126492

> <PUBCHEM_SUBSTANCE_COMMENT>
InChI=1S/C32H24F7N3O5S/c1-16-40-29(18-5-8-21(9-6-18)47-32(37,38)39)30(46-16)22-11-19(20-12-24(33)23(15-43)27(13-20)48(2,44)45)7-10-25(22)42-26(17-3-4-17)14-28(41-42)31(34,35)36/h5-14,17,43H,3-4,15H2,1-2H3
InChIKey=FDOPOSCWKCBUTL-UHFFFAOYSA-N

> <PUBCHEM_SUBSTANCE_SYNONYM>
SCHEMBL16126492

> <PUBCHEM_XREF_EXT_ID>
SCHEMBL16126492

> <PUBCHEM_EXT_DATASOURCE_URL>
https://www.surechembl.org/

> <PUBCHEM_EXT_SUBSTANCE_URL>
https://www.surechembl.org/chemical/SCHEMBL16126492

> <PUBCHEM_CID_ASSOCIATIONS>
117613879  1

> <PUBCHEM_COORDINATE_TYPE>
1
3

$$$$
