310933313
  -OEChem-07211613022D

 31 34  0     1  0  0  0  0  0999 V2000
   -8.2929   -4.4526    0.0000 O   0  0  0  0  0  0  0  0  0  0  0  0
  -13.8654   -7.0003    0.0000 O   0  0  0  0  0  0  0  0  0  0  0  0
  -16.7232   -7.8253    0.0000 O   0  0  0  0  0  0  0  0  0  0  0  0
   -9.7379   -7.4128    0.0000 N   0  0  0  0  0  0  0  0  0  0  0  0
  -10.2229   -8.0803    0.0000 N   0  0  0  0  0  0  0  0  0  0  0  0
  -12.4364   -7.0003    0.0000 N   0  0  0  0  0  0  0  0  0  0  0  0
   -7.9958   -5.8503    0.0000 N   0  0  0  0  0  0  0  0  0  0  0  0
  -13.1509   -8.2378    0.0000 N   0  0  0  0  0  0  0  0  0  0  0  0
  -14.5798   -8.2378    0.0000 N   0  0  0  0  0  0  0  0  0  0  0  0
   -9.9679   -5.9607    0.0000 C   0  0  3  0  0  0  0  0  0  0  0  0
  -10.2229   -6.7454    0.0000 C   0  0  0  0  0  0  0  0  0  0  0  0
   -9.3548   -5.4087    0.0000 C   0  0  3  0  0  0  0  0  0  0  0  0
  -11.0074   -7.0003    0.0000 C   0  0  0  0  0  0  0  0  0  0  0  0
  -10.1394   -5.1538    0.0000 C   0  0  0  0  0  0  0  0  0  0  0  0
  -11.0074   -7.8253    0.0000 C   0  0  0  0  0  0  0  0  0  0  0  0
   -8.5478   -5.2372    0.0000 C   0  0  0  0  0  0  0  0  0  0  0  0
  -11.7220   -6.5878    0.0000 C   0  0  0  0  0  0  0  0  0  0  0  0
  -11.7220   -8.2378    0.0000 C   0  0  0  0  0  0  0  0  0  0  0  0
  -12.4364   -7.8253    0.0000 C   0  0  0  0  0  0  0  0  0  0  0  0
  -13.8654   -7.8253    0.0000 C   0  0  0  0  0  0  0  0  0  0  0  0
  -15.2943   -7.8253    0.0000 C   0  0  3  0  0  0  0  0  0  0  0  0
   -7.1888   -5.6788    0.0000 C   0  0  0  0  0  0  0  0  0  0  0  0
  -15.2943   -7.0003    0.0000 C   0  0  0  0  0  0  0  0  0  0  0  0
  -16.0088   -8.2378    0.0000 C   0  0  0  0  0  0  0  0  0  0  0  0
  -16.0088   -6.5878    0.0000 C   0  0  0  0  0  0  0  0  0  0  0  0
  -14.5798   -6.5878    0.0000 C   0  0  0  0  0  0  0  0  0  0  0  0
   -6.6368   -6.2919    0.0000 C   0  0  0  0  0  0  0  0  0  0  0  0
  -16.0088   -5.7628    0.0000 C   0  0  0  0  0  0  0  0  0  0  0  0
  -14.5798   -5.7628    0.0000 C   0  0  0  0  0  0  0  0  0  0  0  0
  -15.2943   -5.3503    0.0000 C   0  0  0  0  0  0  0  0  0  0  0  0
  -17.4377   -8.2378    0.0000 C   0  0  0  0  0  0  0  0  0  0  0  0
  1 16  2  0  0  0  0
  2 20  2  0  0  0  0
  3 24  1  0  0  0  0
  3 31  1  0  0  0  0
  4  5  1  0  0  0  0
  4 11  2  0  0  0  0
  5 15  1  0  0  0  0
  6 17  2  0  0  0  0
  6 19  1  0  0  0  0
  7 16  1  0  0  0  0
  7 22  1  0  0  0  0
  8 19  1  0  0  0  0
  8 20  1  0  0  0  0
  9 20  1  0  0  0  0
 21  9  1  6  0  0  0
 10 11  1  0  0  0  0
 10 12  1  0  0  0  0
 10 14  1  6  0  0  0
 11 13  1  0  0  0  0
 12 14  1  0  0  0  0
 12 16  1  1  0  0  0
 13 15  2  0  0  0  0
 13 17  1  0  0  0  0
 15 18  1  0  0  0  0
 18 19  2  0  0  0  0
 21 23  1  0  0  0  0
 21 24  1  0  0  0  0
 22 27  1  0  0  0  0
 23 25  2  0  0  0  0
 23 26  1  0  0  0  0
 25 28  1  0  0  0  0
 26 29  2  0  0  0  0
 28 30  2  0  0  0  0
 29 30  1  0  0  0  0
M  END
> <PUBCHEM_COMPOUND_ID_TYPE>
0

> <PUBCHEM_TOTAL_CHARGE>
0

> <PUBCHEM_SUBSTANCE_ID>
310933313

> <PUBCHEM_SUBSTANCE_VERSION>
1

> <PUBCHEM_EXT_DATASOURCE_NAME>
4488

> <PUBCHEM_EXT_DATASOURCE_REGID>
SCHEMBL16110724

> <PUBCHEM_SUBSTANCE_COMMENT>
InChI=1S/C22H26N6O3/c1-3-23-21(29)15-9-14(15)20-16-11-24-19(10-17(16)27-28-20)26-22(30)25-18(12-31-2)13-7-5-4-6-8-13/h4-8,10-11,14-15,18H,3,9,12H2,1-2H3,(H,23,29)(H,27,28)(H2,24,25,26,30)/t14-,15-,18-/m1/s1
InChIKey=DWUMRPOKMOAMGR-IIDMSEBBSA-N

> <PUBCHEM_SUBSTANCE_SYNONYM>
SCHEMBL16110724

> <PUBCHEM_XREF_EXT_ID>
SCHEMBL16110724

> <PUBCHEM_EXT_DATASOURCE_URL>
https://www.surechembl.org/

> <PUBCHEM_EXT_SUBSTANCE_URL>
https://www.surechembl.org/chemical/SCHEMBL16110724

> <PUBCHEM_CID_ASSOCIATIONS>
117601728  1

> <PUBCHEM_COORDINATE_TYPE>
1
3

> <PUBCHEM_BONDANNOTATIONS>
10  14  6
12  16  5
21  9  6

$$$$
