310936605
  -OEChem-07211613022D

 11 10  0     0  0  0  0  0  0999 V2000
   -2.4454   -1.6500    0.0000 F   0  0  0  0  0  0  0  0  0  0  0  0
   -3.2704   -1.6500    0.0000 F   0  0  0  0  0  0  0  0  0  0  0  0
   -0.7145    1.1270    0.0000 O   0  0  0  0  0  0  0  0  0  0  0  0
    0.0000   -0.1106    0.0000 O   0  0  0  0  0  0  0  0  0  0  0  0
   -2.8579   -0.9356    0.0000 C   0  0  0  0  0  0  0  0  0  0  0  0
   -2.1435   -0.5231    0.0000 C   0  0  0  0  0  0  0  0  0  0  0  0
   -3.5724   -0.5231    0.0000 C   0  0  0  0  0  0  0  0  0  0  0  0
   -1.4290   -0.1106    0.0000 C   0  0  0  0  0  0  0  0  0  0  0  0
   -0.7145    0.3020    0.0000 C   0  0  0  0  0  0  0  0  0  0  0  0
   -4.2869   -0.9356    0.0000 C   0  0  0  0  0  0  0  0  0  0  0  0
   -5.0014   -0.5231    0.0000 C   0  0  0  0  0  0  0  0  0  0  0  0
  1  5  1  0  0  0  0
  2  5  1  0  0  0  0
  3  9  2  0  0  0  0
  4  9  1  0  0  0  0
  5  6  1  0  0  0  0
  5  7  1  0  0  0  0
  6  8  3  0  0  0  0
  7 10  1  0  0  0  0
  8  9  1  0  0  0  0
 10 11  1  0  0  0  0
M  END
> <PUBCHEM_COMPOUND_ID_TYPE>
0

> <PUBCHEM_TOTAL_CHARGE>
0

> <PUBCHEM_SUBSTANCE_ID>
310936605

> <PUBCHEM_SUBSTANCE_VERSION>
1

> <PUBCHEM_EXT_DATASOURCE_NAME>
4488

> <PUBCHEM_EXT_DATASOURCE_REGID>
SCHEMBL16114265

> <PUBCHEM_SUBSTANCE_COMMENT>
InChI=1S/C7H8F2O2/c1-2-4-7(8,9)5-3-6(10)11/h2,4H2,1H3,(H,10,11)
InChIKey=KEGROGDRKUJQGX-UHFFFAOYSA-N

> <PUBCHEM_SUBSTANCE_SYNONYM>
SCHEMBL16114265

> <PUBCHEM_XREF_EXT_ID>
SCHEMBL16114265

> <PUBCHEM_EXT_DATASOURCE_URL>
https://www.surechembl.org/

> <PUBCHEM_EXT_SUBSTANCE_URL>
https://www.surechembl.org/chemical/SCHEMBL16114265

> <PUBCHEM_CID_ASSOCIATIONS>
117604524  1

> <PUBCHEM_COORDINATE_TYPE>
1
3

$$$$
