310946330
  -OEChem-07211613022D

 26 28  0     0  0  0  0  0  0999 V2000
   -1.7049   -9.1933    0.0000 I   0  0  0  0  0  0  0  0  0  0  0  0
   -0.2761   -6.7183    0.0000 I   0  0  0  0  0  0  0  0  0  0  0  0
   -1.7049   -7.5433    0.0000 O   0  0  0  0  0  0  0  0  0  0  0  0
    1.8672   -7.9558    0.0000 O   0  0  0  0  0  0  0  0  0  0  0  0
    4.7252   -8.7808    0.0000 O   0  0  0  0  0  0  0  0  0  0  0  0
   -4.5628   -9.1933    0.0000 O   0  0  0  0  0  0  0  0  0  0  0  0
    2.5818   -9.1933    0.0000 N   0  0  0  0  0  0  0  0  0  0  0  0
    4.0107  -10.0182    0.0000 N   0  0  0  0  0  0  0  0  0  0  0  0
   -0.9905   -7.9558    0.0000 C   0  0  0  0  0  0  0  0  0  0  0  0
   -0.9905   -8.7808    0.0000 C   0  0  0  0  0  0  0  0  0  0  0  0
   -0.2761   -7.5433    0.0000 C   0  0  0  0  0  0  0  0  0  0  0  0
    0.4384   -8.7808    0.0000 C   0  0  0  0  0  0  0  0  0  0  0  0
   -0.2761   -9.1933    0.0000 C   0  0  0  0  0  0  0  0  0  0  0  0
    0.4384   -7.9558    0.0000 C   0  0  0  0  0  0  0  0  0  0  0  0
    1.1529   -9.1933    0.0000 C   0  0  0  0  0  0  0  0  0  0  0  0
    1.8672   -8.7808    0.0000 C   0  0  0  0  0  0  0  0  0  0  0  0
   -2.4195   -7.9558    0.0000 C   0  0  0  0  0  0  0  0  0  0  0  0
    3.2962   -8.7808    0.0000 C   0  0  0  0  0  0  0  0  0  0  0  0
    2.5818  -10.0182    0.0000 C   0  0  0  0  0  0  0  0  0  0  0  0
   -3.1338   -7.5433    0.0000 C   0  0  0  0  0  0  0  0  0  0  0  0
   -2.4195   -8.7808    0.0000 C   0  0  0  0  0  0  0  0  0  0  0  0
    4.0107   -9.1933    0.0000 C   0  0  0  0  0  0  0  0  0  0  0  0
   -3.8483   -8.7808    0.0000 C   0  0  0  0  0  0  0  0  0  0  0  0
    3.2962  -10.4307    0.0000 C   0  0  0  0  0  0  0  0  0  0  0  0
   -3.8483   -7.9558    0.0000 C   0  0  0  0  0  0  0  0  0  0  0  0
   -3.1338   -9.1933    0.0000 C   0  0  0  0  0  0  0  0  0  0  0  0
  1 10  1  0  0  0  0
  2 11  1  0  0  0  0
  3  9  1  0  0  0  0
  3 17  1  0  0  0  0
  4 16  2  0  0  0  0
  5 22  2  0  0  0  0
  6 23  1  0  0  0  0
  7 16  1  0  0  0  0
  7 18  1  0  0  0  0
  7 19  1  0  0  0  0
  8 22  1  0  0  0  0
  8 24  1  0  0  0  0
  9 10  2  0  0  0  0
  9 11  1  0  0  0  0
 10 13  1  0  0  0  0
 11 14  2  0  0  0  0
 12 13  2  0  0  0  0
 12 14  1  0  0  0  0
 12 15  1  0  0  0  0
 15 16  1  0  0  0  0
 17 20  2  0  0  0  0
 17 21  1  0  0  0  0
 18 22  1  0  0  0  0
 19 24  1  0  0  0  0
 20 25  1  0  0  0  0
 21 26  2  0  0  0  0
 23 25  2  0  0  0  0
 23 26  1  0  0  0  0
M  END
> <PUBCHEM_COMPOUND_ID_TYPE>
0

> <PUBCHEM_TOTAL_CHARGE>
0

> <PUBCHEM_SUBSTANCE_ID>
310946330

> <PUBCHEM_SUBSTANCE_VERSION>
1

> <PUBCHEM_EXT_DATASOURCE_NAME>
4488

> <PUBCHEM_EXT_DATASOURCE_REGID>
SCHEMBL16124449

> <PUBCHEM_SUBSTANCE_COMMENT>
InChI=1S/C18H16I2N2O4/c19-14-7-11(9-17(25)22-6-5-21-16(24)10-22)8-15(20)18(14)26-13-3-1-12(23)2-4-13/h1-4,7-8,23H,5-6,9-10H2,(H,21,24)
InChIKey=XLHLBBIWLNSNFQ-UHFFFAOYSA-N

> <PUBCHEM_SUBSTANCE_SYNONYM>
SCHEMBL16124449

> <PUBCHEM_XREF_EXT_ID>
SCHEMBL16124449

> <PUBCHEM_EXT_DATASOURCE_URL>
https://www.surechembl.org/

> <PUBCHEM_EXT_SUBSTANCE_URL>
https://www.surechembl.org/chemical/SCHEMBL16124449

> <PUBCHEM_CID_ASSOCIATIONS>
117612260  1

> <PUBCHEM_COORDINATE_TYPE>
1
3

$$$$
