310946040
  -OEChem-07211613022D

 37 40  0     1  0  0  0  0  0999 V2000
    3.6509    1.5795    0.0000 O   0  0  0  0  0  0  0  0  0  0  0  0
    1.3925    1.5795    0.0000 O   0  0  0  0  0  0  0  0  0  0  0  0
   -2.8057    0.6235    0.0000 O   0  0  0  0  0  0  0  0  0  0  0  0
   -0.0485    1.5795    0.0000 O   0  0  0  0  0  0  0  0  0  0  0  0
    0.6720    1.1638    0.0000 O   0  0  0  0  0  0  0  0  0  0  0  0
   -2.9304   -2.5771    0.0000 O   0  0  0  0  0  0  0  0  0  0  0  0
    1.3925   -0.0693    0.0000 N   0  0  0  0  0  0  0  0  0  0  0  0
   -0.7690    0.3464    0.0000 N   0  0  0  0  0  0  0  0  0  0  0  0
   -1.5725    2.4108    0.0000 N   0  0  0  0  0  0  0  0  0  0  0  0
    2.8473    1.5795    0.0000 C   0  0  3  0  0  0  0  0  0  0  0  0
    2.0852    1.1084    0.0000 C   0  0  0  0  0  0  0  0  0  0  0  0
    3.2490    0.8867    0.0000 C   0  0  0  0  0  0  0  0  0  0  0  0
    2.0991    0.3325    0.0000 C   0  0  3  0  0  0  0  0  0  0  0  0
   -1.4894    1.5933    0.0000 C   0  0  3  0  0  0  0  0  0  0  0  0
   -2.2515    1.2608    0.0000 C   0  0  3  0  0  0  0  0  0  0  0  0
    2.8334    2.4108    0.0000 C   0  0  0  0  0  0  0  0  0  0  0  0
   -0.7551    1.1500    0.0000 C   0  0  0  0  0  0  0  0  0  0  0  0
    0.6581    0.3187    0.0000 C   0  0  0  0  0  0  0  0  0  0  0  0
   -0.0346   -0.0693    0.0000 C   0  0  3  0  0  0  0  0  0  0  0  0
    2.8334   -0.0554    0.0000 C   0  0  0  0  0  0  0  0  0  0  0  0
   -2.7919    1.8566    0.0000 C   0  0  0  0  0  0  0  0  0  0  0  0
    2.8334   -0.9144    0.0000 C   0  0  0  0  0  0  0  0  0  0  0  0
   -2.3900    2.5771    0.0000 C   0  0  0  0  0  0  0  0  0  0  0  0
   -0.0346   -0.8867    0.0000 C   0  0  0  0  0  0  0  0  0  0  0  0
   -2.0021    0.4850    0.0000 C   0  0  0  0  0  0  0  0  0  0  0  0
   -0.7551   -1.3163    0.0000 C   0  0  0  0  0  0  0  0  0  0  0  0
    3.5400   -1.3163    0.0000 C   0  0  0  0  0  0  0  0  0  0  0  0
    2.1129   -1.3301    0.0000 C   0  0  0  0  0  0  0  0  0  0  0  0
   -1.4756   -0.9144    0.0000 C   0  0  0  0  0  0  0  0  0  0  0  0
   -0.7690   -2.1475    0.0000 C   0  0  0  0  0  0  0  0  0  0  0  0
   -2.2099   -2.1475    0.0000 C   0  0  0  0  0  0  0  0  0  0  0  0
   -2.1961   -1.3163    0.0000 C   0  0  0  0  0  0  0  0  0  0  0  0
   -1.4756   -2.5494    0.0000 C   0  0  0  0  0  0  0  0  0  0  0  0
    3.5400   -2.1475    0.0000 C   0  0  0  0  0  0  0  0  0  0  0  0
    2.1129   -2.1475    0.0000 C   0  0  0  0  0  0  0  0  0  0  0  0
    2.8334   -2.5494    0.0000 C   0  0  0  0  0  0  0  0  0  0  0  0
   -3.6509   -2.1475    0.0000 C   0  0  0  0  0  0  0  0  0  0  0  0
  1 10  1  0  0  0  0
  1 12  1  0  0  0  0
  2 11  2  0  0  0  0
 15  3  1  1  0  0  0
  4 17  2  0  0  0  0
  5 18  2  0  0  0  0
  6 31  1  0  0  0  0
  6 37  1  0  0  0  0
 13  7  1  6  0  0  0
  7 18  1  0  0  0  0
  8 17  1  0  0  0  0
 19  8  1  6  0  0  0
  9 14  1  0  0  0  0
  9 23  1  0  0  0  0
 10 11  1  6  0  0  0
 10 12  1  0  0  0  0
 10 16  1  1  0  0  0
 11 13  1  0  0  0  0
 13 20  1  0  0  0  0
 14 15  1  0  0  0  0
 14 17  1  1  0  0  0
 15 21  1  0  0  0  0
 15 25  1  6  0  0  0
 18 19  1  0  0  0  0
 19 24  1  0  0  0  0
 20 22  1  0  0  0  0
 21 23  1  0  0  0  0
 22 27  2  0  0  0  0
 22 28  1  0  0  0  0
 24 26  1  0  0  0  0
 26 29  2  0  0  0  0
 26 30  1  0  0  0  0
 27 34  1  0  0  0  0
 28 35  2  0  0  0  0
 29 32  1  0  0  0  0
 30 33  2  0  0  0  0
 31 32  2  0  0  0  0
 31 33  1  0  0  0  0
 34 36  2  0  0  0  0
 35 36  1  0  0  0  0
M  END
> <PUBCHEM_COMPOUND_ID_TYPE>
0

> <PUBCHEM_TOTAL_CHARGE>
0

> <PUBCHEM_SUBSTANCE_ID>
310946040

> <PUBCHEM_SUBSTANCE_VERSION>
1

> <PUBCHEM_EXT_DATASOURCE_NAME>
4488

> <PUBCHEM_EXT_DATASOURCE_REGID>
SCHEMBL16124146

> <PUBCHEM_SUBSTANCE_COMMENT>
InChI=1S/C28H35N3O6/c1-27(35)13-14-29-23(27)26(34)31-22(16-19-9-11-20(36-3)12-10-19)25(33)30-21(24(32)28(2)17-37-28)15-18-7-5-4-6-8-18/h4-12,21-23,29,35H,13-17H2,1-3H3,(H,30,33)(H,31,34)/t21-,22-,23-,27-,28+/m0/s1
InChIKey=MGQXEWFQQFLJIX-CVTBUWDKSA-N

> <PUBCHEM_SUBSTANCE_SYNONYM>
SCHEMBL16124146

> <PUBCHEM_XREF_EXT_ID>
SCHEMBL16124146

> <PUBCHEM_EXT_DATASOURCE_URL>
https://www.surechembl.org/

> <PUBCHEM_EXT_SUBSTANCE_URL>
https://www.surechembl.org/chemical/SCHEMBL16124146

> <PUBCHEM_CID_ASSOCIATIONS>
117612011  1

> <PUBCHEM_COORDINATE_TYPE>
1
3

> <PUBCHEM_BONDANNOTATIONS>
10  11  6
10  16  5
14  17  5
15  25  6
15  3  5
13  7  6
19  8  6

$$$$
