310938892
  -OEChem-07211613022D

 31 32  0     1  0  0  0  0  0999 V2000
   -2.4906    5.8475    0.0000 Cl  0  0  0  0  0  0  0  0  0  0  0  0
   -0.3472    6.2600    0.0000 F   0  0  0  0  0  0  0  0  0  0  0  0
    1.0817    3.7850    0.0000 F   0  0  0  0  0  0  0  0  0  0  0  0
   -1.0617    5.8475    0.0000 O   0  0  0  0  0  0  0  0  0  0  0  0
   -1.7761    2.1350    0.0000 O   0  0  0  0  0  0  0  0  0  0  0  0
    0.3673    0.0725    0.0000 O   0  0  0  0  0  0  0  0  0  0  0  0
    1.0817    1.3100    0.0000 O   0  0  0  0  0  0  0  0  0  0  0  0
   -0.3472    4.6100    0.0000 N   0  0  0  0  0  0  0  0  0  0  0  0
   -0.3472    1.3100    0.0000 N   0  0  0  0  0  0  0  0  0  0  0  0
   -1.7761    4.6100    0.0000 C   0  0  0  0  0  0  0  0  0  0  0  0
   -1.7761    3.7850    0.0000 C   0  0  0  0  0  0  0  0  0  0  0  0
   -1.0617    5.0225    0.0000 C   0  0  0  0  0  0  0  0  0  0  0  0
   -2.4906    5.0225    0.0000 C   0  0  0  0  0  0  0  0  0  0  0  0
    0.3673    5.0225    0.0000 C   0  0  0  0  0  0  0  0  0  0  0  0
   -1.0617    3.3725    0.0000 C   0  0  0  0  0  0  0  0  0  0  0  0
    0.3673    5.8475    0.0000 C   0  0  0  0  0  0  0  0  0  0  0  0
    1.0817    4.6100    0.0000 C   0  0  0  0  0  0  0  0  0  0  0  0
   -2.4906    3.3725    0.0000 C   0  0  0  0  0  0  0  0  0  0  0  0
   -3.2051    4.6100    0.0000 C   0  0  0  0  0  0  0  0  0  0  0  0
   -1.0617    2.5475    0.0000 C   0  0  0  0  0  0  0  0  0  0  0  0
   -3.2051    3.7850    0.0000 C   0  0  0  0  0  0  0  0  0  0  0  0
   -0.3472    2.1350    0.0000 C   0  0  3  0  0  0  0  0  0  0  0  0
    1.0817    6.2600    0.0000 C   0  0  0  0  0  0  0  0  0  0  0  0
    1.7962    5.0225    0.0000 C   0  0  0  0  0  0  0  0  0  0  0  0
    1.7962    5.8475    0.0000 C   0  0  0  0  0  0  0  0  0  0  0  0
    0.3673    0.8975    0.0000 C   0  0  0  0  0  0  0  0  0  0  0  0
    1.0817   -0.3400    0.0000 C   0  0  0  0  0  0  0  0  0  0  0  0
    0.3673    2.5475    0.0000 C   0  0  0  0  0  0  0  0  0  0  0  0
    1.0817   -1.1650    0.0000 C   0  0  0  0  0  0  0  0  0  0  0  0
    1.7962   -0.7525    0.0000 C   0  0  0  0  0  0  0  0  0  0  0  0
    1.7962    0.0725    0.0000 C   0  0  0  0  0  0  0  0  0  0  0  0
  1 13  1  0  0  0  0
  2 16  1  0  0  0  0
  3 17  1  0  0  0  0
  4 12  2  0  0  0  0
  5 20  2  0  0  0  0
  6 26  1  0  0  0  0
  6 27  1  0  0  0  0
  7 26  2  0  0  0  0
  8 12  1  0  0  0  0
  8 14  1  0  0  0  0
  9 22  1  0  0  0  0
  9 26  1  0  0  0  0
 10 11  1  0  0  0  0
 10 12  1  0  0  0  0
 10 13  2  0  0  0  0
 11 15  1  0  0  0  0
 11 18  2  0  0  0  0
 13 19  1  0  0  0  0
 14 16  1  0  0  0  0
 14 17  2  0  0  0  0
 15 20  1  0  0  0  0
 16 23  2  0  0  0  0
 17 24  1  0  0  0  0
 18 21  1  0  0  0  0
 19 21  2  0  0  0  0
 20 22  1  0  0  0  0
 22 28  1  6  0  0  0
 23 25  1  0  0  0  0
 24 25  2  0  0  0  0
 27 29  1  0  0  0  0
 27 30  1  0  0  0  0
 27 31  1  0  0  0  0
M  END
> <PUBCHEM_COMPOUND_ID_TYPE>
0

> <PUBCHEM_TOTAL_CHARGE>
0

> <PUBCHEM_SUBSTANCE_ID>
310938892

> <PUBCHEM_SUBSTANCE_VERSION>
1

> <PUBCHEM_EXT_DATASOURCE_NAME>
4488

> <PUBCHEM_EXT_DATASOURCE_REGID>
SCHEMBL16116811

> <PUBCHEM_SUBSTANCE_COMMENT>
InChI=1S/C22H23ClF2N2O4/c1-12(26-21(30)31-22(2,3)4)17(28)11-13-7-5-8-14(23)18(13)20(29)27-19-15(24)9-6-10-16(19)25/h5-10,12H,11H2,1-4H3,(H,26,30)(H,27,29)/t12-/m0/s1
InChIKey=QQFGOHNDKJXWGJ-LBPRGKRZSA-N

> <PUBCHEM_SUBSTANCE_SYNONYM>
SCHEMBL16116811

> <PUBCHEM_XREF_EXT_ID>
SCHEMBL16116811

> <PUBCHEM_EXT_DATASOURCE_URL>
https://www.surechembl.org/

> <PUBCHEM_EXT_SUBSTANCE_URL>
https://www.surechembl.org/chemical/SCHEMBL16116811

> <PUBCHEM_CID_ASSOCIATIONS>
117606290  1

> <PUBCHEM_COORDINATE_TYPE>
1
3

> <PUBCHEM_BONDANNOTATIONS>
22  28  6

$$$$
