310946704
  -OEChem-07211613022D

128145  0     0  0  0  0  0  0999 V2000
    5.9490   -6.7673    0.0000 S   0  0  0  0  0  0  0  0  0  0  0  0
   11.3924   -0.1970    0.0000 S   0  0  0  0  0  0  0  0  0  0  0  0
   -2.4625   -5.3383    0.0000 S   0  0  0  0  0  0  0  0  0  0  0  0
    8.2030   -5.3383    0.0000 O   0  0  0  0  0  0  0  0  0  0  0  0
    7.4886   -0.8009    0.0000 O   0  0  0  0  0  0  0  0  0  0  0  0
   -7.1914   -5.3383    0.0000 O   0  0  0  0  0  0  0  0  0  0  0  0
   -6.4770   -0.8009    0.0000 O   0  0  0  0  0  0  0  0  0  0  0  0
    8.9175   -0.8009    0.0000 O   0  0  0  0  0  0  0  0  0  0  0  0
   -7.9059   -0.8009    0.0000 O   0  0  0  0  0  0  0  0  0  0  0  0
    6.7111   -6.3272    0.0000 O   0  0  0  0  0  0  0  0  0  0  0  0
    5.1869   -7.2073    0.0000 O   0  0  0  0  0  0  0  0  0  0  0  0
    6.3891   -7.5293    0.0000 O   0  0  0  0  0  0  0  0  0  0  0  0
   10.6303    0.2430    0.0000 O   0  0  0  0  0  0  0  0  0  0  0  0
   12.1545   -0.6370    0.0000 O   0  0  0  0  0  0  0  0  0  0  0  0
   11.8323    0.5651    0.0000 O   0  0  0  0  0  0  0  0  0  0  0  0
   -2.4625   -4.4584    0.0000 O   0  0  0  0  0  0  0  0  0  0  0  0
   -2.4625   -6.2183    0.0000 O   0  0  0  0  0  0  0  0  0  0  0  0
   -1.5826   -5.3383    0.0000 O   0  0  0  0  0  0  0  0  0  0  0  0
    3.2827   -1.3240    0.0000 O   0  0  0  0  0  0  0  0  0  0  0  0
   -2.2711   -1.3240    0.0000 O   0  0  0  0  0  0  0  0  0  0  0  0
   -6.5578    0.3260    0.0000 O   0  0  0  0  0  0  0  0  0  0  0  0
    7.5694    1.2060    0.0000 O   0  0  0  0  0  0  0  0  0  0  0  0
    8.3315   -0.1140    0.0000 O   0  0  0  0  0  0  0  0  0  0  0  0
   -8.0820    0.3260    0.0000 O   0  0  0  0  0  0  0  0  0  0  0  0
    6.7741   -2.0384    0.0000 N   0  0  0  0  0  0  0  0  0  0  0  0
   -5.7625   -2.0384    0.0000 N   0  0  0  0  0  0  0  0  0  0  0  0
    6.7741   -5.3383    0.0000 N   0  0  0  0  0  0  0  0  0  0  0  0
   -5.7625   -5.3383    0.0000 N   0  0  0  0  0  0  0  0  0  0  0  0
    4.7116   -3.7989    0.0000 N   0  0  0  0  0  0  0  0  0  0  0  0
   -3.7000   -3.7989    0.0000 N   0  0  0  0  0  0  0  0  0  0  0  0
    3.9972   -2.5615    0.0000 N   0  0  0  0  0  0  0  0  0  0  0  0
    3.2827   -3.7989    0.0000 N   0  0  0  0  0  0  0  0  0  0  0  0
   -2.9856   -2.5615    0.0000 N   0  0  0  0  0  0  0  0  0  0  0  0
   -2.2711   -3.7989    0.0000 N   0  0  0  0  0  0  0  0  0  0  0  0
    2.5683   -2.5615    0.0000 N   0  0  0  0  0  0  0  0  0  0  0  0
   -1.5567   -2.5615    0.0000 N   0  0  0  0  0  0  0  0  0  0  0  0
    1.7432   -3.3864    0.0000 N   0  0  0  0  0  0  0  0  0  0  0  0
   -0.7317   -3.3864    0.0000 N   0  0  0  0  0  0  0  0  0  0  0  0
    7.4886   -3.2759    0.0000 C   0  0  0  0  0  0  0  0  0  0  0  0
    8.2030   -2.8634    0.0000 C   0  0  0  0  0  0  0  0  0  0  0  0
   -6.4770   -3.2759    0.0000 C   0  0  0  0  0  0  0  0  0  0  0  0
   -7.1914   -2.8634    0.0000 C   0  0  0  0  0  0  0  0  0  0  0  0
    7.4886   -4.1009    0.0000 C   0  0  0  0  0  0  0  0  0  0  0  0
    8.2030   -2.0384    0.0000 C   0  0  0  0  0  0  0  0  0  0  0  0
    6.7741   -2.8634    0.0000 C   0  0  0  0  0  0  0  0  0  0  0  0
   -6.4770   -4.1009    0.0000 C   0  0  0  0  0  0  0  0  0  0  0  0
    8.9175   -3.2759    0.0000 C   0  0  0  0  0  0  0  0  0  0  0  0
   -7.1914   -2.0384    0.0000 C   0  0  0  0  0  0  0  0  0  0  0  0
   -5.7625   -2.8634    0.0000 C   0  0  0  0  0  0  0  0  0  0  0  0
   -7.9059   -3.2759    0.0000 C   0  0  0  0  0  0  0  0  0  0  0  0
    8.2030   -4.5133    0.0000 C   0  0  0  0  0  0  0  0  0  0  0  0
    8.9175   -4.1009    0.0000 C   0  0  0  0  0  0  0  0  0  0  0  0
    7.4886   -1.6259    0.0000 C   0  0  0  0  0  0  0  0  0  0  0  0
   -7.1914   -4.5133    0.0000 C   0  0  0  0  0  0  0  0  0  0  0  0
   -7.9059   -4.1009    0.0000 C   0  0  0  0  0  0  0  0  0  0  0  0
    6.7741   -4.5133    0.0000 C   0  0  0  0  0  0  0  0  0  0  0  0
   -6.4770   -1.6259    0.0000 C   0  0  0  0  0  0  0  0  0  0  0  0
   -5.7625   -4.5133    0.0000 C   0  0  0  0  0  0  0  0  0  0  0  0
    8.9175   -1.6259    0.0000 C   0  0  0  0  0  0  0  0  0  0  0  0
    6.0596   -3.2759    0.0000 C   0  0  0  0  0  0  0  0  0  0  0  0
   -7.9059   -1.6259    0.0000 C   0  0  0  0  0  0  0  0  0  0  0  0
   -5.0481   -3.2759    0.0000 C   0  0  0  0  0  0  0  0  0  0  0  0
    6.0596   -4.1009    0.0000 C   0  0  0  0  0  0  0  0  0  0  0  0
    9.6319   -2.8634    0.0000 C   0  0  0  0  0  0  0  0  0  0  0  0
   -5.0481   -4.1009    0.0000 C   0  0  0  0  0  0  0  0  0  0  0  0
    9.6319   -4.5133    0.0000 C   0  0  0  0  0  0  0  0  0  0  0  0
   -8.6203   -2.8634    0.0000 C   0  0  0  0  0  0  0  0  0  0  0  0
   -8.6203   -4.5133    0.0000 C   0  0  0  0  0  0  0  0  0  0  0  0
    9.7424   -1.6259    0.0000 C   0  0  0  0  0  0  0  0  0  0  0  0
   -8.7308   -1.6259    0.0000 C   0  0  0  0  0  0  0  0  0  0  0  0
    6.0596   -1.6259    0.0000 C   0  0  0  0  0  0  0  0  0  0  0  0
   10.3464   -3.2759    0.0000 C   0  0  0  0  0  0  0  0  0  0  0  0
    5.9490   -5.3383    0.0000 C   0  0  0  0  0  0  0  0  0  0  0  0
   10.3464   -4.1009    0.0000 C   0  0  0  0  0  0  0  0  0  0  0  0
   -5.0481   -1.6259    0.0000 C   0  0  0  0  0  0  0  0  0  0  0  0
   -9.3348   -3.2759    0.0000 C   0  0  0  0  0  0  0  0  0  0  0  0
   -9.3348   -4.1009    0.0000 C   0  0  0  0  0  0  0  0  0  0  0  0
   -4.9376   -5.3383    0.0000 C   0  0  0  0  0  0  0  0  0  0  0  0
   10.1549   -0.9114    0.0000 C   0  0  0  0  0  0  0  0  0  0  0  0
    5.5366   -6.0528    0.0000 C   0  0  0  0  0  0  0  0  0  0  0  0
   10.1549   -2.3404    0.0000 C   0  0  0  0  0  0  0  0  0  0  0  0
   10.9798   -0.9114    0.0000 C   0  0  0  0  0  0  0  0  0  0  0  0
   -9.1434   -0.9114    0.0000 C   0  0  0  0  0  0  0  0  0  0  0  0
   -9.1434   -2.3404    0.0000 C   0  0  0  0  0  0  0  0  0  0  0  0
    5.5366   -4.6239    0.0000 C   0  0  0  0  0  0  0  0  0  0  0  0
   -4.5250   -4.6239    0.0000 C   0  0  0  0  0  0  0  0  0  0  0  0
   -4.5250   -6.0528    0.0000 C   0  0  0  0  0  0  0  0  0  0  0  0
   10.9798   -2.3404    0.0000 C   0  0  0  0  0  0  0  0  0  0  0  0
    4.7116   -4.6239    0.0000 C   0  0  0  0  0  0  0  0  0  0  0  0
    4.7116   -6.0528    0.0000 C   0  0  0  0  0  0  0  0  0  0  0  0
   11.3924   -1.6259    0.0000 C   0  0  0  0  0  0  0  0  0  0  0  0
   -3.7000   -4.6239    0.0000 C   0  0  0  0  0  0  0  0  0  0  0  0
   -3.2876   -5.3383    0.0000 C   0  0  0  0  0  0  0  0  0  0  0  0
   -9.9684   -0.9114    0.0000 C   0  0  0  0  0  0  0  0  0  0  0  0
   -9.9684   -2.3404    0.0000 C   0  0  0  0  0  0  0  0  0  0  0  0
    4.2991   -5.3383    0.0000 C   0  0  0  0  0  0  0  0  0  0  0  0
   -3.7000   -6.0528    0.0000 C   0  0  0  0  0  0  0  0  0  0  0  0
  -10.3808   -1.6259    0.0000 C   0  0  0  0  0  0  0  0  0  0  0  0
    3.9972   -3.3864    0.0000 C   0  0  0  0  0  0  0  0  0  0  0  0
   -2.9856   -3.3864    0.0000 C   0  0  0  0  0  0  0  0  0  0  0  0
    3.2827   -2.1489    0.0000 C   0  0  0  0  0  0  0  0  0  0  0  0
    2.5683   -3.3864    0.0000 C   0  0  0  0  0  0  0  0  0  0  0  0
   -2.2711   -2.1489    0.0000 C   0  0  0  0  0  0  0  0  0  0  0  0
   -1.5567   -3.3864    0.0000 C   0  0  0  0  0  0  0  0  0  0  0  0
    3.9972   -0.9114    0.0000 C   0  0  0  0  0  0  0  0  0  0  0  0
   -2.9856   -0.9114    0.0000 C   0  0  0  0  0  0  0  0  0  0  0  0
    0.9182   -3.3864    0.0000 C   0  0  0  0  0  0  0  0  0  0  0  0
    0.0933   -3.3864    0.0000 C   0  0  0  0  0  0  0  0  0  0  0  0
    4.7116   -1.3240    0.0000 C   0  0  0  0  0  0  0  0  0  0  0  0
   -3.7000   -1.3240    0.0000 C   0  0  0  0  0  0  0  0  0  0  0  0
    3.9972   -0.0864    0.0000 C   0  0  0  0  0  0  0  0  0  0  0  0
   -2.9856   -0.0864    0.0000 C   0  0  0  0  0  0  0  0  0  0  0  0
    5.4261   -0.9114    0.0000 C   0  0  0  0  0  0  0  0  0  0  0  0
   -4.4145   -0.9114    0.0000 C   0  0  0  0  0  0  0  0  0  0  0  0
    5.4261   -0.0864    0.0000 C   0  0  0  0  0  0  0  0  0  0  0  0
   -4.4145   -0.0864    0.0000 C   0  0  0  0  0  0  0  0  0  0  0  0
    4.7116    0.3260    0.0000 C   0  0  0  0  0  0  0  0  0  0  0  0
   -3.7000    0.3260    0.0000 C   0  0  0  0  0  0  0  0  0  0  0  0
    6.1405   -1.3240    0.0000 C   0  0  0  0  0  0  0  0  0  0  0  0
    6.1405    0.3260    0.0000 C   0  0  0  0  0  0  0  0  0  0  0  0
   -5.1289   -1.3240    0.0000 C   0  0  0  0  0  0  0  0  0  0  0  0
   -5.1289    0.3260    0.0000 C   0  0  0  0  0  0  0  0  0  0  0  0
    6.8550   -0.0864    0.0000 C   0  0  0  0  0  0  0  0  0  0  0  0
   -5.8434   -0.0864    0.0000 C   0  0  0  0  0  0  0  0  0  0  0  0
    6.8550   -0.9114    0.0000 C   0  0  0  0  0  0  0  0  0  0  0  0
   -5.8434   -0.9114    0.0000 C   0  0  0  0  0  0  0  0  0  0  0  0
    7.5694    0.3260    0.0000 C   0  0  0  0  0  0  0  0  0  0  0  0
   -7.3199   -0.1140    0.0000 C   0  0  0  0  0  0  0  0  0  0  0  0
  1 10  2  0  0  0  0
  1 11  2  0  0  0  0
  1 12  1  0  0  0  0
  1 80  1  0  0  0  0
  2 13  2  0  0  0  0
  2 14  2  0  0  0  0
  2 15  1  0  0  0  0
  2 82  1  0  0  0  0
  3 16  2  0  0  0  0
  3 17  2  0  0  0  0
  3 18  1  0  0  0  0
  3 93  1  0  0  0  0
  4 51  2  0  0  0  0
  5 53  2  0  0  0  0
  6 54  2  0  0  0  0
  7 57  2  0  0  0  0
  8 59  2  0  0  0  0
  9 61  2  0  0  0  0
 19101  1  0  0  0  0
 19105  1  0  0  0  0
 20103  1  0  0  0  0
 20106  1  0  0  0  0
 21124  1  0  0  0  0
 21128  1  0  0  0  0
 22127  2  0  0  0  0
 23127  1  0  0  0  0
 24128  2  0  0  0  0
 25 45  1  0  0  0  0
 25 53  1  0  0  0  0
 25 71  1  0  0  0  0
 26 49  1  0  0  0  0
 26 57  1  0  0  0  0
 26 75  1  0  0  0  0
 27 56  1  0  0  0  0
 27 73  1  0  0  0  0
 28 58  1  0  0  0  0
 28 78  1  0  0  0  0
 29 89  1  0  0  0  0
 29 99  1  0  0  0  0
 30 92  1  0  0  0  0
 30100  1  0  0  0  0
 31 99  2  0  0  0  0
 31101  1  0  0  0  0
 32 99  1  0  0  0  0
 32102  2  0  0  0  0
 33100  1  0  0  0  0
 33103  2  0  0  0  0
 34100  2  0  0  0  0
 34104  1  0  0  0  0
 35101  2  0  0  0  0
 35102  1  0  0  0  0
 36103  1  0  0  0  0
 36104  2  0  0  0  0
 37102  1  0  0  0  0
 37107  1  0  0  0  0
 38104  1  0  0  0  0
 38108  1  0  0  0  0
 39 40  1  0  0  0  0
 39 43  2  0  0  0  0
 39 45  1  0  0  0  0
 40 44  2  0  0  0  0
 40 47  1  0  0  0  0
 41 42  1  0  0  0  0
 41 46  2  0  0  0  0
 41 49  1  0  0  0  0
 42 48  2  0  0  0  0
 42 50  1  0  0  0  0
 43 51  1  0  0  0  0
 43 56  1  0  0  0  0
 44 53  1  0  0  0  0
 44 59  1  0  0  0  0
 45 60  2  0  0  0  0
 46 54  1  0  0  0  0
 46 58  1  0  0  0  0
 47 52  2  0  0  0  0
 47 64  1  0  0  0  0
 48 57  1  0  0  0  0
 48 61  1  0  0  0  0
 49 62  2  0  0  0  0
 50 55  2  0  0  0  0
 50 67  1  0  0  0  0
 51 52  1  0  0  0  0
 52 66  1  0  0  0  0
 54 55  1  0  0  0  0
 55 68  1  0  0  0  0
 56 63  2  0  0  0  0
 58 65  2  0  0  0  0
 59 69  1  0  0  0  0
 60 63  1  0  0  0  0
 61 70  1  0  0  0  0
 62 65  1  0  0  0  0
 64 72  2  0  0  0  0
 66 74  2  0  0  0  0
 67 76  2  0  0  0  0
 68 77  2  0  0  0  0
 69 79  1  0  0  0  0
 69 81  2  0  0  0  0
 70 83  2  0  0  0  0
 70 84  1  0  0  0  0
 72 74  1  0  0  0  0
 73 80  1  0  0  0  0
 73 85  2  0  0  0  0
 76 77  1  0  0  0  0
 78 86  1  0  0  0  0
 78 87  2  0  0  0  0
 79 82  2  0  0  0  0
 80 90  2  0  0  0  0
 81 88  1  0  0  0  0
 82 91  1  0  0  0  0
 83 94  1  0  0  0  0
 84 95  2  0  0  0  0
 85 89  1  0  0  0  0
 86 92  2  0  0  0  0
 87 97  1  0  0  0  0
 88 91  2  0  0  0  0
 89 96  2  0  0  0  0
 90 96  1  0  0  0  0
 92 93  1  0  0  0  0
 93 97  2  0  0  0  0
 94 98  2  0  0  0  0
 95 98  1  0  0  0  0
105109  2  0  0  0  0
105111  1  0  0  0  0
106110  1  0  0  0  0
106112  2  0  0  0  0
107108  1  0  0  0  0
109113  1  0  0  0  0
110114  2  0  0  0  0
111117  2  0  0  0  0
112118  1  0  0  0  0
113115  2  0  0  0  0
113119  1  0  0  0  0
114116  1  0  0  0  0
114121  1  0  0  0  0
115117  1  0  0  0  0
115120  1  0  0  0  0
116118  2  0  0  0  0
116122  1  0  0  0  0
119125  2  0  0  0  0
120123  2  0  0  0  0
121126  2  0  0  0  0
122124  2  0  0  0  0
123125  1  0  0  0  0
123127  1  0  0  0  0
124126  1  0  0  0  0
M  END
> <PUBCHEM_COMPOUND_ID_TYPE>
0

> <PUBCHEM_TOTAL_CHARGE>
0

> <PUBCHEM_SUBSTANCE_ID>
310946704

> <PUBCHEM_SUBSTANCE_VERSION>
1

> <PUBCHEM_EXT_DATASOURCE_NAME>
4488

> <PUBCHEM_EXT_DATASOURCE_REGID>
SCHEMBL16124828

> <PUBCHEM_SUBSTANCE_COMMENT>
InChI=1S/C90H60N14O21S3/c1-103-66-31-29-62(72-74(66)70(58-15-6-8-17-60(58)80(72)108)76(82(103)110)78(106)45-11-4-3-5-12-45)93-52-24-33-69(128(120,121)122)65(42-52)96-88-98-86(100-90(102-88)125-56-28-23-48-38-54(123-44-105)26-21-49(48)40-56)92-36-35-91-85-97-87(101-89(99-85)124-55-27-22-46-37-51(84(112)113)20-19-47(46)39-55)94-53-25-34-68(127(117,118)119)64(43-53)95-63-30-32-67-75-71(59-16-7-9-18-61(59)81(109)73(63)75)77(83(111)104(67)2)79(107)50-13-10-14-57(41-50)126(114,115)116/h3-34,37-44,93,95H,35-36H2,1-2H3,(H,112,113)(H,114,115,116)(H,117,118,119)(H,120,121,122)(H2,91,94,97,99,101)(H2,92,96,98,100,102)
InChIKey=CWQSUVAIGGIVOA-UHFFFAOYSA-N

> <PUBCHEM_SUBSTANCE_SYNONYM>
SCHEMBL16124828

> <PUBCHEM_XREF_EXT_ID>
SCHEMBL16124828

> <PUBCHEM_EXT_DATASOURCE_URL>
https://www.surechembl.org/

> <PUBCHEM_EXT_SUBSTANCE_URL>
https://www.surechembl.org/chemical/SCHEMBL16124828

> <PUBCHEM_CID_ASSOCIATIONS>
117612595  1

> <PUBCHEM_COORDINATE_TYPE>
1
3

$$$$
