310943520
  -OEChem-07211613022D

 38 42  0     1  0  0  0  0  0999 V2000
    2.8336   -2.6907    0.0000 F   0  0  0  0  0  0  0  0  0  0  0  0
    4.2622   -2.6907    0.0000 F   0  0  0  0  0  0  0  0  0  0  0  0
   -1.8335   -2.3256    0.0000 O   0  0  0  0  0  0  0  0  0  0  0  0
   -2.8653   -1.2779    0.0000 O   0  0  0  0  0  0  0  0  0  0  0  0
   -4.2622    2.2463    0.0000 O   0  0  0  0  0  0  0  0  0  0  0  0
    1.4207   -0.2302    0.0000 O   0  0  0  0  0  0  0  0  0  0  0  0
   -1.4207   -1.0397    0.0000 N   0  0  0  0  0  0  0  0  0  0  0  0
   -0.7223    0.1984    0.0000 N   0  0  0  0  0  0  0  0  0  0  0  0
   -2.1351    0.1984    0.0000 N   0  0  0  0  0  0  0  0  0  0  0  0
   -2.8495    1.4366    0.0000 N   0  0  0  0  0  0  0  0  0  0  0  0
    2.1192    1.0239    0.0000 N   0  0  0  0  0  0  0  0  0  0  0  0
    4.2622   -1.0397    0.0000 N   0  0  0  0  0  0  0  0  0  0  0  0
   -1.4207   -0.2143    0.0000 C   0  0  0  0  0  0  0  0  0  0  0  0
   -0.7064    1.0239    0.0000 C   0  0  0  0  0  0  0  0  0  0  0  0
   -2.1351    1.0239    0.0000 C   0  0  0  0  0  0  0  0  0  0  0  0
   -0.0079    1.4366    0.0000 C   0  0  0  0  0  0  0  0  0  0  0  0
   -1.4207    1.4366    0.0000 C   0  0  0  0  0  0  0  0  0  0  0  0
   -2.0716   -1.5478    0.0000 C   0  0  0  0  0  0  0  0  0  0  0  0
   -0.7540   -1.5319    0.0000 C   0  0  3  0  0  0  0  0  0  0  0  0
   -0.0079    2.2621    0.0000 C   0  0  0  0  0  0  0  0  0  0  0  0
    0.7223    1.0239    0.0000 C   0  0  0  0  0  0  0  0  0  0  0  0
   -1.0239   -2.3256    0.0000 C   0  0  0  0  0  0  0  0  0  0  0  0
    1.4049    1.4525    0.0000 C   0  0  0  0  0  0  0  0  0  0  0  0
    0.7064    2.6590    0.0000 C   0  0  0  0  0  0  0  0  0  0  0  0
    1.4049    2.2621    0.0000 C   0  0  0  0  0  0  0  0  0  0  0  0
   -2.8495    2.2621    0.0000 C   0  0  0  0  0  0  0  0  0  0  0  0
   -3.5479    1.0239    0.0000 C   0  0  0  0  0  0  0  0  0  0  0  0
    0.0079   -1.2779    0.0000 C   0  0  0  0  0  0  0  0  0  0  0  0
    2.1351    0.2143    0.0000 C   0  0  0  0  0  0  0  0  0  0  0  0
    2.8336   -0.2143    0.0000 C   0  0  0  0  0  0  0  0  0  0  0  0
   -0.7064    2.6907    0.0000 C   0  0  0  0  0  0  0  0  0  0  0  0
   -3.5479    2.6749    0.0000 C   0  0  0  0  0  0  0  0  0  0  0  0
   -4.2622    1.4207    0.0000 C   0  0  0  0  0  0  0  0  0  0  0  0
    2.8336   -1.0397    0.0000 C   0  0  0  0  0  0  0  0  0  0  0  0
    3.5479   -1.4525    0.0000 C   0  0  0  0  0  0  0  0  0  0  0  0
    3.5479    0.1984    0.0000 C   0  0  0  0  0  0  0  0  0  0  0  0
    4.2463   -0.2143    0.0000 C   0  0  0  0  0  0  0  0  0  0  0  0
    3.5321   -2.2779    0.0000 C   0  0  0  0  0  0  0  0  0  0  0  0
  1 38  1  0  0  0  0
  2 38  1  0  0  0  0
  3 18  1  0  0  0  0
  3 22  1  0  0  0  0
  4 18  2  0  0  0  0
  5 32  1  0  0  0  0
  5 33  1  0  0  0  0
  6 29  2  0  0  0  0
  7 13  1  0  0  0  0
  7 18  1  0  0  0  0
  7 19  1  0  0  0  0
  8 13  2  0  0  0  0
  8 14  1  0  0  0  0
  9 13  1  0  0  0  0
  9 15  2  0  0  0  0
 10 15  1  0  0  0  0
 10 26  1  0  0  0  0
 10 27  1  0  0  0  0
 11 23  1  0  0  0  0
 11 29  1  0  0  0  0
 12 35  2  0  0  0  0
 12 37  1  0  0  0  0
 14 16  1  0  0  0  0
 14 17  2  0  0  0  0
 15 17  1  0  0  0  0
 16 20  1  0  0  0  0
 16 21  2  0  0  0  0
 19 22  1  0  0  0  0
 19 28  1  1  0  0  0
 20 24  2  0  0  0  0
 20 31  1  0  0  0  0
 21 23  1  0  0  0  0
 23 25  2  0  0  0  0
 24 25  1  0  0  0  0
 26 32  1  0  0  0  0
 27 33  1  0  0  0  0
 29 30  1  0  0  0  0
 30 34  2  0  0  0  0
 30 36  1  0  0  0  0
 34 35  1  0  0  0  0
 35 38  1  0  0  0  0
 36 37  2  0  0  0  0
M  END
> <PUBCHEM_COMPOUND_ID_TYPE>
0

> <PUBCHEM_TOTAL_CHARGE>
0

> <PUBCHEM_SUBSTANCE_ID>
310943520

> <PUBCHEM_SUBSTANCE_VERSION>
1

> <PUBCHEM_EXT_DATASOURCE_NAME>
4488

> <PUBCHEM_EXT_DATASOURCE_REGID>
SCHEMBL16121586

> <PUBCHEM_SUBSTANCE_COMMENT>
InChI=1S/C26H26F2N6O4/c1-15-3-4-18(30-24(35)17-5-6-29-21(11-17)23(27)28)12-19(15)20-13-22(33-7-9-37-10-8-33)32-25(31-20)34-16(2)14-38-26(34)36/h3-6,11-13,16,23H,7-10,14H2,1-2H3,(H,30,35)/t16-/m0/s1
InChIKey=LMNAUDLPCXMVJV-INIZCTEOSA-N

> <PUBCHEM_SUBSTANCE_SYNONYM>
SCHEMBL16121586

> <PUBCHEM_XREF_EXT_ID>
SCHEMBL16121586

> <PUBCHEM_EXT_DATASOURCE_URL>
https://www.surechembl.org/

> <PUBCHEM_EXT_SUBSTANCE_URL>
https://www.surechembl.org/chemical/SCHEMBL16121586

> <PUBCHEM_CID_ASSOCIATIONS>
117609935  1

> <PUBCHEM_COORDINATE_TYPE>
1
3

> <PUBCHEM_BONDANNOTATIONS>
19  28  5

$$$$
