310946359
  -OEChem-07211613022D

 25 26  0     1  0  0  0  0  0999 V2000
   -1.2091    5.1618    0.0000 I   0  0  0  0  0  0  0  0  0  0  0  0
    0.2198    7.6368    0.0000 I   0  0  0  0  0  0  0  0  0  0  0  0
    3.0777    6.8118    0.0000 S   0  0  0  0  0  0  0  0  0  0  0  0
   -1.2091    6.8118    0.0000 O   0  0  0  0  0  0  0  0  0  0  0  0
    2.6652    7.5263    0.0000 O   0  0  0  0  0  0  0  0  0  0  0  0
    3.4902    6.0974    0.0000 O   0  0  0  0  0  0  0  0  0  0  0  0
   -4.0670    5.1618    0.0000 O   0  0  0  0  0  0  0  0  0  0  0  0
    2.3632    6.3993    0.0000 N   0  0  0  0  0  0  0  0  0  0  0  0
   -0.4946    6.3993    0.0000 C   0  0  0  0  0  0  0  0  0  0  0  0
   -0.4946    5.5743    0.0000 C   0  0  0  0  0  0  0  0  0  0  0  0
    0.2198    6.8118    0.0000 C   0  0  0  0  0  0  0  0  0  0  0  0
    0.9343    5.5743    0.0000 C   0  0  0  0  0  0  0  0  0  0  0  0
    0.2198    5.1618    0.0000 C   0  0  0  0  0  0  0  0  0  0  0  0
    0.9343    6.3993    0.0000 C   0  0  0  0  0  0  0  0  0  0  0  0
   -1.9236    6.3993    0.0000 C   0  0  0  0  0  0  0  0  0  0  0  0
    1.6488    5.1618    0.0000 C   0  0  0  0  0  0  0  0  0  0  0  0
    2.3632    5.5743    0.0000 C   0  0  3  0  0  0  0  0  0  0  0  0
   -2.6381    6.8118    0.0000 C   0  0  0  0  0  0  0  0  0  0  0  0
   -1.9236    5.5743    0.0000 C   0  0  0  0  0  0  0  0  0  0  0  0
   -3.3525    5.5743    0.0000 C   0  0  0  0  0  0  0  0  0  0  0  0
   -3.3525    6.3993    0.0000 C   0  0  0  0  0  0  0  0  0  0  0  0
   -2.6381    5.1618    0.0000 C   0  0  0  0  0  0  0  0  0  0  0  0
    3.0777    5.1618    0.0000 C   0  0  0  0  0  0  0  0  0  0  0  0
    3.7922    7.2243    0.0000 C   0  0  0  0  0  0  0  0  0  0  0  0
    3.7922    5.5743    0.0000 C   0  0  0  0  0  0  0  0  0  0  0  0
  1 10  1  0  0  0  0
  2 11  1  0  0  0  0
  3  5  2  0  0  0  0
  3  6  2  0  0  0  0
  3  8  1  0  0  0  0
  3 24  1  0  0  0  0
  4  9  1  0  0  0  0
  4 15  1  0  0  0  0
  7 20  1  0  0  0  0
 17  8  1  6  0  0  0
  9 10  2  0  0  0  0
  9 11  1  0  0  0  0
 10 13  1  0  0  0  0
 11 14  2  0  0  0  0
 12 13  2  0  0  0  0
 12 14  1  0  0  0  0
 12 16  1  0  0  0  0
 15 18  2  0  0  0  0
 15 19  1  0  0  0  0
 16 17  1  0  0  0  0
 17 23  1  0  0  0  0
 18 21  1  0  0  0  0
 19 22  2  0  0  0  0
 20 21  2  0  0  0  0
 20 22  1  0  0  0  0
 23 25  1  0  0  0  0
M  END
> <PUBCHEM_COMPOUND_ID_TYPE>
0

> <PUBCHEM_TOTAL_CHARGE>
0

> <PUBCHEM_SUBSTANCE_ID>
310946359

> <PUBCHEM_SUBSTANCE_VERSION>
1

> <PUBCHEM_EXT_DATASOURCE_NAME>
4488

> <PUBCHEM_EXT_DATASOURCE_REGID>
SCHEMBL16124478

> <PUBCHEM_SUBSTANCE_COMMENT>
InChI=1S/C17H19I2NO4S/c1-3-12(20-25(2,22)23)8-11-9-15(18)17(16(19)10-11)24-14-6-4-13(21)5-7-14/h4-7,9-10,12,20-21H,3,8H2,1-2H3/t12-/m1/s1
InChIKey=GZWZJSGFVRBVHS-GFCCVEGCSA-N

> <PUBCHEM_SUBSTANCE_SYNONYM>
SCHEMBL16124478

> <PUBCHEM_XREF_EXT_ID>
SCHEMBL16124478

> <PUBCHEM_EXT_DATASOURCE_URL>
https://www.surechembl.org/

> <PUBCHEM_EXT_SUBSTANCE_URL>
https://www.surechembl.org/chemical/SCHEMBL16124478

> <PUBCHEM_CID_ASSOCIATIONS>
117612282  1

> <PUBCHEM_COORDINATE_TYPE>
1
3

> <PUBCHEM_BONDANNOTATIONS>
17  8  6

$$$$
