310936495
  -OEChem-07211613022D

 26 28  0     1  0  0  0  0  0999 V2000
    6.5042   -1.0932    0.0000 O   0  0  0  0  0  0  0  0  0  0  0  0
    3.5024   -3.0734    0.0000 O   0  0  0  0  0  0  0  0  0  0  0  0
    2.6378   -3.9979    0.0000 O   0  0  0  0  0  0  0  0  0  0  0  0
    1.2089   -3.9979    0.0000 O   0  0  0  0  0  0  0  0  0  0  0  0
    1.9233   -2.7604    0.0000 N   0  0  0  0  0  0  0  0  0  0  0  0
    1.9233   -0.2854    0.0000 C   0  0  3  0  0  0  0  0  0  0  0  0
    1.9233   -1.1104    0.0000 C   0  0  3  0  0  0  0  0  0  0  0  0
    3.3523   -1.1104    0.0000 C   0  0  3  0  0  0  0  0  0  0  0  0
    4.0668   -1.5229    0.0000 C   0  0  3  0  0  0  0  0  0  0  0  0
    2.6378   -1.5229    0.0000 C   0  0  3  0  0  0  0  0  0  0  0  0
    1.1387   -0.0305    0.0000 C   0  0  0  0  0  0  0  0  0  0  0  0
    2.6378    0.1271    0.0000 C   0  0  0  0  0  0  0  0  0  0  0  0
    4.5971   -2.1549    0.0000 C   0  0  3  0  0  0  0  0  0  0  0  0
    3.3523   -0.2854    0.0000 C   0  0  0  0  0  0  0  0  0  0  0  0
    1.1387   -1.3654    0.0000 C   0  0  0  0  0  0  0  0  0  0  0  0
    4.3489   -0.7477    0.0000 C   0  0  0  0  0  0  0  0  0  0  0  0
    0.6538   -0.6979    0.0000 C   0  0  0  0  0  0  0  0  0  0  0  0
    2.6378   -2.3479    0.0000 C   0  0  0  0  0  0  0  0  0  0  0  0
    1.8371    0.5350    0.0000 C   0  0  0  0  0  0  0  0  0  0  0  0
    3.5365   -2.1549    0.0000 C   0  0  0  0  0  0  0  0  0  0  0  0
    5.4095   -2.0117    0.0000 C   0  0  0  0  0  0  0  0  0  0  0  0
    5.1614   -0.6044    0.0000 C   0  0  0  0  0  0  0  0  0  0  0  0
    5.6917   -1.2364    0.0000 C   0  0  3  0  0  0  0  0  0  0  0  0
    4.3149   -2.9302    0.0000 C   0  0  0  0  0  0  0  0  0  0  0  0
    0.8838    0.7541    0.0000 C   0  0  0  0  0  0  0  0  0  0  0  0
    1.9233   -3.5854    0.0000 C   0  0  0  0  0  0  0  0  0  0  0  0
 23  1  1  6  0  0  0
  2 24  1  0  0  0  0
  3 26  2  0  0  0  0
  4 26  1  0  0  0  0
  5 18  1  0  0  0  0
  5 26  1  0  0  0  0
  6  7  1  0  0  0  0
  6 11  1  0  0  0  0
  6 12  1  0  0  0  0
  6 19  1  6  0  0  0
  7 10  1  0  0  0  0
  7 15  1  6  0  0  0
  8  9  1  0  0  0  0
  8 10  1  0  0  0  0
  8 14  1  6  0  0  0
  9 13  1  0  0  0  0
  9 16  1  0  0  0  0
  9 20  1  1  0  0  0
 10 18  1  1  0  0  0
 11 17  1  0  0  0  0
 11 25  2  0  0  0  0
 12 14  1  0  0  0  0
 13 21  1  0  0  0  0
 13 24  1  6  0  0  0
 15 17  1  0  0  0  0
 16 22  1  0  0  0  0
 21 23  1  0  0  0  0
 22 23  1  0  0  0  0
M  END
> <PUBCHEM_COMPOUND_ID_TYPE>
0

> <PUBCHEM_TOTAL_CHARGE>
0

> <PUBCHEM_SUBSTANCE_ID>
310936495

> <PUBCHEM_SUBSTANCE_VERSION>
1

> <PUBCHEM_EXT_DATASOURCE_NAME>
4488

> <PUBCHEM_EXT_DATASOURCE_REGID>
SCHEMBL16114144

> <PUBCHEM_SUBSTANCE_COMMENT>
InChI=1S/C21H35NO4/c1-13-4-5-17-16(11-22-19(25)26)18(7-9-20(13,17)2)21(3)8-6-15(24)10-14(21)12-23/h14-18,22-24H,1,4-12H2,2-3H3,(H,25,26)/t14-,15+,16+,17+,18+,20-,21-/m1/s1
InChIKey=ORHJEPAPJBJUFD-NTPVPYKGSA-N

> <PUBCHEM_SUBSTANCE_SYNONYM>
SCHEMBL16114144

> <PUBCHEM_XREF_EXT_ID>
SCHEMBL16114144

> <PUBCHEM_EXT_DATASOURCE_URL>
https://www.surechembl.org/

> <PUBCHEM_EXT_SUBSTANCE_URL>
https://www.surechembl.org/chemical/SCHEMBL16114144

> <PUBCHEM_CID_ASSOCIATIONS>
117604422  1

> <PUBCHEM_COORDINATE_TYPE>
1
3

> <PUBCHEM_BONDANNOTATIONS>
23  1  6
10  18  5
13  24  6
6  19  6
7  15  6
8  14  6
9  20  5

$$$$
