310929470
  -OEChem-07211613022D

 50 52  0     1  0  0  0  0  0999 V2000
    1.3920    1.8649    0.0000 Br  0  0  0  0  0  0  0  0  0  0  0  0
    1.1105   -1.4230    0.0000 S   0  0  0  0  0  0  0  0  0  0  0  0
    3.9302   -1.4535    0.0000 O   0  0  0  0  0  0  0  0  0  0  0  0
    5.2633   -0.9389    0.0000 O   0  0  0  0  0  0  0  0  0  0  0  0
    1.0401   -2.2450    0.0000 O   0  0  0  0  0  0  0  0  0  0  0  0
    4.2451   -3.7953    0.0000 O   0  0  0  0  0  0  0  0  0  0  0  0
    3.6023   -4.7170    0.0000 O   0  0  0  0  0  0  0  0  0  0  0  0
    0.2885   -1.3527    0.0000 O   0  0  0  0  0  0  0  0  0  0  0  0
    1.9325   -1.4934    0.0000 O   0  0  0  0  0  0  0  0  0  0  0  0
    1.1719   -6.4320    0.0000 O   0  0  0  0  0  0  0  0  0  0  0  0
    2.2521   -7.3675    0.0000 O   0  0  0  0  0  0  0  0  0  0  0  0
    4.2175   -2.3666    0.0000 N   0  0  0  0  0  0  0  0  0  0  0  0
    2.5221   -3.7815    0.0000 N   0  0  0  0  0  0  0  0  0  0  0  0
    2.5221   -5.9643    0.0000 N   0  0  0  0  0  0  0  0  0  0  0  0
    5.0424   -2.3507    0.0000 C   0  0  3  0  0  0  0  0  0  0  0  0
    5.8655   -2.4067    0.0000 C   0  0  3  0  0  0  0  0  0  0  0  0
    5.4054   -3.0915    0.0000 C   0  0  0  0  0  0  0  0  0  0  0  0
    2.9941   -3.1049    0.0000 C   0  0  3  0  0  0  0  0  0  0  0  0
    4.7453   -1.5810    0.0000 C   0  0  0  0  0  0  0  0  0  0  0  0
    3.8189   -3.0889    0.0000 C   0  0  0  0  0  0  0  0  0  0  0  0
    6.0636   -1.6059    0.0000 C   0  0  0  0  0  0  0  0  0  0  0  0
    6.6198   -2.7409    0.0000 C   0  0  0  0  0  0  0  0  0  0  0  0
    1.7168   -2.7170    0.0000 C   0  0  3  0  0  0  0  0  0  0  0  0
    2.4963   -2.4469    0.0000 C   0  0  0  0  0  0  0  0  0  0  0  0
    1.7327   -3.5418    0.0000 C   0  0  0  0  0  0  0  0  0  0  0  0
    2.7922   -4.5611    0.0000 C   0  0  0  0  0  0  0  0  0  0  0  0
    2.2521   -5.1847    0.0000 C   0  0  3  0  0  0  0  0  0  0  0  0
    6.8562   -1.3770    0.0000 C   0  0  0  0  0  0  0  0  0  0  0  0
    6.7075   -3.5612    0.0000 C   0  0  0  0  0  0  0  0  0  0  0  0
    1.4419   -5.0288    0.0000 C   0  0  0  0  0  0  0  0  0  0  0  0
    1.1809   -0.6010    0.0000 C   0  0  0  0  0  0  0  0  0  0  0  0
    1.9820   -6.5879    0.0000 C   0  0  0  0  0  0  0  0  0  0  0  0
    1.9279   -0.2510    0.0000 C   0  0  0  0  0  0  0  0  0  0  0  0
    0.5042   -0.1291    0.0000 C   0  0  0  0  0  0  0  0  0  0  0  0
    0.9019   -5.6525    0.0000 C   0  0  0  0  0  0  0  0  0  0  0  0
    1.9983    0.5710    0.0000 C   0  0  0  0  0  0  0  0  0  0  0  0
    0.5746    0.6929    0.0000 C   0  0  0  0  0  0  0  0  0  0  0  0
    1.3216    1.0430    0.0000 C   0  0  0  0  0  0  0  0  0  0  0  0
    0.0917   -5.4966    0.0000 C   0  0  0  0  0  0  0  0  0  0  0  0
    0.6318   -7.0557    0.0000 C   0  0  0  0  0  0  0  0  0  0  0  0
   -0.4484   -6.1202    0.0000 C   0  0  0  0  0  0  0  0  0  0  0  0
    1.2555   -7.5958    0.0000 C   0  0  0  0  0  0  0  0  0  0  0  0
    0.0082   -6.5156    0.0000 C   0  0  0  0  0  0  0  0  0  0  0  0
    0.0917   -7.6793    0.0000 C   0  0  0  0  0  0  0  0  0  0  0  0
   -1.2585   -5.9643    0.0000 C   0  0  0  0  0  0  0  0  0  0  0  0
   -1.7986   -6.5879    0.0000 C   0  0  0  0  0  0  0  0  0  0  0  0
   -2.6087   -6.4320    0.0000 C   0  0  0  0  0  0  0  0  0  0  0  0
    3.3543   -2.3627    0.0000 H   0  0  0  0  0  0  0  0  0  0  0  0
    0.9891   -3.1056    0.0000 H   0  0  0  0  0  0  0  0  0  0  0  0
    1.9820   -4.4052    0.0000 H   0  0  0  0  0  0  0  0  0  0  0  0
  1 38  1  0  0  0  0
  2  5  1  0  0  0  0
  2  8  2  0  0  0  0
  2  9  2  0  0  0  0
  2 31  1  0  0  0  0
  3 19  2  0  0  0  0
  4 19  1  0  0  0  0
 23  5  1  1  0  0  0
  6 20  2  0  0  0  0
  7 26  2  0  0  0  0
 10 32  1  0  0  0  0
 10 40  1  0  0  0  0
 11 32  2  0  0  0  0
 15 12  1  1  0  0  0
 12 20  1  0  0  0  0
 13 18  1  0  0  0  0
 13 25  1  0  0  0  0
 13 26  1  0  0  0  0
 27 14  1  6  0  0  0
 14 32  1  0  0  0  0
 15 16  1  0  0  0  0
 15 17  1  0  0  0  0
 15 19  1  6  0  0  0
 16 17  1  0  0  0  0
 16 21  1  1  0  0  0
 16 22  1  6  0  0  0
 18 20  1  1  0  0  0
 18 24  1  0  0  0  0
 18 48  1  6  0  0  0
 21 28  1  0  0  0  0
 22 29  2  0  0  0  0
 23 24  1  0  0  0  0
 23 25  1  0  0  0  0
 23 49  1  6  0  0  0
 26 27  1  0  0  0  0
 27 30  1  0  0  0  0
 27 50  1  6  0  0  0
 30 35  1  0  0  0  0
 31 33  2  0  0  0  0
 31 34  1  0  0  0  0
 33 36  1  0  0  0  0
 34 37  2  0  0  0  0
 35 39  1  0  0  0  0
 36 38  2  0  0  0  0
 37 38  1  0  0  0  0
 39 41  1  0  0  0  0
 40 42  1  0  0  0  0
 40 43  1  0  0  0  0
 40 44  1  0  0  0  0
 41 45  1  0  0  0  0
 45 46  1  0  0  0  0
 46 47  2  0  0  0  0
M  END
> <PUBCHEM_COMPOUND_ID_TYPE>
0

> <PUBCHEM_TOTAL_CHARGE>
0

> <PUBCHEM_SUBSTANCE_ID>
310929470

> <PUBCHEM_SUBSTANCE_VERSION>
1

> <PUBCHEM_EXT_DATASOURCE_NAME>
4488

> <PUBCHEM_EXT_DATASOURCE_REGID>
SCHEMBL16106644

> <PUBCHEM_SUBSTANCE_COMMENT>
InChI=1S/C33H46BrN3O9S/c1-7-10-11-12-13-14-25(35-30(42)45-31(4,5)6)28(39)37-20-23(46-47(43,44)24-17-15-22(34)16-18-24)19-26(37)27(38)36-33(29(40)41)21-32(33,8-2)9-3/h7-8,15-18,23,25-26H,1-2,9-14,19-21H2,3-6H3,(H,35,42)(H,36,38)(H,40,41)/t23-,25-,26-,32-,33-/m0/s1
InChIKey=DNWYXZNGHZOYIN-SYHBUMMZSA-N

> <PUBCHEM_SUBSTANCE_SYNONYM>
SCHEMBL16106644

> <PUBCHEM_XREF_EXT_ID>
SCHEMBL16106644

> <PUBCHEM_EXT_DATASOURCE_URL>
https://www.surechembl.org/

> <PUBCHEM_EXT_SUBSTANCE_URL>
https://www.surechembl.org/chemical/SCHEMBL16106644

> <PUBCHEM_CID_ASSOCIATIONS>
117598809  1

> <PUBCHEM_COORDINATE_TYPE>
1
3

> <PUBCHEM_BONDANNOTATIONS>
15  12  5
27  14  6
15  19  6
16  21  5
16  22  6
18  20  5
18  48  6
23  49  6
27  50  6
23  5  5

$$$$
