310931588
  -OEChem-07211613022D

 20 21  0     0  0  0  0  0  0999 V2000
    1.1112   -3.1749    0.0000 F   0  0  0  0  0  0  0  0  0  0  0  0
    2.3494   -2.4606    0.0000 F   0  0  0  0  0  0  0  0  0  0  0  0
    0.7144   -2.4606    0.0000 F   0  0  0  0  0  0  0  0  0  0  0  0
    0.0000   -2.0478    0.0000 F   0  0  0  0  0  0  0  0  0  0  0  0
    1.2382   -2.7622    0.0000 F   0  0  0  0  0  0  0  0  0  0  0  0
    0.4128   -1.3334    0.0000 F   0  0  0  0  0  0  0  0  0  0  0  0
    2.9209   -2.4606    0.0000 O   0  0  0  0  0  0  0  0  0  0  0  0
    4.3655    0.0000    0.0000 O   0  0  0  0  0  0  0  0  0  0  0  0
    0.8096   -1.2382    0.0000 N   0  0  0  0  0  0  0  0  0  0  0  0
    1.5240    0.0000    0.0000 N   0  0  0  0  0  0  0  0  0  0  0  0
    2.9368    0.0000    0.0000 N   0  0  0  0  0  0  0  0  0  0  0  0
    3.6512   -1.2382    0.0000 N   0  0  0  0  0  0  0  0  0  0  0  0
    1.5240   -1.6509    0.0000 C   0  0  0  0  0  0  0  0  0  0  0  0
    2.2383   -1.2382    0.0000 C   0  0  0  0  0  0  0  0  0  0  0  0
    1.5240   -2.4606    0.0000 C   0  0  0  0  0  0  0  0  0  0  0  0
    0.8255   -2.0478    0.0000 C   0  0  0  0  0  0  0  0  0  0  0  0
    2.2383   -0.4128    0.0000 C   0  0  0  0  0  0  0  0  0  0  0  0
    2.9368   -1.6509    0.0000 C   0  0  0  0  0  0  0  0  0  0  0  0
    0.8096   -0.4128    0.0000 C   0  0  0  0  0  0  0  0  0  0  0  0
    3.6512   -0.4128    0.0000 C   0  0  0  0  0  0  0  0  0  0  0  0
  1 15  1  0  0  0  0
  2 15  1  0  0  0  0
  3 15  1  0  0  0  0
  4 16  1  0  0  0  0
  5 16  1  0  0  0  0
  6 16  1  0  0  0  0
  7 18  2  0  0  0  0
  8 20  2  0  0  0  0
  9 13  1  0  0  0  0
  9 19  2  0  0  0  0
 10 17  1  0  0  0  0
 10 19  1  0  0  0  0
 11 17  1  0  0  0  0
 11 20  1  0  0  0  0
 12 18  1  0  0  0  0
 12 20  1  0  0  0  0
 13 14  1  0  0  0  0
 13 15  1  0  0  0  0
 13 16  1  0  0  0  0
 14 17  2  0  0  0  0
 14 18  1  0  0  0  0
M  END
> <PUBCHEM_COMPOUND_ID_TYPE>
0

> <PUBCHEM_TOTAL_CHARGE>
0

> <PUBCHEM_SUBSTANCE_ID>
310931588

> <PUBCHEM_SUBSTANCE_VERSION>
1

> <PUBCHEM_EXT_DATASOURCE_NAME>
4488

> <PUBCHEM_EXT_DATASOURCE_REGID>
SCHEMBL16108914

> <PUBCHEM_SUBSTANCE_COMMENT>
InChI=1S/C8H4F6N4O2/c9-7(10,11)6(8(12,13)14)2-3(15-1-16-6)17-5(20)18-4(2)19/h1H,(H3,15,16,17,18,19,20)
InChIKey=MIKAJWNJQJQRKR-UHFFFAOYSA-N

> <PUBCHEM_SUBSTANCE_SYNONYM>
SCHEMBL16108914

> <PUBCHEM_XREF_EXT_ID>
SCHEMBL16108914

> <PUBCHEM_EXT_DATASOURCE_URL>
https://www.surechembl.org/

> <PUBCHEM_EXT_SUBSTANCE_URL>
https://www.surechembl.org/chemical/SCHEMBL16108914

> <PUBCHEM_CID_ASSOCIATIONS>
117600323  1

> <PUBCHEM_COORDINATE_TYPE>
1
3

$$$$
