310935401
  -OEChem-07211613022D

 25 27  0     0  0  0  0  0  0999 V2000
    2.1500   -2.5000    0.0000 F   0  0  0  0  0  0  0  0  0  0  0  0
    7.5000   -0.8500    0.0000 F   0  0  0  0  0  0  0  0  0  0  0  0
    3.6750   -0.1750    0.0000 O   0  0  0  0  0  0  0  0  0  0  0  0
    0.7500   -1.7000    0.0000 O   0  0  0  0  0  0  0  0  0  0  0  0
    3.3750   -2.9250    0.0000 O   0  0  0  0  0  0  0  0  0  0  0  0
    0.0250   -0.4000    0.0000 O   0  0  0  0  0  0  0  0  0  0  0  0
    4.7250   -2.4750    0.0000 N   0  0  0  0  0  0  0  0  0  0  0  0
    2.8750   -1.2750    0.0000 C   0  0  0  0  0  0  0  0  0  0  0  0
    3.6750   -1.5000    0.0000 C   0  0  0  0  0  0  0  0  0  0  0  0
    2.8750   -0.4000    0.0000 C   0  0  0  0  0  0  0  0  0  0  0  0
    4.1750   -0.8500    0.0000 C   0  0  0  0  0  0  0  0  0  0  0  0
    2.1500   -1.6750    0.0000 C   0  0  0  0  0  0  0  0  0  0  0  0
    1.4500   -1.2750    0.0000 C   0  0  0  0  0  0  0  0  0  0  0  0
    5.0000   -0.8500    0.0000 C   0  0  0  0  0  0  0  0  0  0  0  0
    2.1500   -0.0250    0.0000 C   0  0  0  0  0  0  0  0  0  0  0  0
    1.4500   -0.4000    0.0000 C   0  0  0  0  0  0  0  0  0  0  0  0
    3.9250   -2.3000    0.0000 C   0  0  0  0  0  0  0  0  0  0  0  0
    5.4250   -0.1250    0.0000 C   0  0  0  0  0  0  0  0  0  0  0  0
    5.4250   -1.5500    0.0000 C   0  0  0  0  0  0  0  0  0  0  0  0
    0.7500    0.0000    0.0000 C   0  0  0  0  0  0  0  0  0  0  0  0
    6.2500   -0.1250    0.0000 C   0  0  0  0  0  0  0  0  0  0  0  0
    6.2500   -1.5500    0.0000 C   0  0  0  0  0  0  0  0  0  0  0  0
    6.6750   -0.8500    0.0000 C   0  0  0  0  0  0  0  0  0  0  0  0
    5.0000   -3.2500    0.0000 C   0  0  0  0  0  0  0  0  0  0  0  0
    0.0000   -1.2500    0.0000 C   0  0  0  0  0  0  0  0  0  0  0  0
  1 12  1  0  0  0  0
  2 23  1  0  0  0  0
  3 10  1  0  0  0  0
  3 11  1  0  0  0  0
  4 13  1  0  0  0  0
  5 17  2  0  0  0  0
  6 20  1  0  0  0  0
  6 25  1  0  0  0  0
  7 17  1  0  0  0  0
  7 24  1  0  0  0  0
  8  9  1  0  0  0  0
  8 10  2  0  0  0  0
  8 12  1  0  0  0  0
  9 11  2  0  0  0  0
  9 17  1  0  0  0  0
 10 15  1  0  0  0  0
 11 14  1  0  0  0  0
 12 13  2  0  0  0  0
 13 16  1  0  0  0  0
 14 18  2  0  0  0  0
 14 19  1  0  0  0  0
 15 16  2  0  0  0  0
 16 20  1  0  0  0  0
 18 21  1  0  0  0  0
 19 22  2  0  0  0  0
 21 23  2  0  0  0  0
 22 23  1  0  0  0  0
M  END
> <PUBCHEM_COMPOUND_ID_TYPE>
0

> <PUBCHEM_TOTAL_CHARGE>
0

> <PUBCHEM_SUBSTANCE_ID>
310935401

> <PUBCHEM_SUBSTANCE_VERSION>
1

> <PUBCHEM_EXT_DATASOURCE_NAME>
4488

> <PUBCHEM_EXT_DATASOURCE_REGID>
SCHEMBL16112942

> <PUBCHEM_SUBSTANCE_COMMENT>
InChI=1S/C18H15F2NO4/c1-21-18(23)14-13-12(7-10(8-24-2)16(22)15(13)20)25-17(14)9-3-5-11(19)6-4-9/h3-7,22H,8H2,1-2H3,(H,21,23)
InChIKey=WBHHLIHZMGBAHO-UHFFFAOYSA-N

> <PUBCHEM_SUBSTANCE_SYNONYM>
SCHEMBL16112942

> <PUBCHEM_XREF_EXT_ID>
SCHEMBL16112942

> <PUBCHEM_EXT_DATASOURCE_URL>
https://www.surechembl.org/

> <PUBCHEM_EXT_SUBSTANCE_URL>
https://www.surechembl.org/chemical/SCHEMBL16112942

> <PUBCHEM_CID_ASSOCIATIONS>
117603447  1

> <PUBCHEM_COORDINATE_TYPE>
1
3

$$$$
