310949328
  -OEChem-07211613022D

 29 31  0     0  0  0  0  0  0999 V2000
   -2.5301   -4.4620    0.0000 F   0  0  0  0  0  0  0  0  0  0  0  0
   -3.6164   -4.1732    0.0000 F   0  0  0  0  0  0  0  0  0  0  0  0
   -3.3139   -3.0870    0.0000 F   0  0  0  0  0  0  0  0  0  0  0  0
    2.8463    4.4620    0.0000 F   0  0  0  0  0  0  0  0  0  0  0  0
    2.0075    3.6370    0.0000 F   0  0  0  0  0  0  0  0  0  0  0  0
    3.6164    3.5820    0.0000 F   0  0  0  0  0  0  0  0  0  0  0  0
    2.7913    2.8120    0.0000 O   0  0  0  0  0  0  0  0  0  0  0  0
   -0.0688   -2.1107    0.0000 N   0  0  0  0  0  0  0  0  0  0  0  0
    0.6463   -0.8732    0.0000 N   0  0  0  0  0  0  0  0  0  0  0  0
    1.3476    0.3644    0.0000 N   0  0  0  0  0  0  0  0  0  0  0  0
   -0.0688    0.3644    0.0000 N   0  0  0  0  0  0  0  0  0  0  0  0
   -2.2138   -3.3345    0.0000 C   0  0  0  0  0  0  0  0  0  0  0  0
   -2.9289   -3.7607    0.0000 C   0  0  0  0  0  0  0  0  0  0  0  0
   -0.7838   -2.5095    0.0000 C   0  0  0  0  0  0  0  0  0  0  0  0
   -0.0688   -1.2720    0.0000 C   0  0  0  0  0  0  0  0  0  0  0  0
    0.6463   -0.0344    0.0000 C   0  0  0  0  0  0  0  0  0  0  0  0
    1.3613    1.2032    0.0000 C   0  0  0  0  0  0  0  0  0  0  0  0
    2.0763    2.4270    0.0000 C   0  0  0  0  0  0  0  0  0  0  0  0
    2.0626    1.6157    0.0000 C   0  0  0  0  0  0  0  0  0  0  0  0
   -2.2001   -2.5095    0.0000 C   0  0  0  0  0  0  0  0  0  0  0  0
   -1.4988   -3.7470    0.0000 C   0  0  0  0  0  0  0  0  0  0  0  0
   -1.4988   -2.1107    0.0000 C   0  0  0  0  0  0  0  0  0  0  0  0
   -0.7838   -3.3345    0.0000 C   0  0  0  0  0  0  0  0  0  0  0  0
    2.8188    3.6370    0.0000 C   0  0  0  0  0  0  0  0  0  0  0  0
   -0.7838   -0.8594    0.0000 C   0  0  0  0  0  0  0  0  0  0  0  0
    0.6463    1.6019    0.0000 C   0  0  0  0  0  0  0  0  0  0  0  0
    1.3476    2.8258    0.0000 C   0  0  0  0  0  0  0  0  0  0  0  0
   -0.7838   -0.0344    0.0000 C   0  0  0  0  0  0  0  0  0  0  0  0
    0.6463    2.4270    0.0000 C   0  0  0  0  0  0  0  0  0  0  0  0
  1 13  1  0  0  0  0
  2 13  1  0  0  0  0
  3 13  1  0  0  0  0
  4 24  1  0  0  0  0
  5 24  1  0  0  0  0
  6 24  1  0  0  0  0
  7 18  1  0  0  0  0
  7 24  1  0  0  0  0
  8 14  1  0  0  0  0
  8 15  1  0  0  0  0
  9 15  2  0  0  0  0
  9 16  1  0  0  0  0
 10 16  1  0  0  0  0
 10 17  1  0  0  0  0
 11 16  2  0  0  0  0
 11 28  1  0  0  0  0
 12 13  1  0  0  0  0
 12 20  2  0  0  0  0
 12 21  1  0  0  0  0
 14 22  2  0  0  0  0
 14 23  1  0  0  0  0
 15 25  1  0  0  0  0
 17 19  2  0  0  0  0
 17 26  1  0  0  0  0
 18 19  1  0  0  0  0
 18 27  2  0  0  0  0
 20 22  1  0  0  0  0
 21 23  2  0  0  0  0
 25 28  2  0  0  0  0
 26 29  2  0  0  0  0
 27 29  1  0  0  0  0
M  END
> <PUBCHEM_COMPOUND_ID_TYPE>
0

> <PUBCHEM_TOTAL_CHARGE>
0

> <PUBCHEM_SUBSTANCE_ID>
310949328

> <PUBCHEM_SUBSTANCE_VERSION>
1

> <PUBCHEM_EXT_DATASOURCE_NAME>
4488

> <PUBCHEM_EXT_DATASOURCE_REGID>
SCHEMBL16127518

> <PUBCHEM_SUBSTANCE_COMMENT>
InChI=1S/C18H12F6N4O/c19-17(20,21)11-4-6-12(7-5-11)26-15-8-9-25-16(28-15)27-13-2-1-3-14(10-13)29-18(22,23)24/h1-10H,(H2,25,26,27,28)
InChIKey=HBIOFTDOZMTYCZ-UHFFFAOYSA-N

> <PUBCHEM_SUBSTANCE_SYNONYM>
SCHEMBL16127518

> <PUBCHEM_XREF_EXT_ID>
SCHEMBL16127518

> <PUBCHEM_EXT_DATASOURCE_URL>
https://www.surechembl.org/

> <PUBCHEM_EXT_SUBSTANCE_URL>
https://www.surechembl.org/chemical/SCHEMBL16127518

> <PUBCHEM_CID_ASSOCIATIONS>
86267864  1

> <PUBCHEM_COORDINATE_TYPE>
1
3

$$$$
