310947708
  -OEChem-07211613022D

 36 39  0     1  0  0  0  0  0999 V2000
   -3.3757   -2.2952    0.0000 Cl  0  0  0  0  0  0  0  0  0  0  0  0
    1.9517   -3.5516    0.0000 Cl  0  0  0  0  0  0  0  0  0  0  0  0
   -1.6669    1.8931    0.0000 S   0  0  0  0  0  0  0  0  0  0  0  0
   -3.0909   -0.6366    0.0000 F   0  0  0  0  0  0  0  0  0  0  0  0
    1.2313   -0.6198    0.0000 O   0  0  0  0  0  0  0  0  0  0  0  0
    0.5110    1.4743    0.0000 O   0  0  0  0  0  0  0  0  0  0  0  0
   -0.2094    0.2010    0.0000 N   0  0  0  0  0  0  0  0  0  0  0  0
   -0.2094   -0.6198    0.0000 C   0  0  3  0  0  0  0  0  0  0  0  0
    1.2481    0.2178    0.0000 C   0  0  3  0  0  0  0  0  0  0  0  0
    0.5110    0.6198    0.0000 C   0  0  0  0  0  0  0  0  0  0  0  0
    0.5110   -1.0386    0.0000 C   0  0  3  0  0  0  0  0  0  0  0  0
   -0.9298    0.6366    0.0000 C   0  0  3  0  0  0  0  0  0  0  0  0
   -0.9466   -1.0554    0.0000 C   0  0  0  0  0  0  0  0  0  0  0  0
   -1.7172    0.1843    0.0000 C   0  0  0  0  0  0  0  0  0  0  0  0
    0.5110   -1.8931    0.0000 C   0  0  0  0  0  0  0  0  0  0  0  0
    1.9517    0.6198    0.0000 C   0  0  0  0  0  0  0  0  0  0  0  0
   -0.9298    1.4575    0.0000 C   0  0  0  0  0  0  0  0  0  0  0  0
   -2.4543    0.2178    0.0000 C   0  0  0  0  0  0  0  0  0  0  0  0
   -2.0690   -0.4858    0.0000 C   0  0  0  0  0  0  0  0  0  0  0  0
   -1.6501   -0.6366    0.0000 C   0  0  0  0  0  0  0  0  0  0  0  0
    1.4491    1.0051    0.0000 C   0  0  0  0  0  0  0  0  0  0  0  0
   -0.9466   -1.8931    0.0000 C   0  0  0  0  0  0  0  0  0  0  0  0
    1.2313   -2.3119    0.0000 C   0  0  0  0  0  0  0  0  0  0  0  0
   -0.2094   -2.3119    0.0000 C   0  0  0  0  0  0  0  0  0  0  0  0
   -2.3705   -1.0386    0.0000 C   0  0  0  0  0  0  0  0  0  0  0  0
   -2.3705   -1.8764    0.0000 C   0  0  0  0  0  0  0  0  0  0  0  0
   -1.6334   -2.2952    0.0000 C   0  0  0  0  0  0  0  0  0  0  0  0
    1.2313   -3.1328    0.0000 C   0  0  0  0  0  0  0  0  0  0  0  0
    2.6721    0.2178    0.0000 C   0  0  0  0  0  0  0  0  0  0  0  0
   -0.1927   -3.1328    0.0000 C   0  0  0  0  0  0  0  0  0  0  0  0
   -1.6669    2.7642    0.0000 C   0  0  0  0  0  0  0  0  0  0  0  0
    0.5277   -3.5516    0.0000 C   0  0  0  0  0  0  0  0  0  0  0  0
    3.3757    0.6868    0.0000 C   0  0  0  0  0  0  0  0  0  0  0  0
   -1.8512    3.5516    0.0000 C   0  0  0  0  0  0  0  0  0  0  0  0
   -2.3872    3.1328    0.0000 C   0  0  0  0  0  0  0  0  0  0  0  0
   -0.9130    3.1495    0.0000 C   0  0  0  0  0  0  0  0  0  0  0  0
  1 26  1  0  0  0  0
  2 28  1  0  0  0  0
  3 17  1  0  0  0  0
  3 31  1  0  0  0  0
  4 25  1  0  0  0  0
  5  9  1  0  0  0  0
 11  5  1  6  0  0  0
  6 10  2  0  0  0  0
  8  7  1  1  0  0  0
  7 10  1  0  0  0  0
  7 12  1  0  0  0  0
  8 11  1  0  0  0  0
  8 13  1  0  0  0  0
  9 10  1  0  0  0  0
  9 16  1  1  0  0  0
  9 21  1  6  0  0  0
 11 15  1  0  0  0  0
 12 14  1  0  0  0  0
 12 17  1  1  0  0  0
 13 20  2  0  0  0  0
 13 22  1  0  0  0  0
 14 18  1  0  0  0  0
 14 19  1  0  0  0  0
 15 23  1  0  0  0  0
 15 24  2  0  0  0  0
 16 29  1  0  0  0  0
 18 19  1  0  0  0  0
 20 25  1  0  0  0  0
 22 27  2  0  0  0  0
 23 28  2  0  0  0  0
 24 30  1  0  0  0  0
 25 26  2  0  0  0  0
 26 27  1  0  0  0  0
 28 32  1  0  0  0  0
 29 33  2  0  0  0  0
 30 32  2  0  0  0  0
 31 34  1  0  0  0  0
 31 35  1  0  0  0  0
 31 36  1  0  0  0  0
M  END
> <PUBCHEM_COMPOUND_ID_TYPE>
0

> <PUBCHEM_TOTAL_CHARGE>
0

> <PUBCHEM_SUBSTANCE_ID>
310947708

> <PUBCHEM_SUBSTANCE_VERSION>
1

> <PUBCHEM_EXT_DATASOURCE_NAME>
4488

> <PUBCHEM_EXT_DATASOURCE_REGID>
SCHEMBL16125879

> <PUBCHEM_SUBSTANCE_COMMENT>
InChI=1S/C29H34Cl2FNO2S/c1-6-14-29(5)27(34)33(24(18-10-11-18)17-36-28(2,3)4)25(19-12-13-22(31)23(32)16-19)26(35-29)20-8-7-9-21(30)15-20/h6-9,12-13,15-16,18,24-26H,1,10-11,14,17H2,2-5H3/t24-,25-,26-,29-/m1/s1
InChIKey=VTWKPYGYMFSCRG-GSTLAZBSSA-N

> <PUBCHEM_SUBSTANCE_SYNONYM>
SCHEMBL16125879

> <PUBCHEM_XREF_EXT_ID>
SCHEMBL16125879

> <PUBCHEM_EXT_DATASOURCE_URL>
https://www.surechembl.org/

> <PUBCHEM_EXT_SUBSTANCE_URL>
https://www.surechembl.org/chemical/SCHEMBL16125879

> <PUBCHEM_CID_ASSOCIATIONS>
117613414  1

> <PUBCHEM_COORDINATE_TYPE>
1
3

> <PUBCHEM_BONDANNOTATIONS>
12  17  5
11  5  6
8  7  5
9  16  5
9  21  6

$$$$
