310946343
  -OEChem-07211613022D

 22 23  0     1  0  0  0  0  0999 V2000
   -1.0922    8.0500    0.0000 I   0  0  0  0  0  0  0  0  0  0  0  0
    0.3368   10.5250    0.0000 I   0  0  0  0  0  0  0  0  0  0  0  0
   -3.9501    9.7000    0.0000 I   0  0  0  0  0  0  0  0  0  0  0  0
   -1.0922    9.7000    0.0000 O   0  0  0  0  0  0  0  0  0  0  0  0
   -3.9501    8.0500    0.0000 O   0  0  0  0  0  0  0  0  0  0  0  0
    3.9091    8.4625    0.0000 O   0  0  0  0  0  0  0  0  0  0  0  0
    2.4802    9.2875    0.0000 N   0  0  0  0  0  0  0  0  0  0  0  0
   -0.3777    9.2875    0.0000 C   0  0  0  0  0  0  0  0  0  0  0  0
   -0.3777    8.4625    0.0000 C   0  0  0  0  0  0  0  0  0  0  0  0
    0.3368    9.7000    0.0000 C   0  0  0  0  0  0  0  0  0  0  0  0
   -1.8066    9.2875    0.0000 C   0  0  0  0  0  0  0  0  0  0  0  0
    1.0512    8.4625    0.0000 C   0  0  0  0  0  0  0  0  0  0  0  0
    0.3368    8.0500    0.0000 C   0  0  0  0  0  0  0  0  0  0  0  0
    1.0512    9.2875    0.0000 C   0  0  0  0  0  0  0  0  0  0  0  0
   -2.5211    9.7000    0.0000 C   0  0  0  0  0  0  0  0  0  0  0  0
   -3.2356    9.2875    0.0000 C   0  0  0  0  0  0  0  0  0  0  0  0
   -1.8066    8.4625    0.0000 C   0  0  0  0  0  0  0  0  0  0  0  0
   -3.2356    8.4625    0.0000 C   0  0  0  0  0  0  0  0  0  0  0  0
    1.7657    8.0500    0.0000 C   0  0  0  0  0  0  0  0  0  0  0  0
   -2.5211    8.0500    0.0000 C   0  0  0  0  0  0  0  0  0  0  0  0
    2.4802    8.4625    0.0000 C   0  0  3  0  0  0  0  0  0  0  0  0
    3.1947    8.0500    0.0000 C   0  0  0  0  0  0  0  0  0  0  0  0
  1  9  1  0  0  0  0
  2 10  1  0  0  0  0
  3 16  1  0  0  0  0
  4  8  1  0  0  0  0
  4 11  1  0  0  0  0
  5 18  1  0  0  0  0
  6 22  1  0  0  0  0
 21  7  1  6  0  0  0
  8  9  2  0  0  0  0
  8 10  1  0  0  0  0
  9 13  1  0  0  0  0
 10 14  2  0  0  0  0
 11 15  2  0  0  0  0
 11 17  1  0  0  0  0
 12 13  2  0  0  0  0
 12 14  1  0  0  0  0
 12 19  1  0  0  0  0
 15 16  1  0  0  0  0
 16 18  2  0  0  0  0
 17 20  2  0  0  0  0
 18 20  1  0  0  0  0
 19 21  1  0  0  0  0
 21 22  1  0  0  0  0
M  END
> <PUBCHEM_COMPOUND_ID_TYPE>
0

> <PUBCHEM_TOTAL_CHARGE>
0

> <PUBCHEM_SUBSTANCE_ID>
310946343

> <PUBCHEM_SUBSTANCE_VERSION>
1

> <PUBCHEM_EXT_DATASOURCE_NAME>
4488

> <PUBCHEM_EXT_DATASOURCE_REGID>
SCHEMBL16124462

> <PUBCHEM_SUBSTANCE_COMMENT>
InChI=1S/C15H14I3NO3/c16-11-6-10(1-2-14(11)21)22-15-12(17)4-8(5-13(15)18)3-9(19)7-20/h1-2,4-6,9,20-21H,3,7,19H2/t9-/m0/s1
InChIKey=KULGWCSQUOZHQG-VIFPVBQESA-N

> <PUBCHEM_SUBSTANCE_SYNONYM>
SCHEMBL16124462

> <PUBCHEM_XREF_EXT_ID>
SCHEMBL16124462

> <PUBCHEM_EXT_DATASOURCE_URL>
https://www.surechembl.org/

> <PUBCHEM_EXT_SUBSTANCE_URL>
https://www.surechembl.org/chemical/SCHEMBL16124462

> <PUBCHEM_CID_ASSOCIATIONS>
117612266  1

> <PUBCHEM_COORDINATE_TYPE>
1
3

> <PUBCHEM_BONDANNOTATIONS>
21  7  6

$$$$
