310936012
  -OEChem-07211613022D

 26 28  0     0  0  0  0  0  0999 V2000
    0.0288   -1.4109    0.0000 Cl  0  0  0  0  0  0  0  0  0  0  0  0
    2.4187   -4.2902    0.0000 O   0  0  0  0  0  0  0  0  0  0  0  0
    7.3999    0.0000    0.0000 O   0  0  0  0  0  0  0  0  0  0  0  0
    8.6380   -0.7198    0.0000 O   0  0  0  0  0  0  0  0  0  0  0  0
    3.6567   -3.5704    0.0000 N   0  0  0  0  0  0  0  0  0  0  0  0
    5.3556   -2.1307    0.0000 N   0  0  0  0  0  0  0  0  0  0  0  0
    6.1618   -0.7198    0.0000 N   0  0  0  0  0  0  0  0  0  0  0  0
    7.3999   -1.4109    0.0000 N   0  0  0  0  0  0  0  0  0  0  0  0
    2.4475   -2.8506    0.0000 C   0  0  0  0  0  0  0  0  0  0  0  0
    1.6412   -2.8506    0.0000 C   0  0  0  0  0  0  0  0  0  0  0  0
    2.8506   -3.5704    0.0000 C   0  0  0  0  0  0  0  0  0  0  0  0
    3.6856   -2.1307    0.0000 C   0  0  0  0  0  0  0  0  0  0  0  0
    2.8506   -2.1595    0.0000 C   0  0  0  0  0  0  0  0  0  0  0  0
    4.9236   -1.4109    0.0000 C   0  0  0  0  0  0  0  0  0  0  0  0
    4.0886   -1.4109    0.0000 C   0  0  0  0  0  0  0  0  0  0  0  0
    4.0599   -2.8794    0.0000 C   0  0  0  0  0  0  0  0  0  0  0  0
    1.2381   -2.1307    0.0000 C   0  0  0  0  0  0  0  0  0  0  0  0
    1.2093   -3.5416    0.0000 C   0  0  0  0  0  0  0  0  0  0  0  0
    0.4031   -2.1019    0.0000 C   0  0  0  0  0  0  0  0  0  0  0  0
    6.5937   -1.4109    0.0000 C   0  0  0  0  0  0  0  0  0  0  0  0
    5.3556   -0.7198    0.0000 C   0  0  0  0  0  0  0  0  0  0  0  0
    6.1618   -2.1307    0.0000 C   0  0  0  0  0  0  0  0  0  0  0  0
    0.4031   -3.5416    0.0000 C   0  0  0  0  0  0  0  0  0  0  0  0
    0.0000   -2.8217    0.0000 C   0  0  0  0  0  0  0  0  0  0  0  0
    7.8030   -0.7198    0.0000 C   0  0  0  0  0  0  0  0  0  0  0  0
    2.8506   -5.0101    0.0000 C   0  0  0  0  0  0  0  0  0  0  0  0
  1 19  1  0  0  0  0
  2 11  1  0  0  0  0
  2 26  1  0  0  0  0
  3 25  2  0  0  0  0
  4 25  1  0  0  0  0
  5 11  2  0  0  0  0
  5 16  1  0  0  0  0
  6 14  1  0  0  0  0
  6 22  2  0  0  0  0
  7 20  2  0  0  0  0
  7 21  1  0  0  0  0
  8 20  1  0  0  0  0
  8 25  1  0  0  0  0
  9 10  1  0  0  0  0
  9 11  1  0  0  0  0
  9 13  2  0  0  0  0
 10 17  1  0  0  0  0
 10 18  2  0  0  0  0
 12 13  1  0  0  0  0
 12 15  1  0  0  0  0
 12 16  2  0  0  0  0
 14 15  1  0  0  0  0
 14 21  2  0  0  0  0
 17 19  2  0  0  0  0
 18 23  1  0  0  0  0
 19 24  1  0  0  0  0
 20 22  1  0  0  0  0
 23 24  2  0  0  0  0
M  END
> <PUBCHEM_COMPOUND_ID_TYPE>
0

> <PUBCHEM_TOTAL_CHARGE>
0

> <PUBCHEM_SUBSTANCE_ID>
310936012

> <PUBCHEM_SUBSTANCE_VERSION>
1

> <PUBCHEM_EXT_DATASOURCE_NAME>
4488

> <PUBCHEM_EXT_DATASOURCE_REGID>
SCHEMBL16113615

> <PUBCHEM_SUBSTANCE_COMMENT>
InChI=1S/C18H15ClN4O3/c1-26-17-15(12-3-2-4-13(19)7-12)6-11(8-22-17)5-14-9-21-16(10-20-14)23-18(24)25/h2-4,6-10H,5H2,1H3,(H,21,23)(H,24,25)
InChIKey=YLONZVNSCUOYRQ-UHFFFAOYSA-N

> <PUBCHEM_SUBSTANCE_SYNONYM>
SCHEMBL16113615

> <PUBCHEM_XREF_EXT_ID>
SCHEMBL16113615

> <PUBCHEM_EXT_DATASOURCE_URL>
https://www.surechembl.org/

> <PUBCHEM_EXT_SUBSTANCE_URL>
https://www.surechembl.org/chemical/SCHEMBL16113615

> <PUBCHEM_CID_ASSOCIATIONS>
117603981  1

> <PUBCHEM_COORDINATE_TYPE>
1
3

$$$$
