310937207
  -OEChem-07211613022D

 28 30  0     1  0  0  0  0  0999 V2000
    6.2728   -7.1230    0.0000 O   0  0  0  0  0  0  0  0  0  0  0  0
    4.1124   -6.8111    0.0000 O   0  0  0  0  0  0  0  0  0  0  0  0
    5.1926   -5.8757    0.0000 O   0  0  0  0  0  0  0  0  0  0  0  0
    7.3530   -6.1875    0.0000 N   0  0  0  0  0  0  0  0  0  0  0  0
    7.6230   -7.5907    0.0000 C   0  0  3  0  0  0  0  0  0  0  0  0
    8.1631   -8.2143    0.0000 C   0  0  0  0  0  0  0  0  0  0  0  0
    6.8129   -7.7466    0.0000 C   0  0  3  0  0  0  0  0  0  0  0  0
    9.5133   -8.6821    0.0000 C   0  0  0  0  0  0  0  0  0  0  0  0
    9.2433   -9.4616    0.0000 C   0  0  0  0  0  0  0  0  0  0  0  0
    8.9732   -8.0584    0.0000 C   0  0  0  0  0  0  0  0  0  0  0  0
    6.5428   -8.5262    0.0000 C   0  0  0  0  0  0  0  0  0  0  0  0
    7.8931   -8.9939    0.0000 C   0  0  0  0  0  0  0  0  0  0  0  0
    8.4332   -9.6175    0.0000 C   0  0  0  0  0  0  0  0  0  0  0  0
    7.8931   -6.8111    0.0000 C   0  0  0  0  0  0  0  0  0  0  0  0
   10.3235   -8.5262    0.0000 C   0  0  0  0  0  0  0  0  0  0  0  0
    9.7834  -10.0853    0.0000 C   0  0  0  0  0  0  0  0  0  0  0  0
    7.0829   -9.1498    0.0000 C   0  0  0  0  0  0  0  0  0  0  0  0
    5.7327   -8.6821    0.0000 C   0  0  0  0  0  0  0  0  0  0  0  0
   10.8636   -9.1498    0.0000 C   0  0  0  0  0  0  0  0  0  0  0  0
    5.4627   -7.2789    0.0000 C   0  0  0  0  0  0  0  0  0  0  0  0
   10.5935   -9.9293    0.0000 C   0  0  0  0  0  0  0  0  0  0  0  0
    6.8129   -9.9293    0.0000 C   0  0  0  0  0  0  0  0  0  0  0  0
    5.4627   -9.4616    0.0000 C   0  0  0  0  0  0  0  0  0  0  0  0
    4.9226   -6.6552    0.0000 C   0  0  0  0  0  0  0  0  0  0  0  0
    6.0028  -10.0853    0.0000 C   0  0  0  0  0  0  0  0  0  0  0  0
    7.6230   -5.4079    0.0000 C   0  0  0  0  0  0  0  0  0  0  0  0
    3.5724   -6.1875    0.0000 C   0  0  0  0  0  0  0  0  0  0  0  0
    2.7622   -6.3434    0.0000 C   0  0  0  0  0  0  0  0  0  0  0  0
  7  1  1  1  0  0  0
  1 20  1  0  0  0  0
  2 24  1  0  0  0  0
  2 27  1  0  0  0  0
  3 24  2  0  0  0  0
  4 14  1  0  0  0  0
  4 26  1  0  0  0  0
  5  6  1  0  0  0  0
  5  7  1  0  0  0  0
  5 14  1  6  0  0  0
  6 10  2  0  0  0  0
  6 12  1  0  0  0  0
  7 11  1  0  0  0  0
  8  9  1  0  0  0  0
  8 10  1  0  0  0  0
  8 15  2  0  0  0  0
  9 13  1  0  0  0  0
  9 16  2  0  0  0  0
 11 17  2  0  0  0  0
 11 18  1  0  0  0  0
 12 13  2  0  0  0  0
 15 19  1  0  0  0  0
 16 21  1  0  0  0  0
 17 22  1  0  0  0  0
 18 23  2  0  0  0  0
 19 21  2  0  0  0  0
 20 24  1  0  0  0  0
 22 25  2  0  0  0  0
 23 25  1  0  0  0  0
 27 28  1  0  0  0  0
M  END
> <PUBCHEM_COMPOUND_ID_TYPE>
0

> <PUBCHEM_TOTAL_CHARGE>
0

> <PUBCHEM_SUBSTANCE_ID>
310937207

> <PUBCHEM_SUBSTANCE_VERSION>
1

> <PUBCHEM_EXT_DATASOURCE_NAME>
4488

> <PUBCHEM_EXT_DATASOURCE_REGID>
SCHEMBL16114937

> <PUBCHEM_SUBSTANCE_COMMENT>
InChI=1S/C24H27NO3/c1-3-27-23(26)17-28-24(19-10-5-4-6-11-19)22(16-25-2)21-14-13-18-9-7-8-12-20(18)15-21/h4-15,22,24-25H,3,16-17H2,1-2H3/t22-,24-/m1/s1
InChIKey=MZOKOQXAFVJKHQ-ISKFKSNPSA-N

> <PUBCHEM_SUBSTANCE_SYNONYM>
SCHEMBL16114937

> <PUBCHEM_XREF_EXT_ID>
SCHEMBL16114937

> <PUBCHEM_EXT_DATASOURCE_URL>
https://www.surechembl.org/

> <PUBCHEM_EXT_SUBSTANCE_URL>
https://www.surechembl.org/chemical/SCHEMBL16114937

> <PUBCHEM_CID_ASSOCIATIONS>
86288521  1

> <PUBCHEM_COORDINATE_TYPE>
1
3

> <PUBCHEM_BONDANNOTATIONS>
7  1  5
5  14  6

$$$$
