310943152
  -OEChem-07211613022D

 38 41  0     0  0  0  0  0  0999 V2000
    3.8811    1.3375    0.0000 F   0  0  0  0  0  0  0  0  0  0  0  0
    4.7144    1.3375    0.0000 F   0  0  0  0  0  0  0  0  0  0  0  0
    5.0067    0.2120    0.0000 F   0  0  0  0  0  0  0  0  0  0  0  0
   -3.5741    0.2120    0.0000 O   0  0  0  0  0  0  0  0  0  0  0  0
    0.7236    0.2120    0.0000 O   0  0  0  0  0  0  0  0  0  0  0  0
   -4.9921    2.6824    0.0000 O   0  0  0  0  0  0  0  0  0  0  0  0
   -2.1416    0.2120    0.0000 N   0  0  0  0  0  0  0  0  0  0  0  0
   -3.5741    1.8638    0.0000 N   0  0  0  0  0  0  0  0  0  0  0  0
    1.4252    1.4545    0.0000 N   0  0  0  0  0  0  0  0  0  0  0  0
   -0.0073    3.1063    0.0000 N   0  0  0  0  0  0  0  0  0  0  0  0
    3.5741   -2.2731    0.0000 N   0  0  0  0  0  0  0  0  0  0  0  0
   -1.4252    1.4545    0.0000 C   0  0  0  0  0  0  0  0  0  0  0  0
   -0.7236    1.8638    0.0000 C   0  0  0  0  0  0  0  0  0  0  0  0
   -2.8578    1.4545    0.0000 C   0  0  0  0  0  0  0  0  0  0  0  0
   -2.8578    0.6359    0.0000 C   0  0  0  0  0  0  0  0  0  0  0  0
   -2.1562    1.8638    0.0000 C   0  0  0  0  0  0  0  0  0  0  0  0
   -1.4398    0.6213    0.0000 C   0  0  0  0  0  0  0  0  0  0  0  0
   -0.7090    2.6970    0.0000 C   0  0  0  0  0  0  0  0  0  0  0  0
    0.7090    1.8638    0.0000 C   0  0  0  0  0  0  0  0  0  0  0  0
   -0.0073    1.4545    0.0000 C   0  0  0  0  0  0  0  0  0  0  0  0
    2.1562    0.2120    0.0000 C   0  0  0  0  0  0  0  0  0  0  0  0
    3.5741    0.2120    0.0000 C   0  0  0  0  0  0  0  0  0  0  0  0
    1.4398    0.6359    0.0000 C   0  0  0  0  0  0  0  0  0  0  0  0
    4.2758    0.6505    0.0000 C   0  0  0  0  0  0  0  0  0  0  0  0
    2.8578    0.6066    0.0000 C   0  0  0  0  0  0  0  0  0  0  0  0
    2.8725   -1.0159    0.0000 C   0  0  0  0  0  0  0  0  0  0  0  0
    2.1562   -0.6066    0.0000 C   0  0  0  0  0  0  0  0  0  0  0  0
    3.5741   -0.6066    0.0000 C   0  0  0  0  0  0  0  0  0  0  0  0
    0.7236    2.6824    0.0000 C   0  0  0  0  0  0  0  0  0  0  0  0
   -3.5887    2.6970    0.0000 C   0  0  0  0  0  0  0  0  0  0  0  0
   -4.2904    1.4545    0.0000 C   0  0  0  0  0  0  0  0  0  0  0  0
   -2.1270   -0.6359    0.0000 C   0  0  0  0  0  0  0  0  0  0  0  0
   -1.4398    3.0917    0.0000 C   0  0  0  0  0  0  0  0  0  0  0  0
    2.8578   -1.8492    0.0000 C   0  0  0  0  0  0  0  0  0  0  0  0
   -4.2904    3.1063    0.0000 C   0  0  0  0  0  0  0  0  0  0  0  0
   -5.0067    1.8638    0.0000 C   0  0  0  0  0  0  0  0  0  0  0  0
    3.5887   -3.1063    0.0000 C   0  0  0  0  0  0  0  0  0  0  0  0
    4.3050   -1.8346    0.0000 C   0  0  0  0  0  0  0  0  0  0  0  0
  1 24  1  0  0  0  0
  2 24  1  0  0  0  0
  3 24  1  0  0  0  0
  4 15  2  0  0  0  0
  5 23  2  0  0  0  0
  6 35  1  0  0  0  0
  6 36  1  0  0  0  0
  7 15  1  0  0  0  0
  7 17  1  0  0  0  0
  7 32  1  0  0  0  0
  8 14  1  0  0  0  0
  8 30  1  0  0  0  0
  8 31  1  0  0  0  0
  9 19  1  0  0  0  0
  9 23  1  0  0  0  0
 10 18  1  0  0  0  0
 10 29  2  0  0  0  0
 11 34  1  0  0  0  0
 11 37  1  0  0  0  0
 11 38  1  0  0  0  0
 12 13  1  0  0  0  0
 12 16  1  0  0  0  0
 12 17  2  0  0  0  0
 13 18  2  0  0  0  0
 13 20  1  0  0  0  0
 14 15  1  0  0  0  0
 14 16  2  0  0  0  0
 18 33  1  0  0  0  0
 19 20  2  0  0  0  0
 19 29  1  0  0  0  0
 21 23  1  0  0  0  0
 21 25  1  0  0  0  0
 21 27  2  0  0  0  0
 22 24  1  0  0  0  0
 22 25  2  0  0  0  0
 22 28  1  0  0  0  0
 26 27  1  0  0  0  0
 26 28  2  0  0  0  0
 26 34  1  0  0  0  0
 30 35  1  0  0  0  0
 31 36  1  0  0  0  0
M  END
> <PUBCHEM_COMPOUND_ID_TYPE>
0

> <PUBCHEM_TOTAL_CHARGE>
0

> <PUBCHEM_SUBSTANCE_ID>
310943152

> <PUBCHEM_SUBSTANCE_VERSION>
1

> <PUBCHEM_EXT_DATASOURCE_NAME>
4488

> <PUBCHEM_EXT_DATASOURCE_REGID>
SCHEMBL16121212

> <PUBCHEM_SUBSTANCE_COMMENT>
InChI=1S/C27H30F3N5O3/c1-17-23(20-12-24(26(37)34(4)16-20)35-5-7-38-8-6-35)13-22(14-31-17)32-25(36)19-9-18(15-33(2)3)10-21(11-19)27(28,29)30/h9-14,16H,5-8,15H2,1-4H3,(H,32,36)
InChIKey=YJYYWWDRIBCBBQ-UHFFFAOYSA-N

> <PUBCHEM_SUBSTANCE_SYNONYM>
SCHEMBL16121212

> <PUBCHEM_XREF_EXT_ID>
SCHEMBL16121212

> <PUBCHEM_EXT_DATASOURCE_URL>
https://www.surechembl.org/

> <PUBCHEM_EXT_SUBSTANCE_URL>
https://www.surechembl.org/chemical/SCHEMBL16121212

> <PUBCHEM_CID_ASSOCIATIONS>
117609582  1

> <PUBCHEM_COORDINATE_TYPE>
1
3

$$$$
