310932174
  -OEChem-07211613022D

 33 37  0     1  0  0  0  0  0999 V2000
    5.9219   -2.7829    0.0000 O   0  0  0  0  0  0  0  0  0  0  0  0
    1.7798   -4.4980    0.0000 O   0  0  0  0  0  0  0  0  0  0  0  0
    5.5336   -4.2068    0.0000 N   0  0  0  0  0  0  0  0  0  0  0  0
    5.9542   -4.9187    0.0000 N   0  0  0  0  0  0  0  0  0  0  0  0
    1.2944   -1.5856    0.0000 N   0  0  3  0  0  0  0  0  0  0  0  0
    1.9416   -3.0742    0.0000 N   0  0  0  0  0  0  0  0  0  0  0  0
    4.2392   -4.7569    0.0000 N   0  0  0  0  0  0  0  0  0  0  0  0
    9.7080   -1.4562    0.0000 N   0  0  0  0  0  0  0  0  0  0  0  0
    6.8604   -3.9156    0.0000 C   0  0  0  0  0  0  0  0  0  0  0  0
    6.0837   -3.5920    0.0000 C   0  0  0  0  0  0  0  0  0  0  0  0
    4.7246   -4.1097    0.0000 C   0  0  0  0  0  0  0  0  0  0  0  0
    7.5723   -3.5272    0.0000 C   0  0  0  0  0  0  0  0  0  0  0  0
    6.7633   -4.7246    0.0000 C   0  0  0  0  0  0  0  0  0  0  0  0
    3.1066   -3.9479    0.0000 C   0  0  0  0  0  0  0  0  0  0  0  0
    2.2652   -3.8509    0.0000 C   0  0  0  0  0  0  0  0  0  0  0  0
    0.9708   -0.8090    0.0000 C   0  0  0  0  0  0  0  0  0  0  0  0
    7.5723   -2.6859    0.0000 C   0  0  0  0  0  0  0  0  0  0  0  0
    0.8090   -2.2328    0.0000 C   0  0  3  0  0  0  0  0  0  0  0  0
    4.4010   -3.3331    0.0000 C   0  0  0  0  0  0  0  0  0  0  0  0
    1.1326   -3.0095    0.0000 C   0  0  0  0  0  0  0  0  0  0  0  0
    3.4302   -4.6922    0.0000 C   0  0  0  0  0  0  0  0  0  0  0  0
    3.5596   -3.2684    0.0000 C   0  0  0  0  0  0  0  0  0  0  0  0
    8.2842   -3.9156    0.0000 C   0  0  0  0  0  0  0  0  0  0  0  0
    2.1358   -1.6828    0.0000 C   0  0  0  0  0  0  0  0  0  0  0  0
    2.4594   -2.4270    0.0000 C   0  0  0  0  0  0  0  0  0  0  0  0
    0.3236   -0.3236    0.0000 C   0  0  0  0  0  0  0  0  0  0  0  0
    1.0679    0.0000    0.0000 C   0  0  0  0  0  0  0  0  0  0  0  0
    8.2842   -2.2652    0.0000 C   0  0  0  0  0  0  0  0  0  0  0  0
    8.9961   -2.6859    0.0000 C   0  0  0  0  0  0  0  0  0  0  0  0
    8.9961   -3.5272    0.0000 C   0  0  0  0  0  0  0  0  0  0  0  0
    6.8604   -2.2652    0.0000 C   0  0  0  0  0  0  0  0  0  0  0  0
    0.0000   -2.1358    0.0000 C   0  0  0  0  0  0  0  0  0  0  0  0
    9.7080   -2.2652    0.0000 C   0  0  0  0  0  0  0  0  0  0  0  0
  1 10  1  0  0  0  0
  2 15  2  0  0  0  0
  3  4  1  0  0  0  0
  3 10  1  0  0  0  0
  3 11  1  0  0  0  0
  4 13  2  0  0  0  0
  5 16  1  0  0  0  0
  5 18  1  0  0  0  0
  5 24  1  0  0  0  0
  6 15  1  0  0  0  0
  6 20  1  0  0  0  0
  6 25  1  0  0  0  0
  7 11  1  0  0  0  0
  7 21  2  0  0  0  0
  8 33  3  0  0  0  0
  9 10  2  0  0  0  0
  9 12  1  0  0  0  0
  9 13  1  0  0  0  0
 11 19  2  0  0  0  0
 12 17  2  0  0  0  0
 12 23  1  0  0  0  0
 14 15  1  0  0  0  0
 14 21  1  0  0  0  0
 14 22  2  0  0  0  0
 16 26  1  0  0  0  0
 16 27  1  0  0  0  0
 17 28  1  0  0  0  0
 17 31  1  0  0  0  0
 18 20  1  0  0  0  0
 18 32  1  6  0  0  0
 19 22  1  0  0  0  0
 23 30  2  0  0  0  0
 24 25  1  0  0  0  0
 26 27  1  0  0  0  0
 28 29  2  0  0  0  0
 29 30  1  0  0  0  0
 29 33  1  0  0  0  0
M  END
> <PUBCHEM_COMPOUND_ID_TYPE>
0

> <PUBCHEM_TOTAL_CHARGE>
0

> <PUBCHEM_SUBSTANCE_ID>
310932174

> <PUBCHEM_SUBSTANCE_VERSION>
1

> <PUBCHEM_EXT_DATASOURCE_NAME>
4488

> <PUBCHEM_EXT_DATASOURCE_REGID>
SCHEMBL16109528

> <PUBCHEM_SUBSTANCE_COMMENT>
InChI=1S/C25H26N6O2/c1-16-11-18(12-26)3-7-21(16)22-14-28-31(25(22)33)23-8-4-19(13-27-23)24(32)29-9-10-30(17(2)15-29)20-5-6-20/h3-4,7-8,11,13-14,17,20,33H,5-6,9-10,15H2,1-2H3/t17-/m0/s1
InChIKey=GHBASXWDGOMQBV-KRWDZBQOSA-N

> <PUBCHEM_SUBSTANCE_SYNONYM>
SCHEMBL16109528

> <PUBCHEM_XREF_EXT_ID>
SCHEMBL16109528

> <PUBCHEM_EXT_DATASOURCE_URL>
https://www.surechembl.org/

> <PUBCHEM_EXT_SUBSTANCE_URL>
https://www.surechembl.org/chemical/SCHEMBL16109528

> <PUBCHEM_CID_ASSOCIATIONS>
117600772  1

> <PUBCHEM_COORDINATE_TYPE>
1
3

> <PUBCHEM_BONDANNOTATIONS>
18  32  6

$$$$
