310936522
  -OEChem-07211613022D

 28 31  0     1  0  0  0  0  0999 V2000
    2.0519    1.1217    0.0000 S   0  0  0  0  0  0  0  0  0  0  0  0
    0.5314    0.5279    0.0000 O   0  0  0  0  0  0  0  0  0  0  0  0
    6.5042   -1.0932    0.0000 O   0  0  0  0  0  0  0  0  0  0  0  0
    3.5024   -3.0734    0.0000 O   0  0  0  0  0  0  0  0  0  0  0  0
    1.9233   -2.7604    0.0000 N   0  0  0  0  0  0  0  0  0  0  0  0
    1.9233   -0.2854    0.0000 C   0  0  3  0  0  0  0  0  0  0  0  0
    1.1387   -0.0305    0.0000 C   0  0  3  0  0  0  0  0  0  0  0  0
    1.9233   -1.1104    0.0000 C   0  0  3  0  0  0  0  0  0  0  0  0
    2.6378   -1.5229    0.0000 C   0  0  3  0  0  0  0  0  0  0  0  0
    3.3523   -1.1104    0.0000 C   0  0  3  0  0  0  0  0  0  0  0  0
    1.3018    0.7782    0.0000 C   0  0  0  0  0  0  0  0  0  0  0  0
    4.0668   -1.5229    0.0000 C   0  0  3  0  0  0  0  0  0  0  0  0
    2.6378    0.1271    0.0000 C   0  0  0  0  0  0  0  0  0  0  0  0
    0.6538   -0.6979    0.0000 C   0  0  0  0  0  0  0  0  0  0  0  0
    1.1387   -1.3654    0.0000 C   0  0  0  0  0  0  0  0  0  0  0  0
    3.3523   -0.2854    0.0000 C   0  0  0  0  0  0  0  0  0  0  0  0
    1.8371    0.5350    0.0000 C   0  0  0  0  0  0  0  0  0  0  0  0
    4.5971   -2.1549    0.0000 C   0  0  3  0  0  0  0  0  0  0  0  0
    2.6378   -2.3479    0.0000 C   0  0  0  0  0  0  0  0  0  0  0  0
    4.3489   -0.7477    0.0000 C   0  0  0  0  0  0  0  0  0  0  0  0
    0.7434    1.3855    0.0000 C   0  0  0  0  0  0  0  0  0  0  0  0
    3.5365   -2.1549    0.0000 C   0  0  0  0  0  0  0  0  0  0  0  0
    5.4095   -2.0117    0.0000 C   0  0  0  0  0  0  0  0  0  0  0  0
    5.1614   -0.6044    0.0000 C   0  0  0  0  0  0  0  0  0  0  0  0
    1.9571    1.9412    0.0000 C   0  0  0  0  0  0  0  0  0  0  0  0
    1.1484    2.1043    0.0000 C   0  0  0  0  0  0  0  0  0  0  0  0
    5.6917   -1.2364    0.0000 C   0  0  3  0  0  0  0  0  0  0  0  0
    4.3149   -2.9302    0.0000 C   0  0  0  0  0  0  0  0  0  0  0  0
  1 11  1  0  0  0  0
  1 25  1  0  0  0  0
  7  2  1  6  0  0  0
 27  3  1  6  0  0  0
  4 28  1  0  0  0  0
  5 19  1  0  0  0  0
  6  7  1  0  0  0  0
  6  8  1  0  0  0  0
  6 13  1  0  0  0  0
  6 17  1  6  0  0  0
  7 11  1  0  0  0  0
  7 14  1  0  0  0  0
  8  9  1  0  0  0  0
  8 15  1  6  0  0  0
  9 10  1  0  0  0  0
  9 19  1  1  0  0  0
 10 12  1  0  0  0  0
 10 16  1  6  0  0  0
 11 21  2  0  0  0  0
 12 18  1  0  0  0  0
 12 20  1  0  0  0  0
 12 22  1  1  0  0  0
 13 16  1  0  0  0  0
 14 15  1  0  0  0  0
 18 23  1  0  0  0  0
 18 28  1  6  0  0  0
 20 24  1  0  0  0  0
 21 26  1  0  0  0  0
 23 27  1  0  0  0  0
 24 27  1  0  0  0  0
 25 26  2  0  0  0  0
M  END
> <PUBCHEM_COMPOUND_ID_TYPE>
0

> <PUBCHEM_TOTAL_CHARGE>
0

> <PUBCHEM_SUBSTANCE_ID>
310936522

> <PUBCHEM_SUBSTANCE_VERSION>
1

> <PUBCHEM_EXT_DATASOURCE_NAME>
4488

> <PUBCHEM_EXT_DATASOURCE_REGID>
SCHEMBL16114173

> <PUBCHEM_SUBSTANCE_COMMENT>
InChI=1S/C23H37NO3S/c1-21(8-5-16(26)12-15(21)14-25)18-6-9-22(2)19(17(18)13-24)7-10-23(22,27)20-4-3-11-28-20/h3-4,11,15-19,25-27H,5-10,12-14,24H2,1-2H3/t15-,16+,17-,18+,19+,21-,22+,23-/m1/s1
InChIKey=OVZKCOOEAYCYGS-JTLXZUEGSA-N

> <PUBCHEM_SUBSTANCE_SYNONYM>
SCHEMBL16114173

> <PUBCHEM_XREF_EXT_ID>
SCHEMBL16114173

> <PUBCHEM_EXT_DATASOURCE_URL>
https://www.surechembl.org/

> <PUBCHEM_EXT_SUBSTANCE_URL>
https://www.surechembl.org/chemical/SCHEMBL16114173

> <PUBCHEM_CID_ASSOCIATIONS>
117604449  1

> <PUBCHEM_COORDINATE_TYPE>
1
3

> <PUBCHEM_BONDANNOTATIONS>
10  16  6
12  22  5
18  28  6
7  2  6
27  3  6
6  17  6
8  15  6
9  19  5

$$$$
