310944276
  -OEChem-07211613022D

 31 33  0     0  0  0  0  0  0999 V2000
   -3.0351   -1.2610    0.0000 Cl  0  0  0  0  0  0  0  0  0  0  0  0
   -0.0185   -1.2610    0.0000 O   0  0  0  0  0  0  0  0  0  0  0  0
    1.4032    1.2116    0.0000 O   0  0  0  0  0  0  0  0  0  0  0  0
   -5.0133    1.6320    0.0000 O   0  0  0  0  0  0  0  0  0  0  0  0
    4.9762   -0.8407    0.0000 O   0  0  0  0  0  0  0  0  0  0  0  0
   -0.0062    0.3956    0.0000 N   0  0  0  0  0  0  0  0  0  0  0  0
    2.1451   -0.0247    0.0000 N   0  0  0  0  0  0  0  0  0  0  0  0
    3.5668   -0.8407    0.0000 N   0  0  0  0  0  0  0  0  0  0  0  0
   -3.5668    1.6320    0.0000 N   0  0  0  0  0  0  0  0  0  0  0  0
   -2.1451   -0.0247    0.0000 C   0  0  0  0  0  0  0  0  0  0  0  0
   -0.7233   -0.0124    0.0000 C   0  0  0  0  0  0  0  0  0  0  0  0
   -2.1451   -0.8407    0.0000 C   0  0  0  0  0  0  0  0  0  0  0  0
   -2.8745    0.3956    0.0000 C   0  0  0  0  0  0  0  0  0  0  0  0
   -0.7233   -0.8407    0.0000 C   0  0  0  0  0  0  0  0  0  0  0  0
   -1.4403    0.3832    0.0000 C   0  0  0  0  0  0  0  0  0  0  0  0
   -1.4156   -1.2487    0.0000 C   0  0  0  0  0  0  0  0  0  0  0  0
   -2.8621    1.2116    0.0000 C   0  0  0  0  0  0  0  0  0  0  0  0
   -3.5668   -0.0124    0.0000 C   0  0  0  0  0  0  0  0  0  0  0  0
    1.4156    0.3832    0.0000 C   0  0  0  0  0  0  0  0  0  0  0  0
    0.7233   -0.0124    0.0000 C   0  0  0  0  0  0  0  0  0  0  0  0
   -4.2839    1.2240    0.0000 C   0  0  0  0  0  0  0  0  0  0  0  0
   -4.2963    0.3956    0.0000 C   0  0  0  0  0  0  0  0  0  0  0  0
    2.8497    0.3956    0.0000 C   0  0  0  0  0  0  0  0  0  0  0  0
    2.1327   -0.8407    0.0000 C   0  0  0  0  0  0  0  0  0  0  0  0
    3.5668   -0.0247    0.0000 C   0  0  0  0  0  0  0  0  0  0  0  0
    2.8621   -1.2487    0.0000 C   0  0  0  0  0  0  0  0  0  0  0  0
    4.2591   -1.2610    0.0000 C   0  0  0  0  0  0  0  0  0  0  0  0
    0.7109   -0.8407    0.0000 C   0  0  0  0  0  0  0  0  0  0  0  0
    4.2715   -2.0771    0.0000 C   0  0  0  0  0  0  0  0  0  0  0  0
   -5.0009    2.4479    0.0000 C   0  0  0  0  0  0  0  0  0  0  0  0
    5.0133   -2.4479    0.0000 C   0  0  0  0  0  0  0  0  0  0  0  0
  1 12  1  0  0  0  0
  2 14  1  0  0  0  0
  2 28  1  0  0  0  0
  3 19  2  0  0  0  0
  4 21  1  0  0  0  0
  4 30  1  0  0  0  0
  5 27  2  0  0  0  0
  6 11  1  0  0  0  0
  6 20  1  0  0  0  0
  7 19  1  0  0  0  0
  7 23  1  0  0  0  0
  7 24  1  0  0  0  0
  8 25  1  0  0  0  0
  8 26  1  0  0  0  0
  8 27  1  0  0  0  0
  9 17  2  0  0  0  0
  9 21  1  0  0  0  0
 10 12  2  0  0  0  0
 10 13  1  0  0  0  0
 10 15  1  0  0  0  0
 11 14  1  0  0  0  0
 11 15  2  0  0  0  0
 12 16  1  0  0  0  0
 13 17  1  0  0  0  0
 13 18  2  0  0  0  0
 14 16  2  0  0  0  0
 18 22  1  0  0  0  0
 19 20  1  0  0  0  0
 21 22  2  0  0  0  0
 23 25  1  0  0  0  0
 24 26  1  0  0  0  0
 27 29  1  0  0  0  0
 29 31  2  0  0  0  0
M  END
> <PUBCHEM_COMPOUND_ID_TYPE>
0

> <PUBCHEM_TOTAL_CHARGE>
0

> <PUBCHEM_SUBSTANCE_ID>
310944276

> <PUBCHEM_SUBSTANCE_VERSION>
1

> <PUBCHEM_EXT_DATASOURCE_NAME>
4488

> <PUBCHEM_EXT_DATASOURCE_REGID>
SCHEMBL16122351

> <PUBCHEM_SUBSTANCE_COMMENT>
InChI=1S/C22H25ClN4O4/c1-4-21(28)26-7-9-27(10-8-26)22(29)14-24-18-11-16(17(23)12-19(18)30-2)15-5-6-20(31-3)25-13-15/h4-6,11-13,24H,1,7-10,14H2,2-3H3
InChIKey=QCWMESKVVGCGLI-UHFFFAOYSA-N

> <PUBCHEM_SUBSTANCE_SYNONYM>
SCHEMBL16122351

> <PUBCHEM_XREF_EXT_ID>
SCHEMBL16122351

> <PUBCHEM_EXT_DATASOURCE_URL>
https://www.surechembl.org/

> <PUBCHEM_EXT_SUBSTANCE_URL>
https://www.surechembl.org/chemical/SCHEMBL16122351

> <PUBCHEM_CID_ASSOCIATIONS>
117610545  1

> <PUBCHEM_COORDINATE_TYPE>
1
3

$$$$
