310940766
  -OEChem-07211613022D

  8  8  0     0  0  0  0  0  0999 V2000
    0.0382   -0.2907    0.0000 S   0  0  0  0  0  0  0  0  0  0  0  0
    0.8031   -0.6272    0.0000 C   0  0  0  0  0  0  0  0  0  0  0  0
    0.1301    0.5507    0.0000 C   0  0  0  0  0  0  0  0  0  0  0  0
   -0.6961   -0.7037    0.0000 C   0  0  0  0  0  0  0  0  0  0  0  0
    1.3538   -0.0153    0.0000 C   0  0  0  0  0  0  0  0  0  0  0  0
    0.9408    0.7037    0.0000 C   0  0  0  0  0  0  0  0  0  0  0  0
   -0.5737    0.2753    0.0000 C   0  0  0  0  0  0  0  0  0  0  0  0
   -1.3538   -0.3519    0.0000 C   0  0  0  0  0  0  0  0  0  0  0  0
  1  2  1  0  0  0  0
  1  3  1  0  0  0  0
  1  4  1  0  0  0  0
  1  7  1  0  0  0  0
  2  5  1  0  0  0  0
  3  6  1  0  0  0  0
  4  8  1  0  0  0  0
  5  6  1  0  0  0  0
M  END
> <PUBCHEM_COMPOUND_ID_TYPE>
0

> <PUBCHEM_TOTAL_CHARGE>
0

> <PUBCHEM_SUBSTANCE_ID>
310940766

> <PUBCHEM_SUBSTANCE_VERSION>
1

> <PUBCHEM_EXT_DATASOURCE_NAME>
4488

> <PUBCHEM_EXT_DATASOURCE_REGID>
SCHEMBL16118725

> <PUBCHEM_SUBSTANCE_COMMENT>
InChI=1S/C7H16S/c1-3-8(2)6-4-5-7-8/h3-7H2,1-2H3
InChIKey=KLWSHBORRASEDP-UHFFFAOYSA-N

> <PUBCHEM_SUBSTANCE_SYNONYM>
SCHEMBL16118725

> <PUBCHEM_XREF_EXT_ID>
SCHEMBL16118725

> <PUBCHEM_EXT_DATASOURCE_URL>
https://www.surechembl.org/

> <PUBCHEM_EXT_SUBSTANCE_URL>
https://www.surechembl.org/chemical/SCHEMBL16118725

> <PUBCHEM_CID_ASSOCIATIONS>
91576423  1

> <PUBCHEM_COORDINATE_TYPE>
1
3

$$$$
