310944493
  -OEChem-07211613022D

 12 13  0     0  0  0  0  0  0999 V2000
    1.7526    0.4149    0.0000 Cl  0  0  0  0  0  0  0  0  0  0  0  0
    1.2448    1.9879    0.0000 Cl  0  0  0  0  0  0  0  0  0  0  0  0
   -1.4924    0.9351    0.0000 N   0  0  0  0  0  0  0  0  0  0  0  0
   -0.4149    0.1672    0.0000 C   0  0  0  0  0  0  0  0  0  0  0  0
   -0.6626    0.9351    0.0000 C   0  0  0  0  0  0  0  0  0  0  0  0
   -1.0837   -0.3282    0.0000 C   0  0  0  0  0  0  0  0  0  0  0  0
    0.9351    0.6007    0.0000 C   0  0  0  0  0  0  0  0  0  0  0  0
    0.6750    1.3810    0.0000 C   0  0  0  0  0  0  0  0  0  0  0  0
    0.3901   -0.0186    0.0000 C   0  0  0  0  0  0  0  0  0  0  0  0
   -0.1053    1.5420    0.0000 C   0  0  0  0  0  0  0  0  0  0  0  0
   -1.7526    0.1548    0.0000 C   0  0  0  0  0  0  0  0  0  0  0  0
   -1.0714   -1.9879    0.0000 C   0  0  0  0  0  0  0  0  0  0  0  0
  1  7  1  0  0  0  0
  2  8  1  0  0  0  0
  3  5  1  0  0  0  0
  3 11  1  0  0  0  0
  4  5  2  0  0  0  0
  4  6  1  0  0  0  0
  4  9  1  0  0  0  0
  5 10  1  0  0  0  0
  6 11  2  0  0  0  0
  6 12  1  0  0  0  0
  7  8  1  0  0  0  0
  7  9  2  0  0  0  0
  8 10  2  0  0  0  0
M  END
> <PUBCHEM_COMPOUND_ID_TYPE>
0

> <PUBCHEM_TOTAL_CHARGE>
0

> <PUBCHEM_SUBSTANCE_ID>
310944493

> <PUBCHEM_SUBSTANCE_VERSION>
1

> <PUBCHEM_EXT_DATASOURCE_NAME>
4488

> <PUBCHEM_EXT_DATASOURCE_REGID>
SCHEMBL16122568

> <PUBCHEM_SUBSTANCE_COMMENT>
InChI=1S/C9H7Cl2N/c1-5-4-12-9-3-8(11)7(10)2-6(5)9/h2-4,12H,1H3
InChIKey=NWHMBJJANTYLDU-UHFFFAOYSA-N

> <PUBCHEM_SUBSTANCE_SYNONYM>
SCHEMBL16122568

> <PUBCHEM_XREF_EXT_ID>
SCHEMBL16122568

> <PUBCHEM_EXT_DATASOURCE_URL>
https://www.surechembl.org/

> <PUBCHEM_EXT_SUBSTANCE_URL>
https://www.surechembl.org/chemical/SCHEMBL16122568

> <PUBCHEM_CID_ASSOCIATIONS>
117610733  1

> <PUBCHEM_COORDINATE_TYPE>
1
3

$$$$
