310949875
  -OEChem-07211613022D

 18 18  0     0  0  0  0  0  0999 V2000
    0.7215    0.4312    0.0000 O   0  0  0  0  0  0  0  0  0  0  0  0
    1.4347    1.6751    0.0000 O   0  0  0  0  0  0  0  0  0  0  0  0
    2.8776    1.6751    0.0000 O   0  0  0  0  0  0  0  0  0  0  0  0
   -2.1478   -1.2273    0.0000 O   0  0  0  0  0  0  0  0  0  0  0  0
   -2.8776   -2.4713    0.0000 O   0  0  0  0  0  0  0  0  0  0  0  0
    1.6337   -0.8127    0.0000 N   0  0  0  0  0  0  0  0  0  0  0  0
    0.7381   -1.2108    0.0000 C   0  0  0  0  0  0  0  0  0  0  0  0
   -0.7049   -2.0566    0.0000 C   0  0  0  0  0  0  0  0  0  0  0  0
    1.4678    0.0166    0.0000 C   0  0  0  0  0  0  0  0  0  0  0  0
    0.0083   -0.8127    0.0000 C   0  0  0  0  0  0  0  0  0  0  0  0
    0.7215   -2.0566    0.0000 C   0  0  0  0  0  0  0  0  0  0  0  0
   -0.6883   -1.2273    0.0000 C   0  0  0  0  0  0  0  0  0  0  0  0
    0.0083   -2.4547    0.0000 C   0  0  0  0  0  0  0  0  0  0  0  0
    2.1644    0.4146    0.0000 C   0  0  0  0  0  0  0  0  0  0  0  0
   -1.4181   -2.4713    0.0000 C   0  0  0  0  0  0  0  0  0  0  0  0
    2.1644    1.2605    0.0000 C   0  0  0  0  0  0  0  0  0  0  0  0
   -2.1312   -2.0732    0.0000 C   0  0  0  0  0  0  0  0  0  0  0  0
    1.4347    2.4713    0.0000 C   0  0  0  0  0  0  0  0  0  0  0  0
  1  9  2  0  0  0  0
  2 16  1  0  0  0  0
  2 18  1  0  0  0  0
  3 16  2  0  0  0  0
  4 17  2  0  0  0  0
  5 17  1  0  0  0  0
  6  7  1  0  0  0  0
  6  9  1  0  0  0  0
  7 10  2  0  0  0  0
  7 11  1  0  0  0  0
  8 12  2  0  0  0  0
  8 13  1  0  0  0  0
  8 15  1  0  0  0  0
  9 14  1  0  0  0  0
 10 12  1  0  0  0  0
 11 13  2  0  0  0  0
 14 16  1  0  0  0  0
 15 17  1  0  0  0  0
M  END
> <PUBCHEM_COMPOUND_ID_TYPE>
0

> <PUBCHEM_TOTAL_CHARGE>
0

> <PUBCHEM_SUBSTANCE_ID>
310949875

> <PUBCHEM_SUBSTANCE_VERSION>
1

> <PUBCHEM_EXT_DATASOURCE_NAME>
4488

> <PUBCHEM_EXT_DATASOURCE_REGID>
SCHEMBL16128084

> <PUBCHEM_SUBSTANCE_COMMENT>
InChI=1S/C12H13NO5/c1-18-12(17)7-10(14)13-9-4-2-8(3-5-9)6-11(15)16/h2-5H,6-7H2,1H3,(H,13,14)(H,15,16)
InChIKey=UJWDSNVSBYGZAV-UHFFFAOYSA-N

> <PUBCHEM_SUBSTANCE_SYNONYM>
SCHEMBL16128084

> <PUBCHEM_XREF_EXT_ID>
SCHEMBL16128084

> <PUBCHEM_EXT_DATASOURCE_URL>
https://www.surechembl.org/

> <PUBCHEM_EXT_SUBSTANCE_URL>
https://www.surechembl.org/chemical/SCHEMBL16128084

> <PUBCHEM_CID_ASSOCIATIONS>
117615172  1

> <PUBCHEM_COORDINATE_TYPE>
1
3

$$$$
