310945813
  -OEChem-07211613022D

 39 42  0     1  0  0  0  0  0999 V2000
    4.0251    0.6720    0.0000 O   0  0  0  0  0  0  0  0  0  0  0  0
    2.8889   -1.2816    0.0000 O   0  0  0  0  0  0  0  0  0  0  0  0
    0.7274    0.7828    0.0000 O   0  0  0  0  0  0  0  0  0  0  0  0
   -1.4202   -1.2816    0.0000 O   0  0  0  0  0  0  0  0  0  0  0  0
   -4.3021   -1.2816    0.0000 O   0  0  0  0  0  0  0  0  0  0  0  0
    2.8889   -2.9443    0.0000 O   0  0  0  0  0  0  0  0  0  0  0  0
   -2.1407   -2.5287    0.0000 O   0  0  0  0  0  0  0  0  0  0  0  0
    1.4617   -0.4503    0.0000 N   0  0  0  0  0  0  0  0  0  0  0  0
   -0.6997   -0.0347    0.0000 N   0  0  0  0  0  0  0  0  0  0  0  0
   -2.8612   -0.4503    0.0000 N   0  0  3  0  0  0  0  0  0  0  0  0
    3.5955   -0.0069    0.0000 C   0  0  3  0  0  0  0  0  0  0  0  0
    2.8751   -0.4364    0.0000 C   0  0  0  0  0  0  0  0  0  0  0  0
    3.2214    0.6859    0.0000 C   0  0  0  0  0  0  0  0  0  0  0  0
    2.1684   -0.0347    0.0000 C   0  0  3  0  0  0  0  0  0  0  0  0
    4.3021   -0.4226    0.0000 C   0  0  0  0  0  0  0  0  0  0  0  0
    2.1684    1.2955    0.0000 C   0  0  0  0  0  0  0  0  0  0  0  0
    0.7274   -0.0485    0.0000 C   0  0  0  0  0  0  0  0  0  0  0  0
    0.0347   -0.4364    0.0000 C   0  0  3  0  0  0  0  0  0  0  0  0
    1.4479    1.7250    0.0000 C   0  0  0  0  0  0  0  0  0  0  0  0
    0.0069   -1.2955    0.0000 C   0  0  0  0  0  0  0  0  0  0  0  0
   -1.4202   -0.4226    0.0000 C   0  0  0  0  0  0  0  0  0  0  0  0
    0.7413   -1.6835    0.0000 C   0  0  0  0  0  0  0  0  0  0  0  0
    1.4479    2.5425    0.0000 C   0  0  0  0  0  0  0  0  0  0  0  0
    0.7274    1.3093    0.0000 C   0  0  0  0  0  0  0  0  0  0  0  0
   -2.1545   -0.0347    0.0000 C   0  0  0  0  0  0  0  0  0  0  0  0
   -2.8751   -1.2816    0.0000 C   0  0  3  0  0  0  0  0  0  0  0  0
    0.7413   -2.5148    0.0000 C   0  0  0  0  0  0  0  0  0  0  0  0
    1.4479   -1.2816    0.0000 C   0  0  0  0  0  0  0  0  0  0  0  0
   -3.5955   -0.0347    0.0000 C   0  0  0  0  0  0  0  0  0  0  0  0
    0.7274    2.9443    0.0000 C   0  0  0  0  0  0  0  0  0  0  0  0
    0.0208    1.7250    0.0000 C   0  0  0  0  0  0  0  0  0  0  0  0
    2.1684   -2.5009    0.0000 C   0  0  0  0  0  0  0  0  0  0  0  0
   -3.5817   -1.6835    0.0000 C   0  0  0  0  0  0  0  0  0  0  0  0
    1.4756   -2.9304    0.0000 C   0  0  0  0  0  0  0  0  0  0  0  0
    2.1684   -1.6973    0.0000 C   0  0  0  0  0  0  0  0  0  0  0  0
    0.0208    2.5425    0.0000 C   0  0  0  0  0  0  0  0  0  0  0  0
   -2.1407   -1.6973    0.0000 C   0  0  0  0  0  0  0  0  0  0  0  0
   -4.2883   -0.4364    0.0000 C   0  0  0  0  0  0  0  0  0  0  0  0
    3.6371   -2.5148    0.0000 C   0  0  0  0  0  0  0  0  0  0  0  0
  1 11  1  0  0  0  0
  1 13  1  0  0  0  0
  2 12  2  0  0  0  0
  3 17  2  0  0  0  0
  4 21  2  0  0  0  0
  5 33  1  0  0  0  0
  5 38  1  0  0  0  0
  6 32  1  0  0  0  0
  6 39  1  0  0  0  0
  7 37  1  0  0  0  0
 14  8  1  1  0  0  0
  8 17  1  0  0  0  0
 18  9  1  6  0  0  0
  9 21  1  0  0  0  0
 10 25  1  0  0  0  0
 10 26  1  0  0  0  0
 10 29  1  0  0  0  0
 11 12  1  1  0  0  0
 11 13  1  0  0  0  0
 11 15  1  6  0  0  0
 12 14  1  0  0  0  0
 14 16  1  0  0  0  0
 16 19  1  0  0  0  0
 17 18  1  0  0  0  0
 18 20  1  0  0  0  0
 19 23  2  0  0  0  0
 19 24  1  0  0  0  0
 20 22  1  0  0  0  0
 21 25  1  0  0  0  0
 22 27  2  0  0  0  0
 22 28  1  0  0  0  0
 23 30  1  0  0  0  0
 24 31  2  0  0  0  0
 26 33  1  0  0  0  0
 26 37  1  1  0  0  0
 27 34  1  0  0  0  0
 28 35  2  0  0  0  0
 29 38  1  0  0  0  0
 30 36  2  0  0  0  0
 31 36  1  0  0  0  0
 32 34  2  0  0  0  0
 32 35  1  0  0  0  0
M  END
> <PUBCHEM_COMPOUND_ID_TYPE>
0

> <PUBCHEM_TOTAL_CHARGE>
0

> <PUBCHEM_SUBSTANCE_ID>
310945813

> <PUBCHEM_SUBSTANCE_VERSION>
1

> <PUBCHEM_EXT_DATASOURCE_NAME>
4488

> <PUBCHEM_EXT_DATASOURCE_REGID>
SCHEMBL16123917

> <PUBCHEM_SUBSTANCE_COMMENT>
InChI=1S/C29H37N3O7/c1-29(19-39-29)27(35)24(14-20-6-4-3-5-7-20)31-28(36)25(15-21-8-10-23(37-2)11-9-21)30-26(34)16-32-12-13-38-18-22(32)17-33/h3-11,22,24-25,33H,12-19H2,1-2H3,(H,30,34)(H,31,36)/t22-,24-,25-,29+/m0/s1
InChIKey=MPSDLKFYMPGWKZ-WQVVOCBYSA-N

> <PUBCHEM_SUBSTANCE_SYNONYM>
SCHEMBL16123917

> <PUBCHEM_XREF_EXT_ID>
SCHEMBL16123917

> <PUBCHEM_EXT_DATASOURCE_URL>
https://www.surechembl.org/

> <PUBCHEM_EXT_SUBSTANCE_URL>
https://www.surechembl.org/chemical/SCHEMBL16123917

> <PUBCHEM_CID_ASSOCIATIONS>
117611799  1

> <PUBCHEM_COORDINATE_TYPE>
1
3

> <PUBCHEM_BONDANNOTATIONS>
11  12  5
11  15  6
26  37  5
14  8  5
18  9  6

$$$$
