310928828
  -OEChem-07211613022D

  0  0  0     0  0  0  0  0  0999 V2000
M  END
> <PUBCHEM_SUBSTANCE_ID>
310928828

> <PUBCHEM_SUBSTANCE_VERSION>
1

> <PUBCHEM_EXT_DATASOURCE_NAME>
11752

> <PUBCHEM_EXT_DATASOURCE_REGID>
BD298491

> <PUBCHEM_SUBSTANCE_SYNONYM>
113085-62-4
7-O-Methylrosmanol

> <PUBCHEM_GENERIC_REGISTRY_NAME>
113085-62-4

> <PUBCHEM_XREF_EXT_ID>
BD298491

> <PUBCHEM_EXT_DATASOURCE_URL>
http://www.bidepharmatech.com/en/index.html

> <PUBCHEM_EXT_SUBSTANCE_URL>
http://www.bidepharmatech.com/en/goodsview_goodscode_BD298491.html

$$$$
