310928967
  -OEChem-07211613022D

 11 11  0     0  0  0  0  0  0999 V2000
    0.7145    0.8250    0.0000 F   0  0  0  0  0  0  0  0  0  0  0  0
   -0.7145    1.6500    0.0000 F   0  0  0  0  0  0  0  0  0  0  0  0
    0.7145   -1.6500    0.0000 O   0  0  0  0  0  0  0  0  0  0  0  0
    1.4289   -0.4125    0.0000 O   0  0  0  0  0  0  0  0  0  0  0  0
   -1.4289    0.4125    0.0000 N   0  0  0  0  0  0  0  0  0  0  0  0
    0.0000   -0.4125    0.0000 C   0  0  0  0  0  0  0  0  0  0  0  0
    0.0000    0.4125    0.0000 C   0  0  0  0  0  0  0  0  0  0  0  0
   -0.7145    0.8250    0.0000 C   0  0  0  0  0  0  0  0  0  0  0  0
   -0.7145   -0.8250    0.0000 C   0  0  0  0  0  0  0  0  0  0  0  0
   -1.4289   -0.4125    0.0000 C   0  0  0  0  0  0  0  0  0  0  0  0
    0.7145   -0.8250    0.0000 B   0  0  0  0  0  0  0  0  0  0  0  0
  1  7  1  0  0  0  0
  2  8  1  0  0  0  0
  3 11  1  0  0  0  0
  4 11  1  0  0  0  0
  5  8  2  0  0  0  0
  5 10  1  0  0  0  0
  6  7  2  0  0  0  0
  6  9  1  0  0  0  0
  6 11  1  0  0  0  0
  7  8  1  0  0  0  0
  9 10  2  0  0  0  0
M  END
> <PUBCHEM_COMPOUND_ID_TYPE>
0

> <PUBCHEM_TOTAL_CHARGE>
0

> <PUBCHEM_SUBSTANCE_ID>
310928967

> <PUBCHEM_SUBSTANCE_VERSION>
1

> <PUBCHEM_EXT_DATASOURCE_NAME>
11752

> <PUBCHEM_EXT_DATASOURCE_REGID>
BD318688

> <PUBCHEM_SUBSTANCE_SYNONYM>
(2,3-Difluoropyridin-4-yl)boronic acid
1263374-42-0

> <PUBCHEM_GENERIC_REGISTRY_NAME>
1263374-42-0

> <PUBCHEM_XREF_EXT_ID>
BD318688

> <PUBCHEM_EXT_DATASOURCE_URL>
http://www.bidepharmatech.com/en/index.html

> <PUBCHEM_EXT_SUBSTANCE_URL>
http://www.bidepharmatech.com/en/goodsview_goodscode_BD318688.html

> <PUBCHEM_CID_ASSOCIATIONS>
49761750  1

> <PUBCHEM_COORDINATE_TYPE>
1
3

$$$$
