310930539
  -OEChem-07211613022D

 31 34  0     0  0  0  0  0  0999 V2000
    6.4005   -3.5558    0.0000 S   0  0  0  0  0  0  0  0  0  0  0  0
    2.2125   -7.7438    0.0000 S   0  0  0  0  0  0  0  0  0  0  0  0
    5.6103   -3.0817    0.0000 O   0  0  0  0  0  0  0  0  0  0  0  0
    7.0722   -3.9509    0.0000 O   0  0  0  0  0  0  0  0  0  0  0  0
    3.9114   -7.7833    0.0000 O   0  0  0  0  0  0  0  0  0  0  0  0
    6.8351   -1.4223    0.0000 N   0  0  0  0  0  0  0  0  0  0  0  0
    3.9114   -6.4005    0.0000 N   0  0  0  0  0  0  0  0  0  0  0  0
    8.0599   -0.7112    0.0000 N   0  0  0  0  0  0  0  0  0  0  0  0
    0.0000   -7.5068    0.0000 N   0  0  0  0  0  0  0  0  0  0  0  0
    6.0054   -4.2670    0.0000 C   0  0  0  0  0  0  0  0  0  0  0  0
    6.7956   -2.8446    0.0000 C   0  0  0  0  0  0  0  0  0  0  0  0
    2.6866   -7.0722    0.0000 C   0  0  0  0  0  0  0  0  0  0  0  0
    1.4223   -7.5068    0.0000 C   0  0  0  0  0  0  0  0  0  0  0  0
    1.4223   -6.6771    0.0000 C   0  0  0  0  0  0  0  0  0  0  0  0
    2.2125   -6.4400    0.0000 C   0  0  0  0  0  0  0  0  0  0  0  0
    5.1757   -4.2275    0.0000 C   0  0  0  0  0  0  0  0  0  0  0  0
    6.4005   -4.9782    0.0000 C   0  0  0  0  0  0  0  0  0  0  0  0
    6.4400   -2.0940    0.0000 C   0  0  0  0  0  0  0  0  0  0  0  0
    7.6253   -2.8051    0.0000 C   0  0  0  0  0  0  0  0  0  0  0  0
    3.5163   -7.0722    0.0000 C   0  0  0  0  0  0  0  0  0  0  0  0
    5.1757   -5.6894    0.0000 C   0  0  0  0  0  0  0  0  0  0  0  0
    7.6648   -1.3828    0.0000 C   0  0  0  0  0  0  0  0  0  0  0  0
    4.7411   -4.9387    0.0000 C   0  0  0  0  0  0  0  0  0  0  0  0
    5.9659   -5.6498    0.0000 C   0  0  0  0  0  0  0  0  0  0  0  0
    8.0599   -2.1335    0.0000 C   0  0  0  0  0  0  0  0  0  0  0  0
    0.7112   -7.9019    0.0000 C   0  0  0  0  0  0  0  0  0  0  0  0
    0.7112   -6.2820    0.0000 C   0  0  0  0  0  0  0  0  0  0  0  0
    4.7411   -6.4005    0.0000 C   0  0  0  0  0  0  0  0  0  0  0  0
    0.0000   -6.6771    0.0000 C   0  0  0  0  0  0  0  0  0  0  0  0
    8.8896   -0.6716    0.0000 C   0  0  0  0  0  0  0  0  0  0  0  0
    7.6648    0.0000    0.0000 C   0  0  0  0  0  0  0  0  0  0  0  0
  1  3  2  0  0  0  0
  1  4  2  0  0  0  0
  1 10  1  0  0  0  0
  1 11  1  0  0  0  0
  2 12  1  0  0  0  0
  2 13  1  0  0  0  0
  5 20  2  0  0  0  0
  6 18  1  0  0  0  0
  6 22  2  0  0  0  0
  7 20  1  0  0  0  0
  7 28  1  0  0  0  0
  8 22  1  0  0  0  0
  8 30  1  0  0  0  0
  8 31  1  0  0  0  0
  9 26  1  0  0  0  0
  9 29  2  0  0  0  0
 10 16  2  0  0  0  0
 10 17  1  0  0  0  0
 11 18  2  0  0  0  0
 11 19  1  0  0  0  0
 12 15  2  0  0  0  0
 12 20  1  0  0  0  0
 13 14  1  0  0  0  0
 13 26  2  0  0  0  0
 14 15  1  0  0  0  0
 14 27  2  0  0  0  0
 16 23  1  0  0  0  0
 17 24  2  0  0  0  0
 19 25  2  0  0  0  0
 21 23  2  0  0  0  0
 21 24  1  0  0  0  0
 21 28  1  0  0  0  0
 22 25  1  0  0  0  0
 27 29  1  0  0  0  0
M  END
> <PUBCHEM_COMPOUND_ID_TYPE>
0

> <PUBCHEM_TOTAL_CHARGE>
0

> <PUBCHEM_SUBSTANCE_ID>
310930539

> <PUBCHEM_SUBSTANCE_VERSION>
1

> <PUBCHEM_EXT_DATASOURCE_NAME>
4488

> <PUBCHEM_EXT_DATASOURCE_REGID>
SCHEMBL16107831

> <PUBCHEM_SUBSTANCE_COMMENT>
InChI=1S/C22H20N4O3S2/c1-26(2)21-8-7-18(13-24-21)31(28,29)17-5-3-15(4-6-17)12-25-22(27)19-11-16-9-10-23-14-20(16)30-19/h3-11,13-14H,12H2,1-2H3,(H,25,27)
InChIKey=ADBSTWSVMSULKN-UHFFFAOYSA-N

> <PUBCHEM_SUBSTANCE_SYNONYM>
SCHEMBL16107831

> <PUBCHEM_XREF_EXT_ID>
SCHEMBL16107831

> <PUBCHEM_EXT_DATASOURCE_URL>
https://www.surechembl.org/

> <PUBCHEM_EXT_SUBSTANCE_URL>
https://www.surechembl.org/chemical/SCHEMBL16107831

> <PUBCHEM_CID_ASSOCIATIONS>
117599637  1

> <PUBCHEM_COORDINATE_TYPE>
1
3

$$$$
