310937452
  -OEChem-07211613022D

 22 23  0     0  0  0  0  0  0999 V2000
    1.3391   -1.2855    0.0000 O   0  0  0  0  0  0  0  0  0  0  0  0
    2.1693   -0.1607    0.0000 O   0  0  0  0  0  0  0  0  0  0  0  0
    8.0344   -2.8924    0.0000 O   0  0  0  0  0  0  0  0  0  0  0  0
    8.0344   -1.4730    0.0000 O   0  0  0  0  0  0  0  0  0  0  0  0
    6.3472   -2.8388    0.0000 N   0  0  0  0  0  0  0  0  0  0  0  0
    2.7317   -1.4730    0.0000 N   0  0  0  0  0  0  0  0  0  0  0  0
    3.5887   -0.3481    0.0000 N   0  0  0  0  0  0  0  0  0  0  0  0
    5.5437   -1.7676    0.0000 C   0  0  0  0  0  0  0  0  0  0  0  0
    4.9010   -1.2855    0.0000 C   0  0  0  0  0  0  0  0  0  0  0  0
    6.8292   -2.1693    0.0000 C   0  0  0  0  0  0  0  0  0  0  0  0
    6.3472   -1.4998    0.0000 C   0  0  0  0  0  0  0  0  0  0  0  0
    3.4816   -1.1516    0.0000 C   0  0  0  0  0  0  0  0  0  0  0  0
    4.1511   -1.6605    0.0000 C   0  0  0  0  0  0  0  0  0  0  0  0
    5.5437   -2.5978    0.0000 C   0  0  0  0  0  0  0  0  0  0  0  0
    4.9813   -0.5088    0.0000 C   0  0  0  0  0  0  0  0  0  0  0  0
    7.6327   -2.1693    0.0000 C   0  0  0  0  0  0  0  0  0  0  0  0
    2.0889   -0.9909    0.0000 C   0  0  0  0  0  0  0  0  0  0  0  0
    4.3118    0.0000    0.0000 C   0  0  0  0  0  0  0  0  0  0  0  0
    0.6695   -0.8034    0.0000 C   0  0  0  0  0  0  0  0  0  0  0  0
    0.0000   -0.3214    0.0000 C   0  0  0  0  0  0  0  0  0  0  0  0
    1.1516   -0.1607    0.0000 C   0  0  0  0  0  0  0  0  0  0  0  0
    0.1874   -1.4730    0.0000 C   0  0  0  0  0  0  0  0  0  0  0  0
  1 17  1  0  0  0  0
  1 19  1  0  0  0  0
  2 17  2  0  0  0  0
  3 16  2  0  0  0  0
  4 16  1  0  0  0  0
  5 10  1  0  0  0  0
  5 14  1  0  0  0  0
  6 12  1  0  0  0  0
  6 17  1  0  0  0  0
  7 12  1  0  0  0  0
  7 18  2  0  0  0  0
  8  9  1  0  0  0  0
  8 11  1  0  0  0  0
  8 14  2  0  0  0  0
  9 13  1  0  0  0  0
  9 15  2  0  0  0  0
 10 11  2  0  0  0  0
 10 16  1  0  0  0  0
 12 13  2  0  0  0  0
 15 18  1  0  0  0  0
 19 20  1  0  0  0  0
 19 21  1  0  0  0  0
 19 22  1  0  0  0  0
M  END
> <PUBCHEM_COMPOUND_ID_TYPE>
0

> <PUBCHEM_TOTAL_CHARGE>
0

> <PUBCHEM_SUBSTANCE_ID>
310937452

> <PUBCHEM_SUBSTANCE_VERSION>
1

> <PUBCHEM_EXT_DATASOURCE_NAME>
4488

> <PUBCHEM_EXT_DATASOURCE_REGID>
SCHEMBL16115220

> <PUBCHEM_SUBSTANCE_COMMENT>
InChI=1S/C15H17N3O4/c1-15(2,3)22-14(21)18-12-7-9(4-5-16-12)10-6-11(13(19)20)17-8-10/h4-8,17H,1-3H3,(H,19,20)(H,16,18,21)
InChIKey=WTRYIXHMXNGGRL-UHFFFAOYSA-N

> <PUBCHEM_SUBSTANCE_SYNONYM>
SCHEMBL16115220

> <PUBCHEM_XREF_EXT_ID>
SCHEMBL16115220

> <PUBCHEM_EXT_DATASOURCE_URL>
https://www.surechembl.org/

> <PUBCHEM_EXT_SUBSTANCE_URL>
https://www.surechembl.org/chemical/SCHEMBL16115220

> <PUBCHEM_CID_ASSOCIATIONS>
117605196  1

> <PUBCHEM_COORDINATE_TYPE>
1
3

$$$$
