310932395
  -OEChem-07211613022D

 30 33  0     0  0  0  0  0  0999 V2000
    3.9929   -2.7060    0.0000 O   0  0  0  0  0  0  0  0  0  0  0  0
    8.4148   -2.8050    0.0000 O   0  0  0  0  0  0  0  0  0  0  0  0
    9.8998   -5.2799    0.0000 O   0  0  0  0  0  0  0  0  0  0  0  0
    4.8839   -1.5840    0.0000 N   0  0  0  0  0  0  0  0  0  0  0  0
    4.7849   -0.7590    0.0000 N   0  0  0  0  0  0  0  0  0  0  0  0
    6.3029   -1.5840    0.0000 N   0  0  0  0  0  0  0  0  0  0  0  0
    7.7219   -4.0259    0.0000 N   0  0  0  0  0  0  0  0  0  0  0  0
    0.0000   -2.4420    0.0000 N   0  0  0  0  0  0  0  0  0  0  0  0
    3.5639   -1.3200    0.0000 C   0  0  0  0  0  0  0  0  0  0  0  0
    4.1249   -1.9139    0.0000 C   0  0  0  0  0  0  0  0  0  0  0  0
    2.7720   -1.4190    0.0000 C   0  0  0  0  0  0  0  0  0  0  0  0
    5.5769   -1.9800    0.0000 C   0  0  0  0  0  0  0  0  0  0  0  0
    3.9929   -0.6270    0.0000 C   0  0  0  0  0  0  0  0  0  0  0  0
    2.2769   -0.7590    0.0000 C   0  0  0  0  0  0  0  0  0  0  0  0
    5.5769   -2.8050    0.0000 C   0  0  0  0  0  0  0  0  0  0  0  0
    2.4420   -2.1450    0.0000 C   0  0  0  0  0  0  0  0  0  0  0  0
    6.9959   -2.8050    0.0000 C   0  0  0  0  0  0  0  0  0  0  0  0
    1.4520   -0.8580    0.0000 C   0  0  0  0  0  0  0  0  0  0  0  0
    6.9959   -1.9800    0.0000 C   0  0  0  0  0  0  0  0  0  0  0  0
    6.3029   -3.2009    0.0000 C   0  0  0  0  0  0  0  0  0  0  0  0
    1.1220   -1.5840    0.0000 C   0  0  0  0  0  0  0  0  0  0  0  0
    1.6170   -2.2439    0.0000 C   0  0  0  0  0  0  0  0  0  0  0  0
    7.7219   -3.2009    0.0000 C   0  0  0  0  0  0  0  0  0  0  0  0
    2.6069    0.0000    0.0000 C   0  0  0  0  0  0  0  0  0  0  0  0
    8.4478   -4.4549    0.0000 C   0  0  0  0  0  0  0  0  0  0  0  0
    0.3300   -1.6830    0.0000 C   0  0  0  0  0  0  0  0  0  0  0  0
    8.4478   -5.2799    0.0000 C   0  0  0  0  0  0  0  0  0  0  0  0
    9.1738   -4.0589    0.0000 C   0  0  0  0  0  0  0  0  0  0  0  0
    9.1738   -5.6759    0.0000 C   0  0  0  0  0  0  0  0  0  0  0  0
    9.8668   -4.4549    0.0000 C   0  0  0  0  0  0  0  0  0  0  0  0
  1 10  1  0  0  0  0
  2 23  2  0  0  0  0
  3 29  1  0  0  0  0
  3 30  1  0  0  0  0
  4  5  1  0  0  0  0
  4 10  1  0  0  0  0
  4 12  1  0  0  0  0
  5 13  2  0  0  0  0
  6 12  2  0  0  0  0
  6 19  1  0  0  0  0
  7 23  1  0  0  0  0
  7 25  1  0  0  0  0
  8 26  3  0  0  0  0
  9 10  2  0  0  0  0
  9 11  1  0  0  0  0
  9 13  1  0  0  0  0
 11 14  1  0  0  0  0
 11 16  2  0  0  0  0
 12 15  1  0  0  0  0
 14 18  2  0  0  0  0
 14 24  1  0  0  0  0
 15 20  2  0  0  0  0
 16 22  1  0  0  0  0
 17 19  2  0  0  0  0
 17 20  1  0  0  0  0
 17 23  1  0  0  0  0
 18 21  1  0  0  0  0
 21 22  2  0  0  0  0
 21 26  1  0  0  0  0
 25 27  1  0  0  0  0
 25 28  1  0  0  0  0
 27 29  1  0  0  0  0
 28 30  1  0  0  0  0
M  END
> <PUBCHEM_COMPOUND_ID_TYPE>
0

> <PUBCHEM_TOTAL_CHARGE>
0

> <PUBCHEM_SUBSTANCE_ID>
310932395

> <PUBCHEM_SUBSTANCE_VERSION>
1

> <PUBCHEM_EXT_DATASOURCE_NAME>
4488

> <PUBCHEM_EXT_DATASOURCE_REGID>
SCHEMBL16109763

> <PUBCHEM_SUBSTANCE_COMMENT>
InChI=1S/C22H21N5O3/c1-14-10-15(11-23)2-4-18(14)19-13-25-27(22(19)29)20-5-3-16(12-24-20)21(28)26-17-6-8-30-9-7-17/h2-5,10,12-13,17,29H,6-9H2,1H3,(H,26,28)
InChIKey=NQNPQFMINISIIP-UHFFFAOYSA-N

> <PUBCHEM_SUBSTANCE_SYNONYM>
SCHEMBL16109763

> <PUBCHEM_XREF_EXT_ID>
SCHEMBL16109763

> <PUBCHEM_EXT_DATASOURCE_URL>
https://www.surechembl.org/

> <PUBCHEM_EXT_SUBSTANCE_URL>
https://www.surechembl.org/chemical/SCHEMBL16109763

> <PUBCHEM_CID_ASSOCIATIONS>
117600949  1

> <PUBCHEM_COORDINATE_TYPE>
1
3

$$$$
