310931592
  -OEChem-07211613022D

 31 34  0     0  0  0  0  0  0999 V2000
    2.7901   -2.7534    0.0000 O   0  0  0  0  0  0  0  0  0  0  0  0
    1.8723   -6.4980    0.0000 O   0  0  0  0  0  0  0  0  0  0  0  0
    0.5140   -3.2674    0.0000 O   0  0  0  0  0  0  0  0  0  0  0  0
    4.2218   -2.5331    0.0000 N   0  0  0  0  0  0  0  0  0  0  0  0
    4.6624   -3.7813    0.0000 N   0  0  0  0  0  0  0  0  0  0  0  0
    5.6903   -2.7534    0.0000 N   0  0  0  0  0  0  0  0  0  0  0  0
    3.8181   -3.7813    0.0000 C   0  0  0  0  0  0  0  0  0  0  0  0
    3.5611   -3.0104    0.0000 C   0  0  0  0  0  0  0  0  0  0  0  0
    3.3408   -4.4788    0.0000 C   0  0  0  0  0  0  0  0  0  0  0  0
    3.0104   -3.6712    0.0000 C   0  0  0  0  0  0  0  0  0  0  0  0
    4.9194   -3.0104    0.0000 C   0  0  0  0  0  0  0  0  0  0  0  0
    4.2218   -1.6887    0.0000 C   0  0  0  0  0  0  0  0  0  0  0  0
    3.6712   -5.2131    0.0000 C   0  0  0  0  0  0  0  0  0  0  0  0
    2.6433   -4.4788    0.0000 C   0  0  0  0  0  0  0  0  0  0  0  0
    2.4964   -4.3687    0.0000 C   0  0  0  0  0  0  0  0  0  0  0  0
    2.6799   -2.9003    0.0000 C   0  0  0  0  0  0  0  0  0  0  0  0
    3.5244   -1.2482    0.0000 C   0  0  0  0  0  0  0  0  0  0  0  0
    4.9561   -1.2482    0.0000 C   0  0  0  0  0  0  0  0  0  0  0  0
    3.1939   -5.9106    0.0000 C   0  0  0  0  0  0  0  0  0  0  0  0
    1.6520   -4.1852    0.0000 C   0  0  0  0  0  0  0  0  0  0  0  0
    2.0191   -5.0662    0.0000 C   0  0  0  0  0  0  0  0  0  0  0  0
    1.8723   -2.7534    0.0000 C   0  0  0  0  0  0  0  0  0  0  0  0
    2.3496   -5.8005    0.0000 C   0  0  0  0  0  0  0  0  0  0  0  0
    1.3584   -3.4142    0.0000 C   0  0  0  0  0  0  0  0  0  0  0  0
    3.5244   -0.4406    0.0000 C   0  0  0  0  0  0  0  0  0  0  0  0
    4.9561   -0.4406    0.0000 C   0  0  0  0  0  0  0  0  0  0  0  0
    4.2218    0.0000    0.0000 C   0  0  0  0  0  0  0  0  0  0  0  0
    2.2027   -7.2322    0.0000 C   0  0  0  0  0  0  0  0  0  0  0  0
    0.0000   -3.8915    0.0000 C   0  0  0  0  0  0  0  0  0  0  0  0
    3.0104   -7.3424    0.0000 C   0  0  0  0  0  0  0  0  0  0  0  0
    0.2937   -4.6624    0.0000 C   0  0  0  0  0  0  0  0  0  0  0  0
  1  8  2  0  0  0  0
  2 23  1  0  0  0  0
  2 28  1  0  0  0  0
  3 24  1  0  0  0  0
  3 29  1  0  0  0  0
  4  8  1  0  0  0  0
  4 11  1  0  0  0  0
  4 12  1  0  0  0  0
  5  7  1  0  0  0  0
  5 11  1  0  0  0  0
  6 11  2  3  0  0  0
  7  8  1  0  0  0  0
  7  9  1  0  0  0  0
  7 10  1  0  0  0  0
  9 13  2  0  0  0  0
  9 15  1  0  0  0  0
 10 14  2  0  0  0  0
 10 16  1  0  0  0  0
 12 17  1  0  0  0  0
 12 18  1  0  0  0  0
 13 19  1  0  0  0  0
 14 20  1  0  0  0  0
 15 21  2  0  0  0  0
 16 22  2  0  0  0  0
 17 25  1  0  0  0  0
 18 26  1  0  0  0  0
 19 23  2  0  0  0  0
 20 24  2  0  0  0  0
 21 23  1  0  0  0  0
 22 24  1  0  0  0  0
 25 27  1  0  0  0  0
 26 27  1  0  0  0  0
 28 30  1  0  0  0  0
 29 31  1  0  0  0  0
M  END
> <PUBCHEM_COMPOUND_ID_TYPE>
0

> <PUBCHEM_TOTAL_CHARGE>
0

> <PUBCHEM_SUBSTANCE_ID>
310931592

> <PUBCHEM_SUBSTANCE_VERSION>
1

> <PUBCHEM_EXT_DATASOURCE_NAME>
4488

> <PUBCHEM_EXT_DATASOURCE_REGID>
SCHEMBL16108918

> <PUBCHEM_SUBSTANCE_COMMENT>
InChI=1S/C25H31N3O3/c1-3-30-21-14-10-18(11-15-21)25(19-12-16-22(17-13-19)31-4-2)23(29)28(24(26)27-25)20-8-6-5-7-9-20/h10-17,20H,3-9H2,1-2H3,(H2,26,27)
InChIKey=MQIZZAWCFMITBV-UHFFFAOYSA-N

> <PUBCHEM_SUBSTANCE_SYNONYM>
SCHEMBL16108918

> <PUBCHEM_XREF_EXT_ID>
SCHEMBL16108918

> <PUBCHEM_EXT_DATASOURCE_URL>
https://www.surechembl.org/

> <PUBCHEM_EXT_SUBSTANCE_URL>
https://www.surechembl.org/chemical/SCHEMBL16108918

> <PUBCHEM_CID_ASSOCIATIONS>
76332091  1

> <PUBCHEM_COORDINATE_TYPE>
1
3

$$$$
