310944930
  -OEChem-07211613022D

 37 41  0     0  0  0  0  0  0999 V2000
    1.6023    2.6766    0.0000 S   0  0  0  0  0  0  0  0  0  0  0  0
   -4.3699   -3.7326    0.0000 O   0  0  0  0  0  0  0  0  0  0  0  0
    3.8965   -1.3655    0.0000 O   0  0  0  0  0  0  0  0  0  0  0  0
    4.6065   -0.1093    0.0000 O   0  0  0  0  0  0  0  0  0  0  0  0
   -4.1878   -1.5294    0.0000 N   0  0  0  0  0  0  0  0  0  0  0  0
   -4.6065   -0.8011    0.0000 N   0  0  0  0  0  0  0  0  0  0  0  0
   -0.4188    1.9665    0.0000 C   0  0  0  0  0  0  0  0  0  0  0  0
   -0.4370    1.1289    0.0000 C   0  0  0  0  0  0  0  0  0  0  0  0
    0.2913    2.3852    0.0000 C   0  0  0  0  0  0  0  0  0  0  0  0
   -1.1653    2.3852    0.0000 C   0  0  0  0  0  0  0  0  0  0  0  0
   -1.1289    0.7101    0.0000 C   0  0  0  0  0  0  0  0  0  0  0  0
    0.2913    0.7101    0.0000 C   0  0  0  0  0  0  0  0  0  0  0  0
    0.4006    3.2046    0.0000 C   0  0  0  0  0  0  0  0  0  0  0  0
    1.0560    2.0392    0.0000 C   0  0  0  0  0  0  0  0  0  0  0  0
   -1.9300    2.1667    0.0000 C   0  0  0  0  0  0  0  0  0  0  0  0
   -1.3655    3.1681    0.0000 C   0  0  0  0  0  0  0  0  0  0  0  0
   -1.8936    1.1106    0.0000 C   0  0  0  0  0  0  0  0  0  0  0  0
   -1.1471   -0.1275    0.0000 C   0  0  0  0  0  0  0  0  0  0  0  0
   -2.5855   -0.1275    0.0000 C   0  0  0  0  0  0  0  0  0  0  0  0
    0.3095   -0.1275    0.0000 C   0  0  0  0  0  0  0  0  0  0  0  0
    0.9832    1.1106    0.0000 C   0  0  0  0  0  0  0  0  0  0  0  0
   -2.1485    2.9679    0.0000 C   0  0  0  0  0  0  0  0  0  0  0  0
   -3.2956   -0.5281    0.0000 C   0  0  0  0  0  0  0  0  0  0  0  0
   -2.5491    0.7101    0.0000 C   0  0  0  0  0  0  0  0  0  0  0  0
   -1.8572   -0.5281    0.0000 C   0  0  0  0  0  0  0  0  0  0  0  0
    1.2017    3.3684    0.0000 C   0  0  0  0  0  0  0  0  0  0  0  0
    1.7116   -0.1093    0.0000 C   0  0  0  0  0  0  0  0  0  0  0  0
    1.0196   -0.5281    0.0000 C   0  0  0  0  0  0  0  0  0  0  0  0
    1.7297    0.7101    0.0000 C   0  0  0  0  0  0  0  0  0  0  0  0
   -3.3866   -1.3838    0.0000 C   0  0  0  0  0  0  0  0  0  0  0  0
   -0.2367    3.7326    0.0000 C   0  0  0  0  0  0  0  0  0  0  0  0
   -4.0603   -0.2185    0.0000 C   0  0  0  0  0  0  0  0  0  0  0  0
    2.4580   -0.5462    0.0000 C   0  0  0  0  0  0  0  0  0  0  0  0
   -4.5337   -2.3306    0.0000 C   0  0  0  0  0  0  0  0  0  0  0  0
    3.1681   -0.1275    0.0000 C   0  0  0  0  0  0  0  0  0  0  0  0
   -4.0603   -2.9679    0.0000 C   0  0  0  0  0  0  0  0  0  0  0  0
    3.8965   -0.5281    0.0000 C   0  0  0  0  0  0  0  0  0  0  0  0
  1 14  1  0  0  0  0
  1 26  1  0  0  0  0
  2 36  1  0  0  0  0
  3 37  2  0  0  0  0
  4 37  1  0  0  0  0
  5  6  1  0  0  0  0
  5 30  1  0  0  0  0
  5 34  1  0  0  0  0
  6 32  2  0  0  0  0
  7  8  2  0  0  0  0
  7  9  1  0  0  0  0
  7 10  1  0  0  0  0
  8 11  1  0  0  0  0
  8 12  1  0  0  0  0
  9 13  1  0  0  0  0
  9 14  2  0  0  0  0
 10 15  1  0  0  0  0
 10 16  1  0  0  0  0
 11 17  2  0  0  0  0
 11 18  1  0  0  0  0
 12 20  2  0  0  0  0
 12 21  1  0  0  0  0
 13 26  2  0  0  0  0
 13 31  1  0  0  0  0
 15 22  1  0  0  0  0
 16 22  1  0  0  0  0
 17 24  1  0  0  0  0
 18 25  2  0  0  0  0
 19 23  1  0  0  0  0
 19 24  2  0  0  0  0
 19 25  1  0  0  0  0
 20 28  1  0  0  0  0
 21 29  2  0  0  0  0
 23 30  2  0  0  0  0
 23 32  1  0  0  0  0
 27 28  2  0  0  0  0
 27 29  1  0  0  0  0
 27 33  1  0  0  0  0
 33 35  2  0  0  0  0
 34 36  1  0  0  0  0
 35 37  1  0  0  0  0
M  END
> <PUBCHEM_COMPOUND_ID_TYPE>
0

> <PUBCHEM_TOTAL_CHARGE>
0

> <PUBCHEM_SUBSTANCE_ID>
310944930

> <PUBCHEM_SUBSTANCE_VERSION>
1

> <PUBCHEM_EXT_DATASOURCE_NAME>
4488

> <PUBCHEM_EXT_DATASOURCE_REGID>
SCHEMBL16123015

> <PUBCHEM_SUBSTANCE_COMMENT>
InChI=1S/C31H30N2O3S/c1-21-19-37-20-28(21)31(24-3-2-4-24)30(25-8-5-22(6-9-25)7-14-29(35)36)26-12-10-23(11-13-26)27-17-32-33(18-27)15-16-34/h5-14,17-20,24,34H,2-4,15-16H2,1H3,(H,35,36)/b14-7+,31-30+
InChIKey=PIEJUQXOBHSYKC-CVJZFARVSA-N

> <PUBCHEM_SUBSTANCE_SYNONYM>
SCHEMBL16123015

> <PUBCHEM_XREF_EXT_ID>
SCHEMBL16123015

> <PUBCHEM_EXT_DATASOURCE_URL>
https://www.surechembl.org/

> <PUBCHEM_EXT_SUBSTANCE_URL>
https://www.surechembl.org/chemical/SCHEMBL16123015

> <PUBCHEM_CID_ASSOCIATIONS>
86270528  1

> <PUBCHEM_COORDINATE_TYPE>
1
3

$$$$
