310947608
  -OEChem-07211613022D

 26 25  0     0  0  0  0  0  0999 V2000
    3.7955    0.7135    0.0000 N   0  0  0  0  0  0  0  0  0  0  0  0
   -1.1034    0.2280    0.0000 C   0  0  0  0  0  0  0  0  0  0  0  0
    1.7065    0.2574    0.0000 C   0  0  0  0  0  0  0  0  0  0  0  0
   -3.8249    0.2133    0.0000 C   0  0  0  0  0  0  0  0  0  0  0  0
   -0.4266    0.6547    0.0000 C   0  0  0  0  0  0  0  0  0  0  0  0
   -1.8242    0.6399    0.0000 C   0  0  0  0  0  0  0  0  0  0  0  0
    0.9709    0.6694    0.0000 C   0  0  0  0  0  0  0  0  0  0  0  0
   -3.1482    0.6252    0.0000 C   0  0  0  0  0  0  0  0  0  0  0  0
    0.2795    0.2280    0.0000 C   0  0  0  0  0  0  0  0  0  0  0  0
   -2.4715    0.2133    0.0000 C   0  0  0  0  0  0  0  0  0  0  0  0
    2.3538    0.6840    0.0000 C   0  0  0  0  0  0  0  0  0  0  0  0
   -4.5457    0.6105    0.0000 C   0  0  0  0  0  0  0  0  0  0  0  0
   -5.1783    0.1839    0.0000 C   0  0  0  0  0  0  0  0  0  0  0  0
    3.1335    0.2721    0.0000 C   0  0  0  0  0  0  0  0  0  0  0  0
   -1.0886   -0.6694    0.0000 C   0  0  0  0  0  0  0  0  0  0  0  0
   -5.9433    0.5958    0.0000 C   0  0  0  0  0  0  0  0  0  0  0  0
    1.7212   -0.6399    0.0000 C   0  0  0  0  0  0  0  0  0  0  0  0
   -3.8102   -0.6988    0.0000 C   0  0  0  0  0  0  0  0  0  0  0  0
   -6.6053    0.1692    0.0000 C   0  0  0  0  0  0  0  0  0  0  0  0
    4.5457    0.2869    0.0000 C   0  0  0  0  0  0  0  0  0  0  0  0
    5.2078    0.7135    0.0000 C   0  0  0  0  0  0  0  0  0  0  0  0
   -7.3556    0.5811    0.0000 C   0  0  0  0  0  0  0  0  0  0  0  0
   -6.5906   -0.7429    0.0000 C   0  0  0  0  0  0  0  0  0  0  0  0
    5.9139    0.3163    0.0000 C   0  0  0  0  0  0  0  0  0  0  0  0
    6.6200    0.7429    0.0000 C   0  0  0  0  0  0  0  0  0  0  0  0
    7.3556    0.3163    0.0000 C   0  0  0  0  0  0  0  0  0  0  0  0
  1 14  1  0  0  0  0
  1 20  1  0  0  0  0
  2  5  2  0  0  0  0
  2  6  1  0  0  0  0
  2 15  1  0  0  0  0
  3  7  1  0  0  0  0
  3 11  2  0  0  0  0
  3 17  1  0  0  0  0
  4  8  2  0  0  0  0
  4 12  1  0  0  0  0
  4 18  1  0  0  0  0
  5  9  1  0  0  0  0
  6 10  1  0  0  0  0
  7  9  1  0  0  0  0
  8 10  1  0  0  0  0
 11 14  1  0  0  0  0
 12 13  1  0  0  0  0
 13 16  1  0  0  0  0
 16 19  2  0  0  0  0
 19 22  1  0  0  0  0
 19 23  1  0  0  0  0
 20 21  1  0  0  0  0
 21 24  1  0  0  0  0
 24 25  1  0  0  0  0
 25 26  1  0  0  0  0
M  END
> <PUBCHEM_COMPOUND_ID_TYPE>
0

> <PUBCHEM_TOTAL_CHARGE>
0

> <PUBCHEM_SUBSTANCE_ID>
310947608

> <PUBCHEM_SUBSTANCE_VERSION>
1

> <PUBCHEM_EXT_DATASOURCE_NAME>
4488

> <PUBCHEM_EXT_DATASOURCE_REGID>
SCHEMBL16125771

> <PUBCHEM_SUBSTANCE_COMMENT>
InChI=1S/C25H45N/c1-7-8-9-20-26-21-19-25(6)18-12-17-24(5)16-11-15-23(4)14-10-13-22(2)3/h13,15,17,19,26H,7-12,14,16,18,20-21H2,1-6H3/b23-15+,24-17+,25-19+
InChIKey=ZECTUYOUKFQIGQ-ZDCQHEDLSA-N

> <PUBCHEM_SUBSTANCE_SYNONYM>
SCHEMBL16125771

> <PUBCHEM_XREF_EXT_ID>
SCHEMBL16125771

> <PUBCHEM_EXT_DATASOURCE_URL>
https://www.surechembl.org/

> <PUBCHEM_EXT_SUBSTANCE_URL>
https://www.surechembl.org/chemical/SCHEMBL16125771

> <PUBCHEM_CID_ASSOCIATIONS>
117613329  1

> <PUBCHEM_COORDINATE_TYPE>
1
3

$$$$
