310939741
  -OEChem-07211613022D

 13 13  0     0  0  0  0  0  0999 V2000
   -2.0656   -6.3969    0.0000 Br  0  0  0  0  0  0  0  0  0  0  0  0
   -0.6367   -7.2219    0.0000 Cl  0  0  0  0  0  0  0  0  0  0  0  0
   -3.4946   -8.8719    0.0000 O   0  0  0  0  0  0  0  0  0  0  0  0
   -2.0656   -8.8719    0.0000 C   0  0  0  0  0  0  0  0  0  0  0  0
   -2.0656   -9.6969    0.0000 C   0  0  0  0  0  0  0  0  0  0  0  0
   -2.7801   -8.4594    0.0000 C   0  0  0  0  0  0  0  0  0  0  0  0
   -1.3512   -7.6344    0.0000 C   0  0  0  0  0  0  0  0  0  0  0  0
   -1.3512   -8.4594    0.0000 C   0  0  0  0  0  0  0  0  0  0  0  0
   -2.0656   -7.2219    0.0000 C   0  0  0  0  0  0  0  0  0  0  0  0
   -2.7801   -7.6344    0.0000 C   0  0  0  0  0  0  0  0  0  0  0  0
   -1.2406   -9.6969    0.0000 C   0  0  0  0  0  0  0  0  0  0  0  0
   -2.8906   -9.6969    0.0000 C   0  0  0  0  0  0  0  0  0  0  0  0
   -2.0656  -10.5219    0.0000 C   0  0  0  0  0  0  0  0  0  0  0  0
  1  9  1  0  0  0  0
  2  7  1  0  0  0  0
  3  6  1  0  0  0  0
  4  5  1  0  0  0  0
  4  6  1  0  0  0  0
  4  8  2  0  0  0  0
  5 11  1  0  0  0  0
  5 12  1  0  0  0  0
  5 13  1  0  0  0  0
  6 10  2  0  0  0  0
  7  8  1  0  0  0  0
  7  9  2  0  0  0  0
  9 10  1  0  0  0  0
M  END
> <PUBCHEM_COMPOUND_ID_TYPE>
0

> <PUBCHEM_TOTAL_CHARGE>
0

> <PUBCHEM_SUBSTANCE_ID>
310939741

> <PUBCHEM_SUBSTANCE_VERSION>
1

> <PUBCHEM_EXT_DATASOURCE_NAME>
4488

> <PUBCHEM_EXT_DATASOURCE_REGID>
SCHEMBL16117671

> <PUBCHEM_SUBSTANCE_COMMENT>
InChI=1S/C10H12BrClO/c1-10(2,3)6-4-8(12)7(11)5-9(6)13/h4-5,13H,1-3H3
InChIKey=HWWBMAGGETUTFW-UHFFFAOYSA-N

> <PUBCHEM_SUBSTANCE_SYNONYM>
SCHEMBL16117671

> <PUBCHEM_XREF_EXT_ID>
SCHEMBL16117671

> <PUBCHEM_EXT_DATASOURCE_URL>
https://www.surechembl.org/

> <PUBCHEM_EXT_SUBSTANCE_URL>
https://www.surechembl.org/chemical/SCHEMBL16117671

> <PUBCHEM_CID_ASSOCIATIONS>
117606964  1

> <PUBCHEM_COORDINATE_TYPE>
1
3

> <PUBCHEM_BONDANNOTATIONS>
5  11  3
5  12  3

$$$$
