310939257
  -OEChem-07211613022D

 27 28  0     1  0  0  0  0  0999 V2000
    0.4125    1.1953    0.0000 Cl  0  0  0  0  0  0  0  0  0  0  0  0
   -0.3272   -1.5652    0.0000 F   0  0  0  0  0  0  0  0  0  0  0  0
    0.8396   -0.3984    0.0000 O   0  0  0  0  0  0  0  0  0  0  0  0
   -3.7564    1.3012    0.0000 O   0  0  0  0  0  0  0  0  0  0  0  0
   -2.7178   -0.9246    0.0000 N   0  0  0  0  0  0  0  0  0  0  0  0
   -2.5189    2.0157    0.0000 N   0  0  0  0  0  0  0  0  0  0  0  0
    0.0427   -0.1849    0.0000 C   0  0  0  0  0  0  0  0  0  0  0  0
   -0.5407   -0.7683    0.0000 C   0  0  0  0  0  0  0  0  0  0  0  0
   -1.3376   -0.5548    0.0000 C   0  0  0  0  0  0  0  0  0  0  0  0
   -0.1709    0.6120    0.0000 C   0  0  0  0  0  0  0  0  0  0  0  0
   -1.9210   -1.1381    0.0000 C   0  0  3  0  0  0  0  0  0  0  0  0
   -1.5511    0.2421    0.0000 C   0  0  0  0  0  0  0  0  0  0  0  0
   -0.9678    0.8255    0.0000 C   0  0  0  0  0  0  0  0  0  0  0  0
    1.4229    0.1849    0.0000 C   0  0  0  0  0  0  0  0  0  0  0  0
   -1.7074   -1.9350    0.0000 C   0  0  0  0  0  0  0  0  0  0  0  0
    2.2198   -0.0286    0.0000 C   0  0  0  0  0  0  0  0  0  0  0  0
    1.2094    0.9818    0.0000 C   0  0  0  0  0  0  0  0  0  0  0  0
   -2.9314   -0.1277    0.0000 C   0  0  3  0  0  0  0  0  0  0  0  0
    2.5896    1.3516    0.0000 C   0  0  0  0  0  0  0  0  0  0  0  0
    2.8032    0.5548    0.0000 C   0  0  0  0  0  0  0  0  0  0  0  0
    1.7928    1.5652    0.0000 C   0  0  0  0  0  0  0  0  0  0  0  0
   -2.5189    0.5868    0.0000 C   0  0  0  0  0  0  0  0  0  0  0  0
   -2.2908   -2.5184    0.0000 C   0  0  0  0  0  0  0  0  0  0  0  0
    3.1730    1.9350    0.0000 C   0  0  0  0  0  0  0  0  0  0  0  0
   -3.7283    0.0858    0.0000 C   0  0  0  0  0  0  0  0  0  0  0  0
   -2.9314    1.3012    0.0000 C   0  0  0  0  0  0  0  0  0  0  0  0
    3.7564    2.5184    0.0000 C   0  0  0  0  0  0  0  0  0  0  0  0
  1 10  1  0  0  0  0
  2  8  1  0  0  0  0
  3  7  1  0  0  0  0
  3 14  1  0  0  0  0
  4 26  2  0  0  0  0
 11  5  1  1  0  0  0
  5 18  1  0  0  0  0
  6 26  1  0  0  0  0
  7  8  1  0  0  0  0
  7 10  2  0  0  0  0
  8  9  2  0  0  0  0
  9 11  1  0  0  0  0
  9 12  1  0  0  0  0
 10 13  1  0  0  0  0
 11 15  1  0  0  0  0
 12 13  2  0  0  0  0
 14 16  2  0  0  0  0
 14 17  1  0  0  0  0
 15 23  1  0  0  0  0
 16 20  1  0  0  0  0
 17 21  2  0  0  0  0
 18 22  1  0  0  0  0
 18 25  1  1  0  0  0
 19 20  2  0  0  0  0
 19 21  1  0  0  0  0
 19 24  1  0  0  0  0
 22 26  1  0  0  0  0
 24 27  3  0  0  0  0
M  END
> <PUBCHEM_COMPOUND_ID_TYPE>
0

> <PUBCHEM_TOTAL_CHARGE>
0

> <PUBCHEM_SUBSTANCE_ID>
310939257

> <PUBCHEM_SUBSTANCE_VERSION>
1

> <PUBCHEM_EXT_DATASOURCE_NAME>
4488

> <PUBCHEM_EXT_DATASOURCE_REGID>
SCHEMBL16117178

> <PUBCHEM_SUBSTANCE_COMMENT>
InChI=1S/C21H22ClFN2O2/c1-4-14-6-8-15(9-7-14)27-21-17(22)11-10-16(20(21)23)18(5-2)25-13(3)12-19(24)26/h1,6-11,13,18,25H,5,12H2,2-3H3,(H2,24,26)/t13-,18+/m0/s1
InChIKey=IAFFFCUPFHABES-SCLBCKFNSA-N

> <PUBCHEM_SUBSTANCE_SYNONYM>
SCHEMBL16117178

> <PUBCHEM_XREF_EXT_ID>
SCHEMBL16117178

> <PUBCHEM_EXT_DATASOURCE_URL>
https://www.surechembl.org/

> <PUBCHEM_EXT_SUBSTANCE_URL>
https://www.surechembl.org/chemical/SCHEMBL16117178

> <PUBCHEM_CID_ASSOCIATIONS>
117606604  1

> <PUBCHEM_COORDINATE_TYPE>
1
3

> <PUBCHEM_BONDANNOTATIONS>
18  25  5
11  5  5

$$$$
