310948230
  -OEChem-07211613022D

 45 50  0     0  0  0  0  0  0999 V2000
   -2.0557   -3.1352    0.0000 S   0  0  0  0  0  0  0  0  0  0  0  0
    0.5953   -3.2622    0.0000 F   0  0  0  0  0  0  0  0  0  0  0  0
    1.6588   -3.5955    0.0000 F   0  0  0  0  0  0  0  0  0  0  0  0
   -0.3413    4.1829    0.0000 F   0  0  0  0  0  0  0  0  0  0  0  0
    0.7541    4.3734    0.0000 F   0  0  0  0  0  0  0  0  0  0  0  0
    0.9445    3.2622    0.0000 F   0  0  0  0  0  0  0  0  0  0  0  0
    2.1509    1.2461    0.0000 O   0  0  0  0  0  0  0  0  0  0  0  0
    0.8334   -2.1827    0.0000 O   0  0  0  0  0  0  0  0  0  0  0  0
    2.1192   -2.5955    0.0000 O   0  0  0  0  0  0  0  0  0  0  0  0
   -2.4367   -2.4684    0.0000 O   0  0  0  0  0  0  0  0  0  0  0  0
   -1.6430   -3.8337    0.0000 O   0  0  0  0  0  0  0  0  0  0  0  0
    0.1032   -4.3734    0.0000 O   0  0  0  0  0  0  0  0  0  0  0  0
   -0.6112    1.8017    0.0000 N   0  0  0  0  0  0  0  0  0  0  0  0
    0.9287    1.8017    0.0000 N   0  0  0  0  0  0  0  0  0  0  0  0
    0.0714    2.2780    0.0000 N   0  0  0  0  0  0  0  0  0  0  0  0
    0.1191    0.5635    0.0000 C   0  0  0  0  0  0  0  0  0  0  0  0
    0.8334    0.9921    0.0000 C   0  0  0  0  0  0  0  0  0  0  0  0
   -0.6112    0.9762    0.0000 C   0  0  0  0  0  0  0  0  0  0  0  0
    1.5954    0.6270    0.0000 C   0  0  0  0  0  0  0  0  0  0  0  0
    1.7700   -0.1349    0.0000 C   0  0  0  0  0  0  0  0  0  0  0  0
    0.1032   -0.2460    0.0000 C   0  0  0  0  0  0  0  0  0  0  0  0
   -0.5953   -0.6587    0.0000 C   0  0  0  0  0  0  0  0  0  0  0  0
    1.3255   -1.5002    0.0000 C   0  0  0  0  0  0  0  0  0  0  0  0
   -1.2937    2.2938    0.0000 C   0  0  0  0  0  0  0  0  0  0  0  0
    2.1034   -1.7541    0.0000 C   0  0  0  0  0  0  0  0  0  0  0  0
   -1.3255    0.5477    0.0000 C   0  0  0  0  0  0  0  0  0  0  0  0
    1.7223    1.9763    0.0000 C   0  0  0  0  0  0  0  0  0  0  0  0
   -0.1984    3.0399    0.0000 C   0  0  0  0  0  0  0  0  0  0  0  0
    1.1827   -0.6905    0.0000 C   0  0  0  0  0  0  0  0  0  0  0  0
    1.3414   -2.8335    0.0000 C   0  0  0  0  0  0  0  0  0  0  0  0
   -0.6112   -1.4842    0.0000 C   0  0  0  0  0  0  0  0  0  0  0  0
   -1.3096   -0.2460    0.0000 C   0  0  0  0  0  0  0  0  0  0  0  0
    2.5478   -0.4207    0.0000 C   0  0  0  0  0  0  0  0  0  0  0  0
   -1.0239    3.0558    0.0000 C   0  0  0  0  0  0  0  0  0  0  0  0
    2.7224   -1.2144    0.0000 C   0  0  0  0  0  0  0  0  0  0  0  0
    0.2937    3.7225    0.0000 C   0  0  0  0  0  0  0  0  0  0  0  0
   -1.3255   -2.7066    0.0000 C   0  0  0  0  0  0  0  0  0  0  0  0
   -1.3255   -1.9128    0.0000 C   0  0  0  0  0  0  0  0  0  0  0  0
    0.1032   -1.8970    0.0000 C   0  0  0  0  0  0  0  0  0  0  0  0
   -0.5953   -3.1352    0.0000 C   0  0  0  0  0  0  0  0  0  0  0  0
   -2.0875    2.0398    0.0000 C   0  0  0  0  0  0  0  0  0  0  0  0
    0.1032   -2.7224    0.0000 C   0  0  0  0  0  0  0  0  0  0  0  0
    2.0716    2.7224    0.0000 C   0  0  0  0  0  0  0  0  0  0  0  0
   -0.5953   -3.9606    0.0000 C   0  0  0  0  0  0  0  0  0  0  0  0
   -2.7224   -3.5320    0.0000 C   0  0  0  0  0  0  0  0  0  0  0  0
  1 10  2  0  0  0  0
  1 11  2  0  0  0  0
  1 37  1  0  0  0  0
  1 45  1  0  0  0  0
  2 30  1  0  0  0  0
  3 30  1  0  0  0  0
  4 36  1  0  0  0  0
  5 36  1  0  0  0  0
  6 36  1  0  0  0  0
  7 19  1  0  0  0  0
  7 27  1  0  0  0  0
  8 23  1  0  0  0  0
  8 30  1  0  0  0  0
  9 25  1  0  0  0  0
  9 30  1  0  0  0  0
 12 44  1  0  0  0  0
 13 15  1  0  0  0  0
 13 18  1  0  0  0  0
 13 24  1  0  0  0  0
 14 17  1  0  0  0  0
 14 27  2  0  0  0  0
 15 28  2  0  0  0  0
 16 17  1  0  0  0  0
 16 18  1  0  0  0  0
 16 21  2  0  0  0  0
 17 19  2  0  0  0  0
 18 26  2  0  0  0  0
 19 20  1  0  0  0  0
 20 29  1  0  0  0  0
 20 33  2  0  0  0  0
 21 22  1  0  0  0  0
 22 31  1  0  0  0  0
 22 32  2  0  0  0  0
 23 25  1  0  0  0  0
 23 29  2  0  0  0  0
 24 34  2  0  0  0  0
 24 41  1  0  0  0  0
 25 35  2  0  0  0  0
 26 32  1  0  0  0  0
 27 43  1  0  0  0  0
 28 34  1  0  0  0  0
 28 36  1  0  0  0  0
 31 38  1  0  0  0  0
 31 39  2  0  0  0  0
 33 35  1  0  0  0  0
 37 38  2  0  0  0  0
 37 40  1  0  0  0  0
 39 42  1  0  0  0  0
 40 42  2  0  0  0  0
 40 44  1  0  0  0  0
M  END
> <PUBCHEM_COMPOUND_ID_TYPE>
0

> <PUBCHEM_TOTAL_CHARGE>
0

> <PUBCHEM_SUBSTANCE_ID>
310948230

> <PUBCHEM_SUBSTANCE_VERSION>
1

> <PUBCHEM_EXT_DATASOURCE_NAME>
4488

> <PUBCHEM_EXT_DATASOURCE_REGID>
SCHEMBL16126407

> <PUBCHEM_SUBSTANCE_COMMENT>
InChI=1S/C30H22F5N3O6S/c1-15-10-26(29(31,32)33)37-38(15)22-8-6-17(18-4-5-20(14-39)25(13-18)45(3,40)41)11-21(22)27-28(42-16(2)36-27)19-7-9-23-24(12-19)44-30(34,35)43-23/h4-13,39H,14H2,1-3H3
InChIKey=ZSBHOIUWMHSFKO-UHFFFAOYSA-N

> <PUBCHEM_SUBSTANCE_SYNONYM>
SCHEMBL16126407

> <PUBCHEM_XREF_EXT_ID>
SCHEMBL16126407

> <PUBCHEM_EXT_DATASOURCE_URL>
https://www.surechembl.org/

> <PUBCHEM_EXT_SUBSTANCE_URL>
https://www.surechembl.org/chemical/SCHEMBL16126407

> <PUBCHEM_CID_ASSOCIATIONS>
117613810  1

> <PUBCHEM_COORDINATE_TYPE>
1
3

$$$$
