310944567
  -OEChem-07211613022D

 12 12  0     0  0  0  0  0  0999 V2000
    0.0056   -1.5336    0.0000 Br  0  0  0  0  0  0  0  0  0  0  0  0
    2.1066    1.3314    0.0000 N   0  0  0  0  0  0  0  0  0  0  0  0
   -2.1066    1.2752    0.0000 N   0  0  0  0  0  0  0  0  0  0  0  0
   -0.0056    0.9718    0.0000 C   0  0  0  0  0  0  0  0  0  0  0  0
    0.7134    0.5674    0.0000 C   0  0  0  0  0  0  0  0  0  0  0  0
   -0.7246    0.5449    0.0000 C   0  0  0  0  0  0  0  0  0  0  0  0
   -0.0056   -0.6909    0.0000 C   0  0  0  0  0  0  0  0  0  0  0  0
    0.7022   -0.2640    0.0000 C   0  0  0  0  0  0  0  0  0  0  0  0
   -0.7022   -0.2865    0.0000 C   0  0  0  0  0  0  0  0  0  0  0  0
    1.4212    0.9606    0.0000 C   0  0  0  0  0  0  0  0  0  0  0  0
   -1.4325    0.9269    0.0000 C   0  0  0  0  0  0  0  0  0  0  0  0
   -0.0168    1.5336    0.0000 C   0  0  0  0  0  0  0  0  0  0  0  0
  1  7  1  0  0  0  0
  2 10  3  0  0  0  0
  3 11  3  0  0  0  0
  4  5  2  0  0  0  0
  4  6  1  0  0  0  0
  4 12  1  0  0  0  0
  5  8  1  0  0  0  0
  5 10  1  0  0  0  0
  6  9  2  0  0  0  0
  6 11  1  0  0  0  0
  7  8  2  0  0  0  0
  7  9  1  0  0  0  0
M  END
> <PUBCHEM_COMPOUND_ID_TYPE>
0

> <PUBCHEM_TOTAL_CHARGE>
0

> <PUBCHEM_SUBSTANCE_ID>
310944567

> <PUBCHEM_SUBSTANCE_VERSION>
1

> <PUBCHEM_EXT_DATASOURCE_NAME>
4488

> <PUBCHEM_EXT_DATASOURCE_REGID>
SCHEMBL16122644

> <PUBCHEM_SUBSTANCE_COMMENT>
InChI=1S/C9H5BrN2/c1-6-7(4-11)2-9(10)3-8(6)5-12/h2-3H,1H3
InChIKey=SNWTXVJXVSXNJQ-UHFFFAOYSA-N

> <PUBCHEM_SUBSTANCE_SYNONYM>
SCHEMBL16122644

> <PUBCHEM_XREF_EXT_ID>
SCHEMBL16122644

> <PUBCHEM_EXT_DATASOURCE_URL>
https://www.surechembl.org/

> <PUBCHEM_EXT_SUBSTANCE_URL>
https://www.surechembl.org/chemical/SCHEMBL16122644

> <PUBCHEM_CID_ASSOCIATIONS>
59941321  1

> <PUBCHEM_COORDINATE_TYPE>
1
3

$$$$
