310940494
  -OEChem-07211613022D

 10 10  0     0  0  0  0  0  0999 V2000
    1.1706    0.9152    0.0000 O   0  0  0  0  0  0  0  0  0  0  0  0
   -0.1383    0.3192    0.0000 N   0  0  0  0  0  0  0  0  0  0  0  0
   -0.3831   -1.0003    0.0000 N   0  0  0  0  0  0  0  0  0  0  0  0
   -1.1068   -0.5853    0.0000 N   0  0  0  0  0  0  0  0  0  0  0  0
    0.2128   -0.4150    0.0000 C   0  0  0  0  0  0  0  0  0  0  0  0
   -0.9684    0.2235    0.0000 C   0  0  0  0  0  0  0  0  0  0  0  0
    0.3406    1.0003    0.0000 C   0  0  0  0  0  0  0  0  0  0  0  0
    1.0322   -0.5108    0.0000 C   0  0  0  0  0  0  0  0  0  0  0  0
    1.5218    0.1809    0.0000 C   0  0  0  0  0  0  0  0  0  0  0  0
   -1.5218    0.5640    0.0000 C   0  0  0  0  0  0  0  0  0  0  0  0
  1  7  1  0  0  0  0
  1  9  1  0  0  0  0
  2  5  1  0  0  0  0
  2  6  1  0  0  0  0
  2  7  1  0  0  0  0
  3  5  2  3  0  0  0
  4  6  2  3  0  0  0
  5  8  1  0  0  0  0
  6 10  1  0  0  0  0
  8  9  1  0  0  0  0
M  END
> <PUBCHEM_COMPOUND_ID_TYPE>
0

> <PUBCHEM_TOTAL_CHARGE>
0

> <PUBCHEM_SUBSTANCE_ID>
310940494

> <PUBCHEM_SUBSTANCE_VERSION>
1

> <PUBCHEM_EXT_DATASOURCE_NAME>
4488

> <PUBCHEM_EXT_DATASOURCE_REGID>
SCHEMBL16118448

> <PUBCHEM_SUBSTANCE_COMMENT>
InChI=1S/C6H11N3O/c1-5(7)9-4-10-3-2-6(9)8/h7-8H,2-4H2,1H3
InChIKey=VDNNFTIPUYDJON-UHFFFAOYSA-N

> <PUBCHEM_SUBSTANCE_SYNONYM>
SCHEMBL16118448

> <PUBCHEM_XREF_EXT_ID>
SCHEMBL16118448

> <PUBCHEM_EXT_DATASOURCE_URL>
https://www.surechembl.org/

> <PUBCHEM_EXT_SUBSTANCE_URL>
https://www.surechembl.org/chemical/SCHEMBL16118448

> <PUBCHEM_CID_ASSOCIATIONS>
117607509  1

> <PUBCHEM_COORDINATE_TYPE>
1
3

$$$$
