310938327
  -OEChem-07211613022D

 24 27  0     0  0  0  0  0  0999 V2000
    1.6571   -1.7421    0.0000 S   0  0  0  0  0  0  0  0  0  0  0  0
    2.4644   -8.4980    0.0000 F   0  0  0  0  0  0  0  0  0  0  0  0
    0.0000   -5.6512    0.0000 O   0  0  0  0  0  0  0  0  0  0  0  0
    2.0395   -3.4842    0.0000 N   0  0  0  0  0  0  0  0  0  0  0  0
    1.2322   -4.9289    0.0000 N   0  0  0  0  0  0  0  0  0  0  0  0
    3.3567   -3.1868    0.0000 N   0  0  0  0  0  0  0  0  0  0  0  0
    3.2292   -4.0365    0.0000 N   0  0  0  0  0  0  0  0  0  0  0  0
    2.9743   -1.4446    0.0000 N   0  0  0  0  0  0  0  0  0  0  0  0
    1.7421   -0.8923    0.0000 N   0  0  0  0  0  0  0  0  0  0  0  0
    2.5919   -2.8893    0.0000 C   0  0  0  0  0  0  0  0  0  0  0  0
    2.4644   -4.2065    0.0000 C   0  0  0  0  0  0  0  0  0  0  0  0
    2.4219   -2.0820    0.0000 C   0  0  0  0  0  0  0  0  0  0  0  0
    2.0395   -4.9289    0.0000 C   0  0  0  0  0  0  0  0  0  0  0  0
    1.1897   -3.4842    0.0000 C   0  0  0  0  0  0  0  0  0  0  0  0
    0.8073   -5.6512    0.0000 C   0  0  0  0  0  0  0  0  0  0  0  0
    0.8073   -4.1640    0.0000 C   0  0  0  0  0  0  0  0  0  0  0  0
    1.2322   -6.3310    0.0000 C   0  0  0  0  0  0  0  0  0  0  0  0
    2.5494   -0.7648    0.0000 C   0  0  0  0  0  0  0  0  0  0  0  0
    2.0395   -6.3735    0.0000 C   0  0  0  0  0  0  0  0  0  0  0  0
    0.8073   -7.0533    0.0000 C   0  0  0  0  0  0  0  0  0  0  0  0
    2.8893    0.0000    0.0000 C   0  0  0  0  0  0  0  0  0  0  0  0
    2.4644   -7.0533    0.0000 C   0  0  0  0  0  0  0  0  0  0  0  0
    1.2322   -7.7756    0.0000 C   0  0  0  0  0  0  0  0  0  0  0  0
    2.0395   -7.7756    0.0000 C   0  0  0  0  0  0  0  0  0  0  0  0
  1  9  1  0  0  0  0
  1 12  1  0  0  0  0
  2 24  1  0  0  0  0
  3 15  2  0  0  0  0
  4 10  1  0  0  0  0
  4 11  1  0  0  0  0
  4 14  1  0  0  0  0
  5 13  1  0  0  0  0
  5 15  1  0  0  0  0
  5 16  1  0  0  0  0
  6  7  1  0  0  0  0
  6 10  2  0  0  0  0
  7 11  2  0  0  0  0
  8 12  2  0  0  0  0
  8 18  1  0  0  0  0
  9 18  2  0  0  0  0
 10 12  1  0  0  0  0
 11 13  1  0  0  0  0
 14 16  1  0  0  0  0
 15 17  1  0  0  0  0
 17 19  2  0  0  0  0
 17 20  1  0  0  0  0
 18 21  1  0  0  0  0
 19 22  1  0  0  0  0
 20 23  2  0  0  0  0
 22 24  2  0  0  0  0
 23 24  1  0  0  0  0
M  END
> <PUBCHEM_COMPOUND_ID_TYPE>
0

> <PUBCHEM_TOTAL_CHARGE>
0

> <PUBCHEM_SUBSTANCE_ID>
310938327

> <PUBCHEM_SUBSTANCE_VERSION>
1

> <PUBCHEM_EXT_DATASOURCE_NAME>
4488

> <PUBCHEM_EXT_DATASOURCE_REGID>
SCHEMBL16116207

> <PUBCHEM_SUBSTANCE_COMMENT>
InChI=1S/C15H13FN6OS/c1-9-17-14(24-20-9)13-19-18-12-8-21(6-7-22(12)13)15(23)10-2-4-11(16)5-3-10/h2-5H,6-8H2,1H3
InChIKey=UHNVQJPBRBMNNN-UHFFFAOYSA-N

> <PUBCHEM_SUBSTANCE_SYNONYM>
SCHEMBL16116207

> <PUBCHEM_XREF_EXT_ID>
SCHEMBL16116207

> <PUBCHEM_EXT_DATASOURCE_URL>
https://www.surechembl.org/

> <PUBCHEM_EXT_SUBSTANCE_URL>
https://www.surechembl.org/chemical/SCHEMBL16116207

> <PUBCHEM_CID_ASSOCIATIONS>
81689815  1

> <PUBCHEM_COORDINATE_TYPE>
1
3

$$$$
