310937364
  -OEChem-07211613022D

 14 14  0     0  0  0  0  0  0999 V2000
    1.4835   -0.8260    0.0000 O   0  0  0  0  0  0  0  0  0  0  0  0
    4.3324    0.0000    0.0000 O   0  0  0  0  0  0  0  0  0  0  0  0
    5.0573   -1.2475    0.0000 O   0  0  0  0  0  0  0  0  0  0  0  0
    0.0000   -0.8092    0.0000 O   0  0  0  0  0  0  0  0  0  0  0  0
    1.4835   -2.4949    0.0000 N   0  0  0  0  0  0  0  0  0  0  0  0
    2.1915   -1.2475    0.0000 C   0  0  0  0  0  0  0  0  0  0  0  0
    3.6244   -1.2475    0.0000 C   0  0  0  0  0  0  0  0  0  0  0  0
    2.1915   -2.0735    0.0000 C   0  0  0  0  0  0  0  0  0  0  0  0
    2.9163   -0.8260    0.0000 C   0  0  0  0  0  0  0  0  0  0  0  0
    3.6244   -2.0735    0.0000 C   0  0  0  0  0  0  0  0  0  0  0  0
    2.9163   -2.4949    0.0000 C   0  0  0  0  0  0  0  0  0  0  0  0
    4.3324   -0.8260    0.0000 C   0  0  0  0  0  0  0  0  0  0  0  0
    0.7755   -1.2475    0.0000 C   0  0  0  0  0  0  0  0  0  0  0  0
    0.7755   -2.0566    0.0000 C   0  0  0  0  0  0  0  0  0  0  0  0
  1  6  1  0  0  0  0
  1 13  1  0  0  0  0
  2 12  2  0  0  0  0
  3 12  1  0  0  0  0
  4 13  2  0  0  0  0
  5  8  1  0  0  0  0
  6  8  2  0  0  0  0
  6  9  1  0  0  0  0
  7  9  2  0  0  0  0
  7 10  1  0  0  0  0
  7 12  1  0  0  0  0
  8 11  1  0  0  0  0
 10 11  2  0  0  0  0
 13 14  1  0  0  0  0
M  END
> <PUBCHEM_COMPOUND_ID_TYPE>
0

> <PUBCHEM_TOTAL_CHARGE>
0

> <PUBCHEM_SUBSTANCE_ID>
310937364

> <PUBCHEM_SUBSTANCE_VERSION>
1

> <PUBCHEM_EXT_DATASOURCE_NAME>
4488

> <PUBCHEM_EXT_DATASOURCE_REGID>
SCHEMBL16115120

> <PUBCHEM_SUBSTANCE_COMMENT>
InChI=1S/C9H9NO4/c1-5(11)14-8-4-6(9(12)13)2-3-7(8)10/h2-4H,10H2,1H3,(H,12,13)
InChIKey=KNKZEAMBBAENAO-UHFFFAOYSA-N

> <PUBCHEM_SUBSTANCE_SYNONYM>
SCHEMBL16115120

> <PUBCHEM_XREF_EXT_ID>
SCHEMBL16115120

> <PUBCHEM_EXT_DATASOURCE_URL>
https://www.surechembl.org/

> <PUBCHEM_EXT_SUBSTANCE_URL>
https://www.surechembl.org/chemical/SCHEMBL16115120

> <PUBCHEM_CID_ASSOCIATIONS>
117605135  1

> <PUBCHEM_COORDINATE_TYPE>
1
3

$$$$
