310949161
  -OEChem-07211613022D

 23 24  0     0  0  0  0  0  0999 V2000
    0.3501    2.8915    0.0000 Br  0  0  0  0  0  0  0  0  0  0  0  0
    1.7764   -0.3890    0.0000 F   0  0  0  0  0  0  0  0  0  0  0  0
   -1.0632   -0.3890    0.0000 F   0  0  0  0  0  0  0  0  0  0  0  0
   -1.0762   -2.0487    0.0000 F   0  0  0  0  0  0  0  0  0  0  0  0
    1.7893   -2.0616    0.0000 F   0  0  0  0  0  0  0  0  0  0  0  0
    0.3501   -2.8915    0.0000 F   0  0  0  0  0  0  0  0  0  0  0  0
   -1.4392    1.3355    0.0000 F   0  0  0  0  0  0  0  0  0  0  0  0
   -1.7893    2.4117    0.0000 F   0  0  0  0  0  0  0  0  0  0  0  0
   -0.7002    2.7618    0.0000 F   0  0  0  0  0  0  0  0  0  0  0  0
    0.3372   -0.3760    0.0000 C   0  0  0  0  0  0  0  0  0  0  0  0
    0.3501    0.4538    0.0000 C   0  0  0  0  0  0  0  0  0  0  0  0
    1.0632   -0.7780    0.0000 C   0  0  0  0  0  0  0  0  0  0  0  0
   -0.3630   -0.7780    0.0000 C   0  0  0  0  0  0  0  0  0  0  0  0
   -0.3760    1.6726    0.0000 C   0  0  0  0  0  0  0  0  0  0  0  0
   -0.3630   -1.6078    0.0000 C   0  0  0  0  0  0  0  0  0  0  0  0
    1.0373   -1.6078    0.0000 C   0  0  0  0  0  0  0  0  0  0  0  0
    0.3501   -2.0227    0.0000 C   0  0  0  0  0  0  0  0  0  0  0  0
   -0.3760    0.8558    0.0000 C   0  0  0  0  0  0  0  0  0  0  0  0
    0.3372    2.0875    0.0000 C   0  0  0  0  0  0  0  0  0  0  0  0
   -1.0762    2.0616    0.0000 C   0  0  0  0  0  0  0  0  0  0  0  0
    1.0502    0.8817    0.0000 C   0  0  0  0  0  0  0  0  0  0  0  0
    1.0632    1.6856    0.0000 C   0  0  0  0  0  0  0  0  0  0  0  0
    1.7893    2.0616    0.0000 C   0  0  0  0  0  0  0  0  0  0  0  0
  1 19  1  0  0  0  0
  2 12  1  0  0  0  0
  3 13  1  0  0  0  0
  4 15  1  0  0  0  0
  5 16  1  0  0  0  0
  6 17  1  0  0  0  0
  7 20  1  0  0  0  0
  8 20  1  0  0  0  0
  9 20  1  0  0  0  0
 10 11  1  0  0  0  0
 10 12  2  0  0  0  0
 10 13  1  0  0  0  0
 11 18  1  0  0  0  0
 11 21  2  0  0  0  0
 12 16  1  0  0  0  0
 13 15  2  0  0  0  0
 14 18  2  0  0  0  0
 14 19  1  0  0  0  0
 14 20  1  0  0  0  0
 15 17  1  0  0  0  0
 16 17  2  0  0  0  0
 19 22  2  0  0  0  0
 21 22  1  0  0  0  0
 22 23  1  0  0  0  0
M  END
> <PUBCHEM_COMPOUND_ID_TYPE>
0

> <PUBCHEM_TOTAL_CHARGE>
0

> <PUBCHEM_SUBSTANCE_ID>
310949161

> <PUBCHEM_SUBSTANCE_VERSION>
1

> <PUBCHEM_EXT_DATASOURCE_NAME>
4488

> <PUBCHEM_EXT_DATASOURCE_REGID>
SCHEMBL16127351

> <PUBCHEM_SUBSTANCE_COMMENT>
InChI=1S/C14H5BrF8/c1-4-2-5(3-6(8(4)15)14(21,22)23)7-9(16)11(18)13(20)12(19)10(7)17/h2-3H,1H3
InChIKey=RAHJRUQCPVESOK-UHFFFAOYSA-N

> <PUBCHEM_SUBSTANCE_SYNONYM>
SCHEMBL16127351

> <PUBCHEM_XREF_EXT_ID>
SCHEMBL16127351

> <PUBCHEM_EXT_DATASOURCE_URL>
https://www.surechembl.org/

> <PUBCHEM_EXT_SUBSTANCE_URL>
https://www.surechembl.org/chemical/SCHEMBL16127351

> <PUBCHEM_CID_ASSOCIATIONS>
117614654  1

> <PUBCHEM_COORDINATE_TYPE>
1
3

$$$$
