310929528
  -OEChem-07211613022D

 64 71  0     1  0  0  0  0  0999 V2000
    1.0945   -5.3171    0.0000 S   0  0  0  0  0  0  0  0  0  0  0  0
    1.1870   -3.6697    0.0000 O   0  0  0  0  0  0  0  0  0  0  0  0
   -1.2278   -2.2682    0.0000 O   0  0  0  0  0  0  0  0  0  0  0  0
   -0.0216    0.8226    0.0000 O   0  0  0  0  0  0  0  0  0  0  0  0
    1.4525   -2.4575    0.0000 O   0  0  0  0  0  0  0  0  0  0  0  0
    0.6426   -6.0074    0.0000 O   0  0  0  0  0  0  0  0  0  0  0  0
    1.5464   -4.6269    0.0000 O   0  0  0  0  0  0  0  0  0  0  0  0
    4.2988   -1.5933    0.0000 O   0  0  0  0  0  0  0  0  0  0  0  0
    2.8360    0.8619    0.0000 O   0  0  0  0  0  0  0  0  0  0  0  0
    3.5674   -0.3657    0.0000 O   0  0  0  0  0  0  0  0  0  0  0  0
    0.0855   -2.8314    0.0000 N   0  0  0  0  0  0  0  0  0  0  0  0
    0.7211   -1.2299    0.0000 N   0  0  0  0  0  0  0  0  0  0  0  0
    0.4043   -4.8653    0.0000 N   0  0  0  0  0  0  0  0  0  0  0  0
    2.8700   -1.6129    0.0000 N   0  0  0  0  0  0  0  0  0  0  0  0
    0.6757    2.0698    0.0000 N   0  0  0  0  0  0  0  0  0  0  0  0
   -0.2397   -3.5897    0.0000 C   0  0  3  0  0  0  0  0  0  0  0  0
   -1.0429   -3.4011    0.0000 C   0  0  3  0  0  0  0  0  0  0  0  0
   -0.8046   -4.1909    0.0000 C   0  0  0  0  0  0  0  0  0  0  0  0
    0.4505   -4.0416    0.0000 C   0  0  0  0  0  0  0  0  0  0  0  0
   -0.0834   -1.4125    0.0000 C   0  0  3  0  0  0  0  0  0  0  0  0
   -0.4086   -2.1707    0.0000 C   0  0  0  0  0  0  0  0  0  0  0  0
   -1.6441   -2.8362    0.0000 C   0  0  0  0  0  0  0  0  0  0  0  0
   -0.0103   -0.0024    0.0000 C   0  0  3  0  0  0  0  0  0  0  0  0
   -0.5057   -0.7038    0.0000 C   0  0  0  0  0  0  0  0  0  0  0  0
    1.4412   -1.6326    0.0000 C   0  0  0  0  0  0  0  0  0  0  0  0
    0.7098   -0.4050    0.0000 C   0  0  0  0  0  0  0  0  0  0  0  0
    2.1499   -1.2103    0.0000 C   0  0  3  0  0  0  0  0  0  0  0  0
    1.7848   -5.7690    0.0000 C   0  0  0  0  0  0  0  0  0  0  0  0
   -2.4340   -3.0745    0.0000 C   0  0  0  0  0  0  0  0  0  0  0  0
    2.1613   -2.0352    0.0000 C   0  0  0  0  0  0  0  0  0  0  0  0
    0.6871    1.2448    0.0000 C   0  0  0  0  0  0  0  0  0  0  0  0
    2.1566   -6.5055    0.0000 C   0  0  0  0  0  0  0  0  0  0  0  0
    2.6085   -5.8153    0.0000 C   0  0  0  0  0  0  0  0  0  0  0  0
    1.4072    0.8422    0.0000 C   0  0  0  0  0  0  0  0  0  0  0  0
    3.5787   -1.1906    0.0000 C   0  0  0  0  0  0  0  0  0  0  0  0
    2.1159    1.2645    0.0000 C   0  0  0  0  0  0  0  0  0  0  0  0
    5.0075   -1.1710    0.0000 C   0  0  3  0  0  0  0  0  0  0  0  0
    1.6678   -2.6920    0.0000 C   0  0  0  0  0  0  0  0  0  0  0  0
    2.8353   -2.5109    0.0000 C   0  0  0  0  0  0  0  0  0  0  0  0
    1.3845    2.4921    0.0000 C   0  0  0  0  0  0  0  0  0  0  0  0
    2.1046    2.0894    0.0000 C   0  0  0  0  0  0  0  0  0  0  0  0
    4.9962   -0.3461    0.0000 C   0  0  3  0  0  0  0  0  0  0  0  0
    1.8650    1.5086    0.0000 C   0  0  0  0  0  0  0  0  0  0  0  0
    1.7663   -3.3103    0.0000 C   0  0  0  0  0  0  0  0  0  0  0  0
    2.5912   -3.2989    0.0000 C   0  0  0  0  0  0  0  0  0  0  0  0
    5.7956   -1.4151    0.0000 C   0  0  0  0  0  0  0  0  0  0  0  0
    5.7772   -0.0804    0.0000 C   0  0  0  0  0  0  0  0  0  0  0  0
    1.3731    3.3170    0.0000 C   0  0  0  0  0  0  0  0  0  0  0  0
    2.8133    2.5117    0.0000 C   0  0  0  0  0  0  0  0  0  0  0  0
    4.2761    0.0566    0.0000 C   0  0  0  0  0  0  0  0  0  0  0  0
    6.2713   -0.7411    0.0000 C   0  0  0  0  0  0  0  0  0  0  0  0
    2.5851    1.1059    0.0000 C   0  0  0  0  0  0  0  0  0  0  0  0
    2.0819    3.7393    0.0000 C   0  0  0  0  0  0  0  0  0  0  0  0
    2.8019    3.3366    0.0000 C   0  0  0  0  0  0  0  0  0  0  0  0
    4.2648    0.8815    0.0000 C   0  0  0  0  0  0  0  0  0  0  0  0
    3.5447    1.2841    0.0000 C   0  0  0  0  0  0  0  0  0  0  0  0
    2.8473    0.0369    0.0000 C   0  0  0  0  0  0  0  0  0  0  0  0
    2.1386   -0.3854    0.0000 C   0  0  0  0  0  0  0  0  0  0  0  0
   -0.6529   -2.6741    0.0000 H   0  0  0  0  0  0  0  0  0  0  0  0
   -0.9066   -1.4670    0.0000 H   0  0  0  0  0  0  0  0  0  0  0  0
   -0.7983    0.2419    0.0000 H   0  0  0  0  0  0  0  0  0  0  0  0
    1.7473   -1.9303    0.0000 H   0  0  0  0  0  0  0  0  0  0  0  0
    5.1050   -1.9902    0.0000 H   0  0  0  0  0  0  0  0  0  0  0  0
    5.0711    0.4755    0.0000 H   0  0  0  0  0  0  0  0  0  0  0  0
  1  6  2  0  0  0  0
  1  7  2  0  0  0  0
  1 13  1  0  0  0  0
  1 28  1  0  0  0  0
  2 19  2  0  0  0  0
  3 21  2  0  0  0  0
  4 23  1  0  0  0  0
  4 31  1  0  0  0  0
  5 25  2  0  0  0  0
  8 35  1  0  0  0  0
  8 37  1  0  0  0  0
  9 36  1  0  0  0  0
  9 57  1  0  0  0  0
 10 35  2  0  0  0  0
 16 11  1  6  0  0  0
 11 21  1  0  0  0  0
 12 20  1  0  0  0  0
 12 25  1  0  0  0  0
 12 26  1  0  0  0  0
 13 19  1  0  0  0  0
 14 27  1  0  0  0  0
 14 35  1  0  0  0  0
 15 31  2  0  0  0  0
 15 40  1  0  0  0  0
 16 17  1  0  0  0  0
 16 18  1  0  0  0  0
 16 19  1  1  0  0  0
 17 18  1  0  0  0  0
 17 22  1  0  0  0  0
 17 59  1  6  0  0  0
 20 21  1  0  0  0  0
 20 24  1  0  0  0  0
 20 60  1  1  0  0  0
 22 29  1  0  0  0  0
 23 24  1  0  0  0  0
 23 26  1  0  0  0  0
 23 61  1  6  0  0  0
 25 27  1  0  0  0  0
 27 30  1  0  0  0  0
 27 62  1  6  0  0  0
 28 32  1  0  0  0  0
 28 33  1  0  0  0  0
 30 38  1  0  0  0  0
 30 39  1  0  0  0  0
 31 34  1  0  0  0  0
 32 33  1  0  0  0  0
 34 36  2  0  0  0  0
 34 43  1  0  0  0  0
 36 41  1  0  0  0  0
 37 42  1  0  0  0  0
 37 46  1  0  0  0  0
 37 63  1  6  0  0  0
 38 44  1  0  0  0  0
 39 45  1  0  0  0  0
 40 41  2  0  0  0  0
 40 48  1  0  0  0  0
 41 49  1  0  0  0  0
 42 47  1  0  0  0  0
 42 50  1  0  0  0  0
 42 64  1  1  0  0  0
 43 52  1  0  0  0  0
 44 45  1  0  0  0  0
 46 51  1  0  0  0  0
 47 51  1  0  0  0  0
 48 53  2  0  0  0  0
 49 54  2  0  0  0  0
 50 55  1  0  0  0  0
 52 56  2  0  0  0  0
 53 54  1  0  0  0  0
 55 56  1  0  0  0  0
 57 58  1  0  0  0  0
M  END
> <PUBCHEM_COMPOUND_ID_TYPE>
0

> <PUBCHEM_TOTAL_CHARGE>
0

> <PUBCHEM_SUBSTANCE_ID>
310929528

> <PUBCHEM_SUBSTANCE_VERSION>
1

> <PUBCHEM_EXT_DATASOURCE_NAME>
4488

> <PUBCHEM_EXT_DATASOURCE_REGID>
SCHEMBL16106709

> <PUBCHEM_SUBSTANCE_COMMENT>
InChI=1S/C43H57N5O9S/c1-3-28-24-43(28,41(51)47-58(53,54)30-21-22-30)46-38(49)34-23-29-25-48(34)40(50)36(27-14-8-9-15-27)45-42(52)57-35-20-12-16-26(35)13-6-5-7-18-32-37(55-4-2)31-17-10-11-19-33(31)44-39(32)56-29/h5,7,10-11,17,19,26-30,34-36H,3-4,6,8-9,12-16,18,20-25H2,1-2H3,(H,45,52)(H,46,49)(H,47,51)/t26-,28-,29-,34+,35-,36+,43-/m1/s1
InChIKey=WBKLEAMOKTXNJA-DXZJWPSISA-N

> <PUBCHEM_SUBSTANCE_SYNONYM>
SCHEMBL16106709

> <PUBCHEM_XREF_EXT_ID>
SCHEMBL16106709

> <PUBCHEM_EXT_DATASOURCE_URL>
https://www.surechembl.org/

> <PUBCHEM_EXT_SUBSTANCE_URL>
https://www.surechembl.org/chemical/SCHEMBL16106709

> <PUBCHEM_CID_ASSOCIATIONS>
117598849  1

> <PUBCHEM_COORDINATE_TYPE>
1
3

> <PUBCHEM_BONDANNOTATIONS>
16  11  6
16  19  5
17  59  6
20  60  5
23  61  6
27  62  6
37  63  6
42  64  5
56  55  3

$$$$
