310936360
  -OEChem-07211613022D

 32 34  0     0  0  0  0  0  0999 V2000
    2.4801   -6.7262    0.0000 S   0  0  0  0  0  0  0  0  0  0  0  0
    2.4801   -5.2983    0.0000 F   0  0  0  0  0  0  0  0  0  0  0  0
    3.7201   -7.4402    0.0000 F   0  0  0  0  0  0  0  0  0  0  0  0
    3.7201   -5.9747    0.0000 F   0  0  0  0  0  0  0  0  0  0  0  0
    4.1334   -6.7262    0.0000 F   0  0  0  0  0  0  0  0  0  0  0  0
    0.8642    0.0000    0.0000 F   0  0  0  0  0  0  0  0  0  0  0  0
    0.1879   -3.7953    0.0000 O   0  0  0  0  0  0  0  0  0  0  0  0
    1.6910   -6.7262    0.0000 O   0  0  0  0  0  0  0  0  0  0  0  0
    2.4801   -5.7868    0.0000 O   0  0  0  0  0  0  0  0  0  0  0  0
    2.4801   -7.5153    0.0000 O   0  0  0  0  0  0  0  0  0  0  0  0
    2.8934   -4.0959    0.0000 O   0  0  0  0  0  0  0  0  0  0  0  0
    0.4133   -7.4026    0.0000 O   0  0  0  0  0  0  0  0  0  0  0  0
    2.4801   -2.7431    0.0000 N   0  0  0  0  0  0  0  0  0  0  0  0
    1.2776   -4.5843    0.0000 C   0  0  0  0  0  0  0  0  0  0  0  0
    1.5030   -3.7953    0.0000 C   0  0  0  0  0  0  0  0  0  0  0  0
    0.4133   -4.5843    0.0000 C   0  0  0  0  0  0  0  0  0  0  0  0
    1.6534   -5.2983    0.0000 C   0  0  0  0  0  0  0  0  0  0  0  0
    0.8642   -3.3067    0.0000 C   0  0  0  0  0  0  0  0  0  0  0  0
    1.2776   -5.9747    0.0000 C   0  0  0  0  0  0  0  0  0  0  0  0
    0.4133   -5.9747    0.0000 C   0  0  0  0  0  0  0  0  0  0  0  0
    0.0000   -5.2983    0.0000 C   0  0  0  0  0  0  0  0  0  0  0  0
    2.2922   -3.5322    0.0000 C   0  0  0  0  0  0  0  0  0  0  0  0
    0.8642   -2.4801    0.0000 C   0  0  0  0  0  0  0  0  0  0  0  0
    3.3067   -6.7262    0.0000 C   0  0  0  0  0  0  0  0  0  0  0  0
    0.0000   -6.6886    0.0000 C   0  0  0  0  0  0  0  0  0  0  0  0
    0.1503   -2.0667    0.0000 C   0  0  0  0  0  0  0  0  0  0  0  0
    1.5783   -2.0667    0.0000 C   0  0  0  0  0  0  0  0  0  0  0  0
    0.1503   -1.2401    0.0000 C   0  0  0  0  0  0  0  0  0  0  0  0
    1.5783   -1.2401    0.0000 C   0  0  0  0  0  0  0  0  0  0  0  0
    0.8642   -0.8267    0.0000 C   0  0  0  0  0  0  0  0  0  0  0  0
    3.2691   -2.4801    0.0000 C   0  0  0  0  0  0  0  0  0  0  0  0
    1.2401   -7.4402    0.0000 C   0  0  0  0  0  0  0  0  0  0  0  0
  1  8  1  0  0  0  0
  1  9  2  0  0  0  0
  1 10  2  0  0  0  0
  1 24  1  0  0  0  0
  2 17  1  0  0  0  0
  3 24  1  0  0  0  0
  4 24  1  0  0  0  0
  5 24  1  0  0  0  0
  6 30  1  0  0  0  0
  7 16  1  0  0  0  0
  7 18  1  0  0  0  0
  8 19  1  0  0  0  0
 11 22  2  0  0  0  0
 12 25  1  0  0  0  0
 12 32  1  0  0  0  0
 13 22  1  0  0  0  0
 13 31  1  0  0  0  0
 14 15  1  0  0  0  0
 14 16  2  0  0  0  0
 14 17  1  0  0  0  0
 15 18  2  0  0  0  0
 15 22  1  0  0  0  0
 16 21  1  0  0  0  0
 17 19  2  0  0  0  0
 18 23  1  0  0  0  0
 19 20  1  0  0  0  0
 20 21  2  0  0  0  0
 20 25  1  0  0  0  0
 23 26  2  0  0  0  0
 23 27  1  0  0  0  0
 26 28  1  0  0  0  0
 27 29  2  0  0  0  0
 28 30  2  0  0  0  0
 29 30  1  0  0  0  0
M  END
> <PUBCHEM_COMPOUND_ID_TYPE>
0

> <PUBCHEM_TOTAL_CHARGE>
0

> <PUBCHEM_SUBSTANCE_ID>
310936360

> <PUBCHEM_SUBSTANCE_VERSION>
1

> <PUBCHEM_EXT_DATASOURCE_NAME>
4488

> <PUBCHEM_EXT_DATASOURCE_REGID>
SCHEMBL16113994

> <PUBCHEM_SUBSTANCE_COMMENT>
InChI=1S/C19H14F5NO6S/c1-25-18(26)14-13-12(30-16(14)9-3-5-11(20)6-4-9)7-10(8-29-2)17(15(13)21)31-32(27,28)19(22,23)24/h3-7H,8H2,1-2H3,(H,25,26)
InChIKey=HCNJDSZJIFOEIC-UHFFFAOYSA-N

> <PUBCHEM_SUBSTANCE_SYNONYM>
SCHEMBL16113994

> <PUBCHEM_XREF_EXT_ID>
SCHEMBL16113994

> <PUBCHEM_EXT_DATASOURCE_URL>
https://www.surechembl.org/

> <PUBCHEM_EXT_SUBSTANCE_URL>
https://www.surechembl.org/chemical/SCHEMBL16113994

> <PUBCHEM_CID_ASSOCIATIONS>
117604302  1

> <PUBCHEM_COORDINATE_TYPE>
1
3

$$$$
