310940093
  -OEChem-07211613022D

 30 32  0     0  0  0  0  0  0999 V2000
   -1.8448    0.6899    0.0000 F   0  0  0  0  0  0  0  0  0  0  0  0
   -2.6398    0.4799    0.0000 F   0  0  0  0  0  0  0  0  0  0  0  0
    2.9247   -0.9599    0.0000 O   0  0  0  0  0  0  0  0  0  0  0  0
   -2.2798    2.6847    0.0000 O   0  0  0  0  0  0  0  0  0  0  0  0
    1.1849    1.1999    0.0000 N   0  0  0  0  0  0  0  0  0  0  0  0
    1.9648    1.4549    0.0000 N   0  0  0  0  0  0  0  0  0  0  0  0
   -1.1249    1.8598    0.0000 N   0  0  0  0  0  0  0  0  0  0  0  0
    1.5299   -1.2599    0.0000 N   0  0  0  0  0  0  0  0  0  0  0  0
    3.2697    0.7800    0.0000 N   0  0  0  0  0  0  0  0  0  0  0  0
    1.4398    3.6597    0.0000 N   0  0  0  0  0  0  0  0  0  0  0  0
    0.5400    1.6948    0.0000 C   0  0  0  0  0  0  0  0  0  0  0  0
    1.1699    0.3750    0.0000 C   0  0  0  0  0  0  0  0  0  0  0  0
    1.9648    0.1050    0.0000 C   0  0  0  0  0  0  0  0  0  0  0  0
    2.4448    0.7800    0.0000 C   0  0  0  0  0  0  0  0  0  0  0  0
    2.1449   -0.6899    0.0000 C   0  0  0  0  0  0  0  0  0  0  0  0
    0.0300    1.0199    0.0000 C   0  0  0  0  0  0  0  0  0  0  0  0
    0.1800    2.4298    0.0000 C   0  0  0  0  0  0  0  0  0  0  0  0
    0.5849   -0.1800    0.0000 C   0  0  0  0  0  0  0  0  0  0  0  0
    1.2599    2.0099    0.0000 C   0  0  0  0  0  0  0  0  0  0  0  0
   -0.7950    1.1099    0.0000 C   0  0  0  0  0  0  0  0  0  0  0  0
   -0.6450    2.5198    0.0000 C   0  0  0  0  0  0  0  0  0  0  0  0
    0.7349   -0.9899    0.0000 C   0  0  0  0  0  0  0  0  0  0  0  0
   -1.9498    1.9348    0.0000 C   0  0  0  0  0  0  0  0  0  0  0  0
   -2.4298    1.2749    0.0000 C   0  0  0  0  0  0  0  0  0  0  0  0
    1.3649    2.8197    0.0000 C   0  0  0  0  0  0  0  0  0  0  0  0
    3.0747   -1.7399    0.0000 C   0  0  0  0  0  0  0  0  0  0  0  0
   -3.2697    1.2599    0.0000 C   0  0  0  0  0  0  0  0  0  0  0  0
    2.4748   -2.2948    0.0000 C   0  0  0  0  0  0  0  0  0  0  0  0
    2.6697   -3.1048    0.0000 C   0  0  0  0  0  0  0  0  0  0  0  0
    2.0398   -3.6597    0.0000 C   0  0  0  0  0  0  0  0  0  0  0  0
  1 24  1  0  0  0  0
  2 24  1  0  0  0  0
  3 15  1  0  0  0  0
  3 26  1  0  0  0  0
  4 23  2  0  0  0  0
  5  6  1  0  0  0  0
  5 11  1  0  0  0  0
  5 12  1  0  0  0  0
  6 14  2  0  0  0  0
  7 20  1  0  0  0  0
  7 21  1  0  0  0  0
  7 23  1  0  0  0  0
  8 15  2  0  0  0  0
  8 22  1  0  0  0  0
  9 14  1  0  0  0  0
 10 25  3  0  0  0  0
 11 16  1  0  0  0  0
 11 17  1  0  0  0  0
 11 19  1  0  0  0  0
 12 13  2  0  0  0  0
 12 18  1  0  0  0  0
 13 14  1  0  0  0  0
 13 15  1  0  0  0  0
 16 20  1  0  0  0  0
 17 21  1  0  0  0  0
 18 22  2  0  0  0  0
 19 25  1  0  0  0  0
 23 24  1  0  0  0  0
 24 27  1  0  0  0  0
 26 28  1  0  0  0  0
 28 29  1  0  0  0  0
 29 30  1  0  0  0  0
M  END
> <PUBCHEM_COMPOUND_ID_TYPE>
0

> <PUBCHEM_TOTAL_CHARGE>
0

> <PUBCHEM_SUBSTANCE_ID>
310940093

> <PUBCHEM_SUBSTANCE_VERSION>
1

> <PUBCHEM_EXT_DATASOURCE_NAME>
4488

> <PUBCHEM_EXT_DATASOURCE_REGID>
SCHEMBL16118024

> <PUBCHEM_SUBSTANCE_COMMENT>
InChI=1S/C20H26F2N6O2/c1-3-4-13-30-17-15-14(5-10-25-17)28(26-16(15)24)20(6-9-23)7-11-27(12-8-20)18(29)19(2,21)22/h5,10H,3-4,6-8,11-13H2,1-2H3,(H2,24,26)
InChIKey=BFPMJIXEEYPTMT-UHFFFAOYSA-N

> <PUBCHEM_SUBSTANCE_SYNONYM>
SCHEMBL16118024

> <PUBCHEM_XREF_EXT_ID>
SCHEMBL16118024

> <PUBCHEM_EXT_DATASOURCE_URL>
https://www.surechembl.org/

> <PUBCHEM_EXT_SUBSTANCE_URL>
https://www.surechembl.org/chemical/SCHEMBL16118024

> <PUBCHEM_CID_ASSOCIATIONS>
117607229  1

> <PUBCHEM_COORDINATE_TYPE>
1
3

$$$$
