310942730
  -OEChem-07211613022D

 43 47  0     1  0  0  0  0  0999 V2000
    2.3202    3.1092    0.0000 F   0  0  0  0  0  0  0  0  0  0  0  0
    1.6483   -3.2966    0.0000 F   0  0  0  0  0  0  0  0  0  0  0  0
   -0.9453    2.8748    0.0000 F   0  0  0  0  0  0  0  0  0  0  0  0
    3.4920   -1.1562    0.0000 O   0  0  0  0  0  0  0  0  0  0  0  0
   -2.5389   -2.5936    0.0000 O   0  0  0  0  0  0  0  0  0  0  0  0
   -1.8671   -3.7186    0.0000 O   0  0  0  0  0  0  0  0  0  0  0  0
    2.6483    0.8280    0.0000 N   0  0  0  0  0  0  0  0  0  0  0  0
    1.3202    0.8749    0.0000 N   0  0  0  0  0  0  0  0  0  0  0  0
    1.3515   -0.8906    0.0000 N   0  0  0  0  0  0  0  0  0  0  0  0
   -0.4141   -2.8279    0.0000 N   0  0  0  0  0  0  0  0  0  0  0  0
    1.9765    0.3906    0.0000 C   0  0  0  0  0  0  0  0  0  0  0  0
    2.0234   -0.4375    0.0000 C   0  0  3  0  0  0  0  0  0  0  0  0
    1.6014    1.6562    0.0000 C   0  0  0  0  0  0  0  0  0  0  0  0
    2.4296    1.6093    0.0000 C   0  0  0  0  0  0  0  0  0  0  0  0
    1.1484    2.3123    0.0000 C   0  0  0  0  0  0  0  0  0  0  0  0
    2.7733   -0.7968    0.0000 C   0  0  0  0  0  0  0  0  0  0  0  0
    3.3983    0.4843    0.0000 C   0  0  0  0  0  0  0  0  0  0  0  0
    1.5078    3.0623    0.0000 C   0  0  0  0  0  0  0  0  0  0  0  0
    0.7265   -2.1561    0.0000 C   0  0  3  0  0  0  0  0  0  0  0  0
    0.3359    2.2655    0.0000 C   0  0  0  0  0  0  0  0  0  0  0  0
    1.3984   -1.7031    0.0000 C   0  0  0  0  0  0  0  0  0  0  0  0
    4.0544    0.9374    0.0000 C   0  0  0  0  0  0  0  0  0  0  0  0
    0.9140   -2.9373    0.0000 C   0  0  3  0  0  0  0  0  0  0  0  0
   -0.1172    2.9217    0.0000 C   0  0  0  0  0  0  0  0  0  0  0  0
   -0.0390   -2.1093    0.0000 C   0  0  0  0  0  0  0  0  0  0  0  0
    1.0546    3.7186    0.0000 C   0  0  0  0  0  0  0  0  0  0  0  0
    3.4608   -0.3593    0.0000 C   0  0  0  0  0  0  0  0  0  0  0  0
    2.8358   -1.6249    0.0000 C   0  0  0  0  0  0  0  0  0  0  0  0
    0.2265   -3.3592    0.0000 C   0  0  0  0  0  0  0  0  0  0  0  0
    0.2422    3.6561    0.0000 C   0  0  0  0  0  0  0  0  0  0  0  0
   -1.8671   -2.9998    0.0000 C   0  0  0  0  0  0  0  0  0  0  0  0
    4.8044    0.5937    0.0000 C   0  0  0  0  0  0  0  0  0  0  0  0
    4.0076    1.7499    0.0000 C   0  0  0  0  0  0  0  0  0  0  0  0
    5.4919    1.0624    0.0000 C   0  0  0  0  0  0  0  0  0  0  0  0
    4.6794    2.2343    0.0000 C   0  0  0  0  0  0  0  0  0  0  0  0
    5.4450    1.8749    0.0000 C   0  0  0  0  0  0  0  0  0  0  0  0
   -3.3045   -3.0154    0.0000 C   0  0  0  0  0  0  0  0  0  0  0  0
   -4.0232   -2.5624    0.0000 C   0  0  0  0  0  0  0  0  0  0  0  0
   -4.0232   -1.7187    0.0000 C   0  0  0  0  0  0  0  0  0  0  0  0
   -4.7575   -2.9998    0.0000 C   0  0  0  0  0  0  0  0  0  0  0  0
   -4.7575   -1.2968    0.0000 C   0  0  0  0  0  0  0  0  0  0  0  0
   -5.4919   -2.5780    0.0000 C   0  0  0  0  0  0  0  0  0  0  0  0
   -5.4919   -1.7343    0.0000 C   0  0  0  0  0  0  0  0  0  0  0  0
  1 18  1  0  0  0  0
 23  2  1  1  0  0  0
  3 24  1  0  0  0  0
  4 16  1  0  0  0  0
  5 31  1  0  0  0  0
  5 37  1  0  0  0  0
  6 31  2  0  0  0  0
  7 11  1  0  0  0  0
  7 14  1  0  0  0  0
  7 17  1  0  0  0  0
  8 11  2  0  0  0  0
  8 13  1  0  0  0  0
 12  9  1  1  0  0  0
  9 21  1  0  0  0  0
 10 25  1  0  0  0  0
 10 29  1  0  0  0  0
 10 31  1  0  0  0  0
 11 12  1  0  0  0  0
 12 16  1  0  0  0  0
 13 14  2  0  0  0  0
 13 15  1  0  0  0  0
 15 18  1  0  0  0  0
 15 20  2  0  0  0  0
 16 27  1  0  0  0  0
 16 28  1  0  0  0  0
 17 22  1  0  0  0  0
 18 26  2  0  0  0  0
 19 21  1  1  0  0  0
 19 23  1  0  0  0  0
 19 25  1  0  0  0  0
 20 24  1  0  0  0  0
 22 32  2  0  0  0  0
 22 33  1  0  0  0  0
 23 29  1  0  0  0  0
 24 30  2  0  0  0  0
 26 30  1  0  0  0  0
 32 34  1  0  0  0  0
 33 35  2  0  0  0  0
 34 36  2  0  0  0  0
 35 36  1  0  0  0  0
 37 38  1  0  0  0  0
 38 39  2  0  0  0  0
 38 40  1  0  0  0  0
 39 41  1  0  0  0  0
 40 42  2  0  0  0  0
 41 43  2  0  0  0  0
 42 43  1  0  0  0  0
M  END
> <PUBCHEM_COMPOUND_ID_TYPE>
0

> <PUBCHEM_TOTAL_CHARGE>
0

> <PUBCHEM_SUBSTANCE_ID>
310942730

> <PUBCHEM_SUBSTANCE_VERSION>
1

> <PUBCHEM_EXT_DATASOURCE_NAME>
4488

> <PUBCHEM_EXT_DATASOURCE_REGID>
SCHEMBL16120779

> <PUBCHEM_SUBSTANCE_COMMENT>
InChI=1S/C33H35F3N4O3/c1-33(2,42)30(37-16-24-18-40(19-28(24)36)32(41)43-21-23-11-7-4-8-12-23)31-38-29(26-15-25(34)13-14-27(26)35)20-39(31)17-22-9-5-3-6-10-22/h3-15,20,24,28,30,37,42H,16-19,21H2,1-2H3/t24-,28+,30+/m1/s1
InChIKey=MPEHTIYOYZVVHY-HZXVKSMZSA-N

> <PUBCHEM_SUBSTANCE_SYNONYM>
SCHEMBL16120779

> <PUBCHEM_XREF_EXT_ID>
SCHEMBL16120779

> <PUBCHEM_EXT_DATASOURCE_URL>
https://www.surechembl.org/

> <PUBCHEM_EXT_SUBSTANCE_URL>
https://www.surechembl.org/chemical/SCHEMBL16120779

> <PUBCHEM_CID_ASSOCIATIONS>
117609250  1

> <PUBCHEM_COORDINATE_TYPE>
1
3

> <PUBCHEM_BONDANNOTATIONS>
19  21  5
23  2  5
12  9  5

$$$$
