310945622
  -OEChem-07211613022D

 21 22  0     0  0  0  0  0  0999 V2000
    2.9159    0.4054    0.0000 Cl  0  0  0  0  0  0  0  0  0  0  0  0
    2.9159   -1.2446    0.0000 Cl  0  0  0  0  0  0  0  0  0  0  0  0
   -1.2944   -0.8321    0.0000 F   0  0  0  0  0  0  0  0  0  0  0  0
   -2.0909   -1.6571    0.0000 F   0  0  0  0  0  0  0  0  0  0  0  0
   -2.9159   -0.8463    0.0000 F   0  0  0  0  0  0  0  0  0  0  0  0
   -0.6686   -0.0071    0.0000 N   0  0  0  0  0  0  0  0  0  0  0  0
   -2.1336    0.0213    0.0000 C   0  0  0  0  0  0  0  0  0  0  0  0
   -1.4367    0.4338    0.0000 C   0  0  0  0  0  0  0  0  0  0  0  0
   -2.1194   -0.8321    0.0000 C   0  0  0  0  0  0  0  0  0  0  0  0
    0.7396    0.0071    0.0000 C   0  0  0  0  0  0  0  0  0  0  0  0
    0.0142    0.4054    0.0000 C   0  0  0  0  0  0  0  0  0  0  0  0
   -2.8591    0.4196    0.0000 C   0  0  0  0  0  0  0  0  0  0  0  0
   -1.4224    1.2446    0.0000 C   0  0  0  0  0  0  0  0  0  0  0  0
    1.4651    0.4054    0.0000 C   0  0  0  0  0  0  0  0  0  0  0  0
    2.1763    0.0071    0.0000 C   0  0  0  0  0  0  0  0  0  0  0  0
    2.1620   -0.8037    0.0000 C   0  0  0  0  0  0  0  0  0  0  0  0
    0.7396   -0.8179    0.0000 C   0  0  0  0  0  0  0  0  0  0  0  0
    1.4651   -1.2162    0.0000 C   0  0  0  0  0  0  0  0  0  0  0  0
   -2.8591    1.2446    0.0000 C   0  0  0  0  0  0  0  0  0  0  0  0
   -2.1336    1.6571    0.0000 C   0  0  0  0  0  0  0  0  0  0  0  0
    0.0142    1.2588    0.0000 C   0  0  0  0  0  0  0  0  0  0  0  0
  1 15  1  0  0  0  0
  2 16  1  0  0  0  0
  3  9  1  0  0  0  0
  4  9  1  0  0  0  0
  5  9  1  0  0  0  0
  6  8  1  0  0  0  0
  6 11  2  0  0  0  0
  7  8  1  0  0  0  0
  7  9  1  0  0  0  0
  7 12  2  0  0  0  0
  8 13  2  0  0  0  0
 10 11  1  0  0  0  0
 10 14  1  0  0  0  0
 10 17  2  0  0  0  0
 11 21  1  0  0  0  0
 12 19  1  0  0  0  0
 13 20  1  0  0  0  0
 14 15  2  0  0  0  0
 15 16  1  0  0  0  0
 16 18  2  0  0  0  0
 17 18  1  0  0  0  0
 19 20  2  0  0  0  0
M  END
> <PUBCHEM_COMPOUND_ID_TYPE>
0

> <PUBCHEM_TOTAL_CHARGE>
0

> <PUBCHEM_SUBSTANCE_ID>
310945622

> <PUBCHEM_SUBSTANCE_VERSION>
1

> <PUBCHEM_EXT_DATASOURCE_NAME>
4488

> <PUBCHEM_EXT_DATASOURCE_REGID>
SCHEMBL16123721

> <PUBCHEM_SUBSTANCE_COMMENT>
InChI=1S/C15H10Cl2F3N/c1-9(10-6-7-12(16)13(17)8-10)21-14-5-3-2-4-11(14)15(18,19)20/h2-8H,1H3/b21-9+
InChIKey=JRASLPRCYCWSBO-ZVBGSRNCSA-N

> <PUBCHEM_SUBSTANCE_SYNONYM>
SCHEMBL16123721

> <PUBCHEM_XREF_EXT_ID>
SCHEMBL16123721

> <PUBCHEM_EXT_DATASOURCE_URL>
https://www.surechembl.org/

> <PUBCHEM_EXT_SUBSTANCE_URL>
https://www.surechembl.org/chemical/SCHEMBL16123721

> <PUBCHEM_CID_ASSOCIATIONS>
117611637  1

> <PUBCHEM_COORDINATE_TYPE>
1
3

$$$$
