310935325
  -OEChem-07211613022D

 32 35  0     0  0  0  0  0  0999 V2000
    5.6204   -0.9281    0.0000 Br  0  0  0  0  0  0  0  0  0  0  0  0
    1.3922   -8.6626    0.0000 O   0  0  0  0  0  0  0  0  0  0  0  0
    0.0000   -3.7641    0.0000 O   0  0  0  0  0  0  0  0  0  0  0  0
    0.0000   -8.6626    0.0000 O   0  0  0  0  0  0  0  0  0  0  0  0
    3.5062   -0.8766    0.0000 N   0  0  0  0  0  0  0  0  0  0  0  0
    4.2282   -2.1141    0.0000 N   0  0  0  0  0  0  0  0  0  0  0  0
    3.6609   -0.1031    0.0000 N   0  0  0  0  0  0  0  0  0  0  0  0
    0.7219   -7.4766    0.0000 N   0  0  0  0  0  0  0  0  0  0  0  0
    0.6703   -2.5781    0.0000 N   0  0  0  0  0  0  0  0  0  0  0  0
    0.7219   -5.8266    0.0000 N   0  0  0  0  0  0  0  0  0  0  0  0
    4.2282   -1.2891    0.0000 C   0  0  0  0  0  0  0  0  0  0  0  0
    2.7844   -2.1141    0.0000 C   0  0  0  0  0  0  0  0  0  0  0  0
    4.8469   -0.7734    0.0000 C   0  0  0  0  0  0  0  0  0  0  0  0
    2.7844   -1.3406    0.0000 C   0  0  0  0  0  0  0  0  0  0  0  0
    2.1141   -2.5266    0.0000 C   0  0  0  0  0  0  0  0  0  0  0  0
    3.5578   -2.5266    0.0000 C   0  0  0  0  0  0  0  0  0  0  0  0
    4.4860    0.0000    0.0000 C   0  0  0  0  0  0  0  0  0  0  0  0
    1.3922   -2.1141    0.0000 C   0  0  0  0  0  0  0  0  0  0  0  0
    2.1141   -3.3516    0.0000 C   0  0  0  0  0  0  0  0  0  0  0  0
    0.7219   -3.3516    0.0000 C   0  0  0  0  0  0  0  0  0  0  0  0
    1.3922   -3.7641    0.0000 C   0  0  0  0  0  0  0  0  0  0  0  0
    0.7219   -8.3016    0.0000 C   0  0  0  0  0  0  0  0  0  0  0  0
    1.3922   -7.0641    0.0000 C   0  0  0  0  0  0  0  0  0  0  0  0
    0.0000   -7.0641    0.0000 C   0  0  0  0  0  0  0  0  0  0  0  0
    1.3922   -9.4876    0.0000 C   0  0  0  0  0  0  0  0  0  0  0  0
    0.0000   -6.2391    0.0000 C   0  0  0  0  0  0  0  0  0  0  0  0
    1.3922   -6.2391    0.0000 C   0  0  0  0  0  0  0  0  0  0  0  0
    0.7219   -5.0016    0.0000 C   0  0  0  0  0  0  0  0  0  0  0  0
    0.0000   -4.5891    0.0000 C   0  0  0  0  0  0  0  0  0  0  0  0
    0.5672   -9.4876    0.0000 C   0  0  0  0  0  0  0  0  0  0  0  0
    1.3922  -10.3126    0.0000 C   0  0  0  0  0  0  0  0  0  0  0  0
    2.2172   -9.4876    0.0000 C   0  0  0  0  0  0  0  0  0  0  0  0
  1 13  1  0  0  0  0
  2 22  1  0  0  0  0
  2 25  1  0  0  0  0
  3 20  1  0  0  0  0
  3 29  1  0  0  0  0
  4 22  2  0  0  0  0
  5  7  1  0  0  0  0
  5 11  1  0  0  0  0
  5 14  1  0  0  0  0
  6 11  1  0  0  0  0
  6 16  2  0  0  0  0
  7 17  2  0  0  0  0
  8 22  1  0  0  0  0
  8 23  1  0  0  0  0
  8 24  1  0  0  0  0
  9 18  2  0  0  0  0
  9 20  1  0  0  0  0
 10 26  1  0  0  0  0
 10 27  1  0  0  0  0
 10 28  1  0  0  0  0
 11 13  2  0  0  0  0
 12 14  2  0  0  0  0
 12 15  1  0  0  0  0
 12 16  1  0  0  0  0
 13 17  1  0  0  0  0
 15 18  1  0  0  0  0
 15 19  2  0  0  0  0
 19 21  1  0  0  0  0
 20 21  2  0  0  0  0
 23 27  1  0  0  0  0
 24 26  1  0  0  0  0
 25 30  1  0  0  0  0
 25 31  1  0  0  0  0
 25 32  1  0  0  0  0
 28 29  1  0  0  0  0
M  END
> <PUBCHEM_COMPOUND_ID_TYPE>
0

> <PUBCHEM_TOTAL_CHARGE>
0

> <PUBCHEM_SUBSTANCE_ID>
310935325

> <PUBCHEM_SUBSTANCE_VERSION>
1

> <PUBCHEM_EXT_DATASOURCE_NAME>
4488

> <PUBCHEM_EXT_DATASOURCE_REGID>
SCHEMBL16112859

> <PUBCHEM_SUBSTANCE_COMMENT>
InChI=1S/C22H27BrN6O3/c1-22(2,3)32-21(30)28-8-6-27(7-9-28)10-11-31-19-5-4-16(12-24-19)17-13-25-20-18(23)14-26-29(20)15-17/h4-5,12-15H,6-11H2,1-3H3
InChIKey=KLHVJBOCTQDRRV-UHFFFAOYSA-N

> <PUBCHEM_SUBSTANCE_SYNONYM>
SCHEMBL16112859

> <PUBCHEM_XREF_EXT_ID>
SCHEMBL16112859

> <PUBCHEM_EXT_DATASOURCE_URL>
https://www.surechembl.org/

> <PUBCHEM_EXT_SUBSTANCE_URL>
https://www.surechembl.org/chemical/SCHEMBL16112859

> <PUBCHEM_CID_ASSOCIATIONS>
117603382  1

> <PUBCHEM_COORDINATE_TYPE>
1
3

$$$$
