310949808
  -OEChem-07211613022D

 22 23  0     0  0  0  0  0  0999 V2000
   -0.2405   -0.0273    0.0000 O   0  0  0  0  0  0  0  0  0  0  0  0
    0.5793   -1.4592    0.0000 O   0  0  0  0  0  0  0  0  0  0  0  0
    3.4757    0.6831    0.0000 O   0  0  0  0  0  0  0  0  0  0  0  0
    3.4867   -0.6831    0.0000 O   0  0  0  0  0  0  0  0  0  0  0  0
   -0.2514    1.4155    0.0000 N   0  0  0  0  0  0  0  0  0  0  0  0
   -2.7216   -0.0383    0.0000 N   0  0  0  0  0  0  0  0  0  0  0  0
    0.5684    0.0164    0.0000 C   0  0  0  0  0  0  0  0  0  0  0  0
    0.9837   -0.7050    0.0000 C   0  0  0  0  0  0  0  0  0  0  0  0
   -0.6668    0.7050    0.0000 C   0  0  0  0  0  0  0  0  0  0  0  0
    2.2079    0.0383    0.0000 C   0  0  0  0  0  0  0  0  0  0  0  0
   -1.4975    0.7269    0.0000 C   0  0  0  0  0  0  0  0  0  0  0  0
    1.8254   -0.6722    0.0000 C   0  0  0  0  0  0  0  0  0  0  0  0
    0.9728    0.7269    0.0000 C   0  0  0  0  0  0  0  0  0  0  0  0
    1.7926    0.7597    0.0000 C   0  0  0  0  0  0  0  0  0  0  0  0
    3.0713    0.0164    0.0000 C   0  0  0  0  0  0  0  0  0  0  0  0
   -1.9019    1.4045    0.0000 C   0  0  0  0  0  0  0  0  0  0  0  0
   -1.9019   -0.0055    0.0000 C   0  0  0  0  0  0  0  0  0  0  0  0
   -0.6777    2.1369    0.0000 C   0  0  0  0  0  0  0  0  0  0  0  0
   -1.4975    2.1259    0.0000 C   0  0  0  0  0  0  0  0  0  0  0  0
    0.9947   -2.1369    0.0000 C   0  0  0  0  0  0  0  0  0  0  0  0
   -3.0604    0.5520    0.0000 C   0  0  0  0  0  0  0  0  0  0  0  0
   -3.4867    0.4536    0.0000 C   0  0  0  0  0  0  0  0  0  0  0  0
  1  7  1  0  0  0  0
  1  9  1  0  0  0  0
  2  8  1  0  0  0  0
  2 20  1  0  0  0  0
  3 15  2  0  0  0  0
  4 15  1  0  0  0  0
  5  9  1  0  0  0  0
  5 18  2  0  0  0  0
  6 17  1  0  0  0  0
  6 21  1  0  0  0  0
  7  8  2  0  0  0  0
  7 13  1  0  0  0  0
  8 12  1  0  0  0  0
  9 11  2  0  0  0  0
 10 12  2  0  0  0  0
 10 14  1  0  0  0  0
 10 15  1  0  0  0  0
 11 16  1  0  0  0  0
 11 17  1  0  0  0  0
 13 14  2  0  0  0  0
 16 19  2  0  0  0  0
 18 19  1  0  0  0  0
 21 22  1  0  0  0  0
M  END
> <PUBCHEM_COMPOUND_ID_TYPE>
0

> <PUBCHEM_TOTAL_CHARGE>
0

> <PUBCHEM_SUBSTANCE_ID>
310949808

> <PUBCHEM_SUBSTANCE_VERSION>
1

> <PUBCHEM_EXT_DATASOURCE_NAME>
4488

> <PUBCHEM_EXT_DATASOURCE_REGID>
SCHEMBL16128006

> <PUBCHEM_SUBSTANCE_COMMENT>
InChI=1S/C16H18N2O4/c1-3-17-10-12-5-4-8-18-15(12)22-13-7-6-11(16(19)20)9-14(13)21-2/h4-9,17H,3,10H2,1-2H3,(H,19,20)
InChIKey=HXSLNPWVOKMIOV-UHFFFAOYSA-N

> <PUBCHEM_SUBSTANCE_SYNONYM>
SCHEMBL16128006

> <PUBCHEM_XREF_EXT_ID>
SCHEMBL16128006

> <PUBCHEM_EXT_DATASOURCE_URL>
https://www.surechembl.org/

> <PUBCHEM_EXT_SUBSTANCE_URL>
https://www.surechembl.org/chemical/SCHEMBL16128006

> <PUBCHEM_CID_ASSOCIATIONS>
117615129  1

> <PUBCHEM_COORDINATE_TYPE>
1
3

> <PUBCHEM_BONDANNOTATIONS>
22  21  3

$$$$
