310934078
  -OEChem-07211613022D

 31 34  0     0  0  0  0  0  0999 V2000
    2.5001   -2.8501    0.0000 S   0  0  0  0  0  0  0  0  0  0  0  0
    2.5001   -3.7751    0.0000 O   0  0  0  0  0  0  0  0  0  0  0  0
    2.5001   -2.0751    0.0000 O   0  0  0  0  0  0  0  0  0  0  0  0
    7.0003   -3.5751    0.0000 O   0  0  0  0  0  0  0  0  0  0  0  0
    1.6501   -1.4250    0.0000 O   0  0  0  0  0  0  0  0  0  0  0  0
    6.9752   -2.1251    0.0000 O   0  0  0  0  0  0  0  0  0  0  0  0
    3.3001   -2.8501    0.0000 N   0  0  0  0  0  0  0  0  0  0  0  0
    5.7502   -4.2751    0.0000 N   0  0  0  0  0  0  0  0  0  0  0  0
    4.5002   -3.5751    0.0000 C   0  0  0  0  0  0  0  0  0  0  0  0
    3.7002   -3.5751    0.0000 C   0  0  0  0  0  0  0  0  0  0  0  0
    4.9252   -4.3002    0.0000 C   0  0  0  0  0  0  0  0  0  0  0  0
    5.7502   -2.8501    0.0000 C   0  0  0  0  0  0  0  0  0  0  0  0
    1.6751   -2.8501    0.0000 C   0  0  0  0  0  0  0  0  0  0  0  0
    4.9252   -2.8501    0.0000 C   0  0  0  0  0  0  0  0  0  0  0  0
    6.1752   -3.5751    0.0000 C   0  0  0  0  0  0  0  0  0  0  0  0
    6.1502   -2.1501    0.0000 C   0  0  0  0  0  0  0  0  0  0  0  0
    1.2500   -2.1501    0.0000 C   0  0  0  0  0  0  0  0  0  0  0  0
    3.3001   -4.3002    0.0000 C   0  0  0  0  0  0  0  0  0  0  0  0
    4.5252   -5.0002    0.0000 C   0  0  0  0  0  0  0  0  0  0  0  0
    3.7002   -5.0002    0.0000 C   0  0  0  0  0  0  0  0  0  0  0  0
    5.7502   -1.4250    0.0000 C   0  0  0  0  0  0  0  0  0  0  0  0
    1.2500   -3.5751    0.0000 C   0  0  0  0  0  0  0  0  0  0  0  0
    0.4250   -2.1501    0.0000 C   0  0  0  0  0  0  0  0  0  0  0  0
    0.4250   -3.5751    0.0000 C   0  0  0  0  0  0  0  0  0  0  0  0
    0.0000   -2.8501    0.0000 C   0  0  0  0  0  0  0  0  0  0  0  0
    6.1252   -0.7250    0.0000 C   0  0  0  0  0  0  0  0  0  0  0  0
    4.9002   -1.4250    0.0000 C   0  0  0  0  0  0  0  0  0  0  0  0
    5.7252    0.0000    0.0000 C   0  0  0  0  0  0  0  0  0  0  0  0
    4.5002   -0.7250    0.0000 C   0  0  0  0  0  0  0  0  0  0  0  0
    4.9002    0.0000    0.0000 C   0  0  0  0  0  0  0  0  0  0  0  0
    1.2250   -0.7250    0.0000 C   0  0  0  0  0  0  0  0  0  0  0  0
  1  2  2  0  0  0  0
  1  3  2  0  0  0  0
  1  7  1  0  0  0  0
  1 13  1  0  0  0  0
  4 15  2  0  0  0  0
  5 17  1  0  0  0  0
  5 31  1  0  0  0  0
  6 16  2  0  0  0  0
  7 10  1  0  0  0  0
  8 11  1  0  0  0  0
  8 15  1  0  0  0  0
  9 10  1  0  0  0  0
  9 11  2  0  0  0  0
  9 14  1  0  0  0  0
 10 18  2  0  0  0  0
 11 19  1  0  0  0  0
 12 14  2  0  0  0  0
 12 15  1  0  0  0  0
 12 16  1  0  0  0  0
 13 17  1  0  0  0  0
 13 22  2  0  0  0  0
 16 21  1  0  0  0  0
 17 23  2  0  0  0  0
 18 20  1  0  0  0  0
 19 20  2  0  0  0  0
 21 26  2  0  0  0  0
 21 27  1  0  0  0  0
 22 24  1  0  0  0  0
 23 25  1  0  0  0  0
 24 25  2  0  0  0  0
 26 28  1  0  0  0  0
 27 29  2  0  0  0  0
 28 30  2  0  0  0  0
 29 30  1  0  0  0  0
M  END
> <PUBCHEM_COMPOUND_ID_TYPE>
0

> <PUBCHEM_TOTAL_CHARGE>
0

> <PUBCHEM_SUBSTANCE_ID>
310934078

> <PUBCHEM_SUBSTANCE_VERSION>
1

> <PUBCHEM_EXT_DATASOURCE_NAME>
4488

> <PUBCHEM_EXT_DATASOURCE_REGID>
SCHEMBL16111524

> <PUBCHEM_SUBSTANCE_COMMENT>
InChI=1S/C23H18N2O5S/c1-30-20-12-5-6-13-21(20)31(28,29)25-19-11-7-10-18-16(19)14-17(23(27)24-18)22(26)15-8-3-2-4-9-15/h2-14,25H,1H3,(H,24,27)
InChIKey=GGNRQXAZTNVVQQ-UHFFFAOYSA-N

> <PUBCHEM_SUBSTANCE_SYNONYM>
SCHEMBL16111524

> <PUBCHEM_XREF_EXT_ID>
SCHEMBL16111524

> <PUBCHEM_EXT_DATASOURCE_URL>
https://www.surechembl.org/

> <PUBCHEM_EXT_SUBSTANCE_URL>
https://www.surechembl.org/chemical/SCHEMBL16111524

> <PUBCHEM_CID_ASSOCIATIONS>
117602364  1

> <PUBCHEM_COORDINATE_TYPE>
1
3

$$$$
