310949497
  -OEChem-07211613022D

 23 25  0     0  0  0  0  0  0999 V2000
   -1.9370    1.8493    0.0000 Cl  0  0  0  0  0  0  0  0  0  0  0  0
   -3.6328    1.0306    0.0000 Cl  0  0  0  0  0  0  0  0  0  0  0  0
   -0.5190    1.8639    0.0000 O   0  0  0  0  0  0  0  0  0  0  0  0
    0.1974    0.6359    0.0000 N   0  0  0  0  0  0  0  0  0  0  0  0
    2.4048    0.8991    0.0000 N   0  0  0  0  0  0  0  0  0  0  0  0
    2.9019    0.2412    0.0000 N   0  0  0  0  0  0  0  0  0  0  0  0
   -2.6679   -0.1827    0.0000 N   0  0  0  0  0  0  0  0  0  0  0  0
    1.6154   -0.1827    0.0000 C   0  0  0  0  0  0  0  0  0  0  0  0
    1.6446    0.6506    0.0000 C   0  0  0  0  0  0  0  0  0  0  0  0
    2.4048   -0.4459    0.0000 C   0  0  0  0  0  0  0  0  0  0  0  0
   -0.5336    1.0306    0.0000 C   0  0  0  0  0  0  0  0  0  0  0  0
   -1.2207    0.6359    0.0000 C   0  0  0  0  0  0  0  0  0  0  0  0
    0.8845    1.0452    0.0000 C   0  0  0  0  0  0  0  0  0  0  0  0
    0.9137   -0.5920    0.0000 C   0  0  0  0  0  0  0  0  0  0  0  0
   -1.9370    1.0452    0.0000 C   0  0  0  0  0  0  0  0  0  0  0  0
    0.2120   -0.1827    0.0000 C   0  0  0  0  0  0  0  0  0  0  0  0
    2.6679   -1.2061    0.0000 C   0  0  0  0  0  0  0  0  0  0  0  0
   -2.6533    0.6359    0.0000 C   0  0  0  0  0  0  0  0  0  0  0  0
   -1.2353   -0.1974    0.0000 C   0  0  0  0  0  0  0  0  0  0  0  0
   -1.9370   -0.5920    0.0000 C   0  0  0  0  0  0  0  0  0  0  0  0
    3.4866   -1.3961    0.0000 C   0  0  0  0  0  0  0  0  0  0  0  0
    2.1271   -1.8639    0.0000 C   0  0  0  0  0  0  0  0  0  0  0  0
    3.6328   -1.8639    0.0000 C   0  0  0  0  0  0  0  0  0  0  0  0
  1 15  1  0  0  0  0
  2 18  1  0  0  0  0
  3 11  2  0  0  0  0
  4 11  1  0  0  0  0
  4 13  1  0  0  0  0
  4 16  1  0  0  0  0
  5  6  1  0  0  0  0
  5  9  1  0  0  0  0
  6 10  2  0  0  0  0
  7 18  2  0  0  0  0
  7 20  1  0  0  0  0
  8  9  2  0  0  0  0
  8 10  1  0  0  0  0
  8 14  1  0  0  0  0
  9 13  1  0  0  0  0
 10 17  1  0  0  0  0
 11 12  1  0  0  0  0
 12 15  2  0  0  0  0
 12 19  1  0  0  0  0
 14 16  1  0  0  0  0
 15 18  1  0  0  0  0
 17 21  2  0  0  0  0
 17 22  1  0  0  0  0
 19 20  2  0  0  0  0
 21 23  1  0  0  0  0
M  END
> <PUBCHEM_COMPOUND_ID_TYPE>
0

> <PUBCHEM_TOTAL_CHARGE>
0

> <PUBCHEM_SUBSTANCE_ID>
310949497

> <PUBCHEM_SUBSTANCE_VERSION>
1

> <PUBCHEM_EXT_DATASOURCE_NAME>
4488

> <PUBCHEM_EXT_DATASOURCE_REGID>
SCHEMBL16127692

> <PUBCHEM_SUBSTANCE_COMMENT>
InChI=1S/C16H16Cl2N4O/c1-3-9(2)14-10-5-7-22(8-12(10)20-21-14)16(23)11-4-6-19-15(18)13(11)17/h3-4,6H,5,7-8H2,1-2H3,(H,20,21)/b9-3+
InChIKey=MYAAFWHAKUDXFN-YCRREMRBSA-N

> <PUBCHEM_SUBSTANCE_SYNONYM>
SCHEMBL16127692

> <PUBCHEM_XREF_EXT_ID>
SCHEMBL16127692

> <PUBCHEM_EXT_DATASOURCE_URL>
https://www.surechembl.org/

> <PUBCHEM_EXT_SUBSTANCE_URL>
https://www.surechembl.org/chemical/SCHEMBL16127692

> <PUBCHEM_CID_ASSOCIATIONS>
117614939  1

> <PUBCHEM_COORDINATE_TYPE>
1
3

$$$$
