310940448
  -OEChem-07211613022D

 30 31  0     1  0  0  0  0  0999 V2000
   -3.2675    1.2327    0.0000 S   0  0  0  0  0  0  0  0  0  0  0  0
   -0.3196   -1.0631    0.0000 O   0  0  0  0  0  0  0  0  0  0  0  0
    0.3978   -2.2762    0.0000 O   0  0  0  0  0  0  0  0  0  0  0  0
    3.2936   -2.2632    0.0000 O   0  0  0  0  0  0  0  0  0  0  0  0
    4.5850    0.3718    0.0000 O   0  0  0  0  0  0  0  0  0  0  0  0
   -3.2675   -0.0978    0.0000 N   0  0  0  0  0  0  0  0  0  0  0  0
   -0.3065   -0.2022    0.0000 C   0  0  3  0  0  0  0  0  0  0  0  0
   -1.0370    0.2022    0.0000 C   0  0  0  0  0  0  0  0  0  0  0  0
   -2.4849    0.1891    0.0000 C   0  0  0  0  0  0  0  0  0  0  0  0
   -1.7544   -0.2152    0.0000 C   0  0  0  0  0  0  0  0  0  0  0  0
   -3.7371    0.5805    0.0000 C   0  0  0  0  0  0  0  0  0  0  0  0
   -2.4849    1.0109    0.0000 C   0  0  0  0  0  0  0  0  0  0  0  0
    0.4109   -1.4153    0.0000 C   0  0  0  0  0  0  0  0  0  0  0  0
    0.3978    0.1891    0.0000 C   0  0  0  0  0  0  0  0  0  0  0  0
    2.6414   -1.0631    0.0000 C   0  0  3  0  0  0  0  0  0  0  0  0
    1.1283   -1.0239    0.0000 C   0  0  0  0  0  0  0  0  0  0  0  0
    3.2936   -1.4022    0.0000 C   0  0  0  0  0  0  0  0  0  0  0  0
   -1.0370    1.0370    0.0000 C   0  0  0  0  0  0  0  0  0  0  0  0
    0.4109    1.0370    0.0000 C   0  0  0  0  0  0  0  0  0  0  0  0
    1.8718   -1.4284    0.0000 C   0  0  0  0  0  0  0  0  0  0  0  0
    1.1152    1.4414    0.0000 C   0  0  0  0  0  0  0  0  0  0  0  0
    3.9981   -0.9848    0.0000 C   0  0  0  0  0  0  0  0  0  0  0  0
   -4.5850    0.6065    0.0000 C   0  0  0  0  0  0  0  0  0  0  0  0
    3.9981   -0.1891    0.0000 C   0  0  3  0  0  0  0  0  0  0  0  0
    1.8718    1.0370    0.0000 C   0  0  0  0  0  0  0  0  0  0  0  0
    3.2806    0.2282    0.0000 C   0  0  0  0  0  0  0  0  0  0  0  0
    3.2024   -0.5152    0.0000 C   0  0  0  0  0  0  0  0  0  0  0  0
    2.5762    1.4414    0.0000 C   0  0  0  0  0  0  0  0  0  0  0  0
    3.2806    1.0370    0.0000 C   0  0  0  0  0  0  0  0  0  0  0  0
    1.1152    2.2762    0.0000 C   0  0  0  0  0  0  0  0  0  0  0  0
  1 11  1  0  0  0  0
  1 12  1  0  0  0  0
  2  7  1  0  0  0  0
  2 13  1  0  0  0  0
  3 13  2  0  0  0  0
  4 17  2  0  0  0  0
 24  5  1  6  0  0  0
  6  9  1  0  0  0  0
  6 11  2  0  0  0  0
  7  8  1  6  0  0  0
  7 14  1  0  0  0  0
  8 10  2  0  0  0  0
  8 18  1  0  0  0  0
  9 10  1  0  0  0  0
  9 12  2  0  0  0  0
 11 23  1  0  0  0  0
 13 16  1  0  0  0  0
 14 19  1  0  0  0  0
 15 17  1  0  0  0  0
 15 20  1  0  0  0  0
 15 27  1  6  0  0  0
 16 20  1  0  0  0  0
 17 22  1  0  0  0  0
 19 21  2  0  0  0  0
 21 25  1  0  0  0  0
 21 30  1  0  0  0  0
 22 24  1  0  0  0  0
 24 26  1  0  0  0  0
 25 28  1  0  0  0  0
 26 29  1  0  0  0  0
 28 29  2  0  0  0  0
M  END
> <PUBCHEM_COMPOUND_ID_TYPE>
0

> <PUBCHEM_TOTAL_CHARGE>
0

> <PUBCHEM_SUBSTANCE_ID>
310940448

> <PUBCHEM_SUBSTANCE_VERSION>
1

> <PUBCHEM_EXT_DATASOURCE_NAME>
4488

> <PUBCHEM_EXT_DATASOURCE_REGID>
SCHEMBL16118401

> <PUBCHEM_SUBSTANCE_COMMENT>
InChI=1S/C24H33NO4S/c1-16-7-5-6-8-21(26)14-22(27)17(2)10-12-24(28)29-23(11-9-16)18(3)13-20-15-30-19(4)25-20/h5-6,9,13,15,17,21,23,26H,7-8,10-12,14H2,1-4H3/b6-5-,16-9-,18-13+/t17-,21-,23-/m0/s1
InChIKey=HLKVHCNMFVSCCQ-ORYRANQKSA-N

> <PUBCHEM_SUBSTANCE_SYNONYM>
SCHEMBL16118401

> <PUBCHEM_XREF_EXT_ID>
SCHEMBL16118401

> <PUBCHEM_EXT_DATASOURCE_URL>
https://www.surechembl.org/

> <PUBCHEM_EXT_SUBSTANCE_URL>
https://www.surechembl.org/chemical/SCHEMBL16118401

> <PUBCHEM_CID_ASSOCIATIONS>
117607468  1

> <PUBCHEM_COORDINATE_TYPE>
1
3

> <PUBCHEM_BONDANNOTATIONS>
15  27  6
24  5  6
7  8  6

$$$$
