310949200
  -OEChem-07211613022D

 79 90  0     0  0  0  0  0  0999 V2000
    1.7468   -0.3617    0.0000 N   0  0  0  0  0  0  0  0  0  0  0  0
   -1.6762   -0.3970    0.0000 N   0  0  0  0  0  0  0  0  0  0  0  0
    0.0177    2.3026    0.0000 N   0  0  0  0  0  0  0  0  0  0  0  0
    0.0000   -1.9497    0.0000 N   0  0  0  0  0  0  0  0  0  0  0  0
   -2.0997    1.7380    0.0000 N   0  0  0  0  0  0  0  0  0  0  0  0
    2.1349    1.7556    0.0000 N   0  0  0  0  0  0  0  0  0  0  0  0
    0.7234    0.1499    0.0000 C   0  0  0  0  0  0  0  0  0  0  0  0
   -0.7058    0.1323    0.0000 C   0  0  0  0  0  0  0  0  0  0  0  0
    0.0177    1.4027    0.0000 C   0  0  0  0  0  0  0  0  0  0  0  0
    0.0177   -0.2558    0.0000 C   0  0  0  0  0  0  0  0  0  0  0  0
    0.7411    0.9440    0.0000 C   0  0  0  0  0  0  0  0  0  0  0  0
   -0.6881    0.9616    0.0000 C   0  0  0  0  0  0  0  0  0  0  0  0
    2.4526   -0.0088    0.0000 C   0  0  0  0  0  0  0  0  0  0  0  0
    1.8351   -1.1557    0.0000 C   0  0  0  0  0  0  0  0  0  0  0  0
   -2.4526   -0.0265    0.0000 C   0  0  0  0  0  0  0  0  0  0  0  0
   -1.7998   -1.2086    0.0000 C   0  0  0  0  0  0  0  0  0  0  0  0
    0.6705    2.7967    0.0000 C   0  0  0  0  0  0  0  0  0  0  0  0
   -0.7058    2.8143    0.0000 C   0  0  0  0  0  0  0  0  0  0  0  0
    3.0172   -0.6088    0.0000 C   0  0  0  0  0  0  0  0  0  0  0  0
    2.5938   -1.3675    0.0000 C   0  0  0  0  0  0  0  0  0  0  0  0
   -2.9996   -0.6616    0.0000 C   0  0  0  0  0  0  0  0  0  0  0  0
   -2.5938   -1.3675    0.0000 C   0  0  0  0  0  0  0  0  0  0  0  0
    0.4058    3.5907    0.0000 C   0  0  0  0  0  0  0  0  0  0  0  0
   -0.4234    3.5907    0.0000 C   0  0  0  0  0  0  0  0  0  0  0  0
    0.0000   -1.1380    0.0000 C   0  0  0  0  0  0  0  0  0  0  0  0
   -1.4115    1.3675    0.0000 C   0  0  0  0  0  0  0  0  0  0  0  0
    1.4292    1.3675    0.0000 C   0  0  0  0  0  0  0  0  0  0  0  0
   -1.4468    2.6202    0.0000 C   0  0  0  0  0  0  0  0  0  0  0  0
    1.4645    2.6378    0.0000 C   0  0  0  0  0  0  0  0  0  0  0  0
    2.7349    0.7675    0.0000 C   0  0  0  0  0  0  0  0  0  0  0  0
    1.2881   -1.7733    0.0000 C   0  0  0  0  0  0  0  0  0  0  0  0
   -2.6996    0.7322    0.0000 C   0  0  0  0  0  0  0  0  0  0  0  0
   -1.2528   -1.8086    0.0000 C   0  0  0  0  0  0  0  0  0  0  0  0
    3.7406   -0.4676    0.0000 C   0  0  0  0  0  0  0  0  0  0  0  0
    2.8408   -2.1262    0.0000 C   0  0  0  0  0  0  0  0  0  0  0  0
   -3.7936   -0.4852    0.0000 C   0  0  0  0  0  0  0  0  0  0  0  0
   -2.8408   -2.1614    0.0000 C   0  0  0  0  0  0  0  0  0  0  0  0
    0.9351    4.1729    0.0000 C   0  0  0  0  0  0  0  0  0  0  0  0
   -0.9528    4.1905    0.0000 C   0  0  0  0  0  0  0  0  0  0  0  0
    4.0230    0.3264    0.0000 C   0  0  0  0  0  0  0  0  0  0  0  0
    2.2938   -2.7614    0.0000 C   0  0  0  0  0  0  0  0  0  0  0  0
   -4.0583    0.3088    0.0000 C   0  0  0  0  0  0  0  0  0  0  0  0
   -2.2938   -2.7790    0.0000 C   0  0  0  0  0  0  0  0  0  0  0  0
    1.9938    3.2378    0.0000 C   0  0  0  0  0  0  0  0  0  0  0  0
   -2.0644    3.2378    0.0000 C   0  0  0  0  0  0  0  0  0  0  0  0
    3.4230    0.9440    0.0000 C   0  0  0  0  0  0  0  0  0  0  0  0
    1.5174   -2.5673    0.0000 C   0  0  0  0  0  0  0  0  0  0  0  0
   -3.5113    0.8910    0.0000 C   0  0  0  0  0  0  0  0  0  0  0  0
   -1.5174   -2.6026    0.0000 C   0  0  0  0  0  0  0  0  0  0  0  0
    1.7468    4.0318    0.0000 C   0  0  0  0  0  0  0  0  0  0  0  0
   -1.7468    4.0141    0.0000 C   0  0  0  0  0  0  0  0  0  0  0  0
    4.8346    0.5029    0.0000 C   0  0  0  0  0  0  0  0  0  0  0  0
    2.5585   -3.5377    0.0000 C   0  0  0  0  0  0  0  0  0  0  0  0
   -4.8876    0.5029    0.0000 C   0  0  0  0  0  0  0  0  0  0  0  0
   -2.5761   -3.5554    0.0000 C   0  0  0  0  0  0  0  0  0  0  0  0
    2.8055    3.0613    0.0000 C   0  0  0  0  0  0  0  0  0  0  0  0
   -2.8584    3.0790    0.0000 C   0  0  0  0  0  0  0  0  0  0  0  0
   -3.3877    3.6612    0.0000 C   0  0  0  0  0  0  0  0  0  0  0  0
    3.1055    2.2850    0.0000 C   0  0  0  0  0  0  0  0  0  0  0  0
    3.3348    3.6789    0.0000 C   0  0  0  0  0  0  0  0  0  0  0  0
   -3.0702    2.2850    0.0000 C   0  0  0  0  0  0  0  0  0  0  0  0
    5.0993    1.2792    0.0000 C   0  0  0  0  0  0  0  0  0  0  0  0
    5.4168   -0.1323    0.0000 C   0  0  0  0  0  0  0  0  0  0  0  0
    4.8699   -0.3264    0.0000 C   0  0  0  0  0  0  0  0  0  0  0  0
    1.7292   -3.5907    0.0000 C   0  0  0  0  0  0  0  0  0  0  0  0
    3.3525   -3.7142    0.0000 C   0  0  0  0  0  0  0  0  0  0  0  0
    2.0291   -4.1905    0.0000 C   0  0  0  0  0  0  0  0  0  0  0  0
   -5.4168   -0.1499    0.0000 C   0  0  0  0  0  0  0  0  0  0  0  0
   -5.1346    1.2439    0.0000 C   0  0  0  0  0  0  0  0  0  0  0  0
   -4.4817    1.2263    0.0000 C   0  0  0  0  0  0  0  0  0  0  0  0
   -3.2642   -3.1319    0.0000 C   0  0  0  0  0  0  0  0  0  0  0  0
   -3.3877   -3.7671    0.0000 C   0  0  0  0  0  0  0  0  0  0  0  0
   -1.9762   -4.1905    0.0000 C   0  0  0  0  0  0  0  0  0  0  0  0
   -4.1994    3.4848    0.0000 C   0  0  0  0  0  0  0  0  0  0  0  0
    3.8289    2.1086    0.0000 C   0  0  0  0  0  0  0  0  0  0  0  0
    4.0936    3.5024    0.0000 C   0  0  0  0  0  0  0  0  0  0  0  0
   -3.8818    2.1086    0.0000 C   0  0  0  0  0  0  0  0  0  0  0  0
   -4.4464    2.7084    0.0000 C   0  0  0  0  0  0  0  0  0  0  0  0
    4.3582    2.7084    0.0000 C   0  0  0  0  0  0  0  0  0  0  0  0
  1  7  1  0  0  0  0
  1 13  1  0  0  0  0
  1 14  1  0  0  0  0
  2  8  1  0  0  0  0
  2 15  1  0  0  0  0
  2 16  1  0  0  0  0
  3  9  1  0  0  0  0
  3 17  1  0  0  0  0
  3 18  1  0  0  0  0
  4 25  3  0  0  0  0
  5 26  3  0  0  0  0
  6 27  3  0  0  0  0
  7 10  2  0  0  0  0
  7 11  1  0  0  0  0
  8 10  1  0  0  0  0
  8 12  2  0  0  0  0
  9 11  2  0  0  0  0
  9 12  1  0  0  0  0
 10 25  1  0  0  0  0
 11 27  1  0  0  0  0
 12 26  1  0  0  0  0
 13 19  2  0  0  0  0
 13 30  1  0  0  0  0
 14 20  2  0  0  0  0
 14 31  1  0  0  0  0
 15 21  2  0  0  0  0
 15 32  1  0  0  0  0
 16 22  2  0  0  0  0
 16 33  1  0  0  0  0
 17 23  2  0  0  0  0
 17 29  1  0  0  0  0
 18 24  2  0  0  0  0
 18 28  1  0  0  0  0
 19 20  1  0  0  0  0
 19 34  1  0  0  0  0
 20 35  1  0  0  0  0
 21 22  1  0  0  0  0
 21 36  1  0  0  0  0
 22 37  1  0  0  0  0
 23 24  1  0  0  0  0
 23 38  1  0  0  0  0
 24 39  1  0  0  0  0
 28 45  2  0  0  0  0
 29 44  2  0  0  0  0
 30 46  2  0  0  0  0
 31 47  2  0  0  0  0
 32 48  2  0  0  0  0
 33 49  2  0  0  0  0
 34 40  2  0  0  0  0
 35 41  2  0  0  0  0
 36 42  2  0  0  0  0
 37 43  2  0  0  0  0
 38 50  2  0  0  0  0
 39 51  2  0  0  0  0
 40 46  1  0  0  0  0
 40 52  1  0  0  0  0
 41 47  1  0  0  0  0
 41 53  1  0  0  0  0
 42 48  1  0  0  0  0
 42 54  1  0  0  0  0
 43 49  1  0  0  0  0
 43 55  1  0  0  0  0
 44 50  1  0  0  0  0
 44 56  1  0  0  0  0
 45 51  1  0  0  0  0
 45 57  1  0  0  0  0
 52 62  1  0  0  0  0
 52 63  1  0  0  0  0
 52 64  1  0  0  0  0
 53 65  1  0  0  0  0
 53 66  1  0  0  0  0
 53 67  1  0  0  0  0
 54 68  1  0  0  0  0
 54 69  1  0  0  0  0
 54 70  1  0  0  0  0
 55 71  1  0  0  0  0
 55 72  1  0  0  0  0
 55 73  1  0  0  0  0
 56 59  2  0  0  0  0
 56 60  1  0  0  0  0
 57 58  2  0  0  0  0
 57 61  1  0  0  0  0
 58 74  1  0  0  0  0
 59 75  1  0  0  0  0
 60 76  2  0  0  0  0
 61 77  2  0  0  0  0
 74 78  2  0  0  0  0
 75 79  2  0  0  0  0
 76 79  1  0  0  0  0
 77 78  1  0  0  0  0
M  END
> <PUBCHEM_COMPOUND_ID_TYPE>
0

> <PUBCHEM_TOTAL_CHARGE>
0

> <PUBCHEM_SUBSTANCE_ID>
310949200

> <PUBCHEM_SUBSTANCE_VERSION>
1

> <PUBCHEM_EXT_DATASOURCE_NAME>
4488

> <PUBCHEM_EXT_DATASOURCE_REGID>
SCHEMBL16127390

> <PUBCHEM_SUBSTANCE_COMMENT>
InChI=1S/C73H64N6/c1-70(2,3)48-25-31-61-54(37-48)55-38-49(71(4,5)6)26-32-62(55)77(61)67-58(41-74)68(78-63-33-27-50(72(7,8)9)39-56(63)57-40-51(73(10,11)12)28-34-64(57)78)60(43-76)69(59(67)42-75)79-65-35-46(44-19-15-13-16-20-44)23-29-52(65)53-30-24-47(36-66(53)79)45-21-17-14-18-22-45/h13-40H,1-12H3
InChIKey=VRZAZTGONQTLMC-UHFFFAOYSA-N

> <PUBCHEM_SUBSTANCE_SYNONYM>
SCHEMBL16127390

> <PUBCHEM_XREF_EXT_ID>
SCHEMBL16127390

> <PUBCHEM_EXT_DATASOURCE_URL>
https://www.surechembl.org/

> <PUBCHEM_EXT_SUBSTANCE_URL>
https://www.surechembl.org/chemical/SCHEMBL16127390

> <PUBCHEM_CID_ASSOCIATIONS>
117614688  1

> <PUBCHEM_COORDINATE_TYPE>
1
3

$$$$
