310943732
  -OEChem-07211613022D

 13 14  0     0  0  0  0  0  0999 V2000
   -0.8537   -1.4300    0.0000 O   0  0  0  0  0  0  0  0  0  0  0  0
   -0.8624    1.4300    0.0000 O   0  0  0  0  0  0  0  0  0  0  0  0
   -0.6197   -0.0087    0.0000 N   0  0  0  0  0  0  0  0  0  0  0  0
   -1.8938   -0.4160    0.0000 N   0  0  0  0  0  0  0  0  0  0  0  0
   -1.8938    0.3987    0.0000 N   0  0  0  0  0  0  0  0  0  0  0  0
   -1.1137   -0.6500    0.0000 C   0  0  0  0  0  0  0  0  0  0  0  0
   -1.1137    0.6327    0.0000 C   0  0  0  0  0  0  0  0  0  0  0  0
    0.2210   -0.0173    0.0000 C   0  0  0  0  0  0  0  0  0  0  0  0
    0.6543   -0.7194    0.0000 C   0  0  0  0  0  0  0  0  0  0  0  0
    0.6457    0.7021    0.0000 C   0  0  0  0  0  0  0  0  0  0  0  0
    1.4604   -0.7194    0.0000 C   0  0  0  0  0  0  0  0  0  0  0  0
    1.4864    0.6847    0.0000 C   0  0  0  0  0  0  0  0  0  0  0  0
    1.8938   -0.0087    0.0000 C   0  0  0  0  0  0  0  0  0  0  0  0
  1  6  2  0  0  0  0
  2  7  2  0  0  0  0
  3  6  1  0  0  0  0
  3  7  1  0  0  0  0
  3  8  1  0  0  0  0
  4  5  2  0  0  0  0
  4  6  1  0  0  0  0
  5  7  1  0  0  0  0
  8  9  2  0  0  0  0
  8 10  1  0  0  0  0
  9 11  1  0  0  0  0
 10 12  3  0  0  0  0
 11 13  1  0  0  0  0
 12 13  1  0  0  0  0
M  END
> <PUBCHEM_COMPOUND_ID_TYPE>
0

> <PUBCHEM_TOTAL_CHARGE>
0

> <PUBCHEM_SUBSTANCE_ID>
310943732

> <PUBCHEM_SUBSTANCE_VERSION>
1

> <PUBCHEM_EXT_DATASOURCE_NAME>
4488

> <PUBCHEM_EXT_DATASOURCE_REGID>
SCHEMBL16121800

> <PUBCHEM_SUBSTANCE_COMMENT>
InChI=1S/C8H5N3O2/c12-7-9-10-8(13)11(7)6-4-2-1-3-5-6/h4H,1-2H2
InChIKey=RWOQZWYPBVOSRV-UHFFFAOYSA-N

> <PUBCHEM_SUBSTANCE_SYNONYM>
SCHEMBL16121800

> <PUBCHEM_XREF_EXT_ID>
SCHEMBL16121800

> <PUBCHEM_EXT_DATASOURCE_URL>
https://www.surechembl.org/

> <PUBCHEM_EXT_SUBSTANCE_URL>
https://www.surechembl.org/chemical/SCHEMBL16121800

> <PUBCHEM_CID_ASSOCIATIONS>
117610098  1

> <PUBCHEM_COORDINATE_TYPE>
1
3

$$$$
