310947260
  -OEChem-07211613022D

 36 40  0     1  0  0  0  0  0999 V2000
   -1.4608    2.4894    0.0000 O   0  0  0  0  0  0  0  0  0  0  0  0
   -5.7476    1.6644    0.0000 O   0  0  0  0  0  0  0  0  0  0  0  0
    1.4672    0.1720    0.0000 N   0  0  0  0  0  0  0  0  0  0  0  0
    1.9522    0.8394    0.0000 N   0  0  0  0  0  0  0  0  0  0  0  0
   -2.1753    1.2519    0.0000 N   0  0  0  0  0  0  0  0  0  0  0  0
    0.6826    0.4269    0.0000 C   0  0  0  0  0  0  0  0  0  0  0  0
    0.6826    1.2519    0.0000 C   0  0  0  0  0  0  0  0  0  0  0  0
    1.4672    1.5069    0.0000 C   0  0  0  0  0  0  0  0  0  0  0  0
   -0.0319    1.6644    0.0000 C   0  0  0  0  0  0  0  0  0  0  0  0
   -0.7463    1.2519    0.0000 C   0  0  0  0  0  0  0  0  0  0  0  0
   -0.0319    0.0144    0.0000 C   0  0  0  0  0  0  0  0  0  0  0  0
    1.6808   -0.6249    0.0000 C   0  0  0  0  0  0  0  0  0  0  0  0
   -0.7463    0.4269    0.0000 C   0  0  0  0  0  0  0  0  0  0  0  0
   -1.4608    1.6644    0.0000 C   0  0  0  0  0  0  0  0  0  0  0  0
    2.4777   -0.8384    0.0000 C   0  0  0  0  0  0  0  0  0  0  0  0
    1.8797    2.2213    0.0000 C   0  0  0  0  0  0  0  0  0  0  0  0
   -2.8897    1.6644    0.0000 C   0  0  3  0  0  0  0  0  0  0  0  0
    2.6912   -1.6353    0.0000 C   0  0  0  0  0  0  0  0  0  0  0  0
    3.0610   -0.2551    0.0000 C   0  0  0  0  0  0  0  0  0  0  0  0
    4.0714   -1.2655    0.0000 C   0  0  0  0  0  0  0  0  0  0  0  0
   -3.6042    1.2519    0.0000 C   0  0  0  0  0  0  0  0  0  0  0  0
    3.4881   -1.8488    0.0000 C   0  0  0  0  0  0  0  0  0  0  0  0
    3.8579   -0.4686    0.0000 C   0  0  0  0  0  0  0  0  0  0  0  0
    4.8683   -1.4790    0.0000 C   0  0  0  0  0  0  0  0  0  0  0  0
   -4.3187    1.6644    0.0000 C   0  0  0  0  0  0  0  0  0  0  0  0
   -3.6042    0.4269    0.0000 C   0  0  0  0  0  0  0  0  0  0  0  0
   -5.0332    1.2519    0.0000 C   0  0  0  0  0  0  0  0  0  0  0  0
   -2.8897    2.4894    0.0000 C   0  0  0  0  0  0  0  0  0  0  0  0
    5.0818   -2.2759    0.0000 C   0  0  0  0  0  0  0  0  0  0  0  0
    5.4517   -0.8956    0.0000 C   0  0  0  0  0  0  0  0  0  0  0  0
   -4.3187    0.0144    0.0000 C   0  0  0  0  0  0  0  0  0  0  0  0
   -5.0332    0.4269    0.0000 C   0  0  0  0  0  0  0  0  0  0  0  0
    5.8787   -2.4894    0.0000 C   0  0  0  0  0  0  0  0  0  0  0  0
    6.2486   -1.1092    0.0000 C   0  0  0  0  0  0  0  0  0  0  0  0
    6.4621   -1.9061    0.0000 C   0  0  0  0  0  0  0  0  0  0  0  0
   -6.4621    1.2519    0.0000 C   0  0  0  0  0  0  0  0  0  0  0  0
  1 14  2  0  0  0  0
  2 27  1  0  0  0  0
  2 36  1  0  0  0  0
  3  4  1  0  0  0  0
  3  6  1  0  0  0  0
  3 12  1  0  0  0  0
  4  8  2  0  0  0  0
  5 14  1  0  0  0  0
  5 17  1  0  0  0  0
  6  7  1  0  0  0  0
  6 11  2  0  0  0  0
  7  8  1  0  0  0  0
  7  9  2  0  0  0  0
  8 16  1  0  0  0  0
  9 10  1  0  0  0  0
 10 13  2  0  0  0  0
 10 14  1  0  0  0  0
 11 13  1  0  0  0  0
 12 15  1  0  0  0  0
 15 18  2  0  0  0  0
 15 19  1  0  0  0  0
 17 21  1  0  0  0  0
 17 28  1  6  0  0  0
 18 22  1  0  0  0  0
 19 23  2  0  0  0  0
 20 22  2  0  0  0  0
 20 23  1  0  0  0  0
 20 24  1  0  0  0  0
 21 25  2  0  0  0  0
 21 26  1  0  0  0  0
 24 29  2  0  0  0  0
 24 30  1  0  0  0  0
 25 27  1  0  0  0  0
 26 31  2  0  0  0  0
 27 32  2  0  0  0  0
 29 33  1  0  0  0  0
 30 34  2  0  0  0  0
 31 32  1  0  0  0  0
 33 35  2  0  0  0  0
 34 35  1  0  0  0  0
M  END
> <PUBCHEM_COMPOUND_ID_TYPE>
0

> <PUBCHEM_TOTAL_CHARGE>
0

> <PUBCHEM_SUBSTANCE_ID>
310947260

> <PUBCHEM_SUBSTANCE_VERSION>
1

> <PUBCHEM_EXT_DATASOURCE_NAME>
4488

> <PUBCHEM_EXT_DATASOURCE_REGID>
SCHEMBL16125415

> <PUBCHEM_SUBSTANCE_COMMENT>
InChI=1S/C31H29N3O2/c1-21(26-10-7-11-28(18-26)36-3)32-31(35)27-16-17-30-29(19-27)22(2)33-34(30)20-23-12-14-25(15-13-23)24-8-5-4-6-9-24/h4-19,21H,20H2,1-3H3,(H,32,35)/t21-/m0/s1
InChIKey=RWTAIORRVHSOLA-NRFANRHFSA-N

> <PUBCHEM_SUBSTANCE_SYNONYM>
SCHEMBL16125415

> <PUBCHEM_XREF_EXT_ID>
SCHEMBL16125415

> <PUBCHEM_EXT_DATASOURCE_URL>
https://www.surechembl.org/

> <PUBCHEM_EXT_SUBSTANCE_URL>
https://www.surechembl.org/chemical/SCHEMBL16125415

> <PUBCHEM_CID_ASSOCIATIONS>
117613064  1

> <PUBCHEM_COORDINATE_TYPE>
1
3

> <PUBCHEM_BONDANNOTATIONS>
17  28  6

$$$$
