310943816
  -OEChem-07211613022D

 32 34  0     1  0  0  0  0  0999 V2000
   -1.9345    2.0375    0.0000 O   0  0  0  0  0  0  0  0  0  0  0  0
    1.3857    1.5847    0.0000 O   0  0  0  0  0  0  0  0  0  0  0  0
    2.1404    2.8195    0.0000 O   0  0  0  0  0  0  0  0  0  0  0  0
   -0.9055   -1.5298    0.0000 N   0  0  0  0  0  0  0  0  0  0  0  0
   -0.2332   -1.9963    0.0000 N   0  0  0  0  0  0  0  0  0  0  0  0
    1.4543   -0.0754    0.0000 N   0  0  3  0  0  0  0  0  0  0  0  0
    3.1694    1.2829    0.0000 N   0  0  0  0  0  0  0  0  0  0  0  0
   -2.1678    1.2829    0.0000 C   0  0  0  0  0  0  0  0  0  0  0  0
   -3.2791    2.0512    0.0000 C   0  0  0  0  0  0  0  0  0  0  0  0
   -1.1800   -0.0481    0.0000 C   0  0  0  0  0  0  0  0  0  0  0  0
   -0.6449   -0.7203    0.0000 C   0  0  0  0  0  0  0  0  0  0  0  0
   -2.9910    1.2691    0.0000 C   0  0  0  0  0  0  0  0  0  0  0  0
   -2.4696    0.5145    0.0000 C   0  0  0  0  0  0  0  0  0  0  0  0
   -1.3446    1.3651    0.0000 C   0  0  0  0  0  0  0  0  0  0  0  0
    0.1509   -0.7066    0.0000 C   0  0  0  0  0  0  0  0  0  0  0  0
   -1.9894   -0.1441    0.0000 C   0  0  0  0  0  0  0  0  0  0  0  0
   -0.8506    0.7340    0.0000 C   0  0  0  0  0  0  0  0  0  0  0  0
   -2.6068    2.5314    0.0000 C   0  0  0  0  0  0  0  0  0  0  0  0
    0.4254   -1.4749    0.0000 C   0  0  0  0  0  0  0  0  0  0  0  0
    0.6311   -0.0206    0.0000 C   0  0  0  0  0  0  0  0  0  0  0  0
   -4.0063    1.6670    0.0000 C   0  0  0  0  0  0  0  0  0  0  0  0
   -3.6770    2.7783    0.0000 C   0  0  0  0  0  0  0  0  0  0  0  0
   -0.2195   -2.8195    0.0000 C   0  0  0  0  0  0  0  0  0  0  0  0
    1.9071    0.6517    0.0000 C   0  0  0  0  0  0  0  0  0  0  0  0
    2.7303    0.6105    0.0000 C   0  0  0  0  0  0  0  0  0  0  0  0
    2.1404    2.0100    0.0000 C   0  0  0  0  0  0  0  0  0  0  0  0
    1.8522   -0.8027    0.0000 C   0  0  0  0  0  0  0  0  0  0  0  0
    1.3583    0.7203    0.0000 C   0  0  0  0  0  0  0  0  0  0  0  0
    4.0063    1.2554    0.0000 C   0  0  0  0  0  0  0  0  0  0  0  0
    0.5899    0.6928    0.0000 C   0  0  0  0  0  0  0  0  0  0  0  0
    2.1404    0.7203    0.0000 C   0  0  0  0  0  0  0  0  0  0  0  0
    1.3857   -0.1166    0.0000 C   0  0  0  0  0  0  0  0  0  0  0  0
  8  1  1  1  0  0  0
  1 18  1  0  0  0  0
  2 26  1  0  0  0  0
  2 28  1  0  0  0  0
  3 26  2  0  0  0  0
  4  5  1  0  0  0  0
  4 11  2  0  0  0  0
  5 19  1  0  0  0  0
  5 23  1  0  0  0  0
  6 20  1  0  0  0  0
  6 24  1  0  0  0  0
  6 27  1  0  0  0  0
  7 25  1  0  0  0  0
  7 26  1  0  0  0  0
  7 29  1  0  0  0  0
  8 12  1  0  0  0  0
  8 13  1  0  0  0  0
  8 14  1  0  0  0  0
  9 12  1  0  0  0  0
  9 18  1  0  0  0  0
  9 21  1  0  0  0  0
  9 22  1  0  0  0  0
 10 11  1  1  0  0  0
 10 16  1  0  0  0  0
 10 17  1  0  0  0  0
 11 15  1  0  0  0  0
 13 16  1  0  0  0  0
 14 17  1  0  0  0  0
 15 19  2  0  0  0  0
 15 20  1  0  0  0  0
 24 25  1  0  0  0  0
 28 30  1  0  0  0  0
 28 31  1  0  0  0  0
 28 32  1  0  0  0  0
M  END
> <PUBCHEM_COMPOUND_ID_TYPE>
0

> <PUBCHEM_TOTAL_CHARGE>
0

> <PUBCHEM_SUBSTANCE_ID>
310943816

> <PUBCHEM_SUBSTANCE_VERSION>
1

> <PUBCHEM_EXT_DATASOURCE_NAME>
4488

> <PUBCHEM_EXT_DATASOURCE_REGID>
SCHEMBL16121887

> <PUBCHEM_SUBSTANCE_COMMENT>
InChI=1S/C25H44N4O3/c1-23(2,3)32-22(30)28(7)14-13-27(6)15-20-16-29(8)26-21(20)19-9-11-25(12-10-19)17-24(4,5)18-31-25/h16,19H,9-15,17-18H2,1-8H3/t19-,25+
InChIKey=UHQRGCNONRWCLG-KJDSRRNHSA-N

> <PUBCHEM_SUBSTANCE_SYNONYM>
SCHEMBL16121887

> <PUBCHEM_XREF_EXT_ID>
SCHEMBL16121887

> <PUBCHEM_EXT_DATASOURCE_URL>
https://www.surechembl.org/

> <PUBCHEM_EXT_SUBSTANCE_URL>
https://www.surechembl.org/chemical/SCHEMBL16121887

> <PUBCHEM_CID_ASSOCIATIONS>
90463648  1

> <PUBCHEM_COORDINATE_TYPE>
1
3

> <PUBCHEM_BONDANNOTATIONS>
8  1  5
10  11  5

$$$$
