310935867
  -OEChem-07211613022D

 24 26  0     0  0  0  0  0  0999 V2000
    0.4197   -2.8733    0.0000 O   0  0  0  0  0  0  0  0  0  0  0  0
    1.6465   -2.1631    0.0000 N   0  0  0  0  0  0  0  0  0  0  0  0
    0.4197   -5.7145    0.0000 N   0  0  0  0  0  0  0  0  0  0  0  0
    5.3593   -1.4205    0.0000 N   0  0  0  0  0  0  0  0  0  0  0  0
    4.1325   -0.7103    0.0000 N   0  0  0  0  0  0  0  0  0  0  0  0
    5.3593    0.0000    0.0000 N   0  0  0  0  0  0  0  0  0  0  0  0
    2.4536   -6.4570    0.0000 N   0  0  0  0  0  0  0  0  0  0  0  0
    1.6465   -3.5837    0.0000 C   0  0  0  0  0  0  0  0  0  0  0  0
    1.2268   -4.3262    0.0000 C   0  0  0  0  0  0  0  0  0  0  0  0
    1.2268   -2.8733    0.0000 C   0  0  0  0  0  0  0  0  0  0  0  0
    2.8733   -2.8733    0.0000 C   0  0  0  0  0  0  0  0  0  0  0  0
    2.4859   -3.5514    0.0000 C   0  0  0  0  0  0  0  0  0  0  0  0
    1.6788   -5.0365    0.0000 C   0  0  0  0  0  0  0  0  0  0  0  0
    2.4536   -2.1308    0.0000 C   0  0  0  0  0  0  0  0  0  0  0  0
    3.6805   -2.8733    0.0000 C   0  0  0  0  0  0  0  0  0  0  0  0
    0.4197   -4.3262    0.0000 C   0  0  0  0  0  0  0  0  0  0  0  0
    4.1002   -2.1631    0.0000 C   0  0  0  0  0  0  0  0  0  0  0  0
    1.2268   -5.7145    0.0000 C   0  0  0  0  0  0  0  0  0  0  0  0
    0.0000   -5.0365    0.0000 C   0  0  0  0  0  0  0  0  0  0  0  0
    4.9396   -2.1308    0.0000 C   0  0  0  0  0  0  0  0  0  0  0  0
    3.7128   -1.4205    0.0000 C   0  0  0  0  0  0  0  0  0  0  0  0
    4.9396   -0.7103    0.0000 C   0  0  0  0  0  0  0  0  0  0  0  0
    1.6465   -6.4570    0.0000 C   0  0  0  0  0  0  0  0  0  0  0  0
    0.0000   -3.5837    0.0000 C   0  0  0  0  0  0  0  0  0  0  0  0
  1 10  1  0  0  0  0
  1 24  1  0  0  0  0
  2 10  1  0  0  0  0
  2 14  2  0  0  0  0
  3 18  1  0  0  0  0
  3 19  2  0  0  0  0
  4 20  2  0  0  0  0
  4 22  1  0  0  0  0
  5 21  1  0  0  0  0
  5 22  2  0  0  0  0
  6 22  1  0  0  0  0
  7 23  3  0  0  0  0
  8  9  1  0  0  0  0
  8 10  2  0  0  0  0
  8 12  1  0  0  0  0
  9 13  1  0  0  0  0
  9 16  2  0  0  0  0
 11 12  2  0  0  0  0
 11 14  1  0  0  0  0
 11 15  1  0  0  0  0
 13 18  2  0  0  0  0
 15 17  1  0  0  0  0
 16 19  1  0  0  0  0
 17 20  1  0  0  0  0
 17 21  2  0  0  0  0
 18 23  1  0  0  0  0
M  END
> <PUBCHEM_COMPOUND_ID_TYPE>
0

> <PUBCHEM_TOTAL_CHARGE>
0

> <PUBCHEM_SUBSTANCE_ID>
310935867

> <PUBCHEM_SUBSTANCE_VERSION>
1

> <PUBCHEM_EXT_DATASOURCE_NAME>
4488

> <PUBCHEM_EXT_DATASOURCE_REGID>
SCHEMBL16113460

> <PUBCHEM_SUBSTANCE_COMMENT>
InChI=1S/C17H14N6O/c1-24-16-15(13-2-3-20-14(6-13)7-18)5-11(8-21-16)4-12-9-22-17(19)23-10-12/h2-3,5-6,8-10H,4H2,1H3,(H2,19,22,23)
InChIKey=MROPHBWWMYOIRQ-UHFFFAOYSA-N

> <PUBCHEM_SUBSTANCE_SYNONYM>
SCHEMBL16113460

> <PUBCHEM_XREF_EXT_ID>
SCHEMBL16113460

> <PUBCHEM_EXT_DATASOURCE_URL>
https://www.surechembl.org/

> <PUBCHEM_EXT_SUBSTANCE_URL>
https://www.surechembl.org/chemical/SCHEMBL16113460

> <PUBCHEM_CID_ASSOCIATIONS>
117603856  1

> <PUBCHEM_COORDINATE_TYPE>
1
3

$$$$
