310934864
  -OEChem-07211613022D

 19 21  0     0  0  0  0  0  0999 V2000
    2.8716   -2.8500    0.0000 S   0  0  0  0  0  0  0  0  0  0  0  0
    2.8716   -1.5114    0.0000 N   0  0  0  0  0  0  0  0  0  0  0  0
    4.1887   -2.1807    0.0000 N   0  0  0  0  0  0  0  0  0  0  0  0
    0.6909   -1.6193    0.0000 N   0  0  0  0  0  0  0  0  0  0  0  0
    5.4194   -2.8932    0.0000 N   0  0  0  0  0  0  0  0  0  0  0  0
    2.0943   -1.7705    0.0000 C   0  0  0  0  0  0  0  0  0  0  0  0
    3.3682   -2.1807    0.0000 C   0  0  0  0  0  0  0  0  0  0  0  0
    1.4250   -1.2955    0.0000 C   0  0  0  0  0  0  0  0  0  0  0  0
    4.5989   -2.8932    0.0000 C   0  0  0  0  0  0  0  0  0  0  0  0
    2.0943   -2.5909    0.0000 C   0  0  0  0  0  0  0  0  0  0  0  0
    4.1671   -3.6057    0.0000 C   0  0  0  0  0  0  0  0  0  0  0  0
    1.5330   -0.4534    0.0000 C   0  0  0  0  0  0  0  0  0  0  0  0
    4.5989   -4.3182    0.0000 C   0  0  0  0  0  0  0  0  0  0  0  0
    0.0000   -1.1659    0.0000 C   0  0  0  0  0  0  0  0  0  0  0  0
    0.8205    0.0000    0.0000 C   0  0  0  0  0  0  0  0  0  0  0  0
    5.8512   -3.6057    0.0000 C   0  0  0  0  0  0  0  0  0  0  0  0
    5.4194   -4.3182    0.0000 C   0  0  0  0  0  0  0  0  0  0  0  0
    0.0864   -0.3455    0.0000 C   0  0  0  0  0  0  0  0  0  0  0  0
    3.3466   -3.6057    0.0000 C   0  0  0  0  0  0  0  0  0  0  0  0
  1  7  1  0  0  0  0
  1 10  1  0  0  0  0
  2  6  1  0  0  0  0
  2  7  2  0  0  0  0
  3  7  1  0  0  0  0
  3  9  1  0  0  0  0
  4  8  1  0  0  0  0
  4 14  2  0  0  0  0
  5  9  1  0  0  0  0
  5 16  2  0  0  0  0
  6  8  1  0  0  0  0
  6 10  2  0  0  0  0
  8 12  2  0  0  0  0
  9 11  2  0  0  0  0
 11 13  1  0  0  0  0
 11 19  1  0  0  0  0
 12 15  1  0  0  0  0
 13 17  2  0  0  0  0
 14 18  1  0  0  0  0
 15 18  2  0  0  0  0
 16 17  1  0  0  0  0
M  END
> <PUBCHEM_COMPOUND_ID_TYPE>
0

> <PUBCHEM_TOTAL_CHARGE>
0

> <PUBCHEM_SUBSTANCE_ID>
310934864

> <PUBCHEM_SUBSTANCE_VERSION>
1

> <PUBCHEM_EXT_DATASOURCE_NAME>
4488

> <PUBCHEM_EXT_DATASOURCE_REGID>
SCHEMBL16112373

> <PUBCHEM_SUBSTANCE_COMMENT>
InChI=1S/C14H12N4S/c1-10-5-4-8-16-13(10)18-14-17-12(9-19-14)11-6-2-3-7-15-11/h2-9H,1H3,(H,16,17,18)
InChIKey=AUWIYYMLXLLRIY-UHFFFAOYSA-N

> <PUBCHEM_SUBSTANCE_SYNONYM>
SCHEMBL16112373

> <PUBCHEM_XREF_EXT_ID>
SCHEMBL16112373

> <PUBCHEM_EXT_DATASOURCE_URL>
https://www.surechembl.org/

> <PUBCHEM_EXT_SUBSTANCE_URL>
https://www.surechembl.org/chemical/SCHEMBL16112373

> <PUBCHEM_CID_ASSOCIATIONS>
972880  1

> <PUBCHEM_COORDINATE_TYPE>
1
3

$$$$
