310929664
  -OEChem-07211613022D

 61 68  0     1  0  0  0  0  0999 V2000
   -1.4290    1.6500    0.0000 Cl  0  0  0  0  0  0  0  0  0  0  0  0
   -2.3860   -3.7235    0.0000 S   0  0  0  0  0  0  0  0  0  0  0  0
    1.4290   -0.8250    0.0000 O   0  0  0  0  0  0  0  0  0  0  0  0
   -1.5610   -5.1524    0.0000 O   0  0  0  0  0  0  0  0  0  0  0  0
    1.3265   -4.4380    0.0000 O   0  0  0  0  0  0  0  0  0  0  0  0
   -2.3860   -2.8985    0.0000 O   0  0  0  0  0  0  0  0  0  0  0  0
   -2.3860   -4.5485    0.0000 O   0  0  0  0  0  0  0  0  0  0  0  0
    2.8579   -4.1250    0.0000 O   0  0  0  0  0  0  0  0  0  0  0  0
    4.2868   -0.8250    0.0000 O   0  0  0  0  0  0  0  0  0  0  0  0
    0.0000    1.6500    0.0000 O   0  0  0  0  0  0  0  0  0  0  0  0
    5.0013   -2.0625    0.0000 O   0  0  0  0  0  0  0  0  0  0  0  0
    0.0890   -3.7235    0.0000 N   0  0  0  0  0  0  0  0  0  0  0  0
    2.1434   -2.8875    0.0000 N   0  0  0  0  0  0  0  0  0  0  0  0
   -1.5610   -3.7235    0.0000 N   0  0  0  0  0  0  0  0  0  0  0  0
    0.0000   -0.8250    0.0000 N   0  0  0  0  0  0  0  0  0  0  0  0
    3.5724   -2.0625    0.0000 N   0  0  0  0  0  0  0  0  0  0  0  0
   -0.3235   -4.4380    0.0000 C   0  0  3  0  0  0  0  0  0  0  0  0
    0.3909   -4.8505    0.0000 C   0  0  3  0  0  0  0  0  0  0  0  0
   -0.3235   -5.2630    0.0000 C   0  0  0  0  0  0  0  0  0  0  0  0
   -1.1485   -4.4380    0.0000 C   0  0  0  0  0  0  0  0  0  0  0  0
    1.3265   -3.0090    0.0000 C   0  0  3  0  0  0  0  0  0  0  0  0
    0.9140   -3.7235    0.0000 C   0  0  0  0  0  0  0  0  0  0  0  0
    1.4290   -1.6500    0.0000 C   0  0  3  0  0  0  0  0  0  0  0  0
    1.2159   -4.8505    0.0000 C   0  0  0  0  0  0  0  0  0  0  0  0
    0.9140   -2.2945    0.0000 C   0  0  0  0  0  0  0  0  0  0  0  0
    2.1434   -2.0625    0.0000 C   0  0  0  0  0  0  0  0  0  0  0  0
    2.8579   -3.3000    0.0000 C   0  0  0  0  0  0  0  0  0  0  0  0
   -3.2110   -3.7235    0.0000 C   0  0  0  0  0  0  0  0  0  0  0  0
    0.7144   -0.4125    0.0000 C   0  0  0  0  0  0  0  0  0  0  0  0
    3.5724   -2.8875    0.0000 C   0  0  3  0  0  0  0  0  0  0  0  0
    0.7144    0.4125    0.0000 C   0  0  0  0  0  0  0  0  0  0  0  0
    0.0000    0.8250    0.0000 C   0  0  0  0  0  0  0  0  0  0  0  0
   -0.7144    0.4125    0.0000 C   0  0  0  0  0  0  0  0  0  0  0  0
   -0.7144   -0.4125    0.0000 C   0  0  0  0  0  0  0  0  0  0  0  0
    5.0013   -0.4125    0.0000 C   0  0  3  0  0  0  0  0  0  0  0  0
    5.0013    0.4125    0.0000 C   0  0  3  0  0  0  0  0  0  0  0  0
   -3.9255   -4.1360    0.0000 C   0  0  0  0  0  0  0  0  0  0  0  0
   -3.9255   -3.3110    0.0000 C   0  0  0  0  0  0  0  0  0  0  0  0
    1.6284   -5.5649    0.0000 C   0  0  0  0  0  0  0  0  0  0  0  0
    4.2868   -3.3000    0.0000 C   0  0  0  0  0  0  0  0  0  0  0  0
   -1.4290    0.8250    0.0000 C   0  0  0  0  0  0  0  0  0  0  0  0
    4.2868   -1.6500    0.0000 C   0  0  0  0  0  0  0  0  0  0  0  0
    1.4290    0.8250    0.0000 C   0  0  0  0  0  0  0  0  0  0  0  0
    5.7859   -0.6674    0.0000 C   0  0  0  0  0  0  0  0  0  0  0  0
    5.7859    0.6674    0.0000 C   0  0  0  0  0  0  0  0  0  0  0  0
   -1.4290   -0.8250    0.0000 C   0  0  0  0  0  0  0  0  0  0  0  0
    4.2868    0.8250    0.0000 C   0  0  0  0  0  0  0  0  0  0  0  0
    6.2708    0.0000    0.0000 C   0  0  0  0  0  0  0  0  0  0  0  0
   -2.1434    0.4125    0.0000 C   0  0  0  0  0  0  0  0  0  0  0  0
    5.0405   -2.9645    0.0000 C   0  0  0  0  0  0  0  0  0  0  0  0
    4.3731   -4.1205    0.0000 C   0  0  0  0  0  0  0  0  0  0  0  0
   -2.1434   -0.4125    0.0000 C   0  0  0  0  0  0  0  0  0  0  0  0
    2.1434    0.4125    0.0000 C   0  0  0  0  0  0  0  0  0  0  0  0
    3.5724    0.4125    0.0000 C   0  0  0  0  0  0  0  0  0  0  0  0
    5.5926   -3.5776    0.0000 C   0  0  0  0  0  0  0  0  0  0  0  0
    5.1801   -4.2920    0.0000 C   0  0  0  0  0  0  0  0  0  0  0  0
    2.8579    0.8250    0.0000 C   0  0  0  0  0  0  0  0  0  0  0  0
   -0.7144    2.0625    0.0000 C   0  0  0  0  0  0  0  0  0  0  0  0
    0.6504   -1.3772    0.0000 H   0  0  0  0  0  0  0  0  0  0  0  0
    5.0875   -1.2330    0.0000 H   0  0  0  0  0  0  0  0  0  0  0  0
    5.0875    1.2330    0.0000 H   0  0  0  0  0  0  0  0  0  0  0  0
  1 41  1  0  0  0  0
  2  6  2  0  0  0  0
  2  7  2  0  0  0  0
  2 14  1  0  0  0  0
  2 28  1  0  0  0  0
  3 23  1  0  0  0  0
  3 29  1  0  0  0  0
  4 20  2  0  0  0  0
  5 22  2  0  0  0  0
  8 27  2  0  0  0  0
  9 35  1  0  0  0  0
  9 42  1  0  0  0  0
 10 32  1  0  0  0  0
 10 58  1  0  0  0  0
 11 42  2  0  0  0  0
 17 12  1  1  0  0  0
 12 22  1  0  0  0  0
 13 21  1  0  0  0  0
 13 26  1  0  0  0  0
 13 27  1  0  0  0  0
 14 20  1  0  0  0  0
 15 29  2  0  0  0  0
 15 34  1  0  0  0  0
 16 30  1  0  0  0  0
 16 42  1  0  0  0  0
 17 18  1  0  0  0  0
 17 19  1  0  0  0  0
 17 20  1  6  0  0  0
 18 19  1  0  0  0  0
 18 24  1  6  0  0  0
 21 22  1  6  0  0  0
 21 25  1  0  0  0  0
 23 25  1  0  0  0  0
 23 26  1  0  0  0  0
 23 59  1  6  0  0  0
 24 39  2  0  0  0  0
 30 27  1  1  0  0  0
 28 37  1  0  0  0  0
 28 38  1  0  0  0  0
 29 31  1  0  0  0  0
 30 40  1  0  0  0  0
 31 32  2  0  0  0  0
 31 43  1  0  0  0  0
 32 33  1  0  0  0  0
 33 34  1  0  0  0  0
 33 41  2  0  0  0  0
 34 46  2  0  0  0  0
 35 36  1  0  0  0  0
 35 44  1  0  0  0  0
 35 60  1  6  0  0  0
 36 45  1  0  0  0  0
 36 47  1  0  0  0  0
 36 61  1  1  0  0  0
 37 38  1  0  0  0  0
 40 50  1  0  0  0  0
 40 51  1  0  0  0  0
 41 49  1  0  0  0  0
 43 53  1  0  0  0  0
 44 48  1  0  0  0  0
 45 48  1  0  0  0  0
 46 52  1  0  0  0  0
 47 54  1  0  0  0  0
 49 52  2  0  0  0  0
 50 55  1  0  0  0  0
 51 56  1  0  0  0  0
 53 57  2  0  0  0  0
 54 57  1  0  0  0  0
 55 56  1  0  0  0  0
M  END
> <PUBCHEM_COMPOUND_ID_TYPE>
0

> <PUBCHEM_TOTAL_CHARGE>
0

> <PUBCHEM_SUBSTANCE_ID>
310929664

> <PUBCHEM_SUBSTANCE_VERSION>
1

> <PUBCHEM_EXT_DATASOURCE_NAME>
4488

> <PUBCHEM_EXT_DATASOURCE_REGID>
SCHEMBL16106855

> <PUBCHEM_SUBSTANCE_COMMENT>
InChI=1S/C42H52ClN5O9S/c1-3-26-22-42(26,40(51)47-58(53,54)28-19-20-28)46-37(49)32-21-27-23-48(32)39(50)35(25-12-7-8-13-25)45-41(52)57-33-18-9-14-24(33)11-5-4-6-15-29-36(55-2)34-30(43)16-10-17-31(34)44-38(29)56-27/h3-4,6,10,16-17,24-28,32-33,35H,1,5,7-9,11-15,18-23H2,2H3,(H,45,52)(H,46,49)(H,47,51)/b6-4+/t24-,26-,27-,32+,33-,35+,42-/m1/s1
InChIKey=TVLOFQODOHRQGS-PTXOKKFISA-N

> <PUBCHEM_SUBSTANCE_SYNONYM>
SCHEMBL16106855

> <PUBCHEM_XREF_EXT_ID>
SCHEMBL16106855

> <PUBCHEM_EXT_DATASOURCE_URL>
https://www.surechembl.org/

> <PUBCHEM_EXT_SUBSTANCE_URL>
https://www.surechembl.org/chemical/SCHEMBL16106855

> <PUBCHEM_CID_ASSOCIATIONS>
117598963  1

> <PUBCHEM_COORDINATE_TYPE>
1
3

> <PUBCHEM_BONDANNOTATIONS>
17  12  5
17  20  6
18  24  6
21  22  6
23  59  6
30  27  5
35  60  6
36  61  5

$$$$
