310946077
  -OEChem-07211613022D

 29 32  0     1  0  0  0  0  0999 V2000
    0.9679    3.4881    0.0000 F   0  0  0  0  0  0  0  0  0  0  0  0
    1.3320    2.4149    0.0000 F   0  0  0  0  0  0  0  0  0  0  0  0
    0.2396    2.0698    0.0000 F   0  0  0  0  0  0  0  0  0  0  0  0
   -1.6387   -1.9357    0.0000 O   0  0  0  0  0  0  0  0  0  0  0  0
    1.3128   -1.9549    0.0000 O   0  0  0  0  0  0  0  0  0  0  0  0
   -0.8720    1.9165    0.0000 N   0  0  0  0  0  0  0  0  0  0  0  0
   -0.8912   -0.6517    0.0000 N   0  0  0  0  0  0  0  0  0  0  0  0
   -0.1820   -1.9165    0.0000 N   0  0  0  0  0  0  0  0  0  0  0  0
   -0.1820   -4.4272    0.0000 N   0  0  0  0  0  0  0  0  0  0  0  0
   -0.4887    0.6133    0.0000 C   0  0  3  0  0  0  0  0  0  0  0  0
   -1.3128    0.6517    0.0000 C   0  0  3  0  0  0  0  0  0  0  0  0
   -0.9104    2.7790    0.0000 C   0  0  0  0  0  0  0  0  0  0  0  0
   -1.5812    1.3990    0.0000 C   0  0  0  0  0  0  0  0  0  0  0  0
   -0.2204    1.4374    0.0000 C   0  0  0  0  0  0  0  0  0  0  0  0
   -0.1629    3.2006    0.0000 C   0  0  0  0  0  0  0  0  0  0  0  0
   -0.2204   -0.1342    0.0000 C   0  0  0  0  0  0  0  0  0  0  0  0
   -1.5812   -0.1533    0.0000 C   0  0  0  0  0  0  0  0  0  0  0  0
    0.5846    2.7790    0.0000 C   0  0  0  0  0  0  0  0  0  0  0  0
   -0.8912   -1.4949    0.0000 C   0  0  0  0  0  0  0  0  0  0  0  0
   -1.6003    3.2198    0.0000 C   0  0  0  0  0  0  0  0  0  0  0  0
   -0.1438    4.0056    0.0000 C   0  0  0  0  0  0  0  0  0  0  0  0
   -0.2013   -2.7790    0.0000 C   0  0  0  0  0  0  0  0  0  0  0  0
   -1.6003    4.0056    0.0000 C   0  0  0  0  0  0  0  0  0  0  0  0
   -0.9295    4.4272    0.0000 C   0  0  0  0  0  0  0  0  0  0  0  0
    0.5846   -3.2006    0.0000 C   0  0  0  0  0  0  0  0  0  0  0  0
   -0.9104   -3.2198    0.0000 C   0  0  0  0  0  0  0  0  0  0  0  0
    0.5654   -4.0056    0.0000 C   0  0  0  0  0  0  0  0  0  0  0  0
    1.2745   -2.7982    0.0000 C   0  0  0  0  0  0  0  0  0  0  0  0
   -0.9104   -4.0056    0.0000 C   0  0  0  0  0  0  0  0  0  0  0  0
  1 18  1  0  0  0  0
  2 18  1  0  0  0  0
  3 18  1  0  0  0  0
  4 19  2  0  0  0  0
  5 28  2  0  0  0  0
  6 12  1  0  0  0  0
  6 13  1  0  0  0  0
  6 14  1  0  0  0  0
  7 16  1  0  0  0  0
  7 17  1  0  0  0  0
  7 19  1  0  0  0  0
  8 19  1  0  0  0  0
  8 22  1  0  0  0  0
  9 27  1  0  0  0  0
  9 29  2  0  0  0  0
 10 11  1  0  0  0  0
 10 14  1  0  0  0  0
 10 16  1  1  0  0  0
 11 13  1  0  0  0  0
 11 17  1  1  0  0  0
 12 15  2  0  0  0  0
 12 20  1  0  0  0  0
 15 18  1  0  0  0  0
 15 21  1  0  0  0  0
 20 23  2  0  0  0  0
 21 24  2  0  0  0  0
 22 25  1  0  0  0  0
 22 26  2  0  0  0  0
 23 24  1  0  0  0  0
 25 27  2  0  0  0  0
 25 28  1  0  0  0  0
 26 29  1  0  0  0  0
M  END
> <PUBCHEM_COMPOUND_ID_TYPE>
0

> <PUBCHEM_TOTAL_CHARGE>
0

> <PUBCHEM_SUBSTANCE_ID>
310946077

> <PUBCHEM_SUBSTANCE_VERSION>
1

> <PUBCHEM_EXT_DATASOURCE_NAME>
4488

> <PUBCHEM_EXT_DATASOURCE_REGID>
SCHEMBL16124184

> <PUBCHEM_SUBSTANCE_COMMENT>
InChI=1S/C20H19F3N4O2/c21-20(22,23)16-3-1-2-4-18(16)26-8-14-10-27(11-15(14)9-26)19(29)25-17-5-6-24-7-13(17)12-28/h1-7,12,14-15H,8-11H2,(H,24,25,29)/t14-,15+
InChIKey=RKEIPYWIMZOOQV-GASCZTMLSA-N

> <PUBCHEM_SUBSTANCE_SYNONYM>
SCHEMBL16124184

> <PUBCHEM_XREF_EXT_ID>
SCHEMBL16124184

> <PUBCHEM_EXT_DATASOURCE_URL>
https://www.surechembl.org/

> <PUBCHEM_EXT_SUBSTANCE_URL>
https://www.surechembl.org/chemical/SCHEMBL16124184

> <PUBCHEM_CID_ASSOCIATIONS>
117612045  1

> <PUBCHEM_COORDINATE_TYPE>
1
3

> <PUBCHEM_BONDANNOTATIONS>
10  16  5
11  17  5

$$$$
