310943049
  -OEChem-07211613022D

 27 30  0     1  0  0  0  0  0999 V2000
   -1.2821    0.2206    0.0000 O   0  0  0  0  0  0  0  0  0  0  0  0
    3.2536    1.4475    0.0000 O   0  0  0  0  0  0  0  0  0  0  0  0
    1.4890    0.0965    0.0000 N   0  0  0  0  0  0  0  0  0  0  0  0
    1.1443   -0.6618    0.0000 N   0  0  0  0  0  0  0  0  0  0  0  0
   -0.5652    1.4751    0.0000 N   0  0  0  0  0  0  0  0  0  0  0  0
   -0.2344   -1.1856    0.0000 N   0  0  0  0  0  0  0  0  0  0  0  0
    2.0679   -1.8749    0.0000 N   0  0  0  0  0  0  0  0  0  0  0  0
    0.1516    0.2344    0.0000 C   0  0  0  0  0  0  0  0  0  0  0  0
    0.8547    0.6480    0.0000 C   0  0  0  0  0  0  0  0  0  0  0  0
    0.3171   -0.5514    0.0000 C   0  0  0  0  0  0  0  0  0  0  0  0
   -0.5790    0.6480    0.0000 C   0  0  0  0  0  0  0  0  0  0  0  0
    2.2885    0.2620    0.0000 C   0  0  3  0  0  0  0  0  0  0  0  0
    0.8685    1.4751    0.0000 C   0  0  0  0  0  0  0  0  0  0  0  0
    2.7849   -0.3722    0.0000 C   0  0  3  0  0  0  0  0  0  0  0  0
    0.1516    1.8749    0.0000 C   0  0  0  0  0  0  0  0  0  0  0  0
    2.5091    1.1305    0.0000 C   0  0  0  0  0  0  0  0  0  0  0  0
    3.5982   -0.3998    0.0000 C   0  0  0  0  0  0  0  0  0  0  0  0
    2.4126   -1.1443    0.0000 C   0  0  0  0  0  0  0  0  0  0  0  0
   -1.9990    0.6480    0.0000 C   0  0  0  0  0  0  0  0  0  0  0  0
    4.1359    0.2482    0.0000 C   0  0  0  0  0  0  0  0  0  0  0  0
   -2.7021    0.2344    0.0000 C   0  0  0  0  0  0  0  0  0  0  0  0
    3.9842    1.0754    0.0000 C   0  0  0  0  0  0  0  0  0  0  0  0
   -3.4328    0.6341    0.0000 C   0  0  0  0  0  0  0  0  0  0  0  0
   -2.7159   -0.5928    0.0000 C   0  0  0  0  0  0  0  0  0  0  0  0
   -4.1359    0.2344    0.0000 C   0  0  0  0  0  0  0  0  0  0  0  0
   -3.4190   -0.9926    0.0000 C   0  0  0  0  0  0  0  0  0  0  0  0
   -4.1359   -0.5928    0.0000 C   0  0  0  0  0  0  0  0  0  0  0  0
  1 11  1  0  0  0  0
  1 19  1  0  0  0  0
  2 16  1  0  0  0  0
  2 22  1  0  0  0  0
  3  4  1  0  0  0  0
  3  9  1  0  0  0  0
 12  3  1  6  0  0  0
  4 10  2  0  0  0  0
  5 11  2  0  0  0  0
  5 15  1  0  0  0  0
  6 10  1  0  0  0  0
  7 18  3  0  0  0  0
  8  9  2  0  0  0  0
  8 10  1  0  0  0  0
  8 11  1  0  0  0  0
  9 13  1  0  0  0  0
 12 14  1  0  0  0  0
 12 16  1  0  0  0  0
 13 15  2  0  0  0  0
 14 17  1  0  0  0  0
 14 18  1  1  0  0  0
 17 20  1  0  0  0  0
 19 21  1  0  0  0  0
 20 22  1  0  0  0  0
 21 23  2  0  0  0  0
 21 24  1  0  0  0  0
 23 25  1  0  0  0  0
 24 26  2  0  0  0  0
 25 27  2  0  0  0  0
 26 27  1  0  0  0  0
M  END
> <PUBCHEM_COMPOUND_ID_TYPE>
0

> <PUBCHEM_TOTAL_CHARGE>
0

> <PUBCHEM_SUBSTANCE_ID>
310943049

> <PUBCHEM_SUBSTANCE_VERSION>
1

> <PUBCHEM_EXT_DATASOURCE_NAME>
4488

> <PUBCHEM_EXT_DATASOURCE_REGID>
SCHEMBL16121108

> <PUBCHEM_SUBSTANCE_COMMENT>
InChI=1S/C20H21N5O2/c21-11-15-7-4-10-26-13-17(15)25-16-8-9-23-20(18(16)19(22)24-25)27-12-14-5-2-1-3-6-14/h1-3,5-6,8-9,15,17H,4,7,10,12-13H2,(H2,22,24)/t15-,17+/m0/s1
InChIKey=ILOROJRXKYEZFQ-DOTOQJQBSA-N

> <PUBCHEM_SUBSTANCE_SYNONYM>
SCHEMBL16121108

> <PUBCHEM_XREF_EXT_ID>
SCHEMBL16121108

> <PUBCHEM_EXT_DATASOURCE_URL>
https://www.surechembl.org/

> <PUBCHEM_EXT_SUBSTANCE_URL>
https://www.surechembl.org/chemical/SCHEMBL16121108

> <PUBCHEM_CID_ASSOCIATIONS>
117609489  1

> <PUBCHEM_COORDINATE_TYPE>
1
3

> <PUBCHEM_BONDANNOTATIONS>
14  18  5
12  3  6

$$$$
