310936533
  -OEChem-07211613022D

 17 18  0     0  0  0  0  0  0999 V2000
    0.0000   -3.5383    0.0000 Cl  0  0  0  0  0  0  0  0  0  0  0  0
    3.7099   -2.8950    0.0000 O   0  0  0  0  0  0  0  0  0  0  0  0
    1.2438    0.0000    0.0000 O   0  0  0  0  0  0  0  0  0  0  0  0
    3.7099   -1.4368    0.0000 N   0  0  0  0  0  0  0  0  0  0  0  0
    2.4661   -2.1444    0.0000 C   0  0  0  0  0  0  0  0  0  0  0  0
    2.0587   -2.8521    0.0000 C   0  0  0  0  0  0  0  0  0  0  0  0
    3.3024   -2.1873    0.0000 C   0  0  0  0  0  0  0  0  0  0  0  0
    2.0801   -1.4582    0.0000 C   0  0  0  0  0  0  0  0  0  0  0  0
    2.4661   -0.7291    0.0000 C   0  0  0  0  0  0  0  0  0  0  0  0
    1.2438   -2.8521    0.0000 C   0  0  0  0  0  0  0  0  0  0  0  0
    2.4661   -3.5812    0.0000 C   0  0  0  0  0  0  0  0  0  0  0  0
    3.3024   -0.7505    0.0000 C   0  0  0  0  0  0  0  0  0  0  0  0
    0.8149   -3.5598    0.0000 C   0  0  0  0  0  0  0  0  0  0  0  0
    2.0372   -4.2888    0.0000 C   0  0  0  0  0  0  0  0  0  0  0  0
    1.2223   -4.2674    0.0000 C   0  0  0  0  0  0  0  0  0  0  0  0
    2.0587    0.0000    0.0000 C   0  0  0  0  0  0  0  0  0  0  0  0
    4.5462   -2.8950    0.0000 C   0  0  0  0  0  0  0  0  0  0  0  0
  1 13  1  0  0  0  0
  2  7  1  0  0  0  0
  2 17  1  0  0  0  0
  3 16  1  0  0  0  0
  4  7  2  0  0  0  0
  4 12  1  0  0  0  0
  5  6  1  0  0  0  0
  5  7  1  0  0  0  0
  5  8  2  0  0  0  0
  6 10  1  0  0  0  0
  6 11  2  0  0  0  0
  8  9  1  0  0  0  0
  9 12  2  0  0  0  0
  9 16  1  0  0  0  0
 10 13  2  0  0  0  0
 11 14  1  0  0  0  0
 13 15  1  0  0  0  0
 14 15  2  0  0  0  0
M  END
> <PUBCHEM_COMPOUND_ID_TYPE>
0

> <PUBCHEM_TOTAL_CHARGE>
0

> <PUBCHEM_SUBSTANCE_ID>
310936533

> <PUBCHEM_SUBSTANCE_VERSION>
1

> <PUBCHEM_EXT_DATASOURCE_NAME>
4488

> <PUBCHEM_EXT_DATASOURCE_REGID>
SCHEMBL16114185

> <PUBCHEM_SUBSTANCE_COMMENT>
InChI=1S/C13H12ClNO2/c1-17-13-12(5-9(8-16)7-15-13)10-3-2-4-11(14)6-10/h2-7,16H,8H2,1H3
InChIKey=QYYWSBHMIDKSFW-UHFFFAOYSA-N

> <PUBCHEM_SUBSTANCE_SYNONYM>
SCHEMBL16114185

> <PUBCHEM_XREF_EXT_ID>
SCHEMBL16114185

> <PUBCHEM_EXT_DATASOURCE_URL>
https://www.surechembl.org/

> <PUBCHEM_EXT_SUBSTANCE_URL>
https://www.surechembl.org/chemical/SCHEMBL16114185

> <PUBCHEM_CID_ASSOCIATIONS>
117604458  1

> <PUBCHEM_COORDINATE_TYPE>
1
3

$$$$
