310946157
  -OEChem-07211613022D

 47 54  0     0  0  0  0  0  0999 V2000
    1.6986   -2.9806    0.0000 O   0  0  0  0  0  0  0  0  0  0  0  0
    0.7160   -4.4797    0.0000 N   0  0  0  0  0  0  0  0  0  0  0  0
   -1.7410   -6.0802    0.0000 C   0  0  0  0  0  0  0  0  0  0  0  0
   -0.9340   -5.9087    0.0000 C   0  0  0  0  0  0  0  0  0  0  0  0
   -1.8272   -6.9007    0.0000 C   0  0  0  0  0  0  0  0  0  0  0  0
   -0.5215   -6.6231    0.0000 C   0  0  0  0  0  0  0  0  0  0  0  0
   -1.0735   -7.2362    0.0000 C   0  0  0  0  0  0  0  0  0  0  0  0
    0.3035   -5.1942    0.0000 C   0  0  0  0  0  0  0  0  0  0  0  0
   -0.5215   -5.1942    0.0000 C   0  0  0  0  0  0  0  0  0  0  0  0
   -2.5660   -6.0802    0.0000 C   0  0  0  0  0  0  0  0  0  0  0  0
   -1.7410   -5.2552    0.0000 C   0  0  0  0  0  0  0  0  0  0  0  0
    1.5410   -4.4797    0.0000 C   0  0  0  0  0  0  0  0  0  0  0  0
    0.3035   -6.6231    0.0000 C   0  0  0  0  0  0  0  0  0  0  0  0
    1.9535   -3.7652    0.0000 C   0  0  0  0  0  0  0  0  0  0  0  0
   -2.4946   -7.3856    0.0000 C   0  0  0  0  0  0  0  0  0  0  0  0
    0.7160   -5.9087    0.0000 C   0  0  0  0  0  0  0  0  0  0  0  0
   -0.9873   -8.0567    0.0000 C   0  0  0  0  0  0  0  0  0  0  0  0
    2.7785   -3.7652    0.0000 C   0  0  0  0  0  0  0  0  0  0  0  0
    0.3035   -3.7652    0.0000 C   0  0  0  0  0  0  0  0  0  0  0  0
    3.0335   -2.9806    0.0000 C   0  0  0  0  0  0  0  0  0  0  0  0
    2.3660   -2.4957    0.0000 C   0  0  0  0  0  0  0  0  0  0  0  0
   -2.4084   -8.2061    0.0000 C   0  0  0  0  0  0  0  0  0  0  0  0
    1.9535   -5.1942    0.0000 C   0  0  0  0  0  0  0  0  0  0  0  0
   -1.6547   -8.5416    0.0000 C   0  0  0  0  0  0  0  0  0  0  0  0
   -2.9785   -6.7947    0.0000 C   0  0  0  0  0  0  0  0  0  0  0  0
   -2.4554   -4.8427    0.0000 C   0  0  0  0  0  0  0  0  0  0  0  0
    3.1910   -4.4797    0.0000 C   0  0  0  0  0  0  0  0  0  0  0  0
    2.7785   -5.1942    0.0000 C   0  0  0  0  0  0  0  0  0  0  0  0
    0.7160   -3.0508    0.0000 C   0  0  0  0  0  0  0  0  0  0  0  0
   -0.5215   -3.7652    0.0000 C   0  0  0  0  0  0  0  0  0  0  0  0
    3.7871   -2.6451    0.0000 C   0  0  0  0  0  0  0  0  0  0  0  0
    2.4522   -1.6752    0.0000 C   0  0  0  0  0  0  0  0  0  0  0  0
   -0.5215   -2.3363    0.0000 C   0  0  0  0  0  0  0  0  0  0  0  0
    0.3035   -2.3363    0.0000 C   0  0  0  0  0  0  0  0  0  0  0  0
   -0.9340   -3.0508    0.0000 C   0  0  0  0  0  0  0  0  0  0  0  0
    3.8734   -1.8246    0.0000 C   0  0  0  0  0  0  0  0  0  0  0  0
    3.2059   -1.3397    0.0000 C   0  0  0  0  0  0  0  0  0  0  0  0
   -3.8035   -6.7947    0.0000 C   0  0  0  0  0  0  0  0  0  0  0  0
   -2.4554   -4.0177    0.0000 C   0  0  0  0  0  0  0  0  0  0  0  0
   -0.9340   -1.6218    0.0000 C   0  0  0  0  0  0  0  0  0  0  0  0
   -4.2160   -7.5091    0.0000 C   0  0  0  0  0  0  0  0  0  0  0  0
   -3.1699   -3.6052    0.0000 C   0  0  0  0  0  0  0  0  0  0  0  0
   -0.5215   -0.9074    0.0000 C   0  0  0  0  0  0  0  0  0  0  0  0
   -1.7590   -1.6218    0.0000 C   0  0  0  0  0  0  0  0  0  0  0  0
   -0.9340   -0.1929    0.0000 C   0  0  0  0  0  0  0  0  0  0  0  0
   -2.1715   -0.9074    0.0000 C   0  0  0  0  0  0  0  0  0  0  0  0
   -1.7590   -0.1929    0.0000 C   0  0  0  0  0  0  0  0  0  0  0  0
  1 14  1  0  0  0  0
  1 21  1  0  0  0  0
  2  8  1  0  0  0  0
  2 12  1  0  0  0  0
  2 19  1  0  0  0  0
  3  4  1  0  0  0  0
  3  5  1  0  0  0  0
  3 10  1  0  0  0  0
  3 11  1  0  0  0  0
  4  6  2  0  0  0  0
  4  9  1  0  0  0  0
  5  7  2  0  0  0  0
  5 15  1  0  0  0  0
  6  7  1  0  0  0  0
  6 13  1  0  0  0  0
  7 17  1  0  0  0  0
  8  9  2  0  0  0  0
  8 16  1  0  0  0  0
 10 25  1  0  0  0  0
 11 26  1  0  0  0  0
 12 14  1  0  0  0  0
 12 23  2  0  0  0  0
 13 16  2  0  0  0  0
 14 18  2  0  0  0  0
 15 22  2  0  0  0  0
 17 24  2  0  0  0  0
 18 20  1  0  0  0  0
 18 27  1  0  0  0  0
 19 29  2  0  0  0  0
 19 30  1  0  0  0  0
 20 21  2  0  0  0  0
 20 31  1  0  0  0  0
 21 32  1  0  0  0  0
 22 24  1  0  0  0  0
 23 28  1  0  0  0  0
 25 38  1  0  0  0  0
 26 39  1  0  0  0  0
 27 28  2  0  0  0  0
 29 34  1  0  0  0  0
 30 35  2  0  0  0  0
 31 36  2  0  0  0  0
 32 37  2  0  0  0  0
 33 34  2  0  0  0  0
 33 35  1  0  0  0  0
 33 40  1  0  0  0  0
 36 37  1  0  0  0  0
 38 41  1  0  0  0  0
 39 42  1  0  0  0  0
 40 43  2  0  0  0  0
 40 44  1  0  0  0  0
 43 45  1  0  0  0  0
 44 46  2  0  0  0  0
 45 47  2  0  0  0  0
 46 47  1  0  0  0  0
M  END
> <PUBCHEM_COMPOUND_ID_TYPE>
0

> <PUBCHEM_TOTAL_CHARGE>
0

> <PUBCHEM_SUBSTANCE_ID>
310946157

> <PUBCHEM_SUBSTANCE_VERSION>
1

> <PUBCHEM_EXT_DATASOURCE_NAME>
4488

> <PUBCHEM_EXT_DATASOURCE_REGID>
SCHEMBL16124266

> <PUBCHEM_SUBSTANCE_COMMENT>
InChI=1S/C45H41NO/c1-3-5-29-45(30-6-4-2)40-20-12-10-17-36(40)37-28-27-35(31-41(37)45)46(34-25-23-33(24-26-34)32-15-8-7-9-16-32)42-21-14-19-39-38-18-11-13-22-43(38)47-44(39)42/h7-28,31H,3-6,29-30H2,1-2H3
InChIKey=JCMAPIRKQDMAHP-UHFFFAOYSA-N

> <PUBCHEM_SUBSTANCE_SYNONYM>
SCHEMBL16124266

> <PUBCHEM_XREF_EXT_ID>
SCHEMBL16124266

> <PUBCHEM_EXT_DATASOURCE_URL>
https://www.surechembl.org/

> <PUBCHEM_EXT_SUBSTANCE_URL>
https://www.surechembl.org/chemical/SCHEMBL16124266

> <PUBCHEM_CID_ASSOCIATIONS>
117612114  1

> <PUBCHEM_COORDINATE_TYPE>
1
3

$$$$
