310930270
  -OEChem-07211613022D

 32 36  0     0  0  0  0  0  0999 V2000
    2.0868    0.0000    0.0000 F   0  0  0  0  0  0  0  0  0  0  0  0
    0.7279   -8.1046    0.0000 O   0  0  0  0  0  0  0  0  0  0  0  0
    2.1354   -8.1046    0.0000 N   0  0  0  0  0  0  0  0  0  0  0  0
    3.4942   -5.6781    0.0000 N   0  0  0  0  0  0  0  0  0  0  0  0
    1.3589   -4.4648    0.0000 N   0  0  0  0  0  0  0  0  0  0  0  0
    2.8148   -8.4929    0.0000 C   0  0  0  0  0  0  0  0  0  0  0  0
    3.5427   -8.1046    0.0000 C   0  0  0  0  0  0  0  0  0  0  0  0
    2.8148   -9.3179    0.0000 C   0  0  0  0  0  0  0  0  0  0  0  0
    3.4942   -7.2796    0.0000 C   0  0  0  0  0  0  0  0  0  0  0  0
    4.2222   -8.4929    0.0000 C   0  0  0  0  0  0  0  0  0  0  0  0
    1.4074   -8.4929    0.0000 C   0  0  0  0  0  0  0  0  0  0  0  0
    3.5427   -9.7061    0.0000 C   0  0  0  0  0  0  0  0  0  0  0  0
    2.1354   -9.7061    0.0000 C   0  0  0  0  0  0  0  0  0  0  0  0
    4.2222   -6.8428    0.0000 C   0  0  0  0  0  0  0  0  0  0  0  0
    2.8148   -6.8914    0.0000 C   0  0  0  0  0  0  0  0  0  0  0  0
    4.2222   -9.3179    0.0000 C   0  0  0  0  0  0  0  0  0  0  0  0
    1.4074   -9.3179    0.0000 C   0  0  0  0  0  0  0  0  0  0  0  0
    2.0383   -3.2516    0.0000 C   0  0  0  0  0  0  0  0  0  0  0  0
    2.7662   -4.4648    0.0000 C   0  0  0  0  0  0  0  0  0  0  0  0
    4.2222   -6.0663    0.0000 C   0  0  0  0  0  0  0  0  0  0  0  0
    2.8148   -6.0663    0.0000 C   0  0  0  0  0  0  0  0  0  0  0  0
    3.4942   -4.8531    0.0000 C   0  0  0  0  0  0  0  0  0  0  0  0
    2.0383   -2.4266    0.0000 C   0  0  0  0  0  0  0  0  0  0  0  0
    2.7662   -3.6398    0.0000 C   0  0  0  0  0  0  0  0  0  0  0  0
    1.3589   -3.6398    0.0000 C   0  0  0  0  0  0  0  0  0  0  0  0
    2.0383   -4.8531    0.0000 C   0  0  0  0  0  0  0  0  0  0  0  0
    1.3589   -2.0383    0.0000 C   0  0  0  0  0  0  0  0  0  0  0  0
    2.7662   -2.0383    0.0000 C   0  0  0  0  0  0  0  0  0  0  0  0
    2.0868   -0.8250    0.0000 C   0  0  0  0  0  0  0  0  0  0  0  0
    1.3589   -1.2132    0.0000 C   0  0  0  0  0  0  0  0  0  0  0  0
    2.7662   -1.2132    0.0000 C   0  0  0  0  0  0  0  0  0  0  0  0
    0.0000   -8.4929    0.0000 C   0  0  0  0  0  0  0  0  0  0  0  0
  1 29  1  0  0  0  0
  2 11  1  0  0  0  0
  2 32  1  0  0  0  0
  3  6  2  0  0  0  0
  3 11  1  0  0  0  0
  4 20  1  0  0  0  0
  4 21  1  0  0  0  0
  4 22  1  0  0  0  0
  5 25  2  0  0  0  0
  5 26  1  0  0  0  0
  6  7  1  0  0  0  0
  6  8  1  0  0  0  0
  7  9  1  0  0  0  0
  7 10  2  0  0  0  0
  8 12  1  0  0  0  0
  8 13  2  0  0  0  0
  9 14  1  0  0  0  0
  9 15  1  0  0  0  0
 10 16  1  0  0  0  0
 11 17  2  0  0  0  0
 12 16  2  0  0  0  0
 13 17  1  0  0  0  0
 14 20  1  0  0  0  0
 15 21  1  0  0  0  0
 18 23  1  0  0  0  0
 18 24  2  0  0  0  0
 18 25  1  0  0  0  0
 19 22  1  0  0  0  0
 19 24  1  0  0  0  0
 19 26  2  0  0  0  0
 23 27  2  0  0  0  0
 23 28  1  0  0  0  0
 27 30  1  0  0  0  0
 28 31  2  0  0  0  0
 29 30  2  0  0  0  0
 29 31  1  0  0  0  0
M  END
> <PUBCHEM_COMPOUND_ID_TYPE>
0

> <PUBCHEM_TOTAL_CHARGE>
0

> <PUBCHEM_SUBSTANCE_ID>
310930270

> <PUBCHEM_SUBSTANCE_VERSION>
1

> <PUBCHEM_EXT_DATASOURCE_NAME>
4488

> <PUBCHEM_EXT_DATASOURCE_REGID>
SCHEMBL16107547

> <PUBCHEM_SUBSTANCE_COMMENT>
InChI=1S/C27H26FN3O/c1-32-26-10-7-22-3-2-4-25(27(22)30-26)21-11-13-31(14-12-21)18-19-15-23(17-29-16-19)20-5-8-24(28)9-6-20/h2-10,15-17,21H,11-14,18H2,1H3
InChIKey=QFAZWOYZJBQWTA-UHFFFAOYSA-N

> <PUBCHEM_SUBSTANCE_SYNONYM>
SCHEMBL16107547

> <PUBCHEM_XREF_EXT_ID>
SCHEMBL16107547

> <PUBCHEM_EXT_DATASOURCE_URL>
https://www.surechembl.org/

> <PUBCHEM_EXT_SUBSTANCE_URL>
https://www.surechembl.org/chemical/SCHEMBL16107547

> <PUBCHEM_CID_ASSOCIATIONS>
86273698  1

> <PUBCHEM_COORDINATE_TYPE>
1
3

$$$$
