310932520
  -OEChem-07211613022D

 15 15  0     0  0  0  0  0  0999 V2000
    0.0000    0.0000    0.0000 Cl  0  0  0  0  0  0  0  0  0  0  0  0
    3.5527   -1.2287    0.0000 O   0  0  0  0  0  0  0  0  0  0  0  0
    4.3006   -4.9417    0.0000 O   0  0  0  0  0  0  0  0  0  0  0  0
    1.4157    0.0000    0.0000 N   0  0  0  0  0  0  0  0  0  0  0  0
    2.8581   -2.4842    0.0000 N   0  0  0  0  0  0  0  0  0  0  0  0
    2.1370   -1.2287    0.0000 C   0  0  0  0  0  0  0  0  0  0  0  0
    2.8581   -1.6294    0.0000 C   0  0  0  0  0  0  0  0  0  0  0  0
    2.1370   -0.4274    0.0000 C   0  0  0  0  0  0  0  0  0  0  0  0
    1.4157   -1.6294    0.0000 C   0  0  0  0  0  0  0  0  0  0  0  0
    0.6945   -0.4274    0.0000 C   0  0  0  0  0  0  0  0  0  0  0  0
    0.6945   -1.2287    0.0000 C   0  0  0  0  0  0  0  0  0  0  0  0
    3.5794   -2.8848    0.0000 C   0  0  0  0  0  0  0  0  0  0  0  0
    3.5794   -3.7129    0.0000 C   0  0  0  0  0  0  0  0  0  0  0  0
    4.2739   -4.1136    0.0000 C   0  0  0  0  0  0  0  0  0  0  0  0
    5.0218   -5.3423    0.0000 C   0  0  0  0  0  0  0  0  0  0  0  0
  1 10  1  0  0  0  0
  2  7  2  0  0  0  0
  3 14  1  0  0  0  0
  3 15  1  0  0  0  0
  4  8  1  0  0  0  0
  4 10  2  0  0  0  0
  5  7  1  0  0  0  0
  5 12  1  0  0  0  0
  6  7  1  0  0  0  0
  6  8  2  0  0  0  0
  6  9  1  0  0  0  0
  9 11  2  0  0  0  0
 10 11  1  0  0  0  0
 12 13  1  0  0  0  0
 13 14  1  0  0  0  0
M  END
> <PUBCHEM_COMPOUND_ID_TYPE>
0

> <PUBCHEM_TOTAL_CHARGE>
0

> <PUBCHEM_SUBSTANCE_ID>
310932520

> <PUBCHEM_SUBSTANCE_VERSION>
1

> <PUBCHEM_EXT_DATASOURCE_NAME>
4488

> <PUBCHEM_EXT_DATASOURCE_REGID>
SCHEMBL16109895

> <PUBCHEM_SUBSTANCE_COMMENT>
InChI=1S/C10H13ClN2O2/c1-15-6-2-5-12-10(14)8-3-4-9(11)13-7-8/h3-4,7H,2,5-6H2,1H3,(H,12,14)
InChIKey=MVGONKLHUDIYKJ-UHFFFAOYSA-N

> <PUBCHEM_SUBSTANCE_SYNONYM>
SCHEMBL16109895

> <PUBCHEM_XREF_EXT_ID>
SCHEMBL16109895

> <PUBCHEM_EXT_DATASOURCE_URL>
https://www.surechembl.org/

> <PUBCHEM_EXT_SUBSTANCE_URL>
https://www.surechembl.org/chemical/SCHEMBL16109895

> <PUBCHEM_CID_ASSOCIATIONS>
43089866  1

> <PUBCHEM_COORDINATE_TYPE>
1
3

$$$$
