310933436
  -OEChem-07211613022D

 17 18  0     0  0  0  0  0  0999 V2000
    4.8429   -1.0816    0.0000 O   0  0  0  0  0  0  0  0  0  0  0  0
    0.0000   -1.7757    0.0000 O   0  5  0  0  0  0  0  0  0  0  0  0
    0.7103   -0.5489    0.0000 O   0  0  0  0  0  0  0  0  0  0  0  0
    4.4555   -0.3713    0.0000 N   0  0  0  0  0  0  0  0  0  0  0  0
    0.7103   -1.3560    0.0000 N   0  3  0  0  0  0  0  0  0  0  0  0
    0.7103   -3.0026    0.0000 N   0  0  0  0  0  0  0  0  0  0  0  0
    3.5515   -1.3560    0.0000 C   0  0  0  0  0  0  0  0  0  0  0  0
    2.8411   -1.7757    0.0000 C   0  0  0  0  0  0  0  0  0  0  0  0
    1.4206   -1.7757    0.0000 C   0  0  0  0  0  0  0  0  0  0  0  0
    4.3102   -1.6950    0.0000 C   0  0  0  0  0  0  0  0  0  0  0  0
    3.6483   -0.5489    0.0000 C   0  0  0  0  0  0  0  0  0  0  0  0
    2.1309   -1.3560    0.0000 C   0  0  0  0  0  0  0  0  0  0  0  0
    1.4206   -2.5829    0.0000 C   0  0  0  0  0  0  0  0  0  0  0  0
    2.8411   -2.5829    0.0000 C   0  0  0  0  0  0  0  0  0  0  0  0
    2.1309   -3.0026    0.0000 C   0  0  0  0  0  0  0  0  0  0  0  0
    4.4878   -2.4860    0.0000 C   0  0  0  0  0  0  0  0  0  0  0  0
    3.0349    0.0000    0.0000 C   0  0  0  0  0  0  0  0  0  0  0  0
  1  4  1  0  0  0  0
  1 10  1  0  0  0  0
  2  5  1  0  0  0  0
  3  5  2  0  0  0  0
  4 11  2  0  0  0  0
  5  9  1  0  0  0  0
  6 13  1  0  0  0  0
  7  8  1  0  0  0  0
  7 10  2  0  0  0  0
  7 11  1  0  0  0  0
  8 12  2  0  0  0  0
  8 14  1  0  0  0  0
  9 12  1  0  0  0  0
  9 13  2  0  0  0  0
 10 16  1  0  0  0  0
 11 17  1  0  0  0  0
 13 15  1  0  0  0  0
 14 15  2  0  0  0  0
M  CHG  2   2  -1   5   1
M  END
> <PUBCHEM_COMPOUND_ID_TYPE>
0

> <PUBCHEM_TOTAL_CHARGE>
0

> <PUBCHEM_SUBSTANCE_ID>
310933436

> <PUBCHEM_SUBSTANCE_VERSION>
1

> <PUBCHEM_EXT_DATASOURCE_NAME>
4488

> <PUBCHEM_EXT_DATASOURCE_REGID>
SCHEMBL16110854

> <PUBCHEM_SUBSTANCE_COMMENT>
InChI=1S/C11H11N3O3/c1-6-11(7(2)17-13-6)8-3-4-9(12)10(5-8)14(15)16/h3-5H,12H2,1-2H3
InChIKey=FRSICXAEAHREAL-UHFFFAOYSA-N

> <PUBCHEM_SUBSTANCE_SYNONYM>
SCHEMBL16110854

> <PUBCHEM_XREF_EXT_ID>
SCHEMBL16110854

> <PUBCHEM_EXT_DATASOURCE_URL>
https://www.surechembl.org/

> <PUBCHEM_EXT_SUBSTANCE_URL>
https://www.surechembl.org/chemical/SCHEMBL16110854

> <PUBCHEM_CID_ASSOCIATIONS>
117601838  1

> <PUBCHEM_COORDINATE_TYPE>
1
3

$$$$
