310929501
  -OEChem-07211613022D

 29 30  0     0  0  0  0  0  0999 V2000
   10.4575   -0.0418    0.0000 O   0  0  0  0  0  0  0  0  0  0  0  0
    0.0000   -2.8444    0.0000 O   0  0  0  0  0  0  0  0  0  0  0  0
   10.4994   -1.6313    0.0000 N   0  0  0  0  0  0  0  0  0  0  0  0
   11.1687   -1.2131    0.0000 C   0  0  0  0  0  0  0  0  0  0  0  0
   11.8798   -1.5895    0.0000 C   0  0  0  0  0  0  0  0  0  0  0  0
   11.1687   -0.4183    0.0000 C   0  0  0  0  0  0  0  0  0  0  0  0
   10.4994   -2.4261    0.0000 C   0  0  0  0  0  0  0  0  0  0  0  0
   11.8798   -2.4261    0.0000 C   0  0  0  0  0  0  0  0  0  0  0  0
   12.5490   -1.2131    0.0000 C   0  0  0  0  0  0  0  0  0  0  0  0
   11.8798    0.0000    0.0000 C   0  0  0  0  0  0  0  0  0  0  0  0
   11.1687   -2.8444    0.0000 C   0  0  0  0  0  0  0  0  0  0  0  0
   12.5490   -0.4183    0.0000 C   0  0  0  0  0  0  0  0  0  0  0  0
    9.7883   -2.8444    0.0000 C   0  0  0  0  0  0  0  0  0  0  0  0
    9.7883   -0.4183    0.0000 C   0  0  0  0  0  0  0  0  0  0  0  0
    9.0771   -2.4261    0.0000 C   0  0  0  0  0  0  0  0  0  0  0  0
    9.0771   -0.0418    0.0000 C   0  0  0  0  0  0  0  0  0  0  0  0
    9.7883   -1.2131    0.0000 C   0  0  0  0  0  0  0  0  0  0  0  0
    8.4079   -2.8444    0.0000 C   0  0  0  0  0  0  0  0  0  0  0  0
    7.6967   -2.4261    0.0000 C   0  0  0  0  0  0  0  0  0  0  0  0
    6.9856   -2.8444    0.0000 C   0  0  0  0  0  0  0  0  0  0  0  0
    6.3163   -2.4261    0.0000 C   0  0  0  0  0  0  0  0  0  0  0  0
    5.6052   -2.8444    0.0000 C   0  0  0  0  0  0  0  0  0  0  0  0
    4.8941   -2.4261    0.0000 C   0  0  0  0  0  0  0  0  0  0  0  0
    4.2248   -2.8444    0.0000 C   0  0  0  0  0  0  0  0  0  0  0  0
    3.5137   -2.4261    0.0000 C   0  0  0  0  0  0  0  0  0  0  0  0
    2.8026   -2.8444    0.0000 C   0  0  0  0  0  0  0  0  0  0  0  0
    2.0915   -2.4261    0.0000 C   0  0  0  0  0  0  0  0  0  0  0  0
    1.4222   -2.8444    0.0000 C   0  0  0  0  0  0  0  0  0  0  0  0
    0.7111   -2.4261    0.0000 C   0  0  0  0  0  0  0  0  0  0  0  0
  1  6  1  0  0  0  0
  1 14  1  0  0  0  0
  2 29  1  0  0  0  0
  3  4  2  0  0  0  0
  3  7  1  0  0  0  0
  4  5  1  0  0  0  0
  4  6  1  0  0  0  0
  5  8  2  0  0  0  0
  5  9  1  0  0  0  0
  6 10  2  0  0  0  0
  7 11  2  0  0  0  0
  7 13  1  0  0  0  0
  8 11  1  0  0  0  0
  9 12  2  0  0  0  0
 10 12  1  0  0  0  0
 13 15  1  0  0  0  0
 14 16  1  0  0  0  0
 14 17  1  0  0  0  0
 15 18  1  0  0  0  0
 18 19  1  0  0  0  0
 19 20  1  0  0  0  0
 20 21  1  0  0  0  0
 21 22  1  0  0  0  0
 22 23  1  0  0  0  0
 23 24  1  0  0  0  0
 24 25  1  0  0  0  0
 25 26  1  0  0  0  0
 26 27  1  0  0  0  0
 27 28  1  0  0  0  0
 28 29  1  0  0  0  0
M  END
> <PUBCHEM_COMPOUND_ID_TYPE>
0

> <PUBCHEM_TOTAL_CHARGE>
0

> <PUBCHEM_SUBSTANCE_ID>
310929501

> <PUBCHEM_SUBSTANCE_VERSION>
1

> <PUBCHEM_EXT_DATASOURCE_NAME>
4488

> <PUBCHEM_EXT_DATASOURCE_REGID>
SCHEMBL16106678

> <PUBCHEM_SUBSTANCE_COMMENT>
InChI=1S/C26H41NO2/c1-22(2)29-25-18-15-16-23-19-20-24(27-26(23)25)17-13-11-9-7-5-3-4-6-8-10-12-14-21-28/h15-16,18-20,22,28H,3-14,17,21H2,1-2H3
InChIKey=UQFAWWOTKOWIQU-UHFFFAOYSA-N

> <PUBCHEM_SUBSTANCE_SYNONYM>
SCHEMBL16106678

> <PUBCHEM_XREF_EXT_ID>
SCHEMBL16106678

> <PUBCHEM_EXT_DATASOURCE_URL>
https://www.surechembl.org/

> <PUBCHEM_EXT_SUBSTANCE_URL>
https://www.surechembl.org/chemical/SCHEMBL16106678

> <PUBCHEM_CID_ASSOCIATIONS>
86299865  1

> <PUBCHEM_COORDINATE_TYPE>
1
3

$$$$
