310942321
  -OEChem-07211613022D

 28 31  0     0  0  0  0  0  0999 V2000
    2.3171    1.1402    0.0000 O   0  0  0  0  0  0  0  0  0  0  0  0
   -2.3024   -0.3509    0.0000 N   0  0  0  0  0  0  0  0  0  0  0  0
    3.0334   -0.1023    0.0000 N   0  0  0  0  0  0  0  0  0  0  0  0
    4.4659   -0.9210    0.0000 N   0  0  0  0  0  0  0  0  0  0  0  0
   -5.1969   -0.3654    0.0000 N   0  0  0  0  0  0  0  0  0  0  0  0
   -1.3083   -0.9063    0.0000 C   0  0  0  0  0  0  0  0  0  0  0  0
   -2.0978   -1.1110    0.0000 C   0  0  0  0  0  0  0  0  0  0  0  0
   -1.5131   -0.1170    0.0000 C   0  0  0  0  0  0  0  0  0  0  0  0
    0.1535   -0.9063    0.0000 C   0  0  0  0  0  0  0  0  0  0  0  0
    1.6007   -0.0877    0.0000 C   0  0  0  0  0  0  0  0  0  0  0  0
   -0.5628   -1.3157    0.0000 C   0  0  0  0  0  0  0  0  0  0  0  0
    2.3171    0.3216    0.0000 C   0  0  0  0  0  0  0  0  0  0  0  0
    3.7496    0.3509    0.0000 C   0  0  0  0  0  0  0  0  0  0  0  0
   -3.0479    0.0877    0.0000 C   0  0  0  0  0  0  0  0  0  0  0  0
    0.1681   -0.0877    0.0000 C   0  0  0  0  0  0  0  0  0  0  0  0
    0.8844   -1.3157    0.0000 C   0  0  0  0  0  0  0  0  0  0  0  0
    0.8698    0.3216    0.0000 C   0  0  0  0  0  0  0  0  0  0  0  0
    1.5861   -0.9210    0.0000 C   0  0  0  0  0  0  0  0  0  0  0  0
   -3.7351   -0.3362    0.0000 C   0  0  0  0  0  0  0  0  0  0  0  0
    4.4806   -0.0585    0.0000 C   0  0  0  0  0  0  0  0  0  0  0  0
    3.7789    1.1841    0.0000 C   0  0  0  0  0  0  0  0  0  0  0  0
    5.1969    0.3509    0.0000 C   0  0  0  0  0  0  0  0  0  0  0  0
   -4.4952    0.0731    0.0000 C   0  0  0  0  0  0  0  0  0  0  0  0
   -3.7496   -1.1549    0.0000 C   0  0  0  0  0  0  0  0  0  0  0  0
    4.4952    1.5788    0.0000 C   0  0  0  0  0  0  0  0  0  0  0  0
    5.1969    1.1841    0.0000 C   0  0  0  0  0  0  0  0  0  0  0  0
   -4.4367   -1.5788    0.0000 C   0  0  0  0  0  0  0  0  0  0  0  0
   -5.1969   -1.1695    0.0000 C   0  0  0  0  0  0  0  0  0  0  0  0
  1 12  2  0  0  0  0
  2  7  1  0  0  0  0
  2  8  1  0  0  0  0
  2 14  1  0  0  0  0
  3 12  1  0  0  0  0
  3 13  1  0  0  0  0
  4 20  1  0  0  0  0
  5 23  1  0  0  0  0
  5 28  2  0  0  0  0
  6  7  1  0  0  0  0
  6  8  1  0  0  0  0
  6 11  2  0  0  0  0
  9 11  1  0  0  0  0
  9 15  2  0  0  0  0
  9 16  1  0  0  0  0
 10 12  1  0  0  0  0
 10 17  2  0  0  0  0
 10 18  1  0  0  0  0
 13 20  1  0  0  0  0
 13 21  2  0  0  0  0
 14 19  1  0  0  0  0
 15 17  1  0  0  0  0
 16 18  2  0  0  0  0
 19 23  2  0  0  0  0
 19 24  1  0  0  0  0
 20 22  2  0  0  0  0
 21 25  1  0  0  0  0
 22 26  1  0  0  0  0
 24 27  2  0  0  0  0
 25 26  2  0  0  0  0
 27 28  1  0  0  0  0
M  END
> <PUBCHEM_COMPOUND_ID_TYPE>
0

> <PUBCHEM_TOTAL_CHARGE>
0

> <PUBCHEM_SUBSTANCE_ID>
310942321

> <PUBCHEM_SUBSTANCE_VERSION>
1

> <PUBCHEM_EXT_DATASOURCE_NAME>
4488

> <PUBCHEM_EXT_DATASOURCE_REGID>
SCHEMBL16120357

> <PUBCHEM_SUBSTANCE_COMMENT>
InChI=1S/C23H22N4O/c24-21-5-1-2-6-22(21)26-23(28)20-9-7-17(8-10-20)12-19-15-27(16-19)14-18-4-3-11-25-13-18/h1-13H,14-16,24H2,(H,26,28)
InChIKey=KFJCBQZVCRBMLK-UHFFFAOYSA-N

> <PUBCHEM_SUBSTANCE_SYNONYM>
SCHEMBL16120357

> <PUBCHEM_XREF_EXT_ID>
SCHEMBL16120357

> <PUBCHEM_EXT_DATASOURCE_URL>
https://www.surechembl.org/

> <PUBCHEM_EXT_SUBSTANCE_URL>
https://www.surechembl.org/chemical/SCHEMBL16120357

> <PUBCHEM_CID_ASSOCIATIONS>
86268317  1

> <PUBCHEM_COORDINATE_TYPE>
1
3

$$$$
