310942456
  -OEChem-07211613022D

 14 14  0     0  0  0  0  0  0999 V2000
   -2.1521   -1.0141    0.0000 S   0  0  0  0  0  0  0  0  0  0  0  0
   -0.7173   -1.0141    0.0000 N   0  0  0  0  0  0  0  0  0  0  0  0
   -1.4347    0.2170    0.0000 N   0  0  0  0  0  0  0  0  0  0  0  0
    0.7262   -1.0141    0.0000 N   0  0  0  0  0  0  0  0  0  0  0  0
    2.8872    1.0141    0.0000 N   0  0  0  0  0  0  0  0  0  0  0  0
    0.0088   -0.5978    0.0000 C   0  0  0  0  0  0  0  0  0  0  0  0
    0.0177    0.2170    0.0000 C   0  0  0  0  0  0  0  0  0  0  0  0
   -1.4347   -0.5978    0.0000 C   0  0  0  0  0  0  0  0  0  0  0  0
   -0.7173    0.6244    0.0000 C   0  0  0  0  0  0  0  0  0  0  0  0
    0.7262    0.6244    0.0000 C   0  0  0  0  0  0  0  0  0  0  0  0
    1.4436    0.2258    0.0000 C   0  0  0  0  0  0  0  0  0  0  0  0
    1.4702   -0.5978    0.0000 C   0  0  0  0  0  0  0  0  0  0  0  0
   -2.8872   -0.6155    0.0000 C   0  0  0  0  0  0  0  0  0  0  0  0
    2.1698    0.6332    0.0000 C   0  0  0  0  0  0  0  0  0  0  0  0
  1  8  1  0  0  0  0
  1 13  1  0  0  0  0
  2  6  2  0  0  0  0
  2  8  1  0  0  0  0
  3  8  2  0  0  0  0
  3  9  1  0  0  0  0
  4  6  1  0  0  0  0
  4 12  1  0  0  0  0
  5 14  3  0  0  0  0
  6  7  1  0  0  0  0
  7  9  2  0  0  0  0
  7 10  1  0  0  0  0
 10 11  2  0  0  0  0
 11 14  1  0  0  0  0
M  END
> <PUBCHEM_COMPOUND_ID_TYPE>
0

> <PUBCHEM_TOTAL_CHARGE>
0

> <PUBCHEM_SUBSTANCE_ID>
310942456

> <PUBCHEM_SUBSTANCE_VERSION>
1

> <PUBCHEM_EXT_DATASOURCE_NAME>
4488

> <PUBCHEM_EXT_DATASOURCE_REGID>
SCHEMBL16120492

> <PUBCHEM_SUBSTANCE_COMMENT>
InChI=1S/C9H10N4S/c1-11-8-7(4-3-5-10)6-12-9(13-8)14-2/h3-4,6H,1-2H3,(H,11,12,13)/b4-3+
InChIKey=JDBSYVZZCKBDBU-ONEGZZNKSA-N

> <PUBCHEM_SUBSTANCE_SYNONYM>
SCHEMBL16120492

> <PUBCHEM_XREF_EXT_ID>
SCHEMBL16120492

> <PUBCHEM_EXT_DATASOURCE_URL>
https://www.surechembl.org/

> <PUBCHEM_EXT_SUBSTANCE_URL>
https://www.surechembl.org/chemical/SCHEMBL16120492

> <PUBCHEM_CID_ASSOCIATIONS>
18374969  1

> <PUBCHEM_COORDINATE_TYPE>
1
3

$$$$
