310938566
  -OEChem-07211613022D

 15 15  0     1  0  0  0  0  0999 V2000
   -2.8485   -4.3379    0.0000 O   0  0  0  0  0  0  0  0  0  0  0  0
   -1.4196   -5.1629    0.0000 O   0  0  0  0  0  0  0  0  0  0  0  0
    0.0094   -4.3379    0.0000 O   0  0  0  0  0  0  0  0  0  0  0  0
   -3.5630   -3.1004    0.0000 N   0  0  0  0  0  0  0  0  0  0  0  0
   -3.5630   -3.9254    0.0000 C   0  0  0  0  0  0  0  0  0  0  0  0
   -4.2775   -2.6879    0.0000 C   0  0  0  0  0  0  0  0  0  0  0  0
   -4.2775   -4.3379    0.0000 C   0  0  0  0  0  0  0  0  0  0  0  0
   -4.9919   -3.1004    0.0000 C   0  0  0  0  0  0  0  0  0  0  0  0
   -4.2775   -1.8629    0.0000 C   0  0  0  0  0  0  0  0  0  0  0  0
   -4.9919   -3.9254    0.0000 C   0  0  0  0  0  0  0  0  0  0  0  0
   -2.1341   -3.9254    0.0000 C   0  0  0  0  0  0  0  0  0  0  0  0
   -1.4196   -4.3379    0.0000 C   0  0  3  0  0  0  0  0  0  0  0  0
   -0.7051   -3.9254    0.0000 C   0  0  0  0  0  0  0  0  0  0  0  0
   -3.4525   -1.8629    0.0000 C   0  0  0  0  0  0  0  0  0  0  0  0
   -5.1025   -1.8629    0.0000 C   0  0  0  0  0  0  0  0  0  0  0  0
  1  5  1  0  0  0  0
  1 11  1  0  0  0  0
 12  2  1  1  0  0  0
  3 13  1  0  0  0  0
  4  5  1  0  0  0  0
  4  6  2  0  0  0  0
  5  7  2  0  0  0  0
  6  8  1  0  0  0  0
  6  9  1  0  0  0  0
  7 10  1  0  0  0  0
  8 10  2  0  0  0  0
  9 14  1  0  0  0  0
  9 15  1  0  0  0  0
 11 12  1  0  0  0  0
 12 13  1  0  0  0  0
M  END
> <PUBCHEM_COMPOUND_ID_TYPE>
0

> <PUBCHEM_TOTAL_CHARGE>
0

> <PUBCHEM_SUBSTANCE_ID>
310938566

> <PUBCHEM_SUBSTANCE_VERSION>
1

> <PUBCHEM_EXT_DATASOURCE_NAME>
4488

> <PUBCHEM_EXT_DATASOURCE_REGID>
SCHEMBL16116480

> <PUBCHEM_SUBSTANCE_COMMENT>
InChI=1S/C11H17NO3/c1-8(2)10-4-3-5-11(12-10)15-7-9(14)6-13/h3-5,8-9,13-14H,6-7H2,1-2H3/t9-/m1/s1
InChIKey=YIMXFVUXLGFGGM-SECBINFHSA-N

> <PUBCHEM_SUBSTANCE_SYNONYM>
SCHEMBL16116480

> <PUBCHEM_XREF_EXT_ID>
SCHEMBL16116480

> <PUBCHEM_EXT_DATASOURCE_URL>
https://www.surechembl.org/

> <PUBCHEM_EXT_SUBSTANCE_URL>
https://www.surechembl.org/chemical/SCHEMBL16116480

> <PUBCHEM_CID_ASSOCIATIONS>
117606005  1

> <PUBCHEM_COORDINATE_TYPE>
1
3

> <PUBCHEM_BONDANNOTATIONS>
12  2  5
9  14  3
9  15  3

$$$$
