310938818
  -OEChem-07211613022D

 22 23  0     0  0  0  0  0  0999 V2000
   -1.3354   -3.5089    0.0000 O   0  0  0  0  0  0  0  0  0  0  0  0
   -1.3354   -0.7450    0.0000 O   0  0  0  0  0  0  0  0  0  0  0  0
   -2.6453   -1.4125    0.0000 O   0  0  0  0  0  0  0  0  0  0  0  0
   -2.6453   -2.8414    0.0000 O   0  0  0  0  0  0  0  0  0  0  0  0
    0.6014   -5.3000    0.0000 O   0  0  0  0  0  0  0  0  0  0  0  0
    2.6222   -3.2791    0.0000 O   0  0  0  0  0  0  0  0  0  0  0  0
   -0.1383   -2.5395    0.0000 N   0  0  0  0  0  0  0  0  0  0  0  0
   -1.4078   -2.1270    0.0000 C   0  0  0  0  0  0  0  0  0  0  0  0
   -0.9229   -2.7944    0.0000 C   0  0  0  0  0  0  0  0  0  0  0  0
    0.4451   -3.1228    0.0000 C   0  0  0  0  0  0  0  0  0  0  0  0
   -0.9229   -1.4595    0.0000 C   0  0  0  0  0  0  0  0  0  0  0  0
   -0.1383   -1.7145    0.0000 C   0  0  0  0  0  0  0  0  0  0  0  0
   -2.2328   -2.1270    0.0000 C   0  0  0  0  0  0  0  0  0  0  0  0
    1.2420   -2.9093    0.0000 C   0  0  0  0  0  0  0  0  0  0  0  0
    0.2316   -3.9197    0.0000 C   0  0  0  0  0  0  0  0  0  0  0  0
    0.8149   -4.5031    0.0000 C   0  0  0  0  0  0  0  0  0  0  0  0
    1.8254   -3.4927    0.0000 C   0  0  0  0  0  0  0  0  0  0  0  0
    1.6118   -4.2895    0.0000 C   0  0  0  0  0  0  0  0  0  0  0  0
   -3.4703   -1.4125    0.0000 C   0  0  0  0  0  0  0  0  0  0  0  0
   -0.1955   -5.5135    0.0000 C   0  0  0  0  0  0  0  0  0  0  0  0
    3.2056   -3.8625    0.0000 C   0  0  0  0  0  0  0  0  0  0  0  0
   -3.8828   -2.1270    0.0000 C   0  0  0  0  0  0  0  0  0  0  0  0
  1  9  2  0  0  0  0
  2 11  1  0  0  0  0
  3 13  1  0  0  0  0
  3 19  1  0  0  0  0
  4 13  2  0  0  0  0
  5 16  1  0  0  0  0
  5 20  1  0  0  0  0
  6 17  1  0  0  0  0
  6 21  1  0  0  0  0
  7  9  1  0  0  0  0
  7 10  1  0  0  0  0
  7 12  1  0  0  0  0
  8  9  1  0  0  0  0
  8 11  2  0  0  0  0
  8 13  1  0  0  0  0
 10 14  2  0  0  0  0
 10 15  1  0  0  0  0
 11 12  1  0  0  0  0
 14 17  1  0  0  0  0
 15 16  2  0  0  0  0
 16 18  1  0  0  0  0
 17 18  2  0  0  0  0
 19 22  1  0  0  0  0
M  END
> <PUBCHEM_COMPOUND_ID_TYPE>
0

> <PUBCHEM_TOTAL_CHARGE>
0

> <PUBCHEM_SUBSTANCE_ID>
310938818

> <PUBCHEM_SUBSTANCE_VERSION>
1

> <PUBCHEM_EXT_DATASOURCE_NAME>
4488

> <PUBCHEM_EXT_DATASOURCE_REGID>
SCHEMBL16116735

> <PUBCHEM_SUBSTANCE_COMMENT>
InChI=1S/C15H17NO6/c1-4-22-15(19)13-12(17)8-16(14(13)18)9-5-10(20-2)7-11(6-9)21-3/h5-7,17H,4,8H2,1-3H3
InChIKey=HTQMVHAJJZDKKI-UHFFFAOYSA-N

> <PUBCHEM_SUBSTANCE_SYNONYM>
SCHEMBL16116735

> <PUBCHEM_XREF_EXT_ID>
SCHEMBL16116735

> <PUBCHEM_EXT_DATASOURCE_URL>
https://www.surechembl.org/

> <PUBCHEM_EXT_SUBSTANCE_URL>
https://www.surechembl.org/chemical/SCHEMBL16116735

> <PUBCHEM_CID_ASSOCIATIONS>
117606222  1

> <PUBCHEM_COORDINATE_TYPE>
1
3

$$$$
