310944037
  -OEChem-07211613022D

 19 20  0     1  0  0  0  0  0999 V2000
   -2.8128    2.0992    0.0000 O   0  0  0  0  0  0  0  0  0  0  0  0
   -1.4965   -1.5450    0.0000 N   0  0  0  0  0  0  0  0  0  0  0  0
   -0.9007   -2.0992    0.0000 N   0  0  0  0  0  0  0  0  0  0  0  0
    0.9838   -0.3949    0.0000 N   0  0  3  0  0  0  0  0  0  0  0  0
    2.8128    0.7690    0.0000 N   0  0  0  0  0  0  0  0  0  0  0  0
   -1.1501   -0.7829    0.0000 C   0  0  0  0  0  0  0  0  0  0  0  0
   -0.3603   -0.8383    0.0000 C   0  0  0  0  0  0  0  0  0  0  0  0
   -1.5797   -0.0346    0.0000 C   0  0  0  0  0  0  0  0  0  0  0  0
   -0.1802   -1.6420    0.0000 C   0  0  0  0  0  0  0  0  0  0  0  0
    0.1940   -0.2010    0.0000 C   0  0  0  0  0  0  0  0  0  0  0  0
   -2.3833   -0.0346    0.0000 C   0  0  0  0  0  0  0  0  0  0  0  0
   -1.1778    0.6859    0.0000 C   0  0  0  0  0  0  0  0  0  0  0  0
   -2.3833    1.4064    0.0000 C   0  0  0  0  0  0  0  0  0  0  0  0
   -2.7851    0.6859    0.0000 C   0  0  0  0  0  0  0  0  0  0  0  0
   -1.5935    1.4064    0.0000 C   0  0  0  0  0  0  0  0  0  0  0  0
    1.5103    0.2841    0.0000 C   0  0  0  0  0  0  0  0  0  0  0  0
    1.2471   -1.1847    0.0000 C   0  0  0  0  0  0  0  0  0  0  0  0
    2.3141    0.1455    0.0000 C   0  0  0  0  0  0  0  0  0  0  0  0
    2.5219    1.5866    0.0000 C   0  0  0  0  0  0  0  0  0  0  0  0
 13  1  1  6  0  0  0
  2  3  1  0  0  0  0
  2  6  2  0  0  0  0
  3  9  1  0  0  0  0
  4 10  1  0  0  0  0
  4 16  1  0  0  0  0
  4 17  1  0  0  0  0
  5 18  1  0  0  0  0
  5 19  1  0  0  0  0
  6  7  1  0  0  0  0
  8  6  1  1  0  0  0
  7  9  2  0  0  0  0
  7 10  1  0  0  0  0
  8 11  1  0  0  0  0
  8 12  1  0  0  0  0
 11 14  1  0  0  0  0
 12 15  1  0  0  0  0
 13 14  1  0  0  0  0
 13 15  1  0  0  0  0
 16 18  1  0  0  0  0
M  END
> <PUBCHEM_COMPOUND_ID_TYPE>
0

> <PUBCHEM_TOTAL_CHARGE>
0

> <PUBCHEM_SUBSTANCE_ID>
310944037

> <PUBCHEM_SUBSTANCE_VERSION>
1

> <PUBCHEM_EXT_DATASOURCE_NAME>
4488

> <PUBCHEM_EXT_DATASOURCE_REGID>
SCHEMBL16122110

> <PUBCHEM_SUBSTANCE_COMMENT>
InChI=1S/C14H26N4O/c1-15-7-8-18(2)10-12-9-16-17-14(12)11-3-5-13(19)6-4-11/h9,11,13,15,19H,3-8,10H2,1-2H3,(H,16,17)/t11-,13-
InChIKey=HAKRMDGDHSFMTK-AULYBMBSSA-N

> <PUBCHEM_SUBSTANCE_SYNONYM>
SCHEMBL16122110

> <PUBCHEM_XREF_EXT_ID>
SCHEMBL16122110

> <PUBCHEM_EXT_DATASOURCE_URL>
https://www.surechembl.org/

> <PUBCHEM_EXT_SUBSTANCE_URL>
https://www.surechembl.org/chemical/SCHEMBL16122110

> <PUBCHEM_CID_ASSOCIATIONS>
90460685  1

> <PUBCHEM_COORDINATE_TYPE>
1
3

> <PUBCHEM_BONDANNOTATIONS>
13  1  6
8  6  5

$$$$
