310945528
  -OEChem-07211613022D

 31 34  0     0  0  0  0  0  0999 V2000
   -1.4950    2.7691    0.0000 O   0  0  0  0  0  0  0  0  0  0  0  0
   -3.2036   -2.5924    0.0000 O   0  0  0  0  0  0  0  0  0  0  0  0
   -3.4099   -1.1047    0.0000 O   0  0  0  0  0  0  0  0  0  0  0  0
    1.3625    2.0032    0.0000 N   0  0  0  0  0  0  0  0  0  0  0  0
    3.4099    2.9311    0.0000 N   0  0  0  0  0  0  0  0  0  0  0  0
   -0.0663   -0.5008    0.0000 N   0  0  0  0  0  0  0  0  0  0  0  0
   -1.5245   -1.3256    0.0000 N   0  0  0  0  0  0  0  0  0  0  0  0
    2.0400    2.5040    0.0000 C   0  0  0  0  0  0  0  0  0  0  0  0
    1.7749    3.2846    0.0000 C   0  0  0  0  0  0  0  0  0  0  0  0
    0.6849    2.5040    0.0000 C   0  0  0  0  0  0  0  0  0  0  0  0
    0.9500    3.2994    0.0000 C   0  0  0  0  0  0  0  0  0  0  0  0
    2.8501    2.3125    0.0000 C   0  0  0  0  0  0  0  0  0  0  0  0
   -0.1105    2.3420    0.0000 C   0  0  0  0  0  0  0  0  0  0  0  0
    2.3346    3.9033    0.0000 C   0  0  0  0  0  0  0  0  0  0  0  0
    0.3756    3.8885    0.0000 C   0  0  0  0  0  0  0  0  0  0  0  0
    1.3477    1.1341    0.0000 C   0  0  0  0  0  0  0  0  0  0  0  0
   -0.6849    2.9606    0.0000 C   0  0  0  0  0  0  0  0  0  0  0  0
   -0.4198    3.7413    0.0000 C   0  0  0  0  0  0  0  0  0  0  0  0
    3.1594    3.7265    0.0000 C   0  0  0  0  0  0  0  0  0  0  0  0
    0.6849    0.7365    0.0000 C   0  0  0  0  0  0  0  0  0  0  0  0
    3.1741    1.4288    0.0000 C   0  0  0  0  0  0  0  0  0  0  0  0
    0.6555   -0.1031    0.0000 C   0  0  0  0  0  0  0  0  0  0  0  0
   -2.8943   -1.7381    0.0000 C   0  0  0  0  0  0  0  0  0  0  0  0
   -0.0810   -1.3404    0.0000 C   0  0  0  0  0  0  0  0  0  0  0  0
   -0.7880   -0.0884    0.0000 C   0  0  0  0  0  0  0  0  0  0  0  0
   -0.7733   -1.7381    0.0000 C   0  0  0  0  0  0  0  0  0  0  0  0
   -1.4950   -0.4861    0.0000 C   0  0  0  0  0  0  0  0  0  0  0  0
   -2.6586   -3.2552    0.0000 C   0  0  0  0  0  0  0  0  0  0  0  0
   -3.2331   -3.7854    0.0000 C   0  0  0  0  0  0  0  0  0  0  0  0
   -2.0400   -2.7396    0.0000 C   0  0  0  0  0  0  0  0  0  0  0  0
   -2.0989   -3.9033    0.0000 C   0  0  0  0  0  0  0  0  0  0  0  0
  1 17  1  0  0  0  0
  2 23  1  0  0  0  0
  2 28  1  0  0  0  0
  3 23  2  0  0  0  0
  4  8  1  0  0  0  0
  4 10  1  0  0  0  0
  4 16  1  0  0  0  0
  5 12  2  0  0  0  0
  5 19  1  0  0  0  0
  6 22  1  0  0  0  0
  6 24  1  0  0  0  0
  6 25  1  0  0  0  0
  7 23  1  0  0  0  0
  7 26  1  0  0  0  0
  7 27  1  0  0  0  0
  8  9  2  0  0  0  0
  8 12  1  0  0  0  0
  9 11  1  0  0  0  0
  9 14  1  0  0  0  0
 10 11  2  0  0  0  0
 10 13  1  0  0  0  0
 11 15  1  0  0  0  0
 12 21  1  0  0  0  0
 13 17  2  0  0  0  0
 14 19  2  0  0  0  0
 15 18  2  0  0  0  0
 16 20  1  0  0  0  0
 17 18  1  0  0  0  0
 20 22  1  0  0  0  0
 24 26  1  0  0  0  0
 25 27  1  0  0  0  0
 28 29  1  0  0  0  0
 28 30  1  0  0  0  0
 28 31  1  0  0  0  0
M  END
> <PUBCHEM_COMPOUND_ID_TYPE>
0

> <PUBCHEM_TOTAL_CHARGE>
0

> <PUBCHEM_SUBSTANCE_ID>
310945528

> <PUBCHEM_SUBSTANCE_VERSION>
1

> <PUBCHEM_EXT_DATASOURCE_NAME>
4488

> <PUBCHEM_EXT_DATASOURCE_REGID>
SCHEMBL16123626

> <PUBCHEM_SUBSTANCE_COMMENT>
InChI=1S/C24H32N4O3/c1-17-22-20(8-9-25-17)19-7-6-18(29)16-21(19)28(22)11-5-10-26-12-14-27(15-13-26)23(30)31-24(2,3)4/h6-9,16,29H,5,10-15H2,1-4H3
InChIKey=QPQIJJAGJPLWSJ-UHFFFAOYSA-N

> <PUBCHEM_SUBSTANCE_SYNONYM>
SCHEMBL16123626

> <PUBCHEM_XREF_EXT_ID>
SCHEMBL16123626

> <PUBCHEM_EXT_DATASOURCE_URL>
https://www.surechembl.org/

> <PUBCHEM_EXT_SUBSTANCE_URL>
https://www.surechembl.org/chemical/SCHEMBL16123626

> <PUBCHEM_CID_ASSOCIATIONS>
117611569  1

> <PUBCHEM_COORDINATE_TYPE>
1
3

$$$$
