310942740
  -OEChem-07211613022D

140153  0     1  0  0  0  0  0999 V2000
   13.2125    2.2969    0.0000 O   0  0  0  0  0  0  0  0  0  0  0  0
  -13.1414   -2.9938    0.0000 O   0  0  0  0  0  0  0  0  0  0  0  0
   15.2890    3.0080    0.0000 O   0  0  0  0  0  0  0  0  0  0  0  0
  -14.7058   -4.5725    0.0000 O   0  0  0  0  0  0  0  0  0  0  0  0
   14.0374    5.1698    0.0000 O   0  0  0  0  0  0  0  0  0  0  0  0
  -12.6863   -6.0374    0.0000 O   0  0  0  0  0  0  0  0  0  0  0  0
   15.2890    1.5716    0.0000 O   0  0  0  0  0  0  0  0  0  0  0  0
  -15.2890   -3.2498    0.0000 O   0  0  0  0  0  0  0  0  0  0  0  0
   12.7005    1.0738    0.0000 O   0  0  0  0  0  0  0  0  0  0  0  0
  -13.1414   -1.5574    0.0000 O   0  0  0  0  0  0  0  0  0  0  0  0
    9.8988    2.2685    0.0000 O   0  0  0  0  0  0  0  0  0  0  0  0
  -10.1263   -1.9698    0.0000 O   0  0  0  0  0  0  0  0  0  0  0  0
    8.1921   -0.3342    0.0000 O   0  0  0  0  0  0  0  0  0  0  0  0
   -9.1449    0.9885    0.0000 O   0  0  0  0  0  0  0  0  0  0  0  0
   12.8143    4.4587    0.0000 N   0  0  0  0  0  0  0  0  0  0  0  0
  -11.8187   -4.8711    0.0000 N   0  0  0  0  0  0  0  0  0  0  0  0
   10.9227    3.4205    0.0000 N   0  0  0  0  0  0  0  0  0  0  0  0
  -10.5103   -3.1502    0.0000 N   0  0  0  0  0  0  0  0  0  0  0  0
   10.9654    1.4720    0.0000 N   0  0  0  0  0  0  0  0  0  0  0  0
  -11.3209   -1.4720    0.0000 N   0  0  0  0  0  0  0  0  0  0  0  0
    7.1965    0.6755    0.0000 N   0  0  0  0  0  0  0  0  0  0  0  0
   -7.8934    0.2631    0.0000 N   0  0  0  0  0  0  0  0  0  0  0  0
    5.0489    0.2631    0.0000 N   0  0  3  0  0  0  0  0  0  0  0  0
   -5.7316    0.6755    0.0000 N   0  0  3  0  0  0  0  0  0  0  0  0
    2.8871    0.6755    0.0000 N   0  0  3  0  0  0  0  0  0  0  0  0
   -3.5698    0.2631    0.0000 N   0  0  3  0  0  0  0  0  0  0  0  0
    5.6036   -1.8844    0.0000 N   0  0  0  0  0  0  0  0  0  0  0  0
   -5.1769    2.8374    0.0000 N   0  0  0  0  0  0  0  0  0  0  0  0
    0.7396    0.2631    0.0000 N   0  0  3  0  0  0  0  0  0  0  0  0
    3.6125    2.7520    0.0000 N   0  0  0  0  0  0  0  0  0  0  0  0
   -1.4222    0.6755    0.0000 N   0  0  0  0  0  0  0  0  0  0  0  0
   -3.0152   -1.8844    0.0000 N   0  0  0  0  0  0  0  0  0  0  0  0
   -5.7316    4.9992    0.0000 N   0  0  0  0  0  0  0  0  0  0  0  0
   -3.5698   -4.0462    0.0000 N   0  0  3  0  0  0  0  0  0  0  0  0
    1.5929   -1.8133    0.0000 N   0  0  0  0  0  0  0  0  0  0  0  0
   -3.0152   -6.1938    0.0000 N   0  0  0  0  0  0  0  0  0  0  0  0
   -5.1769    7.1467    0.0000 N   0  0  0  0  0  0  0  0  0  0  0  0
   -3.5698   -8.3556    0.0000 N   0  0  0  0  0  0  0  0  0  0  0  0
   13.6392    3.0222    0.0000 C   0  0  0  0  0  0  0  0  0  0  0  0
  -13.1556   -3.8756    0.0000 C   0  0  0  0  0  0  0  0  0  0  0  0
   14.0089    2.3111    0.0000 C   0  0  3  0  0  0  0  0  0  0  0  0
  -13.8526   -3.4062    0.0000 C   0  0  3  0  0  0  0  0  0  0  0  0
   12.4018    3.7334    0.0000 C   0  0  0  0  0  0  0  0  0  0  0  0
  -11.7191   -4.0320    0.0000 C   0  0  0  0  0  0  0  0  0  0  0  0
   14.0516    3.7476    0.0000 C   0  0  0  0  0  0  0  0  0  0  0  0
  -13.2694   -4.7147    0.0000 C   0  0  0  0  0  0  0  0  0  0  0  0
   11.5770    3.9041    0.0000 C   0  0  0  0  0  0  0  0  0  0  0  0
  -10.9227   -3.8756    0.0000 C   0  0  0  0  0  0  0  0  0  0  0  0
   13.6392    4.4445    0.0000 C   0  0  0  0  0  0  0  0  0  0  0  0
  -12.5867   -5.1840    0.0000 C   0  0  0  0  0  0  0  0  0  0  0  0
   12.8001    3.0364    0.0000 C   0  0  0  0  0  0  0  0  0  0  0  0
  -12.4303   -3.5627    0.0000 C   0  0  0  0  0  0  0  0  0  0  0  0
   11.5059    4.7431    0.0000 C   0  0  0  0  0  0  0  0  0  0  0  0
  -10.5245   -4.5725    0.0000 C   0  0  0  0  0  0  0  0  0  0  0  0
   14.8765    2.3111    0.0000 C   0  0  0  0  0  0  0  0  0  0  0  0
  -14.5778   -3.7476    0.0000 C   0  0  0  0  0  0  0  0  0  0  0  0
   12.2596    5.0703    0.0000 C   0  0  0  0  0  0  0  0  0  0  0  0
  -11.0650   -5.1982    0.0000 C   0  0  0  0  0  0  0  0  0  0  0  0
   14.8908    3.7191    0.0000 C   0  0  0  0  0  0  0  0  0  0  0  0
  -13.9947   -5.0561    0.0000 C   0  0  0  0  0  0  0  0  0  0  0  0
   13.6534    1.5431    0.0000 C   0  0  0  0  0  0  0  0  0  0  0  0
  -13.7530   -2.5814    0.0000 C   0  0  0  0  0  0  0  0  0  0  0  0
   10.7378    5.0703    0.0000 C   0  0  0  0  0  0  0  0  0  0  0  0
   -9.6854   -4.5867    0.0000 C   0  0  0  0  0  0  0  0  0  0  0  0
   10.1547    3.7618    0.0000 C   0  0  0  0  0  0  0  0  0  0  0  0
   -9.6854   -3.1502    0.0000 C   0  0  0  0  0  0  0  0  0  0  0  0
   10.0694    4.5867    0.0000 C   0  0  0  0  0  0  0  0  0  0  0  0
   -9.2730   -3.8614    0.0000 C   0  0  0  0  0  0  0  0  0  0  0  0
   12.5014    1.8844    0.0000 C   0  0  0  0  0  0  0  0  0  0  0  0
  -12.7005   -2.2685    0.0000 C   0  0  0  0  0  0  0  0  0  0  0  0
    9.5005    3.2783    0.0000 C   0  0  0  0  0  0  0  0  0  0  0  0
   -9.2587   -2.4391    0.0000 C   0  0  0  0  0  0  0  0  0  0  0  0
    9.3299    4.9138    0.0000 C   0  0  0  0  0  0  0  0  0  0  0  0
   -8.4480   -3.8614    0.0000 C   0  0  0  0  0  0  0  0  0  0  0  0
   14.0658    0.8605    0.0000 C   0  0  0  0  0  0  0  0  0  0  0  0
  -14.4214   -2.0978    0.0000 C   0  0  0  0  0  0  0  0  0  0  0  0
   11.6765    1.8844    0.0000 C   0  0  0  0  0  0  0  0  0  0  0  0
  -11.9183   -2.0551    0.0000 C   0  0  0  0  0  0  0  0  0  0  0  0
    8.7325    3.6196    0.0000 C   0  0  0  0  0  0  0  0  0  0  0  0
   -8.4480   -2.4391    0.0000 C   0  0  0  0  0  0  0  0  0  0  0  0
    8.6472    4.4303    0.0000 C   0  0  0  0  0  0  0  0  0  0  0  0
   -8.0356   -3.1502    0.0000 C   0  0  0  0  0  0  0  0  0  0  0  0
   10.1120    1.4862    0.0000 C   0  0  0  0  0  0  0  0  0  0  0  0
  -10.5387   -1.2586    0.0000 C   0  0  0  0  0  0  0  0  0  0  0  0
    9.4294    1.0596    0.0000 C   0  0  0  0  0  0  0  0  0  0  0  0
   -9.9272   -0.6613    0.0000 C   0  0  0  0  0  0  0  0  0  0  0  0
    8.5903    1.0596    0.0000 C   0  0  0  0  0  0  0  0  0  0  0  0
   -9.1307   -0.4480    0.0000 C   0  0  0  0  0  0  0  0  0  0  0  0
    7.9929    0.4765    0.0000 C   0  0  0  0  0  0  0  0  0  0  0  0
   -8.7183    0.2631    0.0000 C   0  0  0  0  0  0  0  0  0  0  0  0
    6.4854    0.2631    0.0000 C   0  0  0  0  0  0  0  0  0  0  0  0
   -7.1822    0.6755    0.0000 C   0  0  0  0  0  0  0  0  0  0  0  0
    5.7458    0.6755    0.0000 C   0  0  0  0  0  0  0  0  0  0  0  0
   -6.4570    0.2631    0.0000 C   0  0  0  0  0  0  0  0  0  0  0  0
    4.3093    0.6755    0.0000 C   0  0  0  0  0  0  0  0  0  0  0  0
   -5.0062    0.2773    0.0000 C   0  0  0  0  0  0  0  0  0  0  0  0
    5.4471   -0.4338    0.0000 C   0  0  0  0  0  0  0  0  0  0  0  0
   -5.3192    1.4151    0.0000 C   0  0  0  0  0  0  0  0  0  0  0  0
    3.6125    0.2631    0.0000 C   0  0  0  0  0  0  0  0  0  0  0  0
   -4.3093    0.6755    0.0000 C   0  0  0  0  0  0  0  0  0  0  0  0
    5.0347   -1.1733    0.0000 C   0  0  0  0  0  0  0  0  0  0  0  0
   -5.7316    2.1120    0.0000 C   0  0  0  0  0  0  0  0  0  0  0  0
    5.0347   -2.6098    0.0000 C   0  0  0  0  0  0  0  0  0  0  0  0
    2.1760    0.2631    0.0000 C   0  0  0  0  0  0  0  0  0  0  0  0
    2.9014    1.5147    0.0000 C   0  0  0  0  0  0  0  0  0  0  0  0
   -2.8729    0.6755    0.0000 C   0  0  0  0  0  0  0  0  0  0  0  0
   -3.1715   -0.4480    0.0000 C   0  0  0  0  0  0  0  0  0  0  0  0
   -5.7316    3.5484    0.0000 C   0  0  0  0  0  0  0  0  0  0  0  0
    4.2098   -2.6240    0.0000 C   0  0  0  0  0  0  0  0  0  0  0  0
    5.2481   -3.4062    0.0000 C   0  0  0  0  0  0  0  0  0  0  0  0
    1.4364    0.6755    0.0000 C   0  0  0  0  0  0  0  0  0  0  0  0
    3.5983    1.9129    0.0000 C   0  0  0  0  0  0  0  0  0  0  0  0
   -2.1333    0.2773    0.0000 C   0  0  0  0  0  0  0  0  0  0  0  0
   -3.5841   -1.1733    0.0000 C   0  0  0  0  0  0  0  0  0  0  0  0
    4.0107   -3.4062    0.0000 C   0  0  0  0  0  0  0  0  0  0  0  0
   -5.3192    4.2880    0.0000 C   0  0  0  0  0  0  0  0  0  0  0  0
    0.0000    0.6755    0.0000 C   0  0  0  0  0  0  0  0  0  0  0  0
   -0.6969    0.2773    0.0000 C   0  0  0  0  0  0  0  0  0  0  0  0
    4.0249    3.4915    0.0000 C   0  0  0  0  0  0  0  0  0  0  0  0
    0.7396   -0.5618    0.0000 C   0  0  0  0  0  0  0  0  0  0  0  0
   -4.4231   -4.0462    0.0000 C   0  0  0  0  0  0  0  0  0  0  0  0
   -3.5841   -2.6098    0.0000 C   0  0  0  0  0  0  0  0  0  0  0  0
   -3.1715   -3.3209    0.0000 C   0  0  0  0  0  0  0  0  0  0  0  0
   -4.9209   -3.4205    0.0000 C   0  0  0  0  0  0  0  0  0  0  0  0
   -4.8356   -4.7431    0.0000 C   0  0  0  0  0  0  0  0  0  0  0  0
    3.8115    4.2596    0.0000 C   0  0  0  0  0  0  0  0  0  0  0  0
    4.8498    3.4773    0.0000 C   0  0  0  0  0  0  0  0  0  0  0  0
   -5.5324   -4.3449    0.0000 C   0  0  0  0  0  0  0  0  0  0  0  0
   -3.1715   -4.7573    0.0000 C   0  0  0  0  0  0  0  0  0  0  0  0
   -5.3192    5.7244    0.0000 C   0  0  0  0  0  0  0  0  0  0  0  0
    5.0489    4.2596    0.0000 C   0  0  0  0  0  0  0  0  0  0  0  0
    1.4507   -0.9742    0.0000 C   0  0  0  0  0  0  0  0  0  0  0  0
   -3.5841   -5.4827    0.0000 C   0  0  0  0  0  0  0  0  0  0  0  0
   -5.7316    6.4213    0.0000 C   0  0  0  0  0  0  0  0  0  0  0  0
   -3.5841   -6.9191    0.0000 C   0  0  0  0  0  0  0  0  0  0  0  0
   -6.0444    7.5734    0.0000 C   0  0  0  0  0  0  0  0  0  0  0  0
   -6.8694    7.5734    0.0000 C   0  0  0  0  0  0  0  0  0  0  0  0
   -5.8312    8.3556    0.0000 C   0  0  0  0  0  0  0  0  0  0  0  0
   -3.1715   -7.6303    0.0000 C   0  0  0  0  0  0  0  0  0  0  0  0
   -7.0827    8.3556    0.0000 C   0  0  0  0  0  0  0  0  0  0  0  0
 41  1  1  1  0  0  0
  1 69  1  0  0  0  0
 42  2  1  6  0  0  0
  2 70  1  0  0  0  0
  3 55  1  0  0  0  0
  3 59  1  0  0  0  0
  4 56  1  0  0  0  0
  4 60  1  0  0  0  0
  5 49  2  0  0  0  0
  6 50  2  0  0  0  0
  7 55  2  0  0  0  0
  8 56  2  0  0  0  0
  9 69  2  0  0  0  0
 10 70  2  0  0  0  0
 11 83  2  0  0  0  0
 12 84  2  0  0  0  0
 13 89  2  0  0  0  0
 14 90  2  0  0  0  0
 15 43  1  0  0  0  0
 15 49  1  0  0  0  0
 15 57  1  0  0  0  0
 16 44  1  0  0  0  0
 16 50  1  0  0  0  0
 16 58  1  0  0  0  0
 17 47  2  0  0  0  0
 17 65  1  0  0  0  0
 18 48  2  0  0  0  0
 18 66  1  0  0  0  0
 19 77  1  0  0  0  0
 19 83  1  0  0  0  0
 20 78  1  0  0  0  0
 20 84  1  0  0  0  0
 21 89  1  0  0  0  0
 21 91  1  0  0  0  0
 22 90  1  0  0  0  0
 22 92  1  0  0  0  0
 23 93  1  0  0  0  0
 23 95  1  0  0  0  0
 23 97  1  0  0  0  0
 24 94  1  0  0  0  0
 24 96  1  0  0  0  0
 24 98  1  0  0  0  0
 25 99  1  0  0  0  0
 25104  1  0  0  0  0
 25105  1  0  0  0  0
 26100  1  0  0  0  0
 26106  1  0  0  0  0
 26107  1  0  0  0  0
 27101  1  0  0  0  0
 27103  1  0  0  0  0
 28102  1  0  0  0  0
 28108  1  0  0  0  0
 29111  1  0  0  0  0
 29117  1  0  0  0  0
 29120  1  0  0  0  0
 30112  1  0  0  0  0
 30119  1  0  0  0  0
 31113  1  0  0  0  0
 31118  1  0  0  0  0
 32114  1  0  0  0  0
 32122  1  0  0  0  0
 33116  1  0  0  0  0
 33130  1  0  0  0  0
 34121  1  0  0  0  0
 34123  1  0  0  0  0
 34129  1  0  0  0  0
 35132  1  0  0  0  0
 36133  1  0  0  0  0
 36135  1  0  0  0  0
 37134  1  0  0  0  0
 37136  1  0  0  0  0
 38139  1  0  0  0  0
 39 41  1  0  0  0  0
 39 45  2  0  0  0  0
 39 51  1  0  0  0  0
 40 42  1  0  0  0  0
 40 46  2  0  0  0  0
 40 52  1  0  0  0  0
 41 55  1  0  0  0  0
 41 61  1  6  0  0  0
 42 56  1  0  0  0  0
 42 62  1  1  0  0  0
 43 47  1  0  0  0  0
 43 51  2  0  0  0  0
 44 48  1  0  0  0  0
 44 52  2  0  0  0  0
 45 49  1  0  0  0  0
 45 59  1  0  0  0  0
 46 50  1  0  0  0  0
 46 60  1  0  0  0  0
 47 53  1  0  0  0  0
 48 54  1  0  0  0  0
 53 57  1  0  0  0  0
 53 63  2  0  0  0  0
 54 58  1  0  0  0  0
 54 64  2  0  0  0  0
 61 75  1  0  0  0  0
 62 76  1  0  0  0  0
 63 67  1  0  0  0  0
 64 68  1  0  0  0  0
 65 67  1  0  0  0  0
 65 71  2  0  0  0  0
 66 68  1  0  0  0  0
 66 72  2  0  0  0  0
 67 73  2  0  0  0  0
 68 74  2  0  0  0  0
 69 77  1  0  0  0  0
 70 78  1  0  0  0  0
 71 79  1  0  0  0  0
 72 80  1  0  0  0  0
 73 81  1  0  0  0  0
 74 82  1  0  0  0  0
 79 81  2  0  0  0  0
 80 82  2  0  0  0  0
 83 85  1  0  0  0  0
 84 86  1  0  0  0  0
 85 87  1  0  0  0  0
 86 88  1  0  0  0  0
 87 89  1  0  0  0  0
 88 90  1  0  0  0  0
 91 93  1  0  0  0  0
 92 94  1  0  0  0  0
 95 99  1  0  0  0  0
 96100  1  0  0  0  0
 97101  1  0  0  0  0
 98102  1  0  0  0  0
103109  1  0  0  0  0
103110  1  0  0  0  0
104111  1  0  0  0  0
105112  1  0  0  0  0
106113  1  0  0  0  0
107114  1  0  0  0  0
108116  1  0  0  0  0
109115  1  0  0  0  0
110115  1  0  0  0  0
117118  1  0  0  0  0
119126  1  0  0  0  0
119127  1  0  0  0  0
120132  1  0  0  0  0
121124  1  0  0  0  0
121125  1  0  0  0  0
122123  1  0  0  0  0
124128  1  0  0  0  0
125128  1  0  0  0  0
126131  1  0  0  0  0
127131  1  0  0  0  0
129133  1  0  0  0  0
130134  1  0  0  0  0
135139  1  0  0  0  0
136137  1  0  0  0  0
136138  1  0  0  0  0
137140  1  0  0  0  0
138140  1  0  0  0  0
M  END
> <PUBCHEM_COMPOUND_ID_TYPE>
0

> <PUBCHEM_TOTAL_CHARGE>
0

> <PUBCHEM_SUBSTANCE_ID>
310942740

> <PUBCHEM_SUBSTANCE_VERSION>
1

> <PUBCHEM_EXT_DATASOURCE_NAME>
4488

> <PUBCHEM_EXT_DATASOURCE_REGID>
SCHEMBL16120792

> <PUBCHEM_SUBSTANCE_COMMENT>
InChI=1S/C102H154N24O14/c1-3-101(83-65-87-95-75(63-73-13-5-7-23-85(73)117-95)69-125(87)97(133)81(83)71-137-99(101)135)139-93(131)67-115-91(129)27-25-89(127)113-44-53-121(48-36-107-33-32-106-34-35-110-77-15-9-16-77)59-58-120(50-39-109-41-56-124(80-21-12-22-80)55-40-105-31-29-103)49-38-108-37-47-119(46-30-104)57-61-123(52-43-112-79-19-11-20-79)62-60-122(51-42-111-78-17-10-18-78)54-45-114-90(128)26-28-92(130)116-68-94(132)140-102(4-2)84-66-88-96-76(64-74-14-6-8-24-86(74)118-96)70-126(88)98(134)82(84)72-138-100(102)136/h5-8,13-14,23-24,63-66,77-80,105-112H,3-4,9-12,15-22,25-62,67-72,103-104H2,1-2H3,(H,113,127)(H,114,128)(H,115,129)(H,116,130)/t101-,102+/m1/s1
InChIKey=GDJIHCPRFKAELT-NMIQARDGSA-N

> <PUBCHEM_SUBSTANCE_SYNONYM>
SCHEMBL16120792

> <PUBCHEM_XREF_EXT_ID>
SCHEMBL16120792

> <PUBCHEM_EXT_DATASOURCE_URL>
https://www.surechembl.org/

> <PUBCHEM_EXT_SUBSTANCE_URL>
https://www.surechembl.org/chemical/SCHEMBL16120792

> <PUBCHEM_CID_ASSOCIATIONS>
117609260  1

> <PUBCHEM_COORDINATE_TYPE>
1
3

> <PUBCHEM_BONDANNOTATIONS>
41  1  5
42  2  6
41  61  6
42  62  5

$$$$
