310932970
  -OEChem-07211613022D

 25 28  0     0  0  0  0  0  0999 V2000
    0.0000   -4.4750    0.0000 O   0  0  0  0  0  0  0  0  0  0  0  0
    5.5312   -3.3354    0.0000 O   0  0  0  0  0  0  0  0  0  0  0  0
    4.2248   -2.6683    0.0000 N   0  0  0  0  0  0  0  0  0  0  0  0
    4.2248   -4.0024    0.0000 N   0  0  0  0  0  0  0  0  0  0  0  0
    0.3891   -5.1976    0.0000 N   0  0  0  0  0  0  0  0  0  0  0  0
    1.9734   -0.4447    0.0000 N   0  0  0  0  0  0  0  0  0  0  0  0
    2.6961   -2.5015    0.0000 C   0  0  0  0  0  0  0  0  0  0  0  0
    3.4188   -2.9184    0.0000 C   0  0  0  0  0  0  0  0  0  0  0  0
    3.4188   -3.7801    0.0000 C   0  0  0  0  0  0  0  0  0  0  0  0
    2.0012   -3.7801    0.0000 C   0  0  0  0  0  0  0  0  0  0  0  0
    2.6961   -1.6955    0.0000 C   0  0  0  0  0  0  0  0  0  0  0  0
    1.3063   -4.1970    0.0000 C   0  0  0  0  0  0  0  0  0  0  0  0
    2.0012   -2.9184    0.0000 C   0  0  0  0  0  0  0  0  0  0  0  0
    2.6961   -4.1692    0.0000 C   0  0  0  0  0  0  0  0  0  0  0  0
    4.6973   -3.3354    0.0000 C   0  0  0  0  0  0  0  0  0  0  0  0
    0.5281   -3.8635    0.0000 C   0  0  0  0  0  0  0  0  0  0  0  0
    1.1952   -5.0031    0.0000 C   0  0  0  0  0  0  0  0  0  0  0  0
    1.9734   -1.2508    0.0000 C   0  0  0  0  0  0  0  0  0  0  0  0
    3.3910   -1.2508    0.0000 C   0  0  0  0  0  0  0  0  0  0  0  0
    3.3910   -0.4169    0.0000 C   0  0  0  0  0  0  0  0  0  0  0  0
    2.6683    0.0000    0.0000 C   0  0  0  0  0  0  0  0  0  0  0  0
    0.3613   -3.0574    0.0000 C   0  0  0  0  0  0  0  0  0  0  0  0
    1.8344   -5.5590    0.0000 C   0  0  0  0  0  0  0  0  0  0  0  0
    1.2508   -1.6677    0.0000 C   0  0  0  0  0  0  0  0  0  0  0  0
    4.1136   -1.6399    0.0000 C   0  0  0  0  0  0  0  0  0  0  0  0
  1  5  1  0  0  0  0
  1 16  1  0  0  0  0
  2 15  2  0  0  0  0
  3  8  1  0  0  0  0
  3 15  1  0  0  0  0
  4  9  1  0  0  0  0
  4 15  1  0  0  0  0
  5 17  2  0  0  0  0
  6 18  1  0  0  0  0
  6 21  2  0  0  0  0
  7  8  1  0  0  0  0
  7 11  1  0  0  0  0
  7 13  2  0  0  0  0
  8  9  2  0  0  0  0
  9 14  1  0  0  0  0
 10 12  1  0  0  0  0
 10 13  1  0  0  0  0
 10 14  2  0  0  0  0
 11 18  2  0  0  0  0
 11 19  1  0  0  0  0
 12 16  2  0  0  0  0
 12 17  1  0  0  0  0
 16 22  1  0  0  0  0
 17 23  1  0  0  0  0
 18 24  1  0  0  0  0
 19 20  2  0  0  0  0
 19 25  1  0  0  0  0
 20 21  1  0  0  0  0
M  END
> <PUBCHEM_COMPOUND_ID_TYPE>
0

> <PUBCHEM_TOTAL_CHARGE>
0

> <PUBCHEM_SUBSTANCE_ID>
310932970

> <PUBCHEM_SUBSTANCE_VERSION>
1

> <PUBCHEM_EXT_DATASOURCE_NAME>
4488

> <PUBCHEM_EXT_DATASOURCE_REGID>
SCHEMBL16110367

> <PUBCHEM_SUBSTANCE_COMMENT>
InChI=1S/C19H18N4O2/c1-9-5-6-20-10(2)16(9)14-7-13(17-11(3)23-25-12(17)4)8-15-18(14)22-19(24)21-15/h5-8H,1-4H3,(H2,21,22,24)
InChIKey=CNMAKQMAOLBNSU-UHFFFAOYSA-N

> <PUBCHEM_SUBSTANCE_SYNONYM>
SCHEMBL16110367

> <PUBCHEM_XREF_EXT_ID>
SCHEMBL16110367

> <PUBCHEM_EXT_DATASOURCE_URL>
https://www.surechembl.org/

> <PUBCHEM_EXT_SUBSTANCE_URL>
https://www.surechembl.org/chemical/SCHEMBL16110367

> <PUBCHEM_CID_ASSOCIATIONS>
117601447  1

> <PUBCHEM_COORDINATE_TYPE>
1
3

$$$$
