310941917
  -OEChem-07211613022D

 23 24  0     1  0  0  0  0  0999 V2000
    1.6945   -0.5649    0.0000 O   0  0  0  0  0  0  0  0  0  0  0  0
   -4.5734    1.8039    0.0000 O   0  5  0  0  0  0  0  0  0  0  0  0
   -4.5734    0.3826    0.0000 O   0  0  0  0  0  0  0  0  0  0  0  0
   -4.1726    1.0933    0.0000 N   0  3  0  0  0  0  0  0  0  0  0  0
    3.1340    1.0933    0.0000 N   0  0  0  0  0  0  0  0  0  0  0  0
    2.4051   -0.1457    0.0000 C   0  0  3  0  0  0  0  0  0  0  0  0
    3.1340   -0.5649    0.0000 C   0  0  0  0  0  0  0  0  0  0  0  0
   -3.3162    1.0933    0.0000 C   0  0  0  0  0  0  0  0  0  0  0  0
   -1.6581    1.1114    0.0000 C   0  0  0  0  0  0  0  0  0  0  0  0
    2.4051    0.6741    0.0000 C   0  0  3  0  0  0  0  0  0  0  0  0
   -2.8971    1.8039    0.0000 C   0  0  0  0  0  0  0  0  0  0  0  0
   -2.8971    0.3826    0.0000 C   0  0  0  0  0  0  0  0  0  0  0  0
   -2.0772    1.8039    0.0000 C   0  0  0  0  0  0  0  0  0  0  0  0
   -2.0772    0.3826    0.0000 C   0  0  0  0  0  0  0  0  0  0  0  0
    3.1340   -1.3848    0.0000 C   0  0  0  0  0  0  0  0  0  0  0  0
    3.8446   -0.1822    0.0000 C   0  0  0  0  0  0  0  0  0  0  0  0
   -0.8200    1.0751    0.0000 C   0  0  0  0  0  0  0  0  0  0  0  0
    1.5488    0.6924    0.0000 C   0  0  0  0  0  0  0  0  0  0  0  0
    0.0365    1.1114    0.0000 C   0  0  0  0  0  0  0  0  0  0  0  0
    3.8446   -1.8039    0.0000 C   0  0  0  0  0  0  0  0  0  0  0  0
    4.5552   -0.5649    0.0000 C   0  0  0  0  0  0  0  0  0  0  0  0
    0.8928    1.0751    0.0000 C   0  0  0  0  0  0  0  0  0  0  0  0
    4.5734   -1.4030    0.0000 C   0  0  0  0  0  0  0  0  0  0  0  0
  6  1  1  1  0  0  0
  2  4  1  0  0  0  0
  3  4  2  0  0  0  0
  4  8  1  0  0  0  0
 10  5  1  1  0  0  0
  6  7  1  0  0  0  0
  6 10  1  0  0  0  0
  7 15  2  0  0  0  0
  7 16  1  0  0  0  0
  8 11  2  0  0  0  0
  8 12  1  0  0  0  0
  9 13  2  0  0  0  0
  9 14  1  0  0  0  0
  9 17  1  0  0  0  0
 10 18  1  0  0  0  0
 11 13  1  0  0  0  0
 12 14  2  0  0  0  0
 15 20  1  0  0  0  0
 16 21  2  0  0  0  0
 17 19  3  0  0  0  0
 18 22  1  0  0  0  0
 19 22  1  0  0  0  0
 20 23  2  0  0  0  0
 21 23  1  0  0  0  0
M  CHG  2   2  -1   4   1
M  END
> <PUBCHEM_COMPOUND_ID_TYPE>
0

> <PUBCHEM_TOTAL_CHARGE>
0

> <PUBCHEM_SUBSTANCE_ID>
310941917

> <PUBCHEM_SUBSTANCE_VERSION>
1

> <PUBCHEM_EXT_DATASOURCE_NAME>
4488

> <PUBCHEM_EXT_DATASOURCE_REGID>
SCHEMBL16119949

> <PUBCHEM_SUBSTANCE_COMMENT>
InChI=1S/C18H18N2O3/c19-17(18(21)15-7-2-1-3-8-15)9-5-4-6-14-10-12-16(13-11-14)20(22)23/h1-3,7-8,10-13,17-18,21H,5,9,19H2/t17-,18-/m1/s1
InChIKey=NUYUVPBMWWSUEN-QZTJIDSGSA-N

> <PUBCHEM_SUBSTANCE_SYNONYM>
SCHEMBL16119949

> <PUBCHEM_XREF_EXT_ID>
SCHEMBL16119949

> <PUBCHEM_EXT_DATASOURCE_URL>
https://www.surechembl.org/

> <PUBCHEM_EXT_SUBSTANCE_URL>
https://www.surechembl.org/chemical/SCHEMBL16119949

> <PUBCHEM_CID_ASSOCIATIONS>
86296127  1

> <PUBCHEM_COORDINATE_TYPE>
1
3

> <PUBCHEM_BONDANNOTATIONS>
6  1  5
10  5  5

$$$$
