310941499
  -OEChem-07211613022D

 26 29  0     0  0  0  0  0  0999 V2000
    0.4668    1.8493    0.0000 S   0  0  0  0  0  0  0  0  0  0  0  0
   -3.3036   -1.6159    0.0000 F   0  0  0  0  0  0  0  0  0  0  0  0
   -1.8852   -0.8079    0.0000 O   0  0  0  0  0  0  0  0  0  0  0  0
   -0.4488   -0.7900    0.0000 O   0  0  0  0  0  0  0  0  0  0  0  0
    0.3231    0.5386    0.0000 N   0  0  0  0  0  0  0  0  0  0  0  0
    1.6877    1.0593    0.0000 N   0  0  0  0  0  0  0  0  0  0  0  0
   -1.1491    0.4488    0.0000 C   0  0  0  0  0  0  0  0  0  0  0  0
   -0.4488    0.8618    0.0000 C   0  0  0  0  0  0  0  0  0  0  0  0
   -2.6034   -0.3591    0.0000 C   0  0  0  0  0  0  0  0  0  0  0  0
   -2.6034    0.4488    0.0000 C   0  0  0  0  0  0  0  0  0  0  0  0
   -1.1850   -0.3591    0.0000 C   0  0  0  0  0  0  0  0  0  0  0  0
   -1.8673    0.8618    0.0000 C   0  0  0  0  0  0  0  0  0  0  0  0
    0.8618    1.1670    0.0000 C   0  0  0  0  0  0  0  0  0  0  0  0
   -3.3036   -0.7721    0.0000 C   0  0  0  0  0  0  0  0  0  0  0  0
   -0.3412    1.6877    0.0000 C   0  0  0  0  0  0  0  0  0  0  0  0
   -3.3036    0.8439    0.0000 C   0  0  0  0  0  0  0  0  0  0  0  0
   -4.0217   -0.3770    0.0000 C   0  0  0  0  0  0  0  0  0  0  0  0
    2.0288    0.3231    0.0000 C   0  0  0  0  0  0  0  0  0  0  0  0
   -4.0038    0.4488    0.0000 C   0  0  0  0  0  0  0  0  0  0  0  0
    1.5441   -0.3950    0.0000 C   0  0  0  0  0  0  0  0  0  0  0  0
    2.8547    0.2155    0.0000 C   0  0  0  0  0  0  0  0  0  0  0  0
    1.8852   -1.1131    0.0000 C   0  0  0  0  0  0  0  0  0  0  0  0
    3.1779   -0.5386    0.0000 C   0  0  0  0  0  0  0  0  0  0  0  0
    2.7111   -1.2030    0.0000 C   0  0  0  0  0  0  0  0  0  0  0  0
    1.4543   -1.8493    0.0000 C   0  0  0  0  0  0  0  0  0  0  0  0
    4.0217   -0.5386    0.0000 C   0  0  0  0  0  0  0  0  0  0  0  0
  1 13  1  0  0  0  0
  1 15  1  0  0  0  0
  2 14  1  0  0  0  0
  3  9  1  0  0  0  0
  3 11  1  0  0  0  0
  4 11  2  0  0  0  0
  5  8  1  0  0  0  0
  5 13  2  0  0  0  0
  6 13  1  0  0  0  0
  6 18  1  0  0  0  0
  7  8  1  0  0  0  0
  7 11  1  0  0  0  0
  7 12  2  0  0  0  0
  8 15  2  0  0  0  0
  9 10  1  0  0  0  0
  9 14  2  0  0  0  0
 10 12  1  0  0  0  0
 10 16  2  0  0  0  0
 14 17  1  0  0  0  0
 16 19  1  0  0  0  0
 17 19  2  0  0  0  0
 18 20  2  0  0  0  0
 18 21  1  0  0  0  0
 20 22  1  0  0  0  0
 21 23  2  0  0  0  0
 22 24  2  0  0  0  0
 22 25  1  0  0  0  0
 23 24  1  0  0  0  0
 23 26  1  0  0  0  0
M  END
> <PUBCHEM_COMPOUND_ID_TYPE>
0

> <PUBCHEM_TOTAL_CHARGE>
0

> <PUBCHEM_SUBSTANCE_ID>
310941499

> <PUBCHEM_SUBSTANCE_VERSION>
1

> <PUBCHEM_EXT_DATASOURCE_NAME>
4488

> <PUBCHEM_EXT_DATASOURCE_REGID>
SCHEMBL16119530

> <PUBCHEM_SUBSTANCE_COMMENT>
InChI=1S/C20H15FN2O2S/c1-11-6-12(2)8-14(7-11)22-20-23-17(10-26-20)15-9-13-4-3-5-16(21)18(13)25-19(15)24/h3-10H,1-2H3,(H,22,23)
InChIKey=YVXYDFRTWUEASC-UHFFFAOYSA-N

> <PUBCHEM_SUBSTANCE_SYNONYM>
SCHEMBL16119530

> <PUBCHEM_XREF_EXT_ID>
SCHEMBL16119530

> <PUBCHEM_EXT_DATASOURCE_URL>
https://www.surechembl.org/

> <PUBCHEM_EXT_SUBSTANCE_URL>
https://www.surechembl.org/chemical/SCHEMBL16119530

> <PUBCHEM_CID_ASSOCIATIONS>
117608319  1

> <PUBCHEM_COORDINATE_TYPE>
1
3

$$$$
