310940737
  -OEChem-07211613022D

 42 47  0     1  0  0  0  0  0999 V2000
    4.2058    3.9494    0.0000 F   0  0  0  0  0  0  0  0  0  0  0  0
    4.9972    3.7295    0.0000 F   0  0  0  0  0  0  0  0  0  0  0  0
   -1.4215   -0.9745    0.0000 O   0  0  0  0  0  0  0  0  0  0  0  0
    2.0077   -3.2313    0.0000 O   0  0  0  0  0  0  0  0  0  0  0  0
    3.2387   -3.9494    0.0000 O   0  0  0  0  0  0  0  0  0  0  0  0
    1.5095   -1.1210    0.0000 N   0  0  0  0  0  0  0  0  0  0  0  0
    1.5095   -2.4693    0.0000 N   0  0  0  0  0  0  0  0  0  0  0  0
    3.8981    1.5753    0.0000 N   0  0  0  0  0  0  0  0  0  0  0  0
   -3.5757   -1.3848    0.0000 N   0  0  0  0  0  0  0  0  0  0  0  0
    1.9783   -1.7952    0.0000 C   0  0  0  0  0  0  0  0  0  0  0  0
    0.7327   -1.3848    0.0000 C   0  0  0  0  0  0  0  0  0  0  0  0
    0.7181   -2.1909    0.0000 C   0  0  0  0  0  0  0  0  0  0  0  0
    2.8430   -1.8099    0.0000 C   0  0  3  0  0  0  0  0  0  0  0  0
    1.7732   -0.3444    0.0000 C   0  0  0  0  0  0  0  0  0  0  0  0
    0.0000   -0.9892    0.0000 C   0  0  0  0  0  0  0  0  0  0  0  0
    3.2533   -2.4840    0.0000 C   0  0  3  0  0  0  0  0  0  0  0  0
    0.0147   -2.6158    0.0000 C   0  0  0  0  0  0  0  0  0  0  0  0
   -0.7034   -1.3848    0.0000 C   0  0  0  0  0  0  0  0  0  0  0  0
    2.5792   -0.1685    0.0000 C   0  0  0  0  0  0  0  0  0  0  0  0
    3.2533   -1.0918    0.0000 C   0  0  0  0  0  0  0  0  0  0  0  0
   -0.7034   -2.2055    0.0000 C   0  0  0  0  0  0  0  0  0  0  0  0
    2.8283   -3.2313    0.0000 C   0  0  0  0  0  0  0  0  0  0  0  0
    4.0740   -2.4986    0.0000 C   0  0  0  0  0  0  0  0  0  0  0  0
    2.8430    0.6082    0.0000 C   0  0  0  0  0  0  0  0  0  0  0  0
    3.6490    0.7841    0.0000 C   0  0  0  0  0  0  0  0  0  0  0  0
    4.0740   -1.0918    0.0000 C   0  0  0  0  0  0  0  0  0  0  0  0
    3.1360   -0.7841    0.0000 C   0  0  0  0  0  0  0  0  0  0  0  0
    4.4696   -1.7952    0.0000 C   0  0  0  0  0  0  0  0  0  0  0  0
    4.1912    0.1832    0.0000 C   0  0  0  0  0  0  0  0  0  0  0  0
    3.9421   -0.6082    0.0000 C   0  0  0  0  0  0  0  0  0  0  0  0
    4.4110    3.1580    0.0000 C   0  0  0  0  0  0  0  0  0  0  0  0
    4.7041    1.7366    0.0000 C   0  0  0  0  0  0  0  0  0  0  0  0
    3.3412    2.2055    0.0000 C   0  0  0  0  0  0  0  0  0  0  0  0
   -2.1542   -1.3848    0.0000 C   0  0  0  0  0  0  0  0  0  0  0  0
    4.9532    2.5426    0.0000 C   0  0  0  0  0  0  0  0  0  0  0  0
    3.6050    2.9676    0.0000 C   0  0  0  0  0  0  0  0  0  0  0  0
   -2.8723   -0.9745    0.0000 C   0  0  0  0  0  0  0  0  0  0  0  0
   -2.8576   -0.1539    0.0000 C   0  0  0  0  0  0  0  0  0  0  0  0
   -4.2938   -0.9745    0.0000 C   0  0  0  0  0  0  0  0  0  0  0  0
   -3.5757    0.2711    0.0000 C   0  0  0  0  0  0  0  0  0  0  0  0
   -4.2791   -0.1392    0.0000 C   0  0  0  0  0  0  0  0  0  0  0  0
   -4.9972    0.2858    0.0000 C   0  0  0  0  0  0  0  0  0  0  0  0
  1 31  1  0  0  0  0
  2 31  1  0  0  0  0
  3 18  1  0  0  0  0
  3 34  1  0  0  0  0
  4 22  2  0  0  0  0
  5 22  1  0  0  0  0
  6 10  1  0  0  0  0
  6 11  1  0  0  0  0
  6 14  1  0  0  0  0
  7 10  2  0  0  0  0
  7 12  1  0  0  0  0
  8 25  1  0  0  0  0
  8 32  1  0  0  0  0
  8 33  1  0  0  0  0
  9 37  1  0  0  0  0
  9 39  2  0  0  0  0
 13 10  1  1  0  0  0
 11 12  1  0  0  0  0
 11 15  2  0  0  0  0
 12 17  2  0  0  0  0
 13 16  1  0  0  0  0
 13 20  1  0  0  0  0
 14 19  1  0  0  0  0
 15 18  1  0  0  0  0
 16 22  1  1  0  0  0
 16 23  1  0  0  0  0
 17 21  1  0  0  0  0
 18 21  2  0  0  0  0
 19 24  1  0  0  0  0
 19 27  2  0  0  0  0
 20 26  1  0  0  0  0
 23 28  1  0  0  0  0
 24 25  2  0  0  0  0
 25 29  1  0  0  0  0
 26 28  1  0  0  0  0
 27 30  1  0  0  0  0
 29 30  2  0  0  0  0
 31 35  1  0  0  0  0
 31 36  1  0  0  0  0
 32 35  1  0  0  0  0
 33 36  1  0  0  0  0
 34 37  1  0  0  0  0
 37 38  2  0  0  0  0
 38 40  1  0  0  0  0
 39 41  1  0  0  0  0
 40 41  2  0  0  0  0
 41 42  1  0  0  0  0
M  END
> <PUBCHEM_COMPOUND_ID_TYPE>
0

> <PUBCHEM_TOTAL_CHARGE>
0

> <PUBCHEM_SUBSTANCE_ID>
310940737

> <PUBCHEM_SUBSTANCE_VERSION>
1

> <PUBCHEM_EXT_DATASOURCE_NAME>
4488

> <PUBCHEM_EXT_DATASOURCE_REGID>
SCHEMBL16118695

> <PUBCHEM_SUBSTANCE_COMMENT>
InChI=1S/C33H36F2N4O3/c1-22-9-10-24(36-19-22)21-42-26-11-12-29-30(18-26)39(31(37-29)27-7-2-3-8-28(27)32(40)41)20-23-5-4-6-25(17-23)38-15-13-33(34,35)14-16-38/h4-6,9-12,17-19,27-28H,2-3,7-8,13-16,20-21H2,1H3,(H,40,41)/t27-,28+/m0/s1
InChIKey=VGNOEZDHLFATME-WUFINQPMSA-N

> <PUBCHEM_SUBSTANCE_SYNONYM>
SCHEMBL16118695

> <PUBCHEM_XREF_EXT_ID>
SCHEMBL16118695

> <PUBCHEM_EXT_DATASOURCE_URL>
https://www.surechembl.org/

> <PUBCHEM_EXT_SUBSTANCE_URL>
https://www.surechembl.org/chemical/SCHEMBL16118695

> <PUBCHEM_CID_ASSOCIATIONS>
117607694  1

> <PUBCHEM_COORDINATE_TYPE>
1
3

> <PUBCHEM_BONDANNOTATIONS>
13  10  5
16  22  5

$$$$
