310947481
  -OEChem-07211613022D

 27 29  0     0  0  0  0  0  0999 V2000
   -1.5191  -11.1672    0.0000 O   0  0  0  0  0  0  0  0  0  0  0  0
    3.9634  -10.7128    0.0000 O   0  0  0  0  0  0  0  0  0  0  0  0
    4.6561  -12.3778    0.0000 O   0  0  0  0  0  0  0  0  0  0  0  0
   -0.0901  -11.9923    0.0000 N   0  0  0  0  0  0  0  0  0  0  0  0
   -2.2335  -12.4047    0.0000 N   0  0  0  0  0  0  0  0  0  0  0  0
    3.5936  -12.0931    0.0000 N   0  0  0  0  0  0  0  0  0  0  0  0
    0.6945  -12.2472    0.0000 C   0  0  0  0  0  0  0  0  0  0  0  0
    1.1794  -11.5797    0.0000 C   0  0  0  0  0  0  0  0  0  0  0  0
    1.9998  -11.6661    0.0000 C   0  0  0  0  0  0  0  0  0  0  0  0
    0.6945  -10.9123    0.0000 C   0  0  0  0  0  0  0  0  0  0  0  0
   -0.0901  -11.1672    0.0000 C   0  0  0  0  0  0  0  0  0  0  0  0
   -0.8046  -12.4047    0.0000 C   0  0  0  0  0  0  0  0  0  0  0  0
    1.0300  -13.0008    0.0000 C   0  0  0  0  0  0  0  0  0  0  0  0
   -1.5191  -11.9923    0.0000 C   0  0  0  0  0  0  0  0  0  0  0  0
    2.3354  -12.4196    0.0000 C   0  0  0  0  0  0  0  0  0  0  0  0
    1.8505  -13.0870    0.0000 C   0  0  0  0  0  0  0  0  0  0  0  0
    2.5831  -11.0825    0.0000 C   0  0  0  0  0  0  0  0  0  0  0  0
   -2.2335  -13.2297    0.0000 C   0  0  0  0  0  0  0  0  0  0  0  0
    3.3801  -11.2961    0.0000 C   0  0  0  0  0  0  0  0  0  0  0  0
   -2.9480  -11.9923    0.0000 C   0  0  0  0  0  0  0  0  0  0  0  0
   -2.9480  -13.6423    0.0000 C   0  0  0  0  0  0  0  0  0  0  0  0
   -1.5191  -13.6423    0.0000 C   0  0  0  0  0  0  0  0  0  0  0  0
   -2.9480  -14.4672    0.0000 C   0  0  0  0  0  0  0  0  0  0  0  0
   -1.5191  -14.4672    0.0000 C   0  0  0  0  0  0  0  0  0  0  0  0
   -2.9480  -11.1672    0.0000 C   0  0  0  0  0  0  0  0  0  0  0  0
   -2.2335  -14.8797    0.0000 C   0  0  0  0  0  0  0  0  0  0  0  0
   -3.6625  -10.7547    0.0000 C   0  0  0  0  0  0  0  0  0  0  0  0
  1 14  2  0  0  0  0
  2 19  2  0  0  0  0
  3  6  1  0  0  0  0
  4  7  1  0  0  0  0
  4 11  1  0  0  0  0
  4 12  1  0  0  0  0
  5 14  1  0  0  0  0
  5 18  1  0  0  0  0
  5 20  1  0  0  0  0
  6 19  1  0  0  0  0
  7  8  2  0  0  0  0
  7 13  1  0  0  0  0
  8  9  1  0  0  0  0
  8 10  1  0  0  0  0
  9 15  2  0  0  0  0
  9 17  1  0  0  0  0
 10 11  2  0  0  0  0
 12 14  1  0  0  0  0
 13 16  2  0  0  0  0
 15 16  1  0  0  0  0
 17 19  1  0  0  0  0
 18 21  2  0  0  0  0
 18 22  1  0  0  0  0
 20 25  1  0  0  0  0
 21 23  1  0  0  0  0
 22 24  2  0  0  0  0
 23 26  2  0  0  0  0
 24 26  1  0  0  0  0
 25 27  1  0  0  0  0
M  END
> <PUBCHEM_COMPOUND_ID_TYPE>
0

> <PUBCHEM_TOTAL_CHARGE>
0

> <PUBCHEM_SUBSTANCE_ID>
310947481

> <PUBCHEM_SUBSTANCE_VERSION>
1

> <PUBCHEM_EXT_DATASOURCE_NAME>
4488

> <PUBCHEM_EXT_DATASOURCE_REGID>
SCHEMBL16125642

> <PUBCHEM_SUBSTANCE_COMMENT>
InChI=1S/C21H23N3O3/c1-2-12-24(17-8-4-3-5-9-17)21(26)15-23-13-11-18-16(14-20(25)22-27)7-6-10-19(18)23/h3-11,13,27H,2,12,14-15H2,1H3,(H,22,25)
InChIKey=JOXBGBSKPLJVRY-UHFFFAOYSA-N

> <PUBCHEM_SUBSTANCE_SYNONYM>
SCHEMBL16125642

> <PUBCHEM_XREF_EXT_ID>
SCHEMBL16125642

> <PUBCHEM_EXT_DATASOURCE_URL>
https://www.surechembl.org/

> <PUBCHEM_EXT_SUBSTANCE_URL>
https://www.surechembl.org/chemical/SCHEMBL16125642

> <PUBCHEM_CID_ASSOCIATIONS>
117613211  1

> <PUBCHEM_COORDINATE_TYPE>
1
3

$$$$
