310941538
  -OEChem-07211613022D

 29 32  0     0  0  0  0  0  0999 V2000
    0.7667    2.3863    0.0000 S   0  0  0  0  0  0  0  0  0  0  0  0
   -1.5765   -0.2843    0.0000 O   0  0  0  0  0  0  0  0  0  0  0  0
   -3.0065   -1.1113    0.0000 O   0  0  0  0  0  0  0  0  0  0  0  0
   -0.1292   -0.2843    0.0000 O   0  0  0  0  0  0  0  0  0  0  0  0
    3.6612    1.4042    0.0000 O   0  0  0  0  0  0  0  0  0  0  0  0
    0.6289    1.0424    0.0000 N   0  0  0  0  0  0  0  0  0  0  0  0
    2.0072    1.5765    0.0000 N   0  0  0  0  0  0  0  0  0  0  0  0
   -0.8528    0.9907    0.0000 C   0  0  0  0  0  0  0  0  0  0  0  0
   -2.3173    0.1465    0.0000 C   0  0  0  0  0  0  0  0  0  0  0  0
   -2.3001    0.9907    0.0000 C   0  0  0  0  0  0  0  0  0  0  0  0
   -0.1465    1.4042    0.0000 C   0  0  0  0  0  0  0  0  0  0  0  0
   -0.8873    0.1465    0.0000 C   0  0  0  0  0  0  0  0  0  0  0  0
   -1.5937    1.3869    0.0000 C   0  0  0  0  0  0  0  0  0  0  0  0
   -3.0237   -0.2498    0.0000 C   0  0  0  0  0  0  0  0  0  0  0  0
    1.1974    1.6798    0.0000 C   0  0  0  0  0  0  0  0  0  0  0  0
   -0.0603    2.2139    0.0000 C   0  0  0  0  0  0  0  0  0  0  0  0
   -3.0065    1.3697    0.0000 C   0  0  0  0  0  0  0  0  0  0  0  0
   -3.7301    0.1292    0.0000 C   0  0  0  0  0  0  0  0  0  0  0  0
   -3.7301    0.9735    0.0000 C   0  0  0  0  0  0  0  0  0  0  0  0
    2.3173    0.8356    0.0000 C   0  0  0  0  0  0  0  0  0  0  0  0
    3.1443    0.7322    0.0000 C   0  0  0  0  0  0  0  0  0  0  0  0
   -3.7473   -1.5248    0.0000 C   0  0  0  0  0  0  0  0  0  0  0  0
    1.8693    0.1465    0.0000 C   0  0  0  0  0  0  0  0  0  0  0  0
    3.4889   -0.0086    0.0000 C   0  0  0  0  0  0  0  0  0  0  0  0
    2.1967   -0.5944    0.0000 C   0  0  0  0  0  0  0  0  0  0  0  0
    3.0237   -0.6806    0.0000 C   0  0  0  0  0  0  0  0  0  0  0  0
   -4.4709   -1.1285    0.0000 C   0  0  0  0  0  0  0  0  0  0  0  0
   -3.7301   -2.3863    0.0000 C   0  0  0  0  0  0  0  0  0  0  0  0
    4.4709    1.3008    0.0000 C   0  0  0  0  0  0  0  0  0  0  0  0
  1 15  1  0  0  0  0
  1 16  1  0  0  0  0
  2  9  1  0  0  0  0
  2 12  1  0  0  0  0
  3 14  1  0  0  0  0
  3 22  1  0  0  0  0
  4 12  2  0  0  0  0
  5 21  1  0  0  0  0
  5 29  1  0  0  0  0
  6 11  1  0  0  0  0
  6 15  2  0  0  0  0
  7 15  1  0  0  0  0
  7 20  1  0  0  0  0
  8 11  1  0  0  0  0
  8 12  1  0  0  0  0
  8 13  2  0  0  0  0
  9 10  1  0  0  0  0
  9 14  2  0  0  0  0
 10 13  1  0  0  0  0
 10 17  2  0  0  0  0
 11 16  2  0  0  0  0
 14 18  1  0  0  0  0
 17 19  1  0  0  0  0
 18 19  2  0  0  0  0
 20 21  1  0  0  0  0
 20 23  2  0  0  0  0
 21 24  2  0  0  0  0
 22 27  1  0  0  0  0
 22 28  1  0  0  0  0
 23 25  1  0  0  0  0
 24 26  1  0  0  0  0
 25 26  2  0  0  0  0
M  END
> <PUBCHEM_COMPOUND_ID_TYPE>
0

> <PUBCHEM_TOTAL_CHARGE>
0

> <PUBCHEM_SUBSTANCE_ID>
310941538

> <PUBCHEM_SUBSTANCE_VERSION>
1

> <PUBCHEM_EXT_DATASOURCE_NAME>
4488

> <PUBCHEM_EXT_DATASOURCE_REGID>
SCHEMBL16119569

> <PUBCHEM_SUBSTANCE_COMMENT>
InChI=1S/C22H20N2O4S/c1-13(2)27-19-10-6-7-14-11-15(21(25)28-20(14)19)17-12-29-22(24-17)23-16-8-4-5-9-18(16)26-3/h4-13H,1-3H3,(H,23,24)
InChIKey=MZZQCHKIEAWJFH-UHFFFAOYSA-N

> <PUBCHEM_SUBSTANCE_SYNONYM>
SCHEMBL16119569

> <PUBCHEM_XREF_EXT_ID>
SCHEMBL16119569

> <PUBCHEM_EXT_DATASOURCE_URL>
https://www.surechembl.org/

> <PUBCHEM_EXT_SUBSTANCE_URL>
https://www.surechembl.org/chemical/SCHEMBL16119569

> <PUBCHEM_CID_ASSOCIATIONS>
117608346  1

> <PUBCHEM_COORDINATE_TYPE>
1
3

$$$$
