310947572
  -OEChem-07211613022D

 47 51  0     1  0  0  0  0  0999 V2000
   -0.5834    2.1761    0.0000 P   0  0  3  0  0  0  0  0  0  0  0  0
   -1.9261    0.1565    0.0000 F   0  0  0  0  0  0  0  0  0  0  0  0
    0.0579   -0.6685    0.0000 O   0  0  0  0  0  0  0  0  0  0  0  0
   -1.6242   -1.7954    0.0000 O   0  0  0  0  0  0  0  0  0  0  0  0
   -0.7969    1.3792    0.0000 O   0  0  0  0  0  0  0  0  0  0  0  0
    1.4845   -4.3678    0.0000 O   0  0  0  0  0  0  0  0  0  0  0  0
   -1.3803    2.3896    0.0000 O   0  0  0  0  0  0  0  0  0  0  0  0
    0.2135    1.9626    0.0000 O   0  0  0  0  0  0  0  0  0  0  0  0
    1.8073    2.8167    0.0000 O   0  0  0  0  0  0  0  0  0  0  0  0
    0.7969    1.8063    0.0000 O   0  0  0  0  0  0  0  0  0  0  0  0
   -0.0146   -2.0504    0.0000 N   0  0  0  0  0  0  0  0  0  0  0  0
   -0.0146   -3.3852    0.0000 N   0  0  0  0  0  0  0  0  0  0  0  0
    1.4845   -1.8928    0.0000 N   0  0  0  0  0  0  0  0  0  0  0  0
    2.1990   -3.1303    0.0000 N   0  0  0  0  0  0  0  0  0  0  0  0
   -0.3698    2.9730    0.0000 N   0  0  0  0  0  0  0  0  0  0  0  0
    2.9135   -1.8928    0.0000 N   0  0  0  0  0  0  0  0  0  0  0  0
   -1.2117   -1.0810    0.0000 C   0  0  3  0  0  0  0  0  0  0  0  0
   -0.4271   -1.3359    0.0000 C   0  0  3  0  0  0  0  0  0  0  0  0
   -1.2117   -0.2560    0.0000 C   0  0  3  0  0  0  0  0  0  0  0  0
    0.7701   -2.3053    0.0000 C   0  0  0  0  0  0  0  0  0  0  0  0
   -0.4271   -0.0010    0.0000 C   0  0  3  0  0  0  0  0  0  0  0  0
    0.7701   -3.1303    0.0000 C   0  0  0  0  0  0  0  0  0  0  0  0
   -0.4995   -2.7178    0.0000 C   0  0  0  0  0  0  0  0  0  0  0  0
   -2.0367   -1.0810    0.0000 C   0  0  0  0  0  0  0  0  0  0  0  0
    1.4845   -3.5428    0.0000 C   0  0  0  0  0  0  0  0  0  0  0  0
   -0.2135    0.7959    0.0000 C   0  0  0  0  0  0  0  0  0  0  0  0
    2.1990   -2.3053    0.0000 C   0  0  0  0  0  0  0  0  0  0  0  0
   -2.4492   -0.3665    0.0000 C   0  0  0  0  0  0  0  0  0  0  0  0
   -1.5938    3.1865    0.0000 C   0  0  0  0  0  0  0  0  0  0  0  0
   -2.3907    3.4001    0.0000 C   0  0  0  0  0  0  0  0  0  0  0  0
   -2.6042    4.1969    0.0000 C   0  0  0  0  0  0  0  0  0  0  0  0
    0.4271    3.1865    0.0000 C   0  0  3  0  0  0  0  0  0  0  0  0
   -1.0104    3.7699    0.0000 C   0  0  0  0  0  0  0  0  0  0  0  0
    2.1990   -4.7803    0.0000 C   0  0  0  0  0  0  0  0  0  0  0  0
   -2.9740    2.8167    0.0000 C   0  0  0  0  0  0  0  0  0  0  0  0
   -2.0208    4.7803    0.0000 C   0  0  0  0  0  0  0  0  0  0  0  0
    1.0104    2.6032    0.0000 C   0  0  0  0  0  0  0  0  0  0  0  0
   -1.2239    4.5668    0.0000 C   0  0  0  0  0  0  0  0  0  0  0  0
   -3.4011    4.4105    0.0000 C   0  0  0  0  0  0  0  0  0  0  0  0
   -3.7709    3.0302    0.0000 C   0  0  0  0  0  0  0  0  0  0  0  0
   -3.9844    3.8271    0.0000 C   0  0  0  0  0  0  0  0  0  0  0  0
    0.6406    3.9834    0.0000 C   0  0  0  0  0  0  0  0  0  0  0  0
    2.3907    2.2333    0.0000 C   0  0  0  0  0  0  0  0  0  0  0  0
    3.1876    2.4469    0.0000 C   0  0  0  0  0  0  0  0  0  0  0  0
    3.9844    2.6604    0.0000 C   0  0  0  0  0  0  0  0  0  0  0  0
    2.9740    3.2437    0.0000 C   0  0  0  0  0  0  0  0  0  0  0  0
    3.4011    1.6500    0.0000 C   0  0  0  0  0  0  0  0  0  0  0  0
  1  5  1  0  0  0  0
  1  7  1  0  0  0  0
  1  8  2  0  0  0  0
  1 15  1  0  0  0  0
 19  2  1  6  0  0  0
 18  3  1  1  0  0  0
  3 21  1  0  0  0  0
 17  4  1  6  0  0  0
  5 26  1  0  0  0  0
  6 25  1  0  0  0  0
  6 34  1  0  0  0  0
  7 29  1  0  0  0  0
  9 37  1  0  0  0  0
  9 43  1  0  0  0  0
 10 37  2  0  0  0  0
 11 18  1  0  0  0  0
 11 20  1  0  0  0  0
 11 23  1  0  0  0  0
 12 22  1  0  0  0  0
 12 23  2  0  0  0  0
 13 20  1  0  0  0  0
 13 27  2  0  0  0  0
 14 25  2  0  0  0  0
 14 27  1  0  0  0  0
 15 32  1  0  0  0  0
 16 27  1  0  0  0  0
 17 18  1  0  0  0  0
 17 19  1  0  0  0  0
 17 24  1  1  0  0  0
 19 21  1  0  0  0  0
 20 22  2  0  0  0  0
 21 26  1  1  0  0  0
 22 25  1  0  0  0  0
 24 28  1  0  0  0  0
 29 30  1  0  0  0  0
 29 33  2  0  0  0  0
 30 31  2  0  0  0  0
 30 35  1  0  0  0  0
 31 36  1  0  0  0  0
 31 39  1  0  0  0  0
 32 37  1  0  0  0  0
 32 42  1  1  0  0  0
 33 38  1  0  0  0  0
 35 40  2  0  0  0  0
 36 38  2  0  0  0  0
 39 41  2  0  0  0  0
 40 41  1  0  0  0  0
 43 44  1  0  0  0  0
 44 45  1  0  0  0  0
 44 46  1  0  0  0  0
 44 47  1  0  0  0  0
M  END
> <PUBCHEM_COMPOUND_ID_TYPE>
0

> <PUBCHEM_TOTAL_CHARGE>
0

> <PUBCHEM_SUBSTANCE_ID>
310947572

> <PUBCHEM_SUBSTANCE_VERSION>
1

> <PUBCHEM_EXT_DATASOURCE_NAME>
4488

> <PUBCHEM_EXT_DATASOURCE_REGID>
SCHEMBL16125735

> <PUBCHEM_SUBSTANCE_COMMENT>
InChI=1S/C31H40FN6O8P/c1-7-31(40)24(32)22(45-28(31)38-17-34-23-25(38)35-29(33)36-26(23)42-6)15-44-47(41,37-18(2)27(39)43-16-30(3,4)5)46-21-14-10-12-19-11-8-9-13-20(19)21/h8-14,17-18,22,24,28,40H,7,15-16H2,1-6H3,(H,37,41)(H2,33,35,36)/t18-,22+,24+,28+,31+,47?/m0/s1
InChIKey=IKZOXMNUYMUQSV-NSLZILBFSA-N

> <PUBCHEM_SUBSTANCE_SYNONYM>
SCHEMBL16125735

> <PUBCHEM_XREF_EXT_ID>
SCHEMBL16125735

> <PUBCHEM_EXT_DATASOURCE_URL>
https://www.surechembl.org/

> <PUBCHEM_EXT_SUBSTANCE_URL>
https://www.surechembl.org/chemical/SCHEMBL16125735

> <PUBCHEM_CID_ASSOCIATIONS>
117613294  1

> <PUBCHEM_COORDINATE_TYPE>
1
3

> <PUBCHEM_BONDANNOTATIONS>
17  24  5
19  2  6
21  26  5
18  3  5
32  42  5
17  4  6

$$$$
