310936752
  -OEChem-07211613022D

 25 27  0     1  0  0  0  0  0999 V2000
    4.9501   -2.8501    0.0000 O   0  0  0  0  0  0  0  0  0  0  0  0
    4.9501    0.0000    0.0000 O   0  0  0  0  0  0  0  0  0  0  0  0
    6.1751   -0.7250    0.0000 O   0  0  0  0  0  0  0  0  0  0  0  0
    4.9501   -1.4250    0.0000 N   0  0  0  0  0  0  0  0  0  0  0  0
    3.7000   -2.1500    0.0000 C   0  0  3  0  0  0  0  0  0  0  0  0
    2.8750   -2.1500    0.0000 C   0  0  0  0  0  0  0  0  0  0  0  0
    4.1251   -2.8501    0.0000 C   0  0  3  0  0  0  0  0  0  0  0  0
    1.6500   -1.4500    0.0000 C   0  0  0  0  0  0  0  0  0  0  0  0
    1.2500   -2.1500    0.0000 C   0  0  0  0  0  0  0  0  0  0  0  0
    2.4500   -1.4250    0.0000 C   0  0  0  0  0  0  0  0  0  0  0  0
    3.7000   -3.5750    0.0000 C   0  0  0  0  0  0  0  0  0  0  0  0
    2.4750   -2.8501    0.0000 C   0  0  0  0  0  0  0  0  0  0  0  0
    4.1251   -1.4250    0.0000 C   0  0  0  0  0  0  0  0  0  0  0  0
    1.6500   -2.8501    0.0000 C   0  0  0  0  0  0  0  0  0  0  0  0
    1.2500   -0.7250    0.0000 C   0  0  0  0  0  0  0  0  0  0  0  0
    0.4250   -2.1500    0.0000 C   0  0  0  0  0  0  0  0  0  0  0  0
    4.1251   -4.3001    0.0000 C   0  0  0  0  0  0  0  0  0  0  0  0
    2.8750   -3.5750    0.0000 C   0  0  0  0  0  0  0  0  0  0  0  0
    0.4000   -0.7250    0.0000 C   0  0  0  0  0  0  0  0  0  0  0  0
    0.0000   -1.4250    0.0000 C   0  0  0  0  0  0  0  0  0  0  0  0
    5.3501   -0.7250    0.0000 C   0  0  0  0  0  0  0  0  0  0  0  0
    3.7000   -5.0000    0.0000 C   0  0  0  0  0  0  0  0  0  0  0  0
    2.4750   -4.2751    0.0000 C   0  0  0  0  0  0  0  0  0  0  0  0
    5.3501   -2.1500    0.0000 C   0  0  0  0  0  0  0  0  0  0  0  0
    2.8750   -5.0000    0.0000 C   0  0  0  0  0  0  0  0  0  0  0  0
  7  1  1  6  0  0  0
  2 21  2  0  0  0  0
  3 21  1  0  0  0  0
  4 13  1  0  0  0  0
  4 21  1  0  0  0  0
  4 24  1  0  0  0  0
  5  6  1  0  0  0  0
  5  7  1  0  0  0  0
  5 13  1  1  0  0  0
  6 10  2  0  0  0  0
  6 12  1  0  0  0  0
  7 11  1  0  0  0  0
  8  9  2  0  0  0  0
  8 10  1  0  0  0  0
  8 15  1  0  0  0  0
  9 14  1  0  0  0  0
  9 16  1  0  0  0  0
 11 17  2  0  0  0  0
 11 18  1  0  0  0  0
 12 14  2  0  0  0  0
 15 19  2  0  0  0  0
 16 20  2  0  0  0  0
 17 22  1  0  0  0  0
 18 23  2  0  0  0  0
 19 20  1  0  0  0  0
 22 25  2  0  0  0  0
 23 25  1  0  0  0  0
M  END
> <PUBCHEM_COMPOUND_ID_TYPE>
0

> <PUBCHEM_TOTAL_CHARGE>
0

> <PUBCHEM_SUBSTANCE_ID>
310936752

> <PUBCHEM_SUBSTANCE_VERSION>
1

> <PUBCHEM_EXT_DATASOURCE_NAME>
4488

> <PUBCHEM_EXT_DATASOURCE_REGID>
SCHEMBL16114436

> <PUBCHEM_SUBSTANCE_COMMENT>
InChI=1S/C21H21NO3/c1-22(21(24)25)14-19(20(23)16-8-3-2-4-9-16)18-12-11-15-7-5-6-10-17(15)13-18/h2-13,19-20,23H,14H2,1H3,(H,24,25)/t19-,20-/m1/s1
InChIKey=LWPAFFNBFYCFGE-WOJBJXKFSA-N

> <PUBCHEM_SUBSTANCE_SYNONYM>
SCHEMBL16114436

> <PUBCHEM_XREF_EXT_ID>
SCHEMBL16114436

> <PUBCHEM_EXT_DATASOURCE_URL>
https://www.surechembl.org/

> <PUBCHEM_EXT_SUBSTANCE_URL>
https://www.surechembl.org/chemical/SCHEMBL16114436

> <PUBCHEM_CID_ASSOCIATIONS>
117604650  1

> <PUBCHEM_COORDINATE_TYPE>
1
3

> <PUBCHEM_BONDANNOTATIONS>
7  1  6
5  13  5

$$$$
