310943139
  -OEChem-07211613022D

 34 37  0     0  0  0  0  0  0999 V2000
   -3.4627   -0.0145    0.0000 Cl  0  0  0  0  0  0  0  0  0  0  0  0
    1.0671   -0.0145    0.0000 O   0  0  0  0  0  0  0  0  0  0  0  0
   -4.6242    2.4391    0.0000 O   0  0  0  0  0  0  0  0  0  0  0  0
   -3.2014    1.6261    0.0000 N   0  0  0  0  0  0  0  0  0  0  0  0
   -1.7786    0.0000    0.0000 N   0  0  0  0  0  0  0  0  0  0  0  0
    1.7786    1.2196    0.0000 N   0  0  0  0  0  0  0  0  0  0  0  0
    0.3557    2.8602    0.0000 N   0  0  0  0  0  0  0  0  0  0  0  0
    3.9128   -0.8276    0.0000 N   0  0  0  0  0  0  0  0  0  0  0  0
    3.9128    0.0000    0.0000 N   0  0  0  0  0  0  0  0  0  0  0  0
    4.6242   -2.8602    0.0000 N   0  0  0  0  0  0  0  0  0  0  0  0
   -0.3702    1.6406    0.0000 C   0  0  0  0  0  0  0  0  0  0  0  0
   -1.0671    1.2341    0.0000 C   0  0  0  0  0  0  0  0  0  0  0  0
   -2.4899    1.2341    0.0000 C   0  0  0  0  0  0  0  0  0  0  0  0
   -1.8076    1.6261    0.0000 C   0  0  0  0  0  0  0  0  0  0  0  0
   -0.3557    2.4537    0.0000 C   0  0  0  0  0  0  0  0  0  0  0  0
   -2.5045    0.4066    0.0000 C   0  0  0  0  0  0  0  0  0  0  0  0
    1.0526    1.6406    0.0000 C   0  0  0  0  0  0  0  0  0  0  0  0
    0.3702    1.2341    0.0000 C   0  0  0  0  0  0  0  0  0  0  0  0
   -1.0671    0.4066    0.0000 C   0  0  0  0  0  0  0  0  0  0  0  0
    3.2159   -1.2196    0.0000 C   0  0  0  0  0  0  0  0  0  0  0  0
    2.5045    0.0000    0.0000 C   0  0  0  0  0  0  0  0  0  0  0  0
    3.1868   -2.0471    0.0000 C   0  0  0  0  0  0  0  0  0  0  0  0
    1.7786    0.4210    0.0000 C   0  0  0  0  0  0  0  0  0  0  0  0
    2.4899   -0.8130    0.0000 C   0  0  0  0  0  0  0  0  0  0  0  0
    1.0671    2.4391    0.0000 C   0  0  0  0  0  0  0  0  0  0  0  0
    3.2014    0.4066    0.0000 C   0  0  0  0  0  0  0  0  0  0  0  0
   -3.2014    2.4537    0.0000 C   0  0  0  0  0  0  0  0  0  0  0  0
   -3.8983    1.2341    0.0000 C   0  0  0  0  0  0  0  0  0  0  0  0
   -1.0817    2.8457    0.0000 C   0  0  0  0  0  0  0  0  0  0  0  0
    3.8983   -2.4682    0.0000 C   0  0  0  0  0  0  0  0  0  0  0  0
    2.8094   -2.7731    0.0000 C   0  0  0  0  0  0  0  0  0  0  0  0
    2.3738   -2.0617    0.0000 C   0  0  0  0  0  0  0  0  0  0  0  0
   -3.9128    2.8602    0.0000 C   0  0  0  0  0  0  0  0  0  0  0  0
   -4.6242    1.6261    0.0000 C   0  0  0  0  0  0  0  0  0  0  0  0
  1 16  1  0  0  0  0
  2 23  2  0  0  0  0
  3 33  1  0  0  0  0
  3 34  1  0  0  0  0
  4 13  1  0  0  0  0
  4 27  1  0  0  0  0
  4 28  1  0  0  0  0
  5 16  2  0  0  0  0
  5 19  1  0  0  0  0
  6 17  1  0  0  0  0
  6 23  1  0  0  0  0
  7 15  1  0  0  0  0
  7 25  2  0  0  0  0
  8  9  1  0  0  0  0
  8 20  2  0  0  0  0
  9 26  2  0  0  0  0
 10 30  3  0  0  0  0
 11 12  1  0  0  0  0
 11 15  2  0  0  0  0
 11 18  1  0  0  0  0
 12 14  1  0  0  0  0
 12 19  2  0  0  0  0
 13 14  2  0  0  0  0
 13 16  1  0  0  0  0
 15 29  1  0  0  0  0
 17 18  2  0  0  0  0
 17 25  1  0  0  0  0
 20 22  1  0  0  0  0
 20 24  1  0  0  0  0
 21 23  1  0  0  0  0
 21 24  2  0  0  0  0
 21 26  1  0  0  0  0
 22 30  1  0  0  0  0
 22 31  1  0  0  0  0
 22 32  1  0  0  0  0
 27 33  1  0  0  0  0
 28 34  1  0  0  0  0
M  END
> <PUBCHEM_COMPOUND_ID_TYPE>
0

> <PUBCHEM_TOTAL_CHARGE>
0

> <PUBCHEM_SUBSTANCE_ID>
310943139

> <PUBCHEM_SUBSTANCE_VERSION>
1

> <PUBCHEM_EXT_DATASOURCE_NAME>
4488

> <PUBCHEM_EXT_DATASOURCE_REGID>
SCHEMBL16121199

> <PUBCHEM_SUBSTANCE_COMMENT>
InChI=1S/C24H24ClN7O2/c1-15-19(16-8-20(22(25)28-11-16)32-4-6-34-7-5-32)10-18(13-27-15)30-23(33)17-9-21(31-29-12-17)24(2,3)14-26/h8-13H,4-7H2,1-3H3,(H,30,33)
InChIKey=WSOBFSPTWJSRHQ-UHFFFAOYSA-N

> <PUBCHEM_SUBSTANCE_SYNONYM>
SCHEMBL16121199

> <PUBCHEM_XREF_EXT_ID>
SCHEMBL16121199

> <PUBCHEM_EXT_DATASOURCE_URL>
https://www.surechembl.org/

> <PUBCHEM_EXT_SUBSTANCE_URL>
https://www.surechembl.org/chemical/SCHEMBL16121199

> <PUBCHEM_CID_ASSOCIATIONS>
117609569  1

> <PUBCHEM_COORDINATE_TYPE>
1
3

$$$$
