310942734
  -OEChem-07211613022D

 52 57  0     1  0  0  0  0  0999 V2000
   -5.1154    1.1825    0.0000 F   0  0  0  0  0  0  0  0  0  0  0  0
   -5.1154   -2.1460    0.0000 F   0  0  0  0  0  0  0  0  0  0  0  0
   -2.3475   -0.9548    0.0000 O   0  0  0  0  0  0  0  0  0  0  0  0
    1.9096   -1.0424    0.0000 O   0  0  0  0  0  0  0  0  0  0  0  0
    0.2452    2.2512    0.0000 O   0  0  0  0  0  0  0  0  0  0  0  0
   -1.5066   -2.3913    0.0000 O   0  0  0  0  0  0  0  0  0  0  0  0
    3.3460   -1.0424    0.0000 O   0  0  0  0  0  0  0  0  0  0  0  0
    3.8366   -4.1431    0.0000 O   0  0  0  0  0  0  0  0  0  0  0  0
    5.6410   -1.8482    0.0000 O   0  0  0  0  0  0  0  0  0  0  0  0
   -2.6804    1.2350    0.0000 N   0  0  0  0  0  0  0  0  0  0  0  0
   -1.1037   -0.2365    0.0000 N   0  0  0  0  0  0  0  0  0  0  0  0
   -2.9606   -0.0789    0.0000 N   0  0  0  0  0  0  0  0  0  0  0  0
    1.9446    1.0949    0.0000 N   0  0  0  0  0  0  0  0  0  0  0  0
    4.5548   -2.8643    0.0000 N   0  0  0  0  0  0  0  0  0  0  0  0
    2.4175   -2.2512    0.0000 N   0  0  0  0  0  0  0  0  0  0  0  0
   -2.3475    0.5168    0.0000 C   0  0  0  0  0  0  0  0  0  0  0  0
   -1.5066    0.4818    0.0000 C   0  0  3  0  0  0  0  0  0  0  0  0
   -3.6789    0.3591    0.0000 C   0  0  0  0  0  0  0  0  0  0  0  0
   -0.9285    1.0949    0.0000 C   0  0  0  0  0  0  0  0  0  0  0  0
   -3.4862    1.1650    0.0000 C   0  0  0  0  0  0  0  0  0  0  0  0
   -4.3797   -0.0613    0.0000 C   0  0  0  0  0  0  0  0  0  0  0  0
   -1.4891   -0.9548    0.0000 C   0  0  0  0  0  0  0  0  0  0  0  0
    0.1577   -0.2190    0.0000 C   0  0  0  0  0  0  0  0  0  0  0  0
   -2.2424    2.1811    0.0000 C   0  0  0  0  0  0  0  0  0  0  0  0
    0.9811    0.1665    0.0000 C   0  0  3  0  0  0  0  0  0  0  0  0
   -5.1154    0.3416    0.0000 C   0  0  0  0  0  0  0  0  0  0  0  0
   -1.1212    1.8658    0.0000 C   0  0  0  0  0  0  0  0  0  0  0  0
   -0.1051    0.8672    0.0000 C   0  0  0  0  0  0  0  0  0  0  0  0
   -4.3972   -0.9022    0.0000 C   0  0  0  0  0  0  0  0  0  0  0  0
   -2.8555    2.7767    0.0000 C   0  0  0  0  0  0  0  0  0  0  0  0
    1.6993   -0.2190    0.0000 C   0  0  3  0  0  0  0  0  0  0  0  0
   -1.1037   -1.6555    0.0000 C   0  0  3  0  0  0  0  0  0  0  0  0
   -5.0979   -1.2876    0.0000 C   0  0  0  0  0  0  0  0  0  0  0  0
   -5.7987   -0.0613    0.0000 C   0  0  0  0  0  0  0  0  0  0  0  0
    1.1387    0.9898    0.0000 C   0  0  0  0  0  0  0  0  0  0  0  0
   -0.5606    2.4613    0.0000 C   0  0  0  0  0  0  0  0  0  0  0  0
    0.4555    1.4628    0.0000 C   0  0  0  0  0  0  0  0  0  0  0  0
   -5.8162   -0.9022    0.0000 C   0  0  0  0  0  0  0  0  0  0  0  0
    2.2950    0.3591    0.0000 C   0  0  0  0  0  0  0  0  0  0  0  0
   -2.6278    3.5651    0.0000 C   0  0  0  0  0  0  0  0  0  0  0  0
   -3.6264    2.5665    0.0000 C   0  0  0  0  0  0  0  0  0  0  0  0
   -0.2803   -1.6730    0.0000 C   0  0  0  0  0  0  0  0  0  0  0  0
    2.6103   -1.4628    0.0000 C   0  0  0  0  0  0  0  0  0  0  0  0
   -3.1884    4.1431    0.0000 C   0  0  0  0  0  0  0  0  0  0  0  0
   -4.2044    3.1271    0.0000 C   0  0  0  0  0  0  0  0  0  0  0  0
   -3.9943    3.9329    0.0000 C   0  0  0  0  0  0  0  0  0  0  0  0
    4.5373   -3.6702    0.0000 C   0  0  0  0  0  0  0  0  0  0  0  0
    5.3257   -2.6541    0.0000 C   0  0  0  0  0  0  0  0  0  0  0  0
    3.8891   -2.3563    0.0000 C   0  0  0  0  0  0  0  0  0  0  0  0
    3.1534   -2.6716    0.0000 C   0  0  0  0  0  0  0  0  0  0  0  0
    5.3082   -3.9680    0.0000 C   0  0  0  0  0  0  0  0  0  0  0  0
    5.8162   -3.3022    0.0000 C   0  0  0  0  0  0  0  0  0  0  0  0
  1 26  1  0  0  0  0
  2 33  1  0  0  0  0
  3 22  2  0  0  0  0
 31  4  1  1  0  0  0
  4 43  1  0  0  0  0
  5 36  1  0  0  0  0
  5 37  1  0  0  0  0
 32  6  1  6  0  0  0
  7 43  2  0  0  0  0
  8 47  2  0  0  0  0
  9 48  2  0  0  0  0
 10 16  1  0  0  0  0
 10 20  1  0  0  0  0
 10 24  1  0  0  0  0
 17 11  1  1  0  0  0
 11 22  1  0  0  0  0
 11 23  1  0  0  0  0
 12 16  2  0  0  0  0
 12 18  1  0  0  0  0
 13 35  1  0  0  0  0
 13 39  1  0  0  0  0
 14 47  1  0  0  0  0
 14 48  1  0  0  0  0
 14 49  1  0  0  0  0
 15 43  1  0  0  0  0
 15 50  1  0  0  0  0
 16 17  1  0  0  0  0
 17 19  1  0  0  0  0
 18 20  2  0  0  0  0
 18 21  1  0  0  0  0
 19 27  1  0  0  0  0
 19 28  1  0  0  0  0
 21 26  2  0  0  0  0
 21 29  1  0  0  0  0
 22 32  1  0  0  0  0
 25 23  1  6  0  0  0
 24 30  1  0  0  0  0
 25 31  1  0  0  0  0
 25 35  1  0  0  0  0
 26 34  1  0  0  0  0
 27 36  1  0  0  0  0
 28 37  1  0  0  0  0
 29 33  2  0  0  0  0
 30 40  2  0  0  0  0
 30 41  1  0  0  0  0
 31 39  1  0  0  0  0
 32 42  1  0  0  0  0
 33 38  1  0  0  0  0
 34 38  2  0  0  0  0
 40 44  1  0  0  0  0
 41 45  2  0  0  0  0
 44 46  2  0  0  0  0
 45 46  1  0  0  0  0
 47 51  1  0  0  0  0
 48 52  1  0  0  0  0
 49 50  1  0  0  0  0
 51 52  1  0  0  0  0
M  END
> <PUBCHEM_COMPOUND_ID_TYPE>
0

> <PUBCHEM_TOTAL_CHARGE>
0

> <PUBCHEM_SUBSTANCE_ID>
310942734

> <PUBCHEM_SUBSTANCE_VERSION>
1

> <PUBCHEM_EXT_DATASOURCE_NAME>
4488

> <PUBCHEM_EXT_DATASOURCE_REGID>
SCHEMBL16120786

> <PUBCHEM_SUBSTANCE_COMMENT>
InChI=1S/C37H44F2N6O7/c1-23(46)36(49)45(21-26-18-40-19-31(26)52-37(50)41-13-14-44-32(47)9-10-33(44)48)34(25-11-15-51-16-12-25)35-42-30(28-17-27(38)7-8-29(28)39)22-43(35)20-24-5-3-2-4-6-24/h2-8,17,22-23,25-26,31,34,40,46H,9-16,18-21H2,1H3,(H,41,50)/t23-,26-,31+,34+/m0/s1
InChIKey=RZLHMEXJTKVESG-ZGDQHIJISA-N

> <PUBCHEM_SUBSTANCE_SYNONYM>
SCHEMBL16120786

> <PUBCHEM_XREF_EXT_ID>
SCHEMBL16120786

> <PUBCHEM_EXT_DATASOURCE_URL>
https://www.surechembl.org/

> <PUBCHEM_EXT_SUBSTANCE_URL>
https://www.surechembl.org/chemical/SCHEMBL16120786

> <PUBCHEM_CID_ASSOCIATIONS>
117609254  1

> <PUBCHEM_COORDINATE_TYPE>
1
3

> <PUBCHEM_BONDANNOTATIONS>
17  11  5
25  23  6
31  4  5
32  6  6

$$$$
