310934646
  -OEChem-07211613022D

 16 15  0     0  0  0  0  0  0999 V2000
    3.2112   -0.4180    0.0000 O   0  0  0  0  0  0  0  0  0  0  0  0
    3.9142   -1.6531    0.0000 O   0  0  0  0  0  0  0  0  0  0  0  0
    2.0711   -3.8002    0.0000 O   0  0  0  0  0  0  0  0  0  0  0  0
    3.3062   -3.0972    0.0000 O   0  0  0  0  0  0  0  0  0  0  0  0
    1.2351   -3.8002    0.0000 O   0  0  0  0  0  0  0  0  0  0  0  0
    0.0000   -3.0972    0.0000 O   0  0  0  0  0  0  0  0  0  0  0  0
    2.4702   -1.6531    0.0000 C   0  0  0  0  0  0  0  0  0  0  0  0
    2.0711   -2.3752    0.0000 C   0  0  0  0  0  0  0  0  0  0  0  0
    2.4702   -3.0972    0.0000 C   0  0  0  0  0  0  0  0  0  0  0  0
    3.1922   -1.2541    0.0000 C   0  0  0  0  0  0  0  0  0  0  0  0
    3.1922   -2.0711    0.0000 C   0  0  0  0  0  0  0  0  0  0  0  0
    1.2351   -2.3752    0.0000 C   0  0  0  0  0  0  0  0  0  0  0  0
    1.7671   -1.2541    0.0000 C   0  0  0  0  0  0  0  0  0  0  0  0
    0.8171   -3.0972    0.0000 C   0  0  0  0  0  0  0  0  0  0  0  0
    2.4892    0.0000    0.0000 C   0  0  0  0  0  0  0  0  0  0  0  0
    3.9142   -0.8361    0.0000 C   0  0  0  0  0  0  0  0  0  0  0  0
  1 10  1  0  0  0  0
  1 15  1  0  0  0  0
  2 11  1  0  0  0  0
  2 16  1  0  0  0  0
  3  9  2  0  0  0  0
  4  9  1  0  0  0  0
  5 14  2  0  0  0  0
  6 14  1  0  0  0  0
  7  8  1  0  0  0  0
  7 10  1  0  0  0  0
  7 11  1  0  0  0  0
  7 13  1  0  0  0  0
  8  9  1  0  0  0  0
  8 12  2  0  0  0  0
 12 14  1  0  0  0  0
M  END
> <PUBCHEM_COMPOUND_ID_TYPE>
0

> <PUBCHEM_TOTAL_CHARGE>
0

> <PUBCHEM_SUBSTANCE_ID>
310934646

> <PUBCHEM_SUBSTANCE_VERSION>
1

> <PUBCHEM_EXT_DATASOURCE_NAME>
4488

> <PUBCHEM_EXT_DATASOURCE_REGID>
SCHEMBL16112144

> <PUBCHEM_SUBSTANCE_COMMENT>
InChI=1S/C10H16O6/c1-10(5-15-2,6-16-3)7(9(13)14)4-8(11)12/h4H,5-6H2,1-3H3,(H,11,12)(H,13,14)/b7-4+
InChIKey=DWHJNLMMWHCDCV-QPJJXVBHSA-N

> <PUBCHEM_SUBSTANCE_SYNONYM>
SCHEMBL16112144

> <PUBCHEM_XREF_EXT_ID>
SCHEMBL16112144

> <PUBCHEM_EXT_DATASOURCE_URL>
https://www.surechembl.org/

> <PUBCHEM_EXT_SUBSTANCE_URL>
https://www.surechembl.org/chemical/SCHEMBL16112144

> <PUBCHEM_CID_ASSOCIATIONS>
117602814  1

> <PUBCHEM_COORDINATE_TYPE>
1
3

$$$$
