310943430
  -OEChem-07211613022D

 35 38  0     1  0  0  0  0  0999 V2000
    5.3276    1.2118    0.0000 F   0  0  0  0  0  0  0  0  0  0  0  0
    5.3276    0.3887    0.0000 F   0  0  0  0  0  0  0  0  0  0  0  0
   -3.8642   -1.0746    0.0000 O   0  0  0  0  0  0  0  0  0  0  0  0
   -5.3276    1.3643    0.0000 O   0  0  0  0  0  0  0  0  0  0  0  0
    1.7454    1.5472    0.0000 O   0  0  0  0  0  0  0  0  0  0  0  0
   -3.8947    0.5564    0.0000 N   0  0  3  0  0  0  0  0  0  0  0  0
   -2.4466   -1.0594    0.0000 N   0  0  0  0  0  0  0  0  0  0  0  0
   -1.7454   -0.6326    0.0000 N   0  0  0  0  0  0  0  0  0  0  0  0
    1.0746    0.2973    0.0000 N   0  0  0  0  0  0  0  0  0  0  0  0
    3.9252   -0.4497    0.0000 N   0  0  0  0  0  0  0  0  0  0  0  0
   -3.1782    0.1753    0.0000 C   0  0  0  0  0  0  0  0  0  0  0  0
   -1.7606    0.2210    0.0000 C   0  0  0  0  0  0  0  0  0  0  0  0
   -1.0746    0.6326    0.0000 C   0  0  0  0  0  0  0  0  0  0  0  0
   -3.1630   -0.6326    0.0000 C   0  0  0  0  0  0  0  0  0  0  0  0
   -2.4923    0.6021    0.0000 C   0  0  0  0  0  0  0  0  0  0  0  0
   -1.0594    1.4558    0.0000 C   0  0  0  0  0  0  0  0  0  0  0  0
   -0.3278    0.2667    0.0000 C   0  0  0  0  0  0  0  0  0  0  0  0
    0.3430    0.7088    0.0000 C   0  0  0  0  0  0  0  0  0  0  0  0
   -3.9099    1.3948    0.0000 C   0  0  3  0  0  0  0  0  0  0  0  0
   -4.5654    0.1601    0.0000 C   0  0  0  0  0  0  0  0  0  0  0  0
    2.4923    0.3430    0.0000 C   0  0  0  0  0  0  0  0  0  0  0  0
   -0.3430    1.8826    0.0000 C   0  0  0  0  0  0  0  0  0  0  0  0
    1.7454    0.7088    0.0000 C   0  0  0  0  0  0  0  0  0  0  0  0
    3.9252    0.3887    0.0000 C   0  0  0  0  0  0  0  0  0  0  0  0
    0.3430    1.5167    0.0000 C   0  0  0  0  0  0  0  0  0  0  0  0
    4.6417    0.8003    0.0000 C   0  0  0  0  0  0  0  0  0  0  0  0
    3.2240    0.7698    0.0000 C   0  0  0  0  0  0  0  0  0  0  0  0
   -4.6417    1.7911    0.0000 C   0  0  0  0  0  0  0  0  0  0  0  0
   -2.4009   -1.8826    0.0000 C   0  0  0  0  0  0  0  0  0  0  0  0
   -5.3123    0.5411    0.0000 C   0  0  0  0  0  0  0  0  0  0  0  0
    2.5075   -0.4954    0.0000 C   0  0  0  0  0  0  0  0  0  0  0  0
   -1.7911    1.8521    0.0000 C   0  0  0  0  0  0  0  0  0  0  0  0
   -3.2240    1.8216    0.0000 C   0  0  0  0  0  0  0  0  0  0  0  0
    3.2545   -0.8613    0.0000 C   0  0  0  0  0  0  0  0  0  0  0  0
    4.6111    1.6234    0.0000 C   0  0  0  0  0  0  0  0  0  0  0  0
  1 26  1  0  0  0  0
  2 26  1  0  0  0  0
  3 14  2  0  0  0  0
  4 28  1  0  0  0  0
  4 30  1  0  0  0  0
  5 23  2  0  0  0  0
  6 11  1  0  0  0  0
  6 19  1  0  0  0  0
  6 20  1  0  0  0  0
  7  8  1  0  0  0  0
  7 14  1  0  0  0  0
  7 29  1  0  0  0  0
  8 12  2  0  0  0  0
  9 18  1  0  0  0  0
  9 23  1  0  0  0  0
 10 24  1  0  0  0  0
 10 34  2  0  0  0  0
 11 14  1  0  0  0  0
 11 15  2  0  0  0  0
 12 13  1  0  0  0  0
 12 15  1  0  0  0  0
 13 16  1  0  0  0  0
 13 17  2  0  0  0  0
 16 22  2  0  0  0  0
 16 32  1  0  0  0  0
 17 18  1  0  0  0  0
 18 25  2  0  0  0  0
 19 28  1  0  0  0  0
 19 33  1  1  0  0  0
 20 30  1  0  0  0  0
 21 23  1  0  0  0  0
 21 27  1  0  0  0  0
 21 31  2  0  0  0  0
 22 25  1  0  0  0  0
 24 26  1  0  0  0  0
 24 27  2  0  0  0  0
 26 35  1  0  0  0  0
 31 34  1  0  0  0  0
M  END
> <PUBCHEM_COMPOUND_ID_TYPE>
0

> <PUBCHEM_TOTAL_CHARGE>
0

> <PUBCHEM_SUBSTANCE_ID>
310943430

> <PUBCHEM_SUBSTANCE_VERSION>
1

> <PUBCHEM_EXT_DATASOURCE_NAME>
4488

> <PUBCHEM_EXT_DATASOURCE_REGID>
SCHEMBL16121494

> <PUBCHEM_SUBSTANCE_COMMENT>
InChI=1S/C25H27F2N5O3/c1-15-5-6-18(29-23(33)17-7-8-28-22(11-17)25(3,26)27)12-19(15)20-13-21(24(34)31(4)30-20)32-9-10-35-14-16(32)2/h5-8,11-13,16H,9-10,14H2,1-4H3,(H,29,33)/t16-/m1/s1
InChIKey=RPPLBNDYDPFVJZ-MRXNPFEDSA-N

> <PUBCHEM_SUBSTANCE_SYNONYM>
SCHEMBL16121494

> <PUBCHEM_XREF_EXT_ID>
SCHEMBL16121494

> <PUBCHEM_EXT_DATASOURCE_URL>
https://www.surechembl.org/

> <PUBCHEM_EXT_SUBSTANCE_URL>
https://www.surechembl.org/chemical/SCHEMBL16121494

> <PUBCHEM_CID_ASSOCIATIONS>
117609854  1

> <PUBCHEM_COORDINATE_TYPE>
1
3

> <PUBCHEM_BONDANNOTATIONS>
19  33  5

$$$$
