310942312
  -OEChem-07211613022D

 26 29  0     0  0  0  0  0  0999 V2000
   -1.1872    0.1979    0.0000 Cl  0  0  0  0  0  0  0  0  0  0  0  0
    2.0395    1.0807    0.0000 O   0  0  0  0  0  0  0  0  0  0  0  0
   -2.6787   -0.4718    0.0000 N   0  0  0  0  0  0  0  0  0  0  0  0
    2.7396   -0.1979    0.0000 N   0  0  0  0  0  0  0  0  0  0  0  0
    4.2312   -1.0807    0.0000 N   0  0  0  0  0  0  0  0  0  0  0  0
   -1.6743   -1.0502    0.0000 C   0  0  0  0  0  0  0  0  0  0  0  0
   -0.1826   -1.0502    0.0000 C   0  0  0  0  0  0  0  0  0  0  0  0
    1.3090   -0.1979    0.0000 C   0  0  0  0  0  0  0  0  0  0  0  0
   -0.1826   -0.2283    0.0000 C   0  0  0  0  0  0  0  0  0  0  0  0
   -0.8828   -1.4764    0.0000 C   0  0  0  0  0  0  0  0  0  0  0  0
   -2.4048   -1.2937    0.0000 C   0  0  0  0  0  0  0  0  0  0  0  0
   -1.8873   -0.2283    0.0000 C   0  0  0  0  0  0  0  0  0  0  0  0
    2.0395    0.2283    0.0000 C   0  0  0  0  0  0  0  0  0  0  0  0
    0.5175    0.1979    0.0000 C   0  0  0  0  0  0  0  0  0  0  0  0
    0.6088   -1.4460    0.0000 C   0  0  0  0  0  0  0  0  0  0  0  0
    1.2785   -1.0807    0.0000 C   0  0  0  0  0  0  0  0  0  0  0  0
   -3.3789   -0.0457    0.0000 C   0  0  0  0  0  0  0  0  0  0  0  0
   -4.1399   -0.4414    0.0000 C   0  0  0  0  0  0  0  0  0  0  0  0
    3.5007    0.2283    0.0000 C   0  0  0  0  0  0  0  0  0  0  0  0
    4.2312   -0.1979    0.0000 C   0  0  0  0  0  0  0  0  0  0  0  0
   -4.9314   -0.4718    0.0000 C   0  0  0  0  0  0  0  0  0  0  0  0
   -4.5357   -1.1720    0.0000 C   0  0  0  0  0  0  0  0  0  0  0  0
    3.5311    1.0807    0.0000 C   0  0  0  0  0  0  0  0  0  0  0  0
    4.9314    0.2283    0.0000 C   0  0  0  0  0  0  0  0  0  0  0  0
    4.2312    1.4764    0.0000 C   0  0  0  0  0  0  0  0  0  0  0  0
    4.9314    1.0502    0.0000 C   0  0  0  0  0  0  0  0  0  0  0  0
  1  9  1  0  0  0  0
  2 13  2  0  0  0  0
  3 11  1  0  0  0  0
  3 12  1  0  0  0  0
  3 17  1  0  0  0  0
  4 13  1  0  0  0  0
  4 19  1  0  0  0  0
  5 20  1  0  0  0  0
  6 10  2  0  0  0  0
  6 11  1  0  0  0  0
  6 12  1  0  0  0  0
  7  9  2  0  0  0  0
  7 10  1  0  0  0  0
  7 15  1  0  0  0  0
  8 13  1  0  0  0  0
  8 14  2  0  0  0  0
  8 16  1  0  0  0  0
  9 14  1  0  0  0  0
 15 16  2  0  0  0  0
 17 18  1  0  0  0  0
 18 21  1  0  0  0  0
 18 22  1  0  0  0  0
 19 20  2  0  0  0  0
 19 23  1  0  0  0  0
 20 24  1  0  0  0  0
 21 22  1  0  0  0  0
 23 25  2  0  0  0  0
 24 26  2  0  0  0  0
 25 26  1  0  0  0  0
M  END
> <PUBCHEM_COMPOUND_ID_TYPE>
0

> <PUBCHEM_TOTAL_CHARGE>
0

> <PUBCHEM_SUBSTANCE_ID>
310942312

> <PUBCHEM_SUBSTANCE_VERSION>
1

> <PUBCHEM_EXT_DATASOURCE_NAME>
4488

> <PUBCHEM_EXT_DATASOURCE_REGID>
SCHEMBL16120348

> <PUBCHEM_SUBSTANCE_COMMENT>
InChI=1S/C21H22ClN3O/c22-18-10-17(21(26)24-20-4-2-1-3-19(20)23)8-7-16(18)9-15-12-25(13-15)11-14-5-6-14/h1-4,7-10,14H,5-6,11-13,23H2,(H,24,26)
InChIKey=JCAIDDFBBGYIQM-UHFFFAOYSA-N

> <PUBCHEM_SUBSTANCE_SYNONYM>
SCHEMBL16120348

> <PUBCHEM_XREF_EXT_ID>
SCHEMBL16120348

> <PUBCHEM_EXT_DATASOURCE_URL>
https://www.surechembl.org/

> <PUBCHEM_EXT_SUBSTANCE_URL>
https://www.surechembl.org/chemical/SCHEMBL16120348

> <PUBCHEM_CID_ASSOCIATIONS>
86268312  1

> <PUBCHEM_COORDINATE_TYPE>
1
3

$$$$
