310946842
  -OEChem-07211613022D

  6  5  0     0  0  0  0  0  0999 V2000
    1.0108    0.9134    0.0000 Cl  0  0  0  0  0  0  0  0  0  0  0  0
    0.5846    0.2070    0.0000 C   0  0  0  0  0  0  0  0  0  0  0  0
    0.6455   -0.8159    0.0000 C   0  0  0  0  0  0  0  0  0  0  0  0
   -0.2070    0.2192    0.0000 C   0  0  0  0  0  0  0  0  0  0  0  0
   -0.3045   -0.9134    0.0000 C   0  0  0  0  0  0  0  0  0  0  0  0
   -1.0108    0.2192    0.0000 C   0  0  0  0  0  0  0  0  0  0  0  0
  1  2  1  0  0  0  0
  2  3  2  0  0  0  0
  2  4  1  0  0  0  0
  3  5  1  0  0  0  0
  4  6  3  0  0  0  0
M  END
> <PUBCHEM_COMPOUND_ID_TYPE>
0

> <PUBCHEM_TOTAL_CHARGE>
0

> <PUBCHEM_SUBSTANCE_ID>
310946842

> <PUBCHEM_SUBSTANCE_VERSION>
1

> <PUBCHEM_EXT_DATASOURCE_NAME>
4488

> <PUBCHEM_EXT_DATASOURCE_REGID>
SCHEMBL16124966

> <PUBCHEM_SUBSTANCE_COMMENT>
InChI=1S/C5H5Cl/c1-3-5(6)4-2/h1,4H,2H3/b5-4+
InChIKey=RDVRQKXBLKBUAE-SNAWJCMRSA-N

> <PUBCHEM_SUBSTANCE_SYNONYM>
SCHEMBL16124966

> <PUBCHEM_XREF_EXT_ID>
SCHEMBL16124966

> <PUBCHEM_EXT_DATASOURCE_URL>
https://www.surechembl.org/

> <PUBCHEM_EXT_SUBSTANCE_URL>
https://www.surechembl.org/chemical/SCHEMBL16124966

> <PUBCHEM_CID_ASSOCIATIONS>
117612701  1

> <PUBCHEM_COORDINATE_TYPE>
1
3

$$$$
