310944804
  -OEChem-07211613022D

 16 16  0     1  0  0  0  0  0999 V2000
    2.0312    0.8278    0.0000 O   0  0  0  0  0  0  0  0  0  0  0  0
   -2.3233    0.8278    0.0000 O   0  0  0  0  0  0  0  0  0  0  0  0
   -0.8765    0.8278    0.0000 O   0  0  0  0  0  0  0  0  0  0  0  0
   -2.3233   -0.8278    0.0000 N   0  0  0  0  0  0  0  0  0  0  0  0
   -0.1531   -0.4243    0.0000 C   0  0  0  0  0  0  0  0  0  0  0  0
   -1.5860   -0.4243    0.0000 C   0  0  3  0  0  0  0  0  0  0  0  0
   -0.8626   -0.8278    0.0000 C   0  0  0  0  0  0  0  0  0  0  0  0
    1.3077    0.4243    0.0000 C   0  0  0  0  0  0  0  0  0  0  0  0
   -0.1252    0.4104    0.0000 C   0  0  0  0  0  0  0  0  0  0  0  0
    0.5982   -0.8278    0.0000 C   0  0  0  0  0  0  0  0  0  0  0  0
    0.5843    0.8138    0.0000 C   0  0  0  0  0  0  0  0  0  0  0  0
    1.2938   -0.4243    0.0000 C   0  0  0  0  0  0  0  0  0  0  0  0
   -1.5442    0.4521    0.0000 C   0  0  0  0  0  0  0  0  0  0  0  0
    2.7268    0.4243    0.0000 C   0  0  0  0  0  0  0  0  0  0  0  0
   -3.0328   -0.4521    0.0000 C   0  0  0  0  0  0  0  0  0  0  0  0
    3.0328    0.7443    0.0000 C   0  0  0  0  0  0  0  0  0  0  0  0
  1  8  1  0  0  0  0
  1 14  1  0  0  0  0
  2 13  2  0  0  0  0
  3 13  1  0  0  0  0
  6  4  1  6  0  0  0
  4 15  1  0  0  0  0
  5  7  1  0  0  0  0
  5  9  2  0  0  0  0
  5 10  1  0  0  0  0
  6  7  1  0  0  0  0
  6 13  1  0  0  0  0
  8 11  2  0  0  0  0
  8 12  1  0  0  0  0
  9 11  1  0  0  0  0
 10 12  2  0  0  0  0
 14 16  1  0  0  0  0
M  END
> <PUBCHEM_COMPOUND_ID_TYPE>
0

> <PUBCHEM_TOTAL_CHARGE>
0

> <PUBCHEM_SUBSTANCE_ID>
310944804

> <PUBCHEM_SUBSTANCE_VERSION>
1

> <PUBCHEM_EXT_DATASOURCE_NAME>
4488

> <PUBCHEM_EXT_DATASOURCE_REGID>
SCHEMBL16122883

> <PUBCHEM_SUBSTANCE_COMMENT>
InChI=1S/C12H17NO3/c1-3-16-10-6-4-9(5-7-10)8-11(13-2)12(14)15/h4-7,11,13H,3,8H2,1-2H3,(H,14,15)/t11-/m0/s1
InChIKey=XKNKVGNAUYLLLD-NSHDSACASA-N

> <PUBCHEM_SUBSTANCE_SYNONYM>
SCHEMBL16122883

> <PUBCHEM_XREF_EXT_ID>
SCHEMBL16122883

> <PUBCHEM_EXT_DATASOURCE_URL>
https://www.surechembl.org/

> <PUBCHEM_EXT_SUBSTANCE_URL>
https://www.surechembl.org/chemical/SCHEMBL16122883

> <PUBCHEM_CID_ASSOCIATIONS>
96372049  1

> <PUBCHEM_COORDINATE_TYPE>
1
3

> <PUBCHEM_BONDANNOTATIONS>
16  14  3
6  4  6

$$$$
