310949116
  -OEChem-07211613022D

 15 17  0     0  0  0  0  0  0999 V2000
   -0.7652   -0.2087    0.0000 N   0  0  0  0  0  0  0  0  0  0  0  0
    1.3715    1.0336    0.0000 N   0  0  0  0  0  0  0  0  0  0  0  0
    0.6460    1.4510    0.0000 N   0  0  0  0  0  0  0  0  0  0  0  0
    0.6460   -1.0236    0.0000 N   0  0  0  0  0  0  0  0  0  0  0  0
   -0.7553    1.4510    0.0000 N   0  0  0  0  0  0  0  0  0  0  0  0
    2.0870   -0.2087    0.0000 N   0  0  0  0  0  0  0  0  0  0  0  0
   -1.4610    1.0535    0.0000 N   0  0  0  0  0  0  0  0  0  0  0  0
    1.3616   -1.4510    0.0000 N   0  0  0  0  0  0  0  0  0  0  0  0
    2.0870   -1.0336    0.0000 N   0  0  0  0  0  0  0  0  0  0  0  0
   -0.0895    0.2286    0.0000 C   0  0  0  0  0  0  0  0  0  0  0  0
    0.6560   -0.1789    0.0000 C   0  0  0  0  0  0  0  0  0  0  0  0
    1.3616    0.2186    0.0000 C   0  0  0  0  0  0  0  0  0  0  0  0
   -0.0795    1.0535    0.0000 C   0  0  0  0  0  0  0  0  0  0  0  0
   -1.4710    0.2286    0.0000 C   0  0  0  0  0  0  0  0  0  0  0  0
   -2.0870   -0.1193    0.0000 C   0  0  0  0  0  0  0  0  0  0  0  0
  1 10  2  0  0  0  0
  1 14  1  0  0  0  0
  2  3  2  0  0  0  0
  2 12  1  0  0  0  0
  3 13  1  0  0  0  0
  4  8  1  0  0  0  0
  4 11  2  0  0  0  0
  5  7  1  0  0  0  0
  5 13  2  0  0  0  0
  6  9  1  0  0  0  0
  6 12  2  0  0  0  0
  7 14  2  0  0  0  0
  8  9  2  0  0  0  0
 10 11  1  0  0  0  0
 10 13  1  0  0  0  0
 11 12  1  0  0  0  0
 14 15  1  0  0  0  0
M  END
> <PUBCHEM_COMPOUND_ID_TYPE>
0

> <PUBCHEM_TOTAL_CHARGE>
0

> <PUBCHEM_SUBSTANCE_ID>
310949116

> <PUBCHEM_SUBSTANCE_VERSION>
1

> <PUBCHEM_EXT_DATASOURCE_NAME>
4488

> <PUBCHEM_EXT_DATASOURCE_REGID>
SCHEMBL16127306

> <PUBCHEM_SUBSTANCE_COMMENT>
InChI=1S/C6H3N9/c1-2-7-3-4-6(13-15-14-9-4)12-11-5(3)10-8-2/h1H3
InChIKey=HURLQOKEWTVLDS-UHFFFAOYSA-N

> <PUBCHEM_SUBSTANCE_SYNONYM>
SCHEMBL16127306

> <PUBCHEM_XREF_EXT_ID>
SCHEMBL16127306

> <PUBCHEM_EXT_DATASOURCE_URL>
https://www.surechembl.org/

> <PUBCHEM_EXT_SUBSTANCE_URL>
https://www.surechembl.org/chemical/SCHEMBL16127306

> <PUBCHEM_CID_ASSOCIATIONS>
117614613  1

> <PUBCHEM_COORDINATE_TYPE>
1
3

$$$$
