310929101
  -OEChem-07211613022D

 55 59  0     0  0  0  0  0  0999 V2000
    9.9762   -2.1972    0.0000 O   0  0  0  0  0  0  0  0  0  0  0  0
   13.6579   -2.9691    0.0000 O   0  0  0  0  0  0  0  0  0  0  0  0
   13.2422   -0.8313    0.0000 O   0  0  0  0  0  0  0  0  0  0  0  0
    4.9881   -2.0784    0.0000 O   0  0  0  0  0  0  0  0  0  0  0  0
    7.5415   -0.7126    0.0000 O   0  0  0  0  0  0  0  0  0  0  0  0
    4.5130   -4.2161    0.0000 O   0  0  0  0  0  0  0  0  0  0  0  0
    2.4347   -4.8693    0.0000 O   0  0  0  0  0  0  0  0  0  0  0  0
    0.8313   -3.4441    0.0000 O   0  0  0  0  0  0  0  0  0  0  0  0
   13.2422   -2.2565    0.0000 N   0  0  0  0  0  0  0  0  0  0  0  0
   14.4893   -1.5439    0.0000 N   0  0  0  0  0  0  0  0  0  0  0  0
    8.7292   -2.9097    0.0000 N   0  0  0  0  0  0  0  0  0  0  0  0
    7.4227   -3.5629    0.0000 N   0  0  0  0  0  0  0  0  0  0  0  0
    8.6698   -4.3349    0.0000 N   0  0  0  0  0  0  0  0  0  0  0  0
   14.9049   -5.1069    0.0000 N   0  0  0  0  0  0  0  0  0  0  0  0
   12.0546   -1.5439    0.0000 C   0  0  0  0  0  0  0  0  0  0  0  0
   11.2233   -1.5439    0.0000 C   0  0  0  0  0  0  0  0  0  0  0  0
   12.4109   -2.2565    0.0000 C   0  0  0  0  0  0  0  0  0  0  0  0
   10.8075   -2.2565    0.0000 C   0  0  0  0  0  0  0  0  0  0  0  0
   14.9049   -2.2565    0.0000 C   0  0  0  0  0  0  0  0  0  0  0  0
   14.4893   -2.9691    0.0000 C   0  0  0  0  0  0  0  0  0  0  0  0
   16.1520   -2.9691    0.0000 C   0  0  0  0  0  0  0  0  0  0  0  0
   14.9049   -3.6817    0.0000 C   0  0  0  0  0  0  0  0  0  0  0  0
   11.9952   -2.9691    0.0000 C   0  0  0  0  0  0  0  0  0  0  0  0
   15.7363   -2.2565    0.0000 C   0  0  0  0  0  0  0  0  0  0  0  0
   11.1638   -2.9691    0.0000 C   0  0  0  0  0  0  0  0  0  0  0  0
   16.9833   -2.9691    0.0000 C   0  0  0  0  0  0  0  0  0  0  0  0
   15.7363   -3.6817    0.0000 C   0  0  0  0  0  0  0  0  0  0  0  0
   12.4702   -0.8313    0.0000 C   0  0  0  0  0  0  0  0  0  0  0  0
   10.8075   -0.8313    0.0000 C   0  0  0  0  0  0  0  0  0  0  0  0
   13.6579   -1.5439    0.0000 C   0  0  0  0  0  0  0  0  0  0  0  0
    9.5011   -2.9097    0.0000 C   0  0  0  0  0  0  0  0  0  0  0  0
   12.0546   -0.1188    0.0000 C   0  0  0  0  0  0  0  0  0  0  0  0
   11.2233   -0.1188    0.0000 C   0  0  0  0  0  0  0  0  0  0  0  0
    8.2541   -3.6223    0.0000 C   0  0  0  0  0  0  0  0  0  0  0  0
   14.4893   -4.3943    0.0000 C   0  0  0  0  0  0  0  0  0  0  0  0
    9.9762   -3.6223    0.0000 C   0  0  0  0  0  0  0  0  0  0  0  0
    7.0665   -2.8503    0.0000 C   0  0  0  0  0  0  0  0  0  0  0  0
   16.9833   -3.8004    0.0000 C   0  0  0  0  0  0  0  0  0  0  0  0
   17.8147   -2.9691    0.0000 C   0  0  0  0  0  0  0  0  0  0  0  0
   16.9833   -2.1377    0.0000 C   0  0  0  0  0  0  0  0  0  0  0  0
    9.5011   -4.3349    0.0000 C   0  0  0  0  0  0  0  0  0  0  0  0
    5.8195   -2.1377    0.0000 C   0  0  0  0  0  0  0  0  0  0  0  0
    6.2351   -2.8503    0.0000 C   0  0  0  0  0  0  0  0  0  0  0  0
    7.4822   -2.1377    0.0000 C   0  0  0  0  0  0  0  0  0  0  0  0
    7.0665   -1.4252    0.0000 C   0  0  0  0  0  0  0  0  0  0  0  0
    6.2945   -1.4252    0.0000 C   0  0  0  0  0  0  0  0  0  0  0  0
   13.2422   -3.6817    0.0000 C   0  0  0  0  0  0  0  0  0  0  0  0
    4.5724   -2.7910    0.0000 C   0  0  0  0  0  0  0  0  0  0  0  0
    7.1259    0.0000    0.0000 C   0  0  0  0  0  0  0  0  0  0  0  0
    4.9287   -3.5036    0.0000 C   0  0  0  0  0  0  0  0  0  0  0  0
    3.6817   -4.2161    0.0000 C   0  0  0  0  0  0  0  0  0  0  0  0
    3.2660   -4.9287    0.0000 C   0  0  0  0  0  0  0  0  0  0  0  0
    2.0190   -4.1567    0.0000 C   0  0  0  0  0  0  0  0  0  0  0  0
    1.2470   -4.1567    0.0000 C   0  0  0  0  0  0  0  0  0  0  0  0
    0.0000   -3.4441    0.0000 C   0  0  0  0  0  0  0  0  0  0  0  0
  1 18  1  0  0  0  0
  1 31  1  0  0  0  0
  2 20  1  0  0  0  0
  2 47  1  0  0  0  0
  3 30  2  0  0  0  0
  4 42  1  0  0  0  0
  4 48  1  0  0  0  0
  5 45  1  0  0  0  0
  5 49  1  0  0  0  0
  6 50  1  0  0  0  0
  6 51  1  0  0  0  0
  7 52  1  0  0  0  0
  7 53  1  0  0  0  0
  8 54  1  0  0  0  0
  8 55  1  0  0  0  0
  9 17  1  0  0  0  0
  9 30  1  0  0  0  0
 10 19  1  0  0  0  0
 10 30  1  0  0  0  0
 11 31  2  0  0  0  0
 11 34  1  0  0  0  0
 12 34  1  0  0  0  0
 12 37  1  0  0  0  0
 13 34  2  0  0  0  0
 13 41  1  0  0  0  0
 14 35  3  0  0  0  0
 15 16  2  0  0  0  0
 15 17  1  0  0  0  0
 15 28  1  0  0  0  0
 16 18  1  0  0  0  0
 16 29  1  0  0  0  0
 17 23  2  0  0  0  0
 18 25  2  0  0  0  0
 19 20  1  0  0  0  0
 19 24  2  0  0  0  0
 20 22  2  0  0  0  0
 21 24  1  0  0  0  0
 21 26  1  0  0  0  0
 21 27  2  0  0  0  0
 22 27  1  0  0  0  0
 22 35  1  0  0  0  0
 23 25  1  0  0  0  0
 26 38  1  0  0  0  0
 26 39  1  0  0  0  0
 26 40  1  0  0  0  0
 28 32  2  0  0  0  0
 29 33  2  0  0  0  0
 31 36  1  0  0  0  0
 32 33  1  0  0  0  0
 36 41  2  0  0  0  0
 37 43  2  0  0  0  0
 37 44  1  0  0  0  0
 42 43  1  0  0  0  0
 42 46  2  0  0  0  0
 44 45  2  0  0  0  0
 45 46  1  0  0  0  0
 48 50  1  0  0  0  0
 51 52  1  0  0  0  0
 53 54  1  0  0  0  0
M  END
> <PUBCHEM_COMPOUND_ID_TYPE>
0

> <PUBCHEM_TOTAL_CHARGE>
0

> <PUBCHEM_SUBSTANCE_ID>
310929101

> <PUBCHEM_SUBSTANCE_VERSION>
1

> <PUBCHEM_EXT_DATASOURCE_NAME>
4488

> <PUBCHEM_EXT_DATASOURCE_REGID>
SCHEMBL16106263

> <PUBCHEM_SUBSTANCE_COMMENT>
InChI=1S/C41H46N6O8/c1-41(2,3)28-21-27(26-42)38(51-6)35(22-28)46-40(48)45-34-11-12-36(33-10-8-7-9-32(33)34)55-37-13-14-43-39(47-37)44-29-23-30(50-5)25-31(24-29)54-20-19-53-18-17-52-16-15-49-4/h7-14,21-25H,15-20H2,1-6H3,(H,43,44,47)(H2,45,46,48)
InChIKey=GPUULLKUPYPMEV-UHFFFAOYSA-N

> <PUBCHEM_SUBSTANCE_SYNONYM>
SCHEMBL16106263

> <PUBCHEM_XREF_EXT_ID>
SCHEMBL16106263

> <PUBCHEM_EXT_DATASOURCE_URL>
https://www.surechembl.org/

> <PUBCHEM_EXT_SUBSTANCE_URL>
https://www.surechembl.org/chemical/SCHEMBL16106263

> <PUBCHEM_CID_ASSOCIATIONS>
86275462  1

> <PUBCHEM_COORDINATE_TYPE>
1
3

$$$$
