310945002
  -OEChem-07211613022D

 28 32  0     0  0  0  0  0  0999 V2000
    4.2242   -0.1391    0.0000 O   0  0  0  0  0  0  0  0  0  0  0  0
   -2.7929    1.1430    0.0000 O   0  0  0  0  0  0  0  0  0  0  0  0
    1.6897   -1.3418    0.0000 N   0  0  0  0  0  0  0  0  0  0  0  0
   -0.6361    0.7255    0.0000 N   0  0  0  0  0  0  0  0  0  0  0  0
   -3.5086   -0.1094    0.0000 N   0  0  0  0  0  0  0  0  0  0  0  0
    1.5207   -0.5169    0.0000 C   0  0  0  0  0  0  0  0  0  0  0  0
    2.2164   -0.0994    0.0000 C   0  0  0  0  0  0  0  0  0  0  0  0
    2.8426   -0.6660    0.0000 C   0  0  0  0  0  0  0  0  0  0  0  0
    0.7852   -0.1094    0.0000 C   0  0  0  0  0  0  0  0  0  0  0  0
    2.5047   -1.4312    0.0000 C   0  0  0  0  0  0  0  0  0  0  0  0
    0.8051    0.7255    0.0000 C   0  0  0  0  0  0  0  0  0  0  0  0
    3.6478   -0.7752    0.0000 C   0  0  0  0  0  0  0  0  0  0  0  0
    2.2264    0.7255    0.0000 C   0  0  0  0  0  0  0  0  0  0  0  0
    0.0795   -0.5268    0.0000 C   0  0  0  0  0  0  0  0  0  0  0  0
    3.1309   -1.9878    0.0000 C   0  0  0  0  0  0  0  0  0  0  0  0
    1.5207    1.1331    0.0000 C   0  0  0  0  0  0  0  0  0  0  0  0
   -0.6460   -0.1094    0.0000 C   0  0  0  0  0  0  0  0  0  0  0  0
    3.8366   -1.5704    0.0000 C   0  0  0  0  0  0  0  0  0  0  0  0
    0.0696    1.1430    0.0000 C   0  0  0  0  0  0  0  0  0  0  0  0
   -1.3617   -0.5268    0.0000 C   0  0  0  0  0  0  0  0  0  0  0  0
   -2.0674   -0.1192    0.0000 C   0  0  0  0  0  0  0  0  0  0  0  0
   -1.3617   -1.3617    0.0000 C   0  0  0  0  0  0  0  0  0  0  0  0
   -2.7830   -0.5268    0.0000 C   0  0  0  0  0  0  0  0  0  0  0  0
   -2.0674   -1.7692    0.0000 C   0  0  0  0  0  0  0  0  0  0  0  0
   -2.7830   -1.3617    0.0000 C   0  0  0  0  0  0  0  0  0  0  0  0
   -3.5284    0.7157    0.0000 C   0  0  0  0  0  0  0  0  0  0  0  0
   -4.2242    1.1430    0.0000 C   0  0  0  0  0  0  0  0  0  0  0  0
   -4.1546    1.9878    0.0000 C   0  0  0  0  0  0  0  0  0  0  0  0
  1 12  2  0  0  0  0
  2 26  2  0  0  0  0
  3  6  1  0  0  0  0
  3 10  1  0  0  0  0
  4 17  2  0  0  0  0
  4 19  1  0  0  0  0
  5 23  1  0  0  0  0
  5 26  1  0  0  0  0
  6  7  2  0  0  0  0
  6  9  1  0  0  0  0
  7  8  1  0  0  0  0
  7 13  1  0  0  0  0
  8 10  2  0  0  0  0
  8 12  1  0  0  0  0
  9 11  1  0  0  0  0
  9 14  2  0  0  0  0
 10 15  1  0  0  0  0
 11 16  1  0  0  0  0
 11 19  2  0  0  0  0
 12 18  1  0  0  0  0
 13 16  1  0  0  0  0
 14 17  1  0  0  0  0
 15 18  1  0  0  0  0
 17 20  1  0  0  0  0
 20 21  2  0  0  0  0
 20 22  1  0  0  0  0
 21 23  1  0  0  0  0
 22 24  2  0  0  0  0
 23 25  2  0  0  0  0
 24 25  1  0  0  0  0
 26 27  1  0  0  0  0
 27 28  2  0  0  0  0
M  END
> <PUBCHEM_COMPOUND_ID_TYPE>
0

> <PUBCHEM_TOTAL_CHARGE>
0

> <PUBCHEM_SUBSTANCE_ID>
310945002

> <PUBCHEM_SUBSTANCE_VERSION>
1

> <PUBCHEM_EXT_DATASOURCE_NAME>
4488

> <PUBCHEM_EXT_DATASOURCE_REGID>
SCHEMBL16123090

> <PUBCHEM_SUBSTANCE_COMMENT>
InChI=1S/C23H19N3O2/c1-2-21(28)25-15-5-3-4-13(10-15)19-11-17-14(12-24-19)6-7-16-22-18(26-23(16)17)8-9-20(22)27/h2-5,10-12,26H,1,6-9H2,(H,25,28)
InChIKey=SZFGMELGNRZHLD-UHFFFAOYSA-N

> <PUBCHEM_SUBSTANCE_SYNONYM>
SCHEMBL16123090

> <PUBCHEM_XREF_EXT_ID>
SCHEMBL16123090

> <PUBCHEM_EXT_DATASOURCE_URL>
https://www.surechembl.org/

> <PUBCHEM_EXT_SUBSTANCE_URL>
https://www.surechembl.org/chemical/SCHEMBL16123090

> <PUBCHEM_CID_ASSOCIATIONS>
86301039  1

> <PUBCHEM_COORDINATE_TYPE>
1
3

$$$$
