310930195
  -OEChem-07211613022D

 38 41  0     1  0  0  0  0  0999 V2000
    5.3296   -4.0997    0.0000 F   0  0  0  0  0  0  0  0  0  0  0  0
    4.1453   -3.2797    0.0000 F   0  0  0  0  0  0  0  0  0  0  0  0
    4.8741   -4.7830    0.0000 F   0  0  0  0  0  0  0  0  0  0  0  0
    4.4186   -4.8741    0.0000 O   0  0  0  0  0  0  0  0  0  0  0  0
    1.5032   -6.2406    0.0000 O   0  0  0  0  0  0  0  0  0  0  0  0
    2.1865   -1.2299    0.0000 O   0  0  0  0  0  0  0  0  0  0  0  0
    1.4577    0.0000    0.0000 O   0  0  0  0  0  0  0  0  0  0  0  0
    1.2754   -8.4271    0.0000 O   0  0  0  0  0  0  0  0  0  0  0  0
    0.7288   -2.0954    0.0000 N   0  0  0  0  0  0  0  0  0  0  0  0
    0.0911   -2.5509    0.0000 N   0  0  0  0  0  0  0  0  0  0  0  0
    3.7808   -4.3730    0.0000 C   0  0  3  0  0  0  0  0  0  0  0  0
    3.0065   -4.6007    0.0000 C   0  0  0  0  0  0  0  0  0  0  0  0
    2.5054   -3.9175    0.0000 C   0  0  0  0  0  0  0  0  0  0  0  0
    3.8263   -3.5075    0.0000 C   0  0  0  0  0  0  0  0  0  0  0  0
    3.0065   -3.2797    0.0000 C   0  0  0  0  0  0  0  0  0  0  0  0
    4.5097   -4.0086    0.0000 C   0  0  0  0  0  0  0  0  0  0  0  0
    1.6398   -4.0086    0.0000 C   0  0  0  0  0  0  0  0  0  0  0  0
    2.6420   -5.4207    0.0000 C   0  0  0  0  0  0  0  0  0  0  0  0
    1.1844   -3.3709    0.0000 C   0  0  0  0  0  0  0  0  0  0  0  0
    4.4186   -3.0065    0.0000 C   0  0  0  0  0  0  0  0  0  0  0  0
    1.8221   -5.4662    0.0000 C   0  0  0  0  0  0  0  0  0  0  0  0
    1.3210   -4.7830    0.0000 C   0  0  0  0  0  0  0  0  0  0  0  0
    2.8698   -2.4598    0.0000 C   0  0  0  0  0  0  0  0  0  0  0  0
    4.2363   -2.1865    0.0000 C   0  0  0  0  0  0  0  0  0  0  0  0
    1.4121   -2.5509    0.0000 C   0  0  0  0  0  0  0  0  0  0  0  0
    3.4619   -1.9132    0.0000 C   0  0  0  0  0  0  0  0  0  0  0  0
    0.3644   -3.3709    0.0000 C   0  0  0  0  0  0  0  0  0  0  0  0
    0.7288   -1.2299    0.0000 C   0  0  0  0  0  0  0  0  0  0  0  0
    1.4577   -0.8200    0.0000 C   0  0  0  0  0  0  0  0  0  0  0  0
    1.9588   -6.9239    0.0000 C   0  0  0  0  0  0  0  0  0  0  0  0
    0.0456   -0.8200    0.0000 C   0  0  0  0  0  0  0  0  0  0  0  0
    0.0000   -1.6398    0.0000 C   0  0  0  0  0  0  0  0  0  0  0  0
    1.6398   -7.6527    0.0000 C   0  0  0  0  0  0  0  0  0  0  0  0
    2.0954   -8.3360    0.0000 C   0  0  0  0  0  0  0  0  0  0  0  0
    2.9153   -0.8200    0.0000 C   0  0  0  0  0  0  0  0  0  0  0  0
    1.7765   -9.1104    0.0000 C   0  0  0  0  0  0  0  0  0  0  0  0
    2.9153   -8.2449    0.0000 C   0  0  0  0  0  0  0  0  0  0  0  0
    2.9153    0.0000    0.0000 C   0  0  0  0  0  0  0  0  0  0  0  0
  1 16  1  0  0  0  0
  2 16  1  0  0  0  0
  3 16  1  0  0  0  0
 11  4  1  1  0  0  0
  5 21  1  0  0  0  0
  5 30  1  0  0  0  0
  6 29  1  0  0  0  0
  6 35  1  0  0  0  0
  7 29  2  0  0  0  0
  8 34  1  0  0  0  0
  9 10  1  0  0  0  0
  9 25  1  0  0  0  0
  9 28  1  0  0  0  0
 10 27  2  0  0  0  0
 11 12  1  0  0  0  0
 11 14  1  0  0  0  0
 11 16  1  6  0  0  0
 12 13  2  0  0  0  0
 12 18  1  0  0  0  0
 13 15  1  0  0  0  0
 13 17  1  0  0  0  0
 14 15  2  0  0  0  0
 14 20  1  0  0  0  0
 15 23  1  0  0  0  0
 17 19  1  0  0  0  0
 17 22  2  0  0  0  0
 18 21  2  0  0  0  0
 19 25  2  0  0  0  0
 19 27  1  0  0  0  0
 20 24  2  0  0  0  0
 21 22  1  0  0  0  0
 23 26  2  0  0  0  0
 24 26  1  0  0  0  0
 28 29  1  0  0  0  0
 28 31  1  0  0  0  0
 28 32  1  0  0  0  0
 30 33  1  0  0  0  0
 33 34  1  0  0  0  0
 34 36  1  0  0  0  0
 34 37  1  0  0  0  0
 35 38  1  0  0  0  0
M  END
> <PUBCHEM_COMPOUND_ID_TYPE>
0

> <PUBCHEM_TOTAL_CHARGE>
0

> <PUBCHEM_SUBSTANCE_ID>
310930195

> <PUBCHEM_SUBSTANCE_VERSION>
1

> <PUBCHEM_EXT_DATASOURCE_NAME>
4488

> <PUBCHEM_EXT_DATASOURCE_REGID>
SCHEMBL16107460

> <PUBCHEM_SUBSTANCE_COMMENT>
InChI=1S/C28H31F3N2O5/c1-6-37-24(34)26(4,5)33-16-17(15-32-33)20-13-18(38-12-11-25(2,3)35)14-22-23(20)19-9-7-8-10-21(19)27(22,36)28(29,30)31/h7-10,13-16,35-36H,6,11-12H2,1-5H3/t27-/m1/s1
InChIKey=WTZRLKSCBWIEGO-HHHXNRCGSA-N

> <PUBCHEM_SUBSTANCE_SYNONYM>
SCHEMBL16107460

> <PUBCHEM_XREF_EXT_ID>
SCHEMBL16107460

> <PUBCHEM_EXT_DATASOURCE_URL>
https://www.surechembl.org/

> <PUBCHEM_EXT_SUBSTANCE_URL>
https://www.surechembl.org/chemical/SCHEMBL16107460

> <PUBCHEM_CID_ASSOCIATIONS>
117599404  1

> <PUBCHEM_COORDINATE_TYPE>
1
3

> <PUBCHEM_BONDANNOTATIONS>
11  16  6
11  4  5

$$$$
