310947604
  -OEChem-07211613022D

 29 31  0     0  0  0  0  0  0999 V2000
    1.9750   -0.3919    0.0000 S   0  0  0  0  0  0  0  0  0  0  0  0
   -0.4437   -0.8190    0.0000 F   0  0  0  0  0  0  0  0  0  0  0  0
   -1.1834    1.9416    0.0000 F   0  0  0  0  0  0  0  0  0  0  0  0
   -2.1938    0.9311    0.0000 O   0  0  0  0  0  0  0  0  0  0  0  0
   -4.0375    0.9459    0.0000 O   0  0  0  0  0  0  0  0  0  0  0  0
    1.9750    0.4331    0.0000 O   0  0  0  0  0  0  0  0  0  0  0  0
    1.9750   -1.2169    0.0000 O   0  0  0  0  0  0  0  0  0  0  0  0
   -1.8240   -1.7840    0.0000 N   0  0  0  0  0  0  0  0  0  0  0  0
   -3.3231   -1.9416    0.0000 N   0  0  0  0  0  0  0  0  0  0  0  0
    1.1500   -0.3919    0.0000 N   0  0  0  0  0  0  0  0  0  0  0  0
   -4.0375   -0.7041    0.0000 N   0  0  0  0  0  0  0  0  0  0  0  0
   -1.8240   -0.4491    0.0000 C   0  0  0  0  0  0  0  0  0  0  0  0
   -2.6086   -0.7041    0.0000 C   0  0  0  0  0  0  0  0  0  0  0  0
   -0.8136    0.5613    0.0000 C   0  0  0  0  0  0  0  0  0  0  0  0
   -1.6105    0.3478    0.0000 C   0  0  0  0  0  0  0  0  0  0  0  0
   -2.6086   -1.5291    0.0000 C   0  0  0  0  0  0  0  0  0  0  0  0
   -0.2302   -0.0221    0.0000 C   0  0  0  0  0  0  0  0  0  0  0  0
   -3.3231   -0.2916    0.0000 C   0  0  0  0  0  0  0  0  0  0  0  0
   -0.6000    1.3582    0.0000 C   0  0  0  0  0  0  0  0  0  0  0  0
    0.5667    0.1915    0.0000 C   0  0  0  0  0  0  0  0  0  0  0  0
   -1.3391   -1.1166    0.0000 C   0  0  0  0  0  0  0  0  0  0  0  0
    0.1968    1.5717    0.0000 C   0  0  0  0  0  0  0  0  0  0  0  0
    0.7802    0.9884    0.0000 C   0  0  0  0  0  0  0  0  0  0  0  0
   -4.0375   -1.5291    0.0000 C   0  0  0  0  0  0  0  0  0  0  0  0
   -3.3231    0.5334    0.0000 C   0  0  0  0  0  0  0  0  0  0  0  0
    2.8000   -0.3919    0.0000 C   0  0  0  0  0  0  0  0  0  0  0  0
    3.2125   -1.1064    0.0000 C   0  0  0  0  0  0  0  0  0  0  0  0
   -4.0375    1.7709    0.0000 C   0  0  0  0  0  0  0  0  0  0  0  0
    4.0375   -1.1064    0.0000 C   0  0  0  0  0  0  0  0  0  0  0  0
  1  6  2  0  0  0  0
  1  7  2  0  0  0  0
  1 10  1  0  0  0  0
  1 26  1  0  0  0  0
  2 17  1  0  0  0  0
  3 19  1  0  0  0  0
  4 15  2  0  0  0  0
  5 25  1  0  0  0  0
  5 28  1  0  0  0  0
  8 16  1  0  0  0  0
  8 21  1  0  0  0  0
  9 16  2  0  0  0  0
  9 24  1  0  0  0  0
 10 20  1  0  0  0  0
 11 18  1  0  0  0  0
 11 24  2  0  0  0  0
 12 13  1  0  0  0  0
 12 15  1  0  0  0  0
 12 21  2  0  0  0  0
 13 16  1  0  0  0  0
 13 18  2  0  0  0  0
 14 15  1  0  0  0  0
 14 17  2  0  0  0  0
 14 19  1  0  0  0  0
 17 20  1  0  0  0  0
 18 25  1  0  0  0  0
 19 22  2  0  0  0  0
 20 23  2  0  0  0  0
 22 23  1  0  0  0  0
 26 27  1  0  0  0  0
 27 29  1  0  0  0  0
M  END
> <PUBCHEM_COMPOUND_ID_TYPE>
0

> <PUBCHEM_TOTAL_CHARGE>
0

> <PUBCHEM_SUBSTANCE_ID>
310947604

> <PUBCHEM_SUBSTANCE_VERSION>
1

> <PUBCHEM_EXT_DATASOURCE_NAME>
4488

> <PUBCHEM_EXT_DATASOURCE_REGID>
SCHEMBL16125767

> <PUBCHEM_SUBSTANCE_COMMENT>
InChI=1S/C18H18F2N4O4S/c1-3-6-29(26,27)24-12-5-4-11(19)15(16(12)20)17(25)10-7-21-18-14(10)13(8-28-2)22-9-23-18/h4-5,7,9,24H,3,6,8H2,1-2H3,(H,21,22,23)
InChIKey=ZLOGVTBNFDWSSW-UHFFFAOYSA-N

> <PUBCHEM_SUBSTANCE_SYNONYM>
SCHEMBL16125767

> <PUBCHEM_XREF_EXT_ID>
SCHEMBL16125767

> <PUBCHEM_EXT_DATASOURCE_URL>
https://www.surechembl.org/

> <PUBCHEM_EXT_SUBSTANCE_URL>
https://www.surechembl.org/chemical/SCHEMBL16125767

> <PUBCHEM_CID_ASSOCIATIONS>
117613325  1

> <PUBCHEM_COORDINATE_TYPE>
1
3

$$$$
