310949072
  -OEChem-07211613022D

 31 35  0     0  0  0  0  0  0999 V2000
   -0.4249    1.0057    0.0000 F   0  0  0  0  0  0  0  0  0  0  0  0
   -0.8073    2.0962    0.0000 F   0  0  0  0  0  0  0  0  0  0  0  0
    0.2974    2.4787    0.0000 F   0  0  0  0  0  0  0  0  0  0  0  0
    3.0169   -0.1417    0.0000 F   0  0  0  0  0  0  0  0  0  0  0  0
    0.3399   -1.2181    0.0000 F   0  0  0  0  0  0  0  0  0  0  0  0
   -0.6516   -0.0850    0.0000 N   0  0  0  0  0  0  0  0  0  0  0  0
    2.2520   -2.2379    0.0000 N   0  0  0  0  0  0  0  0  0  0  0  0
    0.6373    0.5524    0.0000 C   0  0  0  0  0  0  0  0  0  0  0  0
   -1.4306    0.2833    0.0000 C   0  0  0  0  0  0  0  0  0  0  0  0
   -0.7365   -0.9064    0.0000 C   0  0  0  0  0  0  0  0  0  0  0  0
   -1.5580   -1.0623    0.0000 C   0  0  0  0  0  0  0  0  0  0  0  0
   -1.9688   -0.3399    0.0000 C   0  0  0  0  0  0  0  0  0  0  0  0
    1.3739    0.1274    0.0000 C   0  0  0  0  0  0  0  0  0  0  0  0
    0.6516    1.3739    0.0000 C   0  0  0  0  0  0  0  0  0  0  0  0
    1.6713   -0.6373    0.0000 C   0  0  0  0  0  0  0  0  0  0  0  0
   -0.0708    1.7563    0.0000 C   0  0  0  0  0  0  0  0  0  0  0  0
   -1.6997    1.0623    0.0000 C   0  0  0  0  0  0  0  0  0  0  0  0
   -0.1841   -1.4872    0.0000 C   0  0  0  0  0  0  0  0  0  0  0  0
    2.0821    0.5524    0.0000 C   0  0  0  0  0  0  0  0  0  0  0  0
    1.3597    1.7847    0.0000 C   0  0  0  0  0  0  0  0  0  0  0  0
   -1.7988   -1.8696    0.0000 C   0  0  0  0  0  0  0  0  0  0  0  0
   -2.7761   -0.1558    0.0000 C   0  0  0  0  0  0  0  0  0  0  0  0
    2.4644   -0.7790    0.0000 C   0  0  0  0  0  0  0  0  0  0  0  0
    1.1189   -1.3031    0.0000 C   0  0  0  0  0  0  0  0  0  0  0  0
    2.0962    1.3739    0.0000 C   0  0  0  0  0  0  0  0  0  0  0  0
   -2.4928    1.2322    0.0000 C   0  0  0  0  0  0  0  0  0  0  0  0
   -0.4532   -2.2803    0.0000 C   0  0  0  0  0  0  0  0  0  0  0  0
   -1.2039   -2.4787    0.0000 C   0  0  0  0  0  0  0  0  0  0  0  0
   -3.0169    0.6232    0.0000 C   0  0  0  0  0  0  0  0  0  0  0  0
    2.7761   -1.5439    0.0000 C   0  0  0  0  0  0  0  0  0  0  0  0
    1.4306   -2.0821    0.0000 C   0  0  0  0  0  0  0  0  0  0  0  0
  1 16  1  0  0  0  0
  2 16  1  0  0  0  0
  3 16  1  0  0  0  0
  4 23  1  0  0  0  0
  5 24  1  0  0  0  0
  6  8  1  0  0  0  0
  6  9  1  0  0  0  0
  6 10  1  0  0  0  0
  7 30  2  0  0  0  0
  7 31  1  0  0  0  0
  8 13  1  0  0  0  0
  8 14  2  0  0  0  0
  9 12  2  0  0  0  0
  9 17  1  0  0  0  0
 10 11  2  0  0  0  0
 10 18  1  0  0  0  0
 11 12  1  0  0  0  0
 11 21  1  0  0  0  0
 12 22  1  0  0  0  0
 13 15  1  0  0  0  0
 13 19  2  0  0  0  0
 14 16  1  0  0  0  0
 14 20  1  0  0  0  0
 15 23  2  0  0  0  0
 15 24  1  0  0  0  0
 17 26  2  0  0  0  0
 18 27  2  0  0  0  0
 19 25  1  0  0  0  0
 20 25  2  0  0  0  0
 21 28  2  0  0  0  0
 22 29  2  0  0  0  0
 23 30  1  0  0  0  0
 24 31  2  0  0  0  0
 26 29  1  0  0  0  0
 27 28  1  0  0  0  0
M  END
> <PUBCHEM_COMPOUND_ID_TYPE>
0

> <PUBCHEM_TOTAL_CHARGE>
0

> <PUBCHEM_SUBSTANCE_ID>
310949072

> <PUBCHEM_SUBSTANCE_VERSION>
1

> <PUBCHEM_EXT_DATASOURCE_NAME>
4488

> <PUBCHEM_EXT_DATASOURCE_REGID>
SCHEMBL16127262

> <PUBCHEM_SUBSTANCE_COMMENT>
InChI=1S/C24H13F5N2/c25-18-12-30-13-19(26)22(18)16-8-5-9-17(24(27,28)29)23(16)31-20-10-3-1-6-14(20)15-7-2-4-11-21(15)31/h1-13H
InChIKey=WHPOSKFJFOOQDW-UHFFFAOYSA-N

> <PUBCHEM_SUBSTANCE_SYNONYM>
SCHEMBL16127262

> <PUBCHEM_XREF_EXT_ID>
SCHEMBL16127262

> <PUBCHEM_EXT_DATASOURCE_URL>
https://www.surechembl.org/

> <PUBCHEM_EXT_SUBSTANCE_URL>
https://www.surechembl.org/chemical/SCHEMBL16127262

> <PUBCHEM_CID_ASSOCIATIONS>
117614577  1

> <PUBCHEM_COORDINATE_TYPE>
1
3

$$$$
