310944785
  -OEChem-07211613022D

 16 16  0     1  0  0  0  0  0999 V2000
   -2.6273    0.8249    0.0000 Br  0  0  0  0  0  0  0  0  0  0  0  0
   -2.5967   -0.8402    0.0000 Cl  0  0  0  0  0  0  0  0  0  0  0  0
    0.4734   -0.8249    0.0000 O   0  0  0  0  0  0  0  0  0  0  0  0
    1.9093    1.6497    0.0000 O   0  0  0  0  0  0  0  0  0  0  0  0
    2.6273    0.4124    0.0000 O   0  0  0  0  0  0  0  0  0  0  0  0
    0.4887    0.8249    0.0000 N   0  0  0  0  0  0  0  0  0  0  0  0
   -0.2291    0.4277    0.0000 C   0  0  0  0  0  0  0  0  0  0  0  0
   -0.2444   -0.4124    0.0000 C   0  0  0  0  0  0  0  0  0  0  0  0
   -1.6497    0.4124    0.0000 C   0  0  0  0  0  0  0  0  0  0  0  0
   -1.6649   -0.4124    0.0000 C   0  0  0  0  0  0  0  0  0  0  0  0
   -0.9624    0.8096    0.0000 C   0  0  0  0  0  0  0  0  0  0  0  0
   -0.9318   -0.8096    0.0000 C   0  0  0  0  0  0  0  0  0  0  0  0
    1.2220    0.4124    0.0000 C   0  0  3  0  0  0  0  0  0  0  0  0
    1.9093    0.8096    0.0000 C   0  0  0  0  0  0  0  0  0  0  0  0
    1.2068   -0.3972    0.0000 C   0  0  0  0  0  0  0  0  0  0  0  0
    0.5040   -1.6497    0.0000 C   0  0  0  0  0  0  0  0  0  0  0  0
  1  9  1  0  0  0  0
  2 10  1  0  0  0  0
  3  8  1  0  0  0  0
  3 16  1  0  0  0  0
  4 14  2  0  0  0  0
  5 14  1  0  0  0  0
  6  7  1  0  0  0  0
  6 13  1  0  0  0  0
  7  8  1  0  0  0  0
  7 11  2  0  0  0  0
  8 12  2  0  0  0  0
  9 10  2  0  0  0  0
  9 11  1  0  0  0  0
 10 12  1  0  0  0  0
 13 14  1  0  0  0  0
 13 15  1  6  0  0  0
M  END
> <PUBCHEM_COMPOUND_ID_TYPE>
0

> <PUBCHEM_TOTAL_CHARGE>
0

> <PUBCHEM_SUBSTANCE_ID>
310944785

> <PUBCHEM_SUBSTANCE_VERSION>
1

> <PUBCHEM_EXT_DATASOURCE_NAME>
4488

> <PUBCHEM_EXT_DATASOURCE_REGID>
SCHEMBL16122864

> <PUBCHEM_SUBSTANCE_COMMENT>
InChI=1S/C10H11BrClNO3/c1-5(10(14)15)13-8-3-6(11)7(12)4-9(8)16-2/h3-5,13H,1-2H3,(H,14,15)/t5-/m0/s1
InChIKey=PBJXCIDSMKDWQY-YFKPBYRVSA-N

> <PUBCHEM_SUBSTANCE_SYNONYM>
SCHEMBL16122864

> <PUBCHEM_XREF_EXT_ID>
SCHEMBL16122864

> <PUBCHEM_EXT_DATASOURCE_URL>
https://www.surechembl.org/

> <PUBCHEM_EXT_SUBSTANCE_URL>
https://www.surechembl.org/chemical/SCHEMBL16122864

> <PUBCHEM_CID_ASSOCIATIONS>
117610999  1

> <PUBCHEM_COORDINATE_TYPE>
1
3

> <PUBCHEM_BONDANNOTATIONS>
13  15  6

$$$$
