310948830
  -OEChem-07211613022D

 17 17  0     1  0  0  0  0  0999 V2000
    1.0371    2.1110    0.0000 O   0  0  0  0  0  0  0  0  0  0  0  0
    1.0555   -0.3855    0.0000 O   0  0  0  0  0  0  0  0  0  0  0  0
    2.4873    0.4406    0.0000 O   0  0  0  0  0  0  0  0  0  0  0  0
   -1.1105    1.6888    0.0000 O   0  0  0  0  0  0  0  0  0  0  0  0
   -1.8081    2.8635    0.0000 O   0  0  0  0  0  0  0  0  0  0  0  0
    1.0555    0.4406    0.0000 C   0  0  3  0  0  0  0  0  0  0  0  0
    0.3396    1.6888    0.0000 C   0  0  3  0  0  0  0  0  0  0  0  0
    1.7714    0.8628    0.0000 C   0  0  3  0  0  0  0  0  0  0  0  0
    0.3396    0.8444    0.0000 C   0  0  0  0  0  0  0  0  0  0  0  0
    1.7714    1.6704    0.0000 C   0  0  0  0  0  0  0  0  0  0  0  0
   -0.4130    2.0926    0.0000 C   0  0  0  0  0  0  0  0  0  0  0  0
    1.7347   -0.7893    0.0000 C   0  0  0  0  0  0  0  0  0  0  0  0
   -1.8264    2.1110    0.0000 C   0  0  0  0  0  0  0  0  0  0  0  0
    1.7163   -1.6154    0.0000 C   0  0  0  0  0  0  0  0  0  0  0  0
   -2.4873    1.6888    0.0000 C   0  0  0  0  0  0  0  0  0  0  0  0
    2.4138   -2.0559    0.0000 C   0  0  0  0  0  0  0  0  0  0  0  0
    2.3771   -2.8635    0.0000 C   0  0  0  0  0  0  0  0  0  0  0  0
  1  7  1  0  0  0  0
  1 10  1  0  0  0  0
  6  2  1  1  0  0  0
  2 12  1  0  0  0  0
  8  3  1  1  0  0  0
  4 11  1  0  0  0  0
  4 13  1  0  0  0  0
  5 13  2  0  0  0  0
  6  8  1  0  0  0  0
  6  9  1  0  0  0  0
  7  9  1  0  0  0  0
  7 11  1  1  0  0  0
  8 10  1  0  0  0  0
 12 14  1  0  0  0  0
 13 15  1  0  0  0  0
 14 16  1  0  0  0  0
 16 17  1  0  0  0  0
M  END
> <PUBCHEM_COMPOUND_ID_TYPE>
0

> <PUBCHEM_TOTAL_CHARGE>
0

> <PUBCHEM_SUBSTANCE_ID>
310948830

> <PUBCHEM_SUBSTANCE_VERSION>
1

> <PUBCHEM_EXT_DATASOURCE_NAME>
4488

> <PUBCHEM_EXT_DATASOURCE_REGID>
SCHEMBL16127014

> <PUBCHEM_SUBSTANCE_COMMENT>
InChI=1S/C12H22O5/c1-3-4-5-15-12-6-10(7-16-9(2)13)17-8-11(12)14/h10-12,14H,3-8H2,1-2H3/t10-,11+,12-/m0/s1
InChIKey=TZBPOMCEPTURDT-TUAOUCFPSA-N

> <PUBCHEM_SUBSTANCE_SYNONYM>
SCHEMBL16127014

> <PUBCHEM_XREF_EXT_ID>
SCHEMBL16127014

> <PUBCHEM_EXT_DATASOURCE_URL>
https://www.surechembl.org/

> <PUBCHEM_EXT_SUBSTANCE_URL>
https://www.surechembl.org/chemical/SCHEMBL16127014

> <PUBCHEM_CID_ASSOCIATIONS>
117614367  1

> <PUBCHEM_COORDINATE_TYPE>
1
3

> <PUBCHEM_BONDANNOTATIONS>
6  2  5
8  3  5
7  11  5

$$$$
