310941789
  -OEChem-07211613022D

 30 33  0     0  0  0  0  0  0999 V2000
   -4.1497   -2.2307    0.0000 Cl  0  0  0  0  0  0  0  0  0  0  0  0
    3.7617    1.4409    0.0000 S   0  0  0  0  0  0  0  0  0  0  0  0
   -4.2605   -1.2747    0.0000 F   0  0  0  0  0  0  0  0  0  0  0  0
   -4.5791   -0.1801    0.0000 F   0  0  0  0  0  0  0  0  0  0  0  0
   -3.4707    0.1108    0.0000 F   0  0  0  0  0  0  0  0  0  0  0  0
   -0.9907   -0.5819    0.0000 O   0  0  0  0  0  0  0  0  0  0  0  0
    4.0249    2.2307    0.0000 O   0  0  0  0  0  0  0  0  0  0  0  0
    4.5791    1.6210    0.0000 O   0  0  0  0  0  0  0  0  0  0  0  0
    1.9051    0.2494    0.0000 N   0  0  0  0  0  0  0  0  0  0  0  0
    2.6949   -0.8590    0.0000 N   0  0  0  0  0  0  0  0  0  0  0  0
    3.1798   -0.1940    0.0000 N   0  0  0  0  0  0  0  0  0  0  0  0
    2.9581    1.2747    0.0000 N   0  0  0  0  0  0  0  0  0  0  0  0
    0.4641    0.2494    0.0000 C   0  0  0  0  0  0  0  0  0  0  0  0
    1.8774   -0.5681    0.0000 C   0  0  0  0  0  0  0  0  0  0  0  0
    0.4503   -0.5681    0.0000 C   0  0  0  0  0  0  0  0  0  0  0  0
    2.6810    0.4988    0.0000 C   0  0  0  0  0  0  0  0  0  0  0  0
    1.1569    0.6650    0.0000 C   0  0  0  0  0  0  0  0  0  0  0  0
   -0.2702    0.6789    0.0000 C   0  0  0  0  0  0  0  0  0  0  0  0
    1.1846   -0.9976    0.0000 C   0  0  0  0  0  0  0  0  0  0  0  0
   -1.0737    0.6928    0.0000 C   0  0  0  0  0  0  0  0  0  0  0  0
   -0.6858    1.3578    0.0000 C   0  0  0  0  0  0  0  0  0  0  0  0
   -0.2702   -0.9838    0.0000 C   0  0  0  0  0  0  0  0  0  0  0  0
   -3.1521   -0.9838    0.0000 C   0  0  0  0  0  0  0  0  0  0  0  0
   -1.7111   -0.9838    0.0000 C   0  0  0  0  0  0  0  0  0  0  0  0
   -3.8726   -0.5681    0.0000 C   0  0  0  0  0  0  0  0  0  0  0  0
   -3.1798   -1.8289    0.0000 C   0  0  0  0  0  0  0  0  0  0  0  0
   -2.4316   -0.5819    0.0000 C   0  0  0  0  0  0  0  0  0  0  0  0
   -1.7250   -1.8151    0.0000 C   0  0  0  0  0  0  0  0  0  0  0  0
   -2.4454   -2.2307    0.0000 C   0  0  0  0  0  0  0  0  0  0  0  0
    4.3436    0.8174    0.0000 C   0  0  0  0  0  0  0  0  0  0  0  0
  1 26  1  0  0  0  0
  2  7  2  0  0  0  0
  2  8  2  0  0  0  0
  2 12  1  0  0  0  0
  2 30  1  0  0  0  0
  3 25  1  0  0  0  0
  4 25  1  0  0  0  0
  5 25  1  0  0  0  0
  6 22  1  0  0  0  0
  6 24  1  0  0  0  0
  9 14  1  0  0  0  0
  9 16  1  0  0  0  0
  9 17  1  0  0  0  0
 10 11  1  0  0  0  0
 10 14  2  0  0  0  0
 11 16  2  0  0  0  0
 12 16  1  0  0  0  0
 13 15  1  0  0  0  0
 13 17  2  0  0  0  0
 13 18  1  0  0  0  0
 14 19  1  0  0  0  0
 15 19  2  0  0  0  0
 15 22  1  0  0  0  0
 18 20  1  0  0  0  0
 18 21  1  0  0  0  0
 20 21  1  0  0  0  0
 23 25  1  0  0  0  0
 23 26  2  0  0  0  0
 23 27  1  0  0  0  0
 24 27  2  0  0  0  0
 24 28  1  0  0  0  0
 26 29  1  0  0  0  0
 28 29  2  0  0  0  0
M  END
> <PUBCHEM_COMPOUND_ID_TYPE>
0

> <PUBCHEM_TOTAL_CHARGE>
0

> <PUBCHEM_SUBSTANCE_ID>
310941789

> <PUBCHEM_SUBSTANCE_VERSION>
1

> <PUBCHEM_EXT_DATASOURCE_NAME>
4488

> <PUBCHEM_EXT_DATASOURCE_REGID>
SCHEMBL16119820

> <PUBCHEM_SUBSTANCE_COMMENT>
InChI=1S/C18H16ClF3N4O3S/c1-30(27,28)25-17-24-23-16-6-11(13(8-26(16)17)10-2-3-10)9-29-12-4-5-15(19)14(7-12)18(20,21)22/h4-8,10H,2-3,9H2,1H3,(H,24,25)
InChIKey=PKYOATXJLBGBKJ-UHFFFAOYSA-N

> <PUBCHEM_SUBSTANCE_SYNONYM>
SCHEMBL16119820

> <PUBCHEM_XREF_EXT_ID>
SCHEMBL16119820

> <PUBCHEM_EXT_DATASOURCE_URL>
https://www.surechembl.org/

> <PUBCHEM_EXT_SUBSTANCE_URL>
https://www.surechembl.org/chemical/SCHEMBL16119820

> <PUBCHEM_CID_ASSOCIATIONS>
117608538  1

> <PUBCHEM_COORDINATE_TYPE>
1
3

$$$$
