310949022
  -OEChem-07211613022D

 22 23  0     0  0  0  0  0  0999 V2000
   -2.8995   -0.6867    0.0000 F   0  0  0  0  0  0  0  0  0  0  0  0
   -3.6287   -1.8907    0.0000 F   0  0  0  0  0  0  0  0  0  0  0  0
    3.1709    1.0598    0.0000 O   0  0  0  0  0  0  0  0  0  0  0  0
   -2.1195   -1.8737    0.0000 O   0  0  0  0  0  0  0  0  0  0  0  0
    3.1539   -1.3989    0.0000 O   0  0  0  0  0  0  0  0  0  0  0  0
    1.6278   -0.5342    0.0000 N   0  0  0  0  0  0  0  0  0  0  0  0
    0.8987    0.6698    0.0000 N   0  0  0  0  0  0  0  0  0  0  0  0
    1.6447    1.9246    0.0000 N   0  0  0  0  0  0  0  0  0  0  0  0
    0.8818   -0.1611    0.0000 C   0  0  0  0  0  0  0  0  0  0  0  0
    2.4078   -0.1611    0.0000 C   0  0  0  0  0  0  0  0  0  0  0  0
    2.4248    0.6359    0.0000 C   0  0  0  0  0  0  0  0  0  0  0  0
    1.6278    1.0428    0.0000 C   0  0  0  0  0  0  0  0  0  0  0  0
    0.1356   -0.7376    0.0000 C   0  0  0  0  0  0  0  0  0  0  0  0
    3.1709   -0.5511    0.0000 C   0  0  0  0  0  0  0  0  0  0  0  0
   -0.5765   -0.3476    0.0000 C   0  0  0  0  0  0  0  0  0  0  0  0
    0.1356   -1.5345    0.0000 C   0  0  0  0  0  0  0  0  0  0  0  0
   -1.3904   -1.5176    0.0000 C   0  0  0  0  0  0  0  0  0  0  0  0
   -1.3565   -0.7037    0.0000 C   0  0  0  0  0  0  0  0  0  0  0  0
   -0.5765   -1.9246    0.0000 C   0  0  0  0  0  0  0  0  0  0  0  0
    3.6118   -0.3645    0.0000 C   0  0  0  0  0  0  0  0  0  0  0  0
    3.6287    0.7715    0.0000 C   0  0  0  0  0  0  0  0  0  0  0  0
   -2.9335   -1.5176    0.0000 C   0  0  0  0  0  0  0  0  0  0  0  0
  1 22  1  0  0  0  0
  2 22  1  0  0  0  0
  3 11  1  0  0  0  0
  3 21  1  0  0  0  0
  4 17  1  0  0  0  0
  4 22  1  0  0  0  0
  5 14  2  0  0  0  0
  6  9  1  0  0  0  0
  6 10  2  0  0  0  0
  7  9  2  0  0  0  0
  7 12  1  0  0  0  0
  8 12  1  0  0  0  0
  9 13  1  0  0  0  0
 10 11  1  0  0  0  0
 10 14  1  0  0  0  0
 11 12  2  0  0  0  0
 13 15  2  0  0  0  0
 13 16  1  0  0  0  0
 14 20  1  0  0  0  0
 15 18  1  0  0  0  0
 16 19  2  0  0  0  0
 17 18  2  0  0  0  0
 17 19  1  0  0  0  0
M  END
> <PUBCHEM_COMPOUND_ID_TYPE>
0

> <PUBCHEM_TOTAL_CHARGE>
0

> <PUBCHEM_SUBSTANCE_ID>
310949022

> <PUBCHEM_SUBSTANCE_VERSION>
1

> <PUBCHEM_EXT_DATASOURCE_NAME>
4488

> <PUBCHEM_EXT_DATASOURCE_REGID>
SCHEMBL16127212

> <PUBCHEM_SUBSTANCE_COMMENT>
InChI=1S/C14H13F2N3O3/c1-7(20)10-11(21-2)12(17)19-13(18-10)8-3-5-9(6-4-8)22-14(15)16/h3-6,14H,1-2H3,(H2,17,18,19)
InChIKey=WOGPCULHTFTCBB-UHFFFAOYSA-N

> <PUBCHEM_SUBSTANCE_SYNONYM>
SCHEMBL16127212

> <PUBCHEM_XREF_EXT_ID>
SCHEMBL16127212

> <PUBCHEM_EXT_DATASOURCE_URL>
https://www.surechembl.org/

> <PUBCHEM_EXT_SUBSTANCE_URL>
https://www.surechembl.org/chemical/SCHEMBL16127212

> <PUBCHEM_CID_ASSOCIATIONS>
117614527  1

> <PUBCHEM_COORDINATE_TYPE>
1
3

$$$$
