310940735
  -OEChem-07211613022D

 45 49  0     0  0  0  0  0  0999 V2000
    6.0471    2.8136    0.0000 F   0  0  0  0  0  0  0  0  0  0  0  0
    6.6365    2.2244    0.0000 F   0  0  0  0  0  0  0  0  0  0  0  0
    6.4154    1.4289    0.0000 F   0  0  0  0  0  0  0  0  0  0  0  0
   -3.7491    1.4142    0.0000 F   0  0  0  0  0  0  0  0  0  0  0  0
   -3.0421    0.1621    0.0000 O   0  0  0  0  0  0  0  0  0  0  0  0
    1.6278   -2.8136    0.0000 O   0  0  0  0  0  0  0  0  0  0  0  0
    2.8799   -2.1066    0.0000 O   0  0  0  0  0  0  0  0  0  0  0  0
   -0.0957    0.0147    0.0000 N   0  0  0  0  0  0  0  0  0  0  0  0
   -0.0957   -1.3258    0.0000 N   0  0  0  0  0  0  0  0  0  0  0  0
    3.3956    1.4879    0.0000 N   0  0  0  0  0  0  0  0  0  0  0  0
   -5.1927   -0.2357    0.0000 N   0  0  0  0  0  0  0  0  0  0  0  0
   -0.8765   -0.2357    0.0000 C   0  0  0  0  0  0  0  0  0  0  0  0
    0.3756   -0.6482    0.0000 C   0  0  0  0  0  0  0  0  0  0  0  0
   -0.8912   -1.0459    0.0000 C   0  0  0  0  0  0  0  0  0  0  0  0
    1.6278   -1.3700    0.0000 C   0  0  0  0  0  0  0  0  0  0  0  0
    1.2301   -0.6630    0.0000 C   0  0  0  0  0  0  0  0  0  0  0  0
   -1.5983    0.1621    0.0000 C   0  0  0  0  0  0  0  0  0  0  0  0
    0.1694    0.7955    0.0000 C   0  0  0  0  0  0  0  0  0  0  0  0
   -1.5983   -1.4731    0.0000 C   0  0  0  0  0  0  0  0  0  0  0  0
   -2.3202   -0.2357    0.0000 C   0  0  0  0  0  0  0  0  0  0  0  0
    0.9796    0.9723    0.0000 C   0  0  0  0  0  0  0  0  0  0  0  0
   -2.3202   -1.0607    0.0000 C   0  0  0  0  0  0  0  0  0  0  0  0
    2.0551   -2.0624    0.0000 C   0  0  0  0  0  0  0  0  0  0  0  0
    0.9208   -1.7825    0.0000 C   0  0  0  0  0  0  0  0  0  0  0  0
    2.3497   -0.9575    0.0000 C   0  0  0  0  0  0  0  0  0  0  0  0
    2.6000    1.3258    0.0000 C   0  0  0  0  0  0  0  0  0  0  0  0
    1.5247    0.3683    0.0000 C   0  0  0  0  0  0  0  0  0  0  0  0
    1.2301    1.7529    0.0000 C   0  0  0  0  0  0  0  0  0  0  0  0
    2.3202    0.5450    0.0000 C   0  0  0  0  0  0  0  0  0  0  0  0
    2.0403    1.9151    0.0000 C   0  0  0  0  0  0  0  0  0  0  0  0
   -3.7491   -0.2357    0.0000 C   0  0  0  0  0  0  0  0  0  0  0  0
    5.0307    1.8414    0.0000 C   0  0  0  0  0  0  0  0  0  0  0  0
   -4.4857    0.1768    0.0000 C   0  0  0  0  0  0  0  0  0  0  0  0
    3.9406    0.8839    0.0000 C   0  0  0  0  0  0  0  0  0  0  0  0
    3.6607    2.2834    0.0000 C   0  0  0  0  0  0  0  0  0  0  0  0
    5.8409    2.0182    0.0000 C   0  0  0  0  0  0  0  0  0  0  0  0
    4.7509    1.0459    0.0000 C   0  0  0  0  0  0  0  0  0  0  0  0
    4.4710    2.4454    0.0000 C   0  0  0  0  0  0  0  0  0  0  0  0
    3.0715   -1.3995    0.0000 C   0  0  0  0  0  0  0  0  0  0  0  0
    0.9355   -2.6369    0.0000 C   0  0  0  0  0  0  0  0  0  0  0  0
   -4.4710    1.0017    0.0000 C   0  0  0  0  0  0  0  0  0  0  0  0
   -5.1927    1.4142    0.0000 C   0  0  0  0  0  0  0  0  0  0  0  0
   -5.8999    1.0017    0.0000 C   0  0  0  0  0  0  0  0  0  0  0  0
   -5.8999    0.1768    0.0000 C   0  0  0  0  0  0  0  0  0  0  0  0
   -6.6365    1.3995    0.0000 C   0  0  0  0  0  0  0  0  0  0  0  0
  1 36  1  0  0  0  0
  2 36  1  0  0  0  0
  3 36  1  0  0  0  0
  4 41  1  0  0  0  0
  5 20  1  0  0  0  0
  5 31  1  0  0  0  0
  6 23  2  0  0  0  0
  7 23  1  0  0  0  0
  8 12  1  0  0  0  0
  8 13  1  0  0  0  0
  8 18  1  0  0  0  0
  9 13  2  0  0  0  0
  9 14  1  0  0  0  0
 10 26  1  0  0  0  0
 10 34  1  0  0  0  0
 10 35  1  0  0  0  0
 11 33  2  0  0  0  0
 11 44  1  0  0  0  0
 12 14  1  0  0  0  0
 12 17  2  0  0  0  0
 13 16  1  0  0  0  0
 14 19  2  0  0  0  0
 15 16  1  0  0  0  0
 15 23  1  0  0  0  0
 15 24  1  0  0  0  0
 15 25  1  0  0  0  0
 17 20  1  0  0  0  0
 18 21  1  0  0  0  0
 19 22  1  0  0  0  0
 20 22  2  0  0  0  0
 21 27  2  0  0  0  0
 21 28  1  0  0  0  0
 24 40  1  0  0  0  0
 25 39  1  0  0  0  0
 26 29  2  0  0  0  0
 26 30  1  0  0  0  0
 27 29  1  0  0  0  0
 28 30  2  0  0  0  0
 31 33  1  0  0  0  0
 32 36  1  0  0  0  0
 32 37  1  0  0  0  0
 32 38  1  0  0  0  0
 33 41  1  0  0  0  0
 34 37  1  0  0  0  0
 35 38  1  0  0  0  0
 41 42  2  0  0  0  0
 42 43  1  0  0  0  0
 43 44  2  0  0  0  0
 43 45  1  0  0  0  0
M  END
> <PUBCHEM_COMPOUND_ID_TYPE>
0

> <PUBCHEM_TOTAL_CHARGE>
0

> <PUBCHEM_SUBSTANCE_ID>
310940735

> <PUBCHEM_SUBSTANCE_VERSION>
1

> <PUBCHEM_EXT_DATASOURCE_NAME>
4488

> <PUBCHEM_EXT_DATASOURCE_REGID>
SCHEMBL16118693

> <PUBCHEM_SUBSTANCE_COMMENT>
InChI=1S/C34H38F4N4O3/c1-4-33(5-2,32(43)44)18-31-40-28-11-10-26(45-21-29-27(35)16-22(3)19-39-29)17-30(28)42(31)20-23-6-8-25(9-7-23)41-14-12-24(13-15-41)34(36,37)38/h6-11,16-17,19,24H,4-5,12-15,18,20-21H2,1-3H3,(H,43,44)
InChIKey=LSLSYMJWAMKTCL-UHFFFAOYSA-N

> <PUBCHEM_SUBSTANCE_SYNONYM>
SCHEMBL16118693

> <PUBCHEM_XREF_EXT_ID>
SCHEMBL16118693

> <PUBCHEM_EXT_DATASOURCE_URL>
https://www.surechembl.org/

> <PUBCHEM_EXT_SUBSTANCE_URL>
https://www.surechembl.org/chemical/SCHEMBL16118693

> <PUBCHEM_CID_ASSOCIATIONS>
117607692  1

> <PUBCHEM_COORDINATE_TYPE>
1
3

$$$$
