310928661
  -OEChem-07211613022D

 10 11  0     0  0  0  0  0  0999 V2000
   -0.7697   -1.1822    0.0000 N   0  0  0  0  0  0  0  0  0  0  0  0
    0.6592   -1.1822    0.0000 N   0  0  0  0  0  0  0  0  0  0  0  0
   -0.0553    0.0553    0.0000 C   0  0  0  0  0  0  0  0  0  0  0  0
    0.6592    0.4678    0.0000 C   0  0  0  0  0  0  0  0  0  0  0  0
   -0.0553   -0.7697    0.0000 C   0  0  0  0  0  0  0  0  0  0  0  0
    1.0717    1.1822    0.0000 C   0  0  0  0  0  0  0  0  0  0  0  0
    1.4842    0.4678    0.0000 C   0  0  0  0  0  0  0  0  0  0  0  0
   -0.7697    0.4678    0.0000 C   0  0  0  0  0  0  0  0  0  0  0  0
   -1.4842    0.0553    0.0000 C   0  0  0  0  0  0  0  0  0  0  0  0
   -1.4842   -0.7697    0.0000 C   0  0  0  0  0  0  0  0  0  0  0  0
  1  5  2  0  0  0  0
  1 10  1  0  0  0  0
  2  5  1  0  0  0  0
  3  4  1  0  0  0  0
  3  5  1  0  0  0  0
  3  8  2  0  0  0  0
  4  6  1  0  0  0  0
  4  7  1  0  0  0  0
  6  7  1  0  0  0  0
  8  9  1  0  0  0  0
  9 10  2  0  0  0  0
M  END
> <PUBCHEM_COMPOUND_ID_TYPE>
0

> <PUBCHEM_TOTAL_CHARGE>
0

> <PUBCHEM_SUBSTANCE_ID>
310928661

> <PUBCHEM_SUBSTANCE_VERSION>
1

> <PUBCHEM_EXT_DATASOURCE_NAME>
11752

> <PUBCHEM_EXT_DATASOURCE_REGID>
BD252869

> <PUBCHEM_SUBSTANCE_SYNONYM>
3-Cyclopropylpyridin-2-amine
878805-25-5

> <PUBCHEM_GENERIC_REGISTRY_NAME>
878805-25-5

> <PUBCHEM_XREF_EXT_ID>
BD252869

> <PUBCHEM_EXT_DATASOURCE_URL>
http://www.bidepharmatech.com/en/index.html

> <PUBCHEM_EXT_SUBSTANCE_URL>
http://www.bidepharmatech.com/en/goodsview_goodscode_BD252869.html

> <PUBCHEM_CID_ASSOCIATIONS>
17962420  1

> <PUBCHEM_COORDINATE_TYPE>
1
3

$$$$
