310938199
  -OEChem-07211613022D

 35 39  0     1  0  0  0  0  0999 V2000
    0.7145   -4.1251    0.0000 F   0  0  0  0  0  0  0  0  0  0  0  0
    3.5724   -1.6500    0.0000 O   0  0  0  0  0  0  0  0  0  0  0  0
    5.0014   -1.6500    0.0000 O   0  0  0  0  0  0  0  0  0  0  0  0
    7.1449   -0.4125    0.0000 O   0  0  0  0  0  0  0  0  0  0  0  0
    6.4304   -1.6500    0.0000 O   0  0  0  0  0  0  0  0  0  0  0  0
    0.7145    0.8250    0.0000 N   0  0  0  0  0  0  0  0  0  0  0  0
    0.7145   -0.8250    0.0000 C   0  0  0  0  0  0  0  0  0  0  0  0
    1.4290   -0.4125    0.0000 C   0  0  0  0  0  0  0  0  0  0  0  0
    1.4290    0.4125    0.0000 C   0  0  0  0  0  0  0  0  0  0  0  0
    0.0000   -0.4125    0.0000 C   0  0  0  0  0  0  0  0  0  0  0  0
    0.0000    0.4125    0.0000 C   0  0  0  0  0  0  0  0  0  0  0  0
    2.1435    0.8250    0.0000 C   0  0  0  0  0  0  0  0  0  0  0  0
    0.7145   -1.6500    0.0000 C   0  0  0  0  0  0  0  0  0  0  0  0
    2.1435   -0.8250    0.0000 C   0  0  0  0  0  0  0  0  0  0  0  0
    2.5560    1.5395    0.0000 C   0  0  0  0  0  0  0  0  0  0  0  0
    2.9685    0.8250    0.0000 C   0  0  0  0  0  0  0  0  0  0  0  0
   -0.7145   -0.8250    0.0000 C   0  0  0  0  0  0  0  0  0  0  0  0
   -0.7145    0.8250    0.0000 C   0  0  0  0  0  0  0  0  0  0  0  0
    0.0000   -2.0625    0.0000 C   0  0  0  0  0  0  0  0  0  0  0  0
    1.4290   -2.0625    0.0000 C   0  0  0  0  0  0  0  0  0  0  0  0
    3.5724   -0.8250    0.0000 C   0  0  3  0  0  0  0  0  0  0  0  0
    2.8579   -0.4125    0.0000 C   0  0  0  0  0  0  0  0  0  0  0  0
    4.2869   -2.0625    0.0000 C   0  0  0  0  0  0  0  0  0  0  0  0
   -1.4290   -0.4125    0.0000 C   0  0  0  0  0  0  0  0  0  0  0  0
   -1.4290    0.4125    0.0000 C   0  0  0  0  0  0  0  0  0  0  0  0
    5.0014   -0.8250    0.0000 C   0  0  3  0  0  0  0  0  0  0  0  0
    4.2869   -0.4125    0.0000 C   0  0  0  0  0  0  0  0  0  0  0  0
    0.0000   -2.8876    0.0000 C   0  0  0  0  0  0  0  0  0  0  0  0
    1.4290   -2.8876    0.0000 C   0  0  0  0  0  0  0  0  0  0  0  0
    0.7145   -3.3001    0.0000 C   0  0  0  0  0  0  0  0  0  0  0  0
    5.7159   -0.4125    0.0000 C   0  0  0  0  0  0  0  0  0  0  0  0
    4.6994   -2.7770    0.0000 C   0  0  0  0  0  0  0  0  0  0  0  0
    3.8744   -2.7770    0.0000 C   0  0  0  0  0  0  0  0  0  0  0  0
    6.4304   -0.8250    0.0000 C   0  0  0  0  0  0  0  0  0  0  0  0
    7.8594   -0.8250    0.0000 C   0  0  0  0  0  0  0  0  0  0  0  0
  1 30  1  0  0  0  0
  2 21  1  0  0  0  0
  2 23  1  0  0  0  0
  3 23  1  0  0  0  0
  3 26  1  0  0  0  0
  4 34  1  0  0  0  0
  4 35  1  0  0  0  0
  5 34  2  0  0  0  0
  6  9  2  0  0  0  0
  6 11  1  0  0  0  0
  7  8  2  0  0  0  0
  7 10  1  0  0  0  0
  7 13  1  0  0  0  0
  8  9  1  0  0  0  0
  8 14  1  0  0  0  0
  9 12  1  0  0  0  0
 10 11  1  0  0  0  0
 10 17  2  0  0  0  0
 11 18  2  0  0  0  0
 12 15  1  0  0  0  0
 12 16  1  0  0  0  0
 13 19  2  0  0  0  0
 13 20  1  0  0  0  0
 14 22  2  0  0  0  0
 15 16  1  0  0  0  0
 17 24  1  0  0  0  0
 18 25  1  0  0  0  0
 19 28  1  0  0  0  0
 20 29  2  0  0  0  0
 21 22  1  6  0  0  0
 21 27  1  0  0  0  0
 23 32  1  0  0  0  0
 23 33  1  0  0  0  0
 24 25  2  0  0  0  0
 26 27  1  0  0  0  0
 26 31  1  6  0  0  0
 28 30  2  0  0  0  0
 29 30  1  0  0  0  0
 31 34  1  0  0  0  0
M  END
> <PUBCHEM_COMPOUND_ID_TYPE>
0

> <PUBCHEM_TOTAL_CHARGE>
0

> <PUBCHEM_SUBSTANCE_ID>
310938199

> <PUBCHEM_SUBSTANCE_VERSION>
1

> <PUBCHEM_EXT_DATASOURCE_NAME>
4488

> <PUBCHEM_EXT_DATASOURCE_REGID>
SCHEMBL16116054

> <PUBCHEM_SUBSTANCE_COMMENT>
InChI=1S/C29H30FNO4/c1-29(2)34-21(16-22(35-29)17-26(32)33-3)14-15-24-27(18-10-12-20(30)13-11-18)23-6-4-5-7-25(23)31-28(24)19-8-9-19/h4-7,10-15,19,21-22H,8-9,16-17H2,1-3H3/b15-14+/t21-,22-/m1/s1
InChIKey=ZTRBPYDDCZGHQH-UQECUQMJSA-N

> <PUBCHEM_SUBSTANCE_SYNONYM>
SCHEMBL16116054

> <PUBCHEM_XREF_EXT_ID>
SCHEMBL16116054

> <PUBCHEM_EXT_DATASOURCE_URL>
https://www.surechembl.org/

> <PUBCHEM_EXT_SUBSTANCE_URL>
https://www.surechembl.org/chemical/SCHEMBL16116054

> <PUBCHEM_CID_ASSOCIATIONS>
9826221  1

> <PUBCHEM_COORDINATE_TYPE>
1
3

> <PUBCHEM_BONDANNOTATIONS>
21  22  6
26  31  6

$$$$
