310932773
  -OEChem-07211613022D

 33 37  0     0  0  0  0  0  0999 V2000
    5.5585   -2.8105    0.0000 O   0  0  0  0  0  0  0  0  0  0  0  0
    1.4677   -4.5280    0.0000 O   0  0  0  0  0  0  0  0  0  0  0  0
    5.1838   -4.2157    0.0000 N   0  0  0  0  0  0  0  0  0  0  0  0
    5.5898   -4.9340    0.0000 N   0  0  0  0  0  0  0  0  0  0  0  0
    3.9035   -4.7778    0.0000 N   0  0  0  0  0  0  0  0  0  0  0  0
    1.6238   -3.0916    0.0000 N   0  0  0  0  0  0  0  0  0  0  0  0
    0.9681   -1.5926    0.0000 N   0  0  0  0  0  0  0  0  0  0  0  0
    9.3683   -1.4677    0.0000 N   0  0  0  0  0  0  0  0  0  0  0  0
    6.4954   -3.9347    0.0000 C   0  0  0  0  0  0  0  0  0  0  0  0
    5.7459   -3.5912    0.0000 C   0  0  0  0  0  0  0  0  0  0  0  0
    7.2136   -3.5288    0.0000 C   0  0  0  0  0  0  0  0  0  0  0  0
    4.3719   -4.1221    0.0000 C   0  0  0  0  0  0  0  0  0  0  0  0
    7.2136   -2.6856    0.0000 C   0  0  0  0  0  0  0  0  0  0  0  0
    6.4017   -4.7466    0.0000 C   0  0  0  0  0  0  0  0  0  0  0  0
    7.9318   -2.2796    0.0000 C   0  0  0  0  0  0  0  0  0  0  0  0
    2.7480   -3.9347    0.0000 C   0  0  0  0  0  0  0  0  0  0  0  0
    7.9318   -3.9347    0.0000 C   0  0  0  0  0  0  0  0  0  0  0  0
    1.9361   -3.8410    0.0000 C   0  0  0  0  0  0  0  0  0  0  0  0
    4.0596   -3.3414    0.0000 C   0  0  0  0  0  0  0  0  0  0  0  0
    8.6501   -2.6856    0.0000 C   0  0  0  0  0  0  0  0  0  0  0  0
    3.0916   -4.7154    0.0000 C   0  0  0  0  0  0  0  0  0  0  0  0
    3.2165   -3.2789    0.0000 C   0  0  0  0  0  0  0  0  0  0  0  0
    8.6501   -3.5288    0.0000 C   0  0  0  0  0  0  0  0  0  0  0  0
    0.6246   -0.8432    0.0000 C   0  0  0  0  0  0  0  0  0  0  0  0
    2.1235   -2.4358    0.0000 C   0  0  0  0  0  0  0  0  0  0  0  0
    0.8120   -2.9979    0.0000 C   0  0  0  0  0  0  0  0  0  0  0  0
    0.4684   -2.2484    0.0000 C   0  0  0  0  0  0  0  0  0  0  0  0
    1.7800   -1.6863    0.0000 C   0  0  0  0  0  0  0  0  0  0  0  0
    6.4954   -2.2796    0.0000 C   0  0  0  0  0  0  0  0  0  0  0  0
    0.0000   -0.3435    0.0000 C   0  0  0  0  0  0  0  0  0  0  0  0
    0.7183    0.0000    0.0000 C   0  0  0  0  0  0  0  0  0  0  0  0
    9.3683   -2.2796    0.0000 C   0  0  0  0  0  0  0  0  0  0  0  0
    7.9318   -1.4677    0.0000 C   0  0  0  0  0  0  0  0  0  0  0  0
  1 10  1  0  0  0  0
  2 18  2  0  0  0  0
  3  4  1  0  0  0  0
  3 10  1  0  0  0  0
  3 12  1  0  0  0  0
  4 14  2  0  0  0  0
  5 12  1  0  0  0  0
  5 21  2  0  0  0  0
  6 18  1  0  0  0  0
  6 25  1  0  0  0  0
  6 26  1  0  0  0  0
  7 24  1  0  0  0  0
  7 27  1  0  0  0  0
  7 28  1  0  0  0  0
  8 32  3  0  0  0  0
  9 10  2  0  0  0  0
  9 11  1  0  0  0  0
  9 14  1  0  0  0  0
 11 13  2  0  0  0  0
 11 17  1  0  0  0  0
 12 19  2  0  0  0  0
 13 15  1  0  0  0  0
 13 29  1  0  0  0  0
 15 20  2  0  0  0  0
 15 33  1  0  0  0  0
 16 18  1  0  0  0  0
 16 21  1  0  0  0  0
 16 22  2  0  0  0  0
 17 23  2  0  0  0  0
 19 22  1  0  0  0  0
 20 23  1  0  0  0  0
 20 32  1  0  0  0  0
 24 30  1  0  0  0  0
 24 31  1  0  0  0  0
 25 28  1  0  0  0  0
 26 27  1  0  0  0  0
 30 31  1  0  0  0  0
M  END
> <PUBCHEM_COMPOUND_ID_TYPE>
0

> <PUBCHEM_TOTAL_CHARGE>
0

> <PUBCHEM_SUBSTANCE_ID>
310932773

> <PUBCHEM_SUBSTANCE_VERSION>
1

> <PUBCHEM_EXT_DATASOURCE_NAME>
4488

> <PUBCHEM_EXT_DATASOURCE_REGID>
SCHEMBL16110159

> <PUBCHEM_SUBSTANCE_COMMENT>
InChI=1S/C25H26N6O2/c1-16-17(2)21(7-3-18(16)13-26)22-15-28-31(25(22)33)23-8-4-19(14-27-23)24(32)30-11-9-29(10-12-30)20-5-6-20/h3-4,7-8,14-15,20,33H,5-6,9-12H2,1-2H3
InChIKey=UXKVNAXJRHHIKJ-UHFFFAOYSA-N

> <PUBCHEM_SUBSTANCE_SYNONYM>
SCHEMBL16110159

> <PUBCHEM_XREF_EXT_ID>
SCHEMBL16110159

> <PUBCHEM_EXT_DATASOURCE_URL>
https://www.surechembl.org/

> <PUBCHEM_EXT_SUBSTANCE_URL>
https://www.surechembl.org/chemical/SCHEMBL16110159

> <PUBCHEM_CID_ASSOCIATIONS>
86300505  1

> <PUBCHEM_COORDINATE_TYPE>
1
3

$$$$
