310936734
  -OEChem-07211613022D

 21 22  0     0  0  0  0  0  0999 V2000
    0.0000   -3.5235    0.0000 Cl  0  0  0  0  0  0  0  0  0  0  0  0
    3.2986   -4.9979    0.0000 F   0  0  0  0  0  0  0  0  0  0  0  0
    4.5232   -4.2982    0.0000 F   0  0  0  0  0  0  0  0  0  0  0  0
    4.1233   -4.9979    0.0000 F   0  0  0  0  0  0  0  0  0  0  0  0
    3.6985   -2.8738    0.0000 O   0  0  0  0  0  0  0  0  0  0  0  0
    1.2495    0.0000    0.0000 O   0  0  0  0  0  0  0  0  0  0  0  0
    3.6985   -1.4244    0.0000 N   0  0  0  0  0  0  0  0  0  0  0  0
    2.4740   -2.1491    0.0000 C   0  0  0  0  0  0  0  0  0  0  0  0
    3.2986   -2.1741    0.0000 C   0  0  0  0  0  0  0  0  0  0  0  0
    2.0741   -2.8488    0.0000 C   0  0  0  0  0  0  0  0  0  0  0  0
    2.0741   -1.4494    0.0000 C   0  0  0  0  0  0  0  0  0  0  0  0
    2.4740   -0.7247    0.0000 C   0  0  0  0  0  0  0  0  0  0  0  0
    1.2495   -2.8238    0.0000 C   0  0  0  0  0  0  0  0  0  0  0  0
    3.2986   -0.7497    0.0000 C   0  0  0  0  0  0  0  0  0  0  0  0
    2.4740   -3.5735    0.0000 C   0  0  0  0  0  0  0  0  0  0  0  0
    3.7234   -4.2732    0.0000 C   0  0  0  0  0  0  0  0  0  0  0  0
    3.2986   -3.5735    0.0000 C   0  0  0  0  0  0  0  0  0  0  0  0
    0.8247   -3.5485    0.0000 C   0  0  0  0  0  0  0  0  0  0  0  0
    2.0492   -4.2732    0.0000 C   0  0  0  0  0  0  0  0  0  0  0  0
    2.0741    0.0000    0.0000 C   0  0  0  0  0  0  0  0  0  0  0  0
    1.2245   -4.2483    0.0000 C   0  0  0  0  0  0  0  0  0  0  0  0
  1 18  1  0  0  0  0
  2 16  1  0  0  0  0
  3 16  1  0  0  0  0
  4 16  1  0  0  0  0
  5  9  1  0  0  0  0
  5 17  1  0  0  0  0
  6 20  1  0  0  0  0
  7  9  2  0  0  0  0
  7 14  1  0  0  0  0
  8  9  1  0  0  0  0
  8 10  1  0  0  0  0
  8 11  2  0  0  0  0
 10 13  1  0  0  0  0
 10 15  2  0  0  0  0
 11 12  1  0  0  0  0
 12 14  2  0  0  0  0
 12 20  1  0  0  0  0
 13 18  2  0  0  0  0
 15 19  1  0  0  0  0
 16 17  1  0  0  0  0
 18 21  1  0  0  0  0
 19 21  2  0  0  0  0
M  END
> <PUBCHEM_COMPOUND_ID_TYPE>
0

> <PUBCHEM_TOTAL_CHARGE>
0

> <PUBCHEM_SUBSTANCE_ID>
310936734

> <PUBCHEM_SUBSTANCE_VERSION>
1

> <PUBCHEM_EXT_DATASOURCE_NAME>
4488

> <PUBCHEM_EXT_DATASOURCE_REGID>
SCHEMBL16114414

> <PUBCHEM_SUBSTANCE_COMMENT>
InChI=1S/C14H11ClF3NO2/c15-11-3-1-2-10(5-11)12-4-9(7-20)6-19-13(12)21-8-14(16,17)18/h1-6,20H,7-8H2
InChIKey=WPZMQNOAJLMROB-UHFFFAOYSA-N

> <PUBCHEM_SUBSTANCE_SYNONYM>
SCHEMBL16114414

> <PUBCHEM_XREF_EXT_ID>
SCHEMBL16114414

> <PUBCHEM_EXT_DATASOURCE_URL>
https://www.surechembl.org/

> <PUBCHEM_EXT_SUBSTANCE_URL>
https://www.surechembl.org/chemical/SCHEMBL16114414

> <PUBCHEM_CID_ASSOCIATIONS>
117604633  1

> <PUBCHEM_COORDINATE_TYPE>
1
3

$$$$
