310941312
  -OEChem-07211613022D

 22 22  0     1  0  0  0  0  0999 V2000
    2.9878   -1.7481    0.0000 O   0  0  0  0  0  0  0  0  0  0  0  0
   -2.1940    2.5648    0.0000 O   0  0  0  0  0  0  0  0  0  0  0  0
    0.9460    2.5799    0.0000 O   0  0  0  0  0  0  0  0  0  0  0  0
    2.4820   -2.5799    0.0000 O   0  0  0  0  0  0  0  0  0  0  0  0
    2.3788    1.7264    0.0000 O   0  0  0  0  0  0  0  0  0  0  0  0
   -2.6361    1.1167    0.0000 N   0  0  0  0  0  0  0  0  0  0  0  0
    0.9308    0.0954    0.0000 N   0  0  0  0  0  0  0  0  0  0  0  0
    1.6471    1.2996    0.0000 N   0  0  0  0  0  0  0  0  0  0  0  0
   -1.2642    1.4063    0.0000 C   0  0  3  0  0  0  0  0  0  0  0  0
   -2.0416    1.7568    0.0000 C   0  0  0  0  0  0  0  0  0  0  0  0
    0.1991    1.3758    0.0000 C   0  0  3  0  0  0  0  0  0  0  0  0
   -0.5478    1.8026    0.0000 C   0  0  0  0  0  0  0  0  0  0  0  0
   -1.3861    0.5679    0.0000 C   0  0  0  0  0  0  0  0  0  0  0  0
    0.9308    1.7568    0.0000 C   0  0  0  0  0  0  0  0  0  0  0  0
   -2.2093    0.4155    0.0000 C   0  0  0  0  0  0  0  0  0  0  0  0
    2.4820   -2.0404    0.0000 C   0  0  0  0  0  0  0  0  0  0  0  0
    2.9991   -1.1861    0.0000 C   0  0  0  0  0  0  0  0  0  0  0  0
   -3.5049    1.0862    0.0000 C   0  0  0  0  0  0  0  0  0  0  0  0
    3.5049   -1.1636    0.0000 C   0  0  0  0  0  0  0  0  0  0  0  0
    2.4820   -1.1861    0.0000 C   0  0  0  0  0  0  0  0  0  0  0  0
    2.9878   -0.6353    0.0000 C   0  0  0  0  0  0  0  0  0  0  0  0
    3.1257    1.3148    0.0000 C   0  0  0  0  0  0  0  0  0  0  0  0
  1 16  1  0  0  0  0
  1 17  1  0  0  0  0
  2 10  2  0  0  0  0
  3 14  2  0  0  0  0
  4 16  2  0  0  0  0
  5  8  1  0  0  0  0
  5 22  1  0  0  0  0
  6 10  1  0  0  0  0
  6 15  1  0  0  0  0
  6 18  1  0  0  0  0
 11  7  1  1  0  0  0
  7 16  1  0  0  0  0
  8 14  1  0  0  0  0
  9 10  1  0  0  0  0
  9 12  1  0  0  0  0
  9 13  1  0  0  0  0
 11 12  1  0  0  0  0
 11 14  1  0  0  0  0
 13 15  1  0  0  0  0
 17 19  1  0  0  0  0
 17 20  1  0  0  0  0
 17 21  1  0  0  0  0
M  END
> <PUBCHEM_COMPOUND_ID_TYPE>
0

> <PUBCHEM_TOTAL_CHARGE>
0

> <PUBCHEM_SUBSTANCE_ID>
310941312

> <PUBCHEM_SUBSTANCE_VERSION>
1

> <PUBCHEM_EXT_DATASOURCE_NAME>
4488

> <PUBCHEM_EXT_DATASOURCE_REGID>
SCHEMBL16119272

> <PUBCHEM_SUBSTANCE_COMMENT>
InChI=1S/C14H25N3O5/c1-14(2,3)22-13(20)15-10(11(18)16-21-5)8-9-6-7-17(4)12(9)19/h9-10H,6-8H2,1-5H3,(H,15,20)(H,16,18)/t9?,10-/m0/s1
InChIKey=JIRKIIHDJIJLAP-AXDSSHIGSA-N

> <PUBCHEM_SUBSTANCE_SYNONYM>
SCHEMBL16119272

> <PUBCHEM_XREF_EXT_ID>
SCHEMBL16119272

> <PUBCHEM_EXT_DATASOURCE_URL>
https://www.surechembl.org/

> <PUBCHEM_EXT_SUBSTANCE_URL>
https://www.surechembl.org/chemical/SCHEMBL16119272

> <PUBCHEM_CID_ASSOCIATIONS>
117608160  1

> <PUBCHEM_COORDINATE_TYPE>
1
3

> <PUBCHEM_BONDANNOTATIONS>
11  7  5

$$$$
