310944807
  -OEChem-07211613022D

 17 18  0     0  0  0  0  0  0999 V2000
    0.0866   -0.8284    0.0000 I   0  0  0  0  0  0  0  0  0  0  0  0
   -2.9426    0.8160    0.0000 Cl  0  0  0  0  0  0  0  0  0  0  0  0
   -2.9426   -0.8284    0.0000 Cl  0  0  0  0  0  0  0  0  0  0  0  0
    2.9426    0.8160    0.0000 Cl  0  0  0  0  0  0  0  0  0  0  0  0
    0.0866    0.8284    0.0000 N   0  0  0  0  0  0  0  0  0  0  0  0
    1.5207    0.8284    0.0000 N   0  0  0  0  0  0  0  0  0  0  0  0
   -0.6306    0.4203    0.0000 C   0  0  0  0  0  0  0  0  0  0  0  0
   -0.6306   -0.4080    0.0000 C   0  0  0  0  0  0  0  0  0  0  0  0
   -2.0524    0.4080    0.0000 C   0  0  0  0  0  0  0  0  0  0  0  0
   -2.0524   -0.4080    0.0000 C   0  0  0  0  0  0  0  0  0  0  0  0
   -1.3353    0.8160    0.0000 C   0  0  0  0  0  0  0  0  0  0  0  0
    0.8037    0.4203    0.0000 C   0  0  0  0  0  0  0  0  0  0  0  0
   -1.3353   -0.8160    0.0000 C   0  0  0  0  0  0  0  0  0  0  0  0
    0.8037   -0.4080    0.0000 C   0  0  0  0  0  0  0  0  0  0  0  0
    2.2255    0.4203    0.0000 C   0  0  0  0  0  0  0  0  0  0  0  0
    1.5207   -0.8284    0.0000 C   0  0  0  0  0  0  0  0  0  0  0  0
    2.2255   -0.4203    0.0000 C   0  0  0  0  0  0  0  0  0  0  0  0
  1  8  1  0  0  0  0
  2  9  1  0  0  0  0
  3 10  1  0  0  0  0
  4 15  1  0  0  0  0
  5  7  1  0  0  0  0
  5 12  1  0  0  0  0
  6 12  1  0  0  0  0
  6 15  2  0  0  0  0
  7  8  1  0  0  0  0
  7 11  2  0  0  0  0
  8 13  2  0  0  0  0
  9 10  2  0  0  0  0
  9 11  1  0  0  0  0
 10 13  1  0  0  0  0
 12 14  2  0  0  0  0
 14 16  1  0  0  0  0
 15 17  1  0  0  0  0
 16 17  2  0  0  0  0
M  END
> <PUBCHEM_COMPOUND_ID_TYPE>
0

> <PUBCHEM_TOTAL_CHARGE>
0

> <PUBCHEM_SUBSTANCE_ID>
310944807

> <PUBCHEM_SUBSTANCE_VERSION>
1

> <PUBCHEM_EXT_DATASOURCE_NAME>
4488

> <PUBCHEM_EXT_DATASOURCE_REGID>
SCHEMBL16122886

> <PUBCHEM_SUBSTANCE_COMMENT>
InChI=1S/C11H6Cl3IN2/c12-6-4-8(15)9(5-7(6)13)16-11-3-1-2-10(14)17-11/h1-5H,(H,16,17)
InChIKey=HLXWYULMQGEWMX-UHFFFAOYSA-N

> <PUBCHEM_SUBSTANCE_SYNONYM>
SCHEMBL16122886

> <PUBCHEM_XREF_EXT_ID>
SCHEMBL16122886

> <PUBCHEM_EXT_DATASOURCE_URL>
https://www.surechembl.org/

> <PUBCHEM_EXT_SUBSTANCE_URL>
https://www.surechembl.org/chemical/SCHEMBL16122886

> <PUBCHEM_CID_ASSOCIATIONS>
117611018  1

> <PUBCHEM_COORDINATE_TYPE>
1
3

$$$$
