310935943
  -OEChem-07211613022D

 23 25  0     0  0  0  0  0  0999 V2000
    7.7344   -2.3718    0.0000 F   0  0  0  0  0  0  0  0  0  0  0  0
    4.3828   -3.8156    0.0000 O   0  0  0  0  0  0  0  0  0  0  0  0
    1.9336   -0.9281    0.0000 N   0  0  0  0  0  0  0  0  0  0  0  0
    3.1711   -3.0937    0.0000 N   0  0  0  0  0  0  0  0  0  0  0  0
    1.4437   -0.2578    0.0000 N   0  0  0  0  0  0  0  0  0  0  0  0
    1.4179   -1.5984    0.0000 N   0  0  0  0  0  0  0  0  0  0  0  0
    0.6703   -1.3406    0.0000 N   0  0  0  0  0  0  0  0  0  0  0  0
    4.4344   -2.3718    0.0000 C   0  0  0  0  0  0  0  0  0  0  0  0
    3.9961   -3.0937    0.0000 C   0  0  0  0  0  0  0  0  0  0  0  0
    3.1711   -1.6758    0.0000 C   0  0  0  0  0  0  0  0  0  0  0  0
    5.2594   -2.3718    0.0000 C   0  0  0  0  0  0  0  0  0  0  0  0
    3.9961   -1.6758    0.0000 C   0  0  0  0  0  0  0  0  0  0  0  0
    2.7586   -0.9539    0.0000 C   0  0  0  0  0  0  0  0  0  0  0  0
    2.7328   -2.3718    0.0000 C   0  0  0  0  0  0  0  0  0  0  0  0
    5.6718   -1.6500    0.0000 C   0  0  0  0  0  0  0  0  0  0  0  0
    5.8265   -3.2484    0.0000 C   0  0  0  0  0  0  0  0  0  0  0  0
    0.6703   -0.4898    0.0000 C   0  0  0  0  0  0  0  0  0  0  0  0
    6.9094   -2.3718    0.0000 C   0  0  0  0  0  0  0  0  0  0  0  0
    6.4968   -1.6500    0.0000 C   0  0  0  0  0  0  0  0  0  0  0  0
    6.4968   -3.0937    0.0000 C   0  0  0  0  0  0  0  0  0  0  0  0
    5.2078   -3.8156    0.0000 C   0  0  0  0  0  0  0  0  0  0  0  0
    0.0000    0.0000    0.0000 C   0  0  0  0  0  0  0  0  0  0  0  0
    5.6460   -3.1195    0.0000 C   0  0  0  0  0  0  0  0  0  0  0  0
  1 18  1  0  0  0  0
  2  9  1  0  0  0  0
  2 21  1  0  0  0  0
  3  5  1  0  0  0  0
  3  6  1  0  0  0  0
  3 13  1  0  0  0  0
  4  9  1  0  0  0  0
  4 14  2  0  0  0  0
  5 17  2  0  0  0  0
  6  7  2  0  0  0  0
  7 17  1  0  0  0  0
  8  9  2  0  0  0  0
  8 11  1  0  0  0  0
  8 12  1  0  0  0  0
 10 12  2  0  0  0  0
 10 13  1  0  0  0  0
 10 14  1  0  0  0  0
 11 15  2  0  0  0  0
 11 16  1  0  0  0  0
 15 19  1  0  0  0  0
 16 20  2  0  0  0  0
 17 22  1  0  0  0  0
 18 19  2  0  0  0  0
 18 20  1  0  0  0  0
 21 23  1  0  0  0  0
M  END
> <PUBCHEM_COMPOUND_ID_TYPE>
0

> <PUBCHEM_TOTAL_CHARGE>
0

> <PUBCHEM_SUBSTANCE_ID>
310935943

> <PUBCHEM_SUBSTANCE_VERSION>
1

> <PUBCHEM_EXT_DATASOURCE_NAME>
4488

> <PUBCHEM_EXT_DATASOURCE_REGID>
SCHEMBL16113540

> <PUBCHEM_SUBSTANCE_COMMENT>
InChI=1S/C16H16FN5O/c1-3-23-16-15(13-4-6-14(17)7-5-13)8-12(9-18-16)10-22-20-11(2)19-21-22/h4-9H,3,10H2,1-2H3
InChIKey=MHFCRWJMDFQTFU-UHFFFAOYSA-N

> <PUBCHEM_SUBSTANCE_SYNONYM>
SCHEMBL16113540

> <PUBCHEM_XREF_EXT_ID>
SCHEMBL16113540

> <PUBCHEM_EXT_DATASOURCE_URL>
https://www.surechembl.org/

> <PUBCHEM_EXT_SUBSTANCE_URL>
https://www.surechembl.org/chemical/SCHEMBL16113540

> <PUBCHEM_CID_ASSOCIATIONS>
117603923  1

> <PUBCHEM_COORDINATE_TYPE>
1
3

$$$$
