310949877
  -OEChem-07211613022D

 30 34  0     0  0  0  0  0  0999 V2000
   -0.7320    1.1572    0.0000 N   0  0  0  0  0  0  0  0  0  0  0  0
   -0.7320    2.5096    0.0000 N   0  0  0  0  0  0  0  0  0  0  0  0
    1.0666    1.1572    0.0000 N   0  0  0  0  0  0  0  0  0  0  0  0
    0.0348   -1.2270    0.0000 N   0  0  0  0  0  0  0  0  0  0  0  0
   -0.2440    1.8404    0.0000 C   0  0  0  0  0  0  0  0  0  0  0  0
   -1.5267    1.4222    0.0000 C   0  0  0  0  0  0  0  0  0  0  0  0
    0.5786    1.8265    0.0000 C   0  0  0  0  0  0  0  0  0  0  0  0
   -1.5127    2.2448    0.0000 C   0  0  0  0  0  0  0  0  0  0  0  0
   -0.4810    0.3765    0.0000 C   0  0  0  0  0  0  0  0  0  0  0  0
   -2.2377    1.0039    0.0000 C   0  0  0  0  0  0  0  0  0  0  0  0
    0.1325    2.5236    0.0000 C   0  0  0  0  0  0  0  0  0  0  0  0
    1.4012    1.8962    0.0000 C   0  0  0  0  0  0  0  0  0  0  0  0
   -2.2517    2.6490    0.0000 C   0  0  0  0  0  0  0  0  0  0  0  0
   -1.0108   -0.2649    0.0000 C   0  0  0  0  0  0  0  0  0  0  0  0
    0.3416    0.1813    0.0000 C   0  0  0  0  0  0  0  0  0  0  0  0
   -2.9488    1.4222    0.0000 C   0  0  0  0  0  0  0  0  0  0  0  0
   -2.9488    2.2448    0.0000 C   0  0  0  0  0  0  0  0  0  0  0  0
    0.4810    3.2626    0.0000 C   0  0  0  0  0  0  0  0  0  0  0  0
    1.7498    2.6490    0.0000 C   0  0  0  0  0  0  0  0  0  0  0  0
   -0.7738   -1.0457    0.0000 C   0  0  0  0  0  0  0  0  0  0  0  0
    0.5786   -0.5995    0.0000 C   0  0  0  0  0  0  0  0  0  0  0  0
    1.2897    3.3322    0.0000 C   0  0  0  0  0  0  0  0  0  0  0  0
    0.2858   -2.0217    0.0000 C   0  0  0  0  0  0  0  0  0  0  0  0
    1.0945   -2.2029    0.0000 C   0  0  0  0  0  0  0  0  0  0  0  0
    1.3176   -2.9976    0.0000 C   0  0  0  0  0  0  0  0  0  0  0  0
    1.5964   -1.4918    0.0000 C   0  0  0  0  0  0  0  0  0  0  0  0
    2.4190   -1.4918    0.0000 C   0  0  0  0  0  0  0  0  0  0  0  0
    2.0844   -3.3322    0.0000 C   0  0  0  0  0  0  0  0  0  0  0  0
    2.9488   -2.1192    0.0000 C   0  0  0  0  0  0  0  0  0  0  0  0
    2.7955   -2.9418    0.0000 C   0  0  0  0  0  0  0  0  0  0  0  0
  1  5  1  0  0  0  0
  1  6  1  0  0  0  0
  1  9  1  0  0  0  0
  2  5  2  0  0  0  0
  2  8  1  0  0  0  0
  3  7  1  0  0  0  0
  4 20  1  0  0  0  0
  4 21  1  0  0  0  0
  4 23  1  0  0  0  0
  5  7  1  0  0  0  0
  6  8  1  0  0  0  0
  6 10  2  0  0  0  0
  7 11  1  0  0  0  0
  7 12  1  0  0  0  0
  8 13  2  0  0  0  0
  9 14  1  0  0  0  0
  9 15  1  0  0  0  0
 10 16  1  0  0  0  0
 11 18  1  0  0  0  0
 12 19  1  0  0  0  0
 13 17  1  0  0  0  0
 14 20  1  0  0  0  0
 15 21  1  0  0  0  0
 16 17  2  0  0  0  0
 18 22  1  0  0  0  0
 19 22  1  0  0  0  0
 23 24  1  0  0  0  0
 24 25  1  0  0  0  0
 24 26  1  0  0  0  0
 25 28  1  0  0  0  0
 26 27  1  0  0  0  0
 27 29  1  0  0  0  0
 28 30  1  0  0  0  0
 29 30  1  0  0  0  0
M  END
> <PUBCHEM_COMPOUND_ID_TYPE>
0

> <PUBCHEM_TOTAL_CHARGE>
0

> <PUBCHEM_SUBSTANCE_ID>
310949877

> <PUBCHEM_SUBSTANCE_VERSION>
1

> <PUBCHEM_EXT_DATASOURCE_NAME>
4488

> <PUBCHEM_EXT_DATASOURCE_REGID>
SCHEMBL16128088

> <PUBCHEM_SUBSTANCE_COMMENT>
InChI=1S/C26H40N4/c27-26(16-8-3-9-17-26)25-28-23-12-6-7-13-24(23)30(25)22-14-18-29(19-15-22)20-21-10-4-1-2-5-11-21/h6-7,12-13,21-22H,1-5,8-11,14-20,27H2
InChIKey=IETQTQXWVABEHW-UHFFFAOYSA-N

> <PUBCHEM_SUBSTANCE_SYNONYM>
SCHEMBL16128088

> <PUBCHEM_XREF_EXT_ID>
SCHEMBL16128088

> <PUBCHEM_EXT_DATASOURCE_URL>
https://www.surechembl.org/

> <PUBCHEM_EXT_SUBSTANCE_URL>
https://www.surechembl.org/chemical/SCHEMBL16128088

> <PUBCHEM_CID_ASSOCIATIONS>
86272379  1

> <PUBCHEM_COORDINATE_TYPE>
1
3

$$$$
