310948135
  -OEChem-07211613022D

 45 49  0     0  0  0  0  0  0999 V2000
    3.1663   -2.9234    0.0000 Cl  0  0  0  0  0  0  0  0  0  0  0  0
    3.1663   -0.0419    0.0000 S   0  0  0  0  0  0  0  0  0  0  0  0
   -4.2051   -1.2649    0.0000 F   0  0  0  0  0  0  0  0  0  0  0  0
   -4.3894   -0.0921    0.0000 F   0  0  0  0  0  0  0  0  0  0  0  0
   -3.2334    0.0922    0.0000 F   0  0  0  0  0  0  0  0  0  0  0  0
    3.1161    2.9737    0.0000 F   0  0  0  0  0  0  0  0  0  0  0  0
    2.0774    2.4376    0.0000 F   0  0  0  0  0  0  0  0  0  0  0  0
    3.6522    1.9350    0.0000 F   0  0  0  0  0  0  0  0  0  0  0  0
    2.4459    0.3602    0.0000 O   0  0  0  0  0  0  0  0  0  0  0  0
    3.8700   -0.4607    0.0000 O   0  0  0  0  0  0  0  0  0  0  0  0
    2.5967    1.3989    0.0000 O   0  0  0  0  0  0  0  0  0  0  0  0
    4.3894   -2.2030    0.0000 O   0  0  0  0  0  0  0  0  0  0  0  0
   -0.9549   -0.0586    0.0000 N   0  0  0  0  0  0  0  0  0  0  0  0
   -2.2616   -2.1695    0.0000 N   0  0  0  0  0  0  0  0  0  0  0  0
   -3.0491   -1.9015    0.0000 N   0  0  0  0  0  0  0  0  0  0  0  0
   -1.7758    0.0419    0.0000 N   0  0  0  0  0  0  0  0  0  0  0  0
   -1.9434    0.8461    0.0000 N   0  0  0  0  0  0  0  0  0  0  0  0
   -0.5529   -0.7623    0.0000 C   0  0  0  0  0  0  0  0  0  0  0  0
   -0.9549   -1.4827    0.0000 C   0  0  0  0  0  0  0  0  0  0  0  0
   -1.7926   -1.4659    0.0000 C   0  0  0  0  0  0  0  0  0  0  0  0
    0.6868   -1.4659    0.0000 C   0  0  0  0  0  0  0  0  0  0  0  0
   -0.6032    0.7287    0.0000 C   0  0  0  0  0  0  0  0  0  0  0  0
    0.2848   -0.7790    0.0000 C   0  0  0  0  0  0  0  0  0  0  0  0
    1.5246   -1.4659    0.0000 C   0  0  0  0  0  0  0  0  0  0  0  0
   -3.0323   -1.0638    0.0000 C   0  0  0  0  0  0  0  0  0  0  0  0
   -0.5361   -2.1863    0.0000 C   0  0  0  0  0  0  0  0  0  0  0  0
   -2.2449   -0.8292    0.0000 C   0  0  0  0  0  0  0  0  0  0  0  0
    2.7308   -0.7623    0.0000 C   0  0  0  0  0  0  0  0  0  0  0  0
    0.2848   -2.1863    0.0000 C   0  0  0  0  0  0  0  0  0  0  0  0
    3.1663   -1.4659    0.0000 C   0  0  0  0  0  0  0  0  0  0  0  0
    0.1675    0.8963    0.0000 C   0  0  0  0  0  0  0  0  0  0  0  0
    1.9266   -0.7790    0.0000 C   0  0  0  0  0  0  0  0  0  0  0  0
   -3.7025   -0.5780    0.0000 C   0  0  0  0  0  0  0  0  0  0  0  0
    2.7475   -2.2030    0.0000 C   0  0  0  0  0  0  0  0  0  0  0  0
    1.9266   -2.1863    0.0000 C   0  0  0  0  0  0  0  0  0  0  0  0
   -1.2397    1.2649    0.0000 C   0  0  0  0  0  0  0  0  0  0  0  0
    0.4523    1.6670    0.0000 C   0  0  0  0  0  0  0  0  0  0  0  0
    0.7539    0.2764    0.0000 C   0  0  0  0  0  0  0  0  0  0  0  0
   -1.9937   -2.9737    0.0000 C   0  0  0  0  0  0  0  0  0  0  0  0
    4.0040   -1.4994    0.0000 C   0  0  0  0  0  0  0  0  0  0  0  0
    1.8094    1.2314    0.0000 C   0  0  0  0  0  0  0  0  0  0  0  0
    1.2397    1.8344    0.0000 C   0  0  0  0  0  0  0  0  0  0  0  0
    1.5413    0.4439    0.0000 C   0  0  0  0  0  0  0  0  0  0  0  0
    3.5685    0.6785    0.0000 C   0  0  0  0  0  0  0  0  0  0  0  0
    2.8648    2.2030    0.0000 C   0  0  0  0  0  0  0  0  0  0  0  0
  1 34  1  0  0  0  0
  2  9  2  0  0  0  0
  2 10  2  0  0  0  0
  2 28  1  0  0  0  0
  2 44  1  0  0  0  0
  3 33  1  0  0  0  0
  4 33  1  0  0  0  0
  5 33  1  0  0  0  0
  6 45  1  0  0  0  0
  7 45  1  0  0  0  0
  8 45  1  0  0  0  0
 11 41  1  0  0  0  0
 11 45  1  0  0  0  0
 12 40  1  0  0  0  0
 13 16  1  0  0  0  0
 13 18  1  0  0  0  0
 13 22  1  0  0  0  0
 14 15  1  0  0  0  0
 14 20  1  0  0  0  0
 14 39  1  0  0  0  0
 15 25  2  0  0  0  0
 16 17  2  0  0  0  0
 17 36  1  0  0  0  0
 18 19  1  0  0  0  0
 18 23  2  0  0  0  0
 19 20  1  0  0  0  0
 19 26  2  0  0  0  0
 20 27  2  0  0  0  0
 21 23  1  0  0  0  0
 21 24  1  0  0  0  0
 21 29  2  0  0  0  0
 22 31  1  0  0  0  0
 22 36  2  0  0  0  0
 24 32  2  0  0  0  0
 24 35  1  0  0  0  0
 25 27  1  0  0  0  0
 25 33  1  0  0  0  0
 26 29  1  0  0  0  0
 28 30  2  0  0  0  0
 28 32  1  0  0  0  0
 30 34  1  0  0  0  0
 30 40  1  0  0  0  0
 31 37  2  0  0  0  0
 31 38  1  0  0  0  0
 34 35  2  0  0  0  0
 37 42  1  0  0  0  0
 38 43  2  0  0  0  0
 41 42  2  0  0  0  0
 41 43  1  0  0  0  0
M  END
> <PUBCHEM_COMPOUND_ID_TYPE>
0

> <PUBCHEM_TOTAL_CHARGE>
0

> <PUBCHEM_SUBSTANCE_ID>
310948135

> <PUBCHEM_SUBSTANCE_VERSION>
1

> <PUBCHEM_EXT_DATASOURCE_NAME>
4488

> <PUBCHEM_EXT_DATASOURCE_REGID>
SCHEMBL16126311

> <PUBCHEM_SUBSTANCE_COMMENT>
InChI=1S/C28H20ClF6N5O4S/c1-39-22(12-26(37-39)27(30,31)32)19-8-5-16(17-9-21(29)20(14-41)25(11-17)45(2,42)43)10-23(19)40-24(13-36-38-40)15-3-6-18(7-4-15)44-28(33,34)35/h3-13,41H,14H2,1-2H3
InChIKey=GENDBDYJVACRDA-UHFFFAOYSA-N

> <PUBCHEM_SUBSTANCE_SYNONYM>
SCHEMBL16126311

> <PUBCHEM_XREF_EXT_ID>
SCHEMBL16126311

> <PUBCHEM_EXT_DATASOURCE_URL>
https://www.surechembl.org/

> <PUBCHEM_EXT_SUBSTANCE_URL>
https://www.surechembl.org/chemical/SCHEMBL16126311

> <PUBCHEM_CID_ASSOCIATIONS>
86276007  1

> <PUBCHEM_COORDINATE_TYPE>
1
3

$$$$
