310942759
  -OEChem-07211613022D

 58 63  0     1  0  0  0  0  0999 V2000
   -1.8634    1.9886    0.0000 F   0  0  0  0  0  0  0  0  0  0  0  0
    4.6180    0.8543    0.0000 F   0  0  0  0  0  0  0  0  0  0  0  0
   -1.8487   -1.3405    0.0000 F   0  0  0  0  0  0  0  0  0  0  0  0
    2.9682    3.5942    0.0000 O   0  0  0  0  0  0  0  0  0  0  0  0
    0.8912    0.0000    0.0000 O   0  0  0  0  0  0  0  0  0  0  0  0
    0.4787   -2.1653    0.0000 O   0  0  0  0  0  0  0  0  0  0  0  0
   -0.7586   -1.4436    0.0000 O   0  0  0  0  0  0  0  0  0  0  0  0
   -4.6180   -4.8463    0.0000 O   0  0  0  0  0  0  0  0  0  0  0  0
   -2.0991   -3.3880    0.0000 O   0  0  0  0  0  0  0  0  0  0  0  0
   -1.5835   -4.3160    0.0000 O   0  0  0  0  0  0  0  0  0  0  0  0
    2.1285    0.7218    0.0000 N   0  0  0  0  0  0  0  0  0  0  0  0
    0.4640    2.1653    0.0000 N   0  0  0  0  0  0  0  0  0  0  0  0
    0.3314    0.8249    0.0000 N   0  0  0  0  0  0  0  0  0  0  0  0
    2.1285   -0.7218    0.0000 N   0  0  0  0  0  0  0  0  0  0  0  0
    3.9846   -1.2079    0.0000 N   0  0  0  0  0  0  0  0  0  0  0  0
   -3.2481   -4.3160    0.0000 N   0  0  0  0  0  0  0  0  0  0  0  0
   -0.7733   -2.8725    0.0000 N   0  0  0  0  0  0  0  0  0  0  0  0
    1.7161    1.4436    0.0000 C   0  0  3  0  0  0  0  0  0  0  0  0
    0.8912    1.4583    0.0000 C   0  0  0  0  0  0  0  0  0  0  0  0
    2.1138    2.1801    0.0000 C   0  0  0  0  0  0  0  0  0  0  0  0
   -0.4346    1.1637    0.0000 C   0  0  0  0  0  0  0  0  0  0  0  0
   -0.3314    1.9886    0.0000 C   0  0  0  0  0  0  0  0  0  0  0  0
   -1.1416    0.7513    0.0000 C   0  0  0  0  0  0  0  0  0  0  0  0
    1.7456    0.0147    0.0000 C   0  0  0  0  0  0  0  0  0  0  0  0
    1.7161    2.8872    0.0000 C   0  0  0  0  0  0  0  0  0  0  0  0
    2.9682    2.1653    0.0000 C   0  0  0  0  0  0  0  0  0  0  0  0
    2.9682    0.7218    0.0000 C   0  0  0  0  0  0  0  0  0  0  0  0
    0.8765    2.9019    0.0000 C   0  0  0  0  0  0  0  0  0  0  0  0
    1.2889    2.1653    0.0000 C   0  0  0  0  0  0  0  0  0  0  0  0
    3.3807    0.0147    0.0000 C   0  0  3  0  0  0  0  0  0  0  0  0
   -1.8781    1.1637    0.0000 C   0  0  0  0  0  0  0  0  0  0  0  0
   -1.1564   -0.0884    0.0000 C   0  0  0  0  0  0  0  0  0  0  0  0
    2.1433    3.6090    0.0000 C   0  0  0  0  0  0  0  0  0  0  0  0
    3.3659    2.9166    0.0000 C   0  0  0  0  0  0  0  0  0  0  0  0
    0.4640    3.6090    0.0000 C   0  0  0  0  0  0  0  0  0  0  0  0
    4.2055    0.1178    0.0000 C   0  0  3  0  0  0  0  0  0  0  0  0
   -1.8487   -0.5009    0.0000 C   0  0  0  0  0  0  0  0  0  0  0  0
   -2.5704    0.7513    0.0000 C   0  0  0  0  0  0  0  0  0  0  0  0
    3.2775   -0.7807    0.0000 C   0  0  0  0  0  0  0  0  0  0  0  0
   -2.5704   -0.0884    0.0000 C   0  0  0  0  0  0  0  0  0  0  0  0
    1.7161   -1.4436    0.0000 C   0  0  3  0  0  0  0  0  0  0  0  0
   -0.3462    3.6090    0.0000 C   0  0  0  0  0  0  0  0  0  0  0  0
    0.8765    4.3455    0.0000 C   0  0  0  0  0  0  0  0  0  0  0  0
    4.5738   -0.6040    0.0000 C   0  0  0  0  0  0  0  0  0  0  0  0
   -0.7586    4.3308    0.0000 C   0  0  0  0  0  0  0  0  0  0  0  0
    0.4640    5.0378    0.0000 C   0  0  0  0  0  0  0  0  0  0  0  0
    0.8912   -1.4436    0.0000 C   0  0  0  0  0  0  0  0  0  0  0  0
   -0.3462    5.0378    0.0000 C   0  0  0  0  0  0  0  0  0  0  0  0
    2.1433   -2.1653    0.0000 C   0  0  0  0  0  0  0  0  0  0  0  0
   -0.3314   -2.1653    0.0000 C   0  0  0  0  0  0  0  0  0  0  0  0
   -4.0582   -4.1982    0.0000 C   0  0  0  0  0  0  0  0  0  0  0  0
   -2.9240   -3.5500    0.0000 C   0  0  0  0  0  0  0  0  0  0  0  0
   -4.2350   -3.4027    0.0000 C   0  0  0  0  0  0  0  0  0  0  0  0
   -3.5280   -3.0050    0.0000 C   0  0  0  0  0  0  0  0  0  0  0  0
   -2.8356   -5.0231    0.0000 C   0  0  0  0  0  0  0  0  0  0  0  0
   -2.0107   -5.0378    0.0000 C   0  0  0  0  0  0  0  0  0  0  0  0
   -0.3609   -3.5648    0.0000 C   0  0  0  0  0  0  0  0  0  0  0  0
   -0.7586   -4.3160    0.0000 C   0  0  0  0  0  0  0  0  0  0  0  0
  1 31  1  0  0  0  0
 36  2  1  1  0  0  0
  3 37  1  0  0  0  0
  4 33  1  0  0  0  0
  4 34  1  0  0  0  0
  5 24  2  0  0  0  0
  6 47  1  0  0  0  0
  6 50  1  0  0  0  0
  7 50  2  0  0  0  0
  8 51  2  0  0  0  0
  9 52  2  0  0  0  0
 10 56  1  0  0  0  0
 10 58  1  0  0  0  0
 18 11  1  1  0  0  0
 11 24  1  0  0  0  0
 11 27  1  0  0  0  0
 12 19  1  0  0  0  0
 12 22  1  0  0  0  0
 12 28  1  0  0  0  0
 13 19  2  0  0  0  0
 13 21  1  0  0  0  0
 14 24  1  0  0  0  0
 14 41  1  0  0  0  0
 15 39  1  0  0  0  0
 15 44  1  0  0  0  0
 16 51  1  0  0  0  0
 16 52  1  0  0  0  0
 16 55  1  0  0  0  0
 17 50  1  0  0  0  0
 17 57  1  0  0  0  0
 18 19  1  0  0  0  0
 18 20  1  0  0  0  0
 20 25  1  0  0  0  0
 20 26  1  0  0  0  0
 20 29  1  0  0  0  0
 21 22  2  0  0  0  0
 21 23  1  0  0  0  0
 23 31  1  0  0  0  0
 23 32  2  0  0  0  0
 25 33  1  0  0  0  0
 26 34  1  0  0  0  0
 30 27  1  1  0  0  0
 28 35  1  0  0  0  0
 30 36  1  0  0  0  0
 30 39  1  0  0  0  0
 31 38  2  0  0  0  0
 32 37  1  0  0  0  0
 35 42  2  0  0  0  0
 35 43  1  0  0  0  0
 36 44  1  0  0  0  0
 37 40  2  0  0  0  0
 38 40  1  0  0  0  0
 41 47  1  0  0  0  0
 41 49  1  1  0  0  0
 42 45  1  0  0  0  0
 43 46  2  0  0  0  0
 45 48  2  0  0  0  0
 46 48  1  0  0  0  0
 51 53  1  0  0  0  0
 52 54  1  0  0  0  0
 53 54  2  0  0  0  0
 55 56  1  0  0  0  0
 57 58  1  0  0  0  0
M  END
> <PUBCHEM_COMPOUND_ID_TYPE>
0

> <PUBCHEM_TOTAL_CHARGE>
0

> <PUBCHEM_SUBSTANCE_ID>
310942759

> <PUBCHEM_SUBSTANCE_VERSION>
1

> <PUBCHEM_EXT_DATASOURCE_NAME>
4488

> <PUBCHEM_EXT_DATASOURCE_REGID>
SCHEMBL16120812

> <PUBCHEM_SUBSTANCE_COMMENT>
InChI=1S/C41H50F3N7O7/c1-27(26-58-40(55)46-14-18-57-19-15-50-35(52)10-11-36(50)53)47-39(54)51(24-29-21-45-22-33(29)44)37(41(2)12-16-56-17-13-41)38-48-34(31-20-30(42)8-9-32(31)43)25-49(38)23-28-6-4-3-5-7-28/h3-11,20,25,27,29,33,37,45H,12-19,21-24,26H2,1-2H3,(H,46,55)(H,47,54)/t27-,29-,33-,37-/m0/s1
InChIKey=HCPQTRDWUSMFKH-IMQYQNLNSA-N

> <PUBCHEM_SUBSTANCE_SYNONYM>
SCHEMBL16120812

> <PUBCHEM_XREF_EXT_ID>
SCHEMBL16120812

> <PUBCHEM_EXT_DATASOURCE_URL>
https://www.surechembl.org/

> <PUBCHEM_EXT_SUBSTANCE_URL>
https://www.surechembl.org/chemical/SCHEMBL16120812

> <PUBCHEM_CID_ASSOCIATIONS>
117609276  1

> <PUBCHEM_COORDINATE_TYPE>
1
3

> <PUBCHEM_BONDANNOTATIONS>
18  11  5
36  2  5
30  27  5
41  49  5

$$$$
