310938150
  -OEChem-07211613022D

 43 47  0     1  0  0  0  0  0999 V2000
    7.6194   -1.9058    0.0000 O   0  0  0  0  0  0  0  0  0  0  0  0
    7.0156    0.9349    0.0000 O   0  0  0  0  0  0  0  0  0  0  0  0
   11.4316   -0.8250    0.0000 O   0  0  0  0  0  0  0  0  0  0  0  0
   11.0724    2.5920    0.0000 O   0  0  0  0  0  0  0  0  0  0  0  0
   12.0286    1.5301    0.0000 O   0  0  0  0  0  0  0  0  0  0  0  0
   15.7184   -0.8250    0.0000 O   0  0  0  0  0  0  0  0  0  0  0  0
    7.5425   -0.4377    0.0000 N   0  0  0  0  0  0  0  0  0  0  0  0
   10.7171    0.4125    0.0000 N   0  0  0  0  0  0  0  0  0  0  0  0
   12.8605    0.0000    0.0000 N   0  0  0  0  0  0  0  0  0  0  0  0
   15.0039    0.4125    0.0000 N   0  0  0  0  0  0  0  0  0  0  0  0
    9.9634    0.0770    0.0000 C   0  0  0  0  0  0  0  0  0  0  0  0
    8.3495   -0.2661    0.0000 C   0  0  0  0  0  0  0  0  0  0  0  0
    9.4114    0.6901    0.0000 C   0  0  0  0  0  0  0  0  0  0  0  0
    6.9294    0.1144    0.0000 C   0  0  0  0  0  0  0  0  0  0  0  0
    7.2069   -1.1913    0.0000 C   0  0  0  0  0  0  0  0  0  0  0  0
    6.3865   -1.1051    0.0000 C   0  0  0  0  0  0  0  0  0  0  0  0
    6.2149   -0.2981    0.0000 C   0  0  0  0  0  0  0  0  0  0  0  0
   10.6308    1.2330    0.0000 C   0  0  3  0  0  0  0  0  0  0  0  0
    8.6044    0.5185    0.0000 C   0  0  0  0  0  0  0  0  0  0  0  0
    9.8239    1.4045    0.0000 C   0  0  0  0  0  0  0  0  0  0  0  0
    9.7084   -0.7077    0.0000 C   0  0  0  0  0  0  0  0  0  0  0  0
    8.9015   -0.8792    0.0000 C   0  0  0  0  0  0  0  0  0  0  0  0
   11.4316    0.0000    0.0000 C   0  0  0  0  0  0  0  0  0  0  0  0
   11.2439    1.7850    0.0000 C   0  0  0  0  0  0  0  0  0  0  0  0
    5.7734   -1.6571    0.0000 C   0  0  0  0  0  0  0  0  0  0  0  0
    5.4303   -0.0432    0.0000 C   0  0  0  0  0  0  0  0  0  0  0  0
    4.9887   -1.4021    0.0000 C   0  0  0  0  0  0  0  0  0  0  0  0
    4.8172   -0.5952    0.0000 C   0  0  0  0  0  0  0  0  0  0  0  0
   12.1460    0.4125    0.0000 C   0  0  0  0  0  0  0  0  0  0  0  0
   13.5750    0.4125    0.0000 C   0  0  0  0  0  0  0  0  0  0  0  0
   14.2894    0.0000    0.0000 C   0  0  3  0  0  0  0  0  0  0  0  0
   14.2894   -0.8250    0.0000 C   0  0  3  0  0  0  0  0  0  0  0  0
   15.7184    0.0000    0.0000 C   0  0  0  0  0  0  0  0  0  0  0  0
   16.4328    0.4125    0.0000 C   0  0  0  0  0  0  0  0  0  0  0  0
   15.0039   -1.2375    0.0000 C   0  0  0  0  0  0  0  0  0  0  0  0
   17.1473    0.0000    0.0000 C   0  0  0  0  0  0  0  0  0  0  0  0
   13.5750   -1.2375    0.0000 C   0  0  0  0  0  0  0  0  0  0  0  0
   17.1473   -0.8250    0.0000 C   0  0  0  0  0  0  0  0  0  0  0  0
   17.8618    0.4125    0.0000 C   0  0  0  0  0  0  0  0  0  0  0  0
   15.0039   -2.0625    0.0000 C   0  0  0  0  0  0  0  0  0  0  0  0
   17.8618   -1.2375    0.0000 C   0  0  0  0  0  0  0  0  0  0  0  0
   18.5763    0.0000    0.0000 C   0  0  0  0  0  0  0  0  0  0  0  0
   18.5763   -0.8250    0.0000 C   0  0  0  0  0  0  0  0  0  0  0  0
  1 15  2  0  0  0  0
  2 14  2  0  0  0  0
  3 23  2  0  0  0  0
  4 24  2  0  0  0  0
  5 24  1  0  0  0  0
  6 33  2  0  0  0  0
  7 12  1  0  0  0  0
  7 14  1  0  0  0  0
  7 15  1  0  0  0  0
  8 11  1  0  0  0  0
  8 18  1  0  0  0  0
  8 23  1  0  0  0  0
  9 29  1  0  0  0  0
  9 30  1  0  0  0  0
 31 10  1  1  0  0  0
 10 33  1  0  0  0  0
 11 13  2  0  0  0  0
 11 21  1  0  0  0  0
 12 19  2  0  0  0  0
 12 22  1  0  0  0  0
 13 19  1  0  0  0  0
 13 20  1  0  0  0  0
 14 17  1  0  0  0  0
 15 16  1  0  0  0  0
 16 17  2  0  0  0  0
 16 25  1  0  0  0  0
 17 26  1  0  0  0  0
 18 20  1  0  0  0  0
 18 24  1  0  0  0  0
 21 22  2  0  0  0  0
 23 29  1  0  0  0  0
 25 27  2  0  0  0  0
 26 28  2  0  0  0  0
 27 28  1  0  0  0  0
 30 31  1  0  0  0  0
 31 32  1  0  0  0  0
 32 35  1  0  0  0  0
 32 37  1  6  0  0  0
 33 34  1  0  0  0  0
 34 36  1  0  0  0  0
 35 40  1  0  0  0  0
 36 38  2  0  0  0  0
 36 39  1  0  0  0  0
 38 41  1  0  0  0  0
 39 42  2  0  0  0  0
 41 43  2  0  0  0  0
 42 43  1  0  0  0  0
M  END
> <PUBCHEM_COMPOUND_ID_TYPE>
0

> <PUBCHEM_TOTAL_CHARGE>
0

> <PUBCHEM_SUBSTANCE_ID>
310938150

> <PUBCHEM_SUBSTANCE_VERSION>
1

> <PUBCHEM_EXT_DATASOURCE_NAME>
4488

> <PUBCHEM_EXT_DATASOURCE_REGID>
SCHEMBL16116002

> <PUBCHEM_SUBSTANCE_COMMENT>
InChI=1S/C33H34N4O6/c1-3-20(2)26(35-29(38)15-21-9-5-4-6-10-21)18-34-19-30(39)37-27-14-13-23(16-22(27)17-28(37)33(42)43)36-31(40)24-11-7-8-12-25(24)32(36)41/h4-14,16,20,26,28,34H,3,15,17-19H2,1-2H3,(H,35,38)(H,42,43)/t20-,26+,28?/m0/s1
InChIKey=JEIWKUDDAVDJHU-ZBKFSPRQSA-N

> <PUBCHEM_SUBSTANCE_SYNONYM>
SCHEMBL16116002

> <PUBCHEM_XREF_EXT_ID>
SCHEMBL16116002

> <PUBCHEM_EXT_DATASOURCE_URL>
https://www.surechembl.org/

> <PUBCHEM_EXT_SUBSTANCE_URL>
https://www.surechembl.org/chemical/SCHEMBL16116002

> <PUBCHEM_CID_ASSOCIATIONS>
117605700  1

> <PUBCHEM_COORDINATE_TYPE>
1
3

> <PUBCHEM_BONDANNOTATIONS>
31  10  5
32  37  6

$$$$
