310942701
  -OEChem-07211613022D

 84 90  0     1  0  0  0  0  0999 V2000
    0.7245    2.3154    0.0000 F   0  0  0  0  0  0  0  0  0  0  0  0
    7.1928    0.4183    0.0000 F   0  0  0  0  0  0  0  0  0  0  0  0
    0.7245   -1.0009    0.0000 F   0  0  0  0  0  0  0  0  0  0  0  0
    3.0997    6.0798    0.0000 F   0  0  0  0  0  0  0  0  0  0  0  0
    3.2491    0.5527    0.0000 O   0  0  0  0  0  0  0  0  0  0  0  0
    5.7438    3.6898    0.0000 O   0  0  0  0  0  0  0  0  0  0  0  0
    3.0399   -0.6722    0.0000 O   0  0  0  0  0  0  0  0  0  0  0  0
    6.2816   -2.6291    0.0000 O   0  0  0  0  0  0  0  0  0  0  0  0
    4.8922   -2.2856    0.0000 O   0  0  0  0  0  0  0  0  0  0  0  0
    2.5320   -3.0026    0.0000 O   0  0  0  0  0  0  0  0  0  0  0  0
   -0.0374   -4.4964    0.0000 O   0  0  0  0  0  0  0  0  0  0  0  0
   -7.1480   -2.7038    0.0000 O   0  0  0  0  0  0  0  0  0  0  0  0
   -5.1462   -0.5975    0.0000 O   0  0  0  0  0  0  0  0  0  0  0  0
   -1.6357   -2.0017    0.0000 O   0  0  0  0  0  0  0  0  0  0  0  0
   -0.8141   -4.7056    0.0000 O   0  0  0  0  0  0  0  0  0  0  0  0
    3.0698    2.4798    0.0000 N   0  0  0  0  0  0  0  0  0  0  0  0
    4.6383    0.9262    0.0000 N   0  0  0  0  0  0  0  0  0  0  0  0
    2.9353    1.1502    0.0000 N   0  0  0  0  0  0  0  0  0  0  0  0
    5.8782   -1.2548    0.0000 N   0  0  0  0  0  0  0  0  0  0  0  0
    2.9353   -4.3619    0.0000 N   0  0  0  0  0  0  0  0  0  0  0  0
    0.9486   -3.4657    0.0000 N   0  0  0  0  0  0  0  0  0  0  0  0
   -5.9828   -1.8075    0.0000 N   0  0  0  0  0  0  0  0  0  0  0  0
   -1.2324   -3.3611    0.0000 N   0  0  0  0  0  0  0  0  0  0  0  0
   -0.4407   -6.0798    0.0000 N   0  0  0  0  0  0  0  0  0  0  0  0
   -1.8150   -5.7064    0.0000 N   0  0  0  0  0  0  0  0  0  0  0  0
    3.4732    1.7777    0.0000 C   0  0  0  0  0  0  0  0  0  0  0  0
    4.2947    1.6880    0.0000 C   0  0  3  0  0  0  0  0  0  0  0  0
    2.1586    1.5088    0.0000 C   0  0  0  0  0  0  0  0  0  0  0  0
    4.7728    2.3752    0.0000 C   0  0  0  0  0  0  0  0  0  0  0  0
    2.2632    2.3154    0.0000 C   0  0  0  0  0  0  0  0  0  0  0  0
    1.4416    1.0905    0.0000 C   0  0  0  0  0  0  0  0  0  0  0  0
    4.0557    0.3585    0.0000 C   0  0  0  0  0  0  0  0  0  0  0  0
    5.4450    0.8365    0.0000 C   0  0  0  0  0  0  0  0  0  0  0  0
    3.3985    3.2416    0.0000 C   0  0  0  0  0  0  0  0  0  0  0  0
    5.7587    0.0896    0.0000 C   0  0  3  0  0  0  0  0  0  0  0  0
    0.7245    1.5088    0.0000 C   0  0  0  0  0  0  0  0  0  0  0  0
    4.4441    3.0922    0.0000 C   0  0  0  0  0  0  0  0  0  0  0  0
    5.5943    2.2706    0.0000 C   0  0  0  0  0  0  0  0  0  0  0  0
    1.4416    0.2540    0.0000 C   0  0  0  0  0  0  0  0  0  0  0  0
    2.9205    3.9138    0.0000 C   0  0  0  0  0  0  0  0  0  0  0  0
    6.5654   -0.1046    0.0000 C   0  0  3  0  0  0  0  0  0  0  0  0
    3.8167   -0.4481    0.0000 C   0  0  3  0  0  0  0  0  0  0  0  0
    5.3405   -0.6423    0.0000 C   0  0  0  0  0  0  0  0  0  0  0  0
    0.7395   -0.1494    0.0000 C   0  0  0  0  0  0  0  0  0  0  0  0
    6.6401   -0.9262    0.0000 C   0  0  0  0  0  0  0  0  0  0  0  0
    0.0074    1.0756    0.0000 C   0  0  0  0  0  0  0  0  0  0  0  0
    4.9222    3.7794    0.0000 C   0  0  0  0  0  0  0  0  0  0  0  0
    6.0724    2.9877    0.0000 C   0  0  0  0  0  0  0  0  0  0  0  0
    0.0074    0.2540    0.0000 C   0  0  0  0  0  0  0  0  0  0  0  0
    3.2491    4.6607    0.0000 C   0  0  0  0  0  0  0  0  0  0  0  0
    5.6840   -2.0316    0.0000 C   0  0  0  0  0  0  0  0  0  0  0  0
    2.0988    3.8391    0.0000 C   0  0  0  0  0  0  0  0  0  0  0  0
    2.7561    5.3180    0.0000 C   0  0  0  0  0  0  0  0  0  0  0  0
    4.3993   -1.0158    0.0000 C   0  0  0  0  0  0  0  0  0  0  0  0
    1.6208    4.4815    0.0000 C   0  0  0  0  0  0  0  0  0  0  0  0
    1.9644    5.2433    0.0000 C   0  0  0  0  0  0  0  0  0  0  0  0
    6.0724   -3.4209    0.0000 C   0  0  0  0  0  0  0  0  0  0  0  0
    5.2956   -3.6450    0.0000 C   0  0  0  0  0  0  0  0  0  0  0  0
    4.7130   -3.1071    0.0000 C   0  0  0  0  0  0  0  0  0  0  0  0
    5.1014   -4.4367    0.0000 C   0  0  0  0  0  0  0  0  0  0  0  0
    3.6972   -4.1229    0.0000 C   0  0  0  0  0  0  0  0  0  0  0  0
    3.9213   -3.3163    0.0000 C   0  0  0  0  0  0  0  0  0  0  0  0
    4.3097   -4.6757    0.0000 C   0  0  0  0  0  0  0  0  0  0  0  0
    2.3080   -3.8092    0.0000 C   0  0  0  0  0  0  0  0  0  0  0  0
    1.5611   -4.0184    0.0000 C   0  0  3  0  0  0  0  0  0  0  0  0
    0.1568   -3.6748    0.0000 C   0  0  0  0  0  0  0  0  0  0  0  0
   -0.4556   -3.1221    0.0000 C   0  0  3  0  0  0  0  0  0  0  0  0
   -6.7895   -1.9271    0.0000 C   0  0  0  0  0  0  0  0  0  0  0  0
   -5.8932   -1.0009    0.0000 C   0  0  0  0  0  0  0  0  0  0  0  0
    1.3668   -4.8102    0.0000 C   0  0  0  0  0  0  0  0  0  0  0  0
   -0.2614   -2.2856    0.0000 C   0  0  0  0  0  0  0  0  0  0  0  0
   -7.1928   -1.2398    0.0000 C   0  0  0  0  0  0  0  0  0  0  0  0
   -6.6251   -0.6274    0.0000 C   0  0  0  0  0  0  0  0  0  0  0  0
   -5.3703   -2.3602    0.0000 C   0  0  0  0  0  0  0  0  0  0  0  0
   -1.8449   -2.8084    0.0000 C   0  0  0  0  0  0  0  0  0  0  0  0
    0.5751   -5.0640    0.0000 C   0  0  0  0  0  0  0  0  0  0  0  0
   -4.5935   -2.1362    0.0000 C   0  0  0  0  0  0  0  0  0  0  0  0
   -2.6216   -3.0175    0.0000 C   0  0  0  0  0  0  0  0  0  0  0  0
   -0.8589   -1.7777    0.0000 C   0  0  0  0  0  0  0  0  0  0  0  0
    0.5453   -2.0764    0.0000 C   0  0  0  0  0  0  0  0  0  0  0  0
   -4.0109   -2.7038    0.0000 C   0  0  0  0  0  0  0  0  0  0  0  0
   -3.2341   -2.4648    0.0000 C   0  0  0  0  0  0  0  0  0  0  0  0
    0.3361   -5.8558    0.0000 C   0  0  0  0  0  0  0  0  0  0  0  0
   -1.0532   -5.4973    0.0000 C   0  0  0  0  0  0  0  0  0  0  0  0
  1 36  1  0  0  0  0
 41  2  1  1  0  0  0
  3 44  1  0  0  0  0
  4 53  1  0  0  0  0
  5 32  2  0  0  0  0
  6 47  1  0  0  0  0
  6 48  1  0  0  0  0
 42  7  1  6  0  0  0
  8 51  1  0  0  0  0
  8 57  1  0  0  0  0
  9 51  2  0  0  0  0
 10 64  2  0  0  0  0
 11 66  2  0  0  0  0
 12 68  2  0  0  0  0
 13 69  2  0  0  0  0
 14 75  2  0  0  0  0
 15 84  2  0  0  0  0
 16 26  1  0  0  0  0
 16 30  1  0  0  0  0
 16 34  1  0  0  0  0
 27 17  1  1  0  0  0
 17 32  1  0  0  0  0
 17 33  1  0  0  0  0
 18 26  2  0  0  0  0
 18 28  1  0  0  0  0
 19 43  1  0  0  0  0
 19 45  1  0  0  0  0
 19 51  1  0  0  0  0
 20 61  1  0  0  0  0
 20 64  1  0  0  0  0
 65 21  1  6  0  0  0
 21 66  1  0  0  0  0
 22 68  1  0  0  0  0
 22 69  1  0  0  0  0
 22 74  1  0  0  0  0
 67 23  1  1  0  0  0
 23 75  1  0  0  0  0
 24 83  1  0  0  0  0
 24 84  1  0  0  0  0
 25 84  1  0  0  0  0
 26 27  1  0  0  0  0
 27 29  1  0  0  0  0
 28 30  2  0  0  0  0
 28 31  1  0  0  0  0
 29 37  1  0  0  0  0
 29 38  1  0  0  0  0
 31 36  2  0  0  0  0
 31 39  1  0  0  0  0
 32 42  1  0  0  0  0
 35 33  1  1  0  0  0
 34 40  1  0  0  0  0
 35 41  1  0  0  0  0
 35 43  1  0  0  0  0
 36 46  1  0  0  0  0
 37 47  1  0  0  0  0
 38 48  1  0  0  0  0
 39 44  2  0  0  0  0
 40 50  1  0  0  0  0
 40 52  2  0  0  0  0
 41 45  1  0  0  0  0
 42 54  1  0  0  0  0
 44 49  1  0  0  0  0
 46 49  2  0  0  0  0
 50 53  2  0  0  0  0
 52 55  1  0  0  0  0
 53 56  1  0  0  0  0
 55 56  2  0  0  0  0
 57 58  1  0  0  0  0
 58 59  2  0  0  0  0
 58 60  1  0  0  0  0
 59 62  1  0  0  0  0
 60 63  2  0  0  0  0
 61 62  2  0  0  0  0
 61 63  1  0  0  0  0
 64 65  1  0  0  0  0
 65 70  1  0  0  0  0
 66 67  1  0  0  0  0
 67 71  1  0  0  0  0
 68 72  1  0  0  0  0
 69 73  1  0  0  0  0
 70 76  1  0  0  0  0
 71 79  1  0  0  0  0
 71 80  1  0  0  0  0
 72 73  2  0  0  0  0
 74 77  1  0  0  0  0
 75 78  1  0  0  0  0
 76 83  1  0  0  0  0
 77 81  1  0  0  0  0
 78 82  1  0  0  0  0
 81 82  1  0  0  0  0
M  END
> <PUBCHEM_COMPOUND_ID_TYPE>
0

> <PUBCHEM_TOTAL_CHARGE>
0

> <PUBCHEM_SUBSTANCE_ID>
310942701

> <PUBCHEM_SUBSTANCE_VERSION>
1

> <PUBCHEM_EXT_DATASOURCE_NAME>
4488

> <PUBCHEM_EXT_DATASOURCE_REGID>
SCHEMBL16120747

> <PUBCHEM_SUBSTANCE_COMMENT>
InChI=1S/C59H72F4N10O11/c1-35(2)52(69-49(75)12-5-4-6-24-72-50(76)19-20-51(72)77)56(79)68-47(11-8-23-65-58(64)81)55(78)66-43-16-13-37(14-17-43)34-84-59(82)71-30-40(46(63)32-71)31-73(57(80)36(3)74)53(39-21-25-83-26-22-39)54-67-48(44-28-42(61)15-18-45(44)62)33-70(54)29-38-9-7-10-41(60)27-38/h7,9-10,13-20,27-28,33,35-36,39-40,46-47,52-53,74H,4-6,8,11-12,21-26,29-32,34H2,1-3H3,(H,66,78)(H,68,79)(H,69,75)(H3,64,65,81)/t36-,40-,46-,47-,52-,53+/m0/s1
InChIKey=ZWBIPPYUTDJFAG-BDIHTYEYSA-N

> <PUBCHEM_SUBSTANCE_SYNONYM>
SCHEMBL16120747

> <PUBCHEM_XREF_EXT_ID>
SCHEMBL16120747

> <PUBCHEM_EXT_DATASOURCE_URL>
https://www.surechembl.org/

> <PUBCHEM_EXT_SUBSTANCE_URL>
https://www.surechembl.org/chemical/SCHEMBL16120747

> <PUBCHEM_CID_ASSOCIATIONS>
117609227  1

> <PUBCHEM_COORDINATE_TYPE>
1
3

> <PUBCHEM_BONDANNOTATIONS>
27  17  5
41  2  5
65  21  6
67  23  5
35  33  5
42  7  6

$$$$
