310937094
  -OEChem-07211613022D

 26 29  0     0  0  0  0  0  0999 V2000
    0.7363   -0.8590    0.0000 F   0  0  0  0  0  0  0  0  0  0  0  0
    1.4481   -2.0862    0.0000 F   0  0  0  0  0  0  0  0  0  0  0  0
    1.4235   -0.4418    0.0000 F   0  0  0  0  0  0  0  0  0  0  0  0
    3.5097    0.0000    0.0000 O   0  0  0  0  0  0  0  0  0  0  0  0
    2.8471   -1.2272    0.0000 N   0  0  0  0  0  0  0  0  0  0  0  0
    3.5342   -3.2643    0.0000 N   0  0  0  0  0  0  0  0  0  0  0  0
    5.0559   -2.3316    0.0000 N   0  0  0  0  0  0  0  0  0  0  0  0
    5.5222   -1.6444    0.0000 N   0  0  0  0  0  0  0  0  0  0  0  0
    0.7118   -2.4543    0.0000 N   0  0  0  0  0  0  0  0  0  0  0  0
    2.8471   -2.0616    0.0000 C   0  0  0  0  0  0  0  0  0  0  0  0
    3.5342   -2.4789    0.0000 C   0  0  0  0  0  0  0  0  0  0  0  0
    4.2706   -2.0616    0.0000 C   0  0  0  0  0  0  0  0  0  0  0  0
    4.2706   -1.2272    0.0000 C   0  0  0  0  0  0  0  0  0  0  0  0
    3.5342   -0.8099    0.0000 C   0  0  0  0  0  0  0  0  0  0  0  0
    2.1353   -2.4789    0.0000 C   0  0  0  0  0  0  0  0  0  0  0  0
    2.1353   -3.2643    0.0000 C   0  0  0  0  0  0  0  0  0  0  0  0
    2.1353   -0.8345    0.0000 C   0  0  0  0  0  0  0  0  0  0  0  0
    5.0559   -0.9817    0.0000 C   0  0  0  0  0  0  0  0  0  0  0  0
    2.8471   -3.6815    0.0000 C   0  0  0  0  0  0  0  0  0  0  0  0
    1.4235   -3.6815    0.0000 C   0  0  0  0  0  0  0  0  0  0  0  0
    1.4481   -1.2517    0.0000 C   0  0  0  0  0  0  0  0  0  0  0  0
    0.7118   -3.2643    0.0000 C   0  0  0  0  0  0  0  0  0  0  0  0
    1.3990   -4.4915    0.0000 C   0  0  0  0  0  0  0  0  0  0  0  0
    0.0000   -3.6815    0.0000 C   0  0  0  0  0  0  0  0  0  0  0  0
    0.7118   -4.9087    0.0000 C   0  0  0  0  0  0  0  0  0  0  0  0
    0.0000   -4.4915    0.0000 C   0  0  0  0  0  0  0  0  0  0  0  0
  1 21  1  0  0  0  0
  2 21  1  0  0  0  0
  3 21  1  0  0  0  0
  4 14  2  0  0  0  0
  5 10  1  0  0  0  0
  5 14  1  0  0  0  0
  5 17  1  0  0  0  0
  6 11  2  0  0  0  0
  6 19  1  0  0  0  0
  7  8  1  0  0  0  0
  7 12  1  0  0  0  0
  8 18  2  0  0  0  0
  9 22  1  0  0  0  0
 10 11  1  0  0  0  0
 10 15  2  0  0  0  0
 11 12  1  0  0  0  0
 12 13  2  0  0  0  0
 13 14  1  0  0  0  0
 13 18  1  0  0  0  0
 15 16  1  0  0  0  0
 16 19  2  0  0  0  0
 16 20  1  0  0  0  0
 17 21  1  0  0  0  0
 20 22  1  0  0  0  0
 20 23  2  0  0  0  0
 22 24  2  0  0  0  0
 23 25  1  0  0  0  0
 24 26  1  0  0  0  0
 25 26  2  0  0  0  0
M  END
> <PUBCHEM_COMPOUND_ID_TYPE>
0

> <PUBCHEM_TOTAL_CHARGE>
0

> <PUBCHEM_SUBSTANCE_ID>
310937094

> <PUBCHEM_SUBSTANCE_VERSION>
1

> <PUBCHEM_EXT_DATASOURCE_NAME>
4488

> <PUBCHEM_EXT_DATASOURCE_REGID>
SCHEMBL16114809

> <PUBCHEM_SUBSTANCE_COMMENT>
InChI=1S/C17H12F3N5O/c18-17(19,20)8-25-13-5-9(10-3-1-2-4-12(10)21)6-22-15(13)14-11(16(25)26)7-23-24-14/h1-7H,8,21H2,(H,23,24)
InChIKey=BBGVMWOKOVIWII-UHFFFAOYSA-N

> <PUBCHEM_SUBSTANCE_SYNONYM>
SCHEMBL16114809

> <PUBCHEM_XREF_EXT_ID>
SCHEMBL16114809

> <PUBCHEM_EXT_DATASOURCE_URL>
https://www.surechembl.org/

> <PUBCHEM_EXT_SUBSTANCE_URL>
https://www.surechembl.org/chemical/SCHEMBL16114809

> <PUBCHEM_CID_ASSOCIATIONS>
86299021  1

> <PUBCHEM_COORDINATE_TYPE>
1
3

$$$$
