310929322
  -OEChem-07211613022D

 19 19  0     0  0  0  0  0  0999 V2000
    1.1209   -4.2844    0.0000 S   0  0  0  0  0  0  0  0  0  0  0  0
    0.3985   -4.6830    0.0000 O   0  0  0  0  0  0  0  0  0  0  0  0
    1.8433   -3.8610    0.0000 O   0  0  0  0  0  0  0  0  0  0  0  0
    3.1884   -0.7223    0.0000 O   0  0  0  0  0  0  0  0  0  0  0  0
    4.4090   -1.4198    0.0000 O   0  0  0  0  0  0  0  0  0  0  0  0
    0.6975   -3.5620    0.0000 N   0  0  0  0  0  0  0  0  0  0  0  0
    3.1884   -2.1422    0.0000 N   0  0  0  0  0  0  0  0  0  0  0  0
    1.1209   -1.4198    0.0000 C   0  0  0  0  0  0  0  0  0  0  0  0
    1.1209   -2.8646    0.0000 C   0  0  0  0  0  0  0  0  0  0  0  0
    2.3664   -2.1422    0.0000 C   0  0  0  0  0  0  0  0  0  0  0  0
    0.7223   -0.7223    0.0000 C   0  0  0  0  0  0  0  0  0  0  0  0
    0.7223   -2.1422    0.0000 C   0  0  0  0  0  0  0  0  0  0  0  0
    1.9429   -1.4198    0.0000 C   0  0  0  0  0  0  0  0  0  0  0  0
    1.9429   -2.8646    0.0000 C   0  0  0  0  0  0  0  0  0  0  0  0
    1.4448   -0.2989    0.0000 C   0  0  0  0  0  0  0  0  0  0  0  0
    0.2989    0.0000    0.0000 C   0  0  0  0  0  0  0  0  0  0  0  0
    0.0000   -1.1209    0.0000 C   0  0  0  0  0  0  0  0  0  0  0  0
    3.5869   -1.4198    0.0000 C   0  0  0  0  0  0  0  0  0  0  0  0
    1.5194   -4.9819    0.0000 C   0  0  0  0  0  0  0  0  0  0  0  0
  1  2  2  0  0  0  0
  1  3  2  0  0  0  0
  1  6  1  0  0  0  0
  1 19  1  0  0  0  0
  4 18  2  0  0  0  0
  5 18  1  0  0  0  0
  6  9  1  0  0  0  0
  7 10  1  0  0  0  0
  7 18  1  0  0  0  0
  8 11  1  0  0  0  0
  8 12  1  0  0  0  0
  8 13  2  0  0  0  0
  9 12  2  0  0  0  0
  9 14  1  0  0  0  0
 10 13  1  0  0  0  0
 10 14  2  0  0  0  0
 11 15  1  0  0  0  0
 11 16  1  0  0  0  0
 11 17  1  0  0  0  0
M  END
> <PUBCHEM_COMPOUND_ID_TYPE>
0

> <PUBCHEM_TOTAL_CHARGE>
0

> <PUBCHEM_SUBSTANCE_ID>
310929322

> <PUBCHEM_SUBSTANCE_VERSION>
1

> <PUBCHEM_EXT_DATASOURCE_NAME>
4488

> <PUBCHEM_EXT_DATASOURCE_REGID>
SCHEMBL16106488

> <PUBCHEM_SUBSTANCE_COMMENT>
InChI=1S/C12H18N2O4S/c1-12(2,3)8-5-9(13-11(15)16)7-10(6-8)14-19(4,17)18/h5-7,13-14H,1-4H3,(H,15,16)
InChIKey=MVJXFFFZSZKIQQ-UHFFFAOYSA-N

> <PUBCHEM_SUBSTANCE_SYNONYM>
SCHEMBL16106488

> <PUBCHEM_XREF_EXT_ID>
SCHEMBL16106488

> <PUBCHEM_EXT_DATASOURCE_URL>
https://www.surechembl.org/

> <PUBCHEM_EXT_SUBSTANCE_URL>
https://www.surechembl.org/chemical/SCHEMBL16106488

> <PUBCHEM_CID_ASSOCIATIONS>
117598718  1

> <PUBCHEM_COORDINATE_TYPE>
1
3

$$$$
