310941852
  -OEChem-07211613022D

 18 18  0     0  0  0  0  0  0999 V2000
    0.7256    0.8382    0.0000 N   0  0  0  0  0  0  0  0  0  0  0  0
    0.0000   -0.4128    0.0000 C   0  0  0  0  0  0  0  0  0  0  0  0
    0.0000    0.4253    0.0000 C   0  0  0  0  0  0  0  0  0  0  0  0
    0.7131   -0.8257    0.0000 C   0  0  0  0  0  0  0  0  0  0  0  0
   -0.7131   -0.8257    0.0000 C   0  0  0  0  0  0  0  0  0  0  0  0
   -0.7380   -1.6513    0.0000 C   0  0  0  0  0  0  0  0  0  0  0  0
   -0.7256    0.8507    0.0000 C   0  0  0  0  0  0  0  0  0  0  0  0
    0.7131   -1.6638    0.0000 C   0  0  0  0  0  0  0  0  0  0  0  0
    0.0000   -2.0766    0.0000 C   0  0  0  0  0  0  0  0  0  0  0  0
   -0.7131    1.6888    0.0000 C   0  0  0  0  0  0  0  0  0  0  0  0
    0.4879    0.7756    0.0000 C   0  0  0  0  0  0  0  0  0  0  0  0
    1.4261   -0.4253    0.0000 C   0  0  0  0  0  0  0  0  0  0  0  0
   -0.0125    2.0891    0.0000 C   0  0  0  0  0  0  0  0  0  0  0  0
    0.7131    1.6763    0.0000 C   0  0  0  0  0  0  0  0  0  0  0  0
   -1.4386   -2.0891    0.0000 C   0  0  0  0  0  0  0  0  0  0  0  0
   -1.4386    2.0766    0.0000 C   0  0  0  0  0  0  0  0  0  0  0  0
    1.4261    2.0766    0.0000 C   0  0  0  0  0  0  0  0  0  0  0  0
    1.4386    0.4253    0.0000 C   0  0  0  0  0  0  0  0  0  0  0  0
  1 14  1  0  0  0  0
  1 18  1  0  0  0  0
  2  3  1  0  0  0  0
  2  4  1  0  0  0  0
  2  5  2  0  0  0  0
  3  7  1  0  0  0  0
  3 11  2  0  0  0  0
  4  8  2  0  0  0  0
  4 12  1  0  0  0  0
  5  6  1  0  0  0  0
  6  9  2  0  0  0  0
  6 15  1  0  0  0  0
  7 10  2  0  0  0  0
  8  9  1  0  0  0  0
 10 13  1  0  0  0  0
 10 16  1  0  0  0  0
 13 14  2  0  0  0  0
 14 17  1  0  0  0  0
M  END
> <PUBCHEM_COMPOUND_ID_TYPE>
0

> <PUBCHEM_TOTAL_CHARGE>
0

> <PUBCHEM_SUBSTANCE_ID>
310941852

> <PUBCHEM_SUBSTANCE_VERSION>
1

> <PUBCHEM_EXT_DATASOURCE_NAME>
4488

> <PUBCHEM_EXT_DATASOURCE_REGID>
SCHEMBL16119884

> <PUBCHEM_SUBSTANCE_COMMENT>
InChI=1S/C17H23N/c1-12-7-8-14(3)17(11-12)15(4)9-13(2)10-16(5)18-6/h7-11,18H,4H2,1-3,5-6H3/b13-9-,16-10-
InChIKey=PETUTQYJAHDBOT-ZTJWTMSASA-N

> <PUBCHEM_SUBSTANCE_SYNONYM>
SCHEMBL16119884

> <PUBCHEM_XREF_EXT_ID>
SCHEMBL16119884

> <PUBCHEM_EXT_DATASOURCE_URL>
https://www.surechembl.org/

> <PUBCHEM_EXT_SUBSTANCE_URL>
https://www.surechembl.org/chemical/SCHEMBL16119884

> <PUBCHEM_CID_ASSOCIATIONS>
117608593  1

> <PUBCHEM_COORDINATE_TYPE>
1
3

$$$$
