310935557
  -OEChem-07211613022D

 31 34  0     1  0  0  0  0  0999 V2000
    0.7434   -0.5605    0.0000 S   0  0  0  0  0  0  0  0  0  0  0  0
    0.5314    0.2971    0.0000 O   0  0  0  0  0  0  0  0  0  0  0  0
    4.5538    0.2202    0.0000 O   0  0  0  0  0  0  0  0  0  0  0  0
    6.5402    2.4343    0.0000 O   0  0  0  0  0  0  0  0  0  0  0  0
    3.3420   -0.5370    0.0000 O   0  0  0  0  0  0  0  0  0  0  0  0
    2.0519   -0.2967    0.0000 N   0  0  0  0  0  0  0  0  0  0  0  0
    3.3523    3.5854    0.0000 N   0  0  0  0  0  0  0  0  0  0  0  0
    1.9233    1.1104    0.0000 C   0  0  3  0  0  0  0  0  0  0  0  0
    1.1387    0.8555    0.0000 C   0  0  3  0  0  0  0  0  0  0  0  0
    1.9233    1.9354    0.0000 C   0  0  3  0  0  0  0  0  0  0  0  0
    2.6378    2.3479    0.0000 C   0  0  3  0  0  0  0  0  0  0  0  0
    3.3523    1.9354    0.0000 C   0  0  3  0  0  0  0  0  0  0  0  0
    1.3018    0.0468    0.0000 C   0  0  0  0  0  0  0  0  0  0  0  0
    2.6378    0.6979    0.0000 C   0  0  0  0  0  0  0  0  0  0  0  0
    4.0668    2.3479    0.0000 C   0  0  3  0  0  0  0  0  0  0  0  0
    0.6538    1.5229    0.0000 C   0  0  0  0  0  0  0  0  0  0  0  0
    1.1387    2.1904    0.0000 C   0  0  0  0  0  0  0  0  0  0  0  0
    3.3523    1.1104    0.0000 C   0  0  0  0  0  0  0  0  0  0  0  0
    1.8371    0.2900    0.0000 C   0  0  0  0  0  0  0  0  0  0  0  0
    4.5039    1.6483    0.0000 C   0  0  3  0  0  0  0  0  0  0  0  0
    2.6378    3.1729    0.0000 C   0  0  0  0  0  0  0  0  0  0  0  0
    4.4541    3.0764    0.0000 C   0  0  0  0  0  0  0  0  0  0  0  0
    3.3253    2.7096    0.0000 C   0  0  0  0  0  0  0  0  0  0  0  0
    5.3284    1.6771    0.0000 C   0  0  0  0  0  0  0  0  0  0  0  0
    1.1484   -1.2793    0.0000 C   0  0  0  0  0  0  0  0  0  0  0  0
    1.9571   -1.1162    0.0000 C   0  0  0  0  0  0  0  0  0  0  0  0
    5.2786    3.1052    0.0000 C   0  0  0  0  0  0  0  0  0  0  0  0
    4.1166    0.9199    0.0000 C   0  0  0  0  0  0  0  0  0  0  0  0
    5.7158    2.4055    0.0000 C   0  0  3  0  0  0  0  0  0  0  0  0
    4.1665   -0.5082    0.0000 C   0  0  0  0  0  0  0  0  0  0  0  0
    4.6037   -1.2078    0.0000 C   0  0  0  0  0  0  0  0  0  0  0  0
  1 13  1  0  0  0  0
  1 25  1  0  0  0  0
  9  2  1  1  0  0  0
  3 28  1  0  0  0  0
  3 30  1  0  0  0  0
 29  4  1  6  0  0  0
  5 30  2  0  0  0  0
  6 13  2  0  0  0  0
  6 26  1  0  0  0  0
  7 21  1  0  0  0  0
  8  9  1  0  0  0  0
  8 10  1  0  0  0  0
  8 14  1  0  0  0  0
  8 19  1  1  0  0  0
  9 13  1  0  0  0  0
  9 16  1  0  0  0  0
 10 11  1  0  0  0  0
 10 17  1  1  0  0  0
 11 12  1  0  0  0  0
 11 21  1  6  0  0  0
 12 15  1  0  0  0  0
 12 18  1  1  0  0  0
 14 18  1  0  0  0  0
 15 20  1  0  0  0  0
 15 22  1  0  0  0  0
 15 23  1  6  0  0  0
 16 17  1  0  0  0  0
 20 24  1  0  0  0  0
 20 28  1  6  0  0  0
 22 27  1  0  0  0  0
 24 29  1  0  0  0  0
 25 26  2  0  0  0  0
 27 29  1  0  0  0  0
 30 31  1  0  0  0  0
M  END
> <PUBCHEM_COMPOUND_ID_TYPE>
0

> <PUBCHEM_TOTAL_CHARGE>
0

> <PUBCHEM_SUBSTANCE_ID>
310935557

> <PUBCHEM_SUBSTANCE_VERSION>
1

> <PUBCHEM_EXT_DATASOURCE_NAME>
4488

> <PUBCHEM_EXT_DATASOURCE_REGID>
SCHEMBL16113128

> <PUBCHEM_SUBSTANCE_COMMENT>
InChI=1S/C24H38N2O4S/c1-15(27)30-14-16-12-17(28)4-7-22(16,2)19-5-8-23(3)20(18(19)13-25)6-9-24(23,29)21-26-10-11-31-21/h10-11,16-20,28-29H,4-9,12-14,25H2,1-3H3/t16-,17+,18-,19+,20+,22+,23+,24-/m1/s1
InChIKey=VQAOUZUSUHLFNZ-IXNIKLRASA-N

> <PUBCHEM_SUBSTANCE_SYNONYM>
SCHEMBL16113128

> <PUBCHEM_XREF_EXT_ID>
SCHEMBL16113128

> <PUBCHEM_EXT_DATASOURCE_URL>
https://www.surechembl.org/

> <PUBCHEM_EXT_SUBSTANCE_URL>
https://www.surechembl.org/chemical/SCHEMBL16113128

> <PUBCHEM_CID_ASSOCIATIONS>
117603582  1

> <PUBCHEM_COORDINATE_TYPE>
1
3

> <PUBCHEM_BONDANNOTATIONS>
10  17  5
11  21  6
12  18  5
15  23  6
9  2  5
20  28  6
29  4  6
8  19  5

$$$$
