310944341
  -OEChem-07211613022D

 31 34  0     0  0  0  0  0  0999 V2000
   -4.5605   -0.1476    0.0000 Cl  0  0  0  0  0  0  0  0  0  0  0  0
   -1.4759   -0.1476    0.0000 O   0  0  0  0  0  0  0  0  0  0  0  0
    5.3279   -0.7380    0.0000 O   0  0  0  0  0  0  0  0  0  0  0  0
   -0.0443    2.3467    0.0000 O   0  0  0  0  0  0  0  0  0  0  0  0
    2.1548    0.2657    0.0000 N   0  0  0  0  0  0  0  0  0  0  0  0
    3.8963   -0.7380    0.0000 N   0  0  0  0  0  0  0  0  0  0  0  0
    0.7084    1.1069    0.0000 N   0  0  0  0  0  0  0  0  0  0  0  0
   -1.4612    1.5202    0.0000 N   0  0  0  0  0  0  0  0  0  0  0  0
    2.8928   -0.1623    0.0000 C   0  0  0  0  0  0  0  0  0  0  0  0
   -3.6159    1.1069    0.0000 C   0  0  0  0  0  0  0  0  0  0  0  0
   -2.1843    1.1069    0.0000 C   0  0  0  0  0  0  0  0  0  0  0  0
    3.0846   -0.9445    0.0000 C   0  0  0  0  0  0  0  0  0  0  0  0
    3.6749    0.0738    0.0000 C   0  0  0  0  0  0  0  0  0  0  0  0
   -4.3686    1.5349    0.0000 C   0  0  0  0  0  0  0  0  0  0  0  0
   -3.6454    0.2804    0.0000 C   0  0  0  0  0  0  0  0  0  0  0  0
   -2.1990    0.2804    0.0000 C   0  0  0  0  0  0  0  0  0  0  0  0
   -2.9222    1.5054    0.0000 C   0  0  0  0  0  0  0  0  0  0  0  0
   -2.9074   -0.1328    0.0000 C   0  0  0  0  0  0  0  0  0  0  0  0
    4.6195   -1.1512    0.0000 C   0  0  0  0  0  0  0  0  0  0  0  0
    2.1548    1.1069    0.0000 C   0  0  0  0  0  0  0  0  0  0  0  0
    1.4316   -0.1476    0.0000 C   0  0  0  0  0  0  0  0  0  0  0  0
   -0.0296    1.5054    0.0000 C   0  0  0  0  0  0  0  0  0  0  0  0
    1.4168    1.5202    0.0000 C   0  0  0  0  0  0  0  0  0  0  0  0
    0.7232    0.2657    0.0000 C   0  0  0  0  0  0  0  0  0  0  0  0
   -5.1508    1.3135    0.0000 C   0  0  0  0  0  0  0  0  0  0  0  0
   -4.5752    2.3171    0.0000 C   0  0  0  0  0  0  0  0  0  0  0  0
   -0.7380    1.1069    0.0000 C   0  0  0  0  0  0  0  0  0  0  0  0
   -5.3574    2.0958    0.0000 C   0  0  0  0  0  0  0  0  0  0  0  0
    4.6195   -1.9777    0.0000 C   0  0  0  0  0  0  0  0  0  0  0  0
   -1.4464   -0.9741    0.0000 C   0  0  0  0  0  0  0  0  0  0  0  0
    5.3574   -2.3467    0.0000 C   0  0  0  0  0  0  0  0  0  0  0  0
  1 15  1  0  0  0  0
  2 16  1  0  0  0  0
  2 30  1  0  0  0  0
  3 19  2  0  0  0  0
  4 22  2  0  0  0  0
  5  9  1  0  0  0  0
  5 20  1  0  0  0  0
  5 21  1  0  0  0  0
  6 12  1  0  0  0  0
  6 13  1  0  0  0  0
  6 19  1  0  0  0  0
  7 22  1  0  0  0  0
  7 23  1  0  0  0  0
  7 24  1  0  0  0  0
  8 11  1  0  0  0  0
  8 27  1  0  0  0  0
  9 12  1  0  0  0  0
  9 13  1  0  0  0  0
 10 14  1  0  0  0  0
 10 15  2  0  0  0  0
 10 17  1  0  0  0  0
 11 16  1  0  0  0  0
 11 17  2  0  0  0  0
 14 25  1  0  0  0  0
 14 26  1  0  0  0  0
 15 18  1  0  0  0  0
 16 18  2  0  0  0  0
 19 29  1  0  0  0  0
 20 23  1  0  0  0  0
 21 24  1  0  0  0  0
 22 27  1  0  0  0  0
 25 28  1  0  0  0  0
 26 28  1  0  0  0  0
 29 31  2  0  0  0  0
M  END
> <PUBCHEM_COMPOUND_ID_TYPE>
0

> <PUBCHEM_TOTAL_CHARGE>
0

> <PUBCHEM_SUBSTANCE_ID>
310944341

> <PUBCHEM_SUBSTANCE_VERSION>
1

> <PUBCHEM_EXT_DATASOURCE_NAME>
4488

> <PUBCHEM_EXT_DATASOURCE_REGID>
SCHEMBL16122416

> <PUBCHEM_SUBSTANCE_COMMENT>
InChI=1S/C23H31ClN4O3/c1-3-22(29)28-14-17(15-28)26-7-9-27(10-8-26)23(30)13-25-20-11-18(16-5-4-6-16)19(24)12-21(20)31-2/h3,11-12,16-17,25H,1,4-10,13-15H2,2H3
InChIKey=NUUYKYSOWWPWCL-UHFFFAOYSA-N

> <PUBCHEM_SUBSTANCE_SYNONYM>
SCHEMBL16122416

> <PUBCHEM_XREF_EXT_ID>
SCHEMBL16122416

> <PUBCHEM_EXT_DATASOURCE_URL>
https://www.surechembl.org/

> <PUBCHEM_EXT_SUBSTANCE_URL>
https://www.surechembl.org/chemical/SCHEMBL16122416

> <PUBCHEM_CID_ASSOCIATIONS>
117610598  1

> <PUBCHEM_COORDINATE_TYPE>
1
3

$$$$
