310946395
  -OEChem-07211613022D

 27 31  0     0  0  0  0  0  0999 V2000
   -2.6580  -16.1133    0.0000 N   0  0  0  0  0  0  0  0  0  0  0  0
    1.9436  -14.5738    0.0000 N   0  0  0  0  0  0  0  0  0  0  0  0
    1.1589  -15.6537    0.0000 N   0  0  0  0  0  0  0  0  0  0  0  0
   -1.8734  -15.0333    0.0000 N   0  0  0  0  0  0  0  0  0  0  0  0
   -1.8734  -16.3682    0.0000 N   0  0  0  0  0  0  0  0  0  0  0  0
    1.1589  -14.3189    0.0000 N   0  0  0  0  0  0  0  0  0  0  0  0
   -4.0870  -15.2883    0.0000 N   0  0  0  0  0  0  0  0  0  0  0  0
    1.9436  -15.3988    0.0000 C   0  0  0  0  0  0  0  0  0  0  0  0
   -2.6580  -15.2883    0.0000 C   0  0  0  0  0  0  0  0  0  0  0  0
    2.6580  -15.8113    0.0000 C   0  0  0  0  0  0  0  0  0  0  0  0
   -1.3885  -15.7008    0.0000 C   0  0  0  0  0  0  0  0  0  0  0  0
    0.6740  -14.9863    0.0000 C   0  0  0  0  0  0  0  0  0  0  0  0
    3.3725  -15.3988    0.0000 C   0  0  0  0  0  0  0  0  0  0  0  0
   -3.3725  -14.8758    0.0000 C   0  0  0  0  0  0  0  0  0  0  0  0
   -3.3725  -16.5258    0.0000 C   0  0  0  0  0  0  0  0  0  0  0  0
    2.6580  -14.1613    0.0000 C   0  0  0  0  0  0  0  0  0  0  0  0
    3.3725  -14.5738    0.0000 C   0  0  0  0  0  0  0  0  0  0  0  0
   -0.5635  -15.7008    0.0000 C   0  0  0  0  0  0  0  0  0  0  0  0
   -0.1510  -14.9863    0.0000 C   0  0  0  0  0  0  0  0  0  0  0  0
    2.6580  -16.6363    0.0000 C   0  0  0  0  0  0  0  0  0  0  0  0
   -4.0870  -16.1133    0.0000 C   0  0  0  0  0  0  0  0  0  0  0  0
    4.0870  -15.8113    0.0000 C   0  0  0  0  0  0  0  0  0  0  0  0
   -3.3725  -14.0508    0.0000 C   0  0  0  0  0  0  0  0  0  0  0  0
    3.3725  -17.0488    0.0000 C   0  0  0  0  0  0  0  0  0  0  0  0
    4.0870  -16.6363    0.0000 C   0  0  0  0  0  0  0  0  0  0  0  0
   -3.3725  -17.3508    0.0000 C   0  0  0  0  0  0  0  0  0  0  0  0
   -4.0870  -13.6383    0.0000 C   0  0  0  0  0  0  0  0  0  0  0  0
  1  5  1  0  0  0  0
  1  9  1  0  0  0  0
  1 15  1  0  0  0  0
  2  6  1  0  0  0  0
  2  8  1  0  0  0  0
  2 16  1  0  0  0  0
  3  8  2  0  0  0  0
  3 12  1  0  0  0  0
  4  9  2  0  0  0  0
  4 11  1  0  0  0  0
  5 11  2  0  0  0  0
  6 12  2  0  0  0  0
  7 14  2  0  0  0  0
  7 21  1  0  0  0  0
  8 10  1  0  0  0  0
  9 14  1  0  0  0  0
 10 13  2  0  0  0  0
 10 20  1  0  0  0  0
 11 18  1  0  0  0  0
 12 19  1  0  0  0  0
 13 17  1  0  0  0  0
 13 22  1  0  0  0  0
 14 23  1  0  0  0  0
 15 21  2  0  0  0  0
 15 26  1  0  0  0  0
 16 17  2  0  0  0  0
 18 19  1  0  0  0  0
 20 24  2  0  0  0  0
 22 25  2  0  0  0  0
 23 27  1  0  0  0  0
 24 25  1  0  0  0  0
M  END
> <PUBCHEM_COMPOUND_ID_TYPE>
0

> <PUBCHEM_TOTAL_CHARGE>
0

> <PUBCHEM_SUBSTANCE_ID>
310946395

> <PUBCHEM_SUBSTANCE_VERSION>
1

> <PUBCHEM_EXT_DATASOURCE_NAME>
4488

> <PUBCHEM_EXT_DATASOURCE_REGID>
SCHEMBL16124516

> <PUBCHEM_SUBSTANCE_COMMENT>
InChI=1S/C20H19N7/c1-3-16-20-23-18(25-27(20)13(2)12-21-16)9-8-17-22-19-15-7-5-4-6-14(15)10-11-26(19)24-17/h4-7,10-12H,3,8-9H2,1-2H3
InChIKey=WFUWDWJKBWOHAC-UHFFFAOYSA-N

> <PUBCHEM_SUBSTANCE_SYNONYM>
SCHEMBL16124516

> <PUBCHEM_XREF_EXT_ID>
SCHEMBL16124516

> <PUBCHEM_EXT_DATASOURCE_URL>
https://www.surechembl.org/

> <PUBCHEM_EXT_SUBSTANCE_URL>
https://www.surechembl.org/chemical/SCHEMBL16124516

> <PUBCHEM_CID_ASSOCIATIONS>
117612316  1

> <PUBCHEM_COORDINATE_TYPE>
1
3

$$$$
