310941298
  -OEChem-07211613022D

 22 22  0     1  0  0  0  0  0999 V2000
   -2.2438    2.7228    0.0000 F   0  0  0  0  0  0  0  0  0  0  0  0
   -1.4745    3.0594    0.0000 F   0  0  0  0  0  0  0  0  0  0  0  0
    1.3734   -2.2383    0.0000 O   0  0  0  0  0  0  0  0  0  0  0  0
    0.7853   -1.2520    0.0000 O   0  0  0  0  0  0  0  0  0  0  0  0
    0.8741   -3.0594    0.0000 O   0  0  0  0  0  0  0  0  0  0  0  0
   -0.6571   -0.4185    0.0000 N   0  0  0  0  0  0  0  0  0  0  0  0
   -1.5706    2.2580    0.0000 C   0  0  0  0  0  0  0  0  0  0  0  0
   -0.6731    1.2483    0.0000 C   0  0  3  0  0  0  0  0  0  0  0  0
    0.0481   -0.0179    0.0000 C   0  0  3  0  0  0  0  0  0  0  0  0
   -0.7533    2.0657    0.0000 C   0  0  0  0  0  0  0  0  0  0  0  0
    0.0481    0.8316    0.0000 C   0  0  0  0  0  0  0  0  0  0  0  0
   -1.9713    1.5047    0.0000 C   0  0  0  0  0  0  0  0  0  0  0  0
   -1.4264    0.9118    0.0000 C   0  0  0  0  0  0  0  0  0  0  0  0
    0.7853   -0.4025    0.0000 C   0  0  0  0  0  0  0  0  0  0  0  0
    0.8741   -2.5268    0.0000 C   0  0  0  0  0  0  0  0  0  0  0  0
    1.4905   -0.0339    0.0000 C   0  0  0  0  0  0  0  0  0  0  0  0
    1.3845   -1.6835    0.0000 C   0  0  0  0  0  0  0  0  0  0  0  0
    1.8838   -1.6612    0.0000 C   0  0  0  0  0  0  0  0  0  0  0  0
    0.8741   -1.6835    0.0000 C   0  0  0  0  0  0  0  0  0  0  0  0
    1.3734   -1.1398    0.0000 C   0  0  0  0  0  0  0  0  0  0  0  0
    1.4905    0.8316    0.0000 C   0  0  0  0  0  0  0  0  0  0  0  0
    2.2438   -0.4346    0.0000 C   0  0  0  0  0  0  0  0  0  0  0  0
  1  7  1  0  0  0  0
  2  7  1  0  0  0  0
  3 15  1  0  0  0  0
  3 17  1  0  0  0  0
  4 14  2  0  0  0  0
  5 15  2  0  0  0  0
  9  6  1  1  0  0  0
  6 15  1  0  0  0  0
  7 10  1  0  0  0  0
  7 12  1  0  0  0  0
  8 10  1  0  0  0  0
  8 11  1  0  0  0  0
  8 13  1  0  0  0  0
  9 11  1  0  0  0  0
  9 14  1  0  0  0  0
 12 13  1  0  0  0  0
 14 16  1  0  0  0  0
 16 21  2  0  0  0  0
 16 22  1  0  0  0  0
 17 18  1  0  0  0  0
 17 19  1  0  0  0  0
 17 20  1  0  0  0  0
M  END
> <PUBCHEM_COMPOUND_ID_TYPE>
0

> <PUBCHEM_TOTAL_CHARGE>
0

> <PUBCHEM_SUBSTANCE_ID>
310941298

> <PUBCHEM_SUBSTANCE_VERSION>
1

> <PUBCHEM_EXT_DATASOURCE_NAME>
4488

> <PUBCHEM_EXT_DATASOURCE_REGID>
SCHEMBL16119258

> <PUBCHEM_SUBSTANCE_COMMENT>
InChI=1S/C16H25F2NO3/c1-10(2)13(20)12(19-14(21)22-15(3,4)5)8-11-6-7-16(17,18)9-11/h11-12H,1,6-9H2,2-5H3,(H,19,21)/t11?,12-/m0/s1
InChIKey=DXSSLKYJRVANSE-KIYNQFGBSA-N

> <PUBCHEM_SUBSTANCE_SYNONYM>
SCHEMBL16119258

> <PUBCHEM_XREF_EXT_ID>
SCHEMBL16119258

> <PUBCHEM_EXT_DATASOURCE_URL>
https://www.surechembl.org/

> <PUBCHEM_EXT_SUBSTANCE_URL>
https://www.surechembl.org/chemical/SCHEMBL16119258

> <PUBCHEM_CID_ASSOCIATIONS>
117608147  1

> <PUBCHEM_COORDINATE_TYPE>
1
3

> <PUBCHEM_BONDANNOTATIONS>
9  6  5

$$$$
