310945175
  -OEChem-07211613022D

 27 30  0     1  0  0  0  0  0999 V2000
    4.8576    1.1818    0.0000 O   0  0  0  0  0  0  0  0  0  0  0  0
    0.1301   -1.0349    0.0000 O   0  0  0  0  0  0  0  0  0  0  0  0
   -3.4439    1.0122    0.0000 O   0  0  0  0  0  0  0  0  0  0  0  0
    3.0593   -0.0622    0.0000 N   0  0  0  0  0  0  0  0  0  0  0  0
    4.7105   -0.2319    0.0000 N   0  0  0  0  0  0  0  0  0  0  0  0
   -0.5938    0.1866    0.0000 N   0  0  0  0  0  0  0  0  0  0  0  0
   -2.7313   -0.2205    0.0000 N   0  0  0  0  0  0  0  0  0  0  0  0
    2.2676    0.2205    0.0000 C   0  0  0  0  0  0  0  0  0  0  0  0
    3.5456    0.6277    0.0000 C   0  0  0  0  0  0  0  0  0  0  0  0
    2.2790    1.0349    0.0000 C   0  0  0  0  0  0  0  0  0  0  0  0
    3.0706    1.2724    0.0000 C   0  0  0  0  0  0  0  0  0  0  0  0
    1.5551   -0.1980    0.0000 C   0  0  0  0  0  0  0  0  0  0  0  0
    4.3600    0.5146    0.0000 C   0  0  0  0  0  0  0  0  0  0  0  0
    0.8426    0.2092    0.0000 C   0  0  0  0  0  0  0  0  0  0  0  0
    1.5551    1.4307    0.0000 C   0  0  0  0  0  0  0  0  0  0  0  0
    3.3986   -0.7974    0.0000 C   0  0  0  0  0  0  0  0  0  0  0  0
    0.8539    1.0349    0.0000 C   0  0  0  0  0  0  0  0  0  0  0  0
    0.1188   -0.1866    0.0000 C   0  0  0  0  0  0  0  0  0  0  0  0
    4.2243   -0.8878    0.0000 C   0  0  0  0  0  0  0  0  0  0  0  0
   -1.2950   -0.1980    0.0000 C   0  0  3  0  0  0  0  0  0  0  0  0
   -2.0188    0.2092    0.0000 C   0  0  0  0  0  0  0  0  0  0  0  0
   -1.3063   -1.0235    0.0000 C   0  0  0  0  0  0  0  0  0  0  0  0
   -3.4552    0.1866    0.0000 C   0  0  0  0  0  0  0  0  0  0  0  0
   -2.7313   -1.0235    0.0000 C   0  0  0  0  0  0  0  0  0  0  0  0
   -2.0075   -1.4307    0.0000 C   0  0  0  0  0  0  0  0  0  0  0  0
   -4.1564   -0.1980    0.0000 C   0  0  0  0  0  0  0  0  0  0  0  0
   -4.8576    0.2545    0.0000 C   0  0  0  0  0  0  0  0  0  0  0  0
  1 13  2  0  0  0  0
  2 18  2  0  0  0  0
  3 23  2  0  0  0  0
  4  8  1  0  0  0  0
  4  9  1  0  0  0  0
  4 16  1  0  0  0  0
  5 13  1  0  0  0  0
  5 19  1  0  0  0  0
  6 18  1  0  0  0  0
 20  6  1  1  0  0  0
  7 21  1  0  0  0  0
  7 23  1  0  0  0  0
  7 24  1  0  0  0  0
  8 10  1  0  0  0  0
  8 12  2  0  0  0  0
  9 11  2  0  0  0  0
  9 13  1  0  0  0  0
 10 11  1  0  0  0  0
 10 15  2  0  0  0  0
 12 14  1  0  0  0  0
 14 17  2  0  0  0  0
 14 18  1  0  0  0  0
 15 17  1  0  0  0  0
 16 19  1  0  0  0  0
 20 21  1  0  0  0  0
 20 22  1  0  0  0  0
 22 25  1  0  0  0  0
 23 26  1  0  0  0  0
 24 25  1  0  0  0  0
 26 27  2  0  0  0  0
M  END
> <PUBCHEM_COMPOUND_ID_TYPE>
0

> <PUBCHEM_TOTAL_CHARGE>
0

> <PUBCHEM_SUBSTANCE_ID>
310945175

> <PUBCHEM_SUBSTANCE_VERSION>
1

> <PUBCHEM_EXT_DATASOURCE_NAME>
4488

> <PUBCHEM_EXT_DATASOURCE_REGID>
SCHEMBL16123265

> <PUBCHEM_SUBSTANCE_COMMENT>
InChI=1S/C20H22N4O3/c1-2-18(25)23-8-3-4-15(12-23)22-19(26)14-6-5-13-10-17-20(27)21-7-9-24(17)16(13)11-14/h2,5-6,10-11,15H,1,3-4,7-9,12H2,(H,21,27)(H,22,26)/t15-/m0/s1
InChIKey=HYOIPYRYERLLER-HNNXBMFYSA-N

> <PUBCHEM_SUBSTANCE_SYNONYM>
SCHEMBL16123265

> <PUBCHEM_XREF_EXT_ID>
SCHEMBL16123265

> <PUBCHEM_EXT_DATASOURCE_URL>
https://www.surechembl.org/

> <PUBCHEM_EXT_SUBSTANCE_URL>
https://www.surechembl.org/chemical/SCHEMBL16123265

> <PUBCHEM_CID_ASSOCIATIONS>
117611261  1

> <PUBCHEM_COORDINATE_TYPE>
1
3

> <PUBCHEM_BONDANNOTATIONS>
20  6  5

$$$$
