310944872
  -OEChem-07211613022D

 38 42  0     0  0  0  0  0  0999 V2000
   -0.6338    2.7263    0.0000 Cl  0  0  0  0  0  0  0  0  0  0  0  0
    2.4919    2.7263    0.0000 O   0  0  0  0  0  0  0  0  0  0  0  0
   -4.6278   -2.2922    0.0000 O   0  0  0  0  0  0  0  0  0  0  0  0
    3.9158   -2.2922    0.0000 O   0  0  0  0  0  0  0  0  0  0  0  0
    4.6278   -1.0419    0.0000 O   0  0  0  0  0  0  0  0  0  0  0  0
   -3.2039   -1.4413    0.0000 N   0  0  0  0  0  0  0  0  0  0  0  0
   -0.3560    1.0419    0.0000 C   0  0  0  0  0  0  0  0  0  0  0  0
   -0.3734    0.1910    0.0000 C   0  0  0  0  0  0  0  0  0  0  0  0
    0.3560    1.4587    0.0000 C   0  0  0  0  0  0  0  0  0  0  0  0
   -1.0853    1.4587    0.0000 C   0  0  0  0  0  0  0  0  0  0  0  0
   -1.0680   -0.2083    0.0000 C   0  0  0  0  0  0  0  0  0  0  0  0
    0.3560   -0.2083    0.0000 C   0  0  0  0  0  0  0  0  0  0  0  0
    0.3560    2.2922    0.0000 C   0  0  0  0  0  0  0  0  0  0  0  0
    1.0680    1.0419    0.0000 C   0  0  0  0  0  0  0  0  0  0  0  0
   -1.8668    1.2503    0.0000 C   0  0  0  0  0  0  0  0  0  0  0  0
   -1.2763    2.2401    0.0000 C   0  0  0  0  0  0  0  0  0  0  0  0
   -1.7973    0.1910    0.0000 C   0  0  0  0  0  0  0  0  0  0  0  0
   -1.0853   -1.0593    0.0000 C   0  0  0  0  0  0  0  0  0  0  0  0
    0.3734   -1.0419    0.0000 C   0  0  0  0  0  0  0  0  0  0  0  0
    1.0680    0.1910    0.0000 C   0  0  0  0  0  0  0  0  0  0  0  0
   -2.0578    2.0317    0.0000 C   0  0  0  0  0  0  0  0  0  0  0  0
    1.0680    2.6916    0.0000 C   0  0  0  0  0  0  0  0  0  0  0  0
   -2.5093   -1.0593    0.0000 C   0  0  0  0  0  0  0  0  0  0  0  0
    1.7973    2.2922    0.0000 C   0  0  0  0  0  0  0  0  0  0  0  0
    1.7800    1.4587    0.0000 C   0  0  0  0  0  0  0  0  0  0  0  0
   -2.4746   -0.2257    0.0000 C   0  0  0  0  0  0  0  0  0  0  0  0
   -1.7800   -1.4587    0.0000 C   0  0  0  0  0  0  0  0  0  0  0  0
    1.7800   -1.0593    0.0000 C   0  0  0  0  0  0  0  0  0  0  0  0
    1.0680   -1.4587    0.0000 C   0  0  0  0  0  0  0  0  0  0  0  0
    1.7800   -0.2257    0.0000 C   0  0  0  0  0  0  0  0  0  0  0  0
   -3.2212   -2.3095    0.0000 C   0  0  0  0  0  0  0  0  0  0  0  0
   -3.9332   -1.0593    0.0000 C   0  0  0  0  0  0  0  0  0  0  0  0
    2.5266   -1.4587    0.0000 C   0  0  0  0  0  0  0  0  0  0  0  0
   -3.9332   -2.7263    0.0000 C   0  0  0  0  0  0  0  0  0  0  0  0
   -4.6278   -1.4587    0.0000 C   0  0  0  0  0  0  0  0  0  0  0  0
    3.1865   -1.0593    0.0000 C   0  0  0  0  0  0  0  0  0  0  0  0
    3.2386    2.2922    0.0000 C   0  0  0  0  0  0  0  0  0  0  0  0
    3.9332   -1.4413    0.0000 C   0  0  0  0  0  0  0  0  0  0  0  0
  1 13  1  0  0  0  0
  2 24  1  0  0  0  0
  2 37  1  0  0  0  0
  3 34  1  0  0  0  0
  3 35  1  0  0  0  0
  4 38  2  0  0  0  0
  5 38  1  0  0  0  0
  6 23  1  0  0  0  0
  6 31  1  0  0  0  0
  6 32  1  0  0  0  0
  7  8  2  0  0  0  0
  7  9  1  0  0  0  0
  7 10  1  0  0  0  0
  8 11  1  0  0  0  0
  8 12  1  0  0  0  0
  9 13  1  0  0  0  0
  9 14  2  0  0  0  0
 10 15  1  0  0  0  0
 10 16  1  0  0  0  0
 11 17  2  0  0  0  0
 11 18  1  0  0  0  0
 12 19  2  0  0  0  0
 12 20  1  0  0  0  0
 13 22  2  0  0  0  0
 14 25  1  0  0  0  0
 15 21  1  0  0  0  0
 16 21  1  0  0  0  0
 17 26  1  0  0  0  0
 18 27  2  0  0  0  0
 19 29  1  0  0  0  0
 20 30  2  0  0  0  0
 22 24  1  0  0  0  0
 23 26  2  0  0  0  0
 23 27  1  0  0  0  0
 24 25  2  0  0  0  0
 28 29  2  0  0  0  0
 28 30  1  0  0  0  0
 28 33  1  0  0  0  0
 31 34  1  0  0  0  0
 32 35  1  0  0  0  0
 33 36  2  0  0  0  0
 36 38  1  0  0  0  0
M  END
> <PUBCHEM_COMPOUND_ID_TYPE>
0

> <PUBCHEM_TOTAL_CHARGE>
0

> <PUBCHEM_SUBSTANCE_ID>
310944872

> <PUBCHEM_SUBSTANCE_VERSION>
1

> <PUBCHEM_EXT_DATASOURCE_NAME>
4488

> <PUBCHEM_EXT_DATASOURCE_REGID>
SCHEMBL16122956

> <PUBCHEM_SUBSTANCE_COMMENT>
InChI=1S/C32H32ClNO4/c1-37-27-14-15-28(29(33)21-27)32(23-3-2-4-23)31(24-8-5-22(6-9-24)7-16-30(35)36)25-10-12-26(13-11-25)34-17-19-38-20-18-34/h5-16,21,23H,2-4,17-20H2,1H3,(H,35,36)/b16-7+,32-31+
InChIKey=NDGINAZHIFIWPZ-KJWBCHNUSA-N

> <PUBCHEM_SUBSTANCE_SYNONYM>
SCHEMBL16122956

> <PUBCHEM_XREF_EXT_ID>
SCHEMBL16122956

> <PUBCHEM_EXT_DATASOURCE_URL>
https://www.surechembl.org/

> <PUBCHEM_EXT_SUBSTANCE_URL>
https://www.surechembl.org/chemical/SCHEMBL16122956

> <PUBCHEM_CID_ASSOCIATIONS>
86270891  1

> <PUBCHEM_COORDINATE_TYPE>
1
3

$$$$
