310932485
  -OEChem-07211613022D

 27 29  0     1  0  0  0  0  0999 V2000
    2.8313   -2.1101    0.0000 O   0  0  0  0  0  0  0  0  0  0  0  0
    0.1335   -2.3505    0.0000 O   0  0  0  0  0  0  0  0  0  0  0  0
    7.2918   -2.1902    0.0000 O   0  0  0  0  0  0  0  0  0  0  0  0
    3.7394   -0.9616    0.0000 N   0  0  0  0  0  0  0  0  0  0  0  0
    3.6592   -0.1335    0.0000 N   0  0  0  0  0  0  0  0  0  0  0  0
    5.1550   -0.9616    0.0000 N   0  0  0  0  0  0  0  0  0  0  0  0
    0.0000   -0.9616    0.0000 N   0  0  0  0  0  0  0  0  0  0  0  0
    6.5707   -3.4189    0.0000 N   0  0  0  0  0  0  0  0  0  0  0  0
    2.4306   -0.6945    0.0000 C   0  0  0  0  0  0  0  0  0  0  0  0
    2.9915   -1.3088    0.0000 C   0  0  0  0  0  0  0  0  0  0  0  0
    4.4339   -1.3622    0.0000 C   0  0  0  0  0  0  0  0  0  0  0  0
    1.6293   -0.8013    0.0000 C   0  0  0  0  0  0  0  0  0  0  0  0
    2.8313    0.0000    0.0000 C   0  0  0  0  0  0  0  0  0  0  0  0
    4.4339   -2.1902    0.0000 C   0  0  0  0  0  0  0  0  0  0  0  0
    1.3088   -1.5492    0.0000 C   0  0  0  0  0  0  0  0  0  0  0  0
    5.8495   -2.1902    0.0000 C   0  0  0  0  0  0  0  0  0  0  0  0
    1.1485   -0.1335    0.0000 C   0  0  0  0  0  0  0  0  0  0  0  0
    5.8495   -1.3622    0.0000 C   0  0  0  0  0  0  0  0  0  0  0  0
    5.1550   -2.5908    0.0000 C   0  0  0  0  0  0  0  0  0  0  0  0
    0.4808   -1.6293    0.0000 C   0  0  0  0  0  0  0  0  0  0  0  0
    6.5707   -2.5908    0.0000 C   0  0  0  0  0  0  0  0  0  0  0  0
    0.3205   -0.2137    0.0000 C   0  0  0  0  0  0  0  0  0  0  0  0
    7.2918   -3.8195    0.0000 C   0  0  3  0  0  0  0  0  0  0  0  0
    0.6143   -3.0182    0.0000 C   0  0  0  0  0  0  0  0  0  0  0  0
    7.2918   -4.6475    0.0000 C   0  0  0  0  0  0  0  0  0  0  0  0
    8.0130   -3.4189    0.0000 C   0  0  0  0  0  0  0  0  0  0  0  0
    8.0130   -5.0749    0.0000 C   0  0  0  0  0  0  0  0  0  0  0  0
  1 10  1  0  0  0  0
  2 20  1  0  0  0  0
  2 24  1  0  0  0  0
  3 21  2  0  0  0  0
  4  5  1  0  0  0  0
  4 10  1  0  0  0  0
  4 11  1  0  0  0  0
  5 13  2  0  0  0  0
  6 11  2  0  0  0  0
  6 18  1  0  0  0  0
  7 20  1  0  0  0  0
  7 22  2  0  0  0  0
  8 21  1  0  0  0  0
  8 23  1  0  0  0  0
  9 10  2  0  0  0  0
  9 12  1  0  0  0  0
  9 13  1  0  0  0  0
 11 14  1  0  0  0  0
 12 15  1  0  0  0  0
 12 17  2  0  0  0  0
 14 19  2  0  0  0  0
 15 20  2  0  0  0  0
 16 18  2  0  0  0  0
 16 19  1  0  0  0  0
 16 21  1  0  0  0  0
 17 22  1  0  0  0  0
 23 25  1  0  0  0  0
 23 26  1  1  0  0  0
 25 27  1  0  0  0  0
M  END
> <PUBCHEM_COMPOUND_ID_TYPE>
0

> <PUBCHEM_TOTAL_CHARGE>
0

> <PUBCHEM_SUBSTANCE_ID>
310932485

> <PUBCHEM_SUBSTANCE_VERSION>
1

> <PUBCHEM_EXT_DATASOURCE_NAME>
4488

> <PUBCHEM_EXT_DATASOURCE_REGID>
SCHEMBL16109857

> <PUBCHEM_SUBSTANCE_COMMENT>
InChI=1S/C19H21N5O3/c1-4-12(2)23-18(25)14-5-6-16(21-10-14)24-19(26)15(11-22-24)13-7-8-20-17(9-13)27-3/h5-12,26H,4H2,1-3H3,(H,23,25)/t12-/m0/s1
InChIKey=BUZOPMCZGJTJJU-LBPRGKRZSA-N

> <PUBCHEM_SUBSTANCE_SYNONYM>
SCHEMBL16109857

> <PUBCHEM_XREF_EXT_ID>
SCHEMBL16109857

> <PUBCHEM_EXT_DATASOURCE_URL>
https://www.surechembl.org/

> <PUBCHEM_EXT_SUBSTANCE_URL>
https://www.surechembl.org/chemical/SCHEMBL16109857

> <PUBCHEM_CID_ASSOCIATIONS>
117601023  1

> <PUBCHEM_COORDINATE_TYPE>
1
3

> <PUBCHEM_BONDANNOTATIONS>
23  26  5

$$$$
