310942192
  -OEChem-07211613022D

 26 28  0     1  0  0  0  0  0999 V2000
    2.0874    1.4625    0.0000 Cl  0  0  0  0  0  0  0  0  0  0  0  0
    0.6375   -1.0374    0.0000 F   0  0  0  0  0  0  0  0  0  0  0  0
    2.0749   -0.2000    0.0000 O   0  0  0  0  0  0  0  0  0  0  0  0
   -1.5249    0.2125    0.0000 N   0  0  0  0  0  0  0  0  0  0  0  0
   -3.7498    1.3125    0.0000 N   0  0  0  0  0  0  0  0  0  0  0  0
   -4.2498    0.6375    0.0000 N   0  0  0  0  0  0  0  0  0  0  0  0
   -0.0875    0.2250    0.0000 C   0  0  0  0  0  0  0  0  0  0  0  0
    0.6250   -0.1875    0.0000 C   0  0  0  0  0  0  0  0  0  0  0  0
    1.3499    0.2250    0.0000 C   0  0  0  0  0  0  0  0  0  0  0  0
   -0.7875   -0.1875    0.0000 C   0  0  3  0  0  0  0  0  0  0  0  0
    1.3624    1.0624    0.0000 C   0  0  0  0  0  0  0  0  0  0  0  0
   -0.0750    1.0499    0.0000 C   0  0  0  0  0  0  0  0  0  0  0  0
    0.6375    1.4625    0.0000 C   0  0  0  0  0  0  0  0  0  0  0  0
   -2.2374   -0.2000    0.0000 C   0  0  3  0  0  0  0  0  0  0  0  0
    2.7999    0.2250    0.0000 C   0  0  0  0  0  0  0  0  0  0  0  0
   -2.9874    0.2250    0.0000 C   0  0  0  0  0  0  0  0  0  0  0  0
   -0.8125   -1.0374    0.0000 C   0  0  0  0  0  0  0  0  0  0  0  0
    2.8124    1.0499    0.0000 C   0  0  0  0  0  0  0  0  0  0  0  0
    3.5373   -0.1875    0.0000 C   0  0  0  0  0  0  0  0  0  0  0  0
   -2.9624    1.0499    0.0000 C   0  0  0  0  0  0  0  0  0  0  0  0
   -3.7623   -0.0375    0.0000 C   0  0  0  0  0  0  0  0  0  0  0  0
   -2.2499   -1.0125    0.0000 C   0  0  0  0  0  0  0  0  0  0  0  0
    3.5248    1.4625    0.0000 C   0  0  0  0  0  0  0  0  0  0  0  0
    4.2498    0.2250    0.0000 C   0  0  0  0  0  0  0  0  0  0  0  0
   -1.5124   -1.4625    0.0000 C   0  0  0  0  0  0  0  0  0  0  0  0
    4.2498    1.0499    0.0000 C   0  0  0  0  0  0  0  0  0  0  0  0
  1 11  1  0  0  0  0
  2  8  1  0  0  0  0
  3  9  1  0  0  0  0
  3 15  1  0  0  0  0
 10  4  1  1  0  0  0
  4 14  1  0  0  0  0
  5  6  1  0  0  0  0
  5 20  2  0  0  0  0
  6 21  1  0  0  0  0
  7  8  2  0  0  0  0
  7 10  1  0  0  0  0
  7 12  1  0  0  0  0
  8  9  1  0  0  0  0
  9 11  2  0  0  0  0
 10 17  1  0  0  0  0
 11 13  1  0  0  0  0
 12 13  2  0  0  0  0
 14 16  1  0  0  0  0
 14 22  1  6  0  0  0
 15 18  2  0  0  0  0
 15 19  1  0  0  0  0
 16 20  1  0  0  0  0
 16 21  2  0  0  0  0
 17 25  1  0  0  0  0
 18 23  1  0  0  0  0
 19 24  2  0  0  0  0
 23 26  2  0  0  0  0
 24 26  1  0  0  0  0
M  END
> <PUBCHEM_COMPOUND_ID_TYPE>
0

> <PUBCHEM_TOTAL_CHARGE>
0

> <PUBCHEM_SUBSTANCE_ID>
310942192

> <PUBCHEM_SUBSTANCE_VERSION>
1

> <PUBCHEM_EXT_DATASOURCE_NAME>
4488

> <PUBCHEM_EXT_DATASOURCE_REGID>
SCHEMBL16120227

> <PUBCHEM_SUBSTANCE_COMMENT>
InChI=1S/C20H21ClFN3O/c1-3-18(25-13(2)14-11-23-24-12-14)16-9-10-17(21)20(19(16)22)26-15-7-5-4-6-8-15/h4-13,18,25H,3H2,1-2H3,(H,23,24)/t13-,18-/m1/s1
InChIKey=KHXNPCCZDWGFEB-FZKQIMNGSA-N

> <PUBCHEM_SUBSTANCE_SYNONYM>
SCHEMBL16120227

> <PUBCHEM_XREF_EXT_ID>
SCHEMBL16120227

> <PUBCHEM_EXT_DATASOURCE_URL>
https://www.surechembl.org/

> <PUBCHEM_EXT_SUBSTANCE_URL>
https://www.surechembl.org/chemical/SCHEMBL16120227

> <PUBCHEM_CID_ASSOCIATIONS>
117608843  1

> <PUBCHEM_COORDINATE_TYPE>
1
3

> <PUBCHEM_BONDANNOTATIONS>
14  22  6
10  4  5

$$$$
