310938734
  -OEChem-07211613022D

 23 24  0     0  0  0  0  0  0999 V2000
   -0.4284   -2.8652    0.0000 S   0  0  0  0  0  0  0  0  0  0  0  0
    2.7207    2.8652    0.0000 S   0  0  0  0  0  0  0  0  0  0  0  0
   -1.3404   -0.6040    0.0000 O   0  0  0  0  0  0  0  0  0  0  0  0
   -2.7207   -0.9738    0.0000 O   0  0  0  0  0  0  0  0  0  0  0  0
    1.0707   -0.5478    0.0000 N   0  0  0  0  0  0  0  0  0  0  0  0
   -0.4284   -1.5303    0.0000 N   0  0  0  0  0  0  0  0  0  0  0  0
    1.7381   -0.0628    0.0000 N   0  0  0  0  0  0  0  0  0  0  0  0
   -1.7102   -1.9842    0.0000 N   0  0  0  0  0  0  0  0  0  0  0  0
    1.8957    1.4363    0.0000 N   0  0  0  0  0  0  0  0  0  0  0  0
    0.3562   -1.7853    0.0000 C   0  0  0  0  0  0  0  0  0  0  0  0
   -0.9134   -2.1978    0.0000 C   0  0  0  0  0  0  0  0  0  0  0  0
    1.0707   -1.3728    0.0000 C   0  0  0  0  0  0  0  0  0  0  0  0
    0.3562   -2.6103    0.0000 C   0  0  0  0  0  0  0  0  0  0  0  0
    1.4832    0.7218    0.0000 C   0  0  0  0  0  0  0  0  0  0  0  0
    0.4032   -0.0628    0.0000 C   0  0  0  0  0  0  0  0  0  0  0  0
   -1.9238   -1.1873    0.0000 C   0  0  0  0  0  0  0  0  0  0  0  0
    0.6582    0.7218    0.0000 C   0  0  0  0  0  0  0  0  0  0  0  0
   -1.5539    0.1929    0.0000 C   0  0  0  0  0  0  0  0  0  0  0  0
   -0.9706    0.7763    0.0000 C   0  0  0  0  0  0  0  0  0  0  0  0
   -2.3508    0.4064    0.0000 C   0  0  0  0  0  0  0  0  0  0  0  0
   -0.7289    0.1929    0.0000 C   0  0  0  0  0  0  0  0  0  0  0  0
    2.2824    2.1061    0.0000 C   0  0  0  0  0  0  0  0  0  0  0  0
    2.3339    2.1954    0.0000 C   0  0  0  0  0  0  0  0  0  0  0  0
  1 11  1  0  0  0  0
  1 13  1  0  0  0  0
  2 23  2  0  0  0  0
  3 16  1  0  0  0  0
  3 18  1  0  0  0  0
  4 16  2  0  0  0  0
  5  7  1  0  0  0  0
  5 12  1  0  0  0  0
  5 15  1  0  0  0  0
  6 10  1  0  0  0  0
  6 11  2  0  0  0  0
  7 14  2  0  0  0  0
  8 11  1  0  0  0  0
  8 16  1  0  0  0  0
  9 14  1  0  0  0  0
  9 22  2  3  0  0  0
 10 12  1  0  0  0  0
 10 13  2  0  0  0  0
 14 17  1  0  0  0  0
 15 17  2  0  0  0  0
 18 19  1  0  0  0  0
 18 20  1  0  0  0  0
 18 21  1  0  0  0  0
 22 23  1  0  0  0  0
M  END
> <PUBCHEM_COMPOUND_ID_TYPE>
0

> <PUBCHEM_TOTAL_CHARGE>
0

> <PUBCHEM_SUBSTANCE_ID>
310938734

> <PUBCHEM_SUBSTANCE_VERSION>
1

> <PUBCHEM_EXT_DATASOURCE_NAME>
4488

> <PUBCHEM_EXT_DATASOURCE_REGID>
SCHEMBL16116649

> <PUBCHEM_SUBSTANCE_COMMENT>
InChI=1S/C14H17N5O2S2/c1-14(2,3)21-13(20)17-12-16-10(9-23-12)8-19-6-4-11(18-19)15-5-7-22/h4-7,9H,8H2,1-3H3,(H,16,17,20)
InChIKey=SUNSUVVLULYFSD-UHFFFAOYSA-N

> <PUBCHEM_SUBSTANCE_SYNONYM>
SCHEMBL16116649

> <PUBCHEM_XREF_EXT_ID>
SCHEMBL16116649

> <PUBCHEM_EXT_DATASOURCE_URL>
https://www.surechembl.org/

> <PUBCHEM_EXT_SUBSTANCE_URL>
https://www.surechembl.org/chemical/SCHEMBL16116649

> <PUBCHEM_CID_ASSOCIATIONS>
117606154  1

> <PUBCHEM_COORDINATE_TYPE>
1
3

$$$$
