310942265
  -OEChem-07211613022D

 23 25  0     0  0  0  0  0  0999 V2000
    0.5914   -1.2107    0.0000 S   0  0  0  0  0  0  0  0  0  0  0  0
    4.4628   -0.5209    0.0000 F   0  0  0  0  0  0  0  0  0  0  0  0
    0.5914    0.1408    0.0000 N   0  0  0  0  0  0  0  0  0  0  0  0
   -1.5627   -0.1549    0.0000 N   0  0  0  0  0  0  0  0  0  0  0  0
   -3.2099    0.2112    0.0000 N   0  0  0  0  0  0  0  0  0  0  0  0
   -3.9419    1.3374    0.0000 N   0  0  0  0  0  0  0  0  0  0  0  0
   -0.8024    0.3942    0.0000 C   0  0  0  0  0  0  0  0  0  0  0  0
   -0.1689   -0.1127    0.0000 C   0  0  0  0  0  0  0  0  0  0  0  0
    1.0981   -0.6054    0.0000 C   0  0  0  0  0  0  0  0  0  0  0  0
   -0.1971   -1.0277    0.0000 C   0  0  0  0  0  0  0  0  0  0  0  0
    1.9288   -0.6054    0.0000 C   0  0  0  0  0  0  0  0  0  0  0  0
   -2.2384   -0.6195    0.0000 C   0  0  0  0  0  0  0  0  0  0  0  0
   -1.1544    1.1403    0.0000 C   0  0  0  0  0  0  0  0  0  0  0  0
   -0.4365    1.1263    0.0000 C   0  0  0  0  0  0  0  0  0  0  0  0
    2.3651   -1.3234    0.0000 C   0  0  0  0  0  0  0  0  0  0  0  0
    2.3651    0.0845    0.0000 C   0  0  0  0  0  0  0  0  0  0  0  0
   -3.1536    0.9432    0.0000 C   0  0  0  0  0  0  0  0  0  0  0  0
   -3.9983   -0.0845    0.0000 C   0  0  0  0  0  0  0  0  0  0  0  0
    3.6041   -0.6195    0.0000 C   0  0  0  0  0  0  0  0  0  0  0  0
    3.1958   -1.3374    0.0000 C   0  0  0  0  0  0  0  0  0  0  0  0
    3.1958    0.0845    0.0000 C   0  0  0  0  0  0  0  0  0  0  0  0
   -2.2525   -1.2670    0.0000 C   0  0  0  0  0  0  0  0  0  0  0  0
   -4.4628    0.5914    0.0000 C   0  0  0  0  0  0  0  0  0  0  0  0
  1  9  1  0  0  0  0
  1 10  1  0  0  0  0
  2 19  1  0  0  0  0
  3  8  1  0  0  0  0
  3  9  2  0  0  0  0
  4  7  1  0  0  0  0
  4 12  1  0  0  0  0
  5 12  1  0  0  0  0
  5 17  1  0  0  0  0
  5 18  1  0  0  0  0
  6 17  2  0  0  0  0
  6 23  1  0  0  0  0
  7  8  1  0  0  0  0
  7 13  1  0  0  0  0
  7 14  1  0  0  0  0
  8 10  2  0  0  0  0
  9 11  1  0  0  0  0
 11 15  2  0  0  0  0
 11 16  1  0  0  0  0
 12 22  2  0  0  0  0
 15 20  1  0  0  0  0
 16 21  2  0  0  0  0
 18 23  2  0  0  0  0
 19 20  2  0  0  0  0
 19 21  1  0  0  0  0
M  END
> <PUBCHEM_COMPOUND_ID_TYPE>
0

> <PUBCHEM_TOTAL_CHARGE>
0

> <PUBCHEM_SUBSTANCE_ID>
310942265

> <PUBCHEM_SUBSTANCE_VERSION>
1

> <PUBCHEM_EXT_DATASOURCE_NAME>
4488

> <PUBCHEM_EXT_DATASOURCE_REGID>
SCHEMBL16120300

> <PUBCHEM_SUBSTANCE_COMMENT>
InChI=1S/C17H17FN4S/c1-12(22-9-8-19-11-22)21-17(2,3)15-10-23-16(20-15)13-4-6-14(18)7-5-13/h4-11,21H,1H2,2-3H3
InChIKey=RWOBHJWUYSFUDZ-UHFFFAOYSA-N

> <PUBCHEM_SUBSTANCE_SYNONYM>
SCHEMBL16120300

> <PUBCHEM_XREF_EXT_ID>
SCHEMBL16120300

> <PUBCHEM_EXT_DATASOURCE_URL>
https://www.surechembl.org/

> <PUBCHEM_EXT_SUBSTANCE_URL>
https://www.surechembl.org/chemical/SCHEMBL16120300

> <PUBCHEM_CID_ASSOCIATIONS>
117608915  1

> <PUBCHEM_COORDINATE_TYPE>
1
3

$$$$
