310942182
  -OEChem-07211613022D

 29 30  0     1  0  0  0  0  0999 V2000
    2.1561    0.8374    0.0000 Cl  0  0  0  0  0  0  0  0  0  0  0  0
    0.7187   -1.6624    0.0000 F   0  0  0  0  0  0  0  0  0  0  0  0
    2.1436   -0.8374    0.0000 O   0  0  0  0  0  0  0  0  0  0  0  0
   -0.0187    2.0873    0.0000 O   0  0  0  0  0  0  0  0  0  0  0  0
   -1.4437   -0.4125    0.0000 N   0  0  0  0  0  0  0  0  0  0  0  0
   -1.4437    2.0873    0.0000 N   0  0  0  0  0  0  0  0  0  0  0  0
   -4.3309    2.0873    0.0000 N   0  0  0  0  0  0  0  0  0  0  0  0
   -0.0062   -0.4125    0.0000 C   0  0  0  0  0  0  0  0  0  0  0  0
    0.7187   -0.8124    0.0000 C   0  0  0  0  0  0  0  0  0  0  0  0
    1.4312   -0.4000    0.0000 C   0  0  0  0  0  0  0  0  0  0  0  0
    1.4437    0.4250    0.0000 C   0  0  0  0  0  0  0  0  0  0  0  0
   -0.7187   -0.8249    0.0000 C   0  0  3  0  0  0  0  0  0  0  0  0
    0.0062    0.4125    0.0000 C   0  0  0  0  0  0  0  0  0  0  0  0
    0.7062    0.8249    0.0000 C   0  0  0  0  0  0  0  0  0  0  0  0
    2.8810   -0.4125    0.0000 C   0  0  0  0  0  0  0  0  0  0  0  0
   -0.7312   -1.6749    0.0000 C   0  0  0  0  0  0  0  0  0  0  0  0
   -1.4437    0.4250    0.0000 C   0  0  3  0  0  0  0  0  0  0  0  0
    2.8935    0.4125    0.0000 C   0  0  0  0  0  0  0  0  0  0  0  0
    3.6185   -0.8249    0.0000 C   0  0  0  0  0  0  0  0  0  0  0  0
   -0.7312    0.8374    0.0000 C   0  0  0  0  0  0  0  0  0  0  0  0
    3.6060    0.8249    0.0000 C   0  0  0  0  0  0  0  0  0  0  0  0
    4.3309   -0.4125    0.0000 C   0  0  0  0  0  0  0  0  0  0  0  0
   -1.4312   -2.0873    0.0000 C   0  0  0  0  0  0  0  0  0  0  0  0
   -0.7312    1.6624    0.0000 C   0  0  0  0  0  0  0  0  0  0  0  0
    4.3309    0.4125    0.0000 C   0  0  0  0  0  0  0  0  0  0  0  0
   -2.1561    0.8374    0.0000 C   0  0  0  0  0  0  0  0  0  0  0  0
   -2.1561    1.6749    0.0000 C   0  0  0  0  0  0  0  0  0  0  0  0
   -2.8935    2.0873    0.0000 C   0  0  0  0  0  0  0  0  0  0  0  0
   -3.6060    1.6749    0.0000 C   0  0  0  0  0  0  0  0  0  0  0  0
  1 11  1  0  0  0  0
  2  9  1  0  0  0  0
  3 10  1  0  0  0  0
  3 15  1  0  0  0  0
  4 24  2  0  0  0  0
 12  5  1  1  0  0  0
  5 17  1  0  0  0  0
  6 24  1  0  0  0  0
  6 27  1  0  0  0  0
  7 29  1  0  0  0  0
  8  9  2  0  0  0  0
  8 12  1  0  0  0  0
  8 13  1  0  0  0  0
  9 10  1  0  0  0  0
 10 11  2  0  0  0  0
 11 14  1  0  0  0  0
 12 16  1  0  0  0  0
 13 14  2  0  0  0  0
 15 18  2  0  0  0  0
 15 19  1  0  0  0  0
 16 23  1  0  0  0  0
 17 20  1  0  0  0  0
 17 26  1  1  0  0  0
 18 21  1  0  0  0  0
 19 22  2  0  0  0  0
 20 24  1  0  0  0  0
 21 25  2  0  0  0  0
 22 25  1  0  0  0  0
 27 28  1  0  0  0  0
 28 29  1  0  0  0  0
M  END
> <PUBCHEM_COMPOUND_ID_TYPE>
0

> <PUBCHEM_TOTAL_CHARGE>
0

> <PUBCHEM_SUBSTANCE_ID>
310942182

> <PUBCHEM_SUBSTANCE_VERSION>
1

> <PUBCHEM_EXT_DATASOURCE_NAME>
4488

> <PUBCHEM_EXT_DATASOURCE_REGID>
SCHEMBL16120217

> <PUBCHEM_SUBSTANCE_COMMENT>
InChI=1S/C22H29ClFN3O2/c1-3-19(27-15(2)14-20(28)26-13-7-12-25)17-10-11-18(23)22(21(17)24)29-16-8-5-4-6-9-16/h4-6,8-11,15,19,27H,3,7,12-14,25H2,1-2H3,(H,26,28)/t15-,19+/m0/s1
InChIKey=CZYJCRWIYZPKMN-HNAYVOBHSA-N

> <PUBCHEM_SUBSTANCE_SYNONYM>
SCHEMBL16120217

> <PUBCHEM_XREF_EXT_ID>
SCHEMBL16120217

> <PUBCHEM_EXT_DATASOURCE_URL>
https://www.surechembl.org/

> <PUBCHEM_EXT_SUBSTANCE_URL>
https://www.surechembl.org/chemical/SCHEMBL16120217

> <PUBCHEM_CID_ASSOCIATIONS>
117608833  1

> <PUBCHEM_COORDINATE_TYPE>
1
3

> <PUBCHEM_BONDANNOTATIONS>
17  26  5
12  5  5

$$$$
