310943487
  -OEChem-07211613022D

 17 18  0     1  0  0  0  0  0999 V2000
    2.1426    0.8337    0.0000 Cl  0  0  0  0  0  0  0  0  0  0  0  0
   -0.7262   -0.8158    0.0000 O   0  0  0  0  0  0  0  0  0  0  0  0
   -2.1426    1.6586    0.0000 O   0  0  0  0  0  0  0  0  0  0  0  0
   -0.7082    0.8337    0.0000 N   0  0  3  0  0  0  0  0  0  0  0  0
    0.7082   -0.8158    0.0000 N   0  0  0  0  0  0  0  0  0  0  0  0
    1.4255   -0.4035    0.0000 N   0  0  0  0  0  0  0  0  0  0  0  0
    0.0089    0.4393    0.0000 C   0  0  0  0  0  0  0  0  0  0  0  0
   -0.0089   -0.3855    0.0000 C   0  0  0  0  0  0  0  0  0  0  0  0
   -0.7082    1.6586    0.0000 C   0  0  3  0  0  0  0  0  0  0  0  0
    0.7082    0.8337    0.0000 C   0  0  0  0  0  0  0  0  0  0  0  0
    1.4255    0.4213    0.0000 C   0  0  0  0  0  0  0  0  0  0  0  0
   -1.4075    0.4213    0.0000 C   0  0  0  0  0  0  0  0  0  0  0  0
   -1.4255    2.0710    0.0000 C   0  0  0  0  0  0  0  0  0  0  0  0
   -2.1426    0.8337    0.0000 C   0  0  0  0  0  0  0  0  0  0  0  0
   -0.0089    2.0530    0.0000 C   0  0  0  0  0  0  0  0  0  0  0  0
   -0.7262   -1.6406    0.0000 C   0  0  0  0  0  0  0  0  0  0  0  0
   -1.4075   -2.0710    0.0000 C   0  0  0  0  0  0  0  0  0  0  0  0
  1 11  1  0  0  0  0
  2  8  1  0  0  0  0
  2 16  1  0  0  0  0
  3 13  1  0  0  0  0
  3 14  1  0  0  0  0
  4  7  1  0  0  0  0
  4  9  1  0  0  0  0
  4 12  1  0  0  0  0
  5  6  1  0  0  0  0
  5  8  2  0  0  0  0
  6 11  2  0  0  0  0
  7  8  1  0  0  0  0
  7 10  2  0  0  0  0
  9 13  1  0  0  0  0
  9 15  1  6  0  0  0
 10 11  1  0  0  0  0
 12 14  1  0  0  0  0
 16 17  1  0  0  0  0
M  END
> <PUBCHEM_COMPOUND_ID_TYPE>
0

> <PUBCHEM_TOTAL_CHARGE>
0

> <PUBCHEM_SUBSTANCE_ID>
310943487

> <PUBCHEM_SUBSTANCE_VERSION>
1

> <PUBCHEM_EXT_DATASOURCE_NAME>
4488

> <PUBCHEM_EXT_DATASOURCE_REGID>
SCHEMBL16121552

> <PUBCHEM_SUBSTANCE_COMMENT>
InChI=1S/C11H16ClN3O2/c1-3-17-11-9(6-10(12)13-14-11)15-4-5-16-7-8(15)2/h6,8H,3-5,7H2,1-2H3/t8-/m0/s1
InChIKey=HHDZZQCNNXCQSB-QMMMGPOBSA-N

> <PUBCHEM_SUBSTANCE_SYNONYM>
SCHEMBL16121552

> <PUBCHEM_XREF_EXT_ID>
SCHEMBL16121552

> <PUBCHEM_EXT_DATASOURCE_URL>
https://www.surechembl.org/

> <PUBCHEM_EXT_SUBSTANCE_URL>
https://www.surechembl.org/chemical/SCHEMBL16121552

> <PUBCHEM_CID_ASSOCIATIONS>
117609909  1

> <PUBCHEM_COORDINATE_TYPE>
1
3

> <PUBCHEM_BONDANNOTATIONS>
9  15  6

$$$$
