310941870
  -OEChem-07211613022D

 20 21  0     0  0  0  0  0  0999 V2000
    0.4296    1.8637    0.0000 Br  0  0  0  0  0  0  0  0  0  0  0  0
    3.5889    0.1870    0.0000 Cl  0  0  0  0  0  0  0  0  0  0  0  0
   -3.5750   -0.6166    0.0000 F   0  0  0  0  0  0  0  0  0  0  0  0
   -3.5889   -1.4480    0.0000 F   0  0  0  0  0  0  0  0  0  0  0  0
   -2.8682   -1.8637    0.0000 F   0  0  0  0  0  0  0  0  0  0  0  0
    0.7205    0.2009    0.0000 O   0  0  0  0  0  0  0  0  0  0  0  0
    2.8960    1.4480    0.0000 N   0  0  0  0  0  0  0  0  0  0  0  0
   -2.1477   -0.6166    0.0000 C   0  0  0  0  0  0  0  0  0  0  0  0
   -2.9098   -1.0462    0.0000 C   0  0  0  0  0  0  0  0  0  0  0  0
    1.4411    0.6166    0.0000 C   0  0  0  0  0  0  0  0  0  0  0  0
    1.4549    1.4480    0.0000 C   0  0  0  0  0  0  0  0  0  0  0  0
   -0.7067    0.2009    0.0000 C   0  0  0  0  0  0  0  0  0  0  0  0
   -1.4549   -1.0184    0.0000 C   0  0  0  0  0  0  0  0  0  0  0  0
   -2.1339    0.2148    0.0000 C   0  0  0  0  0  0  0  0  0  0  0  0
    2.1755    0.2009    0.0000 C   0  0  0  0  0  0  0  0  0  0  0  0
    2.8682    0.6166    0.0000 C   0  0  0  0  0  0  0  0  0  0  0  0
   -1.4272    0.6027    0.0000 C   0  0  0  0  0  0  0  0  0  0  0  0
   -0.7205   -0.6166    0.0000 C   0  0  0  0  0  0  0  0  0  0  0  0
    0.0000    0.6027    0.0000 C   0  0  0  0  0  0  0  0  0  0  0  0
    2.1616    1.8498    0.0000 C   0  0  0  0  0  0  0  0  0  0  0  0
  1 11  1  0  0  0  0
  2 16  1  0  0  0  0
  3  9  1  0  0  0  0
  4  9  1  0  0  0  0
  5  9  1  0  0  0  0
  6 10  1  0  0  0  0
  6 19  1  0  0  0  0
  7 16  2  0  0  0  0
  7 20  1  0  0  0  0
  8  9  1  1  0  0  0
  8 13  1  0  0  0  0
  8 14  1  0  0  0  0
 10 11  1  0  0  0  0
 10 15  2  0  0  0  0
 11 20  2  0  0  0  0
 12 17  1  0  0  0  0
 12 18  1  0  0  0  0
 12 19  1  6  0  0  0
 13 18  1  0  0  0  0
 14 17  1  0  0  0  0
 15 16  1  0  0  0  0
M  END
> <PUBCHEM_COMPOUND_ID_TYPE>
0

> <PUBCHEM_TOTAL_CHARGE>
0

> <PUBCHEM_SUBSTANCE_ID>
310941870

> <PUBCHEM_SUBSTANCE_VERSION>
1

> <PUBCHEM_EXT_DATASOURCE_NAME>
4488

> <PUBCHEM_EXT_DATASOURCE_REGID>
SCHEMBL16119902

> <PUBCHEM_SUBSTANCE_COMMENT>
InChI=1S/C13H14BrClF3NO/c14-10-6-19-12(15)5-11(10)20-7-8-1-3-9(4-2-8)13(16,17)18/h5-6,8-9H,1-4,7H2/t8-,9-
InChIKey=HCBBWSXJNQWVLM-KYZUINATSA-N

> <PUBCHEM_SUBSTANCE_SYNONYM>
SCHEMBL16119902

> <PUBCHEM_XREF_EXT_ID>
SCHEMBL16119902

> <PUBCHEM_EXT_DATASOURCE_URL>
https://www.surechembl.org/

> <PUBCHEM_EXT_SUBSTANCE_URL>
https://www.surechembl.org/chemical/SCHEMBL16119902

> <PUBCHEM_CID_ASSOCIATIONS>
117608608  1

> <PUBCHEM_COORDINATE_TYPE>
1
3

> <PUBCHEM_BONDANNOTATIONS>
12  19  6
8  9  5

$$$$
