310941752
  -OEChem-07211613022D

 28 33  0     0  0  0  0  0  0999 V2000
    3.0415   -1.4321    0.0000 S   0  0  0  0  0  0  0  0  0  0  0  0
   -1.2265    0.3545    0.0000 O   0  0  0  0  0  0  0  0  0  0  0  0
    2.6444   -2.1553    0.0000 O   0  0  0  0  0  0  0  0  0  0  0  0
    3.4527   -2.1553    0.0000 O   0  0  0  0  0  0  0  0  0  0  0  0
    1.0138   -0.6097    0.0000 N   0  0  0  0  0  0  0  0  0  0  0  0
    0.6310   -1.9284    0.0000 N   0  0  0  0  0  0  0  0  0  0  0  0
    1.4392   -1.9284    0.0000 N   0  0  0  0  0  0  0  0  0  0  0  0
    2.4459   -0.8649    0.0000 N   0  0  0  0  0  0  0  0  0  0  0  0
    0.1489    0.5672    0.0000 C   0  0  0  0  0  0  0  0  0  0  0  0
   -0.4750    0.0426    0.0000 C   0  0  0  0  0  0  0  0  0  0  0  0
    0.3757   -1.1343    0.0000 C   0  0  0  0  0  0  0  0  0  0  0  0
   -1.8646   -0.1418    0.0000 C   0  0  0  0  0  0  0  0  0  0  0  0
   -2.6870    0.0426    0.0000 C   0  0  0  0  0  0  0  0  0  0  0  0
   -1.8930   -1.0067    0.0000 C   0  0  0  0  0  0  0  0  0  0  0  0
    0.0496    1.3896    0.0000 C   0  0  0  0  0  0  0  0  0  0  0  0
    1.6945   -1.1201    0.0000 C   0  0  0  0  0  0  0  0  0  0  0  0
    0.9004    0.2269    0.0000 C   0  0  0  0  0  0  0  0  0  0  0  0
   -0.3757   -0.7799    0.0000 C   0  0  0  0  0  0  0  0  0  0  0  0
   -3.4243   -1.0067    0.0000 C   0  0  0  0  0  0  0  0  0  0  0  0
   -3.0698   -1.4747    0.0000 C   0  0  0  0  0  0  0  0  0  0  0  0
   -3.4243   -0.1702    0.0000 C   0  0  0  0  0  0  0  0  0  0  0  0
   -2.2758   -1.7157    0.0000 C   0  0  0  0  0  0  0  0  0  0  0  0
   -2.6728   -1.2336    0.0000 C   0  0  0  0  0  0  0  0  0  0  0  0
   -3.0557   -0.6380    0.0000 C   0  0  0  0  0  0  0  0  0  0  0  0
   -0.4041    2.0418    0.0000 C   0  0  0  0  0  0  0  0  0  0  0  0
    0.3616    2.1553    0.0000 C   0  0  0  0  0  0  0  0  0  0  0  0
   -3.8072   -1.7015    0.0000 C   0  0  0  0  0  0  0  0  0  0  0  0
    3.8072   -1.1627    0.0000 C   0  0  0  0  0  0  0  0  0  0  0  0
  1  3  2  0  0  0  0
  1  4  2  0  0  0  0
  1  8  1  0  0  0  0
  1 28  1  0  0  0  0
  2 10  1  0  0  0  0
  2 12  1  0  0  0  0
  5 11  1  0  0  0  0
  5 16  1  0  0  0  0
  5 17  1  0  0  0  0
  6  7  1  0  0  0  0
  6 11  2  0  0  0  0
  7 16  2  0  0  0  0
  8 16  1  0  0  0  0
  9 10  1  0  0  0  0
  9 15  1  0  0  0  0
  9 17  2  0  0  0  0
 10 18  2  0  0  0  0
 11 18  1  0  0  0  0
 12 13  1  0  0  0  0
 12 14  1  0  0  0  0
 13 21  1  0  0  0  0
 13 24  1  0  0  0  0
 14 22  1  0  0  0  0
 14 23  1  0  0  0  0
 15 25  1  0  0  0  0
 15 26  1  0  0  0  0
 19 21  1  0  0  0  0
 19 23  1  0  0  0  0
 19 27  1  0  0  0  0
 20 22  1  0  0  0  0
 20 24  1  0  0  0  0
 20 27  1  0  0  0  0
 25 26  1  0  0  0  0
M  END
> <PUBCHEM_COMPOUND_ID_TYPE>
0

> <PUBCHEM_TOTAL_CHARGE>
0

> <PUBCHEM_SUBSTANCE_ID>
310941752

> <PUBCHEM_SUBSTANCE_VERSION>
1

> <PUBCHEM_EXT_DATASOURCE_NAME>
4488

> <PUBCHEM_EXT_DATASOURCE_REGID>
SCHEMBL16119783

> <PUBCHEM_SUBSTANCE_COMMENT>
InChI=1S/C20H26N4O3S/c1-28(25,26)23-20-22-21-18-9-17(16(10-24(18)20)13-2-3-13)27-19-14-5-11-4-12(7-14)8-15(19)6-11/h9-15,19H,2-8H2,1H3,(H,22,23)
InChIKey=ODBLMALRJHFUOR-UHFFFAOYSA-N

> <PUBCHEM_SUBSTANCE_SYNONYM>
SCHEMBL16119783

> <PUBCHEM_XREF_EXT_ID>
SCHEMBL16119783

> <PUBCHEM_EXT_DATASOURCE_URL>
https://www.surechembl.org/

> <PUBCHEM_EXT_SUBSTANCE_URL>
https://www.surechembl.org/chemical/SCHEMBL16119783

> <PUBCHEM_CID_ASSOCIATIONS>
86267495  1

> <PUBCHEM_COORDINATE_TYPE>
1
3

$$$$
