310944783
  -OEChem-07211613022D

 18 19  0     0  0  0  0  0  0999 V2000
   -3.0183   -1.2498    0.0000 Cl  0  0  0  0  0  0  0  0  0  0  0  0
    0.0312   -1.2498    0.0000 O   0  0  0  0  0  0  0  0  0  0  0  0
    2.2059    0.0000    0.0000 O   0  0  0  0  0  0  0  0  0  0  0  0
    1.4810    1.2498    0.0000 O   0  0  0  0  0  0  0  0  0  0  0  0
    0.0437    0.4250    0.0000 N   0  0  0  0  0  0  0  0  0  0  0  0
   -2.1184    0.0000    0.0000 C   0  0  0  0  0  0  0  0  0  0  0  0
   -2.8433    0.4250    0.0000 C   0  0  0  0  0  0  0  0  0  0  0  0
   -0.6686    0.0125    0.0000 C   0  0  0  0  0  0  0  0  0  0  0  0
   -2.1184   -0.8248    0.0000 C   0  0  0  0  0  0  0  0  0  0  0  0
   -1.3935    0.4125    0.0000 C   0  0  0  0  0  0  0  0  0  0  0  0
   -0.6812   -0.8124    0.0000 C   0  0  0  0  0  0  0  0  0  0  0  0
   -1.3810   -1.2373    0.0000 C   0  0  0  0  0  0  0  0  0  0  0  0
   -3.6556    0.4250    0.0000 C   0  0  0  0  0  0  0  0  0  0  0  0
   -3.2432    1.1248    0.0000 C   0  0  0  0  0  0  0  0  0  0  0  0
    0.7811    0.0125    0.0000 C   0  0  0  0  0  0  0  0  0  0  0  0
    1.4935    0.4125    0.0000 C   0  0  0  0  0  0  0  0  0  0  0  0
    2.9308    0.4250    0.0000 C   0  0  0  0  0  0  0  0  0  0  0  0
    3.6556    0.0125    0.0000 C   0  0  0  0  0  0  0  0  0  0  0  0
  1  9  1  0  0  0  0
  2 11  1  0  0  0  0
  3 16  1  0  0  0  0
  3 17  1  0  0  0  0
  4 16  2  0  0  0  0
  5  8  1  0  0  0  0
  5 15  1  0  0  0  0
  6  7  1  0  0  0  0
  6  9  2  0  0  0  0
  6 10  1  0  0  0  0
  7 13  1  0  0  0  0
  7 14  1  0  0  0  0
  8 10  2  0  0  0  0
  8 11  1  0  0  0  0
  9 12  1  0  0  0  0
 11 12  2  0  0  0  0
 13 14  1  0  0  0  0
 15 16  1  0  0  0  0
 17 18  1  0  0  0  0
M  END
> <PUBCHEM_COMPOUND_ID_TYPE>
0

> <PUBCHEM_TOTAL_CHARGE>
0

> <PUBCHEM_SUBSTANCE_ID>
310944783

> <PUBCHEM_SUBSTANCE_VERSION>
1

> <PUBCHEM_EXT_DATASOURCE_NAME>
4488

> <PUBCHEM_EXT_DATASOURCE_REGID>
SCHEMBL16122862

> <PUBCHEM_SUBSTANCE_COMMENT>
InChI=1S/C13H16ClNO3/c1-2-18-13(17)7-15-11-5-9(8-3-4-8)10(14)6-12(11)16/h5-6,8,15-16H,2-4,7H2,1H3
InChIKey=HHIFFRDNLCTYIC-UHFFFAOYSA-N

> <PUBCHEM_SUBSTANCE_SYNONYM>
SCHEMBL16122862

> <PUBCHEM_XREF_EXT_ID>
SCHEMBL16122862

> <PUBCHEM_EXT_DATASOURCE_URL>
https://www.surechembl.org/

> <PUBCHEM_EXT_SUBSTANCE_URL>
https://www.surechembl.org/chemical/SCHEMBL16122862

> <PUBCHEM_CID_ASSOCIATIONS>
117610997  1

> <PUBCHEM_COORDINATE_TYPE>
1
3

$$$$
