310944486
  -OEChem-07211613022D

 34 38  0     1  0  0  0  0  0999 V2000
   -1.4302    0.7621    0.0000 F   0  0  0  0  0  0  0  0  0  0  0  0
    2.5568    0.8394    0.0000 O   0  0  0  0  0  0  0  0  0  0  0  0
    5.4834    0.2540    0.0000 O   0  0  0  0  0  0  0  0  0  0  0  0
    5.4725    1.7228    0.0000 O   0  0  0  0  0  0  0  0  0  0  0  0
   -0.6350   -1.5793    0.0000 O   0  0  0  0  0  0  0  0  0  0  0  0
    3.4292   -0.3313    0.0000 N   0  0  0  0  0  0  0  0  0  0  0  0
    0.4694   -0.3092    0.0000 N   0  0  0  0  0  0  0  0  0  0  0  0
   -4.1471   -0.1546    0.0000 N   0  0  0  0  0  0  0  0  0  0  0  0
   -4.4895    0.5964    0.0000 N   0  0  0  0  0  0  0  0  0  0  0  0
   -5.3178    0.4969    0.0000 N   0  0  0  0  0  0  0  0  0  0  0  0
   -5.4834   -0.3092    0.0000 N   0  0  0  0  0  0  0  0  0  0  0  0
    2.1039   -0.5412    0.0000 C   0  0  0  0  0  0  0  0  0  0  0  0
    2.6893    0.0221    0.0000 C   0  0  0  0  0  0  0  0  0  0  0  0
    3.2966   -1.1375    0.0000 C   0  0  3  0  0  0  0  0  0  0  0  0
    4.1581    0.0552    0.0000 C   0  0  0  0  0  0  0  0  0  0  0  0
    2.4905   -1.2701    0.0000 C   0  0  0  0  0  0  0  0  0  0  0  0
    1.5959   -1.1818    0.0000 C   0  0  0  0  0  0  0  0  0  0  0  0
    1.8057    0.2208    0.0000 C   0  0  0  0  0  0  0  0  0  0  0  0
    4.2907    0.8725    0.0000 C   0  0  0  0  0  0  0  0  0  0  0  0
    4.9091   -0.3203    0.0000 C   0  0  0  0  0  0  0  0  0  0  0  0
    5.0968    0.9719    0.0000 C   0  0  0  0  0  0  0  0  0  0  0  0
    0.7676   -1.0603    0.0000 C   0  0  0  0  0  0  0  0  0  0  0  0
    0.9774    0.3423    0.0000 C   0  0  0  0  0  0  0  0  0  0  0  0
    3.9152   -1.7228    0.0000 C   0  0  0  0  0  0  0  0  0  0  0  0
   -0.3479   -0.1767    0.0000 C   0  0  0  0  0  0  0  0  0  0  0  0
   -1.7173   -0.6295    0.0000 C   0  0  0  0  0  0  0  0  0  0  0  0
   -0.9001   -0.7952    0.0000 C   0  0  3  0  0  0  0  0  0  0  0  0
    3.6943    1.4468    0.0000 C   0  0  0  0  0  0  0  0  0  0  0  0
   -1.9824    0.1436    0.0000 C   0  0  0  0  0  0  0  0  0  0  0  0
   -3.3298   -0.3092    0.0000 C   0  0  0  0  0  0  0  0  0  0  0  0
   -2.7887    0.2982    0.0000 C   0  0  0  0  0  0  0  0  0  0  0  0
   -2.2475   -1.2370    0.0000 C   0  0  0  0  0  0  0  0  0  0  0  0
   -3.0647   -1.0823    0.0000 C   0  0  0  0  0  0  0  0  0  0  0  0
   -4.7545   -0.7068    0.0000 C   0  0  0  0  0  0  0  0  0  0  0  0
  1 29  1  0  0  0  0
  2 13  2  0  0  0  0
  3 20  1  0  0  0  0
  3 21  1  0  0  0  0
  4 21  2  0  0  0  0
 27  5  1  6  0  0  0
  6 13  1  0  0  0  0
  6 14  1  0  0  0  0
  6 15  1  0  0  0  0
  7 22  1  0  0  0  0
  7 23  1  0  0  0  0
  7 25  1  0  0  0  0
  8  9  1  0  0  0  0
  8 30  1  0  0  0  0
  8 34  1  0  0  0  0
  9 10  2  0  0  0  0
 10 11  1  0  0  0  0
 11 34  2  0  0  0  0
 12 13  1  0  0  0  0
 12 16  1  0  0  0  0
 12 17  1  0  0  0  0
 12 18  1  0  0  0  0
 14 16  1  0  0  0  0
 14 24  1  0  0  0  0
 15 19  2  0  0  0  0
 15 20  1  0  0  0  0
 17 22  1  0  0  0  0
 18 23  1  0  0  0  0
 19 21  1  0  0  0  0
 19 28  1  0  0  0  0
 25 27  1  0  0  0  0
 26 27  1  0  0  0  0
 26 29  2  0  0  0  0
 26 32  1  0  0  0  0
 29 31  1  0  0  0  0
 30 31  2  0  0  0  0
 30 33  1  0  0  0  0
 32 33  2  0  0  0  0
M  END
> <PUBCHEM_COMPOUND_ID_TYPE>
0

> <PUBCHEM_TOTAL_CHARGE>
0

> <PUBCHEM_SUBSTANCE_ID>
310944486

> <PUBCHEM_SUBSTANCE_VERSION>
1

> <PUBCHEM_EXT_DATASOURCE_NAME>
4488

> <PUBCHEM_EXT_DATASOURCE_REGID>
SCHEMBL16122561

> <PUBCHEM_SUBSTANCE_COMMENT>
InChI=1S/C23H27FN6O4/c1-14-10-23(22(33)30(14)19-12-34-21(32)15(19)2)5-7-28(8-6-23)11-20(31)17-4-3-16(9-18(17)24)29-13-25-26-27-29/h3-4,9,13-14,20,31H,5-8,10-12H2,1-2H3/t14?,20-/m0/s1
InChIKey=QJXOBGSUDJCASG-LGTGAQBVSA-N

> <PUBCHEM_SUBSTANCE_SYNONYM>
SCHEMBL16122561

> <PUBCHEM_XREF_EXT_ID>
SCHEMBL16122561

> <PUBCHEM_EXT_DATASOURCE_URL>
https://www.surechembl.org/

> <PUBCHEM_EXT_SUBSTANCE_URL>
https://www.surechembl.org/chemical/SCHEMBL16122561

> <PUBCHEM_CID_ASSOCIATIONS>
117610726  1

> <PUBCHEM_COORDINATE_TYPE>
1
3

> <PUBCHEM_BONDANNOTATIONS>
27  5  6

$$$$
