310936384
  -OEChem-07211613022D

 51 53  0     1  0  0  0  0  0999 V2000
   -3.3402   -4.3227    0.0000 P   0  0  3  0  0  0  0  0  0  0  0  0
   -3.0702   -2.9195    0.0000 P   0  0  3  0  0  0  0  0  0  0  0  0
   -3.9633   -7.1530    0.0000 O   0  0  0  0  0  0  0  0  0  0  0  0
   -6.0968   -7.2262    0.0000 O   0  0  0  0  0  0  0  0  0  0  0  0
   -3.8803   -4.9463    0.0000 O   0  0  0  0  0  0  0  0  0  0  0  0
   -5.3986   -5.5728    0.0000 O   0  0  0  0  0  0  0  0  0  0  0  0
   -2.8001   -3.6990    0.0000 O   0  0  0  0  0  0  0  0  0  0  0  0
   -4.2605  -11.1193    0.0000 O   0  0  0  0  0  0  0  0  0  0  0  0
   -2.2906   -2.6495    0.0000 O   0  0  0  0  0  0  0  0  0  0  0  0
   -2.7166   -4.8628    0.0000 O   0  0  0  0  0  0  0  0  0  0  0  0
   -3.9639   -3.7826    0.0000 O   0  0  0  0  0  0  0  0  0  0  0  0
   -3.8497   -3.1895    0.0000 O   0  0  0  0  0  0  0  0  0  0  0  0
   -5.5006   -2.4518    0.0000 O   0  0  0  0  0  0  0  0  0  0  0  0
   -4.4204   -3.3872    0.0000 O   0  0  0  0  0  0  0  0  0  0  0  0
   -0.2638    0.3210    0.0000 O   0  0  0  0  0  0  0  0  0  0  0  0
    0.2039   -1.0292    0.0000 O   0  0  0  0  0  0  0  0  0  0  0  0
   -4.7400   -8.4012    0.0000 N   0  0  0  0  0  0  0  0  0  0  0  0
   -5.2593   -9.6310    0.0000 N   0  0  0  0  0  0  0  0  0  0  0  0
   -3.2977   -8.8393    0.0000 N   0  0  0  0  0  0  0  0  0  0  0  0
   -3.1209  -10.2572    0.0000 N   0  0  0  0  0  0  0  0  0  0  0  0
   -1.9813   -9.3952    0.0000 N   0  0  0  0  0  0  0  0  0  0  0  0
   -3.3402   -2.1399    0.0000 N   0  0  0  0  0  0  0  0  0  0  0  0
   -1.1992   -0.7591    0.0000 N   0  0  0  0  0  0  0  0  0  0  0  0
   -4.6696   -7.5793    0.0000 C   0  0  3  0  0  0  0  0  0  0  0  0
   -4.1164   -8.9413    0.0000 C   0  0  0  0  0  0  0  0  0  0  0  0
   -4.4373   -9.7014    0.0000 C   0  0  0  0  0  0  0  0  0  0  0  0
   -5.2933   -7.0392    0.0000 C   0  0  3  0  0  0  0  0  0  0  0  0
   -4.9723   -6.2792    0.0000 C   0  0  3  0  0  0  0  0  0  0  0  0
   -4.1504   -6.3495    0.0000 C   0  0  3  0  0  0  0  0  0  0  0  0
   -5.4464   -8.8275    0.0000 C   0  0  0  0  0  0  0  0  0  0  0  0
   -3.9396  -10.3593    0.0000 C   0  0  0  0  0  0  0  0  0  0  0  0
   -2.8000   -9.4972    0.0000 C   0  0  0  0  0  0  0  0  0  0  0  0
   -3.6103   -5.7259    0.0000 C   0  0  0  0  0  0  0  0  0  0  0  0
   -4.1504   -1.9840    0.0000 C   0  0  3  0  0  0  0  0  0  0  0  0
   -4.6904   -2.6077    0.0000 C   0  0  0  0  0  0  0  0  0  0  0  0
   -2.1347   -1.8393    0.0000 C   0  0  0  0  0  0  0  0  0  0  0  0
   -4.4204   -1.2045    0.0000 C   0  0  0  0  0  0  0  0  0  0  0  0
   -1.3552   -1.5693    0.0000 C   0  0  0  0  0  0  0  0  0  0  0  0
   -6.0407   -3.0754    0.0000 C   0  0  0  0  0  0  0  0  0  0  0  0
   -0.4197   -0.4891    0.0000 C   0  0  0  0  0  0  0  0  0  0  0  0
   -6.8508   -2.9195    0.0000 C   0  0  0  0  0  0  0  0  0  0  0  0
    0.5158    0.5911    0.0000 C   0  0  0  0  0  0  0  0  0  0  0  0
   -7.3909   -3.5431    0.0000 C   0  0  0  0  0  0  0  0  0  0  0  0
   -7.1208   -2.1399    0.0000 C   0  0  0  0  0  0  0  0  0  0  0  0
    0.7858   -0.1885    0.0000 C   0  0  0  0  0  0  0  0  0  0  0  0
    0.2457    1.3706    0.0000 C   0  0  0  0  0  0  0  0  0  0  0  0
    1.2953    0.8611    0.0000 C   0  0  0  0  0  0  0  0  0  0  0  0
   -8.2010   -3.3872    0.0000 C   0  0  0  0  0  0  0  0  0  0  0  0
   -7.9310   -1.9840    0.0000 C   0  0  0  0  0  0  0  0  0  0  0  0
   -8.7411   -4.0109    0.0000 C   0  0  0  0  0  0  0  0  0  0  0  0
   -8.2010   -1.2045    0.0000 C   0  0  0  0  0  0  0  0  0  0  0  0
  1  5  1  0  0  0  0
  1  7  1  0  0  0  0
  1 10  2  0  0  0  0
  1 11  1  0  0  0  0
  2  7  1  0  0  0  0
  2  9  1  0  0  0  0
  2 12  2  0  0  0  0
  2 22  1  0  0  0  0
 24  3  1  1  0  0  0
  3 29  1  0  0  0  0
 27  4  1  6  0  0  0
  5 33  1  0  0  0  0
 28  6  1  1  0  0  0
  8 31  2  0  0  0  0
  9 36  1  0  0  0  0
 13 35  1  0  0  0  0
 13 39  1  0  0  0  0
 14 35  2  0  0  0  0
 15 40  1  0  0  0  0
 15 42  1  0  0  0  0
 16 40  2  0  0  0  0
 17 24  1  0  0  0  0
 17 25  1  0  0  0  0
 17 30  1  0  0  0  0
 18 26  1  0  0  0  0
 18 30  2  0  0  0  0
 19 25  1  0  0  0  0
 19 32  2  0  0  0  0
 20 31  1  0  0  0  0
 20 32  1  0  0  0  0
 21 32  1  0  0  0  0
 22 34  1  0  0  0  0
 23 38  1  0  0  0  0
 23 40  1  0  0  0  0
 24 27  1  0  0  0  0
 25 26  2  0  0  0  0
 26 31  1  0  0  0  0
 27 28  1  0  0  0  0
 28 29  1  0  0  0  0
 29 33  1  1  0  0  0
 34 35  1  0  0  0  0
 34 37  1  0  0  0  0
 36 38  1  0  0  0  0
 39 41  1  0  0  0  0
 41 43  1  0  0  0  0
 41 44  1  0  0  0  0
 42 45  1  0  0  0  0
 42 46  1  0  0  0  0
 42 47  1  0  0  0  0
 43 48  1  0  0  0  0
 44 49  1  0  0  0  0
 48 50  1  0  0  0  0
 49 51  1  0  0  0  0
M  END
> <PUBCHEM_COMPOUND_ID_TYPE>
0

> <PUBCHEM_TOTAL_CHARGE>
0

> <PUBCHEM_SUBSTANCE_ID>
310936384

> <PUBCHEM_SUBSTANCE_VERSION>
1

> <PUBCHEM_EXT_DATASOURCE_NAME>
4488

> <PUBCHEM_EXT_DATASOURCE_REGID>
SCHEMBL16114022

> <PUBCHEM_SUBSTANCE_COMMENT>
InChI=1S/C28H49N7O14P2/c1-7-9-17(10-8-2)13-44-25(39)16(3)34-50(41,45-12-11-30-27(40)48-28(4,5)6)49-51(42,43)46-14-18-20(36)21(37)24(47-18)35-15-31-19-22(35)32-26(29)33-23(19)38/h15-18,20-21,24,36-37H,7-14H2,1-6H3,(H,30,40)(H,34,41)(H,42,43)(H3,29,32,33,38)/t16?,18-,20+,21-,24-,50?/m1/s1
InChIKey=KXINUBHVQCPWIH-YMSFSEDSSA-N

> <PUBCHEM_SUBSTANCE_SYNONYM>
SCHEMBL16114022

> <PUBCHEM_XREF_EXT_ID>
SCHEMBL16114022

> <PUBCHEM_EXT_DATASOURCE_URL>
https://www.surechembl.org/

> <PUBCHEM_EXT_SUBSTANCE_URL>
https://www.surechembl.org/chemical/SCHEMBL16114022

> <PUBCHEM_CID_ASSOCIATIONS>
117604325  1

> <PUBCHEM_COORDINATE_TYPE>
1
3

> <PUBCHEM_BONDANNOTATIONS>
29  33  5
24  3  5
27  4  6
28  6  5

$$$$
