310940896
  -OEChem-07211613022D

 23 23  0     0  0  0  0  0  0999 V2000
    2.4372   -1.1333    0.0000 O   0  0  0  0  0  0  0  0  0  0  0  0
   -0.3352    1.9594    0.0000 O   0  0  0  0  0  0  0  0  0  0  0  0
    1.9349   -1.9594    0.0000 O   0  0  0  0  0  0  0  0  0  0  0  0
    2.5833    1.1312    0.0000 O   0  0  0  0  0  0  0  0  0  0  0  0
   -3.2734   -0.5647    0.0000 O   0  0  0  0  0  0  0  0  0  0  0  0
    1.8537   -0.1309    0.0000 O   0  0  0  0  0  0  0  0  0  0  0  0
    0.3944    0.6973    0.0000 N   0  0  0  0  0  0  0  0  0  0  0  0
   -0.3352    1.1312    0.0000 C   0  0  0  0  0  0  0  0  0  0  0  0
   -1.0452    0.7368    0.0000 C   0  0  0  0  0  0  0  0  0  0  0  0
    1.9349   -1.4236    0.0000 C   0  0  0  0  0  0  0  0  0  0  0  0
    1.1437    1.1509    0.0000 C   0  0  0  0  0  0  0  0  0  0  0  0
    2.4484   -0.5752    0.0000 C   0  0  0  0  0  0  0  0  0  0  0  0
   -1.7945    1.1312    0.0000 C   0  0  0  0  0  0  0  0  0  0  0  0
   -1.0649   -0.1112    0.0000 C   0  0  0  0  0  0  0  0  0  0  0  0
   -2.5242   -0.1112    0.0000 C   0  0  0  0  0  0  0  0  0  0  0  0
    1.8733    0.7565    0.0000 C   0  0  0  0  0  0  0  0  0  0  0  0
   -2.4847    0.7368    0.0000 C   0  0  0  0  0  0  0  0  0  0  0  0
   -1.7748   -0.5253    0.0000 C   0  0  0  0  0  0  0  0  0  0  0  0
    2.9507   -0.5529    0.0000 C   0  0  0  0  0  0  0  0  0  0  0  0
    1.9349   -0.5752    0.0000 C   0  0  0  0  0  0  0  0  0  0  0  0
    2.4372   -0.0282    0.0000 C   0  0  0  0  0  0  0  0  0  0  0  0
    3.2734    0.6579    0.0000 C   0  0  0  0  0  0  0  0  0  0  0  0
   -3.2734   -1.3929    0.0000 C   0  0  0  0  0  0  0  0  0  0  0  0
  1 10  1  0  0  0  0
  1 12  1  0  0  0  0
  2  8  2  0  0  0  0
  3 10  2  0  0  0  0
  4 16  1  0  0  0  0
  4 22  1  0  0  0  0
  5 15  1  0  0  0  0
  5 23  1  0  0  0  0
  6 16  2  0  0  0  0
  7  8  1  0  0  0  0
  7 10  1  0  0  0  0
  7 11  1  0  0  0  0
  8  9  1  0  0  0  0
  9 13  2  0  0  0  0
  9 14  1  0  0  0  0
 11 16  1  0  0  0  0
 12 19  1  0  0  0  0
 12 20  1  0  0  0  0
 12 21  1  0  0  0  0
 13 17  1  0  0  0  0
 14 18  2  0  0  0  0
 15 17  2  0  0  0  0
 15 18  1  0  0  0  0
M  END
> <PUBCHEM_COMPOUND_ID_TYPE>
0

> <PUBCHEM_TOTAL_CHARGE>
0

> <PUBCHEM_SUBSTANCE_ID>
310940896

> <PUBCHEM_SUBSTANCE_VERSION>
1

> <PUBCHEM_EXT_DATASOURCE_NAME>
4488

> <PUBCHEM_EXT_DATASOURCE_REGID>
SCHEMBL16118855

> <PUBCHEM_SUBSTANCE_COMMENT>
InChI=1S/C16H21NO6/c1-16(2,3)23-15(20)17(10-13(18)22-5)14(19)11-6-8-12(21-4)9-7-11/h6-9H,10H2,1-5H3
InChIKey=LFAOKZLYJWUVDV-UHFFFAOYSA-N

> <PUBCHEM_SUBSTANCE_SYNONYM>
SCHEMBL16118855

> <PUBCHEM_XREF_EXT_ID>
SCHEMBL16118855

> <PUBCHEM_EXT_DATASOURCE_URL>
https://www.surechembl.org/

> <PUBCHEM_EXT_SUBSTANCE_URL>
https://www.surechembl.org/chemical/SCHEMBL16118855

> <PUBCHEM_CID_ASSOCIATIONS>
117607813  1

> <PUBCHEM_COORDINATE_TYPE>
1
3

$$$$
