310940598
  -OEChem-07211613022D

 24 25  0     0  0  0  0  0  0999 V2000
   -0.1032   -3.0038    0.0000 S   0  0  0  0  0  0  0  0  0  0  0  0
   -0.3716    0.8361    0.0000 F   0  0  0  0  0  0  0  0  0  0  0  0
   -1.4451    1.1458    0.0000 F   0  0  0  0  0  0  0  0  0  0  0  0
   -1.1148    2.1987    0.0000 F   0  0  0  0  0  0  0  0  0  0  0  0
    1.4451   -2.1574    0.0000 O   0  0  0  0  0  0  0  0  0  0  0  0
    0.7019   -0.9393    0.0000 N   0  0  0  0  0  0  0  0  0  0  0  0
   -1.3626   -2.4671    0.0000 N   0  0  0  0  0  0  0  0  0  0  0  0
   -0.9290   -3.1896    0.0000 N   0  0  0  0  0  0  0  0  0  0  0  0
    0.6813    1.5793    0.0000 C   0  0  0  0  0  0  0  0  0  0  0  0
   -0.0413    1.9716    0.0000 C   0  0  0  0  0  0  0  0  0  0  0  0
    0.6813    0.7123    0.0000 C   0  0  0  0  0  0  0  0  0  0  0  0
   -0.7638    1.5380    0.0000 C   0  0  0  0  0  0  0  0  0  0  0  0
    0.6813   -1.7239    0.0000 C   0  0  0  0  0  0  0  0  0  0  0  0
    1.4038    0.3200    0.0000 C   0  0  0  0  0  0  0  0  0  0  0  0
    0.0000    0.3200    0.0000 C   0  0  0  0  0  0  0  0  0  0  0  0
    1.4038    2.0128    0.0000 C   0  0  0  0  0  0  0  0  0  0  0  0
   -0.0413    2.7561    0.0000 C   0  0  0  0  0  0  0  0  0  0  0  0
   -0.0206   -2.1574    0.0000 C   0  0  0  0  0  0  0  0  0  0  0  0
    1.4245   -0.5264    0.0000 C   0  0  0  0  0  0  0  0  0  0  0  0
   -0.0206   -0.5264    0.0000 C   0  0  0  0  0  0  0  0  0  0  0  0
    1.4038    2.7974    0.0000 C   0  0  0  0  0  0  0  0  0  0  0  0
    0.6400    3.1896    0.0000 C   0  0  0  0  0  0  0  0  0  0  0  0
   -0.8051   -1.8271    0.0000 C   0  0  0  0  0  0  0  0  0  0  0  0
   -0.9703   -1.0426    0.0000 C   0  0  0  0  0  0  0  0  0  0  0  0
  1  8  1  0  0  0  0
  1 18  1  0  0  0  0
  2 12  1  0  0  0  0
  3 12  1  0  0  0  0
  4 12  1  0  0  0  0
  5 13  2  0  0  0  0
  6 13  1  0  0  0  0
  6 19  1  0  0  0  0
  6 20  1  0  0  0  0
  7 23  1  0  0  0  0
  9 10  2  0  0  0  0
  9 11  1  0  0  0  0
  9 16  1  0  0  0  0
 10 12  1  0  0  0  0
 10 17  1  0  0  0  0
 11 14  1  0  0  0  0
 11 15  1  0  0  0  0
 13 18  1  0  0  0  0
 14 19  1  0  0  0  0
 15 20  1  0  0  0  0
 16 21  2  0  0  0  0
 17 22  2  0  0  0  0
 18 23  2  0  0  0  0
 21 22  1  0  0  0  0
 23 24  1  0  0  0  0
M  END
> <PUBCHEM_COMPOUND_ID_TYPE>
0

> <PUBCHEM_TOTAL_CHARGE>
0

> <PUBCHEM_SUBSTANCE_ID>
310940598

> <PUBCHEM_SUBSTANCE_VERSION>
1

> <PUBCHEM_EXT_DATASOURCE_NAME>
4488

> <PUBCHEM_EXT_DATASOURCE_REGID>
SCHEMBL16118552

> <PUBCHEM_SUBSTANCE_COMMENT>
InChI=1S/C16H20F3N3OS/c1-10(20)14(24-21)15(23)22-8-6-11(7-9-22)12-4-2-3-5-13(12)16(17,18)19/h2-5,11H,6-9,20-21H2,1H3/b14-10-
InChIKey=MMUQMBKTEGKFRG-UVTDQMKNSA-N

> <PUBCHEM_SUBSTANCE_SYNONYM>
SCHEMBL16118552

> <PUBCHEM_XREF_EXT_ID>
SCHEMBL16118552

> <PUBCHEM_EXT_DATASOURCE_URL>
https://www.surechembl.org/

> <PUBCHEM_EXT_SUBSTANCE_URL>
https://www.surechembl.org/chemical/SCHEMBL16118552

> <PUBCHEM_CID_ASSOCIATIONS>
117607585  1

> <PUBCHEM_COORDINATE_TYPE>
1
3

$$$$
