310938135
  -OEChem-07211613022D

 44 46  0     1  0  0  0  0  0999 V2000
   -1.4290    1.8975    0.0000 O   0  0  0  0  0  0  0  0  0  0  0  0
   -2.5026    4.0770    0.0000 O   0  0  0  0  0  0  0  0  0  0  0  0
   -1.5464    3.0151    0.0000 O   0  0  0  0  0  0  0  0  0  0  0  0
   -0.7144    1.2375    0.0000 O   0  0  0  0  0  0  0  0  0  0  0  0
    1.4290   -0.8250    0.0000 O   0  0  0  0  0  0  0  0  0  0  0  0
   -6.6446    0.2888    0.0000 O   0  0  0  0  0  0  0  0  0  0  0  0
   -2.8579    1.8975    0.0000 N   0  0  0  0  0  0  0  0  0  0  0  0
   -1.4290    0.0000    0.0000 N   0  0  0  0  0  0  0  0  0  0  0  0
    0.7144    0.4125    0.0000 N   0  0  0  0  0  0  0  0  0  0  0  0
   -5.9301   -0.1238    0.0000 N   0  0  3  0  0  0  0  0  0  0  0  0
   -3.6116    1.5620    0.0000 C   0  0  0  0  0  0  0  0  0  0  0  0
   -2.9441    2.7180    0.0000 C   0  0  3  0  0  0  0  0  0  0  0  0
   -4.1636    2.1751    0.0000 C   0  0  0  0  0  0  0  0  0  0  0  0
   -2.1434    1.4850    0.0000 C   0  0  0  0  0  0  0  0  0  0  0  0
   -3.7511    2.8895    0.0000 C   0  0  0  0  0  0  0  0  0  0  0  0
   -2.1434    0.4125    0.0000 C   0  0  3  0  0  0  0  0  0  0  0  0
   -2.3310    3.2700    0.0000 C   0  0  0  0  0  0  0  0  0  0  0  0
   -3.8665    0.7773    0.0000 C   0  0  0  0  0  0  0  0  0  0  0  0
   -4.9706    2.0035    0.0000 C   0  0  0  0  0  0  0  0  0  0  0  0
   -4.6734    0.6058    0.0000 C   0  0  0  0  0  0  0  0  0  0  0  0
   -5.2255    1.2189    0.0000 C   0  0  0  0  0  0  0  0  0  0  0  0
   -3.0722   -0.1238    0.0000 C   0  0  0  0  0  0  0  0  0  0  0  0
   -0.7144    0.4125    0.0000 C   0  0  0  0  0  0  0  0  0  0  0  0
    0.0000    0.0000    0.0000 C   0  0  3  0  0  0  0  0  0  0  0  0
    0.0000   -0.8250    0.0000 C   0  0  3  0  0  0  0  0  0  0  0  0
   -3.7867    0.2888    0.0000 C   0  0  0  0  0  0  0  0  0  0  0  0
    1.4290    0.0000    0.0000 C   0  0  0  0  0  0  0  0  0  0  0  0
   -4.5011   -0.1238    0.0000 C   0  0  0  0  0  0  0  0  0  0  0  0
    0.7144   -1.2375    0.0000 C   0  0  0  0  0  0  0  0  0  0  0  0
    2.1434    0.4125    0.0000 C   0  0  0  0  0  0  0  0  0  0  0  0
   -0.7144   -1.2375    0.0000 C   0  0  0  0  0  0  0  0  0  0  0  0
    2.8579    0.0000    0.0000 C   0  0  0  0  0  0  0  0  0  0  0  0
   -5.2157    0.2888    0.0000 C   0  0  0  0  0  0  0  0  0  0  0  0
    2.8579   -0.8250    0.0000 C   0  0  0  0  0  0  0  0  0  0  0  0
    3.5724    0.4125    0.0000 C   0  0  0  0  0  0  0  0  0  0  0  0
    0.7144   -2.0625    0.0000 C   0  0  0  0  0  0  0  0  0  0  0  0
    3.5724   -1.2375    0.0000 C   0  0  0  0  0  0  0  0  0  0  0  0
    4.2868    0.0000    0.0000 C   0  0  0  0  0  0  0  0  0  0  0  0
    4.2868   -0.8250    0.0000 C   0  0  0  0  0  0  0  0  0  0  0  0
   -5.9301   -0.9488    0.0000 C   0  0  0  0  0  0  0  0  0  0  0  0
   -7.3591   -0.1238    0.0000 C   0  0  0  0  0  0  0  0  0  0  0  0
   -6.6446   -1.3613    0.0000 C   0  0  0  0  0  0  0  0  0  0  0  0
   -8.0735    0.2888    0.0000 C   0  0  0  0  0  0  0  0  0  0  0  0
   -8.7880   -0.1238    0.0000 C   0  0  0  0  0  0  0  0  0  0  0  0
  1 14  2  0  0  0  0
  2 17  2  0  0  0  0
  3 17  1  0  0  0  0
  4 23  2  0  0  0  0
  5 27  2  0  0  0  0
  6 10  1  0  0  0  0
  6 41  1  0  0  0  0
  7 11  1  0  0  0  0
  7 12  1  0  0  0  0
  7 14  1  0  0  0  0
 16  8  1  1  0  0  0
  8 23  1  0  0  0  0
 24  9  1  1  0  0  0
  9 27  1  0  0  0  0
 10 33  1  0  0  0  0
 10 40  1  0  0  0  0
 11 13  2  0  0  0  0
 11 18  1  0  0  0  0
 12 15  1  0  0  0  0
 12 17  1  0  0  0  0
 13 15  1  0  0  0  0
 13 19  1  0  0  0  0
 14 16  1  0  0  0  0
 16 22  1  0  0  0  0
 18 20  2  0  0  0  0
 19 21  2  0  0  0  0
 20 21  1  0  0  0  0
 22 26  1  0  0  0  0
 23 24  1  0  0  0  0
 24 25  1  0  0  0  0
 25 29  1  0  0  0  0
 25 31  1  6  0  0  0
 26 28  1  0  0  0  0
 27 30  1  0  0  0  0
 28 33  1  0  0  0  0
 29 36  1  0  0  0  0
 30 32  1  0  0  0  0
 32 34  2  0  0  0  0
 32 35  1  0  0  0  0
 34 37  1  0  0  0  0
 35 38  2  0  0  0  0
 37 39  2  0  0  0  0
 38 39  1  0  0  0  0
 40 42  2  0  0  0  0
 41 43  1  0  0  0  0
 43 44  2  0  0  0  0
M  END
> <PUBCHEM_COMPOUND_ID_TYPE>
0

> <PUBCHEM_TOTAL_CHARGE>
0

> <PUBCHEM_SUBSTANCE_ID>
310938135

> <PUBCHEM_SUBSTANCE_VERSION>
1

> <PUBCHEM_EXT_DATASOURCE_NAME>
4488

> <PUBCHEM_EXT_DATASOURCE_REGID>
SCHEMBL16115986

> <PUBCHEM_SUBSTANCE_COMMENT>
InChI=1S/C34H44N4O6/c1-5-21-44-37(7-3)20-14-13-18-27(33(41)38-28-19-12-11-17-26(28)23-29(38)34(42)43)35-32(40)31(24(4)6-2)36-30(39)22-25-15-9-8-10-16-25/h5,7-12,15-17,19,24,27,29,31H,1,3,6,13-14,18,20-23H2,2,4H3,(H,35,40)(H,36,39)(H,42,43)/t24-,27-,29?,31-/m0/s1
InChIKey=ORQXXPZMENGECA-STGWXKFMSA-N

> <PUBCHEM_SUBSTANCE_SYNONYM>
SCHEMBL16115986

> <PUBCHEM_XREF_EXT_ID>
SCHEMBL16115986

> <PUBCHEM_EXT_DATASOURCE_URL>
https://www.surechembl.org/

> <PUBCHEM_EXT_SUBSTANCE_URL>
https://www.surechembl.org/chemical/SCHEMBL16115986

> <PUBCHEM_CID_ASSOCIATIONS>
117605689  1

> <PUBCHEM_COORDINATE_TYPE>
1
3

> <PUBCHEM_BONDANNOTATIONS>
25  31  6
16  8  5
24  9  5

$$$$
