310946342
  -OEChem-07211613022D

 22 23  0     1  0  0  0  0  0999 V2000
   -1.3440   -0.9858    0.0000 I   0  0  0  0  0  0  0  0  0  0  0  0
    0.0849    1.4892    0.0000 I   0  0  0  0  0  0  0  0  0  0  0  0
   -1.3440    0.6642    0.0000 O   0  0  0  0  0  0  0  0  0  0  0  0
   -4.2019   -0.9858    0.0000 O   0  0  0  0  0  0  0  0  0  0  0  0
    3.6573   -0.5733    0.0000 O   0  0  0  0  0  0  0  0  0  0  0  0
    2.2283    0.2517    0.0000 N   0  0  0  0  0  0  0  0  0  0  0  0
   -0.6295    0.2517    0.0000 C   0  0  0  0  0  0  0  0  0  0  0  0
   -0.6295   -0.5733    0.0000 C   0  0  0  0  0  0  0  0  0  0  0  0
    0.0849    0.6642    0.0000 C   0  0  0  0  0  0  0  0  0  0  0  0
    0.7994   -0.5733    0.0000 C   0  0  0  0  0  0  0  0  0  0  0  0
   -2.0585    0.2517    0.0000 C   0  0  0  0  0  0  0  0  0  0  0  0
    0.0849   -0.9858    0.0000 C   0  0  0  0  0  0  0  0  0  0  0  0
    0.7994    0.2517    0.0000 C   0  0  0  0  0  0  0  0  0  0  0  0
   -2.7730    0.6642    0.0000 C   0  0  0  0  0  0  0  0  0  0  0  0
   -3.4874    0.2517    0.0000 C   0  0  0  0  0  0  0  0  0  0  0  0
   -2.0585   -0.5733    0.0000 C   0  0  0  0  0  0  0  0  0  0  0  0
    1.5139   -0.9858    0.0000 C   0  0  0  0  0  0  0  0  0  0  0  0
   -3.4874   -0.5733    0.0000 C   0  0  0  0  0  0  0  0  0  0  0  0
   -2.7730   -0.9858    0.0000 C   0  0  0  0  0  0  0  0  0  0  0  0
    2.2283   -0.5733    0.0000 C   0  0  3  0  0  0  0  0  0  0  0  0
   -4.2019    0.6642    0.0000 C   0  0  0  0  0  0  0  0  0  0  0  0
    2.9428   -0.9858    0.0000 C   0  0  0  0  0  0  0  0  0  0  0  0
  1  8  1  0  0  0  0
  2  9  1  0  0  0  0
  3  7  1  0  0  0  0
  3 11  1  0  0  0  0
  4 18  1  0  0  0  0
  5 22  1  0  0  0  0
 20  6  1  6  0  0  0
  7  8  2  0  0  0  0
  7  9  1  0  0  0  0
  8 12  1  0  0  0  0
  9 13  2  0  0  0  0
 10 12  2  0  0  0  0
 10 13  1  0  0  0  0
 10 17  1  0  0  0  0
 11 14  2  0  0  0  0
 11 16  1  0  0  0  0
 14 15  1  0  0  0  0
 15 18  2  0  0  0  0
 15 21  1  0  0  0  0
 16 19  2  0  0  0  0
 17 20  1  0  0  0  0
 18 19  1  0  0  0  0
 20 22  1  0  0  0  0
M  END
> <PUBCHEM_COMPOUND_ID_TYPE>
0

> <PUBCHEM_TOTAL_CHARGE>
0

> <PUBCHEM_SUBSTANCE_ID>
310946342

> <PUBCHEM_SUBSTANCE_VERSION>
1

> <PUBCHEM_EXT_DATASOURCE_NAME>
4488

> <PUBCHEM_EXT_DATASOURCE_REGID>
SCHEMBL16124461

> <PUBCHEM_SUBSTANCE_COMMENT>
InChI=1S/C16H17I2NO3/c1-9-4-12(2-3-15(9)21)22-16-13(17)6-10(7-14(16)18)5-11(19)8-20/h2-4,6-7,11,20-21H,5,8,19H2,1H3/t11-/m0/s1
InChIKey=BOSCXZCAKVMRHV-NSHDSACASA-N

> <PUBCHEM_SUBSTANCE_SYNONYM>
SCHEMBL16124461

> <PUBCHEM_XREF_EXT_ID>
SCHEMBL16124461

> <PUBCHEM_EXT_DATASOURCE_URL>
https://www.surechembl.org/

> <PUBCHEM_EXT_SUBSTANCE_URL>
https://www.surechembl.org/chemical/SCHEMBL16124461

> <PUBCHEM_CID_ASSOCIATIONS>
117612265  1

> <PUBCHEM_COORDINATE_TYPE>
1
3

> <PUBCHEM_BONDANNOTATIONS>
20  6  6

$$$$
