310931897
  -OEChem-07211613022D

 30 33  0     0  0  0  0  0  0999 V2000
    4.0343   -2.1421    0.0000 O   0  0  0  0  0  0  0  0  0  0  0  0
    8.5326   -2.2135    0.0000 O   0  0  0  0  0  0  0  0  0  0  0  0
   10.7104   -5.1410    0.0000 O   0  0  0  0  0  0  0  0  0  0  0  0
    4.9268   -0.9996    0.0000 N   0  0  0  0  0  0  0  0  0  0  0  0
    4.8554   -0.1428    0.0000 N   0  0  0  0  0  0  0  0  0  0  0  0
    6.3906   -0.9996    0.0000 N   0  0  0  0  0  0  0  0  0  0  0  0
    7.8186   -3.4630    0.0000 N   0  0  0  0  0  0  0  0  0  0  0  0
    0.0000   -1.8565    0.0000 N   0  0  0  0  0  0  0  0  0  0  0  0
    4.2127   -1.3210    0.0000 C   0  0  0  0  0  0  0  0  0  0  0  0
    3.6416   -0.7140    0.0000 C   0  0  0  0  0  0  0  0  0  0  0  0
    5.6765   -1.3923    0.0000 C   0  0  0  0  0  0  0  0  0  0  0  0
    2.8204   -0.8211    0.0000 C   0  0  0  0  0  0  0  0  0  0  0  0
    4.0343    0.0000    0.0000 C   0  0  0  0  0  0  0  0  0  0  0  0
    5.6765   -2.2135    0.0000 C   0  0  0  0  0  0  0  0  0  0  0  0
    7.1046   -2.2135    0.0000 C   0  0  0  0  0  0  0  0  0  0  0  0
    2.4991   -1.5709    0.0000 C   0  0  0  0  0  0  0  0  0  0  0  0
    2.3206   -0.1428    0.0000 C   0  0  0  0  0  0  0  0  0  0  0  0
    7.1046   -1.3923    0.0000 C   0  0  0  0  0  0  0  0  0  0  0  0
    6.3906   -2.6419    0.0000 C   0  0  0  0  0  0  0  0  0  0  0  0
    7.8186   -2.6419    0.0000 C   0  0  0  0  0  0  0  0  0  0  0  0
    1.1781   -0.9996    0.0000 C   0  0  0  0  0  0  0  0  0  0  0  0
    1.6423   -1.6780    0.0000 C   0  0  0  0  0  0  0  0  0  0  0  0
    1.4994   -0.2499    0.0000 C   0  0  0  0  0  0  0  0  0  0  0  0
    8.5326   -3.8914    0.0000 C   0  0  0  0  0  0  0  0  0  0  0  0
    9.2824   -3.4630    0.0000 C   0  0  0  0  0  0  0  0  0  0  0  0
    8.5684   -4.7126    0.0000 C   0  0  0  0  0  0  0  0  0  0  0  0
    0.3570   -1.1068    0.0000 C   0  0  0  0  0  0  0  0  0  0  0  0
    9.9964   -4.7126    0.0000 C   0  0  0  0  0  0  0  0  0  0  0  0
    9.9607   -3.8914    0.0000 C   0  0  0  0  0  0  0  0  0  0  0  0
    9.2824   -5.1053    0.0000 C   0  0  0  0  0  0  0  0  0  0  0  0
  1  9  1  0  0  0  0
  2 20  2  0  0  0  0
  3 28  1  0  0  0  0
  4  5  1  0  0  0  0
  4  9  1  0  0  0  0
  4 11  1  0  0  0  0
  5 13  2  0  0  0  0
  6 11  2  0  0  0  0
  6 18  1  0  0  0  0
  7 20  1  0  0  0  0
  7 24  1  0  0  0  0
  8 27  3  0  0  0  0
  9 10  2  0  0  0  0
 10 12  1  0  0  0  0
 10 13  1  0  0  0  0
 11 14  1  0  0  0  0
 12 16  2  0  0  0  0
 12 17  1  0  0  0  0
 14 19  2  0  0  0  0
 15 18  2  0  0  0  0
 15 19  1  0  0  0  0
 15 20  1  0  0  0  0
 16 22  1  0  0  0  0
 17 23  2  0  0  0  0
 21 22  2  0  0  0  0
 21 23  1  0  0  0  0
 21 27  1  0  0  0  0
 24 25  1  0  0  0  0
 24 26  1  0  0  0  0
 25 29  1  0  0  0  0
 26 30  1  0  0  0  0
 28 29  1  0  0  0  0
 28 30  1  0  0  0  0
M  END
> <PUBCHEM_COMPOUND_ID_TYPE>
0

> <PUBCHEM_TOTAL_CHARGE>
0

> <PUBCHEM_SUBSTANCE_ID>
310931897

> <PUBCHEM_SUBSTANCE_VERSION>
1

> <PUBCHEM_EXT_DATASOURCE_NAME>
4488

> <PUBCHEM_EXT_DATASOURCE_REGID>
SCHEMBL16109232

> <PUBCHEM_SUBSTANCE_COMMENT>
InChI=1S/C22H21N5O3/c23-11-14-1-3-15(4-2-14)19-13-25-27(22(19)30)20-10-5-16(12-24-20)21(29)26-17-6-8-18(28)9-7-17/h1-5,10,12-13,17-18,28,30H,6-9H2,(H,26,29)
InChIKey=JDNLXARAMYSXND-UHFFFAOYSA-N

> <PUBCHEM_SUBSTANCE_SYNONYM>
SCHEMBL16109232

> <PUBCHEM_XREF_EXT_ID>
SCHEMBL16109232

> <PUBCHEM_EXT_DATASOURCE_URL>
https://www.surechembl.org/

> <PUBCHEM_EXT_SUBSTANCE_URL>
https://www.surechembl.org/chemical/SCHEMBL16109232

> <PUBCHEM_CID_ASSOCIATIONS>
117600554  1

> <PUBCHEM_COORDINATE_TYPE>
1
3

$$$$
