310945035
  -OEChem-07211613022D

 28 32  0     0  0  0  0  0  0999 V2000
    4.3422    1.5823    0.0000 O   0  0  0  0  0  0  0  0  0  0  0  0
   -3.9272    1.4267    0.0000 O   0  0  0  0  0  0  0  0  0  0  0  0
    2.5680    0.3061    0.0000 N   0  0  0  0  0  0  0  0  0  0  0  0
   -1.0324    0.3580    0.0000 N   0  0  0  0  0  0  0  0  0  0  0  0
   -0.3061   -0.7626    0.0000 N   0  0  0  0  0  0  0  0  0  0  0  0
    4.2178    0.1608    0.0000 N   0  0  0  0  0  0  0  0  0  0  0  0
   -2.7237    0.4617    0.0000 N   0  0  0  0  0  0  0  0  0  0  0  0
    1.7691    0.5655    0.0000 C   0  0  0  0  0  0  0  0  0  0  0  0
    1.7691    1.3851    0.0000 C   0  0  0  0  0  0  0  0  0  0  0  0
    3.0349    0.9909    0.0000 C   0  0  0  0  0  0  0  0  0  0  0  0
    0.3476    0.5344    0.0000 C   0  0  0  0  0  0  0  0  0  0  0  0
   -0.2646    0.0674    0.0000 C   0  0  0  0  0  0  0  0  0  0  0  0
    1.0739    0.1297    0.0000 C   0  0  0  0  0  0  0  0  0  0  0  0
    2.5577    1.6342    0.0000 C   0  0  0  0  0  0  0  0  0  0  0  0
   -1.5616   -0.2957    0.0000 C   0  0  0  0  0  0  0  0  0  0  0  0
   -1.0947   -0.9805    0.0000 C   0  0  0  0  0  0  0  0  0  0  0  0
    3.8546    0.8975    0.0000 C   0  0  0  0  0  0  0  0  0  0  0  0
    1.0324    1.7691    0.0000 C   0  0  0  0  0  0  0  0  0  0  0  0
    0.3476    1.3437    0.0000 C   0  0  0  0  0  0  0  0  0  0  0  0
   -2.3813   -0.3268    0.0000 C   0  0  0  0  0  0  0  0  0  0  0  0
    2.9104   -0.4306    0.0000 C   0  0  0  0  0  0  0  0  0  0  0  0
   -1.4681   -1.7172    0.0000 C   0  0  0  0  0  0  0  0  0  0  0  0
    3.7405   -0.5136    0.0000 C   0  0  0  0  0  0  0  0  0  0  0  0
   -2.7340   -1.0843    0.0000 C   0  0  0  0  0  0  0  0  0  0  0  0
   -2.2775   -1.7691    0.0000 C   0  0  0  0  0  0  0  0  0  0  0  0
   -3.7405    0.6277    0.0000 C   0  0  0  0  0  0  0  0  0  0  0  0
   -4.3422    0.0467    0.0000 C   0  0  0  0  0  0  0  0  0  0  0  0
   -4.0829   -0.7523    0.0000 C   0  0  0  0  0  0  0  0  0  0  0  0
  1 17  2  0  0  0  0
  2 26  2  0  0  0  0
  3  8  1  0  0  0  0
  3 10  1  0  0  0  0
  3 21  1  0  0  0  0
  4 12  2  0  0  0  0
  4 15  1  0  0  0  0
  5 12  1  0  0  0  0
  5 16  1  0  0  0  0
  6 17  1  0  0  0  0
  6 23  1  0  0  0  0
  7 20  1  0  0  0  0
  7 26  1  0  0  0  0
  8  9  2  0  0  0  0
  8 13  1  0  0  0  0
  9 14  1  0  0  0  0
  9 18  1  0  0  0  0
 10 14  2  0  0  0  0
 10 17  1  0  0  0  0
 11 12  1  0  0  0  0
 11 13  2  0  0  0  0
 11 19  1  0  0  0  0
 15 16  1  0  0  0  0
 15 20  2  0  0  0  0
 16 22  2  0  0  0  0
 18 19  2  0  0  0  0
 20 24  1  0  0  0  0
 21 23  1  0  0  0  0
 22 25  1  0  0  0  0
 24 25  2  0  0  0  0
 26 27  1  0  0  0  0
 27 28  2  0  0  0  0
M  END
> <PUBCHEM_COMPOUND_ID_TYPE>
0

> <PUBCHEM_TOTAL_CHARGE>
0

> <PUBCHEM_SUBSTANCE_ID>
310945035

> <PUBCHEM_SUBSTANCE_VERSION>
1

> <PUBCHEM_EXT_DATASOURCE_NAME>
4488

> <PUBCHEM_EXT_DATASOURCE_REGID>
SCHEMBL16123123

> <PUBCHEM_SUBSTANCE_COMMENT>
InChI=1S/C21H17N5O2/c1-2-18(27)23-14-4-3-5-15-19(14)25-20(24-15)13-7-6-12-10-17-21(28)22-8-9-26(17)16(12)11-13/h2-7,10-11H,1,8-9H2,(H,22,28)(H,23,27)(H,24,25)
InChIKey=OXIDMQSPBDNMMY-UHFFFAOYSA-N

> <PUBCHEM_SUBSTANCE_SYNONYM>
SCHEMBL16123123

> <PUBCHEM_XREF_EXT_ID>
SCHEMBL16123123

> <PUBCHEM_EXT_DATASOURCE_URL>
https://www.surechembl.org/

> <PUBCHEM_EXT_SUBSTANCE_URL>
https://www.surechembl.org/chemical/SCHEMBL16123123

> <PUBCHEM_CID_ASSOCIATIONS>
117611163  1

> <PUBCHEM_COORDINATE_TYPE>
1
3

$$$$
