310948183
  -OEChem-07211613022D

 26 27  0     0  0  0  0  0  0999 V2000
   -1.0763   -2.9047    0.0000 F   0  0  0  0  0  0  0  0  0  0  0  0
   -1.8874   -3.7010    0.0000 F   0  0  0  0  0  0  0  0  0  0  0  0
   -2.6688   -2.8900    0.0000 F   0  0  0  0  0  0  0  0  0  0  0  0
   -3.3176   -0.3981    0.0000 O   0  0  0  0  0  0  0  0  0  0  0  0
    2.7868    2.2560    0.0000 O   0  0  0  0  0  0  0  0  0  0  0  0
    1.4892    2.8458    0.0000 O   0  0  0  0  0  0  0  0  0  0  0  0
    0.4718    0.5899    0.0000 N   0  0  0  0  0  0  0  0  0  0  0  0
   -0.3392    0.4129    0.0000 N   0  0  0  0  0  0  0  0  0  0  0  0
    0.3392   -0.7521    0.0000 N   0  0  0  0  0  0  0  0  0  0  0  0
   -1.1501   -0.7962    0.0000 C   0  0  0  0  0  0  0  0  0  0  0  0
   -0.4424   -0.3834    0.0000 C   0  0  0  0  0  0  0  0  0  0  0  0
   -1.8726   -2.0201    0.0000 C   0  0  0  0  0  0  0  0  0  0  0  0
   -1.1649   -1.6220    0.0000 C   0  0  0  0  0  0  0  0  0  0  0  0
   -1.8874   -2.8900    0.0000 C   0  0  0  0  0  0  0  0  0  0  0  0
   -2.5951   -0.7815    0.0000 C   0  0  0  0  0  0  0  0  0  0  0  0
   -1.8726   -0.3834    0.0000 C   0  0  0  0  0  0  0  0  0  0  0  0
   -2.5951   -1.6220    0.0000 C   0  0  0  0  0  0  0  0  0  0  0  0
    0.8846   -0.1032    0.0000 C   0  0  0  0  0  0  0  0  0  0  0  0
    0.8109    1.3565    0.0000 C   0  0  0  0  0  0  0  0  0  0  0  0
    1.6220    1.4597    0.0000 C   0  0  0  0  0  0  0  0  0  0  0  0
    1.9611    2.1971    0.0000 C   0  0  0  0  0  0  0  0  0  0  0  0
    2.1085    0.7667    0.0000 C   0  0  0  0  0  0  0  0  0  0  0  0
   -3.9811   -0.8404    0.0000 C   0  0  0  0  0  0  0  0  0  0  0  0
    3.1112    3.0375    0.0000 C   0  0  0  0  0  0  0  0  0  0  0  0
    3.9811    3.1259    0.0000 C   0  0  0  0  0  0  0  0  0  0  0  0
    2.6246    3.7010    0.0000 C   0  0  0  0  0  0  0  0  0  0  0  0
  1 14  1  0  0  0  0
  2 14  1  0  0  0  0
  3 14  1  0  0  0  0
  4 15  1  0  0  0  0
  4 23  1  0  0  0  0
  5 21  1  0  0  0  0
  5 24  1  0  0  0  0
  6 21  2  0  0  0  0
  7  8  1  0  0  0  0
  7 18  1  0  0  0  0
  7 19  1  0  0  0  0
  8 11  2  0  0  0  0
  9 11  1  0  0  0  0
  9 18  2  0  0  0  0
 10 11  1  0  0  0  0
 10 13  2  0  0  0  0
 10 16  1  0  0  0  0
 12 13  1  0  0  0  0
 12 14  1  0  0  0  0
 12 17  2  0  0  0  0
 15 16  2  0  0  0  0
 15 17  1  0  0  0  0
 19 20  1  0  0  0  0
 20 21  1  0  0  0  0
 20 22  2  0  0  0  0
 24 25  1  0  0  0  0
 24 26  1  0  0  0  0
M  END
> <PUBCHEM_COMPOUND_ID_TYPE>
0

> <PUBCHEM_TOTAL_CHARGE>
0

> <PUBCHEM_SUBSTANCE_ID>
310948183

> <PUBCHEM_SUBSTANCE_VERSION>
1

> <PUBCHEM_EXT_DATASOURCE_NAME>
4488

> <PUBCHEM_EXT_DATASOURCE_REGID>
SCHEMBL16126360

> <PUBCHEM_SUBSTANCE_COMMENT>
InChI=1S/C17H18F3N3O3/c1-10(2)26-16(24)11(3)8-23-9-21-15(22-23)12-5-13(17(18,19)20)7-14(6-12)25-4/h5-7,9-10H,3,8H2,1-2,4H3
InChIKey=RGZGFKVPICSNGD-UHFFFAOYSA-N

> <PUBCHEM_SUBSTANCE_SYNONYM>
SCHEMBL16126360

> <PUBCHEM_XREF_EXT_ID>
SCHEMBL16126360

> <PUBCHEM_EXT_DATASOURCE_URL>
https://www.surechembl.org/

> <PUBCHEM_EXT_SUBSTANCE_URL>
https://www.surechembl.org/chemical/SCHEMBL16126360

> <PUBCHEM_CID_ASSOCIATIONS>
86294538  1

> <PUBCHEM_COORDINATE_TYPE>
1
3

$$$$
