310933131
  -OEChem-07211613022D

 21 23  0     0  0  0  0  0  0999 V2000
    0.0000   -2.2393    0.0000 F   0  0  0  0  0  0  0  0  0  0  0  0
    0.0000   -3.6707    0.0000 F   0  0  0  0  0  0  0  0  0  0  0  0
    0.8311   -2.2393    0.0000 F   0  0  0  0  0  0  0  0  0  0  0  0
    4.6402   -3.7861    0.0000 O   0  0  0  0  0  0  0  0  0  0  0  0
    3.3244   -3.1397    0.0000 N   0  0  0  0  0  0  0  0  0  0  0  0
    2.5395   -3.3706    0.0000 C   0  0  0  0  0  0  0  0  0  0  0  0
    2.5395   -4.2247    0.0000 C   0  0  0  0  0  0  0  0  0  0  0  0
    3.8092   -3.7861    0.0000 C   0  0  0  0  0  0  0  0  0  0  0  0
    1.1312   -3.3706    0.0000 C   0  0  0  0  0  0  0  0  0  0  0  0
    1.8238   -2.9781    0.0000 C   0  0  0  0  0  0  0  0  0  0  0  0
    3.5783   -2.3547    0.0000 C   0  0  0  0  0  0  0  0  0  0  0  0
    3.3244   -4.4556    0.0000 C   0  0  0  0  0  0  0  0  0  0  0  0
    0.4155   -2.9550    0.0000 C   0  0  0  0  0  0  0  0  0  0  0  0
    1.8238   -4.6172    0.0000 C   0  0  0  0  0  0  0  0  0  0  0  0
    1.1312   -4.2247    0.0000 C   0  0  0  0  0  0  0  0  0  0  0  0
    3.0242   -1.7315    0.0000 C   0  0  0  0  0  0  0  0  0  0  0  0
    4.3863   -2.1701    0.0000 C   0  0  0  0  0  0  0  0  0  0  0  0
    3.2782   -0.9465    0.0000 C   0  0  0  0  0  0  0  0  0  0  0  0
    4.6402   -1.3851    0.0000 C   0  0  0  0  0  0  0  0  0  0  0  0
    4.0862   -0.7849    0.0000 C   0  0  0  0  0  0  0  0  0  0  0  0
    4.3402    0.0000    0.0000 C   0  0  0  0  0  0  0  0  0  0  0  0
  1 13  1  0  0  0  0
  2 13  1  0  0  0  0
  3 13  1  0  0  0  0
  4  8  2  0  0  0  0
  5  6  1  0  0  0  0
  5  8  1  0  0  0  0
  5 11  1  0  0  0  0
  6  7  2  0  0  0  0
  6 10  1  0  0  0  0
  7 12  1  0  0  0  0
  7 14  1  0  0  0  0
  8 12  1  0  0  0  0
  9 10  2  0  0  0  0
  9 13  1  0  0  0  0
  9 15  1  0  0  0  0
 11 16  2  0  0  0  0
 11 17  1  0  0  0  0
 14 15  2  0  0  0  0
 16 18  1  0  0  0  0
 17 19  2  0  0  0  0
 18 20  2  0  0  0  0
 19 20  1  0  0  0  0
 20 21  1  0  0  0  0
M  END
> <PUBCHEM_COMPOUND_ID_TYPE>
0

> <PUBCHEM_TOTAL_CHARGE>
0

> <PUBCHEM_SUBSTANCE_ID>
310933131

> <PUBCHEM_SUBSTANCE_VERSION>
1

> <PUBCHEM_EXT_DATASOURCE_NAME>
4488

> <PUBCHEM_EXT_DATASOURCE_REGID>
SCHEMBL16110538

> <PUBCHEM_SUBSTANCE_COMMENT>
InChI=1S/C16H12F3NO/c1-10-2-6-13(7-3-10)20-14-9-12(16(17,18)19)5-4-11(14)8-15(20)21/h2-7,9H,8H2,1H3
InChIKey=FEWHHBNFBVMLSQ-UHFFFAOYSA-N

> <PUBCHEM_SUBSTANCE_SYNONYM>
SCHEMBL16110538

> <PUBCHEM_XREF_EXT_ID>
SCHEMBL16110538

> <PUBCHEM_EXT_DATASOURCE_URL>
https://www.surechembl.org/

> <PUBCHEM_EXT_SUBSTANCE_URL>
https://www.surechembl.org/chemical/SCHEMBL16110538

> <PUBCHEM_CID_ASSOCIATIONS>
117601586  1

> <PUBCHEM_COORDINATE_TYPE>
1
3

$$$$
