310935039
  -OEChem-07211613022D

 25 27  0     1  0  0  0  0  0999 V2000
    3.4036   -8.8716    0.0000 F   0  0  0  0  0  0  0  0  0  0  0  0
    0.0884   -2.1234    0.0000 F   0  0  0  0  0  0  0  0  0  0  0  0
    1.5173   -2.1234    0.0000 F   0  0  0  0  0  0  0  0  0  0  0  0
    3.8521   -5.1376    0.0000 O   0  0  0  0  0  0  0  0  0  0  0  0
    4.3941   -6.0994    0.0000 O   0  0  0  0  0  0  0  0  0  0  0  0
    0.8028   -3.3609    0.0000 N   0  0  0  0  0  0  0  0  0  0  0  0
    0.1354   -3.8458    0.0000 N   0  0  0  0  0  0  0  0  0  0  0  0
    2.7802   -6.0825    0.0000 C   0  0  3  0  0  0  0  0  0  0  0  0
    3.3386   -6.6898    0.0000 C   0  0  0  0  0  0  0  0  0  0  0  0
    2.5253   -5.2979    0.0000 C   0  0  0  0  0  0  0  0  0  0  0  0
    1.7003   -5.2979    0.0000 C   0  0  3  0  0  0  0  0  0  0  0  0
    3.5889   -5.9195    0.0000 C   0  0  0  0  0  0  0  0  0  0  0  0
    2.1128   -6.5675    0.0000 C   0  0  0  0  0  0  0  0  0  0  0  0
    3.0919   -7.4771    0.0000 C   0  0  0  0  0  0  0  0  0  0  0  0
    1.2153   -4.6305    0.0000 C   0  0  0  0  0  0  0  0  0  0  0  0
    1.4453   -6.0825    0.0000 C   0  0  0  0  0  0  0  0  0  0  0  0
    4.1438   -6.5098    0.0000 C   0  0  0  0  0  0  0  0  0  0  0  0
    3.6503   -8.0843    0.0000 C   0  0  0  0  0  0  0  0  0  0  0  0
    1.4703   -3.8458    0.0000 C   0  0  0  0  0  0  0  0  0  0  0  0
    0.3903   -4.6305    0.0000 C   0  0  0  0  0  0  0  0  0  0  0  0
    4.7022   -7.1171    0.0000 C   0  0  0  0  0  0  0  0  0  0  0  0
    4.4555   -7.9044    0.0000 C   0  0  0  0  0  0  0  0  0  0  0  0
    2.2868   -7.6570    0.0000 C   0  0  0  0  0  0  0  0  0  0  0  0
    0.8028   -2.5359    0.0000 C   0  0  0  0  0  0  0  0  0  0  0  0
    4.6608   -4.9745    0.0000 C   0  0  0  0  0  0  0  0  0  0  0  0
  1 18  1  0  0  0  0
  2 24  1  0  0  0  0
  3 24  1  0  0  0  0
  4 12  1  0  0  0  0
  4 25  1  0  0  0  0
  5 12  2  0  0  0  0
  6  7  1  0  0  0  0
  6 19  1  0  0  0  0
  6 24  1  0  0  0  0
  7 20  2  0  0  0  0
  8  9  1  6  0  0  0
  8 10  1  0  0  0  0
  8 12  1  1  0  0  0
  8 13  1  0  0  0  0
  9 14  2  0  0  0  0
  9 17  1  0  0  0  0
 10 11  1  0  0  0  0
 11 15  1  0  0  0  0
 11 16  1  0  0  0  0
 13 16  1  0  0  0  0
 14 18  1  0  0  0  0
 14 23  1  0  0  0  0
 15 19  2  0  0  0  0
 15 20  1  0  0  0  0
 17 21  2  0  0  0  0
 18 22  2  0  0  0  0
 21 22  1  0  0  0  0
M  END
> <PUBCHEM_COMPOUND_ID_TYPE>
0

> <PUBCHEM_TOTAL_CHARGE>
0

> <PUBCHEM_SUBSTANCE_ID>
310935039

> <PUBCHEM_SUBSTANCE_VERSION>
1

> <PUBCHEM_EXT_DATASOURCE_NAME>
4488

> <PUBCHEM_EXT_DATASOURCE_REGID>
SCHEMBL16112558

> <PUBCHEM_SUBSTANCE_COMMENT>
InChI=1S/C18H19F3N2O2/c1-11-14(4-3-5-15(11)19)18(16(24)25-2)7-6-12(8-18)13-9-22-23(10-13)17(20)21/h3-5,9-10,12,17H,6-8H2,1-2H3/t12?,18-/m0/s1
InChIKey=RRHHVAVCQCATHO-ZJFPTPTDSA-N

> <PUBCHEM_SUBSTANCE_SYNONYM>
SCHEMBL16112558

> <PUBCHEM_XREF_EXT_ID>
SCHEMBL16112558

> <PUBCHEM_EXT_DATASOURCE_URL>
https://www.surechembl.org/

> <PUBCHEM_EXT_SUBSTANCE_URL>
https://www.surechembl.org/chemical/SCHEMBL16112558

> <PUBCHEM_CID_ASSOCIATIONS>
117603144  1

> <PUBCHEM_COORDINATE_TYPE>
1
3

> <PUBCHEM_BONDANNOTATIONS>
8  12  5
8  9  6

$$$$
