310932187
  -OEChem-07211613022D

  9  9  0     0  0  0  0  0  0999 V2000
    2.1489   -1.2425    0.0000 O   0  0  0  0  0  0  0  0  0  0  0  0
    0.0000    0.0000    0.0000 N   0  0  0  0  0  0  0  0  0  0  0  0
    3.5815   -1.2425    0.0000 C   0  0  0  0  0  0  0  0  0  0  0  0
    4.3855   -1.2425    0.0000 C   0  0  0  0  0  0  0  0  0  0  0  0
    4.0200   -1.9588    0.0000 C   0  0  0  0  0  0  0  0  0  0  0  0
    2.8652   -0.8186    0.0000 C   0  0  0  0  0  0  0  0  0  0  0  0
    1.4326   -0.8332    0.0000 C   0  0  0  0  0  0  0  0  0  0  0  0
    0.7163   -1.2425    0.0000 C   0  0  0  0  0  0  0  0  0  0  0  0
    0.0000   -0.8332    0.0000 C   0  0  0  0  0  0  0  0  0  0  0  0
  1  6  1  0  0  0  0
  1  7  1  0  0  0  0
  2  9  1  0  0  0  0
  3  4  1  0  0  0  0
  3  5  1  0  0  0  0
  3  6  1  0  0  0  0
  4  5  1  0  0  0  0
  7  8  1  0  0  0  0
  8  9  1  0  0  0  0
M  END
> <PUBCHEM_COMPOUND_ID_TYPE>
0

> <PUBCHEM_TOTAL_CHARGE>
0

> <PUBCHEM_SUBSTANCE_ID>
310932187

> <PUBCHEM_SUBSTANCE_VERSION>
1

> <PUBCHEM_EXT_DATASOURCE_NAME>
4488

> <PUBCHEM_EXT_DATASOURCE_REGID>
SCHEMBL16109542

> <PUBCHEM_SUBSTANCE_COMMENT>
InChI=1S/C7H15NO/c8-4-1-5-9-6-7-2-3-7/h7H,1-6,8H2
InChIKey=JEFPOPWVKGDXGE-UHFFFAOYSA-N

> <PUBCHEM_SUBSTANCE_SYNONYM>
SCHEMBL16109542

> <PUBCHEM_XREF_EXT_ID>
SCHEMBL16109542

> <PUBCHEM_EXT_DATASOURCE_URL>
https://www.surechembl.org/

> <PUBCHEM_EXT_SUBSTANCE_URL>
https://www.surechembl.org/chemical/SCHEMBL16109542

> <PUBCHEM_CID_ASSOCIATIONS>
4962853  1

> <PUBCHEM_COORDINATE_TYPE>
1
3

$$$$
