310937023
  -OEChem-07211613022D

 22 26  0     0  0  0  0  0  0999 V2000
    2.7733   -4.5807    0.0000 O   0  0  0  0  0  0  0  0  0  0  0  0
    4.3937   -1.9943    0.0000 O   0  0  0  0  0  0  0  0  0  0  0  0
    1.4957   -4.1756    0.0000 N   0  0  0  0  0  0  0  0  0  0  0  0
    1.9943   -2.5552    0.0000 N   0  0  0  0  0  0  0  0  0  0  0  0
    2.2747   -5.2662    0.0000 N   0  0  0  0  0  0  0  0  0  0  0  0
    3.0226   -1.5892    0.0000 C   0  0  0  0  0  0  0  0  0  0  0  0
    2.5552   -3.1473    0.0000 C   0  0  0  0  0  0  0  0  0  0  0  0
    2.2747   -3.9263    0.0000 C   0  0  0  0  0  0  0  0  0  0  0  0
    3.5835   -2.1813    0.0000 C   0  0  0  0  0  0  0  0  0  0  0  0
    1.4957   -5.0169    0.0000 C   0  0  0  0  0  0  0  0  0  0  0  0
    3.3031   -0.8102    0.0000 C   0  0  0  0  0  0  0  0  0  0  0  0
    0.8414   -5.4844    0.0000 C   0  0  0  0  0  0  0  0  0  0  0  0
    3.3654   -2.9915    0.0000 C   0  0  0  0  0  0  0  0  0  0  0  0
    2.2125   -1.7450    0.0000 C   0  0  0  0  0  0  0  0  0  0  0  0
    3.1473    0.0000    0.0000 C   0  0  0  0  0  0  0  0  0  0  0  0
    3.9263   -0.2493    0.0000 C   0  0  0  0  0  0  0  0  0  0  0  0
    0.4986   -6.2322    0.0000 C   0  0  0  0  0  0  0  0  0  0  0  0
    0.0000   -5.5778    0.0000 C   0  0  0  0  0  0  0  0  0  0  0  0
    4.6430   -1.2153    0.0000 C   0  0  0  0  0  0  0  0  0  0  0  0
    5.4221   -1.0283    0.0000 C   0  0  0  0  0  0  0  0  0  0  0  0
    6.0141   -0.4674    0.0000 C   0  0  0  0  0  0  0  0  0  0  0  0
    6.2322   -1.2464    0.0000 C   0  0  0  0  0  0  0  0  0  0  0  0
  1  5  1  0  0  0  0
  1  8  1  0  0  0  0
  2  9  1  0  0  0  0
  2 19  1  0  0  0  0
  3  8  2  0  0  0  0
  3 10  1  0  0  0  0
  4  7  1  0  0  0  0
  4 14  2  0  0  0  0
  5 10  2  0  0  0  0
  6  9  2  0  0  0  0
  6 11  1  0  0  0  0
  6 14  1  0  0  0  0
  7  8  1  0  0  0  0
  7 13  2  0  0  0  0
  9 13  1  0  0  0  0
 10 12  1  0  0  0  0
 11 15  1  0  0  0  0
 11 16  1  0  0  0  0
 12 17  1  0  0  0  0
 12 18  1  0  0  0  0
 15 16  1  0  0  0  0
 17 18  1  0  0  0  0
 19 20  1  0  0  0  0
 20 21  1  0  0  0  0
 20 22  1  0  0  0  0
 21 22  1  0  0  0  0
M  END
> <PUBCHEM_COMPOUND_ID_TYPE>
0

> <PUBCHEM_TOTAL_CHARGE>
0

> <PUBCHEM_SUBSTANCE_ID>
310937023

> <PUBCHEM_SUBSTANCE_VERSION>
1

> <PUBCHEM_EXT_DATASOURCE_NAME>
4488

> <PUBCHEM_EXT_DATASOURCE_REGID>
SCHEMBL16114732

> <PUBCHEM_SUBSTANCE_COMMENT>
InChI=1S/C17H19N3O2/c1-2-10(1)9-21-15-7-14(18-8-13(15)11-3-4-11)17-19-16(20-22-17)12-5-6-12/h7-8,10-12H,1-6,9H2
InChIKey=HKMMKQPWICDJTA-UHFFFAOYSA-N

> <PUBCHEM_SUBSTANCE_SYNONYM>
SCHEMBL16114732

> <PUBCHEM_XREF_EXT_ID>
SCHEMBL16114732

> <PUBCHEM_EXT_DATASOURCE_URL>
https://www.surechembl.org/

> <PUBCHEM_EXT_SUBSTANCE_URL>
https://www.surechembl.org/chemical/SCHEMBL16114732

> <PUBCHEM_CID_ASSOCIATIONS>
86273992  1

> <PUBCHEM_COORDINATE_TYPE>
1
3

$$$$
