310944213
  -OEChem-07211613022D

 57 63  0     0  0  0  0  0  0999 V2000
    0.0248    3.9187    0.0000 F   0  0  0  0  0  0  0  0  0  0  0  0
   -3.6053   -2.2853    0.0000 F   0  0  0  0  0  0  0  0  0  0  0  0
    3.6053   -2.3183    0.0000 F   0  0  0  0  0  0  0  0  0  0  0  0
    2.1368   -3.9187    0.0000 N   0  0  0  0  0  0  0  0  0  0  0  0
   -2.1532   -3.9022    0.0000 N   0  0  0  0  0  0  0  0  0  0  0  0
    2.1862    3.4402    0.0000 N   0  0  0  0  0  0  0  0  0  0  0  0
    4.3312   -0.3053    0.0000 N   0  0  0  0  0  0  0  0  0  0  0  0
   -4.3312   -0.2887    0.0000 N   0  0  0  0  0  0  0  0  0  0  0  0
   -2.1368    3.4402    0.0000 N   0  0  0  0  0  0  0  0  0  0  0  0
    0.0082    0.6353    0.0000 C   0  0  0  0  0  0  0  0  0  0  0  0
    0.7177   -0.5857    0.0000 C   0  0  0  0  0  0  0  0  0  0  0  0
   -0.7177   -0.6023    0.0000 C   0  0  0  0  0  0  0  0  0  0  0  0
    0.7342    0.2227    0.0000 C   0  0  0  0  0  0  0  0  0  0  0  0
    0.0082   -0.9983    0.0000 C   0  0  0  0  0  0  0  0  0  0  0  0
   -0.7177    0.2227    0.0000 C   0  0  0  0  0  0  0  0  0  0  0  0
    0.0082    1.4767    0.0000 C   0  0  0  0  0  0  0  0  0  0  0  0
    1.4603   -1.0147    0.0000 C   0  0  0  0  0  0  0  0  0  0  0  0
   -1.4437   -1.0147    0.0000 C   0  0  0  0  0  0  0  0  0  0  0  0
   -1.4603    0.6517    0.0000 C   0  0  0  0  0  0  0  0  0  0  0  0
    1.4437    0.6353    0.0000 C   0  0  0  0  0  0  0  0  0  0  0  0
   -0.0082   -1.8563    0.0000 C   0  0  0  0  0  0  0  0  0  0  0  0
    0.7342    1.8727    0.0000 C   0  0  0  0  0  0  0  0  0  0  0  0
    1.4767   -1.8397    0.0000 C   0  0  0  0  0  0  0  0  0  0  0  0
   -1.4437   -1.8397    0.0000 C   0  0  0  0  0  0  0  0  0  0  0  0
   -0.6847    1.8727    0.0000 C   0  0  0  0  0  0  0  0  0  0  0  0
   -2.1532   -0.6023    0.0000 C   0  0  0  0  0  0  0  0  0  0  0  0
    2.1697   -0.6187    0.0000 C   0  0  0  0  0  0  0  0  0  0  0  0
   -1.4437    1.4603    0.0000 C   0  0  0  0  0  0  0  0  0  0  0  0
    2.1697    0.2393    0.0000 C   0  0  0  0  0  0  0  0  0  0  0  0
   -0.7013   -2.2687    0.0000 C   0  0  0  0  0  0  0  0  0  0  0  0
    1.4603    1.4273    0.0000 C   0  0  0  0  0  0  0  0  0  0  0  0
   -2.1368    0.2393    0.0000 C   0  0  0  0  0  0  0  0  0  0  0  0
    0.7507   -2.2853    0.0000 C   0  0  0  0  0  0  0  0  0  0  0  0
    0.7507    2.7143    0.0000 C   0  0  0  0  0  0  0  0  0  0  0  0
   -2.1532   -2.2357    0.0000 C   0  0  0  0  0  0  0  0  0  0  0  0
    2.1368   -2.2522    0.0000 C   0  0  0  0  0  0  0  0  0  0  0  0
   -0.7013    2.7143    0.0000 C   0  0  0  0  0  0  0  0  0  0  0  0
   -2.8792   -0.9983    0.0000 C   0  0  0  0  0  0  0  0  0  0  0  0
    2.8792   -1.0313    0.0000 C   0  0  0  0  0  0  0  0  0  0  0  0
    0.0082    3.1102    0.0000 C   0  0  0  0  0  0  0  0  0  0  0  0
   -2.8792   -1.8397    0.0000 C   0  0  0  0  0  0  0  0  0  0  0  0
    2.8627   -1.8563    0.0000 C   0  0  0  0  0  0  0  0  0  0  0  0
   -2.1368    1.8727    0.0000 C   0  0  0  0  0  0  0  0  0  0  0  0
    2.8627    0.6353    0.0000 C   0  0  0  0  0  0  0  0  0  0  0  0
   -0.7013   -3.0772    0.0000 C   0  0  0  0  0  0  0  0  0  0  0  0
   -2.8627    0.6517    0.0000 C   0  0  0  0  0  0  0  0  0  0  0  0
    2.1697    1.8563    0.0000 C   0  0  0  0  0  0  0  0  0  0  0  0
    0.7177   -3.0937    0.0000 C   0  0  0  0  0  0  0  0  0  0  0  0
    1.4603    3.0937    0.0000 C   0  0  0  0  0  0  0  0  0  0  0  0
   -2.1532   -3.0937    0.0000 C   0  0  0  0  0  0  0  0  0  0  0  0
    2.1368   -3.1102    0.0000 C   0  0  0  0  0  0  0  0  0  0  0  0
   -1.4273    3.0937    0.0000 C   0  0  0  0  0  0  0  0  0  0  0  0
   -3.6217   -0.6187    0.0000 C   0  0  0  0  0  0  0  0  0  0  0  0
    3.6053   -0.6517    0.0000 C   0  0  0  0  0  0  0  0  0  0  0  0
   -2.8792    1.4603    0.0000 C   0  0  0  0  0  0  0  0  0  0  0  0
    2.8792    1.4437    0.0000 C   0  0  0  0  0  0  0  0  0  0  0  0
    0.0412   -3.4732    0.0000 C   0  0  0  0  0  0  0  0  0  0  0  0
  1 40  1  0  0  0  0
  2 41  1  0  0  0  0
  3 42  1  0  0  0  0
  4 51  3  0  0  0  0
  5 50  3  0  0  0  0
  6 49  3  0  0  0  0
  7 54  3  0  0  0  0
  8 53  3  0  0  0  0
  9 52  3  0  0  0  0
 10 13  1  0  0  0  0
 10 15  2  0  0  0  0
 10 16  1  0  0  0  0
 11 13  2  0  0  0  0
 11 14  1  0  0  0  0
 11 17  1  0  0  0  0
 12 14  2  0  0  0  0
 12 15  1  0  0  0  0
 12 18  1  0  0  0  0
 13 20  1  0  0  0  0
 14 21  1  0  0  0  0
 15 19  1  0  0  0  0
 16 22  2  0  0  0  0
 16 25  1  0  0  0  0
 17 23  2  0  0  0  0
 17 27  1  0  0  0  0
 18 24  2  0  0  0  0
 18 26  1  0  0  0  0
 19 28  2  0  0  0  0
 19 32  1  0  0  0  0
 20 29  2  0  0  0  0
 20 31  1  0  0  0  0
 21 30  2  0  0  0  0
 21 33  1  0  0  0  0
 22 34  1  0  0  0  0
 23 36  1  0  0  0  0
 24 35  1  0  0  0  0
 25 37  2  0  0  0  0
 26 38  2  0  0  0  0
 27 39  2  0  0  0  0
 28 43  1  0  0  0  0
 29 44  1  0  0  0  0
 30 45  1  0  0  0  0
 31 47  2  0  0  0  0
 32 46  2  0  0  0  0
 33 48  2  0  0  0  0
 34 40  2  0  0  0  0
 34 49  1  0  0  0  0
 35 41  2  0  0  0  0
 35 50  1  0  0  0  0
 36 42  2  0  0  0  0
 36 51  1  0  0  0  0
 37 40  1  0  0  0  0
 37 52  1  0  0  0  0
 38 41  1  0  0  0  0
 38 53  1  0  0  0  0
 39 42  1  0  0  0  0
 39 54  1  0  0  0  0
 43 55  2  0  0  0  0
 44 56  2  0  0  0  0
 45 57  2  0  0  0  0
 46 55  1  0  0  0  0
 47 56  1  0  0  0  0
 48 57  1  0  0  0  0
M  END
> <PUBCHEM_COMPOUND_ID_TYPE>
0

> <PUBCHEM_TOTAL_CHARGE>
0

> <PUBCHEM_SUBSTANCE_ID>
310944213

> <PUBCHEM_SUBSTANCE_VERSION>
1

> <PUBCHEM_EXT_DATASOURCE_NAME>
4488

> <PUBCHEM_EXT_DATASOURCE_REGID>
SCHEMBL16122288

> <PUBCHEM_SUBSTANCE_COMMENT>
InChI=1S/C48H21F3N6/c49-46-34(22-52)16-31(17-35(46)23-53)43-40(28-10-4-1-5-11-28)44(32-18-36(24-54)47(50)37(19-32)25-55)42(30-14-8-3-9-15-30)45(41(43)29-12-6-2-7-13-29)33-20-38(26-56)48(51)39(21-33)27-57/h1-21H
InChIKey=RARZWKKEDPOOMG-UHFFFAOYSA-N

> <PUBCHEM_SUBSTANCE_SYNONYM>
SCHEMBL16122288

> <PUBCHEM_XREF_EXT_ID>
SCHEMBL16122288

> <PUBCHEM_EXT_DATASOURCE_URL>
https://www.surechembl.org/

> <PUBCHEM_EXT_SUBSTANCE_URL>
https://www.surechembl.org/chemical/SCHEMBL16122288

> <PUBCHEM_CID_ASSOCIATIONS>
117610484  1

> <PUBCHEM_COORDINATE_TYPE>
1
3

$$$$
