310943293
  -OEChem-07211613022D

 37 41  0     0  0  0  0  0  0999 V2000
    4.6302    2.3968    0.0000 F   0  0  0  0  0  0  0  0  0  0  0  0
    5.3461    1.1517    0.0000 F   0  0  0  0  0  0  0  0  0  0  0  0
   -2.0778   -2.8170    0.0000 O   0  0  0  0  0  0  0  0  0  0  0  0
   -5.3461    2.3968    0.0000 O   0  0  0  0  0  0  0  0  0  0  0  0
    1.7820    2.3968    0.0000 O   0  0  0  0  0  0  0  0  0  0  0  0
   -2.4824   -0.9183    0.0000 N   0  0  0  0  0  0  0  0  0  0  0  0
   -3.1983    0.3268    0.0000 N   0  0  0  0  0  0  0  0  0  0  0  0
   -3.9143    1.5720    0.0000 N   0  0  0  0  0  0  0  0  0  0  0  0
   -0.3502    2.8170    0.0000 N   0  0  0  0  0  0  0  0  0  0  0  0
    1.0817    1.1517    0.0000 N   0  0  0  0  0  0  0  0  0  0  0  0
    3.9298    0.3268    0.0000 N   0  0  0  0  0  0  0  0  0  0  0  0
   -2.4824   -0.0778    0.0000 C   0  0  0  0  0  0  0  0  0  0  0  0
   -2.4824   -2.1011    0.0000 C   0  0  0  0  0  0  0  0  0  0  0  0
   -1.7665    1.1517    0.0000 C   0  0  0  0  0  0  0  0  0  0  0  0
   -3.0583   -1.5252    0.0000 C   0  0  0  0  0  0  0  0  0  0  0  0
   -1.9222   -1.4941    0.0000 C   0  0  0  0  0  0  0  0  0  0  0  0
   -3.1983    1.1673    0.0000 C   0  0  0  0  0  0  0  0  0  0  0  0
   -1.0817    1.5720    0.0000 C   0  0  0  0  0  0  0  0  0  0  0  0
   -1.7820    0.3268    0.0000 C   0  0  0  0  0  0  0  0  0  0  0  0
   -2.4980    1.5720    0.0000 C   0  0  0  0  0  0  0  0  0  0  0  0
   -1.0661    2.4124    0.0000 C   0  0  0  0  0  0  0  0  0  0  0  0
   -0.3346    1.1673    0.0000 C   0  0  0  0  0  0  0  0  0  0  0  0
    0.3502    1.5720    0.0000 C   0  0  0  0  0  0  0  0  0  0  0  0
   -2.8871   -2.8326    0.0000 C   0  0  0  0  0  0  0  0  0  0  0  0
    0.3657    2.3968    0.0000 C   0  0  0  0  0  0  0  0  0  0  0  0
   -3.9143    2.3968    0.0000 C   0  0  0  0  0  0  0  0  0  0  0  0
   -4.6147    1.1673    0.0000 C   0  0  0  0  0  0  0  0  0  0  0  0
    1.7665    1.5563    0.0000 C   0  0  0  0  0  0  0  0  0  0  0  0
    2.4980    1.1673    0.0000 C   0  0  0  0  0  0  0  0  0  0  0  0
   -1.7665    2.8326    0.0000 C   0  0  0  0  0  0  0  0  0  0  0  0
    3.2139    1.5720    0.0000 C   0  0  0  0  0  0  0  0  0  0  0  0
    3.9298    1.1673    0.0000 C   0  0  0  0  0  0  0  0  0  0  0  0
   -4.6302    2.8170    0.0000 C   0  0  0  0  0  0  0  0  0  0  0  0
   -5.3461    1.5720    0.0000 C   0  0  0  0  0  0  0  0  0  0  0  0
    2.4980    0.3268    0.0000 C   0  0  0  0  0  0  0  0  0  0  0  0
    3.2295   -0.0778    0.0000 C   0  0  0  0  0  0  0  0  0  0  0  0
    4.6302    1.5720    0.0000 C   0  0  0  0  0  0  0  0  0  0  0  0
  1 37  1  0  0  0  0
  2 37  1  0  0  0  0
  3 13  1  0  0  0  0
  4 33  1  0  0  0  0
  4 34  1  0  0  0  0
  5 28  2  0  0  0  0
  6 12  1  0  0  0  0
  6 15  1  0  0  0  0
  6 16  1  0  0  0  0
  7 12  1  0  0  0  0
  7 17  2  0  0  0  0
  8 17  1  0  0  0  0
  8 26  1  0  0  0  0
  8 27  1  0  0  0  0
  9 21  2  0  0  0  0
  9 25  1  0  0  0  0
 10 23  1  0  0  0  0
 10 28  1  0  0  0  0
 11 32  1  0  0  0  0
 11 36  2  0  0  0  0
 12 19  2  0  0  0  0
 13 15  1  0  0  0  0
 13 16  1  0  0  0  0
 13 24  1  0  0  0  0
 14 18  1  0  0  0  0
 14 19  1  0  0  0  0
 14 20  2  0  0  0  0
 17 20  1  0  0  0  0
 18 21  1  0  0  0  0
 18 22  2  0  0  0  0
 21 30  1  0  0  0  0
 22 23  1  0  0  0  0
 23 25  2  0  0  0  0
 26 33  1  0  0  0  0
 27 34  1  0  0  0  0
 28 29  1  0  0  0  0
 29 31  1  0  0  0  0
 29 35  2  0  0  0  0
 31 32  2  0  0  0  0
 32 37  1  0  0  0  0
 35 36  1  0  0  0  0
M  END
> <PUBCHEM_COMPOUND_ID_TYPE>
0

> <PUBCHEM_TOTAL_CHARGE>
0

> <PUBCHEM_SUBSTANCE_ID>
310943293

> <PUBCHEM_SUBSTANCE_VERSION>
1

> <PUBCHEM_EXT_DATASOURCE_NAME>
4488

> <PUBCHEM_EXT_DATASOURCE_REGID>
SCHEMBL16121355

> <PUBCHEM_SUBSTANCE_COMMENT>
InChI=1S/C26H28F2N6O3/c1-16-20(12-19(13-30-16)31-25(35)17-3-4-29-21(9-17)24(27)28)18-10-22(33-5-7-37-8-6-33)32-23(11-18)34-14-26(2,36)15-34/h3-4,9-13,24,36H,5-8,14-15H2,1-2H3,(H,31,35)
InChIKey=NHYMNRKFPSPTOL-UHFFFAOYSA-N

> <PUBCHEM_SUBSTANCE_SYNONYM>
SCHEMBL16121355

> <PUBCHEM_XREF_EXT_ID>
SCHEMBL16121355

> <PUBCHEM_EXT_DATASOURCE_URL>
https://www.surechembl.org/

> <PUBCHEM_EXT_SUBSTANCE_URL>
https://www.surechembl.org/chemical/SCHEMBL16121355

> <PUBCHEM_CID_ASSOCIATIONS>
117609718  1

> <PUBCHEM_COORDINATE_TYPE>
1
3

$$$$
