310944301
  -OEChem-07211613022D

 15 16  0     0  0  0  0  0  0999 V2000
    2.4362    0.6984    0.0000 O   0  0  0  0  0  0  0  0  0  0  0  0
   -1.1383   -0.5445    0.0000 N   0  0  0  0  0  0  0  0  0  0  0  0
   -1.8862   -0.2035    0.0000 N   0  0  0  0  0  0  0  0  0  0  0  0
   -2.4362   -0.8193    0.0000 N   0  0  0  0  0  0  0  0  0  0  0  0
   -2.0292   -1.5343    0.0000 N   0  0  0  0  0  0  0  0  0  0  0  0
   -1.8532    1.5343    0.0000 N   0  0  0  0  0  0  0  0  0  0  0  0
   -0.4235   -0.1265    0.0000 C   0  0  0  0  0  0  0  0  0  0  0  0
   -0.4125    0.6984    0.0000 C   0  0  0  0  0  0  0  0  0  0  0  0
    0.3025   -0.5335    0.0000 C   0  0  0  0  0  0  0  0  0  0  0  0
    0.2915    1.1053    0.0000 C   0  0  0  0  0  0  0  0  0  0  0  0
   -1.2264   -1.3693    0.0000 C   0  0  0  0  0  0  0  0  0  0  0  0
    1.0173    0.6984    0.0000 C   0  0  0  0  0  0  0  0  0  0  0  0
    1.0063   -0.1265    0.0000 C   0  0  0  0  0  0  0  0  0  0  0  0
   -1.1163    1.1053    0.0000 C   0  0  0  0  0  0  0  0  0  0  0  0
    2.4362    1.5123    0.0000 C   0  0  0  0  0  0  0  0  0  0  0  0
  1 15  1  0  0  0  0
  2  3  1  0  0  0  0
  2  7  1  0  0  0  0
  2 11  1  0  0  0  0
  3  4  2  0  0  0  0
  4  5  1  0  0  0  0
  5 11  2  0  0  0  0
  6 14  3  0  0  0  0
  7  8  2  0  0  0  0
  7  9  1  0  0  0  0
  8 10  1  0  0  0  0
  8 14  1  0  0  0  0
  9 13  2  0  0  0  0
 10 12  2  0  0  0  0
 12 13  1  0  0  0  0
 12 15  1  0  0  0  0
M  END
> <PUBCHEM_COMPOUND_ID_TYPE>
0

> <PUBCHEM_TOTAL_CHARGE>
0

> <PUBCHEM_SUBSTANCE_ID>
310944301

> <PUBCHEM_SUBSTANCE_VERSION>
1

> <PUBCHEM_EXT_DATASOURCE_NAME>
4488

> <PUBCHEM_EXT_DATASOURCE_REGID>
SCHEMBL16122376

> <PUBCHEM_SUBSTANCE_COMMENT>
InChI=1S/C9H7N5O/c10-4-8-3-7(5-15)1-2-9(8)14-6-11-12-13-14/h1-3,6,15H,5H2
InChIKey=KYOKZTDPHNEHIK-UHFFFAOYSA-N

> <PUBCHEM_SUBSTANCE_SYNONYM>
SCHEMBL16122376

> <PUBCHEM_XREF_EXT_ID>
SCHEMBL16122376

> <PUBCHEM_EXT_DATASOURCE_URL>
https://www.surechembl.org/

> <PUBCHEM_EXT_SUBSTANCE_URL>
https://www.surechembl.org/chemical/SCHEMBL16122376

> <PUBCHEM_CID_ASSOCIATIONS>
117610566  1

> <PUBCHEM_COORDINATE_TYPE>
1
3

$$$$
