310946003
  -OEChem-07211613022D

 40 43  0     1  0  0  0  0  0999 V2000
    4.7827    0.9842    0.0000 O   0  0  0  0  0  0  0  0  0  0  0  0
    3.6460   -0.9842    0.0000 O   0  0  0  0  0  0  0  0  0  0  0  0
    1.2754    0.9704    0.0000 O   0  0  0  0  0  0  0  0  0  0  0  0
   -4.5194    0.0554    0.0000 O   0  0  0  0  0  0  0  0  0  0  0  0
   -0.8873   -1.1091    0.0000 O   0  0  0  0  0  0  0  0  0  0  0  0
   -3.0360    0.9704    0.0000 O   0  0  0  0  0  0  0  0  0  0  0  0
    3.4381   -2.7587    0.0000 O   0  0  0  0  0  0  0  0  0  0  0  0
    1.9963   -0.2634    0.0000 N   0  0  0  0  0  0  0  0  0  0  0  0
   -0.1664    0.1386    0.0000 N   0  0  0  0  0  0  0  0  0  0  0  0
   -2.3151   -0.2634    0.0000 N   0  0  0  0  0  0  0  0  0  0  0  0
   -5.0739   -0.5545    0.0000 N   0  0  0  0  0  0  0  0  0  0  0  0
    4.3669    0.3189    0.0000 C   0  0  3  0  0  0  0  0  0  0  0  0
    3.6460   -0.1109    0.0000 C   0  0  0  0  0  0  0  0  0  0  0  0
    3.9787    0.9981    0.0000 C   0  0  0  0  0  0  0  0  0  0  0  0
    2.9390    0.2911    0.0000 C   0  0  3  0  0  0  0  0  0  0  0  0
    5.0739   -0.1109    0.0000 C   0  0  0  0  0  0  0  0  0  0  0  0
    2.9390    1.3585    0.0000 C   0  0  0  0  0  0  0  0  0  0  0  0
    1.2754    0.1525    0.0000 C   0  0  0  0  0  0  0  0  0  0  0  0
    0.5823   -0.2357    0.0000 C   0  0  3  0  0  0  0  0  0  0  0  0
    2.2043    1.8022    0.0000 C   0  0  0  0  0  0  0  0  0  0  0  0
    0.5545   -1.0952    0.0000 C   0  0  0  0  0  0  0  0  0  0  0  0
   -3.7430   -0.2496    0.0000 C   0  0  0  0  0  0  0  0  0  0  0  0
   -0.8734   -0.2218    0.0000 C   0  0  0  0  0  0  0  0  0  0  0  0
   -3.0499    0.1525    0.0000 C   0  0  0  0  0  0  0  0  0  0  0  0
   -1.6081    0.1664    0.0000 C   0  0  3  0  0  0  0  0  0  0  0  0
    1.2892   -1.4834    0.0000 C   0  0  0  0  0  0  0  0  0  0  0  0
   -3.8539   -1.0674    0.0000 C   0  0  0  0  0  0  0  0  0  0  0  0
    1.4556    1.4556    0.0000 C   0  0  0  0  0  0  0  0  0  0  0  0
    2.1211    2.5924    0.0000 C   0  0  0  0  0  0  0  0  0  0  0  0
   -4.6580   -1.2477    0.0000 C   0  0  0  0  0  0  0  0  0  0  0  0
    0.9149    2.0656    0.0000 C   0  0  0  0  0  0  0  0  0  0  0  0
    1.3309    2.7587    0.0000 C   0  0  0  0  0  0  0  0  0  0  0  0
    1.2892   -2.3151    0.0000 C   0  0  0  0  0  0  0  0  0  0  0  0
    1.9824   -1.0952    0.0000 C   0  0  0  0  0  0  0  0  0  0  0  0
    2.7033   -2.3151    0.0000 C   0  0  0  0  0  0  0  0  0  0  0  0
    2.0101   -2.7310    0.0000 C   0  0  0  0  0  0  0  0  0  0  0  0
    2.7172   -1.4972    0.0000 C   0  0  0  0  0  0  0  0  0  0  0  0
   -1.5942    0.9842    0.0000 C   0  0  0  0  0  0  0  0  0  0  0  0
   -3.2163   -1.6358    0.0000 C   0  0  0  0  0  0  0  0  0  0  0  0
    4.1866   -2.3151    0.0000 C   0  0  0  0  0  0  0  0  0  0  0  0
  1 12  1  0  0  0  0
  1 14  1  0  0  0  0
  2 13  2  0  0  0  0
  3 18  2  0  0  0  0
  4 11  1  0  0  0  0
  4 22  1  0  0  0  0
  5 23  2  0  0  0  0
  6 24  2  0  0  0  0
  7 35  1  0  0  0  0
  7 40  1  0  0  0  0
 15  8  1  1  0  0  0
  8 18  1  0  0  0  0
 19  9  1  6  0  0  0
  9 23  1  0  0  0  0
 10 24  1  0  0  0  0
 10 25  1  0  0  0  0
 11 30  2  0  0  0  0
 12 13  1  1  0  0  0
 12 14  1  0  0  0  0
 12 16  1  6  0  0  0
 13 15  1  0  0  0  0
 15 17  1  0  0  0  0
 17 20  1  0  0  0  0
 18 19  1  0  0  0  0
 19 21  1  0  0  0  0
 20 28  1  0  0  0  0
 20 29  1  0  0  0  0
 21 26  1  0  0  0  0
 22 24  1  0  0  0  0
 22 27  2  0  0  0  0
 23 25  1  0  0  0  0
 25 38  1  6  0  0  0
 26 33  2  0  0  0  0
 26 34  1  0  0  0  0
 27 30  1  0  0  0  0
 27 39  1  0  0  0  0
 28 31  1  0  0  0  0
 29 32  1  0  0  0  0
 31 32  1  0  0  0  0
 33 36  1  0  0  0  0
 34 37  2  0  0  0  0
 35 36  2  0  0  0  0
 35 37  1  0  0  0  0
M  END
> <PUBCHEM_COMPOUND_ID_TYPE>
0

> <PUBCHEM_TOTAL_CHARGE>
0

> <PUBCHEM_SUBSTANCE_ID>
310946003

> <PUBCHEM_SUBSTANCE_VERSION>
1

> <PUBCHEM_EXT_DATASOURCE_NAME>
4488

> <PUBCHEM_EXT_DATASOURCE_REGID>
SCHEMBL16124109

> <PUBCHEM_SUBSTANCE_COMMENT>
InChI=1S/C29H38N4O7/c1-17-15-30-40-24(17)28(37)31-18(2)26(35)33-23(14-20-9-11-21(38-4)12-10-20)27(36)32-22(13-19-7-5-6-8-19)25(34)29(3)16-39-29/h9-12,15,18-19,22-23H,5-8,13-14,16H2,1-4H3,(H,31,37)(H,32,36)(H,33,35)/t18-,22+,23+,29-/m1/s1
InChIKey=HCKLBLWIPWVPIQ-KBSQQMHRSA-N

> <PUBCHEM_SUBSTANCE_SYNONYM>
SCHEMBL16124109

> <PUBCHEM_XREF_EXT_ID>
SCHEMBL16124109

> <PUBCHEM_EXT_DATASOURCE_URL>
https://www.surechembl.org/

> <PUBCHEM_EXT_SUBSTANCE_URL>
https://www.surechembl.org/chemical/SCHEMBL16124109

> <PUBCHEM_CID_ASSOCIATIONS>
117611974  1

> <PUBCHEM_COORDINATE_TYPE>
1
3

> <PUBCHEM_BONDANNOTATIONS>
12  13  5
12  16  6
25  38  6
15  8  5
19  9  6

$$$$
