310929956
  -OEChem-07211613022D

 66 74  0     1  0  0  0  0  0999 V2000
    5.4693   -0.9338    0.0000 S   0  0  0  0  0  0  0  0  0  0  0  0
    5.0691   -2.5345    0.0000 O   0  0  0  0  0  0  0  0  0  0  0  0
    5.6694   -1.7342    0.0000 O   0  0  0  0  0  0  0  0  0  0  0  0
    5.2025   -0.1334    0.0000 O   0  0  0  0  0  0  0  0  0  0  0  0
    5.0024   -3.1348    0.0000 O   0  0  0  0  0  0  0  0  0  0  0  0
    6.1363   -5.5360    0.0000 O   0  0  0  0  0  0  0  0  0  0  0  0
    2.2011   -4.0019    0.0000 O   0  0  0  0  0  0  0  0  0  0  0  0
    7.1367   -8.4040    0.0000 O   0  0  0  0  0  0  0  0  0  0  0  0
    1.6675   -7.5370    0.0000 O   0  0  0  0  0  0  0  0  0  0  0  0
    0.7337   -6.7366    0.0000 O   0  0  0  0  0  0  0  0  0  0  0  0
    3.6017   -3.0015    0.0000 N   0  0  0  0  0  0  0  0  0  0  0  0
    4.6689   -1.1339    0.0000 N   0  0  0  0  0  0  0  0  0  0  0  0
    3.4016   -4.3354    0.0000 N   0  0  0  0  0  0  0  0  0  0  0  0
    7.1367   -5.8695    0.0000 N   0  0  0  0  0  0  0  0  0  0  0  0
    1.6675   -5.8695    0.0000 N   0  0  0  0  0  0  0  0  0  0  0  0
    5.8028  -10.8719    0.0000 N   0  0  0  0  0  0  0  0  0  0  0  0
    5.8695  -12.5394    0.0000 N   0  0  0  0  0  0  0  0  0  0  0  0
    3.6684   -2.2011    0.0000 C   0  0  3  0  0  0  0  0  0  0  0  0
    3.0015   -1.8008    0.0000 C   0  0  3  0  0  0  0  0  0  0  0  0
    3.6684   -1.3340    0.0000 C   0  0  0  0  0  0  0  0  0  0  0  0
    4.4688   -1.9343    0.0000 C   0  0  0  0  0  0  0  0  0  0  0  0
    6.2030   -0.7337    0.0000 C   0  0  0  0  0  0  0  0  0  0  0  0
    4.2687   -3.4683    0.0000 C   0  0  0  0  0  0  0  0  0  0  0  0
    2.1344   -1.8676    0.0000 C   0  0  0  0  0  0  0  0  0  0  0  0
    6.8032   -0.1334    0.0000 C   0  0  0  0  0  0  0  0  0  0  0  0
    7.0034   -0.8671    0.0000 C   0  0  0  0  0  0  0  0  0  0  0  0
    4.1353   -4.3354    0.0000 C   0  0  3  0  0  0  0  0  0  0  0  0
    5.8028    0.0000    0.0000 C   0  0  0  0  0  0  0  0  0  0  0  0
    5.0024   -4.4688    0.0000 C   0  0  0  0  0  0  0  0  0  0  0  0
    5.6694   -4.8690    0.0000 C   0  0  3  0  0  0  0  0  0  0  0  0
    4.6689   -3.9352    0.0000 C   0  0  0  0  0  0  0  0  0  0  0  0
    2.6679   -4.6689    0.0000 C   0  0  0  0  0  0  0  0  0  0  0  0
    1.8008   -2.5345    0.0000 C   0  0  0  0  0  0  0  0  0  0  0  0
    2.0010   -5.2692    0.0000 C   0  0  3  0  0  0  0  0  0  0  0  0
    6.4031   -6.3363    0.0000 C   0  0  0  0  0  0  0  0  0  0  0  0
    6.4031   -7.0700    0.0000 C   0  0  0  0  0  0  0  0  0  0  0  0
    7.1367   -7.5370    0.0000 C   0  0  0  0  0  0  0  0  0  0  0  0
    7.8038   -7.0700    0.0000 C   0  0  0  0  0  0  0  0  0  0  0  0
    7.8038   -6.3363    0.0000 C   0  0  0  0  0  0  0  0  0  0  0  0
    1.4007   -4.7356    0.0000 C   0  0  0  0  0  0  0  0  0  0  0  0
    6.1363   -7.9371    0.0000 C   0  0  0  0  0  0  0  0  0  0  0  0
    1.5340   -6.7366    0.0000 C   0  0  0  0  0  0  0  0  0  0  0  0
    8.5374   -7.5370    0.0000 C   0  0  0  0  0  0  0  0  0  0  0  0
    8.5374   -5.8695    0.0000 C   0  0  0  0  0  0  0  0  0  0  0  0
    0.6003   -5.0024    0.0000 C   0  0  0  0  0  0  0  0  0  0  0  0
    1.5340   -3.8685    0.0000 C   0  0  0  0  0  0  0  0  0  0  0  0
    2.0010   -8.2039    0.0000 C   0  0  3  0  0  0  0  0  0  0  0  0
    2.6679   -8.8042    0.0000 C   0  0  3  0  0  0  0  0  0  0  0  0
    9.2711   -7.0700    0.0000 C   0  0  0  0  0  0  0  0  0  0  0  0
    1.8676   -9.0710    0.0000 C   0  0  0  0  0  0  0  0  0  0  0  0
    9.2711   -6.3363    0.0000 C   0  0  0  0  0  0  0  0  0  0  0  0
    5.6694   -8.6042    0.0000 C   0  0  0  0  0  0  0  0  0  0  0  0
    6.4698   -8.8042    0.0000 C   0  0  0  0  0  0  0  0  0  0  0  0
    0.0000   -4.4688    0.0000 C   0  0  0  0  0  0  0  0  0  0  0  0
    0.9338   -3.4016    0.0000 C   0  0  0  0  0  0  0  0  0  0  0  0
    3.4016   -9.1377    0.0000 C   0  0  0  0  0  0  0  0  0  0  0  0
    0.1334   -3.6684    0.0000 C   0  0  0  0  0  0  0  0  0  0  0  0
    5.0024   -8.9376    0.0000 C   0  0  0  0  0  0  0  0  0  0  0  0
    4.1353   -9.1377    0.0000 C   0  0  0  0  0  0  0  0  0  0  0  0
    6.4698   -9.6713    0.0000 C   0  0  0  0  0  0  0  0  0  0  0  0
    5.8028  -10.0715    0.0000 C   0  0  0  0  0  0  0  0  0  0  0  0
    5.1358  -11.3387    0.0000 C   0  0  0  0  0  0  0  0  0  0  0  0
    6.5365  -11.2721    0.0000 C   0  0  0  0  0  0  0  0  0  0  0  0
    6.5365  -12.0725    0.0000 C   0  0  0  0  0  0  0  0  0  0  0  0
    5.1358  -12.1391    0.0000 C   0  0  0  0  0  0  0  0  0  0  0  0
    5.8695  -13.3397    0.0000 C   0  0  0  0  0  0  0  0  0  0  0  0
  1  3  2  0  0  0  0
  1  4  2  0  0  0  0
  1 12  1  0  0  0  0
  1 22  1  0  0  0  0
  2 21  2  0  0  0  0
  5 23  2  0  0  0  0
  6 30  1  0  0  0  0
  6 35  1  0  0  0  0
  7 32  2  0  0  0  0
  8 37  1  0  0  0  0
  8 53  1  0  0  0  0
  9 42  1  0  0  0  0
  9 47  1  0  0  0  0
 10 42  2  0  0  0  0
 18 11  1  1  0  0  0
 11 23  1  0  0  0  0
 12 21  1  0  0  0  0
 13 27  1  0  0  0  0
 13 31  1  0  0  0  0
 13 32  1  0  0  0  0
 14 35  1  0  0  0  0
 14 39  2  0  0  0  0
 15 34  1  0  0  0  0
 15 42  1  0  0  0  0
 16 61  1  0  0  0  0
 16 62  1  0  0  0  0
 16 63  1  0  0  0  0
 17 64  1  0  0  0  0
 17 65  1  0  0  0  0
 17 66  1  0  0  0  0
 18 19  1  0  0  0  0
 18 20  1  0  0  0  0
 18 21  1  6  0  0  0
 19 20  1  0  0  0  0
 19 24  1  6  0  0  0
 22 25  1  0  0  0  0
 22 26  1  0  0  0  0
 22 28  1  0  0  0  0
 27 23  1  6  0  0  0
 24 33  2  0  0  0  0
 25 26  1  0  0  0  0
 27 29  1  0  0  0  0
 30 29  1  1  0  0  0
 30 31  1  0  0  0  0
 34 32  1  1  0  0  0
 34 40  1  0  0  0  0
 35 36  2  0  0  0  0
 36 37  1  0  0  0  0
 36 41  1  0  0  0  0
 37 38  2  0  0  0  0
 38 39  1  0  0  0  0
 38 43  1  0  0  0  0
 39 44  1  0  0  0  0
 40 45  1  0  0  0  0
 40 46  1  0  0  0  0
 41 52  1  0  0  0  0
 43 49  2  0  0  0  0
 44 51  2  0  0  0  0
 45 54  1  0  0  0  0
 46 55  1  0  0  0  0
 47 48  1  0  0  0  0
 47 50  1  1  0  0  0
 48 50  1  6  0  0  0
 48 56  1  0  0  0  0
 49 51  1  0  0  0  0
 52 58  1  0  0  0  0
 53 60  1  0  0  0  0
 54 57  1  0  0  0  0
 55 57  1  0  0  0  0
 56 59  1  0  0  0  0
 58 59  1  0  0  0  0
 60 61  1  0  0  0  0
 62 65  1  0  0  0  0
 63 64  1  0  0  0  0
M  END
> <PUBCHEM_COMPOUND_ID_TYPE>
0

> <PUBCHEM_TOTAL_CHARGE>
0

> <PUBCHEM_SUBSTANCE_ID>
310929956

> <PUBCHEM_SUBSTANCE_VERSION>
1

> <PUBCHEM_EXT_DATASOURCE_NAME>
4488

> <PUBCHEM_EXT_DATASOURCE_REGID>
SCHEMBL16107183

> <PUBCHEM_SUBSTANCE_COMMENT>
InChI=1S/C49H69N7O9S/c1-4-34-30-49(34,46(59)53-66(61,62)48(2)20-21-48)52-43(57)39-29-35-31-56(39)45(58)41(32-14-7-5-8-15-32)51-47(60)65-40-28-33(40)16-9-6-10-18-37-42(36-17-11-12-19-38(36)50-44(37)64-35)63-27-13-22-55-25-23-54(3)24-26-55/h4,11-12,17,19,32-35,39-41H,1,5-10,13-16,18,20-31H2,2-3H3,(H,51,60)(H,52,57)(H,53,59)/t33-,34-,35-,39+,40-,41+,49-/m1/s1
InChIKey=DGBKIENLAAGAIB-GMEWQFOQSA-N

> <PUBCHEM_SUBSTANCE_SYNONYM>
SCHEMBL16107183

> <PUBCHEM_XREF_EXT_ID>
SCHEMBL16107183

> <PUBCHEM_EXT_DATASOURCE_URL>
https://www.surechembl.org/

> <PUBCHEM_EXT_SUBSTANCE_URL>
https://www.surechembl.org/chemical/SCHEMBL16107183

> <PUBCHEM_CID_ASSOCIATIONS>
76317951  1

> <PUBCHEM_COORDINATE_TYPE>
1
3

> <PUBCHEM_BONDANNOTATIONS>
18  11  5
18  21  6
19  24  6
27  23  6
30  29  5
34  32  5
47  50  5
48  50  6

$$$$
