310937428
  -OEChem-07211613022D

 32 34  0     1  0  0  0  0  0999 V2000
    7.5083   -3.4105    0.0000 O   0  0  0  0  0  0  0  0  0  0  0  0
    2.8579   -5.7750    0.0000 O   0  0  0  0  0  0  0  0  0  0  0  0
    0.7145   -3.7125    0.0000 O   0  0  0  0  0  0  0  0  0  0  0  0
   -2.1434   -3.7125    0.0000 O   0  0  0  0  0  0  0  0  0  0  0  0
   -2.8579   -4.9500    0.0000 O   0  0  0  0  0  0  0  0  0  0  0  0
    5.7859   -3.4576    0.0000 N   0  0  0  0  0  0  0  0  0  0  0  0
    7.5083   -4.8395    0.0000 N   0  0  0  0  0  0  0  0  0  0  0  0
    1.4289   -4.9500    0.0000 N   0  0  0  0  0  0  0  0  0  0  0  0
    8.4103   -6.3076    0.0000 N   0  0  0  0  0  0  0  0  0  0  0  0
    9.5663   -5.6402    0.0000 N   0  0  0  0  0  0  0  0  0  0  0  0
   -1.4289   -4.9500    0.0000 N   0  0  0  0  0  0  0  0  0  0  0  0
    9.0234   -6.8596    0.0000 N   0  0  0  0  0  0  0  0  0  0  0  0
    9.7378   -6.4471    0.0000 N   0  0  0  0  0  0  0  0  0  0  0  0
    5.0013   -4.5375    0.0000 C   0  0  0  0  0  0  0  0  0  0  0  0
    5.0013   -3.7125    0.0000 C   0  0  0  0  0  0  0  0  0  0  0  0
    6.2708   -4.1250    0.0000 C   0  0  3  0  0  0  0  0  0  0  0  0
    5.7859   -4.7924    0.0000 C   0  0  0  0  0  0  0  0  0  0  0  0
    3.5724   -4.5375    0.0000 C   0  0  0  0  0  0  0  0  0  0  0  0
    4.2868   -4.9500    0.0000 C   0  0  0  0  0  0  0  0  0  0  0  0
    4.2868   -3.3000    0.0000 C   0  0  0  0  0  0  0  0  0  0  0  0
    7.0958   -4.1250    0.0000 C   0  0  0  0  0  0  0  0  0  0  0  0
    3.5724   -3.7125    0.0000 C   0  0  0  0  0  0  0  0  0  0  0  0
    2.8579   -4.9500    0.0000 C   0  0  0  0  0  0  0  0  0  0  0  0
    2.1434   -4.5375    0.0000 C   0  0  0  0  0  0  0  0  0  0  0  0
    8.3333   -4.8395    0.0000 C   0  0  0  0  0  0  0  0  0  0  0  0
    8.7458   -5.5539    0.0000 C   0  0  0  0  0  0  0  0  0  0  0  0
    0.7145   -4.5375    0.0000 C   0  0  0  0  0  0  0  0  0  0  0  0
    0.0000   -4.9500    0.0000 C   0  0  3  0  0  0  0  0  0  0  0  0
   -0.7145   -4.5375    0.0000 C   0  0  3  0  0  0  0  0  0  0  0  0
    0.0000   -5.7750    0.0000 C   0  0  0  0  0  0  0  0  0  0  0  0
   -2.1434   -4.5375    0.0000 C   0  0  0  0  0  0  0  0  0  0  0  0
   -0.7145   -3.7125    0.0000 C   0  0  0  0  0  0  0  0  0  0  0  0
  1 21  2  0  0  0  0
  2 23  2  0  0  0  0
  3 27  2  0  0  0  0
  4 31  2  0  0  0  0
  5 31  1  0  0  0  0
  6 15  1  0  0  0  0
  6 16  1  0  0  0  0
  7 21  1  0  0  0  0
  7 25  1  0  0  0  0
  8 24  1  0  0  0  0
  8 27  1  0  0  0  0
  9 12  2  0  0  0  0
  9 26  1  0  0  0  0
 10 13  1  0  0  0  0
 10 26  2  0  0  0  0
 11 29  1  0  0  0  0
 11 31  1  0  0  0  0
 12 13  1  0  0  0  0
 14 15  1  0  0  0  0
 14 17  1  0  0  0  0
 14 19  2  0  0  0  0
 15 20  2  0  0  0  0
 16 17  1  0  0  0  0
 16 21  1  0  0  0  0
 18 19  1  0  0  0  0
 18 22  2  0  0  0  0
 18 23  1  0  0  0  0
 20 22  1  0  0  0  0
 23 24  1  0  0  0  0
 25 26  1  0  0  0  0
 27 28  1  0  0  0  0
 28 29  1  0  0  0  0
 28 30  1  1  0  0  0
 29 32  1  0  0  0  0
M  END
> <PUBCHEM_COMPOUND_ID_TYPE>
0

> <PUBCHEM_TOTAL_CHARGE>
0

> <PUBCHEM_SUBSTANCE_ID>
310937428

> <PUBCHEM_SUBSTANCE_VERSION>
1

> <PUBCHEM_EXT_DATASOURCE_NAME>
4488

> <PUBCHEM_EXT_DATASOURCE_REGID>
SCHEMBL16115189

> <PUBCHEM_SUBSTANCE_COMMENT>
InChI=1S/C19H24N8O5/c1-9(10(2)22-19(31)32)17(29)20-7-15(28)11-3-4-13-12(5-11)6-14(23-13)18(30)21-8-16-24-26-27-25-16/h3-5,9-10,14,22-23H,6-8H2,1-2H3,(H,20,29)(H,21,30)(H,31,32)(H,24,25,26,27)/t9-,10?,14?/m0/s1
InChIKey=LKJZSDQSRTYMJS-IPWFMCSPSA-N

> <PUBCHEM_SUBSTANCE_SYNONYM>
SCHEMBL16115189

> <PUBCHEM_XREF_EXT_ID>
SCHEMBL16115189

> <PUBCHEM_EXT_DATASOURCE_URL>
https://www.surechembl.org/

> <PUBCHEM_EXT_SUBSTANCE_URL>
https://www.surechembl.org/chemical/SCHEMBL16115189

> <PUBCHEM_CID_ASSOCIATIONS>
117605181  1

> <PUBCHEM_COORDINATE_TYPE>
1
3

> <PUBCHEM_BONDANNOTATIONS>
28  30  5

$$$$
