310940506
  -OEChem-07211613022D

 28 31  0     0  0  0  0  0  0999 V2000
    2.4101   -2.8225    0.0000 Cl  0  0  0  0  0  0  0  0  0  0  0  0
    0.1617    2.5638    0.0000 F   0  0  0  0  0  0  0  0  0  0  0  0
    0.4691    1.4962    0.0000 F   0  0  0  0  0  0  0  0  0  0  0  0
   -0.6147    1.1889    0.0000 F   0  0  0  0  0  0  0  0  0  0  0  0
   -2.4101   -1.8035    0.0000 O   0  0  0  0  0  0  0  0  0  0  0  0
   -1.6660   -0.5742    0.0000 N   0  0  0  0  0  0  0  0  0  0  0  0
   -0.8896   -2.6123    0.0000 N   0  0  0  0  0  0  0  0  0  0  0  0
    1.1808   -2.0785    0.0000 N   0  0  0  0  0  0  0  0  0  0  0  0
   -0.9705   -1.8035    0.0000 C   0  0  0  0  0  0  0  0  0  0  0  0
    0.3396   -2.0785    0.0000 C   0  0  0  0  0  0  0  0  0  0  0  0
   -0.0647   -2.8064    0.0000 C   0  0  0  0  0  0  0  0  0  0  0  0
   -1.6984   -1.3829    0.0000 C   0  0  0  0  0  0  0  0  0  0  0  0
   -1.6822    1.9167    0.0000 C   0  0  0  0  0  0  0  0  0  0  0  0
   -0.9867    2.3212    0.0000 C   0  0  0  0  0  0  0  0  0  0  0  0
   -0.2103   -1.4801    0.0000 C   0  0  0  0  0  0  0  0  0  0  0  0
   -1.6984    1.0756    0.0000 C   0  0  0  0  0  0  0  0  0  0  0  0
   -0.2426    1.8844    0.0000 C   0  0  0  0  0  0  0  0  0  0  0  0
    0.3396   -3.5181    0.0000 C   0  0  0  0  0  0  0  0  0  0  0  0
   -0.9867   -0.1860    0.0000 C   0  0  0  0  0  0  0  0  0  0  0  0
   -2.3939   -0.1699    0.0000 C   0  0  0  0  0  0  0  0  0  0  0  0
   -0.9867    0.6551    0.0000 C   0  0  0  0  0  0  0  0  0  0  0  0
   -2.3939    0.6712    0.0000 C   0  0  0  0  0  0  0  0  0  0  0  0
    1.5852   -2.8064    0.0000 C   0  0  0  0  0  0  0  0  0  0  0  0
   -2.3939    2.3212    0.0000 C   0  0  0  0  0  0  0  0  0  0  0  0
   -0.9705    3.1137    0.0000 C   0  0  0  0  0  0  0  0  0  0  0  0
    1.1646   -3.5181    0.0000 C   0  0  0  0  0  0  0  0  0  0  0  0
   -2.3777    3.1137    0.0000 C   0  0  0  0  0  0  0  0  0  0  0  0
   -1.6822    3.5181    0.0000 C   0  0  0  0  0  0  0  0  0  0  0  0
  1 23  1  0  0  0  0
  2 17  1  0  0  0  0
  3 17  1  0  0  0  0
  4 17  1  0  0  0  0
  5 12  2  0  0  0  0
  6 12  1  0  0  0  0
  6 19  1  0  0  0  0
  6 20  1  0  0  0  0
  7  9  1  0  0  0  0
  7 11  1  0  0  0  0
  8 10  1  0  0  0  0
  8 23  2  0  0  0  0
  9 12  1  0  0  0  0
  9 15  2  0  0  0  0
 10 11  2  0  0  0  0
 10 15  1  0  0  0  0
 11 18  1  0  0  0  0
 13 14  2  0  0  0  0
 13 16  1  0  0  0  0
 13 24  1  0  0  0  0
 14 17  1  0  0  0  0
 14 25  1  0  0  0  0
 16 21  1  0  0  0  0
 16 22  1  0  0  0  0
 18 26  2  0  0  0  0
 19 21  1  0  0  0  0
 20 22  1  0  0  0  0
 23 26  1  0  0  0  0
 24 27  2  0  0  0  0
 25 28  2  0  0  0  0
 27 28  1  0  0  0  0
M  END
> <PUBCHEM_COMPOUND_ID_TYPE>
0

> <PUBCHEM_TOTAL_CHARGE>
0

> <PUBCHEM_SUBSTANCE_ID>
310940506

> <PUBCHEM_SUBSTANCE_VERSION>
1

> <PUBCHEM_EXT_DATASOURCE_NAME>
4488

> <PUBCHEM_EXT_DATASOURCE_REGID>
SCHEMBL16118460

> <PUBCHEM_SUBSTANCE_COMMENT>
InChI=1S/C20H17ClF3N3O/c21-18-6-5-15-16(26-18)11-17(25-15)19(28)27-9-7-12(8-10-27)13-3-1-2-4-14(13)20(22,23)24/h1-6,11-12,25H,7-10H2
InChIKey=LSCULYHOHBAPLC-UHFFFAOYSA-N

> <PUBCHEM_SUBSTANCE_SYNONYM>
SCHEMBL16118460

> <PUBCHEM_XREF_EXT_ID>
SCHEMBL16118460

> <PUBCHEM_EXT_DATASOURCE_URL>
https://www.surechembl.org/

> <PUBCHEM_EXT_SUBSTANCE_URL>
https://www.surechembl.org/chemical/SCHEMBL16118460

> <PUBCHEM_CID_ASSOCIATIONS>
117607521  1

> <PUBCHEM_COORDINATE_TYPE>
1
3

$$$$
