310931349
  -OEChem-07211613022D

 24 27  0     1  0  0  0  0  0999 V2000
    0.0000   -2.0626    0.0000 F   0  0  0  0  0  0  0  0  0  0  0  0
    0.8251   -3.5223    0.0000 O   0  0  0  0  0  0  0  0  0  0  0  0
    4.1569   -3.5223    0.0000 O   0  0  0  0  0  0  0  0  0  0  0  0
    2.4434   -0.6981    0.0000 O   0  0  0  0  0  0  0  0  0  0  0  0
    2.9194   -4.2204    0.0000 N   0  0  0  0  0  0  0  0  0  0  0  0
    4.1252   -4.9502    0.0000 N   0  0  0  0  0  0  0  0  0  0  0  0
    2.4751   -6.3464    0.0000 N   0  0  0  0  0  0  0  0  0  0  0  0
    2.4751   -3.5223    0.0000 C   0  0  3  0  0  0  0  0  0  0  0  0
    2.0626   -2.8241    0.0000 C   0  0  0  0  0  0  0  0  0  0  0  0
    2.0626   -4.2521    0.0000 C   0  0  0  0  0  0  0  0  0  0  0  0
    1.2376   -2.8241    0.0000 C   0  0  0  0  0  0  0  0  0  0  0  0
    1.2376   -4.2521    0.0000 C   0  0  0  0  0  0  0  0  0  0  0  0
    2.9194   -2.8241    0.0000 C   0  0  0  0  0  0  0  0  0  0  0  0
    2.4751   -2.0943    0.0000 C   0  0  0  0  0  0  0  0  0  0  0  0
    0.8251   -2.0943    0.0000 C   0  0  0  0  0  0  0  0  0  0  0  0
    2.4751   -4.9819    0.0000 C   0  0  0  0  0  0  0  0  0  0  0  0
    2.0626   -1.4280    0.0000 C   0  0  0  0  0  0  0  0  0  0  0  0
    3.7126   -4.2204    0.0000 C   0  0  0  0  0  0  0  0  0  0  0  0
    0.8251   -4.9819    0.0000 C   0  0  0  0  0  0  0  0  0  0  0  0
    1.2376   -1.4280    0.0000 C   0  0  0  0  0  0  0  0  0  0  0  0
    2.0626   -5.6483    0.0000 C   0  0  0  0  0  0  0  0  0  0  0  0
    3.7126   -2.8241    0.0000 C   0  0  0  0  0  0  0  0  0  0  0  0
    1.2376   -5.6483    0.0000 C   0  0  0  0  0  0  0  0  0  0  0  0
    2.0309    0.0000    0.0000 C   0  0  0  0  0  0  0  0  0  0  0  0
  1 15  1  0  0  0  0
  2 11  1  0  0  0  0
  2 12  1  0  0  0  0
  3 18  1  0  0  0  0
  3 22  1  0  0  0  0
  4 17  1  0  0  0  0
  4 24  1  0  0  0  0
  8  5  1  1  0  0  0
  5 18  2  0  0  0  0
  6 18  1  0  0  0  0
  7 21  1  0  0  0  0
  8  9  1  0  0  0  0
  8 10  1  0  0  0  0
  8 13  1  0  0  0  0
  9 11  2  0  0  0  0
  9 14  1  0  0  0  0
 10 12  2  0  0  0  0
 10 16  1  0  0  0  0
 11 15  1  0  0  0  0
 12 19  1  0  0  0  0
 13 22  1  0  0  0  0
 14 17  2  0  0  0  0
 15 20  2  0  0  0  0
 16 21  2  0  0  0  0
 17 20  1  0  0  0  0
 19 23  2  0  0  0  0
 21 23  1  0  0  0  0
M  END
> <PUBCHEM_COMPOUND_ID_TYPE>
0

> <PUBCHEM_TOTAL_CHARGE>
0

> <PUBCHEM_SUBSTANCE_ID>
310931349

> <PUBCHEM_SUBSTANCE_VERSION>
1

> <PUBCHEM_EXT_DATASOURCE_NAME>
4488

> <PUBCHEM_EXT_DATASOURCE_REGID>
SCHEMBL16108669

> <PUBCHEM_SUBSTANCE_COMMENT>
InChI=1S/C17H16FN3O3/c1-22-10-7-12-15(13(18)8-10)24-14-3-2-9(19)6-11(14)17(12)4-5-23-16(20)21-17/h2-3,6-8H,4-5,19H2,1H3,(H2,20,21)/t17-/m0/s1
InChIKey=VEVZEXYUEDCOSR-KRWDZBQOSA-N

> <PUBCHEM_SUBSTANCE_SYNONYM>
SCHEMBL16108669

> <PUBCHEM_XREF_EXT_ID>
SCHEMBL16108669

> <PUBCHEM_EXT_DATASOURCE_URL>
https://www.surechembl.org/

> <PUBCHEM_EXT_SUBSTANCE_URL>
https://www.surechembl.org/chemical/SCHEMBL16108669

> <PUBCHEM_CID_ASSOCIATIONS>
117600153  1

> <PUBCHEM_COORDINATE_TYPE>
1
3

> <PUBCHEM_BONDANNOTATIONS>
8  5  5

$$$$
