310946116
  -OEChem-07211613022D

 35 36  0     1  0  0  0  0  0999 V2000
   -1.3737    1.6500    0.0000 O   0  0  0  0  0  0  0  0  0  0  0  0
    0.0553    1.6500    0.0000 O   0  0  0  0  0  0  0  0  0  0  0  0
   -2.0881   -2.8875    0.0000 O   0  0  0  0  0  0  0  0  0  0  0  0
    0.7697   -2.0625    0.0000 O   0  0  0  0  0  0  0  0  0  0  0  0
    0.0553   -0.8250    0.0000 O   0  0  0  0  0  0  0  0  0  0  0  0
   -0.6592    2.8875    0.0000 O   0  0  0  0  0  0  0  0  0  0  0  0
   -1.3737   -4.1250    0.0000 O   0  0  0  0  0  0  0  0  0  0  0  0
    3.6276    2.8875    0.0000 O   0  5  0  0  0  0  0  0  0  0  0  0
    2.9131    4.1250    0.0000 O   0  0  0  0  0  0  0  0  0  0  0  0
   -0.6592   -2.8875    0.0000 N   0  0  0  0  0  0  0  0  0  0  0  0
    2.9131    3.3000    0.0000 N   0  3  0  0  0  0  0  0  0  0  0  0
   -0.6592   -2.0625    0.0000 C   0  0  3  0  0  0  0  0  0  0  0  0
   -1.3737   -0.8250    0.0000 C   0  0  0  0  0  0  0  0  0  0  0  0
   -1.3737    0.8250    0.0000 C   0  0  0  0  0  0  0  0  0  0  0  0
   -1.3737   -1.6500    0.0000 C   0  0  0  0  0  0  0  0  0  0  0  0
    0.7697    2.0625    0.0000 C   0  0  0  0  0  0  0  0  0  0  0  0
    0.0553   -1.6500    0.0000 C   0  0  0  0  0  0  0  0  0  0  0  0
   -0.6592   -0.4125    0.0000 C   0  0  0  0  0  0  0  0  0  0  0  0
   -2.0881   -0.4125    0.0000 C   0  0  0  0  0  0  0  0  0  0  0  0
   -0.6592    2.0625    0.0000 C   0  0  0  0  0  0  0  0  0  0  0  0
   -0.6592    0.4125    0.0000 C   0  0  0  0  0  0  0  0  0  0  0  0
   -2.0881    0.4125    0.0000 C   0  0  0  0  0  0  0  0  0  0  0  0
    2.1987    2.8875    0.0000 C   0  0  0  0  0  0  0  0  0  0  0  0
   -1.3737   -3.3000    0.0000 C   0  0  0  0  0  0  0  0  0  0  0  0
    0.7697    2.8875    0.0000 C   0  0  0  0  0  0  0  0  0  0  0  0
    1.4842    1.6500    0.0000 C   0  0  0  0  0  0  0  0  0  0  0  0
    1.4842    3.3000    0.0000 C   0  0  0  0  0  0  0  0  0  0  0  0
    2.1987    2.0625    0.0000 C   0  0  0  0  0  0  0  0  0  0  0  0
   -2.8026   -3.3000    0.0000 C   0  0  0  0  0  0  0  0  0  0  0  0
    0.7697   -2.8875    0.0000 C   0  0  0  0  0  0  0  0  0  0  0  0
   -2.8026   -4.1250    0.0000 C   0  0  0  0  0  0  0  0  0  0  0  0
   -3.6276   -3.3000    0.0000 C   0  0  0  0  0  0  0  0  0  0  0  0
   -3.2151   -2.5855    0.0000 C   0  0  0  0  0  0  0  0  0  0  0  0
    1.4842   -3.3000    0.0000 C   0  0  0  0  0  0  0  0  0  0  0  0
    1.4842   -4.1250    0.0000 C   0  0  0  0  0  0  0  0  0  0  0  0
  1 14  1  0  0  0  0
  1 20  1  0  0  0  0
  2 16  1  0  0  0  0
  2 20  1  0  0  0  0
  3 24  1  0  0  0  0
  3 29  1  0  0  0  0
  4 17  1  0  0  0  0
  4 30  1  0  0  0  0
  5 17  2  0  0  0  0
  6 20  2  0  0  0  0
  7 24  2  0  0  0  0
  8 11  1  0  0  0  0
  9 11  2  0  0  0  0
 12 10  1  1  0  0  0
 10 24  1  0  0  0  0
 11 23  1  0  0  0  0
 12 15  1  0  0  0  0
 12 17  1  0  0  0  0
 13 15  1  0  0  0  0
 13 18  2  0  0  0  0
 13 19  1  0  0  0  0
 14 21  2  0  0  0  0
 14 22  1  0  0  0  0
 16 25  2  0  0  0  0
 16 26  1  0  0  0  0
 18 21  1  0  0  0  0
 19 22  2  0  0  0  0
 23 27  2  0  0  0  0
 23 28  1  0  0  0  0
 25 27  1  0  0  0  0
 26 28  2  0  0  0  0
 29 31  1  0  0  0  0
 29 32  1  0  0  0  0
 29 33  1  0  0  0  0
 30 34  1  0  0  0  0
 34 35  2  0  0  0  0
M  CHG  2   8  -1  11   1
M  END
> <PUBCHEM_COMPOUND_ID_TYPE>
0

> <PUBCHEM_TOTAL_CHARGE>
0

> <PUBCHEM_SUBSTANCE_ID>
310946116

> <PUBCHEM_SUBSTANCE_VERSION>
1

> <PUBCHEM_EXT_DATASOURCE_NAME>
4488

> <PUBCHEM_EXT_DATASOURCE_REGID>
SCHEMBL16124224

> <PUBCHEM_SUBSTANCE_COMMENT>
InChI=1S/C24H26N2O9/c1-5-14-32-21(27)20(25-22(28)35-24(2,3)4)15-16-6-10-18(11-7-16)33-23(29)34-19-12-8-17(9-13-19)26(30)31/h5-13,20H,1,14-15H2,2-4H3,(H,25,28)/t20-/m0/s1
InChIKey=JTMQSECRUAJNAB-FQEVSTJZSA-N

> <PUBCHEM_SUBSTANCE_SYNONYM>
SCHEMBL16124224

> <PUBCHEM_XREF_EXT_ID>
SCHEMBL16124224

> <PUBCHEM_EXT_DATASOURCE_URL>
https://www.surechembl.org/

> <PUBCHEM_EXT_SUBSTANCE_URL>
https://www.surechembl.org/chemical/SCHEMBL16124224

> <PUBCHEM_CID_ASSOCIATIONS>
117612078  1

> <PUBCHEM_COORDINATE_TYPE>
1
3

> <PUBCHEM_BONDANNOTATIONS>
12  10  5

$$$$
