310943190
  -OEChem-07211613022D

 35 38  0     0  0  0  0  0  0999 V2000
   -2.6871   -2.1147    0.0000 O   0  0  0  0  0  0  0  0  0  0  0  0
   -5.5491    1.2561    0.0000 O   0  0  0  0  0  0  0  0  0  0  0  0
    1.9557    1.2720    0.0000 O   0  0  0  0  0  0  0  0  0  0  0  0
   -3.4027   -0.8745    0.0000 N   0  0  0  0  0  0  0  0  0  0  0  0
   -4.1182    0.4452    0.0000 N   0  0  0  0  0  0  0  0  0  0  0  0
    1.0176    0.0159    0.0000 N   0  0  0  0  0  0  0  0  0  0  0  0
    4.1022   -0.7632    0.0000 N   0  0  0  0  0  0  0  0  0  0  0  0
    4.8177    2.1147    0.0000 N   0  0  0  0  0  0  0  0  0  0  0  0
   -1.9557   -0.0477    0.0000 C   0  0  0  0  0  0  0  0  0  0  0  0
   -3.3867   -0.0477    0.0000 C   0  0  0  0  0  0  0  0  0  0  0  0
   -1.1289    0.4293    0.0000 C   0  0  0  0  0  0  0  0  0  0  0  0
   -2.6871    0.3498    0.0000 C   0  0  0  0  0  0  0  0  0  0  0  0
   -2.6871   -1.2561    0.0000 C   0  0  0  0  0  0  0  0  0  0  0  0
   -1.9716   -0.8745    0.0000 C   0  0  0  0  0  0  0  0  0  0  0  0
   -1.1289    1.2561    0.0000 C   0  0  0  0  0  0  0  0  0  0  0  0
   -0.4134    0.0159    0.0000 C   0  0  0  0  0  0  0  0  0  0  0  0
    0.2862    0.4452    0.0000 C   0  0  0  0  0  0  0  0  0  0  0  0
    4.1022    0.0636    0.0000 C   0  0  0  0  0  0  0  0  0  0  0  0
    2.6712    0.0636    0.0000 C   0  0  0  0  0  0  0  0  0  0  0  0
    4.8177    0.4770    0.0000 C   0  0  0  0  0  0  0  0  0  0  0  0
    1.9557    0.4611    0.0000 C   0  0  0  0  0  0  0  0  0  0  0  0
   -0.4134    1.6377    0.0000 C   0  0  0  0  0  0  0  0  0  0  0  0
    0.2862    1.2402    0.0000 C   0  0  0  0  0  0  0  0  0  0  0  0
    3.3549    0.4611    0.0000 C   0  0  0  0  0  0  0  0  0  0  0  0
   -4.1340    1.2561    0.0000 C   0  0  0  0  0  0  0  0  0  0  0  0
   -4.8177    0.0318    0.0000 C   0  0  0  0  0  0  0  0  0  0  0  0
   -4.1022   -1.3038    0.0000 C   0  0  0  0  0  0  0  0  0  0  0  0
    2.6712   -0.7632    0.0000 C   0  0  0  0  0  0  0  0  0  0  0  0
   -1.8603    1.6377    0.0000 C   0  0  0  0  0  0  0  0  0  0  0  0
    3.3867   -1.1607    0.0000 C   0  0  0  0  0  0  0  0  0  0  0  0
   -4.8336    1.6695    0.0000 C   0  0  0  0  0  0  0  0  0  0  0  0
   -5.5491    0.4293    0.0000 C   0  0  0  0  0  0  0  0  0  0  0  0
    4.8336    1.2720    0.0000 C   0  0  0  0  0  0  0  0  0  0  0  0
    5.5491    0.8586    0.0000 C   0  0  0  0  0  0  0  0  0  0  0  0
    5.5332    0.0318    0.0000 C   0  0  0  0  0  0  0  0  0  0  0  0
  1 13  2  0  0  0  0
  2 31  1  0  0  0  0
  2 32  1  0  0  0  0
  3 21  2  0  0  0  0
  4 10  1  0  0  0  0
  4 13  1  0  0  0  0
  4 27  1  0  0  0  0
  5 10  1  0  0  0  0
  5 25  1  0  0  0  0
  5 26  1  0  0  0  0
  6 17  1  0  0  0  0
  6 21  1  0  0  0  0
  7 18  1  0  0  0  0
  7 30  2  0  0  0  0
  8 33  3  0  0  0  0
  9 11  1  0  0  0  0
  9 12  1  0  0  0  0
  9 14  2  0  0  0  0
 10 12  2  0  0  0  0
 11 15  1  0  0  0  0
 11 16  2  0  0  0  0
 13 14  1  0  0  0  0
 15 22  2  0  0  0  0
 15 29  1  0  0  0  0
 16 17  1  0  0  0  0
 17 23  2  0  0  0  0
 18 20  1  0  0  0  0
 18 24  2  0  0  0  0
 19 21  1  0  0  0  0
 19 24  1  0  0  0  0
 19 28  2  0  0  0  0
 20 33  1  0  0  0  0
 20 34  1  0  0  0  0
 20 35  1  0  0  0  0
 22 23  1  0  0  0  0
 25 31  1  0  0  0  0
 26 32  1  0  0  0  0
 28 30  1  0  0  0  0
M  END
> <PUBCHEM_COMPOUND_ID_TYPE>
0

> <PUBCHEM_TOTAL_CHARGE>
0

> <PUBCHEM_SUBSTANCE_ID>
310943190

> <PUBCHEM_SUBSTANCE_VERSION>
1

> <PUBCHEM_EXT_DATASOURCE_NAME>
4488

> <PUBCHEM_EXT_DATASOURCE_REGID>
SCHEMBL16121251

> <PUBCHEM_SUBSTANCE_COMMENT>
InChI=1S/C27H29N5O3/c1-18-5-6-21(30-26(34)19-7-8-29-23(13-19)27(2,3)17-28)16-22(18)20-14-24(31(4)25(33)15-20)32-9-11-35-12-10-32/h5-8,13-16H,9-12H2,1-4H3,(H,30,34)
InChIKey=QCSHXQSIPJWEJT-UHFFFAOYSA-N

> <PUBCHEM_SUBSTANCE_SYNONYM>
SCHEMBL16121251

> <PUBCHEM_XREF_EXT_ID>
SCHEMBL16121251

> <PUBCHEM_EXT_DATASOURCE_URL>
https://www.surechembl.org/

> <PUBCHEM_EXT_SUBSTANCE_URL>
https://www.surechembl.org/chemical/SCHEMBL16121251

> <PUBCHEM_CID_ASSOCIATIONS>
117609618  1

> <PUBCHEM_COORDINATE_TYPE>
1
3

$$$$
