310947177
  -OEChem-07211613022D

 39 41  0     0  0  0  0  0  0999 V2000
   -2.1434  -12.8247    0.0000 S   0  0  0  0  0  0  0  0  0  0  0  0
    2.1434  -12.8247    0.0000 O   0  0  0  0  0  0  0  0  0  0  0  0
    5.0013  -11.1747    0.0000 O   0  0  0  0  0  0  0  0  0  0  0  0
    2.8579  -11.5872    0.0000 O   0  0  0  0  0  0  0  0  0  0  0  0
    0.7145  -10.3497    0.0000 O   0  0  0  0  0  0  0  0  0  0  0  0
    3.5724  -11.1747    0.0000 O   0  0  0  0  0  0  0  0  0  0  0  0
   -5.0013  -11.1747    0.0000 O   0  0  0  0  0  0  0  0  0  0  0  0
   -5.7158  -12.4122    0.0000 O   0  0  0  0  0  0  0  0  0  0  0  0
    1.4289  -12.4122    0.0000 N   0  0  0  0  0  0  0  0  0  0  0  0
    3.5724  -12.8247    0.0000 C   0  0  0  0  0  0  0  0  0  0  0  0
    4.2868  -12.4122    0.0000 C   0  0  0  0  0  0  0  0  0  0  0  0
    2.8579  -12.4122    0.0000 C   0  0  0  0  0  0  0  0  0  0  0  0
    0.0000  -11.5872    0.0000 C   0  0  0  0  0  0  0  0  0  0  0  0
    0.7145  -11.1747    0.0000 C   0  0  0  0  0  0  0  0  0  0  0  0
    4.2868  -11.5872    0.0000 C   0  0  0  0  0  0  0  0  0  0  0  0
   -1.4289  -12.4122    0.0000 C   0  0  0  0  0  0  0  0  0  0  0  0
    1.4289  -11.5872    0.0000 C   0  0  0  0  0  0  0  0  0  0  0  0
    3.5724  -13.6497    0.0000 C   0  0  0  0  0  0  0  0  0  0  0  0
    5.0013  -12.8247    0.0000 C   0  0  0  0  0  0  0  0  0  0  0  0
   -2.8579  -12.4122    0.0000 C   0  0  0  0  0  0  0  0  0  0  0  0
   -0.7145  -11.1747    0.0000 C   0  0  0  0  0  0  0  0  0  0  0  0
    0.0000  -12.4122    0.0000 C   0  0  0  0  0  0  0  0  0  0  0  0
   -1.4289  -11.5872    0.0000 C   0  0  0  0  0  0  0  0  0  0  0  0
   -0.7145  -12.8247    0.0000 C   0  0  0  0  0  0  0  0  0  0  0  0
    4.2868  -14.0622    0.0000 C   0  0  0  0  0  0  0  0  0  0  0  0
    5.0013  -13.6497    0.0000 C   0  0  0  0  0  0  0  0  0  0  0  0
   -4.2868  -11.5872    0.0000 C   0  0  0  0  0  0  0  0  0  0  0  0
   -2.8579  -11.5872    0.0000 C   0  0  0  0  0  0  0  0  0  0  0  0
   -3.5724  -12.8247    0.0000 C   0  0  0  0  0  0  0  0  0  0  0  0
   -3.5724  -11.1747    0.0000 C   0  0  0  0  0  0  0  0  0  0  0  0
   -4.2868  -12.4122    0.0000 C   0  0  0  0  0  0  0  0  0  0  0  0
    2.1434  -11.1747    0.0000 C   0  0  0  0  0  0  0  0  0  0  0  0
   -5.7158  -11.5872    0.0000 C   0  0  0  0  0  0  0  0  0  0  0  0
    5.7158  -11.5872    0.0000 C   0  0  0  0  0  0  0  0  0  0  0  0
   -6.4302  -11.1747    0.0000 C   0  0  0  0  0  0  0  0  0  0  0  0
    6.4302  -11.1747    0.0000 C   0  0  0  0  0  0  0  0  0  0  0  0
   -7.1447  -11.5872    0.0000 C   0  0  0  0  0  0  0  0  0  0  0  0
   -6.4302  -10.3497    0.0000 C   0  0  0  0  0  0  0  0  0  0  0  0
    7.1447  -11.5872    0.0000 C   0  0  0  0  0  0  0  0  0  0  0  0
  1 16  1  0  0  0  0
  1 20  1  0  0  0  0
  2  9  1  0  0  0  0
  2 12  1  0  0  0  0
  3 15  1  0  0  0  0
  3 34  1  0  0  0  0
  4 12  2  0  0  0  0
  5 14  2  0  0  0  0
  6 15  2  0  0  0  0
  7 27  1  0  0  0  0
  7 33  1  0  0  0  0
  8 33  2  0  0  0  0
  9 17  2  0  0  0  0
 10 11  1  0  0  0  0
 10 12  1  0  0  0  0
 10 18  2  0  0  0  0
 11 15  1  0  0  0  0
 11 19  2  0  0  0  0
 13 14  1  0  0  0  0
 13 21  2  0  0  0  0
 13 22  1  0  0  0  0
 14 17  1  0  0  0  0
 16 23  2  0  0  0  0
 16 24  1  0  0  0  0
 17 32  1  0  0  0  0
 18 25  1  0  0  0  0
 19 26  1  0  0  0  0
 20 28  2  0  0  0  0
 20 29  1  0  0  0  0
 21 23  1  0  0  0  0
 22 24  2  0  0  0  0
 25 26  2  0  0  0  0
 27 30  2  0  0  0  0
 27 31  1  0  0  0  0
 28 30  1  0  0  0  0
 29 31  2  0  0  0  0
 33 35  1  0  0  0  0
 34 36  1  0  0  0  0
 35 37  2  0  0  0  0
 35 38  1  0  0  0  0
 36 39  1  0  0  0  0
M  END
> <PUBCHEM_COMPOUND_ID_TYPE>
0

> <PUBCHEM_TOTAL_CHARGE>
0

> <PUBCHEM_SUBSTANCE_ID>
310947177

> <PUBCHEM_SUBSTANCE_VERSION>
1

> <PUBCHEM_EXT_DATASOURCE_NAME>
4488

> <PUBCHEM_EXT_DATASOURCE_REGID>
SCHEMBL16125331

> <PUBCHEM_SUBSTANCE_COMMENT>
InChI=1S/C30H27NO7S/c1-5-18-36-29(34)25-8-6-7-9-26(25)30(35)38-31-20(4)27(32)21-10-14-23(15-11-21)39-24-16-12-22(13-17-24)37-28(33)19(2)3/h6-17H,2,5,18H2,1,3-4H3/b31-20+
InChIKey=BFPZSHZGBDQPJA-AJBULDERSA-N

> <PUBCHEM_SUBSTANCE_SYNONYM>
SCHEMBL16125331

> <PUBCHEM_XREF_EXT_ID>
SCHEMBL16125331

> <PUBCHEM_EXT_DATASOURCE_URL>
https://www.surechembl.org/

> <PUBCHEM_EXT_SUBSTANCE_URL>
https://www.surechembl.org/chemical/SCHEMBL16125331

> <PUBCHEM_CID_ASSOCIATIONS>
117613002  1

> <PUBCHEM_COORDINATE_TYPE>
1
3

$$$$
