310944552
  -OEChem-07211613022D

 27 30  0     1  0  0  0  0  0999 V2000
    2.3872    1.9194    0.0000 O   0  0  0  0  0  0  0  0  0  0  0  0
   -3.8942   -2.1414    0.0000 O   0  0  0  0  0  0  0  0  0  0  0  0
    0.3569    0.5235    0.0000 N   0  0  0  0  0  0  0  0  0  0  0  0
   -2.5776    0.4759    0.0000 N   0  0  0  0  0  0  0  0  0  0  0  0
   -2.9107    1.2372    0.0000 N   0  0  0  0  0  0  0  0  0  0  0  0
    1.1342    0.1745    0.0000 C   0  0  3  0  0  0  0  0  0  0  0  0
    0.4521    1.3958    0.0000 C   0  0  3  0  0  0  0  0  0  0  0  0
   -3.1804   -0.0635    0.0000 C   0  0  0  0  0  0  0  0  0  0  0  0
   -3.9101    0.3332    0.0000 C   0  0  0  0  0  0  0  0  0  0  0  0
   -0.5314   -0.0951    0.0000 C   0  0  0  0  0  0  0  0  0  0  0  0
    1.8004    1.3483    0.0000 C   0  0  0  0  0  0  0  0  0  0  0  0
    1.0707    1.7449    0.0000 C   0  0  0  0  0  0  0  0  0  0  0  0
    1.7845    0.5235    0.0000 C   0  0  0  0  0  0  0  0  0  0  0  0
    1.5783    0.7138    0.0000 C   0  0  0  0  0  0  0  0  0  0  0  0
    1.1342    1.5070    0.0000 C   0  0  0  0  0  0  0  0  0  0  0  0
   -1.2769    0.3014    0.0000 C   0  0  3  0  0  0  0  0  0  0  0  0
   -1.9590   -0.0951    0.0000 C   0  0  0  0  0  0  0  0  0  0  0  0
   -3.1963   -0.9041    0.0000 C   0  0  0  0  0  0  0  0  0  0  0  0
   -3.7198    1.1420    0.0000 C   0  0  0  0  0  0  0  0  0  0  0  0
   -3.8942   -1.3007    0.0000 C   0  0  0  0  0  0  0  0  0  0  0  0
   -4.6080   -0.0793    0.0000 C   0  0  0  0  0  0  0  0  0  0  0  0
   -4.5922   -0.9041    0.0000 C   0  0  0  0  0  0  0  0  0  0  0  0
   -1.3086    1.2055    0.0000 C   0  0  0  0  0  0  0  0  0  0  0  0
    3.1963    1.7131    0.0000 C   0  0  0  0  0  0  0  0  0  0  0  0
   -4.6239   -2.5380    0.0000 C   0  0  0  0  0  0  0  0  0  0  0  0
    3.8783    2.1414    0.0000 C   0  0  0  0  0  0  0  0  0  0  0  0
    4.6239    2.5380    0.0000 C   0  0  0  0  0  0  0  0  0  0  0  0
 11  1  1  1  0  0  0
  1 24  1  0  0  0  0
  2 20  1  0  0  0  0
  2 25  1  0  0  0  0
  6  3  1  6  0  0  0
  7  3  1  6  0  0  0
  3 10  1  0  0  0  0
  4  5  1  0  0  0  0
  4  8  1  0  0  0  0
  4 17  1  0  0  0  0
  5 19  2  0  0  0  0
  6 13  1  0  0  0  0
  6 14  1  0  0  0  0
  7 12  1  0  0  0  0
  7 15  1  0  0  0  0
  8  9  2  0  0  0  0
  8 18  1  0  0  0  0
  9 19  1  0  0  0  0
  9 21  1  0  0  0  0
 10 16  1  0  0  0  0
 11 12  1  0  0  0  0
 11 13  1  0  0  0  0
 14 15  1  0  0  0  0
 16 17  1  0  0  0  0
 16 23  1  6  0  0  0
 18 20  2  0  0  0  0
 20 22  1  0  0  0  0
 21 22  2  0  0  0  0
 24 26  1  0  0  0  0
 26 27  3  0  0  0  0
M  END
> <PUBCHEM_COMPOUND_ID_TYPE>
0

> <PUBCHEM_TOTAL_CHARGE>
0

> <PUBCHEM_SUBSTANCE_ID>
310944552

> <PUBCHEM_SUBSTANCE_VERSION>
1

> <PUBCHEM_EXT_DATASOURCE_NAME>
4488

> <PUBCHEM_EXT_DATASOURCE_REGID>
SCHEMBL16122629

> <PUBCHEM_SUBSTANCE_COMMENT>
InChI=1S/C22H29N3O2/c1-4-9-27-21-10-18-6-7-19(11-21)24(18)14-16(2)15-25-22-12-20(26-3)8-5-17(22)13-23-25/h1,5,8,12-13,16,18-19,21H,6-7,9-11,14-15H2,2-3H3/t16-,18-,19+,21+/m1/s1
InChIKey=AIMUDCJSVSETEM-RBAQFSTRSA-N

> <PUBCHEM_SUBSTANCE_SYNONYM>
SCHEMBL16122629

> <PUBCHEM_XREF_EXT_ID>
SCHEMBL16122629

> <PUBCHEM_EXT_DATASOURCE_URL>
https://www.surechembl.org/

> <PUBCHEM_EXT_SUBSTANCE_URL>
https://www.surechembl.org/chemical/SCHEMBL16122629

> <PUBCHEM_CID_ASSOCIATIONS>
117610787  1

> <PUBCHEM_COORDINATE_TYPE>
1
3

> <PUBCHEM_BONDANNOTATIONS>
11  1  5
16  23  6
6  3  6
7  3  6

$$$$
