310931424
  -OEChem-07211613022D

 23 23  0     1  0  0  0  0  0999 V2000
   -2.8348   -2.3495    0.0000 O   0  0  0  0  0  0  0  0  0  0  0  0
   -2.8818   -0.6271    0.0000 O   0  0  0  0  0  0  0  0  0  0  0  0
   -0.6914   -2.7620    0.0000 O   0  0  0  0  0  0  0  0  0  0  0  0
   -5.0013   -0.8820    0.0000 O   0  0  0  0  0  0  0  0  0  0  0  0
   -4.4466    0.8250    0.0000 O   0  0  0  0  0  0  0  0  0  0  0  0
   -2.1203   -1.1120    0.0000 O   0  0  0  0  0  0  0  0  0  0  0  0
   -1.4058   -0.6995    0.0000 O   0  0  0  0  0  0  0  0  0  0  0  0
    0.0231   -0.6995    0.0000 O   0  0  0  0  0  0  0  0  0  0  0  0
   -4.9782   -1.9370    0.0000 O   0  0  0  0  0  0  0  0  0  0  0  0
    0.7376   -1.1120    0.0000 O   0  0  0  0  0  0  0  0  0  0  0  0
    1.4521   -2.3495    0.0000 O   0  0  0  0  0  0  0  0  0  0  0  0
   -3.5492   -1.1120    0.0000 C   0  0  3  0  0  0  0  0  0  0  0  0
   -0.6914   -1.9370    0.0000 C   0  0  3  0  0  0  0  0  0  0  0  0
   -3.5492   -1.9370    0.0000 C   0  0  3  0  0  0  0  0  0  0  0  0
   -4.2167   -0.6271    0.0000 C   0  0  3  0  0  0  0  0  0  0  0  0
   -3.9617    0.1576    0.0000 C   0  0  3  0  0  0  0  0  0  0  0  0
   -1.4058   -2.3495    0.0000 C   0  0  0  0  0  0  0  0  0  0  0  0
   -2.1203   -1.9370    0.0000 C   0  0  0  0  0  0  0  0  0  0  0  0
   -0.6914   -1.1120    0.0000 C   0  0  0  0  0  0  0  0  0  0  0  0
   -3.1367    0.1576    0.0000 C   0  0  0  0  0  0  0  0  0  0  0  0
    0.0231   -2.3495    0.0000 C   0  0  0  0  0  0  0  0  0  0  0  0
   -4.2637   -2.3495    0.0000 C   0  0  0  0  0  0  0  0  0  0  0  0
    0.7376   -1.9370    0.0000 C   0  0  0  0  0  0  0  0  0  0  0  0
 14  1  1  6  0  0  0
  1 18  1  0  0  0  0
  2 12  1  0  0  0  0
  2 20  1  0  0  0  0
  3 13  1  0  0  0  0
 15  4  1  6  0  0  0
 16  5  1  1  0  0  0
  6 18  2  0  0  0  0
  7 19  2  0  0  0  0
  8 19  1  0  0  0  0
  9 22  1  0  0  0  0
 10 23  2  0  0  0  0
 11 23  1  0  0  0  0
 12 14  1  6  0  0  0
 12 15  1  0  0  0  0
 13 17  1  0  0  0  0
 13 19  1  0  0  0  0
 13 21  1  0  0  0  0
 14 22  1  0  0  0  0
 15 16  1  0  0  0  0
 16 20  1  0  0  0  0
 17 18  1  0  0  0  0
 21 23  1  0  0  0  0
M  END
> <PUBCHEM_COMPOUND_ID_TYPE>
0

> <PUBCHEM_TOTAL_CHARGE>
0

> <PUBCHEM_SUBSTANCE_ID>
310931424

> <PUBCHEM_SUBSTANCE_VERSION>
1

> <PUBCHEM_EXT_DATASOURCE_NAME>
4488

> <PUBCHEM_EXT_DATASOURCE_REGID>
SCHEMBL16108749

> <PUBCHEM_SUBSTANCE_COMMENT>
InChI=1S/C12H18O11/c13-3-6(10-9(18)5(14)4-22-10)23-8(17)2-12(21,11(19)20)1-7(15)16/h5-6,9-10,13-14,18,21H,1-4H2,(H,15,16)(H,19,20)/t5-,6+,9+,10+,12?/m0/s1
InChIKey=TZAREGIPHRHSDD-ITQLTOJHSA-N

> <PUBCHEM_SUBSTANCE_SYNONYM>
SCHEMBL16108749

> <PUBCHEM_XREF_EXT_ID>
SCHEMBL16108749

> <PUBCHEM_EXT_DATASOURCE_URL>
https://www.surechembl.org/

> <PUBCHEM_EXT_SUBSTANCE_URL>
https://www.surechembl.org/chemical/SCHEMBL16108749

> <PUBCHEM_CID_ASSOCIATIONS>
54341142  1

> <PUBCHEM_COORDINATE_TYPE>
1
3

> <PUBCHEM_BONDANNOTATIONS>
14  1  6
12  14  6
15  4  6
16  5  5

$$$$
