310928953
  -OEChem-07211613022D

 14 15  0     1  0  0  0  0  0999 V2000
    1.9680   -0.7145    0.0000 O   0  0  0  0  0  0  0  0  0  0  0  0
    1.9680    0.7145    0.0000 O   0  0  0  0  0  0  0  0  0  0  0  0
    0.2456    0.6674    0.0000 N   0  0  0  0  0  0  0  0  0  0  0  0
   -0.5391    0.4125    0.0000 C   0  0  3  0  0  0  0  0  0  0  0  0
   -0.5391   -0.4125    0.0000 C   0  0  3  0  0  0  0  0  0  0  0  0
    0.7305   -0.0000    0.0000 C   0  0  3  0  0  0  0  0  0  0  0  0
    0.2456   -0.6674    0.0000 C   0  0  0  0  0  0  0  0  0  0  0  0
   -1.2535    0.8250    0.0000 C   0  0  0  0  0  0  0  0  0  0  0  0
   -1.2535   -0.8250    0.0000 C   0  0  0  0  0  0  0  0  0  0  0  0
    1.5555   -0.0000    0.0000 C   0  0  0  0  0  0  0  0  0  0  0  0
   -1.9680    0.4125    0.0000 C   0  0  0  0  0  0  0  0  0  0  0  0
   -1.9680   -0.4125    0.0000 C   0  0  0  0  0  0  0  0  0  0  0  0
   -0.4528    1.2330    0.0000 H   0  0  0  0  0  0  0  0  0  0  0  0
   -0.4528   -1.2330    0.0000 H   0  0  0  0  0  0  0  0  0  0  0  0
  1 10  2  0  0  0  0
  2 10  1  0  0  0  0
  3  4  1  0  0  0  0
  3  6  1  0  0  0  0
  4  5  1  0  0  0  0
  4  8  1  0  0  0  0
  4 13  1  1  0  0  0
  5  7  1  0  0  0  0
  5  9  1  0  0  0  0
  5 14  1  1  0  0  0
  6  7  1  0  0  0  0
  6 10  1  0  0  0  0
  8 11  1  0  0  0  0
  9 12  1  0  0  0  0
 11 12  1  0  0  0  0
M  END
> <PUBCHEM_COMPOUND_ID_TYPE>
0

> <PUBCHEM_TOTAL_CHARGE>
0

> <PUBCHEM_SUBSTANCE_ID>
310928953

> <PUBCHEM_SUBSTANCE_VERSION>
1

> <PUBCHEM_EXT_DATASOURCE_NAME>
11752

> <PUBCHEM_EXT_DATASOURCE_REGID>
BD318444

> <PUBCHEM_SUBSTANCE_SYNONYM>
(3aS,7aS)-Octahydro-1H-indole-2-carboxylic acid
N/A

> <PUBCHEM_XREF_EXT_ID>
BD318444

> <PUBCHEM_EXT_DATASOURCE_URL>
http://www.bidepharmatech.com/en/index.html

> <PUBCHEM_EXT_SUBSTANCE_URL>
http://www.bidepharmatech.com/en/goodsview_goodscode_BD318444.html

> <PUBCHEM_CID_ASSOCIATIONS>
53735605  1

> <PUBCHEM_COORDINATE_TYPE>
1
3

> <PUBCHEM_BONDANNOTATIONS>
4  13  5
5  14  5

$$$$
