310941655
  -OEChem-07211613022D

 29 32  0     0  0  0  0  0  0999 V2000
    0.7647    2.3800    0.0000 S   0  0  0  0  0  0  0  0  0  0  0  0
   -1.5723   -0.2836    0.0000 O   0  0  0  0  0  0  0  0  0  0  0  0
   -3.0158   -1.1255    0.0000 O   0  0  0  0  0  0  0  0  0  0  0  0
   -0.1461   -0.2836    0.0000 O   0  0  0  0  0  0  0  0  0  0  0  0
    3.6344    1.4005    0.0000 O   0  0  0  0  0  0  0  0  0  0  0  0
   -4.4421   -1.1255    0.0000 O   0  0  0  0  0  0  0  0  0  0  0  0
    0.6272    1.0568    0.0000 N   0  0  0  0  0  0  0  0  0  0  0  0
    2.0020    1.5723    0.0000 N   0  0  0  0  0  0  0  0  0  0  0  0
   -0.8506    0.9709    0.0000 C   0  0  0  0  0  0  0  0  0  0  0  0
   -2.3112    0.1461    0.0000 C   0  0  0  0  0  0  0  0  0  0  0  0
   -2.2941    0.9537    0.0000 C   0  0  0  0  0  0  0  0  0  0  0  0
   -0.1461    1.3833    0.0000 C   0  0  0  0  0  0  0  0  0  0  0  0
   -0.8849    0.1632    0.0000 C   0  0  0  0  0  0  0  0  0  0  0  0
   -1.5723    1.3833    0.0000 C   0  0  0  0  0  0  0  0  0  0  0  0
   -2.9986   -0.2836    0.0000 C   0  0  0  0  0  0  0  0  0  0  0  0
    1.1599    1.6754    0.0000 C   0  0  0  0  0  0  0  0  0  0  0  0
   -0.0430    2.2081    0.0000 C   0  0  0  0  0  0  0  0  0  0  0  0
   -2.9986    1.3490    0.0000 C   0  0  0  0  0  0  0  0  0  0  0  0
   -3.7203    0.1289    0.0000 C   0  0  0  0  0  0  0  0  0  0  0  0
   -3.7032    0.9537    0.0000 C   0  0  0  0  0  0  0  0  0  0  0  0
    2.3112    0.8506    0.0000 C   0  0  0  0  0  0  0  0  0  0  0  0
    3.1361    0.7304    0.0000 C   0  0  0  0  0  0  0  0  0  0  0  0
   -3.7032   -1.5380    0.0000 C   0  0  0  0  0  0  0  0  0  0  0  0
    1.8644    0.1461    0.0000 C   0  0  0  0  0  0  0  0  0  0  0  0
    3.4797   -0.0430    0.0000 C   0  0  0  0  0  0  0  0  0  0  0  0
    2.1910   -0.5928    0.0000 C   0  0  0  0  0  0  0  0  0  0  0  0
    2.9986   -0.6959    0.0000 C   0  0  0  0  0  0  0  0  0  0  0  0
   -3.7032   -2.3800    0.0000 C   0  0  0  0  0  0  0  0  0  0  0  0
    4.4421    1.2974    0.0000 C   0  0  0  0  0  0  0  0  0  0  0  0
  1 16  1  0  0  0  0
  1 17  1  0  0  0  0
  2 10  1  0  0  0  0
  2 13  1  0  0  0  0
  3 15  1  0  0  0  0
  3 23  1  0  0  0  0
  4 13  2  0  0  0  0
  5 22  1  0  0  0  0
  5 29  1  0  0  0  0
  6 23  2  0  0  0  0
  7 12  1  0  0  0  0
  7 16  2  0  0  0  0
  8 16  1  0  0  0  0
  8 21  1  0  0  0  0
  9 12  1  0  0  0  0
  9 13  1  0  0  0  0
  9 14  2  0  0  0  0
 10 11  1  0  0  0  0
 10 15  2  0  0  0  0
 11 14  1  0  0  0  0
 11 18  2  0  0  0  0
 12 17  2  0  0  0  0
 15 19  1  0  0  0  0
 18 20  1  0  0  0  0
 19 20  2  0  0  0  0
 21 22  1  0  0  0  0
 21 24  2  0  0  0  0
 22 25  2  0  0  0  0
 23 28  1  0  0  0  0
 24 26  1  0  0  0  0
 25 27  1  0  0  0  0
 26 27  2  0  0  0  0
M  END
> <PUBCHEM_COMPOUND_ID_TYPE>
0

> <PUBCHEM_TOTAL_CHARGE>
0

> <PUBCHEM_SUBSTANCE_ID>
310941655

> <PUBCHEM_SUBSTANCE_VERSION>
1

> <PUBCHEM_EXT_DATASOURCE_NAME>
4488

> <PUBCHEM_EXT_DATASOURCE_REGID>
SCHEMBL16119686

> <PUBCHEM_SUBSTANCE_COMMENT>
InChI=1S/C21H16N2O5S/c1-12(24)27-18-9-5-6-13-10-14(20(25)28-19(13)18)16-11-29-21(23-16)22-15-7-3-4-8-17(15)26-2/h3-11H,1-2H3,(H,22,23)
InChIKey=JLBYAIOTPZRBAS-UHFFFAOYSA-N

> <PUBCHEM_SUBSTANCE_SYNONYM>
SCHEMBL16119686

> <PUBCHEM_XREF_EXT_ID>
SCHEMBL16119686

> <PUBCHEM_EXT_DATASOURCE_URL>
https://www.surechembl.org/

> <PUBCHEM_EXT_SUBSTANCE_URL>
https://www.surechembl.org/chemical/SCHEMBL16119686

> <PUBCHEM_CID_ASSOCIATIONS>
117608437  1

> <PUBCHEM_COORDINATE_TYPE>
1
3

$$$$
