310948408
  -OEChem-07211613022D

 27 30  0     1  0  0  0  0  0999 V2000
    2.8579   -2.8301    0.0000 Cl  0  0  0  0  0  0  0  0  0  0  0  0
   -2.1365   -2.2937    0.0000 O   0  0  0  0  0  0  0  0  0  0  0  0
    0.3422    3.2001    0.0000 O   0  0  0  0  0  0  0  0  0  0  0  0
   -0.6382    0.0370    0.0000 N   0  0  0  0  0  0  0  0  0  0  0  0
   -0.1387   -0.6289    0.0000 N   0  0  0  0  0  0  0  0  0  0  0  0
   -0.3792   -2.0902    0.0000 N   0  0  0  0  0  0  0  0  0  0  0  0
   -2.8579   -1.0543    0.0000 N   0  0  0  0  0  0  0  0  0  0  0  0
    1.5261   -0.2405    0.0000 N   0  0  0  0  0  0  0  0  0  0  0  0
   -1.4335   -1.0359    0.0000 C   0  0  0  0  0  0  0  0  0  0  0  0
   -1.3966   -0.2035    0.0000 C   0  0  0  0  0  0  0  0  0  0  0  0
   -0.6382   -1.2948    0.0000 C   0  0  0  0  0  0  0  0  0  0  0  0
   -0.3792    0.8509    0.0000 C   0  0  3  0  0  0  0  0  0  0  0  0
   -2.1365   -1.4243    0.0000 C   0  0  0  0  0  0  0  0  0  0  0  0
   -2.1365    0.2035    0.0000 C   0  0  0  0  0  0  0  0  0  0  0  0
    0.4347    1.0174    0.0000 C   0  0  3  0  0  0  0  0  0  0  0  0
   -0.9156    1.4428    0.0000 C   0  0  0  0  0  0  0  0  0  0  0  0
   -2.8393   -0.2035    0.0000 C   0  0  0  0  0  0  0  0  0  0  0  0
    0.4347   -2.2567    0.0000 C   0  0  0  0  0  0  0  0  0  0  0  0
    0.6751    1.7943    0.0000 C   0  0  0  0  0  0  0  0  0  0  0  0
    0.1202    2.4047    0.0000 C   0  0  3  0  0  0  0  0  0  0  0  0
   -0.6566    2.2382    0.0000 C   0  0  0  0  0  0  0  0  0  0  0  0
    0.9896    0.3700    0.0000 C   0  0  0  0  0  0  0  0  0  0  0  0
    0.6936   -3.0336    0.0000 C   0  0  0  0  0  0  0  0  0  0  0  0
    0.9896   -1.6463    0.0000 C   0  0  0  0  0  0  0  0  0  0  0  0
    1.5076   -3.2001    0.0000 C   0  0  0  0  0  0  0  0  0  0  0  0
    1.8035   -1.8127    0.0000 C   0  0  0  0  0  0  0  0  0  0  0  0
    2.0625   -2.5896    0.0000 C   0  0  0  0  0  0  0  0  0  0  0  0
  1 27  1  0  0  0  0
  2 13  2  0  0  0  0
 20  3  1  1  0  0  0
  4  5  1  0  0  0  0
  4 10  1  0  0  0  0
 12  4  1  1  0  0  0
  5 11  2  0  0  0  0
  6 11  1  0  0  0  0
  6 18  1  0  0  0  0
  7 13  1  0  0  0  0
  7 17  1  0  0  0  0
  8 22  3  0  0  0  0
  9 10  2  0  0  0  0
  9 11  1  0  0  0  0
  9 13  1  0  0  0  0
 10 14  1  0  0  0  0
 12 15  1  0  0  0  0
 12 16  1  0  0  0  0
 14 17  2  0  0  0  0
 15 19  1  0  0  0  0
 15 22  1  6  0  0  0
 16 21  1  0  0  0  0
 18 23  2  0  0  0  0
 18 24  1  0  0  0  0
 19 20  1  0  0  0  0
 20 21  1  0  0  0  0
 23 25  1  0  0  0  0
 24 26  2  0  0  0  0
 25 27  2  0  0  0  0
 26 27  1  0  0  0  0
M  END
> <PUBCHEM_COMPOUND_ID_TYPE>
0

> <PUBCHEM_TOTAL_CHARGE>
0

> <PUBCHEM_SUBSTANCE_ID>
310948408

> <PUBCHEM_SUBSTANCE_VERSION>
1

> <PUBCHEM_EXT_DATASOURCE_NAME>
4488

> <PUBCHEM_EXT_DATASOURCE_REGID>
SCHEMBL16126589

> <PUBCHEM_SUBSTANCE_COMMENT>
InChI=1S/C19H18ClN5O2/c20-12-1-3-13(4-2-12)23-18-17-16(7-8-22-19(17)27)25(24-18)15-6-5-14(26)9-11(15)10-21/h1-4,7-8,11,14-15,26H,5-6,9H2,(H,22,27)(H,23,24)/t11-,14-,15+/m1/s1
InChIKey=UXWAYEWHUSKWOI-DFBGVHRSSA-N

> <PUBCHEM_SUBSTANCE_SYNONYM>
SCHEMBL16126589

> <PUBCHEM_XREF_EXT_ID>
SCHEMBL16126589

> <PUBCHEM_EXT_DATASOURCE_URL>
https://www.surechembl.org/

> <PUBCHEM_EXT_SUBSTANCE_URL>
https://www.surechembl.org/chemical/SCHEMBL16126589

> <PUBCHEM_CID_ASSOCIATIONS>
117613969  1

> <PUBCHEM_COORDINATE_TYPE>
1
3

> <PUBCHEM_BONDANNOTATIONS>
15  22  6
20  3  5
12  4  5

$$$$
