310943129
  -OEChem-07211613022D

 34 37  0     0  0  0  0  0  0999 V2000
   -1.6958    2.0393    0.0000 Cl  0  0  0  0  0  0  0  0  0  0  0  0
    4.9997   -0.8260    0.0000 F   0  0  0  0  0  0  0  0  0  0  0  0
   -3.5816   -0.8406    0.0000 O   0  0  0  0  0  0  0  0  0  0  0  0
    0.7017   -0.8406    0.0000 O   0  0  0  0  0  0  0  0  0  0  0  0
   -4.9997    1.6300    0.0000 O   0  0  0  0  0  0  0  0  0  0  0  0
   -3.5816    0.8113    0.0000 N   0  0  0  0  0  0  0  0  0  0  0  0
   -2.1490   -0.8406    0.0000 N   0  0  0  0  0  0  0  0  0  0  0  0
   -0.0146    2.0540    0.0000 N   0  0  0  0  0  0  0  0  0  0  0  0
    1.4181    0.4020    0.0000 N   0  0  0  0  0  0  0  0  0  0  0  0
    3.5670   -1.6593    0.0000 N   0  0  0  0  0  0  0  0  0  0  0  0
   -1.4327    0.4020    0.0000 C   0  0  0  0  0  0  0  0  0  0  0  0
   -0.7309    0.8113    0.0000 C   0  0  0  0  0  0  0  0  0  0  0  0
   -2.8653    0.4020    0.0000 C   0  0  0  0  0  0  0  0  0  0  0  0
   -2.1636    0.8113    0.0000 C   0  0  0  0  0  0  0  0  0  0  0  0
   -2.8799   -0.4167    0.0000 C   0  0  0  0  0  0  0  0  0  0  0  0
   -0.7163    1.6447    0.0000 C   0  0  0  0  0  0  0  0  0  0  0  0
    0.0146    0.4020    0.0000 C   0  0  0  0  0  0  0  0  0  0  0  0
    0.7017    0.8260    0.0000 C   0  0  0  0  0  0  0  0  0  0  0  0
   -1.4472   -0.4313    0.0000 C   0  0  0  0  0  0  0  0  0  0  0  0
    2.1344   -0.8260    0.0000 C   0  0  0  0  0  0  0  0  0  0  0  0
    1.4327   -0.4020    0.0000 C   0  0  0  0  0  0  0  0  0  0  0  0
    0.7163    1.6300    0.0000 C   0  0  0  0  0  0  0  0  0  0  0  0
    3.5670   -0.8260    0.0000 C   0  0  0  0  0  0  0  0  0  0  0  0
    4.2834   -0.4020    0.0000 C   0  0  0  0  0  0  0  0  0  0  0  0
    2.8507   -0.4167    0.0000 C   0  0  0  0  0  0  0  0  0  0  0  0
   -3.5670    1.6300    0.0000 C   0  0  0  0  0  0  0  0  0  0  0  0
   -4.2687    0.4167    0.0000 C   0  0  0  0  0  0  0  0  0  0  0  0
    2.1344   -1.6447    0.0000 C   0  0  0  0  0  0  0  0  0  0  0  0
    2.8507   -2.0540    0.0000 C   0  0  0  0  0  0  0  0  0  0  0  0
   -4.2834    2.0540    0.0000 C   0  0  0  0  0  0  0  0  0  0  0  0
   -4.9997    0.8113    0.0000 C   0  0  0  0  0  0  0  0  0  0  0  0
    3.8594    0.2851    0.0000 C   0  0  0  0  0  0  0  0  0  0  0  0
    4.6780    0.2997    0.0000 C   0  0  0  0  0  0  0  0  0  0  0  0
   -3.5524   -1.6738    0.0000 C   0  0  0  0  0  0  0  0  0  0  0  0
  1 16  1  0  0  0  0
  2 24  1  0  0  0  0
  3 15  1  0  0  0  0
  3 34  1  0  0  0  0
  4 21  2  0  0  0  0
  5 30  1  0  0  0  0
  5 31  1  0  0  0  0
  6 13  1  0  0  0  0
  6 26  1  0  0  0  0
  6 27  1  0  0  0  0
  7 15  2  0  0  0  0
  7 19  1  0  0  0  0
  8 16  1  0  0  0  0
  8 22  2  0  0  0  0
  9 18  1  0  0  0  0
  9 21  1  0  0  0  0
 10 23  1  0  0  0  0
 10 29  2  0  0  0  0
 11 12  1  0  0  0  0
 11 14  1  0  0  0  0
 11 19  2  0  0  0  0
 12 16  2  0  0  0  0
 12 17  1  0  0  0  0
 13 14  2  0  0  0  0
 13 15  1  0  0  0  0
 17 18  2  0  0  0  0
 18 22  1  0  0  0  0
 20 21  1  0  0  0  0
 20 25  1  0  0  0  0
 20 28  2  0  0  0  0
 23 24  1  0  0  0  0
 23 25  2  0  0  0  0
 24 32  1  0  0  0  0
 24 33  1  0  0  0  0
 26 30  1  0  0  0  0
 27 31  1  0  0  0  0
 28 29  1  0  0  0  0
M  END
> <PUBCHEM_COMPOUND_ID_TYPE>
0

> <PUBCHEM_TOTAL_CHARGE>
0

> <PUBCHEM_SUBSTANCE_ID>
310943129

> <PUBCHEM_SUBSTANCE_VERSION>
1

> <PUBCHEM_EXT_DATASOURCE_NAME>
4488

> <PUBCHEM_EXT_DATASOURCE_REGID>
SCHEMBL16121189

> <PUBCHEM_SUBSTANCE_COMMENT>
InChI=1S/C24H25ClFN5O3/c1-24(2,26)20-11-15(4-5-27-20)22(32)30-17-12-18(21(25)28-14-17)16-10-19(23(33-3)29-13-16)31-6-8-34-9-7-31/h4-5,10-14H,6-9H2,1-3H3,(H,30,32)
InChIKey=ZMRHXBKEKVVDSO-UHFFFAOYSA-N

> <PUBCHEM_SUBSTANCE_SYNONYM>
SCHEMBL16121189

> <PUBCHEM_XREF_EXT_ID>
SCHEMBL16121189

> <PUBCHEM_EXT_DATASOURCE_URL>
https://www.surechembl.org/

> <PUBCHEM_EXT_SUBSTANCE_URL>
https://www.surechembl.org/chemical/SCHEMBL16121189

> <PUBCHEM_CID_ASSOCIATIONS>
117609559  1

> <PUBCHEM_COORDINATE_TYPE>
1
3

$$$$
