310938399
  -OEChem-07211613022D

 26 28  0     0  0  0  0  0  0999 V2000
    0.6930    0.0000    0.0000 S   0  0  0  0  0  0  0  0  0  0  0  0
    1.3860   -2.8710    0.0000 O   0  0  0  0  0  0  0  0  0  0  0  0
    4.2240   -2.9370    0.0000 O   0  0  0  0  0  0  0  0  0  0  0  0
    1.4190   -1.2540    0.0000 N   0  0  0  0  0  0  0  0  0  0  0  0
    2.0790    0.0000    0.0000 N   0  0  0  0  0  0  0  0  0  0  0  0
    2.7721   -2.9040    0.0000 N   0  0  0  0  0  0  0  0  0  0  0  0
    4.8840   -4.1911    0.0000 N   0  0  0  0  0  0  0  0  0  0  0  0
    2.8050   -1.2540    0.0000 C   0  0  0  0  0  0  0  0  0  0  0  0
    2.0790   -1.6500    0.0000 C   0  0  0  0  0  0  0  0  0  0  0  0
    2.8050   -0.3960    0.0000 C   0  0  0  0  0  0  0  0  0  0  0  0
    2.0790   -2.4750    0.0000 C   0  0  0  0  0  0  0  0  0  0  0  0
    1.4190   -0.3960    0.0000 C   0  0  0  0  0  0  0  0  0  0  0  0
    3.5970   -1.4850    0.0000 C   0  0  0  0  0  0  0  0  0  0  0  0
    3.4651   -4.1251    0.0000 C   0  0  0  0  0  0  0  0  0  0  0  0
    3.5970   -0.1650    0.0000 C   0  0  0  0  0  0  0  0  0  0  0  0
    3.4651   -4.9500    0.0000 C   0  0  0  0  0  0  0  0  0  0  0  0
    4.0920   -0.8250    0.0000 C   0  0  0  0  0  0  0  0  0  0  0  0
    4.1911   -3.7620    0.0000 C   0  0  0  0  0  0  0  0  0  0  0  0
    2.7721   -3.6960    0.0000 C   0  0  0  0  0  0  0  0  0  0  0  0
    4.1580   -5.3791    0.0000 C   0  0  0  0  0  0  0  0  0  0  0  0
    4.8840   -5.0161    0.0000 C   0  0  0  0  0  0  0  0  0  0  0  0
    2.7390   -5.3791    0.0000 C   0  0  0  0  0  0  0  0  0  0  0  0
    5.5771   -5.4451    0.0000 C   0  0  0  0  0  0  0  0  0  0  0  0
    0.0000   -0.3960    0.0000 C   0  0  0  0  0  0  0  0  0  0  0  0
    2.7390   -6.1711    0.0000 C   0  0  0  0  0  0  0  0  0  0  0  0
    3.4651   -6.6001    0.0000 C   0  0  0  0  0  0  0  0  0  0  0  0
  1 12  1  0  0  0  0
  1 24  1  0  0  0  0
  2 11  2  0  0  0  0
  3 18  2  0  0  0  0
  4  9  1  0  0  0  0
  4 12  2  0  0  0  0
  5 10  2  0  0  0  0
  5 12  1  0  0  0  0
  6 11  1  0  0  0  0
  6 19  1  0  0  0  0
  7 18  1  0  0  0  0
  7 21  1  0  0  0  0
  8  9  2  0  0  0  0
  8 10  1  0  0  0  0
  8 13  1  0  0  0  0
  9 11  1  0  0  0  0
 10 15  1  0  0  0  0
 13 17  1  0  0  0  0
 14 16  2  0  0  0  0
 14 18  1  0  0  0  0
 14 19  1  0  0  0  0
 15 17  1  0  0  0  0
 16 20  1  0  0  0  0
 16 22  1  0  0  0  0
 20 21  2  0  0  0  0
 21 23  1  0  0  0  0
 22 25  1  0  0  0  0
 25 26  1  0  0  0  0
M  END
> <PUBCHEM_COMPOUND_ID_TYPE>
0

> <PUBCHEM_TOTAL_CHARGE>
0

> <PUBCHEM_SUBSTANCE_ID>
310938399

> <PUBCHEM_SUBSTANCE_VERSION>
1

> <PUBCHEM_EXT_DATASOURCE_NAME>
4488

> <PUBCHEM_EXT_DATASOURCE_REGID>
SCHEMBL16116291

> <PUBCHEM_SUBSTANCE_COMMENT>
InChI=1S/C19H24N4O2S/c1-4-6-12-9-11(2)21-17(24)14(12)10-20-18(25)16-13-7-5-8-15(13)22-19(23-16)26-3/h9H,4-8,10H2,1-3H3,(H,20,25)(H,21,24)
InChIKey=WMNZLFMPFKSLFJ-UHFFFAOYSA-N

> <PUBCHEM_SUBSTANCE_SYNONYM>
SCHEMBL16116291

> <PUBCHEM_XREF_EXT_ID>
SCHEMBL16116291

> <PUBCHEM_EXT_DATASOURCE_URL>
https://www.surechembl.org/

> <PUBCHEM_EXT_SUBSTANCE_URL>
https://www.surechembl.org/chemical/SCHEMBL16116291

> <PUBCHEM_CID_ASSOCIATIONS>
117605876  1

> <PUBCHEM_COORDINATE_TYPE>
1
3

$$$$
