310942372
  -OEChem-07211613022D

 33 35  0     1  0  0  0  0  0999 V2000
   -2.7742   -0.1877    0.0000 P   0  0  3  0  0  0  0  0  0  0  0  0
    0.0293   -0.4223    0.0000 O   0  0  0  0  0  0  0  0  0  0  0  0
    0.6627   -2.4867    0.0000 O   0  0  0  0  0  0  0  0  0  0  0  0
   -0.6159   -2.4867    0.0000 O   0  0  0  0  0  0  0  0  0  0  0  0
   -1.9178   -0.1877    0.0000 O   0  0  0  0  0  0  0  0  0  0  0  0
   -2.7624    0.6452    0.0000 O   0  0  0  0  0  0  0  0  0  0  0  0
    0.9912    0.1760    0.0000 N   0  0  0  0  0  0  0  0  0  0  0  0
    0.9912    1.5014    0.0000 N   0  0  0  0  0  0  0  0  0  0  0  0
    2.5279    0.0117    0.0000 N   0  0  0  0  0  0  0  0  0  0  0  0
   -0.6393    0.8445    0.0000 N   0  0  0  0  0  0  0  0  0  0  0  0
    3.2551    1.2551    0.0000 N   0  0  0  0  0  0  0  0  0  0  0  0
    2.5279    2.4867    0.0000 N   0  0  0  0  0  0  0  0  0  0  0  0
   -1.0381    1.5014    0.0000 N   0  3  0  0  0  0  0  0  0  0  0  0
   -1.4252    2.1935    0.0000 N   0  5  0  0  0  0  0  0  0  0  0  0
    0.6627   -0.8563    0.0000 C   0  0  3  0  0  0  0  0  0  0  0  0
    1.7771    0.4574    0.0000 C   0  0  0  0  0  0  0  0  0  0  0  0
    1.8005    1.2786    0.0000 C   0  0  0  0  0  0  0  0  0  0  0  0
    0.4986    0.8680    0.0000 C   0  0  0  0  0  0  0  0  0  0  0  0
    0.4281   -1.6657    0.0000 C   0  0  3  0  0  0  0  0  0  0  0  0
   -0.6393   -0.8797    0.0000 C   0  0  3  0  0  0  0  0  0  0  0  0
   -0.4047   -1.6774    0.0000 C   0  0  3  0  0  0  0  0  0  0  0  0
    2.5161    1.6892    0.0000 C   0  0  0  0  0  0  0  0  0  0  0  0
   -1.0733   -0.1760    0.0000 C   0  0  0  0  0  0  0  0  0  0  0  0
   -1.4721   -0.1642    0.0000 C   0  0  3  0  0  0  0  0  0  0  0  0
    3.2551    0.4457    0.0000 C   0  0  0  0  0  0  0  0  0  0  0  0
   -1.5191   -0.6804    0.0000 C   0  0  0  0  0  0  0  0  0  0  0  0
   -1.8005    1.1026    0.0000 C   0  0  0  0  0  0  0  0  0  0  0  0
   -3.2551   -0.1642    0.0000 C   0  0  0  0  0  0  0  0  0  0  0  0
   -1.7888   -1.4311    0.0000 C   0  0  0  0  0  0  0  0  0  0  0  0
   -3.1143    0.6921    0.0000 C   0  0  0  0  0  0  0  0  0  0  0  0
   -3.2082   -0.6686    0.0000 C   0  0  0  0  0  0  0  0  0  0  0  0
   -2.9150    1.1026    0.0000 C   0  0  0  0  0  0  0  0  0  0  0  0
   -2.8915   -1.4194    0.0000 C   0  0  0  0  0  0  0  0  0  0  0  0
  1  5  1  0  0  0  0
  1  6  2  0  0  0  0
  1 28  1  0  0  0  0
  2 15  1  0  0  0  0
  2 20  1  0  0  0  0
 19  3  1  6  0  0  0
 21  4  1  6  0  0  0
 24  5  1  6  0  0  0
  7 15  1  0  0  0  0
  7 16  1  0  0  0  0
  7 18  1  0  0  0  0
  8 17  1  0  0  0  0
  8 18  2  0  0  0  0
  9 16  1  0  0  0  0
  9 25  2  0  0  0  0
 10 13  2  0  0  0  0
 10 18  1  0  0  0  0
 11 22  2  0  0  0  0
 11 25  1  0  0  0  0
 12 22  1  0  0  0  0
 13 14  2  0  0  0  0
 15 19  1  0  0  0  0
 16 17  2  0  0  0  0
 17 22  1  0  0  0  0
 19 21  1  0  0  0  0
 20 21  1  0  0  0  0
 20 23  1  1  0  0  0
 23 24  1  0  0  0  0
 24 26  1  0  0  0  0
 24 27  1  1  0  0  0
 26 29  1  0  0  0  0
 28 30  1  0  0  0  0
 28 31  1  0  0  0  0
 30 32  1  0  0  0  0
 31 33  1  0  0  0  0
M  CHG  2  13   1  14  -1
M  END
> <PUBCHEM_COMPOUND_ID_TYPE>
0

> <PUBCHEM_TOTAL_CHARGE>
0

> <PUBCHEM_SUBSTANCE_ID>
310942372

> <PUBCHEM_SUBSTANCE_VERSION>
1

> <PUBCHEM_EXT_DATASOURCE_NAME>
4488

> <PUBCHEM_EXT_DATASOURCE_REGID>
SCHEMBL16120408

> <PUBCHEM_SUBSTANCE_COMMENT>
InChI=1S/C19H31N8O5P/c1-5-10(6-2)33(30)32-19(4,7-3)8-11-13(28)14(29)17(31-11)27-16-12(15(20)22-9-23-16)24-18(27)25-26-21/h9-11,13-14,17,28-29,33H,5-8H2,1-4H3,(H2,20,22,23)/t11-,13-,14-,17?,19+/m1/s1
InChIKey=CTWDBPFVDOCJSK-WZJDAWINSA-N

> <PUBCHEM_SUBSTANCE_SYNONYM>
SCHEMBL16120408

> <PUBCHEM_XREF_EXT_ID>
SCHEMBL16120408

> <PUBCHEM_EXT_DATASOURCE_URL>
https://www.surechembl.org/

> <PUBCHEM_EXT_SUBSTANCE_URL>
https://www.surechembl.org/chemical/SCHEMBL16120408

> <PUBCHEM_CID_ASSOCIATIONS>
117608988  1

> <PUBCHEM_COORDINATE_TYPE>
1
3

> <PUBCHEM_BONDANNOTATIONS>
20  23  5
24  27  5
19  3  6
21  4  6
24  5  6

$$$$
