310932316
  -OEChem-07211613022D

 54 61  0     1  0  0  0  0  0999 V2000
    1.5486    0.0000    0.0000 F   0  0  0  0  0  0  0  0  0  0  0  0
    0.7554   -0.1888    0.0000 F   0  0  0  0  0  0  0  0  0  0  0  0
    0.5666   -3.0973    0.0000 F   0  0  0  0  0  0  0  0  0  0  0  0
    0.0000   -2.4930    0.0000 F   0  0  0  0  0  0  0  0  0  0  0  0
    3.9660   -0.8310    0.0000 F   0  0  0  0  0  0  0  0  0  0  0  0
    2.8329    0.0000    0.0000 F   0  0  0  0  0  0  0  0  0  0  0  0
    6.5346   -1.0198    0.0000 F   0  0  0  0  0  0  0  0  0  0  0  0
    3.7016   -1.0198    0.0000 F   0  0  0  0  0  0  0  0  0  0  0  0
    2.9840   -4.6837    0.0000 O   0  0  0  0  0  0  0  0  0  0  0  0
    2.2663   -2.6440    0.0000 N   0  0  0  0  0  0  0  0  0  0  0  0
    2.9462   -2.1908    0.0000 N   0  0  0  0  0  0  0  0  0  0  0  0
    3.7016   -3.4751    0.0000 N   0  0  0  0  0  0  0  0  0  0  0  0
    5.0992   -5.0992    0.0000 N   0  0  0  0  0  0  0  0  0  0  0  0
    2.4174   -3.6261    0.0000 N   0  0  0  0  0  0  0  0  0  0  0  0
    6.5346   -7.5544    0.0000 N   0  0  0  0  0  0  0  0  0  0  0  0
    0.7932   -3.6639    0.0000 N   0  0  0  0  0  0  0  0  0  0  0  0
    8.0455   -7.3655    0.0000 N   0  0  0  0  0  0  0  0  0  0  0  0
    1.8886   -1.3976    0.0000 C   0  0  0  0  0  0  0  0  0  0  0  0
    1.6242   -2.1908    0.0000 C   0  0  0  0  0  0  0  0  0  0  0  0
    1.3220   -0.7932    0.0000 C   0  0  0  0  0  0  0  0  0  0  0  0
    0.7932   -2.3419    0.0000 C   0  0  0  0  0  0  0  0  0  0  0  0
    2.6818   -1.3976    0.0000 C   0  0  0  0  0  0  0  0  0  0  0  0
    0.5288   -0.9443    0.0000 C   0  0  0  0  0  0  0  0  0  0  0  0
    0.2644   -1.7753    0.0000 C   0  0  0  0  0  0  0  0  0  0  0  0
    3.1728   -0.7554    0.0000 C   0  0  0  0  0  0  0  0  0  0  0  0
    2.2663   -3.4751    0.0000 C   0  0  0  0  0  0  0  0  0  0  0  0
    2.9840   -3.8905    0.0000 C   0  0  0  0  0  0  0  0  0  0  0  0
    4.4193   -4.6837    0.0000 C   0  0  0  0  0  0  0  0  0  0  0  0
    4.4193   -3.8905    0.0000 C   0  0  3  0  0  0  0  0  0  0  0  0
    3.7016   -5.0992    0.0000 C   0  0  0  0  0  0  0  0  0  0  0  0
    3.1351   -4.8726    0.0000 C   0  0  0  0  0  0  0  0  0  0  0  0
    5.1370   -5.9302    0.0000 C   0  0  0  0  0  0  0  0  0  0  0  0
    3.7016   -5.9302    0.0000 C   0  0  0  0  0  0  0  0  0  0  0  0
    5.8546   -6.3079    0.0000 C   0  0  0  0  0  0  0  0  0  0  0  0
    5.0992   -3.4751    0.0000 C   0  0  0  0  0  0  0  0  0  0  0  0
    4.4193   -6.3079    0.0000 C   0  0  0  0  0  0  0  0  0  0  0  0
    2.3041   -5.0992    0.0000 C   0  0  0  0  0  0  0  0  0  0  0  0
    1.5865   -4.7215    0.0000 C   0  0  0  0  0  0  0  0  0  0  0  0
    3.1351   -4.0039    0.0000 C   0  0  0  0  0  0  0  0  0  0  0  0
    1.5486   -3.8528    0.0000 C   0  0  0  0  0  0  0  0  0  0  0  0
    5.0992   -2.6440    0.0000 C   0  0  0  0  0  0  0  0  0  0  0  0
    7.2523   -6.3079    0.0000 C   0  0  0  0  0  0  0  0  0  0  0  0
    6.5346   -5.8925    0.0000 C   0  0  0  0  0  0  0  0  0  0  0  0
    7.2523   -7.1389    0.0000 C   0  0  0  0  0  0  0  0  0  0  0  0
    5.8546   -7.1767    0.0000 C   0  0  0  0  0  0  0  0  0  0  0  0
    0.7932   -4.9481    0.0000 C   0  0  0  0  0  0  0  0  0  0  0  0
    4.4193   -2.2286    0.0000 C   0  0  0  0  0  0  0  0  0  0  0  0
    5.8169   -2.2286    0.0000 C   0  0  0  0  0  0  0  0  0  0  0  0
    8.0077   -6.0435    0.0000 C   0  0  0  0  0  0  0  0  0  0  0  0
    0.3022   -4.3060    0.0000 C   0  0  0  0  0  0  0  0  0  0  0  0
    8.4987   -6.6857    0.0000 C   0  0  0  0  0  0  0  0  0  0  0  0
    5.8169   -1.4353    0.0000 C   0  0  0  0  0  0  0  0  0  0  0  0
    4.3816   -1.3976    0.0000 C   0  0  0  0  0  0  0  0  0  0  0  0
    5.0992   -0.9821    0.0000 C   0  0  0  0  0  0  0  0  0  0  0  0
  1 20  1  0  0  0  0
  2 20  1  0  0  0  0
  3 21  1  0  0  0  0
  4 21  1  0  0  0  0
  5 25  1  0  0  0  0
  6 25  1  0  0  0  0
  7 52  1  0  0  0  0
  8 53  1  0  0  0  0
  9 27  2  0  0  0  0
 10 11  1  0  0  0  0
 10 19  1  0  0  0  0
 10 26  1  0  0  0  0
 11 22  2  0  0  0  0
 12 27  1  0  0  0  0
 29 12  1  1  0  0  0
 13 28  1  0  0  0  0
 13 32  2  0  0  0  0
 14 39  2  0  0  0  0
 14 40  1  0  0  0  0
 15 44  1  0  0  0  0
 15 45  2  0  0  0  0
 16 40  1  0  0  0  0
 16 50  1  0  0  0  0
 17 44  1  0  0  0  0
 17 51  1  0  0  0  0
 18 19  2  0  0  0  0
 18 20  1  0  0  0  0
 18 22  1  0  0  0  0
 19 21  1  0  0  0  0
 20 23  1  0  0  0  0
 21 24  1  0  0  0  0
 22 25  1  0  0  0  0
 23 24  1  0  0  0  0
 26 27  1  0  0  0  0
 28 29  1  0  0  0  0
 28 30  2  0  0  0  0
 29 35  1  0  0  0  0
 30 31  1  0  0  0  0
 30 33  1  0  0  0  0
 31 37  2  0  0  0  0
 31 39  1  0  0  0  0
 32 34  1  0  0  0  0
 32 36  1  0  0  0  0
 33 36  2  0  0  0  0
 34 43  2  0  0  0  0
 34 45  1  0  0  0  0
 35 41  1  0  0  0  0
 37 38  1  0  0  0  0
 38 40  2  0  0  0  0
 38 46  1  0  0  0  0
 41 47  2  0  0  0  0
 41 48  1  0  0  0  0
 42 43  1  0  0  0  0
 42 44  2  0  0  0  0
 42 49  1  0  0  0  0
 46 50  2  0  0  0  0
 47 53  1  0  0  0  0
 48 52  2  0  0  0  0
 49 51  2  0  0  0  0
 52 54  1  0  0  0  0
 53 54  2  0  0  0  0
M  END
> <PUBCHEM_COMPOUND_ID_TYPE>
0

> <PUBCHEM_TOTAL_CHARGE>
0

> <PUBCHEM_SUBSTANCE_ID>
310932316

> <PUBCHEM_SUBSTANCE_VERSION>
1

> <PUBCHEM_EXT_DATASOURCE_NAME>
4488

> <PUBCHEM_EXT_DATASOURCE_REGID>
SCHEMBL16109682

> <PUBCHEM_SUBSTANCE_COMMENT>
InChI=1S/C37H26F8N8O/c38-23-9-18(10-24(39)14-23)11-27(50-28(54)17-53-32-29(31(52-53)33(40)41)36(42,43)5-6-37(32,44)45)30-25(21-12-19-3-7-46-34(19)48-15-21)1-2-26(51-30)22-13-20-4-8-47-35(20)49-16-22/h1-4,7-10,12-16,27,33H,5-6,11,17H2,(H,46,48)(H,47,49)(H,50,54)/t27-/m0/s1
InChIKey=DKQZHDCXOGYPOP-MHZLTWQESA-N

> <PUBCHEM_SUBSTANCE_SYNONYM>
SCHEMBL16109682

> <PUBCHEM_XREF_EXT_ID>
SCHEMBL16109682

> <PUBCHEM_EXT_DATASOURCE_URL>
https://www.surechembl.org/

> <PUBCHEM_EXT_SUBSTANCE_URL>
https://www.surechembl.org/chemical/SCHEMBL16109682

> <PUBCHEM_CID_ASSOCIATIONS>
117600874  1

> <PUBCHEM_COORDINATE_TYPE>
1
3

> <PUBCHEM_BONDANNOTATIONS>
29  12  5

$$$$
