310946390
  -OEChem-07211613022D

 27 28  0     0  0  0  0  0  0999 V2000
   -2.3987   -5.2286    0.0000 I   0  0  0  0  0  0  0  0  0  0  0  0
   -0.9697   -2.7536    0.0000 I   0  0  0  0  0  0  0  0  0  0  0  0
   -2.3987   -3.5785    0.0000 O   0  0  0  0  0  0  0  0  0  0  0  0
    3.5517   -5.2286    0.0000 O   0  0  0  0  0  0  0  0  0  0  0  0
   -5.2565   -5.2286    0.0000 O   0  0  0  0  0  0  0  0  0  0  0  0
    2.7200   -3.7879    0.0000 O   0  0  0  0  0  0  0  0  0  0  0  0
    1.8882   -5.2286    0.0000 N   0  0  0  0  0  0  0  0  0  0  0  0
   -1.6842   -3.9912    0.0000 C   0  0  0  0  0  0  0  0  0  0  0  0
   -1.6842   -4.8161    0.0000 C   0  0  0  0  0  0  0  0  0  0  0  0
   -0.9697   -3.5785    0.0000 C   0  0  0  0  0  0  0  0  0  0  0  0
   -0.2552   -4.8161    0.0000 C   0  0  0  0  0  0  0  0  0  0  0  0
   -0.9697   -5.2286    0.0000 C   0  0  0  0  0  0  0  0  0  0  0  0
   -0.2552   -3.9912    0.0000 C   0  0  0  0  0  0  0  0  0  0  0  0
   -3.1131   -3.9912    0.0000 C   0  0  0  0  0  0  0  0  0  0  0  0
    0.4592   -5.2286    0.0000 C   0  0  0  0  0  0  0  0  0  0  0  0
   -3.8276   -3.5785    0.0000 C   0  0  0  0  0  0  0  0  0  0  0  0
   -3.1131   -4.8161    0.0000 C   0  0  0  0  0  0  0  0  0  0  0  0
   -4.5421   -4.8161    0.0000 C   0  0  0  0  0  0  0  0  0  0  0  0
   -4.5421   -3.9912    0.0000 C   0  0  0  0  0  0  0  0  0  0  0  0
   -3.8276   -5.2286    0.0000 C   0  0  0  0  0  0  0  0  0  0  0  0
    1.1737   -4.8161    0.0000 C   0  0  0  0  0  0  0  0  0  0  0  0
    2.7200   -4.7484    0.0000 C   0  0  0  0  0  0  0  0  0  0  0  0
    4.3836   -4.7484    0.0000 C   0  0  0  0  0  0  0  0  0  0  0  0
    5.2153   -5.2286    0.0000 C   0  0  0  0  0  0  0  0  0  0  0  0
    5.2153   -4.2682    0.0000 C   0  0  0  0  0  0  0  0  0  0  0  0
    4.3836   -3.7879    0.0000 C   0  0  0  0  0  0  0  0  0  0  0  0
   -5.9711   -4.8161    0.0000 C   0  0  0  0  0  0  0  0  0  0  0  0
  1  9  1  0  0  0  0
  2 10  1  0  0  0  0
  3  8  1  0  0  0  0
  3 14  1  0  0  0  0
  4 22  1  0  0  0  0
  4 23  1  0  0  0  0
  5 18  1  0  0  0  0
  5 27  1  0  0  0  0
  6 22  2  0  0  0  0
  7 21  1  0  0  0  0
  7 22  1  0  0  0  0
  8  9  2  0  0  0  0
  8 10  1  0  0  0  0
  9 12  1  0  0  0  0
 10 13  2  0  0  0  0
 11 12  2  0  0  0  0
 11 13  1  0  0  0  0
 11 15  1  0  0  0  0
 14 16  2  0  0  0  0
 14 17  1  0  0  0  0
 15 21  1  0  0  0  0
 16 19  1  0  0  0  0
 17 20  2  0  0  0  0
 18 19  2  0  0  0  0
 18 20  1  0  0  0  0
 23 24  1  0  0  0  0
 23 25  1  0  0  0  0
 23 26  1  0  0  0  0
M  END
> <PUBCHEM_COMPOUND_ID_TYPE>
0

> <PUBCHEM_TOTAL_CHARGE>
0

> <PUBCHEM_SUBSTANCE_ID>
310946390

> <PUBCHEM_SUBSTANCE_VERSION>
1

> <PUBCHEM_EXT_DATASOURCE_NAME>
4488

> <PUBCHEM_EXT_DATASOURCE_REGID>
SCHEMBL16124511

> <PUBCHEM_SUBSTANCE_COMMENT>
InChI=1S/C20H23I2NO4/c1-20(2,3)27-19(24)23-10-9-13-11-16(21)18(17(22)12-13)26-15-7-5-14(25-4)6-8-15/h5-8,11-12H,9-10H2,1-4H3,(H,23,24)
InChIKey=PFASANWMBNTJSL-UHFFFAOYSA-N

> <PUBCHEM_SUBSTANCE_SYNONYM>
SCHEMBL16124511

> <PUBCHEM_XREF_EXT_ID>
SCHEMBL16124511

> <PUBCHEM_EXT_DATASOURCE_URL>
https://www.surechembl.org/

> <PUBCHEM_EXT_SUBSTANCE_URL>
https://www.surechembl.org/chemical/SCHEMBL16124511

> <PUBCHEM_CID_ASSOCIATIONS>
117612311  1

> <PUBCHEM_COORDINATE_TYPE>
1
3

$$$$
