310932247
  -OEChem-07211613022D

 30 33  0     1  0  0  0  0  0999 V2000
    3.2610   -5.6502    0.0000 S   0  0  0  0  0  0  0  0  0  0  0  0
    0.0000   -4.2941    0.0000 F   0  0  0  0  0  0  0  0  0  0  0  0
    4.4878   -6.3604    0.0000 F   0  0  0  0  0  0  0  0  0  0  0  0
    4.4878   -4.9398    0.0000 F   0  0  0  0  0  0  0  0  0  0  0  0
    4.9076   -5.6502    0.0000 F   0  0  0  0  0  0  0  0  0  0  0  0
    0.8072   -2.8412    0.0000 O   0  0  0  0  0  0  0  0  0  0  0  0
    2.4538   -5.6502    0.0000 O   0  0  0  0  0  0  0  0  0  0  0  0
    4.1327   -2.8090    0.0000 O   0  0  0  0  0  0  0  0  0  0  0  0
    3.2610   -4.7461    0.0000 O   0  0  0  0  0  0  0  0  0  0  0  0
    3.2610   -6.4573    0.0000 O   0  0  0  0  0  0  0  0  0  0  0  0
    2.9058   -3.5192    0.0000 N   0  0  0  0  0  0  0  0  0  0  0  0
    4.1004   -4.2296    0.0000 N   0  0  0  0  0  0  0  0  0  0  0  0
    2.4215    0.0000    0.0000 N   0  0  0  0  0  0  0  0  0  0  0  0
    2.4538   -2.8412    0.0000 C   0  0  3  0  0  0  0  0  0  0  0  0
    2.0341   -3.5515    0.0000 C   0  0  0  0  0  0  0  0  0  0  0  0
    2.0341   -2.0986    0.0000 C   0  0  0  0  0  0  0  0  0  0  0  0
    1.2269   -3.5515    0.0000 C   0  0  0  0  0  0  0  0  0  0  0  0
    1.2269   -2.1309    0.0000 C   0  0  0  0  0  0  0  0  0  0  0  0
    2.4538   -4.2618    0.0000 C   0  0  0  0  0  0  0  0  0  0  0  0
    2.8735   -2.1309    0.0000 C   0  0  0  0  0  0  0  0  0  0  0  0
    0.8072   -4.2941    0.0000 C   0  0  0  0  0  0  0  0  0  0  0  0
    2.0663   -4.9398    0.0000 C   0  0  0  0  0  0  0  0  0  0  0  0
    2.4538   -1.3883    0.0000 C   0  0  0  0  0  0  0  0  0  0  0  0
    1.2269   -4.9398    0.0000 C   0  0  0  0  0  0  0  0  0  0  0  0
    3.6807   -3.5192    0.0000 C   0  0  0  0  0  0  0  0  0  0  0  0
    0.7749   -1.3883    0.0000 C   0  0  0  0  0  0  0  0  0  0  0  0
    4.0681   -5.6502    0.0000 C   0  0  0  0  0  0  0  0  0  0  0  0
    2.0341   -0.7103    0.0000 C   0  0  0  0  0  0  0  0  0  0  0  0
    3.6807   -2.0986    0.0000 C   0  0  0  0  0  0  0  0  0  0  0  0
    1.1946   -0.7103    0.0000 C   0  0  0  0  0  0  0  0  0  0  0  0
  1  7  1  0  0  0  0
  1  9  2  0  0  0  0
  1 10  2  0  0  0  0
  1 27  1  0  0  0  0
  2 21  1  0  0  0  0
  3 27  1  0  0  0  0
  4 27  1  0  0  0  0
  5 27  1  0  0  0  0
  6 17  1  0  0  0  0
  6 18  1  0  0  0  0
  7 22  1  0  0  0  0
  8 25  1  0  0  0  0
  8 29  1  0  0  0  0
 14 11  1  6  0  0  0
 11 25  2  0  0  0  0
 12 25  1  0  0  0  0
 13 28  1  0  0  0  0
 14 15  1  0  0  0  0
 14 16  1  0  0  0  0
 14 20  1  0  0  0  0
 15 17  2  0  0  0  0
 15 19  1  0  0  0  0
 16 18  2  0  0  0  0
 16 23  1  0  0  0  0
 17 21  1  0  0  0  0
 18 26  1  0  0  0  0
 19 22  2  0  0  0  0
 20 29  1  0  0  0  0
 21 24  2  0  0  0  0
 22 24  1  0  0  0  0
 23 28  2  0  0  0  0
 26 30  2  0  0  0  0
 28 30  1  0  0  0  0
M  END
> <PUBCHEM_COMPOUND_ID_TYPE>
0

> <PUBCHEM_TOTAL_CHARGE>
0

> <PUBCHEM_SUBSTANCE_ID>
310932247

> <PUBCHEM_SUBSTANCE_VERSION>
1

> <PUBCHEM_EXT_DATASOURCE_NAME>
4488

> <PUBCHEM_EXT_DATASOURCE_REGID>
SCHEMBL16109605

> <PUBCHEM_SUBSTANCE_COMMENT>
InChI=1S/C17H13F4N3O5S/c18-12-7-9(29-30(25,26)17(19,20)21)6-11-14(12)28-13-2-1-8(22)5-10(13)16(11)3-4-27-15(23)24-16/h1-2,5-7H,3-4,22H2,(H2,23,24)/t16-/m0/s1
InChIKey=NARCRHHEISQURU-INIZCTEOSA-N

> <PUBCHEM_SUBSTANCE_SYNONYM>
SCHEMBL16109605

> <PUBCHEM_XREF_EXT_ID>
SCHEMBL16109605

> <PUBCHEM_EXT_DATASOURCE_URL>
https://www.surechembl.org/

> <PUBCHEM_EXT_SUBSTANCE_URL>
https://www.surechembl.org/chemical/SCHEMBL16109605

> <PUBCHEM_CID_ASSOCIATIONS>
117600820  1

> <PUBCHEM_COORDINATE_TYPE>
1
3

> <PUBCHEM_BONDANNOTATIONS>
14  11  6

$$$$
