310941457
  -OEChem-07211613022D

 24 27  0     1  0  0  0  0  0999 V2000
    2.1188    0.4889    0.0000 O   0  0  0  0  0  0  0  0  0  0  0  0
    1.1283   -1.8680    0.0000 N   0  0  0  0  0  0  0  0  0  0  0  0
   -1.1158   -1.8680    0.0000 N   0  0  0  0  0  0  0  0  0  0  0  0
    0.0000    0.0752    0.0000 N   0  0  0  0  0  0  0  0  0  0  0  0
   -0.4138   -1.4543    0.0000 C   0  0  0  0  0  0  0  0  0  0  0  0
    0.4012   -1.4543    0.0000 C   0  0  0  0  0  0  0  0  0  0  0  0
   -0.0126   -0.8024    0.0000 C   0  0  0  0  0  0  0  0  0  0  0  0
    1.1158   -2.6954    0.0000 C   0  0  0  0  0  0  0  0  0  0  0  0
    1.9182   -1.6173    0.0000 C   0  0  0  0  0  0  0  0  0  0  0  0
   -1.9182   -1.6173    0.0000 C   0  0  0  0  0  0  0  0  0  0  0  0
   -1.1283   -2.7080    0.0000 C   0  0  0  0  0  0  0  0  0  0  0  0
    0.7021    0.4764    0.0000 C   0  0  3  0  0  0  0  0  0  0  0  0
    1.9182   -2.9588    0.0000 C   0  0  0  0  0  0  0  0  0  0  0  0
    2.4071   -2.2818    0.0000 C   0  0  0  0  0  0  0  0  0  0  0  0
   -2.4071   -2.2942    0.0000 C   0  0  0  0  0  0  0  0  0  0  0  0
   -1.9182   -2.9588    0.0000 C   0  0  0  0  0  0  0  0  0  0  0  0
    0.7021    1.3164    0.0000 C   0  0  0  0  0  0  0  0  0  0  0  0
    1.4292    0.0752    0.0000 C   0  0  0  0  0  0  0  0  0  0  0  0
   -0.0752    1.7677    0.0000 C   0  0  0  0  0  0  0  0  0  0  0  0
   -0.7773    1.3540    0.0000 C   0  0  0  0  0  0  0  0  0  0  0  0
   -0.0877    2.5701    0.0000 C   0  0  0  0  0  0  0  0  0  0  0  0
   -1.4919    1.7427    0.0000 C   0  0  0  0  0  0  0  0  0  0  0  0
   -0.8024    2.9588    0.0000 C   0  0  0  0  0  0  0  0  0  0  0  0
   -1.5044    2.5324    0.0000 C   0  0  0  0  0  0  0  0  0  0  0  0
  1 18  1  0  0  0  0
  2  6  1  0  0  0  0
  2  8  1  0  0  0  0
  2  9  1  0  0  0  0
  3  5  1  0  0  0  0
  3 10  1  0  0  0  0
  3 11  1  0  0  0  0
  4  7  2  0  0  0  0
 12  4  1  1  0  0  0
  5  6  2  0  0  0  0
  5  7  1  0  0  0  0
  6  7  1  0  0  0  0
  8 13  1  0  0  0  0
  9 14  1  0  0  0  0
 10 15  1  0  0  0  0
 11 16  1  0  0  0  0
 12 17  1  0  0  0  0
 12 18  1  0  0  0  0
 13 14  1  0  0  0  0
 15 16  1  0  0  0  0
 17 19  1  0  0  0  0
 19 20  2  0  0  0  0
 19 21  1  0  0  0  0
 20 22  1  0  0  0  0
 21 23  2  0  0  0  0
 22 24  2  0  0  0  0
 23 24  1  0  0  0  0
M  END
> <PUBCHEM_COMPOUND_ID_TYPE>
0

> <PUBCHEM_TOTAL_CHARGE>
0

> <PUBCHEM_SUBSTANCE_ID>
310941457

> <PUBCHEM_SUBSTANCE_VERSION>
1

> <PUBCHEM_EXT_DATASOURCE_NAME>
4488

> <PUBCHEM_EXT_DATASOURCE_REGID>
SCHEMBL16119451

> <PUBCHEM_SUBSTANCE_COMMENT>
InChI=1S/C20H27N3O/c24-15-17(14-16-8-2-1-3-9-16)21-18-19(22-10-4-5-11-22)20(18)23-12-6-7-13-23/h1-3,8-9,17,24H,4-7,10-15H2/t17-/m0/s1
InChIKey=LFVZGGWELMXITH-KRWDZBQOSA-N

> <PUBCHEM_SUBSTANCE_SYNONYM>
SCHEMBL16119451

> <PUBCHEM_XREF_EXT_ID>
SCHEMBL16119451

> <PUBCHEM_EXT_DATASOURCE_URL>
https://www.surechembl.org/

> <PUBCHEM_EXT_SUBSTANCE_URL>
https://www.surechembl.org/chemical/SCHEMBL16119451

> <PUBCHEM_CID_ASSOCIATIONS>
117608280  1

> <PUBCHEM_COORDINATE_TYPE>
1
3

> <PUBCHEM_BONDANNOTATIONS>
12  4  5

$$$$
