310946740
  -OEChem-07211613022D

 35 38  0     1  0  0  0  0  0999 V2000
   -1.1930   -3.1994    0.0000 S   0  0  0  0  0  0  0  0  0  0  0  0
    0.0775    3.2459    0.0000 O   0  0  0  0  0  0  0  0  0  0  0  0
   -0.7282   -0.9373    0.0000 O   0  0  0  0  0  0  0  0  0  0  0  0
   -0.5732   -3.7571    0.0000 O   0  0  0  0  0  0  0  0  0  0  0  0
   -1.7353   -3.8036    0.0000 O   0  0  0  0  0  0  0  0  0  0  0  0
    0.7901    1.3867    0.0000 N   0  0  0  0  0  0  0  0  0  0  0  0
    1.2705    0.7204    0.0000 N   0  0  0  0  0  0  0  0  0  0  0  0
    1.0380   -0.7359    0.0000 N   0  0  0  0  0  0  0  0  0  0  0  0
   -1.4409    0.3021    0.0000 N   0  0  0  0  0  0  0  0  0  0  0  0
    3.2071    1.8979    0.0000 N   0  0  0  0  0  0  0  0  0  0  0  0
    0.0000    1.1388    0.0000 C   0  0  0  0  0  0  0  0  0  0  0  0
    1.0380    2.1923    0.0000 C   0  0  3  0  0  0  0  0  0  0  0  0
   -0.0155    0.3176    0.0000 C   0  0  0  0  0  0  0  0  0  0  0  0
    0.7747    0.0542    0.0000 C   0  0  0  0  0  0  0  0  0  0  0  0
   -0.7127   -0.0852    0.0000 C   0  0  0  0  0  0  0  0  0  0  0  0
   -0.7282    1.5571    0.0000 C   0  0  0  0  0  0  0  0  0  0  0  0
   -1.8127   -2.6261    0.0000 C   0  0  0  0  0  0  0  0  0  0  0  0
    0.2479    2.4403    0.0000 C   0  0  0  0  0  0  0  0  0  0  0  0
    1.6578    2.7346    0.0000 C   0  0  0  0  0  0  0  0  0  0  0  0
    1.5803    1.5416    0.0000 C   0  0  0  0  0  0  0  0  0  0  0  0
   -0.6197   -2.5642    0.0000 C   0  0  0  0  0  0  0  0  0  0  0  0
    0.4803   -1.3556    0.0000 C   0  0  0  0  0  0  0  0  0  0  0  0
   -1.4409    1.1388    0.0000 C   0  0  0  0  0  0  0  0  0  0  0  0
   -2.5719   -2.8895    0.0000 C   0  0  0  0  0  0  0  0  0  0  0  0
   -0.8676   -1.7895    0.0000 C   0  0  0  0  0  0  0  0  0  0  0  0
    0.1704   -2.7501    0.0000 C   0  0  0  0  0  0  0  0  0  0  0  0
   -0.3253   -1.1852    0.0000 C   0  0  0  0  0  0  0  0  0  0  0  0
    0.7282   -2.1459    0.0000 C   0  0  0  0  0  0  0  0  0  0  0  0
    1.4874    3.5403    0.0000 C   0  0  0  0  0  0  0  0  0  0  0  0
    2.3860    1.7275    0.0000 C   0  0  0  0  0  0  0  0  0  0  0  0
    0.6972    3.8036    0.0000 C   0  0  0  0  0  0  0  0  0  0  0  0
   -2.0451   -1.8360    0.0000 C   0  0  0  0  0  0  0  0  0  0  0  0
   -1.2549   -2.0219    0.0000 C   0  0  0  0  0  0  0  0  0  0  0  0
   -3.2071   -2.3627    0.0000 C   0  0  0  0  0  0  0  0  0  0  0  0
   -2.7423   -3.7262    0.0000 C   0  0  0  0  0  0  0  0  0  0  0  0
  1  4  2  0  0  0  0
  1  5  2  0  0  0  0
  1 17  1  0  0  0  0
  1 21  1  0  0  0  0
  2 18  1  0  0  0  0
  2 31  1  0  0  0  0
  3 15  2  0  0  0  0
  6  7  1  0  0  0  0
  6 11  1  0  0  0  0
  6 12  1  0  0  0  0
  7 14  2  0  0  0  0
  8 14  1  0  0  0  0
  8 22  1  0  0  0  0
  9 15  1  0  0  0  0
  9 23  1  0  0  0  0
 10 30  3  0  0  0  0
 11 13  2  0  0  0  0
 11 16  1  0  0  0  0
 12 18  1  0  0  0  0
 12 19  1  0  0  0  0
 12 20  1  6  0  0  0
 13 14  1  0  0  0  0
 13 15  1  0  0  0  0
 16 23  2  0  0  0  0
 17 24  1  0  0  0  0
 17 32  1  0  0  0  0
 17 33  1  0  0  0  0
 19 29  1  0  0  0  0
 20 30  1  0  0  0  0
 21 25  2  0  0  0  0
 21 26  1  0  0  0  0
 22 27  2  0  0  0  0
 22 28  1  0  0  0  0
 24 34  1  0  0  0  0
 24 35  1  0  0  0  0
 25 27  1  0  0  0  0
 26 28  2  0  0  0  0
 29 31  1  0  0  0  0
M  END
> <PUBCHEM_COMPOUND_ID_TYPE>
0

> <PUBCHEM_TOTAL_CHARGE>
0

> <PUBCHEM_SUBSTANCE_ID>
310946740

> <PUBCHEM_SUBSTANCE_VERSION>
1

> <PUBCHEM_EXT_DATASOURCE_NAME>
4488

> <PUBCHEM_EXT_DATASOURCE_REGID>
SCHEMBL16124864

> <PUBCHEM_SUBSTANCE_COMMENT>
InChI=1S/C25H31N5O4S/c1-17(2)24(3,4)35(32,33)19-8-6-18(7-9-19)28-22-21-20(10-14-27-23(21)31)30(29-22)25(12-13-26)11-5-15-34-16-25/h6-10,14,17H,5,11-12,15-16H2,1-4H3,(H,27,31)(H,28,29)/t25-/m0/s1
InChIKey=YABMYJXAAVQXOD-VWLOTQADSA-N

> <PUBCHEM_SUBSTANCE_SYNONYM>
SCHEMBL16124864

> <PUBCHEM_XREF_EXT_ID>
SCHEMBL16124864

> <PUBCHEM_EXT_DATASOURCE_URL>
https://www.surechembl.org/

> <PUBCHEM_EXT_SUBSTANCE_URL>
https://www.surechembl.org/chemical/SCHEMBL16124864

> <PUBCHEM_CID_ASSOCIATIONS>
117612625  1

> <PUBCHEM_COORDINATE_TYPE>
1
3

> <PUBCHEM_BONDANNOTATIONS>
12  20  6

$$$$
