310942546
  -OEChem-07211613022D

 16 17  0     0  0  0  0  0  0999 V2000
   -2.1813   -0.2503    0.0000 S   0  0  0  0  0  0  0  0  0  0  0  0
    0.7331   -0.2503    0.0000 N   0  0  0  0  0  0  0  0  0  0  0  0
   -0.7152   -0.2503    0.0000 N   0  0  0  0  0  0  0  0  0  0  0  0
   -1.4482    0.9923    0.0000 N   0  0  0  0  0  0  0  0  0  0  0  0
    2.9144    1.7969    0.0000 N   0  0  0  0  0  0  0  0  0  0  0  0
    0.0089    0.1698    0.0000 C   0  0  0  0  0  0  0  0  0  0  0  0
    0.0179    1.0012    0.0000 C   0  0  0  0  0  0  0  0  0  0  0  0
    0.7420   -1.0996    0.0000 C   0  0  0  0  0  0  0  0  0  0  0  0
   -1.4482    0.1698    0.0000 C   0  0  0  0  0  0  0  0  0  0  0  0
   -0.7241    1.4035    0.0000 C   0  0  0  0  0  0  0  0  0  0  0  0
    0.3397   -1.7969    0.0000 C   0  0  0  0  0  0  0  0  0  0  0  0
    1.1532   -1.7879    0.0000 C   0  0  0  0  0  0  0  0  0  0  0  0
    0.7331    1.4035    0.0000 C   0  0  0  0  0  0  0  0  0  0  0  0
    1.4840    1.0012    0.0000 C   0  0  0  0  0  0  0  0  0  0  0  0
   -2.9144    0.1698    0.0000 C   0  0  0  0  0  0  0  0  0  0  0  0
    2.1992    1.4125    0.0000 C   0  0  0  0  0  0  0  0  0  0  0  0
  1  9  1  0  0  0  0
  1 15  1  0  0  0  0
  2  6  1  0  0  0  0
  2  8  1  0  0  0  0
  3  6  2  0  0  0  0
  3  9  1  0  0  0  0
  4  9  2  0  0  0  0
  4 10  1  0  0  0  0
  5 16  3  0  0  0  0
  6  7  1  0  0  0  0
  7 10  2  0  0  0  0
  7 13  1  0  0  0  0
  8 11  1  0  0  0  0
  8 12  1  0  0  0  0
 11 12  1  0  0  0  0
 13 14  2  0  0  0  0
 14 16  1  0  0  0  0
M  END
> <PUBCHEM_COMPOUND_ID_TYPE>
0

> <PUBCHEM_TOTAL_CHARGE>
0

> <PUBCHEM_SUBSTANCE_ID>
310942546

> <PUBCHEM_SUBSTANCE_VERSION>
1

> <PUBCHEM_EXT_DATASOURCE_NAME>
4488

> <PUBCHEM_EXT_DATASOURCE_REGID>
SCHEMBL16120587

> <PUBCHEM_SUBSTANCE_COMMENT>
InChI=1S/C11H12N4S/c1-16-11-13-7-8(3-2-6-12)10(15-11)14-9-4-5-9/h2-3,7,9H,4-5H2,1H3,(H,13,14,15)/b3-2+
InChIKey=JIFMMKZPRXRZSC-NSCUHMNNSA-N

> <PUBCHEM_SUBSTANCE_SYNONYM>
SCHEMBL16120587

> <PUBCHEM_XREF_EXT_ID>
SCHEMBL16120587

> <PUBCHEM_EXT_DATASOURCE_URL>
https://www.surechembl.org/

> <PUBCHEM_EXT_SUBSTANCE_URL>
https://www.surechembl.org/chemical/SCHEMBL16120587

> <PUBCHEM_CID_ASSOCIATIONS>
90467085  1

> <PUBCHEM_COORDINATE_TYPE>
1
3

$$$$
