310942851
  -OEChem-07211613022D

 30 32  0     1  0  0  0  0  0999 V2000
   -3.0700   -0.1886    0.0000 P   0  0  3  0  0  0  0  0  0  0  0  0
   -0.3359   -0.4360    0.0000 O   0  0  0  0  0  0  0  0  0  0  0  0
    0.2887   -2.5220    0.0000 O   0  0  0  0  0  0  0  0  0  0  0  0
   -0.9605   -2.5220    0.0000 O   0  0  0  0  0  0  0  0  0  0  0  0
   -2.2450   -0.2003    0.0000 O   0  0  0  0  0  0  0  0  0  0  0  0
   -3.0700    0.6364    0.0000 O   0  0  0  0  0  0  0  0  0  0  0  0
    0.6187    0.1768    0.0000 N   0  0  0  0  0  0  0  0  0  0  0  0
    0.6187    1.5321    0.0000 N   0  0  0  0  0  0  0  0  0  0  0  0
    2.1154    0.0118    0.0000 N   0  0  0  0  0  0  0  0  0  0  0  0
    2.8343    1.2728    0.0000 N   0  0  0  0  0  0  0  0  0  0  0  0
    2.1154    2.5220    0.0000 N   0  0  0  0  0  0  0  0  0  0  0  0
    0.2887   -0.8721    0.0000 C   0  0  3  0  0  0  0  0  0  0  0  0
    1.3847    0.4596    0.0000 C   0  0  0  0  0  0  0  0  0  0  0  0
    1.4083    1.2846    0.0000 C   0  0  0  0  0  0  0  0  0  0  0  0
    0.0648   -1.6970    0.0000 C   0  0  3  0  0  0  0  0  0  0  0  0
   -0.9958   -0.8838    0.0000 C   0  0  3  0  0  0  0  0  0  0  0  0
   -0.7483   -1.7088    0.0000 C   0  0  3  0  0  0  0  0  0  0  0  0
    0.1355    0.8603    0.0000 C   0  0  0  0  0  0  0  0  0  0  0  0
    2.1036    1.6853    0.0000 C   0  0  0  0  0  0  0  0  0  0  0  0
   -1.4083   -0.1886    0.0000 C   0  0  0  0  0  0  0  0  0  0  0  0
   -1.7855   -0.1650    0.0000 C   0  0  3  0  0  0  0  0  0  0  0  0
    2.8343    0.4478    0.0000 C   0  0  0  0  0  0  0  0  0  0  0  0
   -1.9504    0.8132    0.0000 C   0  0  0  0  0  0  0  0  0  0  0  0
   -2.1390   -1.3906    0.0000 C   0  0  0  0  0  0  0  0  0  0  0  0
    3.5414    1.6735    0.0000 C   0  0  0  0  0  0  0  0  0  0  0  0
   -3.5414   -0.1768    0.0000 C   0  0  3  0  0  0  0  0  0  0  0  0
   -2.1154    1.1667    0.0000 C   0  0  0  0  0  0  0  0  0  0  0  0
   -3.4825   -0.6835    0.0000 C   0  0  0  0  0  0  0  0  0  0  0  0
   -3.2232    1.1785    0.0000 C   0  0  0  0  0  0  0  0  0  0  0  0
   -3.1879   -1.4142    0.0000 C   0  0  0  0  0  0  0  0  0  0  0  0
  1  5  1  0  0  0  0
  1  6  2  0  0  0  0
  1 26  1  0  0  0  0
  2 12  1  0  0  0  0
  2 16  1  0  0  0  0
 15  3  1  6  0  0  0
  4 17  1  0  0  0  0
  5 21  1  0  0  0  0
  7 12  1  0  0  0  0
  7 13  1  0  0  0  0
  7 18  1  0  0  0  0
  8 14  1  0  0  0  0
  8 18  2  0  0  0  0
  9 13  1  0  0  0  0
  9 22  2  0  0  0  0
 10 19  1  0  0  0  0
 10 22  1  0  0  0  0
 10 25  1  0  0  0  0
 11 19  2  3  0  0  0
 12 15  1  0  0  0  0
 13 14  2  0  0  0  0
 14 19  1  0  0  0  0
 15 17  1  0  0  0  0
 16 17  1  0  0  0  0
 16 20  1  1  0  0  0
 20 21  1  0  0  0  0
 21 23  1  0  0  0  0
 21 24  1  0  0  0  0
 23 27  1  0  0  0  0
 26 28  1  0  0  0  0
 26 29  1  0  0  0  0
 28 30  1  0  0  0  0
M  END
> <PUBCHEM_COMPOUND_ID_TYPE>
0

> <PUBCHEM_TOTAL_CHARGE>
0

> <PUBCHEM_SUBSTANCE_ID>
310942851

> <PUBCHEM_SUBSTANCE_VERSION>
1

> <PUBCHEM_EXT_DATASOURCE_NAME>
4488

> <PUBCHEM_EXT_DATASOURCE_REGID>
SCHEMBL16120906

> <PUBCHEM_SUBSTANCE_COMMENT>
InChI=1S/C19H32N5O5P/c1-6-11(3)30(27)29-19(4,7-2)8-12-14(25)15(26)18(28-12)24-10-21-13-16(20)23(5)9-22-17(13)24/h9-12,14-15,18,20,25-26,30H,6-8H2,1-5H3/t11?,12-,14?,15-,18?,19?/m1/s1
InChIKey=XKXIAUDOOQDWAL-WVMBKLFCSA-N

> <PUBCHEM_SUBSTANCE_SYNONYM>
SCHEMBL16120906

> <PUBCHEM_XREF_EXT_ID>
SCHEMBL16120906

> <PUBCHEM_EXT_DATASOURCE_URL>
https://www.surechembl.org/

> <PUBCHEM_EXT_SUBSTANCE_URL>
https://www.surechembl.org/chemical/SCHEMBL16120906

> <PUBCHEM_CID_ASSOCIATIONS>
117609341  1

> <PUBCHEM_COORDINATE_TYPE>
1
3

> <PUBCHEM_BONDANNOTATIONS>
16  20  5
15  3  6

$$$$
