310932596
  -OEChem-07211613022D

 30 32  0     0  0  0  0  0  0999 V2000
    3.9876   -3.3480    0.0000 O   0  0  0  0  0  0  0  0  0  0  0  0
    2.6333   -0.6395    0.0000 O   0  0  0  0  0  0  0  0  0  0  0  0
    8.4266   -3.4609    0.0000 O   0  0  0  0  0  0  0  0  0  0  0  0
    9.1789   -7.1100    0.0000 O   0  0  0  0  0  0  0  0  0  0  0  0
    4.8904   -2.2195    0.0000 N   0  0  0  0  0  0  0  0  0  0  0  0
    4.8152   -1.3919    0.0000 N   0  0  0  0  0  0  0  0  0  0  0  0
    6.3200   -2.2195    0.0000 N   0  0  0  0  0  0  0  0  0  0  0  0
    7.7495   -4.6647    0.0000 N   0  0  0  0  0  0  0  0  0  0  0  0
    0.0000   -3.0847    0.0000 N   0  0  0  0  0  0  0  0  0  0  0  0
    3.6114   -1.9562    0.0000 C   0  0  0  0  0  0  0  0  0  0  0  0
    4.1757   -2.5580    0.0000 C   0  0  0  0  0  0  0  0  0  0  0  0
    2.7838   -2.0314    0.0000 C   0  0  0  0  0  0  0  0  0  0  0  0
    5.6052   -2.6333    0.0000 C   0  0  0  0  0  0  0  0  0  0  0  0
    3.9876   -1.2414    0.0000 C   0  0  0  0  0  0  0  0  0  0  0  0
    2.2947   -1.3919    0.0000 C   0  0  0  0  0  0  0  0  0  0  0  0
    2.4452   -2.7838    0.0000 C   0  0  0  0  0  0  0  0  0  0  0  0
    5.6052   -3.4609    0.0000 C   0  0  0  0  0  0  0  0  0  0  0  0
    1.5047   -1.5047    0.0000 C   0  0  0  0  0  0  0  0  0  0  0  0
    1.1662   -2.2195    0.0000 C   0  0  0  0  0  0  0  0  0  0  0  0
    7.0347   -3.4609    0.0000 C   0  0  0  0  0  0  0  0  0  0  0  0
    1.6552   -2.8967    0.0000 C   0  0  0  0  0  0  0  0  0  0  0  0
    7.0347   -2.6333    0.0000 C   0  0  0  0  0  0  0  0  0  0  0  0
    6.3200   -3.8371    0.0000 C   0  0  0  0  0  0  0  0  0  0  0  0
    7.7495   -3.8371    0.0000 C   0  0  0  0  0  0  0  0  0  0  0  0
    0.3386   -2.3324    0.0000 C   0  0  0  0  0  0  0  0  0  0  0  0
    2.1442    0.0000    0.0000 C   0  0  0  0  0  0  0  0  0  0  0  0
    8.4642   -5.0785    0.0000 C   0  0  0  0  0  0  0  0  0  0  0  0
    8.4642   -5.9062    0.0000 C   0  0  0  0  0  0  0  0  0  0  0  0
    9.1413   -6.2823    0.0000 C   0  0  0  0  0  0  0  0  0  0  0  0
    9.8937   -7.5238    0.0000 C   0  0  0  0  0  0  0  0  0  0  0  0
  1 11  1  0  0  0  0
  2 15  1  0  0  0  0
  2 26  1  0  0  0  0
  3 24  2  0  0  0  0
  4 29  1  0  0  0  0
  4 30  1  0  0  0  0
  5  6  1  0  0  0  0
  5 11  1  0  0  0  0
  5 13  1  0  0  0  0
  6 14  2  0  0  0  0
  7 13  2  0  0  0  0
  7 22  1  0  0  0  0
  8 24  1  0  0  0  0
  8 27  1  0  0  0  0
  9 25  3  0  0  0  0
 10 11  2  0  0  0  0
 10 12  1  0  0  0  0
 10 14  1  0  0  0  0
 12 15  1  0  0  0  0
 12 16  2  0  0  0  0
 13 17  1  0  0  0  0
 15 18  2  0  0  0  0
 16 21  1  0  0  0  0
 17 23  2  0  0  0  0
 18 19  1  0  0  0  0
 19 21  2  0  0  0  0
 19 25  1  0  0  0  0
 20 22  2  0  0  0  0
 20 23  1  0  0  0  0
 20 24  1  0  0  0  0
 27 28  1  0  0  0  0
 28 29  1  0  0  0  0
M  END
> <PUBCHEM_COMPOUND_ID_TYPE>
0

> <PUBCHEM_TOTAL_CHARGE>
0

> <PUBCHEM_SUBSTANCE_ID>
310932596

> <PUBCHEM_SUBSTANCE_VERSION>
1

> <PUBCHEM_EXT_DATASOURCE_NAME>
4488

> <PUBCHEM_EXT_DATASOURCE_REGID>
SCHEMBL16109974

> <PUBCHEM_SUBSTANCE_COMMENT>
InChI=1S/C21H21N5O4/c1-29-9-3-8-23-20(27)15-5-7-19(24-12-15)26-21(28)17(13-25-26)16-6-4-14(11-22)10-18(16)30-2/h4-7,10,12-13,28H,3,8-9H2,1-2H3,(H,23,27)
InChIKey=VWRBCIKKDFOOQI-UHFFFAOYSA-N

> <PUBCHEM_SUBSTANCE_SYNONYM>
SCHEMBL16109974

> <PUBCHEM_XREF_EXT_ID>
SCHEMBL16109974

> <PUBCHEM_EXT_DATASOURCE_URL>
https://www.surechembl.org/

> <PUBCHEM_EXT_SUBSTANCE_URL>
https://www.surechembl.org/chemical/SCHEMBL16109974

> <PUBCHEM_CID_ASSOCIATIONS>
117601118  1

> <PUBCHEM_COORDINATE_TYPE>
1
3

$$$$
