310933157
  -OEChem-07211613022D

 28 31  0     0  0  0  0  0  0999 V2000
   10.1988   -3.2063    0.0000 F   0  0  0  0  0  0  0  0  0  0  0  0
    6.0715   -0.3070    0.0000 O   0  0  0  0  0  0  0  0  0  0  0  0
    2.6947   -2.7288    0.0000 N   0  0  0  0  0  0  0  0  0  0  0  0
    3.4792   -3.0699    0.0000 N   0  0  0  0  0  0  0  0  0  0  0  0
    4.8095   -1.0233    0.0000 N   0  0  0  0  0  0  0  0  0  0  0  0
    6.0715   -1.7396    0.0000 N   0  0  0  0  0  0  0  0  0  0  0  0
    0.9892   -0.2729    0.0000 N   0  0  0  0  0  0  0  0  0  0  0  0
    7.3336   -1.0574    0.0000 N   0  0  0  0  0  0  0  0  0  0  0  0
    9.8236   -1.0574    0.0000 N   0  0  0  0  0  0  0  0  0  0  0  0
    3.5815   -1.7396    0.0000 C   0  0  0  0  0  0  0  0  0  0  0  0
    2.7970   -1.9101    0.0000 C   0  0  0  0  0  0  0  0  0  0  0  0
    4.0249   -2.4559    0.0000 C   0  0  0  0  0  0  0  0  0  0  0  0
    2.1830   -1.3644    0.0000 C   0  0  0  0  0  0  0  0  0  0  0  0
    4.8436   -2.4559    0.0000 C   0  0  0  0  0  0  0  0  0  0  0  0
    4.0249   -1.0233    0.0000 C   0  0  0  0  0  0  0  0  0  0  0  0
    5.2529   -1.7396    0.0000 C   0  0  0  0  0  0  0  0  0  0  0  0
    1.3985   -1.6373    0.0000 C   0  0  0  0  0  0  0  0  0  0  0  0
    2.3535   -0.5799    0.0000 C   0  0  0  0  0  0  0  0  0  0  0  0
    0.7845   -1.0574    0.0000 C   0  0  0  0  0  0  0  0  0  0  0  0
    6.4809   -1.0574    0.0000 C   0  0  0  0  0  0  0  0  0  0  0  0
    1.7737    0.0000    0.0000 C   0  0  0  0  0  0  0  0  0  0  0  0
    8.5616   -1.7737    0.0000 C   0  0  0  0  0  0  0  0  0  0  0  0
    7.7429   -1.7737    0.0000 C   0  0  0  0  0  0  0  0  0  0  0  0
    0.0000   -1.2962    0.0000 C   0  0  0  0  0  0  0  0  0  0  0  0
    9.0050   -2.4900    0.0000 C   0  0  0  0  0  0  0  0  0  0  0  0
    9.7895   -2.4900    0.0000 C   0  0  0  0  0  0  0  0  0  0  0  0
    9.0050   -1.0574    0.0000 C   0  0  0  0  0  0  0  0  0  0  0  0
   10.2329   -1.7737    0.0000 C   0  0  0  0  0  0  0  0  0  0  0  0
  1 26  1  0  0  0  0
  2 20  2  0  0  0  0
  3  4  1  0  0  0  0
  3 11  2  0  0  0  0
  4 12  1  0  0  0  0
  5 15  1  0  0  0  0
  5 16  2  0  0  0  0
  6 16  1  0  0  0  0
  6 20  1  0  0  0  0
  7 19  1  0  0  0  0
  7 21  2  0  0  0  0
  8 20  1  0  0  0  0
  8 23  1  0  0  0  0
  9 27  1  0  0  0  0
  9 28  2  0  0  0  0
 10 11  1  0  0  0  0
 10 12  1  0  0  0  0
 10 15  2  0  0  0  0
 11 13  1  0  0  0  0
 12 14  2  0  0  0  0
 13 17  1  0  0  0  0
 13 18  2  0  0  0  0
 14 16  1  0  0  0  0
 17 19  2  0  0  0  0
 18 21  1  0  0  0  0
 19 24  1  0  0  0  0
 22 23  1  0  0  0  0
 22 25  1  0  0  0  0
 22 27  2  0  0  0  0
 25 26  2  0  0  0  0
 26 28  1  0  0  0  0
M  END
> <PUBCHEM_COMPOUND_ID_TYPE>
0

> <PUBCHEM_TOTAL_CHARGE>
0

> <PUBCHEM_SUBSTANCE_ID>
310933157

> <PUBCHEM_SUBSTANCE_VERSION>
1

> <PUBCHEM_EXT_DATASOURCE_NAME>
4488

> <PUBCHEM_EXT_DATASOURCE_REGID>
SCHEMBL16110566

> <PUBCHEM_SUBSTANCE_COMMENT>
InChI=1S/C19H16FN7O/c1-11-4-13(2-3-22-11)18-15-10-23-17(6-16(15)26-27-18)25-19(28)24-8-12-5-14(20)9-21-7-12/h2-7,9-10H,8H2,1H3,(H,26,27)(H2,23,24,25,28)
InChIKey=QSWLRKZYVRQFLR-UHFFFAOYSA-N

> <PUBCHEM_SUBSTANCE_SYNONYM>
SCHEMBL16110566

> <PUBCHEM_XREF_EXT_ID>
SCHEMBL16110566

> <PUBCHEM_EXT_DATASOURCE_URL>
https://www.surechembl.org/

> <PUBCHEM_EXT_SUBSTANCE_URL>
https://www.surechembl.org/chemical/SCHEMBL16110566

> <PUBCHEM_CID_ASSOCIATIONS>
71555761  1

> <PUBCHEM_COORDINATE_TYPE>
1
3

$$$$
