310940618
  -OEChem-07211613022D

 16 16  0     0  0  0  0  0  0999 V2000
    2.5054   -0.9305    0.0000 S   0  0  0  0  0  0  0  0  0  0  0  0
   -2.0392   -0.9728    0.0000 S   0  0  0  0  0  0  0  0  0  0  0  0
    1.2045    0.2229    0.0000 O   0  0  0  0  0  0  0  0  0  0  0  0
    0.4898   -1.0278    0.0000 O   0  0  0  0  0  0  0  0  0  0  0  0
    2.4987   -0.3940    0.0000 O   0  0  0  0  0  0  0  0  0  0  0  0
    2.4920   -1.4737    0.0000 O   0  0  0  0  0  0  0  0  0  0  0  0
    0.4898    1.4737    0.0000 O   0  0  0  0  0  0  0  0  0  0  0  0
   -1.6269    0.3191    0.0000 N   0  0  0  0  0  0  0  0  0  0  0  0
   -1.2145   -0.9590    0.0000 N   0  0  0  0  0  0  0  0  0  0  0  0
   -0.2250    1.0613    0.0000 N   0  0  0  0  0  0  0  0  0  0  0  0
   -3.0150    0.2367    0.0000 N   0  0  0  0  0  0  0  0  0  0  0  0
   -0.2387    0.2367    0.0000 C   0  0  0  0  0  0  0  0  0  0  0  0
   -0.9533   -0.1620    0.0000 C   0  0  0  0  0  0  0  0  0  0  0  0
    0.4898   -0.1620    0.0000 C   0  0  0  0  0  0  0  0  0  0  0  0
   -2.2866   -0.1757    0.0000 C   0  0  0  0  0  0  0  0  0  0  0  0
    3.0150   -0.9305    0.0000 C   0  0  0  0  0  0  0  0  0  0  0  0
  1  3  1  0  0  0  0
  1  5  2  0  0  0  0
  1  6  2  0  0  0  0
  1 16  1  0  0  0  0
  2  9  1  0  0  0  0
  2 15  1  0  0  0  0
  3 14  1  0  0  0  0
  4 14  2  0  0  0  0
  7 10  1  0  0  0  0
  8 13  1  0  0  0  0
  8 15  2  0  0  0  0
  9 13  2  0  0  0  0
 10 12  2  0  0  0  0
 11 15  1  0  0  0  0
 12 13  1  0  0  0  0
 12 14  1  0  0  0  0
M  END
> <PUBCHEM_COMPOUND_ID_TYPE>
0

> <PUBCHEM_TOTAL_CHARGE>
0

> <PUBCHEM_SUBSTANCE_ID>
310940618

> <PUBCHEM_SUBSTANCE_VERSION>
1

> <PUBCHEM_EXT_DATASOURCE_NAME>
4488

> <PUBCHEM_EXT_DATASOURCE_REGID>
SCHEMBL16118573

> <PUBCHEM_SUBSTANCE_COMMENT>
InChI=1S/C5H6N4O5S2/c1-16(12,13)14-4(10)2(8-11)3-7-5(6)15-9-3/h11H,1H3,(H2,6,7,9)/b8-2-
InChIKey=REIIVWWETYPRKE-WAPJZHGLSA-N

> <PUBCHEM_SUBSTANCE_SYNONYM>
SCHEMBL16118573

> <PUBCHEM_XREF_EXT_ID>
SCHEMBL16118573

> <PUBCHEM_EXT_DATASOURCE_URL>
https://www.surechembl.org/

> <PUBCHEM_EXT_SUBSTANCE_URL>
https://www.surechembl.org/chemical/SCHEMBL16118573

> <PUBCHEM_CID_ASSOCIATIONS>
117607604  1

> <PUBCHEM_COORDINATE_TYPE>
1
3

$$$$
