310934578
  -OEChem-07211613022D

 25 27  0     0  0  0  0  0  0999 V2000
    4.4876   -0.7103    0.0000 S   0  0  0  0  0  0  0  0  0  0  0  0
    2.8733   -4.9719    0.0000 F   0  0  0  0  0  0  0  0  0  0  0  0
    1.5820    0.0000    0.0000 O   0  0  0  0  0  0  0  0  0  0  0  0
    0.7425   -1.4205    0.0000 O   0  0  0  0  0  0  0  0  0  0  0  0
    2.4214   -1.4205    0.0000 N   0  0  0  0  0  0  0  0  0  0  0  0
    1.5820   -1.4205    0.0000 N   0  0  0  0  0  0  0  0  0  0  0  0
    2.8088   -0.7103    0.0000 C   0  0  0  0  0  0  0  0  0  0  0  0
    2.0017   -0.7103    0.0000 C   0  0  0  0  0  0  0  0  0  0  0  0
    3.2608   -1.4205    0.0000 C   0  0  0  0  0  0  0  0  0  0  0  0
    3.2608    0.0000    0.0000 C   0  0  0  0  0  0  0  0  0  0  0  0
    1.6143   -4.2939    0.0000 C   0  0  0  0  0  0  0  0  0  0  0  0
    2.4214   -2.8733    0.0000 C   0  0  0  0  0  0  0  0  0  0  0  0
    2.8410   -2.1308    0.0000 C   0  0  0  0  0  0  0  0  0  0  0  0
    2.4536   -4.2939    0.0000 C   0  0  0  0  0  0  0  0  0  0  0  0
    2.8410   -3.5513    0.0000 C   0  0  0  0  0  0  0  0  0  0  0  0
    1.2268   -5.0041    0.0000 C   0  0  0  0  0  0  0  0  0  0  0  0
    1.1945   -3.5836    0.0000 C   0  0  0  0  0  0  0  0  0  0  0  0
    1.6143   -2.8733    0.0000 C   0  0  0  0  0  0  0  0  0  0  0  0
    4.0679   -1.4205    0.0000 C   0  0  0  0  0  0  0  0  0  0  0  0
    4.0679    0.0000    0.0000 C   0  0  0  0  0  0  0  0  0  0  0  0
    1.6465   -5.7467    0.0000 C   0  0  0  0  0  0  0  0  0  0  0  0
    0.3874   -5.0364    0.0000 C   0  0  0  0  0  0  0  0  0  0  0  0
    1.2591   -6.4570    0.0000 C   0  0  0  0  0  0  0  0  0  0  0  0
    0.0000   -5.7467    0.0000 C   0  0  0  0  0  0  0  0  0  0  0  0
    0.4197   -6.4570    0.0000 C   0  0  0  0  0  0  0  0  0  0  0  0
  1 19  1  0  0  0  0
  1 20  1  0  0  0  0
  2 14  1  0  0  0  0
  3  8  2  0  0  0  0
  4  6  1  0  0  0  0
  5  7  1  0  0  0  0
  5 13  1  0  0  0  0
  6  8  1  0  0  0  0
  7  8  1  0  0  0  0
  7  9  1  0  0  0  0
  7 10  1  0  0  0  0
  9 19  1  0  0  0  0
 10 20  1  0  0  0  0
 11 14  1  0  0  0  0
 11 16  1  0  0  0  0
 11 17  2  0  0  0  0
 12 13  1  0  0  0  0
 12 15  1  0  0  0  0
 12 18  2  0  0  0  0
 14 15  2  0  0  0  0
 16 21  2  0  0  0  0
 16 22  1  0  0  0  0
 17 18  1  0  0  0  0
 21 23  1  0  0  0  0
 22 24  2  0  0  0  0
 23 25  2  0  0  0  0
 24 25  1  0  0  0  0
M  END
> <PUBCHEM_COMPOUND_ID_TYPE>
0

> <PUBCHEM_TOTAL_CHARGE>
0

> <PUBCHEM_SUBSTANCE_ID>
310934578

> <PUBCHEM_SUBSTANCE_VERSION>
1

> <PUBCHEM_EXT_DATASOURCE_NAME>
4488

> <PUBCHEM_EXT_DATASOURCE_REGID>
SCHEMBL16112070

> <PUBCHEM_SUBSTANCE_COMMENT>
InChI=1S/C19H21FN2O2S/c20-17-12-14(6-7-16(17)15-4-2-1-3-5-15)13-21-19(18(23)22-24)8-10-25-11-9-19/h1-7,12,21,24H,8-11,13H2,(H,22,23)
InChIKey=LCMOISZCLHTYQH-UHFFFAOYSA-N

> <PUBCHEM_SUBSTANCE_SYNONYM>
SCHEMBL16112070

> <PUBCHEM_XREF_EXT_ID>
SCHEMBL16112070

> <PUBCHEM_EXT_DATASOURCE_URL>
https://www.surechembl.org/

> <PUBCHEM_EXT_SUBSTANCE_URL>
https://www.surechembl.org/chemical/SCHEMBL16112070

> <PUBCHEM_CID_ASSOCIATIONS>
117602766  1

> <PUBCHEM_COORDINATE_TYPE>
1
3

$$$$
