310931571
  -OEChem-07211613022D

 27 30  0     0  0  0  0  0  0999 V2000
    4.0311   -2.1249    0.0000 O   0  0  0  0  0  0  0  0  0  0  0  0
    8.5622   -2.2187    0.0000 O   0  0  0  0  0  0  0  0  0  0  0  0
    4.9373   -0.9999    0.0000 N   0  0  0  0  0  0  0  0  0  0  0  0
    4.8748   -0.1562    0.0000 N   0  0  0  0  0  0  0  0  0  0  0  0
    6.4061   -0.9999    0.0000 N   0  0  0  0  0  0  0  0  0  0  0  0
    7.8435   -3.4686    0.0000 N   0  0  0  0  0  0  0  0  0  0  0  0
    0.0000   -1.8437    0.0000 N   0  0  0  0  0  0  0  0  0  0  0  0
    4.2186   -1.3124    0.0000 C   0  0  0  0  0  0  0  0  0  0  0  0
    3.6249   -0.7187    0.0000 C   0  0  0  0  0  0  0  0  0  0  0  0
    5.6561   -1.4062    0.0000 C   0  0  0  0  0  0  0  0  0  0  0  0
    2.8124   -0.8125    0.0000 C   0  0  0  0  0  0  0  0  0  0  0  0
    7.0935   -2.2187    0.0000 C   0  0  0  0  0  0  0  0  0  0  0  0
    4.0311    0.0000    0.0000 C   0  0  0  0  0  0  0  0  0  0  0  0
    6.4061   -2.6249    0.0000 C   0  0  0  0  0  0  0  0  0  0  0  0
    5.6561   -2.2187    0.0000 C   0  0  0  0  0  0  0  0  0  0  0  0
    7.0935   -1.4062    0.0000 C   0  0  0  0  0  0  0  0  0  0  0  0
    7.8435   -2.6249    0.0000 C   0  0  0  0  0  0  0  0  0  0  0  0
    2.4687   -1.5625    0.0000 C   0  0  0  0  0  0  0  0  0  0  0  0
    2.3124   -0.1562    0.0000 C   0  0  0  0  0  0  0  0  0  0  0  0
    8.5622   -3.8748    0.0000 C   0  0  0  0  0  0  0  0  0  0  0  0
    1.1562   -0.9999    0.0000 C   0  0  0  0  0  0  0  0  0  0  0  0
    1.6562   -1.6562    0.0000 C   0  0  0  0  0  0  0  0  0  0  0  0
    1.4999   -0.2500    0.0000 C   0  0  0  0  0  0  0  0  0  0  0  0
    6.4061   -3.4686    0.0000 C   0  0  0  0  0  0  0  0  0  0  0  0
    9.3747   -3.8748    0.0000 C   0  0  0  0  0  0  0  0  0  0  0  0
    8.9997   -4.6248    0.0000 C   0  0  0  0  0  0  0  0  0  0  0  0
    0.3438   -1.0937    0.0000 C   0  0  0  0  0  0  0  0  0  0  0  0
  1  8  1  0  0  0  0
  2 17  2  0  0  0  0
  3  4  1  0  0  0  0
  3  8  1  0  0  0  0
  3 10  1  0  0  0  0
  4 13  2  0  0  0  0
  5 10  2  0  0  0  0
  5 16  1  0  0  0  0
  6 17  1  0  0  0  0
  6 20  1  0  0  0  0
  7 27  3  0  0  0  0
  8  9  2  0  0  0  0
  9 11  1  0  0  0  0
  9 13  1  0  0  0  0
 10 15  1  0  0  0  0
 11 18  2  0  0  0  0
 11 19  1  0  0  0  0
 12 14  1  0  0  0  0
 12 16  2  0  0  0  0
 12 17  1  0  0  0  0
 14 15  2  0  0  0  0
 14 24  1  0  0  0  0
 18 22  1  0  0  0  0
 19 23  2  0  0  0  0
 20 25  1  0  0  0  0
 20 26  1  0  0  0  0
 21 22  2  0  0  0  0
 21 23  1  0  0  0  0
 21 27  1  0  0  0  0
 25 26  1  0  0  0  0
M  END
> <PUBCHEM_COMPOUND_ID_TYPE>
0

> <PUBCHEM_TOTAL_CHARGE>
0

> <PUBCHEM_SUBSTANCE_ID>
310931571

> <PUBCHEM_SUBSTANCE_VERSION>
1

> <PUBCHEM_EXT_DATASOURCE_NAME>
4488

> <PUBCHEM_EXT_DATASOURCE_REGID>
SCHEMBL16108897

> <PUBCHEM_SUBSTANCE_COMMENT>
InChI=1S/C20H17N5O2/c1-12-8-18(22-10-16(12)19(26)24-15-6-7-15)25-20(27)17(11-23-25)14-4-2-13(9-21)3-5-14/h2-5,8,10-11,15,27H,6-7H2,1H3,(H,24,26)
InChIKey=FMQJPPQEASQKCW-UHFFFAOYSA-N

> <PUBCHEM_SUBSTANCE_SYNONYM>
SCHEMBL16108897

> <PUBCHEM_XREF_EXT_ID>
SCHEMBL16108897

> <PUBCHEM_EXT_DATASOURCE_URL>
https://www.surechembl.org/

> <PUBCHEM_EXT_SUBSTANCE_URL>
https://www.surechembl.org/chemical/SCHEMBL16108897

> <PUBCHEM_CID_ASSOCIATIONS>
117600314  1

> <PUBCHEM_COORDINATE_TYPE>
1
3

$$$$
