310944682
  -OEChem-07211613022D

 30 34  0     0  0  0  0  0  0999 V2000
   -1.0614    2.9449    0.0000 F   0  0  0  0  0  0  0  0  0  0  0  0
   -1.0737    0.4663    0.0000 N   0  0  0  0  0  0  0  0  0  0  0  0
   -0.4110   -0.0245    0.0000 N   0  0  0  0  0  0  0  0  0  0  0  0
   -0.6687   -2.2578    0.0000 N   0  0  0  0  0  0  0  0  0  0  0  0
    1.8345   -2.2455    0.0000 N   0  0  0  0  0  0  0  0  0  0  0  0
    2.5216   -0.2209    0.0000 N   0  0  0  0  0  0  0  0  0  0  0  0
    3.2456   -0.6381    0.0000 N   0  0  0  0  0  0  0  0  0  0  0  0
   -0.6810   -0.7976    0.0000 C   0  0  0  0  0  0  0  0  0  0  0  0
   -1.5032   -0.7853    0.0000 C   0  0  0  0  0  0  0  0  0  0  0  0
   -1.7608   -0.0123    0.0000 C   0  0  0  0  0  0  0  0  0  0  0  0
   -0.2638   -1.5093    0.0000 C   0  0  0  0  0  0  0  0  0  0  0  0
   -2.0553   -1.3988    0.0000 C   0  0  0  0  0  0  0  0  0  0  0  0
   -2.5830    0.1595    0.0000 C   0  0  0  0  0  0  0  0  0  0  0  0
   -1.0982    1.3129    0.0000 C   0  0  0  0  0  0  0  0  0  0  0  0
    0.5706   -1.5215    0.0000 C   0  0  0  0  0  0  0  0  0  0  0  0
    0.9878   -2.2210    0.0000 C   0  0  0  0  0  0  0  0  0  0  0  0
   -1.8099    1.7424    0.0000 C   0  0  0  0  0  0  0  0  0  0  0  0
   -2.8775   -1.2270    0.0000 C   0  0  0  0  0  0  0  0  0  0  0  0
   -3.1229   -0.4540    0.0000 C   0  0  0  0  0  0  0  0  0  0  0  0
   -0.2515   -2.9449    0.0000 C   0  0  0  0  0  0  0  0  0  0  0  0
    0.5706   -2.9572    0.0000 C   0  0  0  0  0  0  0  0  0  0  0  0
   -1.7977    2.5646    0.0000 C   0  0  0  0  0  0  0  0  0  0  0  0
    2.2271   -1.4970    0.0000 C   0  0  0  0  0  0  0  0  0  0  0  0
   -2.5461    1.3252    0.0000 C   0  0  0  0  0  0  0  0  0  0  0  0
    1.8958   -0.7608    0.0000 C   0  0  0  0  0  0  0  0  0  0  0  0
   -2.5339    2.9572    0.0000 C   0  0  0  0  0  0  0  0  0  0  0  0
    3.0493   -1.4234    0.0000 C   0  0  0  0  0  0  0  0  0  0  0  0
   -3.2456    1.7302    0.0000 C   0  0  0  0  0  0  0  0  0  0  0  0
   -3.2456    2.5646    0.0000 C   0  0  0  0  0  0  0  0  0  0  0  0
    2.5216    0.6013    0.0000 C   0  0  0  0  0  0  0  0  0  0  0  0
  1 22  1  0  0  0  0
  2  3  1  0  0  0  0
  2 10  1  0  0  0  0
  2 14  1  0  0  0  0
  3  8  2  0  0  0  0
  4 11  1  0  0  0  0
  4 20  2  0  0  0  0
  5 16  1  0  0  0  0
  5 23  1  0  0  0  0
  6  7  1  0  0  0  0
  6 25  1  0  0  0  0
  6 30  1  0  0  0  0
  7 27  2  0  0  0  0
  8  9  1  0  0  0  0
  8 11  1  0  0  0  0
  9 10  2  0  0  0  0
  9 12  1  0  0  0  0
 10 13  1  0  0  0  0
 11 15  2  0  0  0  0
 12 18  2  0  0  0  0
 13 19  2  0  0  0  0
 14 17  1  0  0  0  0
 15 16  1  0  0  0  0
 16 21  2  0  0  0  0
 17 22  2  0  0  0  0
 17 24  1  0  0  0  0
 18 19  1  0  0  0  0
 20 21  1  0  0  0  0
 22 26  1  0  0  0  0
 23 25  2  0  0  0  0
 23 27  1  0  0  0  0
 24 28  2  0  0  0  0
 26 29  2  0  0  0  0
 28 29  1  0  0  0  0
M  END
> <PUBCHEM_COMPOUND_ID_TYPE>
0

> <PUBCHEM_TOTAL_CHARGE>
0

> <PUBCHEM_SUBSTANCE_ID>
310944682

> <PUBCHEM_SUBSTANCE_VERSION>
1

> <PUBCHEM_EXT_DATASOURCE_NAME>
4488

> <PUBCHEM_EXT_DATASOURCE_REGID>
SCHEMBL16122761

> <PUBCHEM_SUBSTANCE_COMMENT>
InChI=1S/C23H19FN6/c1-29-15-18(13-26-29)27-17-10-11-25-21(12-17)23-19-7-3-5-9-22(19)30(28-23)14-16-6-2-4-8-20(16)24/h2-13,15H,14H2,1H3,(H,25,27)
InChIKey=KZTYKWLEFVGMCR-UHFFFAOYSA-N

> <PUBCHEM_SUBSTANCE_SYNONYM>
SCHEMBL16122761

> <PUBCHEM_XREF_EXT_ID>
SCHEMBL16122761

> <PUBCHEM_EXT_DATASOURCE_URL>
https://www.surechembl.org/

> <PUBCHEM_EXT_SUBSTANCE_URL>
https://www.surechembl.org/chemical/SCHEMBL16122761

> <PUBCHEM_CID_ASSOCIATIONS>
86268506  1

> <PUBCHEM_COORDINATE_TYPE>
1
3

$$$$
