310939438
  -OEChem-07211613022D

 14 13  0     0  0  0  0  0  0999 V2000
   -3.6358    6.2537    0.0000 O   0  0  0  0  0  0  0  0  0  0  0  0
   -3.2233    4.1103    0.0000 O   0  0  0  0  0  0  0  0  0  0  0  0
   -2.3983    6.9682    0.0000 O   0  0  0  0  0  0  0  0  0  0  0  0
   -3.6358    0.5380    0.0000 O   0  0  0  0  0  0  0  0  0  0  0  0
   -3.2233    6.9682    0.0000 C   0  0  0  0  0  0  0  0  0  0  0  0
   -3.2233    5.5393    0.0000 C   0  0  0  0  0  0  0  0  0  0  0  0
   -3.6358    4.8248    0.0000 C   0  0  0  0  0  0  0  0  0  0  0  0
   -3.6358    7.6827    0.0000 C   0  0  0  0  0  0  0  0  0  0  0  0
   -3.6358    3.3959    0.0000 C   0  0  0  0  0  0  0  0  0  0  0  0
   -3.2233    2.6814    0.0000 C   0  0  0  0  0  0  0  0  0  0  0  0
   -3.6358    1.9669    0.0000 C   0  0  0  0  0  0  0  0  0  0  0  0
   -3.2233    1.2524    0.0000 C   0  0  0  0  0  0  0  0  0  0  0  0
   -3.2233    8.3972    0.0000 C   0  0  0  0  0  0  0  0  0  0  0  0
   -3.2233   -0.1765    0.0000 C   0  0  0  0  0  0  0  0  0  0  0  0
  1  5  1  0  0  0  0
  1  6  1  0  0  0  0
  2  7  1  0  0  0  0
  2  9  1  0  0  0  0
  3  5  2  0  0  0  0
  4 12  1  0  0  0  0
  4 14  1  0  0  0  0
  5  8  1  0  0  0  0
  6  7  1  0  0  0  0
  8 13  2  0  0  0  0
  9 10  1  0  0  0  0
 10 11  1  0  0  0  0
 11 12  1  0  0  0  0
M  END
> <PUBCHEM_COMPOUND_ID_TYPE>
0

> <PUBCHEM_TOTAL_CHARGE>
0

> <PUBCHEM_SUBSTANCE_ID>
310939438

> <PUBCHEM_SUBSTANCE_VERSION>
1

> <PUBCHEM_EXT_DATASOURCE_NAME>
4488

> <PUBCHEM_EXT_DATASOURCE_REGID>
SCHEMBL16117360

> <PUBCHEM_SUBSTANCE_COMMENT>
InChI=1S/C10H18O4/c1-3-10(11)14-9-8-13-7-5-4-6-12-2/h3H,1,4-9H2,2H3
InChIKey=YHUYMTYIPOGASJ-UHFFFAOYSA-N

> <PUBCHEM_SUBSTANCE_SYNONYM>
SCHEMBL16117360

> <PUBCHEM_XREF_EXT_ID>
SCHEMBL16117360

> <PUBCHEM_EXT_DATASOURCE_URL>
https://www.surechembl.org/

> <PUBCHEM_EXT_SUBSTANCE_URL>
https://www.surechembl.org/chemical/SCHEMBL16117360

> <PUBCHEM_CID_ASSOCIATIONS>
117606761  1

> <PUBCHEM_COORDINATE_TYPE>
1
3

$$$$
