310945850
  -OEChem-07211613022D

 35 38  0     1  0  0  0  0  0999 V2000
    3.6854    1.5466    0.0000 O   0  0  0  0  0  0  0  0  0  0  0  0
    1.4143    1.5605    0.0000 O   0  0  0  0  0  0  0  0  0  0  0  0
    0.6758    1.1565    0.0000 O   0  0  0  0  0  0  0  0  0  0  0  0
   -0.0348    1.5745    0.0000 O   0  0  0  0  0  0  0  0  0  0  0  0
   -2.8077    1.8671    0.0000 O   0  0  0  0  0  0  0  0  0  0  0  0
   -2.9609   -2.5917    0.0000 O   0  0  0  0  0  0  0  0  0  0  0  0
    1.4004   -0.0975    0.0000 N   0  0  0  0  0  0  0  0  0  0  0  0
   -0.7733    0.3344    0.0000 N   0  0  0  0  0  0  0  0  0  0  0  0
    2.8495    1.5466    0.0000 C   0  0  3  0  0  0  0  0  0  0  0  0
    2.1249    1.1426    0.0000 C   0  0  0  0  0  0  0  0  0  0  0  0
    3.2674    0.8499    0.0000 C   0  0  0  0  0  0  0  0  0  0  0  0
    2.1110    0.3344    0.0000 C   0  0  3  0  0  0  0  0  0  0  0  0
    2.8634    2.3548    0.0000 C   0  0  0  0  0  0  0  0  0  0  0  0
    2.8495   -0.1114    0.0000 C   0  0  0  0  0  0  0  0  0  0  0  0
    0.6619    0.3065    0.0000 C   0  0  0  0  0  0  0  0  0  0  0  0
   -0.0488   -0.0696    0.0000 C   0  0  3  0  0  0  0  0  0  0  0  0
    2.8216   -0.9336    0.0000 C   0  0  0  0  0  0  0  0  0  0  0  0
   -0.0627   -0.9196    0.0000 C   0  0  0  0  0  0  0  0  0  0  0  0
   -0.7733    1.1565    0.0000 C   0  0  0  0  0  0  0  0  0  0  0  0
   -0.7872   -1.3237    0.0000 C   0  0  0  0  0  0  0  0  0  0  0  0
   -1.4979    1.6024    0.0000 C   0  0  3  0  0  0  0  0  0  0  0  0
    3.5461   -1.3655    0.0000 C   0  0  0  0  0  0  0  0  0  0  0  0
    2.1110   -1.3516    0.0000 C   0  0  0  0  0  0  0  0  0  0  0  0
   -1.5257   -0.9196    0.0000 C   0  0  0  0  0  0  0  0  0  0  0  0
   -0.7872   -2.1597    0.0000 C   0  0  0  0  0  0  0  0  0  0  0  0
   -2.2503    1.2679    0.0000 C   0  0  0  0  0  0  0  0  0  0  0  0
   -1.5675    2.4245    0.0000 C   0  0  0  0  0  0  0  0  0  0  0  0
   -2.2363   -2.1458    0.0000 C   0  0  0  0  0  0  0  0  0  0  0  0
   -2.2224   -1.3237    0.0000 C   0  0  0  0  0  0  0  0  0  0  0  0
   -1.4979   -2.5638    0.0000 C   0  0  0  0  0  0  0  0  0  0  0  0
    3.5461   -2.1876    0.0000 C   0  0  0  0  0  0  0  0  0  0  0  0
    2.1110   -2.1737    0.0000 C   0  0  0  0  0  0  0  0  0  0  0  0
   -2.3896    2.6056    0.0000 C   0  0  0  0  0  0  0  0  0  0  0  0
    2.8495   -2.6056    0.0000 C   0  0  0  0  0  0  0  0  0  0  0  0
   -3.6854   -2.1597    0.0000 C   0  0  0  0  0  0  0  0  0  0  0  0
  1  9  1  0  0  0  0
  1 11  1  0  0  0  0
  2 10  2  0  0  0  0
  3 15  2  0  0  0  0
  4 19  2  0  0  0  0
  5 26  1  0  0  0  0
  5 33  1  0  0  0  0
  6 28  1  0  0  0  0
  6 35  1  0  0  0  0
 12  7  1  1  0  0  0
  7 15  1  0  0  0  0
  8 16  1  0  0  0  0
  8 19  1  0  0  0  0
  9 10  1  1  0  0  0
  9 11  1  0  0  0  0
  9 13  1  6  0  0  0
 10 12  1  0  0  0  0
 12 14  1  0  0  0  0
 14 17  1  0  0  0  0
 15 16  1  0  0  0  0
 16 18  1  0  0  0  0
 17 22  2  0  0  0  0
 17 23  1  0  0  0  0
 18 20  1  0  0  0  0
 21 19  1  1  0  0  0
 20 24  2  0  0  0  0
 20 25  1  0  0  0  0
 21 26  1  0  0  0  0
 21 27  1  0  0  0  0
 22 31  1  0  0  0  0
 23 32  2  0  0  0  0
 24 29  1  0  0  0  0
 25 30  2  0  0  0  0
 27 33  1  0  0  0  0
 28 29  2  0  0  0  0
 28 30  1  0  0  0  0
 31 34  2  0  0  0  0
 32 34  1  0  0  0  0
M  END
> <PUBCHEM_COMPOUND_ID_TYPE>
0

> <PUBCHEM_TOTAL_CHARGE>
0

> <PUBCHEM_SUBSTANCE_ID>
310945850

> <PUBCHEM_SUBSTANCE_VERSION>
1

> <PUBCHEM_EXT_DATASOURCE_NAME>
4488

> <PUBCHEM_EXT_DATASOURCE_REGID>
SCHEMBL16123955

> <PUBCHEM_SUBSTANCE_COMMENT>
InChI=1S/C27H32N2O6/c1-27(17-35-27)24(30)22(14-18-6-4-3-5-7-18)28-26(32)23(29-25(31)20-12-13-34-16-20)15-19-8-10-21(33-2)11-9-19/h3-11,20,22-23H,12-17H2,1-2H3,(H,28,32)(H,29,31)/t20-,22-,23?,27+/m1/s1
InChIKey=CTMYWXHFJJIIQU-QXMOHTTRSA-N

> <PUBCHEM_SUBSTANCE_SYNONYM>
SCHEMBL16123955

> <PUBCHEM_XREF_EXT_ID>
SCHEMBL16123955

> <PUBCHEM_EXT_DATASOURCE_URL>
https://www.surechembl.org/

> <PUBCHEM_EXT_SUBSTANCE_URL>
https://www.surechembl.org/chemical/SCHEMBL16123955

> <PUBCHEM_CID_ASSOCIATIONS>
117611836  1

> <PUBCHEM_COORDINATE_TYPE>
1
3

> <PUBCHEM_BONDANNOTATIONS>
21  19  5
12  7  5
9  10  5
9  13  6

$$$$
