310946223
  -OEChem-07211613022D

 28 28  0     0  0  0  0  0  0999 V2000
    4.6101   -3.2158    0.0000 O   0  0  0  0  0  0  0  0  0  0  0  0
   -0.3912   -6.9283    0.0000 O   0  0  0  0  0  0  0  0  0  0  0  0
    1.0377   -6.9283    0.0000 N   0  0  0  0  0  0  0  0  0  0  0  0
    3.1811   -3.2158    0.0000 C   0  0  0  0  0  0  0  0  0  0  0  0
    3.8956   -4.4533    0.0000 C   0  0  0  0  0  0  0  0  0  0  0  0
    3.8956   -3.6283    0.0000 C   0  0  0  0  0  0  0  0  0  0  0  0
    3.1811   -2.3908    0.0000 C   0  0  0  0  0  0  0  0  0  0  0  0
    4.6101   -4.8657    0.0000 C   0  0  0  0  0  0  0  0  0  0  0  0
    2.4667   -4.4533    0.0000 C   0  0  0  0  0  0  0  0  0  0  0  0
    2.4667   -3.6283    0.0000 C   0  0  0  0  0  0  0  0  0  0  0  0
    3.1811   -4.8658    0.0000 C   0  0  0  0  0  0  0  0  0  0  0  0
    1.7522   -4.8658    0.0000 C   0  0  0  0  0  0  0  0  0  0  0  0
    2.3561   -2.3908    0.0000 C   0  0  0  0  0  0  0  0  0  0  0  0
    3.1811   -1.5658    0.0000 C   0  0  0  0  0  0  0  0  0  0  0  0
    4.0061   -2.3908    0.0000 C   0  0  0  0  0  0  0  0  0  0  0  0
    5.0226   -4.1513    0.0000 C   0  0  0  0  0  0  0  0  0  0  0  0
    5.3246   -5.2782    0.0000 C   0  0  0  0  0  0  0  0  0  0  0  0
    4.1976   -5.5802    0.0000 C   0  0  0  0  0  0  0  0  0  0  0  0
    1.7522   -5.6908    0.0000 C   0  0  0  0  0  0  0  0  0  0  0  0
    1.0377   -6.1033    0.0000 C   0  0  0  0  0  0  0  0  0  0  0  0
    0.3233   -7.3408    0.0000 C   0  0  0  0  0  0  0  0  0  0  0  0
    0.3233   -8.1658    0.0000 C   0  0  0  0  0  0  0  0  0  0  0  0
   -0.3912   -8.5783    0.0000 C   0  0  0  0  0  0  0  0  0  0  0  0
    1.0377   -8.5783    0.0000 C   0  0  0  0  0  0  0  0  0  0  0  0
   -1.1057   -8.1658    0.0000 C   0  0  0  0  0  0  0  0  0  0  0  0
    1.7522   -8.1658    0.0000 C   0  0  0  0  0  0  0  0  0  0  0  0
   -1.8202   -8.5783    0.0000 C   0  0  0  0  0  0  0  0  0  0  0  0
    2.4667   -8.5783    0.0000 C   0  0  0  0  0  0  0  0  0  0  0  0
  1  6  1  0  0  0  0
  2 21  2  0  0  0  0
  3 20  1  0  0  0  0
  3 21  1  0  0  0  0
  4  6  2  0  0  0  0
  4  7  1  0  0  0  0
  4 10  1  0  0  0  0
  5  6  1  0  0  0  0
  5  8  1  0  0  0  0
  5 11  2  0  0  0  0
  7 13  1  0  0  0  0
  7 14  1  0  0  0  0
  7 15  1  0  0  0  0
  8 16  1  0  0  0  0
  8 17  1  0  0  0  0
  8 18  1  0  0  0  0
  9 10  2  0  0  0  0
  9 11  1  0  0  0  0
  9 12  1  0  0  0  0
 12 19  1  0  0  0  0
 19 20  1  0  0  0  0
 21 22  1  0  0  0  0
 22 23  1  0  0  0  0
 22 24  1  0  0  0  0
 23 25  1  0  0  0  0
 24 26  1  0  0  0  0
 25 27  1  0  0  0  0
 26 28  1  0  0  0  0
M  END
> <PUBCHEM_COMPOUND_ID_TYPE>
0

> <PUBCHEM_TOTAL_CHARGE>
0

> <PUBCHEM_SUBSTANCE_ID>
310946223

> <PUBCHEM_SUBSTANCE_VERSION>
1

> <PUBCHEM_EXT_DATASOURCE_NAME>
4488

> <PUBCHEM_EXT_DATASOURCE_REGID>
SCHEMBL16124339

> <PUBCHEM_SUBSTANCE_COMMENT>
InChI=1S/C25H43NO2/c1-9-12-19(13-10-2)23(28)26-15-11-14-18-16-20(24(3,4)5)22(27)21(17-18)25(6,7)8/h16-17,19,27H,9-15H2,1-8H3,(H,26,28)
InChIKey=VXQPBCHLQJARJO-UHFFFAOYSA-N

> <PUBCHEM_SUBSTANCE_SYNONYM>
SCHEMBL16124339

> <PUBCHEM_XREF_EXT_ID>
SCHEMBL16124339

> <PUBCHEM_EXT_DATASOURCE_URL>
https://www.surechembl.org/

> <PUBCHEM_EXT_SUBSTANCE_URL>
https://www.surechembl.org/chemical/SCHEMBL16124339

> <PUBCHEM_CID_ASSOCIATIONS>
117612171  1

> <PUBCHEM_COORDINATE_TYPE>
1
3

$$$$
