310929042
  -OEChem-07211613022D

 60 64  0     0  0  0  0  0  0999 V2000
   12.3754   -0.8250    0.0000 S   0  0  0  0  0  0  0  0  0  0  0  0
   12.3754   -2.2551    0.0000 O   0  0  0  0  0  0  0  0  0  0  0  0
    9.9003   -5.0602    0.0000 O   0  0  0  0  0  0  0  0  0  0  0  0
   12.3754   -1.6501    0.0000 O   0  0  0  0  0  0  0  0  0  0  0  0
   12.3754    0.0000    0.0000 O   0  0  0  0  0  0  0  0  0  0  0  0
   14.4104   -4.4001    0.0000 O   0  0  0  0  0  0  0  0  0  0  0  0
    4.9501   -4.8951    0.0000 O   0  0  0  0  0  0  0  0  0  0  0  0
    7.4802   -3.5201    0.0000 O   0  0  0  0  0  0  0  0  0  0  0  0
    4.5102   -6.9852    0.0000 O   0  0  0  0  0  0  0  0  0  0  0  0
    2.4201   -7.7002    0.0000 O   0  0  0  0  0  0  0  0  0  0  0  0
    0.8250   -6.2152    0.0000 O   0  0  0  0  0  0  0  0  0  0  0  0
   13.2004   -0.8250    0.0000 N   0  0  0  0  0  0  0  0  0  0  0  0
   13.2004   -3.6851    0.0000 N   0  0  0  0  0  0  0  0  0  0  0  0
   13.2004   -5.1152    0.0000 N   0  0  0  0  0  0  0  0  0  0  0  0
   11.5504   -0.8250    0.0000 N   0  0  0  0  0  0  0  0  0  0  0  0
    8.6903   -5.7202    0.0000 N   0  0  0  0  0  0  0  0  0  0  0  0
    7.4252   -6.3802    0.0000 N   0  0  0  0  0  0  0  0  0  0  0  0
    8.6353   -7.1502    0.0000 N   0  0  0  0  0  0  0  0  0  0  0  0
   13.2004   -2.2551    0.0000 C   0  0  0  0  0  0  0  0  0  0  0  0
   13.6404   -1.5401    0.0000 C   0  0  0  0  0  0  0  0  0  0  0  0
   13.6404   -2.9701    0.0000 C   0  0  0  0  0  0  0  0  0  0  0  0
   14.8504   -2.2551    0.0000 C   0  0  0  0  0  0  0  0  0  0  0  0
   11.9903   -4.4001    0.0000 C   0  0  0  0  0  0  0  0  0  0  0  0
   11.1653   -4.4001    0.0000 C   0  0  0  0  0  0  0  0  0  0  0  0
   12.3754   -5.1152    0.0000 C   0  0  0  0  0  0  0  0  0  0  0  0
   14.4655   -1.5401    0.0000 C   0  0  0  0  0  0  0  0  0  0  0  0
   14.4655   -2.9701    0.0000 C   0  0  0  0  0  0  0  0  0  0  0  0
   15.6755   -2.2551    0.0000 C   0  0  0  0  0  0  0  0  0  0  0  0
   10.7253   -5.0602    0.0000 C   0  0  0  0  0  0  0  0  0  0  0  0
   13.5854   -4.4001    0.0000 C   0  0  0  0  0  0  0  0  0  0  0  0
   11.9353   -5.7752    0.0000 C   0  0  0  0  0  0  0  0  0  0  0  0
   11.1103   -5.7752    0.0000 C   0  0  0  0  0  0  0  0  0  0  0  0
   12.4304   -3.6851    0.0000 C   0  0  0  0  0  0  0  0  0  0  0  0
   10.7803   -3.6851    0.0000 C   0  0  0  0  0  0  0  0  0  0  0  0
    9.4603   -5.7202    0.0000 C   0  0  0  0  0  0  0  0  0  0  0  0
   12.1554   -3.1351    0.0000 C   0  0  0  0  0  0  0  0  0  0  0  0
   11.1653   -2.9701    0.0000 C   0  0  0  0  0  0  0  0  0  0  0  0
   15.6755   -3.0801    0.0000 C   0  0  0  0  0  0  0  0  0  0  0  0
   16.5005   -2.2551    0.0000 C   0  0  0  0  0  0  0  0  0  0  0  0
   15.6755   -1.4300    0.0000 C   0  0  0  0  0  0  0  0  0  0  0  0
    8.2502   -6.4352    0.0000 C   0  0  0  0  0  0  0  0  0  0  0  0
    9.9003   -6.4902    0.0000 C   0  0  0  0  0  0  0  0  0  0  0  0
   11.9903   -2.9701    0.0000 C   0  0  0  0  0  0  0  0  0  0  0  0
    6.9852   -5.6652    0.0000 C   0  0  0  0  0  0  0  0  0  0  0  0
    9.4603   -7.1502    0.0000 C   0  0  0  0  0  0  0  0  0  0  0  0
   11.1653   -0.1100    0.0000 C   0  0  0  0  0  0  0  0  0  0  0  0
   11.1653   -1.5401    0.0000 C   0  0  0  0  0  0  0  0  0  0  0  0
    6.1602   -5.6102    0.0000 C   0  0  0  0  0  0  0  0  0  0  0  0
    5.8302   -4.9501    0.0000 C   0  0  0  0  0  0  0  0  0  0  0  0
    7.4802   -4.9501    0.0000 C   0  0  0  0  0  0  0  0  0  0  0  0
    7.0952   -4.2351    0.0000 C   0  0  0  0  0  0  0  0  0  0  0  0
    6.2152   -4.2351    0.0000 C   0  0  0  0  0  0  0  0  0  0  0  0
    4.5652   -5.5551    0.0000 C   0  0  0  0  0  0  0  0  0  0  0  0
    7.0952   -2.8051    0.0000 C   0  0  0  0  0  0  0  0  0  0  0  0
    4.9501   -6.3252    0.0000 C   0  0  0  0  0  0  0  0  0  0  0  0
    3.6851   -6.9852    0.0000 C   0  0  0  0  0  0  0  0  0  0  0  0
    3.2451   -7.7002    0.0000 C   0  0  0  0  0  0  0  0  0  0  0  0
    2.0350   -6.9302    0.0000 C   0  0  0  0  0  0  0  0  0  0  0  0
    1.2100   -6.9302    0.0000 C   0  0  0  0  0  0  0  0  0  0  0  0
    0.0000   -6.2152    0.0000 C   0  0  0  0  0  0  0  0  0  0  0  0
  1  4  2  0  0  0  0
  1  5  2  0  0  0  0
  1 12  1  0  0  0  0
  1 15  1  0  0  0  0
  2 19  1  0  0  0  0
  2 43  1  0  0  0  0
  3 29  1  0  0  0  0
  3 35  1  0  0  0  0
  6 30  2  0  0  0  0
  7 49  1  0  0  0  0
  7 53  1  0  0  0  0
  8 51  1  0  0  0  0
  8 54  1  0  0  0  0
  9 55  1  0  0  0  0
  9 56  1  0  0  0  0
 10 57  1  0  0  0  0
 10 58  1  0  0  0  0
 11 59  1  0  0  0  0
 11 60  1  0  0  0  0
 12 20  1  0  0  0  0
 13 21  1  0  0  0  0
 13 30  1  0  0  0  0
 14 25  1  0  0  0  0
 14 30  1  0  0  0  0
 15 46  1  0  0  0  0
 15 47  1  0  0  0  0
 16 35  2  0  0  0  0
 16 41  1  0  0  0  0
 17 41  1  0  0  0  0
 17 44  1  0  0  0  0
 18 41  2  0  0  0  0
 18 45  1  0  0  0  0
 19 20  1  0  0  0  0
 19 21  2  0  0  0  0
 20 26  2  0  0  0  0
 21 27  1  0  0  0  0
 22 26  1  0  0  0  0
 22 27  2  0  0  0  0
 22 28  1  0  0  0  0
 23 24  2  0  0  0  0
 23 25  1  0  0  0  0
 23 33  1  0  0  0  0
 24 29  1  0  0  0  0
 24 34  1  0  0  0  0
 25 31  2  0  0  0  0
 28 38  1  0  0  0  0
 28 39  1  0  0  0  0
 28 40  1  0  0  0  0
 29 32  2  0  0  0  0
 31 32  1  0  0  0  0
 33 36  2  0  0  0  0
 34 37  2  0  0  0  0
 35 42  1  0  0  0  0
 36 37  1  0  0  0  0
 42 45  2  0  0  0  0
 44 48  2  0  0  0  0
 44 50  1  0  0  0  0
 48 49  1  0  0  0  0
 49 52  2  0  0  0  0
 50 51  2  0  0  0  0
 51 52  1  0  0  0  0
 53 55  1  0  0  0  0
 56 57  1  0  0  0  0
 58 59  1  0  0  0  0
M  END
> <PUBCHEM_COMPOUND_ID_TYPE>
0

> <PUBCHEM_TOTAL_CHARGE>
0

> <PUBCHEM_SUBSTANCE_ID>
310929042

> <PUBCHEM_SUBSTANCE_VERSION>
1

> <PUBCHEM_EXT_DATASOURCE_NAME>
4488

> <PUBCHEM_EXT_DATASOURCE_REGID>
SCHEMBL16106204

> <PUBCHEM_SUBSTANCE_COMMENT>
InChI=1S/C42H53N7O10S/c1-42(2,3)28-23-35(39(55-8)36(24-28)48-60(51,52)49(4)5)46-41(50)45-34-13-14-37(33-12-10-9-11-32(33)34)59-38-15-16-43-40(47-38)44-29-25-30(54-7)27-31(26-29)58-22-21-57-20-19-56-18-17-53-6/h9-16,23-27,48H,17-22H2,1-8H3,(H,43,44,47)(H2,45,46,50)
InChIKey=QOWKUFBXVJBQHQ-UHFFFAOYSA-N

> <PUBCHEM_SUBSTANCE_SYNONYM>
SCHEMBL16106204

> <PUBCHEM_XREF_EXT_ID>
SCHEMBL16106204

> <PUBCHEM_EXT_DATASOURCE_URL>
https://www.surechembl.org/

> <PUBCHEM_EXT_SUBSTANCE_URL>
https://www.surechembl.org/chemical/SCHEMBL16106204

> <PUBCHEM_CID_ASSOCIATIONS>
86272598  1

> <PUBCHEM_COORDINATE_TYPE>
1
3

$$$$
