310943960
  -OEChem-07211613022D

 19 20  0     0  0  0  0  0  0999 V2000
   -0.3646    2.4750    0.0000 F   0  0  0  0  0  0  0  0  0  0  0  0
    1.0808   -0.0064    0.0000 O   0  0  0  0  0  0  0  0  0  0  0  0
    1.7971    2.0402    0.0000 N   0  0  0  0  0  0  0  0  0  0  0  0
   -0.3773   -1.6692    0.0000 N   0  0  0  0  0  0  0  0  0  0  0  0
    0.3517    0.4157    0.0000 C   0  0  0  0  0  0  0  0  0  0  0  0
    0.3646    1.2599    0.0000 C   0  0  0  0  0  0  0  0  0  0  0  0
   -0.3646    0.0064    0.0000 C   0  0  0  0  0  0  0  0  0  0  0  0
   -0.3646    1.6564    0.0000 C   0  0  0  0  0  0  0  0  0  0  0  0
   -1.0808    1.2471    0.0000 C   0  0  0  0  0  0  0  0  0  0  0  0
   -1.0680    0.4029    0.0000 C   0  0  0  0  0  0  0  0  0  0  0  0
    1.0936   -0.8122    0.0000 C   0  0  0  0  0  0  0  0  0  0  0  0
    1.0808    1.6564    0.0000 C   0  0  0  0  0  0  0  0  0  0  0  0
   -0.3773   -0.8506    0.0000 C   0  0  0  0  0  0  0  0  0  0  0  0
   -1.7971    1.6564    0.0000 C   0  0  0  0  0  0  0  0  0  0  0  0
    0.3773   -1.2343    0.0000 C   0  0  0  0  0  0  0  0  0  0  0  0
    1.7971   -1.2343    0.0000 C   0  0  0  0  0  0  0  0  0  0  0  0
    0.3773   -2.0785    0.0000 C   0  0  0  0  0  0  0  0  0  0  0  0
    1.7971   -2.0657    0.0000 C   0  0  0  0  0  0  0  0  0  0  0  0
    1.0808   -2.4750    0.0000 C   0  0  0  0  0  0  0  0  0  0  0  0
  1  8  1  0  0  0  0
  2  5  1  0  0  0  0
  2 11  1  0  0  0  0
  3 12  3  0  0  0  0
  4 13  3  0  0  0  0
  5  6  1  0  0  0  0
  5  7  2  0  0  0  0
  6  8  2  0  0  0  0
  6 12  1  0  0  0  0
  7 10  1  0  0  0  0
  7 13  1  0  0  0  0
  8  9  1  0  0  0  0
  9 10  2  0  0  0  0
  9 14  1  0  0  0  0
 11 15  2  0  0  0  0
 11 16  1  0  0  0  0
 15 17  1  0  0  0  0
 16 18  2  0  0  0  0
 17 19  2  0  0  0  0
 18 19  1  0  0  0  0
M  END
> <PUBCHEM_COMPOUND_ID_TYPE>
0

> <PUBCHEM_TOTAL_CHARGE>
0

> <PUBCHEM_SUBSTANCE_ID>
310943960

> <PUBCHEM_SUBSTANCE_VERSION>
1

> <PUBCHEM_EXT_DATASOURCE_NAME>
4488

> <PUBCHEM_EXT_DATASOURCE_REGID>
SCHEMBL16122031

> <PUBCHEM_SUBSTANCE_COMMENT>
InChI=1S/C15H9FN2O/c1-10-7-11(8-17)15(13(9-18)14(10)16)19-12-5-3-2-4-6-12/h2-7H,1H3
InChIKey=MAPPVOOXZMFKNK-UHFFFAOYSA-N

> <PUBCHEM_SUBSTANCE_SYNONYM>
SCHEMBL16122031

> <PUBCHEM_XREF_EXT_ID>
SCHEMBL16122031

> <PUBCHEM_EXT_DATASOURCE_URL>
https://www.surechembl.org/

> <PUBCHEM_EXT_SUBSTANCE_URL>
https://www.surechembl.org/chemical/SCHEMBL16122031

> <PUBCHEM_CID_ASSOCIATIONS>
117610267  1

> <PUBCHEM_COORDINATE_TYPE>
1
3

$$$$
