310934775
  -OEChem-07211613022D

 43 47  0     0  0  0  0  0  0999 V2000
    4.3963   -3.3739    0.0000 O   0  0  0  0  0  0  0  0  0  0  0  0
    4.2259   -0.3408    0.0000 O   0  0  0  0  0  0  0  0  0  0  0  0
    3.2376   -1.3291    0.0000 O   0  0  0  0  0  0  0  0  0  0  0  0
    6.8159   -2.9650    0.0000 O   0  0  0  0  0  0  0  0  0  0  0  0
    2.9650   -3.1694    0.0000 O   0  0  0  0  0  0  0  0  0  0  0  0
    5.7935   -3.9532    0.0000 O   0  0  0  0  0  0  0  0  0  0  0  0
    1.8744   -0.5112    0.0000 O   0  0  0  0  0  0  0  0  0  0  0  0
    0.1023   -2.7946    0.0000 O   0  0  0  0  0  0  0  0  0  0  0  0
    3.8510   -2.0448    0.0000 N   0  0  0  0  0  0  0  0  0  0  0  0
    5.4187   -2.5560    0.0000 N   0  0  0  0  0  0  0  0  0  0  0  0
    4.6008   -1.7040    0.0000 C   0  0  0  0  0  0  0  0  0  0  0  0
    4.6008   -2.5560    0.0000 C   0  0  0  0  0  0  0  0  0  0  0  0
    5.4528   -1.7040    0.0000 C   0  0  0  0  0  0  0  0  0  0  0  0
    4.0214   -1.1247    0.0000 C   0  0  0  0  0  0  0  0  0  0  0  0
    3.7488   -2.8627    0.0000 C   0  0  0  0  0  0  0  0  0  0  0  0
    3.5102   -4.4985    0.0000 C   0  0  0  0  0  0  0  0  0  0  0  0
    5.9980   -3.1694    0.0000 C   0  0  0  0  0  0  0  0  0  0  0  0
    3.1694   -1.5336    0.0000 C   0  0  0  0  0  0  0  0  0  0  0  0
    2.8286   -4.0555    0.0000 C   0  0  0  0  0  0  0  0  0  0  0  0
    3.3398   -5.2824    0.0000 C   0  0  0  0  0  0  0  0  0  0  0  0
    2.5219   -5.3505    0.0000 C   0  0  0  0  0  0  0  0  0  0  0  0
    2.2152   -4.6349    0.0000 C   0  0  0  0  0  0  0  0  0  0  0  0
    2.4197   -1.8403    0.0000 C   0  0  0  0  0  0  0  0  0  0  0  0
    4.2940   -4.1918    0.0000 C   0  0  0  0  0  0  0  0  0  0  0  0
    2.6582   -3.2717    0.0000 C   0  0  0  0  0  0  0  0  0  0  0  0
    3.8510   -5.9980    0.0000 C   0  0  0  0  0  0  0  0  0  0  0  0
    1.3973   -4.3281    0.0000 C   0  0  0  0  0  0  0  0  0  0  0  0
    2.1471   -6.1684    0.0000 C   0  0  0  0  0  0  0  0  0  0  0  0
    1.7722   -1.3291    0.0000 C   0  0  0  0  0  0  0  0  0  0  0  0
    7.3953   -3.5443    0.0000 C   0  0  0  0  0  0  0  0  0  0  0  0
    2.2833   -2.6582    0.0000 C   0  0  0  0  0  0  0  0  0  0  0  0
    3.4761   -6.7478    0.0000 C   0  0  0  0  0  0  0  0  0  0  0  0
    1.8744   -2.9990    0.0000 C   0  0  0  0  0  0  0  0  0  0  0  0
    2.6242   -6.8159    0.0000 C   0  0  0  0  0  0  0  0  0  0  0  0
    1.2269   -3.5102    0.0000 C   0  0  0  0  0  0  0  0  0  0  0  0
    0.9883   -1.6358    0.0000 C   0  0  0  0  0  0  0  0  0  0  0  0
    0.8520   -2.4878    0.0000 C   0  0  0  0  0  0  0  0  0  0  0  0
    1.5336   -2.9990    0.0000 C   0  0  0  0  0  0  0  0  0  0  0  0
    6.8159   -4.1236    0.0000 C   0  0  0  0  0  0  0  0  0  0  0  0
    7.9747   -4.1236    0.0000 C   0  0  0  0  0  0  0  0  0  0  0  0
    7.9747   -2.9650    0.0000 C   0  0  0  0  0  0  0  0  0  0  0  0
    1.1928    0.0000    0.0000 C   0  0  0  0  0  0  0  0  0  0  0  0
    0.0000   -3.6125    0.0000 C   0  0  0  0  0  0  0  0  0  0  0  0
  1 15  1  0  0  0  0
  1 24  1  0  0  0  0
  2 14  2  0  0  0  0
  3 14  1  0  0  0  0
  4 17  1  0  0  0  0
  4 30  1  0  0  0  0
  5 15  2  0  0  0  0
  6 17  2  0  0  0  0
  7 29  1  0  0  0  0
  7 42  1  0  0  0  0
  8 37  1  0  0  0  0
  8 43  1  0  0  0  0
  9 11  1  0  0  0  0
  9 15  1  0  0  0  0
  9 18  1  0  0  0  0
 10 12  1  0  0  0  0
 10 13  1  0  0  0  0
 10 17  1  0  0  0  0
 11 12  1  0  0  0  0
 11 13  1  0  0  0  0
 11 14  1  0  0  0  0
 16 19  1  0  0  0  0
 16 20  1  0  0  0  0
 16 24  1  0  0  0  0
 18 23  1  0  0  0  0
 19 22  2  0  0  0  0
 19 25  1  0  0  0  0
 20 21  2  0  0  0  0
 20 26  1  0  0  0  0
 21 22  1  0  0  0  0
 21 28  1  0  0  0  0
 22 27  1  0  0  0  0
 23 29  2  0  0  0  0
 23 31  1  0  0  0  0
 25 33  2  0  0  0  0
 26 32  2  0  0  0  0
 27 35  2  0  0  0  0
 28 34  2  0  0  0  0
 29 36  1  0  0  0  0
 30 39  1  0  0  0  0
 30 40  1  0  0  0  0
 30 41  1  0  0  0  0
 31 38  2  0  0  0  0
 32 34  1  0  0  0  0
 33 35  1  0  0  0  0
 36 37  2  0  0  0  0
 37 38  1  0  0  0  0
M  END
> <PUBCHEM_COMPOUND_ID_TYPE>
0

> <PUBCHEM_TOTAL_CHARGE>
0

> <PUBCHEM_SUBSTANCE_ID>
310934775

> <PUBCHEM_SUBSTANCE_VERSION>
1

> <PUBCHEM_EXT_DATASOURCE_NAME>
4488

> <PUBCHEM_EXT_DATASOURCE_REGID>
SCHEMBL16112278

> <PUBCHEM_SUBSTANCE_COMMENT>
InChI=1S/C33H36N2O8/c1-32(2,3)43-30(38)34-19-33(20-34,29(36)37)35(17-21-14-15-22(40-4)16-28(21)41-5)31(39)42-18-27-25-12-8-6-10-23(25)24-11-7-9-13-26(24)27/h6-16,27H,17-20H2,1-5H3,(H,36,37)
InChIKey=PZWWCBHTKYPKHI-UHFFFAOYSA-N

> <PUBCHEM_SUBSTANCE_SYNONYM>
SCHEMBL16112278

> <PUBCHEM_XREF_EXT_ID>
SCHEMBL16112278

> <PUBCHEM_EXT_DATASOURCE_URL>
https://www.surechembl.org/

> <PUBCHEM_EXT_SUBSTANCE_URL>
https://www.surechembl.org/chemical/SCHEMBL16112278

> <PUBCHEM_CID_ASSOCIATIONS>
117602923  1

> <PUBCHEM_COORDINATE_TYPE>
1
3

$$$$
