310932570
  -OEChem-07211613022D

 32 36  0     0  0  0  0  0  0999 V2000
    5.0137   -3.9223    0.0000 F   0  0  0  0  0  0  0  0  0  0  0  0
    3.7517   -3.2060    0.0000 F   0  0  0  0  0  0  0  0  0  0  0  0
    4.6044   -4.6385    0.0000 F   0  0  0  0  0  0  0  0  0  0  0  0
    0.4093   -0.3752    0.0000 O   0  0  0  0  0  0  0  0  0  0  0  0
    5.5935   -2.2510    0.0000 O   0  0  0  0  0  0  0  0  0  0  0  0
    4.2634   -2.8991    0.0000 N   0  0  0  0  0  0  0  0  0  0  0  0
    4.2634   -1.5689    0.0000 N   0  0  0  0  0  0  0  0  0  0  0  0
    1.2960   -5.5594    0.0000 N   0  0  0  0  0  0  0  0  0  0  0  0
    0.0000   -1.1256    0.0000 N   0  0  0  0  0  0  0  0  0  0  0  0
    3.4789   -2.6604    0.0000 C   0  0  0  0  0  0  0  0  0  0  0  0
    2.7286   -3.0696    0.0000 C   0  0  0  0  0  0  0  0  0  0  0  0
    2.7286   -3.9223    0.0000 C   0  0  0  0  0  0  0  0  0  0  0  0
    3.4789   -1.8077    0.0000 C   0  0  0  0  0  0  0  0  0  0  0  0
    3.4448   -4.3316    0.0000 C   0  0  0  0  0  0  0  0  0  0  0  0
    2.0464   -1.8077    0.0000 C   0  0  0  0  0  0  0  0  0  0  0  0
    2.0464   -2.6604    0.0000 C   0  0  0  0  0  0  0  0  0  0  0  0
    2.7286   -1.3984    0.0000 C   0  0  0  0  0  0  0  0  0  0  0  0
    1.3301   -1.3984    0.0000 C   0  0  0  0  0  0  0  0  0  0  0  0
    4.7750   -2.2510    0.0000 C   0  0  0  0  0  0  0  0  0  0  0  0
    2.0123   -4.3316    0.0000 C   0  0  0  0  0  0  0  0  0  0  0  0
    4.1611   -3.9223    0.0000 C   0  0  0  0  0  0  0  0  0  0  0  0
    2.0123   -5.1502    0.0000 C   0  0  0  0  0  0  0  0  0  0  0  0
    2.7286   -5.5594    0.0000 C   0  0  0  0  0  0  0  0  0  0  0  0
    3.4448   -5.1843    0.0000 C   0  0  0  0  0  0  0  0  0  0  0  0
    1.2278   -0.5457    0.0000 C   0  0  0  0  0  0  0  0  0  0  0  0
    0.5798   -1.7395    0.0000 C   0  0  0  0  0  0  0  0  0  0  0  0
    4.5362   -3.7176    0.0000 C   0  0  0  0  0  0  0  0  0  0  0  0
    2.7286   -6.4121    0.0000 C   0  0  0  0  0  0  0  0  0  0  0  0
    1.2619   -6.4121    0.0000 C   0  0  0  0  0  0  0  0  0  0  0  0
    1.9782   -6.8214    0.0000 C   0  0  0  0  0  0  0  0  0  0  0  0
    1.8418    0.0000    0.0000 C   0  0  0  0  0  0  0  0  0  0  0  0
    0.3752   -2.5580    0.0000 C   0  0  0  0  0  0  0  0  0  0  0  0
  1 21  1  0  0  0  0
  2 21  1  0  0  0  0
  3 21  1  0  0  0  0
  4  9  1  0  0  0  0
  4 25  1  0  0  0  0
  5 19  2  0  0  0  0
  6 10  1  0  0  0  0
  6 19  1  0  0  0  0
  6 27  1  0  0  0  0
  7 13  1  0  0  0  0
  7 19  1  0  0  0  0
  8 22  2  0  0  0  0
  8 29  1  0  0  0  0
  9 26  2  0  0  0  0
 10 11  1  0  0  0  0
 10 13  2  0  0  0  0
 11 12  1  0  0  0  0
 11 16  2  0  0  0  0
 12 14  1  0  0  0  0
 12 20  2  0  0  0  0
 13 17  1  0  0  0  0
 14 21  1  0  0  0  0
 14 24  2  0  0  0  0
 15 16  1  0  0  0  0
 15 17  2  0  0  0  0
 15 18  1  0  0  0  0
 18 25  2  0  0  0  0
 18 26  1  0  0  0  0
 20 22  1  0  0  0  0
 22 23  1  0  0  0  0
 23 24  1  0  0  0  0
 23 28  2  0  0  0  0
 25 31  1  0  0  0  0
 26 32  1  0  0  0  0
 28 30  1  0  0  0  0
 29 30  2  0  0  0  0
M  END
> <PUBCHEM_COMPOUND_ID_TYPE>
0

> <PUBCHEM_TOTAL_CHARGE>
0

> <PUBCHEM_SUBSTANCE_ID>
310932570

> <PUBCHEM_SUBSTANCE_VERSION>
1

> <PUBCHEM_EXT_DATASOURCE_NAME>
4488

> <PUBCHEM_EXT_DATASOURCE_REGID>
SCHEMBL16109947

> <PUBCHEM_SUBSTANCE_COMMENT>
InChI=1S/C23H17F3N4O2/c1-11-20(12(2)32-29-11)14-7-16(21-19(9-14)28-22(31)30(21)3)15-10-18-13(5-4-6-27-18)8-17(15)23(24,25)26/h4-10H,1-3H3,(H,28,31)
InChIKey=DIDZCQBGTJOQDR-UHFFFAOYSA-N

> <PUBCHEM_SUBSTANCE_SYNONYM>
SCHEMBL16109947

> <PUBCHEM_XREF_EXT_ID>
SCHEMBL16109947

> <PUBCHEM_EXT_DATASOURCE_URL>
https://www.surechembl.org/

> <PUBCHEM_EXT_SUBSTANCE_URL>
https://www.surechembl.org/chemical/SCHEMBL16109947

> <PUBCHEM_CID_ASSOCIATIONS>
117601093  1

> <PUBCHEM_COORDINATE_TYPE>
1
3

$$$$
