310934522
  -OEChem-07211613022D

 24 25  0     0  0  0  0  0  0999 V2000
    3.5750   -2.4709    0.0000 O   0  0  0  0  0  0  0  0  0  0  0  0
    5.0207   -2.4709    0.0000 O   0  0  0  0  0  0  0  0  0  0  0  0
    0.7097   -0.8149    0.0000 O   0  0  0  0  0  0  0  0  0  0  0  0
    7.8860   -0.8149    0.0000 O   0  0  0  0  0  0  0  0  0  0  0  0
    4.2847   -1.2355    0.0000 O   0  0  0  0  0  0  0  0  0  0  0  0
    3.5487    0.0000    0.0000 O   0  0  0  0  0  0  0  0  0  0  0  0
    7.1500   -3.6801    0.0000 O   0  0  0  0  0  0  0  0  0  0  0  0
    2.8653   -2.0503    0.0000 C   0  0  0  0  0  0  0  0  0  0  0  0
    5.7305   -2.0503    0.0000 C   0  0  0  0  0  0  0  0  0  0  0  0
    2.8653   -1.2355    0.0000 C   0  0  0  0  0  0  0  0  0  0  0  0
    6.4403   -2.4709    0.0000 C   0  0  0  0  0  0  0  0  0  0  0  0
    4.2847   -2.0503    0.0000 C   0  0  0  0  0  0  0  0  0  0  0  0
    1.4195   -1.2355    0.0000 C   0  0  0  0  0  0  0  0  0  0  0  0
    7.1500   -1.2355    0.0000 C   0  0  0  0  0  0  0  0  0  0  0  0
    2.1555   -0.8149    0.0000 C   0  0  0  0  0  0  0  0  0  0  0  0
    7.1500   -2.0503    0.0000 C   0  0  0  0  0  0  0  0  0  0  0  0
    2.1292   -2.4709    0.0000 C   0  0  0  0  0  0  0  0  0  0  0  0
    5.7305   -1.2092    0.0000 C   0  0  0  0  0  0  0  0  0  0  0  0
    1.4195   -2.0503    0.0000 C   0  0  0  0  0  0  0  0  0  0  0  0
    6.4403   -0.8149    0.0000 C   0  0  0  0  0  0  0  0  0  0  0  0
    3.5750   -0.8149    0.0000 C   0  0  0  0  0  0  0  0  0  0  0  0
    6.4403   -3.2859    0.0000 C   0  0  0  0  0  0  0  0  0  0  0  0
    0.0000   -1.2355    0.0000 C   0  0  0  0  0  0  0  0  0  0  0  0
    7.8860    0.0000    0.0000 C   0  0  0  0  0  0  0  0  0  0  0  0
  1  8  1  0  0  0  0
  1 12  1  0  0  0  0
  2  9  1  0  0  0  0
  2 12  1  0  0  0  0
  3 13  1  0  0  0  0
  3 23  1  0  0  0  0
  4 14  1  0  0  0  0
  4 24  1  0  0  0  0
  5 12  2  0  0  0  0
  6 21  2  0  0  0  0
  7 22  2  0  0  0  0
  8 10  1  0  0  0  0
  8 17  2  0  0  0  0
  9 11  1  0  0  0  0
  9 18  2  0  0  0  0
 10 15  2  0  0  0  0
 10 21  1  0  0  0  0
 11 16  2  0  0  0  0
 11 22  1  0  0  0  0
 13 15  1  0  0  0  0
 13 19  2  0  0  0  0
 14 16  1  0  0  0  0
 14 20  2  0  0  0  0
 17 19  1  0  0  0  0
 18 20  1  0  0  0  0
M  END
> <PUBCHEM_COMPOUND_ID_TYPE>
0

> <PUBCHEM_TOTAL_CHARGE>
0

> <PUBCHEM_SUBSTANCE_ID>
310934522

> <PUBCHEM_SUBSTANCE_VERSION>
1

> <PUBCHEM_EXT_DATASOURCE_NAME>
4488

> <PUBCHEM_EXT_DATASOURCE_REGID>
SCHEMBL16112011

> <PUBCHEM_SUBSTANCE_COMMENT>
InChI=1S/C17H14O7/c1-21-13-3-5-15(11(7-13)9-18)23-17(20)24-16-6-4-14(22-2)8-12(16)10-19/h3-10H,1-2H3
InChIKey=WIXUDZLZLWDVAC-UHFFFAOYSA-N

> <PUBCHEM_SUBSTANCE_SYNONYM>
SCHEMBL16112011

> <PUBCHEM_XREF_EXT_ID>
SCHEMBL16112011

> <PUBCHEM_EXT_DATASOURCE_URL>
https://www.surechembl.org/

> <PUBCHEM_EXT_SUBSTANCE_URL>
https://www.surechembl.org/chemical/SCHEMBL16112011

> <PUBCHEM_CID_ASSOCIATIONS>
117602720  1

> <PUBCHEM_COORDINATE_TYPE>
1
3

$$$$
