310949979
  -OEChem-07211613022D

 24 27  0     1  0  0  0  0  0999 V2000
    0.2979   -0.8382    0.0000 N   0  0  0  0  0  0  0  0  0  0  0  0
   -1.8636    0.4088    0.0000 N   0  0  0  0  0  0  0  0  0  0  0  0
   -3.3045    1.2401    0.0000 N   0  0  0  0  0  0  0  0  0  0  0  0
    3.1660    0.0069    0.0000 C   0  0  0  0  0  0  0  0  0  0  0  0
    2.4317    0.3949    0.0000 C   0  0  3  0  0  0  0  0  0  0  0  0
    3.1660   -0.8244    0.0000 C   0  0  3  0  0  0  0  0  0  0  0  0
    2.5148   -0.3671    0.0000 C   0  0  0  0  0  0  0  0  0  0  0  0
    1.7250   -0.8382    0.0000 C   0  0  0  0  0  0  0  0  0  0  0  0
    1.7389   -0.0069    0.0000 C   0  0  0  0  0  0  0  0  0  0  0  0
    2.4317   -1.2401    0.0000 C   0  0  0  0  0  0  0  0  0  0  0  0
    3.5678    0.7274    0.0000 C   0  0  0  0  0  0  0  0  0  0  0  0
    4.0112    0.0069    0.0000 C   0  0  0  0  0  0  0  0  0  0  0  0
    1.0184   -1.2401    0.0000 C   0  0  0  0  0  0  0  0  0  0  0  0
   -1.1431   -0.0069    0.0000 C   0  0  0  0  0  0  0  0  0  0  0  0
    0.2840   -0.0069    0.0000 C   0  0  0  0  0  0  0  0  0  0  0  0
   -0.4088   -1.2401    0.0000 C   0  0  0  0  0  0  0  0  0  0  0  0
   -2.5841    0.0069    0.0000 C   0  0  0  0  0  0  0  0  0  0  0  0
   -1.1431   -0.8244    0.0000 C   0  0  0  0  0  0  0  0  0  0  0  0
   -0.4503    0.4088    0.0000 C   0  0  0  0  0  0  0  0  0  0  0  0
   -3.3045    0.4088    0.0000 C   0  0  0  0  0  0  0  0  0  0  0  0
   -2.5841   -0.8382    0.0000 C   0  0  0  0  0  0  0  0  0  0  0  0
   -4.0112   -0.0069    0.0000 C   0  0  0  0  0  0  0  0  0  0  0  0
   -3.2907   -1.2401    0.0000 C   0  0  0  0  0  0  0  0  0  0  0  0
   -4.0112   -0.8382    0.0000 C   0  0  0  0  0  0  0  0  0  0  0  0
  1 13  1  0  0  0  0
  1 15  1  0  0  0  0
  1 16  1  0  0  0  0
  2 14  1  0  0  0  0
  2 17  1  0  0  0  0
  3 20  1  0  0  0  0
  4  5  1  0  0  0  0
  4  6  1  0  0  0  0
  4 11  1  0  0  0  0
  4 12  1  0  0  0  0
  5  7  1  0  0  0  0
  5  9  1  1  0  0  0
  6  7  1  0  0  0  0
  6 10  1  1  0  0  0
  8  9  1  0  0  0  0
  8 10  1  0  0  0  0
  8 13  1  1  0  0  0
 14 18  1  0  0  0  0
 14 19  1  0  0  0  0
 15 19  1  0  0  0  0
 16 18  1  0  0  0  0
 17 20  2  0  0  0  0
 17 21  1  0  0  0  0
 20 22  1  0  0  0  0
 21 23  2  0  0  0  0
 22 24  2  0  0  0  0
 23 24  1  0  0  0  0
M  END
> <PUBCHEM_COMPOUND_ID_TYPE>
0

> <PUBCHEM_TOTAL_CHARGE>
0

> <PUBCHEM_SUBSTANCE_ID>
310949979

> <PUBCHEM_SUBSTANCE_VERSION>
1

> <PUBCHEM_EXT_DATASOURCE_NAME>
4488

> <PUBCHEM_EXT_DATASOURCE_REGID>
SCHEMBL16128208

> <PUBCHEM_SUBSTANCE_COMMENT>
InChI=1S/C21H33N3/c1-21(2)16-11-15(12-17(21)13-16)14-24-9-7-18(8-10-24)23-20-6-4-3-5-19(20)22/h3-6,15-18,23H,7-14,22H2,1-2H3/t15-,16+,17-
InChIKey=FZMVAZAQWIAZMA-BJWYYQGGSA-N

> <PUBCHEM_SUBSTANCE_SYNONYM>
SCHEMBL16128208

> <PUBCHEM_XREF_EXT_ID>
SCHEMBL16128208

> <PUBCHEM_EXT_DATASOURCE_URL>
https://www.surechembl.org/

> <PUBCHEM_EXT_SUBSTANCE_URL>
https://www.surechembl.org/chemical/SCHEMBL16128208

> <PUBCHEM_CID_ASSOCIATIONS>
117615219  1

> <PUBCHEM_COORDINATE_TYPE>
1
3

> <PUBCHEM_BONDANNOTATIONS>
5  9  5
6  10  5
8  13  5

$$$$
