310943182
  -OEChem-07211613022D

 34 37  0     0  0  0  0  0  0999 V2000
    4.6251    1.4508    0.0000 F   0  0  0  0  0  0  0  0  0  0  0  0
    5.4352    0.8470    0.0000 F   0  0  0  0  0  0  0  0  0  0  0  0
    5.3468    0.2136    0.0000 F   0  0  0  0  0  0  0  0  0  0  0  0
   -4.0064   -1.0384    0.0000 O   0  0  0  0  0  0  0  0  0  0  0  0
    1.0311   -0.6260    0.0000 O   0  0  0  0  0  0  0  0  0  0  0  0
   -5.4352    1.4508    0.0000 O   0  0  0  0  0  0  0  0  0  0  0  0
   -2.5629   -1.0384    0.0000 N   0  0  0  0  0  0  0  0  0  0  0  0
   -4.0064    0.6260    0.0000 N   0  0  0  0  0  0  0  0  0  0  0  0
   -0.4124    1.8780    0.0000 N   0  0  0  0  0  0  0  0  0  0  0  0
    1.7381    0.6260    0.0000 N   0  0  0  0  0  0  0  0  0  0  0  0
   -1.8412    0.2136    0.0000 C   0  0  0  0  0  0  0  0  0  0  0  0
   -1.1342    0.6260    0.0000 C   0  0  0  0  0  0  0  0  0  0  0  0
   -3.2847    0.2136    0.0000 C   0  0  0  0  0  0  0  0  0  0  0  0
   -3.2847   -0.5965    0.0000 C   0  0  0  0  0  0  0  0  0  0  0  0
   -2.5777    0.6260    0.0000 C   0  0  0  0  0  0  0  0  0  0  0  0
   -1.8559   -0.6260    0.0000 C   0  0  0  0  0  0  0  0  0  0  0  0
   -1.1194    1.4508    0.0000 C   0  0  0  0  0  0  0  0  0  0  0  0
    0.2946    0.6260    0.0000 C   0  0  0  0  0  0  0  0  0  0  0  0
   -0.4124    0.2136    0.0000 C   0  0  0  0  0  0  0  0  0  0  0  0
    1.0163    0.2430    0.0000 C   0  0  0  0  0  0  0  0  0  0  0  0
    0.3093    1.4656    0.0000 C   0  0  0  0  0  0  0  0  0  0  0  0
    2.4746    0.2136    0.0000 C   0  0  0  0  0  0  0  0  0  0  0  0
    3.8886    0.2136    0.0000 C   0  0  0  0  0  0  0  0  0  0  0  0
   -4.0064    1.4508    0.0000 C   0  0  0  0  0  0  0  0  0  0  0  0
   -4.6987    0.2283    0.0000 C   0  0  0  0  0  0  0  0  0  0  0  0
    4.6398    0.6407    0.0000 C   0  0  0  0  0  0  0  0  0  0  0  0
    3.1816    0.6113    0.0000 C   0  0  0  0  0  0  0  0  0  0  0  0
   -2.5482   -1.8780    0.0000 C   0  0  0  0  0  0  0  0  0  0  0  0
   -1.8559    1.8486    0.0000 C   0  0  0  0  0  0  0  0  0  0  0  0
    2.4746   -0.6113    0.0000 C   0  0  0  0  0  0  0  0  0  0  0  0
    3.9033   -0.6113    0.0000 C   0  0  0  0  0  0  0  0  0  0  0  0
   -4.7135    1.8780    0.0000 C   0  0  0  0  0  0  0  0  0  0  0  0
   -5.4352    0.6260    0.0000 C   0  0  0  0  0  0  0  0  0  0  0  0
    3.1963   -1.0237    0.0000 C   0  0  0  0  0  0  0  0  0  0  0  0
  1 26  1  0  0  0  0
  2 26  1  0  0  0  0
  3 26  1  0  0  0  0
  4 14  2  0  0  0  0
  5 20  2  0  0  0  0
  6 32  1  0  0  0  0
  6 33  1  0  0  0  0
  7 14  1  0  0  0  0
  7 16  1  0  0  0  0
  7 28  1  0  0  0  0
  8 13  1  0  0  0  0
  8 24  1  0  0  0  0
  8 25  1  0  0  0  0
  9 17  1  0  0  0  0
  9 21  2  0  0  0  0
 10 20  1  0  0  0  0
 10 22  1  0  0  0  0
 11 12  1  0  0  0  0
 11 15  1  0  0  0  0
 11 16  2  0  0  0  0
 12 17  2  0  0  0  0
 12 19  1  0  0  0  0
 13 14  1  0  0  0  0
 13 15  2  0  0  0  0
 17 29  1  0  0  0  0
 18 19  2  0  0  0  0
 18 20  1  0  0  0  0
 18 21  1  0  0  0  0
 22 27  1  0  0  0  0
 22 30  2  0  0  0  0
 23 26  1  0  0  0  0
 23 27  2  0  0  0  0
 23 31  1  0  0  0  0
 24 32  1  0  0  0  0
 25 33  1  0  0  0  0
 30 34  1  0  0  0  0
 31 34  2  0  0  0  0
M  END
> <PUBCHEM_COMPOUND_ID_TYPE>
0

> <PUBCHEM_TOTAL_CHARGE>
0

> <PUBCHEM_SUBSTANCE_ID>
310943182

> <PUBCHEM_SUBSTANCE_VERSION>
1

> <PUBCHEM_EXT_DATASOURCE_NAME>
4488

> <PUBCHEM_EXT_DATASOURCE_REGID>
SCHEMBL16121243

> <PUBCHEM_SUBSTANCE_COMMENT>
InChI=1S/C24H23F3N4O3/c1-15-20(17-11-21(23(33)30(2)14-17)31-6-8-34-9-7-31)10-16(13-28-15)22(32)29-19-5-3-4-18(12-19)24(25,26)27/h3-5,10-14H,6-9H2,1-2H3,(H,29,32)
InChIKey=UFUQHYGKPCPABK-UHFFFAOYSA-N

> <PUBCHEM_SUBSTANCE_SYNONYM>
SCHEMBL16121243

> <PUBCHEM_XREF_EXT_ID>
SCHEMBL16121243

> <PUBCHEM_EXT_DATASOURCE_URL>
https://www.surechembl.org/

> <PUBCHEM_EXT_SUBSTANCE_URL>
https://www.surechembl.org/chemical/SCHEMBL16121243

> <PUBCHEM_CID_ASSOCIATIONS>
117609610  1

> <PUBCHEM_COORDINATE_TYPE>
1
3

$$$$
