310929004
  -OEChem-07211613022D

 10 10  0     0  0  0  0  0  0999 V2000
   -1.3121   -0.9245    0.0000 O   0  0  0  0  0  0  0  0  0  0  0  0
    1.0101    0.0675    0.0000 O   0  0  0  0  0  0  0  0  0  0  0  0
    0.2956    1.3050    0.0000 O   0  0  0  0  0  0  0  0  0  0  0  0
   -1.1725    0.4031    0.0000 N   0  0  0  0  0  0  0  0  0  0  0  0
    0.1080   -1.3050    0.0000 N   0  0  0  0  0  0  0  0  0  0  0  0
   -0.4189    0.0675    0.0000 C   0  0  0  0  0  0  0  0  0  0  0  0
   -0.5051   -0.7530    0.0000 C   0  0  0  0  0  0  0  0  0  0  0  0
    0.2956    0.4800    0.0000 C   0  0  0  0  0  0  0  0  0  0  0  0
   -1.7246   -0.2100    0.0000 C   0  0  0  0  0  0  0  0  0  0  0  0
    1.7246    0.4800    0.0000 C   0  0  0  0  0  0  0  0  0  0  0  0
  1  7  1  0  0  0  0
  1  9  1  0  0  0  0
  2  8  1  0  0  0  0
  2 10  1  0  0  0  0
  3  8  2  0  0  0  0
  4  6  1  0  0  0  0
  4  9  2  0  0  0  0
  5  7  1  0  0  0  0
  6  7  2  0  0  0  0
  6  8  1  0  0  0  0
M  END
> <PUBCHEM_COMPOUND_ID_TYPE>
0

> <PUBCHEM_TOTAL_CHARGE>
0

> <PUBCHEM_SUBSTANCE_ID>
310929004

> <PUBCHEM_SUBSTANCE_VERSION>
1

> <PUBCHEM_EXT_DATASOURCE_NAME>
11752

> <PUBCHEM_EXT_DATASOURCE_REGID>
BD328141

> <PUBCHEM_SUBSTANCE_SYNONYM>
63820-04-2
Methyl 5-aminooxazole-4-carboxylate

> <PUBCHEM_GENERIC_REGISTRY_NAME>
63820-04-2

> <PUBCHEM_XREF_EXT_ID>
BD328141

> <PUBCHEM_EXT_DATASOURCE_URL>
http://www.bidepharmatech.com/en/index.html

> <PUBCHEM_EXT_SUBSTANCE_URL>
http://www.bidepharmatech.com/en/goodsview_goodscode_BD328141.html

> <PUBCHEM_CID_ASSOCIATIONS>
55291159  1

> <PUBCHEM_COORDINATE_TYPE>
1
3

$$$$
