310942597
  -OEChem-07211613022D

 33 38  0     1  0  0  0  0  0999 V2000
    0.6570    2.5973    0.0000 Br  0  0  0  0  0  0  0  0  0  0  0  0
    2.6736    2.8111    0.0000 Cl  0  0  0  0  0  0  0  0  0  0  0  0
    0.5042    0.1375    0.0000 O   0  0  0  0  0  0  0  0  0  0  0  0
    1.2069   -1.9250    0.0000 O   0  0  0  0  0  0  0  0  0  0  0  0
   -0.1375   -1.9250    0.0000 O   0  0  0  0  0  0  0  0  0  0  0  0
   -0.3514    2.2611    0.0000 O   0  0  0  0  0  0  0  0  0  0  0  0
   -1.7569   -0.2903    0.0000 O   0  0  0  0  0  0  0  0  0  0  0  0
    1.1917    0.4583    0.0000 N   0  0  0  0  0  0  0  0  0  0  0  0
   -0.8709    0.8555    0.0000 N   0  0  0  0  0  0  0  0  0  0  0  0
    2.6736    0.3208    0.0000 N   0  0  0  0  0  0  0  0  0  0  0  0
    3.3916    1.5889    0.0000 N   0  0  0  0  0  0  0  0  0  0  0  0
    0.9319   -1.1153    0.0000 C   0  0  3  0  0  0  0  0  0  0  0  0
    1.1917   -0.3208    0.0000 C   0  0  3  0  0  0  0  0  0  0  0  0
    0.1223   -1.1153    0.0000 C   0  0  3  0  0  0  0  0  0  0  0  0
   -0.1223   -0.3208    0.0000 C   0  0  3  0  0  0  0  0  0  0  0  0
    1.9403    0.7639    0.0000 C   0  0  0  0  0  0  0  0  0  0  0  0
    0.5195   -2.3986    0.0000 C   0  0  0  0  0  0  0  0  0  0  0  0
    1.9555    1.5889    0.0000 C   0  0  0  0  0  0  0  0  0  0  0  0
    0.7027    1.1764    0.0000 C   0  0  0  0  0  0  0  0  0  0  0  0
    1.1764    1.8486    0.0000 C   0  0  0  0  0  0  0  0  0  0  0  0
   -0.1528    0.4736    0.0000 C   0  0  0  0  0  0  0  0  0  0  0  0
   -0.9930    1.6805    0.0000 C   0  0  0  0  0  0  0  0  0  0  0  0
   -1.6041    0.5806    0.0000 C   0  0  0  0  0  0  0  0  0  0  0  0
    2.6736    2.0014    0.0000 C   0  0  0  0  0  0  0  0  0  0  0  0
   -1.7723    1.8792    0.0000 C   0  0  0  0  0  0  0  0  0  0  0  0
   -2.1542    1.1458    0.0000 C   0  0  0  0  0  0  0  0  0  0  0  0
   -0.1833   -2.8111    0.0000 C   0  0  0  0  0  0  0  0  0  0  0  0
    1.2681   -2.8111    0.0000 C   0  0  0  0  0  0  0  0  0  0  0  0
    3.3916    0.7639    0.0000 C   0  0  0  0  0  0  0  0  0  0  0  0
   -2.1847    2.5666    0.0000 C   0  0  0  0  0  0  0  0  0  0  0  0
   -2.9792    1.1458    0.0000 C   0  0  0  0  0  0  0  0  0  0  0  0
   -3.0097    2.5514    0.0000 C   0  0  0  0  0  0  0  0  0  0  0  0
   -3.3916    1.8180    0.0000 C   0  0  0  0  0  0  0  0  0  0  0  0
  1 20  1  0  0  0  0
  2 24  1  0  0  0  0
 13  3  1  6  0  0  0
  3 15  1  0  0  0  0
 12  4  1  6  0  0  0
  4 17  1  0  0  0  0
 14  5  1  6  0  0  0
  5 17  1  0  0  0  0
  6 22  2  0  0  0  0
  7 23  2  0  0  0  0
  8 13  1  0  0  0  0
  8 16  1  0  0  0  0
  8 19  1  0  0  0  0
  9 21  1  0  0  0  0
  9 22  1  0  0  0  0
  9 23  1  0  0  0  0
 10 16  1  0  0  0  0
 10 29  2  0  0  0  0
 11 24  2  0  0  0  0
 11 29  1  0  0  0  0
 12 13  1  0  0  0  0
 12 14  1  0  0  0  0
 14 15  1  0  0  0  0
 15 21  1  1  0  0  0
 16 18  2  0  0  0  0
 17 27  1  0  0  0  0
 17 28  1  0  0  0  0
 18 20  1  0  0  0  0
 18 24  1  0  0  0  0
 19 20  2  0  0  0  0
 22 25  1  0  0  0  0
 23 26  1  0  0  0  0
 25 26  2  0  0  0  0
 25 30  1  0  0  0  0
 26 31  1  0  0  0  0
 30 32  2  0  0  0  0
 31 33  2  0  0  0  0
 32 33  1  0  0  0  0
M  END
> <PUBCHEM_COMPOUND_ID_TYPE>
0

> <PUBCHEM_TOTAL_CHARGE>
0

> <PUBCHEM_SUBSTANCE_ID>
310942597

> <PUBCHEM_SUBSTANCE_VERSION>
1

> <PUBCHEM_EXT_DATASOURCE_NAME>
4488

> <PUBCHEM_EXT_DATASOURCE_REGID>
SCHEMBL16120642

> <PUBCHEM_SUBSTANCE_COMMENT>
InChI=1S/C22H18BrClN4O5/c1-22(2)32-15-13(8-28-19(29)10-5-3-4-6-11(10)20(28)30)31-21(16(15)33-22)27-7-12(23)14-17(24)25-9-26-18(14)27/h3-7,9,13,15-16,21H,8H2,1-2H3/t13-,15-,16-,21-/m1/s1
InChIKey=RHNBQVTWTPGPCB-GJDPQZJCSA-N

> <PUBCHEM_SUBSTANCE_SYNONYM>
SCHEMBL16120642

> <PUBCHEM_XREF_EXT_ID>
SCHEMBL16120642

> <PUBCHEM_EXT_DATASOURCE_URL>
https://www.surechembl.org/

> <PUBCHEM_EXT_SUBSTANCE_URL>
https://www.surechembl.org/chemical/SCHEMBL16120642

> <PUBCHEM_CID_ASSOCIATIONS>
117609136  1

> <PUBCHEM_COORDINATE_TYPE>
1
3

> <PUBCHEM_BONDANNOTATIONS>
15  21  5
13  3  6
12  4  6
14  5  6

$$$$
