310933996
  -OEChem-07211613022D

 25 28  0     0  0  0  0  0  0999 V2000
    1.5018   -1.9729    0.0000 O   0  0  0  0  0  0  0  0  0  0  0  0
    0.0000   -2.6502    0.0000 O   0  0  0  0  0  0  0  0  0  0  0  0
    2.0907   -4.0931    0.0000 N   0  0  0  0  0  0  0  0  0  0  0  0
    2.8857   -4.3581    0.0000 N   0  0  0  0  0  0  0  0  0  0  0  0
    4.6231   -2.9741    0.0000 N   0  0  0  0  0  0  0  0  0  0  0  0
    5.4475   -1.5312    0.0000 N   0  0  0  0  0  0  0  0  0  0  0  0
    0.6772   -3.1213    0.0000 N   0  0  0  0  0  0  0  0  0  0  0  0
    2.0907   -3.2685    0.0000 C   0  0  0  0  0  0  0  0  0  0  0  0
    3.3569   -3.6808    0.0000 C   0  0  0  0  0  0  0  0  0  0  0  0
    2.8857   -3.0035    0.0000 C   0  0  0  0  0  0  0  0  0  0  0  0
    1.4429   -4.5642    0.0000 C   0  0  0  0  0  0  0  0  0  0  0  0
    1.4429   -2.7974    0.0000 C   0  0  0  0  0  0  0  0  0  0  0  0
    4.1814   -3.6808    0.0000 C   0  0  0  0  0  0  0  0  0  0  0  0
    5.8598   -0.8245    0.0000 C   0  0  0  0  0  0  0  0  0  0  0  0
    1.5018   -5.4181    0.0000 C   0  0  0  0  0  0  0  0  0  0  0  0
    0.6772   -4.2403    0.0000 C   0  0  0  0  0  0  0  0  0  0  0  0
    5.4475   -2.9741    0.0000 C   0  0  0  0  0  0  0  0  0  0  0  0
    4.2108   -2.2379    0.0000 C   0  0  0  0  0  0  0  0  0  0  0  0
    4.6231   -1.5312    0.0000 C   0  0  0  0  0  0  0  0  0  0  0  0
    5.8598   -2.2674    0.0000 C   0  0  0  0  0  0  0  0  0  0  0  0
    5.8598    0.0000    0.0000 C   0  0  0  0  0  0  0  0  0  0  0  0
    6.5960   -0.3828    0.0000 C   0  0  0  0  0  0  0  0  0  0  0  0
    0.8539   -5.8892    0.0000 C   0  0  0  0  0  0  0  0  0  0  0  0
    0.0000   -4.7114    0.0000 C   0  0  0  0  0  0  0  0  0  0  0  0
    0.0883   -5.5359    0.0000 C   0  0  0  0  0  0  0  0  0  0  0  0
  1 12  2  0  0  0  0
  2  7  1  0  0  0  0
  3  4  1  0  0  0  0
  3  8  1  0  0  0  0
  3 11  1  0  0  0  0
  4  9  2  0  0  0  0
  5 13  1  0  0  0  0
  5 17  1  0  0  0  0
  5 18  1  0  0  0  0
  6 14  1  0  0  0  0
  6 19  1  0  0  0  0
  6 20  1  0  0  0  0
  7 12  1  0  0  0  0
  8 10  2  0  0  0  0
  8 12  1  0  0  0  0
  9 10  1  0  0  0  0
  9 13  1  0  0  0  0
 11 15  2  0  0  0  0
 11 16  1  0  0  0  0
 14 21  1  0  0  0  0
 14 22  1  0  0  0  0
 15 23  1  0  0  0  0
 16 24  2  0  0  0  0
 17 20  1  0  0  0  0
 18 19  1  0  0  0  0
 21 22  1  0  0  0  0
 23 25  2  0  0  0  0
 24 25  1  0  0  0  0
M  END
> <PUBCHEM_COMPOUND_ID_TYPE>
0

> <PUBCHEM_TOTAL_CHARGE>
0

> <PUBCHEM_SUBSTANCE_ID>
310933996

> <PUBCHEM_SUBSTANCE_VERSION>
1

> <PUBCHEM_EXT_DATASOURCE_NAME>
4488

> <PUBCHEM_EXT_DATASOURCE_REGID>
SCHEMBL16111440

> <PUBCHEM_SUBSTANCE_COMMENT>
InChI=1S/C18H23N5O2/c24-18(20-25)17-12-14(19-23(17)16-4-2-1-3-5-16)13-21-8-10-22(11-9-21)15-6-7-15/h1-5,12,15,25H,6-11,13H2,(H,20,24)
InChIKey=JHHKTMAVDMRADW-UHFFFAOYSA-N

> <PUBCHEM_SUBSTANCE_SYNONYM>
SCHEMBL16111440

> <PUBCHEM_XREF_EXT_ID>
SCHEMBL16111440

> <PUBCHEM_EXT_DATASOURCE_URL>
https://www.surechembl.org/

> <PUBCHEM_EXT_SUBSTANCE_URL>
https://www.surechembl.org/chemical/SCHEMBL16111440

> <PUBCHEM_CID_ASSOCIATIONS>
86292242  1

> <PUBCHEM_COORDINATE_TYPE>
1
3

$$$$
