310941862
  -OEChem-07211613022D

 16 17  0     0  0  0  0  0  0999 V2000
    1.0855   -1.0787    0.0000 Br  0  0  0  0  0  0  0  0  0  0  0  0
    0.6046    0.3917    0.0000 O   0  0  0  0  0  0  0  0  0  0  0  0
    3.0918    0.3092    0.0000 N   0  0  0  0  0  0  0  0  0  0  0  0
    1.4429    0.3642    0.0000 C   0  0  0  0  0  0  0  0  0  0  0  0
    1.8138   -0.3504    0.0000 C   0  0  0  0  0  0  0  0  0  0  0  0
   -0.6459   -0.2817    0.0000 C   0  0  0  0  0  0  0  0  0  0  0  0
    1.8826    1.0787    0.0000 C   0  0  0  0  0  0  0  0  0  0  0  0
    0.1786   -0.2954    0.0000 C   0  0  0  0  0  0  0  0  0  0  0  0
    2.6521   -0.3917    0.0000 C   0  0  0  0  0  0  0  0  0  0  0  0
    2.6933    1.0512    0.0000 C   0  0  0  0  0  0  0  0  0  0  0  0
   -1.0443    0.4466    0.0000 C   0  0  0  0  0  0  0  0  0  0  0  0
   -1.0855   -0.9825    0.0000 C   0  0  0  0  0  0  0  0  0  0  0  0
   -2.2811   -0.2543    0.0000 C   0  0  0  0  0  0  0  0  0  0  0  0
   -1.8276    0.4741    0.0000 C   0  0  0  0  0  0  0  0  0  0  0  0
   -1.9101   -0.9550    0.0000 C   0  0  0  0  0  0  0  0  0  0  0  0
   -3.0918   -0.2130    0.0000 C   0  0  0  0  0  0  0  0  0  0  0  0
  1  5  1  0  0  0  0
  2  4  1  0  0  0  0
  2  8  1  0  0  0  0
  3  9  1  0  0  0  0
  3 10  2  0  0  0  0
  4  5  1  0  0  0  0
  4  7  2  0  0  0  0
  5  9  2  0  0  0  0
  6  8  1  1  0  0  0
  6 11  1  0  0  0  0
  6 12  1  0  0  0  0
  7 10  1  0  0  0  0
 11 14  1  0  0  0  0
 12 15  1  0  0  0  0
 13 14  1  0  0  0  0
 13 15  1  0  0  0  0
 13 16  1  6  0  0  0
M  END
> <PUBCHEM_COMPOUND_ID_TYPE>
0

> <PUBCHEM_TOTAL_CHARGE>
0

> <PUBCHEM_SUBSTANCE_ID>
310941862

> <PUBCHEM_SUBSTANCE_VERSION>
1

> <PUBCHEM_EXT_DATASOURCE_NAME>
4488

> <PUBCHEM_EXT_DATASOURCE_REGID>
SCHEMBL16119894

> <PUBCHEM_SUBSTANCE_COMMENT>
InChI=1S/C13H18BrNO/c1-10-2-4-11(5-3-10)9-16-13-6-7-15-8-12(13)14/h6-8,10-11H,2-5,9H2,1H3/t10-,11-
InChIKey=RFECRXSITWDUIG-XYPYZODXSA-N

> <PUBCHEM_SUBSTANCE_SYNONYM>
SCHEMBL16119894

> <PUBCHEM_XREF_EXT_ID>
SCHEMBL16119894

> <PUBCHEM_EXT_DATASOURCE_URL>
https://www.surechembl.org/

> <PUBCHEM_EXT_SUBSTANCE_URL>
https://www.surechembl.org/chemical/SCHEMBL16119894

> <PUBCHEM_CID_ASSOCIATIONS>
117608600  1

> <PUBCHEM_COORDINATE_TYPE>
1
3

> <PUBCHEM_BONDANNOTATIONS>
13  16  6
6  8  5

$$$$
