310935260
  -OEChem-07211613022D

 22 23  0     0  0  0  0  0  0999 V2000
    1.6729   -3.3916    0.0000 O   0  0  0  0  0  0  0  0  0  0  0  0
    2.9104   -1.2375    0.0000 O   0  0  0  0  0  0  0  0  0  0  0  0
    1.6729   -1.9479    0.0000 O   0  0  0  0  0  0  0  0  0  0  0  0
    6.1645   -0.4354    0.0000 O   0  0  0  0  0  0  0  0  0  0  0  0
    6.8749   -1.6729    0.0000 O   0  0  0  0  0  0  0  0  0  0  0  0
    4.5603   -2.6812    0.0000 N   0  0  0  0  0  0  0  0  0  0  0  0
    5.3853   -2.4979    0.0000 N   0  0  0  0  0  0  0  0  0  0  0  0
    4.1479   -1.9708    0.0000 C   0  0  0  0  0  0  0  0  0  0  0  0
    3.3229   -1.9708    0.0000 C   0  0  0  0  0  0  0  0  0  0  0  0
    2.9104   -2.6812    0.0000 C   0  0  0  0  0  0  0  0  0  0  0  0
    3.3229   -3.3916    0.0000 C   0  0  0  0  0  0  0  0  0  0  0  0
    5.4541   -1.6729    0.0000 C   0  0  0  0  0  0  0  0  0  0  0  0
    4.6978   -1.3291    0.0000 C   0  0  0  0  0  0  0  0  0  0  0  0
    4.1479   -3.3916    0.0000 C   0  0  0  0  0  0  0  0  0  0  0  0
    2.0625   -2.6812    0.0000 C   0  0  0  0  0  0  0  0  0  0  0  0
    6.1645   -1.2604    0.0000 C   0  0  0  0  0  0  0  0  0  0  0  0
    0.8250   -3.3916    0.0000 C   0  0  0  0  0  0  0  0  0  0  0  0
    2.9104   -4.1249    0.0000 C   0  0  0  0  0  0  0  0  0  0  0  0
    0.8250   -2.5437    0.0000 C   0  0  0  0  0  0  0  0  0  0  0  0
    0.0000   -3.3916    0.0000 C   0  0  0  0  0  0  0  0  0  0  0  0
    0.8250   -4.2166    0.0000 C   0  0  0  0  0  0  0  0  0  0  0  0
    6.8749    0.0000    0.0000 C   0  0  0  0  0  0  0  0  0  0  0  0
  1 15  1  0  0  0  0
  1 17  1  0  0  0  0
  2  9  1  0  0  0  0
  3 15  2  0  0  0  0
  4 16  1  0  0  0  0
  4 22  1  0  0  0  0
  5 16  2  0  0  0  0
  6  7  1  0  0  0  0
  6  8  1  0  0  0  0
  6 14  1  0  0  0  0
  7 12  2  0  0  0  0
  8  9  1  0  0  0  0
  8 13  2  0  0  0  0
  9 10  2  0  0  0  0
 10 11  1  0  0  0  0
 10 15  1  0  0  0  0
 11 14  2  0  0  0  0
 11 18  1  0  0  0  0
 12 13  1  0  0  0  0
 12 16  1  0  0  0  0
 17 19  1  0  0  0  0
 17 20  1  0  0  0  0
 17 21  1  0  0  0  0
M  END
> <PUBCHEM_COMPOUND_ID_TYPE>
0

> <PUBCHEM_TOTAL_CHARGE>
0

> <PUBCHEM_SUBSTANCE_ID>
310935260

> <PUBCHEM_SUBSTANCE_VERSION>
1

> <PUBCHEM_EXT_DATASOURCE_NAME>
4488

> <PUBCHEM_EXT_DATASOURCE_REGID>
SCHEMBL16112790

> <PUBCHEM_SUBSTANCE_COMMENT>
InChI=1S/C15H18N2O5/c1-8-7-17-10(6-9(16-17)13(19)21-5)12(18)11(8)14(20)22-15(2,3)4/h6-7,18H,1-5H3
InChIKey=FPFKUXUEIJJHFQ-UHFFFAOYSA-N

> <PUBCHEM_SUBSTANCE_SYNONYM>
SCHEMBL16112790

> <PUBCHEM_XREF_EXT_ID>
SCHEMBL16112790

> <PUBCHEM_EXT_DATASOURCE_URL>
https://www.surechembl.org/

> <PUBCHEM_EXT_SUBSTANCE_URL>
https://www.surechembl.org/chemical/SCHEMBL16112790

> <PUBCHEM_CID_ASSOCIATIONS>
117603333  1

> <PUBCHEM_COORDINATE_TYPE>
1
3

$$$$
