310938336
  -OEChem-07211613022D

 20 20  0     0  0  0  0  0  0999 V2000
    1.2355    0.0000    0.0000 F   0  0  0  0  0  0  0  0  0  0  0  0
    0.0000   -0.7360    0.0000 F   0  0  0  0  0  0  0  0  0  0  0  0
    1.6298   -0.7098    0.0000 F   0  0  0  0  0  0  0  0  0  0  0  0
    0.1052   -4.4162    0.0000 O   0  0  0  0  0  0  0  0  0  0  0  0
    2.2606   -4.0219    0.0000 O   0  0  0  0  0  0  0  0  0  0  0  0
    2.9704   -2.7864    0.0000 O   0  0  0  0  0  0  0  0  0  0  0  0
    1.5509   -5.2573    0.0000 O   0  0  0  0  0  0  0  0  0  0  0  0
    1.5509   -1.9452    0.0000 N   0  0  0  0  0  0  0  0  0  0  0  0
    0.8149   -3.1807    0.0000 C   0  0  0  0  0  0  0  0  0  0  0  0
    0.8412   -1.5509    0.0000 C   0  0  0  0  0  0  0  0  0  0  0  0
    1.5509   -2.7601    0.0000 C   0  0  0  0  0  0  0  0  0  0  0  0
    0.8149   -0.7098    0.0000 C   0  0  0  0  0  0  0  0  0  0  0  0
    0.8149   -4.0219    0.0000 C   0  0  0  0  0  0  0  0  0  0  0  0
    0.1052   -2.7864    0.0000 C   0  0  0  0  0  0  0  0  0  0  0  0
    0.1052   -1.9715    0.0000 C   0  0  0  0  0  0  0  0  0  0  0  0
    1.5509   -4.4162    0.0000 C   0  0  0  0  0  0  0  0  0  0  0  0
    2.2606   -3.1807    0.0000 C   0  0  0  0  0  0  0  0  0  0  0  0
    2.9704   -4.4162    0.0000 C   0  0  0  0  0  0  0  0  0  0  0  0
    2.9704   -1.9715    0.0000 C   0  0  0  0  0  0  0  0  0  0  0  0
    3.6801   -3.9956    0.0000 C   0  0  0  0  0  0  0  0  0  0  0  0
  1 12  1  0  0  0  0
  2 12  1  0  0  0  0
  3 12  1  0  0  0  0
  4 13  2  0  0  0  0
  5 16  1  0  0  0  0
  5 18  1  0  0  0  0
  6 17  1  0  0  0  0
  6 19  1  0  0  0  0
  7 16  2  0  0  0  0
  8 10  1  0  0  0  0
  8 11  2  0  0  0  0
  9 11  1  0  0  0  0
  9 13  1  0  0  0  0
  9 14  2  0  0  0  0
 10 12  1  0  0  0  0
 10 15  2  0  0  0  0
 11 17  1  0  0  0  0
 13 16  1  0  0  0  0
 14 15  1  0  0  0  0
 18 20  1  0  0  0  0
M  END
> <PUBCHEM_COMPOUND_ID_TYPE>
0

> <PUBCHEM_TOTAL_CHARGE>
0

> <PUBCHEM_SUBSTANCE_ID>
310938336

> <PUBCHEM_SUBSTANCE_VERSION>
1

> <PUBCHEM_EXT_DATASOURCE_NAME>
4488

> <PUBCHEM_EXT_DATASOURCE_REGID>
SCHEMBL16116217

> <PUBCHEM_SUBSTANCE_COMMENT>
InChI=1S/C12H12F3NO4/c1-3-20-11(18)10(17)7-4-5-9(12(13,14)15)16-8(7)6-19-2/h4-5H,3,6H2,1-2H3
InChIKey=JUJXZBBGJNWMAM-UHFFFAOYSA-N

> <PUBCHEM_SUBSTANCE_SYNONYM>
SCHEMBL16116217

> <PUBCHEM_XREF_EXT_ID>
SCHEMBL16116217

> <PUBCHEM_EXT_DATASOURCE_URL>
https://www.surechembl.org/

> <PUBCHEM_EXT_SUBSTANCE_URL>
https://www.surechembl.org/chemical/SCHEMBL16116217

> <PUBCHEM_CID_ASSOCIATIONS>
117605824  1

> <PUBCHEM_COORDINATE_TYPE>
1
3

$$$$
