310948865
  -OEChem-07211613022D

 53 55  0     1  0  0  0  0  0999 V2000
    3.0919    1.6673    0.0000 P   0  0  3  0  0  0  0  0  0  0  0  0
    6.0407   -0.6719    0.0000 F   0  0  0  0  0  0  0  0  0  0  0  0
    3.0919   -2.4884    0.0000 F   0  0  0  0  0  0  0  0  0  0  0  0
    6.0283    1.5055    0.0000 O   0  0  0  0  0  0  0  0  0  0  0  0
    4.5103    0.0000    0.0000 O   0  0  0  0  0  0  0  0  0  0  0  0
    3.8011    1.2442    0.0000 O   0  0  0  0  0  0  0  0  0  0  0  0
    7.3348    2.2645    0.0000 O   0  0  0  0  0  0  0  0  0  0  0  0
    3.0795    0.8336    0.0000 O   0  0  0  0  0  0  0  0  0  0  0  0
    3.0795    2.4884    0.0000 O   0  0  0  0  0  0  0  0  0  0  0  0
    9.8232    0.8336    0.0000 O   0  0  0  0  0  0  0  0  0  0  0  0
   -0.5163    0.4231    0.0000 O   0  0  0  0  0  0  0  0  0  0  0  0
    7.3597    0.8336    0.0000 N   0  0  0  0  0  0  0  0  0  0  0  0
    8.7283    1.5553    0.0000 N   0  0  0  0  0  0  0  0  0  0  0  0
    2.3827    1.2442    0.0000 N   0  0  0  0  0  0  0  0  0  0  0  0
    0.2178    1.6673    0.0000 N   0  0  0  0  0  0  0  0  0  0  0  0
    6.0283    0.1742    0.0000 C   0  0  3  0  0  0  0  0  0  0  0  0
    6.5260    0.8460    0.0000 C   0  0  3  0  0  0  0  0  0  0  0  0
    5.2444    0.4231    0.0000 C   0  0  3  0  0  0  0  0  0  0  0  0
    5.2568    1.2567    0.0000 C   0  0  3  0  0  0  0  0  0  0  0  0
    7.7702    1.5553    0.0000 C   0  0  0  0  0  0  0  0  0  0  0  0
    6.7500   -0.2488    0.0000 C   0  0  0  0  0  0  0  0  0  0  0  0
    4.5228    1.6549    0.0000 C   0  0  0  0  0  0  0  0  0  0  0  0
    7.7702    0.1244    0.0000 C   0  0  0  0  0  0  0  0  0  0  0  0
    8.9895    0.8460    0.0000 C   0  0  0  0  0  0  0  0  0  0  0  0
    8.5914    0.1120    0.0000 C   0  0  0  0  0  0  0  0  0  0  0  0
    3.0919    0.0000    0.0000 C   0  0  0  0  0  0  0  0  0  0  0  0
    1.6610    1.6673    0.0000 C   0  0  0  0  0  0  0  0  0  0  0  0
    2.3827   -0.4106    0.0000 C   0  0  0  0  0  0  0  0  0  0  0  0
    3.8136   -0.4106    0.0000 C   0  0  0  0  0  0  0  0  0  0  0  0
    2.3827   -1.2318    0.0000 C   0  0  0  0  0  0  0  0  0  0  0  0
    3.8136   -1.2318    0.0000 C   0  0  0  0  0  0  0  0  0  0  0  0
    3.1044   -1.6424    0.0000 C   0  0  0  0  0  0  0  0  0  0  0  0
    0.9518    1.2567    0.0000 C   0  0  0  0  0  0  0  0  0  0  0  0
   -0.4914    1.2691    0.0000 C   0  0  0  0  0  0  0  0  0  0  0  0
   -1.2131    1.6673    0.0000 C   0  0  0  0  0  0  0  0  0  0  0  0
   -1.9224    1.2567    0.0000 C   0  0  0  0  0  0  0  0  0  0  0  0
   -1.9348    0.4106    0.0000 C   0  0  0  0  0  0  0  0  0  0  0  0
   -2.6440    0.0124    0.0000 C   0  0  0  0  0  0  0  0  0  0  0  0
   -3.3781    0.4231    0.0000 C   0  0  0  0  0  0  0  0  0  0  0  0
   -3.3781    1.2567    0.0000 C   0  0  0  0  0  0  0  0  0  0  0  0
   -4.0873    1.6673    0.0000 C   0  0  0  0  0  0  0  0  0  0  0  0
   -4.7965    1.2567    0.0000 C   0  0  0  0  0  0  0  0  0  0  0  0
   -4.8089    0.4106    0.0000 C   0  0  0  0  0  0  0  0  0  0  0  0
   -5.5058    0.0124    0.0000 C   0  0  0  0  0  0  0  0  0  0  0  0
   -6.2398    0.4231    0.0000 C   0  0  0  0  0  0  0  0  0  0  0  0
   -6.2398    1.2442    0.0000 C   0  0  0  0  0  0  0  0  0  0  0  0
   -6.9615    1.6673    0.0000 C   0  0  0  0  0  0  0  0  0  0  0  0
   -7.6707    1.2567    0.0000 C   0  0  0  0  0  0  0  0  0  0  0  0
   -7.6831    0.4106    0.0000 C   0  0  0  0  0  0  0  0  0  0  0  0
   -8.3923    0.0000    0.0000 C   0  0  0  0  0  0  0  0  0  0  0  0
   -9.1140    0.4231    0.0000 C   0  0  0  0  0  0  0  0  0  0  0  0
   -9.1140    1.2442    0.0000 C   0  0  0  0  0  0  0  0  0  0  0  0
   -9.8232    1.6424    0.0000 C   0  0  0  0  0  0  0  0  0  0  0  0
  1  6  1  0  0  0  0
  1  8  1  0  0  0  0
  1  9  2  0  0  0  0
  1 14  1  0  0  0  0
 16  2  1  6  0  0  0
  3 32  1  0  0  0  0
 17  4  1  1  0  0  0
  4 19  1  0  0  0  0
 18  5  1  6  0  0  0
  6 22  1  0  0  0  0
  7 20  2  0  0  0  0
  8 26  1  0  0  0  0
 10 24  2  0  0  0  0
 11 34  2  0  0  0  0
 12 17  1  0  0  0  0
 12 20  1  0  0  0  0
 12 23  1  0  0  0  0
 13 20  1  0  0  0  0
 13 24  1  0  0  0  0
 14 27  1  0  0  0  0
 15 33  1  0  0  0  0
 15 34  1  0  0  0  0
 16 17  1  0  0  0  0
 16 18  1  0  0  0  0
 16 21  1  1  0  0  0
 18 19  1  0  0  0  0
 19 22  1  1  0  0  0
 23 25  2  0  0  0  0
 24 25  1  0  0  0  0
 26 28  2  0  0  0  0
 26 29  1  0  0  0  0
 27 33  1  0  0  0  0
 28 30  1  0  0  0  0
 29 31  2  0  0  0  0
 30 32  2  0  0  0  0
 31 32  1  0  0  0  0
 34 35  1  0  0  0  0
 35 36  1  0  0  0  0
 36 37  1  0  0  0  0
 37 38  1  0  0  0  0
 38 39  2  0  0  0  0
 39 40  1  0  0  0  0
 40 41  1  0  0  0  0
 41 42  2  0  0  0  0
 42 43  1  0  0  0  0
 43 44  1  0  0  0  0
 44 45  2  0  0  0  0
 45 46  1  0  0  0  0
 46 47  1  0  0  0  0
 47 48  2  0  0  0  0
 48 49  1  0  0  0  0
 49 50  1  0  0  0  0
 50 51  2  0  0  0  0
 51 52  1  0  0  0  0
 52 53  1  0  0  0  0
M  END
> <PUBCHEM_COMPOUND_ID_TYPE>
0

> <PUBCHEM_TOTAL_CHARGE>
0

> <PUBCHEM_SUBSTANCE_ID>
310948865

> <PUBCHEM_SUBSTANCE_VERSION>
1

> <PUBCHEM_EXT_DATASOURCE_NAME>
4488

> <PUBCHEM_EXT_DATASOURCE_REGID>
SCHEMBL16127050

> <PUBCHEM_SUBSTANCE_COMMENT>
InChI=1S/C38H51F2N4O8P/c1-3-4-5-6-7-8-9-10-11-12-13-14-15-16-17-18-19-20-33(45)41-26-27-42-53(49,52-31-23-21-30(39)22-24-31)50-29-32-35(47)38(2,40)36(51-32)44-28-25-34(46)43-37(44)48/h4-5,7-8,10-11,13-14,16-17,21-25,28,32,35-36,47H,3,6,9,12,15,18-20,26-27,29H2,1-2H3,(H,41,45)(H,42,49)(H,43,46,48)/b5-4-,8-7-,11-10-,14-13-,17-16-/t32-,35-,36-,38-,53?/m1/s1
InChIKey=QTGYFVIHNXBZTA-XDMBZPTNSA-N

> <PUBCHEM_SUBSTANCE_SYNONYM>
SCHEMBL16127050

> <PUBCHEM_XREF_EXT_ID>
SCHEMBL16127050

> <PUBCHEM_EXT_DATASOURCE_URL>
https://www.surechembl.org/

> <PUBCHEM_EXT_SUBSTANCE_URL>
https://www.surechembl.org/chemical/SCHEMBL16127050

> <PUBCHEM_CID_ASSOCIATIONS>
86270511  1

> <PUBCHEM_COORDINATE_TYPE>
1
3

> <PUBCHEM_BONDANNOTATIONS>
16  21  5
19  22  5
16  2  6
17  4  5
18  5  6

$$$$
