310941290
  -OEChem-07211613022D

 26 28  0     1  0  0  0  0  0999 V2000
    0.0281    2.9903    0.0000 F   0  0  0  0  0  0  0  0  0  0  0  0
    1.1179    2.5095    0.0000 F   0  0  0  0  0  0  0  0  0  0  0  0
    0.8775    0.3780    0.0000 O   0  0  0  0  0  0  0  0  0  0  0  0
   -0.5809   -1.2887    0.0000 O   0  0  0  0  0  0  0  0  0  0  0  0
   -0.8331   -1.7407    0.0000 O   0  0  0  0  0  0  0  0  0  0  0  0
   -1.5115   -0.6219    0.0000 O   0  0  0  0  0  0  0  0  0  0  0  0
   -2.0232   -0.4553    0.0000 N   0  0  0  0  0  0  0  0  0  0  0  0
    0.1563   -0.0226    0.0000 C   0  0  3  0  0  0  0  0  0  0  0  0
   -0.5649   -0.4232    0.0000 C   0  0  0  0  0  0  0  0  0  0  0  0
    0.8615   -0.4393    0.0000 C   0  0  0  0  0  0  0  0  0  0  0  0
   -1.3020   -0.0226    0.0000 C   0  0  3  0  0  0  0  0  0  0  0  0
   -1.2861    0.8107    0.0000 C   0  0  0  0  0  0  0  0  0  0  0  0
   -0.5809    1.2114    0.0000 C   0  0  3  0  0  0  0  0  0  0  0  0
   -0.4367    0.5544    0.0000 C   0  0  0  0  0  0  0  0  0  0  0  0
    0.3326    2.2210    0.0000 C   0  0  0  0  0  0  0  0  0  0  0  0
   -0.4847    2.0288    0.0000 C   0  0  0  0  0  0  0  0  0  0  0  0
    0.2044    0.8909    0.0000 C   0  0  0  0  0  0  0  0  0  0  0  0
    0.7333    1.4839    0.0000 C   0  0  0  0  0  0  0  0  0  0  0  0
   -1.4995   -1.3360    0.0000 C   0  0  0  0  0  0  0  0  0  0  0  0
   -0.0833   -1.3122    0.0000 C   0  0  0  0  0  0  0  0  0  0  0  0
    0.6070   -1.7645    0.0000 C   0  0  0  0  0  0  0  0  0  0  0  0
    0.6070   -2.5856    0.0000 C   0  0  0  0  0  0  0  0  0  0  0  0
    1.3091   -1.3479    0.0000 C   0  0  0  0  0  0  0  0  0  0  0  0
    1.3091   -2.9903    0.0000 C   0  0  0  0  0  0  0  0  0  0  0  0
    2.0232   -1.7525    0.0000 C   0  0  0  0  0  0  0  0  0  0  0  0
    2.0232   -2.5738    0.0000 C   0  0  0  0  0  0  0  0  0  0  0  0
  1 15  1  0  0  0  0
  2 15  1  0  0  0  0
  3  8  1  0  0  0  0
  3 10  1  0  0  0  0
  4  9  2  0  0  0  0
  5 19  1  0  0  0  0
  5 20  1  0  0  0  0
  6 19  2  0  0  0  0
 11  7  1  1  0  0  0
  7 19  1  0  0  0  0
  8  9  1  6  0  0  0
  8 10  1  0  0  0  0
  8 14  1  1  0  0  0
  9 11  1  0  0  0  0
 11 12  1  0  0  0  0
 13 12  1  1  0  0  0
 13 16  1  0  0  0  0
 13 17  1  0  0  0  0
 15 16  1  0  0  0  0
 15 18  1  0  0  0  0
 17 18  1  0  0  0  0
 20 21  1  0  0  0  0
 21 22  2  0  0  0  0
 21 23  1  0  0  0  0
 22 24  1  0  0  0  0
 23 25  2  0  0  0  0
 24 26  2  0  0  0  0
 25 26  1  0  0  0  0
M  END
> <PUBCHEM_COMPOUND_ID_TYPE>
0

> <PUBCHEM_TOTAL_CHARGE>
0

> <PUBCHEM_SUBSTANCE_ID>
310941290

> <PUBCHEM_SUBSTANCE_VERSION>
1

> <PUBCHEM_EXT_DATASOURCE_NAME>
4488

> <PUBCHEM_EXT_DATASOURCE_REGID>
SCHEMBL16119250

> <PUBCHEM_SUBSTANCE_COMMENT>
InChI=1S/C19H23F2NO4/c1-18(12-26-18)16(23)15(9-14-7-8-19(20,21)10-14)22-17(24)25-11-13-5-3-2-4-6-13/h2-6,14-15H,7-12H2,1H3,(H,22,24)/t14-,15-,18+/m0/s1
InChIKey=IMKALWCSZVTFSQ-RLFYNMQTSA-N

> <PUBCHEM_SUBSTANCE_SYNONYM>
SCHEMBL16119250

> <PUBCHEM_XREF_EXT_ID>
SCHEMBL16119250

> <PUBCHEM_EXT_DATASOURCE_URL>
https://www.surechembl.org/

> <PUBCHEM_EXT_SUBSTANCE_URL>
https://www.surechembl.org/chemical/SCHEMBL16119250

> <PUBCHEM_CID_ASSOCIATIONS>
117608139  1

> <PUBCHEM_COORDINATE_TYPE>
1
3

> <PUBCHEM_BONDANNOTATIONS>
13  12  5
11  7  5
8  14  5
8  9  6

$$$$
