310936687
  -OEChem-07211613022D

 43 47  0     1  0  0  0  0  0999 V2000
   -2.6445   -2.9158    0.0000 F   0  0  0  0  0  0  0  0  0  0  0  0
   -3.1294   -3.5833    0.0000 F   0  0  0  0  0  0  0  0  0  0  0  0
   -2.7938   -4.3370    0.0000 F   0  0  0  0  0  0  0  0  0  0  0  0
   -0.4817   -6.0168    0.0000 F   0  0  0  0  0  0  0  0  0  0  0  0
    0.3388   -6.1030    0.0000 F   0  0  0  0  0  0  0  0  0  0  0  0
    0.8237   -5.4356    0.0000 F   0  0  0  0  0  0  0  0  0  0  0  0
    1.1270   -2.5071    0.0000 O   0  0  0  0  0  0  0  0  0  0  0  0
    2.1665   -1.4675    0.0000 O   0  0  0  0  0  0  0  0  0  0  0  0
   -3.0367   -1.4045    0.0000 O   0  0  0  0  0  0  0  0  0  0  0  0
    2.1434    2.0625    0.0000 O   0  0  0  0  0  0  0  0  0  0  0  0
    0.7145   -1.2375    0.0000 N   0  0  0  0  0  0  0  0  0  0  0  0
   -0.7145   -0.4125    0.0000 N   0  0  0  0  0  0  0  0  0  0  0  0
    0.7145    1.2375    0.0000 N   0  0  0  0  0  0  0  0  0  0  0  0
   -0.7145    1.2375    0.0000 N   0  0  0  0  0  0  0  0  0  0  0  0
   -3.4492   -0.6901    0.0000 N   0  0  0  0  0  0  0  0  0  0  0  0
    0.3020   -2.5071    0.0000 C   0  0  3  0  0  0  0  0  0  0  0  0
    0.0470   -1.7224    0.0000 C   0  0  3  0  0  0  0  0  0  0  0  0
   -0.1830   -3.1745    0.0000 C   0  0  0  0  0  0  0  0  0  0  0  0
    1.3820   -1.7224    0.0000 C   0  0  0  0  0  0  0  0  0  0  0  0
    0.0000    0.0000    0.0000 C   0  0  0  0  0  0  0  0  0  0  0  0
    0.0000    0.8250    0.0000 C   0  0  0  0  0  0  0  0  0  0  0  0
    0.7145   -0.4125    0.0000 C   0  0  0  0  0  0  0  0  0  0  0  0
   -1.4884   -3.7557    0.0000 C   0  0  0  0  0  0  0  0  0  0  0  0
   -0.3323   -4.5957    0.0000 C   0  0  0  0  0  0  0  0  0  0  0  0
   -1.4290    0.0000    0.0000 C   0  0  0  0  0  0  0  0  0  0  0  0
    0.1526   -3.9282    0.0000 C   0  0  0  0  0  0  0  0  0  0  0  0
   -1.0034   -3.0883    0.0000 C   0  0  0  0  0  0  0  0  0  0  0  0
   -2.1434   -0.4125    0.0000 C   0  0  0  0  0  0  0  0  0  0  0  0
   -1.1528   -4.5094    0.0000 C   0  0  0  0  0  0  0  0  0  0  0  0
   -2.3089   -3.6695    0.0000 C   0  0  0  0  0  0  0  0  0  0  0  0
    0.0032   -5.3494    0.0000 C   0  0  0  0  0  0  0  0  0  0  0  0
   -1.4290    0.8250    0.0000 C   0  0  0  0  0  0  0  0  0  0  0  0
   -2.2297   -1.2330    0.0000 C   0  0  0  0  0  0  0  0  0  0  0  0
   -2.8971   -0.0770    0.0000 C   0  0  0  0  0  0  0  0  0  0  0  0
   -0.7376   -1.4675    0.0000 C   0  0  0  0  0  0  0  0  0  0  0  0
    0.7145    2.0625    0.0000 C   0  0  0  0  0  0  0  0  0  0  0  0
    1.4290    0.8250    0.0000 C   0  0  0  0  0  0  0  0  0  0  0  0
    1.4290    2.4750    0.0000 C   0  0  3  0  0  0  0  0  0  0  0  0
    2.1434    1.2375    0.0000 C   0  0  3  0  0  0  0  0  0  0  0  0
   -1.6166   -1.7850    0.0000 C   0  0  0  0  0  0  0  0  0  0  0  0
   -3.0686    0.7300    0.0000 C   0  0  0  0  0  0  0  0  0  0  0  0
    2.8579    0.8250    0.0000 C   0  0  0  0  0  0  0  0  0  0  0  0
    1.4290    3.3000    0.0000 C   0  0  0  0  0  0  0  0  0  0  0  0
  1 30  1  0  0  0  0
  2 30  1  0  0  0  0
  3 30  1  0  0  0  0
  4 31  1  0  0  0  0
  5 31  1  0  0  0  0
  6 31  1  0  0  0  0
 16  7  1  1  0  0  0
  7 19  1  0  0  0  0
  8 19  2  0  0  0  0
  9 15  1  0  0  0  0
  9 33  1  0  0  0  0
 10 38  1  0  0  0  0
 10 39  1  0  0  0  0
 11 17  1  0  0  0  0
 11 19  1  0  0  0  0
 11 22  1  0  0  0  0
 12 20  2  0  0  0  0
 12 25  1  0  0  0  0
 13 21  1  0  0  0  0
 13 36  1  0  0  0  0
 13 37  1  0  0  0  0
 14 21  2  0  0  0  0
 14 32  1  0  0  0  0
 15 34  2  0  0  0  0
 16 17  1  0  0  0  0
 16 18  1  0  0  0  0
 17 35  1  6  0  0  0
 18 26  2  0  0  0  0
 18 27  1  0  0  0  0
 20 21  1  0  0  0  0
 20 22  1  0  0  0  0
 23 27  2  0  0  0  0
 23 29  1  0  0  0  0
 23 30  1  0  0  0  0
 24 26  1  0  0  0  0
 24 29  2  0  0  0  0
 24 31  1  0  0  0  0
 25 28  1  0  0  0  0
 25 32  2  0  0  0  0
 28 33  2  0  0  0  0
 28 34  1  0  0  0  0
 33 40  1  0  0  0  0
 34 41  1  0  0  0  0
 36 38  1  0  0  0  0
 37 39  1  0  0  0  0
 38 43  1  0  0  0  0
 39 42  1  0  0  0  0
M  END
> <PUBCHEM_COMPOUND_ID_TYPE>
0

> <PUBCHEM_TOTAL_CHARGE>
0

> <PUBCHEM_SUBSTANCE_ID>
310936687

> <PUBCHEM_SUBSTANCE_VERSION>
1

> <PUBCHEM_EXT_DATASOURCE_NAME>
4488

> <PUBCHEM_EXT_DATASOURCE_REGID>
SCHEMBL16114361

> <PUBCHEM_SUBSTANCE_COMMENT>
InChI=1S/C28H29F6N5O4/c1-13-10-38(11-14(2)41-13)25-22(36-21(9-35-25)23-15(3)37-43-17(23)5)12-39-16(4)24(42-26(39)40)18-6-19(27(29,30)31)8-20(7-18)28(32,33)34/h6-9,13-14,16,24H,10-12H2,1-5H3/t13?,14?,16-,24+/m0/s1
InChIKey=UAQLWUZRURVSHO-CLOCWSOESA-N

> <PUBCHEM_SUBSTANCE_SYNONYM>
SCHEMBL16114361

> <PUBCHEM_XREF_EXT_ID>
SCHEMBL16114361

> <PUBCHEM_EXT_DATASOURCE_URL>
https://www.surechembl.org/

> <PUBCHEM_EXT_SUBSTANCE_URL>
https://www.surechembl.org/chemical/SCHEMBL16114361

> <PUBCHEM_CID_ASSOCIATIONS>
117604592  1

> <PUBCHEM_COORDINATE_TYPE>
1
3

> <PUBCHEM_BONDANNOTATIONS>
17  35  6
16  7  5

$$$$
