310944332
  -OEChem-07211613022D

 31 35  0     0  0  0  0  0  0999 V2000
    2.4993   -0.0997    0.0000 O   0  0  0  0  0  0  0  0  0  0  0  0
    5.0375   -1.6626    0.0000 O   0  0  0  0  0  0  0  0  0  0  0  0
    5.5030   -0.2660    0.0000 O   0  0  0  0  0  0  0  0  0  0  0  0
    2.8873   -1.5184    0.0000 N   0  0  0  0  0  0  0  0  0  0  0  0
    0.1274   -0.4212    0.0000 N   0  0  0  0  0  0  0  0  0  0  0  0
   -4.1841    1.2303    0.0000 N   0  0  0  0  0  0  0  0  0  0  0  0
   -2.7432    1.2303    0.0000 N   0  0  0  0  0  0  0  0  0  0  0  0
   -2.0228    0.8202    0.0000 N   0  0  0  0  0  0  0  0  0  0  0  0
   -4.2727    2.0505    0.0000 N   0  0  0  0  0  0  0  0  0  0  0  0
   -5.0819    2.2278    0.0000 N   0  0  0  0  0  0  0  0  0  0  0  0
   -5.5030    1.5073    0.0000 N   0  0  0  0  0  0  0  0  0  0  0  0
    1.5683   -1.2303    0.0000 C   0  0  0  0  0  0  0  0  0  0  0  0
    2.3110   -0.9200    0.0000 C   0  0  0  0  0  0  0  0  0  0  0  0
    3.7186   -1.4298    0.0000 C   0  0  0  0  0  0  0  0  0  0  0  0
    1.6570   -2.0505    0.0000 C   0  0  0  0  0  0  0  0  0  0  0  0
    2.4772   -2.2278    0.0000 C   0  0  0  0  0  0  0  0  0  0  0  0
    0.8590   -1.6404    0.0000 C   0  0  0  0  0  0  0  0  0  0  0  0
    1.5683   -0.4101    0.0000 C   0  0  0  0  0  0  0  0  0  0  0  0
    4.0954   -0.6983    0.0000 C   0  0  0  0  0  0  0  0  0  0  0  0
    4.3060   -2.0172    0.0000 C   0  0  0  0  0  0  0  0  0  0  0  0
    4.8934   -0.8534    0.0000 C   0  0  0  0  0  0  0  0  0  0  0  0
    0.1385   -1.2414    0.0000 C   0  0  0  0  0  0  0  0  0  0  0  0
    0.8479    0.0000    0.0000 C   0  0  0  0  0  0  0  0  0  0  0  0
    3.7186    0.0554    0.0000 C   0  0  0  0  0  0  0  0  0  0  0  0
   -0.5930    0.0000    0.0000 C   0  0  0  0  0  0  0  0  0  0  0  0
   -3.4526    0.8312    0.0000 C   0  0  0  0  0  0  0  0  0  0  0  0
   -2.0228    0.0111    0.0000 C   0  0  0  0  0  0  0  0  0  0  0  0
   -1.2913   -0.4101    0.0000 C   0  0  0  0  0  0  0  0  0  0  0  0
   -3.4636    0.0000    0.0000 C   0  0  0  0  0  0  0  0  0  0  0  0
   -2.7321   -0.4101    0.0000 C   0  0  0  0  0  0  0  0  0  0  0  0
   -4.9156    0.9089    0.0000 C   0  0  0  0  0  0  0  0  0  0  0  0
  1 13  2  0  0  0  0
  2 20  1  0  0  0  0
  2 21  1  0  0  0  0
  3 21  2  0  0  0  0
  4 13  1  0  0  0  0
  4 14  1  0  0  0  0
  4 16  1  0  0  0  0
  5 22  1  0  0  0  0
  5 23  1  0  0  0  0
  5 25  1  0  0  0  0
  6  9  1  0  0  0  0
  6 26  1  0  0  0  0
  6 31  1  0  0  0  0
  7  8  1  0  0  0  0
  7 26  2  0  0  0  0
  8 27  2  0  0  0  0
  9 10  2  0  0  0  0
 10 11  1  0  0  0  0
 11 31  2  0  0  0  0
 12 13  1  0  0  0  0
 12 15  1  0  0  0  0
 12 17  1  0  0  0  0
 12 18  1  0  0  0  0
 14 19  2  0  0  0  0
 14 20  1  0  0  0  0
 15 16  2  0  0  0  0
 17 22  1  0  0  0  0
 18 23  1  0  0  0  0
 19 21  1  0  0  0  0
 19 24  1  0  0  0  0
 25 28  1  0  0  0  0
 26 29  1  0  0  0  0
 27 28  1  0  0  0  0
 27 30  1  0  0  0  0
 29 30  2  0  0  0  0
M  END
> <PUBCHEM_COMPOUND_ID_TYPE>
0

> <PUBCHEM_TOTAL_CHARGE>
0

> <PUBCHEM_SUBSTANCE_ID>
310944332

> <PUBCHEM_SUBSTANCE_VERSION>
1

> <PUBCHEM_EXT_DATASOURCE_NAME>
4488

> <PUBCHEM_EXT_DATASOURCE_REGID>
SCHEMBL16122407

> <PUBCHEM_SUBSTANCE_COMMENT>
InChI=1S/C20H22N8O3/c1-14-16(12-31-18(14)29)27-11-7-20(19(27)30)5-9-26(10-6-20)8-4-15-2-3-17(23-22-15)28-13-21-24-25-28/h2-3,7,11,13H,4-6,8-10,12H2,1H3
InChIKey=NULMHZFMSAQHSC-UHFFFAOYSA-N

> <PUBCHEM_SUBSTANCE_SYNONYM>
SCHEMBL16122407

> <PUBCHEM_XREF_EXT_ID>
SCHEMBL16122407

> <PUBCHEM_EXT_DATASOURCE_URL>
https://www.surechembl.org/

> <PUBCHEM_EXT_SUBSTANCE_URL>
https://www.surechembl.org/chemical/SCHEMBL16122407

> <PUBCHEM_CID_ASSOCIATIONS>
117610589  1

> <PUBCHEM_COORDINATE_TYPE>
1
3

$$$$
