310930583
  -OEChem-07211613022D

 32 36  0     0  0  0  0  0  0999 V2000
    6.4524   -2.1399    0.0000 S   0  0  0  0  0  0  0  0  0  0  0  0
    5.6623   -1.6790    0.0000 O   0  0  0  0  0  0  0  0  0  0  0  0
    7.1437   -2.5678    0.0000 O   0  0  0  0  0  0  0  0  0  0  0  0
    2.2057   -6.4195    0.0000 O   0  0  0  0  0  0  0  0  0  0  0  0
    3.9505   -6.4853    0.0000 O   0  0  0  0  0  0  0  0  0  0  0  0
    6.8804    0.0000    0.0000 N   0  0  0  0  0  0  0  0  0  0  0  0
    3.9505   -5.0368    0.0000 N   0  0  0  0  0  0  0  0  0  0  0  0
    0.0000   -6.1890    0.0000 N   0  0  0  0  0  0  0  0  0  0  0  0
    6.8804   -1.4485    0.0000 C   0  0  0  0  0  0  0  0  0  0  0  0
    7.7034   -1.4485    0.0000 C   0  0  0  0  0  0  0  0  0  0  0  0
    6.0245   -2.8641    0.0000 C   0  0  0  0  0  0  0  0  0  0  0  0
    8.1314   -0.7243    0.0000 C   0  0  0  0  0  0  0  0  0  0  0  0
    6.4524   -0.7243    0.0000 C   0  0  0  0  0  0  0  0  0  0  0  0
    5.2014   -2.8641    0.0000 C   0  0  0  0  0  0  0  0  0  0  0  0
    6.4524   -3.5883    0.0000 C   0  0  0  0  0  0  0  0  0  0  0  0
    8.0984   -2.1728    0.0000 C   0  0  0  0  0  0  0  0  0  0  0  0
    2.6995   -5.7611    0.0000 C   0  0  0  0  0  0  0  0  0  0  0  0
    1.4156   -6.1890    0.0000 C   0  0  0  0  0  0  0  0  0  0  0  0
    1.4156   -5.3331    0.0000 C   0  0  0  0  0  0  0  0  0  0  0  0
    7.7034   -0.0329    0.0000 C   0  0  0  0  0  0  0  0  0  0  0  0
    5.2014   -4.3126    0.0000 C   0  0  0  0  0  0  0  0  0  0  0  0
    8.9544   -0.7243    0.0000 C   0  0  0  0  0  0  0  0  0  0  0  0
    2.2057   -5.1027    0.0000 C   0  0  0  0  0  0  0  0  0  0  0  0
    3.5225   -5.7611    0.0000 C   0  0  0  0  0  0  0  0  0  0  0  0
    4.7734   -3.5883    0.0000 C   0  0  0  0  0  0  0  0  0  0  0  0
    6.0245   -4.3126    0.0000 C   0  0  0  0  0  0  0  0  0  0  0  0
    8.9544   -2.1728    0.0000 C   0  0  0  0  0  0  0  0  0  0  0  0
    9.3494   -1.4485    0.0000 C   0  0  0  0  0  0  0  0  0  0  0  0
    0.6913   -6.5841    0.0000 C   0  0  0  0  0  0  0  0  0  0  0  0
    0.6913   -4.9381    0.0000 C   0  0  0  0  0  0  0  0  0  0  0  0
    4.7734   -5.0368    0.0000 C   0  0  0  0  0  0  0  0  0  0  0  0
    0.0000   -5.3331    0.0000 C   0  0  0  0  0  0  0  0  0  0  0  0
  1  2  2  0  0  0  0
  1  3  2  0  0  0  0
  1  9  1  0  0  0  0
  1 11  1  0  0  0  0
  4 17  1  0  0  0  0
  4 18  1  0  0  0  0
  5 24  2  0  0  0  0
  6 13  1  0  0  0  0
  6 20  2  0  0  0  0
  7 24  1  0  0  0  0
  7 31  1  0  0  0  0
  8 29  1  0  0  0  0
  8 32  2  0  0  0  0
  9 10  1  0  0  0  0
  9 13  2  0  0  0  0
 10 12  2  0  0  0  0
 10 16  1  0  0  0  0
 11 14  2  0  0  0  0
 11 15  1  0  0  0  0
 12 20  1  0  0  0  0
 12 22  1  0  0  0  0
 14 25  1  0  0  0  0
 15 26  2  0  0  0  0
 16 27  2  0  0  0  0
 17 23  2  0  0  0  0
 17 24  1  0  0  0  0
 18 19  1  0  0  0  0
 18 29  2  0  0  0  0
 19 23  1  0  0  0  0
 19 30  2  0  0  0  0
 21 25  2  0  0  0  0
 21 26  1  0  0  0  0
 21 31  1  0  0  0  0
 22 28  2  0  0  0  0
 27 28  1  0  0  0  0
 30 32  1  0  0  0  0
M  END
> <PUBCHEM_COMPOUND_ID_TYPE>
0

> <PUBCHEM_TOTAL_CHARGE>
0

> <PUBCHEM_SUBSTANCE_ID>
310930583

> <PUBCHEM_SUBSTANCE_VERSION>
1

> <PUBCHEM_EXT_DATASOURCE_NAME>
4488

> <PUBCHEM_EXT_DATASOURCE_REGID>
SCHEMBL16107878

> <PUBCHEM_SUBSTANCE_COMMENT>
InChI=1S/C24H17N3O4S/c28-24(21-11-17-9-10-25-14-22(17)31-21)27-12-16-5-7-19(8-6-16)32(29,30)23-15-26-13-18-3-1-2-4-20(18)23/h1-11,13-15H,12H2,(H,27,28)
InChIKey=JBRVWZZTXCDPII-UHFFFAOYSA-N

> <PUBCHEM_SUBSTANCE_SYNONYM>
SCHEMBL16107878

> <PUBCHEM_XREF_EXT_ID>
SCHEMBL16107878

> <PUBCHEM_EXT_DATASOURCE_URL>
https://www.surechembl.org/

> <PUBCHEM_EXT_SUBSTANCE_URL>
https://www.surechembl.org/chemical/SCHEMBL16107878

> <PUBCHEM_CID_ASSOCIATIONS>
117599667  1

> <PUBCHEM_COORDINATE_TYPE>
1
3

$$$$
