310940722
  -OEChem-07211613022D

 11 10  0     0  0  0  0  0  0999 V2000
    0.2358    0.0429    0.0000 O   0  0  0  0  0  0  0  0  0  0  0  0
    0.9790    2.0152    0.0000 O   0  0  0  0  0  0  0  0  0  0  0  0
   -0.4788   -0.3716    0.0000 N   0  0  0  0  0  0  0  0  0  0  0  0
    0.2358    0.8861    0.0000 C   0  0  0  0  0  0  0  0  0  0  0  0
    0.9648    1.2863    0.0000 C   0  0  0  0  0  0  0  0  0  0  0  0
   -0.4931   -1.2006    0.0000 C   0  0  0  0  0  0  0  0  0  0  0  0
    0.0357    1.6865    0.0000 C   0  0  0  0  0  0  0  0  0  0  0  0
   -0.5932    0.8861    0.0000 C   0  0  0  0  0  0  0  0  0  0  0  0
   -0.9790   -1.4721    0.0000 C   0  0  0  0  0  0  0  0  0  0  0  0
    0.1215   -1.5293    0.0000 C   0  0  0  0  0  0  0  0  0  0  0  0
   -0.8361   -2.0152    0.0000 C   0  0  0  0  0  0  0  0  0  0  0  0
  1  3  1  0  0  0  0
  1  4  1  0  0  0  0
  2  5  2  0  0  0  0
  3  6  2  0  0  0  0
  4  5  1  0  0  0  0
  4  7  1  0  0  0  0
  4  8  1  0  0  0  0
  6  9  1  0  0  0  0
  6 10  1  0  0  0  0
  9 11  1  0  0  0  0
M  END
> <PUBCHEM_COMPOUND_ID_TYPE>
0

> <PUBCHEM_TOTAL_CHARGE>
0

> <PUBCHEM_SUBSTANCE_ID>
310940722

> <PUBCHEM_SUBSTANCE_VERSION>
1

> <PUBCHEM_EXT_DATASOURCE_NAME>
4488

> <PUBCHEM_EXT_DATASOURCE_REGID>
SCHEMBL16118680

> <PUBCHEM_SUBSTANCE_COMMENT>
InChI=1S/C8H15NO2/c1-5-7(2)9-11-8(3,4)6-10/h6H,5H2,1-4H3/b9-7+
InChIKey=ODYOKYSUZFJGML-VQHVLOKHSA-N

> <PUBCHEM_SUBSTANCE_SYNONYM>
SCHEMBL16118680

> <PUBCHEM_XREF_EXT_ID>
SCHEMBL16118680

> <PUBCHEM_EXT_DATASOURCE_URL>
https://www.surechembl.org/

> <PUBCHEM_EXT_SUBSTANCE_URL>
https://www.surechembl.org/chemical/SCHEMBL16118680

> <PUBCHEM_CID_ASSOCIATIONS>
117607679  1

> <PUBCHEM_COORDINATE_TYPE>
1
3

> <PUBCHEM_BONDANNOTATIONS>
9  11  3

$$$$
