310930995
  -OEChem-07211613022D

 27 29  0     0  0  0  0  0  0999 V2000
    5.6429   -2.4749    0.0000 O   0  0  0  0  0  0  0  0  0  0  0  0
    4.9499   -0.4290    0.0000 O   0  0  0  0  0  0  0  0  0  0  0  0
    2.1119   -2.8709    0.0000 O   0  0  0  0  0  0  0  0  0  0  0  0
    9.8998   -1.6830    0.0000 N   0  0  0  0  0  0  0  0  0  0  0  0
    6.3688   -1.2540    0.0000 C   0  0  0  0  0  0  0  0  0  0  0  0
    5.6429   -1.6499    0.0000 C   0  0  0  0  0  0  0  0  0  0  0  0
    4.9499   -1.2540    0.0000 C   0  0  0  0  0  0  0  0  0  0  0  0
    4.2239   -1.6499    0.0000 C   0  0  0  0  0  0  0  0  0  0  0  0
    7.7548   -1.2540    0.0000 C   0  0  0  0  0  0  0  0  0  0  0  0
    7.0618   -1.6499    0.0000 C   0  0  0  0  0  0  0  0  0  0  0  0
    8.4808   -1.6499    0.0000 C   0  0  0  0  0  0  0  0  0  0  0  0
    6.3688   -0.4290    0.0000 C   0  0  0  0  0  0  0  0  0  0  0  0
    7.7878   -0.4290    0.0000 C   0  0  0  0  0  0  0  0  0  0  0  0
    4.2239   -2.4749    0.0000 C   0  0  0  0  0  0  0  0  0  0  0  0
    3.5309   -1.2540    0.0000 C   0  0  0  0  0  0  0  0  0  0  0  0
    2.8379   -2.4749    0.0000 C   0  0  0  0  0  0  0  0  0  0  0  0
    7.0618    0.0000    0.0000 C   0  0  0  0  0  0  0  0  0  0  0  0
    3.5309   -2.8709    0.0000 C   0  0  0  0  0  0  0  0  0  0  0  0
    2.8379   -1.6499    0.0000 C   0  0  0  0  0  0  0  0  0  0  0  0
    9.2068   -1.2540    0.0000 C   0  0  0  0  0  0  0  0  0  0  0  0
    8.4808   -2.4749    0.0000 C   0  0  0  0  0  0  0  0  0  0  0  0
    9.1737   -2.8709    0.0000 C   0  0  0  0  0  0  0  0  0  0  0  0
    9.8998   -2.5080    0.0000 C   0  0  0  0  0  0  0  0  0  0  0  0
    1.4189   -2.4749    0.0000 C   0  0  0  0  0  0  0  0  0  0  0  0
    0.6930   -2.8709    0.0000 C   0  0  0  0  0  0  0  0  0  0  0  0
    0.0000   -2.4419    0.0000 C   0  0  0  0  0  0  0  0  0  0  0  0
    0.6930   -3.6959    0.0000 C   0  0  0  0  0  0  0  0  0  0  0  0
  1  6  2  0  0  0  0
  2  7  2  0  0  0  0
  3 16  1  0  0  0  0
  3 24  1  0  0  0  0
  4 20  1  0  0  0  0
  4 23  2  0  0  0  0
  5  6  1  0  0  0  0
  5 10  1  0  0  0  0
  5 12  2  0  0  0  0
  6  7  1  0  0  0  0
  7  8  1  0  0  0  0
  8 14  2  0  0  0  0
  8 15  1  0  0  0  0
  9 10  2  0  0  0  0
  9 11  1  0  0  0  0
  9 13  1  0  0  0  0
 11 20  2  0  0  0  0
 11 21  1  0  0  0  0
 12 17  1  0  0  0  0
 13 17  2  0  0  0  0
 14 18  1  0  0  0  0
 15 19  2  0  0  0  0
 16 18  2  0  0  0  0
 16 19  1  0  0  0  0
 21 22  2  0  0  0  0
 22 23  1  0  0  0  0
 24 25  1  0  0  0  0
 25 26  1  0  0  0  0
 25 27  1  0  0  0  0
M  END
> <PUBCHEM_COMPOUND_ID_TYPE>
0

> <PUBCHEM_TOTAL_CHARGE>
0

> <PUBCHEM_SUBSTANCE_ID>
310930995

> <PUBCHEM_SUBSTANCE_VERSION>
1

> <PUBCHEM_EXT_DATASOURCE_NAME>
4488

> <PUBCHEM_EXT_DATASOURCE_REGID>
SCHEMBL16108295

> <PUBCHEM_SUBSTANCE_COMMENT>
InChI=1S/C23H21NO3/c1-16(2)15-27-21-10-8-17(9-11-21)22(25)23(26)19-6-3-5-18(13-19)20-7-4-12-24-14-20/h3-14,16H,15H2,1-2H3
InChIKey=FKNMFSGFGXGSSV-UHFFFAOYSA-N

> <PUBCHEM_SUBSTANCE_SYNONYM>
SCHEMBL16108295

> <PUBCHEM_XREF_EXT_ID>
SCHEMBL16108295

> <PUBCHEM_EXT_DATASOURCE_URL>
https://www.surechembl.org/

> <PUBCHEM_EXT_SUBSTANCE_URL>
https://www.surechembl.org/chemical/SCHEMBL16108295

> <PUBCHEM_CID_ASSOCIATIONS>
117599927  1

> <PUBCHEM_COORDINATE_TYPE>
1
3

$$$$
