310940373
  -OEChem-07211613022D

 19 20  0     0  0  0  0  0  0999 V2000
   -0.8531   -0.3225    0.0000 O   0  0  0  0  0  0  0  0  0  0  0  0
   -1.5113    1.8003    0.0000 O   0  0  0  0  0  0  0  0  0  0  0  0
   -0.1814    1.8003    0.0000 O   0  0  0  0  0  0  0  0  0  0  0  0
    0.8799   -0.3628    0.0000 O   0  0  0  0  0  0  0  0  0  0  0  0
    2.3308   -0.3090    0.0000 O   0  0  0  0  0  0  0  0  0  0  0  0
   -0.8531    1.3300    0.0000 C   0  0  0  0  0  0  0  0  0  0  0  0
   -1.5651    0.1075    0.0000 C   0  0  0  0  0  0  0  0  0  0  0  0
   -1.5517    0.9270    0.0000 C   0  0  0  0  0  0  0  0  0  0  0  0
   -0.1410    0.9135    0.0000 C   0  0  0  0  0  0  0  0  0  0  0  0
   -0.1410    0.1075    0.0000 C   0  0  0  0  0  0  0  0  0  0  0  0
   -1.2428    2.5929    0.0000 C   0  0  0  0  0  0  0  0  0  0  0  0
   -0.4366    2.5929    0.0000 C   0  0  0  0  0  0  0  0  0  0  0  0
   -2.3711    0.2284    0.0000 C   0  0  0  0  0  0  0  0  0  0  0  0
   -1.8204   -0.6852    0.0000 C   0  0  0  0  0  0  0  0  0  0  0  0
    1.6054    0.1075    0.0000 C   0  0  0  0  0  0  0  0  0  0  0  0
    1.9413   -0.3762    0.0000 C   0  0  0  0  0  0  0  0  0  0  0  0
    2.3578   -1.1151    0.0000 C   0  0  0  0  0  0  0  0  0  0  0  0
    1.9413   -1.8540    0.0000 C   0  0  0  0  0  0  0  0  0  0  0  0
    2.3711   -2.5929    0.0000 C   0  0  0  0  0  0  0  0  0  0  0  0
  1  7  1  0  0  0  0
  1 10  1  0  0  0  0
  2  6  1  0  0  0  0
  2 11  1  0  0  0  0
  3  6  1  0  0  0  0
  3 12  1  0  0  0  0
  4 10  1  0  0  0  0
  4 15  1  0  0  0  0
  5 15  2  0  0  0  0
  6  8  1  0  0  0  0
  6  9  1  0  0  0  0
  7  8  1  0  0  0  0
  7 13  1  0  0  0  0
  7 14  1  0  0  0  0
  9 10  2  0  0  0  0
 11 12  1  0  0  0  0
 15 16  1  0  0  0  0
 16 17  1  0  0  0  0
 17 18  1  0  0  0  0
 18 19  1  0  0  0  0
M  END
> <PUBCHEM_COMPOUND_ID_TYPE>
0

> <PUBCHEM_TOTAL_CHARGE>
0

> <PUBCHEM_SUBSTANCE_ID>
310940373

> <PUBCHEM_SUBSTANCE_VERSION>
1

> <PUBCHEM_EXT_DATASOURCE_NAME>
4488

> <PUBCHEM_EXT_DATASOURCE_REGID>
SCHEMBL16118319

> <PUBCHEM_SUBSTANCE_COMMENT>
InChI=1S/C14H22O5/c1-4-5-6-11(15)18-12-9-14(16-7-8-17-14)10-13(2,3)19-12/h9H,4-8,10H2,1-3H3
InChIKey=VFIOQUGYOQXMLC-UHFFFAOYSA-N

> <PUBCHEM_SUBSTANCE_SYNONYM>
SCHEMBL16118319

> <PUBCHEM_XREF_EXT_ID>
SCHEMBL16118319

> <PUBCHEM_EXT_DATASOURCE_URL>
https://www.surechembl.org/

> <PUBCHEM_EXT_SUBSTANCE_URL>
https://www.surechembl.org/chemical/SCHEMBL16118319

> <PUBCHEM_CID_ASSOCIATIONS>
117607408  1

> <PUBCHEM_COORDINATE_TYPE>
1
3

$$$$
