310949166
  -OEChem-07211613022D

 31 35  0     0  0  0  0  0  0999 V2000
    2.5747   -0.7015    0.0000 F   0  0  0  0  0  0  0  0  0  0  0  0
   -0.3327   -0.7015    0.0000 F   0  0  0  0  0  0  0  0  0  0  0  0
   -0.3327   -2.3504    0.0000 F   0  0  0  0  0  0  0  0  0  0  0  0
    2.5747   -2.3649    0.0000 F   0  0  0  0  0  0  0  0  0  0  0  0
   -0.4195    0.7449    0.0000 N   0  0  0  0  0  0  0  0  0  0  0  0
    0.3472    0.5569    0.0000 C   0  0  0  0  0  0  0  0  0  0  0  0
   -0.7377    1.4971    0.0000 C   0  0  0  0  0  0  0  0  0  0  0  0
   -1.0849    0.2676    0.0000 C   0  0  0  0  0  0  0  0  0  0  0  0
    1.1137    0.1518    0.0000 C   0  0  0  0  0  0  0  0  0  0  0  0
   -1.7936    0.7015    0.0000 C   0  0  0  0  0  0  0  0  0  0  0  0
   -1.5622    1.5115    0.0000 C   0  0  0  0  0  0  0  0  0  0  0  0
    1.1137   -0.6871    0.0000 C   0  0  0  0  0  0  0  0  0  0  0  0
    0.3905    1.3380    0.0000 C   0  0  0  0  0  0  0  0  0  0  0  0
    1.8370   -1.1065    0.0000 C   0  0  0  0  0  0  0  0  0  0  0  0
    0.3905   -1.1065    0.0000 C   0  0  0  0  0  0  0  0  0  0  0  0
    0.3616   -1.9310    0.0000 C   0  0  0  0  0  0  0  0  0  0  0  0
    1.8080   -1.9310    0.0000 C   0  0  0  0  0  0  0  0  0  0  0  0
    1.8225    0.5424    0.0000 C   0  0  0  0  0  0  0  0  0  0  0  0
   -0.3327    2.2636    0.0000 C   0  0  0  0  0  0  0  0  0  0  0  0
   -1.1716   -0.5713    0.0000 C   0  0  0  0  0  0  0  0  0  0  0  0
    1.0993   -2.3360    0.0000 C   0  0  0  0  0  0  0  0  0  0  0  0
   -2.5168    0.3255    0.0000 C   0  0  0  0  0  0  0  0  0  0  0  0
   -1.9961    2.1769    0.0000 C   0  0  0  0  0  0  0  0  0  0  0  0
    1.1137    1.7574    0.0000 C   0  0  0  0  0  0  0  0  0  0  0  0
    1.8225    1.3524    0.0000 C   0  0  0  0  0  0  0  0  0  0  0  0
   -0.7811    2.9146    0.0000 C   0  0  0  0  0  0  0  0  0  0  0  0
   -1.8659   -0.9329    0.0000 C   0  0  0  0  0  0  0  0  0  0  0  0
   -2.5747   -0.4846    0.0000 C   0  0  0  0  0  0  0  0  0  0  0  0
   -1.6200    2.9290    0.0000 C   0  0  0  0  0  0  0  0  0  0  0  0
   -0.3472    1.7574    0.0000 C   0  0  0  0  0  0  0  0  0  0  0  0
    1.0993   -2.9290    0.0000 C   0  0  0  0  0  0  0  0  0  0  0  0
  1 14  1  0  0  0  0
  2 15  1  0  0  0  0
  3 16  1  0  0  0  0
  4 17  1  0  0  0  0
  5  6  1  0  0  0  0
  5  7  1  0  0  0  0
  5  8  1  0  0  0  0
  6  9  1  0  0  0  0
  6 13  2  0  0  0  0
  7 11  2  0  0  0  0
  7 19  1  0  0  0  0
  8 10  2  0  0  0  0
  8 20  1  0  0  0  0
  9 12  1  0  0  0  0
  9 18  2  0  0  0  0
 10 11  1  0  0  0  0
 10 22  1  0  0  0  0
 11 23  1  0  0  0  0
 12 14  2  0  0  0  0
 12 15  1  0  0  0  0
 13 24  1  0  0  0  0
 13 30  1  0  0  0  0
 14 17  1  0  0  0  0
 15 16  2  0  0  0  0
 16 21  1  0  0  0  0
 17 21  2  0  0  0  0
 18 25  1  0  0  0  0
 19 26  2  0  0  0  0
 20 27  2  0  0  0  0
 21 31  1  0  0  0  0
 22 28  2  0  0  0  0
 23 29  2  0  0  0  0
 24 25  2  0  0  0  0
 26 29  1  0  0  0  0
 27 28  1  0  0  0  0
M  END
> <PUBCHEM_COMPOUND_ID_TYPE>
0

> <PUBCHEM_TOTAL_CHARGE>
0

> <PUBCHEM_SUBSTANCE_ID>
310949166

> <PUBCHEM_SUBSTANCE_VERSION>
1

> <PUBCHEM_EXT_DATASOURCE_NAME>
4488

> <PUBCHEM_EXT_DATASOURCE_REGID>
SCHEMBL16127356

> <PUBCHEM_SUBSTANCE_COMMENT>
InChI=1S/C26H17F4N/c1-14-8-7-11-18(21-24(29)22(27)15(2)23(28)25(21)30)26(14)31-19-12-5-3-9-16(19)17-10-4-6-13-20(17)31/h3-13H,1-2H3
InChIKey=WYGOKSVHDNZNGZ-UHFFFAOYSA-N

> <PUBCHEM_SUBSTANCE_SYNONYM>
SCHEMBL16127356

> <PUBCHEM_XREF_EXT_ID>
SCHEMBL16127356

> <PUBCHEM_EXT_DATASOURCE_URL>
https://www.surechembl.org/

> <PUBCHEM_EXT_SUBSTANCE_URL>
https://www.surechembl.org/chemical/SCHEMBL16127356

> <PUBCHEM_CID_ASSOCIATIONS>
117614659  1

> <PUBCHEM_COORDINATE_TYPE>
1
3

$$$$
