310938250
  -OEChem-07211613022D

 25 28  0     0  0  0  0  0  0999 V2000
    0.7118   -0.8590    0.0000 F   0  0  0  0  0  0  0  0  0  0  0  0
    1.4235   -2.0862    0.0000 F   0  0  0  0  0  0  0  0  0  0  0  0
    1.3990   -0.4418    0.0000 F   0  0  0  0  0  0  0  0  0  0  0  0
    3.4851    0.0000    0.0000 O   0  0  0  0  0  0  0  0  0  0  0  0
    2.8225   -1.2272    0.0000 N   0  0  0  0  0  0  0  0  0  0  0  0
    3.5097   -3.2642    0.0000 N   0  0  0  0  0  0  0  0  0  0  0  0
    5.0313   -2.3316    0.0000 N   0  0  0  0  0  0  0  0  0  0  0  0
    5.4977   -1.6444    0.0000 N   0  0  0  0  0  0  0  0  0  0  0  0
    1.3990   -4.4668    0.0000 N   0  0  0  0  0  0  0  0  0  0  0  0
    2.8225   -2.0616    0.0000 C   0  0  0  0  0  0  0  0  0  0  0  0
    3.5097   -2.4789    0.0000 C   0  0  0  0  0  0  0  0  0  0  0  0
    4.2460   -2.0616    0.0000 C   0  0  0  0  0  0  0  0  0  0  0  0
    4.2460   -1.2272    0.0000 C   0  0  0  0  0  0  0  0  0  0  0  0
    3.5097   -0.8099    0.0000 C   0  0  0  0  0  0  0  0  0  0  0  0
    2.1107   -2.4789    0.0000 C   0  0  0  0  0  0  0  0  0  0  0  0
    2.1107   -3.2642    0.0000 C   0  0  0  0  0  0  0  0  0  0  0  0
    2.1107   -0.8345    0.0000 C   0  0  0  0  0  0  0  0  0  0  0  0
    5.0313   -0.9817    0.0000 C   0  0  0  0  0  0  0  0  0  0  0  0
    2.8225   -3.6815    0.0000 C   0  0  0  0  0  0  0  0  0  0  0  0
    1.4235   -1.2517    0.0000 C   0  0  0  0  0  0  0  0  0  0  0  0
    1.3990   -3.6815    0.0000 C   0  0  0  0  0  0  0  0  0  0  0  0
    0.6872   -3.2397    0.0000 C   0  0  0  0  0  0  0  0  0  0  0  0
    0.7118   -4.9086    0.0000 C   0  0  0  0  0  0  0  0  0  0  0  0
    0.0000   -3.6815    0.0000 C   0  0  0  0  0  0  0  0  0  0  0  0
    0.0000   -4.4914    0.0000 C   0  0  0  0  0  0  0  0  0  0  0  0
  1 20  1  0  0  0  0
  2 20  1  0  0  0  0
  3 20  1  0  0  0  0
  4 14  2  0  0  0  0
  5 10  1  0  0  0  0
  5 14  1  0  0  0  0
  5 17  1  0  0  0  0
  6 11  2  0  0  0  0
  6 19  1  0  0  0  0
  7  8  1  0  0  0  0
  7 12  1  0  0  0  0
  8 18  2  0  0  0  0
  9 21  1  0  0  0  0
  9 23  2  0  0  0  0
 10 11  1  0  0  0  0
 10 15  2  0  0  0  0
 11 12  1  0  0  0  0
 12 13  2  0  0  0  0
 13 14  1  0  0  0  0
 13 18  1  0  0  0  0
 15 16  1  0  0  0  0
 16 19  2  0  0  0  0
 16 21  1  0  0  0  0
 17 20  1  0  0  0  0
 21 22  2  0  0  0  0
 22 24  1  0  0  0  0
 23 25  1  0  0  0  0
 24 25  2  0  0  0  0
M  END
> <PUBCHEM_COMPOUND_ID_TYPE>
0

> <PUBCHEM_TOTAL_CHARGE>
0

> <PUBCHEM_SUBSTANCE_ID>
310938250

> <PUBCHEM_SUBSTANCE_VERSION>
1

> <PUBCHEM_EXT_DATASOURCE_NAME>
4488

> <PUBCHEM_EXT_DATASOURCE_REGID>
SCHEMBL16116115

> <PUBCHEM_SUBSTANCE_COMMENT>
InChI=1S/C16H10F3N5O/c17-16(18,19)8-24-12-5-9(11-3-1-2-4-20-11)6-21-14(12)13-10(15(24)25)7-22-23-13/h1-7H,8H2,(H,22,23)
InChIKey=DSEJDYBMGGGJOE-UHFFFAOYSA-N

> <PUBCHEM_SUBSTANCE_SYNONYM>
SCHEMBL16116115

> <PUBCHEM_XREF_EXT_ID>
SCHEMBL16116115

> <PUBCHEM_EXT_DATASOURCE_URL>
https://www.surechembl.org/

> <PUBCHEM_EXT_SUBSTANCE_URL>
https://www.surechembl.org/chemical/SCHEMBL16116115

> <PUBCHEM_CID_ASSOCIATIONS>
86298833  1

> <PUBCHEM_COORDINATE_TYPE>
1
3

$$$$
