310940574
  -OEChem-07211613022D

 32 35  0     0  0  0  0  0  0999 V2000
   -0.7220    0.8543    0.0000 F   0  0  0  0  0  0  0  0  0  0  0  0
   -0.9661    1.9322    0.0000 F   0  0  0  0  0  0  0  0  0  0  0  0
    0.1322    2.1763    0.0000 F   0  0  0  0  0  0  0  0  0  0  0  0
   -2.4711   -2.2169    0.0000 O   0  0  0  0  0  0  0  0  0  0  0  0
    0.4983    0.4881    0.0000 O   0  0  0  0  0  0  0  0  0  0  0  0
   -1.7390   -0.9559    0.0000 N   0  0  0  0  0  0  0  0  0  0  0  0
   -0.9865   -3.0508    0.0000 N   0  0  0  0  0  0  0  0  0  0  0  0
    0.8440   -0.9356    0.0000 N   0  0  0  0  0  0  0  0  0  0  0  0
   -0.1729   -3.2339    0.0000 N   0  0  0  0  0  0  0  0  0  0  0  0
   -0.2949   -1.7898    0.0000 C   0  0  0  0  0  0  0  0  0  0  0  0
   -1.0068   -2.1152    0.0000 C   0  0  0  0  0  0  0  0  0  0  0  0
    0.2746   -2.4203    0.0000 C   0  0  0  0  0  0  0  0  0  0  0  0
   -1.7593   -1.7084    0.0000 C   0  0  0  0  0  0  0  0  0  0  0  0
    0.0102   -1.0169    0.0000 C   0  0  0  0  0  0  0  0  0  0  0  0
   -1.7186    1.6068    0.0000 C   0  0  0  0  0  0  0  0  0  0  0  0
   -1.7390    0.7932    0.0000 C   0  0  0  0  0  0  0  0  0  0  0  0
   -1.0271    2.0338    0.0000 C   0  0  0  0  0  0  0  0  0  0  0  0
    1.1288   -2.2372    0.0000 C   0  0  0  0  0  0  0  0  0  0  0  0
   -0.2949    1.5254    0.0000 C   0  0  0  0  0  0  0  0  0  0  0  0
    1.3728   -1.4644    0.0000 C   0  0  0  0  0  0  0  0  0  0  0  0
   -1.0068   -0.4474    0.0000 C   0  0  0  0  0  0  0  0  0  0  0  0
   -2.4711   -0.4474    0.0000 C   0  0  0  0  0  0  0  0  0  0  0  0
    1.1084   -0.0814    0.0000 C   0  0  0  0  0  0  0  0  0  0  0  0
   -1.0068    0.3254    0.0000 C   0  0  0  0  0  0  0  0  0  0  0  0
   -2.4508    0.3661    0.0000 C   0  0  0  0  0  0  0  0  0  0  0  0
   -2.4305    2.0338    0.0000 C   0  0  0  0  0  0  0  0  0  0  0  0
   -1.0068    2.8271    0.0000 C   0  0  0  0  0  0  0  0  0  0  0  0
    1.9016    0.0814    0.0000 C   0  0  0  0  0  0  0  0  0  0  0  0
   -2.4101    2.8474    0.0000 C   0  0  0  0  0  0  0  0  0  0  0  0
   -1.7186    3.2339    0.0000 C   0  0  0  0  0  0  0  0  0  0  0  0
    2.1864    0.8949    0.0000 C   0  0  0  0  0  0  0  0  0  0  0  0
    2.4711   -0.5288    0.0000 C   0  0  0  0  0  0  0  0  0  0  0  0
  1 19  1  0  0  0  0
  2 19  1  0  0  0  0
  3 19  1  0  0  0  0
  4 13  2  0  0  0  0
  5 23  2  0  0  0  0
  6 13  1  0  0  0  0
  6 21  1  0  0  0  0
  6 22  1  0  0  0  0
  7  9  1  0  0  0  0
  7 11  2  0  0  0  0
  8 14  1  0  0  0  0
  8 20  1  0  0  0  0
  8 23  1  0  0  0  0
  9 12  1  0  0  0  0
 10 11  1  0  0  0  0
 10 12  2  0  0  0  0
 10 14  1  0  0  0  0
 11 13  1  0  0  0  0
 12 18  1  0  0  0  0
 15 16  1  0  0  0  0
 15 17  2  0  0  0  0
 15 26  1  0  0  0  0
 16 24  1  0  0  0  0
 16 25  1  0  0  0  0
 17 19  1  0  0  0  0
 17 27  1  0  0  0  0
 18 20  1  0  0  0  0
 21 24  1  0  0  0  0
 22 25  1  0  0  0  0
 23 28  1  0  0  0  0
 26 29  2  0  0  0  0
 27 30  2  0  0  0  0
 28 31  1  0  0  0  0
 28 32  1  0  0  0  0
 29 30  1  0  0  0  0
M  END
> <PUBCHEM_COMPOUND_ID_TYPE>
0

> <PUBCHEM_TOTAL_CHARGE>
0

> <PUBCHEM_SUBSTANCE_ID>
310940574

> <PUBCHEM_SUBSTANCE_VERSION>
1

> <PUBCHEM_EXT_DATASOURCE_NAME>
4488

> <PUBCHEM_EXT_DATASOURCE_REGID>
SCHEMBL16118528

> <PUBCHEM_SUBSTANCE_COMMENT>
InChI=1S/C23H27F3N4O2/c1-14(2)21(31)30-12-9-19-17(13-30)20(28-27-19)22(32)29-10-7-15(8-11-29)16-5-3-4-6-18(16)23(24,25)26/h3-6,14-15H,7-13H2,1-2H3,(H,27,28)
InChIKey=FPPQPINVAMYCGO-UHFFFAOYSA-N

> <PUBCHEM_SUBSTANCE_SYNONYM>
SCHEMBL16118528

> <PUBCHEM_XREF_EXT_ID>
SCHEMBL16118528

> <PUBCHEM_EXT_DATASOURCE_URL>
https://www.surechembl.org/

> <PUBCHEM_EXT_SUBSTANCE_URL>
https://www.surechembl.org/chemical/SCHEMBL16118528

> <PUBCHEM_CID_ASSOCIATIONS>
86269361  1

> <PUBCHEM_COORDINATE_TYPE>
1
3

$$$$
