310942561
  -OEChem-07211613022D

 81 88  0     1  0  0  0  0  0999 V2000
    5.9271   -3.1927    0.0000 F   0  0  0  0  0  0  0  0  0  0  0  0
    9.2420   -2.8413    0.0000 F   0  0  0  0  0  0  0  0  0  0  0  0
    4.0329    2.5206    0.0000 O   0  0  0  0  0  0  0  0  0  0  0  0
    7.6227   -0.3972    0.0000 O   0  0  0  0  0  0  0  0  0  0  0  0
    9.1045    0.5194    0.0000 O   0  0  0  0  0  0  0  0  0  0  0  0
   -0.2903    2.5206    0.0000 O   0  0  0  0  0  0  0  0  0  0  0  0
   -2.4595    0.4430    0.0000 O   0  0  0  0  0  0  0  0  0  0  0  0
   -9.6697    0.2291    0.0000 O   0  0  0  0  0  0  0  0  0  0  0  0
   -6.7520    0.2139    0.0000 O   0  0  0  0  0  0  0  0  0  0  0  0
   -4.5980    2.5206    0.0000 O   0  0  0  0  0  0  0  0  0  0  0  0
   -3.1774    0.0306    0.0000 O   0  0  0  0  0  0  0  0  0  0  0  0
    5.4688    2.5206    0.0000 N   0  0  3  0  0  0  0  0  0  0  0  0
    6.9047    0.8555    0.0000 N   0  0  0  0  0  0  0  0  0  0  0  0
    5.5146   -0.8708    0.0000 N   0  0  0  0  0  0  0  0  0  0  0  0
    6.8589   -0.8860    0.0000 N   0  0  0  0  0  0  0  0  0  0  0  0
    0.4277    1.2679    0.0000 N   0  0  0  0  0  0  0  0  0  0  0  0
   -1.7262    1.6956    0.0000 N   0  0  0  0  0  0  0  0  0  0  0  0
   -3.8954    1.2679    0.0000 N   0  0  0  0  0  0  0  0  0  0  0  0
   -8.2184    0.4583    0.0000 N   0  0  0  0  0  0  0  0  0  0  0  0
   -2.4595   -1.2221    0.0000 N   0  0  0  0  0  0  0  0  0  0  0  0
   -3.8954   -1.2221    0.0000 N   0  0  0  0  0  0  0  0  0  0  0  0
    6.2021    2.9482    0.0000 C   0  0  0  0  0  0  0  0  0  0  0  0
    5.4535    0.8708    0.0000 C   0  0  0  0  0  0  0  0  0  0  0  0
    6.2021    0.4430    0.0000 C   0  0  3  0  0  0  0  0  0  0  0  0
    6.2021    3.7579    0.0000 C   0  0  0  0  0  0  0  0  0  0  0  0
    6.8894    3.3454    0.0000 C   0  0  0  0  0  0  0  0  0  0  0  0
    6.2021    2.1081    0.0000 C   0  0  0  0  0  0  0  0  0  0  0  0
    6.1868   -0.3819    0.0000 C   0  0  0  0  0  0  0  0  0  0  0  0
    4.7508    2.9177    0.0000 C   0  0  0  0  0  0  0  0  0  0  0  0
    6.9047    1.6956    0.0000 C   0  0  0  0  0  0  0  0  0  0  0  0
    7.6227    0.5041    0.0000 C   0  0  0  0  0  0  0  0  0  0  0  0
    4.7355    0.4430    0.0000 C   0  0  0  0  0  0  0  0  0  0  0  0
    4.7355    1.2679    0.0000 C   0  0  0  0  0  0  0  0  0  0  0  0
    6.5992   -1.6651    0.0000 C   0  0  0  0  0  0  0  0  0  0  0  0
    5.7743   -1.6498    0.0000 C   0  0  0  0  0  0  0  0  0  0  0  0
    8.3559    0.8555    0.0000 C   0  0  3  0  0  0  0  0  0  0  0  0
    4.7661    3.5135    0.0000 C   0  0  0  0  0  0  0  0  0  0  0  0
    7.0880   -2.3372    0.0000 C   0  0  0  0  0  0  0  0  0  0  0  0
    4.7202   -0.6263    0.0000 C   0  0  0  0  0  0  0  0  0  0  0  0
    3.2996    2.9330    0.0000 C   0  0  0  0  0  0  0  0  0  0  0  0
    4.1093   -1.1762    0.0000 C   0  0  0  0  0  0  0  0  0  0  0  0
    8.4476    1.6956    0.0000 C   0  0  0  0  0  0  0  0  0  0  0  0
    6.7672   -3.1010    0.0000 C   0  0  0  0  0  0  0  0  0  0  0  0
    7.9283   -2.2609    0.0000 C   0  0  0  0  0  0  0  0  0  0  0  0
    2.5969    2.5206    0.0000 C   0  0  0  0  0  0  0  0  0  0  0  0
    9.6697    1.1304    0.0000 C   0  0  0  0  0  0  0  0  0  0  0  0
    9.2572    1.8484    0.0000 C   0  0  0  0  0  0  0  0  0  0  0  0
    8.4017   -2.9177    0.0000 C   0  0  0  0  0  0  0  0  0  0  0  0
    7.2561   -3.7579    0.0000 C   0  0  0  0  0  0  0  0  0  0  0  0
    3.3149   -0.9318    0.0000 C   0  0  0  0  0  0  0  0  0  0  0  0
    4.2773   -1.9859    0.0000 C   0  0  0  0  0  0  0  0  0  0  0  0
    8.0657   -3.6815    0.0000 C   0  0  0  0  0  0  0  0  0  0  0  0
    2.5817    1.6956    0.0000 C   0  0  0  0  0  0  0  0  0  0  0  0
    1.8637    2.9330    0.0000 C   0  0  0  0  0  0  0  0  0  0  0  0
    2.7038   -1.4818    0.0000 C   0  0  0  0  0  0  0  0  0  0  0  0
    3.6662   -2.5358    0.0000 C   0  0  0  0  0  0  0  0  0  0  0  0
    2.8871   -2.2761    0.0000 C   0  0  0  0  0  0  0  0  0  0  0  0
    1.8789    1.2832    0.0000 C   0  0  0  0  0  0  0  0  0  0  0  0
    1.1762    2.5358    0.0000 C   0  0  0  0  0  0  0  0  0  0  0  0
    1.1457    1.6956    0.0000 C   0  0  0  0  0  0  0  0  0  0  0  0
   -0.3055    1.6803    0.0000 C   0  0  0  0  0  0  0  0  0  0  0  0
   -0.9929    1.2832    0.0000 C   0  0  3  0  0  0  0  0  0  0  0  0
   -0.9929    0.4583    0.0000 C   0  0  0  0  0  0  0  0  0  0  0  0
   -2.4442    1.3137    0.0000 C   0  0  0  0  0  0  0  0  0  0  0  0
   -3.1774    1.6956    0.0000 C   0  0  3  0  0  0  0  0  0  0  0  0
   -1.7109    0.0306    0.0000 C   0  0  0  0  0  0  0  0  0  0  0  0
   -3.1621    2.5511    0.0000 C   0  0  0  0  0  0  0  0  0  0  0  0
   -8.8600   -0.0458    0.0000 C   0  0  0  0  0  0  0  0  0  0  0  0
   -7.5616   -0.0458    0.0000 C   0  0  0  0  0  0  0  0  0  0  0  0
   -4.6133    1.6651    0.0000 C   0  0  0  0  0  0  0  0  0  0  0  0
   -1.7415   -0.8097    0.0000 C   0  0  0  0  0  0  0  0  0  0  0  0
   -8.6309   -0.8097    0.0000 C   0  0  0  0  0  0  0  0  0  0  0  0
   -7.8060   -0.8249    0.0000 C   0  0  0  0  0  0  0  0  0  0  0  0
   -8.2032    1.2984    0.0000 C   0  0  0  0  0  0  0  0  0  0  0  0
   -3.8954    2.9177    0.0000 C   0  0  0  0  0  0  0  0  0  0  0  0
   -2.4289    2.9330    0.0000 C   0  0  0  0  0  0  0  0  0  0  0  0
   -5.3160    1.2832    0.0000 C   0  0  0  0  0  0  0  0  0  0  0  0
   -7.5005    1.6956    0.0000 C   0  0  0  0  0  0  0  0  0  0  0  0
   -6.0493    1.6956    0.0000 C   0  0  0  0  0  0  0  0  0  0  0  0
   -6.7520    1.2832    0.0000 C   0  0  0  0  0  0  0  0  0  0  0  0
   -3.1774   -0.8097    0.0000 C   0  0  0  0  0  0  0  0  0  0  0  0
  1 43  1  0  0  0  0
  2 48  1  0  0  0  0
  3 29  1  0  0  0  0
  3 40  1  0  0  0  0
  4 31  2  0  0  0  0
  5 36  1  0  0  0  0
  5 46  1  0  0  0  0
  6 61  2  0  0  0  0
  7 64  2  0  0  0  0
  8 68  2  0  0  0  0
  9 69  2  0  0  0  0
 10 70  2  0  0  0  0
 11 81  2  0  0  0  0
 12 22  1  0  0  0  0
 12 23  1  0  0  0  0
 12 29  1  0  0  0  0
 13 24  1  0  0  0  0
 13 30  1  0  0  0  0
 13 31  1  0  0  0  0
 14 28  1  0  0  0  0
 14 35  1  0  0  0  0
 14 39  1  0  0  0  0
 15 28  2  0  0  0  0
 15 34  1  0  0  0  0
 16 60  1  0  0  0  0
 16 61  1  0  0  0  0
 62 17  1  6  0  0  0
 17 64  1  0  0  0  0
 65 18  1  1  0  0  0
 18 70  1  0  0  0  0
 19 68  1  0  0  0  0
 19 69  1  0  0  0  0
 19 74  1  0  0  0  0
 20 71  1  0  0  0  0
 20 81  1  0  0  0  0
 21 81  1  0  0  0  0
 22 25  1  0  0  0  0
 22 26  1  0  0  0  0
 22 27  1  0  0  0  0
 23 24  1  0  0  0  0
 23 32  1  0  0  0  0
 23 33  1  0  0  0  0
 24 28  1  1  0  0  0
 25 26  1  0  0  0  0
 27 30  1  0  0  0  0
 29 37  2  0  0  0  0
 36 31  1  6  0  0  0
 34 35  2  0  0  0  0
 34 38  1  0  0  0  0
 36 42  1  0  0  0  0
 38 43  2  0  0  0  0
 38 44  1  0  0  0  0
 39 41  1  0  0  0  0
 40 45  1  0  0  0  0
 41 50  2  0  0  0  0
 41 51  1  0  0  0  0
 42 47  1  0  0  0  0
 43 49  1  0  0  0  0
 44 48  2  0  0  0  0
 45 53  2  0  0  0  0
 45 54  1  0  0  0  0
 46 47  1  0  0  0  0
 48 52  1  0  0  0  0
 49 52  2  0  0  0  0
 50 55  1  0  0  0  0
 51 56  2  0  0  0  0
 53 58  1  0  0  0  0
 54 59  2  0  0  0  0
 55 57  2  0  0  0  0
 56 57  1  0  0  0  0
 58 60  2  0  0  0  0
 59 60  1  0  0  0  0
 61 62  1  0  0  0  0
 62 63  1  0  0  0  0
 63 66  1  0  0  0  0
 64 65  1  0  0  0  0
 65 67  1  0  0  0  0
 66 71  1  0  0  0  0
 67 75  1  0  0  0  0
 67 76  1  0  0  0  0
 68 72  1  0  0  0  0
 69 73  1  0  0  0  0
 70 77  1  0  0  0  0
 72 73  2  0  0  0  0
 74 78  1  0  0  0  0
 77 79  1  0  0  0  0
 78 80  1  0  0  0  0
 79 80  1  0  0  0  0
M  END
> <PUBCHEM_COMPOUND_ID_TYPE>
0

> <PUBCHEM_TOTAL_CHARGE>
0

> <PUBCHEM_SUBSTANCE_ID>
310942561

> <PUBCHEM_SUBSTANCE_VERSION>
1

> <PUBCHEM_EXT_DATASOURCE_NAME>
4488

> <PUBCHEM_EXT_DATASOURCE_REGID>
SCHEMBL16120604

> <PUBCHEM_SUBSTANCE_COMMENT>
InChI=1S/C60H74F2N10O9/c1-38(2)52(68-49(73)18-10-7-11-31-70-50(74)25-26-51(70)75)56(77)67-46(16-12-30-64-58(63)79)55(76)65-43-22-19-41(20-23-43)37-81-39(3)72-59(4,5)53(71(32-29-60(72)27-28-60)57(78)48-17-13-33-80-48)54-66-47(44-34-42(61)21-24-45(44)62)36-69(54)35-40-14-8-6-9-15-40/h6,8-9,14-15,19-26,34,36,38,46,48,52-53H,3,7,10-13,16-18,27-33,35,37H2,1-2,4-5H3,(H,65,76)(H,67,77)(H,68,73)(H3,63,64,79)/t46-,48-,52-,53-/m0/s1
InChIKey=OIQFISZAXOBYHB-HAXCXGECSA-N

> <PUBCHEM_SUBSTANCE_SYNONYM>
SCHEMBL16120604

> <PUBCHEM_XREF_EXT_ID>
SCHEMBL16120604

> <PUBCHEM_EXT_DATASOURCE_URL>
https://www.surechembl.org/

> <PUBCHEM_EXT_SUBSTANCE_URL>
https://www.surechembl.org/chemical/SCHEMBL16120604

> <PUBCHEM_CID_ASSOCIATIONS>
117609117  1

> <PUBCHEM_COORDINATE_TYPE>
1
3

> <PUBCHEM_BONDANNOTATIONS>
62  17  6
65  18  5
24  28  5
36  31  6

$$$$
