310949265
  -OEChem-07211613022D

 36 41  0     0  0  0  0  0  0999 V2000
    0.0269   -0.2154    0.0000 N   0  0  0  0  0  0  0  0  0  0  0  0
    2.1805   -0.6864    0.0000 N   0  0  0  0  0  0  0  0  0  0  0  0
   -2.1401   -0.6864    0.0000 N   0  0  0  0  0  0  0  0  0  0  0  0
    0.6730    0.3230    0.0000 C   0  0  0  0  0  0  0  0  0  0  0  0
   -0.6595    0.3096    0.0000 C   0  0  0  0  0  0  0  0  0  0  0  0
   -0.4173    1.1305    0.0000 C   0  0  0  0  0  0  0  0  0  0  0  0
    0.4307    1.1036    0.0000 C   0  0  0  0  0  0  0  0  0  0  0  0
    0.0000   -1.0363    0.0000 C   0  0  0  0  0  0  0  0  0  0  0  0
   -0.9691    1.7094    0.0000 C   0  0  0  0  0  0  0  0  0  0  0  0
    0.9960    1.7228    0.0000 C   0  0  0  0  0  0  0  0  0  0  0  0
    0.7537   -1.4536    0.0000 C   0  0  0  0  0  0  0  0  0  0  0  0
   -0.6999   -1.4401    0.0000 C   0  0  0  0  0  0  0  0  0  0  0  0
    1.4940    0.1481    0.0000 C   0  0  0  0  0  0  0  0  0  0  0  0
   -1.4940    0.1481    0.0000 C   0  0  0  0  0  0  0  0  0  0  0  0
   -1.7767    1.5478    0.0000 C   0  0  0  0  0  0  0  0  0  0  0  0
    1.7902    1.5613    0.0000 C   0  0  0  0  0  0  0  0  0  0  0  0
   -2.0324    0.7402    0.0000 C   0  0  0  0  0  0  0  0  0  0  0  0
    2.0459    0.7402    0.0000 C   0  0  0  0  0  0  0  0  0  0  0  0
    0.7268   -2.3015    0.0000 C   0  0  0  0  0  0  0  0  0  0  0  0
   -0.6999   -2.2880    0.0000 C   0  0  0  0  0  0  0  0  0  0  0  0
   -2.3688    2.1670    0.0000 C   0  0  0  0  0  0  0  0  0  0  0  0
    2.3419    2.1805    0.0000 C   0  0  0  0  0  0  0  0  0  0  0  0
    0.0135   -2.7053    0.0000 C   0  0  0  0  0  0  0  0  0  0  0  0
    1.4536   -1.0632    0.0000 C   0  0  0  0  0  0  0  0  0  0  0  0
   -1.4267   -1.0498    0.0000 C   0  0  0  0  0  0  0  0  0  0  0  0
   -2.0997    2.9611    0.0000 C   0  0  0  0  0  0  0  0  0  0  0  0
    3.1629    2.0189    0.0000 C   0  0  0  0  0  0  0  0  0  0  0  0
   -3.1360    2.0055    0.0000 C   0  0  0  0  0  0  0  0  0  0  0  0
    2.0997    2.9611    0.0000 C   0  0  0  0  0  0  0  0  0  0  0  0
    0.0135   -3.5668    0.0000 C   0  0  0  0  0  0  0  0  0  0  0  0
   -2.6515    3.5668    0.0000 C   0  0  0  0  0  0  0  0  0  0  0  0
    3.7013    2.6111    0.0000 C   0  0  0  0  0  0  0  0  0  0  0  0
   -3.7013    2.5977    0.0000 C   0  0  0  0  0  0  0  0  0  0  0  0
    2.6246    3.5668    0.0000 C   0  0  0  0  0  0  0  0  0  0  0  0
   -3.4591    3.3784    0.0000 C   0  0  0  0  0  0  0  0  0  0  0  0
    3.4322    3.4053    0.0000 C   0  0  0  0  0  0  0  0  0  0  0  0
  1  4  1  0  0  0  0
  1  5  1  0  0  0  0
  1  8  1  0  0  0  0
  2 24  3  0  0  0  0
  3 25  3  0  0  0  0
  4  7  2  0  0  0  0
  4 13  1  0  0  0  0
  5  6  2  0  0  0  0
  5 14  1  0  0  0  0
  6  7  1  0  0  0  0
  6  9  1  0  0  0  0
  7 10  1  0  0  0  0
  8 11  2  0  0  0  0
  8 12  1  0  0  0  0
  9 15  2  0  0  0  0
 10 16  2  0  0  0  0
 11 19  1  0  0  0  0
 11 24  1  0  0  0  0
 12 20  2  0  0  0  0
 12 25  1  0  0  0  0
 13 18  2  0  0  0  0
 14 17  2  0  0  0  0
 15 17  1  0  0  0  0
 15 21  1  0  0  0  0
 16 18  1  0  0  0  0
 16 22  1  0  0  0  0
 19 23  2  0  0  0  0
 20 23  1  0  0  0  0
 21 26  2  0  0  0  0
 21 28  1  0  0  0  0
 22 27  2  0  0  0  0
 22 29  1  0  0  0  0
 23 30  1  0  0  0  0
 26 31  1  0  0  0  0
 27 32  1  0  0  0  0
 28 33  2  0  0  0  0
 29 34  2  0  0  0  0
 31 35  2  0  0  0  0
 32 36  2  0  0  0  0
 33 35  1  0  0  0  0
 34 36  1  0  0  0  0
M  END
> <PUBCHEM_COMPOUND_ID_TYPE>
0

> <PUBCHEM_TOTAL_CHARGE>
0

> <PUBCHEM_SUBSTANCE_ID>
310949265

> <PUBCHEM_SUBSTANCE_VERSION>
1

> <PUBCHEM_EXT_DATASOURCE_NAME>
4488

> <PUBCHEM_EXT_DATASOURCE_REGID>
SCHEMBL16127455

> <PUBCHEM_SUBSTANCE_COMMENT>
InChI=1S/C33H21N3/c1-22-16-27(20-34)33(28(17-22)21-35)36-31-14-12-25(23-8-4-2-5-9-23)18-29(31)30-19-26(13-15-32(30)36)24-10-6-3-7-11-24/h2-19H,1H3
InChIKey=PEGXJCXXKIISTB-UHFFFAOYSA-N

> <PUBCHEM_SUBSTANCE_SYNONYM>
SCHEMBL16127455

> <PUBCHEM_XREF_EXT_ID>
SCHEMBL16127455

> <PUBCHEM_EXT_DATASOURCE_URL>
https://www.surechembl.org/

> <PUBCHEM_EXT_SUBSTANCE_URL>
https://www.surechembl.org/chemical/SCHEMBL16127455

> <PUBCHEM_CID_ASSOCIATIONS>
117614751  1

> <PUBCHEM_COORDINATE_TYPE>
1
3

$$$$
