310934894
  -OEChem-07211613022D

 16 17  0     0  0  0  0  0  0999 V2000
    4.1658   -1.6936    0.0000 Br  0  0  0  0  0  0  0  0  0  0  0  0
    0.6619   -1.1485    0.0000 O   0  0  0  0  0  0  0  0  0  0  0  0
    1.4989    0.0000    0.0000 O   0  0  0  0  0  0  0  0  0  0  0  0
    2.0829   -2.1024    0.0000 N   0  0  0  0  0  0  0  0  0  0  0  0
    2.8616   -2.3749    0.0000 N   0  0  0  0  0  0  0  0  0  0  0  0
    2.0829   -1.3042    0.0000 C   0  0  0  0  0  0  0  0  0  0  0  0
    1.4211   -2.5890    0.0000 C   0  0  0  0  0  0  0  0  0  0  0  0
    3.3482   -1.6936    0.0000 C   0  0  0  0  0  0  0  0  0  0  0  0
    2.8616   -1.0317    0.0000 C   0  0  0  0  0  0  0  0  0  0  0  0
    1.4211   -0.8176    0.0000 C   0  0  0  0  0  0  0  0  0  0  0  0
    1.4989   -3.4261    0.0000 C   0  0  0  0  0  0  0  0  0  0  0  0
    0.6619   -2.2581    0.0000 C   0  0  0  0  0  0  0  0  0  0  0  0
    0.8371   -3.8932    0.0000 C   0  0  0  0  0  0  0  0  0  0  0  0
    0.0000   -2.7253    0.0000 C   0  0  0  0  0  0  0  0  0  0  0  0
    0.0779   -3.5624    0.0000 C   0  0  0  0  0  0  0  0  0  0  0  0
    0.0000   -0.6619    0.0000 C   0  0  0  0  0  0  0  0  0  0  0  0
  1  8  1  0  0  0  0
  2 10  1  0  0  0  0
  2 16  1  0  0  0  0
  3 10  2  0  0  0  0
  4  5  1  0  0  0  0
  4  6  1  0  0  0  0
  4  7  1  0  0  0  0
  5  8  2  0  0  0  0
  6  9  2  0  0  0  0
  6 10  1  0  0  0  0
  7 11  2  0  0  0  0
  7 12  1  0  0  0  0
  8  9  1  0  0  0  0
 11 13  1  0  0  0  0
 12 14  2  0  0  0  0
 13 15  2  0  0  0  0
 14 15  1  0  0  0  0
M  END
> <PUBCHEM_COMPOUND_ID_TYPE>
0

> <PUBCHEM_TOTAL_CHARGE>
0

> <PUBCHEM_SUBSTANCE_ID>
310934894

> <PUBCHEM_SUBSTANCE_VERSION>
1

> <PUBCHEM_EXT_DATASOURCE_NAME>
4488

> <PUBCHEM_EXT_DATASOURCE_REGID>
SCHEMBL16112407

> <PUBCHEM_SUBSTANCE_COMMENT>
InChI=1S/C11H9BrN2O2/c1-16-11(15)9-7-10(12)13-14(9)8-5-3-2-4-6-8/h2-7H,1H3
InChIKey=NNLDUTBQEOMSBJ-UHFFFAOYSA-N

> <PUBCHEM_SUBSTANCE_SYNONYM>
SCHEMBL16112407

> <PUBCHEM_XREF_EXT_ID>
SCHEMBL16112407

> <PUBCHEM_EXT_DATASOURCE_URL>
https://www.surechembl.org/

> <PUBCHEM_EXT_SUBSTANCE_URL>
https://www.surechembl.org/chemical/SCHEMBL16112407

> <PUBCHEM_CID_ASSOCIATIONS>
15864573  1

> <PUBCHEM_COORDINATE_TYPE>
1
3

$$$$
