310945542
  -OEChem-07211613022D

 26 28  0     0  0  0  0  0  0999 V2000
    1.0187    0.9102    0.0000 F   0  0  0  0  0  0  0  0  0  0  0  0
    1.7202    1.8287    0.0000 F   0  0  0  0  0  0  0  0  0  0  0  0
    2.4384    0.9102    0.0000 F   0  0  0  0  0  0  0  0  0  0  0  0
   -0.7015    0.6597    0.0000 F   0  0  0  0  0  0  0  0  0  0  0  0
   -2.8559   -1.8287    0.0000 F   0  0  0  0  0  0  0  0  0  0  0  0
   -3.5573   -0.9102    0.0000 F   0  0  0  0  0  0  0  0  0  0  0  0
   -2.8559   -0.0084    0.0000 F   0  0  0  0  0  0  0  0  0  0  0  0
    2.9394   -1.8287    0.0000 O   0  0  0  0  0  0  0  0  0  0  0  0
    0.4175   -0.1754    0.0000 N   0  0  0  0  0  0  0  0  0  0  0  0
    0.4175   -1.6451    0.0000 N   0  0  0  0  0  0  0  0  0  0  0  0
    2.3382   -0.4426    0.0000 N   0  0  0  0  0  0  0  0  0  0  0  0
    1.7202   -1.8287    0.0000 N   0  0  0  0  0  0  0  0  0  0  0  0
    1.1023   -0.4760    0.0000 C   0  0  0  0  0  0  0  0  0  0  0  0
    1.7035   -0.0084    0.0000 C   0  0  0  0  0  0  0  0  0  0  0  0
    1.0688   -1.3778    0.0000 C   0  0  0  0  0  0  0  0  0  0  0  0
   -0.0167   -0.9436    0.0000 C   0  0  0  0  0  0  0  0  0  0  0  0
   -0.7182   -0.9269    0.0000 C   0  0  0  0  0  0  0  0  0  0  0  0
    1.7035    0.8935    0.0000 C   0  0  0  0  0  0  0  0  0  0  0  0
    2.3215   -1.3945    0.0000 C   0  0  0  0  0  0  0  0  0  0  0  0
   -1.0856   -0.1586    0.0000 C   0  0  0  0  0  0  0  0  0  0  0  0
   -2.1377   -0.9269    0.0000 C   0  0  0  0  0  0  0  0  0  0  0  0
   -1.0856   -1.7286    0.0000 C   0  0  0  0  0  0  0  0  0  0  0  0
   -1.7870   -0.1754    0.0000 C   0  0  0  0  0  0  0  0  0  0  0  0
   -2.8559   -0.9436    0.0000 C   0  0  0  0  0  0  0  0  0  0  0  0
   -1.7870   -1.7286    0.0000 C   0  0  0  0  0  0  0  0  0  0  0  0
    3.5573   -1.3611    0.0000 C   0  0  0  0  0  0  0  0  0  0  0  0
  1 18  1  0  0  0  0
  2 18  1  0  0  0  0
  3 18  1  0  0  0  0
  4 20  1  0  0  0  0
  5 24  1  0  0  0  0
  6 24  1  0  0  0  0
  7 24  1  0  0  0  0
  8 19  1  0  0  0  0
  8 26  1  0  0  0  0
  9 13  1  0  0  0  0
  9 16  2  0  0  0  0
 10 15  1  0  0  0  0
 10 16  1  0  0  0  0
 11 14  2  0  0  0  0
 11 19  1  0  0  0  0
 12 15  1  0  0  0  0
 12 19  2  0  0  0  0
 13 14  1  0  0  0  0
 13 15  2  0  0  0  0
 14 18  1  0  0  0  0
 16 17  1  0  0  0  0
 17 20  2  0  0  0  0
 17 22  1  0  0  0  0
 20 23  1  0  0  0  0
 21 23  2  0  0  0  0
 21 24  1  0  0  0  0
 21 25  1  0  0  0  0
 22 25  2  0  0  0  0
M  END
> <PUBCHEM_COMPOUND_ID_TYPE>
0

> <PUBCHEM_TOTAL_CHARGE>
0

> <PUBCHEM_SUBSTANCE_ID>
310945542

> <PUBCHEM_SUBSTANCE_VERSION>
1

> <PUBCHEM_EXT_DATASOURCE_NAME>
4488

> <PUBCHEM_EXT_DATASOURCE_REGID>
SCHEMBL16123640

> <PUBCHEM_SUBSTANCE_COMMENT>
InChI=1S/C14H7F7N4O/c1-26-12-23-9(14(19,20)21)8-11(25-12)24-10(22-8)6-3-2-5(4-7(6)15)13(16,17)18/h2-4H,1H3,(H,22,23,24,25)
InChIKey=CDSZCUXZBRFTSR-UHFFFAOYSA-N

> <PUBCHEM_SUBSTANCE_SYNONYM>
SCHEMBL16123640

> <PUBCHEM_XREF_EXT_ID>
SCHEMBL16123640

> <PUBCHEM_EXT_DATASOURCE_URL>
https://www.surechembl.org/

> <PUBCHEM_EXT_SUBSTANCE_URL>
https://www.surechembl.org/chemical/SCHEMBL16123640

> <PUBCHEM_CID_ASSOCIATIONS>
117611583  1

> <PUBCHEM_COORDINATE_TYPE>
1
3

$$$$
