310939872
  -OEChem-07211613022D

 25 26  0     0  0  0  0  0  0999 V2000
    2.5006   -0.2062    0.0000 I   0  0  0  0  0  0  0  0  0  0  0  0
    2.5006    3.0938    0.0000 Cl  0  0  0  0  0  0  0  0  0  0  0  0
    3.9296    2.2687    0.0000 Cl  0  0  0  0  0  0  0  0  0  0  0  0
   -3.2151   -1.8563    0.0000 S   0  0  0  0  0  0  0  0  0  0  0  0
    1.0717    0.6187    0.0000 O   0  0  0  0  0  0  0  0  0  0  0  0
   -2.8026   -2.5707    0.0000 O   0  0  0  0  0  0  0  0  0  0  0  0
   -3.6276   -1.1418    0.0000 O   0  0  0  0  0  0  0  0  0  0  0  0
    0.3572    1.8563    0.0000 N   0  0  0  0  0  0  0  0  0  0  0  0
   -1.7862    0.6187    0.0000 N   0  0  0  0  0  0  0  0  0  0  0  0
   -2.5006   -1.4437    0.0000 N   0  0  0  0  0  0  0  0  0  0  0  0
    1.7862    1.0313    0.0000 C   0  0  0  0  0  0  0  0  0  0  0  0
    2.5006    0.6187    0.0000 C   0  0  0  0  0  0  0  0  0  0  0  0
    2.5006    2.2687    0.0000 C   0  0  0  0  0  0  0  0  0  0  0  0
    3.2151    1.8563    0.0000 C   0  0  0  0  0  0  0  0  0  0  0  0
    1.7862    1.8563    0.0000 C   0  0  0  0  0  0  0  0  0  0  0  0
    0.3572    1.0313    0.0000 C   0  0  0  0  0  0  0  0  0  0  0  0
    3.2151    1.0313    0.0000 C   0  0  0  0  0  0  0  0  0  0  0  0
   -0.3572    0.6187    0.0000 C   0  0  0  0  0  0  0  0  0  0  0  0
   -1.0717    1.0313    0.0000 C   0  0  0  0  0  0  0  0  0  0  0  0
   -1.0717    1.8563    0.0000 C   0  0  0  0  0  0  0  0  0  0  0  0
   -0.3572    2.2687    0.0000 C   0  0  0  0  0  0  0  0  0  0  0  0
   -1.7862   -0.2062    0.0000 C   0  0  0  0  0  0  0  0  0  0  0  0
   -2.5006   -0.6187    0.0000 C   0  0  0  0  0  0  0  0  0  0  0  0
   -3.9296   -2.2687    0.0000 C   0  0  0  0  0  0  0  0  0  0  0  0
   -3.9296   -3.0938    0.0000 C   0  0  0  0  0  0  0  0  0  0  0  0
  1 12  1  0  0  0  0
  2 13  1  0  0  0  0
  3 14  1  0  0  0  0
  4  6  2  0  0  0  0
  4  7  2  0  0  0  0
  4 10  1  0  0  0  0
  4 24  1  0  0  0  0
  5 11  1  0  0  0  0
  5 16  1  0  0  0  0
  8 16  1  0  0  0  0
  8 21  2  0  0  0  0
  9 19  1  0  0  0  0
  9 22  1  0  0  0  0
 10 23  1  0  0  0  0
 11 12  2  0  0  0  0
 11 15  1  0  0  0  0
 12 17  1  0  0  0  0
 13 14  1  0  0  0  0
 13 15  2  0  0  0  0
 14 17  2  0  0  0  0
 16 18  2  0  0  0  0
 18 19  1  0  0  0  0
 19 20  2  0  0  0  0
 20 21  1  0  0  0  0
 22 23  1  0  0  0  0
 24 25  2  0  0  0  0
M  END
> <PUBCHEM_COMPOUND_ID_TYPE>
0

> <PUBCHEM_TOTAL_CHARGE>
0

> <PUBCHEM_SUBSTANCE_ID>
310939872

> <PUBCHEM_SUBSTANCE_VERSION>
1

> <PUBCHEM_EXT_DATASOURCE_NAME>
4488

> <PUBCHEM_EXT_DATASOURCE_REGID>
SCHEMBL16117802

> <PUBCHEM_SUBSTANCE_COMMENT>
InChI=1S/C15H14Cl2IN3O3S/c1-2-25(22,23)21-6-5-19-10-3-4-20-15(7-10)24-14-9-12(17)11(16)8-13(14)18/h2-4,7-9,21H,1,5-6H2,(H,19,20)
InChIKey=OXJIMIBVCJZMEA-UHFFFAOYSA-N

> <PUBCHEM_SUBSTANCE_SYNONYM>
SCHEMBL16117802

> <PUBCHEM_XREF_EXT_ID>
SCHEMBL16117802

> <PUBCHEM_EXT_DATASOURCE_URL>
https://www.surechembl.org/

> <PUBCHEM_EXT_SUBSTANCE_URL>
https://www.surechembl.org/chemical/SCHEMBL16117802

> <PUBCHEM_CID_ASSOCIATIONS>
117607086  1

> <PUBCHEM_COORDINATE_TYPE>
1
3

$$$$
