310943442
  -OEChem-07211613022D

 32 35  0     0  0  0  0  0  0999 V2000
    4.3494   -2.0613    0.0000 F   0  0  0  0  0  0  0  0  0  0  0  0
    3.5452   -2.8801    0.0000 F   0  0  0  0  0  0  0  0  0  0  0  0
    2.7412   -2.0613    0.0000 F   0  0  0  0  0  0  0  0  0  0  0  0
    1.3816    0.0000    0.0000 O   0  0  0  0  0  0  0  0  0  0  0  0
   -4.3494    2.4708    0.0000 O   0  0  0  0  0  0  0  0  0  0  0  0
    2.0979    1.2427    0.0000 N   0  0  0  0  0  0  0  0  0  0  0  0
   -2.9166    1.6520    0.0000 N   0  0  0  0  0  0  0  0  0  0  0  0
    0.6652    2.8801    0.0000 N   0  0  0  0  0  0  0  0  0  0  0  0
    4.2470   -0.8188    0.0000 N   0  0  0  0  0  0  0  0  0  0  0  0
   -1.4839    0.0000    0.0000 N   0  0  0  0  0  0  0  0  0  0  0  0
   -0.0658    1.6520    0.0000 C   0  0  0  0  0  0  0  0  0  0  0  0
   -0.7530    1.2427    0.0000 C   0  0  0  0  0  0  0  0  0  0  0  0
    1.3669    1.6520    0.0000 C   0  0  0  0  0  0  0  0  0  0  0  0
   -0.0512    2.4708    0.0000 C   0  0  0  0  0  0  0  0  0  0  0  0
    3.5306   -1.2280    0.0000 C   0  0  0  0  0  0  0  0  0  0  0  0
    2.8143    0.0147    0.0000 C   0  0  0  0  0  0  0  0  0  0  0  0
    0.6798    1.2427    0.0000 C   0  0  0  0  0  0  0  0  0  0  0  0
   -2.1857    1.2427    0.0000 C   0  0  0  0  0  0  0  0  0  0  0  0
   -1.4839    1.6520    0.0000 C   0  0  0  0  0  0  0  0  0  0  0  0
    2.1125    0.4239    0.0000 C   0  0  0  0  0  0  0  0  0  0  0  0
    3.5306   -2.0613    0.0000 C   0  0  0  0  0  0  0  0  0  0  0  0
    2.8143   -0.8188    0.0000 C   0  0  0  0  0  0  0  0  0  0  0  0
   -0.7676    0.4093    0.0000 C   0  0  0  0  0  0  0  0  0  0  0  0
    1.3816    2.4562    0.0000 C   0  0  0  0  0  0  0  0  0  0  0  0
    3.5160    0.4093    0.0000 C   0  0  0  0  0  0  0  0  0  0  0  0
   -2.2003    0.4239    0.0000 C   0  0  0  0  0  0  0  0  0  0  0  0
    4.2470    0.0000    0.0000 C   0  0  0  0  0  0  0  0  0  0  0  0
   -2.9166    2.4708    0.0000 C   0  0  0  0  0  0  0  0  0  0  0  0
   -3.6184    1.2427    0.0000 C   0  0  0  0  0  0  0  0  0  0  0  0
   -0.7822    2.8654    0.0000 C   0  0  0  0  0  0  0  0  0  0  0  0
   -3.6476    2.8801    0.0000 C   0  0  0  0  0  0  0  0  0  0  0  0
   -4.3347    1.6520    0.0000 C   0  0  0  0  0  0  0  0  0  0  0  0
  1 21  1  0  0  0  0
  2 21  1  0  0  0  0
  3 21  1  0  0  0  0
  4 20  2  0  0  0  0
  5 31  1  0  0  0  0
  5 32  1  0  0  0  0
  6 13  1  0  0  0  0
  6 20  1  0  0  0  0
  7 18  1  0  0  0  0
  7 28  1  0  0  0  0
  7 29  1  0  0  0  0
  8 14  1  0  0  0  0
  8 24  2  0  0  0  0
  9 15  2  0  0  0  0
  9 27  1  0  0  0  0
 10 23  1  0  0  0  0
 10 26  2  0  0  0  0
 11 12  1  0  0  0  0
 11 14  2  0  0  0  0
 11 17  1  0  0  0  0
 12 19  1  0  0  0  0
 12 23  2  0  0  0  0
 13 17  2  0  0  0  0
 13 24  1  0  0  0  0
 14 30  1  0  0  0  0
 15 21  1  0  0  0  0
 15 22  1  0  0  0  0
 16 20  1  0  0  0  0
 16 22  2  0  0  0  0
 16 25  1  0  0  0  0
 18 19  2  0  0  0  0
 18 26  1  0  0  0  0
 25 27  2  0  0  0  0
 28 31  1  0  0  0  0
 29 32  1  0  0  0  0
M  END
> <PUBCHEM_COMPOUND_ID_TYPE>
0

> <PUBCHEM_TOTAL_CHARGE>
0

> <PUBCHEM_SUBSTANCE_ID>
310943442

> <PUBCHEM_SUBSTANCE_VERSION>
1

> <PUBCHEM_EXT_DATASOURCE_NAME>
4488

> <PUBCHEM_EXT_DATASOURCE_REGID>
SCHEMBL16121506

> <PUBCHEM_SUBSTANCE_COMMENT>
InChI=1S/C22H20F3N5O2/c1-14-19(16-8-18(13-26-11-16)30-4-6-32-7-5-30)10-17(12-28-14)29-21(31)15-2-3-27-20(9-15)22(23,24)25/h2-3,8-13H,4-7H2,1H3,(H,29,31)
InChIKey=YSJXSRJVNHZORQ-UHFFFAOYSA-N

> <PUBCHEM_SUBSTANCE_SYNONYM>
SCHEMBL16121506

> <PUBCHEM_XREF_EXT_ID>
SCHEMBL16121506

> <PUBCHEM_EXT_DATASOURCE_URL>
https://www.surechembl.org/

> <PUBCHEM_EXT_SUBSTANCE_URL>
https://www.surechembl.org/chemical/SCHEMBL16121506

> <PUBCHEM_CID_ASSOCIATIONS>
117609866  1

> <PUBCHEM_COORDINATE_TYPE>
1
3

$$$$
