310929626
  -OEChem-07211613022D

 59 63  0     0  0  0  0  0  0999 V2000
    4.0661   -8.4268    0.0000 S   0  0  0  0  0  0  0  0  0  0  0  0
    6.5411   -4.1839    0.0000 O   0  0  0  0  0  0  0  0  0  0  0  0
    4.0661   -7.0125    0.0000 O   0  0  0  0  0  0  0  0  0  0  0  0
    2.0625   -4.8321    0.0000 O   0  0  0  0  0  0  0  0  0  0  0  0
    4.0661   -7.4839    0.0000 O   0  0  0  0  0  0  0  0  0  0  0  0
    4.0661   -9.1928    0.0000 O   0  0  0  0  0  0  0  0  0  0  0  0
   11.5499   -1.5321    0.0000 O   0  0  0  0  0  0  0  0  0  0  0  0
    9.1928    0.0000    0.0000 O   0  0  0  0  0  0  0  0  0  0  0  0
   13.1999   -3.0054    0.0000 O   0  0  0  0  0  0  0  0  0  0  0  0
   15.2624   -2.3571    0.0000 O   0  0  0  0  0  0  0  0  0  0  0  0
    3.3000   -5.5393    0.0000 N   0  0  0  0  0  0  0  0  0  0  0  0
    3.3000   -4.1250    0.0000 N   0  0  0  0  0  0  0  0  0  0  0  0
    3.3000   -8.4268    0.0000 N   0  0  0  0  0  0  0  0  0  0  0  0
    7.7786   -3.5357    0.0000 N   0  0  0  0  0  0  0  0  0  0  0  0
    9.0750   -2.8286    0.0000 N   0  0  0  0  0  0  0  0  0  0  0  0
    7.8375   -2.1214    0.0000 N   0  0  0  0  0  0  0  0  0  0  0  0
   16.8535   -3.8304    0.0000 N   0  0  0  0  0  0  0  0  0  0  0  0
    4.4786   -4.8321    0.0000 C   0  0  0  0  0  0  0  0  0  0  0  0
    2.8875   -6.3053    0.0000 C   0  0  0  0  0  0  0  0  0  0  0  0
    3.2411   -7.0125    0.0000 C   0  0  0  0  0  0  0  0  0  0  0  0
    5.3036   -4.8321    0.0000 C   0  0  0  0  0  0  0  0  0  0  0  0
    2.8875   -7.7196    0.0000 C   0  0  0  0  0  0  0  0  0  0  0  0
    1.6500   -7.0125    0.0000 C   0  0  0  0  0  0  0  0  0  0  0  0
    4.1250   -4.1250    0.0000 C   0  0  0  0  0  0  0  0  0  0  0  0
    5.7161   -4.1839    0.0000 C   0  0  0  0  0  0  0  0  0  0  0  0
    2.0625   -6.2464    0.0000 C   0  0  0  0  0  0  0  0  0  0  0  0
    2.0625   -7.7196    0.0000 C   0  0  0  0  0  0  0  0  0  0  0  0
    0.8250   -7.0125    0.0000 C   0  0  0  0  0  0  0  0  0  0  0  0
    2.8875   -4.8321    0.0000 C   0  0  0  0  0  0  0  0  0  0  0  0
    4.5375   -3.4768    0.0000 C   0  0  0  0  0  0  0  0  0  0  0  0
    5.3625   -3.4768    0.0000 C   0  0  0  0  0  0  0  0  0  0  0  0
    4.0661   -5.5393    0.0000 C   0  0  0  0  0  0  0  0  0  0  0  0
    5.7161   -5.5982    0.0000 C   0  0  0  0  0  0  0  0  0  0  0  0
    7.0125   -3.4768    0.0000 C   0  0  0  0  0  0  0  0  0  0  0  0
    4.4786   -6.3053    0.0000 C   0  0  0  0  0  0  0  0  0  0  0  0
    5.3036   -6.3053    0.0000 C   0  0  0  0  0  0  0  0  0  0  0  0
    0.8250   -6.1286    0.0000 C   0  0  0  0  0  0  0  0  0  0  0  0
    0.0000   -6.9536    0.0000 C   0  0  0  0  0  0  0  0  0  0  0  0
    0.8250   -7.7786    0.0000 C   0  0  0  0  0  0  0  0  0  0  0  0
    8.2500   -2.8286    0.0000 C   0  0  0  0  0  0  0  0  0  0  0  0
    6.6000   -2.7696    0.0000 C   0  0  0  0  0  0  0  0  0  0  0  0
    9.4875   -2.1804    0.0000 C   0  0  0  0  0  0  0  0  0  0  0  0
    4.6553   -6.4232    0.0000 C   0  0  0  0  0  0  0  0  0  0  0  0
    7.0125   -2.0625    0.0000 C   0  0  0  0  0  0  0  0  0  0  0  0
    4.8911   -8.4268    0.0000 C   0  0  0  0  0  0  0  0  0  0  0  0
   10.3124   -2.1804    0.0000 C   0  0  0  0  0  0  0  0  0  0  0  0
   10.7249   -1.4732    0.0000 C   0  0  0  0  0  0  0  0  0  0  0  0
    9.0750   -1.4143    0.0000 C   0  0  0  0  0  0  0  0  0  0  0  0
    9.5464   -0.7071    0.0000 C   0  0  0  0  0  0  0  0  0  0  0  0
   10.3714   -0.7661    0.0000 C   0  0  0  0  0  0  0  0  0  0  0  0
   11.9624   -2.2393    0.0000 C   0  0  0  0  0  0  0  0  0  0  0  0
    8.3089    0.0000    0.0000 C   0  0  0  0  0  0  0  0  0  0  0  0
   12.7874   -2.2393    0.0000 C   0  0  0  0  0  0  0  0  0  0  0  0
   13.9660   -3.0054    0.0000 C   0  0  0  0  0  0  0  0  0  0  0  0
   14.4374   -2.2982    0.0000 C   0  0  0  0  0  0  0  0  0  0  0  0
   15.6160   -3.0643    0.0000 C   0  0  0  0  0  0  0  0  0  0  0  0
   16.4410   -3.0643    0.0000 C   0  0  0  0  0  0  0  0  0  0  0  0
   16.4410   -4.4786    0.0000 C   0  0  0  0  0  0  0  0  0  0  0  0
   17.6785   -3.7714    0.0000 C   0  0  0  0  0  0  0  0  0  0  0  0
  1  5  2  0  0  0  0
  1  6  2  0  0  0  0
  1 13  1  0  0  0  0
  1 45  1  0  0  0  0
  2 25  1  0  0  0  0
  2 34  1  0  0  0  0
  3 20  1  0  0  0  0
  3 43  1  0  0  0  0
  4 29  2  0  0  0  0
  7 47  1  0  0  0  0
  7 51  1  0  0  0  0
  8 49  1  0  0  0  0
  8 52  1  0  0  0  0
  9 53  1  0  0  0  0
  9 54  1  0  0  0  0
 10 55  1  0  0  0  0
 10 56  1  0  0  0  0
 11 19  1  0  0  0  0
 11 29  1  0  0  0  0
 12 24  1  0  0  0  0
 12 29  1  0  0  0  0
 13 22  1  0  0  0  0
 14 34  2  0  0  0  0
 14 40  1  0  0  0  0
 15 40  1  0  0  0  0
 15 42  1  0  0  0  0
 16 40  2  0  0  0  0
 16 44  1  0  0  0  0
 17 57  1  0  0  0  0
 17 58  1  0  0  0  0
 17 59  1  0  0  0  0
 18 21  2  0  0  0  0
 18 24  1  0  0  0  0
 18 32  1  0  0  0  0
 19 20  2  0  0  0  0
 19 26  1  0  0  0  0
 20 22  1  0  0  0  0
 21 25  1  0  0  0  0
 21 33  1  0  0  0  0
 22 27  2  0  0  0  0
 23 26  2  0  0  0  0
 23 27  1  0  0  0  0
 23 28  1  0  0  0  0
 24 30  2  0  0  0  0
 25 31  2  0  0  0  0
 28 37  1  0  0  0  0
 28 38  1  0  0  0  0
 28 39  1  0  0  0  0
 30 31  1  0  0  0  0
 32 35  2  0  0  0  0
 33 36  2  0  0  0  0
 34 41  1  0  0  0  0
 35 36  1  0  0  0  0
 41 44  2  0  0  0  0
 42 46  1  0  0  0  0
 42 48  2  0  0  0  0
 46 47  2  0  0  0  0
 47 50  1  0  0  0  0
 48 49  1  0  0  0  0
 49 50  2  0  0  0  0
 51 53  1  0  0  0  0
 54 55  1  0  0  0  0
 56 57  1  0  0  0  0
M  END
> <PUBCHEM_COMPOUND_ID_TYPE>
0

> <PUBCHEM_TOTAL_CHARGE>
0

> <PUBCHEM_SUBSTANCE_ID>
310929626

> <PUBCHEM_SUBSTANCE_VERSION>
1

> <PUBCHEM_EXT_DATASOURCE_NAME>
4488

> <PUBCHEM_EXT_DATASOURCE_REGID>
SCHEMBL16106814

> <PUBCHEM_SUBSTANCE_COMMENT>
InChI=1S/C42H53N7O9S/c1-42(2,3)28-23-35(39(54-7)36(24-28)48-59(8,51)52)46-41(50)45-34-13-14-37(33-12-10-9-11-32(33)34)58-38-15-16-43-40(47-38)44-29-25-30(53-6)27-31(26-29)57-22-21-56-20-19-55-18-17-49(4)5/h9-16,23-27,48H,17-22H2,1-8H3,(H,43,44,47)(H2,45,46,50)
InChIKey=UPDASDRUBVHIJS-UHFFFAOYSA-N

> <PUBCHEM_SUBSTANCE_SYNONYM>
SCHEMBL16106814

> <PUBCHEM_XREF_EXT_ID>
SCHEMBL16106814

> <PUBCHEM_EXT_DATASOURCE_URL>
https://www.surechembl.org/

> <PUBCHEM_EXT_SUBSTANCE_URL>
https://www.surechembl.org/chemical/SCHEMBL16106814

> <PUBCHEM_CID_ASSOCIATIONS>
86272112  1

> <PUBCHEM_COORDINATE_TYPE>
1
3

$$$$
