310946764
  -OEChem-07211613022D

 35 39  0     1  0  0  0  0  0999 V2000
   -1.7668   -2.5879    0.0000 S   0  0  0  0  0  0  0  0  0  0  0  0
   -0.7714    3.8985    0.0000 O   0  0  0  0  0  0  0  0  0  0  0  0
   -1.4018   -0.3152    0.0000 O   0  0  0  0  0  0  0  0  0  0  0  0
   -2.3971   -2.0737    0.0000 O   0  0  0  0  0  0  0  0  0  0  0  0
   -2.2810   -3.2350    0.0000 O   0  0  0  0  0  0  0  0  0  0  0  0
    0.0083    2.0737    0.0000 N   0  0  0  0  0  0  0  0  0  0  0  0
    0.5226    1.4267    0.0000 N   0  0  0  0  0  0  0  0  0  0  0  0
    0.3567   -0.0498    0.0000 N   0  0  0  0  0  0  0  0  0  0  0  0
   -2.1815    0.8958    0.0000 N   0  0  0  0  0  0  0  0  0  0  0  0
    2.3971    2.6875    0.0000 N   0  0  0  0  0  0  0  0  0  0  0  0
   -0.7714    1.7751    0.0000 C   0  0  0  0  0  0  0  0  0  0  0  0
    0.2240    2.8700    0.0000 C   0  0  3  0  0  0  0  0  0  0  0  0
   -0.7548    0.9456    0.0000 C   0  0  0  0  0  0  0  0  0  0  0  0
    0.0415    0.7133    0.0000 C   0  0  0  0  0  0  0  0  0  0  0  0
   -1.4350    0.5143    0.0000 C   0  0  0  0  0  0  0  0  0  0  0  0
   -1.5346    2.1566    0.0000 C   0  0  0  0  0  0  0  0  0  0  0  0
   -0.5724    3.0856    0.0000 C   0  0  0  0  0  0  0  0  0  0  0  0
    0.8046    3.4174    0.0000 C   0  0  0  0  0  0  0  0  0  0  0  0
    0.7880    2.2562    0.0000 C   0  0  0  0  0  0  0  0  0  0  0  0
   -0.1908   -0.6801    0.0000 C   0  0  0  0  0  0  0  0  0  0  0  0
   -2.1981    1.7253    0.0000 C   0  0  0  0  0  0  0  0  0  0  0  0
   -1.2359   -1.9576    0.0000 C   0  0  0  0  0  0  0  0  0  0  0  0
    0.6055    4.2469    0.0000 C   0  0  0  0  0  0  0  0  0  0  0  0
   -1.1198   -3.1354    0.0000 C   0  0  0  0  0  0  0  0  0  0  0  0
   -1.0037   -0.5640    0.0000 C   0  0  0  0  0  0  0  0  0  0  0  0
    0.0913   -1.4765    0.0000 C   0  0  0  0  0  0  0  0  0  0  0  0
   -1.5180   -1.2110    0.0000 C   0  0  0  0  0  0  0  0  0  0  0  0
   -0.4230   -2.0902    0.0000 C   0  0  0  0  0  0  0  0  0  0  0  0
    1.5843    2.4718    0.0000 C   0  0  0  0  0  0  0  0  0  0  0  0
   -0.2074    4.4626    0.0000 C   0  0  0  0  0  0  0  0  0  0  0  0
   -1.2525   -3.9317    0.0000 C   0  0  0  0  0  0  0  0  0  0  0  0
   -0.3401   -2.8534    0.0000 C   0  0  0  0  0  0  0  0  0  0  0  0
   -0.6221   -4.4626    0.0000 C   0  0  0  0  0  0  0  0  0  0  0  0
    0.2737   -3.3677    0.0000 C   0  0  0  0  0  0  0  0  0  0  0  0
    0.1410   -4.1806    0.0000 C   0  0  0  0  0  0  0  0  0  0  0  0
  1  4  2  0  0  0  0
  1  5  2  0  0  0  0
  1 22  1  0  0  0  0
  1 24  1  0  0  0  0
  2 17  1  0  0  0  0
  2 30  1  0  0  0  0
  3 15  2  0  0  0  0
  6  7  1  0  0  0  0
  6 11  1  0  0  0  0
  6 12  1  0  0  0  0
  7 14  2  0  0  0  0
  8 14  1  0  0  0  0
  8 20  1  0  0  0  0
  9 15  1  0  0  0  0
  9 21  1  0  0  0  0
 10 29  3  0  0  0  0
 11 13  2  0  0  0  0
 11 16  1  0  0  0  0
 12 17  1  0  0  0  0
 12 18  1  0  0  0  0
 12 19  1  6  0  0  0
 13 14  1  0  0  0  0
 13 15  1  0  0  0  0
 16 21  2  0  0  0  0
 18 23  1  0  0  0  0
 19 29  1  0  0  0  0
 20 25  2  0  0  0  0
 20 26  1  0  0  0  0
 22 27  2  0  0  0  0
 22 28  1  0  0  0  0
 23 30  1  0  0  0  0
 24 31  1  0  0  0  0
 24 32  1  0  0  0  0
 25 27  1  0  0  0  0
 26 28  2  0  0  0  0
 31 33  1  0  0  0  0
 32 34  1  0  0  0  0
 33 35  1  0  0  0  0
 34 35  1  0  0  0  0
M  END
> <PUBCHEM_COMPOUND_ID_TYPE>
0

> <PUBCHEM_TOTAL_CHARGE>
0

> <PUBCHEM_SUBSTANCE_ID>
310946764

> <PUBCHEM_SUBSTANCE_VERSION>
1

> <PUBCHEM_EXT_DATASOURCE_NAME>
4488

> <PUBCHEM_EXT_DATASOURCE_REGID>
SCHEMBL16124888

> <PUBCHEM_SUBSTANCE_COMMENT>
InChI=1S/C25H29N5O4S/c26-14-13-25(12-4-16-34-17-25)30-21-11-15-27-24(31)22(21)23(29-30)28-18-7-9-20(10-8-18)35(32,33)19-5-2-1-3-6-19/h7-11,15,19H,1-6,12-13,16-17H2,(H,27,31)(H,28,29)/t25-/m0/s1
InChIKey=WKKDECDTLRQWDU-VWLOTQADSA-N

> <PUBCHEM_SUBSTANCE_SYNONYM>
SCHEMBL16124888

> <PUBCHEM_XREF_EXT_ID>
SCHEMBL16124888

> <PUBCHEM_EXT_DATASOURCE_URL>
https://www.surechembl.org/

> <PUBCHEM_EXT_SUBSTANCE_URL>
https://www.surechembl.org/chemical/SCHEMBL16124888

> <PUBCHEM_CID_ASSOCIATIONS>
117612636  1

> <PUBCHEM_COORDINATE_TYPE>
1
3

> <PUBCHEM_BONDANNOTATIONS>
12  19  6

$$$$
