310934430
  -OEChem-07211613022D

 24 27  0     0  0  0  0  0  0999 V2000
    5.5897   -1.6501    0.0000 Cl  0  0  0  0  0  0  0  0  0  0  0  0
    0.0000   -1.9182    0.0000 O   0  0  0  0  0  0  0  0  0  0  0  0
    1.2994    0.0000    0.0000 O   0  0  0  0  0  0  0  0  0  0  0  0
    2.7433   -4.1252    0.0000 O   0  0  0  0  0  0  0  0  0  0  0  0
    2.7433   -2.4751    0.0000 N   0  0  0  0  0  0  0  0  0  0  0  0
    2.7433    0.0000    0.0000 N   0  0  0  0  0  0  0  0  0  0  0  0
    1.2169   -2.4751    0.0000 N   0  0  0  0  0  0  0  0  0  0  0  0
    2.7433   -1.6501    0.0000 C   0  0  0  0  0  0  0  0  0  0  0  0
    2.0214   -1.2376    0.0000 C   0  0  0  0  0  0  0  0  0  0  0  0
    3.4652   -1.2376    0.0000 C   0  0  0  0  0  0  0  0  0  0  0  0
    3.4652   -0.4125    0.0000 C   0  0  0  0  0  0  0  0  0  0  0  0
    2.0214   -0.4125    0.0000 C   0  0  0  0  0  0  0  0  0  0  0  0
    1.2994   -1.6501    0.0000 C   0  0  0  0  0  0  0  0  0  0  0  0
    4.1665   -1.6501    0.0000 C   0  0  0  0  0  0  0  0  0  0  0  0
    4.1665    0.0000    0.0000 C   0  0  0  0  0  0  0  0  0  0  0  0
    0.5569   -1.3201    0.0000 C   0  0  0  0  0  0  0  0  0  0  0  0
    4.8678   -1.2376    0.0000 C   0  0  0  0  0  0  0  0  0  0  0  0
    3.4652   -2.8877    0.0000 C   0  0  0  0  0  0  0  0  0  0  0  0
    2.0214   -2.8877    0.0000 C   0  0  0  0  0  0  0  0  0  0  0  0
    0.4125   -2.6402    0.0000 C   0  0  0  0  0  0  0  0  0  0  0  0
    4.8678   -0.4125    0.0000 C   0  0  0  0  0  0  0  0  0  0  0  0
    3.4652   -3.7127    0.0000 C   0  0  0  0  0  0  0  0  0  0  0  0
    2.0214   -3.6921    0.0000 C   0  0  0  0  0  0  0  0  0  0  0  0
    0.0825   -3.3827    0.0000 C   0  0  0  0  0  0  0  0  0  0  0  0
  1 17  1  0  0  0  0
  2 16  1  0  0  0  0
  2 20  1  0  0  0  0
  3 12  2  0  0  0  0
  4 22  1  0  0  0  0
  4 23  1  0  0  0  0
  5  8  1  0  0  0  0
  5 18  1  0  0  0  0
  5 19  1  0  0  0  0
  6 11  1  0  0  0  0
  6 12  1  0  0  0  0
  7 13  1  0  0  0  0
  7 20  2  0  0  0  0
  8  9  2  0  0  0  0
  8 10  1  0  0  0  0
  9 12  1  0  0  0  0
  9 13  1  0  0  0  0
 10 11  2  0  0  0  0
 10 14  1  0  0  0  0
 11 15  1  0  0  0  0
 13 16  2  0  0  0  0
 14 17  2  0  0  0  0
 15 21  2  0  0  0  0
 17 21  1  0  0  0  0
 18 22  1  0  0  0  0
 19 23  1  0  0  0  0
 20 24  1  0  0  0  0
M  END
> <PUBCHEM_COMPOUND_ID_TYPE>
0

> <PUBCHEM_TOTAL_CHARGE>
0

> <PUBCHEM_SUBSTANCE_ID>
310934430

> <PUBCHEM_SUBSTANCE_VERSION>
1

> <PUBCHEM_EXT_DATASOURCE_NAME>
4488

> <PUBCHEM_EXT_DATASOURCE_REGID>
SCHEMBL16111906

> <PUBCHEM_SUBSTANCE_COMMENT>
InChI=1S/C17H16ClN3O3/c1-10-19-14(9-24-10)15-16(21-4-6-23-7-5-21)12-8-11(18)2-3-13(12)20-17(15)22/h2-3,8-9H,4-7H2,1H3,(H,20,22)
InChIKey=HIAUWLAJZOUGFI-UHFFFAOYSA-N

> <PUBCHEM_SUBSTANCE_SYNONYM>
SCHEMBL16111906

> <PUBCHEM_XREF_EXT_ID>
SCHEMBL16111906

> <PUBCHEM_EXT_DATASOURCE_URL>
https://www.surechembl.org/

> <PUBCHEM_EXT_SUBSTANCE_URL>
https://www.surechembl.org/chemical/SCHEMBL16111906

> <PUBCHEM_CID_ASSOCIATIONS>
86301181  1

> <PUBCHEM_COORDINATE_TYPE>
1
3

$$$$
