310949975
  -OEChem-07211613022D

 30 34  0     0  0  0  0  0  0999 V2000
   -1.9926    0.5623    0.0000 F   0  0  0  0  0  0  0  0  0  0  0  0
   -3.4228    1.3955    0.0000 F   0  0  0  0  0  0  0  0  0  0  0  0
   -0.4929    1.5482    0.0000 N   0  0  0  0  0  0  0  0  0  0  0  0
   -0.4929    2.8951    0.0000 N   0  0  0  0  0  0  0  0  0  0  0  0
    1.9787    2.2286    0.0000 N   0  0  0  0  0  0  0  0  0  0  0  0
    0.2707   -0.8123    0.0000 N   0  0  0  0  0  0  0  0  0  0  0  0
   -1.2844    1.8259    0.0000 C   0  0  0  0  0  0  0  0  0  0  0  0
   -0.0209    2.2286    0.0000 C   0  0  0  0  0  0  0  0  0  0  0  0
   -1.2844    2.6452    0.0000 C   0  0  0  0  0  0  0  0  0  0  0  0
   -1.9926    1.4094    0.0000 C   0  0  0  0  0  0  0  0  0  0  0  0
   -0.2430    0.7706    0.0000 C   0  0  0  0  0  0  0  0  0  0  0  0
    0.8123    2.2147    0.0000 C   0  0  0  0  0  0  0  0  0  0  0  0
   -2.7146    1.8121    0.0000 C   0  0  0  0  0  0  0  0  0  0  0  0
   -1.9926    3.0340    0.0000 C   0  0  0  0  0  0  0  0  0  0  0  0
   -2.7007    2.6452    0.0000 C   0  0  0  0  0  0  0  0  0  0  0  0
    1.3816    2.7979    0.0000 C   0  0  0  0  0  0  0  0  0  0  0  0
    1.4094    1.6454    0.0000 C   0  0  0  0  0  0  0  0  0  0  0  0
   -0.7845    0.1319    0.0000 C   0  0  0  0  0  0  0  0  0  0  0  0
    0.5762    0.5901    0.0000 C   0  0  0  0  0  0  0  0  0  0  0  0
   -0.5346   -0.6318    0.0000 C   0  0  0  0  0  0  0  0  0  0  0  0
    0.8123   -0.1874    0.0000 C   0  0  0  0  0  0  0  0  0  0  0  0
    0.5207   -1.5899    0.0000 C   0  0  0  0  0  0  0  0  0  0  0  0
    1.3261   -1.7704    0.0000 C   0  0  0  0  0  0  0  0  0  0  0  0
    1.4788   -2.5897    0.0000 C   0  0  0  0  0  0  0  0  0  0  0  0
    1.7982   -1.1039    0.0000 C   0  0  0  0  0  0  0  0  0  0  0  0
    2.1314   -3.0340    0.0000 C   0  0  0  0  0  0  0  0  0  0  0  0
    2.6313   -0.9511    0.0000 C   0  0  0  0  0  0  0  0  0  0  0  0
    3.2839   -1.4094    0.0000 C   0  0  0  0  0  0  0  0  0  0  0  0
    2.9646   -2.8951    0.0000 C   0  0  0  0  0  0  0  0  0  0  0  0
    3.4228   -2.2286    0.0000 C   0  0  0  0  0  0  0  0  0  0  0  0
  1 10  1  0  0  0  0
  2 13  1  0  0  0  0
  3  7  1  0  0  0  0
  3  8  1  0  0  0  0
  3 11  1  0  0  0  0
  4  8  2  0  0  0  0
  4  9  1  0  0  0  0
  5 16  1  0  0  0  0
  5 17  1  0  0  0  0
  6 20  1  0  0  0  0
  6 21  1  0  0  0  0
  6 22  1  0  0  0  0
  7  9  1  0  0  0  0
  7 10  2  0  0  0  0
  8 12  1  0  0  0  0
  9 14  2  0  0  0  0
 10 13  1  0  0  0  0
 11 18  1  0  0  0  0
 11 19  1  0  0  0  0
 12 16  1  0  0  0  0
 12 17  1  0  0  0  0
 13 15  2  0  0  0  0
 14 15  1  0  0  0  0
 18 20  1  0  0  0  0
 19 21  1  0  0  0  0
 22 23  1  0  0  0  0
 23 24  1  0  0  0  0
 23 25  1  0  0  0  0
 24 26  1  0  0  0  0
 25 27  1  0  0  0  0
 26 29  1  0  0  0  0
 27 28  1  0  0  0  0
 28 30  1  0  0  0  0
 29 30  1  0  0  0  0
M  END
> <PUBCHEM_COMPOUND_ID_TYPE>
0

> <PUBCHEM_TOTAL_CHARGE>
0

> <PUBCHEM_SUBSTANCE_ID>
310949975

> <PUBCHEM_SUBSTANCE_VERSION>
1

> <PUBCHEM_EXT_DATASOURCE_NAME>
4488

> <PUBCHEM_EXT_DATASOURCE_REGID>
SCHEMBL16128204

> <PUBCHEM_SUBSTANCE_COMMENT>
InChI=1S/C24H34F2N4/c25-20-8-9-21-23(22(20)26)30(24(28-21)18-14-27-15-18)19-10-12-29(13-11-19)16-17-6-4-2-1-3-5-7-17/h8-9,17-19,27H,1-7,10-16H2
InChIKey=XZMXZLKJUURCRI-UHFFFAOYSA-N

> <PUBCHEM_SUBSTANCE_SYNONYM>
SCHEMBL16128204

> <PUBCHEM_XREF_EXT_ID>
SCHEMBL16128204

> <PUBCHEM_EXT_DATASOURCE_URL>
https://www.surechembl.org/

> <PUBCHEM_EXT_SUBSTANCE_URL>
https://www.surechembl.org/chemical/SCHEMBL16128204

> <PUBCHEM_CID_ASSOCIATIONS>
86273334  1

> <PUBCHEM_COORDINATE_TYPE>
1
3

$$$$
