310940172
  -OEChem-07211613022D

 41 45  0     0  0  0  0  0  0999 V2000
   -0.3276    3.2667    0.0000 S   0  0  0  0  0  0  0  0  0  0  0  0
    2.6865   -0.7794    0.0000 O   0  0  0  0  0  0  0  0  0  0  0  0
    0.1950   -4.6968    0.0000 O   0  0  0  0  0  0  0  0  0  0  0  0
   -0.3001   -5.5110    0.0000 O   0  0  0  0  0  0  0  0  0  0  0  0
   -1.0484    2.8572    0.0000 O   0  0  0  0  0  0  0  0  0  0  0  0
    0.4096    3.6926    0.0000 O   0  0  0  0  0  0  0  0  0  0  0  0
   -0.0655   -1.2053    0.0000 N   0  0  0  0  0  0  0  0  0  0  0  0
    0.1146   -0.4026    0.0000 N   0  0  0  0  0  0  0  0  0  0  0  0
    1.3597    0.4000    0.0000 N   0  0  0  0  0  0  0  0  0  0  0  0
    2.2442   -2.1390    0.0000 N   0  0  0  0  0  0  0  0  0  0  0  0
   -1.8184   -2.8926    0.0000 N   0  0  0  0  0  0  0  0  0  0  0  0
   -0.7371    3.9874    0.0000 N   0  0  0  0  0  0  0  0  0  0  0  0
   -2.0803    0.2035    0.0000 N   0  0  0  0  0  0  0  0  0  0  0  0
   -0.8354   -1.5329    0.0000 C   0  0  0  0  0  0  0  0  0  0  0  0
    0.6716   -1.6149    0.0000 C   0  0  0  0  0  0  0  0  0  0  0  0
    1.2777   -1.0579    0.0000 C   0  0  0  0  0  0  0  0  0  0  0  0
    0.9337   -0.3044    0.0000 C   0  0  0  0  0  0  0  0  0  0  0  0
    2.0640   -1.3200    0.0000 C   0  0  0  0  0  0  0  0  0  0  0  0
   -0.4915   -2.3028    0.0000 C   0  0  0  0  0  0  0  0  0  0  0  0
   -1.6545   -1.4675    0.0000 C   0  0  0  0  0  0  0  0  0  0  0  0
    0.8354   -2.4339    0.0000 C   0  0  0  0  0  0  0  0  0  0  0  0
   -0.7371   -0.7303    0.0000 C   0  0  0  0  0  0  0  0  0  0  0  0
   -0.9664   -2.9745    0.0000 C   0  0  0  0  0  0  0  0  0  0  0  0
   -2.1459   -2.1390    0.0000 C   0  0  0  0  0  0  0  0  0  0  0  0
    1.6381   -2.6796    0.0000 C   0  0  0  0  0  0  0  0  0  0  0  0
    0.9337    1.1208    0.0000 C   0  0  0  0  0  0  0  0  0  0  0  0
   -0.3001   -4.9828    0.0000 C   0  0  0  0  0  0  0  0  0  0  0  0
   -1.4252   -0.2389    0.0000 C   0  0  0  0  0  0  0  0  0  0  0  0
    0.0983    2.5623    0.0000 C   0  0  0  0  0  0  0  0  0  0  0  0
    0.0983    1.1371    0.0000 C   0  0  0  0  0  0  0  0  0  0  0  0
    1.3432    1.8416    0.0000 C   0  0  0  0  0  0  0  0  0  0  0  0
   -0.2948    1.8252    0.0000 C   0  0  0  0  0  0  0  0  0  0  0  0
    0.9501    2.5296    0.0000 C   0  0  0  0  0  0  0  0  0  0  0  0
    0.2060   -4.1467    0.0000 C   0  0  0  0  0  0  0  0  0  0  0  0
   -1.5726    4.0039    0.0000 C   0  0  0  0  0  0  0  0  0  0  0  0
   -1.9985    4.7245    0.0000 C   0  0  0  0  0  0  0  0  0  0  0  0
   -2.6865    5.1178    0.0000 C   0  0  0  0  0  0  0  0  0  0  0  0
   -1.9985    5.5110    0.0000 C   0  0  0  0  0  0  0  0  0  0  0  0
    0.7010   -4.1247    0.0000 C   0  0  0  0  0  0  0  0  0  0  0  0
   -0.3001   -4.1467    0.0000 C   0  0  0  0  0  0  0  0  0  0  0  0
    0.1950   -3.6076    0.0000 C   0  0  0  0  0  0  0  0  0  0  0  0
  1  5  2  0  0  0  0
  1  6  2  0  0  0  0
  1 12  1  0  0  0  0
  1 29  1  0  0  0  0
  2 18  2  0  0  0  0
  3 27  1  0  0  0  0
  3 34  1  0  0  0  0
  4 27  2  0  0  0  0
  7  8  1  0  0  0  0
  7 14  1  0  0  0  0
  7 15  1  0  0  0  0
  8 17  2  0  0  0  0
  9 17  1  0  0  0  0
  9 26  1  0  0  0  0
 10 18  1  0  0  0  0
 10 25  1  0  0  0  0
 11 23  1  0  0  0  0
 11 24  1  0  0  0  0
 11 27  1  0  0  0  0
 12 35  1  0  0  0  0
 13 28  3  0  0  0  0
 14 19  1  0  0  0  0
 14 20  1  0  0  0  0
 14 22  1  0  0  0  0
 15 16  2  0  0  0  0
 15 21  1  0  0  0  0
 16 17  1  0  0  0  0
 16 18  1  0  0  0  0
 19 23  1  0  0  0  0
 20 24  1  0  0  0  0
 21 25  2  0  0  0  0
 22 28  1  0  0  0  0
 26 30  2  0  0  0  0
 26 31  1  0  0  0  0
 29 32  2  0  0  0  0
 29 33  1  0  0  0  0
 30 32  1  0  0  0  0
 31 33  2  0  0  0  0
 34 39  1  0  0  0  0
 34 40  1  0  0  0  0
 34 41  1  0  0  0  0
 35 36  1  0  0  0  0
 36 37  1  0  0  0  0
 36 38  1  0  0  0  0
 37 38  1  0  0  0  0
M  END
> <PUBCHEM_COMPOUND_ID_TYPE>
0

> <PUBCHEM_TOTAL_CHARGE>
0

> <PUBCHEM_SUBSTANCE_ID>
310940172

> <PUBCHEM_SUBSTANCE_VERSION>
1

> <PUBCHEM_EXT_DATASOURCE_NAME>
4488

> <PUBCHEM_EXT_DATASOURCE_REGID>
SCHEMBL16118106

> <PUBCHEM_SUBSTANCE_COMMENT>
InChI=1S/C28H35N7O5S/c1-27(2,3)40-26(37)34-16-12-28(11-14-29,13-17-34)35-22-10-15-30-25(36)23(22)24(33-35)32-20-6-8-21(9-7-20)41(38,39)31-18-19-4-5-19/h6-10,15,19,31H,4-5,11-13,16-18H2,1-3H3,(H,30,36)(H,32,33)
InChIKey=MDVUAJZNVKMUHT-UHFFFAOYSA-N

> <PUBCHEM_SUBSTANCE_SYNONYM>
SCHEMBL16118106

> <PUBCHEM_XREF_EXT_ID>
SCHEMBL16118106

> <PUBCHEM_EXT_DATASOURCE_URL>
https://www.surechembl.org/

> <PUBCHEM_EXT_SUBSTANCE_URL>
https://www.surechembl.org/chemical/SCHEMBL16118106

> <PUBCHEM_CID_ASSOCIATIONS>
86273373  1

> <PUBCHEM_COORDINATE_TYPE>
1
3

$$$$
