310949561
  -OEChem-07211613022D

 32 36  0     0  0  0  0  0  0999 V2000
   -2.2409    0.3618    0.0000 S   0  0  0  0  0  0  0  0  0  0  0  0
   -3.3146    1.7623    0.0000 O   0  0  0  0  0  0  0  0  0  0  0  0
    0.8170    3.8632    0.0000 O   0  0  0  0  0  0  0  0  0  0  0  0
   -1.5639   -0.9687    0.0000 N   0  0  0  0  0  0  0  0  0  0  0  0
   -1.5639   -3.3497    0.0000 N   0  0  0  0  0  0  0  0  0  0  0  0
   -0.8870    0.3618    0.0000 N   0  0  0  0  0  0  0  0  0  0  0  0
   -1.5639   -2.1358    0.0000 C   0  0  0  0  0  0  0  0  0  0  0  0
   -2.1241   -1.5523    0.0000 C   0  0  0  0  0  0  0  0  0  0  0  0
   -0.9803   -1.5056    0.0000 C   0  0  0  0  0  0  0  0  0  0  0  0
   -1.5406   -0.0817    0.0000 C   0  0  0  0  0  0  0  0  0  0  0  0
   -0.9803   -2.7194    0.0000 C   0  0  0  0  0  0  0  0  0  0  0  0
   -2.1475   -2.7194    0.0000 C   0  0  0  0  0  0  0  0  0  0  0  0
   -1.1438    1.1788    0.0000 C   0  0  0  0  0  0  0  0  0  0  0  0
   -1.9841    1.2021    0.0000 C   0  0  0  0  0  0  0  0  0  0  0  0
   -0.6536    1.9024    0.0000 C   0  0  0  0  0  0  0  0  0  0  0  0
   -2.4743    1.8791    0.0000 C   0  0  0  0  0  0  0  0  0  0  0  0
   -1.3772   -4.4934    0.0000 C   0  0  0  0  0  0  0  0  0  0  0  0
    0.1867    1.8090    0.0000 C   0  0  0  0  0  0  0  0  0  0  0  0
   -0.9803    2.6494    0.0000 C   0  0  0  0  0  0  0  0  0  0  0  0
   -2.2876    2.2758    0.0000 C   0  0  0  0  0  0  0  0  0  0  0  0
    0.3268    3.2329    0.0000 C   0  0  0  0  0  0  0  0  0  0  0  0
    0.6536    2.4393    0.0000 C   0  0  0  0  0  0  0  0  0  0  0  0
   -0.4902    3.3030    0.0000 C   0  0  0  0  0  0  0  0  0  0  0  0
   -2.2876    2.8127    0.0000 C   0  0  0  0  0  0  0  0  0  0  0  0
    1.6573    3.8165    0.0000 C   0  0  0  0  0  0  0  0  0  0  0  0
    2.0075    3.0696    0.0000 C   0  0  0  0  0  0  0  0  0  0  0  0
    2.1708    4.4934    0.0000 C   0  0  0  0  0  0  0  0  0  0  0  0
   -1.9608    2.3926    0.0000 C   0  0  0  0  0  0  0  0  0  0  0  0
    2.8478    2.9995    0.0000 C   0  0  0  0  0  0  0  0  0  0  0  0
    2.9644    4.4000    0.0000 C   0  0  0  0  0  0  0  0  0  0  0  0
    3.3146    3.6530    0.0000 C   0  0  0  0  0  0  0  0  0  0  0  0
   -1.9608    2.8594    0.0000 C   0  0  0  0  0  0  0  0  0  0  0  0
  1 10  1  0  0  0  0
  1 14  1  0  0  0  0
  2 16  2  0  0  0  0
  3 21  1  0  0  0  0
  3 25  1  0  0  0  0
  4  8  1  0  0  0  0
  4  9  1  0  0  0  0
  4 10  1  0  0  0  0
  5 11  1  0  0  0  0
  5 12  1  0  0  0  0
  5 17  1  0  0  0  0
  6 10  2  0  0  0  0
  6 13  1  0  0  0  0
  7  8  1  0  0  0  0
  7  9  1  0  0  0  0
  7 11  1  0  0  0  0
  7 12  1  0  0  0  0
 13 14  2  0  0  0  0
 13 15  1  0  0  0  0
 14 16  1  0  0  0  0
 15 18  2  0  0  0  0
 15 19  1  0  0  0  0
 16 20  1  0  0  0  0
 18 22  1  0  0  0  0
 19 23  2  0  0  0  0
 20 24  1  0  0  0  0
 21 22  2  0  0  0  0
 21 23  1  0  0  0  0
 24 28  1  0  0  0  0
 25 26  2  0  0  0  0
 25 27  1  0  0  0  0
 26 29  1  0  0  0  0
 27 30  2  0  0  0  0
 28 32  1  0  0  0  0
 29 31  2  0  0  0  0
 30 31  1  0  0  0  0
M  END
> <PUBCHEM_COMPOUND_ID_TYPE>
0

> <PUBCHEM_TOTAL_CHARGE>
0

> <PUBCHEM_SUBSTANCE_ID>
310949561

> <PUBCHEM_SUBSTANCE_VERSION>
1

> <PUBCHEM_EXT_DATASOURCE_NAME>
4488

> <PUBCHEM_EXT_DATASOURCE_REGID>
SCHEMBL16127756

> <PUBCHEM_SUBSTANCE_COMMENT>
InChI=1S/C26H29N3O2S/c1-3-4-10-22(30)24-23(27-25(32-24)29-17-26(18-29)15-28(2)16-26)19-11-13-21(14-12-19)31-20-8-6-5-7-9-20/h5-9,11-14H,3-4,10,15-18H2,1-2H3
InChIKey=OWCDIEHOMBQSDO-UHFFFAOYSA-N

> <PUBCHEM_SUBSTANCE_SYNONYM>
SCHEMBL16127756

> <PUBCHEM_XREF_EXT_ID>
SCHEMBL16127756

> <PUBCHEM_EXT_DATASOURCE_URL>
https://www.surechembl.org/

> <PUBCHEM_EXT_SUBSTANCE_URL>
https://www.surechembl.org/chemical/SCHEMBL16127756

> <PUBCHEM_CID_ASSOCIATIONS>
117614979  1

> <PUBCHEM_COORDINATE_TYPE>
1
3

> <PUBCHEM_BONDANNOTATIONS>
17  5  3

$$$$
