310941972
  -OEChem-07211613022D

 21 24  0     0  0  0  0  0  0999 V2000
    2.7650    2.2800    0.0000 O   0  0  0  0  0  0  0  0  0  0  0  0
   -0.7243   -0.7684    0.0000 N   0  0  0  0  0  0  0  0  0  0  0  0
    2.1477    2.8343    0.0000 N   0  0  0  0  0  0  0  0  0  0  0  0
   -0.3086    0.5291    0.0000 C   0  0  0  0  0  0  0  0  0  0  0  0
   -0.0567   -0.2519    0.0000 C   0  0  0  0  0  0  0  0  0  0  0  0
   -1.1526    0.5416    0.0000 C   0  0  0  0  0  0  0  0  0  0  0  0
   -1.4171   -0.2519    0.0000 C   0  0  0  0  0  0  0  0  0  0  0  0
    0.2330    1.1463    0.0000 C   0  0  0  0  0  0  0  0  0  0  0  0
    1.0392    0.9951    0.0000 C   0  0  0  0  0  0  0  0  0  0  0  0
    0.7495   -0.4157    0.0000 C   0  0  0  0  0  0  0  0  0  0  0  0
   -1.7069    1.1463    0.0000 C   0  0  0  0  0  0  0  0  0  0  0  0
   -2.2233   -0.4283    0.0000 C   0  0  0  0  0  0  0  0  0  0  0  0
    1.2911    0.1764    0.0000 C   0  0  0  0  0  0  0  0  0  0  0  0
    1.6061    1.6250    0.0000 C   0  0  0  0  0  0  0  0  0  0  0  0
   -0.7369   -1.5872    0.0000 C   0  0  0  0  0  0  0  0  0  0  0  0
   -2.5004    0.9699    0.0000 C   0  0  0  0  0  0  0  0  0  0  0  0
   -2.7650    0.1764    0.0000 C   0  0  0  0  0  0  0  0  0  0  0  0
    2.4249    1.5242    0.0000 C   0  0  0  0  0  0  0  0  0  0  0  0
    1.4297    2.4312    0.0000 C   0  0  0  0  0  0  0  0  0  0  0  0
   -1.4423   -1.9903    0.0000 C   0  0  0  0  0  0  0  0  0  0  0  0
   -1.4297   -2.8343    0.0000 C   0  0  0  0  0  0  0  0  0  0  0  0
  1  3  1  0  0  0  0
  1 18  1  0  0  0  0
  2  5  1  0  0  0  0
  2  7  1  0  0  0  0
  2 15  1  0  0  0  0
  3 19  2  0  0  0  0
  4  5  2  0  0  0  0
  4  6  1  0  0  0  0
  4  8  1  0  0  0  0
  5 10  1  0  0  0  0
  6  7  1  0  0  0  0
  6 11  2  0  0  0  0
  7 12  2  0  0  0  0
  8  9  2  0  0  0  0
  9 13  1  0  0  0  0
  9 14  1  0  0  0  0
 10 13  2  0  0  0  0
 11 16  1  0  0  0  0
 12 17  1  0  0  0  0
 14 18  2  0  0  0  0
 14 19  1  0  0  0  0
 15 20  1  0  0  0  0
 16 17  2  0  0  0  0
 20 21  1  0  0  0  0
M  END
> <PUBCHEM_COMPOUND_ID_TYPE>
0

> <PUBCHEM_TOTAL_CHARGE>
0

> <PUBCHEM_SUBSTANCE_ID>
310941972

> <PUBCHEM_SUBSTANCE_VERSION>
1

> <PUBCHEM_EXT_DATASOURCE_NAME>
4488

> <PUBCHEM_EXT_DATASOURCE_REGID>
SCHEMBL16120006

> <PUBCHEM_SUBSTANCE_COMMENT>
InChI=1S/C18H16N2O/c1-2-9-20-17-6-4-3-5-15(17)16-10-13(7-8-18(16)20)14-11-19-21-12-14/h3-8,10-12H,2,9H2,1H3
InChIKey=DYFBOMJHLUPALE-UHFFFAOYSA-N

> <PUBCHEM_SUBSTANCE_SYNONYM>
SCHEMBL16120006

> <PUBCHEM_XREF_EXT_ID>
SCHEMBL16120006

> <PUBCHEM_EXT_DATASOURCE_URL>
https://www.surechembl.org/

> <PUBCHEM_EXT_SUBSTANCE_URL>
https://www.surechembl.org/chemical/SCHEMBL16120006

> <PUBCHEM_CID_ASSOCIATIONS>
86271054  1

> <PUBCHEM_COORDINATE_TYPE>
1
3

$$$$
