310948405
  -OEChem-07211613022D

 30 33  0     1  0  0  0  0  0999 V2000
   -2.5321    2.0898    0.0000 O   0  0  0  0  0  0  0  0  0  0  0  0
    0.4551   -2.0513    0.0000 O   0  0  0  0  0  0  0  0  0  0  0  0
   -0.0448   -3.2949    0.0000 O   0  0  0  0  0  0  0  0  0  0  0  0
    0.0961    1.2051    0.0000 N   0  0  0  0  0  0  0  0  0  0  0  0
   -0.4295    0.5769    0.0000 N   0  0  0  0  0  0  0  0  0  0  0  0
   -1.9039    0.4359    0.0000 N   0  0  0  0  0  0  0  0  0  0  0  0
   -1.5064    3.0898    0.0000 N   0  0  0  0  0  0  0  0  0  0  0  0
    0.3910   -0.9616    0.0000 N   0  0  0  0  0  0  0  0  0  0  0  0
   -1.1475    1.7052    0.0000 C   0  0  0  0  0  0  0  0  0  0  0  0
   -0.3654    1.9103    0.0000 C   0  0  0  0  0  0  0  0  0  0  0  0
   -1.2116    0.8846    0.0000 C   0  0  0  0  0  0  0  0  0  0  0  0
    0.9295    1.1538    0.0000 C   0  0  3  0  0  0  0  0  0  0  0  0
   -1.7244    2.3077    0.0000 C   0  0  0  0  0  0  0  0  0  0  0  0
   -0.1218    2.7051    0.0000 C   0  0  0  0  0  0  0  0  0  0  0  0
    1.2885    0.4231    0.0000 C   0  0  3  0  0  0  0  0  0  0  0  0
   -1.8782   -0.3974    0.0000 C   0  0  0  0  0  0  0  0  0  0  0  0
   -0.7115    3.2949    0.0000 C   0  0  0  0  0  0  0  0  0  0  0  0
    1.3910    1.8333    0.0000 C   0  0  0  0  0  0  0  0  0  0  0  0
   -1.1090   -1.5898    0.0000 C   0  0  0  0  0  0  0  0  0  0  0  0
   -1.1475   -0.7821    0.0000 C   0  0  0  0  0  0  0  0  0  0  0  0
   -0.3782   -1.9744    0.0000 C   0  0  3  0  0  0  0  0  0  0  0  0
    2.1218    0.3589    0.0000 C   0  0  0  0  0  0  0  0  0  0  0  0
   -2.5706   -0.8334    0.0000 C   0  0  0  0  0  0  0  0  0  0  0  0
    0.8269   -0.2821    0.0000 C   0  0  0  0  0  0  0  0  0  0  0  0
    2.2115    1.7820    0.0000 C   0  0  0  0  0  0  0  0  0  0  0  0
   -1.8013   -2.0385    0.0000 C   0  0  0  0  0  0  0  0  0  0  0  0
    2.5706    1.0257    0.0000 C   0  0  0  0  0  0  0  0  0  0  0  0
   -2.5321   -1.6539    0.0000 C   0  0  0  0  0  0  0  0  0  0  0  0
   -0.6731   -2.7693    0.0000 C   0  0  0  0  0  0  0  0  0  0  0  0
   -0.4167   -1.1538    0.0000 C   0  0  0  0  0  0  0  0  0  0  0  0
  1 13  2  0  0  0  0
  2 21  1  0  0  0  0
  3 29  1  0  0  0  0
  4  5  1  0  0  0  0
  4 10  1  0  0  0  0
 12  4  1  1  0  0  0
  5 11  2  0  0  0  0
  6 11  1  0  0  0  0
  6 16  1  0  0  0  0
  7 13  1  0  0  0  0
  7 17  1  0  0  0  0
  8 24  3  0  0  0  0
  9 10  2  0  0  0  0
  9 11  1  0  0  0  0
  9 13  1  0  0  0  0
 10 14  1  0  0  0  0
 12 15  1  0  0  0  0
 12 18  1  0  0  0  0
 14 17  2  0  0  0  0
 15 22  1  0  0  0  0
 15 24  1  6  0  0  0
 16 20  2  0  0  0  0
 16 23  1  0  0  0  0
 18 25  1  0  0  0  0
 19 20  1  0  0  0  0
 19 21  1  0  0  0  0
 19 26  2  0  0  0  0
 21 29  1  0  0  0  0
 21 30  1  0  0  0  0
 22 27  1  0  0  0  0
 23 28  2  0  0  0  0
 25 27  1  0  0  0  0
 26 28  1  0  0  0  0
M  END
> <PUBCHEM_COMPOUND_ID_TYPE>
0

> <PUBCHEM_TOTAL_CHARGE>
0

> <PUBCHEM_SUBSTANCE_ID>
310948405

> <PUBCHEM_SUBSTANCE_VERSION>
1

> <PUBCHEM_EXT_DATASOURCE_NAME>
4488

> <PUBCHEM_EXT_DATASOURCE_REGID>
SCHEMBL16126586

> <PUBCHEM_SUBSTANCE_COMMENT>
InChI=1S/C22H25N5O3/c1-22(30,13-28)15-6-4-7-16(11-15)25-20-19-18(9-10-24-21(19)29)27(26-20)17-8-3-2-5-14(17)12-23/h4,6-7,9-11,14,17,28,30H,2-3,5,8,13H2,1H3,(H,24,29)(H,25,26)/t14-,17+,22?/m1/s1
InChIKey=YYXWWSMVXRDURD-PXNBKEBRSA-N

> <PUBCHEM_SUBSTANCE_SYNONYM>
SCHEMBL16126586

> <PUBCHEM_XREF_EXT_ID>
SCHEMBL16126586

> <PUBCHEM_EXT_DATASOURCE_URL>
https://www.surechembl.org/

> <PUBCHEM_EXT_SUBSTANCE_URL>
https://www.surechembl.org/chemical/SCHEMBL16126586

> <PUBCHEM_CID_ASSOCIATIONS>
117613966  1

> <PUBCHEM_COORDINATE_TYPE>
1
3

> <PUBCHEM_BONDANNOTATIONS>
15  24  6
12  4  5

$$$$
