310936649
  -OEChem-07211613022D

 29 31  0     1  0  0  0  0  0999 V2000
    0.0000   -1.9118    0.0000 Cl  0  0  0  0  0  0  0  0  0  0  0  0
    3.1067   -6.8279    0.0000 F   0  0  0  0  0  0  0  0  0  0  0  0
    4.5406   -6.6913    0.0000 F   0  0  0  0  0  0  0  0  0  0  0  0
    3.0043   -6.0085    0.0000 F   0  0  0  0  0  0  0  0  0  0  0  0
    6.8279   -5.0185    0.0000 F   0  0  0  0  0  0  0  0  0  0  0  0
    6.0085   -3.8236    0.0000 F   0  0  0  0  0  0  0  0  0  0  0  0
    6.1792   -5.4964    0.0000 F   0  0  0  0  0  0  0  0  0  0  0  0
    3.7212   -2.6970    0.0000 O   0  0  0  0  0  0  0  0  0  0  0  0
    3.0384   -1.3997    0.0000 O   0  0  0  0  0  0  0  0  0  0  0  0
    2.3897   -2.6970    0.0000 N   0  0  0  0  0  0  0  0  0  0  0  0
    2.0142   -1.0583    0.0000 N   0  0  0  0  0  0  0  0  0  0  0  0
    0.4779   -0.5803    0.0000 N   0  0  0  0  0  0  0  0  0  0  0  0
    3.4481   -3.4822    0.0000 C   0  0  3  0  0  0  0  0  0  0  0  0
    3.9602   -4.1650    0.0000 C   0  0  0  0  0  0  0  0  0  0  0  0
    2.6288   -3.4822    0.0000 C   0  0  3  0  0  0  0  0  0  0  0  0
    4.0967   -5.5989    0.0000 C   0  0  0  0  0  0  0  0  0  0  0  0
    5.2575   -4.7454    0.0000 C   0  0  0  0  0  0  0  0  0  0  0  0
    3.0384   -2.2191    0.0000 C   0  0  0  0  0  0  0  0  0  0  0  0
    4.7795   -4.0967    0.0000 C   0  0  0  0  0  0  0  0  0  0  0  0
    3.6188   -4.9161    0.0000 C   0  0  0  0  0  0  0  0  0  0  0  0
    4.9161   -5.4964    0.0000 C   0  0  0  0  0  0  0  0  0  0  0  0
    3.7554   -6.3500    0.0000 C   0  0  0  0  0  0  0  0  0  0  0  0
    6.0768   -4.6771    0.0000 C   0  0  0  0  0  0  0  0  0  0  0  0
    1.6046   -2.4580    0.0000 C   0  0  0  0  0  0  0  0  0  0  0  0
    1.4339   -1.6387    0.0000 C   0  0  0  0  0  0  0  0  0  0  0  0
    2.1508   -4.1650    0.0000 C   0  0  0  0  0  0  0  0  0  0  0  0
    0.6487   -1.3656    0.0000 C   0  0  0  0  0  0  0  0  0  0  0  0
    1.8436   -0.2731    0.0000 C   0  0  0  0  0  0  0  0  0  0  0  0
    1.0925    0.0000    0.0000 C   0  0  0  0  0  0  0  0  0  0  0  0
  1 27  1  0  0  0  0
  2 22  1  0  0  0  0
  3 22  1  0  0  0  0
  4 22  1  0  0  0  0
  5 23  1  0  0  0  0
  6 23  1  0  0  0  0
  7 23  1  0  0  0  0
 13  8  1  1  0  0  0
  8 18  1  0  0  0  0
  9 18  2  0  0  0  0
 10 15  1  0  0  0  0
 10 18  1  0  0  0  0
 10 24  1  0  0  0  0
 11 25  2  0  0  0  0
 11 28  1  0  0  0  0
 12 27  2  0  0  0  0
 12 29  1  0  0  0  0
 13 14  1  0  0  0  0
 13 15  1  0  0  0  0
 14 19  2  0  0  0  0
 14 20  1  0  0  0  0
 15 26  1  6  0  0  0
 16 20  2  0  0  0  0
 16 21  1  0  0  0  0
 16 22  1  0  0  0  0
 17 19  1  0  0  0  0
 17 21  2  0  0  0  0
 17 23  1  0  0  0  0
 24 25  1  0  0  0  0
 25 27  1  0  0  0  0
 28 29  2  0  0  0  0
M  END
> <PUBCHEM_COMPOUND_ID_TYPE>
0

> <PUBCHEM_TOTAL_CHARGE>
0

> <PUBCHEM_SUBSTANCE_ID>
310936649

> <PUBCHEM_SUBSTANCE_VERSION>
1

> <PUBCHEM_EXT_DATASOURCE_NAME>
4488

> <PUBCHEM_EXT_DATASOURCE_REGID>
SCHEMBL16114317

> <PUBCHEM_SUBSTANCE_COMMENT>
InChI=1S/C17H12ClF6N3O2/c1-8-13(29-15(28)27(8)7-12-14(18)26-3-2-25-12)9-4-10(16(19,20)21)6-11(5-9)17(22,23)24/h2-6,8,13H,7H2,1H3/t8-,13+/m0/s1
InChIKey=FBDBGCOLYVMHQY-ISVAXAHUSA-N

> <PUBCHEM_SUBSTANCE_SYNONYM>
SCHEMBL16114317

> <PUBCHEM_XREF_EXT_ID>
SCHEMBL16114317

> <PUBCHEM_EXT_DATASOURCE_URL>
https://www.surechembl.org/

> <PUBCHEM_EXT_SUBSTANCE_URL>
https://www.surechembl.org/chemical/SCHEMBL16114317

> <PUBCHEM_CID_ASSOCIATIONS>
117604562  1

> <PUBCHEM_COORDINATE_TYPE>
1
3

> <PUBCHEM_BONDANNOTATIONS>
15  26  6
13  8  5

$$$$
