310949114
  -OEChem-07211613022D

 28 31  0     1  0  0  0  0  0999 V2000
   -1.5759    0.0409    0.0000 I   0  0  0  0  0  0  0  0  0  0  0  0
    1.3099    2.7221    0.0000 F   0  0  0  0  0  0  0  0  0  0  0  0
    1.5759    1.6578    0.0000 F   0  0  0  0  0  0  0  0  0  0  0  0
    0.5116    1.3917    0.0000 F   0  0  0  0  0  0  0  0  0  0  0  0
    0.7982   -1.3713    0.0000 O   0  0  0  0  0  0  0  0  0  0  0  0
    1.5146   -2.5175    0.0000 O   0  0  0  0  0  0  0  0  0  0  0  0
   -0.6344   -1.2485    0.0000 N   0  0  0  0  0  0  0  0  0  0  0  0
   -1.3917   -2.4561    0.0000 N   0  0  0  0  0  0  0  0  0  0  0  0
   -1.0234    0.0614    0.0000 C   0  0  3  0  0  0  0  0  0  0  0  0
   -0.1842    0.0000    0.0000 C   0  0  3  0  0  0  0  0  0  0  0  0
   -0.5935    1.2485    0.0000 C   0  0  3  0  0  0  0  0  0  0  0  0
   -1.2689    0.7982    0.0000 C   0  0  0  0  0  0  0  0  0  0  0  0
   -1.3099   -0.7369    0.0000 C   0  0  0  0  0  0  0  0  0  0  0  0
    0.0819    0.7982    0.0000 C   0  0  0  0  0  0  0  0  0  0  0  0
    0.0614   -0.7778    0.0000 C   0  0  0  0  0  0  0  0  0  0  0  0
   -0.5526    2.1285    0.0000 C   0  0  0  0  0  0  0  0  0  0  0  0
   -0.6753   -2.0672    0.0000 C   0  0  0  0  0  0  0  0  0  0  0  0
    0.1637    2.5175    0.0000 C   0  0  0  0  0  0  0  0  0  0  0  0
    0.0614   -2.4970    0.0000 C   0  0  0  0  0  0  0  0  0  0  0  0
    0.9006    2.0672    0.0000 C   0  0  0  0  0  0  0  0  0  0  0  0
   -1.2689    2.5380    0.0000 C   0  0  0  0  0  0  0  0  0  0  0  0
    0.2251    3.3157    0.0000 C   0  0  0  0  0  0  0  0  0  0  0  0
    0.7982   -2.1081    0.0000 C   0  0  0  0  0  0  0  0  0  0  0  0
    0.0409   -3.3361    0.0000 C   0  0  0  0  0  0  0  0  0  0  0  0
   -1.2076    3.3566    0.0000 C   0  0  0  0  0  0  0  0  0  0  0  0
   -0.4912    3.7250    0.0000 C   0  0  0  0  0  0  0  0  0  0  0  0
   -1.4122   -3.2747    0.0000 C   0  0  0  0  0  0  0  0  0  0  0  0
   -0.6753   -3.7250    0.0000 C   0  0  0  0  0  0  0  0  0  0  0  0
  9  1  1  6  0  0  0
  2 20  1  0  0  0  0
  3 20  1  0  0  0  0
  4 20  1  0  0  0  0
  5 23  2  0  0  0  0
  6 23  1  0  0  0  0
  7 13  1  0  0  0  0
  7 15  1  0  0  0  0
  7 17  1  0  0  0  0
  8 17  2  0  0  0  0
  8 27  1  0  0  0  0
  9 10  1  0  0  0  0
  9 12  1  0  0  0  0
  9 13  1  0  0  0  0
 10 14  1  0  0  0  0
 10 15  1  0  0  0  0
 11 12  1  1  0  0  0
 11 14  1  0  0  0  0
 11 16  1  0  0  0  0
 16 18  2  0  0  0  0
 16 21  1  0  0  0  0
 17 19  1  0  0  0  0
 18 20  1  0  0  0  0
 18 22  1  0  0  0  0
 19 23  1  0  0  0  0
 19 24  2  0  0  0  0
 21 25  2  0  0  0  0
 22 26  2  0  0  0  0
 24 28  1  0  0  0  0
 25 26  1  0  0  0  0
 27 28  2  0  0  0  0
M  END
> <PUBCHEM_COMPOUND_ID_TYPE>
0

> <PUBCHEM_TOTAL_CHARGE>
0

> <PUBCHEM_SUBSTANCE_ID>
310949114

> <PUBCHEM_SUBSTANCE_VERSION>
1

> <PUBCHEM_EXT_DATASOURCE_NAME>
4488

> <PUBCHEM_EXT_DATASOURCE_REGID>
SCHEMBL16127304

> <PUBCHEM_SUBSTANCE_COMMENT>
InChI=1S/C20H18F3IN2O2/c21-20(22,23)16-6-2-1-4-14(16)12-8-13-10-26(11-19(13,24)9-12)17-15(18(27)28)5-3-7-25-17/h1-7,12-13H,8-11H2,(H,27,28)/t12-,13?,19-/m0/s1
InChIKey=DNPIRCXQUUMFDZ-MHCKHEEZSA-N

> <PUBCHEM_SUBSTANCE_SYNONYM>
SCHEMBL16127304

> <PUBCHEM_XREF_EXT_ID>
SCHEMBL16127304

> <PUBCHEM_EXT_DATASOURCE_URL>
https://www.surechembl.org/

> <PUBCHEM_EXT_SUBSTANCE_URL>
https://www.surechembl.org/chemical/SCHEMBL16127304

> <PUBCHEM_CID_ASSOCIATIONS>
117614611  1

> <PUBCHEM_COORDINATE_TYPE>
1
3

> <PUBCHEM_BONDANNOTATIONS>
9  1  6
11  12  5

$$$$
