310940601
  -OEChem-07211613022D

 24 26  0     0  0  0  0  0  0999 V2000
    0.0862   -2.9803    0.0000 S   0  0  0  0  0  0  0  0  0  0  0  0
    1.1210    2.2366    0.0000 F   0  0  0  0  0  0  0  0  0  0  0  0
    1.4444    1.1371    0.0000 F   0  0  0  0  0  0  0  0  0  0  0  0
    0.3342    0.8353    0.0000 F   0  0  0  0  0  0  0  0  0  0  0  0
   -1.4444   -2.1827    0.0000 O   0  0  0  0  0  0  0  0  0  0  0  0
   -0.7114   -0.9431    0.0000 N   0  0  0  0  0  0  0  0  0  0  0  0
    1.3150   -2.4414    0.0000 N   0  0  0  0  0  0  0  0  0  0  0  0
    0.9054   -3.1636    0.0000 N   0  0  0  0  0  0  0  0  0  0  0  0
   -0.7114    1.5360    0.0000 C   0  0  0  0  0  0  0  0  0  0  0  0
    0.0000    1.9456    0.0000 C   0  0  0  0  0  0  0  0  0  0  0  0
   -0.7222    0.7168    0.0000 C   0  0  0  0  0  0  0  0  0  0  0  0
   -0.7329   -1.7516    0.0000 C   0  0  0  0  0  0  0  0  0  0  0  0
   -0.0108   -2.1827    0.0000 C   0  0  0  0  0  0  0  0  0  0  0  0
    0.7222    1.5360    0.0000 C   0  0  0  0  0  0  0  0  0  0  0  0
    0.7546   -1.8378    0.0000 C   0  0  0  0  0  0  0  0  0  0  0  0
    0.0000    0.2856    0.0000 C   0  0  0  0  0  0  0  0  0  0  0  0
   -1.4444    0.2964    0.0000 C   0  0  0  0  0  0  0  0  0  0  0  0
   -0.0108   -0.5228    0.0000 C   0  0  0  0  0  0  0  0  0  0  0  0
   -1.4444   -0.5228    0.0000 C   0  0  0  0  0  0  0  0  0  0  0  0
   -1.4336    1.9456    0.0000 C   0  0  0  0  0  0  0  0  0  0  0  0
    0.0000    2.7647    0.0000 C   0  0  0  0  0  0  0  0  0  0  0  0
   -1.4336    2.7647    0.0000 C   0  0  0  0  0  0  0  0  0  0  0  0
   -0.7222    3.1636    0.0000 C   0  0  0  0  0  0  0  0  0  0  0  0
    0.9593   -1.0078    0.0000 C   0  0  0  0  0  0  0  0  0  0  0  0
  1  8  1  0  0  0  0
  1 13  1  0  0  0  0
  2 14  1  0  0  0  0
  3 14  1  0  0  0  0
  4 14  1  0  0  0  0
  5 12  2  0  0  0  0
  6 12  1  0  0  0  0
  6 18  1  0  0  0  0
  6 19  1  0  0  0  0
  7  8  2  0  0  0  0
  7 15  1  0  0  0  0
  9 10  2  0  0  0  0
  9 11  1  0  0  0  0
  9 20  1  0  0  0  0
 10 14  1  0  0  0  0
 10 21  1  0  0  0  0
 11 16  1  0  0  0  0
 11 17  1  0  0  0  0
 12 13  1  0  0  0  0
 13 15  2  0  0  0  0
 15 24  1  0  0  0  0
 16 18  1  0  0  0  0
 17 19  1  0  0  0  0
 20 22  2  0  0  0  0
 21 23  2  0  0  0  0
 22 23  1  0  0  0  0
M  END
> <PUBCHEM_COMPOUND_ID_TYPE>
0

> <PUBCHEM_TOTAL_CHARGE>
0

> <PUBCHEM_SUBSTANCE_ID>
310940601

> <PUBCHEM_SUBSTANCE_VERSION>
1

> <PUBCHEM_EXT_DATASOURCE_NAME>
4488

> <PUBCHEM_EXT_DATASOURCE_REGID>
SCHEMBL16118555

> <PUBCHEM_SUBSTANCE_COMMENT>
InChI=1S/C16H16F3N3OS/c1-10-14(24-21-20-10)15(23)22-8-6-11(7-9-22)12-4-2-3-5-13(12)16(17,18)19/h2-5,11H,6-9H2,1H3
InChIKey=XUISXOAYIJKJGF-UHFFFAOYSA-N

> <PUBCHEM_SUBSTANCE_SYNONYM>
SCHEMBL16118555

> <PUBCHEM_XREF_EXT_ID>
SCHEMBL16118555

> <PUBCHEM_EXT_DATASOURCE_URL>
https://www.surechembl.org/

> <PUBCHEM_EXT_SUBSTANCE_URL>
https://www.surechembl.org/chemical/SCHEMBL16118555

> <PUBCHEM_CID_ASSOCIATIONS>
117607588  1

> <PUBCHEM_COORDINATE_TYPE>
1
3

$$$$
