310948492
  -OEChem-07211613022D

 30 34  0     1  0  0  0  0  0999 V2000
   -2.6057    2.3720    0.0000 O   0  0  0  0  0  0  0  0  0  0  0  0
   -1.9044   -3.6783    0.0000 O   0  0  0  0  0  0  0  0  0  0  0  0
    0.0481    1.6707    0.0000 N   0  0  0  0  0  0  0  0  0  0  0  0
   -0.4331    1.0106    0.0000 N   0  0  0  0  0  0  0  0  0  0  0  0
   -1.9044    0.7907    0.0000 N   0  0  0  0  0  0  0  0  0  0  0  0
   -1.6569    3.4308    0.0000 N   0  0  0  0  0  0  0  0  0  0  0  0
    0.5844   -0.4606    0.0000 N   0  0  0  0  0  0  0  0  0  0  0  0
   -1.2032    2.0970    0.0000 C   0  0  0  0  0  0  0  0  0  0  0  0
   -0.4469    2.3445    0.0000 C   0  0  0  0  0  0  0  0  0  0  0  0
   -1.2307    1.2719    0.0000 C   0  0  0  0  0  0  0  0  0  0  0  0
    0.9556    1.6844    0.0000 C   0  0  3  0  0  0  0  0  0  0  0  0
   -1.8220    2.6470    0.0000 C   0  0  0  0  0  0  0  0  0  0  0  0
   -0.2682    3.1283    0.0000 C   0  0  0  0  0  0  0  0  0  0  0  0
   -1.9044   -2.4957    0.0000 C   0  0  0  0  0  0  0  0  0  0  0  0
    1.3957    0.9831    0.0000 C   0  0  3  0  0  0  0  0  0  0  0  0
   -1.9044   -0.0343    0.0000 C   0  0  0  0  0  0  0  0  0  0  0  0
   -1.9044   -1.6707    0.0000 C   0  0  0  0  0  0  0  0  0  0  0  0
   -0.8869    3.6783    0.0000 C   0  0  0  0  0  0  0  0  0  0  0  0
    1.3957    2.3857    0.0000 C   0  0  0  0  0  0  0  0  0  0  0  0
   -2.4820   -3.0870    0.0000 C   0  0  0  0  0  0  0  0  0  0  0  0
   -1.3269   -3.0733    0.0000 C   0  0  0  0  0  0  0  0  0  0  0  0
   -2.6195   -0.4469    0.0000 C   0  0  0  0  0  0  0  0  0  0  0  0
   -1.1894   -0.4606    0.0000 C   0  0  0  0  0  0  0  0  0  0  0  0
   -2.6195   -1.2719    0.0000 C   0  0  0  0  0  0  0  0  0  0  0  0
   -1.1894   -1.2719    0.0000 C   0  0  0  0  0  0  0  0  0  0  0  0
    2.2207    0.9831    0.0000 C   0  0  0  0  0  0  0  0  0  0  0  0
    0.9831    0.2819    0.0000 C   0  0  0  0  0  0  0  0  0  0  0  0
    2.2207    2.3857    0.0000 C   0  0  0  0  0  0  0  0  0  0  0  0
   -1.1207   -2.1795    0.0000 C   0  0  0  0  0  0  0  0  0  0  0  0
    2.6195    1.6707    0.0000 C   0  0  0  0  0  0  0  0  0  0  0  0
  1 12  2  0  0  0  0
  2 20  1  0  0  0  0
  2 21  1  0  0  0  0
  3  4  1  0  0  0  0
  3  9  1  0  0  0  0
 11  3  1  1  0  0  0
  4 10  2  0  0  0  0
  5 10  1  0  0  0  0
  5 16  1  0  0  0  0
  6 12  1  0  0  0  0
  6 18  1  0  0  0  0
  7 27  3  0  0  0  0
  8  9  2  0  0  0  0
  8 10  1  0  0  0  0
  8 12  1  0  0  0  0
  9 13  1  0  0  0  0
 11 15  1  0  0  0  0
 11 19  1  0  0  0  0
 13 18  2  0  0  0  0
 14 17  1  0  0  0  0
 14 20  1  0  0  0  0
 14 21  1  0  0  0  0
 14 29  1  0  0  0  0
 15 26  1  0  0  0  0
 15 27  1  6  0  0  0
 16 22  2  0  0  0  0
 16 23  1  0  0  0  0
 17 24  2  0  0  0  0
 17 25  1  0  0  0  0
 19 28  1  0  0  0  0
 22 24  1  0  0  0  0
 23 25  2  0  0  0  0
 26 30  1  0  0  0  0
 28 30  1  0  0  0  0
M  END
> <PUBCHEM_COMPOUND_ID_TYPE>
0

> <PUBCHEM_TOTAL_CHARGE>
0

> <PUBCHEM_SUBSTANCE_ID>
310948492

> <PUBCHEM_SUBSTANCE_VERSION>
1

> <PUBCHEM_EXT_DATASOURCE_NAME>
4488

> <PUBCHEM_EXT_DATASOURCE_REGID>
SCHEMBL16126674

> <PUBCHEM_SUBSTANCE_COMMENT>
InChI=1S/C23H25N5O2/c1-23(13-30-14-23)16-6-8-17(9-7-16)26-21-20-19(10-11-25-22(20)29)28(27-21)18-5-3-2-4-15(18)12-24/h6-11,15,18H,2-5,13-14H2,1H3,(H,25,29)(H,26,27)/t15-,18+/m1/s1
InChIKey=ZNJYOOTZYOFRAE-QAPCUYQASA-N

> <PUBCHEM_SUBSTANCE_SYNONYM>
SCHEMBL16126674

> <PUBCHEM_XREF_EXT_ID>
SCHEMBL16126674

> <PUBCHEM_EXT_DATASOURCE_URL>
https://www.surechembl.org/

> <PUBCHEM_EXT_SUBSTANCE_URL>
https://www.surechembl.org/chemical/SCHEMBL16126674

> <PUBCHEM_CID_ASSOCIATIONS>
117614049  1

> <PUBCHEM_COORDINATE_TYPE>
1
3

> <PUBCHEM_BONDANNOTATIONS>
15  27  6
11  3  5

$$$$
