310941350
  -OEChem-07211613022D

 10 10  0     0  0  0  0  0  0999 V2000
    1.7776   -0.0837    0.0000 I   0  0  0  0  0  0  0  0  0  0  0  0
    1.1224   -1.2548    0.0000 O   0  0  0  0  0  0  0  0  0  0  0  0
   -1.7776    1.2409    0.0000 O   0  0  0  0  0  0  0  0  0  0  0  0
    0.3974    0.0279    0.0000 C   0  0  0  0  0  0  0  0  0  0  0  0
    1.1363   -0.3764    0.0000 C   0  0  0  0  0  0  0  0  0  0  0  0
   -0.3137   -0.3904    0.0000 C   0  0  0  0  0  0  0  0  0  0  0  0
    0.3974    0.8504    0.0000 C   0  0  0  0  0  0  0  0  0  0  0  0
   -1.0248    0.8504    0.0000 C   0  0  0  0  0  0  0  0  0  0  0  0
   -1.0248    0.0139    0.0000 C   0  0  0  0  0  0  0  0  0  0  0  0
   -0.3276    1.2548    0.0000 C   0  0  0  0  0  0  0  0  0  0  0  0
  1  5  1  0  0  0  0
  2  5  2  0  0  0  0
  3  8  1  0  0  0  0
  4  5  1  0  0  0  0
  4  6  1  0  0  0  0
  4  7  1  0  0  0  0
  6  9  1  0  0  0  0
  7 10  1  0  0  0  0
  8  9  1  0  0  0  0
  8 10  1  0  0  0  0
M  END
> <PUBCHEM_COMPOUND_ID_TYPE>
0

> <PUBCHEM_TOTAL_CHARGE>
0

> <PUBCHEM_SUBSTANCE_ID>
310941350

> <PUBCHEM_SUBSTANCE_VERSION>
1

> <PUBCHEM_EXT_DATASOURCE_NAME>
4488

> <PUBCHEM_EXT_DATASOURCE_REGID>
SCHEMBL16119310

> <PUBCHEM_SUBSTANCE_COMMENT>
InChI=1S/C7H11IO2/c8-7(10)5-1-3-6(9)4-2-5/h5-6,9H,1-4H2
InChIKey=FZVHBQGSSIKACL-UHFFFAOYSA-N

> <PUBCHEM_SUBSTANCE_SYNONYM>
SCHEMBL16119310

> <PUBCHEM_XREF_EXT_ID>
SCHEMBL16119310

> <PUBCHEM_EXT_DATASOURCE_URL>
https://www.surechembl.org/

> <PUBCHEM_EXT_SUBSTANCE_URL>
https://www.surechembl.org/chemical/SCHEMBL16119310

> <PUBCHEM_CID_ASSOCIATIONS>
117608193  1

> <PUBCHEM_COORDINATE_TYPE>
1
3

$$$$
