310934703
  -OEChem-07211613022D

 32 37  0     0  0  0  0  0  0999 V2000
    4.6246   -7.5196    0.0000 F   0  0  0  0  0  0  0  0  0  0  0  0
    2.2559   -4.8501    0.0000 N   0  0  0  0  0  0  0  0  0  0  0  0
    0.7520   -5.0006    0.0000 N   0  0  0  0  0  0  0  0  0  0  0  0
    1.4288   -2.1431    0.0000 N   0  0  0  0  0  0  0  0  0  0  0  0
    1.9927   -0.7520    0.0000 N   0  0  0  0  0  0  0  0  0  0  0  0
    5.1886   -4.1734    0.0000 N   0  0  0  0  0  0  0  0  0  0  0  0
    4.6622   -5.3765    0.0000 N   0  0  0  0  0  0  0  0  0  0  0  0
    1.4663   -3.7598    0.0000 C   0  0  0  0  0  0  0  0  0  0  0  0
    1.4663   -4.6246    0.0000 C   0  0  0  0  0  0  0  0  0  0  0  0
    2.7446   -4.1734    0.0000 C   0  0  0  0  0  0  0  0  0  0  0  0
    0.7520   -3.3838    0.0000 C   0  0  0  0  0  0  0  0  0  0  0  0
    2.2559   -3.5342    0.0000 C   0  0  0  0  0  0  0  0  0  0  0  0
    0.7144   -2.5566    0.0000 C   0  0  0  0  0  0  0  0  0  0  0  0
    3.5342   -4.1734    0.0000 C   0  0  0  0  0  0  0  0  0  0  0  0
    2.4815   -5.6397    0.0000 C   0  0  0  0  0  0  0  0  0  0  0  0
    0.0376   -3.7598    0.0000 C   0  0  0  0  0  0  0  0  0  0  0  0
    0.0376   -4.6246    0.0000 C   0  0  0  0  0  0  0  0  0  0  0  0
    1.4288   -1.3160    0.0000 C   0  0  0  0  0  0  0  0  0  0  0  0
    0.0000   -2.1431    0.0000 C   0  0  0  0  0  0  0  0  0  0  0  0
    3.3087   -5.7901    0.0000 C   0  0  0  0  0  0  0  0  0  0  0  0
    0.6767   -0.9024    0.0000 C   0  0  0  0  0  0  0  0  0  0  0  0
    3.9478   -4.9254    0.0000 C   0  0  0  0  0  0  0  0  0  0  0  0
    3.9478   -3.4966    0.0000 C   0  0  0  0  0  0  0  0  0  0  0  0
    0.0000   -1.3160    0.0000 C   0  0  0  0  0  0  0  0  0  0  0  0
    0.8647   -0.1128    0.0000 C   0  0  0  0  0  0  0  0  0  0  0  0
    3.5718   -6.5797    0.0000 C   0  0  0  0  0  0  0  0  0  0  0  0
    3.8726   -5.1886    0.0000 C   0  0  0  0  0  0  0  0  0  0  0  0
    1.6919    0.0000    0.0000 C   0  0  0  0  0  0  0  0  0  0  0  0
    4.7750   -4.9254    0.0000 C   0  0  0  0  0  0  0  0  0  0  0  0
    4.7750   -3.4966    0.0000 C   0  0  0  0  0  0  0  0  0  0  0  0
    4.3614   -6.7300    0.0000 C   0  0  0  0  0  0  0  0  0  0  0  0
    4.9254   -6.1285    0.0000 C   0  0  0  0  0  0  0  0  0  0  0  0
  1 31  1  0  0  0  0
  2  9  1  0  0  0  0
  2 10  1  0  0  0  0
  2 15  1  0  0  0  0
  3  9  1  0  0  0  0
  3 17  2  0  0  0  0
  4 13  2  0  0  0  0
  4 18  1  0  0  0  0
  5 18  1  0  0  0  0
  5 28  1  0  0  0  0
  6 29  1  0  0  0  0
  6 30  1  0  0  0  0
  7 27  1  0  0  0  0
  7 32  2  0  0  0  0
  8  9  2  0  0  0  0
  8 11  1  0  0  0  0
  8 12  1  0  0  0  0
 10 12  2  0  0  0  0
 10 14  1  0  0  0  0
 11 13  1  0  0  0  0
 11 16  2  0  0  0  0
 13 19  1  0  0  0  0
 14 22  1  0  0  0  0
 14 23  1  0  0  0  0
 15 20  1  0  0  0  0
 16 17  1  0  0  0  0
 18 21  2  0  0  0  0
 19 24  2  0  0  0  0
 20 26  1  0  0  0  0
 20 27  2  0  0  0  0
 21 24  1  0  0  0  0
 21 25  1  0  0  0  0
 22 29  1  0  0  0  0
 23 30  1  0  0  0  0
 25 28  2  0  0  0  0
 26 31  2  0  0  0  0
 31 32  1  0  0  0  0
M  END
> <PUBCHEM_COMPOUND_ID_TYPE>
0

> <PUBCHEM_TOTAL_CHARGE>
0

> <PUBCHEM_SUBSTANCE_ID>
310934703

> <PUBCHEM_SUBSTANCE_VERSION>
1

> <PUBCHEM_EXT_DATASOURCE_NAME>
4488

> <PUBCHEM_EXT_DATASOURCE_REGID>
SCHEMBL16112204

> <PUBCHEM_SUBSTANCE_COMMENT>
InChI=1S/C25H23FN6/c26-19-11-16(13-28-14-19)15-32-23(17-3-7-27-8-4-17)12-21-20(6-10-30-25(21)32)22-2-1-18-5-9-29-24(18)31-22/h1-2,5-6,9-14,17,27H,3-4,7-8,15H2,(H,29,31)
InChIKey=PDZFCCVKJSHNFZ-UHFFFAOYSA-N

> <PUBCHEM_SUBSTANCE_SYNONYM>
SCHEMBL16112204

> <PUBCHEM_XREF_EXT_ID>
SCHEMBL16112204

> <PUBCHEM_EXT_DATASOURCE_URL>
https://www.surechembl.org/

> <PUBCHEM_EXT_SUBSTANCE_URL>
https://www.surechembl.org/chemical/SCHEMBL16112204

> <PUBCHEM_CID_ASSOCIATIONS>
117602863  1

> <PUBCHEM_COORDINATE_TYPE>
1
3

$$$$
