310943241
  -OEChem-07211613022D

 38 41  0     0  0  0  0  0  0999 V2000
    4.6434    2.4764    0.0000 F   0  0  0  0  0  0  0  0  0  0  0  0
    5.3577    2.0638    0.0000 F   0  0  0  0  0  0  0  0  0  0  0  0
    5.3577    1.2383    0.0000 F   0  0  0  0  0  0  0  0  0  0  0  0
    1.7859    2.4606    0.0000 O   0  0  0  0  0  0  0  0  0  0  0  0
   -5.3577    2.4764    0.0000 O   0  0  0  0  0  0  0  0  0  0  0  0
   -1.0716   -2.4764    0.0000 O   0  0  0  0  0  0  0  0  0  0  0  0
   -3.2147    0.4286    0.0000 N   0  0  0  0  0  0  0  0  0  0  0  0
   -3.9290    1.6510    0.0000 N   0  0  0  0  0  0  0  0  0  0  0  0
    1.0716    1.2383    0.0000 N   0  0  0  0  0  0  0  0  0  0  0  0
   -2.5003   -0.8096    0.0000 N   0  0  0  0  0  0  0  0  0  0  0  0
   -1.7700    1.2541    0.0000 C   0  0  0  0  0  0  0  0  0  0  0  0
   -1.0716    1.6669    0.0000 C   0  0  0  0  0  0  0  0  0  0  0  0
   -3.1987    1.2541    0.0000 C   0  0  0  0  0  0  0  0  0  0  0  0
   -2.5162    1.6510    0.0000 C   0  0  0  0  0  0  0  0  0  0  0  0
   -1.0557    2.4764    0.0000 C   0  0  0  0  0  0  0  0  0  0  0  0
   -2.4844    0.0159    0.0000 C   0  0  0  0  0  0  0  0  0  0  0  0
   -1.7859    0.4286    0.0000 C   0  0  0  0  0  0  0  0  0  0  0  0
   -0.3730    1.2541    0.0000 C   0  0  0  0  0  0  0  0  0  0  0  0
    0.3413    1.6669    0.0000 C   0  0  0  0  0  0  0  0  0  0  0  0
    2.5003    1.2541    0.0000 C   0  0  0  0  0  0  0  0  0  0  0  0
    1.7700    1.6351    0.0000 C   0  0  0  0  0  0  0  0  0  0  0  0
    3.9290    1.2541    0.0000 C   0  0  0  0  0  0  0  0  0  0  0  0
   -0.3572    2.8733    0.0000 C   0  0  0  0  0  0  0  0  0  0  0  0
    0.3572    2.4606    0.0000 C   0  0  0  0  0  0  0  0  0  0  0  0
    4.6434    1.6669    0.0000 C   0  0  0  0  0  0  0  0  0  0  0  0
    3.1988    1.6510    0.0000 C   0  0  0  0  0  0  0  0  0  0  0  0
   -3.9290    2.4764    0.0000 C   0  0  0  0  0  0  0  0  0  0  0  0
   -4.6117    1.2541    0.0000 C   0  0  0  0  0  0  0  0  0  0  0  0
    2.5162    0.4128    0.0000 C   0  0  0  0  0  0  0  0  0  0  0  0
    3.9131    0.4286    0.0000 C   0  0  0  0  0  0  0  0  0  0  0  0
   -1.7859    2.8733    0.0000 C   0  0  0  0  0  0  0  0  0  0  0  0
    3.2306    0.0159    0.0000 C   0  0  0  0  0  0  0  0  0  0  0  0
   -1.7700   -1.2383    0.0000 C   0  0  0  0  0  0  0  0  0  0  0  0
   -1.7859   -2.0638    0.0000 C   0  0  0  0  0  0  0  0  0  0  0  0
   -4.6593    2.8892    0.0000 C   0  0  0  0  0  0  0  0  0  0  0  0
   -5.3419    1.6510    0.0000 C   0  0  0  0  0  0  0  0  0  0  0  0
   -2.5003   -2.4447    0.0000 C   0  0  0  0  0  0  0  0  0  0  0  0
   -1.7541   -2.8892    0.0000 C   0  0  0  0  0  0  0  0  0  0  0  0
  1 25  1  0  0  0  0
  2 25  1  0  0  0  0
  3 25  1  0  0  0  0
  4 21  2  0  0  0  0
  5 35  1  0  0  0  0
  5 36  1  0  0  0  0
  6 34  1  0  0  0  0
  7 13  1  0  0  0  0
  7 16  2  0  0  0  0
  8 13  1  0  0  0  0
  8 27  1  0  0  0  0
  8 28  1  0  0  0  0
  9 19  1  0  0  0  0
  9 21  1  0  0  0  0
 10 16  1  0  0  0  0
 10 33  1  0  0  0  0
 11 12  1  0  0  0  0
 11 14  1  0  0  0  0
 11 17  2  0  0  0  0
 12 15  1  0  0  0  0
 12 18  2  0  0  0  0
 13 14  2  0  0  0  0
 15 23  2  0  0  0  0
 15 31  1  0  0  0  0
 16 17  1  0  0  0  0
 18 19  1  0  0  0  0
 19 24  2  0  0  0  0
 20 21  1  0  0  0  0
 20 26  1  0  0  0  0
 20 29  2  0  0  0  0
 22 25  1  0  0  0  0
 22 26  2  0  0  0  0
 22 30  1  0  0  0  0
 23 24  1  0  0  0  0
 27 35  1  0  0  0  0
 28 36  1  0  0  0  0
 29 32  1  0  0  0  0
 30 32  2  0  0  0  0
 33 34  1  0  0  0  0
 34 37  1  0  0  0  0
 34 38  1  0  0  0  0
M  END
> <PUBCHEM_COMPOUND_ID_TYPE>
0

> <PUBCHEM_TOTAL_CHARGE>
0

> <PUBCHEM_SUBSTANCE_ID>
310943241

> <PUBCHEM_SUBSTANCE_VERSION>
1

> <PUBCHEM_EXT_DATASOURCE_NAME>
4488

> <PUBCHEM_EXT_DATASOURCE_REGID>
SCHEMBL16121303

> <PUBCHEM_SUBSTANCE_COMMENT>
InChI=1S/C28H31F3N4O3/c1-18-7-8-22(33-26(36)19-5-4-6-21(13-19)28(29,30)31)16-23(18)20-14-24(32-17-27(2,3)37)34-25(15-20)35-9-11-38-12-10-35/h4-8,13-16,37H,9-12,17H2,1-3H3,(H,32,34)(H,33,36)
InChIKey=SWTUEFNNTINTDY-UHFFFAOYSA-N

> <PUBCHEM_SUBSTANCE_SYNONYM>
SCHEMBL16121303

> <PUBCHEM_XREF_EXT_ID>
SCHEMBL16121303

> <PUBCHEM_EXT_DATASOURCE_URL>
https://www.surechembl.org/

> <PUBCHEM_EXT_SUBSTANCE_URL>
https://www.surechembl.org/chemical/SCHEMBL16121303

> <PUBCHEM_CID_ASSOCIATIONS>
117609666  1

> <PUBCHEM_COORDINATE_TYPE>
1
3

$$$$
