310942168
  -OEChem-07211613022D

 20 21  0     1  0  0  0  0  0999 V2000
    0.4562    1.4499    0.0000 Cl  0  0  0  0  0  0  0  0  0  0  0  0
   -0.9812   -1.0374    0.0000 F   0  0  0  0  0  0  0  0  0  0  0  0
    0.4562   -0.2125    0.0000 O   0  0  0  0  0  0  0  0  0  0  0  0
   -3.1437    0.2000    0.0000 N   0  0  0  0  0  0  0  0  0  0  0  0
   -0.2688    0.2125    0.0000 C   0  0  0  0  0  0  0  0  0  0  0  0
   -0.9812   -0.2000    0.0000 C   0  0  0  0  0  0  0  0  0  0  0  0
   -1.7062    0.2125    0.0000 C   0  0  0  0  0  0  0  0  0  0  0  0
   -0.2562    1.0500    0.0000 C   0  0  0  0  0  0  0  0  0  0  0  0
   -1.6937    1.0374    0.0000 C   0  0  0  0  0  0  0  0  0  0  0  0
   -2.4186   -0.2000    0.0000 C   0  0  3  0  0  0  0  0  0  0  0  0
   -0.9687    1.4499    0.0000 C   0  0  0  0  0  0  0  0  0  0  0  0
    1.1812    0.2125    0.0000 C   0  0  0  0  0  0  0  0  0  0  0  0
    1.9187   -0.2000    0.0000 C   0  0  0  0  0  0  0  0  0  0  0  0
    1.1937    1.0374    0.0000 C   0  0  0  0  0  0  0  0  0  0  0  0
    2.6187    0.2125    0.0000 C   0  0  0  0  0  0  0  0  0  0  0  0
   -2.4312   -1.0500    0.0000 C   0  0  0  0  0  0  0  0  0  0  0  0
    1.9187    1.4499    0.0000 C   0  0  0  0  0  0  0  0  0  0  0  0
    2.6311    1.0374    0.0000 C   0  0  0  0  0  0  0  0  0  0  0  0
    3.1437   -0.0750    0.0000 C   0  0  0  0  0  0  0  0  0  0  0  0
   -3.1311   -1.4499    0.0000 C   0  0  0  0  0  0  0  0  0  0  0  0
  1  8  1  0  0  0  0
  2  6  1  0  0  0  0
  3  5  1  0  0  0  0
  3 12  1  0  0  0  0
 10  4  1  1  0  0  0
  5  6  1  0  0  0  0
  5  8  2  0  0  0  0
  6  7  2  0  0  0  0
  7  9  1  0  0  0  0
  7 10  1  0  0  0  0
  8 11  1  0  0  0  0
  9 11  2  0  0  0  0
 10 16  1  0  0  0  0
 12 13  1  0  0  0  0
 12 14  2  0  0  0  0
 13 15  2  0  0  0  0
 14 17  1  0  0  0  0
 15 18  1  0  0  0  0
 15 19  1  0  0  0  0
 16 20  1  0  0  0  0
 17 18  2  0  0  0  0
M  END
> <PUBCHEM_COMPOUND_ID_TYPE>
0

> <PUBCHEM_TOTAL_CHARGE>
0

> <PUBCHEM_SUBSTANCE_ID>
310942168

> <PUBCHEM_SUBSTANCE_VERSION>
1

> <PUBCHEM_EXT_DATASOURCE_NAME>
4488

> <PUBCHEM_EXT_DATASOURCE_REGID>
SCHEMBL16120203

> <PUBCHEM_SUBSTANCE_COMMENT>
InChI=1S/C16H17ClFNO/c1-3-14(19)12-7-8-13(17)16(15(12)18)20-11-6-4-5-10(2)9-11/h4-9,14H,3,19H2,1-2H3/t14-/m1/s1
InChIKey=WBPJFLDYXLFJQV-CQSZACIVSA-N

> <PUBCHEM_SUBSTANCE_SYNONYM>
SCHEMBL16120203

> <PUBCHEM_XREF_EXT_ID>
SCHEMBL16120203

> <PUBCHEM_EXT_DATASOURCE_URL>
https://www.surechembl.org/

> <PUBCHEM_EXT_SUBSTANCE_URL>
https://www.surechembl.org/chemical/SCHEMBL16120203

> <PUBCHEM_CID_ASSOCIATIONS>
117608821  1

> <PUBCHEM_COORDINATE_TYPE>
1
3

> <PUBCHEM_BONDANNOTATIONS>
10  4  5

$$$$
