310948913
  -OEChem-07211613022D

 57 59  0     1  0  0  0  0  0999 V2000
    5.3795    0.5894    0.0000 P   0  0  3  0  0  0  0  0  0  0  0  0
    9.0279   -1.3216    0.0000 F   0  0  0  0  0  0  0  0  0  0  0  0
    8.1965    0.6639    0.0000 O   0  0  0  0  0  0  0  0  0  0  0  0
    7.3650   -1.3340    0.0000 O   0  0  0  0  0  0  0  0  0  0  0  0
    6.0869    0.1799    0.0000 O   0  0  0  0  0  0  0  0  0  0  0  0
   10.4674   -0.2544    0.0000 O   0  0  0  0  0  0  0  0  0  0  0  0
    4.9576   -0.1303    0.0000 O   0  0  0  0  0  0  0  0  0  0  0  0
   11.1995    2.5129    0.0000 O   0  0  0  0  0  0  0  0  0  0  0  0
    5.3795    1.4209    0.0000 O   0  0  0  0  0  0  0  0  0  0  0  0
   -0.4653   -0.6515    0.0000 O   0  0  0  0  0  0  0  0  0  0  0  0
    9.4746    0.7632    0.0000 N   0  0  0  0  0  0  0  0  0  0  0  0
   10.9762    1.1355    0.0000 N   0  0  0  0  0  0  0  0  0  0  0  0
    4.5605    0.6143    0.0000 N   0  0  0  0  0  0  0  0  0  0  0  0
    2.4136    0.1799    0.0000 N   0  0  0  0  0  0  0  0  0  0  0  0
    0.2668    0.6143    0.0000 N   0  0  0  0  0  0  0  0  0  0  0  0
    8.6308   -0.6019    0.0000 C   0  0  3  0  0  0  0  0  0  0  0  0
    8.8666    0.1799    0.0000 C   0  0  3  0  0  0  0  0  0  0  0  0
    7.7869   -0.6019    0.0000 C   0  0  3  0  0  0  0  0  0  0  0  0
    7.5387    0.1799    0.0000 C   0  0  3  0  0  0  0  0  0  0  0  0
   10.2565    0.5522    0.0000 C   0  0  0  0  0  0  0  0  0  0  0  0
    9.4498   -0.6143    0.0000 C   0  0  0  0  0  0  0  0  0  0  0  0
    6.8190    0.5894    0.0000 C   0  0  0  0  0  0  0  0  0  0  0  0
    9.2637    1.5574    0.0000 C   0  0  0  0  0  0  0  0  0  0  0  0
   10.6287    1.9297    0.0000 C   0  0  0  0  0  0  0  0  0  0  0  0
    9.8345    2.1406    0.0000 C   0  0  0  0  0  0  0  0  0  0  0  0
    5.1810   -0.9121    0.0000 C   0  0  0  0  0  0  0  0  0  0  0  0
    3.8531    0.1799    0.0000 C   0  0  0  0  0  0  0  0  0  0  0  0
    4.6102   -1.5077    0.0000 C   0  0  0  0  0  0  0  0  0  0  0  0
    5.9876   -1.1478    0.0000 C   0  0  0  0  0  0  0  0  0  0  0  0
    3.1210    0.5894    0.0000 C   0  0  0  0  0  0  0  0  0  0  0  0
    4.8335   -2.3019    0.0000 C   0  0  0  0  0  0  0  0  0  0  0  0
    6.1985   -1.9421    0.0000 C   0  0  0  0  0  0  0  0  0  0  0  0
    5.6277   -2.5129    0.0000 C   0  0  0  0  0  0  0  0  0  0  0  0
    1.6815    0.5894    0.0000 C   0  0  0  0  0  0  0  0  0  0  0  0
    0.9865    0.1799    0.0000 C   0  0  0  0  0  0  0  0  0  0  0  0
   -0.4530    0.1923    0.0000 C   0  0  0  0  0  0  0  0  0  0  0  0
   -1.1851    0.5894    0.0000 C   0  0  0  0  0  0  0  0  0  0  0  0
   -1.8800    0.1799    0.0000 C   0  0  0  0  0  0  0  0  0  0  0  0
   -2.6122    0.5894    0.0000 C   0  0  0  0  0  0  0  0  0  0  0  0
   -3.3071    0.1923    0.0000 C   0  0  0  0  0  0  0  0  0  0  0  0
   -3.3195   -0.6515    0.0000 C   0  0  0  0  0  0  0  0  0  0  0  0
   -4.0269   -1.0610    0.0000 C   0  0  0  0  0  0  0  0  0  0  0  0
   -4.7590   -0.6391    0.0000 C   0  0  0  0  0  0  0  0  0  0  0  0
   -4.7590    0.1799    0.0000 C   0  0  0  0  0  0  0  0  0  0  0  0
   -5.4787    0.5894    0.0000 C   0  0  0  0  0  0  0  0  0  0  0  0
   -6.1737    0.1923    0.0000 C   0  0  0  0  0  0  0  0  0  0  0  0
   -6.1861   -0.6515    0.0000 C   0  0  0  0  0  0  0  0  0  0  0  0
   -6.9058   -1.0610    0.0000 C   0  0  0  0  0  0  0  0  0  0  0  0
   -7.6132   -0.6515    0.0000 C   0  0  0  0  0  0  0  0  0  0  0  0
   -7.6132    0.1799    0.0000 C   0  0  0  0  0  0  0  0  0  0  0  0
   -8.3454    0.5894    0.0000 C   0  0  0  0  0  0  0  0  0  0  0  0
   -9.0403    0.1799    0.0000 C   0  0  0  0  0  0  0  0  0  0  0  0
   -9.0527   -0.6515    0.0000 C   0  0  0  0  0  0  0  0  0  0  0  0
   -9.7724   -1.0610    0.0000 C   0  0  0  0  0  0  0  0  0  0  0  0
  -10.4798   -0.6515    0.0000 C   0  0  0  0  0  0  0  0  0  0  0  0
  -10.4798    0.1799    0.0000 C   0  0  0  0  0  0  0  0  0  0  0  0
  -11.1995    0.5770    0.0000 C   0  0  0  0  0  0  0  0  0  0  0  0
  1  5  1  0  0  0  0
  1  7  1  0  0  0  0
  1  9  2  0  0  0  0
  1 13  1  0  0  0  0
 16  2  1  6  0  0  0
  3 17  1  0  0  0  0
  3 19  1  0  0  0  0
 18  4  1  6  0  0  0
  5 22  1  0  0  0  0
  6 20  2  0  0  0  0
  7 26  1  0  0  0  0
  8 24  2  0  0  0  0
 10 36  2  0  0  0  0
 11 17  1  0  0  0  0
 11 20  1  0  0  0  0
 11 23  1  0  0  0  0
 12 20  1  0  0  0  0
 12 24  1  0  0  0  0
 13 27  1  0  0  0  0
 14 30  1  0  0  0  0
 14 34  1  0  0  0  0
 15 35  1  0  0  0  0
 15 36  1  0  0  0  0
 16 17  1  0  0  0  0
 16 18  1  0  0  0  0
 16 21  1  1  0  0  0
 18 19  1  0  0  0  0
 19 22  1  1  0  0  0
 23 25  2  0  0  0  0
 24 25  1  0  0  0  0
 26 28  2  0  0  0  0
 26 29  1  0  0  0  0
 27 30  1  0  0  0  0
 28 31  1  0  0  0  0
 29 32  2  0  0  0  0
 31 33  2  0  0  0  0
 32 33  1  0  0  0  0
 34 35  1  0  0  0  0
 36 37  1  0  0  0  0
 37 38  1  0  0  0  0
 38 39  1  0  0  0  0
 39 40  2  0  0  0  0
 40 41  1  0  0  0  0
 41 42  1  0  0  0  0
 42 43  2  0  0  0  0
 43 44  1  0  0  0  0
 44 45  1  0  0  0  0
 45 46  2  0  0  0  0
 46 47  1  0  0  0  0
 47 48  1  0  0  0  0
 48 49  2  0  0  0  0
 49 50  1  0  0  0  0
 50 51  1  0  0  0  0
 51 52  2  0  0  0  0
 52 53  1  0  0  0  0
 53 54  1  0  0  0  0
 54 55  2  0  0  0  0
 55 56  1  0  0  0  0
 56 57  1  0  0  0  0
M  END
> <PUBCHEM_COMPOUND_ID_TYPE>
0

> <PUBCHEM_TOTAL_CHARGE>
0

> <PUBCHEM_SUBSTANCE_ID>
310948913

> <PUBCHEM_SUBSTANCE_VERSION>
1

> <PUBCHEM_EXT_DATASOURCE_NAME>
4488

> <PUBCHEM_EXT_DATASOURCE_REGID>
SCHEMBL16127098

> <PUBCHEM_SUBSTANCE_COMMENT>
InChI=1S/C42H59FN5O8P/c1-3-4-5-6-7-8-9-10-11-12-13-14-15-16-17-18-19-20-24-27-37(49)45-31-29-44-30-32-46-57(53,56-35-25-22-21-23-26-35)54-34-36-39(51)42(2,43)40(55-36)48-33-28-38(50)47-41(48)52/h4-5,7-8,10-11,13-14,16-17,19-23,25-26,28,33,36,39-40,44,51H,3,6,9,12,15,18,24,27,29-32,34H2,1-2H3,(H,45,49)(H,46,53)(H,47,50,52)/b5-4-,8-7-,11-10-,14-13-,17-16-,20-19-/t36-,39-,40?,42-,57?/m1/s1
InChIKey=RCZLSOIGIUOFGA-BFZDPHDZSA-N

> <PUBCHEM_SUBSTANCE_SYNONYM>
SCHEMBL16127098

> <PUBCHEM_XREF_EXT_ID>
SCHEMBL16127098

> <PUBCHEM_EXT_DATASOURCE_URL>
https://www.surechembl.org/

> <PUBCHEM_EXT_SUBSTANCE_URL>
https://www.surechembl.org/chemical/SCHEMBL16127098

> <PUBCHEM_CID_ASSOCIATIONS>
117614430  1

> <PUBCHEM_COORDINATE_TYPE>
1
3

> <PUBCHEM_BONDANNOTATIONS>
16  21  5
19  22  5
16  2  6
18  4  6

$$$$
