310946161
  -OEChem-07211613022D

 47 55  0     0  0  0  0  0  0999 V2000
    1.0449   11.0394    0.0000 O   0  0  0  0  0  0  0  0  0  0  0  0
    0.0623    9.5403    0.0000 N   0  0  0  0  0  0  0  0  0  0  0  0
   -2.3947    7.9399    0.0000 C   0  0  0  0  0  0  0  0  0  0  0  0
   -1.5877    8.1114    0.0000 C   0  0  0  0  0  0  0  0  0  0  0  0
   -1.1752    7.3969    0.0000 C   0  0  0  0  0  0  0  0  0  0  0  0
   -2.4809    7.1194    0.0000 C   0  0  0  0  0  0  0  0  0  0  0  0
   -1.7272    6.7838    0.0000 C   0  0  0  0  0  0  0  0  0  0  0  0
    1.2998   10.2548    0.0000 C   0  0  0  0  0  0  0  0  0  0  0  0
    0.8873    9.5403    0.0000 C   0  0  0  0  0  0  0  0  0  0  0  0
   -0.3502    8.8259    0.0000 C   0  0  0  0  0  0  0  0  0  0  0  0
    2.1248   10.2548    0.0000 C   0  0  0  0  0  0  0  0  0  0  0  0
    2.3797   11.0394    0.0000 C   0  0  0  0  0  0  0  0  0  0  0  0
    1.7123   11.5243    0.0000 C   0  0  0  0  0  0  0  0  0  0  0  0
   -1.1752    8.8259    0.0000 C   0  0  0  0  0  0  0  0  0  0  0  0
   -0.3502    7.3969    0.0000 C   0  0  0  0  0  0  0  0  0  0  0  0
   -0.3502   10.2548    0.0000 C   0  0  0  0  0  0  0  0  0  0  0  0
    0.0623    8.1114    0.0000 C   0  0  0  0  0  0  0  0  0  0  0  0
    1.7985   12.3448    0.0000 C   0  0  0  0  0  0  0  0  0  0  0  0
   -3.1483    6.6345    0.0000 C   0  0  0  0  0  0  0  0  0  0  0  0
   -1.6410    5.9633    0.0000 C   0  0  0  0  0  0  0  0  0  0  0  0
    1.2998    8.8259    0.0000 C   0  0  0  0  0  0  0  0  0  0  0  0
    2.5373    9.5403    0.0000 C   0  0  0  0  0  0  0  0  0  0  0  0
   -2.3947    8.7649    0.0000 C   0  0  0  0  0  0  0  0  0  0  0  0
   -3.2197    7.9399    0.0000 C   0  0  0  0  0  0  0  0  0  0  0  0
    3.1334   11.3750    0.0000 C   0  0  0  0  0  0  0  0  0  0  0  0
    2.1248    8.8259    0.0000 C   0  0  0  0  0  0  0  0  0  0  0  0
    1.1311   12.8297    0.0000 C   0  0  0  0  0  0  0  0  0  0  0  0
    2.5522   12.6804    0.0000 C   0  0  0  0  0  0  0  0  0  0  0  0
   -3.0621    5.8140    0.0000 C   0  0  0  0  0  0  0  0  0  0  0  0
   -2.3084    5.4784    0.0000 C   0  0  0  0  0  0  0  0  0  0  0  0
    0.0623   10.9693    0.0000 C   0  0  0  0  0  0  0  0  0  0  0  0
   -1.1752   10.2548    0.0000 C   0  0  0  0  0  0  0  0  0  0  0  0
    3.2197   12.1955    0.0000 C   0  0  0  0  0  0  0  0  0  0  0  0
   -1.1752   11.6837    0.0000 C   0  0  0  0  0  0  0  0  0  0  0  0
   -0.3502   11.6837    0.0000 C   0  0  0  0  0  0  0  0  0  0  0  0
   -1.5877   10.9693    0.0000 C   0  0  0  0  0  0  0  0  0  0  0  0
    1.2173   13.6502    0.0000 C   0  0  0  0  0  0  0  0  0  0  0  0
    0.3774   12.4942    0.0000 C   0  0  0  0  0  0  0  0  0  0  0  0
   -1.5877   12.3982    0.0000 C   0  0  0  0  0  0  0  0  0  0  0  0
    0.5499   14.1351    0.0000 C   0  0  0  0  0  0  0  0  0  0  0  0
   -0.2900   12.9791    0.0000 C   0  0  0  0  0  0  0  0  0  0  0  0
   -0.2038   13.7996    0.0000 C   0  0  0  0  0  0  0  0  0  0  0  0
   -1.1752   13.1127    0.0000 C   0  0  0  0  0  0  0  0  0  0  0  0
   -2.4127   12.3982    0.0000 C   0  0  0  0  0  0  0  0  0  0  0  0
   -1.5877   13.8272    0.0000 C   0  0  0  0  0  0  0  0  0  0  0  0
   -2.8252   13.1127    0.0000 C   0  0  0  0  0  0  0  0  0  0  0  0
   -2.4127   13.8272    0.0000 C   0  0  0  0  0  0  0  0  0  0  0  0
  1  8  1  0  0  0  0
  1 13  1  0  0  0  0
  2  9  1  0  0  0  0
  2 10  1  0  0  0  0
  2 16  1  0  0  0  0
  3  4  1  0  0  0  0
  3  6  1  0  0  0  0
  3 23  1  0  0  0  0
  3 24  1  0  0  0  0
  4  5  2  0  0  0  0
  4 14  1  0  0  0  0
  5  7  1  0  0  0  0
  5 15  1  0  0  0  0
  6  7  2  0  0  0  0
  6 19  1  0  0  0  0
  7 20  1  0  0  0  0
  8  9  1  0  0  0  0
  8 11  2  0  0  0  0
  9 21  2  0  0  0  0
 10 14  2  0  0  0  0
 10 17  1  0  0  0  0
 11 12  1  0  0  0  0
 11 22  1  0  0  0  0
 12 13  2  0  0  0  0
 12 25  1  0  0  0  0
 13 18  1  0  0  0  0
 15 17  2  0  0  0  0
 16 31  2  0  0  0  0
 16 32  1  0  0  0  0
 18 27  1  0  0  0  0
 18 28  2  0  0  0  0
 19 29  2  0  0  0  0
 20 30  2  0  0  0  0
 21 26  1  0  0  0  0
 22 26  2  0  0  0  0
 25 33  2  0  0  0  0
 27 37  2  0  0  0  0
 27 38  1  0  0  0  0
 28 33  1  0  0  0  0
 29 30  1  0  0  0  0
 31 35  1  0  0  0  0
 32 36  2  0  0  0  0
 34 35  2  0  0  0  0
 34 36  1  0  0  0  0
 34 39  1  0  0  0  0
 37 40  1  0  0  0  0
 38 41  2  0  0  0  0
 39 43  2  0  0  0  0
 39 44  1  0  0  0  0
 40 42  2  0  0  0  0
 41 42  1  0  0  0  0
 43 45  1  0  0  0  0
 44 46  2  0  0  0  0
 45 47  2  0  0  0  0
 46 47  1  0  0  0  0
M  END
> <PUBCHEM_COMPOUND_ID_TYPE>
0

> <PUBCHEM_TOTAL_CHARGE>
0

> <PUBCHEM_SUBSTANCE_ID>
310946161

> <PUBCHEM_SUBSTANCE_VERSION>
1

> <PUBCHEM_EXT_DATASOURCE_NAME>
4488

> <PUBCHEM_EXT_DATASOURCE_REGID>
SCHEMBL16124270

> <PUBCHEM_SUBSTANCE_COMMENT>
InChI=1S/C45H33NO/c1-45(2)40-21-10-9-17-36(40)37-28-27-34(29-41(37)45)46(33-25-23-31(24-26-33)30-13-5-3-6-14-30)42-22-12-20-39-38-19-11-18-35(43(38)47-44(39)42)32-15-7-4-8-16-32/h3-29H,1-2H3
InChIKey=NACLQHPRACCOIS-UHFFFAOYSA-N

> <PUBCHEM_SUBSTANCE_SYNONYM>
SCHEMBL16124270

> <PUBCHEM_XREF_EXT_ID>
SCHEMBL16124270

> <PUBCHEM_EXT_DATASOURCE_URL>
https://www.surechembl.org/

> <PUBCHEM_EXT_SUBSTANCE_URL>
https://www.surechembl.org/chemical/SCHEMBL16124270

> <PUBCHEM_CID_ASSOCIATIONS>
117612118  1

> <PUBCHEM_COORDINATE_TYPE>
1
3

$$$$
