310947797
  -OEChem-07211613022D

 29 31  0     1  0  0  0  0  0999 V2000
    4.2097   -1.4156    0.0000 S   0  0  0  0  0  0  0  0  0  0  0  0
   -0.9087    1.0571    0.0000 O   0  0  0  0  0  0  0  0  0  0  0  0
    3.3814   -1.4156    0.0000 O   0  0  0  0  0  0  0  0  0  0  0  0
    0.5254   -1.4156    0.0000 O   0  0  0  0  0  0  0  0  0  0  0  0
    0.5254    1.8854    0.0000 O   0  0  0  0  0  0  0  0  0  0  0  0
    4.6177   -2.1326    0.0000 O   0  0  0  0  0  0  0  0  0  0  0  0
    4.6177   -0.6985    0.0000 O   0  0  0  0  0  0  0  0  0  0  0  0
    5.0257   -1.4156    0.0000 O   0  0  0  0  0  0  0  0  0  0  0  0
   -3.7152    0.7727    0.0000 N   0  0  0  0  0  0  0  0  0  0  0  0
    1.2549   -0.1793    0.0000 N   0  0  0  0  0  0  0  0  0  0  0  0
   -2.3552    1.8730    0.0000 N   0  0  0  0  0  0  0  0  0  0  0  0
   -0.1669    0.6491    0.0000 N   0  0  0  0  0  0  0  0  0  0  0  0
    2.6890   -0.9953    0.0000 N   0  0  0  0  0  0  0  0  0  0  0  0
   -2.9363    0.5254    0.0000 C   0  0  0  0  0  0  0  0  0  0  0  0
   -2.3182    1.0695    0.0000 C   0  0  3  0  0  0  0  0  0  0  0  0
    1.2549    0.6491    0.0000 C   0  0  3  0  0  0  0  0  0  0  0  0
   -4.2097    0.1051    0.0000 C   0  0  0  0  0  0  0  0  0  0  0  0
   -2.9487   -0.3153    0.0000 C   0  0  0  0  0  0  0  0  0  0  0  0
    0.4884    1.0447    0.0000 C   0  0  0  0  0  0  0  0  0  0  0  0
    1.2672   -0.9829    0.0000 C   0  0  0  0  0  0  0  0  0  0  0  0
   -3.8759    1.5887    0.0000 C   0  0  0  0  0  0  0  0  0  0  0  0
   -3.7152   -0.5626    0.0000 C   0  0  0  0  0  0  0  0  0  0  0  0
   -1.6010    0.6491    0.0000 C   0  0  0  0  0  0  0  0  0  0  0  0
    1.9596   -0.5873    0.0000 C   0  0  0  0  0  0  0  0  0  0  0  0
    1.9596    1.0571    0.0000 C   0  0  0  0  0  0  0  0  0  0  0  0
   -3.2701    2.1326    0.0000 C   0  0  0  0  0  0  0  0  0  0  0  0
    2.6643   -0.1916    0.0000 C   0  0  0  0  0  0  0  0  0  0  0  0
    2.6767    0.6491    0.0000 C   0  0  0  0  0  0  0  0  0  0  0  0
   -5.0257    0.1051    0.0000 C   0  0  0  0  0  0  0  0  0  0  0  0
  1  3  1  0  0  0  0
  1  6  2  0  0  0  0
  1  7  2  0  0  0  0
  1  8  1  0  0  0  0
  2 12  1  0  0  0  0
  2 23  1  0  0  0  0
  3 13  1  0  0  0  0
  4 20  2  0  0  0  0
  5 19  2  0  0  0  0
  9 14  1  0  0  0  0
  9 17  1  0  0  0  0
  9 21  1  0  0  0  0
 10 16  1  0  0  0  0
 10 20  1  0  0  0  0
 10 24  1  0  0  0  0
 11 15  1  0  0  0  0
 11 26  1  0  0  0  0
 12 19  1  0  0  0  0
 13 20  1  0  0  0  0
 14 15  1  0  0  0  0
 14 18  2  0  0  0  0
 15 23  1  0  0  0  0
 16 19  1  6  0  0  0
 16 25  1  0  0  0  0
 17 22  2  0  0  0  0
 17 29  1  0  0  0  0
 18 22  1  0  0  0  0
 21 26  1  0  0  0  0
 24 27  1  0  0  0  0
 25 28  1  0  0  0  0
 27 28  1  0  0  0  0
M  END
> <PUBCHEM_COMPOUND_ID_TYPE>
0

> <PUBCHEM_TOTAL_CHARGE>
0

> <PUBCHEM_SUBSTANCE_ID>
310947797

> <PUBCHEM_SUBSTANCE_VERSION>
1

> <PUBCHEM_EXT_DATASOURCE_NAME>
4488

> <PUBCHEM_EXT_DATASOURCE_REGID>
SCHEMBL16125969

> <PUBCHEM_SUBSTANCE_COMMENT>
InChI=1S/C16H25N5O7S/c1-11-5-6-13-12(17-7-9-20(11)13)10-27-18-15(22)14-4-2-3-8-21(14)16(23)19-28-29(24,25)26/h5-6,12,14,17H,2-4,7-10H2,1H3,(H,18,22)(H,19,23)(H,24,25,26)/t12?,14-/m0/s1
InChIKey=HEPXVLHEXKCBHA-PYMCNQPYSA-N

> <PUBCHEM_SUBSTANCE_SYNONYM>
SCHEMBL16125969

> <PUBCHEM_XREF_EXT_ID>
SCHEMBL16125969

> <PUBCHEM_EXT_DATASOURCE_URL>
https://www.surechembl.org/

> <PUBCHEM_EXT_SUBSTANCE_URL>
https://www.surechembl.org/chemical/SCHEMBL16125969

> <PUBCHEM_CID_ASSOCIATIONS>
117613466  1

> <PUBCHEM_COORDINATE_TYPE>
1
3

> <PUBCHEM_BONDANNOTATIONS>
16  19  6

$$$$
