310944118
  -OEChem-07211613022D

 35 40  0     1  0  0  0  0  0999 V2000
    1.9333   -0.2992    0.0000 O   0  0  0  0  0  0  0  0  0  0  0  0
    4.7583   -1.6840    0.0000 O   0  0  0  0  0  0  0  0  0  0  0  0
    6.0767   -1.1190    0.0000 O   0  0  0  0  0  0  0  0  0  0  0  0
   -0.8475   -0.1883    0.0000 O   0  0  0  0  0  0  0  0  0  0  0  0
    3.3624   -0.1330    0.0000 N   0  0  0  0  0  0  0  0  0  0  0  0
    0.3711    1.2519    0.0000 N   0  0  0  0  0  0  0  0  0  0  0  0
   -4.6475    0.5872    0.0000 N   0  0  0  0  0  0  0  0  0  0  0  0
   -3.4621    1.2629    0.0000 N   0  0  0  0  0  0  0  0  0  0  0  0
   -5.1239    1.3627    0.0000 N   0  0  0  0  0  0  0  0  0  0  0  0
   -6.0213    1.1411    0.0000 N   0  0  0  0  0  0  0  0  0  0  0  0
   -6.0767    0.2216    0.0000 N   0  0  0  0  0  0  0  0  0  0  0  0
    2.5980    0.9971    0.0000 C   0  0  0  0  0  0  0  0  0  0  0  0
    2.5980    0.1773    0.0000 C   0  0  0  0  0  0  0  0  0  0  0  0
    3.3624    1.2186    0.0000 C   0  0  0  0  0  0  0  0  0  0  0  0
    2.0108    1.6840    0.0000 C   0  0  0  0  0  0  0  0  0  0  0  0
    1.8779    1.1079    0.0000 C   0  0  0  0  0  0  0  0  0  0  0  0
    3.8610    0.5318    0.0000 C   0  0  3  0  0  0  0  0  0  0  0  0
    0.9694    0.5761    0.0000 C   0  0  3  0  0  0  0  0  0  0  0  0
    1.1467    1.1522    0.0000 C   0  0  3  0  0  0  0  0  0  0  0  0
    4.0715   -0.5650    0.0000 C   0  0  0  0  0  0  0  0  0  0  0  0
    0.8807   -0.3324    0.0000 C   0  0  0  0  0  0  0  0  0  0  0  0
    1.2353    0.2992    0.0000 C   0  0  0  0  0  0  0  0  0  0  0  0
    4.8581   -0.3767    0.0000 C   0  0  0  0  0  0  0  0  0  0  0  0
   -0.7589    1.2740    0.0000 C   0  0  0  0  0  0  0  0  0  0  0  0
    4.0049   -1.3627    0.0000 C   0  0  0  0  0  0  0  0  0  0  0  0
    5.2458   -1.0525    0.0000 C   0  0  0  0  0  0  0  0  0  0  0  0
    4.7472    0.5318    0.0000 C   0  0  0  0  0  0  0  0  0  0  0  0
   -1.3018    0.5872    0.0000 C   0  0  3  0  0  0  0  0  0  0  0  0
   -2.3321    0.5983    0.0000 C   0  0  0  0  0  0  0  0  0  0  0  0
    5.1793    0.4764    0.0000 C   0  0  0  0  0  0  0  0  0  0  0  0
   -2.6866    1.2629    0.0000 C   0  0  0  0  0  0  0  0  0  0  0  0
   -2.6977   -0.0775    0.0000 C   0  0  0  0  0  0  0  0  0  0  0  0
   -3.8610    0.5872    0.0000 C   0  0  0  0  0  0  0  0  0  0  0  0
   -3.4621   -0.0775    0.0000 C   0  0  0  0  0  0  0  0  0  0  0  0
   -5.2347   -0.1108    0.0000 C   0  0  0  0  0  0  0  0  0  0  0  0
  1 13  2  0  0  0  0
  2 25  1  0  0  0  0
  2 26  1  0  0  0  0
  3 26  2  0  0  0  0
 28  4  1  1  0  0  0
  5 13  1  0  0  0  0
  5 17  1  0  0  0  0
  5 20  1  0  0  0  0
  6 18  1  0  0  0  0
  6 19  1  0  0  0  0
  6 24  1  0  0  0  0
  7  9  1  0  0  0  0
  7 33  1  0  0  0  0
  7 35  1  0  0  0  0
  8 31  1  0  0  0  0
  8 33  2  0  0  0  0
  9 10  2  0  0  0  0
 10 11  1  0  0  0  0
 11 35  2  0  0  0  0
 12 13  1  0  0  0  0
 12 14  1  0  0  0  0
 12 15  1  0  0  0  0
 12 16  1  0  0  0  0
 14 17  1  0  0  0  0
 15 19  1  0  0  0  0
 16 18  1  0  0  0  0
 17 27  1  0  0  0  0
 18 21  1  0  0  0  0
 19 22  1  0  0  0  0
 20 23  2  0  0  0  0
 20 25  1  0  0  0  0
 21 22  1  0  0  0  0
 23 26  1  0  0  0  0
 23 30  1  0  0  0  0
 24 28  1  0  0  0  0
 28 29  1  0  0  0  0
 29 31  2  0  0  0  0
 29 32  1  0  0  0  0
 32 34  2  0  0  0  0
 33 34  1  0  0  0  0
M  END
> <PUBCHEM_COMPOUND_ID_TYPE>
0

> <PUBCHEM_TOTAL_CHARGE>
0

> <PUBCHEM_SUBSTANCE_ID>
310944118

> <PUBCHEM_SUBSTANCE_VERSION>
1

> <PUBCHEM_EXT_DATASOURCE_NAME>
4488

> <PUBCHEM_EXT_DATASOURCE_REGID>
SCHEMBL16122193

> <PUBCHEM_SUBSTANCE_COMMENT>
InChI=1S/C24H29N7O4/c1-14-7-24(23(34)31(14)19-12-35-22(33)15(19)2)8-17-4-5-18(9-24)29(17)11-20(32)16-3-6-21(25-10-16)30-13-26-27-28-30/h3,6,10,13-14,17-18,20,32H,4-5,7-9,11-12H2,1-2H3/t14?,17?,18?,20-,24?/m1/s1
InChIKey=ADYAWSYOLMYUSI-BHYXOCPISA-N

> <PUBCHEM_SUBSTANCE_SYNONYM>
SCHEMBL16122193

> <PUBCHEM_XREF_EXT_ID>
SCHEMBL16122193

> <PUBCHEM_EXT_DATASOURCE_URL>
https://www.surechembl.org/

> <PUBCHEM_EXT_SUBSTANCE_URL>
https://www.surechembl.org/chemical/SCHEMBL16122193

> <PUBCHEM_CID_ASSOCIATIONS>
117610401  1

> <PUBCHEM_COORDINATE_TYPE>
1
3

> <PUBCHEM_BONDANNOTATIONS>
28  4  5

$$$$
