310929258
  -OEChem-07211613022D

 24 25  0     0  0  0  0  0  0999 V2000
    9.9043   -2.8298    0.0000 O   0  0  0  0  0  0  0  0  0  0  0  0
    0.0000   -0.4244    0.0000 O   0  0  0  0  0  0  0  0  0  0  0  0
    9.9043   -1.2381    0.0000 N   0  0  0  0  0  0  0  0  0  0  0  0
    8.4894   -1.2381    0.0000 C   0  0  0  0  0  0  0  0  0  0  0  0
    9.1969   -1.6271    0.0000 C   0  0  0  0  0  0  0  0  0  0  0  0
    8.4894   -0.4244    0.0000 C   0  0  0  0  0  0  0  0  0  0  0  0
    9.1969   -2.4407    0.0000 C   0  0  0  0  0  0  0  0  0  0  0  0
    7.7820   -1.6271    0.0000 C   0  0  0  0  0  0  0  0  0  0  0  0
    9.1969    0.0000    0.0000 C   0  0  0  0  0  0  0  0  0  0  0  0
    8.4894   -2.8298    0.0000 C   0  0  0  0  0  0  0  0  0  0  0  0
    9.9043   -0.3891    0.0000 C   0  0  0  0  0  0  0  0  0  0  0  0
    7.7820   -2.4407    0.0000 C   0  0  0  0  0  0  0  0  0  0  0  0
    7.7820    0.0000    0.0000 C   0  0  0  0  0  0  0  0  0  0  0  0
    7.0745   -0.4244    0.0000 C   0  0  0  0  0  0  0  0  0  0  0  0
   10.6118   -2.4053    0.0000 C   0  0  0  0  0  0  0  0  0  0  0  0
    6.3670    0.0000    0.0000 C   0  0  0  0  0  0  0  0  0  0  0  0
    5.6596   -0.4244    0.0000 C   0  0  0  0  0  0  0  0  0  0  0  0
    4.9522    0.0000    0.0000 C   0  0  0  0  0  0  0  0  0  0  0  0
    4.2447   -0.4244    0.0000 C   0  0  0  0  0  0  0  0  0  0  0  0
    3.5373    0.0000    0.0000 C   0  0  0  0  0  0  0  0  0  0  0  0
    2.8298   -0.4244    0.0000 C   0  0  0  0  0  0  0  0  0  0  0  0
    2.1223    0.0000    0.0000 C   0  0  0  0  0  0  0  0  0  0  0  0
    1.4149   -0.4244    0.0000 C   0  0  0  0  0  0  0  0  0  0  0  0
    0.7074    0.0000    0.0000 C   0  0  0  0  0  0  0  0  0  0  0  0
  1  7  1  0  0  0  0
  1 15  1  0  0  0  0
  2 24  1  0  0  0  0
  3  5  2  0  0  0  0
  3 11  1  0  0  0  0
  4  5  1  0  0  0  0
  4  6  2  0  0  0  0
  4  8  1  0  0  0  0
  5  7  1  0  0  0  0
  6  9  1  0  0  0  0
  6 13  1  0  0  0  0
  7 10  2  0  0  0  0
  8 12  2  0  0  0  0
  9 11  2  0  0  0  0
 10 12  1  0  0  0  0
 13 14  1  0  0  0  0
 14 16  1  0  0  0  0
 16 17  1  0  0  0  0
 17 18  1  0  0  0  0
 18 19  1  0  0  0  0
 19 20  1  0  0  0  0
 20 21  1  0  0  0  0
 21 22  1  0  0  0  0
 22 23  1  0  0  0  0
 23 24  1  0  0  0  0
M  END
> <PUBCHEM_COMPOUND_ID_TYPE>
0

> <PUBCHEM_TOTAL_CHARGE>
0

> <PUBCHEM_SUBSTANCE_ID>
310929258

> <PUBCHEM_SUBSTANCE_VERSION>
1

> <PUBCHEM_EXT_DATASOURCE_NAME>
4488

> <PUBCHEM_EXT_DATASOURCE_REGID>
SCHEMBL16106422

> <PUBCHEM_SUBSTANCE_COMMENT>
InChI=1S/C21H31NO2/c1-24-20-14-11-13-19-18(15-16-22-21(19)20)12-9-7-5-3-2-4-6-8-10-17-23/h11,13-16,23H,2-10,12,17H2,1H3
InChIKey=HITGSPRDOYVGDQ-UHFFFAOYSA-N

> <PUBCHEM_SUBSTANCE_SYNONYM>
SCHEMBL16106422

> <PUBCHEM_XREF_EXT_ID>
SCHEMBL16106422

> <PUBCHEM_EXT_DATASOURCE_URL>
https://www.surechembl.org/

> <PUBCHEM_EXT_SUBSTANCE_URL>
https://www.surechembl.org/chemical/SCHEMBL16106422

> <PUBCHEM_CID_ASSOCIATIONS>
117598684  1

> <PUBCHEM_COORDINATE_TYPE>
1
3

$$$$
