310935309
  -OEChem-07211613022D

 23 25  0     0  0  0  0  0  0999 V2000
    6.5224   -0.2609    0.0000 Cl  0  0  0  0  0  0  0  0  0  0  0  0
    1.4349   -1.1523    0.0000 O   0  0  0  0  0  0  0  0  0  0  0  0
    2.2611    0.0000    0.0000 O   0  0  0  0  0  0  0  0  0  0  0  0
    2.8264   -2.1089    0.0000 N   0  0  0  0  0  0  0  0  0  0  0  0
    3.6090   -2.3698    0.0000 N   0  0  0  0  0  0  0  0  0  0  0  0
    6.1310   -2.4132    0.0000 N   0  0  0  0  0  0  0  0  0  0  0  0
    2.8264   -1.2827    0.0000 C   0  0  0  0  0  0  0  0  0  0  0  0
    4.0873   -1.6958    0.0000 C   0  0  0  0  0  0  0  0  0  0  0  0
    3.6090   -1.0218    0.0000 C   0  0  0  0  0  0  0  0  0  0  0  0
    4.8917   -1.6958    0.0000 C   0  0  0  0  0  0  0  0  0  0  0  0
    2.1524   -2.5655    0.0000 C   0  0  0  0  0  0  0  0  0  0  0  0
    2.1524   -0.8044    0.0000 C   0  0  0  0  0  0  0  0  0  0  0  0
    5.3049   -0.9784    0.0000 C   0  0  0  0  0  0  0  0  0  0  0  0
    5.3266   -2.3915    0.0000 C   0  0  0  0  0  0  0  0  0  0  0  0
    2.2393   -3.3916    0.0000 C   0  0  0  0  0  0  0  0  0  0  0  0
    1.4132   -2.2393    0.0000 C   0  0  0  0  0  0  0  0  0  0  0  0
    6.1310   -0.9784    0.0000 C   0  0  0  0  0  0  0  0  0  0  0  0
    6.5224   -1.6958    0.0000 C   0  0  0  0  0  0  0  0  0  0  0  0
    1.5871   -3.8699    0.0000 C   0  0  0  0  0  0  0  0  0  0  0  0
    0.7609   -2.7177    0.0000 C   0  0  0  0  0  0  0  0  0  0  0  0
    0.8262   -3.5220    0.0000 C   0  0  0  0  0  0  0  0  0  0  0  0
    0.7609   -0.6740    0.0000 C   0  0  0  0  0  0  0  0  0  0  0  0
    0.0000   -1.0001    0.0000 C   0  0  0  0  0  0  0  0  0  0  0  0
  1 17  1  0  0  0  0
  2 12  1  0  0  0  0
  2 22  1  0  0  0  0
  3 12  2  0  0  0  0
  4  5  1  0  0  0  0
  4  7  1  0  0  0  0
  4 11  1  0  0  0  0
  5  8  2  0  0  0  0
  6 14  2  0  0  0  0
  6 18  1  0  0  0  0
  7  9  2  0  0  0  0
  7 12  1  0  0  0  0
  8  9  1  0  0  0  0
  8 10  1  0  0  0  0
 10 13  2  0  0  0  0
 10 14  1  0  0  0  0
 11 15  2  0  0  0  0
 11 16  1  0  0  0  0
 13 17  1  0  0  0  0
 15 19  1  0  0  0  0
 16 20  2  0  0  0  0
 17 18  2  0  0  0  0
 19 21  2  0  0  0  0
 20 21  1  0  0  0  0
 22 23  1  0  0  0  0
M  END
> <PUBCHEM_COMPOUND_ID_TYPE>
0

> <PUBCHEM_TOTAL_CHARGE>
0

> <PUBCHEM_SUBSTANCE_ID>
310935309

> <PUBCHEM_SUBSTANCE_VERSION>
1

> <PUBCHEM_EXT_DATASOURCE_NAME>
4488

> <PUBCHEM_EXT_DATASOURCE_REGID>
SCHEMBL16112843

> <PUBCHEM_SUBSTANCE_COMMENT>
InChI=1S/C17H14ClN3O2/c1-2-23-17(22)16-9-15(12-8-13(18)11-19-10-12)20-21(16)14-6-4-3-5-7-14/h3-11H,2H2,1H3
InChIKey=VSPGUSGGHDKZES-UHFFFAOYSA-N

> <PUBCHEM_SUBSTANCE_SYNONYM>
SCHEMBL16112843

> <PUBCHEM_XREF_EXT_ID>
SCHEMBL16112843

> <PUBCHEM_EXT_DATASOURCE_URL>
https://www.surechembl.org/

> <PUBCHEM_EXT_SUBSTANCE_URL>
https://www.surechembl.org/chemical/SCHEMBL16112843

> <PUBCHEM_CID_ASSOCIATIONS>
117603372  1

> <PUBCHEM_COORDINATE_TYPE>
1
3

$$$$
