310932243
  -OEChem-07211613022D

 23 24  0     0  0  0  0  0  0999 V2000
    0.0000    0.0000    0.0000 Cl  0  0  0  0  0  0  0  0  0  0  0  0
    3.7484   -3.5734    0.0000 O   0  0  0  0  0  0  0  0  0  0  0  0
    2.6489   -2.9987    0.0000 O   0  0  0  0  0  0  0  0  0  0  0  0
    2.4989   -2.8488    0.0000 O   0  0  0  0  0  0  0  0  0  0  0  0
    2.4989   -4.2731    0.0000 N   0  0  0  0  0  0  0  0  0  0  0  0
    1.2495   -3.5734    0.0000 C   0  0  0  0  0  0  0  0  0  0  0  0
    1.6743   -2.8488    0.0000 C   0  0  0  0  0  0  0  0  0  0  0  0
    1.6743   -4.2731    0.0000 C   0  0  0  0  0  0  0  0  0  0  0  0
    1.2495   -2.1241    0.0000 C   0  0  0  0  0  0  0  0  0  0  0  0
    0.4248   -3.5734    0.0000 C   0  0  0  0  0  0  0  0  0  0  0  0
    1.2495   -4.9978    0.0000 C   0  0  0  0  0  0  0  0  0  0  0  0
    2.9237   -3.5734    0.0000 C   0  0  0  0  0  0  0  0  0  0  0  0
    1.6492   -1.4244    0.0000 C   0  0  0  0  0  0  0  0  0  0  0  0
    0.4248   -2.1490    0.0000 C   0  0  0  0  0  0  0  0  0  0  0  0
    0.0250   -4.2731    0.0000 C   0  0  0  0  0  0  0  0  0  0  0  0
    0.4248   -4.9978    0.0000 C   0  0  0  0  0  0  0  0  0  0  0  0
    4.1481   -4.2981    0.0000 C   0  0  0  0  0  0  0  0  0  0  0  0
    0.4248   -0.7247    0.0000 C   0  0  0  0  0  0  0  0  0  0  0  0
    1.2495   -0.6997    0.0000 C   0  0  0  0  0  0  0  0  0  0  0  0
    0.0000   -1.4244    0.0000 C   0  0  0  0  0  0  0  0  0  0  0  0
    3.4235   -4.6980    0.0000 C   0  0  0  0  0  0  0  0  0  0  0  0
    4.5480   -4.9978    0.0000 C   0  0  0  0  0  0  0  0  0  0  0  0
    4.8478   -3.8733    0.0000 C   0  0  0  0  0  0  0  0  0  0  0  0
  1 18  1  0  0  0  0
  2 12  1  0  0  0  0
  2 17  1  0  0  0  0
  3  7  2  0  0  0  0
  4 12  2  0  0  0  0
  5  8  1  0  0  0  0
  5 12  1  0  0  0  0
  6  7  1  0  0  0  0
  6  8  1  0  0  0  0
  6 10  2  0  0  0  0
  7  9  1  0  0  0  0
  8 11  2  0  0  0  0
  9 13  2  0  0  0  0
  9 14  1  0  0  0  0
 10 15  1  0  0  0  0
 11 16  1  0  0  0  0
 13 19  1  0  0  0  0
 14 20  2  0  0  0  0
 15 16  2  0  0  0  0
 17 21  1  0  0  0  0
 17 22  1  0  0  0  0
 17 23  1  0  0  0  0
 18 19  2  0  0  0  0
 18 20  1  0  0  0  0
M  END
> <PUBCHEM_COMPOUND_ID_TYPE>
0

> <PUBCHEM_TOTAL_CHARGE>
0

> <PUBCHEM_SUBSTANCE_ID>
310932243

> <PUBCHEM_SUBSTANCE_VERSION>
1

> <PUBCHEM_EXT_DATASOURCE_NAME>
4488

> <PUBCHEM_EXT_DATASOURCE_REGID>
SCHEMBL16109601

> <PUBCHEM_SUBSTANCE_COMMENT>
InChI=1S/C18H18ClNO3/c1-18(2,3)23-17(22)20-15-7-5-4-6-14(15)16(21)12-8-10-13(19)11-9-12/h4-11H,1-3H3,(H,20,22)
InChIKey=JNTPHSUVPGXLJC-UHFFFAOYSA-N

> <PUBCHEM_SUBSTANCE_SYNONYM>
SCHEMBL16109601

> <PUBCHEM_XREF_EXT_ID>
SCHEMBL16109601

> <PUBCHEM_EXT_DATASOURCE_URL>
https://www.surechembl.org/

> <PUBCHEM_EXT_SUBSTANCE_URL>
https://www.surechembl.org/chemical/SCHEMBL16109601

> <PUBCHEM_CID_ASSOCIATIONS>
117600819  1

> <PUBCHEM_COORDINATE_TYPE>
1
3

$$$$
