310948227
  -OEChem-07211613022D

 41 45  0     0  0  0  0  0  0999 V2000
    2.2745   -2.6090    0.0000 Cl  0  0  0  0  0  0  0  0  0  0  0  0
   -2.0405   -3.2279    0.0000 S   0  0  0  0  0  0  0  0  0  0  0  0
    0.8194   -3.2279    0.0000 F   0  0  0  0  0  0  0  0  0  0  0  0
   -0.3345    4.2815    0.0000 F   0  0  0  0  0  0  0  0  0  0  0  0
    0.7693    4.4655    0.0000 F   0  0  0  0  0  0  0  0  0  0  0  0
    0.9532    3.3449    0.0000 F   0  0  0  0  0  0  0  0  0  0  0  0
    2.1408    1.2376    0.0000 O   0  0  0  0  0  0  0  0  0  0  0  0
   -2.4250   -2.5588    0.0000 O   0  0  0  0  0  0  0  0  0  0  0  0
   -1.6223   -3.9302    0.0000 O   0  0  0  0  0  0  0  0  0  0  0  0
    0.1004   -4.4655    0.0000 O   0  0  0  0  0  0  0  0  0  0  0  0
   -0.6022    1.8063    0.0000 N   0  0  0  0  0  0  0  0  0  0  0  0
    0.9365    1.7896    0.0000 N   0  0  0  0  0  0  0  0  0  0  0  0
    0.0837    2.3247    0.0000 N   0  0  0  0  0  0  0  0  0  0  0  0
    0.1338    0.5686    0.0000 C   0  0  0  0  0  0  0  0  0  0  0  0
    0.8362    0.9867    0.0000 C   0  0  0  0  0  0  0  0  0  0  0  0
   -0.6022    1.0035    0.0000 C   0  0  0  0  0  0  0  0  0  0  0  0
    1.5888    0.6356    0.0000 C   0  0  0  0  0  0  0  0  0  0  0  0
   -0.6022   -0.7360    0.0000 C   0  0  0  0  0  0  0  0  0  0  0  0
    0.1338   -0.3010    0.0000 C   0  0  0  0  0  0  0  0  0  0  0  0
   -0.6189   -1.5554    0.0000 C   0  0  0  0  0  0  0  0  0  0  0  0
   -1.3212   -2.8097    0.0000 C   0  0  0  0  0  0  0  0  0  0  0  0
   -1.3547    0.5519    0.0000 C   0  0  0  0  0  0  0  0  0  0  0  0
    1.7728   -0.1505    0.0000 C   0  0  0  0  0  0  0  0  0  0  0  0
   -1.3379   -0.3010    0.0000 C   0  0  0  0  0  0  0  0  0  0  0  0
   -0.6022   -3.2111    0.0000 C   0  0  0  0  0  0  0  0  0  0  0  0
   -1.3045   -1.9735    0.0000 C   0  0  0  0  0  0  0  0  0  0  0  0
    1.7226    1.9735    0.0000 C   0  0  0  0  0  0  0  0  0  0  0  0
   -0.1840    3.1442    0.0000 C   0  0  0  0  0  0  0  0  0  0  0  0
    0.0837   -2.7930    0.0000 C   0  0  0  0  0  0  0  0  0  0  0  0
    0.1004   -1.9902    0.0000 C   0  0  0  0  0  0  0  0  0  0  0  0
   -1.3045    2.3247    0.0000 C   0  0  0  0  0  0  0  0  0  0  0  0
    0.3010    3.8132    0.0000 C   0  0  0  0  0  0  0  0  0  0  0  0
   -1.0369    3.1442    0.0000 C   0  0  0  0  0  0  0  0  0  0  0  0
    1.1874   -0.7025    0.0000 C   0  0  0  0  0  0  0  0  0  0  0  0
    2.5421   -0.4348    0.0000 C   0  0  0  0  0  0  0  0  0  0  0  0
   -0.6022   -4.0473    0.0000 C   0  0  0  0  0  0  0  0  0  0  0  0
    2.0572    2.7261    0.0000 C   0  0  0  0  0  0  0  0  0  0  0  0
   -2.7094   -3.6293    0.0000 C   0  0  0  0  0  0  0  0  0  0  0  0
    1.3379   -1.5387    0.0000 C   0  0  0  0  0  0  0  0  0  0  0  0
    2.7094   -1.2376    0.0000 C   0  0  0  0  0  0  0  0  0  0  0  0
    2.1073   -1.7896    0.0000 C   0  0  0  0  0  0  0  0  0  0  0  0
  1 41  1  0  0  0  0
  2  8  2  0  0  0  0
  2  9  2  0  0  0  0
  2 21  1  0  0  0  0
  2 38  1  0  0  0  0
  3 29  1  0  0  0  0
  4 32  1  0  0  0  0
  5 32  1  0  0  0  0
  6 32  1  0  0  0  0
  7 17  1  0  0  0  0
  7 27  1  0  0  0  0
 10 36  1  0  0  0  0
 11 13  1  0  0  0  0
 11 16  1  0  0  0  0
 11 31  1  0  0  0  0
 12 15  1  0  0  0  0
 12 27  2  0  0  0  0
 13 28  2  0  0  0  0
 14 15  1  0  0  0  0
 14 16  1  0  0  0  0
 14 19  2  0  0  0  0
 15 17  2  0  0  0  0
 16 22  2  0  0  0  0
 17 23  1  0  0  0  0
 18 19  1  0  0  0  0
 18 20  1  0  0  0  0
 18 24  2  0  0  0  0
 20 26  2  0  0  0  0
 20 30  1  0  0  0  0
 21 25  2  0  0  0  0
 21 26  1  0  0  0  0
 22 24  1  0  0  0  0
 23 34  2  0  0  0  0
 23 35  1  0  0  0  0
 25 29  1  0  0  0  0
 25 36  1  0  0  0  0
 27 37  1  0  0  0  0
 28 32  1  0  0  0  0
 28 33  1  0  0  0  0
 29 30  2  0  0  0  0
 31 33  2  0  0  0  0
 34 39  1  0  0  0  0
 35 40  2  0  0  0  0
 39 41  2  0  0  0  0
 40 41  1  0  0  0  0
M  END
> <PUBCHEM_COMPOUND_ID_TYPE>
0

> <PUBCHEM_TOTAL_CHARGE>
0

> <PUBCHEM_SUBSTANCE_ID>
310948227

> <PUBCHEM_SUBSTANCE_VERSION>
1

> <PUBCHEM_EXT_DATASOURCE_NAME>
4488

> <PUBCHEM_EXT_DATASOURCE_REGID>
SCHEMBL16126404

> <PUBCHEM_SUBSTANCE_COMMENT>
InChI=1S/C28H20ClF4N3O4S/c1-15-34-26(27(40-15)16-3-6-19(29)7-4-16)20-11-17(5-8-23(20)36-10-9-25(35-36)28(31,32)33)18-12-22(30)21(14-37)24(13-18)41(2,38)39/h3-13,37H,14H2,1-2H3
InChIKey=RVZVPYLBZBHMGF-UHFFFAOYSA-N

> <PUBCHEM_SUBSTANCE_SYNONYM>
SCHEMBL16126404

> <PUBCHEM_XREF_EXT_ID>
SCHEMBL16126404

> <PUBCHEM_EXT_DATASOURCE_URL>
https://www.surechembl.org/

> <PUBCHEM_EXT_SUBSTANCE_URL>
https://www.surechembl.org/chemical/SCHEMBL16126404

> <PUBCHEM_CID_ASSOCIATIONS>
117613807  1

> <PUBCHEM_COORDINATE_TYPE>
1
3

$$$$
