310939028
  -OEChem-07211613022D

 24 26  0     0  0  0  0  0  0999 V2000
    1.3482  -12.9620    0.0000 S   0  0  0  0  0  0  0  0  0  0  0  0
    0.7648  -12.3786    0.0000 O   0  0  0  0  0  0  0  0  0  0  0  0
    1.9316  -13.5454    0.0000 O   0  0  0  0  0  0  0  0  0  0  0  0
    1.0775   -9.1911    0.0000 O   0  0  0  0  0  0  0  0  0  0  0  0
    1.9316  -12.3786    0.0000 N   0  0  0  0  0  0  0  0  0  0  0  0
    0.7648  -13.5454    0.0000 C   0  0  0  0  0  0  0  0  0  0  0  0
    1.7180  -11.5817    0.0000 C   0  0  0  0  0  0  0  0  0  0  0  0
   -0.4019  -14.7121    0.0000 C   0  0  0  0  0  0  0  0  0  0  0  0
    0.9784  -14.3423    0.0000 C   0  0  0  0  0  0  0  0  0  0  0  0
   -0.0320  -13.3318    0.0000 C   0  0  0  0  0  0  0  0  0  0  0  0
    0.3950  -14.9256    0.0000 C   0  0  0  0  0  0  0  0  0  0  0  0
   -0.6154  -13.9152    0.0000 C   0  0  0  0  0  0  0  0  0  0  0  0
   -0.9852  -15.2955    0.0000 C   0  0  0  0  0  0  0  0  0  0  0  0
    0.9212  -11.3682    0.0000 C   0  0  0  0  0  0  0  0  0  0  0  0
    2.3014  -10.9984    0.0000 C   0  0  0  0  0  0  0  0  0  0  0  0
    1.2910   -9.9880    0.0000 C   0  0  0  0  0  0  0  0  0  0  0  0
    0.7076  -10.5713    0.0000 C   0  0  0  0  0  0  0  0  0  0  0  0
    2.0879  -10.2015    0.0000 C   0  0  0  0  0  0  0  0  0  0  0  0
   -0.9852  -16.1205    0.0000 C   0  0  0  0  0  0  0  0  0  0  0  0
   -1.6997  -14.8830    0.0000 C   0  0  0  0  0  0  0  0  0  0  0  0
   -2.4142  -15.2955    0.0000 C   0  0  0  0  0  0  0  0  0  0  0  0
   -1.6997  -16.5330    0.0000 C   0  0  0  0  0  0  0  0  0  0  0  0
   -2.4142  -16.1205    0.0000 C   0  0  0  0  0  0  0  0  0  0  0  0
    1.6608   -8.6077    0.0000 C   0  0  0  0  0  0  0  0  0  0  0  0
  1  2  2  0  0  0  0
  1  3  2  0  0  0  0
  1  5  1  0  0  0  0
  1  6  1  0  0  0  0
  4 16  1  0  0  0  0
  4 24  1  0  0  0  0
  5  7  1  0  0  0  0
  6  9  2  0  0  0  0
  6 10  1  0  0  0  0
  7 14  2  0  0  0  0
  7 15  1  0  0  0  0
  8 11  2  0  0  0  0
  8 12  1  0  0  0  0
  8 13  1  0  0  0  0
  9 11  1  0  0  0  0
 10 12  2  0  0  0  0
 13 19  1  0  0  0  0
 13 20  1  0  0  0  0
 14 17  1  0  0  0  0
 15 18  2  0  0  0  0
 16 17  2  0  0  0  0
 16 18  1  0  0  0  0
 19 22  1  0  0  0  0
 20 21  1  0  0  0  0
 21 23  1  0  0  0  0
 22 23  1  0  0  0  0
M  END
> <PUBCHEM_COMPOUND_ID_TYPE>
0

> <PUBCHEM_TOTAL_CHARGE>
0

> <PUBCHEM_SUBSTANCE_ID>
310939028

> <PUBCHEM_SUBSTANCE_VERSION>
1

> <PUBCHEM_EXT_DATASOURCE_NAME>
4488

> <PUBCHEM_EXT_DATASOURCE_REGID>
SCHEMBL16116947

> <PUBCHEM_SUBSTANCE_COMMENT>
InChI=1S/C19H23NO3S/c1-23-18-11-9-17(10-12-18)20-24(21,22)19-13-7-16(8-14-19)15-5-3-2-4-6-15/h7-15,20H,2-6H2,1H3
InChIKey=IHAUWQYQAAYFPX-UHFFFAOYSA-N

> <PUBCHEM_SUBSTANCE_SYNONYM>
SCHEMBL16116947

> <PUBCHEM_XREF_EXT_ID>
SCHEMBL16116947

> <PUBCHEM_EXT_DATASOURCE_URL>
https://www.surechembl.org/

> <PUBCHEM_EXT_SUBSTANCE_URL>
https://www.surechembl.org/chemical/SCHEMBL16116947

> <PUBCHEM_CID_ASSOCIATIONS>
877150  1

> <PUBCHEM_COORDINATE_TYPE>
1
3

$$$$
