310947573
  -OEChem-07211613022D

 23 25  0     1  0  0  0  0  0999 V2000
   -2.1583    1.8571    0.0000 F   0  0  0  0  0  0  0  0  0  0  0  0
   -0.1743    1.0321    0.0000 O   0  0  0  0  0  0  0  0  0  0  0  0
   -1.8563   -0.0949    0.0000 O   0  0  0  0  0  0  0  0  0  0  0  0
    1.2524   -2.6673    0.0000 O   0  0  0  0  0  0  0  0  0  0  0  0
   -1.0290    3.0798    0.0000 O   0  0  0  0  0  0  0  0  0  0  0  0
   -0.2467   -0.3498    0.0000 N   0  0  0  0  0  0  0  0  0  0  0  0
   -0.2467   -1.6847    0.0000 N   0  0  0  0  0  0  0  0  0  0  0  0
    1.2524   -0.1923    0.0000 N   0  0  0  0  0  0  0  0  0  0  0  0
    1.9669   -1.4298    0.0000 N   0  0  0  0  0  0  0  0  0  0  0  0
    2.6813   -0.1923    0.0000 N   0  0  0  0  0  0  0  0  0  0  0  0
   -1.4438    0.6196    0.0000 C   0  0  3  0  0  0  0  0  0  0  0  0
   -0.6592    0.3646    0.0000 C   0  0  3  0  0  0  0  0  0  0  0  0
    0.5379   -0.6048    0.0000 C   0  0  0  0  0  0  0  0  0  0  0  0
   -1.4438    1.4446    0.0000 C   0  0  3  0  0  0  0  0  0  0  0  0
    0.5379   -1.4298    0.0000 C   0  0  0  0  0  0  0  0  0  0  0  0
   -0.6592    1.6995    0.0000 C   0  0  3  0  0  0  0  0  0  0  0  0
   -0.7316   -1.0173    0.0000 C   0  0  0  0  0  0  0  0  0  0  0  0
    1.2524   -1.8423    0.0000 C   0  0  0  0  0  0  0  0  0  0  0  0
   -2.2688    0.6196    0.0000 C   0  0  0  0  0  0  0  0  0  0  0  0
    1.9669   -0.6048    0.0000 C   0  0  0  0  0  0  0  0  0  0  0  0
   -0.4457    2.4964    0.0000 C   0  0  0  0  0  0  0  0  0  0  0  0
   -2.6813    1.3341    0.0000 C   0  0  0  0  0  0  0  0  0  0  0  0
    1.9669   -3.0798    0.0000 C   0  0  0  0  0  0  0  0  0  0  0  0
 14  1  1  6  0  0  0
 12  2  1  1  0  0  0
  2 16  1  0  0  0  0
 11  3  1  6  0  0  0
  4 18  1  0  0  0  0
  4 23  1  0  0  0  0
  5 21  1  0  0  0  0
  6 12  1  0  0  0  0
  6 13  1  0  0  0  0
  6 17  1  0  0  0  0
  7 15  1  0  0  0  0
  7 17  2  0  0  0  0
  8 13  1  0  0  0  0
  8 20  2  0  0  0  0
  9 18  2  0  0  0  0
  9 20  1  0  0  0  0
 10 20  1  0  0  0  0
 11 12  1  0  0  0  0
 11 14  1  0  0  0  0
 11 19  1  1  0  0  0
 13 15  2  0  0  0  0
 14 16  1  0  0  0  0
 15 18  1  0  0  0  0
 16 21  1  1  0  0  0
 19 22  1  0  0  0  0
M  END
> <PUBCHEM_COMPOUND_ID_TYPE>
0

> <PUBCHEM_TOTAL_CHARGE>
0

> <PUBCHEM_SUBSTANCE_ID>
310947573

> <PUBCHEM_SUBSTANCE_VERSION>
1

> <PUBCHEM_EXT_DATASOURCE_NAME>
4488

> <PUBCHEM_EXT_DATASOURCE_REGID>
SCHEMBL16125736

> <PUBCHEM_SUBSTANCE_COMMENT>
InChI=1S/C13H18FN5O4/c1-3-13(21)8(14)6(4-20)23-11(13)19-5-16-7-9(19)17-12(15)18-10(7)22-2/h5-6,8,11,20-21H,3-4H2,1-2H3,(H2,15,17,18)/t6-,8-,11-,13-/m1/s1
InChIKey=RHOQIHWAKKHAJB-VHQAPHLWSA-N

> <PUBCHEM_SUBSTANCE_SYNONYM>
SCHEMBL16125736

> <PUBCHEM_XREF_EXT_ID>
SCHEMBL16125736

> <PUBCHEM_EXT_DATASOURCE_URL>
https://www.surechembl.org/

> <PUBCHEM_EXT_SUBSTANCE_URL>
https://www.surechembl.org/chemical/SCHEMBL16125736

> <PUBCHEM_CID_ASSOCIATIONS>
117613295  1

> <PUBCHEM_COORDINATE_TYPE>
1
3

> <PUBCHEM_BONDANNOTATIONS>
14  1  6
11  19  5
16  21  5
12  2  5
11  3  6

$$$$
