310937629
  -OEChem-07211613022D

 22 24  0     0  0  0  0  0  0999 V2000
    6.4059   -2.4789    0.0000 Cl  0  0  0  0  0  0  0  0  0  0  0  0
    2.8470   -2.0616    0.0000 O   0  0  0  0  0  0  0  0  0  0  0  0
    0.7118    0.0000    0.0000 O   0  0  0  0  0  0  0  0  0  0  0  0
    2.1353   -3.2888    0.0000 N   0  0  0  0  0  0  0  0  0  0  0  0
    2.1353   -2.4543    0.0000 C   0  0  0  0  0  0  0  0  0  0  0  0
    1.4235   -3.7061    0.0000 C   0  0  0  0  0  0  0  0  0  0  0  0
    0.6872   -3.2888    0.0000 C   0  0  0  0  0  0  0  0  0  0  0  0
    1.4235   -2.0616    0.0000 C   0  0  0  0  0  0  0  0  0  0  0  0
    0.7118   -2.4789    0.0000 C   0  0  0  0  0  0  0  0  0  0  0  0
    1.4235   -4.4915    0.0000 C   0  0  0  0  0  0  0  0  0  0  0  0
    0.0000   -3.6815    0.0000 C   0  0  0  0  0  0  0  0  0  0  0  0
    1.4235   -1.2272    0.0000 C   0  0  0  0  0  0  0  0  0  0  0  0
    4.2705   -2.0616    0.0000 C   0  0  0  0  0  0  0  0  0  0  0  0
    3.5588   -2.4789    0.0000 C   0  0  0  0  0  0  0  0  0  0  0  0
    0.7118   -4.9087    0.0000 C   0  0  0  0  0  0  0  0  0  0  0  0
    0.0000   -4.4915    0.0000 C   0  0  0  0  0  0  0  0  0  0  0  0
    4.9823   -2.4789    0.0000 C   0  0  0  0  0  0  0  0  0  0  0  0
    5.6941   -2.0862    0.0000 C   0  0  0  0  0  0  0  0  0  0  0  0
    4.2705   -1.2517    0.0000 C   0  0  0  0  0  0  0  0  0  0  0  0
    0.7118   -0.8345    0.0000 C   0  0  0  0  0  0  0  0  0  0  0  0
    5.6941   -1.2517    0.0000 C   0  0  0  0  0  0  0  0  0  0  0  0
    4.9823   -0.8345    0.0000 C   0  0  0  0  0  0  0  0  0  0  0  0
  1 18  1  0  0  0  0
  2  5  1  0  0  0  0
  2 14  1  0  0  0  0
  3 20  1  0  0  0  0
  4  5  1  0  0  0  0
  4  6  2  0  0  0  0
  5  8  2  0  0  0  0
  6  7  1  0  0  0  0
  6 10  1  0  0  0  0
  7  9  2  0  0  0  0
  7 11  1  0  0  0  0
  8  9  1  0  0  0  0
  8 12  1  0  0  0  0
 10 15  2  0  0  0  0
 11 16  2  0  0  0  0
 12 20  1  0  0  0  0
 13 14  1  0  0  0  0
 13 17  2  0  0  0  0
 13 19  1  0  0  0  0
 15 16  1  0  0  0  0
 17 18  1  0  0  0  0
 18 21  2  0  0  0  0
 19 22  2  0  0  0  0
 21 22  1  0  0  0  0
M  END
> <PUBCHEM_COMPOUND_ID_TYPE>
0

> <PUBCHEM_TOTAL_CHARGE>
0

> <PUBCHEM_SUBSTANCE_ID>
310937629

> <PUBCHEM_SUBSTANCE_VERSION>
1

> <PUBCHEM_EXT_DATASOURCE_NAME>
4488

> <PUBCHEM_EXT_DATASOURCE_REGID>
SCHEMBL16115414

> <PUBCHEM_SUBSTANCE_COMMENT>
InChI=1S/C18H16ClNO2/c19-16-6-3-4-13(10-16)12-22-18-15(8-9-21)11-14-5-1-2-7-17(14)20-18/h1-7,10-11,21H,8-9,12H2
InChIKey=SYPFYHLLHOQBEZ-UHFFFAOYSA-N

> <PUBCHEM_SUBSTANCE_SYNONYM>
SCHEMBL16115414

> <PUBCHEM_XREF_EXT_ID>
SCHEMBL16115414

> <PUBCHEM_EXT_DATASOURCE_URL>
https://www.surechembl.org/

> <PUBCHEM_EXT_SUBSTANCE_URL>
https://www.surechembl.org/chemical/SCHEMBL16115414

> <PUBCHEM_CID_ASSOCIATIONS>
117605326  1

> <PUBCHEM_COORDINATE_TYPE>
1
3

$$$$
