310940538
  -OEChem-07211613022D

 38 43  0     0  0  0  0  0  0999 V2000
    1.6379   -0.1514    0.0000 O   0  0  0  0  0  0  0  0  0  0  0  0
   -2.5738   -0.3303    0.0000 O   0  0  0  0  0  0  0  0  0  0  0  0
    1.6930    1.3213    0.0000 O   0  0  0  0  0  0  0  0  0  0  0  0
    1.7342   -2.7940    0.0000 O   0  0  0  0  0  0  0  0  0  0  0  0
   -3.8813   -2.2572    0.0000 O   0  0  0  0  0  0  0  0  0  0  0  0
    3.8813   -0.7432    0.0000 O   0  0  0  0  0  0  0  0  0  0  0  0
    0.4542    0.5092    0.0000 N   0  0  0  0  0  0  0  0  0  0  0  0
    0.3028   -1.9820    0.0000 N   0  0  0  0  0  0  0  0  0  0  0  0
    2.4499   -1.5553    0.0000 N   0  0  0  0  0  0  0  0  0  0  0  0
   -3.4684   -2.9867    0.0000 N   0  0  0  0  0  0  0  0  0  0  0  0
    0.3028   -0.3441    0.0000 C   0  0  0  0  0  0  0  0  0  0  0  0
    1.0186   -0.7432    0.0000 C   0  0  0  0  0  0  0  0  0  0  0  0
   -0.4129   -0.7570    0.0000 C   0  0  0  0  0  0  0  0  0  0  0  0
   -0.4129   -1.5828    0.0000 C   0  0  0  0  0  0  0  0  0  0  0  0
    1.0186   -1.5828    0.0000 C   0  0  0  0  0  0  0  0  0  0  0  0
    1.2663    0.5643    0.0000 C   0  0  0  0  0  0  0  0  0  0  0  0
   -1.8443   -1.5966    0.0000 C   0  0  0  0  0  0  0  0  0  0  0  0
   -1.1424   -0.3716    0.0000 C   0  0  0  0  0  0  0  0  0  0  0  0
   -1.8305   -0.7708    0.0000 C   0  0  0  0  0  0  0  0  0  0  0  0
   -1.1286   -1.9957    0.0000 C   0  0  0  0  0  0  0  0  0  0  0  0
    1.7480   -1.9682    0.0000 C   0  0  0  0  0  0  0  0  0  0  0  0
   -2.5738   -2.0095    0.0000 C   0  0  0  0  0  0  0  0  0  0  0  0
   -0.2065    0.9497    0.0000 C   0  0  0  0  0  0  0  0  0  0  0  0
   -3.3308   -1.6516    0.0000 C   0  0  0  0  0  0  0  0  0  0  0  0
   -2.6564   -2.8353    0.0000 C   0  0  0  0  0  0  0  0  0  0  0  0
   -0.1514    1.7892    0.0000 C   0  0  0  0  0  0  0  0  0  0  0  0
    2.4775   -0.7570    0.0000 C   0  0  0  0  0  0  0  0  0  0  0  0
    3.1794   -1.9957    0.0000 C   0  0  0  0  0  0  0  0  0  0  0  0
   -0.8258    2.2297    0.0000 C   0  0  0  0  0  0  0  0  0  0  0  0
    0.5919    2.1334    0.0000 C   0  0  0  0  0  0  0  0  0  0  0  0
   -3.4822   -0.8533    0.0000 C   0  0  0  0  0  0  0  0  0  0  0  0
   -2.0370   -3.3996    0.0000 C   0  0  0  0  0  0  0  0  0  0  0  0
   -2.5600    0.4817    0.0000 C   0  0  0  0  0  0  0  0  0  0  0  0
    3.1656   -0.3578    0.0000 C   0  0  0  0  0  0  0  0  0  0  0  0
    3.8813   -1.5828    0.0000 C   0  0  0  0  0  0  0  0  0  0  0  0
   -0.7570    3.0555    0.0000 C   0  0  0  0  0  0  0  0  0  0  0  0
    0.6332    2.9454    0.0000 C   0  0  0  0  0  0  0  0  0  0  0  0
   -0.0137    3.3996    0.0000 C   0  0  0  0  0  0  0  0  0  0  0  0
  1 12  1  0  0  0  0
  1 16  1  0  0  0  0
  2 19  1  0  0  0  0
  2 33  1  0  0  0  0
  3 16  2  0  0  0  0
  4 21  2  0  0  0  0
  5 10  1  0  0  0  0
  5 24  1  0  0  0  0
  6 34  1  0  0  0  0
  6 35  1  0  0  0  0
  7 11  1  0  0  0  0
  7 16  1  0  0  0  0
  7 23  1  0  0  0  0
  8 14  1  0  0  0  0
  8 15  2  0  0  0  0
  9 21  1  0  0  0  0
  9 27  1  0  0  0  0
  9 28  1  0  0  0  0
 10 25  2  0  0  0  0
 11 12  2  0  0  0  0
 11 13  1  0  0  0  0
 12 15  1  0  0  0  0
 13 14  1  0  0  0  0
 13 18  2  0  0  0  0
 14 20  2  0  0  0  0
 15 21  1  0  0  0  0
 17 19  2  0  0  0  0
 17 20  1  0  0  0  0
 17 22  1  0  0  0  0
 18 19  1  0  0  0  0
 22 24  2  0  0  0  0
 22 25  1  0  0  0  0
 23 26  1  0  0  0  0
 24 31  1  0  0  0  0
 25 32  1  0  0  0  0
 26 29  2  0  0  0  0
 26 30  1  0  0  0  0
 27 34  1  0  0  0  0
 28 35  1  0  0  0  0
 29 36  1  0  0  0  0
 30 37  2  0  0  0  0
 36 38  2  0  0  0  0
 37 38  1  0  0  0  0
M  END
> <PUBCHEM_COMPOUND_ID_TYPE>
0

> <PUBCHEM_TOTAL_CHARGE>
0

> <PUBCHEM_SUBSTANCE_ID>
310940538

> <PUBCHEM_SUBSTANCE_VERSION>
1

> <PUBCHEM_EXT_DATASOURCE_NAME>
4488

> <PUBCHEM_EXT_DATASOURCE_REGID>
SCHEMBL16118492

> <PUBCHEM_SUBSTANCE_COMMENT>
InChI=1S/C28H26N4O6/c1-16-23(17(2)38-30-16)20-13-21-19(14-22(20)35-3)25-26(24(29-21)27(33)31-9-11-36-12-10-31)37-28(34)32(25)15-18-7-5-4-6-8-18/h4-8,13-14H,9-12,15H2,1-3H3
InChIKey=XRVABZNGNFIAGV-UHFFFAOYSA-N

> <PUBCHEM_SUBSTANCE_SYNONYM>
SCHEMBL16118492

> <PUBCHEM_XREF_EXT_ID>
SCHEMBL16118492

> <PUBCHEM_EXT_DATASOURCE_URL>
https://www.surechembl.org/

> <PUBCHEM_EXT_SUBSTANCE_URL>
https://www.surechembl.org/chemical/SCHEMBL16118492

> <PUBCHEM_CID_ASSOCIATIONS>
86303112  1

> <PUBCHEM_COORDINATE_TYPE>
1
3

$$$$
