310949133
  -OEChem-07211613022D

 40 46  0     0  0  0  0  0  0999 V2000
   -0.4604    2.2951    0.0000 F   0  0  0  0  0  0  0  0  0  0  0  0
   -0.8113    3.3915    0.0000 F   0  0  0  0  0  0  0  0  0  0  0  0
    0.2997    3.7131    0.0000 F   0  0  0  0  0  0  0  0  0  0  0  0
    0.3289    0.0292    0.0000 F   0  0  0  0  0  0  0  0  0  0  0  0
    3.0479    1.0963    0.0000 F   0  0  0  0  0  0  0  0  0  0  0  0
   -0.6944    1.1695    0.0000 N   0  0  0  0  0  0  0  0  0  0  0  0
   -0.7967    0.3508    0.0000 C   0  0  0  0  0  0  0  0  0  0  0  0
   -1.6007    0.1901    0.0000 C   0  0  0  0  0  0  0  0  0  0  0  0
   -0.4751   -1.0379    0.0000 C   0  0  0  0  0  0  0  0  0  0  0  0
   -1.2791   -1.2133    0.0000 C   0  0  0  0  0  0  0  0  0  0  0  0
   -0.0365   -1.7688    0.0000 C   0  0  0  0  0  0  0  0  0  0  0  0
   -1.4838    1.5349    0.0000 C   0  0  0  0  0  0  0  0  0  0  0  0
   -2.0392    0.8917    0.0000 C   0  0  0  0  0  0  0  0  0  0  0  0
    0.6067    1.7981    0.0000 C   0  0  0  0  0  0  0  0  0  0  0  0
   -1.3376   -2.0758    0.0000 C   0  0  0  0  0  0  0  0  0  0  0  0
   -0.5774   -2.4120    0.0000 C   0  0  0  0  0  0  0  0  0  0  0  0
   -0.2266   -0.2339    0.0000 C   0  0  0  0  0  0  0  0  0  0  0  0
   -1.8492   -0.6286    0.0000 C   0  0  0  0  0  0  0  0  0  0  0  0
    1.3668    1.3887    0.0000 C   0  0  0  0  0  0  0  0  0  0  0  0
    0.6359    2.6167    0.0000 C   0  0  0  0  0  0  0  0  0  0  0  0
   -1.7469    2.2951    0.0000 C   0  0  0  0  0  0  0  0  0  0  0  0
   -2.7702    1.0817    0.0000 C   0  0  0  0  0  0  0  0  0  0  0  0
    1.6445    0.6140    0.0000 C   0  0  0  0  0  0  0  0  0  0  0  0
   -0.0950    3.0260    0.0000 C   0  0  0  0  0  0  0  0  0  0  0  0
   -1.9954   -2.5728    0.0000 C   0  0  0  0  0  0  0  0  0  0  0  0
   -0.4751   -3.2306    0.0000 C   0  0  0  0  0  0  0  0  0  0  0  0
    0.5774   -1.1987    0.0000 C   0  0  0  0  0  0  0  0  0  0  0  0
    0.5921   -2.3681    0.0000 C   0  0  0  0  0  0  0  0  0  0  0  0
    2.0831    1.7835    0.0000 C   0  0  0  0  0  0  0  0  0  0  0  0
    1.3522    3.0260    0.0000 C   0  0  0  0  0  0  0  0  0  0  0  0
   -2.5071    2.4705    0.0000 C   0  0  0  0  0  0  0  0  0  0  0  0
   -3.0479    1.8565    0.0000 C   0  0  0  0  0  0  0  0  0  0  0  0
    1.1476   -0.0438    0.0000 C   0  0  0  0  0  0  0  0  0  0  0  0
    2.4632    0.4678    0.0000 C   0  0  0  0  0  0  0  0  0  0  0  0
    2.0977    2.5874    0.0000 C   0  0  0  0  0  0  0  0  0  0  0  0
   -1.9077   -3.4061    0.0000 C   0  0  0  0  0  0  0  0  0  0  0  0
   -1.1183   -3.7131    0.0000 C   0  0  0  0  0  0  0  0  0  0  0  0
    1.4253   -0.8333    0.0000 C   0  0  0  0  0  0  0  0  0  0  0  0
    2.7848   -0.3216    0.0000 C   0  0  0  0  0  0  0  0  0  0  0  0
    2.2731   -0.9502    0.0000 C   0  0  0  0  0  0  0  0  0  0  0  0
  1 24  1  0  0  0  0
  2 24  1  0  0  0  0
  3 24  1  0  0  0  0
  4 33  1  0  0  0  0
  5 34  1  0  0  0  0
  6  7  1  0  0  0  0
  6 12  1  0  0  0  0
  6 14  1  0  0  0  0
  7  8  2  0  0  0  0
  7 17  1  0  0  0  0
  8 13  1  0  0  0  0
  8 18  1  0  0  0  0
  9 10  1  0  0  0  0
  9 11  1  0  0  0  0
  9 17  2  0  0  0  0
 10 15  1  0  0  0  0
 10 18  2  0  0  0  0
 11 16  1  0  0  0  0
 11 27  1  0  0  0  0
 11 28  1  0  0  0  0
 12 13  2  0  0  0  0
 12 21  1  0  0  0  0
 13 22  1  0  0  0  0
 14 19  1  0  0  0  0
 14 20  2  0  0  0  0
 15 16  2  0  0  0  0
 15 25  1  0  0  0  0
 16 26  1  0  0  0  0
 19 23  1  0  0  0  0
 19 29  2  0  0  0  0
 20 24  1  0  0  0  0
 20 30  1  0  0  0  0
 21 31  2  0  0  0  0
 22 32  2  0  0  0  0
 23 33  1  0  0  0  0
 23 34  2  0  0  0  0
 25 36  2  0  0  0  0
 26 37  2  0  0  0  0
 29 35  1  0  0  0  0
 30 35  2  0  0  0  0
 31 32  1  0  0  0  0
 33 38  2  0  0  0  0
 34 39  1  0  0  0  0
 36 37  1  0  0  0  0
 38 40  1  0  0  0  0
 39 40  2  0  0  0  0
M  END
> <PUBCHEM_COMPOUND_ID_TYPE>
0

> <PUBCHEM_TOTAL_CHARGE>
0

> <PUBCHEM_SUBSTANCE_ID>
310949133

> <PUBCHEM_SUBSTANCE_VERSION>
1

> <PUBCHEM_EXT_DATASOURCE_NAME>
4488

> <PUBCHEM_EXT_DATASOURCE_REGID>
SCHEMBL16127323

> <PUBCHEM_SUBSTANCE_COMMENT>
InChI=1S/C34H22F5N/c1-33(2)24-12-5-3-9-19(24)22-17-23-20-10-4-6-16-29(20)40(30(23)18-26(22)33)32-21(11-7-13-25(32)34(37,38)39)31-27(35)14-8-15-28(31)36/h3-18H,1-2H3
InChIKey=ILXJXNAJYGBHOR-UHFFFAOYSA-N

> <PUBCHEM_SUBSTANCE_SYNONYM>
SCHEMBL16127323

> <PUBCHEM_XREF_EXT_ID>
SCHEMBL16127323

> <PUBCHEM_EXT_DATASOURCE_URL>
https://www.surechembl.org/

> <PUBCHEM_EXT_SUBSTANCE_URL>
https://www.surechembl.org/chemical/SCHEMBL16127323

> <PUBCHEM_CID_ASSOCIATIONS>
117614630  1

> <PUBCHEM_COORDINATE_TYPE>
1
3

$$$$
