310949928
  -OEChem-07211613022D

 29 33  0     0  0  0  0  0  0999 V2000
   -0.6234    1.6209    0.0000 N   0  0  0  0  0  0  0  0  0  0  0  0
   -0.6234    2.9647    0.0000 N   0  0  0  0  0  0  0  0  0  0  0  0
    0.1524   -0.7481    0.0000 N   0  0  0  0  0  0  0  0  0  0  0  0
    1.8703    2.2859    0.0000 N   0  0  0  0  0  0  0  0  0  0  0  0
   -0.1247    2.2998    0.0000 C   0  0  0  0  0  0  0  0  0  0  0  0
   -1.4131    1.8980    0.0000 C   0  0  0  0  0  0  0  0  0  0  0  0
   -1.3992    2.7153    0.0000 C   0  0  0  0  0  0  0  0  0  0  0  0
   -0.3602    0.8451    0.0000 C   0  0  0  0  0  0  0  0  0  0  0  0
    0.7065    2.2859    0.0000 C   0  0  0  0  0  0  0  0  0  0  0  0
   -2.1197    1.4685    0.0000 C   0  0  0  0  0  0  0  0  0  0  0  0
   -2.1335    3.1032    0.0000 C   0  0  0  0  0  0  0  0  0  0  0  0
   -0.9005    0.2217    0.0000 C   0  0  0  0  0  0  0  0  0  0  0  0
    0.4572    0.6511    0.0000 C   0  0  0  0  0  0  0  0  0  0  0  0
    1.2884    2.8678    0.0000 C   0  0  0  0  0  0  0  0  0  0  0  0
    1.3023    1.7179    0.0000 C   0  0  0  0  0  0  0  0  0  0  0  0
    1.2191   -1.7040    0.0000 C   0  0  0  0  0  0  0  0  0  0  0  0
    1.7594   -1.0806    0.0000 C   0  0  0  0  0  0  0  0  0  0  0  0
   -0.6511   -0.5680    0.0000 C   0  0  0  0  0  0  0  0  0  0  0  0
    0.7065   -0.1247    0.0000 C   0  0  0  0  0  0  0  0  0  0  0  0
   -2.8400    1.8841    0.0000 C   0  0  0  0  0  0  0  0  0  0  0  0
    0.4156   -1.5239    0.0000 C   0  0  0  0  0  0  0  0  0  0  0  0
   -2.8400    2.7015    0.0000 C   0  0  0  0  0  0  0  0  0  0  0  0
    1.4685   -2.4937    0.0000 C   0  0  0  0  0  0  0  0  0  0  0  0
    2.5768   -1.2607    0.0000 C   0  0  0  0  0  0  0  0  0  0  0  0
    2.2998   -2.6599    0.0000 C   0  0  0  0  0  0  0  0  0  0  0  0
    2.8400   -2.0642    0.0000 C   0  0  0  0  0  0  0  0  0  0  0  0
    1.1498   -0.5542    0.0000 C   0  0  0  0  0  0  0  0  0  0  0  0
    1.9534   -0.2632    0.0000 C   0  0  0  0  0  0  0  0  0  0  0  0
    0.9282   -3.1032    0.0000 C   0  0  0  0  0  0  0  0  0  0  0  0
  1  5  1  0  0  0  0
  1  6  1  0  0  0  0
  1  8  1  0  0  0  0
  2  5  2  0  0  0  0
  2  7  1  0  0  0  0
  3 18  1  0  0  0  0
  3 19  1  0  0  0  0
  3 21  1  0  0  0  0
  4 14  1  0  0  0  0
  4 15  1  0  0  0  0
  5  9  1  0  0  0  0
  6  7  1  0  0  0  0
  6 10  2  0  0  0  0
  7 11  2  0  0  0  0
  8 12  1  0  0  0  0
  8 13  1  0  0  0  0
  9 14  1  0  0  0  0
  9 15  1  0  0  0  0
 10 20  1  0  0  0  0
 11 22  1  0  0  0  0
 12 18  1  0  0  0  0
 13 19  1  0  0  0  0
 16 17  1  0  0  0  0
 16 21  1  0  0  0  0
 16 23  2  0  0  0  0
 17 24  1  0  0  0  0
 17 27  1  0  0  0  0
 17 28  1  0  0  0  0
 20 22  2  0  0  0  0
 23 25  1  0  0  0  0
 23 29  1  0  0  0  0
 24 26  1  0  0  0  0
 25 26  1  0  0  0  0
M  END
> <PUBCHEM_COMPOUND_ID_TYPE>
0

> <PUBCHEM_TOTAL_CHARGE>
0

> <PUBCHEM_SUBSTANCE_ID>
310949928

> <PUBCHEM_SUBSTANCE_VERSION>
1

> <PUBCHEM_EXT_DATASOURCE_NAME>
4488

> <PUBCHEM_EXT_DATASOURCE_REGID>
SCHEMBL16128154

> <PUBCHEM_SUBSTANCE_COMMENT>
InChI=1S/C25H36N4/c1-18-7-6-12-25(2,3)21(18)17-28-13-10-20(11-14-28)29-23-9-5-4-8-22(23)27-24(29)19-15-26-16-19/h4-5,8-9,19-20,26H,6-7,10-17H2,1-3H3
InChIKey=GWWMHXVFTRZMHG-UHFFFAOYSA-N

> <PUBCHEM_SUBSTANCE_SYNONYM>
SCHEMBL16128154

> <PUBCHEM_XREF_EXT_ID>
SCHEMBL16128154

> <PUBCHEM_EXT_DATASOURCE_URL>
https://www.surechembl.org/

> <PUBCHEM_EXT_SUBSTANCE_URL>
https://www.surechembl.org/chemical/SCHEMBL16128154

> <PUBCHEM_CID_ASSOCIATIONS>
86273811  1

> <PUBCHEM_COORDINATE_TYPE>
1
3

$$$$
