310945025
  -OEChem-07211613022D

 36 40  0     0  0  0  0  0  0999 V2000
   -0.7005    2.5534    0.0000 Cl  0  0  0  0  0  0  0  0  0  0  0  0
    2.4559    2.5712    0.0000 F   0  0  0  0  0  0  0  0  0  0  0  0
    3.8922   -2.4116    0.0000 O   0  0  0  0  0  0  0  0  0  0  0  0
    4.6015   -1.1703    0.0000 O   0  0  0  0  0  0  0  0  0  0  0  0
   -4.6015   -1.8619    0.0000 N   0  0  0  0  0  0  0  0  0  0  0  0
   -4.1937   -2.5712    0.0000 N   0  0  0  0  0  0  0  0  0  0  0  0
   -0.4167    0.8866    0.0000 C   0  0  0  0  0  0  0  0  0  0  0  0
   -0.4344    0.0532    0.0000 C   0  0  0  0  0  0  0  0  0  0  0  0
    0.2926    1.2944    0.0000 C   0  0  0  0  0  0  0  0  0  0  0  0
   -1.1437    1.3122    0.0000 C   0  0  0  0  0  0  0  0  0  0  0  0
   -1.1260   -0.3546    0.0000 C   0  0  0  0  0  0  0  0  0  0  0  0
    0.3103   -0.3546    0.0000 C   0  0  0  0  0  0  0  0  0  0  0  0
    0.3103    2.1279    0.0000 C   0  0  0  0  0  0  0  0  0  0  0  0
   -1.9239    1.0994    0.0000 C   0  0  0  0  0  0  0  0  0  0  0  0
   -1.3566    2.0924    0.0000 C   0  0  0  0  0  0  0  0  0  0  0  0
    1.0373    0.9043    0.0000 C   0  0  0  0  0  0  0  0  0  0  0  0
   -1.8530    0.0354    0.0000 C   0  0  0  0  0  0  0  0  0  0  0  0
   -1.1437   -1.1880    0.0000 C   0  0  0  0  0  0  0  0  0  0  0  0
    0.3280   -1.1880    0.0000 C   0  0  0  0  0  0  0  0  0  0  0  0
    1.0019    0.0532    0.0000 C   0  0  0  0  0  0  0  0  0  0  0  0
   -2.5800   -1.1880    0.0000 C   0  0  0  0  0  0  0  0  0  0  0  0
   -2.1367    1.8796    0.0000 C   0  0  0  0  0  0  0  0  0  0  0  0
    1.0019    2.5357    0.0000 C   0  0  0  0  0  0  0  0  0  0  0  0
   -2.5446   -0.3546    0.0000 C   0  0  0  0  0  0  0  0  0  0  0  0
   -1.8353   -1.5782    0.0000 C   0  0  0  0  0  0  0  0  0  0  0  0
    1.7466    2.1279    0.0000 C   0  0  0  0  0  0  0  0  0  0  0  0
    1.7289    1.2944    0.0000 C   0  0  0  0  0  0  0  0  0  0  0  0
   -3.2893   -1.5959    0.0000 C   0  0  0  0  0  0  0  0  0  0  0  0
    1.7289   -1.1880    0.0000 C   0  0  0  0  0  0  0  0  0  0  0  0
    1.0373   -1.5782    0.0000 C   0  0  0  0  0  0  0  0  0  0  0  0
    1.7289   -0.3724    0.0000 C   0  0  0  0  0  0  0  0  0  0  0  0
   -4.0518   -1.2767    0.0000 C   0  0  0  0  0  0  0  0  0  0  0  0
   -3.3780   -2.4293    0.0000 C   0  0  0  0  0  0  0  0  0  0  0  0
    2.4737   -1.5959    0.0000 C   0  0  0  0  0  0  0  0  0  0  0  0
    3.1652   -1.1880    0.0000 C   0  0  0  0  0  0  0  0  0  0  0  0
    3.8922   -1.5782    0.0000 C   0  0  0  0  0  0  0  0  0  0  0  0
  1 13  1  0  0  0  0
  2 26  1  0  0  0  0
  3 36  2  0  0  0  0
  4 36  1  0  0  0  0
  5  6  1  0  0  0  0
  5 32  2  0  0  0  0
  6 33  1  0  0  0  0
  7  8  2  0  0  0  0
  7  9  1  0  0  0  0
  7 10  1  0  0  0  0
  8 11  1  0  0  0  0
  8 12  1  0  0  0  0
  9 13  1  0  0  0  0
  9 16  2  0  0  0  0
 10 14  1  0  0  0  0
 10 15  1  0  0  0  0
 11 17  2  0  0  0  0
 11 18  1  0  0  0  0
 12 19  2  0  0  0  0
 12 20  1  0  0  0  0
 13 23  2  0  0  0  0
 14 22  1  0  0  0  0
 15 22  1  0  0  0  0
 16 27  1  0  0  0  0
 17 24  1  0  0  0  0
 18 25  2  0  0  0  0
 19 30  1  0  0  0  0
 20 31  2  0  0  0  0
 21 24  2  0  0  0  0
 21 25  1  0  0  0  0
 21 28  1  0  0  0  0
 23 26  1  0  0  0  0
 26 27  2  0  0  0  0
 28 32  1  0  0  0  0
 28 33  2  0  0  0  0
 29 30  2  0  0  0  0
 29 31  1  0  0  0  0
 29 34  1  0  0  0  0
 34 35  2  0  0  0  0
 35 36  1  0  0  0  0
M  END
> <PUBCHEM_COMPOUND_ID_TYPE>
0

> <PUBCHEM_TOTAL_CHARGE>
0

> <PUBCHEM_SUBSTANCE_ID>
310945025

> <PUBCHEM_SUBSTANCE_VERSION>
1

> <PUBCHEM_EXT_DATASOURCE_NAME>
4488

> <PUBCHEM_EXT_DATASOURCE_REGID>
SCHEMBL16123113

> <PUBCHEM_SUBSTANCE_COMMENT>
InChI=1S/C30H24ClFN2O2/c31-27-16-25(32)13-14-26(27)30(21-2-1-3-21)29(22-7-4-19(5-8-22)6-15-28(35)36)23-11-9-20(10-12-23)24-17-33-34-18-24/h4-18,21H,1-3H2,(H,33,34)(H,35,36)/b15-6+,30-29+
InChIKey=PQRCUHXMZAWKSG-RYSIYLRZSA-N

> <PUBCHEM_SUBSTANCE_SYNONYM>
SCHEMBL16123113

> <PUBCHEM_XREF_EXT_ID>
SCHEMBL16123113

> <PUBCHEM_EXT_DATASOURCE_URL>
https://www.surechembl.org/

> <PUBCHEM_EXT_SUBSTANCE_URL>
https://www.surechembl.org/chemical/SCHEMBL16123113

> <PUBCHEM_CID_ASSOCIATIONS>
86271471  1

> <PUBCHEM_COORDINATE_TYPE>
1
3

$$$$
