310929311
  -OEChem-07211613022D

 24 25  0     0  0  0  0  0  0999 V2000
   10.8431   -1.6626    0.0000 Cl  0  0  0  0  0  0  0  0  0  0  0  0
    7.9516    0.0000    0.0000 O   0  0  0  0  0  0  0  0  0  0  0  0
    0.0000   -2.8915    0.0000 O   0  0  0  0  0  0  0  0  0  0  0  0
    7.9878   -1.6626    0.0000 N   0  0  0  0  0  0  0  0  0  0  0  0
    8.7107   -1.2289    0.0000 C   0  0  0  0  0  0  0  0  0  0  0  0
    9.4335   -1.6264    0.0000 C   0  0  0  0  0  0  0  0  0  0  0  0
    8.6745   -0.3976    0.0000 C   0  0  0  0  0  0  0  0  0  0  0  0
   10.1203   -1.2289    0.0000 C   0  0  0  0  0  0  0  0  0  0  0  0
    7.9878   -2.4939    0.0000 C   0  0  0  0  0  0  0  0  0  0  0  0
    9.4335   -2.4939    0.0000 C   0  0  0  0  0  0  0  0  0  0  0  0
    9.3974    0.0000    0.0000 C   0  0  0  0  0  0  0  0  0  0  0  0
   10.1203   -0.3976    0.0000 C   0  0  0  0  0  0  0  0  0  0  0  0
    8.7107   -2.8915    0.0000 C   0  0  0  0  0  0  0  0  0  0  0  0
    7.2288   -2.8915    0.0000 C   0  0  0  0  0  0  0  0  0  0  0  0
    6.5420   -2.4939    0.0000 C   0  0  0  0  0  0  0  0  0  0  0  0
    7.2288   -0.4337    0.0000 C   0  0  0  0  0  0  0  0  0  0  0  0
    5.7830   -2.8915    0.0000 C   0  0  0  0  0  0  0  0  0  0  0  0
    5.0601   -2.4939    0.0000 C   0  0  0  0  0  0  0  0  0  0  0  0
    4.3734   -2.8915    0.0000 C   0  0  0  0  0  0  0  0  0  0  0  0
    3.6144   -2.4939    0.0000 C   0  0  0  0  0  0  0  0  0  0  0  0
    2.8915   -2.8915    0.0000 C   0  0  0  0  0  0  0  0  0  0  0  0
    2.1686   -2.4939    0.0000 C   0  0  0  0  0  0  0  0  0  0  0  0
    1.4458   -2.8915    0.0000 C   0  0  0  0  0  0  0  0  0  0  0  0
    0.7229   -2.4939    0.0000 C   0  0  0  0  0  0  0  0  0  0  0  0
  1  8  1  0  0  0  0
  2  7  1  0  0  0  0
  2 16  1  0  0  0  0
  3 24  1  0  0  0  0
  4  5  2  0  0  0  0
  4  9  1  0  0  0  0
  5  6  1  0  0  0  0
  5  7  1  0  0  0  0
  6  8  1  0  0  0  0
  6 10  2  0  0  0  0
  7 11  2  0  0  0  0
  8 12  2  0  0  0  0
  9 13  2  0  0  0  0
  9 14  1  0  0  0  0
 10 13  1  0  0  0  0
 11 12  1  0  0  0  0
 14 15  1  0  0  0  0
 15 17  1  0  0  0  0
 17 18  1  0  0  0  0
 18 19  1  0  0  0  0
 19 20  1  0  0  0  0
 20 21  1  0  0  0  0
 21 22  1  0  0  0  0
 22 23  1  0  0  0  0
 23 24  1  0  0  0  0
M  END
> <PUBCHEM_COMPOUND_ID_TYPE>
0

> <PUBCHEM_TOTAL_CHARGE>
0

> <PUBCHEM_SUBSTANCE_ID>
310929311

> <PUBCHEM_SUBSTANCE_VERSION>
1

> <PUBCHEM_EXT_DATASOURCE_NAME>
4488

> <PUBCHEM_EXT_DATASOURCE_REGID>
SCHEMBL16106477

> <PUBCHEM_SUBSTANCE_COMMENT>
InChI=1S/C20H28ClNO2/c1-24-19-14-13-18(21)17-12-11-16(22-20(17)19)10-8-6-4-2-3-5-7-9-15-23/h11-14,23H,2-10,15H2,1H3
InChIKey=ZVLKJYDPKRKVST-UHFFFAOYSA-N

> <PUBCHEM_SUBSTANCE_SYNONYM>
SCHEMBL16106477

> <PUBCHEM_XREF_EXT_ID>
SCHEMBL16106477

> <PUBCHEM_EXT_DATASOURCE_URL>
https://www.surechembl.org/

> <PUBCHEM_EXT_SUBSTANCE_URL>
https://www.surechembl.org/chemical/SCHEMBL16106477

> <PUBCHEM_CID_ASSOCIATIONS>
85472704  1

> <PUBCHEM_COORDINATE_TYPE>
1
3

$$$$
