310932043
  -OEChem-07211613022D

 16 16  0     0  0  0  0  0  0999 V2000
    2.1328   -3.2900    0.0000 O   0  0  0  0  0  0  0  0  0  0  0  0
    1.4294   -4.5379    0.0000 O   0  0  0  0  0  0  0  0  0  0  0  0
    2.1328    0.0000    0.0000 N   0  0  0  0  0  0  0  0  0  0  0  0
    0.7034   -2.4732    0.0000 C   0  0  0  0  0  0  0  0  0  0  0  0
    1.4294   -3.7211    0.0000 C   0  0  0  0  0  0  0  0  0  0  0  0
    2.8589   -3.7211    0.0000 C   0  0  0  0  0  0  0  0  0  0  0  0
    0.7034   -3.2900    0.0000 C   0  0  0  0  0  0  0  0  0  0  0  0
    1.4294   -1.2479    0.0000 C   0  0  0  0  0  0  0  0  0  0  0  0
    1.4294   -2.0648    0.0000 C   0  0  0  0  0  0  0  0  0  0  0  0
    0.0000   -2.0648    0.0000 C   0  0  0  0  0  0  0  0  0  0  0  0
    0.7034   -0.8168    0.0000 C   0  0  0  0  0  0  0  0  0  0  0  0
    0.0000   -1.2479    0.0000 C   0  0  0  0  0  0  0  0  0  0  0  0
    2.1328   -0.8168    0.0000 C   0  0  0  0  0  0  0  0  0  0  0  0
    2.4278   -4.4472    0.0000 C   0  0  0  0  0  0  0  0  0  0  0  0
    3.5623   -4.1069    0.0000 C   0  0  0  0  0  0  0  0  0  0  0  0
    3.2673   -2.9950    0.0000 C   0  0  0  0  0  0  0  0  0  0  0  0
  1  5  1  0  0  0  0
  1  6  1  0  0  0  0
  2  5  2  0  0  0  0
  3 13  3  0  0  0  0
  4  7  1  0  0  0  0
  4  9  1  0  0  0  0
  4 10  2  0  0  0  0
  5  7  1  0  0  0  0
  6 14  1  0  0  0  0
  6 15  1  0  0  0  0
  6 16  1  0  0  0  0
  8  9  2  0  0  0  0
  8 11  1  0  0  0  0
  8 13  1  0  0  0  0
 10 12  1  0  0  0  0
 11 12  2  0  0  0  0
M  END
> <PUBCHEM_COMPOUND_ID_TYPE>
0

> <PUBCHEM_TOTAL_CHARGE>
0

> <PUBCHEM_SUBSTANCE_ID>
310932043

> <PUBCHEM_SUBSTANCE_VERSION>
1

> <PUBCHEM_EXT_DATASOURCE_NAME>
4488

> <PUBCHEM_EXT_DATASOURCE_REGID>
SCHEMBL16109388

> <PUBCHEM_SUBSTANCE_COMMENT>
InChI=1S/C13H15NO2/c1-13(2,3)16-12(15)8-10-5-4-6-11(7-10)9-14/h4-7H,8H2,1-3H3
InChIKey=DKLYLPMCYMCABA-UHFFFAOYSA-N

> <PUBCHEM_SUBSTANCE_SYNONYM>
SCHEMBL16109388

> <PUBCHEM_XREF_EXT_ID>
SCHEMBL16109388

> <PUBCHEM_EXT_DATASOURCE_URL>
https://www.surechembl.org/

> <PUBCHEM_EXT_SUBSTANCE_URL>
https://www.surechembl.org/chemical/SCHEMBL16109388

> <PUBCHEM_CID_ASSOCIATIONS>
102224183  1

> <PUBCHEM_COORDINATE_TYPE>
1
3

$$$$
