310940427
  -OEChem-07211613022D

 30 32  0     1  0  0  0  0  0999 V2000
   -3.2860    1.4852    0.0000 S   0  0  0  0  0  0  0  0  0  0  0  0
    0.4337    2.0636    0.0000 O   0  0  0  0  0  0  0  0  0  0  0  0
   -0.3023   -0.8281    0.0000 O   0  0  0  0  0  0  0  0  0  0  0  0
    0.4337   -2.0636    0.0000 O   0  0  0  0  0  0  0  0  0  0  0  0
    3.3253   -2.0636    0.0000 O   0  0  0  0  0  0  0  0  0  0  0  0
    4.6265    0.5915    0.0000 O   0  0  0  0  0  0  0  0  0  0  0  0
   -3.2860    0.1577    0.0000 N   0  0  0  0  0  0  0  0  0  0  0  0
    0.4337    1.2749    0.0000 C   0  0  3  0  0  0  0  0  0  0  0  0
    1.1435    1.6693    0.0000 C   0  0  3  0  0  0  0  0  0  0  0  0
    0.4206    0.4468    0.0000 C   0  0  0  0  0  0  0  0  0  0  0  0
   -0.2760    0.0263    0.0000 C   0  0  3  0  0  0  0  0  0  0  0  0
   -1.0252    0.4468    0.0000 C   0  0  0  0  0  0  0  0  0  0  0  0
    1.8927    1.2749    0.0000 C   0  0  0  0  0  0  0  0  0  0  0  0
   -1.7350    0.0263    0.0000 C   0  0  0  0  0  0  0  0  0  0  0  0
   -2.4841    0.4468    0.0000 C   0  0  0  0  0  0  0  0  0  0  0  0
    0.4337   -1.1961    0.0000 C   0  0  0  0  0  0  0  0  0  0  0  0
    2.6024    1.6824    0.0000 C   0  0  0  0  0  0  0  0  0  0  0  0
   -2.4841    1.2618    0.0000 C   0  0  0  0  0  0  0  0  0  0  0  0
   -3.7723    0.8412    0.0000 C   0  0  0  0  0  0  0  0  0  0  0  0
   -1.0384    1.2881    0.0000 C   0  0  0  0  0  0  0  0  0  0  0  0
    1.1435   -0.8018    0.0000 C   0  0  0  0  0  0  0  0  0  0  0  0
    3.3253    1.2618    0.0000 C   0  0  0  0  0  0  0  0  0  0  0  0
    2.6814   -0.8938    0.0000 C   0  0  3  0  0  0  0  0  0  0  0  0
    1.8927   -1.1961    0.0000 C   0  0  0  0  0  0  0  0  0  0  0  0
    3.3253   -1.1961    0.0000 C   0  0  0  0  0  0  0  0  0  0  0  0
    4.0352    0.0395    0.0000 C   0  0  3  0  0  0  0  0  0  0  0  0
    3.3253    0.4468    0.0000 C   0  0  0  0  0  0  0  0  0  0  0  0
    4.0220   -0.7887    0.0000 C   0  0  0  0  0  0  0  0  0  0  0  0
   -4.6265    0.8544    0.0000 C   0  0  0  0  0  0  0  0  0  0  0  0
    3.0756   -0.2366    0.0000 C   0  0  0  0  0  0  0  0  0  0  0  0
  1 18  1  0  0  0  0
  1 19  1  0  0  0  0
  2  8  1  0  0  0  0
  9  2  1  6  0  0  0
  3 11  1  0  0  0  0
  3 16  1  0  0  0  0
  4 16  2  0  0  0  0
  5 25  2  0  0  0  0
 26  6  1  6  0  0  0
  7 15  1  0  0  0  0
  7 19  2  0  0  0  0
  8  9  1  0  0  0  0
  8 10  1  6  0  0  0
  9 13  1  0  0  0  0
 10 11  1  0  0  0  0
 11 12  1  6  0  0  0
 12 14  2  0  0  0  0
 12 20  1  0  0  0  0
 13 17  1  0  0  0  0
 14 15  1  0  0  0  0
 15 18  2  0  0  0  0
 16 21  1  0  0  0  0
 17 22  1  0  0  0  0
 19 29  1  0  0  0  0
 21 24  1  0  0  0  0
 22 27  1  0  0  0  0
 23 24  1  0  0  0  0
 23 25  1  0  0  0  0
 23 30  1  6  0  0  0
 25 28  1  0  0  0  0
 26 27  1  0  0  0  0
 26 28  1  0  0  0  0
M  END
> <PUBCHEM_COMPOUND_ID_TYPE>
0

> <PUBCHEM_TOTAL_CHARGE>
0

> <PUBCHEM_SUBSTANCE_ID>
310940427

> <PUBCHEM_SUBSTANCE_VERSION>
1

> <PUBCHEM_EXT_DATASOURCE_NAME>
4488

> <PUBCHEM_EXT_DATASOURCE_REGID>
SCHEMBL16118378

> <PUBCHEM_SUBSTANCE_COMMENT>
InChI=1S/C23H33NO5S/c1-14-8-9-23(27)29-21(15(2)10-17-13-30-16(3)24-17)12-22-20(28-22)7-5-4-6-18(25)11-19(14)26/h10,13-14,18,20-22,25H,4-9,11-12H2,1-3H3/b15-10+/t14-,18-,20+,21-,22-/m0/s1
InChIKey=NNAUEAZSGAPWCJ-NDLCDRQRSA-N

> <PUBCHEM_SUBSTANCE_SYNONYM>
SCHEMBL16118378

> <PUBCHEM_XREF_EXT_ID>
SCHEMBL16118378

> <PUBCHEM_EXT_DATASOURCE_URL>
https://www.surechembl.org/

> <PUBCHEM_EXT_SUBSTANCE_URL>
https://www.surechembl.org/chemical/SCHEMBL16118378

> <PUBCHEM_CID_ASSOCIATIONS>
117607452  1

> <PUBCHEM_COORDINATE_TYPE>
1
3

> <PUBCHEM_BONDANNOTATIONS>
11  12  6
9  2  6
23  30  6
26  6  6
8  10  6

$$$$
