310949667
  -OEChem-07211613022D

 22 23  0     0  0  0  0  0  0999 V2000
    2.5156    1.8800    0.0000 O   0  0  0  0  0  0  0  0  0  0  0  0
   -1.0820    1.4607    0.0000 O   0  0  0  0  0  0  0  0  0  0  0  0
   -1.0820   -1.8800    0.0000 O   0  0  0  0  0  0  0  0  0  0  0  0
   -0.3652    0.2164    0.0000 N   0  0  0  0  0  0  0  0  0  0  0  0
    3.2324   -0.2029    0.0000 N   0  0  0  0  0  0  0  0  0  0  0  0
   -1.7988    0.2029    0.0000 C   0  0  0  0  0  0  0  0  0  0  0  0
   -1.8123   -0.6086    0.0000 C   0  0  0  0  0  0  0  0  0  0  0  0
   -1.0820    0.6086    0.0000 C   0  0  0  0  0  0  0  0  0  0  0  0
    0.3516    0.6357    0.0000 C   0  0  0  0  0  0  0  0  0  0  0  0
    1.7853    0.6357    0.0000 C   0  0  0  0  0  0  0  0  0  0  0  0
    1.7988    1.4607    0.0000 C   0  0  0  0  0  0  0  0  0  0  0  0
    1.0550    0.2164    0.0000 C   0  0  0  0  0  0  0  0  0  0  0  0
    0.3652    1.4607    0.0000 C   0  0  0  0  0  0  0  0  0  0  0  0
   -2.5292    0.6221    0.0000 C   0  0  0  0  0  0  0  0  0  0  0  0
   -1.0685   -1.0144    0.0000 C   0  0  0  0  0  0  0  0  0  0  0  0
    1.0685    1.8664    0.0000 C   0  0  0  0  0  0  0  0  0  0  0  0
   -2.5156   -1.0144    0.0000 C   0  0  0  0  0  0  0  0  0  0  0  0
   -3.2324    0.2164    0.0000 C   0  0  0  0  0  0  0  0  0  0  0  0
   -3.2324   -0.6086    0.0000 C   0  0  0  0  0  0  0  0  0  0  0  0
    2.4885    0.2029    0.0000 C   0  0  0  0  0  0  0  0  0  0  0  0
   -0.5816   -0.7709    0.0000 C   0  0  0  0  0  0  0  0  0  0  0  0
    3.2324    1.4607    0.0000 C   0  0  0  0  0  0  0  0  0  0  0  0
  1 11  1  0  0  0  0
  1 22  1  0  0  0  0
  2  8  2  0  0  0  0
  3 15  2  0  0  0  0
  4  8  1  0  0  0  0
  4  9  1  0  0  0  0
  5 20  3  0  0  0  0
  6  7  1  0  0  0  0
  6  8  1  0  0  0  0
  6 14  2  0  0  0  0
  7 15  1  0  0  0  0
  7 17  2  0  0  0  0
  9 12  2  0  0  0  0
  9 13  1  0  0  0  0
 10 11  2  0  0  0  0
 10 12  1  0  0  0  0
 10 20  1  0  0  0  0
 11 16  1  0  0  0  0
 13 16  2  0  0  0  0
 14 18  1  0  0  0  0
 15 21  1  0  0  0  0
 17 19  1  0  0  0  0
 18 19  2  0  0  0  0
M  END
> <PUBCHEM_COMPOUND_ID_TYPE>
0

> <PUBCHEM_TOTAL_CHARGE>
0

> <PUBCHEM_SUBSTANCE_ID>
310949667

> <PUBCHEM_SUBSTANCE_VERSION>
1

> <PUBCHEM_EXT_DATASOURCE_NAME>
4488

> <PUBCHEM_EXT_DATASOURCE_REGID>
SCHEMBL16127865

> <PUBCHEM_SUBSTANCE_COMMENT>
InChI=1S/C17H14N2O3/c1-11(20)14-5-3-4-6-15(14)17(21)19-13-7-8-16(22-2)12(9-13)10-18/h3-9H,1-2H3,(H,19,21)
InChIKey=YJKQQLVTHFYNFE-UHFFFAOYSA-N

> <PUBCHEM_SUBSTANCE_SYNONYM>
SCHEMBL16127865

> <PUBCHEM_XREF_EXT_ID>
SCHEMBL16127865

> <PUBCHEM_EXT_DATASOURCE_URL>
https://www.surechembl.org/

> <PUBCHEM_EXT_SUBSTANCE_URL>
https://www.surechembl.org/chemical/SCHEMBL16127865

> <PUBCHEM_CID_ASSOCIATIONS>
117615041  1

> <PUBCHEM_COORDINATE_TYPE>
1
3

$$$$
