310934250
  -OEChem-07211613022D

 16 17  0     0  0  0  0  0  0999 V2000
    2.8906   -2.1062    0.0000 F   0  0  0  0  0  0  0  0  0  0  0  0
    3.6459   -0.6536    0.0000 F   0  0  0  0  0  0  0  0  0  0  0  0
    2.4838   -2.9051    0.0000 O   0  0  0  0  0  0  0  0  0  0  0  0
    2.4838   -1.4816    0.0000 O   0  0  0  0  0  0  0  0  0  0  0  0
    1.2492   -2.1933    0.0000 C   0  0  0  0  0  0  0  0  0  0  0  0
    1.6269   -1.4671    0.0000 C   0  0  0  0  0  0  0  0  0  0  0  0
    2.6146   -1.5833    0.0000 C   0  0  0  0  0  0  0  0  0  0  0  0
    2.0772   -2.1933    0.0000 C   0  0  0  0  0  0  0  0  0  0  0  0
    0.7844   -2.8615    0.0000 C   0  0  0  0  0  0  0  0  0  0  0  0
    0.7844   -1.5252    0.0000 C   0  0  0  0  0  0  0  0  0  0  0  0
    1.1911   -0.7698    0.0000 C   0  0  0  0  0  0  0  0  0  0  0  0
    2.8179   -0.6827    0.0000 C   0  0  0  0  0  0  0  0  0  0  0  0
    0.0000   -2.6001    0.0000 C   0  0  0  0  0  0  0  0  0  0  0  0
    0.0000   -1.7867    0.0000 C   0  0  0  0  0  0  0  0  0  0  0  0
    1.5542   -0.0290    0.0000 C   0  0  0  0  0  0  0  0  0  0  0  0
    2.3822    0.0000    0.0000 C   0  0  0  0  0  0  0  0  0  0  0  0
  1  7  1  0  0  0  0
  2 12  1  0  0  0  0
  3  8  2  0  0  0  0
  4  8  1  0  0  0  0
  5  6  1  0  0  0  0
  5  8  1  0  0  0  0
  5  9  1  0  0  0  0
  5 10  1  0  0  0  0
  6  7  1  0  0  0  0
  6 11  2  0  0  0  0
  7 12  2  0  0  0  0
  9 13  1  0  0  0  0
 10 14  1  0  0  0  0
 11 15  1  0  0  0  0
 12 16  1  0  0  0  0
 13 14  1  0  0  0  0
 15 16  2  0  0  0  0
M  END
> <PUBCHEM_COMPOUND_ID_TYPE>
0

> <PUBCHEM_TOTAL_CHARGE>
0

> <PUBCHEM_SUBSTANCE_ID>
310934250

> <PUBCHEM_SUBSTANCE_VERSION>
1

> <PUBCHEM_EXT_DATASOURCE_NAME>
4488

> <PUBCHEM_EXT_DATASOURCE_REGID>
SCHEMBL16111708

> <PUBCHEM_SUBSTANCE_COMMENT>
InChI=1S/C12H12F2O2/c13-9-5-3-4-8(10(9)14)12(11(15)16)6-1-2-7-12/h3-5H,1-2,6-7H2,(H,15,16)
InChIKey=RJYRSHMDRKQMFR-UHFFFAOYSA-N

> <PUBCHEM_SUBSTANCE_SYNONYM>
SCHEMBL16111708

> <PUBCHEM_XREF_EXT_ID>
SCHEMBL16111708

> <PUBCHEM_EXT_DATASOURCE_URL>
https://www.surechembl.org/

> <PUBCHEM_EXT_SUBSTANCE_URL>
https://www.surechembl.org/chemical/SCHEMBL16111708

> <PUBCHEM_CID_ASSOCIATIONS>
83412122  1

> <PUBCHEM_COORDINATE_TYPE>
1
3

$$$$
