310940526
  -OEChem-07211613022D

 21 22  0     0  0  0  0  0  0999 V2000
    1.0915    2.1324    0.0000 F   0  0  0  0  0  0  0  0  0  0  0  0
    1.4149    1.0814    0.0000 F   0  0  0  0  0  0  0  0  0  0  0  0
    0.3436    0.7580    0.0000 F   0  0  0  0  0  0  0  0  0  0  0  0
   -1.3744   -2.2941    0.0000 O   0  0  0  0  0  0  0  0  0  0  0  0
    0.6872   -1.9303    0.0000 O   0  0  0  0  0  0  0  0  0  0  0  0
    0.0607   -3.1027    0.0000 O   0  0  0  0  0  0  0  0  0  0  0  0
   -0.6670   -1.0612    0.0000 N   0  0  0  0  0  0  0  0  0  0  0  0
   -0.7074    1.4047    0.0000 C   0  0  0  0  0  0  0  0  0  0  0  0
    0.0000    1.8697    0.0000 C   0  0  0  0  0  0  0  0  0  0  0  0
   -0.6873    0.6165    0.0000 C   0  0  0  0  0  0  0  0  0  0  0  0
    0.7074    1.4452    0.0000 C   0  0  0  0  0  0  0  0  0  0  0  0
   -1.3947    1.8697    0.0000 C   0  0  0  0  0  0  0  0  0  0  0  0
   -0.0202    2.6984    0.0000 C   0  0  0  0  0  0  0  0  0  0  0  0
    0.0404    0.1920    0.0000 C   0  0  0  0  0  0  0  0  0  0  0  0
   -1.3744    0.2123    0.0000 C   0  0  0  0  0  0  0  0  0  0  0  0
    0.0404   -0.5962    0.0000 C   0  0  0  0  0  0  0  0  0  0  0  0
   -1.3744   -0.6367    0.0000 C   0  0  0  0  0  0  0  0  0  0  0  0
   -0.6670   -1.8494    0.0000 C   0  0  0  0  0  0  0  0  0  0  0  0
   -1.4149    2.6377    0.0000 C   0  0  0  0  0  0  0  0  0  0  0  0
   -0.7074    3.1027    0.0000 C   0  0  0  0  0  0  0  0  0  0  0  0
    0.0404   -2.2941    0.0000 C   0  0  0  0  0  0  0  0  0  0  0  0
  1 11  1  0  0  0  0
  2 11  1  0  0  0  0
  3 11  1  0  0  0  0
  4 18  2  0  0  0  0
  5 21  2  0  0  0  0
  6 21  1  0  0  0  0
  7 16  1  0  0  0  0
  7 17  1  0  0  0  0
  7 18  1  0  0  0  0
  8  9  2  0  0  0  0
  8 10  1  0  0  0  0
  8 12  1  0  0  0  0
  9 11  1  0  0  0  0
  9 13  1  0  0  0  0
 10 14  1  0  0  0  0
 10 15  1  0  0  0  0
 12 19  2  0  0  0  0
 13 20  2  0  0  0  0
 14 16  1  0  0  0  0
 15 17  1  0  0  0  0
 18 21  1  0  0  0  0
 19 20  1  0  0  0  0
M  END
> <PUBCHEM_COMPOUND_ID_TYPE>
0

> <PUBCHEM_TOTAL_CHARGE>
0

> <PUBCHEM_SUBSTANCE_ID>
310940526

> <PUBCHEM_SUBSTANCE_VERSION>
1

> <PUBCHEM_EXT_DATASOURCE_NAME>
4488

> <PUBCHEM_EXT_DATASOURCE_REGID>
SCHEMBL16118480

> <PUBCHEM_SUBSTANCE_COMMENT>
InChI=1S/C14H14F3NO3/c15-14(16,17)11-4-2-1-3-10(11)9-5-7-18(8-6-9)12(19)13(20)21/h1-4,9H,5-8H2,(H,20,21)
InChIKey=BSPBEMOWEFCYBC-UHFFFAOYSA-N

> <PUBCHEM_SUBSTANCE_SYNONYM>
SCHEMBL16118480

> <PUBCHEM_XREF_EXT_ID>
SCHEMBL16118480

> <PUBCHEM_EXT_DATASOURCE_URL>
https://www.surechembl.org/

> <PUBCHEM_EXT_SUBSTANCE_URL>
https://www.surechembl.org/chemical/SCHEMBL16118480

> <PUBCHEM_CID_ASSOCIATIONS>
117607537  1

> <PUBCHEM_COORDINATE_TYPE>
1
3

$$$$
