310941869
  -OEChem-07211613022D

 30 35  0     0  0  0  0  0  0999 V2000
    3.6466    0.9081    0.0000 S   0  0  0  0  0  0  0  0  0  0  0  0
   -0.0985   -2.1049    0.0000 O   0  0  0  0  0  0  0  0  0  0  0  0
    3.8719    0.0915    0.0000 O   0  0  0  0  0  0  0  0  0  0  0  0
    4.5054    0.9081    0.0000 O   0  0  0  0  0  0  0  0  0  0  0  0
    1.9289   -0.5561    0.0000 N   0  0  0  0  0  0  0  0  0  0  0  0
    2.8582    0.6406    0.0000 N   0  0  0  0  0  0  0  0  0  0  0  0
    3.2946   -0.8096    0.0000 N   0  0  0  0  0  0  0  0  0  0  0  0
    2.8722   -1.5558    0.0000 N   0  0  0  0  0  0  0  0  0  0  0  0
    2.6892   -0.1901    0.0000 C   0  0  0  0  0  0  0  0  0  0  0  0
    2.0415   -1.3728    0.0000 C   0  0  0  0  0  0  0  0  0  0  0  0
    0.4787   -0.7392    0.0000 C   0  0  0  0  0  0  0  0  0  0  0  0
    0.5773   -1.5840    0.0000 C   0  0  0  0  0  0  0  0  0  0  0  0
    1.1404   -0.2323    0.0000 C   0  0  0  0  0  0  0  0  0  0  0  0
   -0.3097   -0.4153    0.0000 C   0  0  0  0  0  0  0  0  0  0  0  0
    3.8155    1.7670    0.0000 C   0  0  0  0  0  0  0  0  0  0  0  0
    1.3798   -1.8937    0.0000 C   0  0  0  0  0  0  0  0  0  0  0  0
   -1.1264   -0.5139    0.0000 C   0  0  0  0  0  0  0  0  0  0  0  0
   -0.8026    0.2182    0.0000 C   0  0  0  0  0  0  0  0  0  0  0  0
    3.5481    2.5273    0.0000 C   0  0  0  0  0  0  0  0  0  0  0  0
    4.3365    2.3724    0.0000 C   0  0  0  0  0  0  0  0  0  0  0  0
   -3.7451   -2.3302    0.0000 C   0  0  0  0  0  0  0  0  0  0  0  0
   -0.8730   -1.7811    0.0000 C   0  0  0  0  0  0  0  0  0  0  0  0
   -3.8438   -1.3164    0.0000 C   0  0  0  0  0  0  0  0  0  0  0  0
   -2.3513   -1.9782    0.0000 C   0  0  0  0  0  0  0  0  0  0  0  0
   -3.0553   -2.3583    0.0000 C   0  0  0  0  0  0  0  0  0  0  0  0
   -1.5347   -2.2739    0.0000 C   0  0  0  0  0  0  0  0  0  0  0  0
   -4.5054   -2.5273    0.0000 C   0  0  0  0  0  0  0  0  0  0  0  0
   -3.9704   -1.9782    0.0000 C   0  0  0  0  0  0  0  0  0  0  0  0
   -3.1961   -0.9363    0.0000 C   0  0  0  0  0  0  0  0  0  0  0  0
   -2.3372   -1.1193    0.0000 C   0  0  0  0  0  0  0  0  0  0  0  0
  1  3  2  0  0  0  0
  1  4  2  0  0  0  0
  1  6  1  0  0  0  0
  1 15  1  0  0  0  0
  2 12  1  0  0  0  0
  2 22  1  0  0  0  0
  5  9  1  0  0  0  0
  5 10  1  0  0  0  0
  5 13  1  0  0  0  0
  6  9  1  0  0  0  0
  7  8  1  0  0  0  0
  7  9  2  0  0  0  0
  8 10  2  0  0  0  0
 10 16  1  0  0  0  0
 11 12  1  0  0  0  0
 11 13  2  0  0  0  0
 11 14  1  0  0  0  0
 12 16  2  0  0  0  0
 14 17  1  0  0  0  0
 14 18  1  0  0  0  0
 15 19  1  0  0  0  0
 15 20  1  0  0  0  0
 17 18  1  0  0  0  0
 19 20  1  0  0  0  0
 21 23  1  0  0  0  0
 21 25  2  0  0  0  0
 21 27  1  0  0  0  0
 22 26  1  0  0  0  0
 23 28  1  0  0  0  0
 23 29  2  0  0  0  0
 24 25  2  0  0  0  0
 24 26  1  0  0  0  0
 24 30  1  0  0  0  0
 27 28  1  0  0  0  0
 29 30  1  0  0  0  0
M  END
> <PUBCHEM_COMPOUND_ID_TYPE>
0

> <PUBCHEM_TOTAL_CHARGE>
0

> <PUBCHEM_SUBSTANCE_ID>
310941869

> <PUBCHEM_SUBSTANCE_VERSION>
1

> <PUBCHEM_EXT_DATASOURCE_NAME>
4488

> <PUBCHEM_EXT_DATASOURCE_REGID>
SCHEMBL16119901

> <PUBCHEM_SUBSTANCE_COMMENT>
InChI=1S/C22H24N4O3S/c27-30(28,18-7-8-18)25-22-24-23-21-12-20(19(13-26(21)22)16-4-5-16)29-10-9-14-1-2-15-3-6-17(15)11-14/h2,12-13,16,18H,1,3-10H2,(H,24,25)
InChIKey=WTZFVXSVTAVBDW-UHFFFAOYSA-N

> <PUBCHEM_SUBSTANCE_SYNONYM>
SCHEMBL16119901

> <PUBCHEM_XREF_EXT_ID>
SCHEMBL16119901

> <PUBCHEM_EXT_DATASOURCE_URL>
https://www.surechembl.org/

> <PUBCHEM_EXT_SUBSTANCE_URL>
https://www.surechembl.org/chemical/SCHEMBL16119901

> <PUBCHEM_CID_ASSOCIATIONS>
117608607  1

> <PUBCHEM_COORDINATE_TYPE>
1
3

$$$$
