310937035
  -OEChem-07211613022D

 13 13  0     0  0  0  0  0  0999 V2000
    2.8160   -0.6996    0.0000 I   0  0  0  0  0  0  0  0  0  0  0  0
    1.2243   -0.6996    0.0000 O   0  0  0  0  0  0  0  0  0  0  0  0
    2.8160   -3.4981    0.0000 O   0  0  0  0  0  0  0  0  0  0  0  0
    1.6266   -2.7985    0.0000 N   0  0  0  0  0  0  0  0  0  0  0  0
    1.6266   -1.3993    0.0000 C   0  0  0  0  0  0  0  0  0  0  0  0
    2.4137   -1.3993    0.0000 C   0  0  0  0  0  0  0  0  0  0  0  0
    2.4137   -2.7985    0.0000 C   0  0  0  0  0  0  0  0  0  0  0  0
    2.8510   -2.0989    0.0000 C   0  0  0  0  0  0  0  0  0  0  0  0
    1.1894   -2.0989    0.0000 C   0  0  0  0  0  0  0  0  0  0  0  0
    0.4198   -0.6821    0.0000 C   0  0  0  0  0  0  0  0  0  0  0  0
    0.0000   -1.3993    0.0000 C   0  0  0  0  0  0  0  0  0  0  0  0
    0.0175    0.0000    0.0000 C   0  0  0  0  0  0  0  0  0  0  0  0
    3.6205   -3.4981    0.0000 C   0  0  0  0  0  0  0  0  0  0  0  0
  1  6  1  0  0  0  0
  2  5  1  0  0  0  0
  2 10  1  0  0  0  0
  3  7  1  0  0  0  0
  3 13  1  0  0  0  0
  4  7  1  0  0  0  0
  4  9  2  0  0  0  0
  5  6  2  0  0  0  0
  5  9  1  0  0  0  0
  6  8  1  0  0  0  0
  7  8  2  0  0  0  0
 10 11  1  0  0  0  0
 10 12  1  0  0  0  0
M  END
> <PUBCHEM_COMPOUND_ID_TYPE>
0

> <PUBCHEM_TOTAL_CHARGE>
0

> <PUBCHEM_SUBSTANCE_ID>
310937035

> <PUBCHEM_SUBSTANCE_VERSION>
1

> <PUBCHEM_EXT_DATASOURCE_NAME>
4488

> <PUBCHEM_EXT_DATASOURCE_REGID>
SCHEMBL16114745

> <PUBCHEM_SUBSTANCE_COMMENT>
InChI=1S/C9H12INO2/c1-6(2)13-8-5-11-9(12-3)4-7(8)10/h4-6H,1-3H3
InChIKey=MJXVIODLWJDHJG-UHFFFAOYSA-N

> <PUBCHEM_SUBSTANCE_SYNONYM>
SCHEMBL16114745

> <PUBCHEM_XREF_EXT_ID>
SCHEMBL16114745

> <PUBCHEM_EXT_DATASOURCE_URL>
https://www.surechembl.org/

> <PUBCHEM_EXT_SUBSTANCE_URL>
https://www.surechembl.org/chemical/SCHEMBL16114745

> <PUBCHEM_CID_ASSOCIATIONS>
117604885  1

> <PUBCHEM_COORDINATE_TYPE>
1
3

$$$$
