310947531
  -OEChem-07211613022D

 11 11  0     1  0  0  0  0  0999 V2000
    2.3061   -1.1039    0.0000 F   0  0  0  0  0  0  0  0  0  0  0  0
    3.1311    0.8801    0.0000 O   0  0  0  0  0  0  0  0  0  0  0  0
    4.5130    0.8077    0.0000 O   0  0  0  0  0  0  0  0  0  0  0  0
    3.9561   -1.1039    0.0000 O   0  0  0  0  0  0  0  0  0  0  0  0
    3.5436   -0.3894    0.0000 C   0  0  3  0  0  0  0  0  0  0  0  0
    2.7186   -0.3894    0.0000 C   0  0  3  0  0  0  0  0  0  0  0  0
    3.7986    0.3952    0.0000 C   0  0  3  0  0  0  0  0  0  0  0  0
    2.4637    0.3952    0.0000 C   0  0  3  0  0  0  0  0  0  0  0  0
    2.0512    1.1096    0.0000 C   0  0  0  0  0  0  0  0  0  0  0  0
    5.2275    0.3952    0.0000 C   0  0  0  0  0  0  0  0  0  0  0  0
    1.2262    1.1096    0.0000 C   0  0  0  0  0  0  0  0  0  0  0  0
  6  1  1  6  0  0  0
  2  7  1  0  0  0  0
  2  8  1  0  0  0  0
  7  3  1  1  0  0  0
  3 10  1  0  0  0  0
  5  4  1  6  0  0  0
  5  6  1  0  0  0  0
  5  7  1  0  0  0  0
  6  8  1  0  0  0  0
  8  9  1  1  0  0  0
  9 11  1  0  0  0  0
M  END
> <PUBCHEM_COMPOUND_ID_TYPE>
0

> <PUBCHEM_TOTAL_CHARGE>
0

> <PUBCHEM_SUBSTANCE_ID>
310947531

> <PUBCHEM_SUBSTANCE_VERSION>
1

> <PUBCHEM_EXT_DATASOURCE_NAME>
4488

> <PUBCHEM_EXT_DATASOURCE_REGID>
SCHEMBL16125694

> <PUBCHEM_SUBSTANCE_COMMENT>
InChI=1S/C7H13FO3/c1-3-4-5(8)6(9)7(10-2)11-4/h4-7,9H,3H2,1-2H3/t4-,5-,6-,7-/m1/s1
InChIKey=JEMSNMCQHYHPPA-DBRKOABJSA-N

> <PUBCHEM_SUBSTANCE_SYNONYM>
SCHEMBL16125694

> <PUBCHEM_XREF_EXT_ID>
SCHEMBL16125694

> <PUBCHEM_EXT_DATASOURCE_URL>
https://www.surechembl.org/

> <PUBCHEM_EXT_SUBSTANCE_URL>
https://www.surechembl.org/chemical/SCHEMBL16125694

> <PUBCHEM_CID_ASSOCIATIONS>
117613253  1

> <PUBCHEM_COORDINATE_TYPE>
1
3

> <PUBCHEM_BONDANNOTATIONS>
6  1  6
7  3  5
5  4  6
8  9  5

$$$$
