310932688
  -OEChem-07211613022D

 27 30  0     0  0  0  0  0  0999 V2000
    3.6633    1.9817    0.0000 O   0  0  0  0  0  0  0  0  0  0  0  0
    1.8366   -1.3283    0.0000 O   0  0  0  0  0  0  0  0  0  0  0  0
    3.1956   -1.7698    0.0000 O   0  0  0  0  0  0  0  0  0  0  0  0
    1.9339    1.5105    0.0000 N   0  0  0  0  0  0  0  0  0  0  0  0
    3.9604    0.5840    0.0000 N   0  0  0  0  0  0  0  0  0  0  0  0
    3.7054   -0.2006    0.0000 N   0  0  0  0  0  0  0  0  0  0  0  0
    2.3464    0.2410    0.0000 C   0  0  0  0  0  0  0  0  0  0  0  0
    2.6014    1.0256    0.0000 C   0  0  0  0  0  0  0  0  0  0  0  0
    1.5214    0.2410    0.0000 C   0  0  0  0  0  0  0  0  0  0  0  0
    1.2665    1.0256    0.0000 C   0  0  0  0  0  0  0  0  0  0  0  0
    2.8985   -0.3721    0.0000 C   0  0  0  0  0  0  0  0  0  0  0  0
    3.4084    1.1971    0.0000 C   0  0  0  0  0  0  0  0  0  0  0  0
    2.6435   -1.1567    0.0000 C   0  0  0  0  0  0  0  0  0  0  0  0
    4.7674    0.7556    0.0000 C   0  0  0  0  0  0  0  0  0  0  0  0
    0.9694   -0.3721    0.0000 C   0  0  0  0  0  0  0  0  0  0  0  0
    0.4595    1.1971    0.0000 C   0  0  0  0  0  0  0  0  0  0  0  0
    1.9339    2.3355    0.0000 C   0  0  0  0  0  0  0  0  0  0  0  0
    0.1624   -0.2006    0.0000 C   0  0  0  0  0  0  0  0  0  0  0  0
   -0.0925    0.5840    0.0000 C   0  0  0  0  0  0  0  0  0  0  0  0
    5.0223    1.5402    0.0000 C   0  0  0  0  0  0  0  0  0  0  0  0
    5.3194    0.1425    0.0000 C   0  0  0  0  0  0  0  0  0  0  0  0
    5.8293    1.7117    0.0000 C   0  0  0  0  0  0  0  0  0  0  0  0
    6.1264    0.3140    0.0000 C   0  0  0  0  0  0  0  0  0  0  0  0
    6.3813    1.0986    0.0000 C   0  0  0  0  0  0  0  0  0  0  0  0
    1.5816   -2.1129    0.0000 C   0  0  0  0  0  0  0  0  0  0  0  0
    7.1883    1.2701    0.0000 C   0  0  0  0  0  0  0  0  0  0  0  0
    0.7747   -2.2844    0.0000 C   0  0  0  0  0  0  0  0  0  0  0  0
  1 12  2  0  0  0  0
  2 13  1  0  0  0  0
  2 25  1  0  0  0  0
  3 13  2  0  0  0  0
  4  8  1  0  0  0  0
  4 10  1  0  0  0  0
  4 17  1  0  0  0  0
  5  6  1  0  0  0  0
  5 12  1  0  0  0  0
  5 14  1  0  0  0  0
  6 11  2  0  0  0  0
  7  8  2  0  0  0  0
  7  9  1  0  0  0  0
  7 11  1  0  0  0  0
  8 12  1  0  0  0  0
  9 10  1  0  0  0  0
  9 15  2  0  0  0  0
 10 16  2  0  0  0  0
 11 13  1  0  0  0  0
 14 20  2  0  0  0  0
 14 21  1  0  0  0  0
 15 18  1  0  0  0  0
 16 19  1  0  0  0  0
 18 19  2  0  0  0  0
 20 22  1  0  0  0  0
 21 23  2  0  0  0  0
 22 24  2  0  0  0  0
 23 24  1  0  0  0  0
 24 26  1  0  0  0  0
 25 27  1  0  0  0  0
M  END
> <PUBCHEM_COMPOUND_ID_TYPE>
0

> <PUBCHEM_TOTAL_CHARGE>
0

> <PUBCHEM_SUBSTANCE_ID>
310932688

> <PUBCHEM_SUBSTANCE_VERSION>
1

> <PUBCHEM_EXT_DATASOURCE_NAME>
4488

> <PUBCHEM_EXT_DATASOURCE_REGID>
SCHEMBL16110069

> <PUBCHEM_SUBSTANCE_COMMENT>
InChI=1S/C21H19N3O3/c1-4-27-21(26)18-17-15-7-5-6-8-16(15)23(3)19(17)20(25)24(22-18)14-11-9-13(2)10-12-14/h5-12H,4H2,1-3H3
InChIKey=XSRPXHCZHJMVFL-UHFFFAOYSA-N

> <PUBCHEM_SUBSTANCE_SYNONYM>
SCHEMBL16110069

> <PUBCHEM_XREF_EXT_ID>
SCHEMBL16110069

> <PUBCHEM_EXT_DATASOURCE_URL>
https://www.surechembl.org/

> <PUBCHEM_EXT_SUBSTANCE_URL>
https://www.surechembl.org/chemical/SCHEMBL16110069

> <PUBCHEM_CID_ASSOCIATIONS>
117601200  1

> <PUBCHEM_COORDINATE_TYPE>
1
3

$$$$
