310942510
  -OEChem-07211613022D

 85 91  0     1  0  0  0  0  0999 V2000
    0.7249    2.3300    0.0000 F   0  0  0  0  0  0  0  0  0  0  0  0
    7.2143    0.4315    0.0000 F   0  0  0  0  0  0  0  0  0  0  0  0
    0.7249   -1.0010    0.0000 F   0  0  0  0  0  0  0  0  0  0  0  0
    3.1067    6.0925    0.0000 F   0  0  0  0  0  0  0  0  0  0  0  0
    3.2448    0.5695    0.0000 O   0  0  0  0  0  0  0  0  0  0  0  0
    5.7473    3.7107    0.0000 O   0  0  0  0  0  0  0  0  0  0  0  0
    3.0377   -0.6559    0.0000 O   0  0  0  0  0  0  0  0  0  0  0  0
    6.2823   -2.6234    0.0000 O   0  0  0  0  0  0  0  0  0  0  0  0
    4.9017   -2.2955    0.0000 O   0  0  0  0  0  0  0  0  0  0  0  0
    0.7939    4.4183    0.0000 O   0  0  0  0  0  0  0  0  0  0  0  0
    2.5199   -3.0031    0.0000 O   0  0  0  0  0  0  0  0  0  0  0  0
   -0.0518   -4.5046    0.0000 O   0  0  0  0  0  0  0  0  0  0  0  0
   -7.1971   -2.7097    0.0000 O   0  0  0  0  0  0  0  0  0  0  0  0
   -5.1951   -0.5868    0.0000 O   0  0  0  0  0  0  0  0  0  0  0  0
   -1.6569   -2.0021    0.0000 O   0  0  0  0  0  0  0  0  0  0  0  0
   -0.8284   -4.6945    0.0000 O   0  0  0  0  0  0  0  0  0  0  0  0
    3.0721    2.4853    0.0000 N   0  0  0  0  0  0  0  0  0  0  0  0
    4.6427    0.9320    0.0000 N   0  0  0  0  0  0  0  0  0  0  0  0
    2.9168    1.1564    0.0000 N   0  0  0  0  0  0  0  0  0  0  0  0
    5.8854   -1.2599    0.0000 N   0  0  0  0  0  0  0  0  0  0  0  0
    2.9341   -4.3666    0.0000 N   0  0  0  0  0  0  0  0  0  0  0  0
    0.9320   -3.4691    0.0000 N   0  0  0  0  0  0  0  0  0  0  0  0
   -6.0235   -1.8122    0.0000 N   0  0  0  0  0  0  0  0  0  0  0  0
   -1.2427   -3.3655    0.0000 N   0  0  0  0  0  0  0  0  0  0  0  0
   -0.4660   -6.0925    0.0000 N   0  0  0  0  0  0  0  0  0  0  0  0
   -1.8467   -5.7128    0.0000 N   0  0  0  0  0  0  0  0  0  0  0  0
    3.4691    1.7950    0.0000 C   0  0  0  0  0  0  0  0  0  0  0  0
    4.2975    1.6914    0.0000 C   0  0  3  0  0  0  0  0  0  0  0  0
    2.1574    1.5188    0.0000 C   0  0  0  0  0  0  0  0  0  0  0  0
    4.7808    2.3818    0.0000 C   0  0  0  0  0  0  0  0  0  0  0  0
    2.2610    2.3300    0.0000 C   0  0  0  0  0  0  0  0  0  0  0  0
    1.4498    1.1046    0.0000 C   0  0  0  0  0  0  0  0  0  0  0  0
    4.0559    0.3452    0.0000 C   0  0  0  0  0  0  0  0  0  0  0  0
    5.4539    0.8457    0.0000 C   0  0  0  0  0  0  0  0  0  0  0  0
    3.4001    3.2620    0.0000 C   0  0  0  0  0  0  0  0  0  0  0  0
    5.7818    0.0863    0.0000 C   0  0  3  0  0  0  0  0  0  0  0  0
    0.7249    1.5015    0.0000 C   0  0  0  0  0  0  0  0  0  0  0  0
    2.9168    3.9178    0.0000 C   0  0  0  0  0  0  0  0  0  0  0  0
    4.4529    3.1067    0.0000 C   0  0  0  0  0  0  0  0  0  0  0  0
    5.6093    2.2782    0.0000 C   0  0  0  0  0  0  0  0  0  0  0  0
    1.4325    0.2589    0.0000 C   0  0  0  0  0  0  0  0  0  0  0  0
    6.5757   -0.1036    0.0000 C   0  0  3  0  0  0  0  0  0  0  0  0
    3.8316   -0.4488    0.0000 C   0  0  3  0  0  0  0  0  0  0  0  0
    5.3503   -0.6386    0.0000 C   0  0  0  0  0  0  0  0  0  0  0  0
    0.7249   -0.1553    0.0000 C   0  0  0  0  0  0  0  0  0  0  0  0
    6.6448   -0.9147    0.0000 C   0  0  0  0  0  0  0  0  0  0  0  0
    0.0173    1.0873    0.0000 C   0  0  0  0  0  0  0  0  0  0  0  0
    4.9361    3.7970    0.0000 C   0  0  0  0  0  0  0  0  0  0  0  0
    6.0925    2.9686    0.0000 C   0  0  0  0  0  0  0  0  0  0  0  0
    2.1057    3.8488    0.0000 C   0  0  0  0  0  0  0  0  0  0  0  0
    3.2448    4.6773    0.0000 C   0  0  0  0  0  0  0  0  0  0  0  0
    0.0173    0.2589    0.0000 C   0  0  0  0  0  0  0  0  0  0  0  0
    5.6956   -2.0366    0.0000 C   0  0  0  0  0  0  0  0  0  0  0  0
    2.7615    5.3503    0.0000 C   0  0  0  0  0  0  0  0  0  0  0  0
    1.6051    4.5219    0.0000 C   0  0  0  0  0  0  0  0  0  0  0  0
    4.4183   -1.0183    0.0000 C   0  0  0  0  0  0  0  0  0  0  0  0
    1.9503    5.2468    0.0000 C   0  0  0  0  0  0  0  0  0  0  0  0
    6.0925   -3.4173    0.0000 C   0  0  0  0  0  0  0  0  0  0  0  0
    5.2986   -3.6590    0.0000 C   0  0  0  0  0  0  0  0  0  0  0  0
    4.7117   -3.1067    0.0000 C   0  0  0  0  0  0  0  0  0  0  0  0
    5.1088   -4.4529    0.0000 C   0  0  0  0  0  0  0  0  0  0  0  0
    3.6935   -4.1250    0.0000 C   0  0  0  0  0  0  0  0  0  0  0  0
    3.9178   -3.3311    0.0000 C   0  0  0  0  0  0  0  0  0  0  0  0
    4.3148   -4.6773    0.0000 C   0  0  0  0  0  0  0  0  0  0  0  0
    2.2955   -3.8143    0.0000 C   0  0  0  0  0  0  0  0  0  0  0  0
    1.5361   -4.0387    0.0000 C   0  0  3  0  0  0  0  0  0  0  0  0
    0.1553   -3.6762    0.0000 C   0  0  0  0  0  0  0  0  0  0  0  0
   -0.4832   -3.1239    0.0000 C   0  0  3  0  0  0  0  0  0  0  0  0
   -6.8347   -1.9157    0.0000 C   0  0  0  0  0  0  0  0  0  0  0  0
   -5.9372   -1.0010    0.0000 C   0  0  0  0  0  0  0  0  0  0  0  0
    1.3635   -4.8153    0.0000 C   0  0  0  0  0  0  0  0  0  0  0  0
   -0.2589   -2.2955    0.0000 C   0  0  0  0  0  0  0  0  0  0  0  0
   -7.2143   -1.2427    0.0000 C   0  0  0  0  0  0  0  0  0  0  0  0
   -6.6621   -0.6386    0.0000 C   0  0  0  0  0  0  0  0  0  0  0  0
   -5.4022   -2.3645    0.0000 C   0  0  0  0  0  0  0  0  0  0  0  0
   -1.8640   -2.8133    0.0000 C   0  0  0  0  0  0  0  0  0  0  0  0
    0.5696   -5.0570    0.0000 C   0  0  0  0  0  0  0  0  0  0  0  0
   -4.6255   -2.1401    0.0000 C   0  0  0  0  0  0  0  0  0  0  0  0
   -2.6234   -3.0377    0.0000 C   0  0  0  0  0  0  0  0  0  0  0  0
   -0.8630   -1.7950    0.0000 C   0  0  0  0  0  0  0  0  0  0  0  0
    0.5351   -2.1057    0.0000 C   0  0  0  0  0  0  0  0  0  0  0  0
   -3.9869   -2.6924    0.0000 C   0  0  0  0  0  0  0  0  0  0  0  0
   -3.2448   -2.4681    0.0000 C   0  0  0  0  0  0  0  0  0  0  0  0
    0.3279   -5.8681    0.0000 C   0  0  0  0  0  0  0  0  0  0  0  0
   -1.0701   -5.5057    0.0000 C   0  0  0  0  0  0  0  0  0  0  0  0
  1 37  1  0  0  0  0
 42  2  1  1  0  0  0
  3 45  1  0  0  0  0
  4 54  1  0  0  0  0
  5 33  2  0  0  0  0
  6 48  1  0  0  0  0
  6 49  1  0  0  0  0
 43  7  1  6  0  0  0
  8 53  1  0  0  0  0
  8 58  1  0  0  0  0
  9 53  2  0  0  0  0
 10 55  1  0  0  0  0
 11 65  2  0  0  0  0
 12 67  2  0  0  0  0
 13 69  2  0  0  0  0
 14 70  2  0  0  0  0
 15 76  2  0  0  0  0
 16 85  2  0  0  0  0
 17 27  1  0  0  0  0
 17 31  1  0  0  0  0
 17 35  1  0  0  0  0
 28 18  1  1  0  0  0
 18 33  1  0  0  0  0
 18 34  1  0  0  0  0
 19 27  2  0  0  0  0
 19 29  1  0  0  0  0
 20 44  1  0  0  0  0
 20 46  1  0  0  0  0
 20 53  1  0  0  0  0
 21 62  1  0  0  0  0
 21 65  1  0  0  0  0
 66 22  1  6  0  0  0
 22 67  1  0  0  0  0
 23 69  1  0  0  0  0
 23 70  1  0  0  0  0
 23 75  1  0  0  0  0
 68 24  1  1  0  0  0
 24 76  1  0  0  0  0
 25 84  1  0  0  0  0
 25 85  1  0  0  0  0
 26 85  1  0  0  0  0
 27 28  1  0  0  0  0
 28 30  1  0  0  0  0
 29 31  2  0  0  0  0
 29 32  1  0  0  0  0
 30 39  1  0  0  0  0
 30 40  1  0  0  0  0
 32 37  2  0  0  0  0
 32 41  1  0  0  0  0
 33 43  1  0  0  0  0
 36 34  1  1  0  0  0
 35 38  1  0  0  0  0
 36 42  1  0  0  0  0
 36 44  1  0  0  0  0
 37 47  1  0  0  0  0
 38 50  2  0  0  0  0
 38 51  1  0  0  0  0
 39 48  1  0  0  0  0
 40 49  1  0  0  0  0
 41 45  2  0  0  0  0
 42 46  1  0  0  0  0
 43 56  1  0  0  0  0
 45 52  1  0  0  0  0
 47 52  2  0  0  0  0
 50 55  1  0  0  0  0
 51 54  2  0  0  0  0
 54 57  1  0  0  0  0
 55 57  2  0  0  0  0
 58 59  1  0  0  0  0
 59 60  2  0  0  0  0
 59 61  1  0  0  0  0
 60 63  1  0  0  0  0
 61 64  2  0  0  0  0
 62 63  2  0  0  0  0
 62 64  1  0  0  0  0
 65 66  1  0  0  0  0
 66 71  1  0  0  0  0
 67 68  1  0  0  0  0
 68 72  1  0  0  0  0
 69 73  1  0  0  0  0
 70 74  1  0  0  0  0
 71 77  1  0  0  0  0
 72 80  1  0  0  0  0
 72 81  1  0  0  0  0
 73 74  2  0  0  0  0
 75 78  1  0  0  0  0
 76 79  1  0  0  0  0
 77 84  1  0  0  0  0
 78 82  1  0  0  0  0
 79 83  1  0  0  0  0
 82 83  1  0  0  0  0
M  END
> <PUBCHEM_COMPOUND_ID_TYPE>
0

> <PUBCHEM_TOTAL_CHARGE>
0

> <PUBCHEM_SUBSTANCE_ID>
310942510

> <PUBCHEM_SUBSTANCE_VERSION>
1

> <PUBCHEM_EXT_DATASOURCE_NAME>
4488

> <PUBCHEM_EXT_DATASOURCE_REGID>
SCHEMBL16120546

> <PUBCHEM_SUBSTANCE_COMMENT>
InChI=1S/C59H72F4N10O12/c1-34(2)52(69-49(76)9-5-4-6-21-72-50(77)16-17-51(72)78)56(80)68-47(8-7-20-65-58(64)82)55(79)66-42-13-10-36(11-14-42)33-85-59(83)71-29-39(46(63)31-71)30-73(57(81)35(3)74)53(38-18-22-84-23-19-38)54-67-48(44-27-40(60)12-15-45(44)62)32-70(54)28-37-24-41(61)26-43(75)25-37/h10-17,24-27,32,34-35,38-39,46-47,52-53,74-75H,4-9,18-23,28-31,33H2,1-3H3,(H,66,79)(H,68,80)(H,69,76)(H3,64,65,82)/t35-,39-,46-,47-,52-,53+/m0/s1
InChIKey=OVQUJDMFCNGKFT-UZPZTCAASA-N

> <PUBCHEM_SUBSTANCE_SYNONYM>
SCHEMBL16120546

> <PUBCHEM_XREF_EXT_ID>
SCHEMBL16120546

> <PUBCHEM_EXT_DATASOURCE_URL>
https://www.surechembl.org/

> <PUBCHEM_EXT_SUBSTANCE_URL>
https://www.surechembl.org/chemical/SCHEMBL16120546

> <PUBCHEM_CID_ASSOCIATIONS>
117609077  1

> <PUBCHEM_COORDINATE_TYPE>
1
3

> <PUBCHEM_BONDANNOTATIONS>
28  18  5
42  2  5
66  22  6
68  24  5
36  34  5
43  7  6

$$$$
