310942745
  -OEChem-07211613022D

 64 70  0     1  0  0  0  0  0999 V2000
   -2.8828    1.9810    0.0000 F   0  0  0  0  0  0  0  0  0  0  0  0
    3.6072    0.8427    0.0000 F   0  0  0  0  0  0  0  0  0  0  0  0
   -2.8828   -1.3306    0.0000 F   0  0  0  0  0  0  0  0  0  0  0  0
   -0.1330   -0.0148    0.0000 O   0  0  0  0  0  0  0  0  0  0  0  0
    1.8332   -1.1384    0.0000 O   0  0  0  0  0  0  0  0  0  0  0  0
    1.9515    3.5777    0.0000 O   0  0  0  0  0  0  0  0  0  0  0  0
    3.8586   -2.3950    0.0000 O   0  0  0  0  0  0  0  0  0  0  0  0
    2.4245   -2.4985    0.0000 O   0  0  0  0  0  0  0  0  0  0  0  0
   -1.0349   -1.9663    0.0000 O   0  0  0  0  0  0  0  0  0  0  0  0
   -1.7593   -3.2081    0.0000 O   0  0  0  0  0  0  0  0  0  0  0  0
   -3.3855   -5.0118    0.0000 O   0  0  0  0  0  0  0  0  0  0  0  0
   -4.8491   -2.4837    0.0000 O   0  0  0  0  0  0  0  0  0  0  0  0
    1.1088    0.7096    0.0000 N   0  0  0  0  0  0  0  0  0  0  0  0
   -0.5470    2.1436    0.0000 N   0  0  0  0  0  0  0  0  0  0  0  0
   -0.6949    0.8131    0.0000 N   0  0  0  0  0  0  0  0  0  0  0  0
    2.9715   -1.1975    0.0000 N   0  0  0  0  0  0  0  0  0  0  0  0
    0.3844   -1.9663    0.0000 N   0  0  0  0  0  0  0  0  0  0  0  0
   -3.9177   -3.6221    0.0000 N   0  0  0  0  0  0  0  0  0  0  0  0
    0.6949    1.4193    0.0000 C   0  0  3  0  0  0  0  0  0  0  0  0
   -0.1478    1.4488    0.0000 C   0  0  0  0  0  0  0  0  0  0  0  0
   -1.4636    1.1531    0.0000 C   0  0  0  0  0  0  0  0  0  0  0  0
    1.1088    2.1585    0.0000 C   0  0  0  0  0  0  0  0  0  0  0  0
   -1.3601    1.9810    0.0000 C   0  0  0  0  0  0  0  0  0  0  0  0
    0.6949    0.0148    0.0000 C   0  0  0  0  0  0  0  0  0  0  0  0
   -2.1733    0.7392    0.0000 C   0  0  0  0  0  0  0  0  0  0  0  0
    1.9515    0.7096    0.0000 C   0  0  0  0  0  0  0  0  0  0  0  0
    2.3655    0.0000    0.0000 C   0  0  3  0  0  0  0  0  0  0  0  0
    1.1088   -0.7096    0.0000 C   0  0  3  0  0  0  0  0  0  0  0  0
   -0.1478    2.8977    0.0000 C   0  0  0  0  0  0  0  0  0  0  0  0
   -2.8828    1.1531    0.0000 C   0  0  0  0  0  0  0  0  0  0  0  0
    3.1785    0.1183    0.0000 C   0  0  3  0  0  0  0  0  0  0  0  0
    0.6949    2.8680    0.0000 C   0  0  0  0  0  0  0  0  0  0  0  0
    1.9367    2.1436    0.0000 C   0  0  0  0  0  0  0  0  0  0  0  0
   -2.1733   -0.0887    0.0000 C   0  0  0  0  0  0  0  0  0  0  0  0
    2.2471   -0.7835    0.0000 C   0  0  0  0  0  0  0  0  0  0  0  0
   -0.5470    3.5777    0.0000 C   0  0  0  0  0  0  0  0  0  0  0  0
    3.5481   -0.6209    0.0000 C   0  0  0  0  0  0  0  0  0  0  0  0
    0.3992   -1.1384    0.0000 C   0  0  0  0  0  0  0  0  0  0  0  0
   -2.8828   -0.5027    0.0000 C   0  0  0  0  0  0  0  0  0  0  0  0
   -3.6072    0.7244    0.0000 C   0  0  0  0  0  0  0  0  0  0  0  0
    3.0750   -2.0254    0.0000 C   0  0  0  0  0  0  0  0  0  0  0  0
    1.1088    3.5777    0.0000 C   0  0  0  0  0  0  0  0  0  0  0  0
    2.3506    2.8828    0.0000 C   0  0  0  0  0  0  0  0  0  0  0  0
   -3.6072   -0.0887    0.0000 C   0  0  0  0  0  0  0  0  0  0  0  0
    1.8184   -1.9810    0.0000 C   0  0  0  0  0  0  0  0  0  0  0  0
   -1.3897    3.5925    0.0000 C   0  0  0  0  0  0  0  0  0  0  0  0
   -0.1478    4.3169    0.0000 C   0  0  0  0  0  0  0  0  0  0  0  0
    1.1236   -2.3802    0.0000 C   0  0  0  0  0  0  0  0  0  0  0  0
   -0.3105   -2.3802    0.0000 C   0  0  0  0  0  0  0  0  0  0  0  0
    4.5534   -1.9367    0.0000 C   0  0  0  0  0  0  0  0  0  0  0  0
   -1.7741    4.3021    0.0000 C   0  0  0  0  0  0  0  0  0  0  0  0
   -0.5470    5.0118    0.0000 C   0  0  0  0  0  0  0  0  0  0  0  0
   -1.3749    5.0118    0.0000 C   0  0  0  0  0  0  0  0  0  0  0  0
   -0.3400   -3.2229    0.0000 C   0  0  0  0  0  0  0  0  0  0  0  0
    5.0265   -2.5280    0.0000 C   0  0  0  0  0  0  0  0  0  0  0  0
    4.1099   -1.3010    0.0000 C   0  0  0  0  0  0  0  0  0  0  0  0
    5.2187   -1.4488    0.0000 C   0  0  0  0  0  0  0  0  0  0  0  0
   -1.0201   -3.6221    0.0000 C   0  0  0  0  0  0  0  0  0  0  0  0
   -4.0360   -4.4204    0.0000 C   0  0  0  0  0  0  0  0  0  0  0  0
   -4.6717   -3.2968    0.0000 C   0  0  0  0  0  0  0  0  0  0  0  0
   -3.2081   -3.2081    0.0000 C   0  0  0  0  0  0  0  0  0  0  0  0
   -4.8196   -4.5978    0.0000 C   0  0  0  0  0  0  0  0  0  0  0  0
   -5.2187   -3.9177    0.0000 C   0  0  0  0  0  0  0  0  0  0  0  0
   -2.4541   -3.6221    0.0000 C   0  0  0  0  0  0  0  0  0  0  0  0
  1 30  1  0  0  0  0
 31  2  1  1  0  0  0
  3 39  1  0  0  0  0
  4 24  2  0  0  0  0
  5 28  1  0  0  0  0
  5 45  1  0  0  0  0
  6 42  1  0  0  0  0
  6 43  1  0  0  0  0
  7 41  1  0  0  0  0
  7 50  1  0  0  0  0
  8 41  2  0  0  0  0
  9 49  2  0  0  0  0
 10 58  1  0  0  0  0
 10 64  1  0  0  0  0
 11 59  2  0  0  0  0
 12 60  2  0  0  0  0
 19 13  1  1  0  0  0
 13 24  1  0  0  0  0
 13 26  1  0  0  0  0
 14 20  1  0  0  0  0
 14 23  1  0  0  0  0
 14 29  1  0  0  0  0
 15 20  2  0  0  0  0
 15 21  1  0  0  0  0
 16 35  1  0  0  0  0
 16 37  1  0  0  0  0
 16 41  1  0  0  0  0
 17 38  1  0  0  0  0
 17 48  1  0  0  0  0
 17 49  1  0  0  0  0
 18 59  1  0  0  0  0
 18 60  1  0  0  0  0
 18 61  1  0  0  0  0
 19 20  1  0  0  0  0
 19 22  1  0  0  0  0
 21 23  2  0  0  0  0
 21 25  1  0  0  0  0
 22 32  1  0  0  0  0
 22 33  1  0  0  0  0
 28 24  1  1  0  0  0
 25 30  1  0  0  0  0
 25 34  2  0  0  0  0
 27 26  1  1  0  0  0
 27 31  1  0  0  0  0
 27 35  1  0  0  0  0
 28 38  1  0  0  0  0
 29 36  1  0  0  0  0
 30 40  2  0  0  0  0
 31 37  1  0  0  0  0
 32 42  1  0  0  0  0
 33 43  1  0  0  0  0
 34 39  1  0  0  0  0
 36 46  2  0  0  0  0
 36 47  1  0  0  0  0
 39 44  2  0  0  0  0
 40 44  1  0  0  0  0
 45 48  1  0  0  0  0
 46 51  1  0  0  0  0
 47 52  2  0  0  0  0
 49 54  1  0  0  0  0
 50 55  1  0  0  0  0
 50 56  1  0  0  0  0
 50 57  1  0  0  0  0
 51 53  2  0  0  0  0
 52 53  1  0  0  0  0
 54 58  1  0  0  0  0
 59 62  1  0  0  0  0
 60 63  1  0  0  0  0
 61 64  1  0  0  0  0
 62 63  2  0  0  0  0
M  END
> <PUBCHEM_COMPOUND_ID_TYPE>
0

> <PUBCHEM_TOTAL_CHARGE>
0

> <PUBCHEM_SUBSTANCE_ID>
310942745

> <PUBCHEM_SUBSTANCE_VERSION>
1

> <PUBCHEM_EXT_DATASOURCE_NAME>
4488

> <PUBCHEM_EXT_DATASOURCE_REGID>
SCHEMBL16120797

> <PUBCHEM_SUBSTANCE_COMMENT>
InChI=1S/C46H55F3N6O9/c1-46(2,3)64-45(60)53-25-32(36(49)27-53)26-55(44(59)38-29-51(16-22-63-38)39(56)15-20-62-21-17-54-40(57)11-12-41(54)58)42(31-13-18-61-19-14-31)43-50-37(34-23-33(47)9-10-35(34)48)28-52(43)24-30-7-5-4-6-8-30/h4-12,23,28,31-32,36,38,42H,13-22,24-27,29H2,1-3H3/t32-,36-,38-,42+/m0/s1
InChIKey=SYHUXNHWYRKUTJ-CPDUFRQCSA-N

> <PUBCHEM_SUBSTANCE_SYNONYM>
SCHEMBL16120797

> <PUBCHEM_XREF_EXT_ID>
SCHEMBL16120797

> <PUBCHEM_EXT_DATASOURCE_URL>
https://www.surechembl.org/

> <PUBCHEM_EXT_SUBSTANCE_URL>
https://www.surechembl.org/chemical/SCHEMBL16120797

> <PUBCHEM_CID_ASSOCIATIONS>
117609265  1

> <PUBCHEM_COORDINATE_TYPE>
1
3

> <PUBCHEM_BONDANNOTATIONS>
19  13  5
31  2  5
28  24  5
27  26  5

$$$$
