310929855
  -OEChem-07211613022D

 72 78  0     0  0  0  0  0  0999 V2000
    0.0000    1.5851    0.0000 O   0  0  0  0  0  0  0  0  0  0  0  0
   -6.5279   -5.6013    0.0000 O   0  0  0  0  0  0  0  0  0  0  0  0
   -3.1084   -0.3273    0.0000 O   0  0  0  0  0  0  0  0  0  0  0  0
   -6.5094   -1.9783    0.0000 O   0  0  0  0  0  0  0  0  0  0  0  0
   -2.7412    1.2813    0.0000 O   0  0  0  0  0  0  0  0  0  0  0  0
   -5.3427   -3.1451    0.0000 O   0  0  0  0  0  0  0  0  0  0  0  0
   -8.7857    3.3291    0.0000 O   0  0  0  0  0  0  0  0  0  0  0  0
  -11.1763    2.6886    0.0000 O   0  0  0  0  0  0  0  0  0  0  0  0
  -13.1399    3.6417    0.0000 O   0  0  0  0  0  0  0  0  0  0  0  0
  -15.3171    3.7981    0.0000 O   0  0  0  0  0  0  0  0  0  0  0  0
  -17.2807    4.7513    0.0000 O   0  0  0  0  0  0  0  0  0  0  0  0
  -19.8277    6.2879    0.0000 O   0  0  0  0  0  0  0  0  0  0  0  0
    0.7433    0.4021    0.0000 N   0  0  0  0  0  0  0  0  0  0  0  0
   -7.9409   -5.6277    0.0000 N   0  0  0  0  0  0  0  0  0  0  0  0
   -0.4125   -1.0472    0.0000 N   0  0  0  0  0  0  0  0  0  0  0  0
   -8.5532   -3.8780    0.0000 N   0  0  0  0  0  0  0  0  0  0  0  0
   -8.4158    1.9489    0.0000 N   0  0  0  0  0  0  0  0  0  0  0  0
  -19.4579    4.9076    0.0000 N   0  0  0  0  0  0  0  0  0  0  0  0
  -22.2184    5.6472    0.0000 N   0  0  0  0  0  0  0  0  0  0  0  0
   -0.7433    0.4021    0.0000 C   0  0  0  0  0  0  0  0  0  0  0  0
   -7.1500   -4.3690    0.0000 C   0  0  0  0  0  0  0  0  0  0  0  0
    0.0000    0.7601    0.0000 C   0  0  0  0  0  0  0  0  0  0  0  0
   -7.2424   -5.1888    0.0000 C   0  0  0  0  0  0  0  0  0  0  0  0
   -0.9269   -0.4021    0.0000 C   0  0  0  0  0  0  0  0  0  0  0  0
   -7.7334   -3.7856    0.0000 C   0  0  0  0  0  0  0  0  0  0  0  0
    0.9269   -0.4021    0.0000 C   0  0  0  0  0  0  0  0  0  0  0  0
   -8.7196   -5.3552    0.0000 C   0  0  0  0  0  0  0  0  0  0  0  0
   -1.3480    0.9633    0.0000 C   0  0  0  0  0  0  0  0  0  0  0  0
   -6.3531   -4.1555    0.0000 C   0  0  0  0  0  0  0  0  0  0  0  0
   -2.3200   -0.0842    0.0000 C   0  0  0  0  0  0  0  0  0  0  0  0
   -6.7229   -2.7752    0.0000 C   0  0  0  0  0  0  0  0  0  0  0  0
   -2.1364    0.7201    0.0000 C   0  0  0  0  0  0  0  0  0  0  0  0
   -6.1396   -3.3586    0.0000 C   0  0  0  0  0  0  0  0  0  0  0  0
   -1.7152   -0.6453    0.0000 C   0  0  0  0  0  0  0  0  0  0  0  0
   -7.5198   -2.9887    0.0000 C   0  0  0  0  0  0  0  0  0  0  0  0
    1.4515    0.8253    0.0000 C   0  0  0  0  0  0  0  0  0  0  0  0
   -7.9594   -6.4526    0.0000 C   0  0  0  0  0  0  0  0  0  0  0  0
    0.4125   -1.0472    0.0000 C   0  0  0  0  0  0  0  0  0  0  0  0
   -8.9921   -4.5766    0.0000 C   0  0  0  0  0  0  0  0  0  0  0  0
    1.7485   -0.4761    0.0000 C   0  0  0  0  0  0  0  0  0  0  0  0
   -9.2194   -6.0117    0.0000 C   0  0  0  0  0  0  0  0  0  0  0  0
    2.0728    0.2825    0.0000 C   0  0  0  0  0  0  0  0  0  0  0  0
   -8.7496   -6.6898    0.0000 C   0  0  0  0  0  0  0  0  0  0  0  0
   -4.4886    0.0425    0.0000 C   0  0  0  0  0  0  0  0  0  0  0  0
   -5.4990   -0.9680    0.0000 C   0  0  0  0  0  0  0  0  0  0  0  0
   -3.6917    0.2560    0.0000 C   0  0  0  0  0  0  0  0  0  0  0  0
   -5.7125   -1.7649    0.0000 C   0  0  0  0  0  0  0  0  0  0  0  0
    2.8771    0.4661    0.0000 C   0  0  0  0  0  0  0  0  0  0  0  0
   -9.0221   -7.4685    0.0000 C   0  0  0  0  0  0  0  0  0  0  0  0
   -4.7021   -0.7544    0.0000 C   0  0  0  0  0  0  0  0  0  0  0  0
   -5.8689    0.4123    0.0000 C   0  0  0  0  0  0  0  0  0  0  0  0
   -5.0720    0.6258    0.0000 C   0  0  0  0  0  0  0  0  0  0  0  0
   -6.0824   -0.3846    0.0000 C   0  0  0  0  0  0  0  0  0  0  0  0
   -3.5295    1.0381    0.0000 C   0  0  0  0  0  0  0  0  0  0  0  0
   -4.7593   -3.7285    0.0000 C   0  0  0  0  0  0  0  0  0  0  0  0
   -6.4522    0.9957    0.0000 C   0  0  0  0  0  0  0  0  0  0  0  0
   -7.0356    1.5790    0.0000 C   0  0  0  0  0  0  0  0  0  0  0  0
   -7.6189    2.1624    0.0000 C   0  0  0  0  0  0  0  0  0  0  0  0
   -8.9992    2.5322    0.0000 C   0  0  0  0  0  0  0  0  0  0  0  0
   -9.7960    2.3187    0.0000 C   0  0  0  0  0  0  0  0  0  0  0  0
  -10.3794    2.9021    0.0000 C   0  0  0  0  0  0  0  0  0  0  0  0
  -11.7597    3.2719    0.0000 C   0  0  0  0  0  0  0  0  0  0  0  0
  -12.5566    3.0584    0.0000 C   0  0  0  0  0  0  0  0  0  0  0  0
  -13.9368    3.4282    0.0000 C   0  0  0  0  0  0  0  0  0  0  0  0
  -14.5202    4.0116    0.0000 C   0  0  0  0  0  0  0  0  0  0  0  0
  -20.0412    5.4910    0.0000 C   0  0  0  0  0  0  0  0  0  0  0  0
  -18.6610    5.1211    0.0000 C   0  0  0  0  0  0  0  0  0  0  0  0
  -20.8381    5.2774    0.0000 C   0  0  0  0  0  0  0  0  0  0  0  0
  -15.9005    4.3814    0.0000 C   0  0  0  0  0  0  0  0  0  0  0  0
  -18.0776    4.5377    0.0000 C   0  0  0  0  0  0  0  0  0  0  0  0
  -16.6973    4.1679    0.0000 C   0  0  0  0  0  0  0  0  0  0  0  0
  -21.4215    5.8608    0.0000 C   0  0  0  0  0  0  0  0  0  0  0  0
  1 22  2  0  0  0  0
  2 23  2  0  0  0  0
  3 30  1  0  0  0  0
  3 46  1  0  0  0  0
  4 31  1  0  0  0  0
  4 47  1  0  0  0  0
  5 32  1  0  0  0  0
  5 54  1  0  0  0  0
  6 33  1  0  0  0  0
  6 55  1  0  0  0  0
  7 59  2  0  0  0  0
  8 61  1  0  0  0  0
  8 62  1  0  0  0  0
  9 63  1  0  0  0  0
  9 64  1  0  0  0  0
 10 65  1  0  0  0  0
 10 69  1  0  0  0  0
 11 70  1  0  0  0  0
 11 71  1  0  0  0  0
 12 66  2  0  0  0  0
 13 22  1  0  0  0  0
 13 26  1  0  0  0  0
 13 36  1  0  0  0  0
 14 23  1  0  0  0  0
 14 27  1  0  0  0  0
 14 37  1  0  0  0  0
 15 24  1  0  0  0  0
 15 38  1  0  0  0  0
 16 25  1  0  0  0  0
 16 39  1  0  0  0  0
 17 58  1  0  0  0  0
 17 59  1  0  0  0  0
 18 66  1  0  0  0  0
 18 67  1  0  0  0  0
 19 72  1  0  0  0  0
 20 22  1  0  0  0  0
 20 24  1  0  0  0  0
 20 28  2  0  0  0  0
 21 23  1  0  0  0  0
 21 25  1  0  0  0  0
 21 29  2  0  0  0  0
 24 34  2  0  0  0  0
 25 35  2  0  0  0  0
 26 38  2  0  0  0  0
 26 40  1  0  0  0  0
 27 39  2  0  0  0  0
 27 41  1  0  0  0  0
 28 32  1  0  0  0  0
 29 33  1  0  0  0  0
 30 32  2  0  0  0  0
 30 34  1  0  0  0  0
 31 33  2  0  0  0  0
 31 35  1  0  0  0  0
 36 42  1  0  0  0  0
 37 43  1  0  0  0  0
 40 42  1  0  0  0  0
 41 43  1  0  0  0  0
 42 48  2  0  0  0  0
 43 49  2  0  0  0  0
 44 46  1  0  0  0  0
 44 50  2  0  0  0  0
 44 52  1  0  0  0  0
 45 47  1  0  0  0  0
 45 50  1  0  0  0  0
 45 53  2  0  0  0  0
 51 52  2  0  0  0  0
 51 53  1  0  0  0  0
 51 56  1  0  0  0  0
 56 57  3  0  0  0  0
 57 58  1  0  0  0  0
 59 60  1  0  0  0  0
 60 61  1  0  0  0  0
 62 63  1  0  0  0  0
 64 65  1  0  0  0  0
 66 68  1  0  0  0  0
 67 70  1  0  0  0  0
 68 72  1  0  0  0  0
 69 71  1  0  0  0  0
M  END
> <PUBCHEM_COMPOUND_ID_TYPE>
0

> <PUBCHEM_TOTAL_CHARGE>
0

> <PUBCHEM_SUBSTANCE_ID>
310929855

> <PUBCHEM_SUBSTANCE_VERSION>
1

> <PUBCHEM_EXT_DATASOURCE_NAME>
4488

> <PUBCHEM_EXT_DATASOURCE_REGID>
SCHEMBL16107068

> <PUBCHEM_SUBSTANCE_COMMENT>
InChI=1S/C53H63N7O12/c1-35-20-40-29-57-44-27-48(46(65-3)25-42(44)52(63)59(40)31-35)71-33-38-22-37(6-5-10-55-51(62)8-12-67-14-16-69-18-19-70-17-15-68-13-11-56-50(61)7-9-54)23-39(24-38)34-72-49-28-45-43(26-47(49)66-4)53(64)60-32-36(2)21-41(60)30-58-45/h22-30,57-58H,1-2,7-21,31-34,54H2,3-4H3,(H,55,62)(H,56,61)
InChIKey=GLNSXPLPKBFXRU-UHFFFAOYSA-N

> <PUBCHEM_SUBSTANCE_SYNONYM>
SCHEMBL16107068

> <PUBCHEM_XREF_EXT_ID>
SCHEMBL16107068

> <PUBCHEM_EXT_DATASOURCE_URL>
https://www.surechembl.org/

> <PUBCHEM_EXT_SUBSTANCE_URL>
https://www.surechembl.org/chemical/SCHEMBL16107068

> <PUBCHEM_CID_ASSOCIATIONS>
117599126  1

> <PUBCHEM_COORDINATE_TYPE>
1
3

$$$$
