310936353
  -OEChem-07211613022D

 14 15  0     0  0  0  0  0  0999 V2000
    4.1086    0.0000    0.0000 Br  0  0  0  0  0  0  0  0  0  0  0  0
    0.4125   -0.7425    0.0000 O   0  0  0  0  0  0  0  0  0  0  0  0
    4.9501   -1.4520    0.0000 N   0  0  0  0  0  0  0  0  0  0  0  0
    2.9041   -0.7425    0.0000 C   0  0  0  0  0  0  0  0  0  0  0  0
    2.4916   -1.4520    0.0000 C   0  0  0  0  0  0  0  0  0  0  0  0
    3.7126   -0.7260    0.0000 C   0  0  0  0  0  0  0  0  0  0  0  0
    4.1251   -1.4520    0.0000 C   0  0  0  0  0  0  0  0  0  0  0  0
    1.6665   -1.4520    0.0000 C   0  0  0  0  0  0  0  0  0  0  0  0
    2.4750   -0.0165    0.0000 C   0  0  0  0  0  0  0  0  0  0  0  0
    2.8875   -2.1615    0.0000 C   0  0  0  0  0  0  0  0  0  0  0  0
    1.2375   -0.7260    0.0000 C   0  0  0  0  0  0  0  0  0  0  0  0
    3.7126   -2.1615    0.0000 C   0  0  0  0  0  0  0  0  0  0  0  0
    1.6501   -0.0165    0.0000 C   0  0  0  0  0  0  0  0  0  0  0  0
    0.0000   -1.4686    0.0000 C   0  0  0  0  0  0  0  0  0  0  0  0
  1  6  1  0  0  0  0
  2 11  1  0  0  0  0
  2 14  1  0  0  0  0
  3  7  1  0  0  0  0
  4  5  2  0  0  0  0
  4  6  1  0  0  0  0
  4  9  1  0  0  0  0
  5  8  1  0  0  0  0
  5 10  1  0  0  0  0
  6  7  2  0  0  0  0
  7 12  1  0  0  0  0
  8 11  2  0  0  0  0
  9 13  2  0  0  0  0
 10 12  2  0  0  0  0
 11 13  1  0  0  0  0
M  END
> <PUBCHEM_COMPOUND_ID_TYPE>
0

> <PUBCHEM_TOTAL_CHARGE>
0

> <PUBCHEM_SUBSTANCE_ID>
310936353

> <PUBCHEM_SUBSTANCE_VERSION>
1

> <PUBCHEM_EXT_DATASOURCE_NAME>
4488

> <PUBCHEM_EXT_DATASOURCE_REGID>
SCHEMBL16113987

> <PUBCHEM_SUBSTANCE_COMMENT>
InChI=1S/C11H10BrNO/c1-14-8-3-4-9-7(6-8)2-5-10(13)11(9)12/h2-6H,13H2,1H3
InChIKey=ZEUFYHKGBRXOGW-UHFFFAOYSA-N

> <PUBCHEM_SUBSTANCE_SYNONYM>
SCHEMBL16113987

> <PUBCHEM_XREF_EXT_ID>
SCHEMBL16113987

> <PUBCHEM_EXT_DATASOURCE_URL>
https://www.surechembl.org/

> <PUBCHEM_EXT_SUBSTANCE_URL>
https://www.surechembl.org/chemical/SCHEMBL16113987

> <PUBCHEM_CID_ASSOCIATIONS>
117604294  1

> <PUBCHEM_COORDINATE_TYPE>
1
3

$$$$
