310943261
  -OEChem-07211613022D

 35 38  0     0  0  0  0  0  0999 V2000
    4.3193   -2.0471    0.0000 F   0  0  0  0  0  0  0  0  0  0  0  0
    3.5208   -2.8602    0.0000 F   0  0  0  0  0  0  0  0  0  0  0  0
    2.7222   -2.0471    0.0000 F   0  0  0  0  0  0  0  0  0  0  0  0
   -2.8965    0.0000    0.0000 O   0  0  0  0  0  0  0  0  0  0  0  0
    1.3720    0.0000    0.0000 O   0  0  0  0  0  0  0  0  0  0  0  0
   -4.3193    2.4536    0.0000 O   0  0  0  0  0  0  0  0  0  0  0  0
   -2.8965    1.6406    0.0000 N   0  0  0  0  0  0  0  0  0  0  0  0
   -1.4736    0.0000    0.0000 N   0  0  0  0  0  0  0  0  0  0  0  0
    2.0834    1.2341    0.0000 N   0  0  0  0  0  0  0  0  0  0  0  0
    0.6606    2.8602    0.0000 N   0  0  0  0  0  0  0  0  0  0  0  0
    4.2176   -0.8130    0.0000 N   0  0  0  0  0  0  0  0  0  0  0  0
   -0.7477    1.2486    0.0000 C   0  0  0  0  0  0  0  0  0  0  0  0
   -0.0654    1.6406    0.0000 C   0  0  0  0  0  0  0  0  0  0  0  0
   -2.1705    1.2486    0.0000 C   0  0  0  0  0  0  0  0  0  0  0  0
   -2.1995    0.4065    0.0000 C   0  0  0  0  0  0  0  0  0  0  0  0
   -1.4736    1.6406    0.0000 C   0  0  0  0  0  0  0  0  0  0  0  0
   -0.0508    2.4681    0.0000 C   0  0  0  0  0  0  0  0  0  0  0  0
    1.3574    1.6406    0.0000 C   0  0  0  0  0  0  0  0  0  0  0  0
    0.6606    1.2341    0.0000 C   0  0  0  0  0  0  0  0  0  0  0  0
   -0.7622    0.4065    0.0000 C   0  0  0  0  0  0  0  0  0  0  0  0
    2.7948    0.0145    0.0000 C   0  0  0  0  0  0  0  0  0  0  0  0
    3.5063   -1.2050    0.0000 C   0  0  0  0  0  0  0  0  0  0  0  0
    2.0979    0.4210    0.0000 C   0  0  0  0  0  0  0  0  0  0  0  0
    3.5063   -2.0471    0.0000 C   0  0  0  0  0  0  0  0  0  0  0  0
    1.3720    2.4536    0.0000 C   0  0  0  0  0  0  0  0  0  0  0  0
    2.7948   -0.8130    0.0000 C   0  0  0  0  0  0  0  0  0  0  0  0
   -2.8965    2.4536    0.0000 C   0  0  0  0  0  0  0  0  0  0  0  0
   -3.5788    1.2486    0.0000 C   0  0  0  0  0  0  0  0  0  0  0  0
    3.4772    0.4065    0.0000 C   0  0  0  0  0  0  0  0  0  0  0  0
    4.2176    0.0000    0.0000 C   0  0  0  0  0  0  0  0  0  0  0  0
   -0.7767    2.8602    0.0000 C   0  0  0  0  0  0  0  0  0  0  0  0
   -3.6224    2.8602    0.0000 C   0  0  0  0  0  0  0  0  0  0  0  0
   -4.3047    1.6406    0.0000 C   0  0  0  0  0  0  0  0  0  0  0  0
   -3.5934    0.4210    0.0000 C   0  0  0  0  0  0  0  0  0  0  0  0
   -4.3047   -0.0145    0.0000 C   0  0  0  0  0  0  0  0  0  0  0  0
  1 24  1  0  0  0  0
  2 24  1  0  0  0  0
  3 24  1  0  0  0  0
  4 15  1  0  0  0  0
  4 34  1  0  0  0  0
  5 23  2  0  0  0  0
  6 32  1  0  0  0  0
  6 33  1  0  0  0  0
  7 14  1  0  0  0  0
  7 27  1  0  0  0  0
  7 28  1  0  0  0  0
  8 15  2  0  0  0  0
  8 20  1  0  0  0  0
  9 18  1  0  0  0  0
  9 23  1  0  0  0  0
 10 17  1  0  0  0  0
 10 25  2  0  0  0  0
 11 22  2  0  0  0  0
 11 30  1  0  0  0  0
 12 13  1  0  0  0  0
 12 16  1  0  0  0  0
 12 20  2  0  0  0  0
 13 17  2  0  0  0  0
 13 19  1  0  0  0  0
 14 15  1  0  0  0  0
 14 16  2  0  0  0  0
 17 31  1  0  0  0  0
 18 19  2  0  0  0  0
 18 25  1  0  0  0  0
 21 23  1  0  0  0  0
 21 26  2  0  0  0  0
 21 29  1  0  0  0  0
 22 24  1  0  0  0  0
 22 26  1  0  0  0  0
 27 32  1  0  0  0  0
 28 33  1  0  0  0  0
 29 30  2  0  0  0  0
 34 35  1  0  0  0  0
M  END
> <PUBCHEM_COMPOUND_ID_TYPE>
0

> <PUBCHEM_TOTAL_CHARGE>
0

> <PUBCHEM_SUBSTANCE_ID>
310943261

> <PUBCHEM_SUBSTANCE_VERSION>
1

> <PUBCHEM_EXT_DATASOURCE_NAME>
4488

> <PUBCHEM_EXT_DATASOURCE_REGID>
SCHEMBL16121323

> <PUBCHEM_SUBSTANCE_COMMENT>
InChI=1S/C24H24F3N5O3/c1-3-35-23-20(32-6-8-34-9-7-32)10-17(13-30-23)19-12-18(14-29-15(19)2)31-22(33)16-4-5-28-21(11-16)24(25,26)27/h4-5,10-14H,3,6-9H2,1-2H3,(H,31,33)
InChIKey=GQDKSXFQIIYQAD-UHFFFAOYSA-N

> <PUBCHEM_SUBSTANCE_SYNONYM>
SCHEMBL16121323

> <PUBCHEM_XREF_EXT_ID>
SCHEMBL16121323

> <PUBCHEM_EXT_DATASOURCE_URL>
https://www.surechembl.org/

> <PUBCHEM_EXT_SUBSTANCE_URL>
https://www.surechembl.org/chemical/SCHEMBL16121323

> <PUBCHEM_CID_ASSOCIATIONS>
117609686  1

> <PUBCHEM_COORDINATE_TYPE>
1
3

$$$$
