310942705
  -OEChem-07211613022D

 57 62  0     1  0  0  0  0  0999 V2000
   -5.5891    3.0007    0.0000 F   0  0  0  0  0  0  0  0  0  0  0  0
   -5.5891   -0.3158    0.0000 F   0  0  0  0  0  0  0  0  0  0  0  0
   -2.8340    0.8774    0.0000 O   0  0  0  0  0  0  0  0  0  0  0  0
   -0.2369    4.0712    0.0000 O   0  0  0  0  0  0  0  0  0  0  0  0
    1.4302    0.7896    0.0000 O   0  0  0  0  0  0  0  0  0  0  0  0
   -1.9917   -0.5615    0.0000 O   0  0  0  0  0  0  0  0  0  0  0  0
    2.8515    0.7896    0.0000 O   0  0  0  0  0  0  0  0  0  0  0  0
    4.4660   -5.9664    0.0000 O   0  0  0  0  0  0  0  0  0  0  0  0
    5.9225   -3.4394    0.0000 O   0  0  0  0  0  0  0  0  0  0  0  0
    4.2906   -1.6846    0.0000 O   0  0  0  0  0  0  0  0  0  0  0  0
   -3.1675    3.0709    0.0000 N   0  0  0  0  0  0  0  0  0  0  0  0
   -1.5881    1.5969    0.0000 N   0  0  0  0  0  0  0  0  0  0  0  0
   -3.4482    1.7549    0.0000 N   0  0  0  0  0  0  0  0  0  0  0  0
    1.4653    2.9305    0.0000 N   0  0  0  0  0  0  0  0  0  0  0  0
    2.1497   -0.4387    0.0000 N   0  0  0  0  0  0  0  0  0  0  0  0
    4.9924   -4.5801    0.0000 N   0  0  0  0  0  0  0  0  0  0  0  0
    3.5711   -2.9305    0.0000 N   0  0  0  0  0  0  0  0  0  0  0  0
   -2.8340    2.3339    0.0000 C   0  0  0  0  0  0  0  0  0  0  0  0
   -2.0093    2.3163    0.0000 C   0  0  3  0  0  0  0  0  0  0  0  0
   -4.1677    2.1760    0.0000 C   0  0  0  0  0  0  0  0  0  0  0  0
   -1.4126    2.9305    0.0000 C   0  0  0  0  0  0  0  0  0  0  0  0
   -3.9746    2.9832    0.0000 C   0  0  0  0  0  0  0  0  0  0  0  0
   -4.8696    1.7724    0.0000 C   0  0  0  0  0  0  0  0  0  0  0  0
   -1.9917    0.8774    0.0000 C   0  0  0  0  0  0  0  0  0  0  0  0
   -0.3246    1.6144    0.0000 C   0  0  0  0  0  0  0  0  0  0  0  0
   -2.7463    4.0185    0.0000 C   0  0  0  0  0  0  0  0  0  0  0  0
   -5.6066    2.1760    0.0000 C   0  0  0  0  0  0  0  0  0  0  0  0
    0.4826    2.0005    0.0000 C   0  0  3  0  0  0  0  0  0  0  0  0
   -1.6232    3.7027    0.0000 C   0  0  0  0  0  0  0  0  0  0  0  0
   -0.6054    2.6849    0.0000 C   0  0  0  0  0  0  0  0  0  0  0  0
   -4.8871    0.9300    0.0000 C   0  0  0  0  0  0  0  0  0  0  0  0
   -3.3429    4.5976    0.0000 C   0  0  0  0  0  0  0  0  0  0  0  0
   -1.5881    0.1755    0.0000 C   0  0  3  0  0  0  0  0  0  0  0  0
    1.2196    1.5969    0.0000 C   0  0  3  0  0  0  0  0  0  0  0  0
   -5.5891    0.5264    0.0000 C   0  0  0  0  0  0  0  0  0  0  0  0
   -6.2910    1.7549    0.0000 C   0  0  0  0  0  0  0  0  0  0  0  0
    0.6405    2.8077    0.0000 C   0  0  0  0  0  0  0  0  0  0  0  0
   -1.0441    4.2818    0.0000 C   0  0  0  0  0  0  0  0  0  0  0  0
   -0.0263    3.2815    0.0000 C   0  0  0  0  0  0  0  0  0  0  0  0
   -6.3086    0.9300    0.0000 C   0  0  0  0  0  0  0  0  0  0  0  0
    1.8162    2.1760    0.0000 C   0  0  0  0  0  0  0  0  0  0  0  0
   -3.1148    5.4048    0.0000 C   0  0  0  0  0  0  0  0  0  0  0  0
   -4.1326    4.4046    0.0000 C   0  0  0  0  0  0  0  0  0  0  0  0
   -0.7809    0.1580    0.0000 C   0  0  0  0  0  0  0  0  0  0  0  0
    2.1321    0.3860    0.0000 C   0  0  0  0  0  0  0  0  0  0  0  0
   -3.6939    5.9664    0.0000 C   0  0  0  0  0  0  0  0  0  0  0  0
   -4.6942    4.9661    0.0000 C   0  0  0  0  0  0  0  0  0  0  0  0
   -4.4835    5.7734    0.0000 C   0  0  0  0  0  0  0  0  0  0  0  0
    5.0977   -5.3873    0.0000 C   0  0  0  0  0  0  0  0  0  0  0  0
    5.7295   -4.2642    0.0000 C   0  0  0  0  0  0  0  0  0  0  0  0
    5.9049   -5.5803    0.0000 C   0  0  0  0  0  0  0  0  0  0  0  0
    6.3086   -4.8608    0.0000 C   0  0  0  0  0  0  0  0  0  0  0  0
    2.8691   -0.8774    0.0000 C   0  0  0  0  0  0  0  0  0  0  0  0
    4.2906   -4.1765    0.0000 C   0  0  0  0  0  0  0  0  0  0  0  0
    2.8515   -1.6846    0.0000 C   0  0  0  0  0  0  0  0  0  0  0  0
    4.2906   -3.3517    0.0000 C   0  0  0  0  0  0  0  0  0  0  0  0
    3.5535   -2.1058    0.0000 C   0  0  0  0  0  0  0  0  0  0  0  0
  1 27  1  0  0  0  0
  2 35  1  0  0  0  0
  3 24  2  0  0  0  0
  4 38  1  0  0  0  0
  4 39  1  0  0  0  0
 34  5  1  1  0  0  0
  5 45  1  0  0  0  0
 33  6  1  6  0  0  0
  7 45  2  0  0  0  0
  8 49  2  0  0  0  0
  9 50  2  0  0  0  0
 10 57  2  0  0  0  0
 11 18  1  0  0  0  0
 11 22  1  0  0  0  0
 11 26  1  0  0  0  0
 19 12  1  1  0  0  0
 12 24  1  0  0  0  0
 12 25  1  0  0  0  0
 13 18  2  0  0  0  0
 13 20  1  0  0  0  0
 14 37  1  0  0  0  0
 14 41  1  0  0  0  0
 15 45  1  0  0  0  0
 15 53  1  0  0  0  0
 16 49  1  0  0  0  0
 16 50  1  0  0  0  0
 16 54  1  0  0  0  0
 17 56  1  0  0  0  0
 17 57  1  0  0  0  0
 18 19  1  0  0  0  0
 19 21  1  0  0  0  0
 20 22  2  0  0  0  0
 20 23  1  0  0  0  0
 21 29  1  0  0  0  0
 21 30  1  0  0  0  0
 23 27  2  0  0  0  0
 23 31  1  0  0  0  0
 24 33  1  0  0  0  0
 28 25  1  6  0  0  0
 26 32  1  0  0  0  0
 27 36  1  0  0  0  0
 28 34  1  0  0  0  0
 28 37  1  0  0  0  0
 29 38  1  0  0  0  0
 30 39  1  0  0  0  0
 31 35  2  0  0  0  0
 32 42  2  0  0  0  0
 32 43  1  0  0  0  0
 33 44  1  0  0  0  0
 34 41  1  0  0  0  0
 35 40  1  0  0  0  0
 36 40  2  0  0  0  0
 42 46  1  0  0  0  0
 43 47  2  0  0  0  0
 46 48  2  0  0  0  0
 47 48  1  0  0  0  0
 49 51  1  0  0  0  0
 50 52  1  0  0  0  0
 51 52  2  0  0  0  0
 53 55  1  0  0  0  0
 54 56  1  0  0  0  0
 55 57  1  0  0  0  0
M  END
> <PUBCHEM_COMPOUND_ID_TYPE>
0

> <PUBCHEM_TOTAL_CHARGE>
0

> <PUBCHEM_SUBSTANCE_ID>
310942705

> <PUBCHEM_SUBSTANCE_VERSION>
1

> <PUBCHEM_EXT_DATASOURCE_NAME>
4488

> <PUBCHEM_EXT_DATASOURCE_REGID>
SCHEMBL16120751

> <PUBCHEM_SUBSTANCE_COMMENT>
InChI=1S/C40H47F2N7O8/c1-25(50)39(54)49(23-28-20-43-21-33(28)57-40(55)45-14-11-34(51)44-15-16-48-35(52)9-10-36(48)53)37(27-12-17-56-18-13-27)38-46-32(30-19-29(41)7-8-31(30)42)24-47(38)22-26-5-3-2-4-6-26/h2-10,19,24-25,27-28,33,37,43,50H,11-18,20-23H2,1H3,(H,44,51)(H,45,55)/t25-,28-,33+,37+/m0/s1
InChIKey=VZDBQEHVIMSZOK-PJKLJGAKSA-N

> <PUBCHEM_SUBSTANCE_SYNONYM>
SCHEMBL16120751

> <PUBCHEM_XREF_EXT_ID>
SCHEMBL16120751

> <PUBCHEM_EXT_DATASOURCE_URL>
https://www.surechembl.org/

> <PUBCHEM_EXT_SUBSTANCE_URL>
https://www.surechembl.org/chemical/SCHEMBL16120751

> <PUBCHEM_CID_ASSOCIATIONS>
117609231  1

> <PUBCHEM_COORDINATE_TYPE>
1
3

> <PUBCHEM_BONDANNOTATIONS>
19  12  5
28  25  6
34  5  5
33  6  6

$$$$
