310945414
  -OEChem-07211613022D

 31 34  0     1  0  0  0  0  0999 V2000
    0.9476   -1.2459    0.0000 O   0  0  0  0  0  0  0  0  0  0  0  0
   -0.1053   -1.8953    0.0000 O   0  0  0  0  0  0  0  0  0  0  0  0
   -4.4223   -1.9655    0.0000 O   0  0  0  0  0  0  0  0  0  0  0  0
    2.0708    0.4914    0.0000 O   0  0  0  0  0  0  0  0  0  0  0  0
    3.6502    0.9476    0.0000 O   0  0  0  0  0  0  0  0  0  0  0  0
    3.2290    2.3516    0.0000 O   0  0  0  0  0  0  0  0  0  0  0  0
   -0.1580    0.6493    0.0000 C   0  0  3  0  0  0  0  0  0  0  0  0
   -0.1053   -0.1930    0.0000 C   0  0  3  0  0  0  0  0  0  0  0  0
   -0.8423   -0.5967    0.0000 C   0  0  3  0  0  0  0  0  0  0  0  0
   -1.5618   -0.2282    0.0000 C   0  0  3  0  0  0  0  0  0  0  0  0
   -2.2988   -0.6318    0.0000 C   0  0  3  0  0  0  0  0  0  0  0  0
    0.6318    0.8950    0.0000 C   0  0  3  0  0  0  0  0  0  0  0  0
    0.6493   -0.4387    0.0000 C   0  0  3  0  0  0  0  0  0  0  0  0
   -2.2638   -1.5092    0.0000 C   0  0  3  0  0  0  0  0  0  0  0  0
   -0.8248   -1.4566    0.0000 C   0  0  3  0  0  0  0  0  0  0  0  0
   -0.8950    1.0353    0.0000 C   0  0  0  0  0  0  0  0  0  0  0  0
   -1.5618    0.6143    0.0000 C   0  0  0  0  0  0  0  0  0  0  0  0
    1.1055    0.2106    0.0000 C   0  0  0  0  0  0  0  0  0  0  0  0
   -1.5443   -1.8778    0.0000 C   0  0  0  0  0  0  0  0  0  0  0  0
    0.8599    1.6320    0.0000 C   0  0  3  0  0  0  0  0  0  0  0  0
   -2.9833   -0.2457    0.0000 C   0  0  0  0  0  0  0  0  0  0  0  0
   -0.1755    1.4566    0.0000 C   0  0  0  0  0  0  0  0  0  0  0  0
   -2.9833   -1.8953    0.0000 C   0  0  0  0  0  0  0  0  0  0  0  0
   -2.2988    0.1580    0.0000 C   0  0  0  0  0  0  0  0  0  0  0  0
   -3.7028   -1.4917    0.0000 C   0  0  3  0  0  0  0  0  0  0  0  0
   -3.7379   -0.6845    0.0000 C   0  0  0  0  0  0  0  0  0  0  0  0
    1.6496    1.8602    0.0000 C   0  0  0  0  0  0  0  0  0  0  0  0
    0.2633    2.2286    0.0000 C   0  0  0  0  0  0  0  0  0  0  0  0
    2.2462    1.3513    0.0000 C   0  0  3  0  0  0  0  0  0  0  0  0
    3.0185    1.5443    0.0000 C   0  0  0  0  0  0  0  0  0  0  0  0
    4.4223    1.1757    0.0000 C   0  0  0  0  0  0  0  0  0  0  0  0
 13  1  1  6  0  0  0
 15  2  1  6  0  0  0
 25  3  1  6  0  0  0
  4 29  1  0  0  0  0
  5 30  1  0  0  0  0
  5 31  1  0  0  0  0
  6 30  2  0  0  0  0
  8  7  1  1  0  0  0
  7 12  1  0  0  0  0
  7 16  1  0  0  0  0
  7 22  1  0  0  0  0
  8  9  1  0  0  0  0
  8 13  1  0  0  0  0
  9 10  1  0  0  0  0
  9 15  1  0  0  0  0
 10 11  1  0  0  0  0
 10 17  1  0  0  0  0
 11 14  1  0  0  0  0
 11 21  1  0  0  0  0
 11 24  1  0  0  0  0
 12 18  1  0  0  0  0
 12 20  1  0  0  0  0
 13 18  1  0  0  0  0
 14 19  1  0  0  0  0
 14 23  1  0  0  0  0
 15 19  1  0  0  0  0
 16 17  1  0  0  0  0
 20 27  1  0  0  0  0
 20 28  1  6  0  0  0
 21 26  1  0  0  0  0
 23 25  1  0  0  0  0
 25 26  1  0  0  0  0
 27 29  1  0  0  0  0
 29 30  1  0  0  0  0
M  END
> <PUBCHEM_COMPOUND_ID_TYPE>
0

> <PUBCHEM_TOTAL_CHARGE>
0

> <PUBCHEM_SUBSTANCE_ID>
310945414

> <PUBCHEM_SUBSTANCE_VERSION>
1

> <PUBCHEM_EXT_DATASOURCE_NAME>
4488

> <PUBCHEM_EXT_DATASOURCE_REGID>
SCHEMBL16123512

> <PUBCHEM_SUBSTANCE_COMMENT>
InChI=1S/C25H42O6/c1-13(9-20(29)23(30)31-4)17-12-19(28)22-21-16(6-8-25(17,22)3)24(2)7-5-15(26)10-14(24)11-18(21)27/h13-22,26-29H,5-12H2,1-4H3/t13-,14?,15-,16?,17?,18-,19+,20?,21?,22+,24?,25?/m1/s1
InChIKey=WLUBNRKQTSWMCX-XUXDOOCSSA-N

> <PUBCHEM_SUBSTANCE_SYNONYM>
SCHEMBL16123512

> <PUBCHEM_XREF_EXT_ID>
SCHEMBL16123512

> <PUBCHEM_EXT_DATASOURCE_URL>
https://www.surechembl.org/

> <PUBCHEM_EXT_SUBSTANCE_URL>
https://www.surechembl.org/chemical/SCHEMBL16123512

> <PUBCHEM_CID_ASSOCIATIONS>
117611460  1

> <PUBCHEM_COORDINATE_TYPE>
1
3

> <PUBCHEM_BONDANNOTATIONS>
13  1  6
15  2  6
20  28  6
25  3  6
8  7  5

$$$$
