310943805
  -OEChem-07211613022D

 32 36  0     1  0  0  0  0  0999 V2000
    2.5187    0.6229    0.0000 O   0  0  0  0  0  0  0  0  0  0  0  0
    5.5844    0.2221    0.0000 O   0  0  0  0  0  0  0  0  0  0  0  0
    5.5303    1.6846    0.0000 O   0  0  0  0  0  0  0  0  0  0  0  0
   -0.8937   -1.6846    0.0000 O   0  0  0  0  0  0  0  0  0  0  0  0
    3.4937   -0.5363    0.0000 N   0  0  0  0  0  0  0  0  0  0  0  0
    0.5254   -0.5363    0.0000 N   0  0  0  0  0  0  0  0  0  0  0  0
   -4.3170   -0.4171    0.0000 N   0  0  0  0  0  0  0  0  0  0  0  0
   -3.2771   -1.2404    0.0000 N   0  0  0  0  0  0  0  0  0  0  0  0
   -4.5987    0.3304    0.0000 N   0  0  0  0  0  0  0  0  0  0  0  0
   -5.3895    0.2763    0.0000 N   0  0  0  0  0  0  0  0  0  0  0  0
   -5.5844   -0.4929    0.0000 N   0  0  0  0  0  0  0  0  0  0  0  0
    2.1612   -0.8396    0.0000 C   0  0  0  0  0  0  0  0  0  0  0  0
    2.7137   -0.2112    0.0000 C   0  0  0  0  0  0  0  0  0  0  0  0
    4.2953   -0.0271    0.0000 C   0  0  0  0  0  0  0  0  0  0  0  0
    2.6162   -1.5654    0.0000 C   0  0  0  0  0  0  0  0  0  0  0  0
    3.4178   -1.3704    0.0000 C   0  0  0  0  0  0  0  0  0  0  0  0
    1.6195   -1.4787    0.0000 C   0  0  0  0  0  0  0  0  0  0  0  0
    1.8904   -0.0487    0.0000 C   0  0  0  0  0  0  0  0  0  0  0  0
    4.3928    0.7962    0.0000 C   0  0  0  0  0  0  0  0  0  0  0  0
    5.0320   -0.3738    0.0000 C   0  0  0  0  0  0  0  0  0  0  0  0
    5.1837    0.9262    0.0000 C   0  0  0  0  0  0  0  0  0  0  0  0
    0.7962   -1.3270    0.0000 C   0  0  0  0  0  0  0  0  0  0  0  0
    1.0670    0.1138    0.0000 C   0  0  0  0  0  0  0  0  0  0  0  0
   -0.5687   -0.3196    0.0000 C   0  0  0  0  0  0  0  0  0  0  0  0
   -1.1537   -0.8937    0.0000 C   0  0  3  0  0  0  0  0  0  0  0  0
    3.8078    1.3487    0.0000 C   0  0  0  0  0  0  0  0  0  0  0  0
   -2.0745   -0.7962    0.0000 C   0  0  0  0  0  0  0  0  0  0  0  0
   -3.5696   -0.5254    0.0000 C   0  0  0  0  0  0  0  0  0  0  0  0
   -2.5295   -1.3704    0.0000 C   0  0  0  0  0  0  0  0  0  0  0  0
   -2.3454   -0.1029    0.0000 C   0  0  0  0  0  0  0  0  0  0  0  0
   -3.1037    0.0487    0.0000 C   0  0  0  0  0  0  0  0  0  0  0  0
   -4.9128   -0.9045    0.0000 C   0  0  0  0  0  0  0  0  0  0  0  0
  1 13  2  0  0  0  0
  2 20  1  0  0  0  0
  2 21  1  0  0  0  0
  3 21  2  0  0  0  0
 25  4  1  6  0  0  0
  5 13  1  0  0  0  0
  5 14  1  0  0  0  0
  5 16  1  0  0  0  0
  6 22  1  0  0  0  0
  6 23  1  0  0  0  0
  6 24  1  0  0  0  0
  7  9  1  0  0  0  0
  7 28  1  0  0  0  0
  7 32  1  0  0  0  0
  8 28  1  0  0  0  0
  8 29  2  0  0  0  0
  9 10  2  0  0  0  0
 10 11  1  0  0  0  0
 11 32  2  0  0  0  0
 12 13  1  0  0  0  0
 12 15  1  0  0  0  0
 12 17  1  0  0  0  0
 12 18  1  0  0  0  0
 14 19  2  0  0  0  0
 14 20  1  0  0  0  0
 15 16  1  0  0  0  0
 17 22  1  0  0  0  0
 18 23  1  0  0  0  0
 19 21  1  0  0  0  0
 19 26  1  0  0  0  0
 24 25  1  0  0  0  0
 25 27  1  0  0  0  0
 27 29  1  0  0  0  0
 27 30  2  0  0  0  0
 28 31  2  0  0  0  0
 30 31  1  0  0  0  0
M  END
> <PUBCHEM_COMPOUND_ID_TYPE>
0

> <PUBCHEM_TOTAL_CHARGE>
0

> <PUBCHEM_SUBSTANCE_ID>
310943805

> <PUBCHEM_SUBSTANCE_VERSION>
1

> <PUBCHEM_EXT_DATASOURCE_NAME>
4488

> <PUBCHEM_EXT_DATASOURCE_REGID>
SCHEMBL16121876

> <PUBCHEM_SUBSTANCE_COMMENT>
InChI=1S/C21H25N7O4/c1-14-16(12-32-19(14)30)27-9-6-21(20(27)31)4-7-26(8-5-21)11-17(29)15-2-3-18(22-10-15)28-13-23-24-25-28/h2-3,10,13,17,29H,4-9,11-12H2,1H3/t17-/m0/s1
InChIKey=ALZWZLILADGSJO-KRWDZBQOSA-N

> <PUBCHEM_SUBSTANCE_SYNONYM>
SCHEMBL16121876

> <PUBCHEM_XREF_EXT_ID>
SCHEMBL16121876

> <PUBCHEM_EXT_DATASOURCE_URL>
https://www.surechembl.org/

> <PUBCHEM_EXT_SUBSTANCE_URL>
https://www.surechembl.org/chemical/SCHEMBL16121876

> <PUBCHEM_CID_ASSOCIATIONS>
117610158  1

> <PUBCHEM_COORDINATE_TYPE>
1
3

> <PUBCHEM_BONDANNOTATIONS>
25  4  6

$$$$
