310946346
  -OEChem-07211613022D

 29 31  0     0  0  0  0  0  0999 V2000
   -2.1434    5.2938    0.0000 I   0  0  0  0  0  0  0  0  0  0  0  0
   -0.7145    7.7688    0.0000 I   0  0  0  0  0  0  0  0  0  0  0  0
   -5.0013    6.9438    0.0000 I   0  0  0  0  0  0  0  0  0  0  0  0
   -2.1434    6.9438    0.0000 O   0  0  0  0  0  0  0  0  0  0  0  0
   -5.0013    5.2938    0.0000 O   0  0  0  0  0  0  0  0  0  0  0  0
    1.4289    6.5313    0.0000 O   0  0  0  0  0  0  0  0  0  0  0  0
    2.1434    5.2938    0.0000 N   0  0  0  0  0  0  0  0  0  0  0  0
   -1.4289    6.5313    0.0000 C   0  0  0  0  0  0  0  0  0  0  0  0
   -1.4289    5.7063    0.0000 C   0  0  0  0  0  0  0  0  0  0  0  0
   -0.7145    6.9438    0.0000 C   0  0  0  0  0  0  0  0  0  0  0  0
    0.0000    5.7063    0.0000 C   0  0  0  0  0  0  0  0  0  0  0  0
   -2.8579    6.5313    0.0000 C   0  0  0  0  0  0  0  0  0  0  0  0
   -0.7145    5.2938    0.0000 C   0  0  0  0  0  0  0  0  0  0  0  0
    0.0000    6.5313    0.0000 C   0  0  0  0  0  0  0  0  0  0  0  0
   -3.5724    6.9438    0.0000 C   0  0  0  0  0  0  0  0  0  0  0  0
    0.7145    5.2938    0.0000 C   0  0  0  0  0  0  0  0  0  0  0  0
   -4.2868    6.5313    0.0000 C   0  0  0  0  0  0  0  0  0  0  0  0
   -2.8579    5.7063    0.0000 C   0  0  0  0  0  0  0  0  0  0  0  0
   -4.2868    5.7063    0.0000 C   0  0  0  0  0  0  0  0  0  0  0  0
    1.4289    5.7063    0.0000 C   0  0  0  0  0  0  0  0  0  0  0  0
   -3.5724    5.2938    0.0000 C   0  0  0  0  0  0  0  0  0  0  0  0
    2.8579    5.7063    0.0000 C   0  0  0  0  0  0  0  0  0  0  0  0
    3.5724    5.2938    0.0000 C   0  0  0  0  0  0  0  0  0  0  0  0
    2.8579    6.5313    0.0000 C   0  0  0  0  0  0  0  0  0  0  0  0
    4.2868    6.5313    0.0000 C   0  0  0  0  0  0  0  0  0  0  0  0
    4.2868    5.7063    0.0000 C   0  0  0  0  0  0  0  0  0  0  0  0
    3.5724    6.9438    0.0000 C   0  0  0  0  0  0  0  0  0  0  0  0
    5.0013    6.9438    0.0000 C   0  0  0  0  0  0  0  0  0  0  0  0
    5.0013    7.7688    0.0000 C   0  0  0  0  0  0  0  0  0  0  0  0
  1  9  1  0  0  0  0
  2 10  1  0  0  0  0
  3 17  1  0  0  0  0
  4  8  1  0  0  0  0
  4 12  1  0  0  0  0
  5 19  1  0  0  0  0
  6 20  2  0  0  0  0
  7 20  1  0  0  0  0
  7 22  1  0  0  0  0
  8  9  2  0  0  0  0
  8 10  1  0  0  0  0
  9 13  1  0  0  0  0
 10 14  2  0  0  0  0
 11 13  2  0  0  0  0
 11 14  1  0  0  0  0
 11 16  1  0  0  0  0
 12 15  2  0  0  0  0
 12 18  1  0  0  0  0
 15 17  1  0  0  0  0
 16 20  1  0  0  0  0
 17 19  2  0  0  0  0
 18 21  2  0  0  0  0
 19 21  1  0  0  0  0
 22 23  2  0  0  0  0
 22 24  1  0  0  0  0
 23 26  1  0  0  0  0
 24 27  2  0  0  0  0
 25 26  2  0  0  0  0
 25 27  1  0  0  0  0
 25 28  1  0  0  0  0
 28 29  1  0  0  0  0
M  END
> <PUBCHEM_COMPOUND_ID_TYPE>
0

> <PUBCHEM_TOTAL_CHARGE>
0

> <PUBCHEM_SUBSTANCE_ID>
310946346

> <PUBCHEM_SUBSTANCE_VERSION>
1

> <PUBCHEM_EXT_DATASOURCE_NAME>
4488

> <PUBCHEM_EXT_DATASOURCE_REGID>
SCHEMBL16124465

> <PUBCHEM_SUBSTANCE_COMMENT>
InChI=1S/C22H18I3NO3/c1-2-13-3-5-15(6-4-13)26-21(28)11-14-9-18(24)22(19(25)10-14)29-16-7-8-20(27)17(23)12-16/h3-10,12,27H,2,11H2,1H3,(H,26,28)
InChIKey=JNIQTGKHFFCTEQ-UHFFFAOYSA-N

> <PUBCHEM_SUBSTANCE_SYNONYM>
SCHEMBL16124465

> <PUBCHEM_XREF_EXT_ID>
SCHEMBL16124465

> <PUBCHEM_EXT_DATASOURCE_URL>
https://www.surechembl.org/

> <PUBCHEM_EXT_SUBSTANCE_URL>
https://www.surechembl.org/chemical/SCHEMBL16124465

> <PUBCHEM_CID_ASSOCIATIONS>
117612269  1

> <PUBCHEM_COORDINATE_TYPE>
1
3

$$$$
