310942661
  -OEChem-07211613022D

 52 56  0     1  0  0  0  0  0999 V2000
   -3.5402   -0.6847    0.0000 F   0  0  0  0  0  0  0  0  0  0  0  0
    3.3566   -1.8703    0.0000 F   0  0  0  0  0  0  0  0  0  0  0  0
   -3.1896   -3.9911    0.0000 F   0  0  0  0  0  0  0  0  0  0  0  0
   -0.8851   -2.6051    0.0000 O   0  0  0  0  0  0  0  0  0  0  0  0
   -0.0501   -4.0413    0.0000 O   0  0  0  0  0  0  0  0  0  0  0  0
    2.5384    0.4843    0.0000 O   0  0  0  0  0  0  0  0  0  0  0  0
    3.5402   -0.5344    0.0000 O   0  0  0  0  0  0  0  0  0  0  0  0
    4.1248    3.3065    0.0000 O   0  0  0  0  0  0  0  0  0  0  0  0
    1.3193    2.5551    0.0000 O   0  0  0  0  0  0  0  0  0  0  0  0
   -1.2358   -0.2838    0.0000 N   0  0  0  0  0  0  0  0  0  0  0  0
    0.4843   -1.6699    0.0000 N   0  0  0  0  0  0  0  0  0  0  0  0
   -1.2525   -1.6365    0.0000 N   0  0  0  0  0  0  0  0  0  0  0  0
    2.2544   -3.7073    0.0000 N   0  0  0  0  0  0  0  0  0  0  0  0
    2.7888    2.7054    0.0000 N   0  0  0  0  0  0  0  0  0  0  0  0
    4.0246    0.8851    0.0000 N   0  0  0  0  0  0  0  0  0  0  0  0
    0.0668   -0.9519    0.0000 C   0  0  3  0  0  0  0  0  0  0  0  0
   -0.7681   -0.9352    0.0000 C   0  0  0  0  0  0  0  0  0  0  0  0
    0.4675   -0.2171    0.0000 C   0  0  0  0  0  0  0  0  0  0  0  0
   -2.0373   -1.3527    0.0000 C   0  0  0  0  0  0  0  0  0  0  0  0
   -2.0206   -0.5176    0.0000 C   0  0  0  0  0  0  0  0  0  0  0  0
   -2.7054   -1.8536    0.0000 C   0  0  0  0  0  0  0  0  0  0  0  0
   -0.0334   -2.6051    0.0000 C   0  0  0  0  0  0  0  0  0  0  0  0
    1.5530   -1.6867    0.0000 C   0  0  0  0  0  0  0  0  0  0  0  0
   -0.9853    0.5010    0.0000 C   0  0  0  0  0  0  0  0  0  0  0  0
    1.3026   -0.2338    0.0000 C   0  0  0  0  0  0  0  0  0  0  0  0
   -3.4735   -1.5030    0.0000 C   0  0  0  0  0  0  0  0  0  0  0  0
    1.9705   -2.3880    0.0000 C   0  0  3  0  0  0  0  0  0  0  0  0
   -0.2505    0.2004    0.0000 C   0  0  0  0  0  0  0  0  0  0  0  0
    0.4675    0.6178    0.0000 C   0  0  0  0  0  0  0  0  0  0  0  0
   -2.6219   -2.6720    0.0000 C   0  0  0  0  0  0  0  0  0  0  0  0
    0.3507   -3.3065    0.0000 C   0  0  3  0  0  0  0  0  0  0  0  0
   -1.5530    1.1189    0.0000 C   0  0  0  0  0  0  0  0  0  0  0  0
    2.7888   -2.4882    0.0000 C   0  0  3  0  0  0  0  0  0  0  0  0
   -3.2898   -3.1562    0.0000 C   0  0  0  0  0  0  0  0  0  0  0  0
   -4.1248   -2.0039    0.0000 C   0  0  0  0  0  0  0  0  0  0  0  0
    1.7200    0.4843    0.0000 C   0  0  0  0  0  0  0  0  0  0  0  0
    1.6533   -3.1395    0.0000 C   0  0  0  0  0  0  0  0  0  0  0  0
   -4.0413   -2.8223    0.0000 C   0  0  0  0  0  0  0  0  0  0  0  0
   -1.2859    1.9204    0.0000 C   0  0  0  0  0  0  0  0  0  0  0  0
   -2.3546    0.9686    0.0000 C   0  0  0  0  0  0  0  0  0  0  0  0
    2.9558   -3.2898    0.0000 C   0  0  0  0  0  0  0  0  0  0  0  0
    1.1523   -3.3065    0.0000 C   0  0  0  0  0  0  0  0  0  0  0  0
   -1.8202    2.5217    0.0000 C   0  0  0  0  0  0  0  0  0  0  0  0
   -2.8891    1.5698    0.0000 C   0  0  0  0  0  0  0  0  0  0  0  0
    3.3399    0.2672    0.0000 C   0  0  0  0  0  0  0  0  0  0  0  0
   -2.6385    2.3546    0.0000 C   0  0  0  0  0  0  0  0  0  0  0  0
    2.0206    3.0226    0.0000 C   0  0  0  0  0  0  0  0  0  0  0  0
    3.2898    3.3733    0.0000 C   0  0  0  0  0  0  0  0  0  0  0  0
    3.0059    1.9037    0.0000 C   0  0  0  0  0  0  0  0  0  0  0  0
    2.0707    3.8242    0.0000 C   0  0  0  0  0  0  0  0  0  0  0  0
    2.8557    4.0413    0.0000 C   0  0  0  0  0  0  0  0  0  0  0  0
    3.8074    1.6867    0.0000 C   0  0  0  0  0  0  0  0  0  0  0  0
  1 26  1  0  0  0  0
 33  2  1  1  0  0  0
  3 34  1  0  0  0  0
  4 22  2  0  0  0  0
 31  5  1  6  0  0  0
  6 36  1  0  0  0  0
  6 45  1  0  0  0  0
  7 45  2  0  0  0  0
  8 48  2  0  0  0  0
  9 47  2  0  0  0  0
 10 17  1  0  0  0  0
 10 20  1  0  0  0  0
 10 24  1  0  0  0  0
 16 11  1  1  0  0  0
 11 22  1  0  0  0  0
 11 23  1  0  0  0  0
 12 17  2  0  0  0  0
 12 19  1  0  0  0  0
 13 37  1  0  0  0  0
 13 41  1  0  0  0  0
 14 47  1  0  0  0  0
 14 48  1  0  0  0  0
 14 49  1  0  0  0  0
 15 45  1  0  0  0  0
 15 52  1  0  0  0  0
 16 17  1  0  0  0  0
 16 18  1  0  0  0  0
 18 25  1  0  0  0  0
 18 28  1  0  0  0  0
 18 29  1  0  0  0  0
 19 20  2  0  0  0  0
 19 21  1  0  0  0  0
 21 26  2  0  0  0  0
 21 30  1  0  0  0  0
 22 31  1  0  0  0  0
 27 23  1  1  0  0  0
 24 32  1  0  0  0  0
 25 36  1  0  0  0  0
 26 35  1  0  0  0  0
 27 33  1  0  0  0  0
 27 37  1  0  0  0  0
 30 34  2  0  0  0  0
 31 42  1  0  0  0  0
 32 39  2  0  0  0  0
 32 40  1  0  0  0  0
 33 41  1  0  0  0  0
 34 38  1  0  0  0  0
 35 38  2  0  0  0  0
 39 43  1  0  0  0  0
 40 44  2  0  0  0  0
 43 46  2  0  0  0  0
 44 46  1  0  0  0  0
 47 50  1  0  0  0  0
 48 51  1  0  0  0  0
 49 52  1  0  0  0  0
 50 51  2  0  0  0  0
M  END
> <PUBCHEM_COMPOUND_ID_TYPE>
0

> <PUBCHEM_TOTAL_CHARGE>
0

> <PUBCHEM_SUBSTANCE_ID>
310942661

> <PUBCHEM_SUBSTANCE_VERSION>
1

> <PUBCHEM_EXT_DATASOURCE_NAME>
4488

> <PUBCHEM_EXT_DATASOURCE_REGID>
SCHEMBL16120707

> <PUBCHEM_SUBSTANCE_COMMENT>
InChI=1S/C37H43F3N6O6/c1-23(47)35(50)46(21-25-18-41-19-29(25)40)33(37(2,3)13-16-52-36(51)42-14-15-45-31(48)11-12-32(45)49)34-43-30(27-17-26(38)9-10-28(27)39)22-44(34)20-24-7-5-4-6-8-24/h4-12,17,22-23,25,29,33,41,47H,13-16,18-21H2,1-3H3,(H,42,51)/t23-,25-,29-,33-/m0/s1
InChIKey=ASKOPRCGOOTIQO-HODFZDIFSA-N

> <PUBCHEM_SUBSTANCE_SYNONYM>
SCHEMBL16120707

> <PUBCHEM_XREF_EXT_ID>
SCHEMBL16120707

> <PUBCHEM_EXT_DATASOURCE_URL>
https://www.surechembl.org/

> <PUBCHEM_EXT_SUBSTANCE_URL>
https://www.surechembl.org/chemical/SCHEMBL16120707

> <PUBCHEM_CID_ASSOCIATIONS>
117609190  1

> <PUBCHEM_COORDINATE_TYPE>
1
3

> <PUBCHEM_BONDANNOTATIONS>
16  11  5
33  2  5
27  23  5
31  5  6

$$$$
