310934092
  -OEChem-07211613022D

 32 35  0     1  0  0  0  0  0999 V2000
    8.6503   -0.6035    0.0000 F   0  0  0  0  0  0  0  0  0  0  0  0
    7.7115   -4.4257    0.0000 O   0  0  0  0  0  0  0  0  0  0  0  0
    2.1458   -3.6546    0.0000 O   0  0  0  0  0  0  0  0  0  0  0  0
    5.9009   -3.3528    0.0000 N   0  0  0  0  0  0  0  0  0  0  0  0
    6.3033   -4.0569    0.0000 N   0  0  0  0  0  0  0  0  0  0  0  0
    4.5934   -3.8893    0.0000 N   0  0  0  0  0  0  0  0  0  0  0  0
    2.3134   -2.2128    0.0000 N   0  0  0  0  0  0  0  0  0  0  0  0
    0.7041   -0.8047    0.0000 N   0  0  0  0  0  0  0  0  0  0  0  0
   10.0584   -0.6035    0.0000 N   0  0  0  0  0  0  0  0  0  0  0  0
    7.2085   -3.0511    0.0000 C   0  0  0  0  0  0  0  0  0  0  0  0
    7.9126   -2.6487    0.0000 C   0  0  0  0  0  0  0  0  0  0  0  0
    7.1080   -3.8893    0.0000 C   0  0  0  0  0  0  0  0  0  0  0  0
    6.4374   -2.7157    0.0000 C   0  0  0  0  0  0  0  0  0  0  0  0
    7.9126   -1.8105    0.0000 C   0  0  0  0  0  0  0  0  0  0  0  0
    5.0628   -3.2522    0.0000 C   0  0  0  0  0  0  0  0  0  0  0  0
    8.6503   -1.4082    0.0000 C   0  0  0  0  0  0  0  0  0  0  0  0
    8.6503   -3.0511    0.0000 C   0  0  0  0  0  0  0  0  0  0  0  0
    3.4534   -3.0846    0.0000 C   0  0  0  0  0  0  0  0  0  0  0  0
    9.3543   -1.8105    0.0000 C   0  0  0  0  0  0  0  0  0  0  0  0
    2.6487   -2.9840    0.0000 C   0  0  0  0  0  0  0  0  0  0  0  0
    4.7610   -2.4811    0.0000 C   0  0  0  0  0  0  0  0  0  0  0  0
    9.3543   -2.6487    0.0000 C   0  0  0  0  0  0  0  0  0  0  0  0
    3.7886   -3.8222    0.0000 C   0  0  0  0  0  0  0  0  0  0  0  0
    3.9228   -2.4141    0.0000 C   0  0  0  0  0  0  0  0  0  0  0  0
    1.4417   -1.2070    0.0000 C   0  0  3  0  0  0  0  0  0  0  0  0
    1.5088   -2.0452    0.0000 C   0  0  0  0  0  0  0  0  0  0  0  0
    2.7493   -1.5088    0.0000 C   0  0  0  0  0  0  0  0  0  0  0  0
    7.2085   -1.4082    0.0000 C   0  0  0  0  0  0  0  0  0  0  0  0
    2.1793   -0.9053    0.0000 C   0  0  0  0  0  0  0  0  0  0  0  0
   10.0584   -1.4082    0.0000 C   0  0  0  0  0  0  0  0  0  0  0  0
    0.7376    0.0000    0.0000 C   0  0  0  0  0  0  0  0  0  0  0  0
    0.0000   -1.2070    0.0000 C   0  0  0  0  0  0  0  0  0  0  0  0
  1 16  1  0  0  0  0
  2 12  1  0  0  0  0
  3 20  2  0  0  0  0
  4  5  1  0  0  0  0
  4 13  1  0  0  0  0
  4 15  1  0  0  0  0
  5 12  2  0  0  0  0
  6 15  1  0  0  0  0
  6 23  2  0  0  0  0
  7 20  1  0  0  0  0
  7 26  1  0  0  0  0
  7 27  1  0  0  0  0
 25  8  1  1  0  0  0
  8 31  1  0  0  0  0
  8 32  1  0  0  0  0
  9 30  3  0  0  0  0
 10 11  1  0  0  0  0
 10 12  1  0  0  0  0
 10 13  2  0  0  0  0
 11 14  2  0  0  0  0
 11 17  1  0  0  0  0
 14 16  1  0  0  0  0
 14 28  1  0  0  0  0
 15 21  2  0  0  0  0
 16 19  2  0  0  0  0
 17 22  2  0  0  0  0
 18 20  1  0  0  0  0
 18 23  1  0  0  0  0
 18 24  2  0  0  0  0
 19 22  1  0  0  0  0
 19 30  1  0  0  0  0
 21 24  1  0  0  0  0
 25 26  1  0  0  0  0
 25 29  1  0  0  0  0
 27 29  1  0  0  0  0
M  END
> <PUBCHEM_COMPOUND_ID_TYPE>
0

> <PUBCHEM_TOTAL_CHARGE>
0

> <PUBCHEM_SUBSTANCE_ID>
310934092

> <PUBCHEM_SUBSTANCE_VERSION>
1

> <PUBCHEM_EXT_DATASOURCE_NAME>
4488

> <PUBCHEM_EXT_DATASOURCE_REGID>
SCHEMBL16111538

> <PUBCHEM_SUBSTANCE_COMMENT>
InChI=1S/C23H23FN6O2/c1-14-18(6-4-15(10-25)21(14)24)19-13-30(27-22(19)31)20-7-5-16(11-26-20)23(32)29-9-8-17(12-29)28(2)3/h4-7,11,13,17H,8-9,12H2,1-3H3,(H,27,31)/t17-/m0/s1
InChIKey=YRMODJGHPHQGMH-KRWDZBQOSA-N

> <PUBCHEM_SUBSTANCE_SYNONYM>
SCHEMBL16111538

> <PUBCHEM_XREF_EXT_ID>
SCHEMBL16111538

> <PUBCHEM_EXT_DATASOURCE_URL>
https://www.surechembl.org/

> <PUBCHEM_EXT_SUBSTANCE_URL>
https://www.surechembl.org/chemical/SCHEMBL16111538

> <PUBCHEM_CID_ASSOCIATIONS>
117602377  1

> <PUBCHEM_COORDINATE_TYPE>
1
3

> <PUBCHEM_BONDANNOTATIONS>
25  8  5

$$$$
