310940862
  -OEChem-07211613022D

 44 47  0     1  0  0  0  0  0999 V2000
   -4.9579    0.7945    0.0000 S   0  0  0  0  0  0  0  0  0  0  0  0
    5.4927    0.6876    0.0000 O   0  0  0  0  0  0  0  0  0  0  0  0
    4.3620   -1.2834    0.0000 O   0  0  0  0  0  0  0  0  0  0  0  0
    2.2078    0.7945    0.0000 O   0  0  0  0  0  0  0  0  0  0  0  0
    0.0535   -1.2834    0.0000 O   0  0  0  0  0  0  0  0  0  0  0  0
   -5.3704    1.5126    0.0000 O   0  0  0  0  0  0  0  0  0  0  0  0
   -5.7829    0.7945    0.0000 O   0  0  0  0  0  0  0  0  0  0  0  0
   -2.0855    0.7945    0.0000 O   0  0  0  0  0  0  0  0  0  0  0  0
    4.3620   -2.9487    0.0000 O   0  0  0  0  0  0  0  0  0  0  0  0
    2.9258   -0.4431    0.0000 N   0  0  0  0  0  0  0  0  0  0  0  0
    0.7716   -0.0306    0.0000 N   0  0  0  0  0  0  0  0  0  0  0  0
   -3.5217   -0.0306    0.0000 N   0  0  0  0  0  0  0  0  0  0  0  0
   -1.3674   -0.4431    0.0000 N   0  0  0  0  0  0  0  0  0  0  0  0
    5.0648    0.0000    0.0000 C   0  0  3  0  0  0  0  0  0  0  0  0
    4.3467   -0.4125    0.0000 C   0  0  0  0  0  0  0  0  0  0  0  0
    4.6829    0.6876    0.0000 C   0  0  0  0  0  0  0  0  0  0  0  0
    3.6439   -0.0153    0.0000 C   0  0  3  0  0  0  0  0  0  0  0  0
    5.7829   -0.4278    0.0000 C   0  0  0  0  0  0  0  0  0  0  0  0
    3.6439    1.3139    0.0000 C   0  0  0  0  0  0  0  0  0  0  0  0
    2.2078   -0.0306    0.0000 C   0  0  0  0  0  0  0  0  0  0  0  0
    1.5202   -0.4125    0.0000 C   0  0  3  0  0  0  0  0  0  0  0  0
    2.9258    1.7418    0.0000 C   0  0  0  0  0  0  0  0  0  0  0  0
    1.4896   -1.2834    0.0000 C   0  0  0  0  0  0  0  0  0  0  0  0
    0.0688   -0.3973    0.0000 C   0  0  0  0  0  0  0  0  0  0  0  0
    2.2231   -1.6654    0.0000 C   0  0  0  0  0  0  0  0  0  0  0  0
    2.2078    1.3292    0.0000 C   0  0  0  0  0  0  0  0  0  0  0  0
    2.9258    2.5515    0.0000 C   0  0  0  0  0  0  0  0  0  0  0  0
   -0.6494   -0.0153    0.0000 C   0  0  3  0  0  0  0  0  0  0  0  0
   -2.1008   -0.0306    0.0000 C   0  0  0  0  0  0  0  0  0  0  0  0
    2.9258   -1.2834    0.0000 C   0  0  0  0  0  0  0  0  0  0  0  0
    2.2231   -2.5056    0.0000 C   0  0  0  0  0  0  0  0  0  0  0  0
   -4.9579   -0.0153    0.0000 C   0  0  0  0  0  0  0  0  0  0  0  0
   -4.2398    1.2223    0.0000 C   0  0  0  0  0  0  0  0  0  0  0  0
   -2.7730   -0.4125    0.0000 C   0  0  0  0  0  0  0  0  0  0  0  0
   -4.2092   -0.4125    0.0000 C   0  0  0  0  0  0  0  0  0  0  0  0
   -3.5217    0.8097    0.0000 C   0  0  0  0  0  0  0  0  0  0  0  0
    1.5202    1.7265    0.0000 C   0  0  0  0  0  0  0  0  0  0  0  0
    2.2078    2.9487    0.0000 C   0  0  0  0  0  0  0  0  0  0  0  0
    3.6439   -2.4904    0.0000 C   0  0  0  0  0  0  0  0  0  0  0  0
    1.5202    2.5515    0.0000 C   0  0  0  0  0  0  0  0  0  0  0  0
    3.6439   -1.6806    0.0000 C   0  0  0  0  0  0  0  0  0  0  0  0
    2.9411   -2.9182    0.0000 C   0  0  0  0  0  0  0  0  0  0  0  0
   -0.6494    0.8097    0.0000 C   0  0  0  0  0  0  0  0  0  0  0  0
    5.0954   -2.4904    0.0000 C   0  0  0  0  0  0  0  0  0  0  0  0
  1  6  2  0  0  0  0
  1  7  2  0  0  0  0
  1 32  1  0  0  0  0
  1 33  1  0  0  0  0
  2 14  1  0  0  0  0
  2 16  1  0  0  0  0
  3 15  2  0  0  0  0
  4 20  2  0  0  0  0
  5 24  2  0  0  0  0
  8 29  2  0  0  0  0
  9 39  1  0  0  0  0
  9 44  1  0  0  0  0
 17 10  1  1  0  0  0
 10 20  1  0  0  0  0
 21 11  1  6  0  0  0
 11 24  1  0  0  0  0
 12 34  1  0  0  0  0
 12 35  1  0  0  0  0
 12 36  1  0  0  0  0
 13 28  1  0  0  0  0
 13 29  1  0  0  0  0
 14 15  1  1  0  0  0
 14 16  1  0  0  0  0
 14 18  1  6  0  0  0
 15 17  1  0  0  0  0
 17 19  1  0  0  0  0
 19 22  1  0  0  0  0
 20 21  1  0  0  0  0
 21 23  1  0  0  0  0
 22 26  2  0  0  0  0
 22 27  1  0  0  0  0
 23 25  1  0  0  0  0
 24 28  1  0  0  0  0
 25 30  2  0  0  0  0
 25 31  1  0  0  0  0
 26 37  1  0  0  0  0
 27 38  1  0  0  0  0
 28 43  1  1  0  0  0
 29 34  1  0  0  0  0
 30 41  1  0  0  0  0
 31 42  2  0  0  0  0
 32 35  1  0  0  0  0
 33 36  1  0  0  0  0
 37 40  1  0  0  0  0
 38 40  1  0  0  0  0
 39 41  2  0  0  0  0
 39 42  1  0  0  0  0
M  END
> <PUBCHEM_COMPOUND_ID_TYPE>
0

> <PUBCHEM_TOTAL_CHARGE>
0

> <PUBCHEM_SUBSTANCE_ID>
310940862

> <PUBCHEM_SUBSTANCE_VERSION>
1

> <PUBCHEM_EXT_DATASOURCE_NAME>
4488

> <PUBCHEM_EXT_DATASOURCE_REGID>
SCHEMBL16118821

> <PUBCHEM_SUBSTANCE_COMMENT>
InChI=1S/C31H44N4O8S/c1-21(32-27(36)19-35-13-15-44(40,41)16-14-35)29(38)34-26(18-23-9-11-24(42-3)12-10-23)30(39)33-25(28(37)31(2)20-43-31)17-22-7-5-4-6-8-22/h7,9-12,21,25-26H,4-6,8,13-20H2,1-3H3,(H,32,36)(H,33,39)(H,34,38)/t21-,25-,26-,31+/m0/s1
InChIKey=PNAZFQIVUQBSQI-VTNASVEKSA-N

> <PUBCHEM_SUBSTANCE_SYNONYM>
SCHEMBL16118821

> <PUBCHEM_XREF_EXT_ID>
SCHEMBL16118821

> <PUBCHEM_EXT_DATASOURCE_URL>
https://www.surechembl.org/

> <PUBCHEM_EXT_SUBSTANCE_URL>
https://www.surechembl.org/chemical/SCHEMBL16118821

> <PUBCHEM_CID_ASSOCIATIONS>
117607779  1

> <PUBCHEM_COORDINATE_TYPE>
1
3

> <PUBCHEM_BONDANNOTATIONS>
17  10  5
21  11  6
14  15  5
14  18  6
28  43  5

$$$$
