310938827
  -OEChem-07211613022D

 26 29  0     0  0  0  0  0  0999 V2000
    1.6853   -2.6567    0.0000 Cl  0  0  0  0  0  0  0  0  0  0  0  0
   -0.2515    1.8983    0.0000 O   0  0  0  0  0  0  0  0  0  0  0  0
    0.9456    0.1039    0.0000 N   0  0  0  0  0  0  0  0  0  0  0  0
   -1.6339    1.1838    0.0000 N   0  0  0  0  0  0  0  0  0  0  0  0
   -1.6339   -0.1511    0.0000 N   0  0  0  0  0  0  0  0  0  0  0  0
   -0.0526   -0.9480    0.0000 N   0  0  0  0  0  0  0  0  0  0  0  0
    0.9456    0.9289    0.0000 C   0  0  0  0  0  0  0  0  0  0  0  0
   -0.3240    0.5164    0.0000 C   0  0  0  0  0  0  0  0  0  0  0  0
    0.1610    1.1838    0.0000 C   0  0  0  0  0  0  0  0  0  0  0  0
    0.1610   -0.1511    0.0000 C   0  0  0  0  0  0  0  0  0  0  0  0
   -1.1490    0.5164    0.0000 C   0  0  0  0  0  0  0  0  0  0  0  0
    1.5290   -0.4795    0.0000 C   0  0  0  0  0  0  0  0  0  0  0  0
   -2.4185    0.9289    0.0000 C   0  0  0  0  0  0  0  0  0  0  0  0
   -2.4185    0.1039    0.0000 C   0  0  0  0  0  0  0  0  0  0  0  0
    1.7706    0.9289    0.0000 C   0  0  0  0  0  0  0  0  0  0  0  0
    1.3581    1.6433    0.0000 C   0  0  0  0  0  0  0  0  0  0  0  0
    1.3154   -1.2764    0.0000 C   0  0  0  0  0  0  0  0  0  0  0  0
    2.3258   -0.2660    0.0000 C   0  0  0  0  0  0  0  0  0  0  0  0
    1.8988   -1.8598    0.0000 C   0  0  0  0  0  0  0  0  0  0  0  0
    2.9092   -0.8493    0.0000 C   0  0  0  0  0  0  0  0  0  0  0  0
   -3.1330    1.3414    0.0000 C   0  0  0  0  0  0  0  0  0  0  0  0
   -3.1330   -0.3086    0.0000 C   0  0  0  0  0  0  0  0  0  0  0  0
    2.6957   -1.6462    0.0000 C   0  0  0  0  0  0  0  0  0  0  0  0
   -3.8474    0.9289    0.0000 C   0  0  0  0  0  0  0  0  0  0  0  0
   -3.8474    0.1039    0.0000 C   0  0  0  0  0  0  0  0  0  0  0  0
    3.7061   -0.6358    0.0000 C   0  0  0  0  0  0  0  0  0  0  0  0
  1 19  1  0  0  0  0
  2  9  2  0  0  0  0
  3  7  1  0  0  0  0
  3 10  1  0  0  0  0
  3 12  1  0  0  0  0
  4 11  2  0  0  0  0
  4 13  1  0  0  0  0
  5 11  1  0  0  0  0
  5 14  1  0  0  0  0
  6 10  1  0  0  0  0
  7  9  1  0  0  0  0
  7 15  1  0  0  0  0
  7 16  1  0  0  0  0
  8  9  1  0  0  0  0
  8 10  2  0  0  0  0
  8 11  1  0  0  0  0
 12 17  2  0  0  0  0
 12 18  1  0  0  0  0
 13 14  2  0  0  0  0
 13 21  1  0  0  0  0
 14 22  1  0  0  0  0
 17 19  1  0  0  0  0
 18 20  2  0  0  0  0
 19 23  2  0  0  0  0
 20 23  1  0  0  0  0
 20 26  1  0  0  0  0
 21 24  2  0  0  0  0
 22 25  2  0  0  0  0
 24 25  1  0  0  0  0
M  END
> <PUBCHEM_COMPOUND_ID_TYPE>
0

> <PUBCHEM_TOTAL_CHARGE>
0

> <PUBCHEM_SUBSTANCE_ID>
310938827

> <PUBCHEM_SUBSTANCE_VERSION>
1

> <PUBCHEM_EXT_DATASOURCE_NAME>
4488

> <PUBCHEM_EXT_DATASOURCE_REGID>
SCHEMBL16116746

> <PUBCHEM_SUBSTANCE_COMMENT>
InChI=1S/C20H19ClN4O/c1-11-8-12(21)10-13(9-11)25-18(22)16(17(26)20(25,2)3)19-23-14-6-4-5-7-15(14)24-19/h4-10H,22H2,1-3H3,(H,23,24)
InChIKey=NOADJRWVQCEKAQ-UHFFFAOYSA-N

> <PUBCHEM_SUBSTANCE_SYNONYM>
SCHEMBL16116746

> <PUBCHEM_XREF_EXT_ID>
SCHEMBL16116746

> <PUBCHEM_EXT_DATASOURCE_URL>
https://www.surechembl.org/

> <PUBCHEM_EXT_SUBSTANCE_URL>
https://www.surechembl.org/chemical/SCHEMBL16116746

> <PUBCHEM_CID_ASSOCIATIONS>
117606229  1

> <PUBCHEM_COORDINATE_TYPE>
1
3

$$$$
