310947711
  -OEChem-07211613022D

 39 42  0     1  0  0  0  0  0999 V2000
   -3.3564   -2.3024    0.0000 Cl  0  0  0  0  0  0  0  0  0  0  0  0
    1.9279   -3.5506    0.0000 Cl  0  0  0  0  0  0  0  0  0  0  0  0
   -1.6643    1.8862    0.0000 S   0  0  0  0  0  0  0  0  0  0  0  0
    2.6352   -0.6241    0.0000 S   0  0  0  0  0  0  0  0  0  0  0  0
   -3.0929   -0.6241    0.0000 F   0  0  0  0  0  0  0  0  0  0  0  0
    1.2067   -0.6241    0.0000 O   0  0  0  0  0  0  0  0  0  0  0  0
    0.4855    1.4702    0.0000 O   0  0  0  0  0  0  0  0  0  0  0  0
   -2.3717    2.3024    0.0000 O   0  0  0  0  0  0  0  0  0  0  0  0
   -2.2468    1.2899    0.0000 O   0  0  0  0  0  0  0  0  0  0  0  0
   -0.2219    0.2219    0.0000 N   0  0  0  0  0  0  0  0  0  0  0  0
    3.3564    0.6380    0.0000 N   0  0  0  0  0  0  0  0  0  0  0  0
   -0.2219   -0.6102    0.0000 C   0  0  3  0  0  0  0  0  0  0  0  0
    1.2067    0.2358    0.0000 C   0  0  3  0  0  0  0  0  0  0  0  0
    0.4716    0.6241    0.0000 C   0  0  0  0  0  0  0  0  0  0  0  0
    0.5132   -1.0264    0.0000 C   0  0  3  0  0  0  0  0  0  0  0  0
   -0.9431    0.6519    0.0000 C   0  0  3  0  0  0  0  0  0  0  0  0
   -0.9570   -1.0402    0.0000 C   0  0  0  0  0  0  0  0  0  0  0  0
   -1.7059    0.1803    0.0000 C   0  0  0  0  0  0  0  0  0  0  0  0
    0.4855   -1.8862    0.0000 C   0  0  0  0  0  0  0  0  0  0  0  0
   -0.9431    1.4702    0.0000 C   0  0  0  0  0  0  0  0  0  0  0  0
    1.9140    0.6241    0.0000 C   0  0  0  0  0  0  0  0  0  0  0  0
   -2.4688    0.2080    0.0000 C   0  0  0  0  0  0  0  0  0  0  0  0
   -2.0665   -0.4855    0.0000 C   0  0  0  0  0  0  0  0  0  0  0  0
    1.4286    1.0125    0.0000 C   0  0  0  0  0  0  0  0  0  0  0  0
   -1.6643   -0.6241    0.0000 C   0  0  0  0  0  0  0  0  0  0  0  0
   -1.6643    2.7600    0.0000 C   0  0  0  0  0  0  0  0  0  0  0  0
   -0.9431   -1.8724    0.0000 C   0  0  0  0  0  0  0  0  0  0  0  0
    1.2067   -2.3024    0.0000 C   0  0  0  0  0  0  0  0  0  0  0  0
   -0.2219   -2.2885    0.0000 C   0  0  0  0  0  0  0  0  0  0  0  0
   -2.3717   -1.0402    0.0000 C   0  0  0  0  0  0  0  0  0  0  0  0
    2.6491    0.2496    0.0000 C   0  0  0  0  0  0  0  0  0  0  0  0
   -2.3717   -1.8724    0.0000 C   0  0  0  0  0  0  0  0  0  0  0  0
   -1.6505   -2.2885    0.0000 C   0  0  0  0  0  0  0  0  0  0  0  0
    1.2067   -3.1206    0.0000 C   0  0  0  0  0  0  0  0  0  0  0  0
   -0.2219   -3.1206    0.0000 C   0  0  0  0  0  0  0  0  0  0  0  0
    0.4993   -3.5367    0.0000 C   0  0  0  0  0  0  0  0  0  0  0  0
   -1.8862    3.5506    0.0000 C   0  0  0  0  0  0  0  0  0  0  0  0
   -2.3855    3.1345    0.0000 C   0  0  0  0  0  0  0  0  0  0  0  0
   -0.9154    3.1622    0.0000 C   0  0  0  0  0  0  0  0  0  0  0  0
  1 32  1  0  0  0  0
  2 34  1  0  0  0  0
  3  8  2  0  0  0  0
  3  9  2  0  0  0  0
  3 20  1  0  0  0  0
  3 26  1  0  0  0  0
  4 31  2  0  0  0  0
  5 30  1  0  0  0  0
  6 13  1  0  0  0  0
 15  6  1  6  0  0  0
  7 14  2  0  0  0  0
 12 10  1  1  0  0  0
 10 14  1  0  0  0  0
 10 16  1  0  0  0  0
 11 31  1  0  0  0  0
 12 15  1  0  0  0  0
 12 17  1  0  0  0  0
 13 14  1  0  0  0  0
 13 21  1  6  0  0  0
 13 24  1  1  0  0  0
 15 19  1  0  0  0  0
 16 18  1  0  0  0  0
 16 20  1  1  0  0  0
 17 25  2  0  0  0  0
 17 27  1  0  0  0  0
 18 22  1  0  0  0  0
 18 23  1  0  0  0  0
 19 28  1  0  0  0  0
 19 29  2  0  0  0  0
 21 31  1  0  0  0  0
 22 23  1  0  0  0  0
 25 30  1  0  0  0  0
 26 37  1  0  0  0  0
 26 38  1  0  0  0  0
 26 39  1  0  0  0  0
 27 33  2  0  0  0  0
 28 34  2  0  0  0  0
 29 35  1  0  0  0  0
 30 32  2  0  0  0  0
 32 33  1  0  0  0  0
 34 36  1  0  0  0  0
 35 36  2  0  0  0  0
M  END
> <PUBCHEM_COMPOUND_ID_TYPE>
0

> <PUBCHEM_TOTAL_CHARGE>
0

> <PUBCHEM_SUBSTANCE_ID>
310947711

> <PUBCHEM_SUBSTANCE_VERSION>
1

> <PUBCHEM_EXT_DATASOURCE_NAME>
4488

> <PUBCHEM_EXT_DATASOURCE_REGID>
SCHEMBL16125882

> <PUBCHEM_SUBSTANCE_COMMENT>
InChI=1S/C28H33Cl2FN2O4S2/c1-27(2,3)39(35,36)15-22(16-8-9-16)33-24(17-10-11-20(30)21(31)13-17)25(18-6-5-7-19(29)12-18)37-28(4,26(33)34)14-23(32)38/h5-7,10-13,16,22,24-25H,8-9,14-15H2,1-4H3,(H2,32,38)/t22-,24-,25-,28+/m1/s1
InChIKey=TZKCQTNUJDVAIJ-KPOFERKLSA-N

> <PUBCHEM_SUBSTANCE_SYNONYM>
SCHEMBL16125882

> <PUBCHEM_XREF_EXT_ID>
SCHEMBL16125882

> <PUBCHEM_EXT_DATASOURCE_URL>
https://www.surechembl.org/

> <PUBCHEM_EXT_SUBSTANCE_URL>
https://www.surechembl.org/chemical/SCHEMBL16125882

> <PUBCHEM_CID_ASSOCIATIONS>
117613417  1

> <PUBCHEM_COORDINATE_TYPE>
1
3

> <PUBCHEM_BONDANNOTATIONS>
12  10  5
13  21  6
13  24  5
16  20  5
15  6  6

$$$$
