310947835
  -OEChem-07211613022D

 25 26  0     1  0  0  0  0  0999 V2000
    3.2392   -1.4148    0.0000 S   0  0  0  0  0  0  0  0  0  0  0  0
    2.4077   -1.4148    0.0000 O   0  0  0  0  0  0  0  0  0  0  0  0
   -1.8989    1.0673    0.0000 O   0  0  0  0  0  0  0  0  0  0  0  0
   -3.8225    2.1347    0.0000 O   0  0  0  0  0  0  0  0  0  0  0  0
   -0.4592   -1.4148    0.0000 O   0  0  0  0  0  0  0  0  0  0  0  0
   -0.4592    1.8864    0.0000 O   0  0  0  0  0  0  0  0  0  0  0  0
    3.6488   -2.1347    0.0000 O   0  0  0  0  0  0  0  0  0  0  0  0
    3.6488   -0.6951    0.0000 O   0  0  0  0  0  0  0  0  0  0  0  0
    4.0584   -1.4148    0.0000 O   0  0  0  0  0  0  0  0  0  0  0  0
    0.2730   -0.1738    0.0000 N   0  0  0  0  0  0  0  0  0  0  0  0
    1.7128   -1.0053    0.0000 N   0  0  0  0  0  0  0  0  0  0  0  0
   -1.1542    0.6578    0.0000 N   0  0  0  0  0  0  0  0  0  0  0  0
   -3.9715    0.2854    0.0000 N   0  0  0  0  0  0  0  0  0  0  0  0
    0.2730    0.6578    0.0000 C   0  0  3  0  0  0  0  0  0  0  0  0
    0.2854   -0.9805    0.0000 C   0  0  0  0  0  0  0  0  0  0  0  0
   -0.4840    1.0425    0.0000 C   0  0  0  0  0  0  0  0  0  0  0  0
   -3.3881    0.8812    0.0000 C   0  0  3  0  0  0  0  0  0  0  0  0
    0.9929   -0.5834    0.0000 C   0  0  0  0  0  0  0  0  0  0  0  0
    0.9805    1.0673    0.0000 C   0  0  0  0  0  0  0  0  0  0  0  0
   -2.5939    0.6578    0.0000 C   0  0  0  0  0  0  0  0  0  0  0  0
   -4.0584    1.3528    0.0000 C   0  0  0  0  0  0  0  0  0  0  0  0
   -2.7303    1.3528    0.0000 C   0  0  0  0  0  0  0  0  0  0  0  0
    1.6879   -0.1861    0.0000 C   0  0  0  0  0  0  0  0  0  0  0  0
    1.7003    0.6578    0.0000 C   0  0  0  0  0  0  0  0  0  0  0  0
   -2.9786    2.1347    0.0000 C   0  0  0  0  0  0  0  0  0  0  0  0
  1  2  1  0  0  0  0
  1  7  2  0  0  0  0
  1  8  2  0  0  0  0
  1  9  1  0  0  0  0
  2 11  1  0  0  0  0
  3 12  1  0  0  0  0
  3 20  1  0  0  0  0
  4 21  1  0  0  0  0
  4 25  1  0  0  0  0
  5 15  2  0  0  0  0
  6 16  2  0  0  0  0
 10 14  1  0  0  0  0
 10 15  1  0  0  0  0
 10 18  1  0  0  0  0
 11 15  1  0  0  0  0
 12 16  1  0  0  0  0
 13 17  1  0  0  0  0
 14 16  1  6  0  0  0
 14 19  1  0  0  0  0
 17 20  1  0  0  0  0
 17 21  1  0  0  0  0
 17 22  1  0  0  0  0
 18 23  1  0  0  0  0
 19 24  1  0  0  0  0
 22 25  1  0  0  0  0
 23 24  1  0  0  0  0
M  END
> <PUBCHEM_COMPOUND_ID_TYPE>
0

> <PUBCHEM_TOTAL_CHARGE>
0

> <PUBCHEM_SUBSTANCE_ID>
310947835

> <PUBCHEM_SUBSTANCE_VERSION>
1

> <PUBCHEM_EXT_DATASOURCE_NAME>
4488

> <PUBCHEM_EXT_DATASOURCE_REGID>
SCHEMBL16126007

> <PUBCHEM_SUBSTANCE_COMMENT>
InChI=1S/C12H22N4O8S/c13-12(4-6-22-7-12)8-23-14-10(17)9-3-1-2-5-16(9)11(18)15-24-25(19,20)21/h9H,1-8,13H2,(H,14,17)(H,15,18)(H,19,20,21)/t9-,12?/m0/s1
InChIKey=UFZZOGNIVXDJGK-QHGLUPRGSA-N

> <PUBCHEM_SUBSTANCE_SYNONYM>
SCHEMBL16126007

> <PUBCHEM_XREF_EXT_ID>
SCHEMBL16126007

> <PUBCHEM_EXT_DATASOURCE_URL>
https://www.surechembl.org/

> <PUBCHEM_EXT_SUBSTANCE_URL>
https://www.surechembl.org/chemical/SCHEMBL16126007

> <PUBCHEM_CID_ASSOCIATIONS>
117613500  1

> <PUBCHEM_COORDINATE_TYPE>
1
3

> <PUBCHEM_BONDANNOTATIONS>
14  16  6

$$$$
