310934866
  -OEChem-07211613022D

 29 32  0     1  0  0  0  0  0999 V2000
    6.9292    0.0761    0.0000 F   0  0  0  0  0  0  0  0  0  0  0  0
   -1.2054    0.9256    0.0000 F   0  0  0  0  0  0  0  0  0  0  0  0
    0.1536    1.3672    0.0000 F   0  0  0  0  0  0  0  0  0  0  0  0
    4.6851   -0.8947    0.0000 O   0  0  0  0  0  0  0  0  0  0  0  0
    5.5714   -0.2364    0.0000 O   0  0  0  0  0  0  0  0  0  0  0  0
   -0.1435   -0.0305    0.0000 N   0  0  0  0  0  0  0  0  0  0  0  0
   -0.6284   -0.6979    0.0000 N   0  0  0  0  0  0  0  0  0  0  0  0
    4.0902    0.4046    0.0000 C   0  0  3  0  0  0  0  0  0  0  0  0
    4.8474    0.7322    0.0000 C   0  0  0  0  0  0  0  0  0  0  0  0
    2.7845    0.1271    0.0000 C   0  0  0  0  0  0  0  0  0  0  0  0
    3.5382   -0.2085    0.0000 C   0  0  0  0  0  0  0  0  0  0  0  0
    4.7627   -0.0733    0.0000 C   0  0  0  0  0  0  0  0  0  0  0  0
    3.6777    1.1191    0.0000 C   0  0  0  0  0  0  0  0  0  0  0  0
    2.0701   -0.2854    0.0000 C   0  0  0  0  0  0  0  0  0  0  0  0
    0.6411   -0.2854    0.0000 C   0  0  0  0  0  0  0  0  0  0  0  0
    2.8708    0.9475    0.0000 C   0  0  0  0  0  0  0  0  0  0  0  0
    5.5097    0.2404    0.0000 C   0  0  0  0  0  0  0  0  0  0  0  0
    0.6411   -1.1104    0.0000 C   0  0  0  0  0  0  0  0  0  0  0  0
    1.3556    0.1271    0.0000 C   0  0  0  0  0  0  0  0  0  0  0  0
    4.9422    1.5518    0.0000 C   0  0  0  0  0  0  0  0  0  0  0  0
    2.0701   -1.1104    0.0000 C   0  0  0  0  0  0  0  0  0  0  0  0
    6.2669    0.5680    0.0000 C   0  0  0  0  0  0  0  0  0  0  0  0
    1.3556   -1.5229    0.0000 C   0  0  0  0  0  0  0  0  0  0  0  0
   -0.1435   -1.3654    0.0000 C   0  0  0  0  0  0  0  0  0  0  0  0
   -0.3984    0.7541    0.0000 C   0  0  0  0  0  0  0  0  0  0  0  0
    5.6994    1.8794    0.0000 C   0  0  0  0  0  0  0  0  0  0  0  0
    6.3617    1.3875    0.0000 C   0  0  0  0  0  0  0  0  0  0  0  0
    5.9147   -0.4784    0.0000 C   0  0  0  0  0  0  0  0  0  0  0  0
    3.9350   -1.2381    0.0000 C   0  0  0  0  0  0  0  0  0  0  0  0
  1 22  1  0  0  0  0
  2 25  1  0  0  0  0
  3 25  1  0  0  0  0
  4 12  1  0  0  0  0
  4 29  1  0  0  0  0
  5 12  2  0  0  0  0
  6  7  1  0  0  0  0
  6 15  1  0  0  0  0
  6 25  1  0  0  0  0
  7 24  2  0  0  0  0
  8  9  1  1  0  0  0
  8 11  1  0  0  0  0
  8 12  1  6  0  0  0
  8 13  1  0  0  0  0
  9 17  2  0  0  0  0
  9 20  1  0  0  0  0
 10 11  2  0  0  0  0
 10 14  1  0  0  0  0
 10 16  1  0  0  0  0
 13 16  1  0  0  0  0
 14 19  1  0  0  0  0
 14 21  2  0  0  0  0
 15 18  1  0  0  0  0
 15 19  2  0  0  0  0
 17 22  1  0  0  0  0
 17 28  1  0  0  0  0
 18 23  2  0  0  0  0
 18 24  1  0  0  0  0
 20 26  2  0  0  0  0
 21 23  1  0  0  0  0
 22 27  2  0  0  0  0
 26 27  1  0  0  0  0
M  END
> <PUBCHEM_COMPOUND_ID_TYPE>
0

> <PUBCHEM_TOTAL_CHARGE>
0

> <PUBCHEM_SUBSTANCE_ID>
310934866

> <PUBCHEM_SUBSTANCE_VERSION>
1

> <PUBCHEM_EXT_DATASOURCE_NAME>
4488

> <PUBCHEM_EXT_DATASOURCE_REGID>
SCHEMBL16112375

> <PUBCHEM_SUBSTANCE_COMMENT>
InChI=1S/C22H19F3N2O2/c1-13-17(4-3-5-18(13)23)22(20(28)29-2)9-8-15(11-22)14-6-7-16-12-26-27(21(24)25)19(16)10-14/h3-7,10-12,21H,8-9H2,1-2H3/t22-/m0/s1
InChIKey=FVLCBUHSWQYJHS-QFIPXVFZSA-N

> <PUBCHEM_SUBSTANCE_SYNONYM>
SCHEMBL16112375

> <PUBCHEM_XREF_EXT_ID>
SCHEMBL16112375

> <PUBCHEM_EXT_DATASOURCE_URL>
https://www.surechembl.org/

> <PUBCHEM_EXT_SUBSTANCE_URL>
https://www.surechembl.org/chemical/SCHEMBL16112375

> <PUBCHEM_CID_ASSOCIATIONS>
117603000  1

> <PUBCHEM_COORDINATE_TYPE>
1
3

> <PUBCHEM_BONDANNOTATIONS>
8  12  6
8  9  5

$$$$
