310942982
  -OEChem-07211613022D

  9  8  0     1  0  0  0  0  0999 V2000
   -1.1487    1.1038    0.0000 O   0  0  0  0  0  0  0  0  0  0  0  0
    1.3641   -1.3910    0.0000 N   0  0  0  0  0  0  0  0  0  0  0  0
    0.1794   -0.2244    0.0000 C   0  0  3  0  0  0  0  0  0  0  0  0
    0.4128    0.7448    0.0000 C   0  0  0  0  0  0  0  0  0  0  0  0
   -0.2692    1.3910    0.0000 C   0  0  0  0  0  0  0  0  0  0  0  0
    0.7538   -0.8166    0.0000 C   0  0  0  0  0  0  0  0  0  0  0  0
   -0.5564   -0.3858    0.0000 C   0  0  0  0  0  0  0  0  0  0  0  0
   -1.3641    0.2064    0.0000 C   0  0  0  0  0  0  0  0  0  0  0  0
   -0.7897   -0.3320    0.0000 C   0  0  0  0  0  0  0  0  0  0  0  0
  1  5  1  0  0  0  0
  1  8  1  0  0  0  0
  2  6  3  0  0  0  0
  3  4  1  0  0  0  0
  3  6  1  0  0  0  0
  3  7  1  6  0  0  0
  4  5  1  0  0  0  0
  8  9  1  0  0  0  0
M  END
> <PUBCHEM_COMPOUND_ID_TYPE>
0

> <PUBCHEM_TOTAL_CHARGE>
0

> <PUBCHEM_SUBSTANCE_ID>
310942982

> <PUBCHEM_SUBSTANCE_VERSION>
1

> <PUBCHEM_EXT_DATASOURCE_NAME>
4488

> <PUBCHEM_EXT_DATASOURCE_REGID>
SCHEMBL16121041

> <PUBCHEM_SUBSTANCE_COMMENT>
InChI=1S/C7H13NO/c1-3-9-5-4-7(2)6-8/h7H,3-5H2,1-2H3/t7-/m1/s1
InChIKey=UQPWEUICSYQKOS-SSDOTTSWSA-N

> <PUBCHEM_SUBSTANCE_SYNONYM>
SCHEMBL16121041

> <PUBCHEM_XREF_EXT_ID>
SCHEMBL16121041

> <PUBCHEM_EXT_DATASOURCE_URL>
https://www.surechembl.org/

> <PUBCHEM_EXT_SUBSTANCE_URL>
https://www.surechembl.org/chemical/SCHEMBL16121041

> <PUBCHEM_CID_ASSOCIATIONS>
117609443  1

> <PUBCHEM_COORDINATE_TYPE>
1
3

> <PUBCHEM_BONDANNOTATIONS>
3  7  6

$$$$
