310938630
  -OEChem-07211613022D

 14 14  0     0  0  0  0  0  0999 V2000
   -2.0638   -5.5876    0.0000 Cl  0  0  0  0  0  0  0  0  0  0  0  0
   -4.9217   -6.4126    0.0000 O   0  0  0  0  0  0  0  0  0  0  0  0
   -2.7783   -4.3501    0.0000 C   0  0  0  0  0  0  0  0  0  0  0  0
   -2.7783   -5.1751    0.0000 C   0  0  0  0  0  0  0  0  0  0  0  0
   -4.2072   -5.1751    0.0000 C   0  0  0  0  0  0  0  0  0  0  0  0
   -2.0638   -3.9376    0.0000 C   0  0  0  0  0  0  0  0  0  0  0  0
   -3.4927   -5.5876    0.0000 C   0  0  0  0  0  0  0  0  0  0  0  0
   -1.3493   -4.3501    0.0000 C   0  0  0  0  0  0  0  0  0  0  0  0
   -3.4927   -3.9376    0.0000 C   0  0  0  0  0  0  0  0  0  0  0  0
   -4.2072   -4.3501    0.0000 C   0  0  0  0  0  0  0  0  0  0  0  0
   -4.9217   -5.5876    0.0000 C   0  0  0  0  0  0  0  0  0  0  0  0
   -0.9368   -3.6356    0.0000 C   0  0  0  0  0  0  0  0  0  0  0  0
   -1.7618   -5.0646    0.0000 C   0  0  0  0  0  0  0  0  0  0  0  0
   -0.6348   -4.7626    0.0000 C   0  0  0  0  0  0  0  0  0  0  0  0
  1  4  1  0  0  0  0
  2 11  1  0  0  0  0
  3  4  1  0  0  0  0
  3  6  1  0  0  0  0
  3  9  2  0  0  0  0
  4  7  2  0  0  0  0
  5  7  1  0  0  0  0
  5 10  2  0  0  0  0
  5 11  1  0  0  0  0
  6  8  1  0  0  0  0
  8 12  1  0  0  0  0
  8 13  1  0  0  0  0
  8 14  1  0  0  0  0
  9 10  1  0  0  0  0
M  END
> <PUBCHEM_COMPOUND_ID_TYPE>
0

> <PUBCHEM_TOTAL_CHARGE>
0

> <PUBCHEM_SUBSTANCE_ID>
310938630

> <PUBCHEM_SUBSTANCE_VERSION>
1

> <PUBCHEM_EXT_DATASOURCE_NAME>
4488

> <PUBCHEM_EXT_DATASOURCE_REGID>
SCHEMBL16116544

> <PUBCHEM_SUBSTANCE_COMMENT>
InChI=1S/C12H17ClO/c1-12(2,3)7-10-5-4-9(8-14)6-11(10)13/h4-6,14H,7-8H2,1-3H3
InChIKey=YNOKIUXWQUYHSM-UHFFFAOYSA-N

> <PUBCHEM_SUBSTANCE_SYNONYM>
SCHEMBL16116544

> <PUBCHEM_XREF_EXT_ID>
SCHEMBL16116544

> <PUBCHEM_EXT_DATASOURCE_URL>
https://www.surechembl.org/

> <PUBCHEM_EXT_SUBSTANCE_URL>
https://www.surechembl.org/chemical/SCHEMBL16116544

> <PUBCHEM_CID_ASSOCIATIONS>
117606063  1

> <PUBCHEM_COORDINATE_TYPE>
1
3

> <PUBCHEM_BONDANNOTATIONS>
8  12  3
8  13  3

$$$$
