310938035
  -OEChem-07211613022D

 20 22  0     0  0  0  0  0  0999 V2000
    4.8274   -2.8964    0.0000 O   0  0  0  0  0  0  0  0  0  0  0  0
    3.1224   -2.8553    0.0000 N   0  0  0  0  0  0  0  0  0  0  0  0
    0.3492   -0.3492    0.0000 N   0  0  0  0  0  0  0  0  0  0  0  0
    4.8274   -1.4790    0.0000 N   0  0  0  0  0  0  0  0  0  0  0  0
    1.6845   -1.3147    0.0000 C   0  0  0  0  0  0  0  0  0  0  0  0
    2.3418   -1.7871    0.0000 C   0  0  0  0  0  0  0  0  0  0  0  0
    0.9244   -1.6639    0.0000 C   0  0  0  0  0  0  0  0  0  0  0  0
    3.5948   -2.1774    0.0000 C   0  0  0  0  0  0  0  0  0  0  0  0
    3.1224   -1.5201    0.0000 C   0  0  0  0  0  0  0  0  0  0  0  0
    0.8422   -2.4856    0.0000 C   0  0  0  0  0  0  0  0  0  0  0  0
    2.3418   -2.5883    0.0000 C   0  0  0  0  0  0  0  0  0  0  0  0
    1.7666   -0.5136    0.0000 C   0  0  0  0  0  0  0  0  0  0  0  0
    0.2670   -1.1503    0.0000 C   0  0  0  0  0  0  0  0  0  0  0  0
    4.4165   -2.1774    0.0000 C   0  0  0  0  0  0  0  0  0  0  0  0
    1.1093    0.0000    0.0000 C   0  0  0  0  0  0  0  0  0  0  0  0
    1.4995   -2.9785    0.0000 C   0  0  0  0  0  0  0  0  0  0  0  0
    0.0822   -2.8142    0.0000 C   0  0  0  0  0  0  0  0  0  0  0  0
    1.4174   -3.7797    0.0000 C   0  0  0  0  0  0  0  0  0  0  0  0
    0.0000   -3.6359    0.0000 C   0  0  0  0  0  0  0  0  0  0  0  0
    0.6573   -4.1083    0.0000 C   0  0  0  0  0  0  0  0  0  0  0  0
  1 14  2  0  0  0  0
  2  8  1  0  0  0  0
  2 11  1  0  0  0  0
  3 13  1  0  0  0  0
  3 15  2  0  0  0  0
  4 14  1  0  0  0  0
  5  6  1  0  0  0  0
  5  7  1  0  0  0  0
  5 12  2  0  0  0  0
  6  9  1  0  0  0  0
  6 11  2  0  0  0  0
  7 10  1  0  0  0  0
  7 13  2  0  0  0  0
  8  9  2  0  0  0  0
  8 14  1  0  0  0  0
 10 16  2  0  0  0  0
 10 17  1  0  0  0  0
 12 15  1  0  0  0  0
 16 18  1  0  0  0  0
 17 19  2  0  0  0  0
 18 20  2  0  0  0  0
 19 20  1  0  0  0  0
M  END
> <PUBCHEM_COMPOUND_ID_TYPE>
0

> <PUBCHEM_TOTAL_CHARGE>
0

> <PUBCHEM_SUBSTANCE_ID>
310938035

> <PUBCHEM_SUBSTANCE_VERSION>
1

> <PUBCHEM_EXT_DATASOURCE_NAME>
4488

> <PUBCHEM_EXT_DATASOURCE_REGID>
SCHEMBL16115876

> <PUBCHEM_SUBSTANCE_COMMENT>
InChI=1S/C16H13N3O/c17-16(20)15-8-12(9-19-15)13-6-7-18-10-14(13)11-4-2-1-3-5-11/h1-10,19H,(H2,17,20)
InChIKey=YDHIINAYJMHXCH-UHFFFAOYSA-N

> <PUBCHEM_SUBSTANCE_SYNONYM>
SCHEMBL16115876

> <PUBCHEM_XREF_EXT_ID>
SCHEMBL16115876

> <PUBCHEM_EXT_DATASOURCE_URL>
https://www.surechembl.org/

> <PUBCHEM_EXT_SUBSTANCE_URL>
https://www.surechembl.org/chemical/SCHEMBL16115876

> <PUBCHEM_CID_ASSOCIATIONS>
86274987  1

> <PUBCHEM_COORDINATE_TYPE>
1
3

$$$$
