310943410
  -OEChem-07211613022D

 35 38  0     0  0  0  0  0  0999 V2000
    4.3009   -2.0695    0.0000 F   0  0  0  0  0  0  0  0  0  0  0  0
   -3.5792   -0.8322    0.0000 O   0  0  0  0  0  0  0  0  0  0  0  0
    4.3009   -0.4051    0.0000 O   0  0  0  0  0  0  0  0  0  0  0  0
   -5.0079    1.6571    0.0000 O   0  0  0  0  0  0  0  0  0  0  0  0
    0.7217   -0.8322    0.0000 O   0  0  0  0  0  0  0  0  0  0  0  0
   -2.1504   -0.8175    0.0000 N   0  0  0  0  0  0  0  0  0  0  0  0
   -3.5939    0.8322    0.0000 N   0  0  0  0  0  0  0  0  0  0  0  0
    0.0000    2.0695    0.0000 N   0  0  0  0  0  0  0  0  0  0  0  0
    1.4287    0.4198    0.0000 N   0  0  0  0  0  0  0  0  0  0  0  0
   -1.4287    0.4198    0.0000 C   0  0  0  0  0  0  0  0  0  0  0  0
   -0.7217    0.8322    0.0000 C   0  0  0  0  0  0  0  0  0  0  0  0
   -2.8575    0.4198    0.0000 C   0  0  0  0  0  0  0  0  0  0  0  0
   -2.8575   -0.3904    0.0000 C   0  0  0  0  0  0  0  0  0  0  0  0
   -2.1504    0.8322    0.0000 C   0  0  0  0  0  0  0  0  0  0  0  0
   -1.4435   -0.4051    0.0000 C   0  0  0  0  0  0  0  0  0  0  0  0
   -0.7070    1.6571    0.0000 C   0  0  0  0  0  0  0  0  0  0  0  0
    0.0000    0.4345    0.0000 C   0  0  0  0  0  0  0  0  0  0  0  0
    0.7070    0.8322    0.0000 C   0  0  0  0  0  0  0  0  0  0  0  0
    2.1504   -0.8175    0.0000 C   0  0  0  0  0  0  0  0  0  0  0  0
    1.4435   -0.3904    0.0000 C   0  0  0  0  0  0  0  0  0  0  0  0
    0.7217    1.6571    0.0000 C   0  0  0  0  0  0  0  0  0  0  0  0
   -3.5939    1.6571    0.0000 C   0  0  0  0  0  0  0  0  0  0  0  0
   -4.2862    0.4198    0.0000 C   0  0  0  0  0  0  0  0  0  0  0  0
    3.5792   -0.8175    0.0000 C   0  0  0  0  0  0  0  0  0  0  0  0
    2.8575   -0.4198    0.0000 C   0  0  0  0  0  0  0  0  0  0  0  0
    3.5645   -1.6423    0.0000 C   0  0  0  0  0  0  0  0  0  0  0  0
   -2.1357   -1.6718    0.0000 C   0  0  0  0  0  0  0  0  0  0  0  0
    2.1504   -1.6423    0.0000 C   0  0  0  0  0  0  0  0  0  0  0  0
   -1.4435    2.0547    0.0000 C   0  0  0  0  0  0  0  0  0  0  0  0
    2.8722   -2.0547    0.0000 C   0  0  0  0  0  0  0  0  0  0  0  0
   -4.3304    2.0695    0.0000 C   0  0  0  0  0  0  0  0  0  0  0  0
   -5.0079    0.8322    0.0000 C   0  0  0  0  0  0  0  0  0  0  0  0
    4.3009    0.4198    0.0000 C   0  0  0  0  0  0  0  0  0  0  0  0
    5.0079    0.8469    0.0000 C   0  0  0  0  0  0  0  0  0  0  0  0
    3.5645    0.8322    0.0000 C   0  0  0  0  0  0  0  0  0  0  0  0
  1 26  1  0  0  0  0
  2 13  2  0  0  0  0
  3 24  1  0  0  0  0
  3 33  1  0  0  0  0
  4 31  1  0  0  0  0
  4 32  1  0  0  0  0
  5 20  2  0  0  0  0
  6 13  1  0  0  0  0
  6 15  1  0  0  0  0
  6 27  1  0  0  0  0
  7 12  1  0  0  0  0
  7 22  1  0  0  0  0
  7 23  1  0  0  0  0
  8 16  1  0  0  0  0
  8 21  2  0  0  0  0
  9 18  1  0  0  0  0
  9 20  1  0  0  0  0
 10 11  1  0  0  0  0
 10 14  1  0  0  0  0
 10 15  2  0  0  0  0
 11 16  2  0  0  0  0
 11 17  1  0  0  0  0
 12 13  1  0  0  0  0
 12 14  2  0  0  0  0
 16 29  1  0  0  0  0
 17 18  2  0  0  0  0
 18 21  1  0  0  0  0
 19 20  1  0  0  0  0
 19 25  1  0  0  0  0
 19 28  2  0  0  0  0
 22 31  1  0  0  0  0
 23 32  1  0  0  0  0
 24 25  2  0  0  0  0
 24 26  1  0  0  0  0
 26 30  2  0  0  0  0
 28 30  1  0  0  0  0
 33 34  1  0  0  0  0
 33 35  1  0  0  0  0
M  END
> <PUBCHEM_COMPOUND_ID_TYPE>
0

> <PUBCHEM_TOTAL_CHARGE>
0

> <PUBCHEM_SUBSTANCE_ID>
310943410

> <PUBCHEM_SUBSTANCE_VERSION>
1

> <PUBCHEM_EXT_DATASOURCE_NAME>
4488

> <PUBCHEM_EXT_DATASOURCE_REGID>
SCHEMBL16121474

> <PUBCHEM_SUBSTANCE_COMMENT>
InChI=1S/C26H29FN4O4/c1-16(2)35-24-12-18(5-6-22(24)27)25(32)29-20-13-21(17(3)28-14-20)19-11-23(26(33)30(4)15-19)31-7-9-34-10-8-31/h5-6,11-16H,7-10H2,1-4H3,(H,29,32)
InChIKey=IFRANAVTWOWHFJ-UHFFFAOYSA-N

> <PUBCHEM_SUBSTANCE_SYNONYM>
SCHEMBL16121474

> <PUBCHEM_XREF_EXT_ID>
SCHEMBL16121474

> <PUBCHEM_EXT_DATASOURCE_URL>
https://www.surechembl.org/

> <PUBCHEM_EXT_SUBSTANCE_URL>
https://www.surechembl.org/chemical/SCHEMBL16121474

> <PUBCHEM_CID_ASSOCIATIONS>
117609834  1

> <PUBCHEM_COORDINATE_TYPE>
1
3

$$$$
