310941413
  -OEChem-07211613022D

 35 37  0     1  0  0  0  0  0999 V2000
    3.6016    0.8832    0.0000 O   0  0  0  0  0  0  0  0  0  0  0  0
    2.1610   -0.7631    0.0000 O   0  0  0  0  0  0  0  0  0  0  0  0
   -0.0686    1.2605    0.0000 O   0  0  0  0  0  0  0  0  0  0  0  0
   -2.1952   -0.8146    0.0000 O   0  0  0  0  0  0  0  0  0  0  0  0
    2.0924   -2.4610    0.0000 O   0  0  0  0  0  0  0  0  0  0  0  0
   -2.1952    1.6550    0.0000 O   0  0  0  0  0  0  0  0  0  0  0  0
    0.6517    0.0258    0.0000 N   0  0  0  0  0  0  0  0  0  0  0  0
   -1.4749    0.4202    0.0000 N   0  0  0  0  0  0  0  0  0  0  0  0
   -3.6359    0.0086    0.0000 N   0  0  0  0  0  0  0  0  0  0  0  0
    2.8983    0.4888    0.0000 C   0  0  3  0  0  0  0  0  0  0  0  0
    2.1781    0.0772    0.0000 C   0  0  0  0  0  0  0  0  0  0  0  0
    2.8983    1.2948    0.0000 C   0  0  0  0  0  0  0  0  0  0  0  0
    1.4406    0.4717    0.0000 C   0  0  3  0  0  0  0  0  0  0  0  0
    3.6359    0.0600    0.0000 C   0  0  0  0  0  0  0  0  0  0  0  0
    1.4749    1.3120    0.0000 C   0  0  0  0  0  0  0  0  0  0  0  0
   -0.0686    0.4202    0.0000 C   0  0  0  0  0  0  0  0  0  0  0  0
   -0.7545    0.0258    0.0000 C   0  0  3  0  0  0  0  0  0  0  0  0
    2.0409    1.9123    0.0000 C   0  0  0  0  0  0  0  0  0  0  0  0
   -0.7889   -0.8317    0.0000 C   0  0  0  0  0  0  0  0  0  0  0  0
   -0.0514   -1.2262    0.0000 C   0  0  0  0  0  0  0  0  0  0  0  0
   -2.1952    0.0428    0.0000 C   0  0  0  0  0  0  0  0  0  0  0  0
    2.8469    1.6893    0.0000 C   0  0  0  0  0  0  0  0  0  0  0  0
    1.8351    2.6840    0.0000 C   0  0  0  0  0  0  0  0  0  0  0  0
   -2.9327    0.4373    0.0000 C   0  0  3  0  0  0  0  0  0  0  0  0
   -0.0514   -2.0494    0.0000 C   0  0  0  0  0  0  0  0  0  0  0  0
    0.6517   -0.8146    0.0000 C   0  0  0  0  0  0  0  0  0  0  0  0
    1.3548   -2.0323    0.0000 C   0  0  0  0  0  0  0  0  0  0  0  0
   -2.8983    1.2434    0.0000 C   0  0  3  0  0  0  0  0  0  0  0  0
    0.6689   -2.4610    0.0000 C   0  0  0  0  0  0  0  0  0  0  0  0
    1.3720   -1.2262    0.0000 C   0  0  0  0  0  0  0  0  0  0  0  0
    3.4129    2.2552    0.0000 C   0  0  0  0  0  0  0  0  0  0  0  0
    2.4181    3.2671    0.0000 C   0  0  0  0  0  0  0  0  0  0  0  0
    3.2071    3.0613    0.0000 C   0  0  0  0  0  0  0  0  0  0  0  0
   -3.6359    1.6379    0.0000 C   0  0  0  0  0  0  0  0  0  0  0  0
    2.1095   -3.2671    0.0000 C   0  0  0  0  0  0  0  0  0  0  0  0
  1 10  1  0  0  0  0
  1 12  1  0  0  0  0
  2 11  2  0  0  0  0
  3 16  2  0  0  0  0
  4 21  2  0  0  0  0
  5 27  1  0  0  0  0
  5 35  1  0  0  0  0
 28  6  1  6  0  0  0
 13  7  1  1  0  0  0
  7 16  1  0  0  0  0
 17  8  1  6  0  0  0
  8 21  1  0  0  0  0
 24  9  1  1  0  0  0
 10 11  1  1  0  0  0
 10 12  1  0  0  0  0
 10 14  1  6  0  0  0
 11 13  1  0  0  0  0
 13 15  1  0  0  0  0
 15 18  1  0  0  0  0
 16 17  1  0  0  0  0
 17 19  1  0  0  0  0
 18 22  2  0  0  0  0
 18 23  1  0  0  0  0
 19 20  1  0  0  0  0
 20 25  2  0  0  0  0
 20 26  1  0  0  0  0
 21 24  1  0  0  0  0
 22 31  1  0  0  0  0
 23 32  2  0  0  0  0
 24 28  1  0  0  0  0
 25 29  1  0  0  0  0
 26 30  2  0  0  0  0
 27 29  2  0  0  0  0
 27 30  1  0  0  0  0
 28 34  1  0  0  0  0
 31 33  2  0  0  0  0
 32 33  1  0  0  0  0
M  END
> <PUBCHEM_COMPOUND_ID_TYPE>
0

> <PUBCHEM_TOTAL_CHARGE>
0

> <PUBCHEM_SUBSTANCE_ID>
310941413

> <PUBCHEM_SUBSTANCE_VERSION>
1

> <PUBCHEM_EXT_DATASOURCE_NAME>
4488

> <PUBCHEM_EXT_DATASOURCE_REGID>
SCHEMBL16119373

> <PUBCHEM_SUBSTANCE_COMMENT>
InChI=1S/C26H33N3O6/c1-16(30)22(27)25(33)29-21(14-18-9-11-19(34-3)12-10-18)24(32)28-20(23(31)26(2)15-35-26)13-17-7-5-4-6-8-17/h4-12,16,20-22,30H,13-15,27H2,1-3H3,(H,28,32)(H,29,33)/t16-,20-,21-,22-,26+/m0/s1
InChIKey=QTCVVIHNVHJXLW-OJDLOEHOSA-N

> <PUBCHEM_SUBSTANCE_SYNONYM>
SCHEMBL16119373

> <PUBCHEM_XREF_EXT_ID>
SCHEMBL16119373

> <PUBCHEM_EXT_DATASOURCE_URL>
https://www.surechembl.org/

> <PUBCHEM_EXT_SUBSTANCE_URL>
https://www.surechembl.org/chemical/SCHEMBL16119373

> <PUBCHEM_CID_ASSOCIATIONS>
117608238  1

> <PUBCHEM_COORDINATE_TYPE>
1
3

> <PUBCHEM_BONDANNOTATIONS>
10  11  5
10  14  6
28  6  6
13  7  5
17  8  6
24  9  5

$$$$
