310929554
  -OEChem-07211613022D

 69 77  0     1  0  0  0  0  0999 V2000
    1.3702  -10.2770    0.0000 S   0  0  0  0  0  0  0  0  0  0  0  0
    2.9461   -9.8659    0.0000 O   0  0  0  0  0  0  0  0  0  0  0  0
    1.9184   -9.7289    0.0000 O   0  0  0  0  0  0  0  0  0  0  0  0
    0.7537  -10.8936    0.0000 O   0  0  0  0  0  0  0  0  0  0  0  0
    3.5627   -9.6603    0.0000 O   0  0  0  0  0  0  0  0  0  0  0  0
    5.0700   -7.5365    0.0000 O   0  0  0  0  0  0  0  0  0  0  0  0
    5.6181  -11.7157    0.0000 O   0  0  0  0  0  0  0  0  0  0  0  0
    7.0568   -5.2755    0.0000 O   0  0  0  0  0  0  0  0  0  0  0  0
    8.9753  -10.4825    0.0000 O   0  0  0  0  0  0  0  0  0  0  0  0
    8.7012  -11.7157    0.0000 O   0  0  0  0  0  0  0  0  0  0  0  0
    6.3717   -1.6443    0.0000 O   0  0  0  0  0  0  0  0  0  0  0  0
    7.8105   -1.6443    0.0000 O   0  0  0  0  0  0  0  0  0  0  0  0
    4.0423  -10.9621    0.0000 N   0  0  0  0  0  0  0  0  0  0  0  0
    1.9184  -10.8936    0.0000 N   0  0  0  0  0  0  0  0  0  0  0  0
    5.2755  -10.4825    0.0000 N   0  0  0  0  0  0  0  0  0  0  0  0
    4.9329   -6.5088    0.0000 N   0  0  0  0  0  0  0  0  0  0  0  0
    7.5365  -11.3047    0.0000 N   0  0  0  0  0  0  0  0  0  0  0  0
    7.0568   -2.8090    0.0000 N   0  0  0  0  0  0  0  0  0  0  0  0
    3.2886  -11.2362    0.0000 C   0  0  3  0  0  0  0  0  0  0  0  0
    3.2886  -12.0583    0.0000 C   0  0  3  0  0  0  0  0  0  0  0  0
    2.6035  -11.7157    0.0000 C   0  0  0  0  0  0  0  0  0  0  0  0
    2.7405  -10.6880    0.0000 C   0  0  0  0  0  0  0  0  0  0  0  0
    0.8222   -9.7289    0.0000 C   0  0  0  0  0  0  0  0  0  0  0  0
    4.1793  -10.1400    0.0000 C   0  0  0  0  0  0  0  0  0  0  0  0
    3.6997  -12.7434    0.0000 C   0  0  0  0  0  0  0  0  0  0  0  0
    0.0000   -9.5233    0.0000 C   0  0  0  0  0  0  0  0  0  0  0  0
    0.6166   -8.9067    0.0000 C   0  0  0  0  0  0  0  0  0  0  0  0
    4.9329   -9.8659    0.0000 C   0  0  3  0  0  0  0  0  0  0  0  0
    0.4111  -10.4140    0.0000 C   0  0  0  0  0  0  0  0  0  0  0  0
    4.7274   -9.0438    0.0000 C   0  0  0  0  0  0  0  0  0  0  0  0
    4.7274   -8.2901    0.0000 C   0  0  3  0  0  0  0  0  0  0  0  0
    4.3849   -9.5233    0.0000 C   0  0  0  0  0  0  0  0  0  0  0  0
    5.9606  -10.9621    0.0000 C   0  0  0  0  0  0  0  0  0  0  0  0
    4.5219  -12.7434    0.0000 C   0  0  0  0  0  0  0  0  0  0  0  0
    5.6866   -6.9198    0.0000 C   0  0  0  0  0  0  0  0  0  0  0  0
    6.7828  -11.2362    0.0000 C   0  0  3  0  0  0  0  0  0  0  0  0
    6.3032   -6.5773    0.0000 C   0  0  0  0  0  0  0  0  0  0  0  0
    6.3717   -5.6866    0.0000 C   0  0  0  0  0  0  0  0  0  0  0  0
    5.6181   -5.3440    0.0000 C   0  0  0  0  0  0  0  0  0  0  0  0
    5.0014   -5.6866    0.0000 C   0  0  0  0  0  0  0  0  0  0  0  0
    6.5773  -12.0583    0.0000 C   0  0  0  0  0  0  0  0  0  0  0  0
    7.1939   -6.4402    0.0000 C   0  0  0  0  0  0  0  0  0  0  0  0
    5.6866   -4.4534    0.0000 C   0  0  0  0  0  0  0  0  0  0  0  0
    4.2478   -5.2755    0.0000 C   0  0  0  0  0  0  0  0  0  0  0  0
    8.2901  -10.9621    0.0000 C   0  0  0  0  0  0  0  0  0  0  0  0
    7.0568   -4.4534    0.0000 C   0  0  0  0  0  0  0  0  0  0  0  0
    7.1939  -12.6064    0.0000 C   0  0  0  0  0  0  0  0  0  0  0  0
    5.8236  -12.3324    0.0000 C   0  0  0  0  0  0  0  0  0  0  0  0
    9.3863   -9.8659    0.0000 C   0  0  3  0  0  0  0  0  0  0  0  0
    9.5233   -9.0438    0.0000 C   0  0  3  0  0  0  0  0  0  0  0  0
    4.9329   -4.0423    0.0000 C   0  0  0  0  0  0  0  0  0  0  0  0
    4.3164   -4.3849    0.0000 C   0  0  0  0  0  0  0  0  0  0  0  0
    7.9475   -6.5088    0.0000 C   0  0  0  0  0  0  0  0  0  0  0  0
   10.2085   -9.5918    0.0000 C   0  0  0  0  0  0  0  0  0  0  0  0
    7.0568  -13.4286    0.0000 C   0  0  0  0  0  0  0  0  0  0  0  0
    5.6866  -13.1545    0.0000 C   0  0  0  0  0  0  0  0  0  0  0  0
    7.8105   -4.0423    0.0000 C   0  0  0  0  0  0  0  0  0  0  0  0
    6.3717   -4.0423    0.0000 C   0  0  0  0  0  0  0  0  0  0  0  0
    9.5233   -8.2216    0.0000 C   0  0  0  0  0  0  0  0  0  0  0  0
    6.3032  -13.7026    0.0000 C   0  0  0  0  0  0  0  0  0  0  0  0
    8.6327   -6.9198    0.0000 C   0  0  0  0  0  0  0  0  0  0  0  0
    7.8105   -3.2201    0.0000 C   0  0  0  0  0  0  0  0  0  0  0  0
    6.3717   -3.2201    0.0000 C   0  0  0  0  0  0  0  0  0  0  0  0
    9.1808   -7.5365    0.0000 C   0  0  0  0  0  0  0  0  0  0  0  0
    7.0568   -2.0554    0.0000 C   0  0  0  0  0  0  0  0  0  0  0  0
    6.3717   -0.8222    0.0000 C   0  0  0  0  0  0  0  0  0  0  0  0
    7.1939   -0.8222    0.0000 C   0  0  0  0  0  0  0  0  0  0  0  0
    6.3717    0.0000    0.0000 C   0  0  0  0  0  0  0  0  0  0  0  0
    5.5496   -0.8222    0.0000 C   0  0  0  0  0  0  0  0  0  0  0  0
  1  3  2  0  0  0  0
  1  4  2  0  0  0  0
  1 14  1  0  0  0  0
  1 23  1  0  0  0  0
  2 22  2  0  0  0  0
  5 24  2  0  0  0  0
  6 31  1  0  0  0  0
  6 35  1  0  0  0  0
  7 33  2  0  0  0  0
  8 38  1  0  0  0  0
  8 46  1  0  0  0  0
  9 45  1  0  0  0  0
  9 49  1  0  0  0  0
 10 45  2  0  0  0  0
 11 65  1  0  0  0  0
 11 66  1  0  0  0  0
 12 65  2  0  0  0  0
 19 13  1  1  0  0  0
 13 24  1  0  0  0  0
 14 22  1  0  0  0  0
 15 28  1  0  0  0  0
 15 32  1  0  0  0  0
 15 33  1  0  0  0  0
 16 35  1  0  0  0  0
 16 40  2  0  0  0  0
 17 36  1  0  0  0  0
 17 45  1  0  0  0  0
 18 62  1  0  0  0  0
 18 63  1  0  0  0  0
 18 65  1  0  0  0  0
 19 20  1  0  0  0  0
 19 21  1  0  0  0  0
 19 22  1  6  0  0  0
 20 21  1  0  0  0  0
 20 25  1  6  0  0  0
 23 26  1  0  0  0  0
 23 27  1  0  0  0  0
 23 29  1  0  0  0  0
 28 24  1  6  0  0  0
 25 34  2  0  0  0  0
 26 27  1  0  0  0  0
 28 30  1  0  0  0  0
 31 30  1  1  0  0  0
 31 32  1  0  0  0  0
 36 33  1  1  0  0  0
 35 37  2  0  0  0  0
 36 41  1  0  0  0  0
 37 38  1  0  0  0  0
 37 42  1  0  0  0  0
 38 39  2  0  0  0  0
 39 40  1  0  0  0  0
 39 43  1  0  0  0  0
 40 44  1  0  0  0  0
 41 47  1  0  0  0  0
 41 48  1  0  0  0  0
 42 53  1  0  0  0  0
 43 51  2  0  0  0  0
 44 52  2  0  0  0  0
 46 57  1  0  0  0  0
 46 58  1  0  0  0  0
 47 55  1  0  0  0  0
 48 56  1  0  0  0  0
 49 50  1  0  0  0  0
 49 54  1  1  0  0  0
 50 54  1  6  0  0  0
 50 59  1  0  0  0  0
 51 52  1  0  0  0  0
 53 61  1  0  0  0  0
 55 60  1  0  0  0  0
 56 60  1  0  0  0  0
 57 62  1  0  0  0  0
 58 63  1  0  0  0  0
 59 64  1  0  0  0  0
 61 64  1  0  0  0  0
 66 67  1  0  0  0  0
 66 68  1  0  0  0  0
 66 69  1  0  0  0  0
M  END
> <PUBCHEM_COMPOUND_ID_TYPE>
0

> <PUBCHEM_TOTAL_CHARGE>
0

> <PUBCHEM_SUBSTANCE_ID>
310929554

> <PUBCHEM_SUBSTANCE_VERSION>
1

> <PUBCHEM_EXT_DATASOURCE_NAME>
4488

> <PUBCHEM_EXT_DATASOURCE_REGID>
SCHEMBL16106735

> <PUBCHEM_SUBSTANCE_COMMENT>
InChI=1S/C51H70N6O11S/c1-6-33-29-51(33,46(60)55-69(63,64)50(5)23-24-50)54-43(58)39-28-35-30-57(39)45(59)41(31-15-9-7-10-16-31)53-47(61)67-40-27-32(40)17-11-8-12-19-37-42(36-18-13-14-20-38(36)52-44(37)66-35)65-34-21-25-56(26-22-34)48(62)68-49(2,3)4/h6,13-14,18,20,31-35,39-41H,1,7-12,15-17,19,21-30H2,2-5H3,(H,53,61)(H,54,58)(H,55,60)/t32-,33-,35-,39+,40-,41+,51-/m1/s1
InChIKey=VIEYATVGDANFPT-GRZCADDISA-N

> <PUBCHEM_SUBSTANCE_SYNONYM>
SCHEMBL16106735

> <PUBCHEM_XREF_EXT_ID>
SCHEMBL16106735

> <PUBCHEM_EXT_DATASOURCE_URL>
https://www.surechembl.org/

> <PUBCHEM_EXT_SUBSTANCE_URL>
https://www.surechembl.org/chemical/SCHEMBL16106735

> <PUBCHEM_CID_ASSOCIATIONS>
76325272  1

> <PUBCHEM_COORDINATE_TYPE>
1
3

> <PUBCHEM_BONDANNOTATIONS>
19  13  5
19  22  6
20  25  6
28  24  6
31  30  5
36  33  5
49  54  5
50  54  6

$$$$
