310940232
  -OEChem-07211613022D

 19 21  0     0  0  0  0  0  0999 V2000
    2.5868   -0.7698    0.0000 F   0  0  0  0  0  0  0  0  0  0  0  0
   -1.1578    1.0717    0.0000 N   0  0  0  0  0  0  0  0  0  0  0  0
   -0.3732    1.3267    0.0000 N   0  0  0  0  0  0  0  0  0  0  0  0
    2.1743    1.3737    0.0000 N   0  0  0  0  0  0  0  0  0  0  0  0
    0.1117    0.6592    0.0000 C   0  0  0  0  0  0  0  0  0  0  0  0
   -0.3732   -0.0082    0.0000 C   0  0  0  0  0  0  0  0  0  0  0  0
    0.9368    0.6592    0.0000 C   0  0  0  0  0  0  0  0  0  0  0  0
   -1.1578    0.2467    0.0000 C   0  0  0  0  0  0  0  0  0  0  0  0
    1.3493   -0.0553    0.0000 C   0  0  0  0  0  0  0  0  0  0  0  0
    2.1743   -0.0553    0.0000 C   0  0  0  0  0  0  0  0  0  0  0  0
    1.3493    1.3737    0.0000 C   0  0  0  0  0  0  0  0  0  0  0  0
   -1.8723   -0.1658    0.0000 C   0  0  0  0  0  0  0  0  0  0  0  0
   -1.8723    1.4843    0.0000 C   0  0  0  0  0  0  0  0  0  0  0  0
   -0.1597   -0.8051    0.0000 C   0  0  0  0  0  0  0  0  0  0  0  0
    2.5868    0.6592    0.0000 C   0  0  0  0  0  0  0  0  0  0  0  0
    0.9368   -0.7698    0.0000 C   0  0  0  0  0  0  0  0  0  0  0  0
   -2.5868    0.2467    0.0000 C   0  0  0  0  0  0  0  0  0  0  0  0
   -2.5868    1.0717    0.0000 C   0  0  0  0  0  0  0  0  0  0  0  0
    1.3493   -1.4843    0.0000 C   0  0  0  0  0  0  0  0  0  0  0  0
  1 10  1  0  0  0  0
  2  3  1  0  0  0  0
  2  8  1  0  0  0  0
  2 13  1  0  0  0  0
  3  5  2  0  0  0  0
  4 11  2  0  0  0  0
  4 15  1  0  0  0  0
  5  6  1  0  0  0  0
  5  7  1  0  0  0  0
  6  8  2  0  0  0  0
  6 14  1  0  0  0  0
  7  9  2  0  0  0  0
  7 11  1  0  0  0  0
  8 12  1  0  0  0  0
  9 10  1  0  0  0  0
  9 16  1  0  0  0  0
 10 15  2  0  0  0  0
 12 17  2  0  0  0  0
 13 18  2  0  0  0  0
 16 19  1  0  0  0  0
 17 18  1  0  0  0  0
M  END
> <PUBCHEM_COMPOUND_ID_TYPE>
0

> <PUBCHEM_TOTAL_CHARGE>
0

> <PUBCHEM_SUBSTANCE_ID>
310940232

> <PUBCHEM_SUBSTANCE_VERSION>
1

> <PUBCHEM_EXT_DATASOURCE_NAME>
4488

> <PUBCHEM_EXT_DATASOURCE_REGID>
SCHEMBL16118166

> <PUBCHEM_SUBSTANCE_COMMENT>
InChI=1S/C15H14FN3/c1-3-11-12(8-17-9-13(11)16)15-10(2)14-6-4-5-7-19(14)18-15/h4-9H,3H2,1-2H3
InChIKey=ZNDADGNMZOHKLB-UHFFFAOYSA-N

> <PUBCHEM_SUBSTANCE_SYNONYM>
SCHEMBL16118166

> <PUBCHEM_XREF_EXT_ID>
SCHEMBL16118166

> <PUBCHEM_EXT_DATASOURCE_URL>
https://www.surechembl.org/

> <PUBCHEM_EXT_SUBSTANCE_URL>
https://www.surechembl.org/chemical/SCHEMBL16118166

> <PUBCHEM_CID_ASSOCIATIONS>
117607325  1

> <PUBCHEM_COORDINATE_TYPE>
1
3

$$$$
