310942199
  -OEChem-07211613022D

 25 26  0     1  0  0  0  0  0999 V2000
    1.7810    1.4447    0.0000 Cl  0  0  0  0  0  0  0  0  0  0  0  0
    0.3488   -1.0462    0.0000 F   0  0  0  0  0  0  0  0  0  0  0  0
    1.7810   -0.2117    0.0000 O   0  0  0  0  0  0  0  0  0  0  0  0
   -3.2133    0.2242    0.0000 O   0  0  0  0  0  0  0  0  0  0  0  0
   -1.8059    0.1993    0.0000 N   0  0  0  0  0  0  0  0  0  0  0  0
    3.2382   -0.2117    0.0000 N   0  0  0  0  0  0  0  0  0  0  0  0
   -3.9481    1.4572    0.0000 N   0  0  0  0  0  0  0  0  0  0  0  0
    1.0587    0.2117    0.0000 C   0  0  0  0  0  0  0  0  0  0  0  0
    0.3363   -0.1993    0.0000 C   0  0  0  0  0  0  0  0  0  0  0  0
   -0.3736    0.2117    0.0000 C   0  0  0  0  0  0  0  0  0  0  0  0
    1.0711    1.0462    0.0000 C   0  0  0  0  0  0  0  0  0  0  0  0
   -1.0836   -0.1993    0.0000 C   0  0  3  0  0  0  0  0  0  0  0  0
   -0.3612    1.0337    0.0000 C   0  0  0  0  0  0  0  0  0  0  0  0
    0.3363    1.4323    0.0000 C   0  0  0  0  0  0  0  0  0  0  0  0
    2.4909    0.2117    0.0000 C   0  0  0  0  0  0  0  0  0  0  0  0
   -1.0836   -1.0462    0.0000 C   0  0  0  0  0  0  0  0  0  0  0  0
   -1.8059    1.0462    0.0000 C   0  0  3  0  0  0  0  0  0  0  0  0
    2.5159    1.0462    0.0000 C   0  0  0  0  0  0  0  0  0  0  0  0
    3.9481    0.1993    0.0000 C   0  0  0  0  0  0  0  0  0  0  0  0
    3.2133    1.4447    0.0000 C   0  0  0  0  0  0  0  0  0  0  0  0
   -2.5283    1.4447    0.0000 C   0  0  0  0  0  0  0  0  0  0  0  0
    3.9481    1.0337    0.0000 C   0  0  0  0  0  0  0  0  0  0  0  0
   -0.3736   -1.4572    0.0000 C   0  0  0  0  0  0  0  0  0  0  0  0
   -1.0836    1.4447    0.0000 C   0  0  0  0  0  0  0  0  0  0  0  0
   -3.2382    1.0337    0.0000 C   0  0  0  0  0  0  0  0  0  0  0  0
  1 11  1  0  0  0  0
  2  9  1  0  0  0  0
  3  8  1  0  0  0  0
  3 15  1  0  0  0  0
  4 25  2  0  0  0  0
 12  5  1  1  0  0  0
  5 17  1  0  0  0  0
  6 15  2  0  0  0  0
  6 19  1  0  0  0  0
  7 25  1  0  0  0  0
  8  9  2  0  0  0  0
  8 11  1  0  0  0  0
  9 10  1  0  0  0  0
 10 12  1  0  0  0  0
 10 13  2  0  0  0  0
 11 14  2  0  0  0  0
 12 16  1  0  0  0  0
 13 14  1  0  0  0  0
 15 18  1  0  0  0  0
 16 23  1  0  0  0  0
 17 21  1  0  0  0  0
 17 24  1  1  0  0  0
 18 20  2  0  0  0  0
 19 22  2  0  0  0  0
 20 22  1  0  0  0  0
 21 25  1  0  0  0  0
M  END
> <PUBCHEM_COMPOUND_ID_TYPE>
0

> <PUBCHEM_TOTAL_CHARGE>
0

> <PUBCHEM_SUBSTANCE_ID>
310942199

> <PUBCHEM_SUBSTANCE_VERSION>
1

> <PUBCHEM_EXT_DATASOURCE_NAME>
4488

> <PUBCHEM_EXT_DATASOURCE_REGID>
SCHEMBL16120234

> <PUBCHEM_SUBSTANCE_COMMENT>
InChI=1S/C18H21ClFN3O2/c1-3-14(23-11(2)10-15(21)24)12-7-8-13(19)18(17(12)20)25-16-6-4-5-9-22-16/h4-9,11,14,23H,3,10H2,1-2H3,(H2,21,24)/t11-,14-/m1/s1
InChIKey=MJSVYILPYCBFJQ-BXUZGUMPSA-N

> <PUBCHEM_SUBSTANCE_SYNONYM>
SCHEMBL16120234

> <PUBCHEM_XREF_EXT_ID>
SCHEMBL16120234

> <PUBCHEM_EXT_DATASOURCE_URL>
https://www.surechembl.org/

> <PUBCHEM_EXT_SUBSTANCE_URL>
https://www.surechembl.org/chemical/SCHEMBL16120234

> <PUBCHEM_CID_ASSOCIATIONS>
117608850  1

> <PUBCHEM_COORDINATE_TYPE>
1
3

> <PUBCHEM_BONDANNOTATIONS>
17  24  5
12  5  5

$$$$
