310936019
  -OEChem-07211613022D

 26 28  0     1  0  0  0  0  0999 V2000
    4.9499   -2.8500    0.0000 O   0  0  0  0  0  0  0  0  0  0  0  0
    4.9499    0.0000    0.0000 O   0  0  0  0  0  0  0  0  0  0  0  0
    6.1749   -0.7250    0.0000 O   0  0  0  0  0  0  0  0  0  0  0  0
    4.9499   -1.4250    0.0000 N   0  0  0  0  0  0  0  0  0  0  0  0
    3.6999   -2.1500    0.0000 C   0  0  3  0  0  0  0  0  0  0  0  0
    2.8749   -2.1500    0.0000 C   0  0  0  0  0  0  0  0  0  0  0  0
    4.1249   -2.8500    0.0000 C   0  0  3  0  0  0  0  0  0  0  0  0
    1.6500   -1.4500    0.0000 C   0  0  0  0  0  0  0  0  0  0  0  0
    2.4499   -1.4250    0.0000 C   0  0  0  0  0  0  0  0  0  0  0  0
    1.2500   -2.1500    0.0000 C   0  0  0  0  0  0  0  0  0  0  0  0
    3.6999   -3.5749    0.0000 C   0  0  0  0  0  0  0  0  0  0  0  0
    2.4749   -2.8500    0.0000 C   0  0  0  0  0  0  0  0  0  0  0  0
    4.1249   -1.4250    0.0000 C   0  0  0  0  0  0  0  0  0  0  0  0
    1.6500   -2.8500    0.0000 C   0  0  0  0  0  0  0  0  0  0  0  0
    1.2500   -0.7250    0.0000 C   0  0  0  0  0  0  0  0  0  0  0  0
    0.4250   -2.1500    0.0000 C   0  0  0  0  0  0  0  0  0  0  0  0
    4.1249   -4.2999    0.0000 C   0  0  0  0  0  0  0  0  0  0  0  0
    2.8749   -3.5749    0.0000 C   0  0  0  0  0  0  0  0  0  0  0  0
    0.4000   -0.7250    0.0000 C   0  0  0  0  0  0  0  0  0  0  0  0
    5.3499   -0.7250    0.0000 C   0  0  0  0  0  0  0  0  0  0  0  0
    0.0000   -1.4250    0.0000 C   0  0  0  0  0  0  0  0  0  0  0  0
    3.6999   -4.9999    0.0000 C   0  0  0  0  0  0  0  0  0  0  0  0
    2.4749   -4.2749    0.0000 C   0  0  0  0  0  0  0  0  0  0  0  0
    2.8749   -4.9999    0.0000 C   0  0  0  0  0  0  0  0  0  0  0  0
    5.5249   -2.3000    0.0000 C   0  0  0  0  0  0  0  0  0  0  0  0
    5.3499   -2.1500    0.0000 C   0  0  0  0  0  0  0  0  0  0  0  0
  7  1  1  6  0  0  0
  1 26  1  0  0  0  0
  2 20  2  0  0  0  0
  3 20  1  0  0  0  0
  4 13  1  0  0  0  0
  4 20  1  0  0  0  0
  4 25  1  0  0  0  0
  5  6  1  0  0  0  0
  5  7  1  0  0  0  0
  5 13  1  1  0  0  0
  6  9  2  0  0  0  0
  6 12  1  0  0  0  0
  7 11  1  0  0  0  0
  8  9  1  0  0  0  0
  8 10  2  0  0  0  0
  8 15  1  0  0  0  0
 10 14  1  0  0  0  0
 10 16  1  0  0  0  0
 11 17  2  0  0  0  0
 11 18  1  0  0  0  0
 12 14  2  0  0  0  0
 15 19  2  0  0  0  0
 16 21  2  0  0  0  0
 17 22  1  0  0  0  0
 18 23  2  0  0  0  0
 19 21  1  0  0  0  0
 22 24  2  0  0  0  0
 23 24  1  0  0  0  0
M  END
> <PUBCHEM_COMPOUND_ID_TYPE>
0

> <PUBCHEM_TOTAL_CHARGE>
0

> <PUBCHEM_SUBSTANCE_ID>
310936019

> <PUBCHEM_SUBSTANCE_VERSION>
1

> <PUBCHEM_EXT_DATASOURCE_NAME>
4488

> <PUBCHEM_EXT_DATASOURCE_REGID>
SCHEMBL16113622

> <PUBCHEM_SUBSTANCE_COMMENT>
InChI=1S/C22H23NO3/c1-23(22(24)25)15-20(21(26-2)17-9-4-3-5-10-17)19-13-12-16-8-6-7-11-18(16)14-19/h3-14,20-21H,15H2,1-2H3,(H,24,25)/t20-,21-/m1/s1
InChIKey=DLSMQZWVUGREEB-NHCUHLMSSA-N

> <PUBCHEM_SUBSTANCE_SYNONYM>
SCHEMBL16113622

> <PUBCHEM_XREF_EXT_ID>
SCHEMBL16113622

> <PUBCHEM_EXT_DATASOURCE_URL>
https://www.surechembl.org/

> <PUBCHEM_EXT_SUBSTANCE_URL>
https://www.surechembl.org/chemical/SCHEMBL16113622

> <PUBCHEM_CID_ASSOCIATIONS>
117603988  1

> <PUBCHEM_COORDINATE_TYPE>
1
3

> <PUBCHEM_BONDANNOTATIONS>
7  1  6
5  13  5

$$$$
