310932586
  -OEChem-07211613022D

 33 37  0     0  0  0  0  0  0999 V2000
    7.4252   -4.9831    0.0000 O   0  0  0  0  0  0  0  0  0  0  0  0
    9.0752   -4.9831    0.0000 O   0  0  0  0  0  0  0  0  0  0  0  0
    6.6002   -2.1451    0.0000 N   0  0  0  0  0  0  0  0  0  0  0  0
    7.8542   -1.4190    0.0000 N   0  0  0  0  0  0  0  0  0  0  0  0
    9.0752   -2.1451    0.0000 N   0  0  0  0  0  0  0  0  0  0  0  0
    4.9831   -2.1451    0.0000 N   0  0  0  0  0  0  0  0  0  0  0  0
    3.6961   -1.4190    0.0000 N   0  0  0  0  0  0  0  0  0  0  0  0
    3.6961   -2.8381    0.0000 N   0  0  0  0  0  0  0  0  0  0  0  0
    1.6501   -2.1451    0.0000 N   0  0  0  0  0  0  0  0  0  0  0  0
    7.8542   -2.8381    0.0000 C   0  0  0  0  0  0  0  0  0  0  0  0
    7.4252   -2.1451    0.0000 C   0  0  0  0  0  0  0  0  0  0  0  0
    8.6463   -2.8381    0.0000 C   0  0  0  0  0  0  0  0  0  0  0  0
    7.4252   -3.5311    0.0000 C   0  0  0  0  0  0  0  0  0  0  0  0
    7.8542   -4.2571    0.0000 C   0  0  0  0  0  0  0  0  0  0  0  0
    8.6463   -4.2571    0.0000 C   0  0  0  0  0  0  0  0  0  0  0  0
    9.0752   -3.5311    0.0000 C   0  0  0  0  0  0  0  0  0  0  0  0
    6.2042   -1.4190    0.0000 C   0  0  0  0  0  0  0  0  0  0  0  0
    6.2042   -2.8381    0.0000 C   0  0  0  0  0  0  0  0  0  0  0  0
    8.6463   -1.4190    0.0000 C   0  0  0  0  0  0  0  0  0  0  0  0
    4.1581   -2.1451    0.0000 C   0  0  0  0  0  0  0  0  0  0  0  0
    5.3792   -2.8381    0.0000 C   0  0  0  0  0  0  0  0  0  0  0  0
    5.3792   -1.4190    0.0000 C   0  0  0  0  0  0  0  0  0  0  0  0
    2.4751   -2.1451    0.0000 C   0  0  0  0  0  0  0  0  0  0  0  0
    2.9041   -1.4190    0.0000 C   0  0  0  0  0  0  0  0  0  0  0  0
    2.9041   -2.8381    0.0000 C   0  0  0  0  0  0  0  0  0  0  0  0
    1.2210   -1.4190    0.0000 C   0  0  0  0  0  0  0  0  0  0  0  0
    7.8542   -5.6762    0.0000 C   0  0  0  0  0  0  0  0  0  0  0  0
    9.9003   -4.9831    0.0000 C   0  0  0  0  0  0  0  0  0  0  0  0
    0.3960   -1.4190    0.0000 C   0  0  0  0  0  0  0  0  0  0  0  0
    1.6501   -0.6930    0.0000 C   0  0  0  0  0  0  0  0  0  0  0  0
    0.0000   -0.6930    0.0000 C   0  0  0  0  0  0  0  0  0  0  0  0
    1.2210    0.0000    0.0000 C   0  0  0  0  0  0  0  0  0  0  0  0
    0.4290    0.0000    0.0000 C   0  0  0  0  0  0  0  0  0  0  0  0
  1 14  1  0  0  0  0
  1 27  1  0  0  0  0
  2 15  1  0  0  0  0
  2 28  1  0  0  0  0
  3 11  1  0  0  0  0
  3 17  1  0  0  0  0
  3 18  1  0  0  0  0
  4 11  1  0  0  0  0
  4 19  2  0  0  0  0
  5 12  2  0  0  0  0
  5 19  1  0  0  0  0
  6 20  1  0  0  0  0
  6 21  1  0  0  0  0
  6 22  1  0  0  0  0
  7 20  2  0  0  0  0
  7 24  1  0  0  0  0
  8 20  1  0  0  0  0
  8 25  2  0  0  0  0
  9 23  1  0  0  0  0
  9 26  1  0  0  0  0
 10 11  2  0  0  0  0
 10 12  1  0  0  0  0
 10 13  1  0  0  0  0
 12 16  1  0  0  0  0
 13 14  2  0  0  0  0
 14 15  1  0  0  0  0
 15 16  2  0  0  0  0
 17 22  1  0  0  0  0
 18 21  1  0  0  0  0
 23 24  2  0  0  0  0
 23 25  1  0  0  0  0
 26 29  2  0  0  0  0
 26 30  1  0  0  0  0
 29 31  1  0  0  0  0
 30 32  2  0  0  0  0
 31 33  2  0  0  0  0
 32 33  1  0  0  0  0
M  END
> <PUBCHEM_COMPOUND_ID_TYPE>
0

> <PUBCHEM_TOTAL_CHARGE>
0

> <PUBCHEM_SUBSTANCE_ID>
310932586

> <PUBCHEM_SUBSTANCE_VERSION>
1

> <PUBCHEM_EXT_DATASOURCE_NAME>
4488

> <PUBCHEM_EXT_DATASOURCE_REGID>
SCHEMBL16109963

> <PUBCHEM_SUBSTANCE_COMMENT>
InChI=1S/C24H25N7O2/c1-32-21-12-19-20(13-22(21)33-2)27-16-28-23(19)30-8-10-31(11-9-30)24-25-14-18(15-26-24)29-17-6-4-3-5-7-17/h3-7,12-16,29H,8-11H2,1-2H3
InChIKey=XJMUYAWLYSATCP-UHFFFAOYSA-N

> <PUBCHEM_SUBSTANCE_SYNONYM>
SCHEMBL16109963

> <PUBCHEM_XREF_EXT_ID>
SCHEMBL16109963

> <PUBCHEM_EXT_DATASOURCE_URL>
https://www.surechembl.org/

> <PUBCHEM_EXT_SUBSTANCE_URL>
https://www.surechembl.org/chemical/SCHEMBL16109963

> <PUBCHEM_CID_ASSOCIATIONS>
117601108  1

> <PUBCHEM_COORDINATE_TYPE>
1
3

$$$$
