310939844
  -OEChem-07211613022D

 17 17  0     0  0  0  0  0  0999 V2000
   -3.5290   -1.0442    0.0000 S   0  0  0  0  0  0  0  0  0  0  0  0
   -0.4497   -0.2973    0.0000 O   0  0  0  0  0  0  0  0  0  0  0  0
    0.2821    0.9680    0.0000 O   0  0  0  0  0  0  0  0  0  0  0  0
    3.1632    0.1143    0.0000 O   0  0  0  0  0  0  0  0  0  0  0  0
    2.4467   -1.1205    0.0000 O   0  0  0  0  0  0  0  0  0  0  0  0
   -2.5991    0.1143    0.0000 N   0  0  0  0  0  0  0  0  0  0  0  0
   -2.6753    0.9680    0.0000 N   0  0  0  0  0  0  0  0  0  0  0  0
   -3.9101    0.4192    0.0000 N   0  0  0  0  0  0  0  0  0  0  0  0
   -3.4985    1.1205    0.0000 N   0  0  0  0  0  0  0  0  0  0  0  0
   -3.3308   -0.1753    0.0000 C   0  0  0  0  0  0  0  0  0  0  0  0
   -1.8827   -0.2668    0.0000 C   0  0  0  0  0  0  0  0  0  0  0  0
   -1.1814    0.1295    0.0000 C   0  0  0  0  0  0  0  0  0  0  0  0
    0.2668    0.1143    0.0000 C   0  0  0  0  0  0  0  0  0  0  0  0
    1.0290   -0.2668    0.0000 C   0  0  0  0  0  0  0  0  0  0  0  0
    1.7150    0.1295    0.0000 C   0  0  0  0  0  0  0  0  0  0  0  0
    2.4467   -0.2515    0.0000 C   0  0  0  0  0  0  0  0  0  0  0  0
    3.9101   -0.2515    0.0000 C   0  0  0  0  0  0  0  0  0  0  0  0
  1 10  2  0  0  0  0
  2 12  1  0  0  0  0
  2 13  1  0  0  0  0
  3 13  2  0  0  0  0
  4 16  1  0  0  0  0
  4 17  1  0  0  0  0
  5 16  2  0  0  0  0
  6  7  1  0  0  0  0
  6 10  1  0  0  0  0
  6 11  1  0  0  0  0
  7  9  1  0  0  0  0
  8  9  1  0  0  0  0
  8 10  1  0  0  0  0
 11 12  1  0  0  0  0
 13 14  1  0  0  0  0
 14 15  2  0  0  0  0
 15 16  1  0  0  0  0
M  END
> <PUBCHEM_COMPOUND_ID_TYPE>
0

> <PUBCHEM_TOTAL_CHARGE>
0

> <PUBCHEM_SUBSTANCE_ID>
310939844

> <PUBCHEM_SUBSTANCE_VERSION>
1

> <PUBCHEM_EXT_DATASOURCE_NAME>
4488

> <PUBCHEM_EXT_DATASOURCE_REGID>
SCHEMBL16117774

> <PUBCHEM_SUBSTANCE_COMMENT>
InChI=1S/C8H12N4O4S/c1-15-6(13)2-3-7(14)16-5-4-12-8(17)9-10-11-12/h2-3,10-11H,4-5H2,1H3,(H,9,17)/b3-2+
InChIKey=KMNDIDDXCRNYLH-NSCUHMNNSA-N

> <PUBCHEM_SUBSTANCE_SYNONYM>
SCHEMBL16117774

> <PUBCHEM_XREF_EXT_ID>
SCHEMBL16117774

> <PUBCHEM_EXT_DATASOURCE_URL>
https://www.surechembl.org/

> <PUBCHEM_EXT_SUBSTANCE_URL>
https://www.surechembl.org/chemical/SCHEMBL16117774

> <PUBCHEM_CID_ASSOCIATIONS>
117607061  1

> <PUBCHEM_COORDINATE_TYPE>
1
3

$$$$
