310947563
  -OEChem-07211613022D

 46 51  0     1  0  0  0  0  0999 V2000
   -1.4676  -11.6283    0.0000 P   0  0  3  0  0  0  0  0  0  0  0  0
    0.3385  -14.0806    0.0000 F   0  0  0  0  0  0  0  0  0  0  0  0
    1.1635  -12.0966    0.0000 O   0  0  0  0  0  0  0  0  0  0  0  0
    1.9885  -14.0806    0.0000 O   0  0  0  0  0  0  0  0  0  0  0  0
   -0.8842  -12.2117    0.0000 O   0  0  0  0  0  0  0  0  0  0  0  0
    3.3300   -9.4391    0.0000 O   0  0  0  0  0  0  0  0  0  0  0  0
   -2.0510  -11.0450    0.0000 O   0  0  0  0  0  0  0  0  0  0  0  0
   -0.8842  -11.0450    0.0000 O   0  0  0  0  0  0  0  0  0  0  0  0
   -2.7654  -14.2742    0.0000 O   0  0  0  0  0  0  0  0  0  0  0  0
   -3.4799  -13.0367    0.0000 O   0  0  0  0  0  0  0  0  0  0  0  0
    1.8309  -11.7565    0.0000 N   0  0  0  0  0  0  0  0  0  0  0  0
    1.8309  -10.4217    0.0000 N   0  0  0  0  0  0  0  0  0  0  0  0
    3.3300  -11.9141    0.0000 N   0  0  0  0  0  0  0  0  0  0  0  0
    4.0445  -10.6766    0.0000 N   0  0  0  0  0  0  0  0  0  0  0  0
   -2.0510  -12.2117    0.0000 N   0  0  0  0  0  0  0  0  0  0  0  0
    1.5760  -13.3662    0.0000 C   0  0  3  0  0  0  0  0  0  0  0  0
    1.8309  -12.5815    0.0000 C   0  0  3  0  0  0  0  0  0  0  0  0
    0.7510  -13.3662    0.0000 C   0  0  3  0  0  0  0  0  0  0  0  0
    2.6155  -11.5016    0.0000 C   0  0  0  0  0  0  0  0  0  0  0  0
    0.4960  -12.5815    0.0000 C   0  0  3  0  0  0  0  0  0  0  0  0
    2.6155  -10.6766    0.0000 C   0  0  0  0  0  0  0  0  0  0  0  0
    1.3460  -11.0891    0.0000 C   0  0  0  0  0  0  0  0  0  0  0  0
    3.3300  -10.2641    0.0000 C   0  0  0  0  0  0  0  0  0  0  0  0
    2.3728  -13.1526    0.0000 C   0  0  0  0  0  0  0  0  0  0  0  0
   -0.0873  -11.9982    0.0000 C   0  0  0  0  0  0  0  0  0  0  0  0
    4.0445  -11.5016    0.0000 C   0  0  0  0  0  0  0  0  0  0  0  0
   -2.0510  -10.2200    0.0000 C   0  0  0  0  0  0  0  0  0  0  0  0
   -2.7654   -9.8075    0.0000 C   0  0  0  0  0  0  0  0  0  0  0  0
    4.7589  -11.9141    0.0000 C   0  0  0  0  0  0  0  0  0  0  0  0
   -2.7654   -8.9825    0.0000 C   0  0  0  0  0  0  0  0  0  0  0  0
   -2.0510  -13.0367    0.0000 C   0  0  3  0  0  0  0  0  0  0  0  0
   -1.3365   -9.8075    0.0000 C   0  0  0  0  0  0  0  0  0  0  0  0
   -3.4799  -10.2200    0.0000 C   0  0  0  0  0  0  0  0  0  0  0  0
    4.0445   -9.0266    0.0000 C   0  0  0  0  0  0  0  0  0  0  0  0
   -2.0510   -8.5700    0.0000 C   0  0  0  0  0  0  0  0  0  0  0  0
   -2.7654  -13.4492    0.0000 C   0  0  0  0  0  0  0  0  0  0  0  0
   -1.3365   -8.9825    0.0000 C   0  0  0  0  0  0  0  0  0  0  0  0
   -3.4799   -8.5700    0.0000 C   0  0  0  0  0  0  0  0  0  0  0  0
   -4.1944   -9.8075    0.0000 C   0  0  0  0  0  0  0  0  0  0  0  0
   -4.1944   -8.9825    0.0000 C   0  0  0  0  0  0  0  0  0  0  0  0
   -1.3365  -13.4492    0.0000 C   0  0  0  0  0  0  0  0  0  0  0  0
   -3.4799  -14.6867    0.0000 C   0  0  0  0  0  0  0  0  0  0  0  0
   -3.4799  -15.5117    0.0000 C   0  0  0  0  0  0  0  0  0  0  0  0
   -4.2645  -14.4318    0.0000 C   0  0  0  0  0  0  0  0  0  0  0  0
   -4.7494  -15.0992    0.0000 C   0  0  0  0  0  0  0  0  0  0  0  0
   -4.2645  -15.7666    0.0000 C   0  0  0  0  0  0  0  0  0  0  0  0
  1  5  1  0  0  0  0
  1  7  1  0  0  0  0
  1  8  2  0  0  0  0
  1 15  1  0  0  0  0
 18  2  1  6  0  0  0
 17  3  1  6  0  0  0
  3 20  1  0  0  0  0
 16  4  1  6  0  0  0
  5 25  1  0  0  0  0
  6 23  1  0  0  0  0
  6 34  1  0  0  0  0
  7 27  1  0  0  0  0
  9 36  1  0  0  0  0
  9 42  1  0  0  0  0
 10 36  2  0  0  0  0
 11 17  1  0  0  0  0
 11 19  1  0  0  0  0
 11 22  1  0  0  0  0
 12 21  1  0  0  0  0
 12 22  2  0  0  0  0
 13 19  1  0  0  0  0
 13 26  2  0  0  0  0
 14 23  2  0  0  0  0
 14 26  1  0  0  0  0
 15 31  1  0  0  0  0
 16 17  1  0  0  0  0
 16 18  1  0  0  0  0
 16 24  1  1  0  0  0
 18 20  1  0  0  0  0
 19 21  2  0  0  0  0
 20 25  1  1  0  0  0
 21 23  1  0  0  0  0
 26 29  1  0  0  0  0
 27 28  1  0  0  0  0
 27 32  2  0  0  0  0
 28 30  2  0  0  0  0
 28 33  1  0  0  0  0
 30 35  1  0  0  0  0
 30 38  1  0  0  0  0
 31 36  1  0  0  0  0
 31 41  1  1  0  0  0
 32 37  1  0  0  0  0
 33 39  2  0  0  0  0
 35 37  2  0  0  0  0
 38 40  2  0  0  0  0
 39 40  1  0  0  0  0
 42 43  1  0  0  0  0
 42 44  1  0  0  0  0
 43 46  1  0  0  0  0
 44 45  1  0  0  0  0
 45 46  1  0  0  0  0
M  END
> <PUBCHEM_COMPOUND_ID_TYPE>
0

> <PUBCHEM_TOTAL_CHARGE>
0

> <PUBCHEM_SUBSTANCE_ID>
310947563

> <PUBCHEM_SUBSTANCE_VERSION>
1

> <PUBCHEM_EXT_DATASOURCE_NAME>
4488

> <PUBCHEM_EXT_DATASOURCE_REGID>
SCHEMBL16125726

> <PUBCHEM_SUBSTANCE_COMMENT>
InChI=1S/C31H37FN5O8P/c1-18(29(38)43-21-12-6-7-13-21)36-46(40,45-23-15-9-11-20-10-5-8-14-22(20)23)42-16-24-26(32)31(3,39)30(44-24)37-17-33-25-27(37)34-19(2)35-28(25)41-4/h5,8-11,14-15,17-18,21,24,26,30,39H,6-7,12-13,16H2,1-4H3,(H,36,40)/t18-,24+,26+,30+,31+,46?/m0/s1
InChIKey=DFMUCHBGEHQYDO-GTMPRHGJSA-N

> <PUBCHEM_SUBSTANCE_SYNONYM>
SCHEMBL16125726

> <PUBCHEM_XREF_EXT_ID>
SCHEMBL16125726

> <PUBCHEM_EXT_DATASOURCE_URL>
https://www.surechembl.org/

> <PUBCHEM_EXT_SUBSTANCE_URL>
https://www.surechembl.org/chemical/SCHEMBL16125726

> <PUBCHEM_CID_ASSOCIATIONS>
117613285  1

> <PUBCHEM_COORDINATE_TYPE>
1
3

> <PUBCHEM_BONDANNOTATIONS>
16  24  5
18  2  6
20  25  5
17  3  6
31  41  5
16  4  6

$$$$
