310946142
  -OEChem-07211613022D

 45 53  0     0  0  0  0  0  0999 V2000
    1.8090   -7.9355    0.0000 O   0  0  0  0  0  0  0  0  0  0  0  0
    0.8264   -9.4346    0.0000 N   0  0  0  0  0  0  0  0  0  0  0  0
   -1.6305  -11.0351    0.0000 C   0  0  0  0  0  0  0  0  0  0  0  0
   -0.8236  -10.8635    0.0000 C   0  0  0  0  0  0  0  0  0  0  0  0
   -0.4111  -11.5780    0.0000 C   0  0  0  0  0  0  0  0  0  0  0  0
   -1.7168  -11.8556    0.0000 C   0  0  0  0  0  0  0  0  0  0  0  0
   -0.9631  -12.1911    0.0000 C   0  0  0  0  0  0  0  0  0  0  0  0
    0.4139  -10.1491    0.0000 C   0  0  0  0  0  0  0  0  0  0  0  0
    1.6514   -9.4346    0.0000 C   0  0  0  0  0  0  0  0  0  0  0  0
   -0.4111  -10.1491    0.0000 C   0  0  0  0  0  0  0  0  0  0  0  0
    2.0639   -8.7201    0.0000 C   0  0  0  0  0  0  0  0  0  0  0  0
    2.8889   -8.7201    0.0000 C   0  0  0  0  0  0  0  0  0  0  0  0
    0.4139  -11.5780    0.0000 C   0  0  0  0  0  0  0  0  0  0  0  0
    3.1439   -7.9355    0.0000 C   0  0  0  0  0  0  0  0  0  0  0  0
    0.4139   -8.7201    0.0000 C   0  0  0  0  0  0  0  0  0  0  0  0
    0.8264  -10.8635    0.0000 C   0  0  0  0  0  0  0  0  0  0  0  0
    2.4764   -7.4506    0.0000 C   0  0  0  0  0  0  0  0  0  0  0  0
   -2.3842  -12.3405    0.0000 C   0  0  0  0  0  0  0  0  0  0  0  0
   -0.8769  -13.0116    0.0000 C   0  0  0  0  0  0  0  0  0  0  0  0
   -1.6305  -10.2101    0.0000 C   0  0  0  0  0  0  0  0  0  0  0  0
   -2.4555  -11.0351    0.0000 C   0  0  0  0  0  0  0  0  0  0  0  0
    2.0639  -10.1491    0.0000 C   0  0  0  0  0  0  0  0  0  0  0  0
    3.3014   -9.4346    0.0000 C   0  0  0  0  0  0  0  0  0  0  0  0
   -2.2980  -13.1610    0.0000 C   0  0  0  0  0  0  0  0  0  0  0  0
   -1.5443  -13.4965    0.0000 C   0  0  0  0  0  0  0  0  0  0  0  0
    2.8889  -10.1491    0.0000 C   0  0  0  0  0  0  0  0  0  0  0  0
    0.8264   -8.0057    0.0000 C   0  0  0  0  0  0  0  0  0  0  0  0
   -0.4111   -8.7201    0.0000 C   0  0  0  0  0  0  0  0  0  0  0  0
    3.8975   -7.6000    0.0000 C   0  0  0  0  0  0  0  0  0  0  0  0
    2.5627   -6.6301    0.0000 C   0  0  0  0  0  0  0  0  0  0  0  0
   -0.4111   -7.2912    0.0000 C   0  0  0  0  0  0  0  0  0  0  0  0
    0.4139   -7.2912    0.0000 C   0  0  0  0  0  0  0  0  0  0  0  0
   -0.8236   -8.0057    0.0000 C   0  0  0  0  0  0  0  0  0  0  0  0
   -0.8236   -6.5767    0.0000 C   0  0  0  0  0  0  0  0  0  0  0  0
    3.9838   -6.7795    0.0000 C   0  0  0  0  0  0  0  0  0  0  0  0
   -1.6486   -6.5767    0.0000 C   0  0  0  0  0  0  0  0  0  0  0  0
    3.3163   -6.2946    0.0000 C   0  0  0  0  0  0  0  0  0  0  0  0
   -2.0611   -5.8622    0.0000 C   0  0  0  0  0  0  0  0  0  0  0  0
   -0.4111   -5.8622    0.0000 C   0  0  0  0  0  0  0  0  0  0  0  0
   -2.0611   -7.2912    0.0000 C   0  0  0  0  0  0  0  0  0  0  0  0
   -1.6486   -5.1478    0.0000 C   0  0  0  0  0  0  0  0  0  0  0  0
   -0.8236   -5.1478    0.0000 C   0  0  0  0  0  0  0  0  0  0  0  0
   -2.8861   -5.8622    0.0000 C   0  0  0  0  0  0  0  0  0  0  0  0
   -2.8861   -7.2912    0.0000 C   0  0  0  0  0  0  0  0  0  0  0  0
   -3.2986   -6.5767    0.0000 C   0  0  0  0  0  0  0  0  0  0  0  0
  1 11  1  0  0  0  0
  1 17  1  0  0  0  0
  2  8  1  0  0  0  0
  2  9  1  0  0  0  0
  2 15  1  0  0  0  0
  3  4  1  0  0  0  0
  3  6  1  0  0  0  0
  3 20  1  0  0  0  0
  3 21  1  0  0  0  0
  4  5  2  0  0  0  0
  4 10  1  0  0  0  0
  5  7  1  0  0  0  0
  5 13  1  0  0  0  0
  6  7  2  0  0  0  0
  6 18  1  0  0  0  0
  7 19  1  0  0  0  0
  8 10  2  0  0  0  0
  8 16  1  0  0  0  0
  9 11  1  0  0  0  0
  9 22  2  0  0  0  0
 11 12  2  0  0  0  0
 12 14  1  0  0  0  0
 12 23  1  0  0  0  0
 13 16  2  0  0  0  0
 14 17  2  0  0  0  0
 14 29  1  0  0  0  0
 15 27  2  0  0  0  0
 15 28  1  0  0  0  0
 17 30  1  0  0  0  0
 18 24  2  0  0  0  0
 19 25  2  0  0  0  0
 22 26  1  0  0  0  0
 23 26  2  0  0  0  0
 24 25  1  0  0  0  0
 27 32  1  0  0  0  0
 28 33  2  0  0  0  0
 29 35  2  0  0  0  0
 30 37  2  0  0  0  0
 31 32  2  0  0  0  0
 31 33  1  0  0  0  0
 31 34  1  0  0  0  0
 34 36  1  0  0  0  0
 34 39  2  0  0  0  0
 35 37  1  0  0  0  0
 36 38  2  0  0  0  0
 36 40  1  0  0  0  0
 38 41  1  0  0  0  0
 38 43  1  0  0  0  0
 39 42  1  0  0  0  0
 40 44  2  0  0  0  0
 41 42  2  0  0  0  0
 43 45  2  0  0  0  0
 44 45  1  0  0  0  0
M  END
> <PUBCHEM_COMPOUND_ID_TYPE>
0

> <PUBCHEM_TOTAL_CHARGE>
0

> <PUBCHEM_SUBSTANCE_ID>
310946142

> <PUBCHEM_SUBSTANCE_VERSION>
1

> <PUBCHEM_EXT_DATASOURCE_NAME>
4488

> <PUBCHEM_EXT_DATASOURCE_REGID>
SCHEMBL16124251

> <PUBCHEM_SUBSTANCE_COMMENT>
InChI=1S/C43H31NO/c1-43(2)38-18-7-5-14-34(38)35-26-25-31(27-39(35)43)44(40-19-10-17-37-36-15-6-8-20-41(36)45-42(37)40)30-23-21-29(22-24-30)33-16-9-12-28-11-3-4-13-32(28)33/h3-27H,1-2H3
InChIKey=QZQUUIQTFJNPLD-UHFFFAOYSA-N

> <PUBCHEM_SUBSTANCE_SYNONYM>
SCHEMBL16124251

> <PUBCHEM_XREF_EXT_ID>
SCHEMBL16124251

> <PUBCHEM_EXT_DATASOURCE_URL>
https://www.surechembl.org/

> <PUBCHEM_EXT_SUBSTANCE_URL>
https://www.surechembl.org/chemical/SCHEMBL16124251

> <PUBCHEM_CID_ASSOCIATIONS>
117612099  1

> <PUBCHEM_COORDINATE_TYPE>
1
3

$$$$
