310928987
  -OEChem-07211613022D

 32 35  0     1  0  0  0  0  0999 V2000
   -4.5644   -0.3135    0.0000 Cl  0  0  0  0  0  0  0  0  0  0  0  0
   -3.1354   -2.7885    0.0000 Cl  0  0  0  0  0  0  0  0  0  0  0  0
    4.3344    2.7885    0.0000 O   0  0  0  0  0  0  0  0  0  0  0  0
   -0.9920   -0.7260    0.0000 O   0  0  0  0  0  0  0  0  0  0  0  0
   -1.7065    0.5115    0.0000 O   0  0  0  0  0  0  0  0  0  0  0  0
   -2.4209   -0.7260    0.0000 N   0  0  0  0  0  0  0  0  0  0  0  0
    2.5803    0.5115    0.0000 C   0  0  3  0  0  0  0  0  0  0  0  0
    3.2948    0.9240    0.0000 C   0  0  3  0  0  0  0  0  0  0  0  0
    1.8659    0.9240    0.0000 C   0  0  3  0  0  0  0  0  0  0  0  0
    3.2948    1.7490    0.0000 C   0  0  3  0  0  0  0  0  0  0  0  0
    1.1514    0.5115    0.0000 C   0  0  0  0  0  0  0  0  0  0  0  0
    4.0794    2.0039    0.0000 C   0  0  3  0  0  0  0  0  0  0  0  0
    1.8659    1.7490    0.0000 C   0  0  0  0  0  0  0  0  0  0  0  0
    4.0794    0.6690    0.0000 C   0  0  0  0  0  0  0  0  0  0  0  0
    2.5803    2.1615    0.0000 C   0  0  0  0  0  0  0  0  0  0  0  0
    2.5803   -0.3135    0.0000 C   0  0  0  0  0  0  0  0  0  0  0  0
    1.1514   -0.3135    0.0000 C   0  0  0  0  0  0  0  0  0  0  0  0
    4.5644    1.3365    0.0000 C   0  0  0  0  0  0  0  0  0  0  0  0
    1.8659   -0.7260    0.0000 C   0  0  0  0  0  0  0  0  0  0  0  0
    3.3811    2.5695    0.0000 C   0  0  0  0  0  0  0  0  0  0  0  0
    0.4369    0.9240    0.0000 C   0  0  0  0  0  0  0  0  0  0  0  0
    0.4369   -0.7260    0.0000 C   0  0  0  0  0  0  0  0  0  0  0  0
   -0.2775   -0.3135    0.0000 C   0  0  0  0  0  0  0  0  0  0  0  0
   -0.2775    0.5115    0.0000 C   0  0  0  0  0  0  0  0  0  0  0  0
   -1.7065   -0.3135    0.0000 C   0  0  0  0  0  0  0  0  0  0  0  0
   -3.1354   -0.3135    0.0000 C   0  0  0  0  0  0  0  0  0  0  0  0
   -2.4209   -1.5510    0.0000 C   0  0  0  0  0  0  0  0  0  0  0  0
   -3.8499   -0.7260    0.0000 C   0  0  0  0  0  0  0  0  0  0  0  0
   -3.1354   -1.9635    0.0000 C   0  0  0  0  0  0  0  0  0  0  0  0
    2.5803    1.3365    0.0000 H   0  0  0  0  0  0  0  0  0  0  0  0
    3.2948    0.0990    0.0000 H   0  0  0  0  0  0  0  0  0  0  0  0
    1.8659    0.0990    0.0000 H   0  0  0  0  0  0  0  0  0  0  0  0
  1 28  1  0  0  0  0
  2 29  1  0  0  0  0
 12  3  1  1  0  0  0
  4 23  1  0  0  0  0
  4 25  1  0  0  0  0
  5 25  2  0  0  0  0
  6 25  1  0  0  0  0
  6 26  1  0  0  0  0
  6 27  1  0  0  0  0
  7  8  1  0  0  0  0
  7  9  1  0  0  0  0
  7 16  1  0  0  0  0
  7 30  1  1  0  0  0
  8 10  1  0  0  0  0
  8 14  1  0  0  0  0
  8 31  1  6  0  0  0
  9 11  1  0  0  0  0
  9 13  1  0  0  0  0
  9 32  1  6  0  0  0
 10 12  1  0  0  0  0
 10 15  1  0  0  0  0
 10 20  1  1  0  0  0
 11 17  1  0  0  0  0
 11 21  2  0  0  0  0
 12 18  1  0  0  0  0
 13 15  1  0  0  0  0
 14 18  1  0  0  0  0
 16 19  1  0  0  0  0
 17 19  1  0  0  0  0
 17 22  2  0  0  0  0
 21 24  1  0  0  0  0
 22 23  1  0  0  0  0
 23 24  2  0  0  0  0
 26 28  1  0  0  0  0
 27 29  1  0  0  0  0
M  END
> <PUBCHEM_COMPOUND_ID_TYPE>
0

> <PUBCHEM_TOTAL_CHARGE>
0

> <PUBCHEM_SUBSTANCE_ID>
310928987

> <PUBCHEM_SUBSTANCE_VERSION>
1

> <PUBCHEM_EXT_DATASOURCE_NAME>
11752

> <PUBCHEM_EXT_DATASOURCE_REGID>
BD127534

> <PUBCHEM_SUBSTANCE_SYNONYM>
2998-57-4
Estramustine

> <PUBCHEM_GENERIC_REGISTRY_NAME>
2998-57-4

> <PUBCHEM_XREF_EXT_ID>
BD127534

> <PUBCHEM_EXT_DATASOURCE_URL>
http://www.bidepharmatech.com/en/index.html

> <PUBCHEM_EXT_SUBSTANCE_URL>
http://www.bidepharmatech.com/en/goodsview_goodscode_BD127534.html

> <PUBCHEM_CID_ASSOCIATIONS>
259331  1

> <PUBCHEM_COORDINATE_TYPE>
1
3

> <PUBCHEM_BONDANNOTATIONS>
10  20  5
12  3  5
7  30  5
8  31  6
9  32  6

$$$$
