310947175
  -OEChem-07211613022D

 38 40  0     0  0  0  0  0  0999 V2000
   -2.1434  -15.4410    0.0000 S   0  0  0  0  0  0  0  0  0  0  0  0
    2.1434  -15.4410    0.0000 O   0  0  0  0  0  0  0  0  0  0  0  0
    5.0013  -13.7910    0.0000 O   0  0  0  0  0  0  0  0  0  0  0  0
    2.8579  -14.2035    0.0000 O   0  0  0  0  0  0  0  0  0  0  0  0
    0.7145  -12.9660    0.0000 O   0  0  0  0  0  0  0  0  0  0  0  0
    3.5724  -13.7910    0.0000 O   0  0  0  0  0  0  0  0  0  0  0  0
   -5.0013  -13.7910    0.0000 O   0  0  0  0  0  0  0  0  0  0  0  0
   -5.7158  -15.0285    0.0000 O   0  0  0  0  0  0  0  0  0  0  0  0
    1.4289  -15.0285    0.0000 N   0  0  0  0  0  0  0  0  0  0  0  0
    3.5724  -15.4410    0.0000 C   0  0  0  0  0  0  0  0  0  0  0  0
    4.2868  -15.0285    0.0000 C   0  0  0  0  0  0  0  0  0  0  0  0
    2.8579  -15.0285    0.0000 C   0  0  0  0  0  0  0  0  0  0  0  0
    0.0000  -14.2035    0.0000 C   0  0  0  0  0  0  0  0  0  0  0  0
    0.7145  -13.7910    0.0000 C   0  0  0  0  0  0  0  0  0  0  0  0
    4.2868  -14.2035    0.0000 C   0  0  0  0  0  0  0  0  0  0  0  0
   -1.4289  -15.0285    0.0000 C   0  0  0  0  0  0  0  0  0  0  0  0
    1.4289  -14.2035    0.0000 C   0  0  0  0  0  0  0  0  0  0  0  0
    3.5724  -16.2660    0.0000 C   0  0  0  0  0  0  0  0  0  0  0  0
    5.0013  -15.4410    0.0000 C   0  0  0  0  0  0  0  0  0  0  0  0
   -0.7145  -13.7910    0.0000 C   0  0  0  0  0  0  0  0  0  0  0  0
    0.0000  -15.0285    0.0000 C   0  0  0  0  0  0  0  0  0  0  0  0
   -2.8579  -15.0285    0.0000 C   0  0  0  0  0  0  0  0  0  0  0  0
   -1.4289  -14.2035    0.0000 C   0  0  0  0  0  0  0  0  0  0  0  0
   -0.7145  -15.4410    0.0000 C   0  0  0  0  0  0  0  0  0  0  0  0
    4.2868  -16.6785    0.0000 C   0  0  0  0  0  0  0  0  0  0  0  0
    5.0013  -16.2660    0.0000 C   0  0  0  0  0  0  0  0  0  0  0  0
   -4.2868  -14.2035    0.0000 C   0  0  0  0  0  0  0  0  0  0  0  0
   -2.8579  -14.2035    0.0000 C   0  0  0  0  0  0  0  0  0  0  0  0
   -3.5724  -15.4410    0.0000 C   0  0  0  0  0  0  0  0  0  0  0  0
   -3.5724  -13.7910    0.0000 C   0  0  0  0  0  0  0  0  0  0  0  0
   -4.2868  -15.0285    0.0000 C   0  0  0  0  0  0  0  0  0  0  0  0
    2.1434  -13.7910    0.0000 C   0  0  0  0  0  0  0  0  0  0  0  0
    5.7158  -14.2035    0.0000 C   0  0  0  0  0  0  0  0  0  0  0  0
   -5.7158  -14.2035    0.0000 C   0  0  0  0  0  0  0  0  0  0  0  0
    6.4302  -13.7910    0.0000 C   0  0  0  0  0  0  0  0  0  0  0  0
   -6.4302  -13.7910    0.0000 C   0  0  0  0  0  0  0  0  0  0  0  0
    7.1447  -14.2035    0.0000 C   0  0  0  0  0  0  0  0  0  0  0  0
   -7.1447  -14.2035    0.0000 C   0  0  0  0  0  0  0  0  0  0  0  0
  1 16  1  0  0  0  0
  1 22  1  0  0  0  0
  2  9  1  0  0  0  0
  2 12  1  0  0  0  0
  3 15  1  0  0  0  0
  3 33  1  0  0  0  0
  4 12  2  0  0  0  0
  5 14  2  0  0  0  0
  6 15  2  0  0  0  0
  7 27  1  0  0  0  0
  7 34  1  0  0  0  0
  8 34  2  0  0  0  0
  9 17  2  0  0  0  0
 10 11  1  0  0  0  0
 10 12  1  0  0  0  0
 10 18  2  0  0  0  0
 11 15  1  0  0  0  0
 11 19  2  0  0  0  0
 13 14  1  0  0  0  0
 13 20  2  0  0  0  0
 13 21  1  0  0  0  0
 14 17  1  0  0  0  0
 16 23  2  0  0  0  0
 16 24  1  0  0  0  0
 17 32  1  0  0  0  0
 18 25  1  0  0  0  0
 19 26  1  0  0  0  0
 20 23  1  0  0  0  0
 21 24  2  0  0  0  0
 22 28  2  0  0  0  0
 22 29  1  0  0  0  0
 25 26  2  0  0  0  0
 27 30  2  0  0  0  0
 27 31  1  0  0  0  0
 28 30  1  0  0  0  0
 29 31  2  0  0  0  0
 33 35  1  0  0  0  0
 34 36  1  0  0  0  0
 35 37  1  0  0  0  0
 36 38  2  0  0  0  0
M  END
> <PUBCHEM_COMPOUND_ID_TYPE>
0

> <PUBCHEM_TOTAL_CHARGE>
0

> <PUBCHEM_SUBSTANCE_ID>
310947175

> <PUBCHEM_SUBSTANCE_VERSION>
1

> <PUBCHEM_EXT_DATASOURCE_NAME>
4488

> <PUBCHEM_EXT_DATASOURCE_REGID>
SCHEMBL16125329

> <PUBCHEM_SUBSTANCE_COMMENT>
InChI=1S/C29H25NO7S/c1-4-18-35-28(33)24-8-6-7-9-25(24)29(34)37-30-19(3)27(32)20-10-14-22(15-11-20)38-23-16-12-21(13-17-23)36-26(31)5-2/h5-17H,2,4,18H2,1,3H3/b30-19+
InChIKey=FBTXXQRGSAQPBI-NDZAJKAJSA-N

> <PUBCHEM_SUBSTANCE_SYNONYM>
SCHEMBL16125329

> <PUBCHEM_XREF_EXT_ID>
SCHEMBL16125329

> <PUBCHEM_EXT_DATASOURCE_URL>
https://www.surechembl.org/

> <PUBCHEM_EXT_SUBSTANCE_URL>
https://www.surechembl.org/chemical/SCHEMBL16125329

> <PUBCHEM_CID_ASSOCIATIONS>
117613000  1

> <PUBCHEM_COORDINATE_TYPE>
1
3

$$$$
