310942045
  -OEChem-07211613022D

 29 33  0     0  0  0  0  0  0999 V2000
   -2.4219   -4.4282    0.0000 F   0  0  0  0  0  0  0  0  0  0  0  0
    2.1335    0.2291    0.0000 O   0  0  0  0  0  0  0  0  0  0  0  0
   -0.9883   -1.9511    0.0000 N   0  0  0  0  0  0  0  0  0  0  0  0
    1.0646    1.1791    0.0000 N   0  0  0  0  0  0  0  0  0  0  0  0
    1.8875    3.2066    0.0000 N   0  0  0  0  0  0  0  0  0  0  0  0
   -0.5726   -0.6786    0.0000 C   0  0  0  0  0  0  0  0  0  0  0  0
   -0.3266   -1.4506    0.0000 C   0  0  0  0  0  0  0  0  0  0  0  0
   -1.4209   -0.6701    0.0000 C   0  0  0  0  0  0  0  0  0  0  0  0
   -0.0297   -0.0509    0.0000 C   0  0  0  0  0  0  0  0  0  0  0  0
   -1.6754   -1.4591    0.0000 C   0  0  0  0  0  0  0  0  0  0  0  0
    0.7762   -0.2206    0.0000 C   0  0  0  0  0  0  0  0  0  0  0  0
    0.4793   -1.6288    0.0000 C   0  0  0  0  0  0  0  0  0  0  0  0
    1.3021    0.4072    0.0000 C   0  0  0  0  0  0  0  0  0  0  0  0
    1.0307   -1.0264    0.0000 C   0  0  0  0  0  0  0  0  0  0  0  0
   -0.2927    0.6956    0.0000 C   0  0  0  0  0  0  0  0  0  0  0  0
   -1.9638   -0.0679    0.0000 C   0  0  0  0  0  0  0  0  0  0  0  0
   -2.4813   -1.6372    0.0000 C   0  0  0  0  0  0  0  0  0  0  0  0
   -0.9883   -2.7740    0.0000 C   0  0  0  0  0  0  0  0  0  0  0  0
    0.2503    1.3318    0.0000 C   0  0  0  0  0  0  0  0  0  0  0  0
   -2.7612   -0.2375    0.0000 C   0  0  0  0  0  0  0  0  0  0  0  0
   -3.0242   -1.0264    0.0000 C   0  0  0  0  0  0  0  0  0  0  0  0
    1.5991    1.8154    0.0000 C   0  0  0  0  0  0  0  0  0  0  0  0
   -1.7009   -3.1897    0.0000 C   0  0  0  0  0  0  0  0  0  0  0  0
    1.3361    2.5704    0.0000 C   0  0  0  0  0  0  0  0  0  0  0  0
   -1.7094   -4.0210    0.0000 C   0  0  0  0  0  0  0  0  0  0  0  0
    2.7019    3.1303    0.0000 C   0  0  0  0  0  0  0  0  0  0  0  0
    1.7009    4.0125    0.0000 C   0  0  0  0  0  0  0  0  0  0  0  0
    3.0242    3.8937    0.0000 C   0  0  0  0  0  0  0  0  0  0  0  0
    2.4049    4.4282    0.0000 C   0  0  0  0  0  0  0  0  0  0  0  0
  1 25  1  0  0  0  0
  2 13  2  0  0  0  0
  3  7  1  0  0  0  0
  3 10  1  0  0  0  0
  3 18  1  0  0  0  0
  4 13  1  0  0  0  0
  4 19  1  0  0  0  0
  4 22  1  0  0  0  0
  5 24  1  0  0  0  0
  5 26  1  0  0  0  0
  5 27  1  0  0  0  0
  6  7  2  0  0  0  0
  6  8  1  0  0  0  0
  6  9  1  0  0  0  0
  7 12  1  0  0  0  0
  8 10  1  0  0  0  0
  8 16  2  0  0  0  0
  9 11  2  0  0  0  0
  9 15  1  0  0  0  0
 10 17  2  0  0  0  0
 11 13  1  0  0  0  0
 11 14  1  0  0  0  0
 12 14  2  0  0  0  0
 15 19  2  0  0  0  0
 16 20  1  0  0  0  0
 17 21  1  0  0  0  0
 18 23  1  0  0  0  0
 20 21  2  0  0  0  0
 22 24  1  0  0  0  0
 23 25  1  0  0  0  0
 26 28  1  0  0  0  0
 27 29  1  0  0  0  0
 28 29  1  0  0  0  0
M  END
> <PUBCHEM_COMPOUND_ID_TYPE>
0

> <PUBCHEM_TOTAL_CHARGE>
0

> <PUBCHEM_SUBSTANCE_ID>
310942045

> <PUBCHEM_SUBSTANCE_VERSION>
1

> <PUBCHEM_EXT_DATASOURCE_NAME>
4488

> <PUBCHEM_EXT_DATASOURCE_REGID>
SCHEMBL16120080

> <PUBCHEM_SUBSTANCE_COMMENT>
InChI=1S/C24H26FN3O/c25-11-5-14-28-21-7-2-1-6-20(21)23-18-10-15-27(17-16-26-12-3-4-13-26)24(29)19(18)8-9-22(23)28/h1-2,6-10,15H,3-5,11-14,16-17H2
InChIKey=XGYDLSIWJGDUKX-UHFFFAOYSA-N

> <PUBCHEM_SUBSTANCE_SYNONYM>
SCHEMBL16120080

> <PUBCHEM_XREF_EXT_ID>
SCHEMBL16120080

> <PUBCHEM_EXT_DATASOURCE_URL>
https://www.surechembl.org/

> <PUBCHEM_EXT_SUBSTANCE_URL>
https://www.surechembl.org/chemical/SCHEMBL16120080

> <PUBCHEM_CID_ASSOCIATIONS>
86274519  1

> <PUBCHEM_COORDINATE_TYPE>
1
3

$$$$
