310938036
  -OEChem-07211613022D

 25 29  0     0  0  0  0  0  0999 V2000
   -3.0367   -1.4045    0.0000 O   0  0  0  0  0  0  0  0  0  0  0  0
   -4.8961   -1.8882    0.0000 O   0  0  0  0  0  0  0  0  0  0  0  0
    0.7145   -0.4125    0.0000 O   0  0  0  0  0  0  0  0  0  0  0  0
   -2.8972   -0.0770    0.0000 N   0  0  0  0  0  0  0  0  0  0  0  0
   -2.2297   -1.2330    0.0000 N   0  0  0  0  0  0  0  0  0  0  0  0
   -1.4290    0.8250    0.0000 N   0  0  0  0  0  0  0  0  0  0  0  0
   -3.4706   -1.7885    0.0000 N   0  0  0  0  0  0  0  0  0  0  0  0
   -4.2697   -0.6038    0.0000 C   0  0  0  0  0  0  0  0  0  0  0  0
   -3.4492   -0.6901    0.0000 C   0  0  0  0  0  0  0  0  0  0  0  0
   -4.4693    0.1967    0.0000 C   0  0  0  0  0  0  0  0  0  0  0  0
   -5.0628   -0.3764    0.0000 C   0  0  0  0  0  0  0  0  0  0  0  0
   -4.2121   -1.4268    0.0000 C   0  0  0  0  0  0  0  0  0  0  0  0
   -2.1434   -0.4125    0.0000 C   0  0  0  0  0  0  0  0  0  0  0  0
   -1.4290    0.0000    0.0000 C   0  0  0  0  0  0  0  0  0  0  0  0
    0.0000    0.8250    0.0000 C   0  0  0  0  0  0  0  0  0  0  0  0
    0.0000    0.0000    0.0000 C   0  0  0  0  0  0  0  0  0  0  0  0
   -0.7145   -0.4125    0.0000 C   0  0  0  0  0  0  0  0  0  0  0  0
    0.7145    1.2375    0.0000 C   0  0  0  0  0  0  0  0  0  0  0  0
   -0.7145    1.2375    0.0000 C   0  0  0  0  0  0  0  0  0  0  0  0
    1.1270    1.9520    0.0000 C   0  0  0  0  0  0  0  0  0  0  0  0
    1.5395    1.2375    0.0000 C   0  0  0  0  0  0  0  0  0  0  0  0
    1.4290    0.0000    0.0000 C   0  0  0  0  0  0  0  0  0  0  0  0
    2.1434   -0.4125    0.0000 C   0  0  0  0  0  0  0  0  0  0  0  0
    2.9685   -0.4125    0.0000 C   0  0  0  0  0  0  0  0  0  0  0  0
    2.5560   -1.1270    0.0000 C   0  0  0  0  0  0  0  0  0  0  0  0
  1  5  1  0  0  0  0
  1  9  1  0  0  0  0
  2 12  2  0  0  0  0
  3 16  1  0  0  0  0
  3 22  1  0  0  0  0
  4  9  2  0  0  0  0
  4 13  1  0  0  0  0
  5 13  2  0  0  0  0
  6 14  2  0  0  0  0
  6 19  1  0  0  0  0
  7 12  1  0  0  0  0
  8  9  1  0  0  0  0
  8 10  1  0  0  0  0
  8 11  1  0  0  0  0
  8 12  1  0  0  0  0
 10 11  1  0  0  0  0
 13 14  1  0  0  0  0
 14 17  1  0  0  0  0
 15 16  1  0  0  0  0
 15 18  1  0  0  0  0
 15 19  2  0  0  0  0
 16 17  2  0  0  0  0
 18 20  1  0  0  0  0
 18 21  1  0  0  0  0
 20 21  1  0  0  0  0
 22 23  1  0  0  0  0
 23 24  1  0  0  0  0
 23 25  1  0  0  0  0
 24 25  1  0  0  0  0
M  END
> <PUBCHEM_COMPOUND_ID_TYPE>
0

> <PUBCHEM_TOTAL_CHARGE>
0

> <PUBCHEM_SUBSTANCE_ID>
310938036

> <PUBCHEM_SUBSTANCE_VERSION>
1

> <PUBCHEM_EXT_DATASOURCE_NAME>
4488

> <PUBCHEM_EXT_DATASOURCE_REGID>
SCHEMBL16115877

> <PUBCHEM_SUBSTANCE_COMMENT>
InChI=1S/C18H20N4O3/c19-16(23)18(5-6-18)17-21-15(22-25-17)13-7-14(24-9-10-1-2-10)12(8-20-13)11-3-4-11/h7-8,10-11H,1-6,9H2,(H2,19,23)
InChIKey=ZSUFXHBCKIVLBE-UHFFFAOYSA-N

> <PUBCHEM_SUBSTANCE_SYNONYM>
SCHEMBL16115877

> <PUBCHEM_XREF_EXT_ID>
SCHEMBL16115877

> <PUBCHEM_EXT_DATASOURCE_URL>
https://www.surechembl.org/

> <PUBCHEM_EXT_SUBSTANCE_URL>
https://www.surechembl.org/chemical/SCHEMBL16115877

> <PUBCHEM_CID_ASSOCIATIONS>
86275910  1

> <PUBCHEM_COORDINATE_TYPE>
1
3

$$$$
