310938593
  -OEChem-07211613022D

 33 37  0     0  0  0  0  0  0999 V2000
   -0.8476    2.3252    0.0000 S   0  0  0  0  0  0  0  0  0  0  0  0
    2.4209    1.0961    0.0000 F   0  0  0  0  0  0  0  0  0  0  0  0
    1.1834    0.3817    0.0000 F   0  0  0  0  0  0  0  0  0  0  0  0
    1.5959    1.0961    0.0000 F   0  0  0  0  0  0  0  0  0  0  0  0
   -0.0861    1.0152    0.0000 O   0  0  0  0  0  0  0  0  0  0  0  0
   -3.6585   -2.6973    0.0000 O   0  0  0  0  0  0  0  0  0  0  0  0
   -0.0861   -1.4598    0.0000 N   0  0  0  0  0  0  0  0  0  0  0  0
    0.6985   -0.3798    0.0000 N   0  0  0  0  0  0  0  0  0  0  0  0
   -0.8006   -1.8723    0.0000 N   0  0  0  0  0  0  0  0  0  0  0  0
   -2.2295   -1.8723    0.0000 N   0  0  0  0  0  0  0  0  0  0  0  0
   -1.5150    1.0152    0.0000 N   0  0  0  0  0  0  0  0  0  0  0  0
   -2.1825    2.3252    0.0000 N   0  0  0  0  0  0  0  0  0  0  0  0
   -0.0861   -0.6348    0.0000 C   0  0  0  0  0  0  0  0  0  0  0  0
    1.1835   -1.0473    0.0000 C   0  0  0  0  0  0  0  0  0  0  0  0
   -0.8006   -0.2223    0.0000 C   0  0  0  0  0  0  0  0  0  0  0  0
    2.0085   -1.0473    0.0000 C   0  0  0  0  0  0  0  0  0  0  0  0
    0.6985   -1.7147    0.0000 C   0  0  0  0  0  0  0  0  0  0  0  0
   -1.5150   -1.4598    0.0000 C   0  0  0  0  0  0  0  0  0  0  0  0
   -1.5150   -0.6348    0.0000 C   0  0  0  0  0  0  0  0  0  0  0  0
    2.4210   -0.3328    0.0000 C   0  0  0  0  0  0  0  0  0  0  0  0
   -0.8006    0.6027    0.0000 C   0  0  0  0  0  0  0  0  0  0  0  0
    2.0084    0.3817    0.0000 C   0  0  0  0  0  0  0  0  0  0  0  0
    2.4210   -1.7617    0.0000 C   0  0  0  0  0  0  0  0  0  0  0  0
    3.2460   -0.3328    0.0000 C   0  0  0  0  0  0  0  0  0  0  0  0
    3.2460   -1.7617    0.0000 C   0  0  0  0  0  0  0  0  0  0  0  0
   -2.9440   -1.4598    0.0000 C   0  0  0  0  0  0  0  0  0  0  0  0
   -2.2295   -2.6973    0.0000 C   0  0  0  0  0  0  0  0  0  0  0  0
    3.6585   -1.0473    0.0000 C   0  0  0  0  0  0  0  0  0  0  0  0
   -1.5150    1.8402    0.0000 C   0  0  0  0  0  0  0  0  0  0  0  0
   -3.6585   -1.8723    0.0000 C   0  0  0  0  0  0  0  0  0  0  0  0
   -2.9440   -3.1098    0.0000 C   0  0  0  0  0  0  0  0  0  0  0  0
   -1.1025    3.1098    0.0000 C   0  0  0  0  0  0  0  0  0  0  0  0
   -1.9275    3.1098    0.0000 C   0  0  0  0  0  0  0  0  0  0  0  0
  1 29  1  0  0  0  0
  1 32  1  0  0  0  0
  2 22  1  0  0  0  0
  3 22  1  0  0  0  0
  4 22  1  0  0  0  0
  5 21  2  0  0  0  0
  6 30  1  0  0  0  0
  6 31  1  0  0  0  0
  7  9  1  0  0  0  0
  7 13  1  0  0  0  0
  7 17  1  0  0  0  0
  8 13  2  0  0  0  0
  8 14  1  0  0  0  0
  9 18  2  0  0  0  0
 10 18  1  0  0  0  0
 10 26  1  0  0  0  0
 10 27  1  0  0  0  0
 11 21  1  0  0  0  0
 11 29  1  0  0  0  0
 12 29  2  0  0  0  0
 12 33  1  0  0  0  0
 13 15  1  0  0  0  0
 14 16  1  0  0  0  0
 14 17  2  0  0  0  0
 15 19  2  0  0  0  0
 15 21  1  0  0  0  0
 16 20  1  0  0  0  0
 16 23  2  0  0  0  0
 18 19  1  0  0  0  0
 20 22  1  0  0  0  0
 20 24  2  0  0  0  0
 23 25  1  0  0  0  0
 24 28  1  0  0  0  0
 25 28  2  0  0  0  0
 26 30  1  0  0  0  0
 27 31  1  0  0  0  0
 32 33  2  0  0  0  0
M  END
> <PUBCHEM_COMPOUND_ID_TYPE>
0

> <PUBCHEM_TOTAL_CHARGE>
0

> <PUBCHEM_SUBSTANCE_ID>
310938593

> <PUBCHEM_SUBSTANCE_VERSION>
1

> <PUBCHEM_EXT_DATASOURCE_NAME>
4488

> <PUBCHEM_EXT_DATASOURCE_REGID>
SCHEMBL16116507

> <PUBCHEM_SUBSTANCE_COMMENT>
InChI=1S/C21H17F3N6O2S/c22-21(23,24)15-4-2-1-3-13(15)16-12-30-18(26-16)14(19(31)27-20-25-5-10-33-20)11-17(28-30)29-6-8-32-9-7-29/h1-5,10-12H,6-9H2,(H,25,27,31)
InChIKey=UQFWBVRCXVVCGC-UHFFFAOYSA-N

> <PUBCHEM_SUBSTANCE_SYNONYM>
SCHEMBL16116507

> <PUBCHEM_XREF_EXT_ID>
SCHEMBL16116507

> <PUBCHEM_EXT_DATASOURCE_URL>
https://www.surechembl.org/

> <PUBCHEM_EXT_SUBSTANCE_URL>
https://www.surechembl.org/chemical/SCHEMBL16116507

> <PUBCHEM_CID_ASSOCIATIONS>
117606027  1

> <PUBCHEM_COORDINATE_TYPE>
1
3

$$$$
