310940274
  -OEChem-07211613022D

 42 46  0     0  0  0  0  0  0999 V2000
   -2.4977   -6.0239    0.0000 F   0  0  0  0  0  0  0  0  0  0  0  0
   -1.6614   -6.0239    0.0000 F   0  0  0  0  0  0  0  0  0  0  0  0
   -1.2545   -5.3232    0.0000 F   0  0  0  0  0  0  0  0  0  0  0  0
   -1.3901   -0.9833    0.0000 O   0  0  0  0  0  0  0  0  0  0  0  0
   -3.2211   -2.9724    0.0000 O   0  0  0  0  0  0  0  0  0  0  0  0
    0.8477    4.3738    0.0000 O   0  0  0  0  0  0  0  0  0  0  0  0
    2.2491    4.2156    0.0000 O   0  0  0  0  0  0  0  0  0  0  0  0
    0.7572    0.7572    0.0000 N   0  0  0  0  0  0  0  0  0  0  0  0
    1.0285   -0.0339    0.0000 N   0  0  0  0  0  0  0  0  0  0  0  0
    0.3504   -1.3449    0.0000 N   0  0  0  0  0  0  0  0  0  0  0  0
   -1.6840    0.4182    0.0000 N   0  0  0  0  0  0  0  0  0  0  0  0
    1.4127    3.0628    0.0000 N   0  0  0  0  0  0  0  0  0  0  0  0
   -2.0682   -3.8992    0.0000 N   0  0  0  0  0  0  0  0  0  0  0  0
    3.2211    0.5085    0.0000 N   0  0  0  0  0  0  0  0  0  0  0  0
    1.2545    1.4127    0.0000 C   0  0  0  0  0  0  0  0  0  0  0  0
   -0.0791    0.7798    0.0000 C   0  0  0  0  0  0  0  0  0  0  0  0
   -0.3504   -0.0113    0.0000 C   0  0  0  0  0  0  0  0  0  0  0  0
    0.3504   -0.5085    0.0000 C   0  0  0  0  0  0  0  0  0  0  0  0
   -1.1189   -0.1922    0.0000 C   0  0  0  0  0  0  0  0  0  0  0  0
    0.5764    1.9100    0.0000 C   0  0  0  0  0  0  0  0  0  0  0  0
    2.0004    1.7518    0.0000 C   0  0  0  0  0  0  0  0  0  0  0  0
   -0.6442    1.3675    0.0000 C   0  0  0  0  0  0  0  0  0  0  0  0
    1.5710    0.6894    0.0000 C   0  0  0  0  0  0  0  0  0  0  0  0
   -0.3730   -1.7518    0.0000 C   0  0  0  0  0  0  0  0  0  0  0  0
   -1.0963   -2.9724    0.0000 C   0  0  0  0  0  0  0  0  0  0  0  0
   -1.7970   -2.5656    0.0000 C   0  0  0  0  0  0  0  0  0  0  0  0
    0.6894    2.7463    0.0000 C   0  0  0  0  0  0  0  0  0  0  0  0
    2.0908    2.5882    0.0000 C   0  0  0  0  0  0  0  0  0  0  0  0
   -1.4127    1.2093    0.0000 C   0  0  0  0  0  0  0  0  0  0  0  0
   -2.4073   -3.1306    0.0000 C   0  0  0  0  0  0  0  0  0  0  0  0
   -0.3730   -2.5882    0.0000 C   0  0  0  0  0  0  0  0  0  0  0  0
   -1.2545   -3.8087    0.0000 C   0  0  0  0  0  0  0  0  0  0  0  0
   -1.0963   -1.3449    0.0000 C   0  0  0  0  0  0  0  0  0  0  0  0
   -1.7744   -1.7518    0.0000 C   0  0  0  0  0  0  0  0  0  0  0  0
    1.5031    3.8992    0.0000 C   0  0  0  0  0  0  0  0  0  0  0  0
    2.3847    0.5764    0.0000 C   0  0  0  0  0  0  0  0  0  0  0  0
   -2.4751   -4.6225    0.0000 C   0  0  0  0  0  0  0  0  0  0  0  0
   -2.0682   -5.3232    0.0000 C   0  0  0  0  0  0  0  0  0  0  0  0
    0.9155    5.2101    0.0000 C   0  0  0  0  0  0  0  0  0  0  0  0
    1.0511    6.0239    0.0000 C   0  0  0  0  0  0  0  0  0  0  0  0
    0.2826    5.6397    0.0000 C   0  0  0  0  0  0  0  0  0  0  0  0
    1.7066    5.5492    0.0000 C   0  0  0  0  0  0  0  0  0  0  0  0
  1 38  1  0  0  0  0
  2 38  1  0  0  0  0
  3 38  1  0  0  0  0
  4 19  2  0  0  0  0
  5 30  2  0  0  0  0
  6 35  1  0  0  0  0
  6 39  1  0  0  0  0
  7 35  2  0  0  0  0
  8  9  1  0  0  0  0
  8 15  1  0  0  0  0
  8 16  1  0  0  0  0
  9 18  2  0  0  0  0
 10 18  1  0  0  0  0
 10 24  1  0  0  0  0
 11 19  1  0  0  0  0
 11 29  1  0  0  0  0
 12 27  1  0  0  0  0
 12 28  1  0  0  0  0
 12 35  1  0  0  0  0
 13 30  1  0  0  0  0
 13 32  1  0  0  0  0
 13 37  1  0  0  0  0
 14 36  3  0  0  0  0
 15 20  1  0  0  0  0
 15 21  1  0  0  0  0
 15 23  1  0  0  0  0
 16 17  2  0  0  0  0
 16 22  1  0  0  0  0
 17 18  1  0  0  0  0
 17 19  1  0  0  0  0
 20 27  1  0  0  0  0
 21 28  1  0  0  0  0
 22 29  2  0  0  0  0
 23 36  1  0  0  0  0
 24 31  2  0  0  0  0
 24 33  1  0  0  0  0
 25 26  2  0  0  0  0
 25 31  1  0  0  0  0
 25 32  1  0  0  0  0
 26 30  1  0  0  0  0
 26 34  1  0  0  0  0
 33 34  2  0  0  0  0
 37 38  1  0  0  0  0
 39 40  1  0  0  0  0
 39 41  1  0  0  0  0
 39 42  1  0  0  0  0
M  END
> <PUBCHEM_COMPOUND_ID_TYPE>
0

> <PUBCHEM_TOTAL_CHARGE>
0

> <PUBCHEM_SUBSTANCE_ID>
310940274

> <PUBCHEM_SUBSTANCE_VERSION>
1

> <PUBCHEM_EXT_DATASOURCE_NAME>
4488

> <PUBCHEM_EXT_DATASOURCE_REGID>
SCHEMBL16118217

> <PUBCHEM_SUBSTANCE_COMMENT>
InChI=1S/C28H30F3N7O4/c1-26(2,3)42-25(41)36-12-8-27(7-10-32,9-13-36)38-20-6-11-33-23(39)21(20)22(35-38)34-18-4-5-19-17(14-18)15-37(24(19)40)16-28(29,30)31/h4-6,11,14H,7-9,12-13,15-16H2,1-3H3,(H,33,39)(H,34,35)
InChIKey=AKWLFVPWDVDXAP-UHFFFAOYSA-N

> <PUBCHEM_SUBSTANCE_SYNONYM>
SCHEMBL16118217

> <PUBCHEM_XREF_EXT_ID>
SCHEMBL16118217

> <PUBCHEM_EXT_DATASOURCE_URL>
https://www.surechembl.org/

> <PUBCHEM_EXT_SUBSTANCE_URL>
https://www.surechembl.org/chemical/SCHEMBL16118217

> <PUBCHEM_CID_ASSOCIATIONS>
86272417  1

> <PUBCHEM_COORDINATE_TYPE>
1
3

$$$$
