310946295
  -OEChem-07211613022D

 21 22  0     1  0  0  0  0  0999 V2000
   -1.2944   -0.7346    0.0000 I   0  0  0  0  0  0  0  0  0  0  0  0
    0.1346    1.7404    0.0000 I   0  0  0  0  0  0  0  0  0  0  0  0
   -1.2944    0.9154    0.0000 O   0  0  0  0  0  0  0  0  0  0  0  0
   -4.1522   -0.7346    0.0000 O   0  0  0  0  0  0  0  0  0  0  0  0
    2.2780    0.5029    0.0000 N   0  0  0  0  0  0  0  0  0  0  0  0
   -0.5799    0.5029    0.0000 C   0  0  0  0  0  0  0  0  0  0  0  0
   -0.5799   -0.3221    0.0000 C   0  0  0  0  0  0  0  0  0  0  0  0
    0.1346    0.9154    0.0000 C   0  0  0  0  0  0  0  0  0  0  0  0
    0.8491   -0.3221    0.0000 C   0  0  0  0  0  0  0  0  0  0  0  0
    0.1346   -0.7346    0.0000 C   0  0  0  0  0  0  0  0  0  0  0  0
    0.8491    0.5029    0.0000 C   0  0  0  0  0  0  0  0  0  0  0  0
   -2.0088    0.5029    0.0000 C   0  0  0  0  0  0  0  0  0  0  0  0
    1.5635   -0.7346    0.0000 C   0  0  0  0  0  0  0  0  0  0  0  0
   -2.7233    0.9154    0.0000 C   0  0  0  0  0  0  0  0  0  0  0  0
   -2.0088   -0.3221    0.0000 C   0  0  0  0  0  0  0  0  0  0  0  0
   -3.4378   -0.3221    0.0000 C   0  0  0  0  0  0  0  0  0  0  0  0
    2.2780   -0.3221    0.0000 C   0  0  3  0  0  0  0  0  0  0  0  0
   -3.4378    0.5029    0.0000 C   0  0  0  0  0  0  0  0  0  0  0  0
   -2.7233   -0.7346    0.0000 C   0  0  0  0  0  0  0  0  0  0  0  0
    2.9925   -0.7346    0.0000 C   0  0  0  0  0  0  0  0  0  0  0  0
    3.7069   -0.3221    0.0000 C   0  0  0  0  0  0  0  0  0  0  0  0
  1  7  1  0  0  0  0
  2  8  1  0  0  0  0
  3  6  1  0  0  0  0
  3 12  1  0  0  0  0
  4 16  1  0  0  0  0
 17  5  1  1  0  0  0
  6  7  2  0  0  0  0
  6  8  1  0  0  0  0
  7 10  1  0  0  0  0
  8 11  2  0  0  0  0
  9 10  2  0  0  0  0
  9 11  1  0  0  0  0
  9 13  1  0  0  0  0
 12 14  2  0  0  0  0
 12 15  1  0  0  0  0
 13 17  1  0  0  0  0
 14 18  1  0  0  0  0
 15 19  2  0  0  0  0
 16 18  2  0  0  0  0
 16 19  1  0  0  0  0
 17 20  1  0  0  0  0
 20 21  1  0  0  0  0
M  END
> <PUBCHEM_COMPOUND_ID_TYPE>
0

> <PUBCHEM_TOTAL_CHARGE>
0

> <PUBCHEM_SUBSTANCE_ID>
310946295

> <PUBCHEM_SUBSTANCE_VERSION>
1

> <PUBCHEM_EXT_DATASOURCE_NAME>
4488

> <PUBCHEM_EXT_DATASOURCE_REGID>
SCHEMBL16124413

> <PUBCHEM_SUBSTANCE_COMMENT>
InChI=1S/C16H17I2NO2/c1-2-11(19)7-10-8-14(17)16(15(18)9-10)21-13-5-3-12(20)4-6-13/h3-6,8-9,11,20H,2,7,19H2,1H3/t11-/m0/s1
InChIKey=CCGLZJZNZQQCSF-NSHDSACASA-N

> <PUBCHEM_SUBSTANCE_SYNONYM>
SCHEMBL16124413

> <PUBCHEM_XREF_EXT_ID>
SCHEMBL16124413

> <PUBCHEM_EXT_DATASOURCE_URL>
https://www.surechembl.org/

> <PUBCHEM_EXT_SUBSTANCE_URL>
https://www.surechembl.org/chemical/SCHEMBL16124413

> <PUBCHEM_CID_ASSOCIATIONS>
117612241  1

> <PUBCHEM_COORDINATE_TYPE>
1
3

> <PUBCHEM_BONDANNOTATIONS>
17  5  5

$$$$
