310929183
  -OEChem-07211613022D

 23 24  0     0  0  0  0  0  0999 V2000
    0.8237   -4.1184    0.0000 S   0  0  0  0  0  0  0  0  0  0  0  0
    2.2404   -4.1184    0.0000 O   0  0  0  0  0  0  0  0  0  0  0  0
    1.7132   -4.1184    0.0000 O   0  0  0  0  0  0  0  0  0  0  0  0
    0.0000   -4.1184    0.0000 O   0  0  0  0  0  0  0  0  0  0  0  0
    0.8237   -3.3277    0.0000 N   0  0  0  0  0  0  0  0  0  0  0  0
    0.8237   -4.9421    0.0000 N   0  0  0  0  0  0  0  0  0  0  0  0
    3.6901   -3.3277    0.0000 N   0  0  0  0  0  0  0  0  0  0  0  0
    1.5155   -2.8994    0.0000 C   0  0  0  0  0  0  0  0  0  0  0  0
    2.2404   -3.2947    0.0000 C   0  0  0  0  0  0  0  0  0  0  0  0
    2.2404   -1.6474    0.0000 C   0  0  0  0  0  0  0  0  0  0  0  0
    2.9653   -2.8994    0.0000 C   0  0  0  0  0  0  0  0  0  0  0  0
    1.5485   -2.0427    0.0000 C   0  0  0  0  0  0  0  0  0  0  0  0
    2.2404   -0.8237    0.0000 C   0  0  0  0  0  0  0  0  0  0  0  0
    2.9653   -2.0757    0.0000 C   0  0  0  0  0  0  0  0  0  0  0  0
    1.5485   -5.3375    0.0000 C   0  0  0  0  0  0  0  0  0  0  0  0
    0.0988   -5.3375    0.0000 C   0  0  0  0  0  0  0  0  0  0  0  0
    3.0970   -0.8237    0.0000 C   0  0  0  0  0  0  0  0  0  0  0  0
    2.2734    0.0000    0.0000 C   0  0  0  0  0  0  0  0  0  0  0  0
    1.4167   -0.8237    0.0000 C   0  0  0  0  0  0  0  0  0  0  0  0
    1.5485   -6.1612    0.0000 C   0  0  0  0  0  0  0  0  0  0  0  0
    0.0988   -6.1612    0.0000 C   0  0  0  0  0  0  0  0  0  0  0  0
    0.8237   -6.5894    0.0000 C   0  0  0  0  0  0  0  0  0  0  0  0
    2.9653   -4.5467    0.0000 C   0  0  0  0  0  0  0  0  0  0  0  0
  1  3  2  0  0  0  0
  1  4  2  0  0  0  0
  1  5  1  0  0  0  0
  1  6  1  0  0  0  0
  2  9  1  0  0  0  0
  2 23  1  0  0  0  0
  5  8  1  0  0  0  0
  6 15  1  0  0  0  0
  6 16  1  0  0  0  0
  7 11  1  0  0  0  0
  8  9  1  0  0  0  0
  8 12  2  0  0  0  0
  9 11  2  0  0  0  0
 10 12  1  0  0  0  0
 10 13  1  0  0  0  0
 10 14  2  0  0  0  0
 11 14  1  0  0  0  0
 13 17  1  0  0  0  0
 13 18  1  0  0  0  0
 13 19  1  0  0  0  0
 15 20  1  0  0  0  0
 16 21  1  0  0  0  0
 20 22  1  0  0  0  0
 21 22  1  0  0  0  0
M  END
> <PUBCHEM_COMPOUND_ID_TYPE>
0

> <PUBCHEM_TOTAL_CHARGE>
0

> <PUBCHEM_SUBSTANCE_ID>
310929183

> <PUBCHEM_SUBSTANCE_VERSION>
1

> <PUBCHEM_EXT_DATASOURCE_NAME>
4488

> <PUBCHEM_EXT_DATASOURCE_REGID>
SCHEMBL16106346

> <PUBCHEM_SUBSTANCE_COMMENT>
InChI=1S/C16H27N3O3S/c1-16(2,3)12-10-13(17)15(22-4)14(11-12)18-23(20,21)19-8-6-5-7-9-19/h10-11,18H,5-9,17H2,1-4H3
InChIKey=HFXPLKSNSVQZQD-UHFFFAOYSA-N

> <PUBCHEM_SUBSTANCE_SYNONYM>
SCHEMBL16106346

> <PUBCHEM_XREF_EXT_ID>
SCHEMBL16106346

> <PUBCHEM_EXT_DATASOURCE_URL>
https://www.surechembl.org/

> <PUBCHEM_EXT_SUBSTANCE_URL>
https://www.surechembl.org/chemical/SCHEMBL16106346

> <PUBCHEM_CID_ASSOCIATIONS>
117598638  1

> <PUBCHEM_COORDINATE_TYPE>
1
3

$$$$
