310944440
  -OEChem-07211613022D

 43 50  0     0  0  0  0  0  0999 V2000
    0.0229    2.4615    0.0000 F   0  0  0  0  0  0  0  0  0  0  0  0
    1.4860   -0.0229    0.0000 N   0  0  0  0  0  0  0  0  0  0  0  0
   -1.4708   -0.0229    0.0000 N   0  0  0  0  0  0  0  0  0  0  0  0
   -2.1719    1.9890    0.0000 N   0  0  0  0  0  0  0  0  0  0  0  0
    2.2024    1.9890    0.0000 N   0  0  0  0  0  0  0  0  0  0  0  0
    0.7239    0.4039    0.0000 C   0  0  0  0  0  0  0  0  0  0  0  0
   -0.7697    0.4191    0.0000 C   0  0  0  0  0  0  0  0  0  0  0  0
   -0.0077    0.0077    0.0000 C   0  0  0  0  0  0  0  0  0  0  0  0
    0.7392    1.2422    0.0000 C   0  0  0  0  0  0  0  0  0  0  0  0
   -0.7545    1.2422    0.0000 C   0  0  0  0  0  0  0  0  0  0  0  0
    2.2328    0.3277    0.0000 C   0  0  0  0  0  0  0  0  0  0  0  0
    1.5775   -0.8001    0.0000 C   0  0  0  0  0  0  0  0  0  0  0  0
   -2.2785    0.3429    0.0000 C   0  0  0  0  0  0  0  0  0  0  0  0
   -1.5775   -0.8154    0.0000 C   0  0  0  0  0  0  0  0  0  0  0  0
    0.0077    1.6689    0.0000 C   0  0  0  0  0  0  0  0  0  0  0  0
    2.3853   -1.0136    0.0000 C   0  0  0  0  0  0  0  0  0  0  0  0
    2.8272   -0.2667    0.0000 C   0  0  0  0  0  0  0  0  0  0  0  0
   -2.8273   -0.2515    0.0000 C   0  0  0  0  0  0  0  0  0  0  0  0
   -2.3700   -0.9678    0.0000 C   0  0  0  0  0  0  0  0  0  0  0  0
   -0.0229   -0.8307    0.0000 C   0  0  0  0  0  0  0  0  0  0  0  0
    2.5376    1.1050    0.0000 C   0  0  0  0  0  0  0  0  0  0  0  0
    1.0136   -1.4250    0.0000 C   0  0  0  0  0  0  0  0  0  0  0  0
   -2.5072    1.1050    0.0000 C   0  0  0  0  0  0  0  0  0  0  0  0
   -1.0288   -1.4250    0.0000 C   0  0  0  0  0  0  0  0  0  0  0  0
   -1.4708    1.6384    0.0000 C   0  0  0  0  0  0  0  0  0  0  0  0
    1.4708    1.6232    0.0000 C   0  0  0  0  0  0  0  0  0  0  0  0
    2.6443   -1.7756    0.0000 C   0  0  0  0  0  0  0  0  0  0  0  0
    3.6350   -0.1143    0.0000 C   0  0  0  0  0  0  0  0  0  0  0  0
   -2.6291   -1.7908    0.0000 C   0  0  0  0  0  0  0  0  0  0  0  0
   -3.6198   -0.0991    0.0000 C   0  0  0  0  0  0  0  0  0  0  0  0
   -0.7545   -1.2422    0.0000 C   0  0  0  0  0  0  0  0  0  0  0  0
    0.7239   -1.2269    0.0000 C   0  0  0  0  0  0  0  0  0  0  0  0
    1.2726   -2.2024    0.0000 C   0  0  0  0  0  0  0  0  0  0  0  0
    3.3454    1.2726    0.0000 C   0  0  0  0  0  0  0  0  0  0  0  0
   -3.3150    1.2879    0.0000 C   0  0  0  0  0  0  0  0  0  0  0  0
   -1.2726   -2.2024    0.0000 C   0  0  0  0  0  0  0  0  0  0  0  0
    2.0804   -2.3700    0.0000 C   0  0  0  0  0  0  0  0  0  0  0  0
    3.8941    0.6478    0.0000 C   0  0  0  0  0  0  0  0  0  0  0  0
   -3.8941    0.6782    0.0000 C   0  0  0  0  0  0  0  0  0  0  0  0
   -2.0804   -2.3700    0.0000 C   0  0  0  0  0  0  0  0  0  0  0  0
   -0.7545   -2.0500    0.0000 C   0  0  0  0  0  0  0  0  0  0  0  0
    0.7239   -2.0652    0.0000 C   0  0  0  0  0  0  0  0  0  0  0  0
    0.0077   -2.4614    0.0000 C   0  0  0  0  0  0  0  0  0  0  0  0
  1 15  1  0  0  0  0
  2  6  1  0  0  0  0
  2 11  1  0  0  0  0
  2 12  1  0  0  0  0
  3  7  1  0  0  0  0
  3 13  1  0  0  0  0
  3 14  1  0  0  0  0
  4 25  3  0  0  0  0
  5 26  3  0  0  0  0
  6  8  2  0  0  0  0
  6  9  1  0  0  0  0
  7  8  1  0  0  0  0
  7 10  2  0  0  0  0
  8 20  1  0  0  0  0
  9 15  2  0  0  0  0
  9 26  1  0  0  0  0
 10 15  1  0  0  0  0
 10 25  1  0  0  0  0
 11 17  2  0  0  0  0
 11 21  1  0  0  0  0
 12 16  2  0  0  0  0
 12 22  1  0  0  0  0
 13 18  2  0  0  0  0
 13 23  1  0  0  0  0
 14 19  2  0  0  0  0
 14 24  1  0  0  0  0
 16 17  1  0  0  0  0
 16 27  1  0  0  0  0
 17 28  1  0  0  0  0
 18 19  1  0  0  0  0
 18 30  1  0  0  0  0
 19 29  1  0  0  0  0
 20 31  2  0  0  0  0
 20 32  1  0  0  0  0
 21 34  2  0  0  0  0
 22 33  2  0  0  0  0
 23 35  2  0  0  0  0
 24 36  2  0  0  0  0
 27 37  2  0  0  0  0
 28 38  2  0  0  0  0
 29 40  2  0  0  0  0
 30 39  2  0  0  0  0
 31 41  1  0  0  0  0
 32 42  2  0  0  0  0
 33 37  1  0  0  0  0
 34 38  1  0  0  0  0
 35 39  1  0  0  0  0
 36 40  1  0  0  0  0
 41 43  2  0  0  0  0
 42 43  1  0  0  0  0
M  END
> <PUBCHEM_COMPOUND_ID_TYPE>
0

> <PUBCHEM_TOTAL_CHARGE>
0

> <PUBCHEM_SUBSTANCE_ID>
310944440

> <PUBCHEM_SUBSTANCE_VERSION>
1

> <PUBCHEM_EXT_DATASOURCE_NAME>
4488

> <PUBCHEM_EXT_DATASOURCE_REGID>
SCHEMBL16122515

> <PUBCHEM_SUBSTANCE_COMMENT>
InChI=1S/C38H21FN4/c39-36-29(22-40)37(42-31-18-8-4-14-25(31)26-15-5-9-19-32(26)42)35(24-12-2-1-3-13-24)38(30(36)23-41)43-33-20-10-6-16-27(33)28-17-7-11-21-34(28)43/h1-21H
InChIKey=GEXYLOLTOMMMCY-UHFFFAOYSA-N

> <PUBCHEM_SUBSTANCE_SYNONYM>
SCHEMBL16122515

> <PUBCHEM_XREF_EXT_ID>
SCHEMBL16122515

> <PUBCHEM_EXT_DATASOURCE_URL>
https://www.surechembl.org/

> <PUBCHEM_EXT_SUBSTANCE_URL>
https://www.surechembl.org/chemical/SCHEMBL16122515

> <PUBCHEM_CID_ASSOCIATIONS>
117610694  1

> <PUBCHEM_COORDINATE_TYPE>
1
3

$$$$
