310933227
  -OEChem-07211613022D

 19 20  0     1  0  0  0  0  0999 V2000
    0.8377   -1.1100    0.0000 F   0  0  0  0  0  0  0  0  0  0  0  0
    0.0000   -2.2619    0.0000 F   0  0  0  0  0  0  0  0  0  0  0  0
    1.4870   -1.5916    0.0000 F   0  0  0  0  0  0  0  0  0  0  0  0
    4.5027   -2.6807    0.0000 O   0  5  0  0  0  0  0  0  0  0  0  0
    3.3509   -3.5184    0.0000 O   0  0  0  0  0  0  0  0  0  0  0  0
    2.8064   -0.8168    0.0000 N   0  0  3  0  0  0  0  0  0  0  0  0
    3.7069   -2.7645    0.0000 N   0  3  0  0  0  0  0  0  0  0  0  0
    2.3875   -2.0943    0.0000 C   0  0  3  0  0  0  0  0  0  0  0  0
    1.9058   -2.7645    0.0000 C   0  0  0  0  0  0  0  0  0  0  0  0
    1.0890   -2.6807    0.0000 C   0  0  0  0  0  0  0  0  0  0  0  0
    3.2043   -2.0943    0.0000 C   0  0  3  0  0  0  0  0  0  0  0  0
    0.7540   -1.9268    0.0000 C   0  0  0  0  0  0  0  0  0  0  0  0
    2.1362   -1.3194    0.0000 C   0  0  0  0  0  0  0  0  0  0  0  0
    3.4556   -1.3194    0.0000 C   0  0  0  0  0  0  0  0  0  0  0  0
    2.2409   -3.5184    0.0000 C   0  0  0  0  0  0  0  0  0  0  0  0
    0.6074   -3.3509    0.0000 C   0  0  0  0  0  0  0  0  0  0  0  0
    1.7592   -4.1886    0.0000 C   0  0  0  0  0  0  0  0  0  0  0  0
    0.9424   -4.1048    0.0000 C   0  0  0  0  0  0  0  0  0  0  0  0
    2.8064    0.0000    0.0000 C   0  0  0  0  0  0  0  0  0  0  0  0
  1 12  1  0  0  0  0
  2 12  1  0  0  0  0
  3 12  1  0  0  0  0
  4  7  1  0  0  0  0
  5  7  2  0  0  0  0
  6 13  1  0  0  0  0
  6 14  1  0  0  0  0
  6 19  1  0  0  0  0
 11  7  1  1  0  0  0
  8  9  1  0  0  0  0
  8 11  1  0  0  0  0
  8 13  1  6  0  0  0
  9 10  1  0  0  0  0
  9 15  2  0  0  0  0
 10 12  1  0  0  0  0
 10 16  2  0  0  0  0
 11 14  1  0  0  0  0
 15 17  1  0  0  0  0
 16 18  1  0  0  0  0
 17 18  2  0  0  0  0
M  CHG  2   4  -1   7   1
M  END
> <PUBCHEM_COMPOUND_ID_TYPE>
0

> <PUBCHEM_TOTAL_CHARGE>
0

> <PUBCHEM_SUBSTANCE_ID>
310933227

> <PUBCHEM_SUBSTANCE_VERSION>
1

> <PUBCHEM_EXT_DATASOURCE_NAME>
4488

> <PUBCHEM_EXT_DATASOURCE_REGID>
SCHEMBL16110636

> <PUBCHEM_SUBSTANCE_COMMENT>
InChI=1S/C12H13F3N2O2/c1-16-6-9(11(7-16)17(18)19)8-4-2-3-5-10(8)12(13,14)15/h2-5,9,11H,6-7H2,1H3/t9-,11+/m0/s1
InChIKey=GFODAEDFHIGJLY-GXSJLCMTSA-N

> <PUBCHEM_SUBSTANCE_SYNONYM>
SCHEMBL16110636

> <PUBCHEM_XREF_EXT_ID>
SCHEMBL16110636

> <PUBCHEM_EXT_DATASOURCE_URL>
https://www.surechembl.org/

> <PUBCHEM_EXT_SUBSTANCE_URL>
https://www.surechembl.org/chemical/SCHEMBL16110636

> <PUBCHEM_CID_ASSOCIATIONS>
117601661  1

> <PUBCHEM_COORDINATE_TYPE>
1
3

> <PUBCHEM_BONDANNOTATIONS>
11  7  5
8  13  6

$$$$
