310940861
  -OEChem-07211613022D

 42 45  0     1  0  0  0  0  0999 V2000
    0.6829    2.0265    0.0000 F   0  0  0  0  0  0  0  0  0  0  0  0
    1.0986    2.7390    0.0000 F   0  0  0  0  0  0  0  0  0  0  0  0
    5.1069    0.8981    0.0000 O   0  0  0  0  0  0  0  0  0  0  0  0
    3.9638   -1.0763    0.0000 O   0  0  0  0  0  0  0  0  0  0  0  0
    1.7964    0.7943    0.0000 O   0  0  0  0  0  0  0  0  0  0  0  0
   -0.3563   -1.0763    0.0000 O   0  0  0  0  0  0  0  0  0  0  0  0
   -2.5237    1.0021    0.0000 O   0  0  0  0  0  0  0  0  0  0  0  0
    3.9638   -2.7390    0.0000 O   0  0  0  0  0  0  0  0  0  0  0  0
   -5.4039   -1.4920    0.0000 O   0  0  0  0  0  0  0  0  0  0  0  0
    2.5237   -0.2301    0.0000 N   0  0  0  0  0  0  0  0  0  0  0  0
    0.3563    0.1856    0.0000 N   0  0  0  0  0  0  0  0  0  0  0  0
   -1.8112   -0.2301    0.0000 N   0  0  0  0  0  0  0  0  0  0  0  0
    4.6764    0.2153    0.0000 C   0  0  3  0  0  0  0  0  0  0  0  0
    3.9638   -0.2004    0.0000 C   0  0  0  0  0  0  0  0  0  0  0  0
    4.2904    0.9130    0.0000 C   0  0  0  0  0  0  0  0  0  0  0  0
    3.2364    0.2004    0.0000 C   0  0  3  0  0  0  0  0  0  0  0  0
    2.4941    1.4623    0.0000 C   0  0  0  0  0  0  0  0  0  0  0  0
    3.2512    1.0317    0.0000 C   0  0  0  0  0  0  0  0  0  0  0  0
    1.4994    2.0413    0.0000 C   0  0  0  0  0  0  0  0  0  0  0  0
    5.4039   -0.2153    0.0000 C   0  0  0  0  0  0  0  0  0  0  0  0
    1.7370    1.2396    0.0000 C   0  0  0  0  0  0  0  0  0  0  0  0
    2.3011    2.2343    0.0000 C   0  0  0  0  0  0  0  0  0  0  0  0
    1.7964    0.1856    0.0000 C   0  0  0  0  0  0  0  0  0  0  0  0
    1.0838   -0.2004    0.0000 C   0  0  3  0  0  0  0  0  0  0  0  0
    1.0689   -1.0615    0.0000 C   0  0  0  0  0  0  0  0  0  0  0  0
   -0.3415   -0.1856    0.0000 C   0  0  0  0  0  0  0  0  0  0  0  0
    1.8260   -1.4623    0.0000 C   0  0  0  0  0  0  0  0  0  0  0  0
   -1.0689    0.2004    0.0000 C   0  0  3  0  0  0  0  0  0  0  0  0
   -2.5089    0.2004    0.0000 C   0  0  0  0  0  0  0  0  0  0  0  0
    1.8260   -2.2936    0.0000 C   0  0  0  0  0  0  0  0  0  0  0  0
    2.5089   -1.0615    0.0000 C   0  0  0  0  0  0  0  0  0  0  0  0
   -3.2364   -0.2153    0.0000 C   0  0  0  0  0  0  0  0  0  0  0  0
    3.2512   -2.2788    0.0000 C   0  0  0  0  0  0  0  0  0  0  0  0
    2.5237   -2.6945    0.0000 C   0  0  0  0  0  0  0  0  0  0  0  0
    3.2512   -1.4772    0.0000 C   0  0  0  0  0  0  0  0  0  0  0  0
   -3.9786    0.1856    0.0000 C   0  0  0  0  0  0  0  0  0  0  0  0
   -3.2364   -1.0466    0.0000 C   0  0  0  0  0  0  0  0  0  0  0  0
   -1.0689    1.0169    0.0000 C   0  0  0  0  0  0  0  0  0  0  0  0
   -4.6764   -1.0466    0.0000 C   0  0  0  0  0  0  0  0  0  0  0  0
   -4.6764   -0.2301    0.0000 C   0  0  0  0  0  0  0  0  0  0  0  0
   -3.9638   -1.4474    0.0000 C   0  0  0  0  0  0  0  0  0  0  0  0
    4.7061   -2.3085    0.0000 C   0  0  0  0  0  0  0  0  0  0  0  0
  1 19  1  0  0  0  0
  2 19  1  0  0  0  0
  3 13  1  0  0  0  0
  3 15  1  0  0  0  0
  4 14  2  0  0  0  0
  5 23  2  0  0  0  0
  6 26  2  0  0  0  0
  7 29  2  0  0  0  0
  8 33  1  0  0  0  0
  8 42  1  0  0  0  0
 39  9  1  6  0  0  0
 16 10  1  1  0  0  0
 10 23  1  0  0  0  0
 24 11  1  6  0  0  0
 11 26  1  0  0  0  0
 12 28  1  0  0  0  0
 12 29  1  0  0  0  0
 13 14  1  1  0  0  0
 13 15  1  0  0  0  0
 13 20  1  6  0  0  0
 14 16  1  0  0  0  0
 16 18  1  0  0  0  0
 17 18  1  0  0  0  0
 17 21  1  0  0  0  0
 17 22  1  0  0  0  0
 19 21  1  0  0  0  0
 19 22  1  0  0  0  0
 23 24  1  0  0  0  0
 24 25  1  0  0  0  0
 25 27  1  0  0  0  0
 26 28  1  0  0  0  0
 27 30  2  0  0  0  0
 27 31  1  0  0  0  0
 28 38  1  6  0  0  0
 32 29  1  1  0  0  0
 30 34  1  0  0  0  0
 31 35  2  0  0  0  0
 32 36  1  0  0  0  0
 32 37  1  0  0  0  0
 33 34  2  0  0  0  0
 33 35  1  0  0  0  0
 36 40  1  0  0  0  0
 37 41  1  0  0  0  0
 39 40  1  0  0  0  0
 39 41  1  0  0  0  0
M  END
> <PUBCHEM_COMPOUND_ID_TYPE>
0

> <PUBCHEM_TOTAL_CHARGE>
0

> <PUBCHEM_SUBSTANCE_ID>
310940861

> <PUBCHEM_SUBSTANCE_VERSION>
1

> <PUBCHEM_EXT_DATASOURCE_NAME>
4488

> <PUBCHEM_EXT_DATASOURCE_REGID>
SCHEMBL16118820

> <PUBCHEM_SUBSTANCE_COMMENT>
InChI=1S/C30H41F2N3O7/c1-17(33-27(39)20-6-8-21(36)9-7-20)26(38)35-24(12-18-4-10-22(41-3)11-5-18)28(40)34-23(25(37)29(2)16-42-29)13-19-14-30(31,32)15-19/h4-5,10-11,17,19-21,23-24,36H,6-9,12-16H2,1-3H3,(H,33,39)(H,34,40)(H,35,38)/t17-,20-,21-,23+,24+,29-/m1/s1
InChIKey=STTPQLKYMZZNSG-JBYIJFBCSA-N

> <PUBCHEM_SUBSTANCE_SYNONYM>
SCHEMBL16118820

> <PUBCHEM_XREF_EXT_ID>
SCHEMBL16118820

> <PUBCHEM_EXT_DATASOURCE_URL>
https://www.surechembl.org/

> <PUBCHEM_EXT_SUBSTANCE_URL>
https://www.surechembl.org/chemical/SCHEMBL16118820

> <PUBCHEM_CID_ASSOCIATIONS>
117607778  1

> <PUBCHEM_COORDINATE_TYPE>
1
3

> <PUBCHEM_BONDANNOTATIONS>
16  10  5
24  11  6
13  14  5
13  20  6
28  38  6
32  29  5
39  9  6

$$$$
