310945817
  -OEChem-07211613022D

 42 44  0     1  0  0  0  0  0999 V2000
   -4.2858   -0.3963    0.0000 F   0  0  0  0  0  0  0  0  0  0  0  0
   -5.3695   -0.1213    0.0000 F   0  0  0  0  0  0  0  0  0  0  0  0
   -5.0622    0.9785    0.0000 F   0  0  0  0  0  0  0  0  0  0  0  0
    5.3695    1.1240    0.0000 O   0  0  0  0  0  0  0  0  0  0  0  0
    3.9624   -0.5256    0.0000 O   0  0  0  0  0  0  0  0  0  0  0  0
   -4.3829    1.4475    0.0000 O   0  0  0  0  0  0  0  0  0  0  0  0
    1.7952    1.5607    0.0000 O   0  0  0  0  0  0  0  0  0  0  0  0
   -2.5230    1.5607    0.0000 O   0  0  0  0  0  0  0  0  0  0  0  0
   -0.3720   -0.5256    0.0000 O   0  0  0  0  0  0  0  0  0  0  0  0
    3.8977   -2.1591    0.0000 O   0  0  0  0  0  0  0  0  0  0  0  0
    2.5230    0.3153    0.0000 N   0  0  0  0  0  0  0  0  0  0  0  0
    0.3558    0.7359    0.0000 N   0  0  0  0  0  0  0  0  0  0  0  0
   -1.7952    0.3153    0.0000 N   0  0  0  0  0  0  0  0  0  0  0  0
    4.7063    0.7197    0.0000 C   0  0  3  0  0  0  0  0  0  0  0  0
    3.9301    0.3315    0.0000 C   0  0  0  0  0  0  0  0  0  0  0  0
    5.3695    0.3315    0.0000 C   0  0  0  0  0  0  0  0  0  0  0  0
    3.2346    0.7359    0.0000 C   0  0  3  0  0  0  0  0  0  0  0  0
    3.9624    1.1564    0.0000 C   0  0  0  0  0  0  0  0  0  0  0  0
    3.2508    1.5607    0.0000 C   0  0  0  0  0  0  0  0  0  0  0  0
    1.7952    0.7197    0.0000 C   0  0  0  0  0  0  0  0  0  0  0  0
   -3.9462    0.7359    0.0000 C   0  0  3  0  0  0  0  0  0  0  0  0
   -4.6902    0.2992    0.0000 C   0  0  0  0  0  0  0  0  0  0  0  0
    1.0998    0.3153    0.0000 C   0  0  3  0  0  0  0  0  0  0  0  0
    3.9624    1.9812    0.0000 C   0  0  0  0  0  0  0  0  0  0  0  0
   -3.2184    0.3153    0.0000 C   0  0  0  0  0  0  0  0  0  0  0  0
   -2.5230    0.7197    0.0000 C   0  0  0  0  0  0  0  0  0  0  0  0
    1.0674   -0.5256    0.0000 C   0  0  0  0  0  0  0  0  0  0  0  0
   -0.3558    0.3477    0.0000 C   0  0  0  0  0  0  0  0  0  0  0  0
   -1.0836    0.7197    0.0000 C   0  0  3  0  0  0  0  0  0  0  0  0
    1.8114   -0.9299    0.0000 C   0  0  0  0  0  0  0  0  0  0  0  0
    4.0595    2.8061    0.0000 C   0  0  0  0  0  0  0  0  0  0  0  0
    4.7225    1.6416    0.0000 C   0  0  0  0  0  0  0  0  0  0  0  0
   -3.5419    1.4637    0.0000 C   0  0  0  0  0  0  0  0  0  0  0  0
    4.8681    2.9678    0.0000 C   0  0  0  0  0  0  0  0  0  0  0  0
    5.2724    2.2723    0.0000 C   0  0  0  0  0  0  0  0  0  0  0  0
    2.5068   -0.5580    0.0000 C   0  0  0  0  0  0  0  0  0  0  0  0
    1.8114   -1.7386    0.0000 C   0  0  0  0  0  0  0  0  0  0  0  0
    3.1699   -1.7224    0.0000 C   0  0  0  0  0  0  0  0  0  0  0  0
    3.1861   -0.9299    0.0000 C   0  0  0  0  0  0  0  0  0  0  0  0
    2.5068   -2.1267    0.0000 C   0  0  0  0  0  0  0  0  0  0  0  0
   -1.0674    1.5445    0.0000 C   0  0  0  0  0  0  0  0  0  0  0  0
    3.8977   -2.9678    0.0000 C   0  0  0  0  0  0  0  0  0  0  0  0
  1 22  1  0  0  0  0
  2 22  1  0  0  0  0
  3 22  1  0  0  0  0
  4 14  1  0  0  0  0
  4 16  1  0  0  0  0
  5 15  2  0  0  0  0
  6 21  1  0  0  0  0
  7 20  2  0  0  0  0
  8 26  2  0  0  0  0
  9 28  2  0  0  0  0
 10 38  1  0  0  0  0
 10 42  1  0  0  0  0
 17 11  1  1  0  0  0
 11 20  1  0  0  0  0
 23 12  1  6  0  0  0
 12 28  1  0  0  0  0
 13 26  1  0  0  0  0
 13 29  1  0  0  0  0
 14 15  1  6  0  0  0
 14 16  1  0  0  0  0
 14 18  1  1  0  0  0
 15 17  1  0  0  0  0
 17 19  1  0  0  0  0
 19 24  1  0  0  0  0
 20 23  1  0  0  0  0
 21 22  1  0  0  0  0
 21 25  1  0  0  0  0
 21 33  1  0  0  0  0
 23 27  1  0  0  0  0
 24 31  1  0  0  0  0
 24 32  1  0  0  0  0
 25 26  1  0  0  0  0
 27 30  1  0  0  0  0
 28 29  1  0  0  0  0
 29 41  1  6  0  0  0
 30 36  2  0  0  0  0
 30 37  1  0  0  0  0
 31 34  1  0  0  0  0
 32 35  1  0  0  0  0
 34 35  1  0  0  0  0
 36 39  1  0  0  0  0
 37 40  2  0  0  0  0
 38 39  2  0  0  0  0
 38 40  1  0  0  0  0
M  END
> <PUBCHEM_COMPOUND_ID_TYPE>
0

> <PUBCHEM_TOTAL_CHARGE>
0

> <PUBCHEM_SUBSTANCE_ID>
310945817

> <PUBCHEM_SUBSTANCE_VERSION>
1

> <PUBCHEM_EXT_DATASOURCE_NAME>
4488

> <PUBCHEM_EXT_DATASOURCE_REGID>
SCHEMBL16123921

> <PUBCHEM_SUBSTANCE_COMMENT>
InChI=1S/C29H40F3N3O7/c1-17(33-23(36)15-28(3,40)29(30,31)32)25(38)35-22(14-19-9-11-20(41-4)12-10-19)26(39)34-21(13-18-7-5-6-8-18)24(37)27(2)16-42-27/h9-12,17-18,21-22,40H,5-8,13-16H2,1-4H3,(H,33,36)(H,34,39)(H,35,38)/t17-,21+,22+,27-,28?/m1/s1
InChIKey=DNVASXDWLRJVCS-IFKYXHRPSA-N

> <PUBCHEM_SUBSTANCE_SYNONYM>
SCHEMBL16123921

> <PUBCHEM_XREF_EXT_ID>
SCHEMBL16123921

> <PUBCHEM_EXT_DATASOURCE_URL>
https://www.surechembl.org/

> <PUBCHEM_EXT_SUBSTANCE_URL>
https://www.surechembl.org/chemical/SCHEMBL16123921

> <PUBCHEM_CID_ASSOCIATIONS>
117611803  1

> <PUBCHEM_COORDINATE_TYPE>
1
3

> <PUBCHEM_BONDANNOTATIONS>
17  11  5
23  12  6
14  15  6
14  18  5
29  41  6

$$$$
