310938647
  -OEChem-07211613022D

 30 32  0     0  0  0  0  0  0999 V2000
   -4.1887   -2.7376    0.0000 Cl  0  0  0  0  0  0  0  0  0  0  0  0
    0.8126   -0.6751    0.0000 S   0  0  0  0  0  0  0  0  0  0  0  0
    5.0994   -5.6251    0.0000 F   0  0  0  0  0  0  0  0  0  0  0  0
   -0.6164   -3.1501    0.0000 O   0  0  0  0  0  0  0  0  0  0  0  0
    0.0981   -4.3876    0.0000 O   0  0  0  0  0  0  0  0  0  0  0  0
   -4.1887   -5.2126    0.0000 O   0  0  0  0  0  0  0  0  0  0  0  0
    0.0981   -1.9126    0.0000 N   0  0  0  0  0  0  0  0  0  0  0  0
    1.5271   -1.9126    0.0000 N   0  0  0  0  0  0  0  0  0  0  0  0
    1.5271   -4.3876    0.0000 N   0  0  0  0  0  0  0  0  0  0  0  0
    0.8126   -3.1501    0.0000 C   0  0  0  0  0  0  0  0  0  0  0  0
    0.0981   -2.7376    0.0000 C   0  0  0  0  0  0  0  0  0  0  0  0
    0.8126   -3.9751    0.0000 C   0  0  0  0  0  0  0  0  0  0  0  0
    0.8126   -1.5001    0.0000 C   0  0  0  0  0  0  0  0  0  0  0  0
    1.5271   -2.7376    0.0000 C   0  0  0  0  0  0  0  0  0  0  0  0
   -2.0453   -3.1501    0.0000 C   0  0  0  0  0  0  0  0  0  0  0  0
   -1.3308   -2.7376    0.0000 C   0  0  0  0  0  0  0  0  0  0  0  0
   -3.4742   -3.1501    0.0000 C   0  0  0  0  0  0  0  0  0  0  0  0
   -3.4742   -3.9751    0.0000 C   0  0  0  0  0  0  0  0  0  0  0  0
   -2.7598   -2.7376    0.0000 C   0  0  0  0  0  0  0  0  0  0  0  0
   -2.0453   -3.9751    0.0000 C   0  0  0  0  0  0  0  0  0  0  0  0
   -2.7598   -4.3876    0.0000 C   0  0  0  0  0  0  0  0  0  0  0  0
    2.2415   -3.9751    0.0000 C   0  0  0  0  0  0  0  0  0  0  0  0
    2.9560   -4.3876    0.0000 C   0  0  0  0  0  0  0  0  0  0  0  0
   -4.1887   -4.3876    0.0000 C   0  0  0  0  0  0  0  0  0  0  0  0
    2.9560   -5.2126    0.0000 C   0  0  0  0  0  0  0  0  0  0  0  0
    3.6705   -3.9751    0.0000 C   0  0  0  0  0  0  0  0  0  0  0  0
    4.3849   -5.2126    0.0000 C   0  0  0  0  0  0  0  0  0  0  0  0
    3.6705   -5.6251    0.0000 C   0  0  0  0  0  0  0  0  0  0  0  0
    4.3849   -4.3876    0.0000 C   0  0  0  0  0  0  0  0  0  0  0  0
    0.0981   -0.2626    0.0000 C   0  0  0  0  0  0  0  0  0  0  0  0
  1 17  1  0  0  0  0
  2 13  1  0  0  0  0
  2 30  1  0  0  0  0
  3 27  1  0  0  0  0
  4 11  1  0  0  0  0
  4 16  1  0  0  0  0
  5 12  2  0  0  0  0
  6 24  1  0  0  0  0
  7 11  2  0  0  0  0
  7 13  1  0  0  0  0
  8 13  2  0  0  0  0
  8 14  1  0  0  0  0
  9 12  1  0  0  0  0
  9 22  1  0  0  0  0
 10 11  1  0  0  0  0
 10 12  1  0  0  0  0
 10 14  2  0  0  0  0
 15 16  1  0  0  0  0
 15 19  2  0  0  0  0
 15 20  1  0  0  0  0
 17 18  2  0  0  0  0
 17 19  1  0  0  0  0
 18 21  1  0  0  0  0
 18 24  1  0  0  0  0
 20 21  2  0  0  0  0
 22 23  1  0  0  0  0
 23 25  2  0  0  0  0
 23 26  1  0  0  0  0
 25 28  1  0  0  0  0
 26 29  2  0  0  0  0
 27 28  2  0  0  0  0
 27 29  1  0  0  0  0
M  END
> <PUBCHEM_COMPOUND_ID_TYPE>
0

> <PUBCHEM_TOTAL_CHARGE>
0

> <PUBCHEM_SUBSTANCE_ID>
310938647

> <PUBCHEM_SUBSTANCE_VERSION>
1

> <PUBCHEM_EXT_DATASOURCE_NAME>
4488

> <PUBCHEM_EXT_DATASOURCE_REGID>
SCHEMBL16116561

> <PUBCHEM_SUBSTANCE_COMMENT>
InChI=1S/C21H19ClFN3O3S/c1-30-21-25-10-17(19(28)24-9-13-3-6-16(23)7-4-13)20(26-21)29-12-14-2-5-15(11-27)18(22)8-14/h2-8,10,27H,9,11-12H2,1H3,(H,24,28)
InChIKey=MURJKEVSZRHVFN-UHFFFAOYSA-N

> <PUBCHEM_SUBSTANCE_SYNONYM>
SCHEMBL16116561

> <PUBCHEM_XREF_EXT_ID>
SCHEMBL16116561

> <PUBCHEM_EXT_DATASOURCE_URL>
https://www.surechembl.org/

> <PUBCHEM_EXT_SUBSTANCE_URL>
https://www.surechembl.org/chemical/SCHEMBL16116561

> <PUBCHEM_CID_ASSOCIATIONS>
117606079  1

> <PUBCHEM_COORDINATE_TYPE>
1
3

$$$$
