310933963
  -OEChem-07211613022D

 21 23  0     0  0  0  0  0  0999 V2000
   -0.8377    1.9065    0.0000 O   0  0  0  0  0  0  0  0  0  0  0  0
   -1.5522    3.1440    0.0000 O   0  0  0  0  0  0  0  0  0  0  0  0
   -2.3529    1.0861    0.0000 N   0  0  0  0  0  0  0  0  0  0  0  0
   -3.1599    0.9145    0.0000 N   0  0  0  0  0  0  0  0  0  0  0  0
   -2.2666    1.9065    0.0000 C   0  0  0  0  0  0  0  0  0  0  0  0
   -1.7398    0.5340    0.0000 C   0  0  0  0  0  0  0  0  0  0  0  0
   -1.5522    2.3190    0.0000 C   0  0  0  0  0  0  0  0  0  0  0  0
   -3.0203    2.2421    0.0000 C   0  0  0  0  0  0  0  0  0  0  0  0
   -3.5724    1.6290    0.0000 C   0  0  0  0  0  0  0  0  0  0  0  0
   -1.9113   -0.2730    0.0000 C   0  0  0  0  0  0  0  0  0  0  0  0
   -0.9552    0.7889    0.0000 C   0  0  0  0  0  0  0  0  0  0  0  0
   -0.1232    2.3190    0.0000 C   0  0  0  0  0  0  0  0  0  0  0  0
    0.5912    1.9065    0.0000 C   0  0  0  0  0  0  0  0  0  0  0  0
   -1.2982   -0.8250    0.0000 C   0  0  0  0  0  0  0  0  0  0  0  0
   -0.3421    0.2369    0.0000 C   0  0  0  0  0  0  0  0  0  0  0  0
   -0.5136   -0.5701    0.0000 C   0  0  0  0  0  0  0  0  0  0  0  0
    0.5912    1.0815    0.0000 C   0  0  0  0  0  0  0  0  0  0  0  0
    1.3057    2.3190    0.0000 C   0  0  0  0  0  0  0  0  0  0  0  0
    1.3057    0.6690    0.0000 C   0  0  0  0  0  0  0  0  0  0  0  0
    2.0202    1.9065    0.0000 C   0  0  0  0  0  0  0  0  0  0  0  0
    2.0202    1.0815    0.0000 C   0  0  0  0  0  0  0  0  0  0  0  0
  1  7  1  0  0  0  0
  1 12  1  0  0  0  0
  2  7  2  0  0  0  0
  3  4  1  0  0  0  0
  3  5  1  0  0  0  0
  3  6  1  0  0  0  0
  4  9  2  0  0  0  0
  5  7  1  0  0  0  0
  5  8  2  0  0  0  0
  6 10  2  0  0  0  0
  6 11  1  0  0  0  0
  8  9  1  0  0  0  0
 10 14  1  0  0  0  0
 11 15  2  0  0  0  0
 12 13  1  0  0  0  0
 13 17  2  0  0  0  0
 13 18  1  0  0  0  0
 14 16  2  0  0  0  0
 15 16  1  0  0  0  0
 17 19  1  0  0  0  0
 18 20  2  0  0  0  0
 19 21  2  0  0  0  0
 20 21  1  0  0  0  0
M  END
> <PUBCHEM_COMPOUND_ID_TYPE>
0

> <PUBCHEM_TOTAL_CHARGE>
0

> <PUBCHEM_SUBSTANCE_ID>
310933963

> <PUBCHEM_SUBSTANCE_VERSION>
1

> <PUBCHEM_EXT_DATASOURCE_NAME>
4488

> <PUBCHEM_EXT_DATASOURCE_REGID>
SCHEMBL16111402

> <PUBCHEM_SUBSTANCE_COMMENT>
InChI=1S/C17H14N2O2/c20-17(21-13-14-7-3-1-4-8-14)16-11-12-18-19(16)15-9-5-2-6-10-15/h1-12H,13H2
InChIKey=GCTJZMQHNJPGBP-UHFFFAOYSA-N

> <PUBCHEM_SUBSTANCE_SYNONYM>
SCHEMBL16111402

> <PUBCHEM_XREF_EXT_ID>
SCHEMBL16111402

> <PUBCHEM_EXT_DATASOURCE_URL>
https://www.surechembl.org/

> <PUBCHEM_EXT_SUBSTANCE_URL>
https://www.surechembl.org/chemical/SCHEMBL16111402

> <PUBCHEM_CID_ASSOCIATIONS>
117602279  1

> <PUBCHEM_COORDINATE_TYPE>
1
3

$$$$
