310932446
  -OEChem-07211613022D

 31 34  0     0  0  0  0  0  0999 V2000
    2.8230   -2.1083    0.0000 O   0  0  0  0  0  0  0  0  0  0  0  0
    0.1429   -2.3584    0.0000 O   0  0  0  0  0  0  0  0  0  0  0  0
    7.2897   -2.1798    0.0000 O   0  0  0  0  0  0  0  0  0  0  0  0
    3.7163   -0.9648    0.0000 N   0  0  0  0  0  0  0  0  0  0  0  0
    3.6448   -0.1429    0.0000 N   0  0  0  0  0  0  0  0  0  0  0  0
    5.1457   -0.9648    0.0000 N   0  0  0  0  0  0  0  0  0  0  0  0
    0.0000   -0.9648    0.0000 N   0  0  0  0  0  0  0  0  0  0  0  0
    6.5751   -3.4305    0.0000 N   0  0  0  0  0  0  0  0  0  0  0  0
    8.0044   -5.8961    0.0000 N   0  0  0  0  0  0  0  0  0  0  0  0
    2.4299   -0.7147    0.0000 C   0  0  0  0  0  0  0  0  0  0  0  0
    3.0016   -1.2864    0.0000 C   0  0  0  0  0  0  0  0  0  0  0  0
    4.4310   -1.3937    0.0000 C   0  0  0  0  0  0  0  0  0  0  0  0
    1.6080   -0.7861    0.0000 C   0  0  0  0  0  0  0  0  0  0  0  0
    2.8230    0.0000    0.0000 C   0  0  0  0  0  0  0  0  0  0  0  0
    4.4310   -2.1798    0.0000 C   0  0  0  0  0  0  0  0  0  0  0  0
    1.2864   -1.5723    0.0000 C   0  0  0  0  0  0  0  0  0  0  0  0
    1.1435   -0.1429    0.0000 C   0  0  0  0  0  0  0  0  0  0  0  0
    5.8604   -2.1798    0.0000 C   0  0  0  0  0  0  0  0  0  0  0  0
    0.4645   -1.6080    0.0000 C   0  0  0  0  0  0  0  0  0  0  0  0
    5.8604   -1.3937    0.0000 C   0  0  0  0  0  0  0  0  0  0  0  0
    5.1457   -2.6086    0.0000 C   0  0  0  0  0  0  0  0  0  0  0  0
    6.5751   -2.6086    0.0000 C   0  0  0  0  0  0  0  0  0  0  0  0
    0.3216   -0.2144    0.0000 C   0  0  0  0  0  0  0  0  0  0  0  0
    7.2897   -3.8235    0.0000 C   0  0  0  0  0  0  0  0  0  0  0  0
    0.6075   -3.0374    0.0000 C   0  0  0  0  0  0  0  0  0  0  0  0
    7.2897   -4.6454    0.0000 C   0  0  0  0  0  0  0  0  0  0  0  0
    8.0044   -5.0742    0.0000 C   0  0  0  0  0  0  0  0  0  0  0  0
    8.6833   -6.3606    0.0000 C   0  0  0  0  0  0  0  0  0  0  0  0
    7.3612   -6.3606    0.0000 C   0  0  0  0  0  0  0  0  0  0  0  0
    8.4332   -7.1468    0.0000 C   0  0  0  0  0  0  0  0  0  0  0  0
    7.6114   -7.1468    0.0000 C   0  0  0  0  0  0  0  0  0  0  0  0
  1 11  1  0  0  0  0
  2 19  1  0  0  0  0
  2 25  1  0  0  0  0
  3 22  2  0  0  0  0
  4  5  1  0  0  0  0
  4 11  1  0  0  0  0
  4 12  1  0  0  0  0
  5 14  2  0  0  0  0
  6 12  2  0  0  0  0
  6 20  1  0  0  0  0
  7 19  1  0  0  0  0
  7 23  2  0  0  0  0
  8 22  1  0  0  0  0
  8 24  1  0  0  0  0
  9 27  1  0  0  0  0
  9 28  1  0  0  0  0
  9 29  1  0  0  0  0
 10 11  2  0  0  0  0
 10 13  1  0  0  0  0
 10 14  1  0  0  0  0
 12 15  1  0  0  0  0
 13 16  1  0  0  0  0
 13 17  2  0  0  0  0
 15 21  2  0  0  0  0
 16 19  2  0  0  0  0
 17 23  1  0  0  0  0
 18 20  2  0  0  0  0
 18 21  1  0  0  0  0
 18 22  1  0  0  0  0
 24 26  1  0  0  0  0
 26 27  1  0  0  0  0
 28 30  1  0  0  0  0
 29 31  1  0  0  0  0
 30 31  1  0  0  0  0
M  END
> <PUBCHEM_COMPOUND_ID_TYPE>
0

> <PUBCHEM_TOTAL_CHARGE>
0

> <PUBCHEM_SUBSTANCE_ID>
310932446

> <PUBCHEM_SUBSTANCE_VERSION>
1

> <PUBCHEM_EXT_DATASOURCE_NAME>
4488

> <PUBCHEM_EXT_DATASOURCE_REGID>
SCHEMBL16109816

> <PUBCHEM_SUBSTANCE_COMMENT>
InChI=1S/C22H26N6O3/c1-31-20-13-16(7-9-23-20)18-15-26-28(22(18)30)19-6-5-17(14-25-19)21(29)24-8-4-12-27-10-2-3-11-27/h5-7,9,13-15,30H,2-4,8,10-12H2,1H3,(H,24,29)
InChIKey=LQXZHAMLKXHVLG-UHFFFAOYSA-N

> <PUBCHEM_SUBSTANCE_SYNONYM>
SCHEMBL16109816

> <PUBCHEM_XREF_EXT_ID>
SCHEMBL16109816

> <PUBCHEM_EXT_DATASOURCE_URL>
https://www.surechembl.org/

> <PUBCHEM_EXT_SUBSTANCE_URL>
https://www.surechembl.org/chemical/SCHEMBL16109816

> <PUBCHEM_CID_ASSOCIATIONS>
117600990  1

> <PUBCHEM_COORDINATE_TYPE>
1
3

$$$$
