310941853
  -OEChem-07211613022D

 22 23  0     0  0  0  0  0  0999 V2000
    1.4419    1.4481    0.0000 N   0  0  0  0  0  0  0  0  0  0  0  0
    0.7085    0.2051    0.0000 C   0  0  0  0  0  0  0  0  0  0  0  0
   -0.0124   -1.0379    0.0000 C   0  0  0  0  0  0  0  0  0  0  0  0
    1.4294   -0.2051    0.0000 C   0  0  0  0  0  0  0  0  0  0  0  0
    1.4170   -1.0379    0.0000 C   0  0  0  0  0  0  0  0  0  0  0  0
    0.0124   -0.2175    0.0000 C   0  0  0  0  0  0  0  0  0  0  0  0
   -0.7209   -1.4481    0.0000 C   0  0  0  0  0  0  0  0  0  0  0  0
    0.7085   -1.4481    0.0000 C   0  0  0  0  0  0  0  0  0  0  0  0
    0.7209    1.0379    0.0000 C   0  0  0  0  0  0  0  0  0  0  0  0
   -1.4294   -1.0503    0.0000 C   0  0  0  0  0  0  0  0  0  0  0  0
   -0.7209   -2.2809    0.0000 C   0  0  0  0  0  0  0  0  0  0  0  0
    2.1504    0.2051    0.0000 C   0  0  0  0  0  0  0  0  0  0  0  0
    0.0000    1.4481    0.0000 C   0  0  0  0  0  0  0  0  0  0  0  0
    2.1504   -1.4481    0.0000 C   0  0  0  0  0  0  0  0  0  0  0  0
    1.2057    1.3735    0.0000 C   0  0  0  0  0  0  0  0  0  0  0  0
   -2.1504   -1.4606    0.0000 C   0  0  0  0  0  0  0  0  0  0  0  0
   -1.4419   -2.6911    0.0000 C   0  0  0  0  0  0  0  0  0  0  0  0
   -2.1504   -2.2809    0.0000 C   0  0  0  0  0  0  0  0  0  0  0  0
    0.0124    2.2685    0.0000 C   0  0  0  0  0  0  0  0  0  0  0  0
    0.7209    2.6911    0.0000 C   0  0  0  0  0  0  0  0  0  0  0  0
    1.4294    2.2685    0.0000 C   0  0  0  0  0  0  0  0  0  0  0  0
    2.1504    1.0379    0.0000 C   0  0  0  0  0  0  0  0  0  0  0  0
  1 21  1  0  0  0  0
  1 22  1  0  0  0  0
  2  4  1  0  0  0  0
  2  6  2  0  0  0  0
  2  9  1  0  0  0  0
  3  6  1  0  0  0  0
  3  7  1  0  0  0  0
  3  8  2  0  0  0  0
  4  5  2  0  0  0  0
  4 12  1  0  0  0  0
  5  8  1  0  0  0  0
  5 14  1  0  0  0  0
  7 10  2  0  0  0  0
  7 11  1  0  0  0  0
  9 13  1  0  0  0  0
  9 15  2  0  0  0  0
 10 16  1  0  0  0  0
 11 17  2  0  0  0  0
 13 19  2  0  0  0  0
 16 18  2  0  0  0  0
 17 18  1  0  0  0  0
 19 20  1  0  0  0  0
 20 21  2  0  0  0  0
M  END
> <PUBCHEM_COMPOUND_ID_TYPE>
0

> <PUBCHEM_TOTAL_CHARGE>
0

> <PUBCHEM_SUBSTANCE_ID>
310941853

> <PUBCHEM_SUBSTANCE_VERSION>
1

> <PUBCHEM_EXT_DATASOURCE_NAME>
4488

> <PUBCHEM_EXT_DATASOURCE_REGID>
SCHEMBL16119885

> <PUBCHEM_SUBSTANCE_COMMENT>
InChI=1S/C21H23N/c1-16(10-8-9-13-22-4)21-15-20(14-17(2)18(21)3)19-11-6-5-7-12-19/h5-15,22H,1H2,2-4H3/b10-8-,13-9-
InChIKey=WKOSSIZXZFOJPB-HKICHHIPSA-N

> <PUBCHEM_SUBSTANCE_SYNONYM>
SCHEMBL16119885

> <PUBCHEM_XREF_EXT_ID>
SCHEMBL16119885

> <PUBCHEM_EXT_DATASOURCE_URL>
https://www.surechembl.org/

> <PUBCHEM_EXT_SUBSTANCE_URL>
https://www.surechembl.org/chemical/SCHEMBL16119885

> <PUBCHEM_CID_ASSOCIATIONS>
117608594  1

> <PUBCHEM_COORDINATE_TYPE>
1
3

$$$$
