310948301
  -OEChem-07211613022D

 42 46  0     0  0  0  0  0  0999 V2000
    3.4443   -2.5729    0.0000 S   0  0  0  0  0  0  0  0  0  0  0  0
   -3.9284   -0.9267    0.0000 F   0  0  0  0  0  0  0  0  0  0  0  0
   -4.1635    0.1798    0.0000 F   0  0  0  0  0  0  0  0  0  0  0  0
   -3.0432    0.4011    0.0000 F   0  0  0  0  0  0  0  0  0  0  0  0
    3.4304    3.2783    0.0000 F   0  0  0  0  0  0  0  0  0  0  0  0
    2.3792    2.7527    0.0000 F   0  0  0  0  0  0  0  0  0  0  0  0
    3.9007    2.2132    0.0000 F   0  0  0  0  0  0  0  0  0  0  0  0
   -1.5354    0.3735    0.0000 O   0  0  0  0  0  0  0  0  0  0  0  0
    2.8772    1.7291    0.0000 O   0  0  0  0  0  0  0  0  0  0  0  0
    4.1635   -2.1717    0.0000 O   0  0  0  0  0  0  0  0  0  0  0  0
    4.1635   -2.9878    0.0000 O   0  0  0  0  0  0  0  0  0  0  0  0
   -1.5354   -1.1342    0.0000 N   0  0  0  0  0  0  0  0  0  0  0  0
   -2.0196   -0.4703    0.0000 N   0  0  0  0  0  0  0  0  0  0  0  0
   -0.9821    1.6046    0.0000 N   0  0  0  0  0  0  0  0  0  0  0  0
   -0.2905   -0.4150    0.0000 C   0  0  0  0  0  0  0  0  0  0  0  0
   -0.6916   -1.1204    0.0000 C   0  0  0  0  0  0  0  0  0  0  0  0
   -0.7054    0.3043    0.0000 C   0  0  0  0  0  0  0  0  0  0  0  0
   -0.3458    1.0512    0.0000 C   0  0  0  0  0  0  0  0  0  0  0  0
   -2.0334   -1.7982    0.0000 C   0  0  0  0  0  0  0  0  0  0  0  0
    0.5533   -0.4288    0.0000 C   0  0  0  0  0  0  0  0  0  0  0  0
   -2.8080   -0.7193    0.0000 C   0  0  0  0  0  0  0  0  0  0  0  0
    0.9544   -1.1204    0.0000 C   0  0  0  0  0  0  0  0  0  0  0  0
   -0.2905   -1.8397    0.0000 C   0  0  0  0  0  0  0  0  0  0  0  0
   -2.8080   -1.5354    0.0000 C   0  0  0  0  0  0  0  0  0  0  0  0
    0.4565    1.2311    0.0000 C   0  0  0  0  0  0  0  0  0  0  0  0
   -3.4858   -0.2490    0.0000 C   0  0  0  0  0  0  0  0  0  0  0  0
    0.5394   -1.8397    0.0000 C   0  0  0  0  0  0  0  0  0  0  0  0
    1.7844   -1.1342    0.0000 C   0  0  0  0  0  0  0  0  0  0  0  0
   -1.7014    1.1896    0.0000 C   0  0  0  0  0  0  0  0  0  0  0  0
    2.1994   -1.8397    0.0000 C   0  0  0  0  0  0  0  0  0  0  0  0
    3.0293   -1.8536    0.0000 C   0  0  0  0  0  0  0  0  0  0  0  0
    0.9959    0.6224    0.0000 C   0  0  0  0  0  0  0  0  0  0  0  0
    0.7193    2.0196    0.0000 C   0  0  0  0  0  0  0  0  0  0  0  0
   -1.7429   -2.6144    0.0000 C   0  0  0  0  0  0  0  0  0  0  0  0
    2.2132   -0.4288    0.0000 C   0  0  0  0  0  0  0  0  0  0  0  0
    2.0749    1.5769    0.0000 C   0  0  0  0  0  0  0  0  0  0  0  0
    1.8121    0.7884    0.0000 C   0  0  0  0  0  0  0  0  0  0  0  0
    1.5216    2.1717    0.0000 C   0  0  0  0  0  0  0  0  0  0  0  0
    3.4443   -1.1481    0.0000 C   0  0  0  0  0  0  0  0  0  0  0  0
    3.0432   -0.4288    0.0000 C   0  0  0  0  0  0  0  0  0  0  0  0
    3.1538    2.5037    0.0000 C   0  0  0  0  0  0  0  0  0  0  0  0
    3.0432   -3.2783    0.0000 C   0  0  0  0  0  0  0  0  0  0  0  0
  1 10  2  0  0  0  0
  1 11  2  0  0  0  0
  1 31  1  0  0  0  0
  1 42  1  0  0  0  0
  2 26  1  0  0  0  0
  3 26  1  0  0  0  0
  4 26  1  0  0  0  0
  5 41  1  0  0  0  0
  6 41  1  0  0  0  0
  7 41  1  0  0  0  0
  8 17  1  0  0  0  0
  8 29  1  0  0  0  0
  9 36  1  0  0  0  0
  9 41  1  0  0  0  0
 12 13  1  0  0  0  0
 12 16  1  0  0  0  0
 12 19  1  0  0  0  0
 13 21  2  0  0  0  0
 14 18  1  0  0  0  0
 14 29  2  0  0  0  0
 15 16  1  0  0  0  0
 15 17  1  0  0  0  0
 15 20  2  0  0  0  0
 16 23  2  0  0  0  0
 17 18  2  0  0  0  0
 18 25  1  0  0  0  0
 19 24  2  0  0  0  0
 19 34  1  0  0  0  0
 20 22  1  0  0  0  0
 21 24  1  0  0  0  0
 21 26  1  0  0  0  0
 22 27  2  0  0  0  0
 22 28  1  0  0  0  0
 23 27  1  0  0  0  0
 25 32  2  0  0  0  0
 25 33  1  0  0  0  0
 28 30  2  0  0  0  0
 28 35  1  0  0  0  0
 30 31  1  0  0  0  0
 31 39  2  0  0  0  0
 32 37  1  0  0  0  0
 33 38  2  0  0  0  0
 35 40  2  0  0  0  0
 36 37  2  0  0  0  0
 36 38  1  0  0  0  0
 39 40  1  0  0  0  0
M  END
> <PUBCHEM_COMPOUND_ID_TYPE>
0

> <PUBCHEM_TOTAL_CHARGE>
0

> <PUBCHEM_SUBSTANCE_ID>
310948301

> <PUBCHEM_SUBSTANCE_VERSION>
1

> <PUBCHEM_EXT_DATASOURCE_NAME>
4488

> <PUBCHEM_EXT_DATASOURCE_REGID>
SCHEMBL16126478

> <PUBCHEM_SUBSTANCE_COMMENT>
InChI=1S/C28H19F6N3O4S/c1-16-12-24(27(29,30)31)36-37(16)23-11-8-19(18-4-3-5-21(13-18)42(2,38)39)14-22(23)26-25(35-15-40-26)17-6-9-20(10-7-17)41-28(32,33)34/h3-15H,1-2H3
InChIKey=CEDHVUCSGHHIQL-UHFFFAOYSA-N

> <PUBCHEM_SUBSTANCE_SYNONYM>
SCHEMBL16126478

> <PUBCHEM_XREF_EXT_ID>
SCHEMBL16126478

> <PUBCHEM_EXT_DATASOURCE_URL>
https://www.surechembl.org/

> <PUBCHEM_EXT_SUBSTANCE_URL>
https://www.surechembl.org/chemical/SCHEMBL16126478

> <PUBCHEM_CID_ASSOCIATIONS>
117613867  1

> <PUBCHEM_COORDINATE_TYPE>
1
3

$$$$
