310940611
  -OEChem-07211613022D

 33 37  0     0  0  0  0  0  0999 V2000
   -0.6875    2.2135    0.0000 Cl  0  0  0  0  0  0  0  0  0  0  0  0
    2.3235   -0.3025    0.0000 O   0  0  0  0  0  0  0  0  0  0  0  0
   -1.8698   -0.4400    0.0000 O   0  0  0  0  0  0  0  0  0  0  0  0
    2.4197    1.1961    0.0000 O   0  0  0  0  0  0  0  0  0  0  0  0
   -3.1484   -2.3510    0.0000 O   0  0  0  0  0  0  0  0  0  0  0  0
    3.1484   -1.6773    0.0000 O   0  0  0  0  0  0  0  0  0  0  0  0
    1.1961    0.3712    0.0000 N   0  0  0  0  0  0  0  0  0  0  0  0
    1.0311   -2.1036    0.0000 N   0  0  0  0  0  0  0  0  0  0  0  0
   -2.7359   -3.0797    0.0000 N   0  0  0  0  0  0  0  0  0  0  0  0
    0.9899   -0.3712    0.0000 C   0  0  0  0  0  0  0  0  0  0  0  0
    0.2887   -0.7837    0.0000 C   0  0  0  0  0  0  0  0  0  0  0  0
    1.7186   -0.7837    0.0000 C   0  0  0  0  0  0  0  0  0  0  0  0
    0.2749   -1.5949    0.0000 C   0  0  0  0  0  0  0  0  0  0  0  0
    1.7048   -1.6086    0.0000 C   0  0  0  0  0  0  0  0  0  0  0  0
    1.9660    0.4950    0.0000 C   0  0  0  0  0  0  0  0  0  0  0  0
   -1.1549   -1.6086    0.0000 C   0  0  0  0  0  0  0  0  0  0  0  0
   -0.4400   -0.3850    0.0000 C   0  0  0  0  0  0  0  0  0  0  0  0
   -1.1412   -0.7837    0.0000 C   0  0  0  0  0  0  0  0  0  0  0  0
   -0.4400   -2.0073    0.0000 C   0  0  0  0  0  0  0  0  0  0  0  0
   -1.8835   -2.0210    0.0000 C   0  0  0  0  0  0  0  0  0  0  0  0
    0.6187    1.0311    0.0000 C   0  0  0  0  0  0  0  0  0  0  0  0
   -2.6397   -1.6636    0.0000 C   0  0  0  0  0  0  0  0  0  0  0  0
   -1.9660   -2.8459    0.0000 C   0  0  0  0  0  0  0  0  0  0  0  0
    2.4335   -2.0210    0.0000 C   0  0  0  0  0  0  0  0  0  0  0  0
    0.8661    1.8423    0.0000 C   0  0  0  0  0  0  0  0  0  0  0  0
    0.3300    2.4472    0.0000 C   0  0  0  0  0  0  0  0  0  0  0  0
    1.6773    2.0210    0.0000 C   0  0  0  0  0  0  0  0  0  0  0  0
   -2.7909   -0.8661    0.0000 C   0  0  0  0  0  0  0  0  0  0  0  0
   -1.3336   -3.3959    0.0000 C   0  0  0  0  0  0  0  0  0  0  0  0
   -1.8835    0.4674    0.0000 C   0  0  0  0  0  0  0  0  0  0  0  0
    0.5774    3.2309    0.0000 C   0  0  0  0  0  0  0  0  0  0  0  0
    1.9111    2.8047    0.0000 C   0  0  0  0  0  0  0  0  0  0  0  0
    1.3748    3.3959    0.0000 C   0  0  0  0  0  0  0  0  0  0  0  0
  1 26  1  0  0  0  0
  2 12  1  0  0  0  0
  2 15  1  0  0  0  0
  3 18  1  0  0  0  0
  3 30  1  0  0  0  0
  4 15  2  0  0  0  0
  5  9  1  0  0  0  0
  5 22  1  0  0  0  0
  6 24  1  0  0  0  0
  7 10  1  0  0  0  0
  7 15  1  0  0  0  0
  7 21  1  0  0  0  0
  8 13  2  0  0  0  0
  8 14  1  0  0  0  0
  9 23  2  0  0  0  0
 10 11  2  0  0  0  0
 10 12  1  0  0  0  0
 11 13  1  0  0  0  0
 11 17  1  0  0  0  0
 12 14  2  0  0  0  0
 13 19  1  0  0  0  0
 14 24  1  0  0  0  0
 16 18  1  0  0  0  0
 16 19  2  0  0  0  0
 16 20  1  0  0  0  0
 17 18  2  0  0  0  0
 20 22  2  0  0  0  0
 20 23  1  0  0  0  0
 21 25  1  0  0  0  0
 22 28  1  0  0  0  0
 23 29  1  0  0  0  0
 25 26  2  0  0  0  0
 25 27  1  0  0  0  0
 26 31  1  0  0  0  0
 27 32  2  0  0  0  0
 31 33  2  0  0  0  0
 32 33  1  0  0  0  0
M  END
> <PUBCHEM_COMPOUND_ID_TYPE>
0

> <PUBCHEM_TOTAL_CHARGE>
0

> <PUBCHEM_SUBSTANCE_ID>
310940611

> <PUBCHEM_SUBSTANCE_VERSION>
1

> <PUBCHEM_EXT_DATASOURCE_NAME>
4488

> <PUBCHEM_EXT_DATASOURCE_REGID>
SCHEMBL16118565

> <PUBCHEM_SUBSTANCE_COMMENT>
InChI=1S/C24H20ClN3O5/c1-12-21(13(2)33-27-12)16-8-18-15(9-20(16)31-3)22-23(19(11-29)26-18)32-24(30)28(22)10-14-6-4-5-7-17(14)25/h4-9,29H,10-11H2,1-3H3
InChIKey=XYPQINBTKSUJJG-UHFFFAOYSA-N

> <PUBCHEM_SUBSTANCE_SYNONYM>
SCHEMBL16118565

> <PUBCHEM_XREF_EXT_ID>
SCHEMBL16118565

> <PUBCHEM_EXT_DATASOURCE_URL>
https://www.surechembl.org/

> <PUBCHEM_EXT_SUBSTANCE_URL>
https://www.surechembl.org/chemical/SCHEMBL16118565

> <PUBCHEM_CID_ASSOCIATIONS>
117607597  1

> <PUBCHEM_COORDINATE_TYPE>
1
3

$$$$
