310930840
  -OEChem-07211613022D

 32 36  0     0  0  0  0  0  0999 V2000
    2.4266   -6.9400    0.0000 S   0  0  0  0  0  0  0  0  0  0  0  0
    3.2031   -6.5032    0.0000 O   0  0  0  0  0  0  0  0  0  0  0  0
    1.7471   -7.3283    0.0000 O   0  0  0  0  0  0  0  0  0  0  0  0
    0.0000   -2.7178    0.0000 O   0  0  0  0  0  0  0  0  0  0  0  0
    4.0767   -8.3475    0.0000 N   0  0  0  0  0  0  0  0  0  0  0  0
    2.4266   -1.3104    0.0000 N   0  0  0  0  0  0  0  0  0  0  0  0
    2.5722    0.0000    0.0000 N   0  0  0  0  0  0  0  0  0  0  0  0
    1.2133   -3.3972    0.0000 N   0  0  0  0  0  0  0  0  0  0  0  0
    2.8148   -7.6195    0.0000 C   0  0  0  0  0  0  0  0  0  0  0  0
    2.4266   -8.2990    0.0000 C   0  0  0  0  0  0  0  0  0  0  0  0
    2.0383   -6.2121    0.0000 C   0  0  0  0  0  0  0  0  0  0  0  0
    2.8148   -9.0269    0.0000 C   0  0  0  0  0  0  0  0  0  0  0  0
    3.6399   -7.6195    0.0000 C   0  0  0  0  0  0  0  0  0  0  0  0
    1.6501   -8.2990    0.0000 C   0  0  0  0  0  0  0  0  0  0  0  0
    2.4266   -5.5327    0.0000 C   0  0  0  0  0  0  0  0  0  0  0  0
    1.2133   -6.2121    0.0000 C   0  0  0  0  0  0  0  0  0  0  0  0
    3.6399   -9.0269    0.0000 C   0  0  0  0  0  0  0  0  0  0  0  0
    2.4266   -9.7064    0.0000 C   0  0  0  0  0  0  0  0  0  0  0  0
    1.2133   -4.8046    0.0000 C   0  0  0  0  0  0  0  0  0  0  0  0
    2.0383   -0.6309    0.0000 C   0  0  0  0  0  0  0  0  0  0  0  0
    1.2133   -1.9898    0.0000 C   0  0  0  0  0  0  0  0  0  0  0  0
    2.0383   -4.8046    0.0000 C   0  0  0  0  0  0  0  0  0  0  0  0
    0.8251   -5.5327    0.0000 C   0  0  0  0  0  0  0  0  0  0  0  0
    2.0383   -1.9898    0.0000 C   0  0  0  0  0  0  0  0  0  0  0  0
    1.2133   -9.0269    0.0000 C   0  0  0  0  0  0  0  0  0  0  0  0
    0.8251   -2.7178    0.0000 C   0  0  0  0  0  0  0  0  0  0  0  0
    1.6015   -9.7064    0.0000 C   0  0  0  0  0  0  0  0  0  0  0  0
    1.2133   -0.6309    0.0000 C   0  0  0  0  0  0  0  0  0  0  0  0
    0.8251   -1.3104    0.0000 C   0  0  0  0  0  0  0  0  0  0  0  0
    0.8251   -4.1252    0.0000 C   0  0  0  0  0  0  0  0  0  0  0  0
    3.2516   -1.1162    0.0000 C   0  0  0  0  0  0  0  0  0  0  0  0
    3.3002   -0.3397    0.0000 C   0  0  0  0  0  0  0  0  0  0  0  0
  1  2  2  0  0  0  0
  1  3  2  0  0  0  0
  1  9  1  0  0  0  0
  1 11  1  0  0  0  0
  4 26  2  0  0  0  0
  5 13  1  0  0  0  0
  5 17  2  0  0  0  0
  6 20  1  0  0  0  0
  6 24  1  0  0  0  0
  6 31  1  0  0  0  0
  7 20  2  0  0  0  0
  7 32  1  0  0  0  0
  8 26  1  0  0  0  0
  8 30  1  0  0  0  0
  9 10  1  0  0  0  0
  9 13  2  0  0  0  0
 10 12  2  0  0  0  0
 10 14  1  0  0  0  0
 11 15  2  0  0  0  0
 11 16  1  0  0  0  0
 12 17  1  0  0  0  0
 12 18  1  0  0  0  0
 14 25  2  0  0  0  0
 15 22  1  0  0  0  0
 16 23  2  0  0  0  0
 18 27  2  0  0  0  0
 19 22  2  0  0  0  0
 19 23  1  0  0  0  0
 19 30  1  0  0  0  0
 20 28  1  0  0  0  0
 21 24  2  0  0  0  0
 21 26  1  0  0  0  0
 21 29  1  0  0  0  0
 25 27  1  0  0  0  0
 28 29  2  0  0  0  0
 31 32  2  0  0  0  0
M  END
> <PUBCHEM_COMPOUND_ID_TYPE>
0

> <PUBCHEM_TOTAL_CHARGE>
0

> <PUBCHEM_SUBSTANCE_ID>
310930840

> <PUBCHEM_SUBSTANCE_VERSION>
1

> <PUBCHEM_EXT_DATASOURCE_NAME>
4488

> <PUBCHEM_EXT_DATASOURCE_REGID>
SCHEMBL16108137

> <PUBCHEM_SUBSTANCE_COMMENT>
InChI=1S/C24H18N4O3S/c29-24(19-7-10-23-26-11-12-28(23)16-19)27-13-17-5-8-20(9-6-17)32(30,31)22-15-25-14-18-3-1-2-4-21(18)22/h1-12,14-16H,13H2,(H,27,29)
InChIKey=ASWIIZLRUGNLRE-UHFFFAOYSA-N

> <PUBCHEM_SUBSTANCE_SYNONYM>
SCHEMBL16108137

> <PUBCHEM_XREF_EXT_ID>
SCHEMBL16108137

> <PUBCHEM_EXT_DATASOURCE_URL>
https://www.surechembl.org/

> <PUBCHEM_EXT_SUBSTANCE_URL>
https://www.surechembl.org/chemical/SCHEMBL16108137

> <PUBCHEM_CID_ASSOCIATIONS>
117599834  1

> <PUBCHEM_COORDINATE_TYPE>
1
3

$$$$
