310949501
  -OEChem-07211613022D

 28 32  0     1  0  0  0  0  0999 V2000
   -0.7355    1.4917    0.0000 N   0  0  0  0  0  0  0  0  0  0  0  0
   -0.7355    2.8527    0.0000 N   0  0  0  0  0  0  0  0  0  0  0  0
    0.0344   -0.8868    0.0000 N   0  0  0  0  0  0  0  0  0  0  0  0
    1.8629    1.7528    0.0000 N   0  0  0  0  0  0  0  0  0  0  0  0
   -0.2543    2.1791    0.0000 C   0  0  0  0  0  0  0  0  0  0  0  0
   -1.5329    1.7667    0.0000 C   0  0  0  0  0  0  0  0  0  0  0  0
   -1.5191    2.5915    0.0000 C   0  0  0  0  0  0  0  0  0  0  0  0
   -0.4881    0.7218    0.0000 C   0  0  0  0  0  0  0  0  0  0  0  0
    0.5843    2.1653    0.0000 C   0  0  3  0  0  0  0  0  0  0  0  0
   -2.2341    1.3404    0.0000 C   0  0  0  0  0  0  0  0  0  0  0  0
   -2.2478    2.9902    0.0000 C   0  0  0  0  0  0  0  0  0  0  0  0
   -1.0243    0.0618    0.0000 C   0  0  0  0  0  0  0  0  0  0  0  0
    0.3368    0.5293    0.0000 C   0  0  0  0  0  0  0  0  0  0  0  0
    1.0792    1.5054    0.0000 C   0  0  0  0  0  0  0  0  0  0  0  0
    1.0518    2.8390    0.0000 C   0  0  0  0  0  0  0  0  0  0  0  0
   -2.9490    1.7528    0.0000 C   0  0  0  0  0  0  0  0  0  0  0  0
   -2.9490    2.5778    0.0000 C   0  0  0  0  0  0  0  0  0  0  0  0
   -0.7768   -0.7080    0.0000 C   0  0  0  0  0  0  0  0  0  0  0  0
    0.5843   -0.2543    0.0000 C   0  0  0  0  0  0  0  0  0  0  0  0
    1.8491    2.5915    0.0000 C   0  0  0  0  0  0  0  0  0  0  0  0
    0.2956   -1.6704    0.0000 C   0  0  0  0  0  0  0  0  0  0  0  0
    1.0930   -1.8629    0.0000 C   0  0  0  0  0  0  0  0  0  0  0  0
    1.3267   -2.6602    0.0000 C   0  0  0  0  0  0  0  0  0  0  0  0
    1.5879   -1.1479    0.0000 C   0  0  0  0  0  0  0  0  0  0  0  0
    2.4128   -1.1479    0.0000 C   0  0  0  0  0  0  0  0  0  0  0  0
    2.0828   -2.9902    0.0000 C   0  0  0  0  0  0  0  0  0  0  0  0
    2.9490   -1.7804    0.0000 C   0  0  0  0  0  0  0  0  0  0  0  0
    2.7977   -2.6053    0.0000 C   0  0  0  0  0  0  0  0  0  0  0  0
  1  5  1  0  0  0  0
  1  6  1  0  0  0  0
  1  8  1  0  0  0  0
  2  5  2  0  0  0  0
  2  7  1  0  0  0  0
  3 18  1  0  0  0  0
  3 19  1  0  0  0  0
  3 21  1  0  0  0  0
  4 14  1  0  0  0  0
  4 20  1  0  0  0  0
  9  5  1  6  0  0  0
  6  7  1  0  0  0  0
  6 10  2  0  0  0  0
  7 11  2  0  0  0  0
  8 12  1  0  0  0  0
  8 13  1  0  0  0  0
  9 14  1  0  0  0  0
  9 15  1  0  0  0  0
 10 16  1  0  0  0  0
 11 17  1  0  0  0  0
 12 18  1  0  0  0  0
 13 19  1  0  0  0  0
 15 20  1  0  0  0  0
 16 17  2  0  0  0  0
 21 22  1  0  0  0  0
 22 23  1  0  0  0  0
 22 24  1  0  0  0  0
 23 26  1  0  0  0  0
 24 25  1  0  0  0  0
 25 27  1  0  0  0  0
 26 28  1  0  0  0  0
 27 28  1  0  0  0  0
M  END
> <PUBCHEM_COMPOUND_ID_TYPE>
0

> <PUBCHEM_TOTAL_CHARGE>
0

> <PUBCHEM_SUBSTANCE_ID>
310949501

> <PUBCHEM_SUBSTANCE_VERSION>
1

> <PUBCHEM_EXT_DATASOURCE_NAME>
4488

> <PUBCHEM_EXT_DATASOURCE_REGID>
SCHEMBL16127696

> <PUBCHEM_SUBSTANCE_COMMENT>
InChI=1S/C24H36N4/c1-2-4-8-19(7-3-1)18-27-15-12-21(13-16-27)28-23-10-6-5-9-22(23)26-24(28)20-11-14-25-17-20/h5-6,9-10,19-21,25H,1-4,7-8,11-18H2/t20-/m1/s1
InChIKey=LLYFYCOUPFGHHU-HXUWFJFHSA-N

> <PUBCHEM_SUBSTANCE_SYNONYM>
SCHEMBL16127696

> <PUBCHEM_XREF_EXT_ID>
SCHEMBL16127696

> <PUBCHEM_EXT_DATASOURCE_URL>
https://www.surechembl.org/

> <PUBCHEM_EXT_SUBSTANCE_URL>
https://www.surechembl.org/chemical/SCHEMBL16127696

> <PUBCHEM_CID_ASSOCIATIONS>
86272138  1

> <PUBCHEM_COORDINATE_TYPE>
1
3

> <PUBCHEM_BONDANNOTATIONS>
9  5  6

$$$$
