310941554
  -OEChem-07211613022D

 11 11  0     0  0  0  0  0  0999 V2000
   -1.9007    0.2331    0.0000 Cl  0  0  0  0  0  0  0  0  0  0  0  0
   -0.2331    1.0400    0.0000 N   0  0  0  0  0  0  0  0  0  0  0  0
    1.9007    0.6455    0.0000 N   0  0  0  0  0  0  0  0  0  0  0  0
   -0.2152    0.1973    0.0000 C   0  0  0  0  0  0  0  0  0  0  0  0
    0.5021   -0.2152    0.0000 C   0  0  0  0  0  0  0  0  0  0  0  0
   -0.8965   -0.2152    0.0000 C   0  0  0  0  0  0  0  0  0  0  0  0
    0.4842   -1.0400    0.0000 C   0  0  0  0  0  0  0  0  0  0  0  0
   -0.8786   -1.0400    0.0000 C   0  0  0  0  0  0  0  0  0  0  0  0
   -0.2152   -1.4165    0.0000 C   0  0  0  0  0  0  0  0  0  0  0  0
    1.2013    0.2331    0.0000 C   0  0  0  0  0  0  0  0  0  0  0  0
   -0.9144    1.4165    0.0000 C   0  0  0  0  0  0  0  0  0  0  0  0
  1  6  1  0  0  0  0
  2  4  1  0  0  0  0
  2 11  1  0  0  0  0
  3 10  3  0  0  0  0
  4  5  2  0  0  0  0
  4  6  1  0  0  0  0
  5  7  1  0  0  0  0
  5 10  1  0  0  0  0
  6  8  2  0  0  0  0
  7  9  2  0  0  0  0
  8  9  1  0  0  0  0
M  END
> <PUBCHEM_COMPOUND_ID_TYPE>
0

> <PUBCHEM_TOTAL_CHARGE>
0

> <PUBCHEM_SUBSTANCE_ID>
310941554

> <PUBCHEM_SUBSTANCE_VERSION>
1

> <PUBCHEM_EXT_DATASOURCE_NAME>
4488

> <PUBCHEM_EXT_DATASOURCE_REGID>
SCHEMBL16119585

> <PUBCHEM_SUBSTANCE_COMMENT>
InChI=1S/C8H7ClN2/c1-11-8-6(5-10)3-2-4-7(8)9/h2-4,11H,1H3
InChIKey=JUYYLJFDGUKUEC-UHFFFAOYSA-N

> <PUBCHEM_SUBSTANCE_SYNONYM>
SCHEMBL16119585

> <PUBCHEM_XREF_EXT_ID>
SCHEMBL16119585

> <PUBCHEM_EXT_DATASOURCE_URL>
https://www.surechembl.org/

> <PUBCHEM_EXT_SUBSTANCE_URL>
https://www.surechembl.org/chemical/SCHEMBL16119585

> <PUBCHEM_CID_ASSOCIATIONS>
117608360  1

> <PUBCHEM_COORDINATE_TYPE>
1
3

$$$$
