310935000
  -OEChem-07211613022D

 41 46  0     0  0  0  0  0  0999 V2000
    5.1657   -2.8904    0.0000 O   0  0  0  0  0  0  0  0  0  0  0  0
    1.9679  -10.6389    0.0000 O   0  0  0  0  0  0  0  0  0  0  0  0
    0.5535  -10.6389    0.0000 O   0  0  0  0  0  0  0  0  0  0  0  0
    0.6150   -3.2593    0.0000 N   0  0  0  0  0  0  0  0  0  0  0  0
    0.0000   -2.6443    0.0000 N   0  0  0  0  0  0  0  0  0  0  0  0
    2.0294   -3.2593    0.0000 N   0  0  0  0  0  0  0  0  0  0  0  0
    2.7674   -0.1845    0.0000 N   0  0  0  0  0  0  0  0  0  0  0  0
    1.2914   -7.7486    0.0000 N   0  0  0  0  0  0  0  0  0  0  0  0
    1.2914   -9.4090    0.0000 N   0  0  0  0  0  0  0  0  0  0  0  0
    5.4732   -1.4759    0.0000 N   0  0  0  0  0  0  0  0  0  0  0  0
    1.1684   -2.0294    0.0000 C   0  0  0  0  0  0  0  0  0  0  0  0
    1.3529   -2.8288    0.0000 C   0  0  0  0  0  0  0  0  0  0  0  0
    1.6604   -1.4144    0.0000 C   0  0  0  0  0  0  0  0  0  0  0  0
    2.5214   -1.5989    0.0000 C   0  0  0  0  0  0  0  0  0  0  0  0
    3.0748   -0.9839    0.0000 C   0  0  0  0  0  0  0  0  0  0  0  0
    0.3075   -1.9064    0.0000 C   0  0  0  0  0  0  0  0  0  0  0  0
    1.2914   -4.4893    0.0000 C   0  0  0  0  0  0  0  0  0  0  0  0
    0.6150   -4.0587    0.0000 C   0  0  0  0  0  0  0  0  0  0  0  0
    1.4144   -0.6150    0.0000 C   0  0  0  0  0  0  0  0  0  0  0  0
    2.0294   -4.0587    0.0000 C   0  0  0  0  0  0  0  0  0  0  0  0
    1.2914   -5.2887    0.0000 C   0  0  0  0  0  0  0  0  0  0  0  0
    2.7674   -2.3369    0.0000 C   0  0  0  0  0  0  0  0  0  0  0  0
    3.8743   -1.1070    0.0000 C   0  0  0  0  0  0  0  0  0  0  0  0
    4.1203   -1.9064    0.0000 C   0  0  0  0  0  0  0  0  0  0  0  0
    1.9679    0.0000    0.0000 C   0  0  0  0  0  0  0  0  0  0  0  0
    3.5668   -2.5214    0.0000 C   0  0  0  0  0  0  0  0  0  0  0  0
    1.2914   -6.9491    0.0000 C   0  0  0  0  0  0  0  0  0  0  0  0
    0.5535   -5.7192    0.0000 C   0  0  0  0  0  0  0  0  0  0  0  0
    1.9679   -5.7192    0.0000 C   0  0  0  0  0  0  0  0  0  0  0  0
    0.5535   -6.5187    0.0000 C   0  0  0  0  0  0  0  0  0  0  0  0
    1.9679   -6.5187    0.0000 C   0  0  0  0  0  0  0  0  0  0  0  0
    4.9197   -2.0909    0.0000 C   0  0  0  0  0  0  0  0  0  0  0  0
    0.5535   -8.1790    0.0000 C   0  0  0  0  0  0  0  0  0  0  0  0
    2.0294   -8.1790    0.0000 C   0  0  0  0  0  0  0  0  0  0  0  0
    2.0294   -9.0400    0.0000 C   0  0  0  0  0  0  0  0  0  0  0  0
    0.5535   -9.0400    0.0000 C   0  0  0  0  0  0  0  0  0  0  0  0
    1.2914  -10.2700    0.0000 C   0  0  0  0  0  0  0  0  0  0  0  0
    1.9679  -11.4999    0.0000 C   0  0  0  0  0  0  0  0  0  0  0  0
    1.1684  -11.4999    0.0000 C   0  0  0  0  0  0  0  0  0  0  0  0
    1.9679  -12.2993    0.0000 C   0  0  0  0  0  0  0  0  0  0  0  0
    2.8288  -11.4999    0.0000 C   0  0  0  0  0  0  0  0  0  0  0  0
  1 32  2  0  0  0  0
  2 37  1  0  0  0  0
  2 38  1  0  0  0  0
  3 37  2  0  0  0  0
  4  5  1  0  0  0  0
  4 12  1  0  0  0  0
  4 18  1  0  0  0  0
  5 16  2  0  0  0  0
  6 12  1  0  0  0  0
  6 20  2  0  0  0  0
  7 15  2  0  0  0  0
  7 25  1  0  0  0  0
  8 27  1  0  0  0  0
  8 33  1  0  0  0  0
  8 34  1  0  0  0  0
  9 35  1  0  0  0  0
  9 36  1  0  0  0  0
  9 37  1  0  0  0  0
 10 32  1  0  0  0  0
 11 12  2  0  0  0  0
 11 13  1  0  0  0  0
 11 16  1  0  0  0  0
 13 14  2  0  0  0  0
 13 19  1  0  0  0  0
 14 15  1  0  0  0  0
 14 22  1  0  0  0  0
 15 23  1  0  0  0  0
 17 18  2  0  0  0  0
 17 20  1  0  0  0  0
 17 21  1  0  0  0  0
 19 25  2  0  0  0  0
 21 28  2  0  0  0  0
 21 29  1  0  0  0  0
 22 26  2  0  0  0  0
 23 24  2  0  0  0  0
 24 26  1  0  0  0  0
 24 32  1  0  0  0  0
 27 30  2  0  0  0  0
 27 31  1  0  0  0  0
 28 30  1  0  0  0  0
 29 31  2  0  0  0  0
 33 36  1  0  0  0  0
 34 35  1  0  0  0  0
 38 39  1  0  0  0  0
 38 40  1  0  0  0  0
 38 41  1  0  0  0  0
M  END
> <PUBCHEM_COMPOUND_ID_TYPE>
0

> <PUBCHEM_TOTAL_CHARGE>
0

> <PUBCHEM_SUBSTANCE_ID>
310935000

> <PUBCHEM_SUBSTANCE_VERSION>
1

> <PUBCHEM_EXT_DATASOURCE_NAME>
4488

> <PUBCHEM_EXT_DATASOURCE_REGID>
SCHEMBL16112519

> <PUBCHEM_SUBSTANCE_COMMENT>
InChI=1S/C31H31N7O3/c1-31(2,3)41-30(40)37-14-12-36(13-15-37)23-7-4-20(5-8-23)22-17-34-29-26(18-35-38(29)19-22)24-10-11-33-27-16-21(28(32)39)6-9-25(24)27/h4-11,16-19H,12-15H2,1-3H3,(H2,32,39)
InChIKey=HGFYBSLGVLPAID-UHFFFAOYSA-N

> <PUBCHEM_SUBSTANCE_SYNONYM>
SCHEMBL16112519

> <PUBCHEM_XREF_EXT_ID>
SCHEMBL16112519

> <PUBCHEM_EXT_DATASOURCE_URL>
https://www.surechembl.org/

> <PUBCHEM_EXT_SUBSTANCE_URL>
https://www.surechembl.org/chemical/SCHEMBL16112519

> <PUBCHEM_CID_ASSOCIATIONS>
117603114  1

> <PUBCHEM_COORDINATE_TYPE>
1
3

$$$$
