310949152
  -OEChem-07211613022D

 51 60  0     0  0  0  0  0  0999 V2000
   -0.0711    0.3982    0.0000 N   0  0  0  0  0  0  0  0  0  0  0  0
   -1.6213   -0.5689    0.0000 N   0  0  0  0  0  0  0  0  0  0  0  0
    2.1049   -0.0569    0.0000 N   0  0  0  0  0  0  0  0  0  0  0  0
   -0.0853   -3.7120    0.0000 N   0  0  0  0  0  0  0  0  0  0  0  0
   -0.0569   -0.4125    0.0000 C   0  0  0  0  0  0  0  0  0  0  0  0
   -0.8107   -0.8249    0.0000 C   0  0  0  0  0  0  0  0  0  0  0  0
   -0.8249   -1.6356    0.0000 C   0  0  0  0  0  0  0  0  0  0  0  0
    0.6115    0.9245    0.0000 C   0  0  0  0  0  0  0  0  0  0  0  0
    0.3698    1.6640    0.0000 C   0  0  0  0  0  0  0  0  0  0  0  0
    0.6542   -0.8249    0.0000 C   0  0  0  0  0  0  0  0  0  0  0  0
   -0.7964    0.8960    0.0000 C   0  0  0  0  0  0  0  0  0  0  0  0
   -1.6356   -1.8773    0.0000 C   0  0  0  0  0  0  0  0  0  0  0  0
   -0.0853   -2.0338    0.0000 C   0  0  0  0  0  0  0  0  0  0  0  0
   -0.4978    1.6782    0.0000 C   0  0  0  0  0  0  0  0  0  0  0  0
    0.6542   -1.6498    0.0000 C   0  0  0  0  0  0  0  0  0  0  0  0
   -2.1049   -1.2231    0.0000 C   0  0  0  0  0  0  0  0  0  0  0  0
    2.0054    1.3511    0.0000 C   0  0  0  0  0  0  0  0  0  0  0  0
    1.7352    2.1049    0.0000 C   0  0  0  0  0  0  0  0  0  0  0  0
    2.8587    1.3369    0.0000 C   0  0  0  0  0  0  0  0  0  0  0  0
    1.4507    0.7396    0.0000 C   0  0  0  0  0  0  0  0  0  0  0  0
    0.9245    2.2756    0.0000 C   0  0  0  0  0  0  0  0  0  0  0  0
    2.4320    2.5885    0.0000 C   0  0  0  0  0  0  0  0  0  0  0  0
    3.1289    2.1191    0.0000 C   0  0  0  0  0  0  0  0  0  0  0  0
   -2.4036   -0.3271    0.0000 C   0  0  0  0  0  0  0  0  0  0  0  0
    1.3938   -2.0622    0.0000 C   0  0  0  0  0  0  0  0  0  0  0  0
   -1.5929    0.7396    0.0000 C   0  0  0  0  0  0  0  0  0  0  0  0
   -1.9911   -2.6311    0.0000 C   0  0  0  0  0  0  0  0  0  0  0  0
   -1.0809    2.2756    0.0000 C   0  0  0  0  0  0  0  0  0  0  0  0
   -2.9014   -1.3084    0.0000 C   0  0  0  0  0  0  0  0  0  0  0  0
    1.3938   -0.4267    0.0000 C   0  0  0  0  0  0  0  0  0  0  0  0
   -0.0853   -2.9014    0.0000 C   0  0  0  0  0  0  0  0  0  0  0  0
    2.5316    3.3991    0.0000 C   0  0  0  0  0  0  0  0  0  0  0  0
    3.8969    2.4462    0.0000 C   0  0  0  0  0  0  0  0  0  0  0  0
    3.7120    1.3227    0.0000 C   0  0  0  0  0  0  0  0  0  0  0  0
    2.6453    0.5404    0.0000 C   0  0  0  0  0  0  0  0  0  0  0  0
   -2.6026    0.4694    0.0000 C   0  0  0  0  0  0  0  0  0  0  0  0
   -3.0009   -0.8960    0.0000 C   0  0  0  0  0  0  0  0  0  0  0  0
   -2.1334    1.3369    0.0000 C   0  0  0  0  0  0  0  0  0  0  0  0
   -1.9058    2.1049    0.0000 C   0  0  0  0  0  0  0  0  0  0  0  0
   -2.7875   -2.7022    0.0000 C   0  0  0  0  0  0  0  0  0  0  0  0
   -3.2427   -2.0195    0.0000 C   0  0  0  0  0  0  0  0  0  0  0  0
    1.4080   -2.8871    0.0000 C   0  0  0  0  0  0  0  0  0  0  0  0
    2.1049   -1.6782    0.0000 C   0  0  0  0  0  0  0  0  0  0  0  0
    3.2996    3.7120    0.0000 C   0  0  0  0  0  0  0  0  0  0  0  0
    3.9965    3.2427    0.0000 C   0  0  0  0  0  0  0  0  0  0  0  0
   -3.4133    0.6827    0.0000 C   0  0  0  0  0  0  0  0  0  0  0  0
   -3.7689   -0.6827    0.0000 C   0  0  0  0  0  0  0  0  0  0  0  0
    2.1191   -3.2853    0.0000 C   0  0  0  0  0  0  0  0  0  0  0  0
    2.8444   -2.0907    0.0000 C   0  0  0  0  0  0  0  0  0  0  0  0
   -3.9965    0.0996    0.0000 C   0  0  0  0  0  0  0  0  0  0  0  0
    2.8444   -2.9156    0.0000 C   0  0  0  0  0  0  0  0  0  0  0  0
  1  5  1  0  0  0  0
  1  8  1  0  0  0  0
  1 11  1  0  0  0  0
  2  6  1  0  0  0  0
  2 16  1  0  0  0  0
  2 24  1  0  0  0  0
  3 30  3  0  0  0  0
  4 31  3  0  0  0  0
  5  6  1  0  0  0  0
  5 10  2  0  0  0  0
  6  7  2  0  0  0  0
  7 12  1  0  0  0  0
  7 13  1  0  0  0  0
  8  9  2  0  0  0  0
  8 20  1  0  0  0  0
  9 14  1  0  0  0  0
  9 21  1  0  0  0  0
 10 15  1  0  0  0  0
 10 30  1  0  0  0  0
 11 14  2  0  0  0  0
 11 26  1  0  0  0  0
 12 16  2  0  0  0  0
 12 27  1  0  0  0  0
 13 15  2  0  0  0  0
 13 31  1  0  0  0  0
 14 28  1  0  0  0  0
 15 25  1  0  0  0  0
 16 29  1  0  0  0  0
 17 18  1  0  0  0  0
 17 19  1  0  0  0  0
 17 20  2  0  0  0  0
 18 21  2  0  0  0  0
 18 22  1  0  0  0  0
 19 23  1  0  0  0  0
 19 34  1  0  0  0  0
 19 35  1  0  0  0  0
 22 23  2  0  0  0  0
 22 32  1  0  0  0  0
 23 33  1  0  0  0  0
 24 36  2  0  0  0  0
 24 37  1  0  0  0  0
 25 42  2  0  0  0  0
 25 43  1  0  0  0  0
 26 38  2  0  0  0  0
 27 40  2  0  0  0  0
 28 39  2  0  0  0  0
 29 41  2  0  0  0  0
 32 44  2  0  0  0  0
 33 45  2  0  0  0  0
 36 46  1  0  0  0  0
 37 47  2  0  0  0  0
 38 39  1  0  0  0  0
 40 41  1  0  0  0  0
 42 48  1  0  0  0  0
 43 49  2  0  0  0  0
 44 45  1  0  0  0  0
 46 50  2  0  0  0  0
 47 50  1  0  0  0  0
 48 51  2  0  0  0  0
 49 51  1  0  0  0  0
M  END
> <PUBCHEM_COMPOUND_ID_TYPE>
0

> <PUBCHEM_TOTAL_CHARGE>
0

> <PUBCHEM_SUBSTANCE_ID>
310949152

> <PUBCHEM_SUBSTANCE_VERSION>
1

> <PUBCHEM_EXT_DATASOURCE_NAME>
4488

> <PUBCHEM_EXT_DATASOURCE_REGID>
SCHEMBL16127342

> <PUBCHEM_SUBSTANCE_COMMENT>
InChI=1S/C47H30N4/c1-47(2)38-22-12-9-19-31(38)34-25-35-32-20-10-13-23-40(32)51(42(35)26-39(34)47)45-37(28-49)43(29-15-5-3-6-16-29)36(27-48)44-33-21-11-14-24-41(33)50(46(44)45)30-17-7-4-8-18-30/h3-26H,1-2H3
InChIKey=FRBXOWFCBGJJHK-UHFFFAOYSA-N

> <PUBCHEM_SUBSTANCE_SYNONYM>
SCHEMBL16127342

> <PUBCHEM_XREF_EXT_ID>
SCHEMBL16127342

> <PUBCHEM_EXT_DATASOURCE_URL>
https://www.surechembl.org/

> <PUBCHEM_EXT_SUBSTANCE_URL>
https://www.surechembl.org/chemical/SCHEMBL16127342

> <PUBCHEM_CID_ASSOCIATIONS>
117614646  1

> <PUBCHEM_COORDINATE_TYPE>
1
3

$$$$
