310942423
  -OEChem-07211613022D

 18 18  0     0  0  0  0  0  0999 V2000
    0.3714    0.8543    0.0000 F   0  0  0  0  0  0  0  0  0  0  0  0
   -0.3529   -2.0615    0.0000 O   0  0  0  0  0  0  0  0  0  0  0  0
   -1.8015   -2.0615    0.0000 O   0  0  0  0  0  0  0  0  0  0  0  0
   -1.0772   -0.7986    0.0000 N   0  0  0  0  0  0  0  0  0  0  0  0
   -1.0772    0.8543    0.0000 N   0  0  0  0  0  0  0  0  0  0  0  0
    1.8015    1.6901    0.0000 N   0  0  0  0  0  0  0  0  0  0  0  0
   -0.3714    2.1173    0.0000 C   0  0  0  0  0  0  0  0  0  0  0  0
   -1.0586    1.6901    0.0000 C   0  0  0  0  0  0  0  0  0  0  0  0
   -1.0772   -1.6158    0.0000 C   0  0  0  0  0  0  0  0  0  0  0  0
   -1.8015   -0.3714    0.0000 C   0  0  0  0  0  0  0  0  0  0  0  0
   -0.3529   -0.3900    0.0000 C   0  0  0  0  0  0  0  0  0  0  0  0
   -1.7829    0.4457    0.0000 C   0  0  0  0  0  0  0  0  0  0  0  0
   -0.3529    0.4457    0.0000 C   0  0  0  0  0  0  0  0  0  0  0  0
    0.3714    1.6901    0.0000 C   0  0  0  0  0  0  0  0  0  0  0  0
    1.0772    2.1173    0.0000 C   0  0  0  0  0  0  0  0  0  0  0  0
   -0.3343    2.8601    0.0000 C   0  0  0  0  0  0  0  0  0  0  0  0
    1.0214    2.8601    0.0000 C   0  0  0  0  0  0  0  0  0  0  0  0
   -0.3529   -2.8601    0.0000 C   0  0  0  0  0  0  0  0  0  0  0  0
  1 14  1  0  0  0  0
  2  9  1  0  0  0  0
  2 18  1  0  0  0  0
  3  9  2  0  0  0  0
  4  9  1  0  0  0  0
  4 10  1  0  0  0  0
  4 11  1  0  0  0  0
  5  8  1  0  0  0  0
  5 12  1  0  0  0  0
  5 13  1  0  0  0  0
  6 15  1  0  0  0  0
  7  8  1  0  0  0  0
  7 14  2  0  0  0  0
  7 16  1  0  0  0  0
 10 12  1  0  0  0  0
 11 13  1  0  0  0  0
 14 15  1  0  0  0  0
 15 17  2  0  0  0  0
M  END
> <PUBCHEM_COMPOUND_ID_TYPE>
0

> <PUBCHEM_TOTAL_CHARGE>
0

> <PUBCHEM_SUBSTANCE_ID>
310942423

> <PUBCHEM_SUBSTANCE_VERSION>
1

> <PUBCHEM_EXT_DATASOURCE_NAME>
4488

> <PUBCHEM_EXT_DATASOURCE_REGID>
SCHEMBL16120459

> <PUBCHEM_SUBSTANCE_COMMENT>
InChI=1S/C12H20FN3O2/c1-9(11(13)10(2)14)8-15-4-6-16(7-5-15)12(17)18-3/h2,4-8,14H2,1,3H3/b11-9-
InChIKey=LJDWVHSLFMHNRJ-LUAWRHEFSA-N

> <PUBCHEM_SUBSTANCE_SYNONYM>
SCHEMBL16120459

> <PUBCHEM_XREF_EXT_ID>
SCHEMBL16120459

> <PUBCHEM_EXT_DATASOURCE_URL>
https://www.surechembl.org/

> <PUBCHEM_EXT_SUBSTANCE_URL>
https://www.surechembl.org/chemical/SCHEMBL16120459

> <PUBCHEM_CID_ASSOCIATIONS>
117609023  1

> <PUBCHEM_COORDINATE_TYPE>
1
3

$$$$
