310940406
  -OEChem-07211613022D

 16 17  0     0  0  0  0  0  0999 V2000
   -0.9746    1.5275    0.0000 F   0  0  0  0  0  0  0  0  0  0  0  0
    1.3340   -0.2142    0.0000 O   0  0  0  0  0  0  0  0  0  0  0  0
   -0.3801    0.0207    0.0000 N   0  0  0  0  0  0  0  0  0  0  0  0
    2.8131    0.6981    0.0000 N   0  0  0  0  0  0  0  0  0  0  0  0
    0.7811   -0.8225    0.0000 C   0  0  0  0  0  0  0  0  0  0  0  0
   -1.1958    0.1175    0.0000 C   0  0  0  0  0  0  0  0  0  0  0  0
    2.0943   -0.5322    0.0000 C   0  0  0  0  0  0  0  0  0  0  0  0
   -0.0484   -0.7119    0.0000 C   0  0  0  0  0  0  0  0  0  0  0  0
    1.2095   -1.5275    0.0000 C   0  0  0  0  0  0  0  0  0  0  0  0
   -1.4999    0.8916    0.0000 C   0  0  0  0  0  0  0  0  0  0  0  0
    1.9976   -1.3617    0.0000 C   0  0  0  0  0  0  0  0  0  0  0  0
   -1.7073   -0.5184    0.0000 C   0  0  0  0  0  0  0  0  0  0  0  0
   -2.3016    1.0160    0.0000 C   0  0  0  0  0  0  0  0  0  0  0  0
    2.8131   -0.1175    0.0000 C   0  0  0  0  0  0  0  0  0  0  0  0
   -2.5367   -0.3801    0.0000 C   0  0  0  0  0  0  0  0  0  0  0  0
   -2.8131    0.3664    0.0000 C   0  0  0  0  0  0  0  0  0  0  0  0
  1 10  1  0  0  0  0
  2  5  1  0  0  0  0
  2  7  1  0  0  0  0
  3  6  1  0  0  0  0
  3  8  2  0  0  0  0
  4 14  2  3  0  0  0
  5  8  1  0  0  0  0
  5  9  2  0  0  0  0
  6 10  2  0  0  0  0
  6 12  1  0  0  0  0
  7 11  2  0  0  0  0
  7 14  1  0  0  0  0
  9 11  1  0  0  0  0
 10 13  1  0  0  0  0
 12 15  2  0  0  0  0
 13 16  2  0  0  0  0
 15 16  1  0  0  0  0
M  END
> <PUBCHEM_COMPOUND_ID_TYPE>
0

> <PUBCHEM_TOTAL_CHARGE>
0

> <PUBCHEM_SUBSTANCE_ID>
310940406

> <PUBCHEM_SUBSTANCE_VERSION>
1

> <PUBCHEM_EXT_DATASOURCE_NAME>
4488

> <PUBCHEM_EXT_DATASOURCE_REGID>
SCHEMBL16118354

> <PUBCHEM_SUBSTANCE_COMMENT>
InChI=1S/C12H9FN2O/c13-11-3-1-2-4-12(11)15-8-10-6-5-9(7-14)16-10/h1-8,14H/b14-7?,15-8+
InChIKey=OVMKFTMXKBDJTB-QMAYSTCJSA-N

> <PUBCHEM_SUBSTANCE_SYNONYM>
SCHEMBL16118354

> <PUBCHEM_XREF_EXT_ID>
SCHEMBL16118354

> <PUBCHEM_EXT_DATASOURCE_URL>
https://www.surechembl.org/

> <PUBCHEM_EXT_SUBSTANCE_URL>
https://www.surechembl.org/chemical/SCHEMBL16118354

> <PUBCHEM_CID_ASSOCIATIONS>
117607431  1

> <PUBCHEM_COORDINATE_TYPE>
1
3

> <PUBCHEM_BONDANNOTATIONS>
6  3  3

$$$$
