310930044
  -OEChem-07211613022D

 55 60  0     1  0  0  0  0  0999 V2000
    1.4616   -0.4972    0.0000 O   0  0  0  0  0  0  0  0  0  0  0  0
    5.1028   -1.5144    0.0000 O   0  0  0  0  0  0  0  0  0  0  0  0
    0.2870    0.3166    0.0000 O   0  0  0  0  0  0  0  0  0  0  0  0
    2.2838   -0.5650    0.0000 O   0  0  0  0  0  0  0  0  0  0  0  0
    3.4902    1.7663    0.0000 O   0  0  0  0  0  0  0  0  0  0  0  0
    4.9188    1.7983    0.0000 O   0  0  0  0  0  0  0  0  0  0  0  0
    6.1599   -3.7523    0.0000 O   0  0  0  0  0  0  0  0  0  0  0  0
    6.0425   -0.1581    0.0000 O   0  0  0  0  0  0  0  0  0  0  0  0
    3.5759    0.0454    0.0000 N   0  0  0  0  0  0  0  0  0  0  0  0
    1.5791    0.9270    0.0000 N   0  0  0  0  0  0  0  0  0  0  0  0
    5.0403   -1.1700    0.0000 N   0  0  0  0  0  0  0  0  0  0  0  0
    8.5091   -5.3798    0.0000 N   0  0  0  0  0  0  0  0  0  0  0  0
    0.9918   -1.1753    0.0000 C   0  0  3  0  0  0  0  0  0  0  0  0
    1.3442   -1.9213    0.0000 C   0  0  3  0  0  0  0  0  0  0  0  0
    0.5219   -1.8534    0.0000 C   0  0  3  0  0  0  0  0  0  0  0  0
    2.1664   -1.9891    0.0000 C   0  0  0  0  0  0  0  0  0  0  0  0
    2.4013    0.8591    0.0000 C   0  0  3  0  0  0  0  0  0  0  0  0
    4.2323    0.5451    0.0000 C   0  0  3  0  0  0  0  0  0  0  0  0
   -0.2240   -2.2058    0.0000 C   0  0  0  0  0  0  0  0  0  0  0  0
    1.1092    0.2488    0.0000 C   0  0  0  0  0  0  0  0  0  0  0  0
    2.7537    0.1132    0.0000 C   0  0  0  0  0  0  0  0  0  0  0  0
    4.7504   -0.7684    0.0000 C   0  0  3  0  0  0  0  0  0  0  0  0
    4.9104    0.0753    0.0000 C   0  0  0  0  0  0  0  0  0  0  0  0
    3.9282   -0.7006    0.0000 C   0  0  0  0  0  0  0  0  0  0  0  0
    2.8711    1.5373    0.0000 C   0  0  0  0  0  0  0  0  0  0  0  0
    2.5187   -2.7350    0.0000 C   0  0  0  0  0  0  0  0  0  0  0  0
    4.2138    1.3699    0.0000 C   0  0  0  0  0  0  0  0  0  0  0  0
    4.6330   -2.1925    0.0000 C   0  0  0  0  0  0  0  0  0  0  0  0
    4.9854   -2.9385    0.0000 C   0  0  0  0  0  0  0  0  0  0  0  0
    5.8076   -3.0063    0.0000 C   0  0  0  0  0  0  0  0  0  0  0  0
    5.9250   -1.5822    0.0000 C   0  0  0  0  0  0  0  0  0  0  0  0
    6.2774   -2.3281    0.0000 C   0  0  0  0  0  0  0  0  0  0  0  0
    3.3409   -2.8028    0.0000 C   0  0  0  0  0  0  0  0  0  0  0  0
    3.3409    2.2154    0.0000 C   0  0  0  0  0  0  0  0  0  0  0  0
    2.1930    2.0071    0.0000 C   0  0  0  0  0  0  0  0  0  0  0  0
    3.5493    1.0675    0.0000 C   0  0  0  0  0  0  0  0  0  0  0  0
    4.5155   -3.6166    0.0000 C   0  0  0  0  0  0  0  0  0  0  0  0
    6.3949   -0.9040    0.0000 C   0  0  0  0  0  0  0  0  0  0  0  0
    3.6933   -3.5488    0.0000 C   0  0  0  0  0  0  0  0  0  0  0  0
    7.0996   -2.3960    0.0000 C   0  0  0  0  0  0  0  0  0  0  0  0
    7.2171   -0.9719    0.0000 C   0  0  0  0  0  0  0  0  0  0  0  0
    7.5694   -1.7178    0.0000 C   0  0  0  0  0  0  0  0  0  0  0  0
    6.9822   -3.8201    0.0000 C   0  0  0  0  0  0  0  0  0  0  0  0
    6.5123    0.5201    0.0000 C   0  0  0  0  0  0  0  0  0  0  0  0
    7.3345   -4.5660    0.0000 C   0  0  0  0  0  0  0  0  0  0  0  0
    8.1567   -4.6338    0.0000 C   0  0  0  0  0  0  0  0  0  0  0  0
    8.1127   -6.1033    0.0000 C   0  0  0  0  0  0  0  0  0  0  0  0
    9.3197   -5.5332    0.0000 C   0  0  0  0  0  0  0  0  0  0  0  0
    8.6784   -6.7039    0.0000 C   0  0  0  0  0  0  0  0  0  0  0  0
    9.4243   -6.3515    0.0000 C   0  0  0  0  0  0  0  0  0  0  0  0
    0.3136   -0.7055    0.0000 H   0  0  0  0  0  0  0  0  0  0  0  0
    1.2763   -2.7435    0.0000 H   0  0  0  0  0  0  0  0  0  0  0  0
    3.2235    0.7913    0.0000 H   0  0  0  0  0  0  0  0  0  0  0  0
    4.9588    0.9361    0.0000 H   0  0  0  0  0  0  0  0  0  0  0  0
    5.5688   -0.6639    0.0000 H   0  0  0  0  0  0  0  0  0  0  0  0
  1 13  1  0  0  0  0
  1 20  1  0  0  0  0
  2 22  1  0  0  0  0
  2 28  1  0  0  0  0
  3 20  2  0  0  0  0
  4 21  2  0  0  0  0
  5 27  2  0  0  0  0
  6 27  1  0  0  0  0
  7 30  1  0  0  0  0
  7 43  1  0  0  0  0
  8 38  1  0  0  0  0
  8 44  1  0  0  0  0
  9 18  1  0  0  0  0
  9 21  1  0  0  0  0
  9 24  1  0  0  0  0
 10 17  1  0  0  0  0
 10 20  1  0  0  0  0
 11 28  2  0  0  0  0
 11 31  1  0  0  0  0
 12 46  1  0  0  0  0
 12 47  1  0  0  0  0
 12 48  1  0  0  0  0
 13 14  1  0  0  0  0
 13 15  1  0  0  0  0
 13 51  1  6  0  0  0
 14 15  1  0  0  0  0
 14 16  1  0  0  0  0
 14 52  1  1  0  0  0
 15 19  1  0  0  0  0
 16 26  1  0  0  0  0
 17 21  1  0  0  0  0
 17 25  1  0  0  0  0
 17 53  1  6  0  0  0
 18 23  1  0  0  0  0
 18 27  1  0  0  0  0
 18 54  1  1  0  0  0
 22 23  1  0  0  0  0
 22 24  1  0  0  0  0
 22 55  1  6  0  0  0
 25 34  1  0  0  0  0
 25 35  1  0  0  0  0
 25 36  1  0  0  0  0
 26 33  1  0  0  0  0
 28 29  1  0  0  0  0
 29 30  2  0  0  0  0
 29 37  1  0  0  0  0
 30 32  1  0  0  0  0
 31 32  2  0  0  0  0
 31 38  1  0  0  0  0
 32 40  1  0  0  0  0
 33 39  1  0  0  0  0
 37 39  1  0  0  0  0
 38 41  2  0  0  0  0
 40 42  2  0  0  0  0
 41 42  1  0  0  0  0
 43 45  1  0  0  0  0
 45 46  1  0  0  0  0
 47 49  1  0  0  0  0
 48 50  1  0  0  0  0
 49 50  1  0  0  0  0
M  END
> <PUBCHEM_COMPOUND_ID_TYPE>
0

> <PUBCHEM_TOTAL_CHARGE>
0

> <PUBCHEM_SUBSTANCE_ID>
310930044

> <PUBCHEM_SUBSTANCE_VERSION>
1

> <PUBCHEM_EXT_DATASOURCE_NAME>
4488

> <PUBCHEM_EXT_DATASOURCE_REGID>
SCHEMBL16107284

> <PUBCHEM_SUBSTANCE_COMMENT>
InChI=1S/C38H54N4O8/c1-23-25-13-7-6-8-14-27-32(48-20-12-19-41-17-9-10-18-41)26-15-11-16-29(47-5)30(26)39-34(27)49-24-21-28(36(44)45)42(22-24)35(43)33(38(2,3)4)40-37(46)50-31(23)25/h11,15-16,23-25,28,31,33H,6-10,12-14,17-22H2,1-5H3,(H,40,46)(H,44,45)/t23?,24-,25-,28+,31-,33-/m1/s1
InChIKey=PZXKSTGDCVXLGE-SYIYKZKZSA-N

> <PUBCHEM_SUBSTANCE_SYNONYM>
SCHEMBL16107284

> <PUBCHEM_XREF_EXT_ID>
SCHEMBL16107284

> <PUBCHEM_EXT_DATASOURCE_URL>
https://www.surechembl.org/

> <PUBCHEM_EXT_SUBSTANCE_URL>
https://www.surechembl.org/chemical/SCHEMBL16107284

> <PUBCHEM_CID_ASSOCIATIONS>
117599288  1

> <PUBCHEM_COORDINATE_TYPE>
1
3

> <PUBCHEM_BONDANNOTATIONS>
13  51  6
14  52  5
17  53  6
18  54  5
22  55  6

$$$$
