310934642
  -OEChem-07211613022D

 23 25  0     0  0  0  0  0  0999 V2000
    3.7289   -5.8739    0.0000 S   0  0  0  0  0  0  0  0  0  0  0  0
    0.6930   -2.8379    0.0000 O   0  0  0  0  0  0  0  0  0  0  0  0
    0.8250   -5.1809    0.0000 O   0  0  0  0  0  0  0  0  0  0  0  0
    0.0000   -6.5998    0.0000 O   0  0  0  0  0  0  0  0  0  0  0  0
    1.6499   -5.1809    0.0000 N   0  0  0  0  0  0  0  0  0  0  0  0
    0.8250   -3.6629    0.0000 N   0  0  0  0  0  0  0  0  0  0  0  0
    0.8250   -6.5998    0.0000 N   0  0  0  0  0  0  0  0  0  0  0  0
    2.0460   -5.8739    0.0000 C   0  0  0  0  0  0  0  0  0  0  0  0
    1.2210   -5.8739    0.0000 C   0  0  0  0  0  0  0  0  0  0  0  0
    2.5079   -6.5998    0.0000 C   0  0  0  0  0  0  0  0  0  0  0  0
    2.5079   -5.1809    0.0000 C   0  0  0  0  0  0  0  0  0  0  0  0
    1.6499   -3.7289    0.0000 C   0  0  0  0  0  0  0  0  0  0  0  0
    1.4190   -2.4419    0.0000 C   0  0  0  0  0  0  0  0  0  0  0  0
    2.0790   -4.4549    0.0000 C   0  0  0  0  0  0  0  0  0  0  0  0
    2.0129   -3.0029    0.0000 C   0  0  0  0  0  0  0  0  0  0  0  0
    1.4850   -1.6169    0.0000 C   0  0  0  0  0  0  0  0  0  0  0  0
    3.2999   -6.5998    0.0000 C   0  0  0  0  0  0  0  0  0  0  0  0
    3.2999   -5.1809    0.0000 C   0  0  0  0  0  0  0  0  0  0  0  0
    0.8250   -1.1220    0.0000 C   0  0  0  0  0  0  0  0  0  0  0  0
    2.2439   -1.2870    0.0000 C   0  0  0  0  0  0  0  0  0  0  0  0
    0.9240   -0.3300    0.0000 C   0  0  0  0  0  0  0  0  0  0  0  0
    2.3430   -0.4950    0.0000 C   0  0  0  0  0  0  0  0  0  0  0  0
    1.6829    0.0000    0.0000 C   0  0  0  0  0  0  0  0  0  0  0  0
  1 17  1  0  0  0  0
  1 18  1  0  0  0  0
  2  6  1  0  0  0  0
  2 13  1  0  0  0  0
  3  9  2  0  0  0  0
  4  7  1  0  0  0  0
  5  8  1  0  0  0  0
  5 14  1  0  0  0  0
  6 12  2  0  0  0  0
  7  9  1  0  0  0  0
  8  9  1  0  0  0  0
  8 10  1  0  0  0  0
  8 11  1  0  0  0  0
 10 17  1  0  0  0  0
 11 18  1  0  0  0  0
 12 14  1  0  0  0  0
 12 15  1  0  0  0  0
 13 15  2  0  0  0  0
 13 16  1  0  0  0  0
 16 19  2  0  0  0  0
 16 20  1  0  0  0  0
 19 21  1  0  0  0  0
 20 22  2  0  0  0  0
 21 23  2  0  0  0  0
 22 23  1  0  0  0  0
M  END
> <PUBCHEM_COMPOUND_ID_TYPE>
0

> <PUBCHEM_TOTAL_CHARGE>
0

> <PUBCHEM_SUBSTANCE_ID>
310934642

> <PUBCHEM_SUBSTANCE_VERSION>
1

> <PUBCHEM_EXT_DATASOURCE_NAME>
4488

> <PUBCHEM_EXT_DATASOURCE_REGID>
SCHEMBL16112140

> <PUBCHEM_SUBSTANCE_COMMENT>
InChI=1S/C16H19N3O3S/c20-15(18-21)16(6-8-23-9-7-16)17-11-13-10-14(22-19-13)12-4-2-1-3-5-12/h1-5,10,17,21H,6-9,11H2,(H,18,20)
InChIKey=YJCFMVOSPREWMH-UHFFFAOYSA-N

> <PUBCHEM_SUBSTANCE_SYNONYM>
SCHEMBL16112140

> <PUBCHEM_XREF_EXT_ID>
SCHEMBL16112140

> <PUBCHEM_EXT_DATASOURCE_URL>
https://www.surechembl.org/

> <PUBCHEM_EXT_SUBSTANCE_URL>
https://www.surechembl.org/chemical/SCHEMBL16112140

> <PUBCHEM_CID_ASSOCIATIONS>
117602811  1

> <PUBCHEM_COORDINATE_TYPE>
1
3

$$$$
