310941087
  -OEChem-07211613022D

 42 46  0     1  0  0  0  0  0999 V2000
    5.1834   -1.0091    0.0000 O   0  0  0  0  0  0  0  0  0  0  0  0
    4.0508    0.9510    0.0000 O   0  0  0  0  0  0  0  0  0  0  0  0
    1.6842   -0.9946    0.0000 O   0  0  0  0  0  0  0  0  0  0  0  0
   -0.4791    1.0817    0.0000 O   0  0  0  0  0  0  0  0  0  0  0  0
    3.8331    2.7369    0.0000 O   0  0  0  0  0  0  0  0  0  0  0  0
   -2.6280   -0.9946    0.0000 O   0  0  0  0  0  0  0  0  0  0  0  0
   -5.4883   -0.9946    0.0000 O   0  0  0  0  0  0  0  0  0  0  0  0
    2.3957    0.2541    0.0000 N   0  0  0  0  0  0  0  0  0  0  0  0
    0.2468   -0.1670    0.0000 N   0  0  0  0  0  0  0  0  0  0  0  0
   -1.9020    0.2541    0.0000 N   0  0  0  0  0  0  0  0  0  0  0  0
   -4.0508   -0.1670    0.0000 N   0  0  0  0  0  0  0  0  0  0  0  0
    4.7768   -0.2686    0.0000 C   0  0  3  0  0  0  0  0  0  0  0  0
    3.9928    0.1380    0.0000 C   0  0  0  0  0  0  0  0  0  0  0  0
    3.3395   -0.2541    0.0000 C   0  0  3  0  0  0  0  0  0  0  0  0
    1.6842   -2.7223    0.0000 C   0  0  3  0  0  0  0  0  0  0  0  0
    1.3503   -2.0109    0.0000 C   0  0  3  0  0  0  0  0  0  0  0  0
    4.3703   -0.9800    0.0000 C   0  0  0  0  0  0  0  0  0  0  0  0
    2.6135   -1.7641    0.0000 C   0  0  0  0  0  0  0  0  0  0  0  0
    0.8856   -2.7514    0.0000 C   0  0  0  0  0  0  0  0  0  0  0  0
    3.2668   -1.2995    0.0000 C   0  0  0  0  0  0  0  0  0  0  0  0
    2.5264   -2.5627    0.0000 C   0  0  0  0  0  0  0  0  0  0  0  0
    1.8585   -1.4301    0.0000 C   0  0  0  0  0  0  0  0  0  0  0  0
    5.4883    0.1524    0.0000 C   0  0  0  0  0  0  0  0  0  0  0  0
    1.6987   -0.1089    0.0000 C   0  0  0  0  0  0  0  0  0  0  0  0
    0.9728    0.2831    0.0000 C   0  0  3  0  0  0  0  0  0  0  0  0
    0.9873    1.1107    0.0000 C   0  0  0  0  0  0  0  0  0  0  0  0
    1.6842    1.5172    0.0000 C   0  0  0  0  0  0  0  0  0  0  0  0
   -0.4791    0.2541    0.0000 C   0  0  0  0  0  0  0  0  0  0  0  0
   -1.1615   -0.1234    0.0000 C   0  0  3  0  0  0  0  0  0  0  0  0
    2.4102    1.1107    0.0000 C   0  0  0  0  0  0  0  0  0  0  0  0
    1.6987    2.3449    0.0000 C   0  0  0  0  0  0  0  0  0  0  0  0
    3.1216    2.3594    0.0000 C   0  0  0  0  0  0  0  0  0  0  0  0
    3.1216    1.5172    0.0000 C   0  0  0  0  0  0  0  0  0  0  0  0
    2.3957    2.7514    0.0000 C   0  0  0  0  0  0  0  0  0  0  0  0
   -2.6135   -0.1089    0.0000 C   0  0  0  0  0  0  0  0  0  0  0  0
   -1.1761   -0.9510    0.0000 C   0  0  0  0  0  0  0  0  0  0  0  0
   -3.3685    0.2686    0.0000 C   0  0  0  0  0  0  0  0  0  0  0  0
   -4.0508   -0.9655    0.0000 C   0  0  0  0  0  0  0  0  0  0  0  0
   -4.7768    0.2686    0.0000 C   0  0  0  0  0  0  0  0  0  0  0  0
   -4.7623   -1.3721    0.0000 C   0  0  0  0  0  0  0  0  0  0  0  0
   -5.4738   -0.1380    0.0000 C   0  0  0  0  0  0  0  0  0  0  0  0
    4.5736    2.3303    0.0000 C   0  0  0  0  0  0  0  0  0  0  0  0
  1 12  1  0  0  0  0
  1 17  1  0  0  0  0
  2 13  2  0  0  0  0
  3 24  2  0  0  0  0
  4 28  2  0  0  0  0
  5 32  1  0  0  0  0
  5 42  1  0  0  0  0
  6 35  2  0  0  0  0
  7 40  1  0  0  0  0
  7 41  1  0  0  0  0
 14  8  1  6  0  0  0
  8 24  1  0  0  0  0
 25  9  1  1  0  0  0
  9 28  1  0  0  0  0
 10 29  1  0  0  0  0
 10 35  1  0  0  0  0
 11 37  1  0  0  0  0
 11 38  1  0  0  0  0
 11 39  1  0  0  0  0
 12 13  1  6  0  0  0
 12 17  1  0  0  0  0
 12 23  1  1  0  0  0
 13 14  1  0  0  0  0
 14 20  1  0  0  0  0
 15 16  1  0  0  0  0
 15 19  1  1  0  0  0
 15 21  1  0  0  0  0
 16 19  1  0  0  0  0
 16 22  1  1  0  0  0
 18 20  1  6  0  0  0
 18 21  1  0  0  0  0
 18 22  1  0  0  0  0
 24 25  1  0  0  0  0
 25 26  1  0  0  0  0
 26 27  1  0  0  0  0
 27 30  2  0  0  0  0
 27 31  1  0  0  0  0
 28 29  1  0  0  0  0
 29 36  1  6  0  0  0
 30 33  1  0  0  0  0
 31 34  2  0  0  0  0
 32 33  2  0  0  0  0
 32 34  1  0  0  0  0
 35 37  1  0  0  0  0
 38 40  1  0  0  0  0
 39 41  1  0  0  0  0
M  END
> <PUBCHEM_COMPOUND_ID_TYPE>
0

> <PUBCHEM_TOTAL_CHARGE>
0

> <PUBCHEM_SUBSTANCE_ID>
310941087

> <PUBCHEM_SUBSTANCE_VERSION>
1

> <PUBCHEM_EXT_DATASOURCE_NAME>
4488

> <PUBCHEM_EXT_DATASOURCE_REGID>
SCHEMBL16119047

> <PUBCHEM_SUBSTANCE_COMMENT>
InChI=1S/C31H44N4O7/c1-19(32-27(36)17-35-8-10-41-11-9-35)29(38)34-26(14-20-4-6-24(40-3)7-5-20)30(39)33-25(28(37)31(2)18-42-31)15-21-12-22-16-23(22)13-21/h4-7,19,21-23,25-26H,8-18H2,1-3H3,(H,32,36)(H,33,39)(H,34,38)/t19-,21-,22+,23-,25-,26-,31+/m0/s1
InChIKey=DENUQWMZZWLATQ-ASBLBIJTSA-N

> <PUBCHEM_SUBSTANCE_SYNONYM>
SCHEMBL16119047

> <PUBCHEM_XREF_EXT_ID>
SCHEMBL16119047

> <PUBCHEM_EXT_DATASOURCE_URL>
https://www.surechembl.org/

> <PUBCHEM_EXT_SUBSTANCE_URL>
https://www.surechembl.org/chemical/SCHEMBL16119047

> <PUBCHEM_CID_ASSOCIATIONS>
117607972  1

> <PUBCHEM_COORDINATE_TYPE>
1
3

> <PUBCHEM_BONDANNOTATIONS>
12  13  6
12  23  5
15  19  5
16  22  5
18  20  6
29  36  6
14  8  6
25  9  5

$$$$
