310938335
  -OEChem-07211613022D

  8  8  0     0  0  0  0  0  0999 V2000
    2.0527   -0.8050    0.0000 N   0  0  0  0  0  0  0  0  0  0  0  0
    1.5093   -2.0125    0.0000 N   0  0  0  0  0  0  0  0  0  0  0  0
    2.2338   -1.6100    0.0000 N   0  0  0  0  0  0  0  0  0  0  0  0
    0.0000    0.0000    0.0000 N   0  0  0  0  0  0  0  0  0  0  0  0
    1.2376   -0.7144    0.0000 C   0  0  0  0  0  0  0  0  0  0  0  0
    0.9056   -1.4791    0.0000 C   0  0  0  0  0  0  0  0  0  0  0  0
    0.8251    0.0000    0.0000 C   0  0  0  0  0  0  0  0  0  0  0  0
    0.1107   -1.6502    0.0000 C   0  0  0  0  0  0  0  0  0  0  0  0
  1  3  1  0  0  0  0
  1  5  1  0  0  0  0
  2  3  2  0  0  0  0
  2  6  1  0  0  0  0
  4  7  1  0  0  0  0
  5  6  2  0  0  0  0
  5  7  1  0  0  0  0
  6  8  1  0  0  0  0
M  END
> <PUBCHEM_COMPOUND_ID_TYPE>
0

> <PUBCHEM_TOTAL_CHARGE>
0

> <PUBCHEM_SUBSTANCE_ID>
310938335

> <PUBCHEM_SUBSTANCE_VERSION>
1

> <PUBCHEM_EXT_DATASOURCE_NAME>
4488

> <PUBCHEM_EXT_DATASOURCE_REGID>
SCHEMBL16116216

> <PUBCHEM_SUBSTANCE_COMMENT>
InChI=1S/C4H8N4/c1-3-4(2-5)7-8-6-3/h2,5H2,1H3,(H,6,7,8)
InChIKey=AIYYCTFJYZYMFZ-UHFFFAOYSA-N

> <PUBCHEM_SUBSTANCE_SYNONYM>
SCHEMBL16116216

> <PUBCHEM_XREF_EXT_ID>
SCHEMBL16116216

> <PUBCHEM_EXT_DATASOURCE_URL>
https://www.surechembl.org/

> <PUBCHEM_EXT_SUBSTANCE_URL>
https://www.surechembl.org/chemical/SCHEMBL16116216

> <PUBCHEM_CID_ASSOCIATIONS>
82502373  1

> <PUBCHEM_COORDINATE_TYPE>
1
3

$$$$
