310947583
  -OEChem-07211613022D

 47 52  0     1  0  0  0  0  0999 V2000
   -1.4984  -11.0283    0.0000 P   0  0  3  0  0  0  0  0  0  0  0  0
    0.3076  -13.4805    0.0000 F   0  0  0  0  0  0  0  0  0  0  0  0
    1.1326  -11.4965    0.0000 O   0  0  0  0  0  0  0  0  0  0  0  0
    1.9576  -13.4805    0.0000 O   0  0  0  0  0  0  0  0  0  0  0  0
   -0.9150  -11.6116    0.0000 O   0  0  0  0  0  0  0  0  0  0  0  0
    3.2992   -8.8390    0.0000 O   0  0  0  0  0  0  0  0  0  0  0  0
   -2.0818  -10.4449    0.0000 O   0  0  0  0  0  0  0  0  0  0  0  0
   -0.9150  -10.4449    0.0000 O   0  0  0  0  0  0  0  0  0  0  0  0
   -2.7962  -13.6741    0.0000 O   0  0  0  0  0  0  0  0  0  0  0  0
   -3.5107  -12.4366    0.0000 O   0  0  0  0  0  0  0  0  0  0  0  0
    1.8001  -11.1565    0.0000 N   0  0  0  0  0  0  0  0  0  0  0  0
    1.8001   -9.8216    0.0000 N   0  0  0  0  0  0  0  0  0  0  0  0
    3.2992  -11.3140    0.0000 N   0  0  0  0  0  0  0  0  0  0  0  0
    4.0136  -10.0765    0.0000 N   0  0  0  0  0  0  0  0  0  0  0  0
   -2.0818  -11.6116    0.0000 N   0  0  0  0  0  0  0  0  0  0  0  0
    1.8001  -11.9815    0.0000 C   0  0  3  0  0  0  0  0  0  0  0  0
    1.5451  -12.7661    0.0000 C   0  0  3  0  0  0  0  0  0  0  0  0
    0.7201  -12.7661    0.0000 C   0  0  3  0  0  0  0  0  0  0  0  0
    2.5847  -10.9015    0.0000 C   0  0  0  0  0  0  0  0  0  0  0  0
    0.4652  -11.9815    0.0000 C   0  0  3  0  0  0  0  0  0  0  0  0
    2.5847  -10.0765    0.0000 C   0  0  0  0  0  0  0  0  0  0  0  0
    1.3152  -10.4890    0.0000 C   0  0  0  0  0  0  0  0  0  0  0  0
    3.2992   -9.6640    0.0000 C   0  0  0  0  0  0  0  0  0  0  0  0
    2.3420  -12.5526    0.0000 C   0  0  0  0  0  0  0  0  0  0  0  0
   -0.1182  -11.3981    0.0000 C   0  0  0  0  0  0  0  0  0  0  0  0
    4.0136  -10.9015    0.0000 C   0  0  0  0  0  0  0  0  0  0  0  0
   -2.0818   -9.6199    0.0000 C   0  0  0  0  0  0  0  0  0  0  0  0
   -2.7962   -9.2074    0.0000 C   0  0  0  0  0  0  0  0  0  0  0  0
    4.7281  -11.3140    0.0000 C   0  0  0  0  0  0  0  0  0  0  0  0
   -2.7962   -8.3824    0.0000 C   0  0  0  0  0  0  0  0  0  0  0  0
   -2.0818  -12.4366    0.0000 C   0  0  3  0  0  0  0  0  0  0  0  0
    4.0136   -8.4265    0.0000 C   0  0  0  0  0  0  0  0  0  0  0  0
   -1.3673   -9.2074    0.0000 C   0  0  0  0  0  0  0  0  0  0  0  0
   -3.5107   -9.6199    0.0000 C   0  0  0  0  0  0  0  0  0  0  0  0
   -2.0818   -7.9699    0.0000 C   0  0  0  0  0  0  0  0  0  0  0  0
   -2.7962  -12.8491    0.0000 C   0  0  0  0  0  0  0  0  0  0  0  0
   -1.3673   -8.3824    0.0000 C   0  0  0  0  0  0  0  0  0  0  0  0
   -3.5107   -7.9699    0.0000 C   0  0  0  0  0  0  0  0  0  0  0  0
   -4.2252   -9.2074    0.0000 C   0  0  0  0  0  0  0  0  0  0  0  0
   -4.2252   -8.3824    0.0000 C   0  0  0  0  0  0  0  0  0  0  0  0
   -1.3673  -12.8491    0.0000 C   0  0  0  0  0  0  0  0  0  0  0  0
    4.7281   -8.8390    0.0000 C   0  0  0  0  0  0  0  0  0  0  0  0
   -3.5107  -14.0866    0.0000 C   0  0  0  0  0  0  0  0  0  0  0  0
   -3.5107  -14.9116    0.0000 C   0  0  0  0  0  0  0  0  0  0  0  0
   -4.2953  -13.8317    0.0000 C   0  0  0  0  0  0  0  0  0  0  0  0
   -4.7803  -14.4991    0.0000 C   0  0  0  0  0  0  0  0  0  0  0  0
   -4.2953  -15.1666    0.0000 C   0  0  0  0  0  0  0  0  0  0  0  0
  1  5  1  0  0  0  0
  1  7  1  0  0  0  0
  1  8  2  0  0  0  0
  1 15  1  0  0  0  0
 18  2  1  6  0  0  0
 16  3  1  6  0  0  0
  3 20  1  0  0  0  0
 17  4  1  6  0  0  0
  5 25  1  0  0  0  0
  6 23  1  0  0  0  0
  6 32  1  0  0  0  0
  7 27  1  0  0  0  0
  9 36  1  0  0  0  0
  9 43  1  0  0  0  0
 10 36  2  0  0  0  0
 11 16  1  0  0  0  0
 11 19  1  0  0  0  0
 11 22  1  0  0  0  0
 12 21  1  0  0  0  0
 12 22  2  0  0  0  0
 13 19  1  0  0  0  0
 13 26  2  0  0  0  0
 14 23  2  0  0  0  0
 14 26  1  0  0  0  0
 15 31  1  0  0  0  0
 16 17  1  0  0  0  0
 17 18  1  0  0  0  0
 17 24  1  1  0  0  0
 18 20  1  0  0  0  0
 19 21  2  0  0  0  0
 20 25  1  1  0  0  0
 21 23  1  0  0  0  0
 26 29  1  0  0  0  0
 27 28  1  0  0  0  0
 27 33  2  0  0  0  0
 28 30  2  0  0  0  0
 28 34  1  0  0  0  0
 30 35  1  0  0  0  0
 30 38  1  0  0  0  0
 31 36  1  0  0  0  0
 31 41  1  1  0  0  0
 32 42  1  0  0  0  0
 33 37  1  0  0  0  0
 34 39  2  0  0  0  0
 35 37  2  0  0  0  0
 38 40  2  0  0  0  0
 39 40  1  0  0  0  0
 43 44  1  0  0  0  0
 43 45  1  0  0  0  0
 44 47  1  0  0  0  0
 45 46  1  0  0  0  0
 46 47  1  0  0  0  0
M  END
> <PUBCHEM_COMPOUND_ID_TYPE>
0

> <PUBCHEM_TOTAL_CHARGE>
0

> <PUBCHEM_SUBSTANCE_ID>
310947583

> <PUBCHEM_SUBSTANCE_VERSION>
1

> <PUBCHEM_EXT_DATASOURCE_NAME>
4488

> <PUBCHEM_EXT_DATASOURCE_REGID>
SCHEMBL16125746

> <PUBCHEM_SUBSTANCE_COMMENT>
InChI=1S/C32H39FN5O8P/c1-5-42-29-26-28(35-20(3)36-29)38(18-34-26)31-32(4,40)27(33)25(45-31)17-43-47(41,37-19(2)30(39)44-22-13-7-8-14-22)46-24-16-10-12-21-11-6-9-15-23(21)24/h6,9-12,15-16,18-19,22,25,27,31,40H,5,7-8,13-14,17H2,1-4H3,(H,37,41)/t19-,25+,27+,31+,32+,47?/m0/s1
InChIKey=JDJYNLZQJYRECL-FRBHZEONSA-N

> <PUBCHEM_SUBSTANCE_SYNONYM>
SCHEMBL16125746

> <PUBCHEM_XREF_EXT_ID>
SCHEMBL16125746

> <PUBCHEM_EXT_DATASOURCE_URL>
https://www.surechembl.org/

> <PUBCHEM_EXT_SUBSTANCE_URL>
https://www.surechembl.org/chemical/SCHEMBL16125746

> <PUBCHEM_CID_ASSOCIATIONS>
117613305  1

> <PUBCHEM_COORDINATE_TYPE>
1
3

> <PUBCHEM_BONDANNOTATIONS>
17  24  5
18  2  6
20  25  5
16  3  6
31  41  5
17  4  6

$$$$
