310949776
  -OEChem-07211613022D

 24 25  0     0  0  0  0  0  0999 V2000
    1.6440    0.3533    0.0000 O   0  0  0  0  0  0  0  0  0  0  0  0
    2.4729    0.3533    0.0000 O   0  0  0  0  0  0  0  0  0  0  0  0
    3.7092   -0.3668    0.0000 O   0  0  0  0  0  0  0  0  0  0  0  0
   -3.7092    1.0870    0.0000 O   0  0  0  0  0  0  0  0  0  0  0  0
   -3.7092   -0.3668    0.0000 O   0  0  0  0  0  0  0  0  0  0  0  0
    0.4076   -0.3668    0.0000 N   0  0  0  0  0  0  0  0  0  0  0  0
   -0.4076    2.5272    0.0000 N   0  0  0  0  0  0  0  0  0  0  0  0
    1.6440   -1.0870    0.0000 C   0  0  0  0  0  0  0  0  0  0  0  0
    2.4729   -1.1006    0.0000 C   0  0  0  0  0  0  0  0  0  0  0  0
   -0.8288    0.3668    0.0000 C   0  0  0  0  0  0  0  0  0  0  0  0
    1.2228   -0.3805    0.0000 C   0  0  0  0  0  0  0  0  0  0  0  0
   -1.2500    1.0734    0.0000 C   0  0  0  0  0  0  0  0  0  0  0  0
   -2.4729    0.3533    0.0000 C   0  0  0  0  0  0  0  0  0  0  0  0
   -2.0517    1.0734    0.0000 C   0  0  0  0  0  0  0  0  0  0  0  0
    0.0136    0.3397    0.0000 C   0  0  0  0  0  0  0  0  0  0  0  0
    2.8805   -0.3668    0.0000 C   0  0  0  0  0  0  0  0  0  0  0  0
    1.2500   -1.8206    0.0000 C   0  0  0  0  0  0  0  0  0  0  0  0
   -1.2364   -0.3668    0.0000 C   0  0  0  0  0  0  0  0  0  0  0  0
    2.8805   -1.8071    0.0000 C   0  0  0  0  0  0  0  0  0  0  0  0
   -2.0517   -0.3668    0.0000 C   0  0  0  0  0  0  0  0  0  0  0  0
   -3.2881    0.3533    0.0000 C   0  0  0  0  0  0  0  0  0  0  0  0
    1.6576   -2.5272    0.0000 C   0  0  0  0  0  0  0  0  0  0  0  0
    2.4729   -2.5272    0.0000 C   0  0  0  0  0  0  0  0  0  0  0  0
   -0.8424    1.7799    0.0000 C   0  0  0  0  0  0  0  0  0  0  0  0
  1 11  2  0  0  0  0
  2 16  2  0  0  0  0
  3 16  1  0  0  0  0
  4 21  2  0  0  0  0
  5 21  1  0  0  0  0
  6 11  1  0  0  0  0
  6 15  1  0  0  0  0
  7 24  3  0  0  0  0
  8  9  2  0  0  0  0
  8 11  1  0  0  0  0
  8 17  1  0  0  0  0
  9 16  1  0  0  0  0
  9 19  1  0  0  0  0
 10 12  2  0  0  0  0
 10 15  1  0  0  0  0
 10 18  1  0  0  0  0
 12 14  1  0  0  0  0
 12 24  1  0  0  0  0
 13 14  2  0  0  0  0
 13 20  1  0  0  0  0
 13 21  1  0  0  0  0
 17 22  2  0  0  0  0
 18 20  2  0  0  0  0
 19 23  2  0  0  0  0
 22 23  1  0  0  0  0
M  END
> <PUBCHEM_COMPOUND_ID_TYPE>
0

> <PUBCHEM_TOTAL_CHARGE>
0

> <PUBCHEM_SUBSTANCE_ID>
310949776

> <PUBCHEM_SUBSTANCE_VERSION>
1

> <PUBCHEM_EXT_DATASOURCE_NAME>
4488

> <PUBCHEM_EXT_DATASOURCE_REGID>
SCHEMBL16127974

> <PUBCHEM_SUBSTANCE_COMMENT>
InChI=1S/C17H12N2O5/c18-8-12-7-10(16(21)22)5-6-11(12)9-19-15(20)13-3-1-2-4-14(13)17(23)24/h1-7H,9H2,(H,19,20)(H,21,22)(H,23,24)
InChIKey=PWSBBZUVXCEYHC-UHFFFAOYSA-N

> <PUBCHEM_SUBSTANCE_SYNONYM>
SCHEMBL16127974

> <PUBCHEM_XREF_EXT_ID>
SCHEMBL16127974

> <PUBCHEM_EXT_DATASOURCE_URL>
https://www.surechembl.org/

> <PUBCHEM_EXT_SUBSTANCE_URL>
https://www.surechembl.org/chemical/SCHEMBL16127974

> <PUBCHEM_CID_ASSOCIATIONS>
117615100  1

> <PUBCHEM_COORDINATE_TYPE>
1
3

$$$$
