310949858
  -OEChem-07211613022D

 34 38  0     1  0  0  0  0  0999 V2000
    1.2301    3.0029    0.0000 Cl  0  0  0  0  0  0  0  0  0  0  0  0
    2.5218    3.1815    0.0000 F   0  0  0  0  0  0  0  0  0  0  0  0
    3.6488    3.2640    0.0000 F   0  0  0  0  0  0  0  0  0  0  0  0
    3.7038    2.1233    0.0000 F   0  0  0  0  0  0  0  0  0  0  0  0
   -1.2026   -2.1508    0.0000 F   0  0  0  0  0  0  0  0  0  0  0  0
   -1.2575   -3.2640    0.0000 F   0  0  0  0  0  0  0  0  0  0  0  0
   -2.3844   -3.2090    0.0000 F   0  0  0  0  0  0  0  0  0  0  0  0
   -0.1992    1.2301    0.0000 N   0  0  0  0  0  0  0  0  0  0  0  0
   -1.6148    0.3917    0.0000 N   0  0  0  0  0  0  0  0  0  0  0  0
   -0.7353    2.4531    0.0000 N   0  0  0  0  0  0  0  0  0  0  0  0
    0.0756    2.5356    0.0000 N   0  0  0  0  0  0  0  0  0  0  0  0
   -2.3982    1.4774    0.0000 N   0  0  0  0  0  0  0  0  0  0  0  0
   -2.8792    0.8177    0.0000 N   0  0  0  0  0  0  0  0  0  0  0  0
   -2.1096   -1.2575    0.0000 N   0  0  0  0  0  0  0  0  0  0  0  0
   -3.4565   -0.8177    0.0000 N   0  0  0  0  0  0  0  0  0  0  0  0
   -0.9139    1.6423    0.0000 C   0  0  0  0  0  0  0  0  0  0  0  0
   -1.6148    1.2163    0.0000 C   0  0  0  0  0  0  0  0  0  0  0  0
    0.4054    1.7797    0.0000 C   0  0  0  0  0  0  0  0  0  0  0  0
   -2.3844    0.1443    0.0000 C   0  0  0  0  0  0  0  0  0  0  0  0
   -0.2130    0.3917    0.0000 C   0  0  3  0  0  0  0  0  0  0  0  0
    1.2163    1.6011    0.0000 C   0  0  0  0  0  0  0  0  0  0  0  0
   -0.9002   -0.0206    0.0000 C   0  0  0  0  0  0  0  0  0  0  0  0
   -2.6456   -0.6528    0.0000 C   0  0  0  0  0  0  0  0  0  0  0  0
    1.7660    2.2195    0.0000 C   0  0  0  0  0  0  0  0  0  0  0  0
    2.5631    2.0409    0.0000 C   0  0  0  0  0  0  0  0  0  0  0  0
    1.4774    0.8177    0.0000 C   0  0  0  0  0  0  0  0  0  0  0  0
    3.1128    2.6593    0.0000 C   0  0  0  0  0  0  0  0  0  0  0  0
    0.5154   -0.0206    0.0000 C   0  0  0  0  0  0  0  0  0  0  0  0
   -2.3569   -2.0546    0.0000 C   0  0  0  0  0  0  0  0  0  0  0  0
    2.8105    1.2575    0.0000 C   0  0  0  0  0  0  0  0  0  0  0  0
    2.2882    0.6528    0.0000 C   0  0  0  0  0  0  0  0  0  0  0  0
   -1.8072   -2.6731    0.0000 C   0  0  0  0  0  0  0  0  0  0  0  0
   -3.1540   -2.2195    0.0000 C   0  0  0  0  0  0  0  0  0  0  0  0
   -3.7038   -1.6148    0.0000 C   0  0  0  0  0  0  0  0  0  0  0  0
  1 24  1  0  0  0  0
  2 27  1  0  0  0  0
  3 27  1  0  0  0  0
  4 27  1  0  0  0  0
  5 32  1  0  0  0  0
  6 32  1  0  0  0  0
  7 32  1  0  0  0  0
  8 16  1  0  0  0  0
  8 18  1  0  0  0  0
  8 20  1  0  0  0  0
  9 17  1  0  0  0  0
  9 19  1  0  0  0  0
  9 22  1  0  0  0  0
 10 11  1  0  0  0  0
 10 16  2  0  0  0  0
 11 18  2  0  0  0  0
 12 13  1  0  0  0  0
 12 17  2  0  0  0  0
 13 19  2  0  0  0  0
 14 23  1  0  0  0  0
 14 29  2  0  0  0  0
 15 23  2  0  0  0  0
 15 34  1  0  0  0  0
 16 17  1  0  0  0  0
 18 21  1  0  0  0  0
 19 23  1  0  0  0  0
 20 22  1  0  0  0  0
 20 28  1  1  0  0  0
 21 24  1  0  0  0  0
 21 26  2  0  0  0  0
 24 25  2  0  0  0  0
 25 27  1  0  0  0  0
 25 30  1  0  0  0  0
 26 31  1  0  0  0  0
 29 32  1  0  0  0  0
 29 33  1  0  0  0  0
 30 31  2  0  0  0  0
 33 34  2  0  0  0  0
M  END
> <PUBCHEM_COMPOUND_ID_TYPE>
0

> <PUBCHEM_TOTAL_CHARGE>
0

> <PUBCHEM_SUBSTANCE_ID>
310949858

> <PUBCHEM_SUBSTANCE_VERSION>
1

> <PUBCHEM_EXT_DATASOURCE_NAME>
4488

> <PUBCHEM_EXT_DATASOURCE_REGID>
SCHEMBL16128062

> <PUBCHEM_SUBSTANCE_COMMENT>
InChI=1S/C19H11ClF6N8/c1-8-7-33-15(13-27-6-5-11(28-13)19(24,25)26)30-31-16(33)17-32-29-14(34(8)17)9-3-2-4-10(12(9)20)18(21,22)23/h2-6,8H,7H2,1H3/t8-/m0/s1
InChIKey=QLOQSQVAKGYYEI-QMMMGPOBSA-N

> <PUBCHEM_SUBSTANCE_SYNONYM>
SCHEMBL16128062

> <PUBCHEM_XREF_EXT_ID>
SCHEMBL16128062

> <PUBCHEM_EXT_DATASOURCE_URL>
https://www.surechembl.org/

> <PUBCHEM_EXT_SUBSTANCE_URL>
https://www.surechembl.org/chemical/SCHEMBL16128062

> <PUBCHEM_CID_ASSOCIATIONS>
117615158  1

> <PUBCHEM_COORDINATE_TYPE>
1
3

> <PUBCHEM_BONDANNOTATIONS>
20  28  5

$$$$
