310937377
  -OEChem-07211613022D

 30 34  0     0  0  0  0  0  0999 V2000
    7.4297   -1.3600    0.0000 O   0  0  0  0  0  0  0  0  0  0  0  0
    2.4681   -1.4607    0.0000 N   0  0  0  0  0  0  0  0  0  0  0  0
    5.7674   -1.3852    0.0000 N   0  0  0  0  0  0  0  0  0  0  0  0
    4.1304   -2.8459    0.0000 N   0  0  0  0  0  0  0  0  0  0  0  0
    3.2741    0.0000    0.0000 N   0  0  0  0  0  0  0  0  0  0  0  0
    0.8059   -2.8459    0.0000 N   0  0  0  0  0  0  0  0  0  0  0  0
    0.3777   -3.6015    0.0000 N   0  0  0  0  0  0  0  0  0  0  0  0
    1.6119   -4.2815    0.0000 N   0  0  0  0  0  0  0  0  0  0  0  0
    3.2993   -2.8459    0.0000 C   0  0  0  0  0  0  0  0  0  0  0  0
    3.7023   -2.1408    0.0000 C   0  0  0  0  0  0  0  0  0  0  0  0
    3.2993   -1.4356    0.0000 C   0  0  0  0  0  0  0  0  0  0  0  0
    1.6119   -2.8459    0.0000 C   0  0  0  0  0  0  0  0  0  0  0  0
    3.7023   -0.7052    0.0000 C   0  0  0  0  0  0  0  0  0  0  0  0
    4.5334   -2.1155    0.0000 C   0  0  0  0  0  0  0  0  0  0  0  0
    2.8711   -3.5511    0.0000 C   0  0  0  0  0  0  0  0  0  0  0  0
    2.8711   -2.1408    0.0000 C   0  0  0  0  0  0  0  0  0  0  0  0
    4.9363   -1.3852    0.0000 C   0  0  0  0  0  0  0  0  0  0  0  0
    2.0652   -3.5511    0.0000 C   0  0  0  0  0  0  0  0  0  0  0  0
    2.0652   -2.1408    0.0000 C   0  0  0  0  0  0  0  0  0  0  0  0
    4.5081   -0.6800    0.0000 C   0  0  0  0  0  0  0  0  0  0  0  0
    1.2089   -3.5763    0.0000 C   0  0  0  0  0  0  0  0  0  0  0  0
    2.0400   -0.7304    0.0000 C   0  0  0  0  0  0  0  0  0  0  0  0
    2.4430   -0.0252    0.0000 C   0  0  0  0  0  0  0  0  0  0  0  0
    6.1704   -0.6548    0.0000 C   0  0  0  0  0  0  0  0  0  0  0  0
    6.1955   -2.0904    0.0000 C   0  0  0  0  0  0  0  0  0  0  0  0
    0.0000   -4.3067    0.0000 C   0  0  0  0  0  0  0  0  0  0  0  0
    1.2341   -5.0119    0.0000 C   0  0  0  0  0  0  0  0  0  0  0  0
    7.0015   -0.6548    0.0000 C   0  0  0  0  0  0  0  0  0  0  0  0
    7.0015   -2.0652    0.0000 C   0  0  0  0  0  0  0  0  0  0  0  0
    0.4030   -5.0371    0.0000 C   0  0  0  0  0  0  0  0  0  0  0  0
  1 28  1  0  0  0  0
  1 29  1  0  0  0  0
  2 11  2  0  0  0  0
  2 22  1  0  0  0  0
  3 17  1  0  0  0  0
  3 24  1  0  0  0  0
  3 25  1  0  0  0  0
  4  9  1  0  0  0  0
  5 13  2  0  0  0  0
  5 23  1  0  0  0  0
  6 12  1  0  0  0  0
  7 21  2  0  0  0  0
  7 26  1  0  0  0  0
  8 21  1  0  0  0  0
  8 27  2  0  0  0  0
  9 10  1  0  0  0  0
  9 15  1  0  0  0  0
  9 16  1  0  0  0  0
 10 11  1  0  0  0  0
 10 14  2  0  0  0  0
 11 13  1  0  0  0  0
 12 18  1  0  0  0  0
 12 19  1  0  0  0  0
 12 21  1  0  0  0  0
 13 20  1  0  0  0  0
 14 17  1  0  0  0  0
 15 18  1  0  0  0  0
 16 19  1  0  0  0  0
 17 20  2  0  0  0  0
 22 23  2  0  0  0  0
 24 28  1  0  0  0  0
 25 29  1  0  0  0  0
 26 30  2  0  0  0  0
 27 30  1  0  0  0  0
M  END
> <PUBCHEM_COMPOUND_ID_TYPE>
0

> <PUBCHEM_TOTAL_CHARGE>
0

> <PUBCHEM_SUBSTANCE_ID>
310937377

> <PUBCHEM_SUBSTANCE_VERSION>
1

> <PUBCHEM_EXT_DATASOURCE_NAME>
4488

> <PUBCHEM_EXT_DATASOURCE_REGID>
SCHEMBL16115133

> <PUBCHEM_SUBSTANCE_COMMENT>
InChI=1S/C22H27N7O/c23-21(2-4-22(24,5-3-21)20-27-6-1-7-28-20)17-14-16(29-10-12-30-13-11-29)15-18-19(17)26-9-8-25-18/h1,6-9,14-15H,2-5,10-13,23-24H2
InChIKey=PKDYPNTUXUBEQJ-UHFFFAOYSA-N

> <PUBCHEM_SUBSTANCE_SYNONYM>
SCHEMBL16115133

> <PUBCHEM_XREF_EXT_ID>
SCHEMBL16115133

> <PUBCHEM_EXT_DATASOURCE_URL>
https://www.surechembl.org/

> <PUBCHEM_EXT_SUBSTANCE_URL>
https://www.surechembl.org/chemical/SCHEMBL16115133

> <PUBCHEM_CID_ASSOCIATIONS>
117605146  1

> <PUBCHEM_COORDINATE_TYPE>
1
3

$$$$
