310948454
  -OEChem-07211613022D

 29 33  0     1  0  0  0  0  0999 V2000
   -2.5944    1.8099    0.0000 O   0  0  0  0  0  0  0  0  0  0  0  0
    0.1721    1.6723    0.0000 N   0  0  0  0  0  0  0  0  0  0  0  0
   -0.1583    0.9290    0.0000 N   0  0  0  0  0  0  0  0  0  0  0  0
   -1.5347    0.4060    0.0000 N   0  0  0  0  0  0  0  0  0  0  0  0
   -1.8788    3.0487    0.0000 N   0  0  0  0  0  0  0  0  0  0  0  0
    0.2959   -2.5944    0.0000 N   0  0  0  0  0  0  0  0  0  0  0  0
    1.0254   -0.3234    0.0000 N   0  0  0  0  0  0  0  0  0  0  0  0
   -1.1631    1.8237    0.0000 C   0  0  0  0  0  0  0  0  0  0  0  0
   -0.4473    2.2367    0.0000 C   0  0  0  0  0  0  0  0  0  0  0  0
   -0.9841    1.0254    0.0000 C   0  0  0  0  0  0  0  0  0  0  0  0
    0.9704    1.8513    0.0000 C   0  0  3  0  0  0  0  0  0  0  0  0
   -1.8788    2.2367    0.0000 C   0  0  0  0  0  0  0  0  0  0  0  0
   -0.4335    3.0487    0.0000 C   0  0  0  0  0  0  0  0  0  0  0  0
   -1.3282   -0.3785    0.0000 C   0  0  0  0  0  0  0  0  0  0  0  0
    1.5347    1.2457    0.0000 C   0  0  3  0  0  0  0  0  0  0  0  0
   -0.3097   -1.3970    0.0000 C   0  0  0  0  0  0  0  0  0  0  0  0
   -0.9015   -1.9751    0.0000 C   0  0  0  0  0  0  0  0  0  0  0  0
   -1.1768    3.4616    0.0000 C   0  0  0  0  0  0  0  0  0  0  0  0
    1.2457    2.6220    0.0000 C   0  0  0  0  0  0  0  0  0  0  0  0
   -0.5299   -0.6125    0.0000 C   0  0  0  0  0  0  0  0  0  0  0  0
   -1.8925   -0.9704    0.0000 C   0  0  0  0  0  0  0  0  0  0  0  0
   -0.5161   -2.7046    0.0000 C   0  0  3  0  0  0  0  0  0  0  0  0
   -1.6861   -1.7687    0.0000 C   0  0  0  0  0  0  0  0  0  0  0  0
    2.3468    1.4108    0.0000 C   0  0  0  0  0  0  0  0  0  0  0  0
    0.4198   -1.7687    0.0000 C   0  0  0  0  0  0  0  0  0  0  0  0
    1.2732    0.4749    0.0000 C   0  0  0  0  0  0  0  0  0  0  0  0
    2.0577    2.7871    0.0000 C   0  0  0  0  0  0  0  0  0  0  0  0
    2.5944    2.2091    0.0000 C   0  0  0  0  0  0  0  0  0  0  0  0
   -0.8740   -3.4616    0.0000 C   0  0  0  0  0  0  0  0  0  0  0  0
  1 12  2  0  0  0  0
  2  3  1  0  0  0  0
  2  9  1  0  0  0  0
 11  2  1  1  0  0  0
  3 10  2  0  0  0  0
  4 10  1  0  0  0  0
  4 14  1  0  0  0  0
  5 12  1  0  0  0  0
  5 18  1  0  0  0  0
  6 22  1  0  0  0  0
  6 25  1  0  0  0  0
  7 26  3  0  0  0  0
  8  9  2  0  0  0  0
  8 10  1  0  0  0  0
  8 12  1  0  0  0  0
  9 13  1  0  0  0  0
 11 15  1  0  0  0  0
 11 19  1  0  0  0  0
 13 18  2  0  0  0  0
 14 20  1  0  0  0  0
 14 21  2  0  0  0  0
 15 24  1  0  0  0  0
 15 26  1  6  0  0  0
 16 17  1  0  0  0  0
 16 20  2  0  0  0  0
 16 25  1  0  0  0  0
 17 22  1  0  0  0  0
 17 23  2  0  0  0  0
 19 27  1  0  0  0  0
 21 23  1  0  0  0  0
 22 29  1  0  0  0  0
 24 28  1  0  0  0  0
 27 28  1  0  0  0  0
M  END
> <PUBCHEM_COMPOUND_ID_TYPE>
0

> <PUBCHEM_TOTAL_CHARGE>
0

> <PUBCHEM_SUBSTANCE_ID>
310948454

> <PUBCHEM_SUBSTANCE_VERSION>
1

> <PUBCHEM_EXT_DATASOURCE_NAME>
4488

> <PUBCHEM_EXT_DATASOURCE_REGID>
SCHEMBL16126635

> <PUBCHEM_SUBSTANCE_COMMENT>
InChI=1S/C22H24N6O/c1-13-17-7-6-16(10-15(17)12-25-13)26-21-20-19(8-9-24-22(20)29)28(27-21)18-5-3-2-4-14(18)11-23/h6-10,13-14,18,25H,2-5,12H2,1H3,(H,24,29)(H,26,27)/t13?,14-,18+/m1/s1
InChIKey=DXCALSOZWMAYAH-HJFZTSBYSA-N

> <PUBCHEM_SUBSTANCE_SYNONYM>
SCHEMBL16126635

> <PUBCHEM_XREF_EXT_ID>
SCHEMBL16126635

> <PUBCHEM_EXT_DATASOURCE_URL>
https://www.surechembl.org/

> <PUBCHEM_EXT_SUBSTANCE_URL>
https://www.surechembl.org/chemical/SCHEMBL16126635

> <PUBCHEM_CID_ASSOCIATIONS>
117614012  1

> <PUBCHEM_COORDINATE_TYPE>
1
3

> <PUBCHEM_BONDANNOTATIONS>
15  26  6
11  2  5

$$$$
