310941792
  -OEChem-07211613022D

 32 38  0     0  0  0  0  0  0999 V2000
    0.3848   -2.0544    0.0000 S   0  0  0  0  0  0  0  0  0  0  0  0
    0.6871    2.5078    0.0000 O   0  0  0  0  0  0  0  0  0  0  0  0
    0.9619   -2.6315    0.0000 O   0  0  0  0  0  0  0  0  0  0  0  0
   -0.4398   -2.0544    0.0000 O   0  0  0  0  0  0  0  0  0  0  0  0
    0.6046    0.0481    0.0000 N   0  0  0  0  0  0  0  0  0  0  0  0
    0.8107   -1.3260    0.0000 N   0  0  0  0  0  0  0  0  0  0  0  0
   -0.8244    0.0481    0.0000 N   0  0  0  0  0  0  0  0  0  0  0  0
   -0.6046   -0.7489    0.0000 N   0  0  0  0  0  0  0  0  0  0  0  0
   -0.0275   -2.7689    0.0000 N   0  0  0  0  0  0  0  0  0  0  0  0
   -0.8932    2.7277    0.0000 C   0  0  0  0  0  0  0  0  0  0  0  0
    1.3329    1.3123    0.0000 C   0  0  0  0  0  0  0  0  0  0  0  0
   -0.1099    0.4741    0.0000 C   0  0  0  0  0  0  0  0  0  0  0  0
    0.6046    1.7246    0.0000 C   0  0  0  0  0  0  0  0  0  0  0  0
    0.2199   -0.7489    0.0000 C   0  0  0  0  0  0  0  0  0  0  0  0
    1.3192    0.4741    0.0000 C   0  0  0  0  0  0  0  0  0  0  0  0
    2.0613    1.7383    0.0000 C   0  0  0  0  0  0  0  0  0  0  0  0
   -0.0825    1.2986    0.0000 C   0  0  0  0  0  0  0  0  0  0  0  0
   -2.4597    2.7139    0.0000 C   0  0  0  0  0  0  0  0  0  0  0  0
   -2.1025    2.2604    0.0000 C   0  0  0  0  0  0  0  0  0  0  0  0
   -1.7727    3.9231    0.0000 C   0  0  0  0  0  0  0  0  0  0  0  0
   -0.8794    3.5522    0.0000 C   0  0  0  0  0  0  0  0  0  0  0  0
   -1.2780    2.0406    0.0000 C   0  0  0  0  0  0  0  0  0  0  0  0
   -1.6902    2.5078    0.0000 C   0  0  0  0  0  0  0  0  0  0  0  0
    0.0000    2.9063    0.0000 C   0  0  0  0  0  0  0  0  0  0  0  0
   -2.8445    2.0544    0.0000 C   0  0  0  0  0  0  0  0  0  0  0  0
   -2.4459    3.5522    0.0000 C   0  0  0  0  0  0  0  0  0  0  0  0
   -2.0750    3.0850    0.0000 C   0  0  0  0  0  0  0  0  0  0  0  0
    2.4597    2.3841    0.0000 C   0  0  0  0  0  0  0  0  0  0  0  0
    2.8445    1.7246    0.0000 C   0  0  0  0  0  0  0  0  0  0  0  0
   -0.6046   -3.3461    0.0000 C   0  0  0  0  0  0  0  0  0  0  0  0
    0.5360   -3.3598    0.0000 C   0  0  0  0  0  0  0  0  0  0  0  0
   -0.0137   -3.9231    0.0000 C   0  0  0  0  0  0  0  0  0  0  0  0
  1  3  2  0  0  0  0
  1  4  2  0  0  0  0
  1  6  1  0  0  0  0
  1  9  1  0  0  0  0
  2 13  1  0  0  0  0
  2 24  1  0  0  0  0
  5 12  1  0  0  0  0
  5 14  1  0  0  0  0
  5 15  1  0  0  0  0
  6 14  1  0  0  0  0
  7  8  1  0  0  0  0
  7 12  2  0  0  0  0
  8 14  2  0  0  0  0
  9 30  1  0  0  0  0
  9 31  1  0  0  0  0
 10 21  1  0  0  0  0
 10 22  1  0  0  0  0
 10 23  1  0  0  0  0
 10 24  1  0  0  0  0
 11 13  1  0  0  0  0
 11 15  2  0  0  0  0
 11 16  1  0  0  0  0
 12 17  1  0  0  0  0
 13 17  2  0  0  0  0
 16 28  1  0  0  0  0
 16 29  1  0  0  0  0
 18 23  1  0  0  0  0
 18 25  1  0  0  0  0
 18 26  1  0  0  0  0
 19 22  1  0  0  0  0
 19 25  1  0  0  0  0
 19 27  1  0  0  0  0
 20 21  1  0  0  0  0
 20 26  1  0  0  0  0
 20 27  1  0  0  0  0
 28 29  1  0  0  0  0
 30 32  1  0  0  0  0
 31 32  1  0  0  0  0
M  END
> <PUBCHEM_COMPOUND_ID_TYPE>
0

> <PUBCHEM_TOTAL_CHARGE>
0

> <PUBCHEM_SUBSTANCE_ID>
310941792

> <PUBCHEM_SUBSTANCE_VERSION>
1

> <PUBCHEM_EXT_DATASOURCE_NAME>
4488

> <PUBCHEM_EXT_DATASOURCE_REGID>
SCHEMBL16119823

> <PUBCHEM_SUBSTANCE_COMMENT>
InChI=1S/C23H31N5O3S/c29-32(30,27-4-1-5-27)26-22-25-24-21-9-20(19(13-28(21)22)18-2-3-18)31-14-23-10-15-6-16(11-23)8-17(7-15)12-23/h9,13,15-18H,1-8,10-12,14H2,(H,25,26)
InChIKey=GLWKQWULROUTEI-UHFFFAOYSA-N

> <PUBCHEM_SUBSTANCE_SYNONYM>
SCHEMBL16119823

> <PUBCHEM_XREF_EXT_ID>
SCHEMBL16119823

> <PUBCHEM_EXT_DATASOURCE_URL>
https://www.surechembl.org/

> <PUBCHEM_EXT_SUBSTANCE_URL>
https://www.surechembl.org/chemical/SCHEMBL16119823

> <PUBCHEM_CID_ASSOCIATIONS>
117608541  1

> <PUBCHEM_COORDINATE_TYPE>
1
3

$$$$
