310949416
  -OEChem-07211613022D

 30 34  0     0  0  0  0  0  0999 V2000
    2.5269    3.1159    0.0000 S   0  0  0  0  0  0  0  0  0  0  0  0
    0.4750   -3.3440    0.0000 O   0  0  0  0  0  0  0  0  0  0  0  0
    2.1090   -3.6859    0.0000 O   0  0  0  0  0  0  0  0  0  0  0  0
    1.3680    0.9119    0.0000 N   0  0  0  0  0  0  0  0  0  0  0  0
    1.8430   -2.8879    0.0000 N   0  0  0  0  0  0  0  0  0  0  0  0
    0.5890    2.0329    0.0000 C   0  0  0  0  0  0  0  0  0  0  0  0
    0.5700    1.1969    0.0000 C   0  0  0  0  0  0  0  0  0  0  0  0
    1.3680    2.2800    0.0000 C   0  0  0  0  0  0  0  0  0  0  0  0
    1.8810    1.6149    0.0000 C   0  0  0  0  0  0  0  0  0  0  0  0
   -0.1520    2.4319    0.0000 C   0  0  0  0  0  0  0  0  0  0  0  0
   -0.1330    0.7790    0.0000 C   0  0  0  0  0  0  0  0  0  0  0  0
   -0.8550    2.0329    0.0000 C   0  0  0  0  0  0  0  0  0  0  0  0
    1.6339    0.1330    0.0000 C   0  0  0  0  0  0  0  0  0  0  0  0
    1.7289    3.0400    0.0000 C   0  0  0  0  0  0  0  0  0  0  0  0
    2.6979    1.6910    0.0000 C   0  0  0  0  0  0  0  0  0  0  0  0
   -0.8550    1.1780    0.0000 C   0  0  0  0  0  0  0  0  0  0  0  0
    1.0640   -0.5130    0.0000 C   0  0  0  0  0  0  0  0  0  0  0  0
   -1.5960    2.4509    0.0000 C   0  0  0  0  0  0  0  0  0  0  0  0
    3.0209    2.4699    0.0000 C   0  0  0  0  0  0  0  0  0  0  0  0
    1.3109   -1.2920    0.0000 C   0  0  0  0  0  0  0  0  0  0  0  0
    0.2660   -0.3230    0.0000 C   0  0  0  0  0  0  0  0  0  0  0  0
    0.7790   -1.9000    0.0000 C   0  0  0  0  0  0  0  0  0  0  0  0
   -1.5960    3.2679    0.0000 C   0  0  0  0  0  0  0  0  0  0  0  0
   -2.2990    2.0329    0.0000 C   0  0  0  0  0  0  0  0  0  0  0  0
   -0.2660   -0.9309    0.0000 C   0  0  0  0  0  0  0  0  0  0  0  0
   -0.0380   -1.7289    0.0000 C   0  0  0  0  0  0  0  0  0  0  0  0
    1.0450   -2.6599    0.0000 C   0  0  0  0  0  0  0  0  0  0  0  0
   -2.3180    3.6859    0.0000 C   0  0  0  0  0  0  0  0  0  0  0  0
   -3.0209    2.4319    0.0000 C   0  0  0  0  0  0  0  0  0  0  0  0
   -3.0019    3.2869    0.0000 C   0  0  0  0  0  0  0  0  0  0  0  0
  1 14  1  0  0  0  0
  1 19  1  0  0  0  0
  2 27  2  0  0  0  0
  3  5  1  0  0  0  0
  4  7  1  0  0  0  0
  4  9  1  0  0  0  0
  4 13  1  0  0  0  0
  5 27  1  0  0  0  0
  6  7  1  0  0  0  0
  6  8  1  0  0  0  0
  6 10  2  0  0  0  0
  7 11  2  0  0  0  0
  8  9  2  0  0  0  0
  8 14  1  0  0  0  0
  9 15  1  0  0  0  0
 10 12  1  0  0  0  0
 11 16  1  0  0  0  0
 12 16  2  0  0  0  0
 12 18  1  0  0  0  0
 13 17  1  0  0  0  0
 15 19  1  0  0  0  0
 17 20  1  0  0  0  0
 17 21  2  0  0  0  0
 18 23  2  0  0  0  0
 18 24  1  0  0  0  0
 20 22  2  0  0  0  0
 21 25  1  0  0  0  0
 22 26  1  0  0  0  0
 22 27  1  0  0  0  0
 23 28  1  0  0  0  0
 24 29  2  0  0  0  0
 25 26  2  0  0  0  0
 28 30  2  0  0  0  0
 29 30  1  0  0  0  0
M  END
> <PUBCHEM_COMPOUND_ID_TYPE>
0

> <PUBCHEM_TOTAL_CHARGE>
0

> <PUBCHEM_SUBSTANCE_ID>
310949416

> <PUBCHEM_SUBSTANCE_VERSION>
1

> <PUBCHEM_EXT_DATASOURCE_NAME>
4488

> <PUBCHEM_EXT_DATASOURCE_REGID>
SCHEMBL16127609

> <PUBCHEM_SUBSTANCE_COMMENT>
InChI=1S/C25H22N2O2S/c28-25(26-29)20-8-4-5-17(13-20)15-27-23-10-9-19(18-6-2-1-3-7-18)14-21(23)22-16-30-12-11-24(22)27/h1-10,13-14,29H,11-12,15-16H2,(H,26,28)
InChIKey=BEILYCCDFVBPPL-UHFFFAOYSA-N

> <PUBCHEM_SUBSTANCE_SYNONYM>
SCHEMBL16127609

> <PUBCHEM_XREF_EXT_ID>
SCHEMBL16127609

> <PUBCHEM_EXT_DATASOURCE_URL>
https://www.surechembl.org/

> <PUBCHEM_EXT_SUBSTANCE_URL>
https://www.surechembl.org/chemical/SCHEMBL16127609

> <PUBCHEM_CID_ASSOCIATIONS>
117614867  1

> <PUBCHEM_COORDINATE_TYPE>
1
3

$$$$
