310932954
  -OEChem-07211613022D

 29 31  0     0  0  0  0  0  0999 V2000
    4.0210   -2.1045    0.0000 O   0  0  0  0  0  0  0  0  0  0  0  0
    8.4553   -2.1796    0.0000 O   0  0  0  0  0  0  0  0  0  0  0  0
    9.8833   -3.8331    0.0000 O   0  0  0  0  0  0  0  0  0  0  0  0
    4.8853   -0.9771    0.0000 N   0  0  0  0  0  0  0  0  0  0  0  0
    4.8101   -0.1503    0.0000 N   0  0  0  0  0  0  0  0  0  0  0  0
    6.3133   -0.9771    0.0000 N   0  0  0  0  0  0  0  0  0  0  0  0
    7.7413   -3.4197    0.0000 N   0  0  0  0  0  0  0  0  0  0  0  0
    0.0000   -1.8038    0.0000 N   0  0  0  0  0  0  0  0  0  0  0  0
    3.6076   -0.7140    0.0000 C   0  0  0  0  0  0  0  0  0  0  0  0
    4.1713   -1.3153    0.0000 C   0  0  0  0  0  0  0  0  0  0  0  0
    5.5993   -1.3904    0.0000 C   0  0  0  0  0  0  0  0  0  0  0  0
    2.7809   -0.7892    0.0000 C   0  0  0  0  0  0  0  0  0  0  0  0
    4.0210    0.0000    0.0000 C   0  0  0  0  0  0  0  0  0  0  0  0
    5.5993   -2.1796    0.0000 C   0  0  0  0  0  0  0  0  0  0  0  0
    7.0273   -2.1796    0.0000 C   0  0  0  0  0  0  0  0  0  0  0  0
    2.4427   -1.5407    0.0000 C   0  0  0  0  0  0  0  0  0  0  0  0
    2.2923   -0.1503    0.0000 C   0  0  0  0  0  0  0  0  0  0  0  0
    7.0273   -1.3904    0.0000 C   0  0  0  0  0  0  0  0  0  0  0  0
    6.3133   -2.5930    0.0000 C   0  0  0  0  0  0  0  0  0  0  0  0
    7.7413   -2.5930    0.0000 C   0  0  0  0  0  0  0  0  0  0  0  0
    1.1650   -0.9771    0.0000 C   0  0  0  0  0  0  0  0  0  0  0  0
    1.6535   -1.6535    0.0000 C   0  0  0  0  0  0  0  0  0  0  0  0
    1.5032   -0.2255    0.0000 C   0  0  0  0  0  0  0  0  0  0  0  0
    0.3382   -1.0898    0.0000 C   0  0  0  0  0  0  0  0  0  0  0  0
    8.4553   -3.8331    0.0000 C   0  0  0  0  0  0  0  0  0  0  0  0
    9.1693   -3.4197    0.0000 C   0  0  0  0  0  0  0  0  0  0  0  0
   10.5973   -3.4197    0.0000 C   0  0  0  0  0  0  0  0  0  0  0  0
   11.2737   -3.8331    0.0000 C   0  0  0  0  0  0  0  0  0  0  0  0
   10.5973   -2.5930    0.0000 C   0  0  0  0  0  0  0  0  0  0  0  0
  1 10  1  0  0  0  0
  2 20  2  0  0  0  0
  3 26  1  0  0  0  0
  3 27  1  0  0  0  0
  4  5  1  0  0  0  0
  4 10  1  0  0  0  0
  4 11  1  0  0  0  0
  5 13  2  0  0  0  0
  6 11  2  0  0  0  0
  6 18  1  0  0  0  0
  7 20  1  0  0  0  0
  7 25  1  0  0  0  0
  8 24  3  0  0  0  0
  9 10  2  0  0  0  0
  9 12  1  0  0  0  0
  9 13  1  0  0  0  0
 11 14  1  0  0  0  0
 12 16  2  0  0  0  0
 12 17  1  0  0  0  0
 14 19  2  0  0  0  0
 15 18  2  0  0  0  0
 15 19  1  0  0  0  0
 15 20  1  0  0  0  0
 16 22  1  0  0  0  0
 17 23  2  0  0  0  0
 21 22  2  0  0  0  0
 21 23  1  0  0  0  0
 21 24  1  0  0  0  0
 25 26  1  0  0  0  0
 27 28  1  0  0  0  0
 27 29  1  0  0  0  0
M  END
> <PUBCHEM_COMPOUND_ID_TYPE>
0

> <PUBCHEM_TOTAL_CHARGE>
0

> <PUBCHEM_SUBSTANCE_ID>
310932954

> <PUBCHEM_SUBSTANCE_VERSION>
1

> <PUBCHEM_EXT_DATASOURCE_NAME>
4488

> <PUBCHEM_EXT_DATASOURCE_REGID>
SCHEMBL16110350

> <PUBCHEM_SUBSTANCE_COMMENT>
InChI=1S/C21H21N5O3/c1-14(2)29-10-9-23-20(27)17-7-8-19(24-12-17)26-21(28)18(13-25-26)16-5-3-15(11-22)4-6-16/h3-8,12-14,28H,9-10H2,1-2H3,(H,23,27)
InChIKey=PKRHJWUVZCXCTH-UHFFFAOYSA-N

> <PUBCHEM_SUBSTANCE_SYNONYM>
SCHEMBL16110350

> <PUBCHEM_XREF_EXT_ID>
SCHEMBL16110350

> <PUBCHEM_EXT_DATASOURCE_URL>
https://www.surechembl.org/

> <PUBCHEM_EXT_SUBSTANCE_URL>
https://www.surechembl.org/chemical/SCHEMBL16110350

> <PUBCHEM_CID_ASSOCIATIONS>
117601431  1

> <PUBCHEM_COORDINATE_TYPE>
1
3

$$$$
