310932355
  -OEChem-07211613022D

 28 30  0     0  0  0  0  0  0999 V2000
    2.8538   -2.1245    0.0000 O   0  0  0  0  0  0  0  0  0  0  0  0
    0.1268   -2.3781    0.0000 O   0  0  0  0  0  0  0  0  0  0  0  0
    7.3564   -2.2196    0.0000 O   0  0  0  0  0  0  0  0  0  0  0  0
    3.7733   -0.9830    0.0000 N   0  0  0  0  0  0  0  0  0  0  0  0
    3.6781   -0.1585    0.0000 N   0  0  0  0  0  0  0  0  0  0  0  0
    5.2002   -0.9830    0.0000 N   0  0  0  0  0  0  0  0  0  0  0  0
    0.0000   -0.9830    0.0000 N   0  0  0  0  0  0  0  0  0  0  0  0
    6.6588   -3.4562    0.0000 N   0  0  0  0  0  0  0  0  0  0  0  0
    8.0856   -5.9294    0.0000 N   0  0  0  0  0  0  0  0  0  0  0  0
    2.4415   -0.6976    0.0000 C   0  0  0  0  0  0  0  0  0  0  0  0
    3.0123   -1.3000    0.0000 C   0  0  0  0  0  0  0  0  0  0  0  0
    4.4709   -1.3951    0.0000 C   0  0  0  0  0  0  0  0  0  0  0  0
    1.6488   -0.7927    0.0000 C   0  0  0  0  0  0  0  0  0  0  0  0
    2.8538    0.0000    0.0000 C   0  0  0  0  0  0  0  0  0  0  0  0
    4.4709   -2.2196    0.0000 C   0  0  0  0  0  0  0  0  0  0  0  0
    1.3000   -1.5854    0.0000 C   0  0  0  0  0  0  0  0  0  0  0  0
    5.9294   -2.2196    0.0000 C   0  0  0  0  0  0  0  0  0  0  0  0
    1.1732   -0.1585    0.0000 C   0  0  0  0  0  0  0  0  0  0  0  0
    0.4756   -1.6171    0.0000 C   0  0  0  0  0  0  0  0  0  0  0  0
    5.9294   -1.3951    0.0000 C   0  0  0  0  0  0  0  0  0  0  0  0
    5.2002   -2.6318    0.0000 C   0  0  0  0  0  0  0  0  0  0  0  0
    6.6588   -2.6318    0.0000 C   0  0  0  0  0  0  0  0  0  0  0  0
    0.3171   -0.1902    0.0000 C   0  0  0  0  0  0  0  0  0  0  0  0
    7.3564   -3.8684    0.0000 C   0  0  0  0  0  0  0  0  0  0  0  0
    0.6025   -3.0440    0.0000 C   0  0  0  0  0  0  0  0  0  0  0  0
    7.3881   -4.6928    0.0000 C   0  0  0  0  0  0  0  0  0  0  0  0
    8.0856   -5.1051    0.0000 C   0  0  0  0  0  0  0  0  0  0  0  0
    8.8149   -6.3417    0.0000 C   0  0  0  0  0  0  0  0  0  0  0  0
  1 11  1  0  0  0  0
  2 19  1  0  0  0  0
  2 25  1  0  0  0  0
  3 22  2  0  0  0  0
  4  5  1  0  0  0  0
  4 11  1  0  0  0  0
  4 12  1  0  0  0  0
  5 14  2  0  0  0  0
  6 12  2  0  0  0  0
  6 20  1  0  0  0  0
  7 19  1  0  0  0  0
  7 23  2  0  0  0  0
  8 22  1  0  0  0  0
  8 24  1  0  0  0  0
  9 27  1  0  0  0  0
  9 28  1  0  0  0  0
 10 11  2  0  0  0  0
 10 13  1  0  0  0  0
 10 14  1  0  0  0  0
 12 15  1  0  0  0  0
 13 16  1  0  0  0  0
 13 18  2  0  0  0  0
 15 21  2  0  0  0  0
 16 19  2  0  0  0  0
 17 20  2  0  0  0  0
 17 21  1  0  0  0  0
 17 22  1  0  0  0  0
 18 23  1  0  0  0  0
 24 26  1  0  0  0  0
 26 27  1  0  0  0  0
M  END
> <PUBCHEM_COMPOUND_ID_TYPE>
0

> <PUBCHEM_TOTAL_CHARGE>
0

> <PUBCHEM_SUBSTANCE_ID>
310932355

> <PUBCHEM_SUBSTANCE_VERSION>
1

> <PUBCHEM_EXT_DATASOURCE_NAME>
4488

> <PUBCHEM_EXT_DATASOURCE_REGID>
SCHEMBL16109721

> <PUBCHEM_SUBSTANCE_COMMENT>
InChI=1S/C19H22N6O3/c1-20-7-3-8-22-18(26)14-4-5-16(23-11-14)25-19(27)15(12-24-25)13-6-9-21-17(10-13)28-2/h4-6,9-12,20,27H,3,7-8H2,1-2H3,(H,22,26)
InChIKey=PFRXJBUAMXGFNM-UHFFFAOYSA-N

> <PUBCHEM_SUBSTANCE_SYNONYM>
SCHEMBL16109721

> <PUBCHEM_XREF_EXT_ID>
SCHEMBL16109721

> <PUBCHEM_EXT_DATASOURCE_URL>
https://www.surechembl.org/

> <PUBCHEM_EXT_SUBSTANCE_URL>
https://www.surechembl.org/chemical/SCHEMBL16109721

> <PUBCHEM_CID_ASSOCIATIONS>
117600911  1

> <PUBCHEM_COORDINATE_TYPE>
1
3

$$$$
