310944870
  -OEChem-07211613022D

 31 34  0     0  0  0  0  0  0999 V2000
    0.3510    2.5451    0.0000 Cl  0  0  0  0  0  0  0  0  0  0  0  0
   -2.9664   -1.2287    0.0000 S   0  0  0  0  0  0  0  0  0  0  0  0
    3.4929    2.5451    0.0000 F   0  0  0  0  0  0  0  0  0  0  0  0
    3.5104   -2.3695    0.0000 O   0  0  0  0  0  0  0  0  0  0  0  0
   -3.1068   -2.5451    0.0000 N   0  0  0  0  0  0  0  0  0  0  0  0
    0.6143    0.0702    0.0000 C   0  0  0  0  0  0  0  0  0  0  0  0
    0.6319    0.8952    0.0000 C   0  0  0  0  0  0  0  0  0  0  0  0
   -0.0702   -0.3335    0.0000 C   0  0  0  0  0  0  0  0  0  0  0  0
    1.3516    1.2988    0.0000 C   0  0  0  0  0  0  0  0  0  0  0  0
    1.3516   -0.3510    0.0000 C   0  0  0  0  0  0  0  0  0  0  0  0
    1.3516    2.1238    0.0000 C   0  0  0  0  0  0  0  0  0  0  0  0
   -0.8074    0.0526    0.0000 C   0  0  0  0  0  0  0  0  0  0  0  0
   -0.0878   -1.1584    0.0000 C   0  0  0  0  0  0  0  0  0  0  0  0
   -1.5095   -1.1584    0.0000 C   0  0  0  0  0  0  0  0  0  0  0  0
    2.0536    0.8952    0.0000 C   0  0  0  0  0  0  0  0  0  0  0  0
   -0.0878    1.2813    0.0000 C   0  0  0  0  0  0  0  0  0  0  0  0
    1.3516   -1.1760    0.0000 C   0  0  0  0  0  0  0  0  0  0  0  0
    2.0361    0.0526    0.0000 C   0  0  0  0  0  0  0  0  0  0  0  0
   -1.4919   -0.3510    0.0000 C   0  0  0  0  0  0  0  0  0  0  0  0
   -0.7899   -1.5621    0.0000 C   0  0  0  0  0  0  0  0  0  0  0  0
   -2.2116   -1.5621    0.0000 C   0  0  0  0  0  0  0  0  0  0  0  0
    2.0361    2.5100    0.0000 C   0  0  0  0  0  0  0  0  0  0  0  0
    2.7733    2.1238    0.0000 C   0  0  0  0  0  0  0  0  0  0  0  0
    2.7557    1.2813    0.0000 C   0  0  0  0  0  0  0  0  0  0  0  0
    2.7733   -1.1584    0.0000 C   0  0  0  0  0  0  0  0  0  0  0  0
    2.0536   -1.5621    0.0000 C   0  0  0  0  0  0  0  0  0  0  0  0
    2.7557   -0.3510    0.0000 C   0  0  0  0  0  0  0  0  0  0  0  0
   -2.3169   -2.3871    0.0000 C   0  0  0  0  0  0  0  0  0  0  0  0
   -0.8074    0.8952    0.0000 C   0  0  0  0  0  0  0  0  0  0  0  0
   -3.5104   -1.8430    0.0000 C   0  0  0  0  0  0  0  0  0  0  0  0
    3.4929   -1.5621    0.0000 C   0  0  0  0  0  0  0  0  0  0  0  0
  1 11  1  0  0  0  0
  2 21  1  0  0  0  0
  2 30  1  0  0  0  0
  3 23  1  0  0  0  0
  4 31  2  0  0  0  0
  5 28  1  0  0  0  0
  5 30  2  0  0  0  0
  6  7  2  0  0  0  0
  6  8  1  0  0  0  0
  6 10  1  0  0  0  0
  7  9  1  0  0  0  0
  7 16  1  0  0  0  0
  8 12  2  0  0  0  0
  8 13  1  0  0  0  0
  9 11  1  0  0  0  0
  9 15  2  0  0  0  0
 10 17  2  0  0  0  0
 10 18  1  0  0  0  0
 11 22  2  0  0  0  0
 12 19  1  0  0  0  0
 13 20  2  0  0  0  0
 14 19  2  0  0  0  0
 14 20  1  0  0  0  0
 14 21  1  0  0  0  0
 15 24  1  0  0  0  0
 16 29  1  0  0  0  0
 17 26  1  0  0  0  0
 18 27  2  0  0  0  0
 21 28  2  0  0  0  0
 22 23  1  0  0  0  0
 23 24  2  0  0  0  0
 25 26  2  0  0  0  0
 25 27  1  0  0  0  0
 25 31  1  0  0  0  0
M  END
> <PUBCHEM_COMPOUND_ID_TYPE>
0

> <PUBCHEM_TOTAL_CHARGE>
0

> <PUBCHEM_SUBSTANCE_ID>
310944870

> <PUBCHEM_SUBSTANCE_VERSION>
1

> <PUBCHEM_EXT_DATASOURCE_NAME>
4488

> <PUBCHEM_EXT_DATASOURCE_REGID>
SCHEMBL16122954

> <PUBCHEM_SUBSTANCE_COMMENT>
InChI=1S/C26H19ClFNOS/c1-2-22(23-12-11-21(28)13-24(23)27)26(19-5-3-17(15-30)4-6-19)20-9-7-18(8-10-20)25-14-29-16-31-25/h3-16H,2H2,1H3/b26-22+
InChIKey=WONWQNXYEXLAKO-XTCLZLMSSA-N

> <PUBCHEM_SUBSTANCE_SYNONYM>
SCHEMBL16122954

> <PUBCHEM_XREF_EXT_ID>
SCHEMBL16122954

> <PUBCHEM_EXT_DATASOURCE_URL>
https://www.surechembl.org/

> <PUBCHEM_EXT_SUBSTANCE_URL>
https://www.surechembl.org/chemical/SCHEMBL16122954

> <PUBCHEM_CID_ASSOCIATIONS>
117611065  1

> <PUBCHEM_COORDINATE_TYPE>
1
3

$$$$
