310941501
  -OEChem-07211613022D

 25 28  0     0  0  0  0  0  0999 V2000
    0.3077    1.6263    0.0000 S   0  0  0  0  0  0  0  0  0  0  0  0
   -2.0366   -1.0403    0.0000 O   0  0  0  0  0  0  0  0  0  0  0  0
   -0.5861   -1.0403    0.0000 O   0  0  0  0  0  0  0  0  0  0  0  0
    3.2087    0.6447    0.0000 O   0  0  0  0  0  0  0  0  0  0  0  0
   -3.5458   -0.8791    0.0000 N   0  0  0  0  0  0  0  0  0  0  0  0
    0.1612    0.2784    0.0000 N   0  0  0  0  0  0  0  0  0  0  0  0
   -3.5458    0.4689    0.0000 N   0  0  0  0  0  0  0  0  0  0  0  0
    1.5531    0.8059    0.0000 N   0  0  0  0  0  0  0  0  0  0  0  0
   -1.3187    0.2198    0.0000 C   0  0  0  0  0  0  0  0  0  0  0  0
   -2.7545   -0.6154    0.0000 C   0  0  0  0  0  0  0  0  0  0  0  0
   -2.7399    0.2052    0.0000 C   0  0  0  0  0  0  0  0  0  0  0  0
   -0.6154    0.6154    0.0000 C   0  0  0  0  0  0  0  0  0  0  0  0
   -1.3479   -0.6007    0.0000 C   0  0  0  0  0  0  0  0  0  0  0  0
   -2.0660    0.6154    0.0000 C   0  0  0  0  0  0  0  0  0  0  0  0
    0.7179    0.9084    0.0000 C   0  0  0  0  0  0  0  0  0  0  0  0
   -0.4982    1.4506    0.0000 C   0  0  0  0  0  0  0  0  0  0  0  0
   -4.0293   -0.2344    0.0000 C   0  0  0  0  0  0  0  0  0  0  0  0
    1.8901    0.0440    0.0000 C   0  0  0  0  0  0  0  0  0  0  0  0
    2.7106   -0.0293    0.0000 C   0  0  0  0  0  0  0  0  0  0  0  0
   -3.8534   -1.6263    0.0000 C   0  0  0  0  0  0  0  0  0  0  0  0
    1.4213   -0.6007    0.0000 C   0  0  0  0  0  0  0  0  0  0  0  0
    3.0476   -0.7912    0.0000 C   0  0  0  0  0  0  0  0  0  0  0  0
    1.7436   -1.3626    0.0000 C   0  0  0  0  0  0  0  0  0  0  0  0
    2.5640   -1.4506    0.0000 C   0  0  0  0  0  0  0  0  0  0  0  0
    4.0293    0.5567    0.0000 C   0  0  0  0  0  0  0  0  0  0  0  0
  1 15  1  0  0  0  0
  1 16  1  0  0  0  0
  2 10  1  0  0  0  0
  2 13  1  0  0  0  0
  3 13  2  0  0  0  0
  4 19  1  0  0  0  0
  4 25  1  0  0  0  0
  5 10  1  0  0  0  0
  5 17  1  0  0  0  0
  5 20  1  0  0  0  0
  6 12  1  0  0  0  0
  6 15  2  0  0  0  0
  7 11  1  0  0  0  0
  7 17  2  0  0  0  0
  8 15  1  0  0  0  0
  8 18  1  0  0  0  0
  9 12  1  0  0  0  0
  9 13  1  0  0  0  0
  9 14  2  0  0  0  0
 10 11  2  0  0  0  0
 11 14  1  0  0  0  0
 12 16  2  0  0  0  0
 18 19  1  0  0  0  0
 18 21  2  0  0  0  0
 19 22  2  0  0  0  0
 21 23  1  0  0  0  0
 22 24  1  0  0  0  0
 23 24  2  0  0  0  0
M  END
> <PUBCHEM_COMPOUND_ID_TYPE>
0

> <PUBCHEM_TOTAL_CHARGE>
0

> <PUBCHEM_SUBSTANCE_ID>
310941501

> <PUBCHEM_SUBSTANCE_VERSION>
1

> <PUBCHEM_EXT_DATASOURCE_NAME>
4488

> <PUBCHEM_EXT_DATASOURCE_REGID>
SCHEMBL16119532

> <PUBCHEM_SUBSTANCE_COMMENT>
InChI=1S/C17H14N4O3S/c1-21-9-18-12-7-10(16(22)24-15(12)21)13-8-25-17(20-13)19-11-5-3-4-6-14(11)23-2/h3-9H,1-2H3,(H,19,20)
InChIKey=LQWYCCCGRGECFI-UHFFFAOYSA-N

> <PUBCHEM_SUBSTANCE_SYNONYM>
SCHEMBL16119532

> <PUBCHEM_XREF_EXT_ID>
SCHEMBL16119532

> <PUBCHEM_EXT_DATASOURCE_URL>
https://www.surechembl.org/

> <PUBCHEM_EXT_SUBSTANCE_URL>
https://www.surechembl.org/chemical/SCHEMBL16119532

> <PUBCHEM_CID_ASSOCIATIONS>
117608321  1

> <PUBCHEM_COORDINATE_TYPE>
1
3

$$$$
