310929170
  -OEChem-07211613022D

 55 59  0     0  0  0  0  0  0999 V2000
    8.0554   -6.2106    0.0000 O   0  0  0  0  0  0  0  0  0  0  0  0
   11.6834   -3.3205    0.0000 O   0  0  0  0  0  0  0  0  0  0  0  0
   11.6834    0.0000    0.0000 O   0  0  0  0  0  0  0  0  0  0  0  0
    3.6894   -8.5473    0.0000 O   0  0  0  0  0  0  0  0  0  0  0  0
    5.2268   -6.0876    0.0000 O   0  0  0  0  0  0  0  0  0  0  0  0
    4.3659  -10.6380    0.0000 O   0  0  0  0  0  0  0  0  0  0  0  0
    2.8901  -12.2982    0.0000 O   0  0  0  0  0  0  0  0  0  0  0  0
    0.7379  -11.8063    0.0000 O   0  0  0  0  0  0  0  0  0  0  0  0
   11.0069   -4.5504    0.0000 N   0  0  0  0  0  0  0  0  0  0  0  0
   10.2690   -3.3205    0.0000 N   0  0  0  0  0  0  0  0  0  0  0  0
    7.3790   -7.4404    0.0000 N   0  0  0  0  0  0  0  0  0  0  0  0
    6.5795   -8.6703    0.0000 N   0  0  0  0  0  0  0  0  0  0  0  0
    7.9938   -8.6703    0.0000 N   0  0  0  0  0  0  0  0  0  0  0  0
   12.4212   -1.2298    0.0000 N   0  0  0  0  0  0  0  0  0  0  0  0
    8.8547   -4.9808    0.0000 C   0  0  0  0  0  0  0  0  0  0  0  0
    9.5312   -4.5504    0.0000 C   0  0  0  0  0  0  0  0  0  0  0  0
    8.7933   -5.7802    0.0000 C   0  0  0  0  0  0  0  0  0  0  0  0
   10.2690   -4.9808    0.0000 C   0  0  0  0  0  0  0  0  0  0  0  0
    9.5312   -6.2106    0.0000 C   0  0  0  0  0  0  0  0  0  0  0  0
   10.2690   -5.8416    0.0000 C   0  0  0  0  0  0  0  0  0  0  0  0
    8.1169   -4.5504    0.0000 C   0  0  0  0  0  0  0  0  0  0  0  0
    9.5926   -3.7510    0.0000 C   0  0  0  0  0  0  0  0  0  0  0  0
    9.5312   -1.2298    0.0000 C   0  0  0  0  0  0  0  0  0  0  0  0
    8.0554   -7.0100    0.0000 C   0  0  0  0  0  0  0  0  0  0  0  0
   10.2690   -2.5211    0.0000 C   0  0  0  0  0  0  0  0  0  0  0  0
   11.0069   -3.7510    0.0000 C   0  0  0  0  0  0  0  0  0  0  0  0
   11.0069   -1.2298    0.0000 C   0  0  0  0  0  0  0  0  0  0  0  0
    8.7933   -0.8609    0.0000 C   0  0  0  0  0  0  0  0  0  0  0  0
    9.5312   -2.0907    0.0000 C   0  0  0  0  0  0  0  0  0  0  0  0
    8.1169   -3.7510    0.0000 C   0  0  0  0  0  0  0  0  0  0  0  0
    8.8547   -3.3205    0.0000 C   0  0  0  0  0  0  0  0  0  0  0  0
   10.2690   -0.8609    0.0000 C   0  0  0  0  0  0  0  0  0  0  0  0
   11.0069   -2.0907    0.0000 C   0  0  0  0  0  0  0  0  0  0  0  0
    7.3174   -8.2398    0.0000 C   0  0  0  0  0  0  0  0  0  0  0  0
    8.7933   -7.4404    0.0000 C   0  0  0  0  0  0  0  0  0  0  0  0
   11.6834   -0.8609    0.0000 C   0  0  0  0  0  0  0  0  0  0  0  0
    5.8416   -8.1783    0.0000 C   0  0  0  0  0  0  0  0  0  0  0  0
    8.7317   -8.3013    0.0000 C   0  0  0  0  0  0  0  0  0  0  0  0
    4.4273   -8.1783    0.0000 C   0  0  0  0  0  0  0  0  0  0  0  0
    5.1038   -8.6088    0.0000 C   0  0  0  0  0  0  0  0  0  0  0  0
    5.9032   -7.3790    0.0000 C   0  0  0  0  0  0  0  0  0  0  0  0
    5.2268   -6.9485    0.0000 C   0  0  0  0  0  0  0  0  0  0  0  0
    9.2237   -0.1230    0.0000 C   0  0  0  0  0  0  0  0  0  0  0  0
    8.1169   -0.4305    0.0000 C   0  0  0  0  0  0  0  0  0  0  0  0
    8.4243   -1.5373    0.0000 C   0  0  0  0  0  0  0  0  0  0  0  0
    4.4889   -7.3174    0.0000 C   0  0  0  0  0  0  0  0  0  0  0  0
    3.6280   -9.4081    0.0000 C   0  0  0  0  0  0  0  0  0  0  0  0
   13.1591   -0.8609    0.0000 C   0  0  0  0  0  0  0  0  0  0  0  0
    4.4889   -5.6572    0.0000 C   0  0  0  0  0  0  0  0  0  0  0  0
    4.3659   -9.8386    0.0000 C   0  0  0  0  0  0  0  0  0  0  0  0
    3.6280  -11.0684    0.0000 C   0  0  0  0  0  0  0  0  0  0  0  0
    3.6280  -11.8678    0.0000 C   0  0  0  0  0  0  0  0  0  0  0  0
    2.1522  -11.8678    0.0000 C   0  0  0  0  0  0  0  0  0  0  0  0
    1.4143  -12.2368    0.0000 C   0  0  0  0  0  0  0  0  0  0  0  0
    0.0000  -12.2368    0.0000 C   0  0  0  0  0  0  0  0  0  0  0  0
  1 17  1  0  0  0  0
  1 24  1  0  0  0  0
  2 26  2  0  0  0  0
  3 36  2  0  0  0  0
  4 39  1  0  0  0  0
  4 47  1  0  0  0  0
  5 42  1  0  0  0  0
  5 49  1  0  0  0  0
  6 50  1  0  0  0  0
  6 51  1  0  0  0  0
  7 52  1  0  0  0  0
  7 53  1  0  0  0  0
  8 54  1  0  0  0  0
  8 55  1  0  0  0  0
  9 18  1  0  0  0  0
  9 26  1  0  0  0  0
 10 25  1  0  0  0  0
 10 26  1  0  0  0  0
 11 24  2  0  0  0  0
 11 34  1  0  0  0  0
 12 34  1  0  0  0  0
 12 37  1  0  0  0  0
 13 34  2  0  0  0  0
 13 38  1  0  0  0  0
 14 36  1  0  0  0  0
 14 48  1  0  0  0  0
 15 16  2  0  0  0  0
 15 17  1  0  0  0  0
 15 21  1  0  0  0  0
 16 18  1  0  0  0  0
 16 22  1  0  0  0  0
 17 19  2  0  0  0  0
 18 20  2  0  0  0  0
 19 20  1  0  0  0  0
 21 30  2  0  0  0  0
 22 31  2  0  0  0  0
 23 28  1  0  0  0  0
 23 29  2  0  0  0  0
 23 32  1  0  0  0  0
 24 35  1  0  0  0  0
 25 29  1  0  0  0  0
 25 33  2  0  0  0  0
 27 32  2  0  0  0  0
 27 33  1  0  0  0  0
 27 36  1  0  0  0  0
 28 43  1  0  0  0  0
 28 44  1  0  0  0  0
 28 45  1  0  0  0  0
 30 31  1  0  0  0  0
 35 38  2  0  0  0  0
 37 40  2  0  0  0  0
 37 41  1  0  0  0  0
 39 40  1  0  0  0  0
 39 46  2  0  0  0  0
 41 42  2  0  0  0  0
 42 46  1  0  0  0  0
 47 50  1  0  0  0  0
 51 52  1  0  0  0  0
 53 54  1  0  0  0  0
M  END
> <PUBCHEM_COMPOUND_ID_TYPE>
0

> <PUBCHEM_TOTAL_CHARGE>
0

> <PUBCHEM_SUBSTANCE_ID>
310929170

> <PUBCHEM_SUBSTANCE_VERSION>
1

> <PUBCHEM_EXT_DATASOURCE_NAME>
4488

> <PUBCHEM_EXT_DATASOURCE_REGID>
SCHEMBL16106333

> <PUBCHEM_SUBSTANCE_COMMENT>
InChI=1S/C41H48N6O8/c1-41(2,3)28-21-27(38(48)42-4)22-29(23-28)45-40(49)46-35-11-12-36(34-10-8-7-9-33(34)35)55-37-13-14-43-39(47-37)44-30-24-31(51-6)26-32(25-30)54-20-19-53-18-17-52-16-15-50-5/h7-14,21-26H,15-20H2,1-6H3,(H,42,48)(H,43,44,47)(H2,45,46,49)
InChIKey=KADSTJJZALTROR-UHFFFAOYSA-N

> <PUBCHEM_SUBSTANCE_SYNONYM>
SCHEMBL16106333

> <PUBCHEM_XREF_EXT_ID>
SCHEMBL16106333

> <PUBCHEM_EXT_DATASOURCE_URL>
https://www.surechembl.org/

> <PUBCHEM_EXT_SUBSTANCE_URL>
https://www.surechembl.org/chemical/SCHEMBL16106333

> <PUBCHEM_CID_ASSOCIATIONS>
117598629  1

> <PUBCHEM_COORDINATE_TYPE>
1
3

$$$$
