310937800
  -OEChem-07211613022D

 14 14  0     0  0  0  0  0  0999 V2000
    2.1389   -2.8417    0.0000 N   0  0  0  0  0  0  0  0  0  0  0  0
    2.1389   -1.2222    0.0000 N   0  0  0  0  0  0  0  0  0  0  0  0
    2.8417   -2.4444    0.0000 C   0  0  0  0  0  0  0  0  0  0  0  0
    1.4361   -2.4444    0.0000 C   0  0  0  0  0  0  0  0  0  0  0  0
    1.4361   -1.6194    0.0000 C   0  0  0  0  0  0  0  0  0  0  0  0
    2.8417   -1.6194    0.0000 C   0  0  0  0  0  0  0  0  0  0  0  0
    2.1389   -3.6667    0.0000 C   0  0  0  0  0  0  0  0  0  0  0  0
    2.1389   -0.3972    0.0000 C   0  0  0  0  0  0  0  0  0  0  0  0
    1.4056   -4.0944    0.0000 C   0  0  0  0  0  0  0  0  0  0  0  0
    1.4361   -4.8889    0.0000 C   0  0  0  0  0  0  0  0  0  0  0  0
    0.7333   -5.3166    0.0000 C   0  0  0  0  0  0  0  0  0  0  0  0
    1.4056    0.0000    0.0000 C   0  0  0  0  0  0  0  0  0  0  0  0
    0.7333   -6.1111    0.0000 C   0  0  0  0  0  0  0  0  0  0  0  0
    0.0000   -4.8889    0.0000 C   0  0  0  0  0  0  0  0  0  0  0  0
  1  3  1  0  0  0  0
  1  4  1  0  0  0  0
  1  7  1  0  0  0  0
  2  5  1  0  0  0  0
  2  6  1  0  0  0  0
  2  8  1  0  0  0  0
  3  6  1  0  0  0  0
  4  5  1  0  0  0  0
  7  9  2  0  0  0  0
  8 12  1  0  0  0  0
  9 10  1  0  0  0  0
 10 11  2  0  0  0  0
 11 13  1  0  0  0  0
 11 14  1  0  0  0  0
M  END
> <PUBCHEM_COMPOUND_ID_TYPE>
0

> <PUBCHEM_TOTAL_CHARGE>
0

> <PUBCHEM_SUBSTANCE_ID>
310937800

> <PUBCHEM_SUBSTANCE_VERSION>
1

> <PUBCHEM_EXT_DATASOURCE_NAME>
4488

> <PUBCHEM_EXT_DATASOURCE_REGID>
SCHEMBL16115613

> <PUBCHEM_SUBSTANCE_COMMENT>
InChI=1S/C12H22N2/c1-4-13-8-10-14(11-9-13)7-5-6-12(2)3/h5-7H,4,8-11H2,1-3H3/b7-5+
InChIKey=VGULJBNGGHKBNT-FNORWQNLSA-N

> <PUBCHEM_SUBSTANCE_SYNONYM>
SCHEMBL16115613

> <PUBCHEM_XREF_EXT_ID>
SCHEMBL16115613

> <PUBCHEM_EXT_DATASOURCE_URL>
https://www.surechembl.org/

> <PUBCHEM_EXT_SUBSTANCE_URL>
https://www.surechembl.org/chemical/SCHEMBL16115613

> <PUBCHEM_CID_ASSOCIATIONS>
117605449  1

> <PUBCHEM_COORDINATE_TYPE>
1
3

$$$$
