310930344
  -OEChem-07211613022D

 18 19  0     1  0  0  0  0  0999 V2000
    1.8365    0.0000    0.0000 F   0  0  0  0  0  0  0  0  0  0  0  0
    3.0276   -2.6306    0.0000 F   0  0  0  0  0  0  0  0  0  0  0  0
    1.2905   -1.3649    0.0000 O   0  0  0  0  0  0  0  0  0  0  0  0
    3.3751   -0.8686    0.0000 O   0  0  0  0  0  0  0  0  0  0  0  0
    2.5065   -3.5240    0.0000 O   0  0  0  0  0  0  0  0  0  0  0  0
    0.4963   -1.0423    0.0000 O   0  0  0  0  0  0  0  0  0  0  0  0
    0.0497   -4.9634    0.0000 O   0  0  0  0  0  0  0  0  0  0  0  0
    1.2408   -2.8291    0.0000 N   0  0  0  0  0  0  0  0  0  0  0  0
    1.2408   -4.2437    0.0000 N   0  0  0  0  0  0  0  0  0  0  0  0
    1.9109   -0.8189    0.0000 C   0  0  3  0  0  0  0  0  0  0  0  0
    1.6627   -2.1094    0.0000 C   0  0  3  0  0  0  0  0  0  0  0  0
    2.6306   -1.2161    0.0000 C   0  0  3  0  0  0  0  0  0  0  0  0
    2.4817   -2.0102    0.0000 C   0  0  3  0  0  0  0  0  0  0  0  0
    1.6876   -3.5240    0.0000 C   0  0  0  0  0  0  0  0  0  0  0  0
    1.1416   -0.5212    0.0000 C   0  0  0  0  0  0  0  0  0  0  0  0
    0.4467   -2.8291    0.0000 C   0  0  0  0  0  0  0  0  0  0  0  0
    0.4467   -4.2437    0.0000 C   0  0  0  0  0  0  0  0  0  0  0  0
    0.0000   -3.5240    0.0000 C   0  0  0  0  0  0  0  0  0  0  0  0
 10  1  1  1  0  0  0
 13  2  1  1  0  0  0
  3 10  1  0  0  0  0
 11  3  1  6  0  0  0
 12  4  1  1  0  0  0
  5 14  2  0  0  0  0
  6 15  1  0  0  0  0
  7 17  2  0  0  0  0
  8 11  1  0  0  0  0
  8 14  1  0  0  0  0
  8 16  1  0  0  0  0
  9 14  1  0  0  0  0
  9 17  1  0  0  0  0
 10 12  1  0  0  0  0
 10 15  1  6  0  0  0
 11 13  1  0  0  0  0
 12 13  1  0  0  0  0
 16 18  2  0  0  0  0
 17 18  1  0  0  0  0
M  END
> <PUBCHEM_COMPOUND_ID_TYPE>
0

> <PUBCHEM_TOTAL_CHARGE>
0

> <PUBCHEM_SUBSTANCE_ID>
310930344

> <PUBCHEM_SUBSTANCE_VERSION>
1

> <PUBCHEM_EXT_DATASOURCE_NAME>
4488

> <PUBCHEM_EXT_DATASOURCE_REGID>
SCHEMBL16107628

> <PUBCHEM_SUBSTANCE_COMMENT>
InChI=1S/C9H10F2N2O5/c10-5-6(16)9(11,3-14)18-7(5)13-2-1-4(15)12-8(13)17/h1-2,5-7,14,16H,3H2,(H,12,15,17)/t5-,6+,7-,9-/m1/s1
InChIKey=QMLNPJRBOJRGPS-JVZYCSMKSA-N

> <PUBCHEM_SUBSTANCE_SYNONYM>
SCHEMBL16107628

> <PUBCHEM_XREF_EXT_ID>
SCHEMBL16107628

> <PUBCHEM_EXT_DATASOURCE_URL>
https://www.surechembl.org/

> <PUBCHEM_EXT_SUBSTANCE_URL>
https://www.surechembl.org/chemical/SCHEMBL16107628

> <PUBCHEM_CID_ASSOCIATIONS>
86288420  1

> <PUBCHEM_COORDINATE_TYPE>
1
3

> <PUBCHEM_BONDANNOTATIONS>
10  1  5
10  15  6
13  2  5
11  3  6
12  4  5

$$$$
