310947153
  -OEChem-07211613022D

 24 29  0     0  0  0  0  0  0999 V2000
   -2.3074   -1.8577    0.0000 O   0  0  0  0  0  0  0  0  0  0  0  0
   -3.4807   -1.1732    0.0000 O   0  0  0  0  0  0  0  0  0  0  0  0
    2.9918    0.3911    0.0000 O   0  0  0  0  0  0  0  0  0  0  0  0
    2.9918    1.7404    0.0000 O   0  0  0  0  0  0  0  0  0  0  0  0
    0.0391   -0.6453    0.0000 N   0  0  0  0  0  0  0  0  0  0  0  0
   -0.6844    0.6844    0.0000 C   0  0  0  0  0  0  0  0  0  0  0  0
    0.0391    0.2542    0.0000 C   0  0  0  0  0  0  0  0  0  0  0  0
   -1.4079    0.2347    0.0000 C   0  0  0  0  0  0  0  0  0  0  0  0
    0.7626    0.6844    0.0000 C   0  0  0  0  0  0  0  0  0  0  0  0
   -1.4275   -0.5671    0.0000 C   0  0  0  0  0  0  0  0  0  0  0  0
   -2.1315   -0.9973    0.0000 C   0  0  0  0  0  0  0  0  0  0  0  0
    0.7626    1.5057    0.0000 C   0  0  0  0  0  0  0  0  0  0  0  0
   -2.8549   -0.5866    0.0000 C   0  0  0  0  0  0  0  0  0  0  0  0
    2.1901    0.6844    0.0000 C   0  0  0  0  0  0  0  0  0  0  0  0
   -0.7040   -0.9973    0.0000 C   0  0  0  0  0  0  0  0  0  0  0  0
    1.4666    0.2542    0.0000 C   0  0  0  0  0  0  0  0  0  0  0  0
   -0.6649    1.5057    0.0000 C   0  0  0  0  0  0  0  0  0  0  0  0
    2.2096    1.5057    0.0000 C   0  0  0  0  0  0  0  0  0  0  0  0
   -2.1510    0.6453    0.0000 C   0  0  0  0  0  0  0  0  0  0  0  0
    0.0196    1.8968    0.0000 C   0  0  0  0  0  0  0  0  0  0  0  0
    1.4666    1.8968    0.0000 C   0  0  0  0  0  0  0  0  0  0  0  0
   -2.8354    0.2347    0.0000 C   0  0  0  0  0  0  0  0  0  0  0  0
   -3.1483   -1.8968    0.0000 C   0  0  0  0  0  0  0  0  0  0  0  0
    3.4807    1.1146    0.0000 C   0  0  0  0  0  0  0  0  0  0  0  0
  1 11  1  0  0  0  0
  1 23  1  0  0  0  0
  2 13  1  0  0  0  0
  2 23  1  0  0  0  0
  3 14  1  0  0  0  0
  3 24  1  0  0  0  0
  4 18  1  0  0  0  0
  4 24  1  0  0  0  0
  5  7  1  0  0  0  0
  5 15  2  0  0  0  0
  6  7  2  0  0  0  0
  6  8  1  0  0  0  0
  6 17  1  0  0  0  0
  7  9  1  0  0  0  0
  8 10  1  0  0  0  0
  8 19  2  0  0  0  0
  9 12  2  0  0  0  0
  9 16  1  0  0  0  0
 10 11  2  0  0  0  0
 10 15  1  0  0  0  0
 11 13  1  0  0  0  0
 12 20  1  0  0  0  0
 12 21  1  0  0  0  0
 13 22  2  0  0  0  0
 14 16  2  0  0  0  0
 14 18  1  0  0  0  0
 17 20  1  0  0  0  0
 18 21  2  0  0  0  0
 19 22  1  0  0  0  0
M  END
> <PUBCHEM_COMPOUND_ID_TYPE>
0

> <PUBCHEM_TOTAL_CHARGE>
0

> <PUBCHEM_SUBSTANCE_ID>
310947153

> <PUBCHEM_SUBSTANCE_VERSION>
1

> <PUBCHEM_EXT_DATASOURCE_NAME>
4488

> <PUBCHEM_EXT_DATASOURCE_REGID>
SCHEMBL16125307

> <PUBCHEM_SUBSTANCE_COMMENT>
InChI=1S/C19H13NO4/c1-2-12-11-3-4-15-19(24-9-21-15)14(11)7-20-18(12)13-6-17-16(5-10(1)13)22-8-23-17/h3-7H,1-2,8-9H2
InChIKey=GWADYVWMNDVGOV-UHFFFAOYSA-N

> <PUBCHEM_SUBSTANCE_SYNONYM>
SCHEMBL16125307

> <PUBCHEM_XREF_EXT_ID>
SCHEMBL16125307

> <PUBCHEM_EXT_DATASOURCE_URL>
https://www.surechembl.org/

> <PUBCHEM_EXT_SUBSTANCE_URL>
https://www.surechembl.org/chemical/SCHEMBL16125307

> <PUBCHEM_CID_ASSOCIATIONS>
117612986  1

> <PUBCHEM_COORDINATE_TYPE>
1
3

$$$$
