310949267
  -OEChem-07211613022D

 43 48  0     0  0  0  0  0  0999 V2000
   -0.0530   -0.1988    0.0000 N   0  0  0  0  0  0  0  0  0  0  0  0
   -2.2136   -0.6628    0.0000 N   0  0  0  0  0  0  0  0  0  0  0  0
    2.1076   -0.6893    0.0000 N   0  0  0  0  0  0  0  0  0  0  0  0
   -0.0663   -1.0074    0.0000 C   0  0  0  0  0  0  0  0  0  0  0  0
    0.6230    0.3182    0.0000 C   0  0  0  0  0  0  0  0  0  0  0  0
   -0.7555    0.3049    0.0000 C   0  0  0  0  0  0  0  0  0  0  0  0
   -0.4904    1.1002    0.0000 C   0  0  0  0  0  0  0  0  0  0  0  0
    0.3579    1.0604    0.0000 C   0  0  0  0  0  0  0  0  0  0  0  0
   -0.7821   -1.4183    0.0000 C   0  0  0  0  0  0  0  0  0  0  0  0
    0.6760   -1.4316    0.0000 C   0  0  0  0  0  0  0  0  0  0  0  0
   -0.8086   -2.2401    0.0000 C   0  0  0  0  0  0  0  0  0  0  0  0
    0.6628   -2.2534    0.0000 C   0  0  0  0  0  0  0  0  0  0  0  0
   -1.0604    1.6967    0.0000 C   0  0  0  0  0  0  0  0  0  0  0  0
    0.9146    1.6702    0.0000 C   0  0  0  0  0  0  0  0  0  0  0  0
    1.4448    0.1326    0.0000 C   0  0  0  0  0  0  0  0  0  0  0  0
   -1.5641    0.1458    0.0000 C   0  0  0  0  0  0  0  0  0  0  0  0
   -0.0795   -2.6378    0.0000 C   0  0  0  0  0  0  0  0  0  0  0  0
   -1.5243   -2.6378    0.0000 C   0  0  0  0  0  0  0  0  0  0  0  0
    1.3918   -2.6775    0.0000 C   0  0  0  0  0  0  0  0  0  0  0  0
   -1.8557    1.5243    0.0000 C   0  0  0  0  0  0  0  0  0  0  0  0
    1.7497    1.5111    0.0000 C   0  0  0  0  0  0  0  0  0  0  0  0
    2.0015    0.7158    0.0000 C   0  0  0  0  0  0  0  0  0  0  0  0
   -2.0811    0.7423    0.0000 C   0  0  0  0  0  0  0  0  0  0  0  0
   -1.5111   -1.0207    0.0000 C   0  0  0  0  0  0  0  0  0  0  0  0
    1.3918   -1.0471    0.0000 C   0  0  0  0  0  0  0  0  0  0  0  0
   -2.3992    2.1606    0.0000 C   0  0  0  0  0  0  0  0  0  0  0  0
    2.3197    2.1341    0.0000 C   0  0  0  0  0  0  0  0  0  0  0  0
   -1.5243   -3.4861    0.0000 C   0  0  0  0  0  0  0  0  0  0  0  0
   -2.2003   -2.2401    0.0000 C   0  0  0  0  0  0  0  0  0  0  0  0
   -1.7364   -1.8557    0.0000 C   0  0  0  0  0  0  0  0  0  0  0  0
    0.8086   -3.2476    0.0000 C   0  0  0  0  0  0  0  0  0  0  0  0
    2.1341   -2.2666    0.0000 C   0  0  0  0  0  0  0  0  0  0  0  0
    1.4051   -3.4994    0.0000 C   0  0  0  0  0  0  0  0  0  0  0  0
   -2.1474    2.9426    0.0000 C   0  0  0  0  0  0  0  0  0  0  0  0
    3.1282    1.9618    0.0000 C   0  0  0  0  0  0  0  0  0  0  0  0
   -3.1680    1.9883    0.0000 C   0  0  0  0  0  0  0  0  0  0  0  0
    2.0413    2.8896    0.0000 C   0  0  0  0  0  0  0  0  0  0  0  0
   -2.6511    3.4994    0.0000 C   0  0  0  0  0  0  0  0  0  0  0  0
    3.6982    2.5583    0.0000 C   0  0  0  0  0  0  0  0  0  0  0  0
   -3.6982    2.5450    0.0000 C   0  0  0  0  0  0  0  0  0  0  0  0
    2.6112    3.4861    0.0000 C   0  0  0  0  0  0  0  0  0  0  0  0
   -3.4596    3.3536    0.0000 C   0  0  0  0  0  0  0  0  0  0  0  0
    3.4198    3.3403    0.0000 C   0  0  0  0  0  0  0  0  0  0  0  0
  1  4  1  0  0  0  0
  1  5  1  0  0  0  0
  1  6  1  0  0  0  0
  2 24  3  0  0  0  0
  3 25  3  0  0  0  0
  4  9  1  0  0  0  0
  4 10  2  0  0  0  0
  5  8  2  0  0  0  0
  5 15  1  0  0  0  0
  6  7  2  0  0  0  0
  6 16  1  0  0  0  0
  7  8  1  0  0  0  0
  7 13  1  0  0  0  0
  8 14  1  0  0  0  0
  9 11  2  0  0  0  0
  9 24  1  0  0  0  0
 10 12  1  0  0  0  0
 10 25  1  0  0  0  0
 11 17  1  0  0  0  0
 11 18  1  0  0  0  0
 12 17  2  0  0  0  0
 12 19  1  0  0  0  0
 13 20  2  0  0  0  0
 14 21  2  0  0  0  0
 15 22  2  0  0  0  0
 16 23  2  0  0  0  0
 18 28  1  0  0  0  0
 18 29  1  0  0  0  0
 18 30  1  0  0  0  0
 19 31  1  0  0  0  0
 19 32  1  0  0  0  0
 19 33  1  0  0  0  0
 20 23  1  0  0  0  0
 20 26  1  0  0  0  0
 21 22  1  0  0  0  0
 21 27  1  0  0  0  0
 26 34  2  0  0  0  0
 26 36  1  0  0  0  0
 27 35  2  0  0  0  0
 27 37  1  0  0  0  0
 34 38  1  0  0  0  0
 35 39  1  0  0  0  0
 36 40  2  0  0  0  0
 37 41  2  0  0  0  0
 38 42  2  0  0  0  0
 39 43  2  0  0  0  0
 40 42  1  0  0  0  0
 41 43  1  0  0  0  0
M  END
> <PUBCHEM_COMPOUND_ID_TYPE>
0

> <PUBCHEM_TOTAL_CHARGE>
0

> <PUBCHEM_SUBSTANCE_ID>
310949267

> <PUBCHEM_SUBSTANCE_VERSION>
1

> <PUBCHEM_EXT_DATASOURCE_NAME>
4488

> <PUBCHEM_EXT_DATASOURCE_REGID>
SCHEMBL16127457

> <PUBCHEM_SUBSTANCE_COMMENT>
InChI=1S/C40H35N3/c1-39(2,3)34-23-35(40(4,5)6)33(25-42)38(32(34)24-41)43-36-19-17-28(26-13-9-7-10-14-26)21-30(36)31-22-29(18-20-37(31)43)27-15-11-8-12-16-27/h7-23H,1-6H3
InChIKey=BZUMAZXWHCUOJW-UHFFFAOYSA-N

> <PUBCHEM_SUBSTANCE_SYNONYM>
SCHEMBL16127457

> <PUBCHEM_XREF_EXT_ID>
SCHEMBL16127457

> <PUBCHEM_EXT_DATASOURCE_URL>
https://www.surechembl.org/

> <PUBCHEM_EXT_SUBSTANCE_URL>
https://www.surechembl.org/chemical/SCHEMBL16127457

> <PUBCHEM_CID_ASSOCIATIONS>
117614753  1

> <PUBCHEM_COORDINATE_TYPE>
1
3

$$$$
