310934177
  -OEChem-07211613022D

 24 26  0     0  0  0  0  0  0999 V2000
    1.6125   -3.3326    0.0000 O   0  0  0  0  0  0  0  0  0  0  0  0
    2.8667   -5.9127    0.0000 O   0  0  0  0  0  0  0  0  0  0  0  0
    2.1501   -7.1669    0.0000 O   0  0  0  0  0  0  0  0  0  0  0  0
    2.1501   -4.6943    0.0000 N   0  0  0  0  0  0  0  0  0  0  0  0
    2.9025   -5.0168    0.0000 N   0  0  0  0  0  0  0  0  0  0  0  0
    0.7167   -4.6943    0.0000 N   0  0  0  0  0  0  0  0  0  0  0  0
    3.9059    0.0000    0.0000 N   0  0  0  0  0  0  0  0  0  0  0  0
    3.0459   -3.6909    0.0000 C   0  0  0  0  0  0  0  0  0  0  0  0
    2.2217   -3.8701    0.0000 C   0  0  0  0  0  0  0  0  0  0  0  0
    1.4334   -5.0884    0.0000 C   0  0  0  0  0  0  0  0  0  0  0  0
    3.3684   -2.9384    0.0000 C   0  0  0  0  0  0  0  0  0  0  0  0
    1.4334   -5.9127    0.0000 C   0  0  0  0  0  0  0  0  0  0  0  0
    3.4401   -4.4076    0.0000 C   0  0  0  0  0  0  0  0  0  0  0  0
    4.1926   -2.8309    0.0000 C   0  0  0  0  0  0  0  0  0  0  0  0
    2.9025   -2.2575    0.0000 C   0  0  0  0  0  0  0  0  0  0  0  0
    2.1501   -6.3426    0.0000 C   0  0  0  0  0  0  0  0  0  0  0  0
    0.7167   -6.3426    0.0000 C   0  0  0  0  0  0  0  0  0  0  0  0
    4.5151   -2.0784    0.0000 C   0  0  0  0  0  0  0  0  0  0  0  0
    4.0493   -1.4334    0.0000 C   0  0  0  0  0  0  0  0  0  0  0  0
    0.0000   -5.0884    0.0000 C   0  0  0  0  0  0  0  0  0  0  0  0
    3.2250   -1.5051    0.0000 C   0  0  0  0  0  0  0  0  0  0  0  0
    0.0000   -5.9127    0.0000 C   0  0  0  0  0  0  0  0  0  0  0  0
    4.6943   -3.5117    0.0000 C   0  0  0  0  0  0  0  0  0  0  0  0
    4.3718   -0.6450    0.0000 C   0  0  0  0  0  0  0  0  0  0  0  0
  1  9  1  0  0  0  0
  2 16  2  0  0  0  0
  3 16  1  0  0  0  0
  4  5  1  0  0  0  0
  4  9  1  0  0  0  0
  4 10  1  0  0  0  0
  5 13  2  0  0  0  0
  6 10  1  0  0  0  0
  6 20  2  0  0  0  0
  7 24  3  0  0  0  0
  8  9  2  0  0  0  0
  8 11  1  0  0  0  0
  8 13  1  0  0  0  0
 10 12  2  0  0  0  0
 11 14  1  0  0  0  0
 11 15  2  0  0  0  0
 12 16  1  0  0  0  0
 12 17  1  0  0  0  0
 14 18  2  0  0  0  0
 14 23  1  0  0  0  0
 15 21  1  0  0  0  0
 17 22  2  0  0  0  0
 18 19  1  0  0  0  0
 19 21  2  0  0  0  0
 19 24  1  0  0  0  0
 20 22  1  0  0  0  0
M  END
> <PUBCHEM_COMPOUND_ID_TYPE>
0

> <PUBCHEM_TOTAL_CHARGE>
0

> <PUBCHEM_SUBSTANCE_ID>
310934177

> <PUBCHEM_SUBSTANCE_VERSION>
1

> <PUBCHEM_EXT_DATASOURCE_NAME>
4488

> <PUBCHEM_EXT_DATASOURCE_REGID>
SCHEMBL16111628

> <PUBCHEM_SUBSTANCE_COMMENT>
InChI=1S/C17H12N4O3/c1-10-7-11(8-18)4-5-12(10)14-9-20-21(16(14)22)15-13(17(23)24)3-2-6-19-15/h2-7,9,22H,1H3,(H,23,24)
InChIKey=AOBPPZCYVFUWOY-UHFFFAOYSA-N

> <PUBCHEM_SUBSTANCE_SYNONYM>
SCHEMBL16111628

> <PUBCHEM_XREF_EXT_ID>
SCHEMBL16111628

> <PUBCHEM_EXT_DATASOURCE_URL>
https://www.surechembl.org/

> <PUBCHEM_EXT_SUBSTANCE_URL>
https://www.surechembl.org/chemical/SCHEMBL16111628

> <PUBCHEM_CID_ASSOCIATIONS>
117602451  1

> <PUBCHEM_COORDINATE_TYPE>
1
3

$$$$
