310945956
  -OEChem-07211613022D

 36 38  0     1  0  0  0  0  0999 V2000
    4.0614    0.6920    0.0000 O   0  0  0  0  0  0  0  0  0  0  0  0
    2.9150   -1.2932    0.0000 O   0  0  0  0  0  0  0  0  0  0  0  0
    0.7340    0.8039    0.0000 O   0  0  0  0  0  0  0  0  0  0  0  0
   -1.4330   -1.2932    0.0000 O   0  0  0  0  0  0  0  0  0  0  0  0
    2.9150   -2.9709    0.0000 O   0  0  0  0  0  0  0  0  0  0  0  0
   -3.6140    0.8039    0.0000 O   0  0  0  0  0  0  0  0  0  0  0  0
    1.4750   -0.4404    0.0000 N   0  0  0  0  0  0  0  0  0  0  0  0
   -0.7061   -0.0210    0.0000 N   0  0  0  0  0  0  0  0  0  0  0  0
   -2.8870   -0.4404    0.0000 N   0  0  0  0  0  0  0  0  0  0  0  0
   -4.3410   -0.4404    0.0000 N   0  0  0  0  0  0  0  0  0  0  0  0
    3.6420    0.0070    0.0000 C   0  0  3  0  0  0  0  0  0  0  0  0
    2.9010   -0.4264    0.0000 C   0  0  0  0  0  0  0  0  0  0  0  0
    3.2505    0.7061    0.0000 C   0  0  0  0  0  0  0  0  0  0  0  0
    2.1880   -0.0210    0.0000 C   0  0  3  0  0  0  0  0  0  0  0  0
    4.3410   -0.4264    0.0000 C   0  0  0  0  0  0  0  0  0  0  0  0
    2.2020    1.3072    0.0000 C   0  0  0  0  0  0  0  0  0  0  0  0
    0.7340   -0.0490    0.0000 C   0  0  0  0  0  0  0  0  0  0  0  0
    0.0349   -0.4404    0.0000 C   0  0  3  0  0  0  0  0  0  0  0  0
    1.4610    1.7545    0.0000 C   0  0  0  0  0  0  0  0  0  0  0  0
    0.0070   -1.2932    0.0000 C   0  0  0  0  0  0  0  0  0  0  0  0
    0.7479   -1.6986    0.0000 C   0  0  0  0  0  0  0  0  0  0  0  0
   -1.4330   -0.4124    0.0000 C   0  0  0  0  0  0  0  0  0  0  0  0
    1.4610    2.5655    0.0000 C   0  0  0  0  0  0  0  0  0  0  0  0
    0.7620    1.3212    0.0000 C   0  0  0  0  0  0  0  0  0  0  0  0
   -2.1740   -0.0210    0.0000 C   0  0  3  0  0  0  0  0  0  0  0  0
    0.7479   -2.5235    0.0000 C   0  0  0  0  0  0  0  0  0  0  0  0
    1.4750   -1.2932    0.0000 C   0  0  0  0  0  0  0  0  0  0  0  0
    2.1880   -2.5235    0.0000 C   0  0  0  0  0  0  0  0  0  0  0  0
    0.7340    2.9709    0.0000 C   0  0  0  0  0  0  0  0  0  0  0  0
    0.0210    1.7406    0.0000 C   0  0  0  0  0  0  0  0  0  0  0  0
    1.4889   -2.9429    0.0000 C   0  0  0  0  0  0  0  0  0  0  0  0
    2.1880   -1.6986    0.0000 C   0  0  0  0  0  0  0  0  0  0  0  0
    0.0210    2.5655    0.0000 C   0  0  0  0  0  0  0  0  0  0  0  0
   -2.1601    0.8039    0.0000 C   0  0  0  0  0  0  0  0  0  0  0  0
   -3.6140   -0.0490    0.0000 C   0  0  0  0  0  0  0  0  0  0  0  0
    3.6420   -2.5235    0.0000 C   0  0  0  0  0  0  0  0  0  0  0  0
  1 11  1  0  0  0  0
  1 13  1  0  0  0  0
  2 12  2  0  0  0  0
  3 17  2  0  0  0  0
  4 22  2  0  0  0  0
  5 28  1  0  0  0  0
  5 36  1  0  0  0  0
  6 35  2  0  0  0  0
 14  7  1  1  0  0  0
  7 17  1  0  0  0  0
 18  8  1  6  0  0  0
  8 22  1  0  0  0  0
  9 25  1  0  0  0  0
  9 35  1  0  0  0  0
 10 35  1  0  0  0  0
 11 12  1  1  0  0  0
 11 13  1  0  0  0  0
 11 15  1  6  0  0  0
 12 14  1  0  0  0  0
 14 16  1  0  0  0  0
 16 19  1  0  0  0  0
 17 18  1  0  0  0  0
 18 20  1  0  0  0  0
 19 23  2  0  0  0  0
 19 24  1  0  0  0  0
 20 21  1  0  0  0  0
 21 26  2  0  0  0  0
 21 27  1  0  0  0  0
 22 25  1  0  0  0  0
 23 29  1  0  0  0  0
 24 30  2  0  0  0  0
 25 34  1  1  0  0  0
 26 31  1  0  0  0  0
 27 32  2  0  0  0  0
 28 31  2  0  0  0  0
 28 32  1  0  0  0  0
 29 33  2  0  0  0  0
 30 33  1  0  0  0  0
M  END
> <PUBCHEM_COMPOUND_ID_TYPE>
0

> <PUBCHEM_TOTAL_CHARGE>
0

> <PUBCHEM_SUBSTANCE_ID>
310945956

> <PUBCHEM_SUBSTANCE_VERSION>
1

> <PUBCHEM_EXT_DATASOURCE_NAME>
4488

> <PUBCHEM_EXT_DATASOURCE_REGID>
SCHEMBL16124061

> <PUBCHEM_SUBSTANCE_COMMENT>
InChI=1S/C26H32N4O6/c1-16(28-25(27)34)23(32)30-21(14-18-9-11-19(35-3)12-10-18)24(33)29-20(22(31)26(2)15-36-26)13-17-7-5-4-6-8-17/h4-12,16,20-21H,13-15H2,1-3H3,(H,29,33)(H,30,32)(H3,27,28,34)/t16-,20-,21-,26+/m0/s1
InChIKey=YKMOUDDCGWYCBH-AERZXCTGSA-N

> <PUBCHEM_SUBSTANCE_SYNONYM>
SCHEMBL16124061

> <PUBCHEM_XREF_EXT_ID>
SCHEMBL16124061

> <PUBCHEM_EXT_DATASOURCE_URL>
https://www.surechembl.org/

> <PUBCHEM_EXT_SUBSTANCE_URL>
https://www.surechembl.org/chemical/SCHEMBL16124061

> <PUBCHEM_CID_ASSOCIATIONS>
117611936  1

> <PUBCHEM_COORDINATE_TYPE>
1
3

> <PUBCHEM_BONDANNOTATIONS>
11  12  5
11  15  6
25  34  5
14  7  5
18  8  6

$$$$
