310944202
  -OEChem-07211613022D

 17 18  0     0  0  0  0  0  0999 V2000
   -2.1449   -1.0261    0.0000 O   0  0  0  0  0  0  0  0  0  0  0  0
    0.0062    0.2101    0.0000 C   0  0  0  0  0  0  0  0  0  0  0  0
    0.7232    0.6181    0.0000 C   0  0  0  0  0  0  0  0  0  0  0  0
   -0.7109    0.6181    0.0000 C   0  0  0  0  0  0  0  0  0  0  0  0
    0.0062   -0.6181    0.0000 C   0  0  0  0  0  0  0  0  0  0  0  0
    1.4279    0.2101    0.0000 C   0  0  0  0  0  0  0  0  0  0  0  0
   -0.7109   -1.0261    0.0000 C   0  0  0  0  0  0  0  0  0  0  0  0
   -1.4155   -0.6181    0.0000 C   0  0  0  0  0  0  0  0  0  0  0  0
   -1.4155    0.2101    0.0000 C   0  0  0  0  0  0  0  0  0  0  0  0
    0.7356    1.4464    0.0000 C   0  0  0  0  0  0  0  0  0  0  0  0
    1.4279    1.8543    0.0000 C   0  0  0  0  0  0  0  0  0  0  0  0
    2.1449    0.6181    0.0000 C   0  0  0  0  0  0  0  0  0  0  0  0
    2.1449    1.4464    0.0000 C   0  0  0  0  0  0  0  0  0  0  0  0
   -0.7109    1.4341    0.0000 C   0  0  0  0  0  0  0  0  0  0  0  0
    1.4279   -0.6181    0.0000 C   0  0  0  0  0  0  0  0  0  0  0  0
   -0.6985   -2.6703    0.0000 C   0  0  0  0  0  0  0  0  0  0  0  0
    1.4279    2.6703    0.0000 C   0  0  0  0  0  0  0  0  0  0  0  0
  1  8  1  0  0  0  0
  2  3  1  0  0  0  0
  2  4  2  0  0  0  0
  2  5  1  0  0  0  0
  3  6  2  0  0  0  0
  3 10  1  0  0  0  0
  4  9  1  0  0  0  0
  4 14  1  0  0  0  0
  5  7  2  0  0  0  0
  6 12  1  0  0  0  0
  6 15  1  0  0  0  0
  7  8  1  0  0  0  0
  7 16  1  0  0  0  0
  8  9  2  0  0  0  0
 10 11  2  0  0  0  0
 11 13  1  0  0  0  0
 11 17  1  0  0  0  0
 12 13  2  0  0  0  0
M  END
> <PUBCHEM_COMPOUND_ID_TYPE>
0

> <PUBCHEM_TOTAL_CHARGE>
0

> <PUBCHEM_SUBSTANCE_ID>
310944202

> <PUBCHEM_SUBSTANCE_VERSION>
1

> <PUBCHEM_EXT_DATASOURCE_NAME>
4488

> <PUBCHEM_EXT_DATASOURCE_REGID>
SCHEMBL16122277

> <PUBCHEM_SUBSTANCE_COMMENT>
InChI=1S/C16H18O/c1-10-5-6-11(2)14(7-10)15-8-13(4)16(17)9-12(15)3/h5-9,17H,1-4H3
InChIKey=QVMDRGFZZBPGLS-UHFFFAOYSA-N

> <PUBCHEM_SUBSTANCE_SYNONYM>
SCHEMBL16122277

> <PUBCHEM_XREF_EXT_ID>
SCHEMBL16122277

> <PUBCHEM_EXT_DATASOURCE_URL>
https://www.surechembl.org/

> <PUBCHEM_EXT_SUBSTANCE_URL>
https://www.surechembl.org/chemical/SCHEMBL16122277

> <PUBCHEM_CID_ASSOCIATIONS>
117610473  1

> <PUBCHEM_COORDINATE_TYPE>
1
3

$$$$
