310946499
  -OEChem-07211613022D

 18 18  0     0  0  0  0  0  0999 V2000
    3.8482  -12.8802    0.0000 O   0  0  0  0  0  0  0  0  0  0  0  0
    2.4193  -12.8802    0.0000 O   0  0  0  0  0  0  0  0  0  0  0  0
    3.5463  -16.2611    0.0000 O   0  0  0  0  0  0  0  0  0  0  0  0
    2.4193  -15.1342    0.0000 O   0  0  0  0  0  0  0  0  0  0  0  0
    3.1338  -14.1177    0.0000 N   0  0  0  0  0  0  0  0  0  0  0  0
    4.0618  -12.0833    0.0000 C   0  0  0  0  0  0  0  0  0  0  0  0
    5.0722  -11.0729    0.0000 C   0  0  0  0  0  0  0  0  0  0  0  0
    4.8586  -11.8698    0.0000 C   0  0  0  0  0  0  0  0  0  0  0  0
    3.1338  -13.2927    0.0000 C   0  0  0  0  0  0  0  0  0  0  0  0
    3.4784  -11.5000    0.0000 C   0  0  0  0  0  0  0  0  0  0  0  0
    4.4888  -10.4896    0.0000 C   0  0  0  0  0  0  0  0  0  0  0  0
    3.6919  -10.7031    0.0000 C   0  0  0  0  0  0  0  0  0  0  0  0
    5.8691  -10.8594    0.0000 C   0  0  0  0  0  0  0  0  0  0  0  0
    3.5463  -14.8322    0.0000 C   0  0  0  0  0  0  0  0  0  0  0  0
    3.1338  -15.5467    0.0000 C   0  0  0  0  0  0  0  0  0  0  0  0
    6.2816  -10.1449    0.0000 C   0  0  0  0  0  0  0  0  0  0  0  0
    7.1066  -10.1449    0.0000 C   0  0  0  0  0  0  0  0  0  0  0  0
    7.5191   -9.4305    0.0000 C   0  0  0  0  0  0  0  0  0  0  0  0
  1  6  1  0  0  0  0
  1  9  1  0  0  0  0
  2  9  2  0  0  0  0
  3 15  2  0  0  0  0
  4 15  1  0  0  0  0
  5  9  1  0  0  0  0
  5 14  1  0  0  0  0
  6  8  2  0  0  0  0
  6 10  1  0  0  0  0
  7  8  1  0  0  0  0
  7 11  2  0  0  0  0
  7 13  1  0  0  0  0
 10 12  2  0  0  0  0
 11 12  1  0  0  0  0
 13 16  1  0  0  0  0
 14 15  1  0  0  0  0
 16 17  1  0  0  0  0
 17 18  1  0  0  0  0
M  END
> <PUBCHEM_COMPOUND_ID_TYPE>
0

> <PUBCHEM_TOTAL_CHARGE>
0

> <PUBCHEM_SUBSTANCE_ID>
310946499

> <PUBCHEM_SUBSTANCE_VERSION>
1

> <PUBCHEM_EXT_DATASOURCE_NAME>
4488

> <PUBCHEM_EXT_DATASOURCE_REGID>
SCHEMBL16124620

> <PUBCHEM_SUBSTANCE_COMMENT>
InChI=1S/C13H17NO4/c1-2-3-5-10-6-4-7-11(8-10)18-13(17)14-9-12(15)16/h4,6-8H,2-3,5,9H2,1H3,(H,14,17)(H,15,16)
InChIKey=ZZRLSDXTLMNUDD-UHFFFAOYSA-N

> <PUBCHEM_SUBSTANCE_SYNONYM>
SCHEMBL16124620

> <PUBCHEM_XREF_EXT_ID>
SCHEMBL16124620

> <PUBCHEM_EXT_DATASOURCE_URL>
https://www.surechembl.org/

> <PUBCHEM_EXT_SUBSTANCE_URL>
https://www.surechembl.org/chemical/SCHEMBL16124620

> <PUBCHEM_CID_ASSOCIATIONS>
117612405  1

> <PUBCHEM_COORDINATE_TYPE>
1
3

$$$$
