310948763
  -OEChem-07211613022D

 26 29  0     0  0  0  0  0  0999 V2000
    2.4343   -2.0669    0.0000 S   0  0  0  0  0  0  0  0  0  0  0  0
   -2.5261   -1.5708    0.0000 O   0  0  0  0  0  0  0  0  0  0  0  0
    2.5997   -1.2585    0.0000 O   0  0  0  0  0  0  0  0  0  0  0  0
    3.2427   -2.2322    0.0000 O   0  0  0  0  0  0  0  0  0  0  0  0
   -1.0380    0.7625    0.0000 N   0  0  0  0  0  0  0  0  0  0  0  0
   -0.5419    0.0826    0.0000 N   0  0  0  0  0  0  0  0  0  0  0  0
   -0.7808   -1.3687    0.0000 N   0  0  0  0  0  0  0  0  0  0  0  0
   -3.2427   -0.3215    0.0000 N   0  0  0  0  0  0  0  0  0  0  0  0
    2.2690   -2.8752    0.0000 N   0  0  0  0  0  0  0  0  0  0  0  0
   -1.8281   -0.3215    0.0000 C   0  0  0  0  0  0  0  0  0  0  0  0
   -1.8097    0.5052    0.0000 C   0  0  0  0  0  0  0  0  0  0  0  0
   -1.0380   -0.5787    0.0000 C   0  0  0  0  0  0  0  0  0  0  0  0
   -2.5261   -0.7257    0.0000 C   0  0  0  0  0  0  0  0  0  0  0  0
   -0.7808    1.5708    0.0000 C   0  0  0  0  0  0  0  0  0  0  0  0
   -2.5261    0.9095    0.0000 C   0  0  0  0  0  0  0  0  0  0  0  0
    0.0275   -1.5340    0.0000 C   0  0  0  0  0  0  0  0  0  0  0  0
   -3.2243    0.5052    0.0000 C   0  0  0  0  0  0  0  0  0  0  0  0
    1.6259   -1.8832    0.0000 C   0  0  0  0  0  0  0  0  0  0  0  0
   -1.2401    2.1955    0.0000 C   0  0  0  0  0  0  0  0  0  0  0  0
   -0.0092    1.8097    0.0000 C   0  0  0  0  0  0  0  0  0  0  0  0
    0.5787   -0.9278    0.0000 C   0  0  0  0  0  0  0  0  0  0  0  0
    0.2848   -2.3241    0.0000 C   0  0  0  0  0  0  0  0  0  0  0  0
    1.3687   -1.0931    0.0000 C   0  0  0  0  0  0  0  0  0  0  0  0
    1.0931   -2.4894    0.0000 C   0  0  0  0  0  0  0  0  0  0  0  0
   -0.7625    2.8752    0.0000 C   0  0  0  0  0  0  0  0  0  0  0  0
   -0.0092    2.6364    0.0000 C   0  0  0  0  0  0  0  0  0  0  0  0
  1  3  2  0  0  0  0
  1  4  2  0  0  0  0
  1  9  1  0  0  0  0
  1 18  1  0  0  0  0
  2 13  2  0  0  0  0
  5  6  1  0  0  0  0
  5 11  1  0  0  0  0
  5 14  1  0  0  0  0
  6 12  2  0  0  0  0
  7 12  1  0  0  0  0
  7 16  1  0  0  0  0
  8 13  1  0  0  0  0
  8 17  1  0  0  0  0
 10 11  2  0  0  0  0
 10 12  1  0  0  0  0
 10 13  1  0  0  0  0
 11 15  1  0  0  0  0
 14 19  1  0  0  0  0
 14 20  1  0  0  0  0
 15 17  2  0  0  0  0
 16 21  2  0  0  0  0
 16 22  1  0  0  0  0
 18 23  2  0  0  0  0
 18 24  1  0  0  0  0
 19 25  1  0  0  0  0
 20 26  1  0  0  0  0
 21 23  1  0  0  0  0
 22 24  2  0  0  0  0
 25 26  1  0  0  0  0
M  END
> <PUBCHEM_COMPOUND_ID_TYPE>
0

> <PUBCHEM_TOTAL_CHARGE>
0

> <PUBCHEM_SUBSTANCE_ID>
310948763

> <PUBCHEM_SUBSTANCE_VERSION>
1

> <PUBCHEM_EXT_DATASOURCE_NAME>
4488

> <PUBCHEM_EXT_DATASOURCE_REGID>
SCHEMBL16126947

> <PUBCHEM_SUBSTANCE_COMMENT>
InChI=1S/C17H19N5O3S/c18-26(24,25)13-7-5-11(6-8-13)20-16-15-14(9-10-19-17(15)23)22(21-16)12-3-1-2-4-12/h5-10,12H,1-4H2,(H,19,23)(H,20,21)(H2,18,24,25)
InChIKey=GHHPZGQQNZABEC-UHFFFAOYSA-N

> <PUBCHEM_SUBSTANCE_SYNONYM>
SCHEMBL16126947

> <PUBCHEM_XREF_EXT_ID>
SCHEMBL16126947

> <PUBCHEM_EXT_DATASOURCE_URL>
https://www.surechembl.org/

> <PUBCHEM_EXT_SUBSTANCE_URL>
https://www.surechembl.org/chemical/SCHEMBL16126947

> <PUBCHEM_CID_ASSOCIATIONS>
117614305  1

> <PUBCHEM_COORDINATE_TYPE>
1
3

$$$$
