310941709
  -OEChem-07211613022D

 36 41  0     0  0  0  0  0  0999 V2000
   -0.7545   -2.2401    0.0000 Cl  0  0  0  0  0  0  0  0  0  0  0  0
   -2.8924    0.9039    0.0000 S   0  0  0  0  0  0  0  0  0  0  0  0
    1.3833   -0.1493    0.0000 O   0  0  0  0  0  0  0  0  0  0  0  0
   -0.0629    1.5170    0.0000 O   0  0  0  0  0  0  0  0  0  0  0  0
    2.8295   -0.9825    0.0000 N   0  0  0  0  0  0  0  0  0  0  0  0
    0.6602   -1.4069    0.0000 N   0  0  0  0  0  0  0  0  0  0  0  0
    4.2601   -0.1493    0.0000 N   0  0  0  0  0  0  0  0  0  0  0  0
   -1.5091    1.5170    0.0000 N   0  0  0  0  0  0  0  0  0  0  0  0
   -2.7510    2.2401    0.0000 N   0  0  0  0  0  0  0  0  0  0  0  0
   -3.5684    2.0671    0.0000 N   0  0  0  0  0  0  0  0  0  0  0  0
    2.0907   -1.3912    0.0000 C   0  0  0  0  0  0  0  0  0  0  0  0
    1.7135   -2.0986    0.0000 C   0  0  0  0  0  0  0  0  0  0  0  0
    2.4995   -2.0986    0.0000 C   0  0  0  0  0  0  0  0  0  0  0  0
    1.3676   -0.9825    0.0000 C   0  0  0  0  0  0  0  0  0  0  0  0
    3.5841   -1.3754    0.0000 C   0  0  0  0  0  0  0  0  0  0  0  0
    2.8453   -0.1336    0.0000 C   0  0  0  0  0  0  0  0  0  0  0  0
   -0.0786   -0.9667    0.0000 C   0  0  0  0  0  0  0  0  0  0  0  0
    4.2601   -0.9825    0.0000 C   0  0  0  0  0  0  0  0  0  0  0  0
    3.5370    0.2751    0.0000 C   0  0  0  0  0  0  0  0  0  0  0  0
    4.9989    0.3065    0.0000 C   0  0  0  0  0  0  0  0  0  0  0  0
   -0.7545   -1.3598    0.0000 C   0  0  0  0  0  0  0  0  0  0  0  0
   -0.0629   -0.1336    0.0000 C   0  0  0  0  0  0  0  0  0  0  0  0
   -0.7703    0.2908    0.0000 C   0  0  0  0  0  0  0  0  0  0  0  0
    5.4076    0.9825    0.0000 C   0  0  0  0  0  0  0  0  0  0  0  0
    5.8006    0.2908    0.0000 C   0  0  0  0  0  0  0  0  0  0  0  0
   -0.7860    1.1239    0.0000 C   0  0  0  0  0  0  0  0  0  0  0  0
   -1.4934   -0.9667    0.0000 C   0  0  0  0  0  0  0  0  0  0  0  0
   -1.4934   -0.1336    0.0000 C   0  0  0  0  0  0  0  0  0  0  0  0
   -2.3579    1.5641    0.0000 C   0  0  0  0  0  0  0  0  0  0  0  0
   -3.6627    1.2655    0.0000 C   0  0  0  0  0  0  0  0  0  0  0  0
   -4.3701    0.8410    0.0000 C   0  0  0  0  0  0  0  0  0  0  0  0
   -4.3701    0.0079    0.0000 C   0  0  0  0  0  0  0  0  0  0  0  0
   -5.0932    1.2497    0.0000 C   0  0  0  0  0  0  0  0  0  0  0  0
   -5.0617   -0.4008    0.0000 C   0  0  0  0  0  0  0  0  0  0  0  0
   -5.8006    0.8410    0.0000 C   0  0  0  0  0  0  0  0  0  0  0  0
   -5.8006   -0.0079    0.0000 C   0  0  0  0  0  0  0  0  0  0  0  0
  1 21  1  0  0  0  0
  2 29  1  0  0  0  0
  2 30  1  0  0  0  0
  3 14  2  0  0  0  0
  4 26  2  0  0  0  0
  5 11  1  0  0  0  0
  5 15  1  0  0  0  0
  5 16  1  0  0  0  0
  6 14  1  0  0  0  0
  6 17  1  0  0  0  0
  7 18  1  0  0  0  0
  7 19  1  0  0  0  0
  7 20  1  0  0  0  0
  8 26  1  0  0  0  0
  8 29  1  0  0  0  0
  9 10  1  0  0  0  0
  9 29  2  0  0  0  0
 10 30  2  0  0  0  0
 11 12  1  0  0  0  0
 11 13  1  0  0  0  0
 11 14  1  0  0  0  0
 12 13  1  0  0  0  0
 15 18  1  0  0  0  0
 16 19  1  0  0  0  0
 17 21  1  0  0  0  0
 17 22  2  0  0  0  0
 20 24  1  0  0  0  0
 20 25  1  0  0  0  0
 21 27  2  0  0  0  0
 22 23  1  0  0  0  0
 23 26  1  0  0  0  0
 23 28  2  0  0  0  0
 24 25  1  0  0  0  0
 27 28  1  0  0  0  0
 30 31  1  0  0  0  0
 31 32  2  0  0  0  0
 31 33  1  0  0  0  0
 32 34  1  0  0  0  0
 33 35  2  0  0  0  0
 34 36  2  0  0  0  0
 35 36  1  0  0  0  0
M  END
> <PUBCHEM_COMPOUND_ID_TYPE>
0

> <PUBCHEM_TOTAL_CHARGE>
0

> <PUBCHEM_SUBSTANCE_ID>
310941709

> <PUBCHEM_SUBSTANCE_VERSION>
1

> <PUBCHEM_EXT_DATASOURCE_NAME>
4488

> <PUBCHEM_EXT_DATASOURCE_REGID>
SCHEMBL16119740

> <PUBCHEM_SUBSTANCE_COMMENT>
InChI=1S/C26H27ClN6O2S/c27-20-9-6-18(22(34)29-25-31-30-23(36-25)17-4-2-1-3-5-17)16-21(20)28-24(35)26(10-11-26)33-14-12-32(13-15-33)19-7-8-19/h1-6,9,16,19H,7-8,10-15H2,(H,28,35)(H,29,31,34)
InChIKey=LGZNBISZCZHCLR-UHFFFAOYSA-N

> <PUBCHEM_SUBSTANCE_SYNONYM>
SCHEMBL16119740

> <PUBCHEM_XREF_EXT_ID>
SCHEMBL16119740

> <PUBCHEM_EXT_DATASOURCE_URL>
https://www.surechembl.org/

> <PUBCHEM_EXT_SUBSTANCE_URL>
https://www.surechembl.org/chemical/SCHEMBL16119740

> <PUBCHEM_CID_ASSOCIATIONS>
90462384  1

> <PUBCHEM_COORDINATE_TYPE>
1
3

$$$$
