310933615
  -OEChem-07211613022D

 18 20  0     0  0  0  0  0  0999 V2000
    2.6890   -3.8414    0.0000 Cl  0  0  0  0  0  0  0  0  0  0  0  0
    4.2063   -2.8618    0.0000 O   0  0  0  0  0  0  0  0  0  0  0  0
    0.4226   -0.3841    0.0000 O   0  0  0  0  0  0  0  0  0  0  0  0
    5.5124   -2.2088    0.0000 O   0  0  0  0  0  0  0  0  0  0  0  0
    4.2063   -1.5557    0.0000 N   0  0  0  0  0  0  0  0  0  0  0  0
    0.0000   -1.0948    0.0000 N   0  0  0  0  0  0  0  0  0  0  0  0
    3.4380   -2.6313    0.0000 C   0  0  0  0  0  0  0  0  0  0  0  0
    3.4380   -1.7862    0.0000 C   0  0  0  0  0  0  0  0  0  0  0  0
    2.0167   -1.7862    0.0000 C   0  0  0  0  0  0  0  0  0  0  0  0
    1.3061   -1.3637    0.0000 C   0  0  0  0  0  0  0  0  0  0  0  0
    2.7082   -3.0347    0.0000 C   0  0  0  0  0  0  0  0  0  0  0  0
    2.7082   -1.3829    0.0000 C   0  0  0  0  0  0  0  0  0  0  0  0
    2.0167   -2.6313    0.0000 C   0  0  0  0  0  0  0  0  0  0  0  0
    1.2100   -0.5570    0.0000 C   0  0  0  0  0  0  0  0  0  0  0  0
    0.5570   -1.6902    0.0000 C   0  0  0  0  0  0  0  0  0  0  0  0
    4.7057   -2.2088    0.0000 C   0  0  0  0  0  0  0  0  0  0  0  0
    1.8247    0.0000    0.0000 C   0  0  0  0  0  0  0  0  0  0  0  0
    0.3841   -2.4969    0.0000 C   0  0  0  0  0  0  0  0  0  0  0  0
  1 11  1  0  0  0  0
  2  7  1  0  0  0  0
  2 16  1  0  0  0  0
  3  6  1  0  0  0  0
  3 14  1  0  0  0  0
  4 16  2  0  0  0  0
  5  8  1  0  0  0  0
  5 16  1  0  0  0  0
  6 15  2  0  0  0  0
  7  8  2  0  0  0  0
  7 11  1  0  0  0  0
  8 12  1  0  0  0  0
  9 10  1  0  0  0  0
  9 12  2  0  0  0  0
  9 13  1  0  0  0  0
 10 14  2  0  0  0  0
 10 15  1  0  0  0  0
 11 13  2  0  0  0  0
 14 17  1  0  0  0  0
 15 18  1  0  0  0  0
M  END
> <PUBCHEM_COMPOUND_ID_TYPE>
0

> <PUBCHEM_TOTAL_CHARGE>
0

> <PUBCHEM_SUBSTANCE_ID>
310933615

> <PUBCHEM_SUBSTANCE_VERSION>
1

> <PUBCHEM_EXT_DATASOURCE_NAME>
4488

> <PUBCHEM_EXT_DATASOURCE_REGID>
SCHEMBL16111045

> <PUBCHEM_SUBSTANCE_COMMENT>
InChI=1S/C12H9ClN2O3/c1-5-10(6(2)18-15-5)7-3-8(13)11-9(4-7)14-12(16)17-11/h3-4H,1-2H3,(H,14,16)
InChIKey=HKZNTABNBUFOKC-UHFFFAOYSA-N

> <PUBCHEM_SUBSTANCE_SYNONYM>
SCHEMBL16111045

> <PUBCHEM_XREF_EXT_ID>
SCHEMBL16111045

> <PUBCHEM_EXT_DATASOURCE_URL>
https://www.surechembl.org/

> <PUBCHEM_EXT_SUBSTANCE_URL>
https://www.surechembl.org/chemical/SCHEMBL16111045

> <PUBCHEM_CID_ASSOCIATIONS>
117601991  1

> <PUBCHEM_COORDINATE_TYPE>
1
3

$$$$
