310933205
  -OEChem-07211613022D

 14 15  0     0  0  0  0  0  0999 V2000
    4.1470   -2.1288    0.0000 Cl  0  0  0  0  0  0  0  0  0  0  0  0
    2.5158   -2.1288    0.0000 F   0  0  0  0  0  0  0  0  0  0  0  0
    0.4423   -1.4238    0.0000 N   0  0  0  0  0  0  0  0  0  0  0  0
    2.5020   -0.7050    0.0000 C   0  0  0  0  0  0  0  0  0  0  0  0
    2.9167   -1.4238    0.0000 C   0  0  0  0  0  0  0  0  0  0  0  0
    1.6726   -0.7050    0.0000 C   0  0  0  0  0  0  0  0  0  0  0  0
    3.7323   -1.4238    0.0000 C   0  0  0  0  0  0  0  0  0  0  0  0
    2.9167    0.0000    0.0000 C   0  0  0  0  0  0  0  0  0  0  0  0
    4.1470   -0.7050    0.0000 C   0  0  0  0  0  0  0  0  0  0  0  0
    1.2441   -1.4238    0.0000 C   0  0  0  0  0  0  0  0  0  0  0  0
    1.2441    0.0000    0.0000 C   0  0  0  0  0  0  0  0  0  0  0  0
    3.7323    0.0000    0.0000 C   0  0  0  0  0  0  0  0  0  0  0  0
    0.4423    0.0000    0.0000 C   0  0  0  0  0  0  0  0  0  0  0  0
    0.0000   -0.7050    0.0000 C   0  0  0  0  0  0  0  0  0  0  0  0
  1  7  1  0  0  0  0
  2  5  1  0  0  0  0
  3 10  1  0  0  0  0
  3 14  2  0  0  0  0
  4  5  1  0  0  0  0
  4  6  1  0  0  0  0
  4  8  2  0  0  0  0
  5  7  2  0  0  0  0
  6 10  2  0  0  0  0
  6 11  1  0  0  0  0
  7  9  1  0  0  0  0
  8 12  1  0  0  0  0
  9 12  2  0  0  0  0
 11 13  2  0  0  0  0
 13 14  1  0  0  0  0
M  END
> <PUBCHEM_COMPOUND_ID_TYPE>
0

> <PUBCHEM_TOTAL_CHARGE>
0

> <PUBCHEM_SUBSTANCE_ID>
310933205

> <PUBCHEM_SUBSTANCE_VERSION>
1

> <PUBCHEM_EXT_DATASOURCE_NAME>
4488

> <PUBCHEM_EXT_DATASOURCE_REGID>
SCHEMBL16110614

> <PUBCHEM_SUBSTANCE_COMMENT>
InChI=1S/C11H7ClFN/c12-10-5-1-4-9(11(10)13)8-3-2-6-14-7-8/h1-7H
InChIKey=IRBJNIJBAIONEE-UHFFFAOYSA-N

> <PUBCHEM_SUBSTANCE_SYNONYM>
SCHEMBL16110614

> <PUBCHEM_XREF_EXT_ID>
SCHEMBL16110614

> <PUBCHEM_EXT_DATASOURCE_URL>
https://www.surechembl.org/

> <PUBCHEM_EXT_SUBSTANCE_URL>
https://www.surechembl.org/chemical/SCHEMBL16110614

> <PUBCHEM_CID_ASSOCIATIONS>
117601644  1

> <PUBCHEM_COORDINATE_TYPE>
1
3

$$$$
