310944563
  -OEChem-07211613022D

 27 29  0     1  0  0  0  0  0999 V2000
   -1.3247   -0.4955    0.0000 O   0  0  0  0  0  0  0  0  0  0  0  0
   -1.2484    3.0687    0.0000 O   0  0  0  0  0  0  0  0  0  0  0  0
   -1.9727    1.8298    0.0000 N   0  0  0  0  0  0  0  0  0  0  0  0
    3.0020    3.2211    0.0000 N   0  0  0  0  0  0  0  0  0  0  0  0
    0.6575    2.2301    0.0000 N   0  0  0  0  0  0  0  0  0  0  0  0
   -1.9918    1.0102    0.0000 N   0  0  0  0  0  0  0  0  0  0  0  0
    3.4213    2.5159    0.0000 N   0  0  0  0  0  0  0  0  0  0  0  0
   -2.0871   -3.4689    0.0000 N   0  0  0  0  0  0  0  0  0  0  0  0
   -2.0681   -1.8107    0.0000 C   0  0  3  0  0  0  0  0  0  0  0  0
   -2.7160   -2.1347    0.0000 C   0  0  3  0  0  0  0  0  0  0  0  0
    2.0871    2.2491    0.0000 C   0  0  0  0  0  0  0  0  0  0  0  0
   -0.5242    1.8488    0.0000 C   0  0  0  0  0  0  0  0  0  0  0  0
   -1.2675    2.2491    0.0000 C   0  0  0  0  0  0  0  0  0  0  0  0
    2.1824    3.0687    0.0000 C   0  0  0  0  0  0  0  0  0  0  0  0
   -2.0299   -2.5540    0.0000 C   0  0  0  0  0  0  0  0  0  0  0  0
   -1.2675    0.6099    0.0000 C   0  0  0  0  0  0  0  0  0  0  0  0
    2.8495    1.8870    0.0000 C   0  0  0  0  0  0  0  0  0  0  0  0
   -0.5623    0.9911    0.0000 C   0  0  0  0  0  0  0  0  0  0  0  0
   -2.0108   -0.8768    0.0000 C   0  0  0  0  0  0  0  0  0  0  0  0
    1.3819    1.8298    0.0000 C   0  0  0  0  0  0  0  0  0  0  0  0
   -2.7733   -2.9734    0.0000 C   0  0  0  0  0  0  0  0  0  0  0  0
    1.5534    3.6024    0.0000 C   0  0  0  0  0  0  0  0  0  0  0  0
    3.0591    1.0674    0.0000 C   0  0  0  0  0  0  0  0  0  0  0  0
   -3.4213   -3.4499    0.0000 C   0  0  0  0  0  0  0  0  0  0  0  0
   -2.7160    2.2682    0.0000 C   0  0  0  0  0  0  0  0  0  0  0  0
    3.3450    4.0217    0.0000 C   0  0  0  0  0  0  0  0  0  0  0  0
   -3.1545   -4.0217    0.0000 C   0  0  0  0  0  0  0  0  0  0  0  0
  1 16  1  0  0  0  0
  1 19  1  0  0  0  0
  2 13  2  0  0  0  0
  3  6  1  0  0  0  0
  3 13  1  0  0  0  0
  3 25  1  0  0  0  0
  4  7  1  0  0  0  0
  4 14  1  0  0  0  0
  4 26  1  0  0  0  0
  5 12  1  0  0  0  0
  5 20  1  0  0  0  0
  6 16  2  0  0  0  0
  7 17  2  0  0  0  0
  8 21  2  3  0  0  0
  9 10  1  0  0  0  0
  9 15  1  0  0  0  0
  9 19  1  1  0  0  0
 10 15  1  0  0  0  0
 10 21  1  6  0  0  0
 11 14  2  0  0  0  0
 11 17  1  0  0  0  0
 11 20  1  0  0  0  0
 12 13  1  0  0  0  0
 12 18  2  0  0  0  0
 14 22  1  0  0  0  0
 16 18  1  0  0  0  0
 17 23  1  0  0  0  0
 21 24  1  0  0  0  0
 24 27  2  0  0  0  0
M  END
> <PUBCHEM_COMPOUND_ID_TYPE>
0

> <PUBCHEM_TOTAL_CHARGE>
0

> <PUBCHEM_SUBSTANCE_ID>
310944563

> <PUBCHEM_SUBSTANCE_VERSION>
1

> <PUBCHEM_EXT_DATASOURCE_NAME>
4488

> <PUBCHEM_EXT_DATASOURCE_REGID>
SCHEMBL16122640

> <PUBCHEM_SUBSTANCE_COMMENT>
InChI=1S/C19H26N6O2/c1-6-16(20)14-7-13(14)10-27-18-8-17(19(26)25(5)23-18)21-9-15-11(2)22-24(4)12(15)3/h6,8,13-14,20-21H,1,7,9-10H2,2-5H3/t13-,14+/m1/s1
InChIKey=XOFFFJFFKZKYDS-KGLIPLIRSA-N

> <PUBCHEM_SUBSTANCE_SYNONYM>
SCHEMBL16122640

> <PUBCHEM_XREF_EXT_ID>
SCHEMBL16122640

> <PUBCHEM_EXT_DATASOURCE_URL>
https://www.surechembl.org/

> <PUBCHEM_EXT_SUBSTANCE_URL>
https://www.surechembl.org/chemical/SCHEMBL16122640

> <PUBCHEM_CID_ASSOCIATIONS>
117610798  1

> <PUBCHEM_COORDINATE_TYPE>
1
3

> <PUBCHEM_BONDANNOTATIONS>
10  21  6
9  19  5

$$$$
