310929607
  -OEChem-07211613022D

 76 85  0     1  0  0  0  0  0999 V2000
    2.3848   -5.1547    0.0000 S   0  0  0  0  0  0  0  0  0  0  0  0
   -3.3682    3.1330    0.0000 F   0  0  0  0  0  0  0  0  0  0  0  0
   -4.2868   -0.8250    0.0000 O   0  0  0  0  0  0  0  0  0  0  0  0
    1.5598   -3.7257    0.0000 O   0  0  0  0  0  0  0  0  0  0  0  0
   -1.4290   -0.8250    0.0000 O   0  0  0  0  0  0  0  0  0  0  0  0
    2.3848   -5.9797    0.0000 O   0  0  0  0  0  0  0  0  0  0  0  0
    2.3848   -4.3297    0.0000 O   0  0  0  0  0  0  0  0  0  0  0  0
   -1.3277   -4.4402    0.0000 O   0  0  0  0  0  0  0  0  0  0  0  0
   -2.8579   -4.1250    0.0000 O   0  0  0  0  0  0  0  0  0  0  0  0
   -5.0013   -2.0625    0.0000 O   0  0  0  0  0  0  0  0  0  0  0  0
    0.0000    1.6500    0.0000 O   0  0  0  0  0  0  0  0  0  0  0  0
   -0.0902   -3.7257    0.0000 N   0  0  0  0  0  0  0  0  0  0  0  0
    1.5598   -5.1547    0.0000 N   0  0  0  0  0  0  0  0  0  0  0  0
   -2.1434   -2.8875    0.0000 N   0  0  0  0  0  0  0  0  0  0  0  0
   -3.5724   -2.0625    0.0000 N   0  0  0  0  0  0  0  0  0  0  0  0
    0.0000   -0.8250    0.0000 N   0  0  0  0  0  0  0  0  0  0  0  0
    1.4290    4.1250    0.0000 N   0  0  3  0  0  0  0  0  0  0  0  0
   -0.7537    4.4605    0.0000 N   0  0  0  0  0  0  0  0  0  0  0  0
   -0.0862    3.3045    0.0000 N   0  0  0  0  0  0  0  0  0  0  0  0
    0.3223   -4.4402    0.0000 C   0  0  3  0  0  0  0  0  0  0  0  0
    0.3223   -5.2651    0.0000 C   0  0  3  0  0  0  0  0  0  0  0  0
   -5.0013   -0.4125    0.0000 C   0  0  3  0  0  0  0  0  0  0  0  0
   -5.0013    0.4125    0.0000 C   0  0  3  0  0  0  0  0  0  0  0  0
   -0.3922   -4.8526    0.0000 C   0  0  0  0  0  0  0  0  0  0  0  0
    1.1473   -4.4402    0.0000 C   0  0  0  0  0  0  0  0  0  0  0  0
   -5.7158    0.0000    0.0000 C   0  0  0  0  0  0  0  0  0  0  0  0
    3.2098   -5.1547    0.0000 C   0  0  0  0  0  0  0  0  0  0  0  0
   -0.9152   -3.7257    0.0000 C   0  0  0  0  0  0  0  0  0  0  0  0
   -1.3277   -3.0112    0.0000 C   0  0  3  0  0  0  0  0  0  0  0  0
   -4.2868    0.8250    0.0000 C   0  0  0  0  0  0  0  0  0  0  0  0
    0.7348   -5.9797    0.0000 C   0  0  0  0  0  0  0  0  0  0  0  0
   -1.4290   -1.6500    0.0000 C   0  0  3  0  0  0  0  0  0  0  0  0
    3.6223   -4.4402    0.0000 C   0  0  0  0  0  0  0  0  0  0  0  0
    4.0348   -5.1547    0.0000 C   0  0  0  0  0  0  0  0  0  0  0  0
   -0.9152   -2.2967    0.0000 C   0  0  0  0  0  0  0  0  0  0  0  0
   -2.8579   -3.3000    0.0000 C   0  0  0  0  0  0  0  0  0  0  0  0
   -2.1434   -2.0625    0.0000 C   0  0  0  0  0  0  0  0  0  0  0  0
   -4.2868   -1.6500    0.0000 C   0  0  0  0  0  0  0  0  0  0  0  0
   -3.5724   -2.8875    0.0000 C   0  0  3  0  0  0  0  0  0  0  0  0
    2.7973   -5.8691    0.0000 C   0  0  0  0  0  0  0  0  0  0  0  0
   -0.7144   -0.4125    0.0000 C   0  0  0  0  0  0  0  0  0  0  0  0
   -3.5724    0.4125    0.0000 C   0  0  0  0  0  0  0  0  0  0  0  0
   -4.2868   -3.3000    0.0000 C   0  0  0  0  0  0  0  0  0  0  0  0
   -0.7144    0.4125    0.0000 C   0  0  0  0  0  0  0  0  0  0  0  0
    1.5598   -5.9797    0.0000 C   0  0  0  0  0  0  0  0  0  0  0  0
    0.0000    0.8250    0.0000 C   0  0  0  0  0  0  0  0  0  0  0  0
    0.7144    0.4125    0.0000 C   0  0  0  0  0  0  0  0  0  0  0  0
    0.7144   -0.4125    0.0000 C   0  0  0  0  0  0  0  0  0  0  0  0
   -2.8579    0.8250    0.0000 C   0  0  0  0  0  0  0  0  0  0  0  0
   -1.4290    0.8250    0.0000 C   0  0  0  0  0  0  0  0  0  0  0  0
   -2.1434    0.4125    0.0000 C   0  0  0  0  0  0  0  0  0  0  0  0
   -4.2868   -4.1250    0.0000 C   0  0  0  0  0  0  0  0  0  0  0  0
   -5.0013   -3.7125    0.0000 C   0  0  0  0  0  0  0  0  0  0  0  0
   -5.0013   -2.8875    0.0000 C   0  0  0  0  0  0  0  0  0  0  0  0
    1.4290    0.8250    0.0000 C   0  0  0  0  0  0  0  0  0  0  0  0
    1.4290   -0.8250    0.0000 C   0  0  0  0  0  0  0  0  0  0  0  0
    2.1434    0.4125    0.0000 C   0  0  0  0  0  0  0  0  0  0  0  0
    2.1434   -0.4125    0.0000 C   0  0  0  0  0  0  0  0  0  0  0  0
    0.7144    2.0625    0.0000 C   0  0  0  0  0  0  0  0  0  0  0  0
    0.0000    4.1250    0.0000 C   0  0  0  0  0  0  0  0  0  0  0  0
    0.7144    4.5375    0.0000 C   0  0  3  0  0  0  0  0  0  0  0  0
   -1.3057    3.8474    0.0000 C   0  0  0  0  0  0  0  0  0  0  0  0
   -0.8932    3.1330    0.0000 C   0  0  0  0  0  0  0  0  0  0  0  0
    0.7144    2.8875    0.0000 C   0  0  0  0  0  0  0  0  0  0  0  0
    1.4290    3.3000    0.0000 C   0  0  0  0  0  0  0  0  0  0  0  0
   -2.1307    3.8474    0.0000 C   0  0  0  0  0  0  0  0  0  0  0  0
   -1.3057    2.4185    0.0000 C   0  0  0  0  0  0  0  0  0  0  0  0
    0.7144    5.3625    0.0000 C   0  0  0  0  0  0  0  0  0  0  0  0
    2.1434    4.5375    0.0000 C   0  0  0  0  0  0  0  0  0  0  0  0
   -2.5432    3.1330    0.0000 C   0  0  0  0  0  0  0  0  0  0  0  0
   -2.1307    2.4185    0.0000 C   0  0  0  0  0  0  0  0  0  0  0  0
    1.4290    5.7750    0.0000 C   0  0  0  0  0  0  0  0  0  0  0  0
    2.1434    5.3625    0.0000 C   0  0  0  0  0  0  0  0  0  0  0  0
   -5.4138   -1.1270    0.0000 H   0  0  0  0  0  0  0  0  0  0  0  0
   -5.4138    1.1270    0.0000 H   0  0  0  0  0  0  0  0  0  0  0  0
   -0.6500   -1.3783    0.0000 H   0  0  0  0  0  0  0  0  0  0  0  0
  1  6  2  0  0  0  0
  1  7  2  0  0  0  0
  1 13  1  0  0  0  0
  1 27  1  0  0  0  0
  2 70  1  0  0  0  0
  3 22  1  0  0  0  0
  3 38  1  0  0  0  0
  4 25  2  0  0  0  0
  5 32  1  0  0  0  0
  5 41  1  0  0  0  0
  8 28  2  0  0  0  0
  9 36  2  0  0  0  0
 10 38  2  0  0  0  0
 11 46  1  0  0  0  0
 11 59  1  0  0  0  0
 20 12  1  1  0  0  0
 12 28  1  0  0  0  0
 13 25  1  0  0  0  0
 14 29  1  0  0  0  0
 14 36  1  0  0  0  0
 14 37  1  0  0  0  0
 15 38  1  0  0  0  0
 15 39  1  0  0  0  0
 16 41  2  0  0  0  0
 16 48  1  0  0  0  0
 17 61  1  0  0  0  0
 17 65  1  0  0  0  0
 17 69  1  0  0  0  0
 18 60  2  0  0  0  0
 18 62  1  0  0  0  0
 19 60  1  0  0  0  0
 19 63  1  0  0  0  0
 20 21  1  0  0  0  0
 20 24  1  0  0  0  0
 20 25  1  6  0  0  0
 21 24  1  0  0  0  0
 21 31  1  6  0  0  0
 22 23  1  0  0  0  0
 22 26  1  0  0  0  0
 22 74  1  1  0  0  0
 23 26  1  0  0  0  0
 23 30  1  0  0  0  0
 23 75  1  6  0  0  0
 27 33  1  0  0  0  0
 27 34  1  0  0  0  0
 27 40  1  0  0  0  0
 29 28  1  1  0  0  0
 29 35  1  0  0  0  0
 30 42  1  0  0  0  0
 31 45  2  0  0  0  0
 32 35  1  0  0  0  0
 32 37  1  0  0  0  0
 32 76  1  1  0  0  0
 33 34  1  0  0  0  0
 36 39  1  0  0  0  0
 39 43  1  6  0  0  0
 41 44  1  0  0  0  0
 42 49  1  0  0  0  0
 43 52  1  0  0  0  0
 43 53  1  0  0  0  0
 43 54  1  0  0  0  0
 44 46  2  0  0  0  0
 44 50  1  0  0  0  0
 46 47  1  0  0  0  0
 47 48  1  0  0  0  0
 47 55  2  0  0  0  0
 48 56  2  0  0  0  0
 49 51  1  0  0  0  0
 50 51  1  0  0  0  0
 55 57  1  0  0  0  0
 56 58  1  0  0  0  0
 57 58  2  0  0  0  0
 59 64  1  0  0  0  0
 60 61  1  0  0  0  0
 61 68  1  0  0  0  0
 62 63  1  0  0  0  0
 62 66  2  0  0  0  0
 63 67  2  0  0  0  0
 64 65  1  0  0  0  0
 66 70  1  0  0  0  0
 67 71  1  0  0  0  0
 68 72  1  0  0  0  0
 69 73  1  0  0  0  0
 70 71  2  0  0  0  0
 72 73  1  0  0  0  0
M  END
> <PUBCHEM_COMPOUND_ID_TYPE>
0

> <PUBCHEM_TOTAL_CHARGE>
0

> <PUBCHEM_SUBSTANCE_ID>
310929607

> <PUBCHEM_SUBSTANCE_VERSION>
1

> <PUBCHEM_EXT_DATASOURCE_NAME>
4488

> <PUBCHEM_EXT_DATASOURCE_REGID>
SCHEMBL16106794

> <PUBCHEM_SUBSTANCE_COMMENT>
InChI=1S/C54H69FN8O9S/c1-6-33-30-54(33,50(66)61-73(68,69)53(5)22-23-53)60-47(64)42-29-35-31-63(42)49(65)45(52(2,3)4)59-51(67)72-43-27-32(43)15-8-7-9-17-37-44(36-16-10-11-18-38(36)58-48(37)71-35)70-26-14-25-62-24-13-12-19-41(62)46-56-39-21-20-34(55)28-40(39)57-46/h6,10-11,16,18,20-21,28,32-33,35,41-43,45H,1,7-9,12-15,17,19,22-27,29-31H2,2-5H3,(H,56,57)(H,59,67)(H,60,64)(H,61,66)/t32-,33-,35-,41?,42+,43-,45-,54-/m1/s1
InChIKey=QEPQSPGGZQBRAC-JWZAKJLFSA-N

> <PUBCHEM_SUBSTANCE_SYNONYM>
SCHEMBL16106794

> <PUBCHEM_XREF_EXT_ID>
SCHEMBL16106794

> <PUBCHEM_EXT_DATASOURCE_URL>
https://www.surechembl.org/

> <PUBCHEM_EXT_SUBSTANCE_URL>
https://www.surechembl.org/chemical/SCHEMBL16106794

> <PUBCHEM_CID_ASSOCIATIONS>
117598915  1

> <PUBCHEM_COORDINATE_TYPE>
1
3

> <PUBCHEM_BONDANNOTATIONS>
20  12  5
20  25  6
21  31  6
22  74  5
23  75  6
29  28  5
32  76  5
39  43  6

$$$$
