310949149
  -OEChem-07211613022D

 32 36  0     1  0  0  0  0  0999 V2000
    0.2716    2.6957    0.0000 F   0  0  0  0  0  0  0  0  0  0  0  0
    0.6135    1.6496    0.0000 F   0  0  0  0  0  0  0  0  0  0  0  0
   -0.4526    1.3278    0.0000 F   0  0  0  0  0  0  0  0  0  0  0  0
   -2.3035   -2.5750    0.0000 O   0  0  0  0  0  0  0  0  0  0  0  0
    0.9958   -0.0402    0.0000 O   0  0  0  0  0  0  0  0  0  0  0  0
   -1.5590   -1.3278    0.0000 N   0  0  0  0  0  0  0  0  0  0  0  0
   -0.0302   -2.3135    0.0000 N   0  0  0  0  0  0  0  0  0  0  0  0
   -0.8349   -3.3797    0.0000 N   0  0  0  0  0  0  0  0  0  0  0  0
   -0.0302   -3.6412    0.0000 N   0  0  0  0  0  0  0  0  0  0  0  0
    2.3035   -0.6236    0.0000 N   0  0  0  0  0  0  0  0  0  0  0  0
   -0.7946   -2.5549    0.0000 C   0  0  0  0  0  0  0  0  0  0  0  0
   -1.1567   -0.0402    0.0000 C   0  0  3  0  0  0  0  0  0  0  0  0
   -1.9815   -0.0201    0.0000 C   0  0  3  0  0  0  0  0  0  0  0  0
   -1.5590   -2.1324    0.0000 C   0  0  0  0  0  0  0  0  0  0  0  0
   -1.5792    1.1869    0.0000 C   0  0  0  0  0  0  0  0  0  0  0  0
    0.4727   -2.9371    0.0000 C   0  0  0  0  0  0  0  0  0  0  0  0
   -0.8953   -0.8651    0.0000 C   0  0  0  0  0  0  0  0  0  0  0  0
   -2.2229   -0.8449    0.0000 C   0  0  0  0  0  0  0  0  0  0  0  0
   -1.5590    2.0519    0.0000 C   0  0  0  0  0  0  0  0  0  0  0  0
   -0.8953    0.7242    0.0000 C   0  0  0  0  0  0  0  0  0  0  0  0
   -2.2430    0.7040    0.0000 C   0  0  0  0  0  0  0  0  0  0  0  0
   -0.8550    2.4141    0.0000 C   0  0  0  0  0  0  0  0  0  0  0  0
    0.2917   -1.5692    0.0000 C   0  0  0  0  0  0  0  0  0  0  0  0
    1.1366   -1.4685    0.0000 C   0  0  0  0  0  0  0  0  0  0  0  0
   -0.1106    2.0117    0.0000 C   0  0  0  0  0  0  0  0  0  0  0  0
    1.2976   -2.8767    0.0000 C   0  0  0  0  0  0  0  0  0  0  0  0
   -2.2834    2.4342    0.0000 C   0  0  0  0  0  0  0  0  0  0  0  0
    1.6396   -2.1525    0.0000 C   0  0  0  0  0  0  0  0  0  0  0  0
   -0.8550    3.2388    0.0000 C   0  0  0  0  0  0  0  0  0  0  0  0
    1.4987   -0.7242    0.0000 C   0  0  0  0  0  0  0  0  0  0  0  0
   -2.2633    3.2589    0.0000 C   0  0  0  0  0  0  0  0  0  0  0  0
   -1.5389    3.6412    0.0000 C   0  0  0  0  0  0  0  0  0  0  0  0
  1 25  1  0  0  0  0
  2 25  1  0  0  0  0
  3 25  1  0  0  0  0
  4 14  2  0  0  0  0
  5 30  2  0  0  0  0
  6 14  1  0  0  0  0
  6 17  1  0  0  0  0
  6 18  1  0  0  0  0
  7 11  1  0  0  0  0
  7 16  1  0  0  0  0
  7 23  1  0  0  0  0
  8  9  1  0  0  0  0
  8 11  2  0  0  0  0
  9 16  2  0  0  0  0
 10 30  1  0  0  0  0
 11 14  1  0  0  0  0
 12 13  1  0  0  0  0
 12 17  1  0  0  0  0
 12 20  1  1  0  0  0
 13 18  1  0  0  0  0
 13 21  1  0  0  0  0
 15 19  1  0  0  0  0
 15 20  1  0  0  0  0
 15 21  1  1  0  0  0
 16 26  1  0  0  0  0
 19 22  2  0  0  0  0
 19 27  1  0  0  0  0
 22 25  1  0  0  0  0
 22 29  1  0  0  0  0
 23 24  2  0  0  0  0
 24 28  1  0  0  0  0
 24 30  1  0  0  0  0
 26 28  2  0  0  0  0
 27 31  2  0  0  0  0
 29 32  2  0  0  0  0
 31 32  1  0  0  0  0
M  END
> <PUBCHEM_COMPOUND_ID_TYPE>
0

> <PUBCHEM_TOTAL_CHARGE>
0

> <PUBCHEM_SUBSTANCE_ID>
310949149

> <PUBCHEM_SUBSTANCE_VERSION>
1

> <PUBCHEM_EXT_DATASOURCE_NAME>
4488

> <PUBCHEM_EXT_DATASOURCE_REGID>
SCHEMBL16127339

> <PUBCHEM_SUBSTANCE_COMMENT>
InChI=1S/C22H20F3N5O2/c23-22(24,25)17-4-2-1-3-16(17)13-7-14-9-29(10-15(14)8-13)21(32)20-28-27-18-6-5-12(19(26)31)11-30(18)20/h1-6,11,13-15H,7-10H2,(H2,26,31)/t13-,14-,15?/m0/s1
InChIKey=CHIDGONJRHKWLM-ZYOSVBKOSA-N

> <PUBCHEM_SUBSTANCE_SYNONYM>
SCHEMBL16127339

> <PUBCHEM_XREF_EXT_ID>
SCHEMBL16127339

> <PUBCHEM_EXT_DATASOURCE_URL>
https://www.surechembl.org/

> <PUBCHEM_EXT_SUBSTANCE_URL>
https://www.surechembl.org/chemical/SCHEMBL16127339

> <PUBCHEM_CID_ASSOCIATIONS>
117614644  1

> <PUBCHEM_COORDINATE_TYPE>
1
3

> <PUBCHEM_BONDANNOTATIONS>
12  20  5
15  21  5

$$$$
