310941369
  -OEChem-07211613022D

 22 23  0     1  0  0  0  0  0999 V2000
    2.0791    0.6217    0.0000 O   0  0  0  0  0  0  0  0  0  0  0  0
    0.6435   -1.0448    0.0000 O   0  0  0  0  0  0  0  0  0  0  0  0
    1.2171   -2.0203    0.0000 O   0  0  0  0  0  0  0  0  0  0  0  0
    0.7231   -2.8327    0.0000 O   0  0  0  0  0  0  0  0  0  0  0  0
   -0.7920   -0.2198    0.0000 N   0  0  0  0  0  0  0  0  0  0  0  0
    1.3860    0.2257    0.0000 C   0  0  3  0  0  0  0  0  0  0  0  0
    0.6600   -0.1868    0.0000 C   0  0  0  0  0  0  0  0  0  0  0  0
    2.0791   -0.1868    0.0000 C   0  0  0  0  0  0  0  0  0  0  0  0
   -0.0660    0.2092    0.0000 C   0  0  3  0  0  0  0  0  0  0  0  0
    0.9570    0.9352    0.0000 C   0  0  0  0  0  0  0  0  0  0  0  0
   -0.0660    1.0342    0.0000 C   0  0  0  0  0  0  0  0  0  0  0  0
   -0.8085    1.4632    0.0000 C   0  0  0  0  0  0  0  0  0  0  0  0
    0.7231   -2.3057    0.0000 C   0  0  0  0  0  0  0  0  0  0  0  0
   -0.8745    2.2717    0.0000 C   0  0  0  0  0  0  0  0  0  0  0  0
   -1.5346    1.1167    0.0000 C   0  0  0  0  0  0  0  0  0  0  0  0
    1.2281   -1.4714    0.0000 C   0  0  0  0  0  0  0  0  0  0  0  0
   -1.6830    2.4367    0.0000 C   0  0  0  0  0  0  0  0  0  0  0  0
   -2.0791    1.7107    0.0000 C   0  0  0  0  0  0  0  0  0  0  0  0
   -0.2640    2.8327    0.0000 C   0  0  0  0  0  0  0  0  0  0  0  0
    1.7221   -1.4494    0.0000 C   0  0  0  0  0  0  0  0  0  0  0  0
    0.7231   -1.4714    0.0000 C   0  0  0  0  0  0  0  0  0  0  0  0
    1.2171   -0.9334    0.0000 C   0  0  0  0  0  0  0  0  0  0  0  0
  1  6  1  0  0  0  0
  1  8  1  0  0  0  0
  2  7  2  0  0  0  0
  3 13  1  0  0  0  0
  3 16  1  0  0  0  0
  4 13  2  0  0  0  0
  9  5  1  1  0  0  0
  5 13  1  0  0  0  0
  6  7  1  6  0  0  0
  6  8  1  0  0  0  0
  6 10  1  1  0  0  0
  7  9  1  0  0  0  0
  9 11  1  0  0  0  0
 11 12  1  0  0  0  0
 12 14  2  0  0  0  0
 12 15  1  0  0  0  0
 14 17  1  0  0  0  0
 14 19  1  0  0  0  0
 15 18  1  0  0  0  0
 16 20  1  0  0  0  0
 16 21  1  0  0  0  0
 16 22  1  0  0  0  0
 17 18  1  0  0  0  0
M  END
> <PUBCHEM_COMPOUND_ID_TYPE>
0

> <PUBCHEM_TOTAL_CHARGE>
0

> <PUBCHEM_SUBSTANCE_ID>
310941369

> <PUBCHEM_SUBSTANCE_VERSION>
1

> <PUBCHEM_EXT_DATASOURCE_NAME>
4488

> <PUBCHEM_EXT_DATASOURCE_REGID>
SCHEMBL16119329

> <PUBCHEM_SUBSTANCE_COMMENT>
InChI=1S/C17H27NO4/c1-11-7-6-8-12(11)9-13(14(19)17(5)10-21-17)18-15(20)22-16(2,3)4/h13H,6-10H2,1-5H3,(H,18,20)/t13-,17+/m0/s1
InChIKey=TXNZQCZTYATWAG-SUMWQHHRSA-N

> <PUBCHEM_SUBSTANCE_SYNONYM>
SCHEMBL16119329

> <PUBCHEM_XREF_EXT_ID>
SCHEMBL16119329

> <PUBCHEM_EXT_DATASOURCE_URL>
https://www.surechembl.org/

> <PUBCHEM_EXT_SUBSTANCE_URL>
https://www.surechembl.org/chemical/SCHEMBL16119329

> <PUBCHEM_CID_ASSOCIATIONS>
117608212  1

> <PUBCHEM_COORDINATE_TYPE>
1
3

> <PUBCHEM_BONDANNOTATIONS>
9  5  5
6  10  5
6  7  6

$$$$
