310945882
  -OEChem-07211613022D

 37 39  0     1  0  0  0  0  0999 V2000
   -3.9421   -0.0416    0.0000 F   0  0  0  0  0  0  0  0  0  0  0  0
   -3.9421   -0.8730    0.0000 F   0  0  0  0  0  0  0  0  0  0  0  0
   -3.2216   -1.2886    0.0000 F   0  0  0  0  0  0  0  0  0  0  0  0
    3.6373    0.6651    0.0000 O   0  0  0  0  0  0  0  0  0  0  0  0
    2.5149   -1.3025    0.0000 O   0  0  0  0  0  0  0  0  0  0  0  0
   -2.9306    0.6651    0.0000 O   0  0  0  0  0  0  0  0  0  0  0  0
   -1.7944   -1.3025    0.0000 O   0  0  0  0  0  0  0  0  0  0  0  0
    0.3533    0.7759    0.0000 O   0  0  0  0  0  0  0  0  0  0  0  0
    2.5149   -2.9514    0.0000 O   0  0  0  0  0  0  0  0  0  0  0  0
    1.0739   -0.4573    0.0000 N   0  0  0  0  0  0  0  0  0  0  0  0
   -1.0739   -0.0416    0.0000 N   0  0  0  0  0  0  0  0  0  0  0  0
    3.2216    0.0000    0.0000 C   0  0  3  0  0  0  0  0  0  0  0  0
    2.5149   -0.4157    0.0000 C   0  0  0  0  0  0  0  0  0  0  0  0
    2.8475    0.6790    0.0000 C   0  0  0  0  0  0  0  0  0  0  0  0
   -2.5011   -0.0139    0.0000 C   0  0  3  0  0  0  0  0  0  0  0  0
    1.7805   -0.0139    0.0000 C   0  0  3  0  0  0  0  0  0  0  0  0
   -3.2216   -0.4434    0.0000 C   0  0  0  0  0  0  0  0  0  0  0  0
   -1.7805   -0.4157    0.0000 C   0  0  0  0  0  0  0  0  0  0  0  0
   -0.3395   -0.4296    0.0000 C   0  0  3  0  0  0  0  0  0  0  0  0
    0.3533   -0.0416    0.0000 C   0  0  0  0  0  0  0  0  0  0  0  0
    3.9421   -0.4296    0.0000 C   0  0  0  0  0  0  0  0  0  0  0  0
    1.8082    1.3025    0.0000 C   0  0  0  0  0  0  0  0  0  0  0  0
   -0.3672   -1.2747    0.0000 C   0  0  0  0  0  0  0  0  0  0  0  0
   -2.0853    0.6928    0.0000 C   0  0  0  0  0  0  0  0  0  0  0  0
    1.0877    1.7320    0.0000 C   0  0  0  0  0  0  0  0  0  0  0  0
    0.3810   -1.6766    0.0000 C   0  0  0  0  0  0  0  0  0  0  0  0
    1.0877    2.5357    0.0000 C   0  0  0  0  0  0  0  0  0  0  0  0
    0.3672    1.3164    0.0000 C   0  0  0  0  0  0  0  0  0  0  0  0
    1.0739   -1.2747    0.0000 C   0  0  0  0  0  0  0  0  0  0  0  0
    0.3810   -2.5080    0.0000 C   0  0  0  0  0  0  0  0  0  0  0  0
    1.7944   -2.4941    0.0000 C   0  0  0  0  0  0  0  0  0  0  0  0
    1.7944   -1.6766    0.0000 C   0  0  0  0  0  0  0  0  0  0  0  0
    1.0877   -2.9098    0.0000 C   0  0  0  0  0  0  0  0  0  0  0  0
    0.3533    2.9514    0.0000 C   0  0  0  0  0  0  0  0  0  0  0  0
   -0.3395    1.7182    0.0000 C   0  0  0  0  0  0  0  0  0  0  0  0
   -0.3395    2.5357    0.0000 C   0  0  0  0  0  0  0  0  0  0  0  0
    3.2493   -2.5219    0.0000 C   0  0  0  0  0  0  0  0  0  0  0  0
  1 17  1  0  0  0  0
  2 17  1  0  0  0  0
  3 17  1  0  0  0  0
  4 12  1  0  0  0  0
  4 14  1  0  0  0  0
  5 13  2  0  0  0  0
 15  6  1  6  0  0  0
  7 18  2  0  0  0  0
  8 20  2  0  0  0  0
  9 31  1  0  0  0  0
  9 37  1  0  0  0  0
 16 10  1  1  0  0  0
 10 20  1  0  0  0  0
 11 18  1  0  0  0  0
 19 11  1  6  0  0  0
 12 13  1  1  0  0  0
 12 14  1  0  0  0  0
 12 21  1  6  0  0  0
 13 16  1  0  0  0  0
 15 17  1  0  0  0  0
 15 18  1  0  0  0  0
 15 24  1  1  0  0  0
 16 22  1  0  0  0  0
 19 20  1  0  0  0  0
 19 23  1  0  0  0  0
 22 25  1  0  0  0  0
 23 26  1  0  0  0  0
 25 27  2  0  0  0  0
 25 28  1  0  0  0  0
 26 29  2  0  0  0  0
 26 30  1  0  0  0  0
 27 34  1  0  0  0  0
 28 35  2  0  0  0  0
 29 32  1  0  0  0  0
 30 33  2  0  0  0  0
 31 32  2  0  0  0  0
 31 33  1  0  0  0  0
 34 36  2  0  0  0  0
 35 36  1  0  0  0  0
M  END
> <PUBCHEM_COMPOUND_ID_TYPE>
0

> <PUBCHEM_TOTAL_CHARGE>
0

> <PUBCHEM_SUBSTANCE_ID>
310945882

> <PUBCHEM_SUBSTANCE_VERSION>
1

> <PUBCHEM_EXT_DATASOURCE_NAME>
4488

> <PUBCHEM_EXT_DATASOURCE_REGID>
SCHEMBL16123987

> <PUBCHEM_SUBSTANCE_COMMENT>
InChI=1S/C26H29F3N2O6/c1-24(15-37-24)21(32)19(13-16-7-5-4-6-8-16)30-22(33)20(14-17-9-11-18(36-3)12-10-17)31-23(34)25(2,35)26(27,28)29/h4-12,19-20,35H,13-15H2,1-3H3,(H,30,33)(H,31,34)/t19-,20-,24+,25+/m0/s1
InChIKey=ZQZIGAYJRNPJDE-LDTXMFMOSA-N

> <PUBCHEM_SUBSTANCE_SYNONYM>
SCHEMBL16123987

> <PUBCHEM_XREF_EXT_ID>
SCHEMBL16123987

> <PUBCHEM_EXT_DATASOURCE_URL>
https://www.surechembl.org/

> <PUBCHEM_EXT_SUBSTANCE_URL>
https://www.surechembl.org/chemical/SCHEMBL16123987

> <PUBCHEM_CID_ASSOCIATIONS>
117611866  1

> <PUBCHEM_COORDINATE_TYPE>
1
3

> <PUBCHEM_BONDANNOTATIONS>
16  10  5
19  11  6
12  13  5
12  21  6
15  24  5
15  6  6

$$$$
