310949215
  -OEChem-07211613022D

 79 90  0     0  0  0  0  0  0999 V2000
    0.0000    2.0622    0.0000 N   0  0  0  0  0  0  0  0  0  0  0  0
   -1.4391   -0.4475    0.0000 N   0  0  0  0  0  0  0  0  0  0  0  0
    1.4391   -0.4651    0.0000 N   0  0  0  0  0  0  0  0  0  0  0  0
    2.1412    1.5883    0.0000 N   0  0  0  0  0  0  0  0  0  0  0  0
   -2.1236    1.5883    0.0000 N   0  0  0  0  0  0  0  0  0  0  0  0
   -0.0351   -2.0973    0.0000 N   0  0  0  0  0  0  0  0  0  0  0  0
    0.0000    1.2373    0.0000 C   0  0  0  0  0  0  0  0  0  0  0  0
   -0.7371   -0.0263    0.0000 C   0  0  0  0  0  0  0  0  0  0  0  0
    0.6844   -0.0263    0.0000 C   0  0  0  0  0  0  0  0  0  0  0  0
    0.7196    0.8161    0.0000 C   0  0  0  0  0  0  0  0  0  0  0  0
   -0.7196    0.8161    0.0000 C   0  0  0  0  0  0  0  0  0  0  0  0
    0.0175   -0.4300    0.0000 C   0  0  0  0  0  0  0  0  0  0  0  0
    0.6494    2.5887    0.0000 C   0  0  0  0  0  0  0  0  0  0  0  0
   -0.7021    2.5711    0.0000 C   0  0  0  0  0  0  0  0  0  0  0  0
   -2.2289   -0.0965    0.0000 C   0  0  0  0  0  0  0  0  0  0  0  0
    2.1762   -0.1140    0.0000 C   0  0  0  0  0  0  0  0  0  0  0  0
   -1.5444   -1.2724    0.0000 C   0  0  0  0  0  0  0  0  0  0  0  0
    1.5444   -1.2724    0.0000 C   0  0  0  0  0  0  0  0  0  0  0  0
    0.4036    3.3434    0.0000 C   0  0  0  0  0  0  0  0  0  0  0  0
   -0.4387    3.3609    0.0000 C   0  0  0  0  0  0  0  0  0  0  0  0
   -2.7905   -0.6932    0.0000 C   0  0  0  0  0  0  0  0  0  0  0  0
    2.7379   -0.7283    0.0000 C   0  0  0  0  0  0  0  0  0  0  0  0
   -2.3693   -1.4479    0.0000 C   0  0  0  0  0  0  0  0  0  0  0  0
    2.3166   -1.4655    0.0000 C   0  0  0  0  0  0  0  0  0  0  0  0
    1.4391    1.2197    0.0000 C   0  0  0  0  0  0  0  0  0  0  0  0
   -1.4391    1.2197    0.0000 C   0  0  0  0  0  0  0  0  0  0  0  0
   -0.0175   -1.2900    0.0000 C   0  0  0  0  0  0  0  0  0  0  0  0
    1.4567    2.3957    0.0000 C   0  0  0  0  0  0  0  0  0  0  0  0
   -1.4743    2.4132    0.0000 C   0  0  0  0  0  0  0  0  0  0  0  0
   -2.4922    0.6932    0.0000 C   0  0  0  0  0  0  0  0  0  0  0  0
    2.4571    0.6582    0.0000 C   0  0  0  0  0  0  0  0  0  0  0  0
   -1.0004   -1.8867    0.0000 C   0  0  0  0  0  0  0  0  0  0  0  0
    1.0179   -1.8691    0.0000 C   0  0  0  0  0  0  0  0  0  0  0  0
    0.9478    3.9401    0.0000 C   0  0  0  0  0  0  0  0  0  0  0  0
   -0.9653    3.9401    0.0000 C   0  0  0  0  0  0  0  0  0  0  0  0
   -3.5803   -0.5178    0.0000 C   0  0  0  0  0  0  0  0  0  0  0  0
    3.5276   -0.5704    0.0000 C   0  0  0  0  0  0  0  0  0  0  0  0
   -2.5975   -2.2552    0.0000 C   0  0  0  0  0  0  0  0  0  0  0  0
    2.5800   -2.2552    0.0000 C   0  0  0  0  0  0  0  0  0  0  0  0
    1.7550    3.7997    0.0000 C   0  0  0  0  0  0  0  0  0  0  0  0
   -1.7726    3.8172    0.0000 C   0  0  0  0  0  0  0  0  0  0  0  0
   -3.8436    0.2545    0.0000 C   0  0  0  0  0  0  0  0  0  0  0  0
    3.7733    0.2369    0.0000 C   0  0  0  0  0  0  0  0  0  0  0  0
   -2.0709   -2.8519    0.0000 C   0  0  0  0  0  0  0  0  0  0  0  0
    2.0358   -2.8695    0.0000 C   0  0  0  0  0  0  0  0  0  0  0  0
    2.0183    2.9748    0.0000 C   0  0  0  0  0  0  0  0  0  0  0  0
   -2.0358    3.0099    0.0000 C   0  0  0  0  0  0  0  0  0  0  0  0
   -3.2995    0.8512    0.0000 C   0  0  0  0  0  0  0  0  0  0  0  0
    3.2468    0.8161    0.0000 C   0  0  0  0  0  0  0  0  0  0  0  0
   -1.2461   -2.6589    0.0000 C   0  0  0  0  0  0  0  0  0  0  0  0
    1.2285   -2.6765    0.0000 C   0  0  0  0  0  0  0  0  0  0  0  0
    2.3166    4.3964    0.0000 C   0  0  0  0  0  0  0  0  0  0  0  0
   -2.3518    4.4490    0.0000 C   0  0  0  0  0  0  0  0  0  0  0  0
   -4.6684    0.4651    0.0000 C   0  0  0  0  0  0  0  0  0  0  0  0
    4.6158    0.3773    0.0000 C   0  0  0  0  0  0  0  0  0  0  0  0
   -2.3518   -3.6417    0.0000 C   0  0  0  0  0  0  0  0  0  0  0  0
    2.2815   -3.6417    0.0000 C   0  0  0  0  0  0  0  0  0  0  0  0
   -3.1240   -3.8172    0.0000 C   0  0  0  0  0  0  0  0  0  0  0  0
   -1.7726   -4.2736    0.0000 C   0  0  0  0  0  0  0  0  0  0  0  0
    1.7375   -4.2560    0.0000 C   0  0  0  0  0  0  0  0  0  0  0  0
    3.0538   -3.8172    0.0000 C   0  0  0  0  0  0  0  0  0  0  0  0
    2.0534    5.1862    0.0000 C   0  0  0  0  0  0  0  0  0  0  0  0
    3.1065    4.2560    0.0000 C   0  0  0  0  0  0  0  0  0  0  0  0
    2.7905    3.6944    0.0000 C   0  0  0  0  0  0  0  0  0  0  0  0
   -3.1591    4.2736    0.0000 C   0  0  0  0  0  0  0  0  0  0  0  0
   -2.0885    5.2213    0.0000 C   0  0  0  0  0  0  0  0  0  0  0  0
   -1.5620    4.8001    0.0000 C   0  0  0  0  0  0  0  0  0  0  0  0
   -5.2301   -0.2018    0.0000 C   0  0  0  0  0  0  0  0  0  0  0  0
   -4.8966    1.2197    0.0000 C   0  0  0  0  0  0  0  0  0  0  0  0
   -4.2648    1.1671    0.0000 C   0  0  0  0  0  0  0  0  0  0  0  0
    4.8966    1.1847    0.0000 C   0  0  0  0  0  0  0  0  0  0  0  0
    5.2301   -0.2369    0.0000 C   0  0  0  0  0  0  0  0  0  0  0  0
    4.6158   -0.4300    0.0000 C   0  0  0  0  0  0  0  0  0  0  0  0
   -3.3872   -4.6070    0.0000 C   0  0  0  0  0  0  0  0  0  0  0  0
   -2.0534   -5.0633    0.0000 C   0  0  0  0  0  0  0  0  0  0  0  0
    1.9657   -5.0458    0.0000 C   0  0  0  0  0  0  0  0  0  0  0  0
    3.3170   -4.6245    0.0000 C   0  0  0  0  0  0  0  0  0  0  0  0
   -2.8432   -5.2037    0.0000 C   0  0  0  0  0  0  0  0  0  0  0  0
    2.7905   -5.2213    0.0000 C   0  0  0  0  0  0  0  0  0  0  0  0
  1  7  1  0  0  0  0
  1 13  1  0  0  0  0
  1 14  1  0  0  0  0
  2  8  1  0  0  0  0
  2 15  1  0  0  0  0
  2 17  1  0  0  0  0
  3  9  1  0  0  0  0
  3 16  1  0  0  0  0
  3 18  1  0  0  0  0
  4 25  3  0  0  0  0
  5 26  3  0  0  0  0
  6 27  3  0  0  0  0
  7 10  2  0  0  0  0
  7 11  1  0  0  0  0
  8 11  2  0  0  0  0
  8 12  1  0  0  0  0
  9 10  1  0  0  0  0
  9 12  2  0  0  0  0
 10 25  1  0  0  0  0
 11 26  1  0  0  0  0
 12 27  1  0  0  0  0
 13 19  2  0  0  0  0
 13 28  1  0  0  0  0
 14 20  2  0  0  0  0
 14 29  1  0  0  0  0
 15 21  2  0  0  0  0
 15 30  1  0  0  0  0
 16 22  2  0  0  0  0
 16 31  1  0  0  0  0
 17 23  2  0  0  0  0
 17 32  1  0  0  0  0
 18 24  2  0  0  0  0
 18 33  1  0  0  0  0
 19 20  1  0  0  0  0
 19 34  1  0  0  0  0
 20 35  1  0  0  0  0
 21 23  1  0  0  0  0
 21 36  1  0  0  0  0
 22 24  1  0  0  0  0
 22 37  1  0  0  0  0
 23 38  1  0  0  0  0
 24 39  1  0  0  0  0
 28 46  2  0  0  0  0
 29 47  2  0  0  0  0
 30 48  2  0  0  0  0
 31 49  2  0  0  0  0
 32 50  2  0  0  0  0
 33 51  2  0  0  0  0
 34 40  2  0  0  0  0
 35 41  2  0  0  0  0
 36 42  2  0  0  0  0
 37 43  2  0  0  0  0
 38 44  2  0  0  0  0
 39 45  2  0  0  0  0
 40 46  1  0  0  0  0
 40 52  1  0  0  0  0
 41 47  1  0  0  0  0
 41 53  1  0  0  0  0
 42 48  1  0  0  0  0
 42 54  1  0  0  0  0
 43 49  1  0  0  0  0
 43 55  1  0  0  0  0
 44 50  1  0  0  0  0
 44 56  1  0  0  0  0
 45 51  1  0  0  0  0
 45 57  1  0  0  0  0
 52 62  1  0  0  0  0
 52 63  1  0  0  0  0
 52 64  1  0  0  0  0
 53 65  1  0  0  0  0
 53 66  1  0  0  0  0
 53 67  1  0  0  0  0
 54 68  1  0  0  0  0
 54 69  1  0  0  0  0
 54 70  1  0  0  0  0
 55 71  1  0  0  0  0
 55 72  1  0  0  0  0
 55 73  1  0  0  0  0
 56 58  2  0  0  0  0
 56 59  1  0  0  0  0
 57 60  2  0  0  0  0
 57 61  1  0  0  0  0
 58 74  1  0  0  0  0
 59 75  2  0  0  0  0
 60 76  1  0  0  0  0
 61 77  2  0  0  0  0
 74 78  2  0  0  0  0
 75 78  1  0  0  0  0
 76 79  2  0  0  0  0
 77 79  1  0  0  0  0
M  END
> <PUBCHEM_COMPOUND_ID_TYPE>
0

> <PUBCHEM_TOTAL_CHARGE>
0

> <PUBCHEM_SUBSTANCE_ID>
310949215

> <PUBCHEM_SUBSTANCE_VERSION>
1

> <PUBCHEM_EXT_DATASOURCE_NAME>
4488

> <PUBCHEM_EXT_DATASOURCE_REGID>
SCHEMBL16127405

> <PUBCHEM_SUBSTANCE_COMMENT>
InChI=1S/C73H64N6/c1-70(2,3)48-25-31-63-54(37-48)52-35-46(44-19-15-13-16-20-44)23-29-61(52)77(63)67-58(41-74)68(78-62-30-24-47(45-21-17-14-18-22-45)36-53(62)55-38-49(71(4,5)6)26-32-64(55)78)60(43-76)69(59(67)42-75)79-65-33-27-50(72(7,8)9)39-56(65)57-40-51(73(10,11)12)28-34-66(57)79/h13-40H,1-12H3
InChIKey=YWNCTWOQWAGOET-UHFFFAOYSA-N

> <PUBCHEM_SUBSTANCE_SYNONYM>
SCHEMBL16127405

> <PUBCHEM_XREF_EXT_ID>
SCHEMBL16127405

> <PUBCHEM_EXT_DATASOURCE_URL>
https://www.surechembl.org/

> <PUBCHEM_EXT_SUBSTANCE_URL>
https://www.surechembl.org/chemical/SCHEMBL16127405

> <PUBCHEM_CID_ASSOCIATIONS>
117614703  1

> <PUBCHEM_COORDINATE_TYPE>
1
3

$$$$
