310938652
  -OEChem-07211613022D

 42 45  0     1  0  0  0  0  0999 V2000
   -4.8628   -0.3198    0.0000 Cl  0  0  0  0  0  0  0  0  0  0  0  0
   -1.2701   -0.2381    0.0000 O   0  0  0  0  0  0  0  0  0  0  0  0
   -0.8576    1.9630    0.0000 O   0  0  0  0  0  0  0  0  0  0  0  0
   -3.6682   -0.8487    0.0000 O   0  0  0  0  0  0  0  0  0  0  0  0
   -4.0953   -2.4425    0.0000 O   0  0  0  0  0  0  0  0  0  0  0  0
   -0.0872   -0.9237    0.0000 O   0  0  0  0  0  0  0  0  0  0  0  0
   -4.4651    2.0727    0.0000 O   0  0  0  0  0  0  0  0  0  0  0  0
    3.6253   -1.6382    0.0000 O   0  0  0  0  0  0  0  0  0  0  0  0
   -2.0744    1.4321    0.0000 N   0  0  0  0  0  0  0  0  0  0  0  0
    1.1503   -0.2093    0.0000 N   0  0  0  0  0  0  0  0  0  0  0  0
   -2.7194    0.0927    0.0000 C   0  0  0  0  0  0  0  0  0  0  0  0
   -2.0744   -0.4217    0.0000 C   0  0  3  0  0  0  0  0  0  0  0  0
   -2.7194    0.9177    0.0000 C   0  0  0  0  0  0  0  0  0  0  0  0
   -2.2879   -1.2186    0.0000 C   0  0  0  0  0  0  0  0  0  0  0  0
   -1.2701    1.2485    0.0000 C   0  0  0  0  0  0  0  0  0  0  0  0
   -0.9122    0.5052    0.0000 C   0  0  3  0  0  0  0  0  0  0  0  0
   -3.0848   -1.4321    0.0000 C   0  0  0  0  0  0  0  0  0  0  0  0
   -3.4339   -0.3198    0.0000 C   0  0  0  0  0  0  0  0  0  0  0  0
   -3.4339    1.3302    0.0000 C   0  0  0  0  0  0  0  0  0  0  0  0
   -2.2879    2.2290    0.0000 C   0  0  0  0  0  0  0  0  0  0  0  0
   -4.1484    0.0927    0.0000 C   0  0  0  0  0  0  0  0  0  0  0  0
   -3.2984   -2.2290    0.0000 C   0  0  0  0  0  0  0  0  0  0  0  0
   -1.7046   -1.8019    0.0000 C   0  0  0  0  0  0  0  0  0  0  0  0
   -0.0872    0.5052    0.0000 C   0  0  0  0  0  0  0  0  0  0  0  0
   -3.0848    2.4425    0.0000 C   0  0  0  0  0  0  0  0  0  0  0  0
   -4.1484    0.9177    0.0000 C   0  0  0  0  0  0  0  0  0  0  0  0
    0.3253   -0.2093    0.0000 C   0  0  0  0  0  0  0  0  0  0  0  0
   -2.7150   -2.8123    0.0000 C   0  0  0  0  0  0  0  0  0  0  0  0
   -1.9181   -2.5988    0.0000 C   0  0  0  0  0  0  0  0  0  0  0  0
   -3.6682    1.8591    0.0000 C   0  0  0  0  0  0  0  0  0  0  0  0
   -3.6682    3.0259    0.0000 C   0  0  0  0  0  0  0  0  0  0  0  0
   -2.8713    3.2394    0.0000 C   0  0  0  0  0  0  0  0  0  0  0  0
    1.5628   -0.9237    0.0000 C   0  0  0  0  0  0  0  0  0  0  0  0
    1.5628    0.5052    0.0000 C   0  0  0  0  0  0  0  0  0  0  0  0
   -4.4651   -1.0622    0.0000 C   0  0  0  0  0  0  0  0  0  0  0  0
    2.8003   -0.2093    0.0000 C   0  0  0  0  0  0  0  0  0  0  0  0
    2.3878   -0.9237    0.0000 C   0  0  0  0  0  0  0  0  0  0  0  0
    2.3878    0.5052    0.0000 C   0  0  0  0  0  0  0  0  0  0  0  0
   -4.3088   -3.2394    0.0000 C   0  0  0  0  0  0  0  0  0  0  0  0
    3.6253   -0.2093    0.0000 C   0  0  0  0  0  0  0  0  0  0  0  0
    4.0378   -0.9237    0.0000 C   0  0  0  0  0  0  0  0  0  0  0  0
    4.8628   -0.9237    0.0000 C   0  0  0  0  0  0  0  0  0  0  0  0
  1 21  1  0  0  0  0
  2 12  1  0  0  0  0
  2 16  1  0  0  0  0
  3 15  2  0  0  0  0
  4 17  1  0  0  0  0
  4 35  1  0  0  0  0
  5 22  1  0  0  0  0
  5 39  1  0  0  0  0
  6 27  2  0  0  0  0
  7 30  1  0  0  0  0
  8 41  2  0  0  0  0
  9 13  1  0  0  0  0
  9 15  1  0  0  0  0
  9 20  1  0  0  0  0
 10 27  1  0  0  0  0
 10 33  1  0  0  0  0
 10 34  1  0  0  0  0
 11 12  1  0  0  0  0
 11 13  1  0  0  0  0
 11 18  2  0  0  0  0
 12 14  1  0  0  0  0
 13 19  2  0  0  0  0
 14 17  2  0  0  0  0
 14 23  1  0  0  0  0
 15 16  1  0  0  0  0
 16 24  1  1  0  0  0
 17 22  1  0  0  0  0
 18 21  1  0  0  0  0
 19 26  1  0  0  0  0
 20 25  1  0  0  0  0
 21 26  2  0  0  0  0
 22 28  2  0  0  0  0
 23 29  2  0  0  0  0
 24 27  1  0  0  0  0
 25 30  1  0  0  0  0
 25 31  1  0  0  0  0
 25 32  1  0  0  0  0
 28 29  1  0  0  0  0
 33 37  1  0  0  0  0
 34 38  1  0  0  0  0
 36 37  1  0  0  0  0
 36 38  1  0  0  0  0
 36 40  1  0  0  0  0
 40 41  1  0  0  0  0
 41 42  1  0  0  0  0
M  END
> <PUBCHEM_COMPOUND_ID_TYPE>
0

> <PUBCHEM_TOTAL_CHARGE>
0

> <PUBCHEM_SUBSTANCE_ID>
310938652

> <PUBCHEM_SUBSTANCE_VERSION>
1

> <PUBCHEM_EXT_DATASOURCE_NAME>
4488

> <PUBCHEM_EXT_DATASOURCE_REGID>
SCHEMBL16116566

> <PUBCHEM_SUBSTANCE_COMMENT>
InChI=1S/C32H41ClN2O7/c1-20(37)15-21-11-13-34(14-12-21)28(38)17-27-31(39)35(18-32(2,3)19-36)25-10-9-22(33)16-24(25)29(42-27)23-7-6-8-26(40-4)30(23)41-5/h6-10,16,21,27,29,36H,11-15,17-19H2,1-5H3/t27-,29?/m1/s1
InChIKey=JPRCVXNROHYTJL-SCBLGKRXSA-N

> <PUBCHEM_SUBSTANCE_SYNONYM>
SCHEMBL16116566

> <PUBCHEM_XREF_EXT_ID>
SCHEMBL16116566

> <PUBCHEM_EXT_DATASOURCE_URL>
https://www.surechembl.org/

> <PUBCHEM_EXT_SUBSTANCE_URL>
https://www.surechembl.org/chemical/SCHEMBL16116566

> <PUBCHEM_CID_ASSOCIATIONS>
117606084  1

> <PUBCHEM_COORDINATE_TYPE>
1
3

> <PUBCHEM_BONDANNOTATIONS>
16  24  5

$$$$
