310937414
  -OEChem-07211613022D

 26 30  0     0  0  0  0  0  0999 V2000
    2.5373   -4.5988    0.0000 O   0  0  0  0  0  0  0  0  0  0  0  0
    4.1627   -1.9823    0.0000 O   0  0  0  0  0  0  0  0  0  0  0  0
    1.7840   -2.5373    0.0000 N   0  0  0  0  0  0  0  0  0  0  0  0
    1.2686   -4.1627    0.0000 N   0  0  0  0  0  0  0  0  0  0  0  0
    2.0615   -5.2728    0.0000 N   0  0  0  0  0  0  0  0  0  0  0  0
    2.8148   -1.5858    0.0000 C   0  0  0  0  0  0  0  0  0  0  0  0
    3.3698   -2.1805    0.0000 C   0  0  0  0  0  0  0  0  0  0  0  0
    2.2994   -3.1320    0.0000 C   0  0  0  0  0  0  0  0  0  0  0  0
    3.0526   -0.7929    0.0000 C   0  0  0  0  0  0  0  0  0  0  0  0
    2.0615   -3.9249    0.0000 C   0  0  0  0  0  0  0  0  0  0  0  0
    3.1320   -2.9734    0.0000 C   0  0  0  0  0  0  0  0  0  0  0  0
    1.9823   -1.7444    0.0000 C   0  0  0  0  0  0  0  0  0  0  0  0
    2.8941    0.0000    0.0000 C   0  0  0  0  0  0  0  0  0  0  0  0
    3.6870   -0.2379    0.0000 C   0  0  0  0  0  0  0  0  0  0  0  0
    1.2686   -4.9953    0.0000 C   0  0  0  0  0  0  0  0  0  0  0  0
    4.4006   -1.1894    0.0000 C   0  0  0  0  0  0  0  0  0  0  0  0
    0.5947   -5.4710    0.0000 C   0  0  0  0  0  0  0  0  0  0  0  0
    5.1935   -1.0308    0.0000 C   0  0  0  0  0  0  0  0  0  0  0  0
    0.6740   -6.3036    0.0000 C   0  0  0  0  0  0  0  0  0  0  0  0
    5.7882   -0.4757    0.0000 C   0  0  0  0  0  0  0  0  0  0  0  0
    5.9864   -1.2686    0.0000 C   0  0  0  0  0  0  0  0  0  0  0  0
    0.0000   -6.7793    0.0000 C   0  0  0  0  0  0  0  0  0  0  0  0
    1.4272   -6.6207    0.0000 C   0  0  0  0  0  0  0  0  0  0  0  0
    0.1189   -7.5722    0.0000 C   0  0  0  0  0  0  0  0  0  0  0  0
    1.5065   -7.4533    0.0000 C   0  0  0  0  0  0  0  0  0  0  0  0
    0.8325   -7.9290    0.0000 C   0  0  0  0  0  0  0  0  0  0  0  0
  1  5  1  0  0  0  0
  1 10  1  0  0  0  0
  2  7  1  0  0  0  0
  2 16  1  0  0  0  0
  3  8  1  0  0  0  0
  3 12  2  0  0  0  0
  4 10  2  0  0  0  0
  4 15  1  0  0  0  0
  5 15  2  0  0  0  0
  6  7  2  0  0  0  0
  6  9  1  0  0  0  0
  6 12  1  0  0  0  0
  7 11  1  0  0  0  0
  8 10  1  0  0  0  0
  8 11  2  0  0  0  0
  9 13  1  0  0  0  0
  9 14  1  0  0  0  0
 13 14  1  0  0  0  0
 15 17  1  0  0  0  0
 16 18  1  0  0  0  0
 17 19  1  0  0  0  0
 18 20  1  0  0  0  0
 18 21  1  0  0  0  0
 19 22  2  0  0  0  0
 19 23  1  0  0  0  0
 20 21  1  0  0  0  0
 22 24  1  0  0  0  0
 23 25  2  0  0  0  0
 24 26  2  0  0  0  0
 25 26  1  0  0  0  0
M  END
> <PUBCHEM_COMPOUND_ID_TYPE>
0

> <PUBCHEM_TOTAL_CHARGE>
0

> <PUBCHEM_SUBSTANCE_ID>
310937414

> <PUBCHEM_SUBSTANCE_VERSION>
1

> <PUBCHEM_EXT_DATASOURCE_NAME>
4488

> <PUBCHEM_EXT_DATASOURCE_REGID>
SCHEMBL16115172

> <PUBCHEM_SUBSTANCE_COMMENT>
InChI=1S/C21H21N3O2/c1-2-4-14(5-3-1)10-20-23-21(26-24-20)18-11-19(25-13-15-6-7-15)17(12-22-18)16-8-9-16/h1-5,11-12,15-16H,6-10,13H2
InChIKey=IGDPJCVOFYOBAV-UHFFFAOYSA-N

> <PUBCHEM_SUBSTANCE_SYNONYM>
SCHEMBL16115172

> <PUBCHEM_XREF_EXT_ID>
SCHEMBL16115172

> <PUBCHEM_EXT_DATASOURCE_URL>
https://www.surechembl.org/

> <PUBCHEM_EXT_SUBSTANCE_URL>
https://www.surechembl.org/chemical/SCHEMBL16115172

> <PUBCHEM_CID_ASSOCIATIONS>
86274714  1

> <PUBCHEM_COORDINATE_TYPE>
1
3

$$$$
