310944540
  -OEChem-07211613022D

 24 25  0     1  0  0  0  0  0999 V2000
   -3.4992    1.6408    0.0000 I   0  0  0  0  0  0  0  0  0  0  0  0
   -3.6733   -0.0248    0.0000 Cl  0  0  0  0  0  0  0  0  0  0  0  0
   -0.6402   -0.0248    0.0000 O   0  0  0  0  0  0  0  0  0  0  0  0
    0.7894    2.4612    0.0000 O   0  0  0  0  0  0  0  0  0  0  0  0
    3.6733   -0.8453    0.0000 O   0  0  0  0  0  0  0  0  0  0  0  0
    1.5228    1.2306    0.0000 N   0  0  0  0  0  0  0  0  0  0  0  0
   -0.6277    1.6408    0.0000 N   0  0  0  0  0  0  0  0  0  0  0  0
    2.2562   -0.8453    0.0000 N   0  0  0  0  0  0  0  0  0  0  0  0
   -1.3487    1.2306    0.0000 C   0  0  0  0  0  0  0  0  0  0  0  0
   -1.3611    0.4102    0.0000 C   0  0  0  0  0  0  0  0  0  0  0  0
   -2.7907    1.2306    0.0000 C   0  0  0  0  0  0  0  0  0  0  0  0
   -2.7907    0.3977    0.0000 C   0  0  0  0  0  0  0  0  0  0  0  0
   -2.0697    1.6284    0.0000 C   0  0  0  0  0  0  0  0  0  0  0  0
    0.7894    1.6284    0.0000 C   0  0  0  0  0  0  0  0  0  0  0  0
   -2.0573   -0.0125    0.0000 C   0  0  0  0  0  0  0  0  0  0  0  0
    2.2437   -0.0125    0.0000 C   0  0  3  0  0  0  0  0  0  0  0  0
    1.5352    0.3977    0.0000 C   0  0  0  0  0  0  0  0  0  0  0  0
    0.0932    1.2306    0.0000 C   0  0  0  0  0  0  0  0  0  0  0  0
    2.2562    1.6408    0.0000 C   0  0  0  0  0  0  0  0  0  0  0  0
    2.9647    0.3854    0.0000 C   0  0  0  0  0  0  0  0  0  0  0  0
    2.9647    1.2182    0.0000 C   0  0  0  0  0  0  0  0  0  0  0  0
    2.9647   -1.2679    0.0000 C   0  0  0  0  0  0  0  0  0  0  0  0
    2.9647   -2.1008    0.0000 C   0  0  0  0  0  0  0  0  0  0  0  0
    2.2189   -2.4612    0.0000 C   0  0  0  0  0  0  0  0  0  0  0  0
  1 11  1  0  0  0  0
  2 12  1  0  0  0  0
  3 10  1  0  0  0  0
  4 14  2  0  0  0  0
  5 22  2  0  0  0  0
  6 14  1  0  0  0  0
  6 17  1  0  0  0  0
  6 19  1  0  0  0  0
  7  9  1  0  0  0  0
  7 18  1  0  0  0  0
 16  8  1  1  0  0  0
  8 22  1  0  0  0  0
  9 10  1  0  0  0  0
  9 13  2  0  0  0  0
 10 15  2  0  0  0  0
 11 12  2  0  0  0  0
 11 13  1  0  0  0  0
 12 15  1  0  0  0  0
 14 18  1  0  0  0  0
 16 17  1  0  0  0  0
 16 20  1  0  0  0  0
 19 21  1  0  0  0  0
 20 21  1  0  0  0  0
 22 23  1  0  0  0  0
 23 24  2  0  0  0  0
M  END
> <PUBCHEM_COMPOUND_ID_TYPE>
0

> <PUBCHEM_TOTAL_CHARGE>
0

> <PUBCHEM_SUBSTANCE_ID>
310944540

> <PUBCHEM_SUBSTANCE_VERSION>
1

> <PUBCHEM_EXT_DATASOURCE_NAME>
4488

> <PUBCHEM_EXT_DATASOURCE_REGID>
SCHEMBL16122616

> <PUBCHEM_SUBSTANCE_COMMENT>
InChI=1S/C16H19ClIN3O3/c1-2-15(23)20-10-4-3-5-21(9-10)16(24)8-19-13-7-12(18)11(17)6-14(13)22/h2,6-7,10,19,22H,1,3-5,8-9H2,(H,20,23)/t10-/m1/s1
InChIKey=WQJMNUYBUJZUEN-SNVBAGLBSA-N

> <PUBCHEM_SUBSTANCE_SYNONYM>
SCHEMBL16122616

> <PUBCHEM_XREF_EXT_ID>
SCHEMBL16122616

> <PUBCHEM_EXT_DATASOURCE_URL>
https://www.surechembl.org/

> <PUBCHEM_EXT_SUBSTANCE_URL>
https://www.surechembl.org/chemical/SCHEMBL16122616

> <PUBCHEM_CID_ASSOCIATIONS>
117610775  1

> <PUBCHEM_COORDINATE_TYPE>
1
3

> <PUBCHEM_BONDANNOTATIONS>
16  8  5

$$$$
