310949891
  -OEChem-07211613022D

 15 15  0     0  0  0  0  0  0999 V2000
    1.4347    1.2476    0.0000 O   0  0  0  0  0  0  0  0  0  0  0  0
    2.1584   -0.8359    0.0000 O   0  0  0  0  0  0  0  0  0  0  0  0
   -2.1584    0.0000    0.0000 O   0  0  0  0  0  0  0  0  0  0  0  0
   -2.8820   -1.2476    0.0000 O   0  0  0  0  0  0  0  0  0  0  0  0
    1.4597    0.4117    0.0000 N   0  0  0  0  0  0  0  0  0  0  0  0
    0.7361    0.0000    0.0000 C   0  0  0  0  0  0  0  0  0  0  0  0
   -0.7111   -0.8235    0.0000 C   0  0  0  0  0  0  0  0  0  0  0  0
    0.0000    0.3992    0.0000 C   0  0  0  0  0  0  0  0  0  0  0  0
    0.7361   -0.8235    0.0000 C   0  0  0  0  0  0  0  0  0  0  0  0
    2.1709    0.0250    0.0000 C   0  0  0  0  0  0  0  0  0  0  0  0
   -0.6986    0.0000    0.0000 C   0  0  0  0  0  0  0  0  0  0  0  0
    0.0250   -1.2351    0.0000 C   0  0  0  0  0  0  0  0  0  0  0  0
   -1.4223   -1.2476    0.0000 C   0  0  0  0  0  0  0  0  0  0  0  0
   -2.1584   -0.8483    0.0000 C   0  0  0  0  0  0  0  0  0  0  0  0
    2.8820    0.4117    0.0000 C   0  0  0  0  0  0  0  0  0  0  0  0
  1  5  1  0  0  0  0
  2 10  2  0  0  0  0
  3 14  2  0  0  0  0
  4 14  1  0  0  0  0
  5  6  1  0  0  0  0
  5 10  1  0  0  0  0
  6  8  2  0  0  0  0
  6  9  1  0  0  0  0
  7 11  2  0  0  0  0
  7 12  1  0  0  0  0
  7 13  1  0  0  0  0
  8 11  1  0  0  0  0
  9 12  2  0  0  0  0
 10 15  1  0  0  0  0
 13 14  1  0  0  0  0
M  END
> <PUBCHEM_COMPOUND_ID_TYPE>
0

> <PUBCHEM_TOTAL_CHARGE>
0

> <PUBCHEM_SUBSTANCE_ID>
310949891

> <PUBCHEM_SUBSTANCE_VERSION>
1

> <PUBCHEM_EXT_DATASOURCE_NAME>
4488

> <PUBCHEM_EXT_DATASOURCE_REGID>
SCHEMBL16128105

> <PUBCHEM_SUBSTANCE_COMMENT>
InChI=1S/C10H11NO4/c1-7(12)11(15)9-4-2-8(3-5-9)6-10(13)14/h2-5,15H,6H2,1H3,(H,13,14)
InChIKey=VNRDLAPSXBJXKN-UHFFFAOYSA-N

> <PUBCHEM_SUBSTANCE_SYNONYM>
SCHEMBL16128105

> <PUBCHEM_XREF_EXT_ID>
SCHEMBL16128105

> <PUBCHEM_EXT_DATASOURCE_URL>
https://www.surechembl.org/

> <PUBCHEM_EXT_SUBSTANCE_URL>
https://www.surechembl.org/chemical/SCHEMBL16128105

> <PUBCHEM_CID_ASSOCIATIONS>
117615178  1

> <PUBCHEM_COORDINATE_TYPE>
1
3

$$$$
