310943874
  -OEChem-07211613022D

 15 17  0     0  0  0  0  0  0999 V2000
    1.3392    0.2819    0.0000 O   0  0  0  0  0  0  0  0  0  0  0  0
    1.3392   -1.0290    0.0000 O   0  0  0  0  0  0  0  0  0  0  0  0
   -2.1567    0.0282    0.0000 O   0  0  0  0  0  0  0  0  0  0  0  0
   -1.0995    1.0572    0.0000 O   0  0  0  0  0  0  0  0  0  0  0  0
   -0.8458   -0.3383    0.0000 C   0  0  0  0  0  0  0  0  0  0  0  0
    0.8458   -0.3524    0.0000 C   0  0  0  0  0  0  0  0  0  0  0  0
   -1.3673    0.2819    0.0000 C   0  0  0  0  0  0  0  0  0  0  0  0
   -0.4229   -1.0572    0.0000 C   0  0  0  0  0  0  0  0  0  0  0  0
   -0.4229    0.3383    0.0000 C   0  0  0  0  0  0  0  0  0  0  0  0
    0.4229    0.3383    0.0000 C   0  0  0  0  0  0  0  0  0  0  0  0
    0.4229   -1.0572    0.0000 C   0  0  0  0  0  0  0  0  0  0  0  0
   -1.3533   -1.0009    0.0000 C   0  0  0  0  0  0  0  0  0  0  0  0
   -2.1427   -0.7612    0.0000 C   0  0  0  0  0  0  0  0  0  0  0  0
    2.1567    0.0423    0.0000 C   0  0  0  0  0  0  0  0  0  0  0  0
    2.1567   -0.7612    0.0000 C   0  0  0  0  0  0  0  0  0  0  0  0
  1  6  1  0  0  0  0
  1 14  1  0  0  0  0
  2  6  1  0  0  0  0
  2 15  1  0  0  0  0
  3  7  1  0  0  0  0
  3 13  1  0  0  0  0
  4  7  2  0  0  0  0
  5  7  1  0  0  0  0
  5  8  1  0  0  0  0
  5  9  1  0  0  0  0
  5 12  1  0  0  0  0
  6 10  1  0  0  0  0
  6 11  1  0  0  0  0
  8 11  1  0  0  0  0
  9 10  1  0  0  0  0
 12 13  1  0  0  0  0
 14 15  1  0  0  0  0
M  END
> <PUBCHEM_COMPOUND_ID_TYPE>
0

> <PUBCHEM_TOTAL_CHARGE>
0

> <PUBCHEM_SUBSTANCE_ID>
310943874

> <PUBCHEM_SUBSTANCE_VERSION>
1

> <PUBCHEM_EXT_DATASOURCE_NAME>
4488

> <PUBCHEM_EXT_DATASOURCE_REGID>
SCHEMBL16121945

> <PUBCHEM_SUBSTANCE_COMMENT>
InChI=1S/C11H16O4/c12-9-10(5-6-13-9)1-3-11(4-2-10)14-7-8-15-11/h1-8H2
InChIKey=QQPAQCIBECWHPI-UHFFFAOYSA-N

> <PUBCHEM_SUBSTANCE_SYNONYM>
SCHEMBL16121945

> <PUBCHEM_XREF_EXT_ID>
SCHEMBL16121945

> <PUBCHEM_EXT_DATASOURCE_URL>
https://www.surechembl.org/

> <PUBCHEM_EXT_SUBSTANCE_URL>
https://www.surechembl.org/chemical/SCHEMBL16121945

> <PUBCHEM_CID_ASSOCIATIONS>
13671287  1

> <PUBCHEM_COORDINATE_TYPE>
1
3

$$$$
