310945057
  -OEChem-07211613022D

 33 36  0     0  0  0  0  0  0999 V2000
   -0.7108    2.5447    0.0000 Cl  0  0  0  0  0  0  0  0  0  0  0  0
   -4.0627   -1.2284    0.0000 S   0  0  0  0  0  0  0  0  0  0  0  0
    3.8873   -2.3693    0.0000 O   0  0  0  0  0  0  0  0  0  0  0  0
    4.6068   -1.1407    0.0000 O   0  0  0  0  0  0  0  0  0  0  0  0
    1.7287    2.1411    0.0000 N   0  0  0  0  0  0  0  0  0  0  0  0
   -4.2032   -2.5447    0.0000 N   0  0  0  0  0  0  0  0  0  0  0  0
   -0.4299    0.0702    0.0000 C   0  0  0  0  0  0  0  0  0  0  0  0
   -0.4124    0.8951    0.0000 C   0  0  0  0  0  0  0  0  0  0  0  0
   -1.1320   -0.3335    0.0000 C   0  0  0  0  0  0  0  0  0  0  0  0
    0.3071   -0.3335    0.0000 C   0  0  0  0  0  0  0  0  0  0  0  0
    0.2896    1.2987    0.0000 C   0  0  0  0  0  0  0  0  0  0  0  0
    0.3071    2.1235    0.0000 C   0  0  0  0  0  0  0  0  0  0  0  0
   -1.8690    0.0526    0.0000 C   0  0  0  0  0  0  0  0  0  0  0  0
   -1.1495   -1.1583    0.0000 C   0  0  0  0  0  0  0  0  0  0  0  0
   -2.5886   -1.1583    0.0000 C   0  0  0  0  0  0  0  0  0  0  0  0
    0.3247   -1.1758    0.0000 C   0  0  0  0  0  0  0  0  0  0  0  0
    1.0091    0.0526    0.0000 C   0  0  0  0  0  0  0  0  0  0  0  0
   -1.1320    1.2987    0.0000 C   0  0  0  0  0  0  0  0  0  0  0  0
   -2.5535   -0.3335    0.0000 C   0  0  0  0  0  0  0  0  0  0  0  0
   -1.8866   -1.5619    0.0000 C   0  0  0  0  0  0  0  0  0  0  0  0
    1.0267    0.8951    0.0000 C   0  0  0  0  0  0  0  0  0  0  0  0
   -3.2906   -1.5619    0.0000 C   0  0  0  0  0  0  0  0  0  0  0  0
    1.7287   -1.1583    0.0000 C   0  0  0  0  0  0  0  0  0  0  0  0
    1.0091   -1.5619    0.0000 C   0  0  0  0  0  0  0  0  0  0  0  0
    1.7287   -0.3510    0.0000 C   0  0  0  0  0  0  0  0  0  0  0  0
    1.0091    2.5272    0.0000 C   0  0  0  0  0  0  0  0  0  0  0  0
    1.7287    1.2987    0.0000 C   0  0  0  0  0  0  0  0  0  0  0  0
   -3.3959   -2.3868    0.0000 C   0  0  0  0  0  0  0  0  0  0  0  0
   -1.1495    2.1235    0.0000 C   0  0  0  0  0  0  0  0  0  0  0  0
    2.4833   -1.5619    0.0000 C   0  0  0  0  0  0  0  0  0  0  0  0
   -4.6068   -1.8603    0.0000 C   0  0  0  0  0  0  0  0  0  0  0  0
    3.1502   -1.1758    0.0000 C   0  0  0  0  0  0  0  0  0  0  0  0
    3.8873   -1.5444    0.0000 C   0  0  0  0  0  0  0  0  0  0  0  0
  1 12  1  0  0  0  0
  2 22  1  0  0  0  0
  2 31  1  0  0  0  0
  3 33  2  0  0  0  0
  4 33  1  0  0  0  0
  5 26  1  0  0  0  0
  5 27  2  0  0  0  0
  6 28  1  0  0  0  0
  6 31  2  0  0  0  0
  7  8  2  0  0  0  0
  7  9  1  0  0  0  0
  7 10  1  0  0  0  0
  8 11  1  0  0  0  0
  8 18  1  0  0  0  0
  9 13  2  0  0  0  0
  9 14  1  0  0  0  0
 10 16  2  0  0  0  0
 10 17  1  0  0  0  0
 11 12  1  0  0  0  0
 11 21  2  0  0  0  0
 12 26  2  0  0  0  0
 13 19  1  0  0  0  0
 14 20  2  0  0  0  0
 15 19  2  0  0  0  0
 15 20  1  0  0  0  0
 15 22  1  0  0  0  0
 16 24  1  0  0  0  0
 17 25  2  0  0  0  0
 18 29  1  0  0  0  0
 21 27  1  0  0  0  0
 22 28  2  0  0  0  0
 23 24  2  0  0  0  0
 23 25  1  0  0  0  0
 23 30  1  0  0  0  0
 30 32  2  0  0  0  0
 32 33  1  0  0  0  0
M  END
> <PUBCHEM_COMPOUND_ID_TYPE>
0

> <PUBCHEM_TOTAL_CHARGE>
0

> <PUBCHEM_SUBSTANCE_ID>
310945057

> <PUBCHEM_SUBSTANCE_VERSION>
1

> <PUBCHEM_EXT_DATASOURCE_NAME>
4488

> <PUBCHEM_EXT_DATASOURCE_REGID>
SCHEMBL16123146

> <PUBCHEM_SUBSTANCE_COMMENT>
InChI=1S/C27H21ClN2O2S/c1-2-22(23-13-14-29-15-24(23)28)27(20-6-3-18(4-7-20)5-12-26(31)32)21-10-8-19(9-11-21)25-16-30-17-33-25/h3-17H,2H2,1H3,(H,31,32)/b12-5+,27-22+
InChIKey=OWOSDBDCZVROKB-LNMRHNOOSA-N

> <PUBCHEM_SUBSTANCE_SYNONYM>
SCHEMBL16123146

> <PUBCHEM_XREF_EXT_ID>
SCHEMBL16123146

> <PUBCHEM_EXT_DATASOURCE_URL>
https://www.surechembl.org/

> <PUBCHEM_EXT_SUBSTANCE_URL>
https://www.surechembl.org/chemical/SCHEMBL16123146

> <PUBCHEM_CID_ASSOCIATIONS>
86271467  1

> <PUBCHEM_COORDINATE_TYPE>
1
3

$$$$
