310929854
  -OEChem-07211613022D

 24 26  0     0  0  0  0  0  0999 V2000
    3.1452   -3.3232    0.0000 Cl  0  0  0  0  0  0  0  0  0  0  0  0
    1.3946   -0.1780    0.0000 O   0  0  0  0  0  0  0  0  0  0  0  0
    4.5694   -0.8308    0.0000 O   0  0  0  0  0  0  0  0  0  0  0  0
    8.1597   -1.2462    0.0000 O   0  0  0  0  0  0  0  0  0  0  0  0
    7.4773    0.0000    0.0000 O   0  0  0  0  0  0  0  0  0  0  0  0
    2.3737   -2.0770    0.0000 C   0  0  0  0  0  0  0  0  0  0  0  0
    2.4034   -1.2166    0.0000 C   0  0  0  0  0  0  0  0  0  0  0  0
    1.6319   -2.2848    0.0000 C   0  0  0  0  0  0  0  0  0  0  0  0
    1.1275   -1.6319    0.0000 C   0  0  0  0  0  0  0  0  0  0  0  0
    1.6616   -0.9792    0.0000 C   0  0  0  0  0  0  0  0  0  0  0  0
    3.1452   -2.4924    0.0000 C   0  0  0  0  0  0  0  0  0  0  0  0
    3.1452   -0.8011    0.0000 C   0  0  0  0  0  0  0  0  0  0  0  0
    3.8573   -1.2166    0.0000 C   0  0  0  0  0  0  0  0  0  0  0  0
    1.2462   -3.0562    0.0000 C   0  0  0  0  0  0  0  0  0  0  0  0
    3.8573   -2.0770    0.0000 C   0  0  0  0  0  0  0  0  0  0  0  0
    0.3264   -1.7210    0.0000 C   0  0  0  0  0  0  0  0  0  0  0  0
    0.4747   -3.1452    0.0000 C   0  0  0  0  0  0  0  0  0  0  0  0
    0.0000   -2.4627    0.0000 C   0  0  0  0  0  0  0  0  0  0  0  0
    5.2816   -1.2462    0.0000 C   0  0  0  0  0  0  0  0  0  0  0  0
    5.9937   -0.8605    0.0000 C   0  0  0  0  0  0  0  0  0  0  0  0
    6.7651   -1.2462    0.0000 C   0  0  0  0  0  0  0  0  0  0  0  0
    7.4773   -0.8308    0.0000 C   0  0  0  0  0  0  0  0  0  0  0  0
    8.9015   -0.8308    0.0000 C   0  0  0  0  0  0  0  0  0  0  0  0
    8.9015    0.0000    0.0000 C   0  0  0  0  0  0  0  0  0  0  0  0
  1 11  1  0  0  0  0
  2 10  2  0  0  0  0
  3 13  1  0  0  0  0
  3 19  1  0  0  0  0
  4 22  1  0  0  0  0
  4 23  1  0  0  0  0
  5 22  2  0  0  0  0
  6  7  2  0  0  0  0
  6  8  1  0  0  0  0
  6 11  1  0  0  0  0
  7 10  1  0  0  0  0
  7 12  1  0  0  0  0
  8  9  2  0  0  0  0
  8 14  1  0  0  0  0
  9 10  1  0  0  0  0
  9 16  1  0  0  0  0
 11 15  2  0  0  0  0
 12 13  2  0  0  0  0
 13 15  1  0  0  0  0
 14 17  2  0  0  0  0
 16 18  2  0  0  0  0
 17 18  1  0  0  0  0
 19 20  1  0  0  0  0
 20 21  1  0  0  0  0
 21 22  1  0  0  0  0
 23 24  1  0  0  0  0
M  END
> <PUBCHEM_COMPOUND_ID_TYPE>
0

> <PUBCHEM_TOTAL_CHARGE>
0

> <PUBCHEM_SUBSTANCE_ID>
310929854

> <PUBCHEM_SUBSTANCE_VERSION>
1

> <PUBCHEM_EXT_DATASOURCE_NAME>
4488

> <PUBCHEM_EXT_DATASOURCE_REGID>
SCHEMBL16107067

> <PUBCHEM_SUBSTANCE_COMMENT>
InChI=1S/C19H17ClO4/c1-2-23-17(21)8-5-9-24-12-10-15-18(16(20)11-12)13-6-3-4-7-14(13)19(15)22/h3-4,6-7,10-11H,2,5,8-9H2,1H3
InChIKey=KYEQFAKIGCGXCD-UHFFFAOYSA-N

> <PUBCHEM_SUBSTANCE_SYNONYM>
SCHEMBL16107067

> <PUBCHEM_XREF_EXT_ID>
SCHEMBL16107067

> <PUBCHEM_EXT_DATASOURCE_URL>
https://www.surechembl.org/

> <PUBCHEM_EXT_SUBSTANCE_URL>
https://www.surechembl.org/chemical/SCHEMBL16107067

> <PUBCHEM_CID_ASSOCIATIONS>
117599125  1

> <PUBCHEM_COORDINATE_TYPE>
1
3

$$$$
