310929138
  -OEChem-07211613022D

 41 44  0     0  0  0  0  0  0999 V2000
    2.1618   -6.6476    0.0000 F   0  0  0  0  0  0  0  0  0  0  0  0
    2.1618   -4.9722    0.0000 F   0  0  0  0  0  0  0  0  0  0  0  0
    3.5670   -6.6476    0.0000 O   0  0  0  0  0  0  0  0  0  0  0  0
    0.7026   -4.1615    0.0000 O   0  0  0  0  0  0  0  0  0  0  0  0
    5.0263   -6.6476    0.0000 O   0  0  0  0  0  0  0  0  0  0  0  0
    5.7288   -7.8907    0.0000 O   0  0  0  0  0  0  0  0  0  0  0  0
    1.4052   -8.7554    0.0000 O   0  0  0  0  0  0  0  0  0  0  0  0
    2.1618   -7.5124    0.0000 N   0  0  0  0  0  0  0  0  0  0  0  0
    0.7026   -7.5124    0.0000 N   0  0  0  0  0  0  0  0  0  0  0  0
    2.8644   -2.9185    0.0000 N   0  0  0  0  0  0  0  0  0  0  0  0
    2.1618   -1.6754    0.0000 N   0  0  0  0  0  0  0  0  0  0  0  0
    3.5670   -7.5124    0.0000 C   0  0  0  0  0  0  0  0  0  0  0  0
    2.8644   -7.8907    0.0000 C   0  0  0  0  0  0  0  0  0  0  0  0
    4.3236   -7.8907    0.0000 C   0  0  0  0  0  0  0  0  0  0  0  0
    3.5670   -9.1338    0.0000 C   0  0  0  0  0  0  0  0  0  0  0  0
    2.8644   -8.7554    0.0000 C   0  0  0  0  0  0  0  0  0  0  0  0
    4.3236   -8.7554    0.0000 C   0  0  0  0  0  0  0  0  0  0  0  0
    3.5670   -9.9984    0.0000 C   0  0  0  0  0  0  0  0  0  0  0  0
    0.7026   -6.6476    0.0000 C   0  0  0  0  0  0  0  0  0  0  0  0
    1.4052   -6.2153    0.0000 C   0  0  0  0  0  0  0  0  0  0  0  0
    1.4052   -5.4046    0.0000 C   0  0  0  0  0  0  0  0  0  0  0  0
    0.7026   -4.9722    0.0000 C   0  0  0  0  0  0  0  0  0  0  0  0
    5.0263   -7.5124    0.0000 C   0  0  0  0  0  0  0  0  0  0  0  0
    1.4052   -7.8907    0.0000 C   0  0  0  0  0  0  0  0  0  0  0  0
    0.0000   -6.2153    0.0000 C   0  0  0  0  0  0  0  0  0  0  0  0
    0.0000   -5.4046    0.0000 C   0  0  0  0  0  0  0  0  0  0  0  0
    1.4052   -3.7291    0.0000 C   0  0  0  0  0  0  0  0  0  0  0  0
    2.7563   -9.9984    0.0000 C   0  0  0  0  0  0  0  0  0  0  0  0
    3.5670  -10.8092    0.0000 C   0  0  0  0  0  0  0  0  0  0  0  0
    4.4318   -9.9984    0.0000 C   0  0  0  0  0  0  0  0  0  0  0  0
    1.4052   -2.9185    0.0000 C   0  0  0  0  0  0  0  0  0  0  0  0
    2.1618   -2.5402    0.0000 C   0  0  0  0  0  0  0  0  0  0  0  0
    2.1078   -4.1615    0.0000 C   0  0  0  0  0  0  0  0  0  0  0  0
    2.8644   -6.2693    0.0000 C   0  0  0  0  0  0  0  0  0  0  0  0
    2.8644   -3.7832    0.0000 C   0  0  0  0  0  0  0  0  0  0  0  0
    1.4593   -1.2430    0.0000 C   0  0  0  0  0  0  0  0  0  0  0  0
    0.7566   -1.6754    0.0000 C   0  0  0  0  0  0  0  0  0  0  0  0
    1.4593   -0.4324    0.0000 C   0  0  0  0  0  0  0  0  0  0  0  0
    0.0540   -1.2430    0.0000 C   0  0  0  0  0  0  0  0  0  0  0  0
    0.7566    0.0000    0.0000 C   0  0  0  0  0  0  0  0  0  0  0  0
    0.0540   -0.3783    0.0000 C   0  0  0  0  0  0  0  0  0  0  0  0
  1 20  1  0  0  0  0
  2 21  1  0  0  0  0
  3 12  1  0  0  0  0
  3 34  1  0  0  0  0
  4 22  1  0  0  0  0
  4 27  1  0  0  0  0
  5 23  2  0  0  0  0
  6 23  1  0  0  0  0
  7 24  2  0  0  0  0
  8 13  1  0  0  0  0
  8 24  1  0  0  0  0
  9 19  1  0  0  0  0
  9 24  1  0  0  0  0
 10 32  1  0  0  0  0
 10 35  2  0  0  0  0
 11 32  1  0  0  0  0
 11 36  1  0  0  0  0
 12 13  1  0  0  0  0
 12 14  2  0  0  0  0
 13 16  2  0  0  0  0
 14 17  1  0  0  0  0
 14 23  1  0  0  0  0
 15 16  1  0  0  0  0
 15 17  2  0  0  0  0
 15 18  1  0  0  0  0
 18 28  1  0  0  0  0
 18 29  1  0  0  0  0
 18 30  1  0  0  0  0
 19 20  1  0  0  0  0
 19 25  2  0  0  0  0
 20 21  2  0  0  0  0
 21 22  1  0  0  0  0
 22 26  2  0  0  0  0
 25 26  1  0  0  0  0
 27 31  1  0  0  0  0
 27 33  2  0  0  0  0
 31 32  2  0  0  0  0
 33 35  1  0  0  0  0
 36 37  2  0  0  0  0
 36 38  1  0  0  0  0
 37 39  1  0  0  0  0
 38 40  2  0  0  0  0
 39 41  2  0  0  0  0
 40 41  1  0  0  0  0
M  END
> <PUBCHEM_COMPOUND_ID_TYPE>
0

> <PUBCHEM_TOTAL_CHARGE>
0

> <PUBCHEM_SUBSTANCE_ID>
310929138

> <PUBCHEM_SUBSTANCE_VERSION>
1

> <PUBCHEM_EXT_DATASOURCE_NAME>
4488

> <PUBCHEM_EXT_DATASOURCE_REGID>
SCHEMBL16106301

> <PUBCHEM_SUBSTANCE_COMMENT>
InChI=1S/C30H28F2N4O5/c1-30(2,3)17-14-20(28(37)38)27(40-4)22(15-17)36-29(39)35-21-10-11-23(26(32)25(21)31)41-19-12-13-33-24(16-19)34-18-8-6-5-7-9-18/h5-16H,1-4H3,(H,33,34)(H,37,38)(H2,35,36,39)
InChIKey=ZOHDZUBEIRCPKO-UHFFFAOYSA-N

> <PUBCHEM_SUBSTANCE_SYNONYM>
SCHEMBL16106301

> <PUBCHEM_XREF_EXT_ID>
SCHEMBL16106301

> <PUBCHEM_EXT_DATASOURCE_URL>
https://www.surechembl.org/

> <PUBCHEM_EXT_SUBSTANCE_URL>
https://www.surechembl.org/chemical/SCHEMBL16106301

> <PUBCHEM_CID_ASSOCIATIONS>
117598615  1

> <PUBCHEM_COORDINATE_TYPE>
1
3

$$$$
