310932810
  -OEChem-07211613022D

 18 19  0     0  0  0  0  0  0999 V2000
    3.7535   -2.8738    0.0000 I   0  0  0  0  0  0  0  0  0  0  0  0
    0.0000   -1.0361    0.0000 O   0  0  0  0  0  0  0  0  0  0  0  0
    0.0000   -1.8767    0.0000 N   0  0  0  0  0  0  0  0  0  0  0  0
    4.6137   -1.4467    0.0000 N   0  0  0  0  0  0  0  0  0  0  0  0
    3.7535   -0.0196    0.0000 N   0  0  0  0  0  0  0  0  0  0  0  0
    1.2707   -1.4467    0.0000 C   0  0  0  0  0  0  0  0  0  0  0  0
    2.1114   -1.4467    0.0000 C   0  0  0  0  0  0  0  0  0  0  0  0
    0.7820   -0.7820    0.0000 C   0  0  0  0  0  0  0  0  0  0  0  0
    0.7820   -2.1114    0.0000 C   0  0  0  0  0  0  0  0  0  0  0  0
    3.7926   -1.4467    0.0000 C   0  0  0  0  0  0  0  0  0  0  0  0
    3.3430   -2.1504    0.0000 C   0  0  0  0  0  0  0  0  0  0  0  0
    3.3430   -0.7429    0.0000 C   0  0  0  0  0  0  0  0  0  0  0  0
    2.5415   -2.1504    0.0000 C   0  0  0  0  0  0  0  0  0  0  0  0
    2.5415   -0.7429    0.0000 C   0  0  0  0  0  0  0  0  0  0  0  0
    1.0361    0.0000    0.0000 C   0  0  0  0  0  0  0  0  0  0  0  0
    1.0361   -2.8934    0.0000 C   0  0  0  0  0  0  0  0  0  0  0  0
    5.0242   -2.1700    0.0000 C   0  0  0  0  0  0  0  0  0  0  0  0
    5.8649   -2.1700    0.0000 C   0  0  0  0  0  0  0  0  0  0  0  0
  1 11  1  0  0  0  0
  2  3  1  0  0  0  0
  2  8  1  0  0  0  0
  3  9  2  0  0  0  0
  4 10  1  0  0  0  0
  4 17  1  0  0  0  0
  5 12  1  0  0  0  0
  6  7  1  0  0  0  0
  6  8  2  0  0  0  0
  6  9  1  0  0  0  0
  7 13  2  0  0  0  0
  7 14  1  0  0  0  0
  8 15  1  0  0  0  0
  9 16  1  0  0  0  0
 10 11  2  0  0  0  0
 10 12  1  0  0  0  0
 11 13  1  0  0  0  0
 12 14  2  0  0  0  0
 17 18  1  0  0  0  0
M  END
> <PUBCHEM_COMPOUND_ID_TYPE>
0

> <PUBCHEM_TOTAL_CHARGE>
0

> <PUBCHEM_SUBSTANCE_ID>
310932810

> <PUBCHEM_SUBSTANCE_VERSION>
1

> <PUBCHEM_EXT_DATASOURCE_NAME>
4488

> <PUBCHEM_EXT_DATASOURCE_REGID>
SCHEMBL16110198

> <PUBCHEM_SUBSTANCE_COMMENT>
InChI=1S/C13H16IN3O/c1-4-16-13-10(14)5-9(6-11(13)15)12-7(2)17-18-8(12)3/h5-6,16H,4,15H2,1-3H3
InChIKey=XMQJZUCPWLSQIF-UHFFFAOYSA-N

> <PUBCHEM_SUBSTANCE_SYNONYM>
SCHEMBL16110198

> <PUBCHEM_XREF_EXT_ID>
SCHEMBL16110198

> <PUBCHEM_EXT_DATASOURCE_URL>
https://www.surechembl.org/

> <PUBCHEM_EXT_SUBSTANCE_URL>
https://www.surechembl.org/chemical/SCHEMBL16110198

> <PUBCHEM_CID_ASSOCIATIONS>
117601300  1

> <PUBCHEM_COORDINATE_TYPE>
1
3

$$$$
