310929880
  -OEChem-07211613022D

 26 26  0     1  0  0  0  0  0999 V2000
   10.3834   -3.3147    0.0000 O   0  0  0  0  0  0  0  0  0  0  0  0
    7.7303   -4.4959    0.0000 O   0  0  0  0  0  0  0  0  0  0  0  0
   10.9455   -1.0905    0.0000 O   0  0  0  0  0  0  0  0  0  0  0  0
    2.5414   -3.1234    0.0000 O   0  0  0  0  0  0  0  0  0  0  0  0
    3.2559   -1.8859    0.0000 O   0  0  0  0  0  0  0  0  0  0  0  0
    9.0109   -2.7878    0.0000 C   0  0  3  0  0  0  0  0  0  0  0  0
    8.2572   -3.1234    0.0000 C   0  0  3  0  0  0  0  0  0  0  0  0
    9.5629   -3.4009    0.0000 C   0  0  3  0  0  0  0  0  0  0  0  0
    8.3434   -3.9439    0.0000 C   0  0  3  0  0  0  0  0  0  0  0  0
    9.1504   -4.1154    0.0000 C   0  0  0  0  0  0  0  0  0  0  0  0
    9.1824   -1.9809    0.0000 C   0  0  0  0  0  0  0  0  0  0  0  0
    7.5427   -2.7109    0.0000 C   0  0  0  0  0  0  0  0  0  0  0  0
   10.1385   -0.9189    0.0000 C   0  0  3  0  0  0  0  0  0  0  0  0
    9.9670   -1.7259    0.0000 C   0  0  0  0  0  0  0  0  0  0  0  0
    6.8282   -3.1234    0.0000 C   0  0  0  0  0  0  0  0  0  0  0  0
   10.3101   -0.1120    0.0000 C   0  0  0  0  0  0  0  0  0  0  0  0
    9.3316   -0.7474    0.0000 C   0  0  0  0  0  0  0  0  0  0  0  0
    6.1138   -2.7109    0.0000 C   0  0  0  0  0  0  0  0  0  0  0  0
   11.0947    0.1430    0.0000 C   0  0  0  0  0  0  0  0  0  0  0  0
    5.3993   -3.1234    0.0000 C   0  0  0  0  0  0  0  0  0  0  0  0
   11.2662    0.9499    0.0000 C   0  0  0  0  0  0  0  0  0  0  0  0
    4.6848   -2.7109    0.0000 C   0  0  0  0  0  0  0  0  0  0  0  0
    3.9704   -3.1234    0.0000 C   0  0  0  0  0  0  0  0  0  0  0  0
   12.0508    1.2049    0.0000 C   0  0  0  0  0  0  0  0  0  0  0  0
    3.2559   -2.7109    0.0000 C   0  0  0  0  0  0  0  0  0  0  0  0
   12.2224    2.0118    0.0000 C   0  0  0  0  0  0  0  0  0  0  0  0
  8  1  1  6  0  0  0
  9  2  1  6  0  0  0
 13  3  1  1  0  0  0
  4 25  2  0  0  0  0
  5 25  1  0  0  0  0
  6  7  1  0  0  0  0
  6  8  1  0  0  0  0
  6 11  1  0  0  0  0
  7  9  1  0  0  0  0
  7 12  1  0  0  0  0
  8 10  1  0  0  0  0
  9 10  1  0  0  0  0
 11 14  2  0  0  0  0
 12 15  1  0  0  0  0
 13 14  1  0  0  0  0
 13 16  1  0  0  0  0
 13 17  1  1  0  0  0
 15 18  2  0  0  0  0
 16 19  1  0  0  0  0
 18 20  1  0  0  0  0
 19 21  1  0  0  0  0
 20 22  1  0  0  0  0
 21 24  1  0  0  0  0
 22 23  1  0  0  0  0
 23 25  1  0  0  0  0
 24 26  1  0  0  0  0
M  END
> <PUBCHEM_COMPOUND_ID_TYPE>
0

> <PUBCHEM_TOTAL_CHARGE>
0

> <PUBCHEM_SUBSTANCE_ID>
310929880

> <PUBCHEM_SUBSTANCE_VERSION>
1

> <PUBCHEM_EXT_DATASOURCE_NAME>
4488

> <PUBCHEM_EXT_DATASOURCE_REGID>
SCHEMBL16107096

> <PUBCHEM_SUBSTANCE_COMMENT>
InChI=1S/C21H36O5/c1-3-4-9-13-21(2,26)14-12-17-16(18(22)15-19(17)23)10-7-5-6-8-11-20(24)25/h5,7,12,14,16-19,22-23,26H,3-4,6,8-11,13,15H2,1-2H3,(H,24,25)/t16?,17?,18-,19+,21-/m0/s1
InChIKey=DLJKPYFALUEJCK-GUQCBCOLSA-N

> <PUBCHEM_SUBSTANCE_SYNONYM>
SCHEMBL16107096

> <PUBCHEM_XREF_EXT_ID>
SCHEMBL16107096

> <PUBCHEM_EXT_DATASOURCE_URL>
https://www.surechembl.org/

> <PUBCHEM_EXT_SUBSTANCE_URL>
https://www.surechembl.org/chemical/SCHEMBL16107096

> <PUBCHEM_CID_ASSOCIATIONS>
117599147  1

> <PUBCHEM_COORDINATE_TYPE>
1
3

> <PUBCHEM_BONDANNOTATIONS>
8  1  6
13  17  5
18  20  3
9  2  6
13  3  5
11  6  3

$$$$
