310948264
  -OEChem-07211613022D

 34 38  0     1  0  0  0  0  0999 V2000
    2.8583   -4.3752    0.0000 F   0  0  0  0  0  0  0  0  0  0  0  0
    3.3762   -3.3022    0.0000 F   0  0  0  0  0  0  0  0  0  0  0  0
    1.8593   -3.8016    0.0000 F   0  0  0  0  0  0  0  0  0  0  0  0
   -2.6547   -2.2478    0.0000 O   0  0  0  0  0  0  0  0  0  0  0  0
    2.3402   -2.7843    0.0000 O   0  0  0  0  0  0  0  0  0  0  0  0
   -1.1563    0.0832    0.0000 N   0  0  0  0  0  0  0  0  0  0  0  0
   -0.6568   -0.5828    0.0000 N   0  0  0  0  0  0  0  0  0  0  0  0
   -0.8973   -2.0442    0.0000 N   0  0  0  0  0  0  0  0  0  0  0  0
   -3.3762   -0.9898    0.0000 N   0  0  0  0  0  0  0  0  0  0  0  0
   -0.1757    3.2468    0.0000 N   0  0  0  0  0  0  0  0  0  0  0  0
    1.0083   -0.1757    0.0000 N   0  0  0  0  0  0  0  0  0  0  0  0
   -1.9148   -0.1573    0.0000 C   0  0  0  0  0  0  0  0  0  0  0  0
   -1.9517   -0.9898    0.0000 C   0  0  0  0  0  0  0  0  0  0  0  0
   -1.1563   -1.2488    0.0000 C   0  0  0  0  0  0  0  0  0  0  0  0
   -0.8973    0.8973    0.0000 C   0  0  3  0  0  0  0  0  0  0  0  0
   -2.6362   -1.3782    0.0000 C   0  0  0  0  0  0  0  0  0  0  0  0
   -0.0832    1.0637    0.0000 C   0  0  3  0  0  0  0  0  0  0  0  0
   -2.6547    0.2497    0.0000 C   0  0  0  0  0  0  0  0  0  0  0  0
   -1.4337    1.4892    0.0000 C   0  0  0  0  0  0  0  0  0  0  0  0
   -0.3792    2.4327    0.0000 C   0  0  3  0  0  0  0  0  0  0  0  0
    0.1573    1.8408    0.0000 C   0  0  0  0  0  0  0  0  0  0  0  0
   -3.3393   -0.1573    0.0000 C   0  0  0  0  0  0  0  0  0  0  0  0
   -0.0832   -2.2107    0.0000 C   0  0  0  0  0  0  0  0  0  0  0  0
   -1.1747    2.2847    0.0000 C   0  0  0  0  0  0  0  0  0  0  0  0
    0.4717    0.4347    0.0000 C   0  0  0  0  0  0  0  0  0  0  0  0
    0.1757   -2.9878    0.0000 C   0  0  0  0  0  0  0  0  0  0  0  0
    0.4717   -1.6002    0.0000 C   0  0  0  0  0  0  0  0  0  0  0  0
    0.5457    3.6722    0.0000 C   0  0  0  0  0  0  0  0  0  0  0  0
   -0.5457    3.9683    0.0000 C   0  0  0  0  0  0  0  0  0  0  0  0
    1.5262   -2.5437    0.0000 C   0  0  0  0  0  0  0  0  0  0  0  0
    0.9898   -3.1542    0.0000 C   0  0  0  0  0  0  0  0  0  0  0  0
    1.2857   -1.7668    0.0000 C   0  0  0  0  0  0  0  0  0  0  0  0
    0.1202    4.3752    0.0000 C   0  0  0  0  0  0  0  0  0  0  0  0
    2.5992   -3.5797    0.0000 C   0  0  0  0  0  0  0  0  0  0  0  0
  1 34  1  0  0  0  0
  2 34  1  0  0  0  0
  3 34  1  0  0  0  0
  4 16  2  0  0  0  0
  5 30  1  0  0  0  0
  5 34  1  0  0  0  0
  6  7  1  0  0  0  0
  6 12  1  0  0  0  0
 15  6  1  1  0  0  0
  7 14  2  0  0  0  0
  8 14  1  0  0  0  0
  8 23  1  0  0  0  0
  9 16  1  0  0  0  0
  9 22  1  0  0  0  0
 10 20  1  0  0  0  0
 10 28  1  0  0  0  0
 10 29  1  0  0  0  0
 11 25  3  0  0  0  0
 12 13  2  0  0  0  0
 12 18  1  0  0  0  0
 13 14  1  0  0  0  0
 13 16  1  0  0  0  0
 15 17  1  0  0  0  0
 15 19  1  0  0  0  0
 17 21  1  0  0  0  0
 17 25  1  6  0  0  0
 18 22  2  0  0  0  0
 19 24  1  0  0  0  0
 20 21  1  6  0  0  0
 20 24  1  0  0  0  0
 23 26  2  0  0  0  0
 23 27  1  0  0  0  0
 26 31  1  0  0  0  0
 27 32  2  0  0  0  0
 28 33  1  0  0  0  0
 29 33  1  0  0  0  0
 30 31  2  0  0  0  0
 30 32  1  0  0  0  0
M  END
> <PUBCHEM_COMPOUND_ID_TYPE>
0

> <PUBCHEM_TOTAL_CHARGE>
0

> <PUBCHEM_SUBSTANCE_ID>
310948264

> <PUBCHEM_SUBSTANCE_VERSION>
1

> <PUBCHEM_EXT_DATASOURCE_NAME>
4488

> <PUBCHEM_EXT_DATASOURCE_REGID>
SCHEMBL16126441

> <PUBCHEM_SUBSTANCE_COMMENT>
InChI=1S/C23H23F3N6O2/c24-23(25,26)34-17-5-2-15(3-6-17)29-21-20-19(8-9-28-22(20)33)32(30-21)18-7-4-16(12-14(18)13-27)31-10-1-11-31/h2-3,5-6,8-9,14,16,18H,1,4,7,10-12H2,(H,28,33)(H,29,30)/t14-,16+,18+/m1/s1
InChIKey=BGDWTUONSQMCTI-HFTRVMKXSA-N

> <PUBCHEM_SUBSTANCE_SYNONYM>
SCHEMBL16126441

> <PUBCHEM_XREF_EXT_ID>
SCHEMBL16126441

> <PUBCHEM_EXT_DATASOURCE_URL>
https://www.surechembl.org/

> <PUBCHEM_EXT_SUBSTANCE_URL>
https://www.surechembl.org/chemical/SCHEMBL16126441

> <PUBCHEM_CID_ASSOCIATIONS>
117613844  1

> <PUBCHEM_COORDINATE_TYPE>
1
3

> <PUBCHEM_BONDANNOTATIONS>
17  25  6
20  21  6
15  6  5

$$$$
