310946143
  -OEChem-07211613022D

 53 62  0     0  0  0  0  0  0999 V2000
    0.6814    5.5131    0.0000 O   0  0  0  0  0  0  0  0  0  0  0  0
   -0.3012    4.0141    0.0000 N   0  0  0  0  0  0  0  0  0  0  0  0
   -2.7582    2.4136    0.0000 C   0  0  0  0  0  0  0  0  0  0  0  0
   -1.9512    2.5851    0.0000 C   0  0  0  0  0  0  0  0  0  0  0  0
   -1.5387    1.8706    0.0000 C   0  0  0  0  0  0  0  0  0  0  0  0
   -2.8444    1.5931    0.0000 C   0  0  0  0  0  0  0  0  0  0  0  0
   -2.0907    1.2575    0.0000 C   0  0  0  0  0  0  0  0  0  0  0  0
    0.9363    4.7285    0.0000 C   0  0  0  0  0  0  0  0  0  0  0  0
    0.5238    4.0141    0.0000 C   0  0  0  0  0  0  0  0  0  0  0  0
   -0.7137    3.2996    0.0000 C   0  0  0  0  0  0  0  0  0  0  0  0
    1.7613    4.7285    0.0000 C   0  0  0  0  0  0  0  0  0  0  0  0
    2.0162    5.5131    0.0000 C   0  0  0  0  0  0  0  0  0  0  0  0
    1.3488    5.9982    0.0000 C   0  0  0  0  0  0  0  0  0  0  0  0
   -1.5387    3.2996    0.0000 C   0  0  0  0  0  0  0  0  0  0  0  0
   -0.7137    1.8706    0.0000 C   0  0  0  0  0  0  0  0  0  0  0  0
    1.4350    6.8185    0.0000 C   0  0  0  0  0  0  0  0  0  0  0  0
   -0.3012    2.5851    0.0000 C   0  0  0  0  0  0  0  0  0  0  0  0
   -0.7137    4.7285    0.0000 C   0  0  0  0  0  0  0  0  0  0  0  0
   -3.5119    1.1082    0.0000 C   0  0  0  0  0  0  0  0  0  0  0  0
   -2.0045    0.4371    0.0000 C   0  0  0  0  0  0  0  0  0  0  0  0
    0.9363    3.2996    0.0000 C   0  0  0  0  0  0  0  0  0  0  0  0
    2.1738    4.0141    0.0000 C   0  0  0  0  0  0  0  0  0  0  0  0
   -2.7582    3.2386    0.0000 C   0  0  0  0  0  0  0  0  0  0  0  0
   -3.5832    2.4136    0.0000 C   0  0  0  0  0  0  0  0  0  0  0  0
    2.7699    5.8487    0.0000 C   0  0  0  0  0  0  0  0  0  0  0  0
    0.7676    7.3035    0.0000 C   0  0  0  0  0  0  0  0  0  0  0  0
    1.7613    3.2996    0.0000 C   0  0  0  0  0  0  0  0  0  0  0  0
    2.1887    7.1541    0.0000 C   0  0  0  0  0  0  0  0  0  0  0  0
   -3.4256    0.2877    0.0000 C   0  0  0  0  0  0  0  0  0  0  0  0
   -2.6719   -0.0479    0.0000 C   0  0  0  0  0  0  0  0  0  0  0  0
    2.8561    6.6692    0.0000 C   0  0  0  0  0  0  0  0  0  0  0  0
   -0.3012    5.4430    0.0000 C   0  0  0  0  0  0  0  0  0  0  0  0
   -1.5387    4.7285    0.0000 C   0  0  0  0  0  0  0  0  0  0  0  0
    0.8538    8.1240    0.0000 C   0  0  0  0  0  0  0  0  0  0  0  0
    0.0139    6.9679    0.0000 C   0  0  0  0  0  0  0  0  0  0  0  0
   -1.5387    6.1575    0.0000 C   0  0  0  0  0  0  0  0  0  0  0  0
   -0.7137    6.1575    0.0000 C   0  0  0  0  0  0  0  0  0  0  0  0
   -1.9512    5.4430    0.0000 C   0  0  0  0  0  0  0  0  0  0  0  0
    0.1864    8.6089    0.0000 C   0  0  0  0  0  0  0  0  0  0  0  0
   -0.6535    7.4528    0.0000 C   0  0  0  0  0  0  0  0  0  0  0  0
   -1.9512    6.8719    0.0000 C   0  0  0  0  0  0  0  0  0  0  0  0
   -0.5673    8.2733    0.0000 C   0  0  0  0  0  0  0  0  0  0  0  0
    0.2726    9.4294    0.0000 C   0  0  0  0  0  0  0  0  0  0  0  0
   -1.5387    7.5864    0.0000 C   0  0  0  0  0  0  0  0  0  0  0  0
   -2.7762    6.8719    0.0000 C   0  0  0  0  0  0  0  0  0  0  0  0
    1.0263    9.7650    0.0000 C   0  0  0  0  0  0  0  0  0  0  0  0
   -0.3948    9.9143    0.0000 C   0  0  0  0  0  0  0  0  0  0  0  0
   -1.9512    8.3009    0.0000 C   0  0  0  0  0  0  0  0  0  0  0  0
   -3.1887    7.5864    0.0000 C   0  0  0  0  0  0  0  0  0  0  0  0
    1.1125   10.5854    0.0000 C   0  0  0  0  0  0  0  0  0  0  0  0
   -0.3086   10.7348    0.0000 C   0  0  0  0  0  0  0  0  0  0  0  0
   -2.7762    8.3009    0.0000 C   0  0  0  0  0  0  0  0  0  0  0  0
    0.4451   11.0704    0.0000 C   0  0  0  0  0  0  0  0  0  0  0  0
  1  8  1  0  0  0  0
  1 13  1  0  0  0  0
  2  9  1  0  0  0  0
  2 10  1  0  0  0  0
  2 18  1  0  0  0  0
  3  4  1  0  0  0  0
  3  6  1  0  0  0  0
  3 23  1  0  0  0  0
  3 24  1  0  0  0  0
  4  5  2  0  0  0  0
  4 14  1  0  0  0  0
  5  7  1  0  0  0  0
  5 15  1  0  0  0  0
  6  7  2  0  0  0  0
  6 19  1  0  0  0  0
  7 20  1  0  0  0  0
  8  9  1  0  0  0  0
  8 11  2  0  0  0  0
  9 21  2  0  0  0  0
 10 14  2  0  0  0  0
 10 17  1  0  0  0  0
 11 12  1  0  0  0  0
 11 22  1  0  0  0  0
 12 13  2  0  0  0  0
 12 25  1  0  0  0  0
 13 16  1  0  0  0  0
 15 17  2  0  0  0  0
 16 26  1  0  0  0  0
 16 28  2  0  0  0  0
 18 32  2  0  0  0  0
 18 33  1  0  0  0  0
 19 29  2  0  0  0  0
 20 30  2  0  0  0  0
 21 27  1  0  0  0  0
 22 27  2  0  0  0  0
 25 31  2  0  0  0  0
 26 34  2  0  0  0  0
 26 35  1  0  0  0  0
 28 31  1  0  0  0  0
 29 30  1  0  0  0  0
 32 37  1  0  0  0  0
 33 38  2  0  0  0  0
 34 39  1  0  0  0  0
 35 40  2  0  0  0  0
 36 37  2  0  0  0  0
 36 38  1  0  0  0  0
 36 41  1  0  0  0  0
 39 42  2  0  0  0  0
 39 43  1  0  0  0  0
 40 42  1  0  0  0  0
 41 44  2  0  0  0  0
 41 45  1  0  0  0  0
 43 46  2  0  0  0  0
 43 47  1  0  0  0  0
 44 48  1  0  0  0  0
 45 49  2  0  0  0  0
 46 50  1  0  0  0  0
 47 51  2  0  0  0  0
 48 52  2  0  0  0  0
 49 52  1  0  0  0  0
 50 53  2  0  0  0  0
 51 53  1  0  0  0  0
M  END
> <PUBCHEM_COMPOUND_ID_TYPE>
0

> <PUBCHEM_TOTAL_CHARGE>
0

> <PUBCHEM_SUBSTANCE_ID>
310946143

> <PUBCHEM_SUBSTANCE_VERSION>
1

> <PUBCHEM_EXT_DATASOURCE_NAME>
4488

> <PUBCHEM_EXT_DATASOURCE_REGID>
SCHEMBL16124252

> <PUBCHEM_SUBSTANCE_COMMENT>
InChI=1S/C51H37NO/c1-51(2)46-24-10-9-20-42(46)43-31-30-40(33-47(43)51)52(39-28-26-36(27-29-39)34-14-5-3-6-15-34)48-25-13-23-45-44-22-12-21-41(49(44)53-50(45)48)38-19-11-18-37(32-38)35-16-7-4-8-17-35/h3-33H,1-2H3
InChIKey=LRWPDSPGAWALHR-UHFFFAOYSA-N

> <PUBCHEM_SUBSTANCE_SYNONYM>
SCHEMBL16124252

> <PUBCHEM_XREF_EXT_ID>
SCHEMBL16124252

> <PUBCHEM_EXT_DATASOURCE_URL>
https://www.surechembl.org/

> <PUBCHEM_EXT_SUBSTANCE_URL>
https://www.surechembl.org/chemical/SCHEMBL16124252

> <PUBCHEM_CID_ASSOCIATIONS>
117612100  1

> <PUBCHEM_COORDINATE_TYPE>
1
3

$$$$
