310940908
  -OEChem-07211613022D

 14 14  0     0  0  0  0  0  0999 V2000
    2.4499    1.0873    0.0000 I   0  0  0  0  0  0  0  0  0  0  0  0
   -1.3489   -1.1837    0.0000 F   0  0  0  0  0  0  0  0  0  0  0  0
   -2.4499   -0.9359    0.0000 F   0  0  0  0  0  0  0  0  0  0  0  0
   -2.1747    0.1652    0.0000 F   0  0  0  0  0  0  0  0  0  0  0  0
    1.7893   -0.0826    0.0000 O   0  0  0  0  0  0  0  0  0  0  0  0
    0.3716    0.7570    0.0000 N   0  0  0  0  0  0  0  0  0  0  0  0
   -1.0598   -0.0550    0.0000 C   0  0  0  0  0  0  0  0  0  0  0  0
   -1.7755   -0.4955    0.0000 C   0  0  0  0  0  0  0  0  0  0  0  0
   -1.0460    0.7846    0.0000 C   0  0  0  0  0  0  0  0  0  0  0  0
   -0.3303   -0.4542    0.0000 C   0  0  0  0  0  0  0  0  0  0  0  0
   -0.3579    1.1837    0.0000 C   0  0  0  0  0  0  0  0  0  0  0  0
    0.3716   -0.0550    0.0000 C   0  0  0  0  0  0  0  0  0  0  0  0
    1.0736    1.1837    0.0000 C   0  0  0  0  0  0  0  0  0  0  0  0
    1.8031    0.7983    0.0000 C   0  0  0  0  0  0  0  0  0  0  0  0
  1 14  1  0  0  0  0
  2  8  1  0  0  0  0
  3  8  1  0  0  0  0
  4  8  1  0  0  0  0
  5 14  2  0  0  0  0
  6 11  1  0  0  0  0
  6 12  1  0  0  0  0
  6 13  1  0  0  0  0
  7  8  1  0  0  0  0
  7  9  1  0  0  0  0
  7 10  1  0  0  0  0
  9 11  1  0  0  0  0
 10 12  1  0  0  0  0
 13 14  1  0  0  0  0
M  END
> <PUBCHEM_COMPOUND_ID_TYPE>
0

> <PUBCHEM_TOTAL_CHARGE>
0

> <PUBCHEM_SUBSTANCE_ID>
310940908

> <PUBCHEM_SUBSTANCE_VERSION>
1

> <PUBCHEM_EXT_DATASOURCE_NAME>
4488

> <PUBCHEM_EXT_DATASOURCE_REGID>
SCHEMBL16118867

> <PUBCHEM_SUBSTANCE_COMMENT>
InChI=1S/C8H11F3INO/c9-8(10,11)6-1-3-13(4-2-6)5-7(12)14/h6H,1-5H2
InChIKey=VIBUJGDTXSHQSY-UHFFFAOYSA-N

> <PUBCHEM_SUBSTANCE_SYNONYM>
SCHEMBL16118867

> <PUBCHEM_XREF_EXT_ID>
SCHEMBL16118867

> <PUBCHEM_EXT_DATASOURCE_URL>
https://www.surechembl.org/

> <PUBCHEM_EXT_SUBSTANCE_URL>
https://www.surechembl.org/chemical/SCHEMBL16118867

> <PUBCHEM_CID_ASSOCIATIONS>
117607817  1

> <PUBCHEM_COORDINATE_TYPE>
1
3

$$$$
