310930758
  -OEChem-07211613022D

 34 38  0     0  0  0  0  0  0999 V2000
    2.4686   -7.1706    0.0000 S   0  0  0  0  0  0  0  0  0  0  0  0
    3.8792   -8.8163    0.0000 S   0  0  0  0  0  0  0  0  0  0  0  0
    1.4106  -11.5788    0.0000 F   0  0  0  0  0  0  0  0  0  0  0  0
    3.2914   -6.7592    0.0000 O   0  0  0  0  0  0  0  0  0  0  0  0
    1.7633   -7.5820    0.0000 O   0  0  0  0  0  0  0  0  0  0  0  0
    0.0000   -2.8212    0.0000 O   0  0  0  0  0  0  0  0  0  0  0  0
    2.5861   -8.6400    0.0000 N   0  0  0  0  0  0  0  0  0  0  0  0
    2.4686   -1.3518    0.0000 N   0  0  0  0  0  0  0  0  0  0  0  0
    2.6449    0.0000    0.0000 N   0  0  0  0  0  0  0  0  0  0  0  0
    1.2343   -3.5265    0.0000 N   0  0  0  0  0  0  0  0  0  0  0  0
    2.8800   -7.9347    0.0000 C   0  0  0  0  0  0  0  0  0  0  0  0
    2.0571   -6.4653    0.0000 C   0  0  0  0  0  0  0  0  0  0  0  0
    3.1739   -9.2277    0.0000 C   0  0  0  0  0  0  0  0  0  0  0  0
    3.7616   -7.9935    0.0000 C   0  0  0  0  0  0  0  0  0  0  0  0
    3.0563  -10.1094    0.0000 C   0  0  0  0  0  0  0  0  0  0  0  0
    2.5273   -5.7600    0.0000 C   0  0  0  0  0  0  0  0  0  0  0  0
    1.2343   -6.4653    0.0000 C   0  0  0  0  0  0  0  0  0  0  0  0
    1.2343   -4.9959    0.0000 C   0  0  0  0  0  0  0  0  0  0  0  0
    2.0571   -4.9959    0.0000 C   0  0  0  0  0  0  0  0  0  0  0  0
    0.8228   -5.7600    0.0000 C   0  0  0  0  0  0  0  0  0  0  0  0
    2.0571   -0.6466    0.0000 C   0  0  0  0  0  0  0  0  0  0  0  0
    1.2343   -2.1159    0.0000 C   0  0  0  0  0  0  0  0  0  0  0  0
    2.2922  -10.4033    0.0000 C   0  0  0  0  0  0  0  0  0  0  0  0
    3.7616  -10.5796    0.0000 C   0  0  0  0  0  0  0  0  0  0  0  0
    2.0571   -2.1159    0.0000 C   0  0  0  0  0  0  0  0  0  0  0  0
    0.8228   -2.8212    0.0000 C   0  0  0  0  0  0  0  0  0  0  0  0
    2.2335  -11.2849    0.0000 C   0  0  0  0  0  0  0  0  0  0  0  0
    0.8228   -4.2906    0.0000 C   0  0  0  0  0  0  0  0  0  0  0  0
    1.2343   -0.6466    0.0000 C   0  0  0  0  0  0  0  0  0  0  0  0
    0.8228   -1.3518    0.0000 C   0  0  0  0  0  0  0  0  0  0  0  0
    3.3502   -1.1755    0.0000 C   0  0  0  0  0  0  0  0  0  0  0  0
    3.6441  -11.4024    0.0000 C   0  0  0  0  0  0  0  0  0  0  0  0
    3.4090   -0.3526    0.0000 C   0  0  0  0  0  0  0  0  0  0  0  0
    2.8800  -11.7551    0.0000 C   0  0  0  0  0  0  0  0  0  0  0  0
  1  4  2  0  0  0  0
  1  5  2  0  0  0  0
  1 11  1  0  0  0  0
  1 12  1  0  0  0  0
  2 13  1  0  0  0  0
  2 14  1  0  0  0  0
  3 27  1  0  0  0  0
  6 26  2  0  0  0  0
  7 11  1  0  0  0  0
  7 13  2  0  0  0  0
  8 21  1  0  0  0  0
  8 25  1  0  0  0  0
  8 31  1  0  0  0  0
  9 21  2  0  0  0  0
  9 33  1  0  0  0  0
 10 26  1  0  0  0  0
 10 28  1  0  0  0  0
 11 14  2  0  0  0  0
 12 16  2  0  0  0  0
 12 17  1  0  0  0  0
 13 15  1  0  0  0  0
 15 23  1  0  0  0  0
 15 24  2  0  0  0  0
 16 19  1  0  0  0  0
 17 20  2  0  0  0  0
 18 19  2  0  0  0  0
 18 20  1  0  0  0  0
 18 28  1  0  0  0  0
 21 29  1  0  0  0  0
 22 25  2  0  0  0  0
 22 26  1  0  0  0  0
 22 30  1  0  0  0  0
 23 27  2  0  0  0  0
 24 32  1  0  0  0  0
 27 34  1  0  0  0  0
 29 30  2  0  0  0  0
 31 33  2  0  0  0  0
 32 34  2  0  0  0  0
M  END
> <PUBCHEM_COMPOUND_ID_TYPE>
0

> <PUBCHEM_TOTAL_CHARGE>
0

> <PUBCHEM_SUBSTANCE_ID>
310930758

> <PUBCHEM_SUBSTANCE_VERSION>
1

> <PUBCHEM_EXT_DATASOURCE_NAME>
4488

> <PUBCHEM_EXT_DATASOURCE_REGID>
SCHEMBL16108055

> <PUBCHEM_SUBSTANCE_COMMENT>
InChI=1S/C24H17FN4O3S2/c25-19-3-1-2-17(12-19)24-28-22(15-33-24)34(31,32)20-7-4-16(5-8-20)13-27-23(30)18-6-9-21-26-10-11-29(21)14-18/h1-12,14-15H,13H2,(H,27,30)
InChIKey=WZXOQJXWDSLAOG-UHFFFAOYSA-N

> <PUBCHEM_SUBSTANCE_SYNONYM>
SCHEMBL16108055

> <PUBCHEM_XREF_EXT_ID>
SCHEMBL16108055

> <PUBCHEM_EXT_DATASOURCE_URL>
https://www.surechembl.org/

> <PUBCHEM_EXT_SUBSTANCE_URL>
https://www.surechembl.org/chemical/SCHEMBL16108055

> <PUBCHEM_CID_ASSOCIATIONS>
117599777  1

> <PUBCHEM_COORDINATE_TYPE>
1
3

$$$$
