310941567
  -OEChem-07211613022D

 26 29  0     0  0  0  0  0  0999 V2000
    0.3854    1.7558    0.0000 S   0  0  0  0  0  0  0  0  0  0  0  0
   -1.9442   -0.9336    0.0000 O   0  0  0  0  0  0  0  0  0  0  0  0
   -0.5053   -0.9336    0.0000 O   0  0  0  0  0  0  0  0  0  0  0  0
    3.2803    0.7623    0.0000 O   0  0  0  0  0  0  0  0  0  0  0  0
    0.2484    0.4025    0.0000 N   0  0  0  0  0  0  0  0  0  0  0  0
    1.6359    0.9165    0.0000 N   0  0  0  0  0  0  0  0  0  0  0  0
   -3.3831   -1.7558    0.0000 N   0  0  0  0  0  0  0  0  0  0  0  0
   -1.2248    0.3341    0.0000 C   0  0  0  0  0  0  0  0  0  0  0  0
   -0.5225    0.7451    0.0000 C   0  0  0  0  0  0  0  0  0  0  0  0
   -2.6808   -0.4882    0.0000 C   0  0  0  0  0  0  0  0  0  0  0  0
   -2.6637    0.3511    0.0000 C   0  0  0  0  0  0  0  0  0  0  0  0
   -1.2591   -0.5053    0.0000 C   0  0  0  0  0  0  0  0  0  0  0  0
   -1.9442    0.7280    0.0000 C   0  0  0  0  0  0  0  0  0  0  0  0
    0.7794    1.0364    0.0000 C   0  0  0  0  0  0  0  0  0  0  0  0
   -3.3831   -0.9165    0.0000 C   0  0  0  0  0  0  0  0  0  0  0  0
   -0.4197    1.5845    0.0000 C   0  0  0  0  0  0  0  0  0  0  0  0
   -3.4002    0.7280    0.0000 C   0  0  0  0  0  0  0  0  0  0  0  0
    1.9442    0.1970    0.0000 C   0  0  0  0  0  0  0  0  0  0  0  0
   -4.0855   -0.5225    0.0000 C   0  0  0  0  0  0  0  0  0  0  0  0
   -4.1025    0.3341    0.0000 C   0  0  0  0  0  0  0  0  0  0  0  0
    2.7665    0.0771    0.0000 C   0  0  0  0  0  0  0  0  0  0  0  0
    1.4817   -0.5225    0.0000 C   0  0  0  0  0  0  0  0  0  0  0  0
    3.1090   -0.6766    0.0000 C   0  0  0  0  0  0  0  0  0  0  0  0
    1.8243   -1.2591    0.0000 C   0  0  0  0  0  0  0  0  0  0  0  0
    2.6294   -1.3275    0.0000 C   0  0  0  0  0  0  0  0  0  0  0  0
    4.1025    0.6595    0.0000 C   0  0  0  0  0  0  0  0  0  0  0  0
  1 14  1  0  0  0  0
  1 16  1  0  0  0  0
  2 10  1  0  0  0  0
  2 12  1  0  0  0  0
  3 12  2  0  0  0  0
  4 21  1  0  0  0  0
  4 26  1  0  0  0  0
  5  9  1  0  0  0  0
  5 14  2  0  0  0  0
  6 14  1  0  0  0  0
  6 18  1  0  0  0  0
  7 15  1  0  0  0  0
  8  9  1  0  0  0  0
  8 12  1  0  0  0  0
  8 13  2  0  0  0  0
  9 16  2  0  0  0  0
 10 11  1  0  0  0  0
 10 15  2  0  0  0  0
 11 13  1  0  0  0  0
 11 17  2  0  0  0  0
 15 19  1  0  0  0  0
 17 20  1  0  0  0  0
 18 21  1  0  0  0  0
 18 22  2  0  0  0  0
 19 20  2  0  0  0  0
 21 23  2  0  0  0  0
 22 24  1  0  0  0  0
 23 25  1  0  0  0  0
 24 25  2  0  0  0  0
M  END
> <PUBCHEM_COMPOUND_ID_TYPE>
0

> <PUBCHEM_TOTAL_CHARGE>
0

> <PUBCHEM_SUBSTANCE_ID>
310941567

> <PUBCHEM_SUBSTANCE_VERSION>
1

> <PUBCHEM_EXT_DATASOURCE_NAME>
4488

> <PUBCHEM_EXT_DATASOURCE_REGID>
SCHEMBL16119598

> <PUBCHEM_SUBSTANCE_COMMENT>
InChI=1S/C19H15N3O3S/c1-24-16-8-3-2-7-14(16)21-19-22-15(10-26-19)12-9-11-5-4-6-13(20)17(11)25-18(12)23/h2-10H,20H2,1H3,(H,21,22)
InChIKey=FIKIIYZRADISQS-UHFFFAOYSA-N

> <PUBCHEM_SUBSTANCE_SYNONYM>
SCHEMBL16119598

> <PUBCHEM_XREF_EXT_ID>
SCHEMBL16119598

> <PUBCHEM_EXT_DATASOURCE_URL>
https://www.surechembl.org/

> <PUBCHEM_EXT_SUBSTANCE_URL>
https://www.surechembl.org/chemical/SCHEMBL16119598

> <PUBCHEM_CID_ASSOCIATIONS>
78425847  1

> <PUBCHEM_COORDINATE_TYPE>
1
3

$$$$
