310944594
  -OEChem-07211613022D

 30 32  0     1  0  0  0  0  0999 V2000
   -4.6894   -0.3318    0.0000 Cl  0  0  0  0  0  0  0  0  0  0  0  0
   -1.6222   -0.3318    0.0000 O   0  0  0  0  0  0  0  0  0  0  0  0
   -0.1770    2.1604    0.0000 O   0  0  0  0  0  0  0  0  0  0  0  0
    4.4387   -2.1604    0.0000 O   0  0  0  0  0  0  0  0  0  0  0  0
    2.0055    0.0958    0.0000 N   0  0  0  0  0  0  0  0  0  0  0  0
    3.7309   -0.9069    0.0000 N   0  0  0  0  0  0  0  0  0  0  0  0
    0.5604    0.9216    0.0000 N   0  0  0  0  0  0  0  0  0  0  0  0
   -1.6073    1.3345    0.0000 N   0  0  0  0  0  0  0  0  0  0  0  0
    2.7281   -0.3171    0.0000 C   0  0  0  0  0  0  0  0  0  0  0  0
    3.5245   -0.1106    0.0000 C   0  0  0  0  0  0  0  0  0  0  0  0
    2.9346   -1.1133    0.0000 C   0  0  0  0  0  0  0  0  0  0  0  0
   -2.3151    0.9216    0.0000 C   0  0  0  0  0  0  0  0  0  0  0  0
   -0.1770    1.3198    0.0000 C   0  0  0  0  0  0  0  0  0  0  0  0
   -2.3299    0.0958    0.0000 C   0  0  0  0  0  0  0  0  0  0  0  0
   -0.8700    0.9216    0.0000 C   0  0  3  0  0  0  0  0  0  0  0  0
    1.9908    0.9216    0.0000 C   0  0  0  0  0  0  0  0  0  0  0  0
    1.2829   -0.3171    0.0000 C   0  0  0  0  0  0  0  0  0  0  0  0
    4.4535   -1.3051    0.0000 C   0  0  0  0  0  0  0  0  0  0  0  0
    1.2682    1.3345    0.0000 C   0  0  0  0  0  0  0  0  0  0  0  0
    0.5604    0.0811    0.0000 C   0  0  0  0  0  0  0  0  0  0  0  0
   -3.7457    0.9216    0.0000 C   0  0  0  0  0  0  0  0  0  0  0  0
   -3.0525    1.3198    0.0000 C   0  0  0  0  0  0  0  0  0  0  0  0
   -3.7751    0.0958    0.0000 C   0  0  0  0  0  0  0  0  0  0  0  0
   -3.0230   -0.3171    0.0000 C   0  0  0  0  0  0  0  0  0  0  0  0
    5.1613   -0.9216    0.0000 C   0  0  0  0  0  0  0  0  0  0  0  0
   -4.4977    1.3345    0.0000 C   0  0  0  0  0  0  0  0  0  0  0  0
   -0.8847    0.1106    0.0000 C   0  0  0  0  0  0  0  0  0  0  0  0
   -1.5926   -1.1428    0.0000 C   0  0  0  0  0  0  0  0  0  0  0  0
    5.1023   -0.0958    0.0000 C   0  0  0  0  0  0  0  0  0  0  0  0
   -5.1613    0.9216    0.0000 C   0  0  0  0  0  0  0  0  0  0  0  0
  1 23  1  0  0  0  0
  2 14  1  0  0  0  0
  2 28  1  0  0  0  0
  3 13  2  0  0  0  0
  4 18  2  0  0  0  0
  5  9  1  0  0  0  0
  5 16  1  0  0  0  0
  5 17  1  0  0  0  0
  6 10  1  0  0  0  0
  6 11  1  0  0  0  0
  6 18  1  0  0  0  0
  7 13  1  0  0  0  0
  7 19  1  0  0  0  0
  7 20  1  0  0  0  0
  8 12  1  0  0  0  0
  8 15  1  0  0  0  0
  9 10  1  0  0  0  0
  9 11  1  0  0  0  0
 12 14  1  0  0  0  0
 12 22  2  0  0  0  0
 13 15  1  0  0  0  0
 14 24  2  0  0  0  0
 15 27  1  6  0  0  0
 16 19  1  0  0  0  0
 17 20  1  0  0  0  0
 18 25  1  0  0  0  0
 21 22  1  0  0  0  0
 21 23  2  0  0  0  0
 21 26  1  0  0  0  0
 23 24  1  0  0  0  0
 25 29  2  0  0  0  0
 26 30  1  0  0  0  0
M  END
> <PUBCHEM_COMPOUND_ID_TYPE>
0

> <PUBCHEM_TOTAL_CHARGE>
0

> <PUBCHEM_SUBSTANCE_ID>
310944594

> <PUBCHEM_SUBSTANCE_VERSION>
1

> <PUBCHEM_EXT_DATASOURCE_NAME>
4488

> <PUBCHEM_EXT_DATASOURCE_REGID>
SCHEMBL16122672

> <PUBCHEM_SUBSTANCE_COMMENT>
InChI=1S/C22H31ClN4O3/c1-5-16-11-19(20(30-4)12-18(16)23)24-15(3)22(29)26-9-7-25(8-10-26)17-13-27(14-17)21(28)6-2/h6,11-12,15,17,24H,2,5,7-10,13-14H2,1,3-4H3/t15-/m0/s1
InChIKey=KMBIIENZYGTTPU-HNNXBMFYSA-N

> <PUBCHEM_SUBSTANCE_SYNONYM>
SCHEMBL16122672

> <PUBCHEM_XREF_EXT_ID>
SCHEMBL16122672

> <PUBCHEM_EXT_DATASOURCE_URL>
https://www.surechembl.org/

> <PUBCHEM_EXT_SUBSTANCE_URL>
https://www.surechembl.org/chemical/SCHEMBL16122672

> <PUBCHEM_CID_ASSOCIATIONS>
117610824  1

> <PUBCHEM_COORDINATE_TYPE>
1
3

> <PUBCHEM_BONDANNOTATIONS>
15  27  6

$$$$
