310941446
  -OEChem-07211613022D

 43 48  0     1  0  0  0  0  0999 V2000
   -1.4946   -2.2730    0.0000 F   0  0  0  0  0  0  0  0  0  0  0  0
   -0.7846    2.2979    0.0000 O   0  0  0  0  0  0  0  0  0  0  0  0
   -3.6616    3.9543    0.0000 O   0  0  0  0  0  0  0  0  0  0  0  0
   -0.0622   -4.7638    0.0000 O   0  0  0  0  0  0  0  0  0  0  0  0
   -0.0498    1.0524    0.0000 N   0  0  0  0  0  0  0  0  0  0  0  0
    0.6725   -1.0275    0.0000 N   0  0  0  0  0  0  0  0  0  0  0  0
    2.1173   -1.0275    0.0000 N   0  0  0  0  0  0  0  0  0  0  0  0
    2.8272   -2.2730    0.0000 N   0  0  0  0  0  0  0  0  0  0  0  0
    3.6741   -1.0275    0.0000 N   0  0  0  0  0  0  0  0  0  0  0  0
   -1.4946    1.0648    0.0000 C   0  0  0  0  0  0  0  0  0  0  0  0
   -0.7846    1.4509    0.0000 C   0  0  0  0  0  0  0  0  0  0  0  0
   -0.0622    0.2179    0.0000 C   0  0  0  0  0  0  0  0  0  0  0  0
   -1.5070    0.2304    0.0000 C   0  0  0  0  0  0  0  0  0  0  0  0
   -2.2169    1.4634    0.0000 C   0  0  0  0  0  0  0  0  0  0  0  0
   -0.7597   -0.1930    0.0000 C   0  0  0  0  0  0  0  0  0  0  0  0
    0.6601    1.4758    0.0000 C   0  0  0  0  0  0  0  0  0  0  0  0
    0.6725   -0.1930    0.0000 C   0  0  3  0  0  0  0  0  0  0  0  0
   -2.2169    2.3103    0.0000 C   0  0  0  0  0  0  0  0  0  0  0  0
   -2.2169   -0.1930    0.0000 C   0  0  0  0  0  0  0  0  0  0  0  0
   -2.9143    1.0524    0.0000 C   0  0  0  0  0  0  0  0  0  0  0  0
    1.3949   -1.4260    0.0000 C   0  0  0  0  0  0  0  0  0  0  0  0
    1.3700   -2.2605    0.0000 C   0  0  0  0  0  0  0  0  0  0  0  0
   -2.9143    0.2179    0.0000 C   0  0  0  0  0  0  0  0  0  0  0  0
    1.3949    1.0648    0.0000 C   0  0  0  0  0  0  0  0  0  0  0  0
    0.6725    2.2979    0.0000 C   0  0  0  0  0  0  0  0  0  0  0  0
    0.6601   -2.6840    0.0000 C   0  0  0  0  0  0  0  0  0  0  0  0
   -2.9143    2.7089    0.0000 C   0  0  0  0  0  0  0  0  0  0  0  0
   -1.4946    2.7089    0.0000 C   0  0  0  0  0  0  0  0  0  0  0  0
    1.3824    0.2179    0.0000 C   0  0  0  0  0  0  0  0  0  0  0  0
    2.1173   -2.6840    0.0000 C   0  0  0  0  0  0  0  0  0  0  0  0
   -2.9143    3.5558    0.0000 C   0  0  0  0  0  0  0  0  0  0  0  0
    2.8272   -1.4385    0.0000 C   0  0  0  0  0  0  0  0  0  0  0  0
    2.1048    1.4758    0.0000 C   0  0  0  0  0  0  0  0  0  0  0  0
    1.3700    2.6964    0.0000 C   0  0  0  0  0  0  0  0  0  0  0  0
   -0.0498   -2.2730    0.0000 C   0  0  0  0  0  0  0  0  0  0  0  0
    0.6601   -3.5184    0.0000 C   0  0  0  0  0  0  0  0  0  0  0  0
   -1.4946    3.5433    0.0000 C   0  0  0  0  0  0  0  0  0  0  0  0
   -2.2045    3.9543    0.0000 C   0  0  0  0  0  0  0  0  0  0  0  0
   -0.7597   -2.6840    0.0000 C   0  0  0  0  0  0  0  0  0  0  0  0
   -0.0498   -3.9169    0.0000 C   0  0  0  0  0  0  0  0  0  0  0  0
    2.1048    2.2979    0.0000 C   0  0  0  0  0  0  0  0  0  0  0  0
   -0.7597   -3.5059    0.0000 C   0  0  0  0  0  0  0  0  0  0  0  0
   -3.6741    4.7638    0.0000 C   0  0  0  0  0  0  0  0  0  0  0  0
  1 39  1  0  0  0  0
  2 11  2  0  0  0  0
  3 31  1  0  0  0  0
  3 43  1  0  0  0  0
  4 40  1  0  0  0  0
  5 11  1  0  0  0  0
  5 12  1  0  0  0  0
  5 16  1  0  0  0  0
  6 17  1  0  0  0  0
  6 21  1  0  0  0  0
  7 21  1  0  0  0  0
  7 32  2  0  0  0  0
  8 30  2  0  0  0  0
  8 32  1  0  0  0  0
  9 32  1  0  0  0  0
 10 11  1  0  0  0  0
 10 13  1  0  0  0  0
 10 14  2  0  0  0  0
 12 15  2  0  0  0  0
 12 17  1  0  0  0  0
 13 15  1  0  0  0  0
 13 19  2  0  0  0  0
 14 18  1  0  0  0  0
 14 20  1  0  0  0  0
 16 24  2  0  0  0  0
 16 25  1  0  0  0  0
 17 29  1  6  0  0  0
 18 27  2  0  0  0  0
 18 28  1  0  0  0  0
 19 23  1  0  0  0  0
 20 23  2  0  0  0  0
 21 22  2  0  0  0  0
 22 26  1  0  0  0  0
 22 30  1  0  0  0  0
 24 33  1  0  0  0  0
 25 34  2  0  0  0  0
 26 35  2  0  0  0  0
 26 36  1  0  0  0  0
 27 31  1  0  0  0  0
 28 37  2  0  0  0  0
 31 38  2  0  0  0  0
 33 41  2  0  0  0  0
 34 41  1  0  0  0  0
 35 39  1  0  0  0  0
 36 40  2  0  0  0  0
 37 38  1  0  0  0  0
 39 42  2  0  0  0  0
 40 42  1  0  0  0  0
M  END
> <PUBCHEM_COMPOUND_ID_TYPE>
0

> <PUBCHEM_TOTAL_CHARGE>
0

> <PUBCHEM_SUBSTANCE_ID>
310941446

> <PUBCHEM_SUBSTANCE_VERSION>
1

> <PUBCHEM_EXT_DATASOURCE_NAME>
4488

> <PUBCHEM_EXT_DATASOURCE_REGID>
SCHEMBL16119406

> <PUBCHEM_SUBSTANCE_COMMENT>
InChI=1S/C34H28FN5O3/c1-20(38-32-29(19-37-34(36)39-32)23-14-24(35)18-26(41)15-23)30-17-22-9-7-13-28(21-8-6-12-27(16-21)43-2)31(22)33(42)40(30)25-10-4-3-5-11-25/h3-20,41H,1-2H3,(H3,36,37,38,39)/t20-/m0/s1
InChIKey=DTCQPAUOSXAEDZ-FQEVSTJZSA-N

> <PUBCHEM_SUBSTANCE_SYNONYM>
SCHEMBL16119406

> <PUBCHEM_XREF_EXT_ID>
SCHEMBL16119406

> <PUBCHEM_EXT_DATASOURCE_URL>
https://www.surechembl.org/

> <PUBCHEM_EXT_SUBSTANCE_URL>
https://www.surechembl.org/chemical/SCHEMBL16119406

> <PUBCHEM_CID_ASSOCIATIONS>
117608270  1

> <PUBCHEM_COORDINATE_TYPE>
1
3

> <PUBCHEM_BONDANNOTATIONS>
17  29  6

$$$$
