310948145
  -OEChem-07211613022D

 46 51  0     0  0  0  0  0  0999 V2000
    2.6921   -2.6026    0.0000 S   0  0  0  0  0  0  0  0  0  0  0  0
   -3.4220    2.6990    0.0000 F   0  0  0  0  0  0  0  0  0  0  0  0
   -2.2790    2.4649    0.0000 F   0  0  0  0  0  0  0  0  0  0  0  0
    4.2069    3.4289    0.0000 F   0  0  0  0  0  0  0  0  0  0  0  0
    4.6200    2.3823    0.0000 F   0  0  0  0  0  0  0  0  0  0  0  0
    3.6836    0.1240    0.0000 F   0  0  0  0  0  0  0  0  0  0  0  0
   -0.9295    1.9141    0.0000 O   0  0  0  0  0  0  0  0  0  0  0  0
    3.1466    3.1122    0.0000 O   0  0  0  0  0  0  0  0  0  0  0  0
    3.6561    1.8591    0.0000 O   0  0  0  0  0  0  0  0  0  0  0  0
   -4.6200    2.1482    0.0000 O   0  0  0  0  0  0  0  0  0  0  0  0
    3.5184   -2.4511    0.0000 O   0  0  0  0  0  0  0  0  0  0  0  0
    1.8935   -2.7403    0.0000 O   0  0  0  0  0  0  0  0  0  0  0  0
   -2.1413    0.0138    0.0000 N   0  0  0  0  0  0  0  0  0  0  0  0
   -0.0069    2.8918    0.0000 N   0  0  0  0  0  0  0  0  0  0  0  0
   -2.7886    0.5233    0.0000 N   0  0  0  0  0  0  0  0  0  0  0  0
   -4.0417    0.8400    0.0000 N   0  0  0  0  0  0  0  0  0  0  0  0
   -0.0619    0.7436    0.0000 C   0  0  0  0  0  0  0  0  0  0  0  0
   -0.1996    1.5561    0.0000 C   0  0  0  0  0  0  0  0  0  0  0  0
   -0.6679    0.1928    0.0000 C   0  0  0  0  0  0  0  0  0  0  0  0
    0.3787    2.1620    0.0000 C   0  0  0  0  0  0  0  0  0  0  0  0
   -1.4665    0.4820    0.0000 C   0  0  0  0  0  0  0  0  0  0  0  0
    1.2050    2.0381    0.0000 C   0  0  0  0  0  0  0  0  0  0  0  0
   -2.4994    1.3219    0.0000 C   0  0  0  0  0  0  0  0  0  0  0  0
    0.7230    0.4407    0.0000 C   0  0  0  0  0  0  0  0  0  0  0  0
    0.8606   -0.3718    0.0000 C   0  0  0  0  0  0  0  0  0  0  0  0
    2.5131    2.5751    0.0000 C   0  0  0  0  0  0  0  0  0  0  0  0
   -1.6731    1.2807    0.0000 C   0  0  0  0  0  0  0  0  0  0  0  0
   -2.9676    2.0105    0.0000 C   0  0  0  0  0  0  0  0  0  0  0  0
    2.8161    1.8177    0.0000 C   0  0  0  0  0  0  0  0  0  0  0  0
   -0.5301   -0.6197    0.0000 C   0  0  0  0  0  0  0  0  0  0  0  0
   -0.8193    2.7541    0.0000 C   0  0  0  0  0  0  0  0  0  0  0  0
    1.7007    2.6853    0.0000 C   0  0  0  0  0  0  0  0  0  0  0  0
    3.8488    2.6853    0.0000 C   0  0  0  0  0  0  0  0  0  0  0  0
    1.6455   -0.6610    0.0000 C   0  0  0  0  0  0  0  0  0  0  0  0
    0.2410   -0.9089    0.0000 C   0  0  0  0  0  0  0  0  0  0  0  0
    1.5079    1.2807    0.0000 C   0  0  0  0  0  0  0  0  0  0  0  0
    2.3341    1.1567    0.0000 C   0  0  0  0  0  0  0  0  0  0  0  0
   -3.9178    1.6662    0.0000 C   0  0  0  0  0  0  0  0  0  0  0  0
    1.7970   -1.4734    0.0000 C   0  0  0  0  0  0  0  0  0  0  0  0
    2.5544   -1.7626    0.0000 C   0  0  0  0  0  0  0  0  0  0  0  0
    2.2652   -0.1377    0.0000 C   0  0  0  0  0  0  0  0  0  0  0  0
   -2.1413   -0.8400    0.0000 C   0  0  0  0  0  0  0  0  0  0  0  0
    3.0502   -0.4132    0.0000 C   0  0  0  0  0  0  0  0  0  0  0  0
   -1.4115    3.3325    0.0000 C   0  0  0  0  0  0  0  0  0  0  0  0
    3.1741   -1.2394    0.0000 C   0  0  0  0  0  0  0  0  0  0  0  0
    2.8712   -3.4289    0.0000 C   0  0  0  0  0  0  0  0  0  0  0  0
  1 11  2  0  0  0  0
  1 12  2  0  0  0  0
  1 40  1  0  0  0  0
  1 46  1  0  0  0  0
  2 28  1  0  0  0  0
  3 28  1  0  0  0  0
  4 33  1  0  0  0  0
  5 33  1  0  0  0  0
  6 43  1  0  0  0  0
  7 18  1  0  0  0  0
  7 31  1  0  0  0  0
  8 26  1  0  0  0  0
  8 33  1  0  0  0  0
  9 29  1  0  0  0  0
  9 33  1  0  0  0  0
 10 38  2  0  0  0  0
 13 15  1  0  0  0  0
 13 21  1  0  0  0  0
 13 42  1  0  0  0  0
 14 20  1  0  0  0  0
 14 31  2  0  0  0  0
 15 23  2  0  0  0  0
 16 38  1  0  0  0  0
 17 18  1  0  0  0  0
 17 19  2  0  0  0  0
 17 24  1  0  0  0  0
 18 20  2  0  0  0  0
 19 21  1  0  0  0  0
 19 30  1  0  0  0  0
 20 22  1  0  0  0  0
 21 27  2  0  0  0  0
 22 32  2  0  0  0  0
 22 36  1  0  0  0  0
 23 27  1  0  0  0  0
 23 28  1  0  0  0  0
 24 25  2  0  0  0  0
 25 34  1  0  0  0  0
 25 35  1  0  0  0  0
 26 29  2  0  0  0  0
 26 32  1  0  0  0  0
 28 38  1  0  0  0  0
 29 37  1  0  0  0  0
 30 35  2  0  0  0  0
 31 44  1  0  0  0  0
 34 39  2  0  0  0  0
 34 41  1  0  0  0  0
 36 37  2  0  0  0  0
 39 40  1  0  0  0  0
 40 45  2  0  0  0  0
 41 43  2  0  0  0  0
 43 45  1  0  0  0  0
M  END
> <PUBCHEM_COMPOUND_ID_TYPE>
0

> <PUBCHEM_TOTAL_CHARGE>
0

> <PUBCHEM_SUBSTANCE_ID>
310948145

> <PUBCHEM_SUBSTANCE_VERSION>
1

> <PUBCHEM_EXT_DATASOURCE_NAME>
4488

> <PUBCHEM_EXT_DATASOURCE_REGID>
SCHEMBL16126322

> <PUBCHEM_SUBSTANCE_COMMENT>
InChI=1S/C30H21F5N4O6S/c1-14-37-26(16-5-7-23-24(11-16)45-30(34,35)44-23)27(43-14)21-10-15(17-8-18(31)12-19(9-17)46(3,41)42)4-6-20(21)22-13-25(38-39(22)2)29(32,33)28(36)40/h4-13H,1-3H3,(H2,36,40)
InChIKey=BWPXQWJWBALQCB-UHFFFAOYSA-N

> <PUBCHEM_SUBSTANCE_SYNONYM>
SCHEMBL16126322

> <PUBCHEM_XREF_EXT_ID>
SCHEMBL16126322

> <PUBCHEM_EXT_DATASOURCE_URL>
https://www.surechembl.org/

> <PUBCHEM_EXT_SUBSTANCE_URL>
https://www.surechembl.org/chemical/SCHEMBL16126322

> <PUBCHEM_CID_ASSOCIATIONS>
86276117  1

> <PUBCHEM_COORDINATE_TYPE>
1
3

$$$$
