310947605
  -OEChem-07211613022D

 38 42  0     0  0  0  0  0  0999 V2000
    1.4490   -0.3919    0.0000 S   0  0  0  0  0  0  0  0  0  0  0  0
   -0.9698   -0.8190    0.0000 F   0  0  0  0  0  0  0  0  0  0  0  0
   -1.7094    1.9416    0.0000 F   0  0  0  0  0  0  0  0  0  0  0  0
    4.7490   -1.2169    0.0000 F   0  0  0  0  0  0  0  0  0  0  0  0
    5.5740   -0.3919    0.0000 F   0  0  0  0  0  0  0  0  0  0  0  0
    4.7490    0.4331    0.0000 F   0  0  0  0  0  0  0  0  0  0  0  0
   -2.7199    0.9311    0.0000 O   0  0  0  0  0  0  0  0  0  0  0  0
    1.4490    0.4331    0.0000 O   0  0  0  0  0  0  0  0  0  0  0  0
    1.4490   -1.2169    0.0000 O   0  0  0  0  0  0  0  0  0  0  0  0
   -2.3500   -1.7840    0.0000 N   0  0  0  0  0  0  0  0  0  0  0  0
    0.6240   -0.3919    0.0000 N   0  0  0  0  0  0  0  0  0  0  0  0
   -3.8491   -1.9416    0.0000 N   0  0  0  0  0  0  0  0  0  0  0  0
   -4.5636   -0.7041    0.0000 N   0  0  0  0  0  0  0  0  0  0  0  0
   -3.8491    0.5334    0.0000 N   0  0  0  0  0  0  0  0  0  0  0  0
   -5.5740    1.5293    0.0000 N   0  0  0  0  0  0  0  0  0  0  0  0
   -3.1346   -0.7041    0.0000 C   0  0  0  0  0  0  0  0  0  0  0  0
   -2.3500   -0.4491    0.0000 C   0  0  0  0  0  0  0  0  0  0  0  0
   -1.3396    0.5613    0.0000 C   0  0  0  0  0  0  0  0  0  0  0  0
   -2.1365    0.3478    0.0000 C   0  0  0  0  0  0  0  0  0  0  0  0
   -3.1346   -1.5291    0.0000 C   0  0  0  0  0  0  0  0  0  0  0  0
   -0.7562   -0.0221    0.0000 C   0  0  0  0  0  0  0  0  0  0  0  0
   -3.8491   -0.2916    0.0000 C   0  0  0  0  0  0  0  0  0  0  0  0
    0.0406    0.1915    0.0000 C   0  0  0  0  0  0  0  0  0  0  0  0
   -1.1261    1.3582    0.0000 C   0  0  0  0  0  0  0  0  0  0  0  0
   -1.8651   -1.1166    0.0000 C   0  0  0  0  0  0  0  0  0  0  0  0
    2.2740   -0.3919    0.0000 C   0  0  0  0  0  0  0  0  0  0  0  0
    0.2542    0.9884    0.0000 C   0  0  0  0  0  0  0  0  0  0  0  0
   -0.3292    1.5717    0.0000 C   0  0  0  0  0  0  0  0  0  0  0  0
   -4.5636   -1.5291    0.0000 C   0  0  0  0  0  0  0  0  0  0  0  0
   -4.5636    0.9459    0.0000 C   0  0  0  0  0  0  0  0  0  0  0  0
    3.9240   -0.3919    0.0000 C   0  0  0  0  0  0  0  0  0  0  0  0
    2.6865   -1.1064    0.0000 C   0  0  0  0  0  0  0  0  0  0  0  0
    2.6865    0.3226    0.0000 C   0  0  0  0  0  0  0  0  0  0  0  0
    4.7490   -0.3919    0.0000 C   0  0  0  0  0  0  0  0  0  0  0  0
    3.5115   -1.1064    0.0000 C   0  0  0  0  0  0  0  0  0  0  0  0
    3.5115    0.3226    0.0000 C   0  0  0  0  0  0  0  0  0  0  0  0
   -4.7771    1.7428    0.0000 C   0  0  0  0  0  0  0  0  0  0  0  0
   -5.3605    0.7324    0.0000 C   0  0  0  0  0  0  0  0  0  0  0  0
  1  8  2  0  0  0  0
  1  9  2  0  0  0  0
  1 11  1  0  0  0  0
  1 26  1  0  0  0  0
  2 21  1  0  0  0  0
  3 24  1  0  0  0  0
  4 34  1  0  0  0  0
  5 34  1  0  0  0  0
  6 34  1  0  0  0  0
  7 19  2  0  0  0  0
 10 20  1  0  0  0  0
 10 25  1  0  0  0  0
 11 23  1  0  0  0  0
 12 20  2  0  0  0  0
 12 29  1  0  0  0  0
 13 22  1  0  0  0  0
 13 29  2  0  0  0  0
 14 22  1  0  0  0  0
 14 30  1  0  0  0  0
 15 37  1  0  0  0  0
 15 38  1  0  0  0  0
 16 17  1  0  0  0  0
 16 20  1  0  0  0  0
 16 22  2  0  0  0  0
 17 19  1  0  0  0  0
 17 25  2  0  0  0  0
 18 19  1  0  0  0  0
 18 21  2  0  0  0  0
 18 24  1  0  0  0  0
 21 23  1  0  0  0  0
 23 27  2  0  0  0  0
 24 28  2  0  0  0  0
 26 32  2  0  0  0  0
 26 33  1  0  0  0  0
 27 28  1  0  0  0  0
 30 37  1  0  0  0  0
 30 38  1  0  0  0  0
 31 34  1  0  0  0  0
 31 35  2  0  0  0  0
 31 36  1  0  0  0  0
 32 35  1  0  0  0  0
 33 36  2  0  0  0  0
M  END
> <PUBCHEM_COMPOUND_ID_TYPE>
0

> <PUBCHEM_TOTAL_CHARGE>
0

> <PUBCHEM_SUBSTANCE_ID>
310947605

> <PUBCHEM_SUBSTANCE_VERSION>
1

> <PUBCHEM_EXT_DATASOURCE_NAME>
4488

> <PUBCHEM_EXT_DATASOURCE_REGID>
SCHEMBL16125768

> <PUBCHEM_SUBSTANCE_COMMENT>
InChI=1S/C23H17F5N6O3S/c24-15-5-6-16(34-38(36,37)13-3-1-11(2-4-13)23(26,27)28)19(25)18(15)20(35)14-9-30-21-17(14)22(32-10-31-21)33-12-7-29-8-12/h1-6,9-10,12,29,34H,7-8H2,(H2,30,31,32,33)
InChIKey=SRQLCOGCZFQFTG-UHFFFAOYSA-N

> <PUBCHEM_SUBSTANCE_SYNONYM>
SCHEMBL16125768

> <PUBCHEM_XREF_EXT_ID>
SCHEMBL16125768

> <PUBCHEM_EXT_DATASOURCE_URL>
https://www.surechembl.org/

> <PUBCHEM_EXT_SUBSTANCE_URL>
https://www.surechembl.org/chemical/SCHEMBL16125768

> <PUBCHEM_CID_ASSOCIATIONS>
117613326  1

> <PUBCHEM_COORDINATE_TYPE>
1
3

$$$$
