310946907
  -OEChem-07211613022D

 35 40  0     1  0  0  0  0  0999 V2000
   -0.5602    4.3613    0.0000 O   0  0  0  0  0  0  0  0  0  0  0  0
   -1.3924    0.1841    0.0000 O   0  0  0  0  0  0  0  0  0  0  0  0
   -2.5608   -2.2487    0.0000 O   0  0  0  0  0  0  0  0  0  0  0  0
    0.1281    2.5048    0.0000 N   0  0  0  0  0  0  0  0  0  0  0  0
    0.6082    1.8326    0.0000 N   0  0  0  0  0  0  0  0  0  0  0  0
    0.3681    0.3921    0.0000 N   0  0  0  0  0  0  0  0  0  0  0  0
   -1.1844   -2.7769    0.0000 N   0  0  0  0  0  0  0  0  0  0  0  0
   -2.1127    1.4485    0.0000 N   0  0  0  0  0  0  0  0  0  0  0  0
    2.5608    3.0170    0.0000 N   0  0  0  0  0  0  0  0  0  0  0  0
   -0.6562    2.2647    0.0000 C   0  0  0  0  0  0  0  0  0  0  0  0
   -0.6722    1.4324    0.0000 C   0  0  0  0  0  0  0  0  0  0  0  0
    0.3841    3.3051    0.0000 C   0  0  3  0  0  0  0  0  0  0  0  0
    0.1120    1.1763    0.0000 C   0  0  0  0  0  0  0  0  0  0  0  0
   -1.3924    1.0323    0.0000 C   0  0  0  0  0  0  0  0  0  0  0  0
   -1.3764    2.6808    0.0000 C   0  0  0  0  0  0  0  0  0  0  0  0
   -1.3124   -1.4324    0.0000 C   0  0  0  0  0  0  0  0  0  0  0  0
   -0.5121   -1.6245    0.0000 C   0  0  0  0  0  0  0  0  0  0  0  0
   -0.1920   -0.2321    0.0000 C   0  0  0  0  0  0  0  0  0  0  0  0
   -0.4001    3.5611    0.0000 C   0  0  0  0  0  0  0  0  0  0  0  0
    1.0083    3.8652    0.0000 C   0  0  0  0  0  0  0  0  0  0  0  0
    0.9283    2.6808    0.0000 C   0  0  0  0  0  0  0  0  0  0  0  0
   -1.7285   -2.1687    0.0000 C   0  0  0  0  0  0  0  0  0  0  0  0
    0.0480   -1.0323    0.0000 C   0  0  0  0  0  0  0  0  0  0  0  0
   -0.4321   -2.4568    0.0000 C   0  0  0  0  0  0  0  0  0  0  0  0
   -2.0966    2.2807    0.0000 C   0  0  0  0  0  0  0  0  0  0  0  0
   -1.5365   -0.6482    0.0000 C   0  0  0  0  0  0  0  0  0  0  0  0
   -0.9923   -0.0560    0.0000 C   0  0  0  0  0  0  0  0  0  0  0  0
   -1.3604   -3.5931    0.0000 C   0  0  0  0  0  0  0  0  0  0  0  0
    0.8483    4.6494    0.0000 C   0  0  0  0  0  0  0  0  0  0  0  0
    1.7446    2.8249    0.0000 C   0  0  0  0  0  0  0  0  0  0  0  0
    0.0480    4.9055    0.0000 C   0  0  0  0  0  0  0  0  0  0  0  0
   -2.1127   -3.9292    0.0000 C   0  0  0  0  0  0  0  0  0  0  0  0
   -0.8163   -4.2173    0.0000 C   0  0  0  0  0  0  0  0  0  0  0  0
   -2.0327   -4.7294    0.0000 C   0  0  0  0  0  0  0  0  0  0  0  0
   -1.2164   -4.9055    0.0000 C   0  0  0  0  0  0  0  0  0  0  0  0
  1 19  1  0  0  0  0
  1 31  1  0  0  0  0
  2 14  2  0  0  0  0
  3 22  2  0  0  0  0
  4  5  1  0  0  0  0
  4 10  1  0  0  0  0
  4 12  1  0  0  0  0
  5 13  2  0  0  0  0
  6 13  1  0  0  0  0
  6 18  1  0  0  0  0
  7 22  1  0  0  0  0
  7 24  1  0  0  0  0
  7 28  1  0  0  0  0
  8 14  1  0  0  0  0
  8 25  1  0  0  0  0
  9 30  3  0  0  0  0
 10 11  2  0  0  0  0
 10 15  1  0  0  0  0
 11 13  1  0  0  0  0
 11 14  1  0  0  0  0
 12 19  1  0  0  0  0
 12 20  1  0  0  0  0
 12 21  1  6  0  0  0
 15 25  2  0  0  0  0
 16 17  2  0  0  0  0
 16 22  1  0  0  0  0
 16 26  1  0  0  0  0
 17 23  1  0  0  0  0
 17 24  1  0  0  0  0
 18 23  2  0  0  0  0
 18 27  1  0  0  0  0
 20 29  1  0  0  0  0
 21 30  1  0  0  0  0
 26 27  2  0  0  0  0
 28 32  1  0  0  0  0
 28 33  1  0  0  0  0
 29 31  1  0  0  0  0
 32 34  1  0  0  0  0
 33 35  1  0  0  0  0
 34 35  1  0  0  0  0
M  END
> <PUBCHEM_COMPOUND_ID_TYPE>
0

> <PUBCHEM_TOTAL_CHARGE>
0

> <PUBCHEM_SUBSTANCE_ID>
310946907

> <PUBCHEM_SUBSTANCE_VERSION>
1

> <PUBCHEM_EXT_DATASOURCE_NAME>
4488

> <PUBCHEM_EXT_DATASOURCE_REGID>
SCHEMBL16125031

> <PUBCHEM_SUBSTANCE_COMMENT>
InChI=1S/C26H28N6O3/c27-11-10-26(9-3-13-35-16-26)32-21-8-12-28-24(33)22(21)23(30-32)29-18-6-7-20-17(14-18)15-31(25(20)34)19-4-1-2-5-19/h6-8,12,14,19H,1-5,9-10,13,15-16H2,(H,28,33)(H,29,30)/t26-/m0/s1
InChIKey=WKEIICVLUZRFTC-SANMLTNESA-N

> <PUBCHEM_SUBSTANCE_SYNONYM>
SCHEMBL16125031

> <PUBCHEM_XREF_EXT_ID>
SCHEMBL16125031

> <PUBCHEM_EXT_DATASOURCE_URL>
https://www.surechembl.org/

> <PUBCHEM_EXT_SUBSTANCE_URL>
https://www.surechembl.org/chemical/SCHEMBL16125031

> <PUBCHEM_CID_ASSOCIATIONS>
117612765  1

> <PUBCHEM_COORDINATE_TYPE>
1
3

> <PUBCHEM_BONDANNOTATIONS>
12  21  6

$$$$
