310943772
  -OEChem-07211613022D

 36 39  0     0  0  0  0  0  0999 V2000
    4.2945   -2.5217    0.0000 F   0  0  0  0  0  0  0  0  0  0  0  0
   -2.8653   -0.0619    0.0000 O   0  0  0  0  0  0  0  0  0  0  0  0
    1.4361   -0.0481    0.0000 O   0  0  0  0  0  0  0  0  0  0  0  0
   -4.2945    2.4255    0.0000 O   0  0  0  0  0  0  0  0  0  0  0  0
   -2.8653    1.6010    0.0000 N   0  0  0  0  0  0  0  0  0  0  0  0
   -0.7214    0.3505    0.0000 N   0  0  0  0  0  0  0  0  0  0  0  0
   -1.4361   -0.0619    0.0000 N   0  0  0  0  0  0  0  0  0  0  0  0
    2.1507    1.1887    0.0000 N   0  0  0  0  0  0  0  0  0  0  0  0
    4.2945   -0.8726    0.0000 N   0  0  0  0  0  0  0  0  0  0  0  0
   -0.0069    1.6147    0.0000 C   0  0  0  0  0  0  0  0  0  0  0  0
   -0.7214    1.1887    0.0000 C   0  0  0  0  0  0  0  0  0  0  0  0
   -2.1507    1.1887    0.0000 C   0  0  0  0  0  0  0  0  0  0  0  0
    1.4224    1.6284    0.0000 C   0  0  0  0  0  0  0  0  0  0  0  0
   -0.0069    2.4393    0.0000 C   0  0  0  0  0  0  0  0  0  0  0  0
   -1.4498    1.6010    0.0000 C   0  0  0  0  0  0  0  0  0  0  0  0
   -2.1644    0.3642    0.0000 C   0  0  0  0  0  0  0  0  0  0  0  0
    0.7077    1.2025    0.0000 C   0  0  0  0  0  0  0  0  0  0  0  0
    1.4361    2.4393    0.0000 C   0  0  0  0  0  0  0  0  0  0  0  0
    0.7077    2.8378    0.0000 C   0  0  0  0  0  0  0  0  0  0  0  0
    2.1644    0.3916    0.0000 C   0  0  0  0  0  0  0  0  0  0  0  0
    2.8653   -0.0343    0.0000 C   0  0  0  0  0  0  0  0  0  0  0  0
    3.5799   -1.2849    0.0000 C   0  0  0  0  0  0  0  0  0  0  0  0
    2.8653   -0.8726    0.0000 C   0  0  0  0  0  0  0  0  0  0  0  0
    3.5524   -2.1095    0.0000 C   0  0  0  0  0  0  0  0  0  0  0  0
   -2.8791    2.4255    0.0000 C   0  0  0  0  0  0  0  0  0  0  0  0
   -3.5662    1.1887    0.0000 C   0  0  0  0  0  0  0  0  0  0  0  0
   -0.7352    2.8378    0.0000 C   0  0  0  0  0  0  0  0  0  0  0  0
    3.5662    0.3642    0.0000 C   0  0  0  0  0  0  0  0  0  0  0  0
    1.9171    2.7142    0.0000 C   0  0  0  0  0  0  0  0  0  0  0  0
    4.2945   -0.0481    0.0000 C   0  0  0  0  0  0  0  0  0  0  0  0
   -3.6074    2.8378    0.0000 C   0  0  0  0  0  0  0  0  0  0  0  0
   -4.2945    1.5873    0.0000 C   0  0  0  0  0  0  0  0  0  0  0  0
   -2.8791   -0.8726    0.0000 C   0  0  0  0  0  0  0  0  0  0  0  0
    2.7416   -2.1232    0.0000 C   0  0  0  0  0  0  0  0  0  0  0  0
    3.1814   -2.8378    0.0000 C   0  0  0  0  0  0  0  0  0  0  0  0
   -3.5936   -1.2849    0.0000 C   0  0  0  0  0  0  0  0  0  0  0  0
  1 24  1  0  0  0  0
  2 16  1  0  0  0  0
  2 33  1  0  0  0  0
  3 20  2  0  0  0  0
  4 31  1  0  0  0  0
  4 32  1  0  0  0  0
  5 12  1  0  0  0  0
  5 25  1  0  0  0  0
  5 26  1  0  0  0  0
  6  7  2  0  0  0  0
  6 11  1  0  0  0  0
  7 16  1  0  0  0  0
  8 13  1  0  0  0  0
  8 20  1  0  0  0  0
  9 22  2  0  0  0  0
  9 30  1  0  0  0  0
 10 11  1  0  0  0  0
 10 14  2  0  0  0  0
 10 17  1  0  0  0  0
 11 15  2  0  0  0  0
 12 15  1  0  0  0  0
 12 16  2  0  0  0  0
 13 17  2  0  0  0  0
 13 18  1  0  0  0  0
 14 19  1  0  0  0  0
 14 27  1  0  0  0  0
 18 19  2  0  0  0  0
 18 29  1  0  0  0  0
 20 21  1  0  0  0  0
 21 23  2  0  0  0  0
 21 28  1  0  0  0  0
 22 23  1  0  0  0  0
 22 24  1  0  0  0  0
 24 34  1  0  0  0  0
 24 35  1  0  0  0  0
 25 31  1  0  0  0  0
 26 32  1  0  0  0  0
 28 30  2  0  0  0  0
 33 36  1  0  0  0  0
M  END
> <PUBCHEM_COMPOUND_ID_TYPE>
0

> <PUBCHEM_TOTAL_CHARGE>
0

> <PUBCHEM_SUBSTANCE_ID>
310943772

> <PUBCHEM_SUBSTANCE_VERSION>
1

> <PUBCHEM_EXT_DATASOURCE_NAME>
4488

> <PUBCHEM_EXT_DATASOURCE_REGID>
SCHEMBL16121841

> <PUBCHEM_SUBSTANCE_COMMENT>
InChI=1S/C27H32FN5O3/c1-6-36-26-23(33-9-11-35-12-10-33)16-22(31-32-26)20-15-21(18(3)13-17(20)2)30-25(34)19-7-8-29-24(14-19)27(4,5)28/h7-8,13-16H,6,9-12H2,1-5H3,(H,30,34)
InChIKey=UHFOYPDCMTXJDW-UHFFFAOYSA-N

> <PUBCHEM_SUBSTANCE_SYNONYM>
SCHEMBL16121841

> <PUBCHEM_XREF_EXT_ID>
SCHEMBL16121841

> <PUBCHEM_EXT_DATASOURCE_URL>
https://www.surechembl.org/

> <PUBCHEM_EXT_SUBSTANCE_URL>
https://www.surechembl.org/chemical/SCHEMBL16121841

> <PUBCHEM_CID_ASSOCIATIONS>
117610134  1

> <PUBCHEM_COORDINATE_TYPE>
1
3

$$$$
