310937832
  -OEChem-07211613022D

 29 32  0     0  0  0  0  0  0999 V2000
    2.3204   -0.8489    0.0000 F   0  0  0  0  0  0  0  0  0  0  0  0
    3.0279   -2.0940    0.0000 F   0  0  0  0  0  0  0  0  0  0  0  0
    3.0279   -0.4528    0.0000 F   0  0  0  0  0  0  0  0  0  0  0  0
    0.0000   -4.9521    0.0000 F   0  0  0  0  0  0  0  0  0  0  0  0
    1.2451   -5.6595    0.0000 F   0  0  0  0  0  0  0  0  0  0  0  0
    0.4245   -4.2446    0.0000 F   0  0  0  0  0  0  0  0  0  0  0  0
    5.1218    0.0000    0.0000 O   0  0  0  0  0  0  0  0  0  0  0  0
    4.4427   -1.2451    0.0000 N   0  0  0  0  0  0  0  0  0  0  0  0
    5.1502   -3.2825    0.0000 N   0  0  0  0  0  0  0  0  0  0  0  0
    6.6499   -2.3487    0.0000 N   0  0  0  0  0  0  0  0  0  0  0  0
    7.1310   -1.6696    0.0000 N   0  0  0  0  0  0  0  0  0  0  0  0
    2.2921   -4.9521    0.0000 N   0  0  0  0  0  0  0  0  0  0  0  0
    4.4427   -2.0940    0.0000 C   0  0  0  0  0  0  0  0  0  0  0  0
    5.1502   -2.5185    0.0000 C   0  0  0  0  0  0  0  0  0  0  0  0
    5.8858   -2.0940    0.0000 C   0  0  0  0  0  0  0  0  0  0  0  0
    5.8858   -1.2451    0.0000 C   0  0  0  0  0  0  0  0  0  0  0  0
    5.1502   -0.8206    0.0000 C   0  0  0  0  0  0  0  0  0  0  0  0
    3.7353   -2.5185    0.0000 C   0  0  0  0  0  0  0  0  0  0  0  0
    3.7353   -3.2825    0.0000 C   0  0  0  0  0  0  0  0  0  0  0  0
    3.7353   -0.8489    0.0000 C   0  0  0  0  0  0  0  0  0  0  0  0
    6.6499   -0.9904    0.0000 C   0  0  0  0  0  0  0  0  0  0  0  0
    4.4427   -3.7070    0.0000 C   0  0  0  0  0  0  0  0  0  0  0  0
    2.9995   -3.7070    0.0000 C   0  0  0  0  0  0  0  0  0  0  0  0
    3.0279   -1.2734    0.0000 C   0  0  0  0  0  0  0  0  0  0  0  0
    1.5563   -4.5559    0.0000 C   0  0  0  0  0  0  0  0  0  0  0  0
    2.9712   -4.5276    0.0000 C   0  0  0  0  0  0  0  0  0  0  0  0
    2.2638   -3.3108    0.0000 C   0  0  0  0  0  0  0  0  0  0  0  0
    0.8206   -4.9521    0.0000 C   0  0  0  0  0  0  0  0  0  0  0  0
    1.5847   -3.7070    0.0000 C   0  0  0  0  0  0  0  0  0  0  0  0
  1 24  1  0  0  0  0
  2 24  1  0  0  0  0
  3 24  1  0  0  0  0
  4 28  1  0  0  0  0
  5 28  1  0  0  0  0
  6 28  1  0  0  0  0
  7 17  2  0  0  0  0
  8 13  1  0  0  0  0
  8 17  1  0  0  0  0
  8 20  1  0  0  0  0
  9 14  2  0  0  0  0
  9 22  1  0  0  0  0
 10 11  1  0  0  0  0
 10 15  1  0  0  0  0
 11 21  2  0  0  0  0
 12 25  2  0  0  0  0
 12 26  1  0  0  0  0
 13 14  1  0  0  0  0
 13 18  2  0  0  0  0
 14 15  1  0  0  0  0
 15 16  2  0  0  0  0
 16 17  1  0  0  0  0
 16 21  1  0  0  0  0
 18 19  1  0  0  0  0
 19 22  2  0  0  0  0
 19 23  1  0  0  0  0
 20 24  1  0  0  0  0
 23 26  2  0  0  0  0
 23 27  1  0  0  0  0
 25 28  1  0  0  0  0
 25 29  1  0  0  0  0
 27 29  2  0  0  0  0
M  END
> <PUBCHEM_COMPOUND_ID_TYPE>
0

> <PUBCHEM_TOTAL_CHARGE>
0

> <PUBCHEM_SUBSTANCE_ID>
310937832

> <PUBCHEM_SUBSTANCE_VERSION>
1

> <PUBCHEM_EXT_DATASOURCE_NAME>
4488

> <PUBCHEM_EXT_DATASOURCE_REGID>
SCHEMBL16115654

> <PUBCHEM_SUBSTANCE_COMMENT>
InChI=1S/C17H9F6N5O/c18-16(19,20)7-28-11-3-9(8-1-2-12(24-4-8)17(21,22)23)5-25-14(11)13-10(15(28)29)6-26-27-13/h1-6H,7H2,(H,26,27)
InChIKey=KRQDKMYXVFZDCN-UHFFFAOYSA-N

> <PUBCHEM_SUBSTANCE_SYNONYM>
SCHEMBL16115654

> <PUBCHEM_XREF_EXT_ID>
SCHEMBL16115654

> <PUBCHEM_EXT_DATASOURCE_URL>
https://www.surechembl.org/

> <PUBCHEM_EXT_SUBSTANCE_URL>
https://www.surechembl.org/chemical/SCHEMBL16115654

> <PUBCHEM_CID_ASSOCIATIONS>
86298836  1

> <PUBCHEM_COORDINATE_TYPE>
1
3

$$$$
