310940561
  -OEChem-07211613022D

 35 39  0     1  0  0  0  0  0999 V2000
    2.3309   -1.0695    0.0000 O   0  0  0  0  0  0  0  0  0  0  0  0
    2.5366    0.3428    0.0000 O   0  0  0  0  0  0  0  0  0  0  0  0
   -1.8648   -1.1929    0.0000 O   0  0  0  0  0  0  0  0  0  0  0  0
   -3.1399   -3.1262    0.0000 O   0  0  0  0  0  0  0  0  0  0  0  0
    3.1399   -2.4406    0.0000 O   0  0  0  0  0  0  0  0  0  0  0  0
    1.2066   -0.3840    0.0000 N   0  0  0  0  0  0  0  0  0  0  0  0
    1.0284   -2.8657    0.0000 N   0  0  0  0  0  0  0  0  0  0  0  0
   -2.7286   -3.8529    0.0000 N   0  0  0  0  0  0  0  0  0  0  0  0
    1.6728    4.1957    0.0000 N   0  0  0  0  0  0  0  0  0  0  0  0
    0.9872   -1.1380    0.0000 C   0  0  0  0  0  0  0  0  0  0  0  0
    0.2879   -1.5493    0.0000 C   0  0  0  0  0  0  0  0  0  0  0  0
    1.7277   -1.5493    0.0000 C   0  0  0  0  0  0  0  0  0  0  0  0
    0.2743   -2.3583    0.0000 C   0  0  0  0  0  0  0  0  0  0  0  0
    1.7139   -2.3721    0.0000 C   0  0  0  0  0  0  0  0  0  0  0  0
    1.9607   -0.2605    0.0000 C   0  0  0  0  0  0  0  0  0  0  0  0
   -1.1518   -2.3721    0.0000 C   0  0  0  0  0  0  0  0  0  0  0  0
   -0.4387   -1.1380    0.0000 C   0  0  0  0  0  0  0  0  0  0  0  0
    0.5896    0.2468    0.0000 C   0  0  3  0  0  0  0  0  0  0  0  0
   -1.1380   -1.5493    0.0000 C   0  0  0  0  0  0  0  0  0  0  0  0
   -0.4387   -2.7834    0.0000 C   0  0  0  0  0  0  0  0  0  0  0  0
   -1.8648   -2.7834    0.0000 C   0  0  0  0  0  0  0  0  0  0  0  0
    0.7953    1.0695    0.0000 C   0  0  0  0  0  0  0  0  0  0  0  0
    2.4543   -2.7697    0.0000 C   0  0  0  0  0  0  0  0  0  0  0  0
   -2.6189   -2.4406    0.0000 C   0  0  0  0  0  0  0  0  0  0  0  0
   -1.9607   -3.6198    0.0000 C   0  0  0  0  0  0  0  0  0  0  0  0
   -0.1919    0.0549    0.0000 C   0  0  0  0  0  0  0  0  0  0  0  0
    0.2331    1.6317    0.0000 C   0  0  0  0  0  0  0  0  0  0  0  0
    1.6042    1.2889    0.0000 C   0  0  0  0  0  0  0  0  0  0  0  0
   -2.7834   -1.6317    0.0000 C   0  0  0  0  0  0  0  0  0  0  0  0
   -1.3574   -4.1957    0.0000 C   0  0  0  0  0  0  0  0  0  0  0  0
    0.4387    2.4406    0.0000 C   0  0  0  0  0  0  0  0  0  0  0  0
    1.7962    2.0842    0.0000 C   0  0  0  0  0  0  0  0  0  0  0  0
    1.2203    2.6600    0.0000 C   0  0  0  0  0  0  0  0  0  0  0  0
   -1.8648   -0.2879    0.0000 C   0  0  0  0  0  0  0  0  0  0  0  0
    1.4397    3.4553    0.0000 C   0  0  0  0  0  0  0  0  0  0  0  0
  1 12  1  0  0  0  0
  1 15  1  0  0  0  0
  2 15  2  0  0  0  0
  3 19  1  0  0  0  0
  3 34  1  0  0  0  0
  4  8  1  0  0  0  0
  4 24  1  0  0  0  0
  5 23  1  0  0  0  0
  6 10  1  0  0  0  0
  6 15  1  0  0  0  0
  6 18  1  0  0  0  0
  7 13  2  0  0  0  0
  7 14  1  0  0  0  0
  8 25  2  0  0  0  0
  9 35  3  0  0  0  0
 10 11  2  0  0  0  0
 10 12  1  0  0  0  0
 11 13  1  0  0  0  0
 11 17  1  0  0  0  0
 12 14  2  0  0  0  0
 13 20  1  0  0  0  0
 14 23  1  0  0  0  0
 16 19  1  0  0  0  0
 16 20  2  0  0  0  0
 16 21  1  0  0  0  0
 17 19  2  0  0  0  0
 18 22  1  0  0  0  0
 18 26  1  6  0  0  0
 21 24  2  0  0  0  0
 21 25  1  0  0  0  0
 22 27  2  0  0  0  0
 22 28  1  0  0  0  0
 24 29  1  0  0  0  0
 25 30  1  0  0  0  0
 27 31  1  0  0  0  0
 28 32  2  0  0  0  0
 31 33  2  0  0  0  0
 32 33  1  0  0  0  0
 33 35  1  0  0  0  0
M  END
> <PUBCHEM_COMPOUND_ID_TYPE>
0

> <PUBCHEM_TOTAL_CHARGE>
0

> <PUBCHEM_SUBSTANCE_ID>
310940561

> <PUBCHEM_SUBSTANCE_VERSION>
1

> <PUBCHEM_EXT_DATASOURCE_NAME>
4488

> <PUBCHEM_EXT_DATASOURCE_REGID>
SCHEMBL16118515

> <PUBCHEM_SUBSTANCE_COMMENT>
InChI=1S/C26H22N4O5/c1-13-23(15(3)35-29-13)19-9-20-18(10-22(19)33-4)24-25(21(12-31)28-20)34-26(32)30(24)14(2)17-7-5-16(11-27)6-8-17/h5-10,14,31H,12H2,1-4H3/t14-/m1/s1
InChIKey=MNYGPRGSFWEWAF-CQSZACIVSA-N

> <PUBCHEM_SUBSTANCE_SYNONYM>
SCHEMBL16118515

> <PUBCHEM_XREF_EXT_ID>
SCHEMBL16118515

> <PUBCHEM_EXT_DATASOURCE_URL>
https://www.surechembl.org/

> <PUBCHEM_EXT_SUBSTANCE_URL>
https://www.surechembl.org/chemical/SCHEMBL16118515

> <PUBCHEM_CID_ASSOCIATIONS>
117607559  1

> <PUBCHEM_COORDINATE_TYPE>
1
3

> <PUBCHEM_BONDANNOTATIONS>
18  26  6

$$$$
