310935399
  -OEChem-07211613022D

 41 46  0     1  0  0  0  0  0999 V2000
    0.7145    6.1875    0.0000 F   0  0  0  0  0  0  0  0  0  0  0  0
    2.1434    7.0125    0.0000 O   0  0  0  0  0  0  0  0  0  0  0  0
    2.8579    3.3000    0.0000 O   0  0  0  0  0  0  0  0  0  0  0  0
    5.0013    1.2375    0.0000 O   0  0  0  0  0  0  0  0  0  0  0  0
    0.0000    0.8250    0.0000 N   0  0  0  0  0  0  0  0  0  0  0  0
    2.1434    4.5375    0.0000 N   0  0  0  0  0  0  0  0  0  0  0  0
   -0.7145   -0.4125    0.0000 N   0  0  0  0  0  0  0  0  0  0  0  0
    0.0000   -1.6500    0.0000 N   0  0  0  0  0  0  0  0  0  0  0  0
    3.5724   -0.4125    0.0000 N   0  0  0  0  0  0  0  0  0  0  0  0
    4.2868   -0.0000    0.0000 N   0  0  0  0  0  0  0  0  0  0  0  0
    0.7145   -0.4125    0.0000 C   0  0  0  0  0  0  0  0  0  0  0  0
    0.0000   -0.0000    0.0000 C   0  0  0  0  0  0  0  0  0  0  0  0
    0.7145   -1.2375    0.0000 C   0  0  0  0  0  0  0  0  0  0  0  0
    1.4289    5.7750    0.0000 C   0  0  3  0  0  0  0  0  0  0  0  0
    2.1434    6.1875    0.0000 C   0  0  3  0  0  0  0  0  0  0  0  0
    0.7145    2.0625    0.0000 C   0  0  0  0  0  0  0  0  0  0  0  0
    2.1434   -0.4125    0.0000 C   0  0  0  0  0  0  0  0  0  0  0  0
    1.4289   -1.6500    0.0000 C   0  0  0  0  0  0  0  0  0  0  0  0
    1.4289   -0.0000    0.0000 C   0  0  0  0  0  0  0  0  0  0  0  0
    1.4289    3.3000    0.0000 C   0  0  0  0  0  0  0  0  0  0  0  0
    2.1434    3.7125    0.0000 C   0  0  0  0  0  0  0  0  0  0  0  0
    0.0000    2.4750    0.0000 C   0  0  0  0  0  0  0  0  0  0  0  0
    1.4289    4.9500    0.0000 C   0  0  0  0  0  0  0  0  0  0  0  0
    0.7145    1.2375    0.0000 C   0  0  0  0  0  0  0  0  0  0  0  0
    1.4289    2.4750    0.0000 C   0  0  0  0  0  0  0  0  0  0  0  0
    2.1434   -1.2375    0.0000 C   0  0  0  0  0  0  0  0  0  0  0  0
    2.8579    5.7750    0.0000 C   0  0  0  0  0  0  0  0  0  0  0  0
   -0.7145    1.2375    0.0000 C   0  0  0  0  0  0  0  0  0  0  0  0
    2.8579    4.9500    0.0000 C   0  0  0  0  0  0  0  0  0  0  0  0
    2.8579   -0.0000    0.0000 C   0  0  0  0  0  0  0  0  0  0  0  0
   -0.7145    2.0625    0.0000 C   0  0  0  0  0  0  0  0  0  0  0  0
    0.7145    3.7125    0.0000 C   0  0  0  0  0  0  0  0  0  0  0  0
    0.0000    3.3000    0.0000 C   0  0  0  0  0  0  0  0  0  0  0  0
   -0.7145   -1.2375    0.0000 C   0  0  0  0  0  0  0  0  0  0  0  0
    2.8579    0.8250    0.0000 C   0  0  0  0  0  0  0  0  0  0  0  0
    1.4289   -2.4750    0.0000 C   0  0  0  0  0  0  0  0  0  0  0  0
    4.2868    0.8250    0.0000 C   0  0  0  0  0  0  0  0  0  0  0  0
    3.5724    1.2375    0.0000 C   0  0  0  0  0  0  0  0  0  0  0  0
    5.0013    2.0625    0.0000 C   0  0  0  0  0  0  0  0  0  0  0  0
    1.1468    6.5502    0.0000 H   0  0  0  0  0  0  0  0  0  0  0  0
    1.6131    6.8195    0.0000 H   0  0  0  0  0  0  0  0  0  0  0  0
 14  1  1  1  0  0  0
 15  2  1  1  0  0  0
  3 21  2  0  0  0  0
  4 37  1  0  0  0  0
  4 39  1  0  0  0  0
  5 12  1  0  0  0  0
  5 24  1  0  0  0  0
  5 28  1  0  0  0  0
  6 21  1  0  0  0  0
  6 23  1  0  0  0  0
  6 29  1  0  0  0  0
  7 12  2  0  0  0  0
  7 34  1  0  0  0  0
  8 13  1  0  0  0  0
  8 34  2  0  0  0  0
  9 10  2  0  0  0  0
  9 30  1  0  0  0  0
 10 37  1  0  0  0  0
 11 12  1  0  0  0  0
 11 13  1  0  0  0  0
 11 19  2  0  0  0  0
 13 18  2  0  0  0  0
 14 15  1  0  0  0  0
 14 23  1  0  0  0  0
 14 40  1  6  0  0  0
 15 27  1  0  0  0  0
 15 41  1  6  0  0  0
 16 22  1  0  0  0  0
 16 24  1  0  0  0  0
 16 25  2  0  0  0  0
 17 19  1  0  0  0  0
 17 26  2  0  0  0  0
 17 30  1  0  0  0  0
 18 26  1  0  0  0  0
 18 36  1  0  0  0  0
 20 21  1  0  0  0  0
 20 25  1  0  0  0  0
 20 32  2  0  0  0  0
 22 31  1  0  0  0  0
 22 33  2  0  0  0  0
 27 29  1  0  0  0  0
 28 31  1  0  0  0  0
 30 35  2  0  0  0  0
 32 33  1  0  0  0  0
 35 38  1  0  0  0  0
 37 38  2  0  0  0  0
M  END
> <PUBCHEM_COMPOUND_ID_TYPE>
0

> <PUBCHEM_TOTAL_CHARGE>
0

> <PUBCHEM_SUBSTANCE_ID>
310935399

> <PUBCHEM_SUBSTANCE_VERSION>
1

> <PUBCHEM_EXT_DATASOURCE_NAME>
4488

> <PUBCHEM_EXT_DATASOURCE_REGID>
SCHEMBL16112940

> <PUBCHEM_SUBSTANCE_COMMENT>
InChI=1S/C29H29FN6O3/c1-17-11-20(24-5-6-26(39-2)34-33-24)13-22-27(17)31-16-32-28(22)35-9-7-18-3-4-19(12-21(18)14-35)29(38)36-10-8-25(37)23(30)15-36/h3-6,11-13,16,23,25,37H,7-10,14-15H2,1-2H3/t23-,25+/m1/s1
InChIKey=IGQIHZXRDNPILK-NOZRDPDXSA-N

> <PUBCHEM_SUBSTANCE_SYNONYM>
SCHEMBL16112940

> <PUBCHEM_XREF_EXT_ID>
SCHEMBL16112940

> <PUBCHEM_EXT_DATASOURCE_URL>
https://www.surechembl.org/

> <PUBCHEM_EXT_SUBSTANCE_URL>
https://www.surechembl.org/chemical/SCHEMBL16112940

> <PUBCHEM_CID_ASSOCIATIONS>
86301366  1

> <PUBCHEM_COORDINATE_TYPE>
1
3

> <PUBCHEM_BONDANNOTATIONS>
14  1  5
14  40  6
15  41  6
15  2  5

$$$$
