310947564
  -OEChem-07211613022D

 23 25  0     1  0  0  0  0  0999 V2000
   -2.3645   -2.4545    0.0000 F   0  0  0  0  0  0  0  0  0  0  0  0
   -0.3805   -1.6295    0.0000 O   0  0  0  0  0  0  0  0  0  0  0  0
   -2.0626   -0.5025    0.0000 O   0  0  0  0  0  0  0  0  0  0  0  0
    1.0461    2.0699    0.0000 O   0  0  0  0  0  0  0  0  0  0  0  0
    0.1450   -3.3074    0.0000 O   0  0  0  0  0  0  0  0  0  0  0  0
   -0.4530   -0.2476    0.0000 N   0  0  0  0  0  0  0  0  0  0  0  0
   -0.4530    1.0873    0.0000 N   0  0  0  0  0  0  0  0  0  0  0  0
    1.0461   -0.4051    0.0000 N   0  0  0  0  0  0  0  0  0  0  0  0
    1.7606    0.8324    0.0000 N   0  0  0  0  0  0  0  0  0  0  0  0
    2.4751   -0.4051    0.0000 N   0  0  0  0  0  0  0  0  0  0  0  0
   -0.8655   -0.9621    0.0000 C   0  0  3  0  0  0  0  0  0  0  0  0
   -1.6501   -1.2170    0.0000 C   0  0  3  0  0  0  0  0  0  0  0  0
    0.3317    0.0074    0.0000 C   0  0  0  0  0  0  0  0  0  0  0  0
   -1.6501   -2.0420    0.0000 C   0  0  3  0  0  0  0  0  0  0  0  0
    0.3317    0.8324    0.0000 C   0  0  0  0  0  0  0  0  0  0  0  0
   -0.8655   -2.2969    0.0000 C   0  0  3  0  0  0  0  0  0  0  0  0
   -0.9379    0.4199    0.0000 C   0  0  0  0  0  0  0  0  0  0  0  0
    1.0461    1.2449    0.0000 C   0  0  0  0  0  0  0  0  0  0  0  0
   -2.4751   -1.2170    0.0000 C   0  0  0  0  0  0  0  0  0  0  0  0
    1.7606    0.0074    0.0000 C   0  0  0  0  0  0  0  0  0  0  0  0
   -0.6519   -3.0938    0.0000 C   0  0  0  0  0  0  0  0  0  0  0  0
    1.7606    2.4824    0.0000 C   0  0  0  0  0  0  0  0  0  0  0  0
    1.7606    3.3074    0.0000 C   0  0  0  0  0  0  0  0  0  0  0  0
 14  1  1  1  0  0  0
  2 11  1  0  0  0  0
  2 16  1  0  0  0  0
 12  3  1  1  0  0  0
  4 18  1  0  0  0  0
  4 22  1  0  0  0  0
  5 21  1  0  0  0  0
  6 11  1  0  0  0  0
  6 13  1  0  0  0  0
  6 17  1  0  0  0  0
  7 15  1  0  0  0  0
  7 17  2  0  0  0  0
  8 13  1  0  0  0  0
  8 20  2  0  0  0  0
  9 18  2  0  0  0  0
  9 20  1  0  0  0  0
 10 20  1  0  0  0  0
 11 12  1  0  0  0  0
 12 14  1  0  0  0  0
 12 19  1  6  0  0  0
 13 15  2  0  0  0  0
 14 16  1  0  0  0  0
 15 18  1  0  0  0  0
 16 21  1  6  0  0  0
 22 23  1  0  0  0  0
M  END
> <PUBCHEM_COMPOUND_ID_TYPE>
0

> <PUBCHEM_TOTAL_CHARGE>
0

> <PUBCHEM_SUBSTANCE_ID>
310947564

> <PUBCHEM_SUBSTANCE_VERSION>
1

> <PUBCHEM_EXT_DATASOURCE_NAME>
4488

> <PUBCHEM_EXT_DATASOURCE_REGID>
SCHEMBL16125727

> <PUBCHEM_SUBSTANCE_COMMENT>
InChI=1S/C13H18FN5O4/c1-3-22-10-7-9(17-12(15)18-10)19(5-16-7)11-13(2,21)8(14)6(4-20)23-11/h5-6,8,11,20-21H,3-4H2,1-2H3,(H2,15,17,18)/t6-,8-,11?,13-/m1/s1
InChIKey=ZHIOHCWIFHWTHT-USXOJEKESA-N

> <PUBCHEM_SUBSTANCE_SYNONYM>
SCHEMBL16125727

> <PUBCHEM_XREF_EXT_ID>
SCHEMBL16125727

> <PUBCHEM_EXT_DATASOURCE_URL>
https://www.surechembl.org/

> <PUBCHEM_EXT_SUBSTANCE_URL>
https://www.surechembl.org/chemical/SCHEMBL16125727

> <PUBCHEM_CID_ASSOCIATIONS>
117613286  1

> <PUBCHEM_COORDINATE_TYPE>
1
3

> <PUBCHEM_BONDANNOTATIONS>
14  1  5
12  19  6
16  21  6
12  3  5

$$$$
