310935102
  -OEChem-07211613022D

 24 26  0     0  0  0  0  0  0999 V2000
    7.4724   -0.8469    0.0000 F   0  0  0  0  0  0  0  0  0  0  0  0
    3.6366   -0.1744    0.0000 O   0  0  0  0  0  0  0  0  0  0  0  0
    3.3377   -2.9142    0.0000 O   0  0  0  0  0  0  0  0  0  0  0  0
    0.6974   -1.6938    0.0000 O   0  0  0  0  0  0  0  0  0  0  0  0
    4.6827   -2.4659    0.0000 N   0  0  0  0  0  0  0  0  0  0  0  0
    3.6366   -1.4945    0.0000 C   0  0  0  0  0  0  0  0  0  0  0  0
    2.8395   -1.2703    0.0000 C   0  0  0  0  0  0  0  0  0  0  0  0
    4.1347   -0.8469    0.0000 C   0  0  0  0  0  0  0  0  0  0  0  0
    2.8395   -0.3986    0.0000 C   0  0  0  0  0  0  0  0  0  0  0  0
    4.9567   -0.8469    0.0000 C   0  0  0  0  0  0  0  0  0  0  0  0
    2.1172   -1.6688    0.0000 C   0  0  0  0  0  0  0  0  0  0  0  0
    3.8857   -2.2916    0.0000 C   0  0  0  0  0  0  0  0  0  0  0  0
    2.1172    0.0000    0.0000 C   0  0  0  0  0  0  0  0  0  0  0  0
    1.4197   -0.3986    0.0000 C   0  0  0  0  0  0  0  0  0  0  0  0
    1.4197   -1.2703    0.0000 C   0  0  0  0  0  0  0  0  0  0  0  0
    5.3801   -0.1245    0.0000 C   0  0  0  0  0  0  0  0  0  0  0  0
    5.3801   -1.5443    0.0000 C   0  0  0  0  0  0  0  0  0  0  0  0
    0.6974    0.0000    0.0000 C   0  0  0  0  0  0  0  0  0  0  0  0
    6.2021   -0.1245    0.0000 C   0  0  0  0  0  0  0  0  0  0  0  0
    6.2021   -1.5443    0.0000 C   0  0  0  0  0  0  0  0  0  0  0  0
    6.6255   -0.8469    0.0000 C   0  0  0  0  0  0  0  0  0  0  0  0
    0.0000   -0.3986    0.0000 C   0  0  0  0  0  0  0  0  0  0  0  0
    4.9567   -3.2630    0.0000 C   0  0  0  0  0  0  0  0  0  0  0  0
    0.0000   -1.2454    0.0000 C   0  0  0  0  0  0  0  0  0  0  0  0
  1 21  1  0  0  0  0
  2  8  1  0  0  0  0
  2  9  1  0  0  0  0
  3 12  2  0  0  0  0
  4 15  1  0  0  0  0
  5 12  1  0  0  0  0
  5 23  1  0  0  0  0
  6  7  1  0  0  0  0
  6  8  2  0  0  0  0
  6 12  1  0  0  0  0
  7  9  2  0  0  0  0
  7 11  1  0  0  0  0
  8 10  1  0  0  0  0
  9 13  1  0  0  0  0
 10 16  2  0  0  0  0
 10 17  1  0  0  0  0
 11 15  2  0  0  0  0
 13 14  2  0  0  0  0
 14 15  1  0  0  0  0
 14 18  1  0  0  0  0
 16 19  1  0  0  0  0
 17 20  2  0  0  0  0
 18 22  1  0  0  0  0
 19 21  2  0  0  0  0
 20 21  1  0  0  0  0
 22 24  1  0  0  0  0
M  END
> <PUBCHEM_COMPOUND_ID_TYPE>
0

> <PUBCHEM_TOTAL_CHARGE>
0

> <PUBCHEM_SUBSTANCE_ID>
310935102

> <PUBCHEM_SUBSTANCE_VERSION>
1

> <PUBCHEM_EXT_DATASOURCE_NAME>
4488

> <PUBCHEM_EXT_DATASOURCE_REGID>
SCHEMBL16112629

> <PUBCHEM_SUBSTANCE_COMMENT>
InChI=1S/C19H18FNO3/c1-3-4-12-9-16-14(10-15(12)22)17(19(23)21-2)18(24-16)11-5-7-13(20)8-6-11/h5-10,22H,3-4H2,1-2H3,(H,21,23)
InChIKey=IVLLYQOSDFIQQN-UHFFFAOYSA-N

> <PUBCHEM_SUBSTANCE_SYNONYM>
SCHEMBL16112629

> <PUBCHEM_XREF_EXT_ID>
SCHEMBL16112629

> <PUBCHEM_EXT_DATASOURCE_URL>
https://www.surechembl.org/

> <PUBCHEM_EXT_SUBSTANCE_URL>
https://www.surechembl.org/chemical/SCHEMBL16112629

> <PUBCHEM_CID_ASSOCIATIONS>
117603195  1

> <PUBCHEM_COORDINATE_TYPE>
1
3

$$$$
