310943991
  -OEChem-07211613022D

 24 26  0     0  0  0  0  0  0999 V2000
    0.3786    2.2448    0.0000 F   0  0  0  0  0  0  0  0  0  0  0  0
    1.8391   -0.2434    0.0000 O   0  0  0  0  0  0  0  0  0  0  0  0
    2.5558    1.7850    0.0000 N   0  0  0  0  0  0  0  0  0  0  0  0
    0.3651   -1.8661    0.0000 N   0  0  0  0  0  0  0  0  0  0  0  0
    1.0953    0.2028    0.0000 C   0  0  0  0  0  0  0  0  0  0  0  0
    1.1089    1.0277    0.0000 C   0  0  0  0  0  0  0  0  0  0  0  0
   -0.3651    1.0277    0.0000 C   0  0  0  0  0  0  0  0  0  0  0  0
    0.3516    1.4334    0.0000 C   0  0  0  0  0  0  0  0  0  0  0  0
    0.3786   -0.2028    0.0000 C   0  0  0  0  0  0  0  0  0  0  0  0
   -0.3651    0.2164    0.0000 C   0  0  0  0  0  0  0  0  0  0  0  0
   -1.1224    1.4334    0.0000 C   0  0  0  0  0  0  0  0  0  0  0  0
    1.8391    1.4199    0.0000 C   0  0  0  0  0  0  0  0  0  0  0  0
    1.8256   -1.0412    0.0000 C   0  0  0  0  0  0  0  0  0  0  0  0
    0.3651   -1.0548    0.0000 C   0  0  0  0  0  0  0  0  0  0  0  0
   -1.1089    2.2583    0.0000 C   0  0  0  0  0  0  0  0  0  0  0  0
   -1.8256    1.0548    0.0000 C   0  0  0  0  0  0  0  0  0  0  0  0
    1.1089   -1.4605    0.0000 C   0  0  0  0  0  0  0  0  0  0  0  0
    2.5558   -1.4470    0.0000 C   0  0  0  0  0  0  0  0  0  0  0  0
   -1.8256    2.6640    0.0000 C   0  0  0  0  0  0  0  0  0  0  0  0
   -2.5558    1.4470    0.0000 C   0  0  0  0  0  0  0  0  0  0  0  0
   -2.5558    2.2583    0.0000 C   0  0  0  0  0  0  0  0  0  0  0  0
    1.1089   -2.2583    0.0000 C   0  0  0  0  0  0  0  0  0  0  0  0
    2.5558   -2.2583    0.0000 C   0  0  0  0  0  0  0  0  0  0  0  0
    1.8526   -2.6640    0.0000 C   0  0  0  0  0  0  0  0  0  0  0  0
  1  8  1  0  0  0  0
  2  5  1  0  0  0  0
  2 13  1  0  0  0  0
  3 12  3  0  0  0  0
  4 14  3  0  0  0  0
  5  6  1  0  0  0  0
  5  9  2  0  0  0  0
  6  8  2  0  0  0  0
  6 12  1  0  0  0  0
  7  8  1  0  0  0  0
  7 10  2  0  0  0  0
  7 11  1  0  0  0  0
  9 10  1  0  0  0  0
  9 14  1  0  0  0  0
 11 15  2  0  0  0  0
 11 16  1  0  0  0  0
 13 17  2  0  0  0  0
 13 18  1  0  0  0  0
 15 19  1  0  0  0  0
 16 20  2  0  0  0  0
 17 22  1  0  0  0  0
 18 23  2  0  0  0  0
 19 21  2  0  0  0  0
 20 21  1  0  0  0  0
 22 24  2  0  0  0  0
 23 24  1  0  0  0  0
M  END
> <PUBCHEM_COMPOUND_ID_TYPE>
0

> <PUBCHEM_TOTAL_CHARGE>
0

> <PUBCHEM_SUBSTANCE_ID>
310943991

> <PUBCHEM_SUBSTANCE_VERSION>
1

> <PUBCHEM_EXT_DATASOURCE_NAME>
4488

> <PUBCHEM_EXT_DATASOURCE_REGID>
SCHEMBL16122062

> <PUBCHEM_SUBSTANCE_COMMENT>
InChI=1S/C20H11FN2O/c21-19-17(14-7-3-1-4-8-14)11-15(12-22)20(18(19)13-23)24-16-9-5-2-6-10-16/h1-11H
InChIKey=RQFNPOPTIYECOY-UHFFFAOYSA-N

> <PUBCHEM_SUBSTANCE_SYNONYM>
SCHEMBL16122062

> <PUBCHEM_XREF_EXT_ID>
SCHEMBL16122062

> <PUBCHEM_EXT_DATASOURCE_URL>
https://www.surechembl.org/

> <PUBCHEM_EXT_SUBSTANCE_URL>
https://www.surechembl.org/chemical/SCHEMBL16122062

> <PUBCHEM_CID_ASSOCIATIONS>
117610297  1

> <PUBCHEM_COORDINATE_TYPE>
1
3

$$$$
