310940922
  -OEChem-07211613022D

  7  7  0     0  0  0  0  0  0999 V2000
    1.2237    0.1636    0.0000 I   0  0  0  0  0  0  0  0  0  0  0  0
   -1.2237    0.8181    0.0000 O   0  0  0  0  0  0  0  0  0  0  0  0
    0.5548   -1.0600    0.0000 O   0  0  0  0  0  0  0  0  0  0  0  0
   -0.1849    0.2633    0.0000 C   0  0  0  0  0  0  0  0  0  0  0  0
    0.5691   -0.1494    0.0000 C   0  0  0  0  0  0  0  0  0  0  0  0
   -0.9818    0.0498    0.0000 C   0  0  0  0  0  0  0  0  0  0  0  0
   -0.3842    1.0600    0.0000 C   0  0  0  0  0  0  0  0  0  0  0  0
  1  5  1  0  0  0  0
  2  6  1  0  0  0  0
  2  7  1  0  0  0  0
  3  5  2  0  0  0  0
  4  5  1  0  0  0  0
  4  6  1  0  0  0  0
  4  7  1  0  0  0  0
M  END
> <PUBCHEM_COMPOUND_ID_TYPE>
0

> <PUBCHEM_TOTAL_CHARGE>
0

> <PUBCHEM_SUBSTANCE_ID>
310940922

> <PUBCHEM_SUBSTANCE_VERSION>
1

> <PUBCHEM_EXT_DATASOURCE_NAME>
4488

> <PUBCHEM_EXT_DATASOURCE_REGID>
SCHEMBL16118881

> <PUBCHEM_SUBSTANCE_COMMENT>
InChI=1S/C4H5IO2/c5-4(6)3-1-7-2-3/h3H,1-2H2
InChIKey=PCJWANVFONLFIP-UHFFFAOYSA-N

> <PUBCHEM_SUBSTANCE_SYNONYM>
SCHEMBL16118881

> <PUBCHEM_XREF_EXT_ID>
SCHEMBL16118881

> <PUBCHEM_EXT_DATASOURCE_URL>
https://www.surechembl.org/

> <PUBCHEM_EXT_SUBSTANCE_URL>
https://www.surechembl.org/chemical/SCHEMBL16118881

> <PUBCHEM_CID_ASSOCIATIONS>
117607831  1

> <PUBCHEM_COORDINATE_TYPE>
1
3

$$$$
