310931758
  -OEChem-07211613022D

 51 55  0     1  0  0  0  0  0999 V2000
   16.4328   -3.7125    0.0000 Cl  0  0  0  0  0  0  0  0  0  0  0  0
   17.8618    0.4125    0.0000 S   0  0  0  0  0  0  0  0  0  0  0  0
   17.8618   -1.2375    0.0000 F   0  0  0  0  0  0  0  0  0  0  0  0
   15.0039    0.4125    0.0000 F   0  0  0  0  0  0  0  0  0  0  0  0
   17.4493    1.1270    0.0000 O   0  0  0  0  0  0  0  0  0  0  0  0
   18.2743   -0.3020    0.0000 O   0  0  0  0  0  0  0  0  0  0  0  0
   15.0039   -1.2375    0.0000 O   0  0  0  0  0  0  0  0  0  0  0  0
   20.7196   -0.4125    0.0000 O   0  0  0  0  0  0  0  0  0  0  0  0
   10.7170   -1.2375    0.0000 O   0  0  0  0  0  0  0  0  0  0  0  0
   22.1486    2.0625    0.0000 O   0  0  0  0  0  0  0  0  0  0  0  0
   11.4316    0.0000    0.0000 O   0  0  0  0  0  0  0  0  0  0  0  0
   18.5762    0.8250    0.0000 N   0  0  0  0  0  0  0  0  0  0  0  0
   17.8618    2.0625    0.0000 N   0  0  0  0  0  0  0  0  0  0  0  0
   12.1460   -1.2375    0.0000 N   0  0  0  0  0  0  0  0  0  0  0  0
   17.8618    2.8875    0.0000 N   0  0  0  0  0  0  0  0  0  0  0  0
   17.1473    0.0000    0.0000 C   0  0  0  0  0  0  0  0  0  0  0  0
   17.1473   -0.8250    0.0000 C   0  0  0  0  0  0  0  0  0  0  0  0
   18.5762    1.6500    0.0000 C   0  0  0  0  0  0  0  0  0  0  0  0
   16.4328    0.4125    0.0000 C   0  0  0  0  0  0  0  0  0  0  0  0
   15.7184    0.0000    0.0000 C   0  0  0  0  0  0  0  0  0  0  0  0
   15.7184   -0.8250    0.0000 C   0  0  0  0  0  0  0  0  0  0  0  0
   19.2907    0.4125    0.0000 C   0  0  0  0  0  0  0  0  0  0  0  0
   16.4328   -1.2375    0.0000 C   0  0  0  0  0  0  0  0  0  0  0  0
   20.0052    0.8250    0.0000 C   0  0  0  0  0  0  0  0  0  0  0  0
   19.2907    2.0625    0.0000 C   0  0  0  0  0  0  0  0  0  0  0  0
   20.7196    0.4125    0.0000 C   0  0  0  0  0  0  0  0  0  0  0  0
   13.5750   -1.2375    0.0000 C   0  0  3  0  0  0  0  0  0  0  0  0
   13.5750   -2.0625    0.0000 C   0  0  3  0  0  0  0  0  0  0  0  0
   14.2894   -0.8250    0.0000 C   0  0  0  0  0  0  0  0  0  0  0  0
   20.0052    1.6500    0.0000 C   0  0  0  0  0  0  0  0  0  0  0  0
   14.2894   -2.4750    0.0000 C   0  0  0  0  0  0  0  0  0  0  0  0
   12.8605   -0.8250    0.0000 C   0  0  0  0  0  0  0  0  0  0  0  0
   21.4341    0.8250    0.0000 C   0  0  0  0  0  0  0  0  0  0  0  0
   19.2907    2.8875    0.0000 C   0  0  0  0  0  0  0  0  0  0  0  0
   21.4341    1.6500    0.0000 C   0  0  0  0  0  0  0  0  0  0  0  0
   12.8605   -2.4750    0.0000 C   0  0  0  0  0  0  0  0  0  0  0  0
   20.7196    2.0625    0.0000 C   0  0  0  0  0  0  0  0  0  0  0  0
   12.1460   -2.0625    0.0000 C   0  0  0  0  0  0  0  0  0  0  0  0
   11.4316   -0.8250    0.0000 C   0  0  0  0  0  0  0  0  0  0  0  0
   18.5762    3.3000    0.0000 C   0  0  0  0  0  0  0  0  0  0  0  0
   15.0039   -2.0625    0.0000 C   0  0  0  0  0  0  0  0  0  0  0  0
   14.2894   -3.3000    0.0000 C   0  0  0  0  0  0  0  0  0  0  0  0
   15.7184   -2.4750    0.0000 C   0  0  0  0  0  0  0  0  0  0  0  0
   15.0039   -3.7125    0.0000 C   0  0  0  0  0  0  0  0  0  0  0  0
   15.7184   -3.3000    0.0000 C   0  0  0  0  0  0  0  0  0  0  0  0
   10.0026   -0.8250    0.0000 C   0  0  0  0  0  0  0  0  0  0  0  0
   21.4341   -0.8250    0.0000 C   0  0  0  0  0  0  0  0  0  0  0  0
   22.8630    1.6500    0.0000 C   0  0  0  0  0  0  0  0  0  0  0  0
   10.0026    0.0000    0.0000 C   0  0  0  0  0  0  0  0  0  0  0  0
    9.2881   -0.4125    0.0000 C   0  0  0  0  0  0  0  0  0  0  0  0
    9.2881   -1.2375    0.0000 C   0  0  0  0  0  0  0  0  0  0  0  0
  1 45  1  0  0  0  0
  2  5  2  0  0  0  0
  2  6  2  0  0  0  0
  2 12  1  0  0  0  0
  2 16  1  0  0  0  0
  3 17  1  0  0  0  0
  4 20  1  0  0  0  0
  7 21  1  0  0  0  0
  7 29  1  0  0  0  0
  8 26  1  0  0  0  0
  8 47  1  0  0  0  0
  9 39  1  0  0  0  0
  9 46  1  0  0  0  0
 10 35  1  0  0  0  0
 10 48  1  0  0  0  0
 11 39  2  0  0  0  0
 12 18  1  0  0  0  0
 12 22  1  0  0  0  0
 13 15  1  0  0  0  0
 13 18  2  0  0  0  0
 14 32  1  0  0  0  0
 14 38  1  0  0  0  0
 14 39  1  0  0  0  0
 15 40  2  0  0  0  0
 16 17  2  0  0  0  0
 16 19  1  0  0  0  0
 17 23  1  0  0  0  0
 18 25  1  0  0  0  0
 19 20  2  0  0  0  0
 20 21  1  0  0  0  0
 21 23  2  0  0  0  0
 22 24  1  0  0  0  0
 24 26  1  0  0  0  0
 24 30  2  0  0  0  0
 25 34  2  0  0  0  0
 26 33  2  0  0  0  0
 27 28  1  0  0  0  0
 27 29  1  6  0  0  0
 27 32  1  0  0  0  0
 28 31  1  0  0  0  0
 28 36  1  1  0  0  0
 30 37  1  0  0  0  0
 31 41  2  0  0  0  0
 31 42  1  0  0  0  0
 33 35  1  0  0  0  0
 34 40  1  0  0  0  0
 35 37  2  0  0  0  0
 36 38  1  0  0  0  0
 41 43  1  0  0  0  0
 42 44  2  0  0  0  0
 43 45  2  0  0  0  0
 44 45  1  0  0  0  0
 46 49  1  0  0  0  0
 46 50  1  0  0  0  0
 46 51  1  0  0  0  0
M  END
> <PUBCHEM_COMPOUND_ID_TYPE>
0

> <PUBCHEM_TOTAL_CHARGE>
0

> <PUBCHEM_SUBSTANCE_ID>
310931758

> <PUBCHEM_SUBSTANCE_VERSION>
1

> <PUBCHEM_EXT_DATASOURCE_NAME>
4488

> <PUBCHEM_EXT_DATASOURCE_REGID>
SCHEMBL16109087

> <PUBCHEM_SUBSTANCE_COMMENT>
InChI=1S/C36H39ClF2N4O7S/c1-36(2,3)50-35(44)42-16-14-28(23-8-11-26(37)12-9-23)25(20-42)22-49-32-18-30(39)33(19-29(32)38)51(45,46)43(34-7-6-15-40-41-34)21-24-10-13-27(47-4)17-31(24)48-5/h6-13,15,17-19,25,28H,14,16,20-22H2,1-5H3/t25-,28-/m1/s1
InChIKey=NSCVYHGEONEEOJ-LEAFIULHSA-N

> <PUBCHEM_SUBSTANCE_SYNONYM>
SCHEMBL16109087

> <PUBCHEM_XREF_EXT_ID>
SCHEMBL16109087

> <PUBCHEM_EXT_DATASOURCE_URL>
https://www.surechembl.org/

> <PUBCHEM_EXT_SUBSTANCE_URL>
https://www.surechembl.org/chemical/SCHEMBL16109087

> <PUBCHEM_CID_ASSOCIATIONS>
117600447  1

> <PUBCHEM_COORDINATE_TYPE>
1
3

> <PUBCHEM_BONDANNOTATIONS>
27  29  6
28  36  5

$$$$
