310948848
  -OEChem-07211613022D

 26 29  0     1  0  0  0  0  0999 V2000
   -2.9445   -2.5106    0.0000 F   0  0  0  0  0  0  0  0  0  0  0  0
   -3.5025   -0.5889    0.0000 F   0  0  0  0  0  0  0  0  0  0  0  0
    0.0930    1.6923    0.0000 N   0  0  0  0  0  0  0  0  0  0  0  0
   -1.4444   -1.0104    0.0000 N   0  0  0  0  0  0  0  0  0  0  0  0
    0.5765    2.3495    0.0000 N   0  0  0  0  0  0  0  0  0  0  0  0
    0.9485   -0.3658    0.0000 N   0  0  0  0  0  0  0  0  0  0  0  0
    2.7958    1.2708    0.0000 N   0  0  0  0  0  0  0  0  0  0  0  0
   -0.0558   -1.3823    0.0000 N   0  0  0  0  0  0  0  0  0  0  0  0
    2.0767    0.0310    0.0000 N   0  0  0  0  0  0  0  0  0  0  0  0
    1.3452    1.2832    0.0000 C   0  0  0  0  0  0  0  0  0  0  0  0
    0.5765    1.0229    0.0000 C   0  0  0  0  0  0  0  0  0  0  0  0
    1.3576    2.1015    0.0000 C   0  0  0  0  0  0  0  0  0  0  0  0
    0.3534    0.2169    0.0000 C   0  0  0  0  0  0  0  0  0  0  0  0
    2.0767    0.8617    0.0000 C   0  0  0  0  0  0  0  0  0  0  0  0
   -0.6633   -0.7873    0.0000 C   0  0  0  0  0  0  0  0  0  0  0  0
   -0.4277    0.0062    0.0000 C   0  0  0  0  0  0  0  0  0  0  0  0
    2.0643    2.5106    0.0000 C   0  0  0  0  0  0  0  0  0  0  0  0
   -1.7047   -1.7915    0.0000 C   0  0  0  0  0  0  0  0  0  0  0  0
   -2.1262   -0.5269    0.0000 C   0  0  0  0  0  0  0  0  0  0  0  0
   -2.5354   -1.7791    0.0000 C   0  0  3  0  0  0  0  0  0  0  0  0
   -2.7833   -0.9980    0.0000 C   0  0  3  0  0  0  0  0  0  0  0  0
    2.7958    2.1015    0.0000 C   0  0  0  0  0  0  0  0  0  0  0  0
    0.7253   -1.1592    0.0000 C   0  0  0  0  0  0  0  0  0  0  0  0
    2.7958   -0.3781    0.0000 C   0  0  0  0  0  0  0  0  0  0  0  0
    3.5025    0.0310    0.0000 C   0  0  0  0  0  0  0  0  0  0  0  0
    2.8082   -1.2088    0.0000 C   0  0  0  0  0  0  0  0  0  0  0  0
 20  1  1  1  0  0  0
 21  2  1  6  0  0  0
  3  5  1  0  0  0  0
  3 11  2  0  0  0  0
  4 15  1  0  0  0  0
  4 18  1  0  0  0  0
  4 19  1  0  0  0  0
  5 12  1  0  0  0  0
  6 13  1  0  0  0  0
  6 23  2  0  0  0  0
  7 14  2  0  0  0  0
  7 22  1  0  0  0  0
  8 15  2  0  0  0  0
  8 23  1  0  0  0  0
  9 14  1  0  0  0  0
  9 24  1  0  0  0  0
 10 11  1  0  0  0  0
 10 12  2  0  0  0  0
 10 14  1  0  0  0  0
 11 13  1  0  0  0  0
 12 17  1  0  0  0  0
 13 16  2  0  0  0  0
 15 16  1  0  0  0  0
 17 22  2  0  0  0  0
 18 20  1  0  0  0  0
 19 21  1  0  0  0  0
 20 21  1  0  0  0  0
 24 25  1  0  0  0  0
 24 26  1  0  0  0  0
M  END
> <PUBCHEM_COMPOUND_ID_TYPE>
0

> <PUBCHEM_TOTAL_CHARGE>
0

> <PUBCHEM_SUBSTANCE_ID>
310948848

> <PUBCHEM_SUBSTANCE_VERSION>
1

> <PUBCHEM_EXT_DATASOURCE_NAME>
4488

> <PUBCHEM_EXT_DATASOURCE_REGID>
SCHEMBL16127032

> <PUBCHEM_SUBSTANCE_COMMENT>
InChI=1S/C17H19F2N7/c1-9(2)23-17-15-12(3-4-20-17)24-25-16(15)13-5-14(22-8-21-13)26-6-10(18)11(19)7-26/h3-5,8-11H,6-7H2,1-2H3,(H,20,23)(H,24,25)/t10-,11-/m1/s1
InChIKey=ZHVNBMISDGCLGJ-GHMZBOCLSA-N

> <PUBCHEM_SUBSTANCE_SYNONYM>
SCHEMBL16127032

> <PUBCHEM_XREF_EXT_ID>
SCHEMBL16127032

> <PUBCHEM_EXT_DATASOURCE_URL>
https://www.surechembl.org/

> <PUBCHEM_EXT_SUBSTANCE_URL>
https://www.surechembl.org/chemical/SCHEMBL16127032

> <PUBCHEM_CID_ASSOCIATIONS>
86295258  1

> <PUBCHEM_COORDINATE_TYPE>
1
3

> <PUBCHEM_BONDANNOTATIONS>
20  1  5
21  2  6

$$$$
