310946845
  -OEChem-07211613022D

 39 42  0     1  0  0  0  0  0999 V2000
   -1.2582   -4.2939    0.0000 F   0  0  0  0  0  0  0  0  0  0  0  0
   -1.6776   -5.3324    0.0000 F   0  0  0  0  0  0  0  0  0  0  0  0
   -2.7361   -4.9130    0.0000 F   0  0  0  0  0  0  0  0  0  0  0  0
    2.1769    1.8773    0.0000 O   0  0  0  0  0  0  0  0  0  0  0  0
   -1.3381   -1.6976    0.0000 O   0  0  0  0  0  0  0  0  0  0  0  0
    0.9187    3.6548    0.0000 O   0  0  0  0  0  0  0  0  0  0  0  0
    2.3366    3.5150    0.0000 O   0  0  0  0  0  0  0  0  0  0  0  0
    0.8388    0.0599    0.0000 N   0  0  0  0  0  0  0  0  0  0  0  0
    1.0985   -0.7389    0.0000 N   0  0  0  0  0  0  0  0  0  0  0  0
    0.4194   -2.0371    0.0000 N   0  0  0  0  0  0  0  0  0  0  0  0
   -1.6178   -0.2996    0.0000 N   0  0  0  0  0  0  0  0  0  0  0  0
    3.3153   -0.1998    0.0000 N   0  0  0  0  0  0  0  0  0  0  0  0
   -3.3153   -3.5150    0.0000 N   0  0  0  0  0  0  0  0  0  0  0  0
    1.3381    0.7190    0.0000 C   0  0  3  0  0  0  0  0  0  0  0  0
    0.0000    0.0799    0.0000 C   0  0  0  0  0  0  0  0  0  0  0  0
   -0.2796   -0.7190    0.0000 C   0  0  0  0  0  0  0  0  0  0  0  0
    0.4194   -1.2183    0.0000 C   0  0  0  0  0  0  0  0  0  0  0  0
   -1.0585   -0.8787    0.0000 C   0  0  0  0  0  0  0  0  0  0  0  0
    2.0770    1.0585    0.0000 C   0  0  0  0  0  0  0  0  0  0  0  0
    0.6590    1.2183    0.0000 C   0  0  0  0  0  0  0  0  0  0  0  0
   -0.5393    0.6590    0.0000 C   0  0  0  0  0  0  0  0  0  0  0  0
    1.6776   -0.0200    0.0000 C   0  0  0  0  0  0  0  0  0  0  0  0
    1.4779    2.3566    0.0000 C   0  0  3  0  0  0  0  0  0  0  0  0
    0.7589    2.0371    0.0000 C   0  0  0  0  0  0  0  0  0  0  0  0
   -1.3581    0.4993    0.0000 C   0  0  0  0  0  0  0  0  0  0  0  0
   -0.2996   -2.4365    0.0000 C   0  0  0  0  0  0  0  0  0  0  0  0
    1.5778    3.1954    0.0000 C   0  0  0  0  0  0  0  0  0  0  0  0
    2.4765   -0.1398    0.0000 C   0  0  0  0  0  0  0  0  0  0  0  0
   -0.2996   -3.2753    0.0000 C   0  0  0  0  0  0  0  0  0  0  0  0
   -1.0385   -2.0570    0.0000 C   0  0  0  0  0  0  0  0  0  0  0  0
   -1.7376   -3.2753    0.0000 C   0  0  0  0  0  0  0  0  0  0  0  0
   -0.9986   -3.6748    0.0000 C   0  0  0  0  0  0  0  0  0  0  0  0
   -1.7176   -2.4365    0.0000 C   0  0  0  0  0  0  0  0  0  0  0  0
   -2.3366   -3.8545    0.0000 C   0  0  3  0  0  0  0  0  0  0  0  0
   -2.0171   -4.5935    0.0000 C   0  0  0  0  0  0  0  0  0  0  0  0
    0.9986    4.5135    0.0000 C   0  0  0  0  0  0  0  0  0  0  0  0
    1.0985    5.3324    0.0000 C   0  0  0  0  0  0  0  0  0  0  0  0
    0.3196    4.9730    0.0000 C   0  0  0  0  0  0  0  0  0  0  0  0
    1.7974    4.8132    0.0000 C   0  0  0  0  0  0  0  0  0  0  0  0
  1 35  1  0  0  0  0
  2 35  1  0  0  0  0
  3 35  1  0  0  0  0
  4 19  1  0  0  0  0
  4 23  1  0  0  0  0
  5 18  2  0  0  0  0
  6 27  1  0  0  0  0
  6 36  1  0  0  0  0
  7 27  2  0  0  0  0
  8  9  1  0  0  0  0
  8 14  1  0  0  0  0
  8 15  1  0  0  0  0
  9 17  2  0  0  0  0
 10 17  1  0  0  0  0
 10 26  1  0  0  0  0
 11 18  1  0  0  0  0
 11 25  1  0  0  0  0
 12 28  3  0  0  0  0
 34 13  1  6  0  0  0
 14 19  1  0  0  0  0
 14 20  1  0  0  0  0
 14 22  1  1  0  0  0
 15 16  2  0  0  0  0
 15 21  1  0  0  0  0
 16 17  1  0  0  0  0
 16 18  1  0  0  0  0
 20 24  1  0  0  0  0
 21 25  2  0  0  0  0
 22 28  1  0  0  0  0
 23 24  1  0  0  0  0
 23 27  1  6  0  0  0
 26 29  2  0  0  0  0
 26 30  1  0  0  0  0
 29 32  1  0  0  0  0
 30 33  2  0  0  0  0
 31 32  2  0  0  0  0
 31 33  1  0  0  0  0
 31 34  1  0  0  0  0
 34 35  1  0  0  0  0
 36 37  1  0  0  0  0
 36 38  1  0  0  0  0
 36 39  1  0  0  0  0
M  END
> <PUBCHEM_COMPOUND_ID_TYPE>
0

> <PUBCHEM_TOTAL_CHARGE>
0

> <PUBCHEM_SUBSTANCE_ID>
310946845

> <PUBCHEM_SUBSTANCE_VERSION>
1

> <PUBCHEM_EXT_DATASOURCE_NAME>
4488

> <PUBCHEM_EXT_DATASOURCE_REGID>
SCHEMBL16124969

> <PUBCHEM_SUBSTANCE_COMMENT>
InChI=1S/C26H29F3N6O4/c1-24(2,3)39-23(37)18-8-10-25(11-12-30,14-38-18)35-17-9-13-32-22(36)19(17)21(34-35)33-16-6-4-15(5-7-16)20(31)26(27,28)29/h4-7,9,13,18,20H,8,10-11,14,31H2,1-3H3,(H,32,36)(H,33,34)/t18-,20-,25+/m1/s1
InChIKey=FNWGQOPCFGTWRX-BSWQBHCVSA-N

> <PUBCHEM_SUBSTANCE_SYNONYM>
SCHEMBL16124969

> <PUBCHEM_XREF_EXT_ID>
SCHEMBL16124969

> <PUBCHEM_EXT_DATASOURCE_URL>
https://www.surechembl.org/

> <PUBCHEM_EXT_SUBSTANCE_URL>
https://www.surechembl.org/chemical/SCHEMBL16124969

> <PUBCHEM_CID_ASSOCIATIONS>
117612704  1

> <PUBCHEM_COORDINATE_TYPE>
1
3

> <PUBCHEM_BONDANNOTATIONS>
34  13  6
14  22  5
23  27  6

$$$$
