310945890
  -OEChem-07211613022D

 41 44  0     1  0  0  0  0  0999 V2000
   -4.4606    0.1833    0.0000 S   0  0  0  0  0  0  0  0  0  0  0  0
    5.5452   -1.0082    0.0000 O   0  0  0  0  0  0  0  0  0  0  0  0
    4.4148    0.9624    0.0000 O   0  0  0  0  0  0  0  0  0  0  0  0
    2.0470   -0.9930    0.0000 O   0  0  0  0  0  0  0  0  0  0  0  0
   -0.1069    1.0847    0.0000 O   0  0  0  0  0  0  0  0  0  0  0  0
    4.2009    2.7497    0.0000 O   0  0  0  0  0  0  0  0  0  0  0  0
   -2.2762   -0.9930    0.0000 O   0  0  0  0  0  0  0  0  0  0  0  0
    2.7650    0.2597    0.0000 N   0  0  0  0  0  0  0  0  0  0  0  0
    0.6110   -0.1680    0.0000 N   0  0  0  0  0  0  0  0  0  0  0  0
   -1.5429    0.2597    0.0000 N   0  0  0  0  0  0  0  0  0  0  0  0
   -4.5981   -1.1610    0.0000 N   0  0  0  0  0  0  0  0  0  0  0  0
   -5.8507   -0.3513    0.0000 N   0  0  0  0  0  0  0  0  0  0  0  0
    5.1481   -0.2750    0.0000 C   0  0  3  0  0  0  0  0  0  0  0  0
    4.3690    0.1374    0.0000 C   0  0  0  0  0  0  0  0  0  0  0  0
    4.7355   -0.9624    0.0000 C   0  0  0  0  0  0  0  0  0  0  0  0
    3.7121   -0.2597    0.0000 C   0  0  3  0  0  0  0  0  0  0  0  0
    5.8507    0.1374    0.0000 C   0  0  0  0  0  0  0  0  0  0  0  0
    3.7274   -1.3443    0.0000 C   0  0  0  0  0  0  0  0  0  0  0  0
    2.0470   -0.1222    0.0000 C   0  0  0  0  0  0  0  0  0  0  0  0
    1.3290    0.2750    0.0000 C   0  0  3  0  0  0  0  0  0  0  0  0
    2.9788   -1.7567    0.0000 C   0  0  0  0  0  0  0  0  0  0  0  0
    1.3443    1.0999    0.0000 C   0  0  0  0  0  0  0  0  0  0  0  0
   -0.1222    0.2597    0.0000 C   0  0  0  0  0  0  0  0  0  0  0  0
    2.0317    1.5276    0.0000 C   0  0  0  0  0  0  0  0  0  0  0  0
    2.2303   -1.4360    0.0000 C   0  0  0  0  0  0  0  0  0  0  0  0
    2.8872   -2.5817    0.0000 C   0  0  0  0  0  0  0  0  0  0  0  0
   -0.8250   -0.1374    0.0000 C   0  0  3  0  0  0  0  0  0  0  0  0
    1.6803   -2.0470    0.0000 C   0  0  0  0  0  0  0  0  0  0  0  0
    2.0928   -2.7497    0.0000 C   0  0  0  0  0  0  0  0  0  0  0  0
    2.7650    1.1152    0.0000 C   0  0  0  0  0  0  0  0  0  0  0  0
    2.0622    2.3525    0.0000 C   0  0  0  0  0  0  0  0  0  0  0  0
   -3.6969   -0.1374    0.0000 C   0  0  0  0  0  0  0  0  0  0  0  0
   -2.2609   -0.1222    0.0000 C   0  0  0  0  0  0  0  0  0  0  0  0
   -2.9941    0.2750    0.0000 C   0  0  0  0  0  0  0  0  0  0  0  0
    3.4829    2.3678    0.0000 C   0  0  0  0  0  0  0  0  0  0  0  0
    3.4829    1.5276    0.0000 C   0  0  0  0  0  0  0  0  0  0  0  0
    2.7497    2.7497    0.0000 C   0  0  0  0  0  0  0  0  0  0  0  0
   -5.0106   -0.4277    0.0000 C   0  0  0  0  0  0  0  0  0  0  0  0
   -3.8038   -0.9777    0.0000 C   0  0  0  0  0  0  0  0  0  0  0  0
   -0.8250   -0.9471    0.0000 C   0  0  0  0  0  0  0  0  0  0  0  0
    4.9494    2.3373    0.0000 C   0  0  0  0  0  0  0  0  0  0  0  0
  1 32  1  0  0  0  0
  1 38  1  0  0  0  0
  2 13  1  0  0  0  0
  2 15  1  0  0  0  0
  3 14  2  0  0  0  0
  4 19  2  0  0  0  0
  5 23  2  0  0  0  0
  6 35  1  0  0  0  0
  6 41  1  0  0  0  0
  7 33  2  0  0  0  0
 16  8  1  6  0  0  0
  8 19  1  0  0  0  0
 20  9  1  1  0  0  0
  9 23  1  0  0  0  0
 10 27  1  0  0  0  0
 10 33  1  0  0  0  0
 11 38  2  0  0  0  0
 11 39  1  0  0  0  0
 12 38  1  0  0  0  0
 13 14  1  6  0  0  0
 13 15  1  0  0  0  0
 13 17  1  1  0  0  0
 14 16  1  0  0  0  0
 16 18  1  0  0  0  0
 18 21  1  0  0  0  0
 19 20  1  0  0  0  0
 20 22  1  0  0  0  0
 21 25  2  0  0  0  0
 21 26  1  0  0  0  0
 22 24  1  0  0  0  0
 23 27  1  0  0  0  0
 24 30  2  0  0  0  0
 24 31  1  0  0  0  0
 25 28  1  0  0  0  0
 26 29  1  0  0  0  0
 27 40  1  6  0  0  0
 28 29  1  0  0  0  0
 30 36  1  0  0  0  0
 31 37  2  0  0  0  0
 32 34  1  0  0  0  0
 32 39  2  0  0  0  0
 33 34  1  0  0  0  0
 35 36  2  0  0  0  0
 35 37  1  0  0  0  0
M  END
> <PUBCHEM_COMPOUND_ID_TYPE>
0

> <PUBCHEM_TOTAL_CHARGE>
0

> <PUBCHEM_SUBSTANCE_ID>
310945890

> <PUBCHEM_SUBSTANCE_VERSION>
1

> <PUBCHEM_EXT_DATASOURCE_NAME>
4488

> <PUBCHEM_EXT_DATASOURCE_REGID>
SCHEMBL16123995

> <PUBCHEM_SUBSTANCE_COMMENT>
InChI=1S/C29H37N5O6S/c1-17(32-24(35)14-21-15-31-28(30)41-21)26(37)34-23(13-19-8-10-20(39-3)11-9-19)27(38)33-22(12-18-6-4-5-7-18)25(36)29(2)16-40-29/h6,8-11,15,17,22-23H,4-5,7,12-14,16H2,1-3H3,(H2,30,31)(H,32,35)(H,33,38)(H,34,37)/t17-,22-,23-,29+/m0/s1
InChIKey=YYQORPSIGWRXOP-QJYGSXDESA-N

> <PUBCHEM_SUBSTANCE_SYNONYM>
SCHEMBL16123995

> <PUBCHEM_XREF_EXT_ID>
SCHEMBL16123995

> <PUBCHEM_EXT_DATASOURCE_URL>
https://www.surechembl.org/

> <PUBCHEM_EXT_SUBSTANCE_URL>
https://www.surechembl.org/chemical/SCHEMBL16123995

> <PUBCHEM_CID_ASSOCIATIONS>
117611874  1

> <PUBCHEM_COORDINATE_TYPE>
1
3

> <PUBCHEM_BONDANNOTATIONS>
13  14  6
13  17  5
27  40  6
16  8  6
20  9  5

$$$$
