310943032
  -OEChem-07211613022D

 34 38  0     1  0  0  0  0  0999 V2000
   -1.6943   -2.1478    0.0000 S   0  0  0  0  0  0  0  0  0  0  0  0
   -1.2967    0.1273    0.0000 O   0  0  0  0  0  0  0  0  0  0  0  0
   -2.3149   -1.6069    0.0000 O   0  0  0  0  0  0  0  0  0  0  0  0
   -2.2194   -2.7683    0.0000 O   0  0  0  0  0  0  0  0  0  0  0  0
    0.0398    4.6774    0.0000 O   0  0  0  0  0  0  0  0  0  0  0  0
    0.2148   -3.7547    0.0000 O   0  0  0  0  0  0  0  0  0  0  0  0
    0.1352    2.4978    0.0000 N   0  0  0  0  0  0  0  0  0  0  0  0
    0.6444    1.8455    0.0000 N   0  0  0  0  0  0  0  0  0  0  0  0
    0.4534    0.3818    0.0000 N   0  0  0  0  0  0  0  0  0  0  0  0
   -1.0580   -2.6728    0.0000 N   0  0  3  0  0  0  0  0  0  0  0  0
   -2.0603    1.3524    0.0000 N   0  0  0  0  0  0  0  0  0  0  0  0
    2.3149    2.2910    0.0000 N   0  0  0  0  0  0  0  0  0  0  0  0
   -0.6285    1.4000    0.0000 C   0  0  0  0  0  0  0  0  0  0  0  0
   -0.6285    2.2274    0.0000 C   0  0  0  0  0  0  0  0  0  0  0  0
    0.1670    1.1455    0.0000 C   0  0  0  0  0  0  0  0  0  0  0  0
    0.3739    3.3092    0.0000 C   0  0  3  0  0  0  0  0  0  0  0  0
   -1.3125    0.9705    0.0000 C   0  0  0  0  0  0  0  0  0  0  0  0
   -1.3921    2.6092    0.0000 C   0  0  0  0  0  0  0  0  0  0  0  0
   -1.1535   -1.4955    0.0000 C   0  0  0  0  0  0  0  0  0  0  0  0
   -0.0875   -0.2546    0.0000 C   0  0  0  0  0  0  0  0  0  0  0  0
    1.1694    3.4842    0.0000 C   0  0  0  0  0  0  0  0  0  0  0  0
   -2.0603    2.1796    0.0000 C   0  0  0  0  0  0  0  0  0  0  0  0
   -0.1989    3.8979    0.0000 C   0  0  0  0  0  0  0  0  0  0  0  0
   -1.4080   -0.7160    0.0000 C   0  0  0  0  0  0  0  0  0  0  0  0
   -0.3421   -1.6546    0.0000 C   0  0  0  0  0  0  0  0  0  0  0  0
   -0.8989   -0.1114    0.0000 C   0  0  0  0  0  0  0  0  0  0  0  0
    0.1830   -1.0341    0.0000 C   0  0  0  0  0  0  0  0  0  0  0  0
   -1.2012   -3.5001    0.0000 C   0  0  0  0  0  0  0  0  0  0  0  0
    1.4080    4.2956    0.0000 C   0  0  0  0  0  0  0  0  0  0  0  0
   -0.2625   -2.4023    0.0000 C   0  0  0  0  0  0  0  0  0  0  0  0
   -0.5648   -4.0251    0.0000 C   0  0  3  0  0  0  0  0  0  0  0  0
    0.8671    4.8684    0.0000 C   0  0  0  0  0  0  0  0  0  0  0  0
    0.3580   -2.9273    0.0000 C   0  0  0  0  0  0  0  0  0  0  0  0
   -0.7080   -4.8684    0.0000 C   0  0  0  0  0  0  0  0  0  0  0  0
  1  3  2  0  0  0  0
  1  4  2  0  0  0  0
  1 10  1  0  0  0  0
  1 19  1  0  0  0  0
  2 17  2  0  0  0  0
  5 23  1  0  0  0  0
  5 32  1  0  0  0  0
  6 31  1  0  0  0  0
  6 33  1  0  0  0  0
  7  8  1  0  0  0  0
  7 14  1  0  0  0  0
 16  7  1  1  0  0  0
  8 15  2  0  0  0  0
  9 15  1  0  0  0  0
  9 20  1  0  0  0  0
 10 28  1  0  0  0  0
 10 30  1  0  0  0  0
 11 17  1  0  0  0  0
 11 22  1  0  0  0  0
 12 21  2  3  0  0  0
 13 14  2  0  0  0  0
 13 15  1  0  0  0  0
 13 17  1  0  0  0  0
 14 18  1  0  0  0  0
 16 21  1  0  0  0  0
 16 23  1  0  0  0  0
 18 22  2  0  0  0  0
 19 24  2  0  0  0  0
 19 25  1  0  0  0  0
 20 26  2  0  0  0  0
 20 27  1  0  0  0  0
 21 29  1  0  0  0  0
 24 26  1  0  0  0  0
 25 27  2  0  0  0  0
 28 31  1  0  0  0  0
 29 32  1  0  0  0  0
 30 33  1  0  0  0  0
 31 34  1  0  0  0  0
M  END
> <PUBCHEM_COMPOUND_ID_TYPE>
0

> <PUBCHEM_TOTAL_CHARGE>
0

> <PUBCHEM_SUBSTANCE_ID>
310943032

> <PUBCHEM_SUBSTANCE_VERSION>
1

> <PUBCHEM_EXT_DATASOURCE_NAME>
4488

> <PUBCHEM_EXT_DATASOURCE_REGID>
SCHEMBL16121091

> <PUBCHEM_SUBSTANCE_COMMENT>
InChI=1S/C22H26N6O5S/c1-14-12-27(9-11-33-14)34(30,31)16-4-2-15(3-5-16)25-21-20-18(6-8-24-22(20)29)28(26-21)19-13-32-10-7-17(19)23/h2-6,8,14,19,23H,7,9-13H2,1H3,(H,24,29)(H,25,26)/t14?,19-/m0/s1
InChIKey=LZFHLFSCFOJQAY-PKDNWHCCSA-N

> <PUBCHEM_SUBSTANCE_SYNONYM>
SCHEMBL16121091

> <PUBCHEM_XREF_EXT_ID>
SCHEMBL16121091

> <PUBCHEM_EXT_DATASOURCE_URL>
https://www.surechembl.org/

> <PUBCHEM_EXT_SUBSTANCE_URL>
https://www.surechembl.org/chemical/SCHEMBL16121091

> <PUBCHEM_CID_ASSOCIATIONS>
117609477  1

> <PUBCHEM_COORDINATE_TYPE>
1
3

> <PUBCHEM_BONDANNOTATIONS>
16  7  5

$$$$
