310949688
  -OEChem-07211613022D

 21 22  0     0  0  0  0  0  0999 V2000
   -1.0882   -2.2689    0.0000 F   0  0  0  0  0  0  0  0  0  0  0  0
    1.1025   -1.0171    0.0000 O   0  0  0  0  0  0  0  0  0  0  0  0
    1.0882    2.2689    0.0000 O   0  0  0  0  0  0  0  0  0  0  0  0
    0.3628    1.0313    0.0000 O   0  0  0  0  0  0  0  0  0  0  0  0
    0.3628    0.2205    0.0000 N   0  0  0  0  0  0  0  0  0  0  0  0
   -3.2789    0.6188    0.0000 N   0  0  0  0  0  0  0  0  0  0  0  0
    1.8137    0.2205    0.0000 C   0  0  0  0  0  0  0  0  0  0  0  0
    1.8279    1.0313    0.0000 C   0  0  0  0  0  0  0  0  0  0  0  0
    1.1025   -0.1778    0.0000 C   0  0  0  0  0  0  0  0  0  0  0  0
   -0.3628   -0.2205    0.0000 C   0  0  0  0  0  0  0  0  0  0  0  0
   -1.8137   -0.2348    0.0000 C   0  0  0  0  0  0  0  0  0  0  0  0
   -1.1166    0.1778    0.0000 C   0  0  0  0  0  0  0  0  0  0  0  0
    2.5249   -0.1920    0.0000 C   0  0  0  0  0  0  0  0  0  0  0  0
    1.0740    1.4296    0.0000 C   0  0  0  0  0  0  0  0  0  0  0  0
   -0.3628   -1.0455    0.0000 C   0  0  0  0  0  0  0  0  0  0  0  0
   -1.1025   -1.4439    0.0000 C   0  0  0  0  0  0  0  0  0  0  0  0
    2.5249    1.4296    0.0000 C   0  0  0  0  0  0  0  0  0  0  0  0
   -1.8137   -1.0455    0.0000 C   0  0  0  0  0  0  0  0  0  0  0  0
    3.2789    0.2205    0.0000 C   0  0  0  0  0  0  0  0  0  0  0  0
    3.2789    1.0171    0.0000 C   0  0  0  0  0  0  0  0  0  0  0  0
   -2.5392    0.1778    0.0000 C   0  0  0  0  0  0  0  0  0  0  0  0
  1 16  1  0  0  0  0
  2  9  2  0  0  0  0
  3 14  2  0  0  0  0
  4 14  1  0  0  0  0
  5  9  1  0  0  0  0
  5 10  1  0  0  0  0
  6 21  3  0  0  0  0
  7  8  1  0  0  0  0
  7  9  1  0  0  0  0
  7 13  2  0  0  0  0
  8 14  1  0  0  0  0
  8 17  2  0  0  0  0
 10 12  1  0  0  0  0
 10 15  2  0  0  0  0
 11 12  2  0  0  0  0
 11 18  1  0  0  0  0
 11 21  1  0  0  0  0
 13 19  1  0  0  0  0
 15 16  1  0  0  0  0
 16 18  2  0  0  0  0
 17 20  1  0  0  0  0
 19 20  2  0  0  0  0
M  END
> <PUBCHEM_COMPOUND_ID_TYPE>
0

> <PUBCHEM_TOTAL_CHARGE>
0

> <PUBCHEM_SUBSTANCE_ID>
310949688

> <PUBCHEM_SUBSTANCE_VERSION>
1

> <PUBCHEM_EXT_DATASOURCE_NAME>
4488

> <PUBCHEM_EXT_DATASOURCE_REGID>
SCHEMBL16127886

> <PUBCHEM_SUBSTANCE_COMMENT>
InChI=1S/C15H9FN2O3/c16-10-5-9(8-17)6-11(7-10)18-14(19)12-3-1-2-4-13(12)15(20)21/h1-7H,(H,18,19)(H,20,21)
InChIKey=UOHOSFGZOBVVQT-UHFFFAOYSA-N

> <PUBCHEM_SUBSTANCE_SYNONYM>
SCHEMBL16127886

> <PUBCHEM_XREF_EXT_ID>
SCHEMBL16127886

> <PUBCHEM_EXT_DATASOURCE_URL>
https://www.surechembl.org/

> <PUBCHEM_EXT_SUBSTANCE_URL>
https://www.surechembl.org/chemical/SCHEMBL16127886

> <PUBCHEM_CID_ASSOCIATIONS>
85472960  1

> <PUBCHEM_COORDINATE_TYPE>
1
3

$$$$
