310944514
  -OEChem-07211613022D

 36 41  0     1  0  0  0  0  0999 V2000
    2.9957   -1.9787    0.0000 O   0  0  0  0  0  0  0  0  0  0  0  0
    2.2440    0.8291    0.0000 O   0  0  0  0  0  0  0  0  0  0  0  0
    5.5492    0.8291    0.0000 O   0  0  0  0  0  0  0  0  0  0  0  0
    5.4829    2.3103    0.0000 O   0  0  0  0  0  0  0  0  0  0  0  0
   -1.1717   -1.3597    0.0000 O   0  0  0  0  0  0  0  0  0  0  0  0
    3.5595    0.0995    0.0000 N   0  0  0  0  0  0  0  0  0  0  0  0
    0.2874   -0.4312    0.0000 N   0  0  0  0  0  0  0  0  0  0  0  0
   -2.0671    0.6411    0.0000 N   0  0  0  0  0  0  0  0  0  0  0  0
   -3.4157   -0.3206    0.0000 N   0  0  0  0  0  0  0  0  0  0  0  0
   -4.2448    0.8511    0.0000 N   0  0  0  0  0  0  0  0  0  0  0  0
   -4.3222    1.6803    0.0000 N   0  0  0  0  0  0  0  0  0  0  0  0
   -5.1292    1.8571    0.0000 N   0  0  0  0  0  0  0  0  0  0  0  0
   -5.5492    1.1496    0.0000 N   0  0  0  0  0  0  0  0  0  0  0  0
    2.4098   -0.6080    0.0000 C   0  0  0  0  0  0  0  0  0  0  0  0
    2.7414    0.1437    0.0000 C   0  0  0  0  0  0  0  0  0  0  0  0
    3.0620   -1.1275    0.0000 C   0  0  3  0  0  0  0  0  0  0  0  0
    1.7355   -1.0833    0.0000 C   0  0  0  0  0  0  0  0  0  0  0  0
    1.5918   -0.4753    0.0000 C   0  0  0  0  0  0  0  0  0  0  0  0
    1.1165   -0.5417    0.0000 C   0  0  3  0  0  0  0  0  0  0  0  0
    0.9728    0.0663    0.0000 C   0  0  3  0  0  0  0  0  0  0  0  0
    3.7474   -0.7075    0.0000 C   0  0  0  0  0  0  0  0  0  0  0  0
    4.2338    0.5859    0.0000 C   0  0  0  0  0  0  0  0  0  0  0  0
    1.4591    0.1990    0.0000 C   0  0  0  0  0  0  0  0  0  0  0  0
    1.3044    0.7848    0.0000 C   0  0  0  0  0  0  0  0  0  0  0  0
    4.3222    1.4150    0.0000 C   0  0  0  0  0  0  0  0  0  0  0  0
   -0.5748   -0.0552    0.0000 C   0  0  0  0  0  0  0  0  0  0  0  0
    4.9854    0.2322    0.0000 C   0  0  0  0  0  0  0  0  0  0  0  0
    5.1292    1.5476    0.0000 C   0  0  0  0  0  0  0  0  0  0  0  0
   -1.2270   -0.5196    0.0000 C   0  0  3  0  0  0  0  0  0  0  0  0
   -2.0008   -0.1768    0.0000 C   0  0  0  0  0  0  0  0  0  0  0  0
    3.7805   -2.3103    0.0000 C   0  0  0  0  0  0  0  0  0  0  0  0
    3.7142    1.9787    0.0000 C   0  0  0  0  0  0  0  0  0  0  0  0
   -2.6530   -0.6522    0.0000 C   0  0  0  0  0  0  0  0  0  0  0  0
   -3.4931    0.5196    0.0000 C   0  0  0  0  0  0  0  0  0  0  0  0
   -2.8188    0.9949    0.0000 C   0  0  0  0  0  0  0  0  0  0  0  0
   -5.0076    0.5306    0.0000 C   0  0  0  0  0  0  0  0  0  0  0  0
  1 16  1  0  0  0  0
  1 31  1  0  0  0  0
  2 15  2  0  0  0  0
  3 27  1  0  0  0  0
  3 28  1  0  0  0  0
  4 28  2  0  0  0  0
 29  5  1  6  0  0  0
  6 15  1  0  0  0  0
  6 21  1  0  0  0  0
  6 22  1  0  0  0  0
  7 19  1  0  0  0  0
  7 20  1  0  0  0  0
  7 26  1  0  0  0  0
  8 30  2  0  0  0  0
  8 35  1  0  0  0  0
  9 33  2  0  0  0  0
  9 34  1  0  0  0  0
 10 11  1  0  0  0  0
 10 34  1  0  0  0  0
 10 36  1  0  0  0  0
 11 12  2  0  0  0  0
 12 13  1  0  0  0  0
 13 36  2  0  0  0  0
 14 15  1  0  0  0  0
 14 16  1  0  0  0  0
 14 17  1  0  0  0  0
 14 18  1  0  0  0  0
 16 21  1  0  0  0  0
 17 19  1  0  0  0  0
 18 20  1  0  0  0  0
 19 23  1  0  0  0  0
 20 24  1  0  0  0  0
 22 25  2  0  0  0  0
 22 27  1  0  0  0  0
 23 24  1  0  0  0  0
 25 28  1  0  0  0  0
 25 32  1  0  0  0  0
 26 29  1  0  0  0  0
 29 30  1  0  0  0  0
 30 33  1  0  0  0  0
 34 35  2  0  0  0  0
M  END
> <PUBCHEM_COMPOUND_ID_TYPE>
0

> <PUBCHEM_TOTAL_CHARGE>
0

> <PUBCHEM_SUBSTANCE_ID>
310944514

> <PUBCHEM_SUBSTANCE_VERSION>
1

> <PUBCHEM_EXT_DATASOURCE_NAME>
4488

> <PUBCHEM_EXT_DATASOURCE_REGID>
SCHEMBL16122589

> <PUBCHEM_SUBSTANCE_COMMENT>
InChI=1S/C23H28N8O5/c1-13-17(11-36-21(13)33)30-10-19(35-2)23(22(30)34)5-14-3-4-15(6-23)29(14)9-18(32)16-7-25-20(8-24-16)31-12-26-27-28-31/h7-8,12,14-15,18-19,32H,3-6,9-11H2,1-2H3/t14?,15?,18-,19?,23?/m0/s1
InChIKey=UEVHZXFFJVWJKU-ZSNULOHXSA-N

> <PUBCHEM_SUBSTANCE_SYNONYM>
SCHEMBL16122589

> <PUBCHEM_XREF_EXT_ID>
SCHEMBL16122589

> <PUBCHEM_EXT_DATASOURCE_URL>
https://www.surechembl.org/

> <PUBCHEM_EXT_SUBSTANCE_URL>
https://www.surechembl.org/chemical/SCHEMBL16122589

> <PUBCHEM_CID_ASSOCIATIONS>
117610750  1

> <PUBCHEM_COORDINATE_TYPE>
1
3

> <PUBCHEM_BONDANNOTATIONS>
29  5  6

$$$$
