310948535
  -OEChem-07211613022D

 35 40  0     1  0  0  0  0  0999 V2000
   -2.7589    2.3952    0.0000 O   0  0  0  0  0  0  0  0  0  0  0  0
   -0.7137   -3.0540    0.0000 O   0  0  0  0  0  0  0  0  0  0  0  0
    0.0961    2.0520    0.0000 N   0  0  0  0  0  0  0  0  0  0  0  0
   -0.2333    1.3246    0.0000 N   0  0  0  0  0  0  0  0  0  0  0  0
   -1.5922    0.8167    0.0000 N   0  0  0  0  0  0  0  0  0  0  0  0
    0.4530   -2.1755    0.0000 N   0  0  0  0  0  0  0  0  0  0  0  0
   -1.9491    3.5756    0.0000 N   0  0  0  0  0  0  0  0  0  0  0  0
    0.6176    0.1304    0.0000 N   0  0  0  0  0  0  0  0  0  0  0  0
   -1.2079    2.2305    0.0000 C   0  0  0  0  0  0  0  0  0  0  0  0
   -0.4942    2.6423    0.0000 C   0  0  0  0  0  0  0  0  0  0  0  0
   -1.0569    1.4206    0.0000 C   0  0  0  0  0  0  0  0  0  0  0  0
    0.9196    2.1893    0.0000 C   0  0  3  0  0  0  0  0  0  0  0  0
   -2.0314    2.7657    0.0000 C   0  0  0  0  0  0  0  0  0  0  0  0
   -0.7823   -1.5579    0.0000 C   0  0  0  0  0  0  0  0  0  0  0  0
   -0.2059   -0.9677    0.0000 C   0  0  0  0  0  0  0  0  0  0  0  0
   -0.3431   -2.2991    0.0000 C   0  0  0  0  0  0  0  0  0  0  0  0
   -1.3451    0.0617    0.0000 C   0  0  0  0  0  0  0  0  0  0  0  0
   -0.4942    3.4932    0.0000 C   0  0  0  0  0  0  0  0  0  0  0  0
    0.5628   -1.3657    0.0000 C   0  0  0  0  0  0  0  0  0  0  0  0
   -0.4667   -0.1578    0.0000 C   0  0  0  0  0  0  0  0  0  0  0  0
    1.3863    1.5579    0.0000 C   0  0  3  0  0  0  0  0  0  0  0  0
   -1.5922   -1.3657    0.0000 C   0  0  0  0  0  0  0  0  0  0  0  0
    1.0294   -2.7383    0.0000 C   0  0  0  0  0  0  0  0  0  0  0  0
   -1.8667   -0.5833    0.0000 C   0  0  0  0  0  0  0  0  0  0  0  0
   -1.2079    3.9050    0.0000 C   0  0  0  0  0  0  0  0  0  0  0  0
    1.1392    3.0540    0.0000 C   0  0  0  0  0  0  0  0  0  0  0  0
    2.2236    1.5579    0.0000 C   0  0  0  0  0  0  0  0  0  0  0  0
    0.9196   -3.5482    0.0000 C   0  0  0  0  0  0  0  0  0  0  0  0
    1.8530   -2.6148    0.0000 C   0  0  0  0  0  0  0  0  0  0  0  0
    0.9745    0.8716    0.0000 C   0  0  0  0  0  0  0  0  0  0  0  0
    1.8941    3.3560    0.0000 C   0  0  0  0  0  0  0  0  0  0  0  0
    2.2236   -3.3422    0.0000 C   0  0  0  0  0  0  0  0  0  0  0  0
    1.6608   -3.9050    0.0000 C   0  0  0  0  0  0  0  0  0  0  0  0
    2.7589    2.1481    0.0000 C   0  0  0  0  0  0  0  0  0  0  0  0
    2.6216    2.9580    0.0000 C   0  0  0  0  0  0  0  0  0  0  0  0
  1 13  2  0  0  0  0
  2 16  2  0  0  0  0
  3  4  1  0  0  0  0
  3 10  1  0  0  0  0
 12  3  1  6  0  0  0
  4 11  2  0  0  0  0
  5 11  1  0  0  0  0
  5 17  1  0  0  0  0
  6 16  1  0  0  0  0
  6 19  1  0  0  0  0
  6 23  1  0  0  0  0
  7 13  1  0  0  0  0
  7 25  1  0  0  0  0
  8 30  3  0  0  0  0
  9 10  2  0  0  0  0
  9 11  1  0  0  0  0
  9 13  1  0  0  0  0
 10 18  1  0  0  0  0
 12 21  1  0  0  0  0
 12 26  1  0  0  0  0
 14 15  1  0  0  0  0
 14 16  1  0  0  0  0
 14 22  2  0  0  0  0
 15 19  1  0  0  0  0
 15 20  2  0  0  0  0
 17 20  1  0  0  0  0
 17 24  2  0  0  0  0
 18 25  2  0  0  0  0
 21 27  1  0  0  0  0
 21 30  1  1  0  0  0
 22 24  1  0  0  0  0
 23 28  1  0  0  0  0
 23 29  1  0  0  0  0
 26 31  1  0  0  0  0
 27 34  1  0  0  0  0
 28 33  1  0  0  0  0
 29 32  1  0  0  0  0
 31 35  1  0  0  0  0
 32 33  1  0  0  0  0
 34 35  1  0  0  0  0
M  END
> <PUBCHEM_COMPOUND_ID_TYPE>
0

> <PUBCHEM_TOTAL_CHARGE>
0

> <PUBCHEM_SUBSTANCE_ID>
310948535

> <PUBCHEM_SUBSTANCE_VERSION>
1

> <PUBCHEM_EXT_DATASOURCE_NAME>
4488

> <PUBCHEM_EXT_DATASOURCE_REGID>
SCHEMBL16126717

> <PUBCHEM_SUBSTANCE_COMMENT>
InChI=1S/C27H30N6O2/c28-15-17-6-2-1-3-9-22(17)33-23-12-13-29-26(34)24(23)25(31-33)30-19-10-11-21-18(14-19)16-32(27(21)35)20-7-4-5-8-20/h10-14,17,20,22H,1-9,16H2,(H,29,34)(H,30,31)/t17-,22+/m0/s1
InChIKey=CLQIXXQBNKZNQN-HTAPYJJXSA-N

> <PUBCHEM_SUBSTANCE_SYNONYM>
SCHEMBL16126717

> <PUBCHEM_XREF_EXT_ID>
SCHEMBL16126717

> <PUBCHEM_EXT_DATASOURCE_URL>
https://www.surechembl.org/

> <PUBCHEM_EXT_SUBSTANCE_URL>
https://www.surechembl.org/chemical/SCHEMBL16126717

> <PUBCHEM_CID_ASSOCIATIONS>
117614092  1

> <PUBCHEM_COORDINATE_TYPE>
1
3

> <PUBCHEM_BONDANNOTATIONS>
21  30  5
12  3  6

$$$$
