310929907
  -OEChem-07211613022D

 34 36  0     0  0  0  0  0  0999 V2000
    2.1709   -5.3839    0.0000 O   0  0  0  0  0  0  0  0  0  0  0  0
    0.7381   -2.8656    0.0000 O   0  0  0  0  0  0  0  0  0  0  0  0
    2.1709   -7.0338    0.0000 N   0  0  0  0  0  0  0  0  0  0  0  0
    2.1709   -2.0407    0.0000 N   0  0  0  0  0  0  0  0  0  0  0  0
    2.8656   -5.7746    0.0000 C   0  0  0  0  0  0  0  0  0  0  0  0
    0.7381   -2.0407    0.0000 C   0  0  0  0  0  0  0  0  0  0  0  0
    2.8656   -6.5996    0.0000 C   0  0  0  0  0  0  0  0  0  0  0  0
    1.4763   -1.6499    0.0000 C   0  0  0  0  0  0  0  0  0  0  0  0
    2.1709   -4.5155    0.0000 C   0  0  0  0  0  0  0  0  0  0  0  0
    1.4328   -3.2998    0.0000 C   0  0  0  0  0  0  0  0  0  0  0  0
    1.4328   -4.1248    0.0000 C   0  0  0  0  0  0  0  0  0  0  0  0
    3.6038   -5.3839    0.0000 C   0  0  0  0  0  0  0  0  0  0  0  0
    0.0434   -1.6065    0.0000 C   0  0  0  0  0  0  0  0  0  0  0  0
    3.6038   -7.0338    0.0000 C   0  0  0  0  0  0  0  0  0  0  0  0
    1.4763   -0.7815    0.0000 C   0  0  0  0  0  0  0  0  0  0  0  0
    2.8656   -4.1248    0.0000 C   0  0  0  0  0  0  0  0  0  0  0  0
    2.1709   -2.8656    0.0000 C   0  0  0  0  0  0  0  0  0  0  0  0
    2.8656   -3.2998    0.0000 C   0  0  0  0  0  0  0  0  0  0  0  0
    4.3418   -5.7746    0.0000 C   0  0  0  0  0  0  0  0  0  0  0  0
    0.0434   -0.7815    0.0000 C   0  0  0  0  0  0  0  0  0  0  0  0
    4.3418   -6.5996    0.0000 C   0  0  0  0  0  0  0  0  0  0  0  0
    0.7815   -0.3474    0.0000 C   0  0  0  0  0  0  0  0  0  0  0  0
    2.1709   -7.8588    0.0000 C   0  0  0  0  0  0  0  0  0  0  0  0
    1.4328   -6.5996    0.0000 C   0  0  0  0  0  0  0  0  0  0  0  0
    2.9091   -1.6499    0.0000 C   0  0  0  0  0  0  0  0  0  0  0  0
    2.3012   -3.0393    0.0000 C   0  0  0  0  0  0  0  0  0  0  0  0
    2.9091   -8.2495    0.0000 C   0  0  0  0  0  0  0  0  0  0  0  0
    0.7381   -7.0338    0.0000 C   0  0  0  0  0  0  0  0  0  0  0  0
    2.9091   -0.8249    0.0000 C   0  0  0  0  0  0  0  0  0  0  0  0
    3.0393   -3.4735    0.0000 C   0  0  0  0  0  0  0  0  0  0  0  0
    3.6038   -8.6837    0.0000 C   0  0  0  0  0  0  0  0  0  0  0  0
    0.0000   -7.4679    0.0000 C   0  0  0  0  0  0  0  0  0  0  0  0
    2.9091    0.0000    0.0000 C   0  0  0  0  0  0  0  0  0  0  0  0
    3.5603   -3.7340    0.0000 C   0  0  0  0  0  0  0  0  0  0  0  0
  1  5  1  0  0  0  0
  1  9  1  0  0  0  0
  2  6  1  0  0  0  0
  2 10  1  0  0  0  0
  3  7  1  0  0  0  0
  3 23  1  0  0  0  0
  3 24  1  0  0  0  0
  4  8  1  0  0  0  0
  4 25  1  0  0  0  0
  4 26  1  0  0  0  0
  5  7  2  0  0  0  0
  5 12  1  0  0  0  0
  6  8  2  0  0  0  0
  6 13  1  0  0  0  0
  7 14  1  0  0  0  0
  8 15  1  0  0  0  0
  9 11  1  0  0  0  0
  9 16  2  0  0  0  0
 10 11  2  0  0  0  0
 10 17  1  0  0  0  0
 12 19  2  0  0  0  0
 13 20  2  0  0  0  0
 14 21  2  0  0  0  0
 15 22  2  0  0  0  0
 16 18  1  0  0  0  0
 17 18  2  0  0  0  0
 19 21  1  0  0  0  0
 20 22  1  0  0  0  0
 23 27  1  0  0  0  0
 24 28  1  0  0  0  0
 25 29  1  0  0  0  0
 26 30  1  0  0  0  0
 27 31  3  0  0  0  0
 28 32  3  0  0  0  0
 29 33  3  0  0  0  0
 30 34  3  0  0  0  0
M  END
> <PUBCHEM_COMPOUND_ID_TYPE>
0

> <PUBCHEM_TOTAL_CHARGE>
0

> <PUBCHEM_SUBSTANCE_ID>
310929907

> <PUBCHEM_SUBSTANCE_VERSION>
1

> <PUBCHEM_EXT_DATASOURCE_NAME>
4488

> <PUBCHEM_EXT_DATASOURCE_REGID>
SCHEMBL16107124

> <PUBCHEM_SUBSTANCE_COMMENT>
InChI=1S/C30H24N2O2/c1-5-20-31(21-6-2)27-16-9-11-18-29(27)33-25-14-13-15-26(24-25)34-30-19-12-10-17-28(30)32(22-7-3)23-8-4/h1-4,9-19,24H,20-23H2
InChIKey=NWCWQUSYNKIPMM-UHFFFAOYSA-N

> <PUBCHEM_SUBSTANCE_SYNONYM>
SCHEMBL16107124

> <PUBCHEM_XREF_EXT_ID>
SCHEMBL16107124

> <PUBCHEM_EXT_DATASOURCE_URL>
https://www.surechembl.org/

> <PUBCHEM_EXT_SUBSTANCE_URL>
https://www.surechembl.org/chemical/SCHEMBL16107124

> <PUBCHEM_CID_ASSOCIATIONS>
117599168  1

> <PUBCHEM_COORDINATE_TYPE>
1
3

$$$$
