310947346
  -OEChem-07211613022D

 37 41  0     0  0  0  0  0  0999 V2000
   -3.2378    2.2832    0.0000 O   0  0  0  0  0  0  0  0  0  0  0  0
   -0.3098   -0.0343    0.0000 N   0  0  0  0  0  0  0  0  0  0  0  0
    0.1750    0.6331    0.0000 N   0  0  0  0  0  0  0  0  0  0  0  0
   -3.9523    1.0456    0.0000 N   0  0  0  0  0  0  0  0  0  0  0  0
   -1.0945    0.2206    0.0000 C   0  0  0  0  0  0  0  0  0  0  0  0
   -1.0945    1.0456    0.0000 C   0  0  0  0  0  0  0  0  0  0  0  0
   -0.3098    1.3007    0.0000 C   0  0  0  0  0  0  0  0  0  0  0  0
   -1.8090    1.4581    0.0000 C   0  0  0  0  0  0  0  0  0  0  0  0
   -2.5233    1.0456    0.0000 C   0  0  0  0  0  0  0  0  0  0  0  0
   -1.8090   -0.1919    0.0000 C   0  0  0  0  0  0  0  0  0  0  0  0
   -0.0963   -0.8312    0.0000 C   0  0  0  0  0  0  0  0  0  0  0  0
   -2.5233    0.2206    0.0000 C   0  0  0  0  0  0  0  0  0  0  0  0
    0.7006   -1.0447    0.0000 C   0  0  0  0  0  0  0  0  0  0  0  0
    3.0912   -1.6852    0.0000 C   0  0  0  0  0  0  0  0  0  0  0  0
    2.2943   -1.4717    0.0000 C   0  0  0  0  0  0  0  0  0  0  0  0
    3.6746   -1.1019    0.0000 C   0  0  0  0  0  0  0  0  0  0  0  0
   -3.2378    1.4581    0.0000 C   0  0  0  0  0  0  0  0  0  0  0  0
    3.4611   -0.3050    0.0000 C   0  0  0  0  0  0  0  0  0  0  0  0
    0.1027    2.0151    0.0000 C   0  0  0  0  0  0  0  0  0  0  0  0
    0.9141   -1.8415    0.0000 C   0  0  0  0  0  0  0  0  0  0  0  0
    1.2839   -0.4614    0.0000 C   0  0  0  0  0  0  0  0  0  0  0  0
    1.7109   -2.0550    0.0000 C   0  0  0  0  0  0  0  0  0  0  0  0
    2.0808   -0.6749    0.0000 C   0  0  0  0  0  0  0  0  0  0  0  0
    3.3047   -2.4822    0.0000 C   0  0  0  0  0  0  0  0  0  0  0  0
    4.4714   -1.3155    0.0000 C   0  0  0  0  0  0  0  0  0  0  0  0
   -4.6668    1.4581    0.0000 C   0  0  0  0  0  0  0  0  0  0  0  0
    4.1017   -2.6957    0.0000 C   0  0  0  0  0  0  0  0  0  0  0  0
    4.6850   -2.1123    0.0000 C   0  0  0  0  0  0  0  0  0  0  0  0
    2.6238   -0.5293    0.0000 C   0  0  0  0  0  0  0  0  0  0  0  0
    3.2368    0.5323    0.0000 C   0  0  0  0  0  0  0  0  0  0  0  0
    4.2984   -0.0807    0.0000 C   0  0  0  0  0  0  0  0  0  0  0  0
   -4.6668    2.2832    0.0000 C   0  0  0  0  0  0  0  0  0  0  0  0
   -5.3812    1.0456    0.0000 C   0  0  0  0  0  0  0  0  0  0  0  0
   -6.0957    2.2832    0.0000 C   0  0  0  0  0  0  0  0  0  0  0  0
   -5.3812    2.6957    0.0000 C   0  0  0  0  0  0  0  0  0  0  0  0
   -6.0957    1.4581    0.0000 C   0  0  0  0  0  0  0  0  0  0  0  0
   -6.8102    2.6957    0.0000 C   0  0  0  0  0  0  0  0  0  0  0  0
  1 17  2  0  0  0  0
  2  3  1  0  0  0  0
  2  5  1  0  0  0  0
  2 11  1  0  0  0  0
  3  7  2  0  0  0  0
  4 17  1  0  0  0  0
  4 26  1  0  0  0  0
  5  6  1  0  0  0  0
  5 10  2  0  0  0  0
  6  7  1  0  0  0  0
  6  8  2  0  0  0  0
  7 19  1  0  0  0  0
  8  9  1  0  0  0  0
  9 12  2  0  0  0  0
  9 17  1  0  0  0  0
 10 12  1  0  0  0  0
 11 13  1  0  0  0  0
 13 20  2  0  0  0  0
 13 21  1  0  0  0  0
 14 15  1  0  0  0  0
 14 16  1  0  0  0  0
 14 24  2  0  0  0  0
 15 22  2  0  0  0  0
 15 23  1  0  0  0  0
 16 18  1  0  0  0  0
 16 25  2  0  0  0  0
 18 29  1  0  0  0  0
 18 30  1  0  0  0  0
 18 31  1  0  0  0  0
 20 22  1  0  0  0  0
 21 23  2  0  0  0  0
 24 27  1  0  0  0  0
 25 28  1  0  0  0  0
 26 32  1  0  0  0  0
 26 33  1  0  0  0  0
 27 28  2  0  0  0  0
 32 35  1  0  0  0  0
 33 36  1  0  0  0  0
 34 35  1  0  0  0  0
 34 36  1  0  0  0  0
 34 37  1  0  0  0  0
M  END
> <PUBCHEM_COMPOUND_ID_TYPE>
0

> <PUBCHEM_TOTAL_CHARGE>
0

> <PUBCHEM_SUBSTANCE_ID>
310947346

> <PUBCHEM_SUBSTANCE_VERSION>
1

> <PUBCHEM_EXT_DATASOURCE_NAME>
4488

> <PUBCHEM_EXT_DATASOURCE_REGID>
SCHEMBL16125501

> <PUBCHEM_SUBSTANCE_COMMENT>
InChI=1S/C33H39N3O/c1-22-10-17-27(18-11-22)34-32(37)26-16-19-31-29(20-26)23(2)35-36(31)21-24-12-14-25(15-13-24)28-8-6-7-9-30(28)33(3,4)5/h6-9,12-16,19-20,22,27H,10-11,17-18,21H2,1-5H3,(H,34,37)
InChIKey=CSRHNROKMQNKPB-UHFFFAOYSA-N

> <PUBCHEM_SUBSTANCE_SYNONYM>
SCHEMBL16125501

> <PUBCHEM_XREF_EXT_ID>
SCHEMBL16125501

> <PUBCHEM_EXT_DATASOURCE_URL>
https://www.surechembl.org/

> <PUBCHEM_EXT_SUBSTANCE_URL>
https://www.surechembl.org/chemical/SCHEMBL16125501

> <PUBCHEM_CID_ASSOCIATIONS>
117613091  1

> <PUBCHEM_COORDINATE_TYPE>
1
3

$$$$
