310941603
  -OEChem-07211613022D

 30 33  0     0  0  0  0  0  0999 V2000
    1.8334    1.7481    0.0000 S   0  0  0  0  0  0  0  0  0  0  0  0
   -0.5031   -0.9124    0.0000 O   0  0  0  0  0  0  0  0  0  0  0  0
    0.9465   -0.9124    0.0000 O   0  0  0  0  0  0  0  0  0  0  0  0
   -3.3854   -0.9124    0.0000 O   0  0  0  0  0  0  0  0  0  0  0  0
    4.7328    0.7760    0.0000 O   0  0  0  0  0  0  0  0  0  0  0  0
    1.6970    0.4178    0.0000 N   0  0  0  0  0  0  0  0  0  0  0  0
    3.0784    0.9295    0.0000 N   0  0  0  0  0  0  0  0  0  0  0  0
   -4.8180   -0.9124    0.0000 N   0  0  0  0  0  0  0  0  0  0  0  0
    0.2132    0.3496    0.0000 C   0  0  0  0  0  0  0  0  0  0  0  0
    0.9295    0.7589    0.0000 C   0  0  0  0  0  0  0  0  0  0  0  0
   -1.2024    0.3496    0.0000 C   0  0  0  0  0  0  0  0  0  0  0  0
   -1.2194   -0.4861    0.0000 C   0  0  0  0  0  0  0  0  0  0  0  0
    0.1791   -0.4861    0.0000 C   0  0  0  0  0  0  0  0  0  0  0  0
   -0.4861    0.7419    0.0000 C   0  0  0  0  0  0  0  0  0  0  0  0
    2.2427    1.0488    0.0000 C   0  0  0  0  0  0  0  0  0  0  0  0
    1.0318    1.5947    0.0000 C   0  0  0  0  0  0  0  0  0  0  0  0
   -1.9016   -0.8954    0.0000 C   0  0  0  0  0  0  0  0  0  0  0  0
   -1.9528    0.7419    0.0000 C   0  0  0  0  0  0  0  0  0  0  0  0
   -2.6691   -0.4861    0.0000 C   0  0  0  0  0  0  0  0  0  0  0  0
   -2.6520    0.3496    0.0000 C   0  0  0  0  0  0  0  0  0  0  0  0
    3.4025    0.1961    0.0000 C   0  0  0  0  0  0  0  0  0  0  0  0
    4.2382    0.0938    0.0000 C   0  0  0  0  0  0  0  0  0  0  0  0
    2.9420   -0.4690    0.0000 C   0  0  0  0  0  0  0  0  0  0  0  0
    4.5622   -0.6737    0.0000 C   0  0  0  0  0  0  0  0  0  0  0  0
    3.2660   -1.2194    0.0000 C   0  0  0  0  0  0  0  0  0  0  0  0
    4.0846   -1.3047    0.0000 C   0  0  0  0  0  0  0  0  0  0  0  0
   -4.1017   -0.5031    0.0000 C   0  0  0  0  0  0  0  0  0  0  0  0
    5.5514    0.6907    0.0000 C   0  0  0  0  0  0  0  0  0  0  0  0
   -4.8009   -1.7481    0.0000 C   0  0  0  0  0  0  0  0  0  0  0  0
   -5.5514   -0.5031    0.0000 C   0  0  0  0  0  0  0  0  0  0  0  0
  1 15  1  0  0  0  0
  1 16  1  0  0  0  0
  2 12  1  0  0  0  0
  2 13  1  0  0  0  0
  3 13  2  0  0  0  0
  4 19  1  0  0  0  0
  4 27  1  0  0  0  0
  5 22  1  0  0  0  0
  5 28  1  0  0  0  0
  6 10  1  0  0  0  0
  6 15  2  0  0  0  0
  7 15  1  0  0  0  0
  7 21  1  0  0  0  0
  8 27  1  0  0  0  0
  8 29  1  0  0  0  0
  8 30  1  0  0  0  0
  9 10  1  0  0  0  0
  9 13  1  0  0  0  0
  9 14  2  0  0  0  0
 10 16  2  0  0  0  0
 11 12  1  0  0  0  0
 11 14  1  0  0  0  0
 11 18  2  0  0  0  0
 12 17  2  0  0  0  0
 17 19  1  0  0  0  0
 18 20  1  0  0  0  0
 19 20  2  0  0  0  0
 21 22  1  0  0  0  0
 21 23  2  0  0  0  0
 22 24  2  0  0  0  0
 23 25  1  0  0  0  0
 24 26  1  0  0  0  0
 25 26  2  0  0  0  0
M  END
> <PUBCHEM_COMPOUND_ID_TYPE>
0

> <PUBCHEM_TOTAL_CHARGE>
0

> <PUBCHEM_SUBSTANCE_ID>
310941603

> <PUBCHEM_SUBSTANCE_VERSION>
1

> <PUBCHEM_EXT_DATASOURCE_NAME>
4488

> <PUBCHEM_EXT_DATASOURCE_REGID>
SCHEMBL16119634

> <PUBCHEM_SUBSTANCE_COMMENT>
InChI=1S/C22H21N3O4S/c1-25(2)13-28-15-9-8-14-10-16(21(26)29-20(14)11-15)18-12-30-22(24-18)23-17-6-4-5-7-19(17)27-3/h4-12H,13H2,1-3H3,(H,23,24)
InChIKey=HFABBTRSAKDSOQ-UHFFFAOYSA-N

> <PUBCHEM_SUBSTANCE_SYNONYM>
SCHEMBL16119634

> <PUBCHEM_XREF_EXT_ID>
SCHEMBL16119634

> <PUBCHEM_EXT_DATASOURCE_URL>
https://www.surechembl.org/

> <PUBCHEM_EXT_SUBSTANCE_URL>
https://www.surechembl.org/chemical/SCHEMBL16119634

> <PUBCHEM_CID_ASSOCIATIONS>
117608402  1

> <PUBCHEM_COORDINATE_TYPE>
1
3

$$$$
