310929257
  -OEChem-07211613022D

 18 19  0     0  0  0  0  0  0999 V2000
    2.8751   -0.7000    0.0000 O   0  0  0  0  0  0  0  0  0  0  0  0
    0.4000   -5.0002    0.0000 O   0  0  0  0  0  0  0  0  0  0  0  0
    3.7251   -0.7000    0.0000 O   0  0  0  0  0  0  0  0  0  0  0  0
    4.9501   -1.4251    0.0000 O   0  0  0  0  0  0  0  0  0  0  0  0
    1.2251   -3.5751    0.0000 N   0  0  0  0  0  0  0  0  0  0  0  0
    3.7251   -2.1250    0.0000 N   0  0  0  0  0  0  0  0  0  0  0  0
    1.6501   -2.8500    0.0000 C   0  0  0  0  0  0  0  0  0  0  0  0
    2.9001   -2.1250    0.0000 C   0  0  0  0  0  0  0  0  0  0  0  0
    2.4751   -1.4251    0.0000 C   0  0  0  0  0  0  0  0  0  0  0  0
    2.4751   -2.8500    0.0000 C   0  0  0  0  0  0  0  0  0  0  0  0
    1.2500   -2.1250    0.0000 C   0  0  0  0  0  0  0  0  0  0  0  0
    1.6501   -1.4251    0.0000 C   0  0  0  0  0  0  0  0  0  0  0  0
    1.6501   -4.3001    0.0000 C   0  0  0  0  0  0  0  0  0  0  0  0
    0.4250   -3.5751    0.0000 C   0  0  0  0  0  0  0  0  0  0  0  0
    4.1251   -1.4251    0.0000 C   0  0  0  0  0  0  0  0  0  0  0  0
    1.2251   -5.0002    0.0000 C   0  0  0  0  0  0  0  0  0  0  0  0
    0.0000   -4.2751    0.0000 C   0  0  0  0  0  0  0  0  0  0  0  0
    2.4500    0.0000    0.0000 C   0  0  0  0  0  0  0  0  0  0  0  0
  1  9  1  0  0  0  0
  1 18  1  0  0  0  0
  2 16  1  0  0  0  0
  2 17  1  0  0  0  0
  3 15  2  0  0  0  0
  4 15  1  0  0  0  0
  5  7  1  0  0  0  0
  5 13  1  0  0  0  0
  5 14  1  0  0  0  0
  6  8  1  0  0  0  0
  6 15  1  0  0  0  0
  7 10  1  0  0  0  0
  7 11  2  0  0  0  0
  8  9  1  0  0  0  0
  8 10  2  0  0  0  0
  9 12  2  0  0  0  0
 11 12  1  0  0  0  0
 13 16  1  0  0  0  0
 14 17  1  0  0  0  0
M  END
> <PUBCHEM_COMPOUND_ID_TYPE>
0

> <PUBCHEM_TOTAL_CHARGE>
0

> <PUBCHEM_SUBSTANCE_ID>
310929257

> <PUBCHEM_SUBSTANCE_VERSION>
1

> <PUBCHEM_EXT_DATASOURCE_NAME>
4488

> <PUBCHEM_EXT_DATASOURCE_REGID>
SCHEMBL16106421

> <PUBCHEM_SUBSTANCE_COMMENT>
InChI=1S/C12H16N2O4/c1-17-11-3-2-9(8-10(11)13-12(15)16)14-4-6-18-7-5-14/h2-3,8,13H,4-7H2,1H3,(H,15,16)
InChIKey=WELCMVVECFEEOA-UHFFFAOYSA-N

> <PUBCHEM_SUBSTANCE_SYNONYM>
SCHEMBL16106421

> <PUBCHEM_XREF_EXT_ID>
SCHEMBL16106421

> <PUBCHEM_EXT_DATASOURCE_URL>
https://www.surechembl.org/

> <PUBCHEM_EXT_SUBSTANCE_URL>
https://www.surechembl.org/chemical/SCHEMBL16106421

> <PUBCHEM_CID_ASSOCIATIONS>
117598683  1

> <PUBCHEM_COORDINATE_TYPE>
1
3

$$$$
