310941527
  -OEChem-07211613022D

 36 40  0     0  0  0  0  0  0999 V2000
   -4.5707    1.4777    0.0000 Br  0  0  0  0  0  0  0  0  0  0  0  0
   -3.1789   -2.6290    0.0000 O   0  0  0  0  0  0  0  0  0  0  0  0
   -2.1135    1.1857    0.0000 O   0  0  0  0  0  0  0  0  0  0  0  0
    3.6428    1.1857    0.0000 O   0  0  0  0  0  0  0  0  0  0  0  0
    5.2752   -0.2406    0.0000 O   0  0  0  0  0  0  0  0  0  0  0  0
   -1.8214   -1.5293    0.0000 N   0  0  0  0  0  0  0  0  0  0  0  0
   -4.3988   -1.8214    0.0000 N   0  0  0  0  0  0  0  0  0  0  0  0
   -2.5087    0.4983    0.0000 N   0  0  0  0  0  0  0  0  0  0  0  0
   -0.0515    1.9245    0.0000 N   0  0  0  0  0  0  0  0  0  0  0  0
    1.5980    1.9245    0.0000 N   0  0  0  0  0  0  0  0  0  0  0  0
   -3.2304   -1.1512    0.0000 C   0  0  0  0  0  0  0  0  0  0  0  0
   -2.4571   -0.9794    0.0000 C   0  0  0  0  0  0  0  0  0  0  0  0
   -3.8662   -0.6014    0.0000 C   0  0  0  0  0  0  0  0  0  0  0  0
   -2.1135   -0.2234    0.0000 C   0  0  0  0  0  0  0  0  0  0  0  0
   -1.2887   -0.3265    0.0000 C   0  0  0  0  0  0  0  0  0  0  0  0
   -3.6084   -1.8901    0.0000 C   0  0  0  0  0  0  0  0  0  0  0  0
   -4.5707   -1.0138    0.0000 C   0  0  0  0  0  0  0  0  0  0  0  0
   -1.1340   -1.0997    0.0000 C   0  0  0  0  0  0  0  0  0  0  0  0
   -3.8662    0.2062    0.0000 C   0  0  0  0  0  0  0  0  0  0  0  0
   -5.2752   -0.6014    0.0000 C   0  0  0  0  0  0  0  0  0  0  0  0
   -0.6873    0.2234    0.0000 C   0  0  0  0  0  0  0  0  0  0  0  0
   -0.3437   -1.3746    0.0000 C   0  0  0  0  0  0  0  0  0  0  0  0
   -4.5879    0.6358    0.0000 C   0  0  0  0  0  0  0  0  0  0  0  0
   -5.2580    0.2234    0.0000 C   0  0  0  0  0  0  0  0  0  0  0  0
    0.0859   -0.0344    0.0000 C   0  0  0  0  0  0  0  0  0  0  0  0
    0.2578   -0.8420    0.0000 C   0  0  0  0  0  0  0  0  0  0  0  0
   -1.2887    1.1857    0.0000 C   0  0  0  0  0  0  0  0  0  0  0  0
   -0.8764    1.9073    0.0000 C   0  0  0  0  0  0  0  0  0  0  0  0
    0.3608    2.6290    0.0000 C   0  0  0  0  0  0  0  0  0  0  0  0
    0.3437    1.2028    0.0000 C   0  0  0  0  0  0  0  0  0  0  0  0
    1.1857    2.6118    0.0000 C   0  0  0  0  0  0  0  0  0  0  0  0
    1.1685    1.1857    0.0000 C   0  0  0  0  0  0  0  0  0  0  0  0
    2.4228    1.8901    0.0000 C   0  0  0  0  0  0  0  0  0  0  0  0
    2.8180    1.2028    0.0000 C   0  0  0  0  0  0  0  0  0  0  0  0
    4.0380    0.4983    0.0000 C   0  0  0  0  0  0  0  0  0  0  0  0
    4.8800    0.4639    0.0000 C   0  0  0  0  0  0  0  0  0  0  0  0
  1 23  1  0  0  0  0
  2 16  2  0  0  0  0
  3  8  1  0  0  0  0
  3 27  1  0  0  0  0
  4 34  1  0  0  0  0
  4 35  1  0  0  0  0
  5 36  1  0  0  0  0
  6 12  1  0  0  0  0
  6 18  1  0  0  0  0
  7 16  1  0  0  0  0
  7 17  1  0  0  0  0
  8 14  2  0  0  0  0
  9 28  1  0  0  0  0
  9 29  1  0  0  0  0
  9 30  1  0  0  0  0
 10 31  1  0  0  0  0
 10 32  1  0  0  0  0
 10 33  1  0  0  0  0
 11 12  2  0  0  0  0
 11 13  1  0  0  0  0
 11 16  1  0  0  0  0
 12 14  1  0  0  0  0
 13 17  2  0  0  0  0
 13 19  1  0  0  0  0
 14 15  1  0  0  0  0
 15 18  2  0  0  0  0
 15 21  1  0  0  0  0
 17 20  1  0  0  0  0
 18 22  1  0  0  0  0
 19 23  2  0  0  0  0
 20 24  2  0  0  0  0
 21 25  2  0  0  0  0
 22 26  2  0  0  0  0
 23 24  1  0  0  0  0
 25 26  1  0  0  0  0
 27 28  1  0  0  0  0
 29 31  1  0  0  0  0
 30 32  1  0  0  0  0
 33 34  1  0  0  0  0
 35 36  1  0  0  0  0
M  END
> <PUBCHEM_COMPOUND_ID_TYPE>
0

> <PUBCHEM_TOTAL_CHARGE>
0

> <PUBCHEM_SUBSTANCE_ID>
310941527

> <PUBCHEM_SUBSTANCE_VERSION>
1

> <PUBCHEM_EXT_DATASOURCE_NAME>
4488

> <PUBCHEM_EXT_DATASOURCE_REGID>
SCHEMBL16119558

> <PUBCHEM_SUBSTANCE_COMMENT>
InChI=1S/C26H30BrN5O4/c27-18-5-6-22-20(17-18)23(26(34)29-22)25-24(19-3-1-2-4-21(19)28-25)30-36-15-12-32-9-7-31(8-10-32)11-14-35-16-13-33/h1-6,17,28,33H,7-16H2,(H,29,34)/b25-23-,30-24+
InChIKey=AJYCZYPKPFPMPP-UOLJZGQOSA-N

> <PUBCHEM_SUBSTANCE_SYNONYM>
SCHEMBL16119558

> <PUBCHEM_XREF_EXT_ID>
SCHEMBL16119558

> <PUBCHEM_EXT_DATASOURCE_URL>
https://www.surechembl.org/

> <PUBCHEM_EXT_SUBSTANCE_URL>
https://www.surechembl.org/chemical/SCHEMBL16119558

> <PUBCHEM_CID_ASSOCIATIONS>
86269699  1

> <PUBCHEM_COORDINATE_TYPE>
1
3

$$$$
