310943145
  -OEChem-07211613022D

 33 36  0     0  0  0  0  0  0999 V2000
    1.0745   -0.0146    0.0000 O   0  0  0  0  0  0  0  0  0  0  0  0
   -4.6559    2.4559    0.0000 O   0  0  0  0  0  0  0  0  0  0  0  0
    1.7908    1.2280    0.0000 N   0  0  0  0  0  0  0  0  0  0  0  0
   -3.2233    1.6373    0.0000 N   0  0  0  0  0  0  0  0  0  0  0  0
    0.3582    2.8798    0.0000 N   0  0  0  0  0  0  0  0  0  0  0  0
    3.9396   -0.8332    0.0000 N   0  0  0  0  0  0  0  0  0  0  0  0
   -1.7908    0.0000    0.0000 N   0  0  0  0  0  0  0  0  0  0  0  0
    3.9396   -0.0146    0.0000 N   0  0  0  0  0  0  0  0  0  0  0  0
    4.6559   -2.8798    0.0000 N   0  0  0  0  0  0  0  0  0  0  0  0
   -0.3728    1.6373    0.0000 C   0  0  0  0  0  0  0  0  0  0  0  0
   -1.0745    1.2280    0.0000 C   0  0  0  0  0  0  0  0  0  0  0  0
    1.0599    1.6373    0.0000 C   0  0  0  0  0  0  0  0  0  0  0  0
   -0.3582    2.4705    0.0000 C   0  0  0  0  0  0  0  0  0  0  0  0
    3.2379   -1.2280    0.0000 C   0  0  0  0  0  0  0  0  0  0  0  0
    0.3582    1.2426    0.0000 C   0  0  0  0  0  0  0  0  0  0  0  0
    2.5216    0.0000    0.0000 C   0  0  0  0  0  0  0  0  0  0  0  0
   -2.5070    1.2280    0.0000 C   0  0  0  0  0  0  0  0  0  0  0  0
    3.2087   -2.0612    0.0000 C   0  0  0  0  0  0  0  0  0  0  0  0
   -1.8054    1.6373    0.0000 C   0  0  0  0  0  0  0  0  0  0  0  0
    1.7908    0.4239    0.0000 C   0  0  0  0  0  0  0  0  0  0  0  0
    2.5070   -0.8332    0.0000 C   0  0  0  0  0  0  0  0  0  0  0  0
   -1.0745    0.4093    0.0000 C   0  0  0  0  0  0  0  0  0  0  0  0
    1.0745    2.4559    0.0000 C   0  0  0  0  0  0  0  0  0  0  0  0
   -2.5070    0.4093    0.0000 C   0  0  0  0  0  0  0  0  0  0  0  0
    3.2379    0.4093    0.0000 C   0  0  0  0  0  0  0  0  0  0  0  0
    3.9250   -2.4851    0.0000 C   0  0  0  0  0  0  0  0  0  0  0  0
   -3.2379    2.4705    0.0000 C   0  0  0  0  0  0  0  0  0  0  0  0
   -3.9250    1.2280    0.0000 C   0  0  0  0  0  0  0  0  0  0  0  0
   -1.0891    2.8652    0.0000 C   0  0  0  0  0  0  0  0  0  0  0  0
    2.8286   -2.7921    0.0000 C   0  0  0  0  0  0  0  0  0  0  0  0
    2.3901   -2.0758    0.0000 C   0  0  0  0  0  0  0  0  0  0  0  0
   -3.9396    2.8798    0.0000 C   0  0  0  0  0  0  0  0  0  0  0  0
   -4.6559    1.6373    0.0000 C   0  0  0  0  0  0  0  0  0  0  0  0
  1 20  2  0  0  0  0
  2 32  1  0  0  0  0
  2 33  1  0  0  0  0
  3 12  1  0  0  0  0
  3 20  1  0  0  0  0
  4 17  1  0  0  0  0
  4 27  1  0  0  0  0
  4 28  1  0  0  0  0
  5 13  1  0  0  0  0
  5 23  2  0  0  0  0
  6  8  1  0  0  0  0
  6 14  2  0  0  0  0
  7 22  1  0  0  0  0
  7 24  2  0  0  0  0
  8 25  2  0  0  0  0
  9 26  3  0  0  0  0
 10 11  1  0  0  0  0
 10 13  2  0  0  0  0
 10 15  1  0  0  0  0
 11 19  1  0  0  0  0
 11 22  2  0  0  0  0
 12 15  2  0  0  0  0
 12 23  1  0  0  0  0
 13 29  1  0  0  0  0
 14 18  1  0  0  0  0
 14 21  1  0  0  0  0
 16 20  1  0  0  0  0
 16 21  2  0  0  0  0
 16 25  1  0  0  0  0
 17 19  2  0  0  0  0
 17 24  1  0  0  0  0
 18 26  1  0  0  0  0
 18 30  1  0  0  0  0
 18 31  1  0  0  0  0
 27 32  1  0  0  0  0
 28 33  1  0  0  0  0
M  END
> <PUBCHEM_COMPOUND_ID_TYPE>
0

> <PUBCHEM_TOTAL_CHARGE>
0

> <PUBCHEM_SUBSTANCE_ID>
310943145

> <PUBCHEM_SUBSTANCE_VERSION>
1

> <PUBCHEM_EXT_DATASOURCE_NAME>
4488

> <PUBCHEM_EXT_DATASOURCE_REGID>
SCHEMBL16121205

> <PUBCHEM_SUBSTANCE_COMMENT>
InChI=1S/C24H25N7O2/c1-16-21(17-8-20(14-26-11-17)31-4-6-33-7-5-31)10-19(13-27-16)29-23(32)18-9-22(30-28-12-18)24(2,3)15-25/h8-14H,4-7H2,1-3H3,(H,29,32)
InChIKey=HJJAKXVUOALSEL-UHFFFAOYSA-N

> <PUBCHEM_SUBSTANCE_SYNONYM>
SCHEMBL16121205

> <PUBCHEM_XREF_EXT_ID>
SCHEMBL16121205

> <PUBCHEM_EXT_DATASOURCE_URL>
https://www.surechembl.org/

> <PUBCHEM_EXT_SUBSTANCE_URL>
https://www.surechembl.org/chemical/SCHEMBL16121205

> <PUBCHEM_CID_ASSOCIATIONS>
117609575  1

> <PUBCHEM_COORDINATE_TYPE>
1
3

$$$$
