310929475
  -OEChem-07211613022D

 57 65  0     1  0  0  0  0  0999 V2000
    1.5256   -1.1218    0.0000 S   0  0  0  0  0  0  0  0  0  0  0  0
    2.9615   -0.2693    0.0000 O   0  0  0  0  0  0  0  0  0  0  0  0
    4.9807   -2.4679    0.0000 O   0  0  0  0  0  0  0  0  0  0  0  0
    1.9295   -0.4039    0.0000 O   0  0  0  0  0  0  0  0  0  0  0  0
    1.1218   -1.8397    0.0000 O   0  0  0  0  0  0  0  0  0  0  0  0
    6.0576   -4.8910    0.0000 O   0  0  0  0  0  0  0  0  0  0  0  0
    2.0192   -3.3654    0.0000 O   0  0  0  0  0  0  0  0  0  0  0  0
    7.0449   -7.7628    0.0000 O   0  0  0  0  0  0  0  0  0  0  0  0
    1.4808   -6.9551    0.0000 O   0  0  0  0  0  0  0  0  0  0  0  0
    0.5834   -6.0576    0.0000 O   0  0  0  0  0  0  0  0  0  0  0  0
    3.5897   -2.2885    0.0000 N   0  0  0  0  0  0  0  0  0  0  0  0
    2.2436   -1.5256    0.0000 N   0  0  0  0  0  0  0  0  0  0  0  0
    3.2756   -3.6346    0.0000 N   0  0  0  0  0  0  0  0  0  0  0  0
    7.0449   -5.2948    0.0000 N   0  0  0  0  0  0  0  0  0  0  0  0
    1.4808   -5.2948    0.0000 N   0  0  0  0  0  0  0  0  0  0  0  0
    3.6795   -1.4808    0.0000 C   0  0  3  0  0  0  0  0  0  0  0  0
    4.4872   -1.3013    0.0000 C   0  0  3  0  0  0  0  0  0  0  0  0
    3.8590   -0.7180    0.0000 C   0  0  0  0  0  0  0  0  0  0  0  0
    5.2500   -1.4808    0.0000 C   0  0  0  0  0  0  0  0  0  0  0  0
    2.9615   -1.0769    0.0000 C   0  0  0  0  0  0  0  0  0  0  0  0
    6.0576   -1.3013    0.0000 C   0  0  0  0  0  0  0  0  0  0  0  0
    5.8782   -2.1090    0.0000 C   0  0  0  0  0  0  0  0  0  0  0  0
    4.2179   -2.8269    0.0000 C   0  0  0  0  0  0  0  0  0  0  0  0
    4.1282   -3.6346    0.0000 C   0  0  3  0  0  0  0  0  0  0  0  0
    0.8077   -0.7180    0.0000 C   0  0  0  0  0  0  0  0  0  0  0  0
    4.9359   -3.8141    0.0000 C   0  0  0  0  0  0  0  0  0  0  0  0
    5.6089   -4.2179    0.0000 C   0  0  3  0  0  0  0  0  0  0  0  0
    4.5769   -3.2308    0.0000 C   0  0  0  0  0  0  0  0  0  0  0  0
    2.4679   -3.9936    0.0000 C   0  0  0  0  0  0  0  0  0  0  0  0
    0.0000   -0.7180    0.0000 C   0  0  0  0  0  0  0  0  0  0  0  0
    0.3589    0.0000    0.0000 C   0  0  0  0  0  0  0  0  0  0  0  0
    1.8846   -4.6218    0.0000 C   0  0  3  0  0  0  0  0  0  0  0  0
    6.3717   -5.6538    0.0000 C   0  0  0  0  0  0  0  0  0  0  0  0
    6.3717   -6.5512    0.0000 C   0  0  0  0  0  0  0  0  0  0  0  0
    1.2564   -4.0833    0.0000 C   0  0  0  0  0  0  0  0  0  0  0  0
    7.0449   -6.9551    0.0000 C   0  0  0  0  0  0  0  0  0  0  0  0
    7.7628   -6.5512    0.0000 C   0  0  0  0  0  0  0  0  0  0  0  0
    7.7628   -5.6538    0.0000 C   0  0  0  0  0  0  0  0  0  0  0  0
    6.0576   -7.3141    0.0000 C   0  0  0  0  0  0  0  0  0  0  0  0
    0.4487   -4.3525    0.0000 C   0  0  0  0  0  0  0  0  0  0  0  0
    1.2564   -3.2756    0.0000 C   0  0  0  0  0  0  0  0  0  0  0  0
    1.3910   -6.0576    0.0000 C   0  0  0  0  0  0  0  0  0  0  0  0
    8.5256   -6.9551    0.0000 C   0  0  0  0  0  0  0  0  0  0  0  0
    8.5256   -5.2948    0.0000 C   0  0  0  0  0  0  0  0  0  0  0  0
    0.0000   -3.6346    0.0000 C   0  0  0  0  0  0  0  0  0  0  0  0
    0.4936   -3.0064    0.0000 C   0  0  0  0  0  0  0  0  0  0  0  0
    9.1987   -6.5512    0.0000 C   0  0  0  0  0  0  0  0  0  0  0  0
    9.1987   -5.6538    0.0000 C   0  0  0  0  0  0  0  0  0  0  0  0
    5.6089   -7.8974    0.0000 C   0  0  0  0  0  0  0  0  0  0  0  0
    1.8846   -7.6282    0.0000 C   0  0  3  0  0  0  0  0  0  0  0  0
    2.4679   -8.2115    0.0000 C   0  0  3  0  0  0  0  0  0  0  0  0
    4.8013   -8.1218    0.0000 C   0  0  0  0  0  0  0  0  0  0  0  0
    1.2115   -7.9872    0.0000 C   0  0  0  0  0  0  0  0  0  0  0  0
    3.2756   -8.4807    0.0000 C   0  0  0  0  0  0  0  0  0  0  0  0
    2.1987   -8.9743    0.0000 C   0  0  0  0  0  0  0  0  0  0  0  0
    4.1282   -8.5705    0.0000 C   0  0  0  0  0  0  0  0  0  0  0  0
    1.3013   -8.8846    0.0000 C   0  0  0  0  0  0  0  0  0  0  0  0
  1  4  2  0  0  0  0
  1  5  2  0  0  0  0
  1 12  1  0  0  0  0
  1 25  1  0  0  0  0
  2 20  2  0  0  0  0
  3 23  2  0  0  0  0
  6 27  1  0  0  0  0
  6 33  1  0  0  0  0
  7 29  2  0  0  0  0
  8 36  1  0  0  0  0
  9 42  1  0  0  0  0
  9 50  1  0  0  0  0
 10 42  2  0  0  0  0
 16 11  1  6  0  0  0
 11 23  1  0  0  0  0
 12 20  1  0  0  0  0
 13 24  1  0  0  0  0
 13 28  1  0  0  0  0
 13 29  1  0  0  0  0
 14 33  1  0  0  0  0
 14 38  2  0  0  0  0
 15 32  1  0  0  0  0
 15 42  1  0  0  0  0
 16 17  1  0  0  0  0
 16 18  1  0  0  0  0
 16 20  1  1  0  0  0
 17 18  1  1  0  0  0
 17 19  1  0  0  0  0
 19 21  1  0  0  0  0
 19 22  1  0  0  0  0
 21 22  1  0  0  0  0
 24 23  1  6  0  0  0
 24 26  1  0  0  0  0
 25 30  1  0  0  0  0
 25 31  1  0  0  0  0
 27 26  1  1  0  0  0
 27 28  1  0  0  0  0
 32 29  1  1  0  0  0
 30 31  1  0  0  0  0
 32 35  1  0  0  0  0
 33 34  2  0  0  0  0
 34 36  1  0  0  0  0
 34 39  1  0  0  0  0
 35 40  1  0  0  0  0
 35 41  1  0  0  0  0
 36 37  2  0  0  0  0
 37 38  1  0  0  0  0
 37 43  1  0  0  0  0
 38 44  1  0  0  0  0
 39 49  1  0  0  0  0
 40 45  1  0  0  0  0
 41 46  1  0  0  0  0
 43 47  2  0  0  0  0
 44 48  2  0  0  0  0
 45 46  1  0  0  0  0
 47 48  1  0  0  0  0
 49 52  2  0  0  0  0
 50 51  1  0  0  0  0
 50 53  1  1  0  0  0
 51 54  1  0  0  0  0
 51 55  1  6  0  0  0
 52 56  1  0  0  0  0
 53 57  1  0  0  0  0
 54 56  1  0  0  0  0
 55 57  1  0  0  0  0
M  END
> <PUBCHEM_COMPOUND_ID_TYPE>
0

> <PUBCHEM_TOTAL_CHARGE>
0

> <PUBCHEM_SUBSTANCE_ID>
310929475

> <PUBCHEM_SUBSTANCE_VERSION>
1

> <PUBCHEM_EXT_DATASOURCE_NAME>
4488

> <PUBCHEM_EXT_DATASOURCE_REGID>
SCHEMBL16106649

> <PUBCHEM_SUBSTANCE_COMMENT>
InChI=1S/C42H53N5O9S/c48-36-29-13-6-7-15-32(29)43-38-30(36)14-3-1-2-9-25-12-8-16-34(25)56-41(52)44-35(26-10-4-5-11-26)39(50)47-23-27(55-38)21-33(47)37(49)45-42(22-31(42)24-17-18-24)40(51)46-57(53,54)28-19-20-28/h1,3,6-7,13,15,24-28,31,33-35H,2,4-5,8-12,14,16-23H2,(H,43,48)(H,44,52)(H,45,49)(H,46,51)/b3-1+/t25-,27-,31+,33+,34-,35+,42-/m1/s1
InChIKey=MBGOTHOOTJXBKO-RMDWXQEESA-N

> <PUBCHEM_SUBSTANCE_SYNONYM>
SCHEMBL16106649

> <PUBCHEM_XREF_EXT_ID>
SCHEMBL16106649

> <PUBCHEM_EXT_DATASOURCE_URL>
https://www.surechembl.org/

> <PUBCHEM_EXT_SUBSTANCE_URL>
https://www.surechembl.org/chemical/SCHEMBL16106649

> <PUBCHEM_CID_ASSOCIATIONS>
117598813  1

> <PUBCHEM_COORDINATE_TYPE>
1
3

> <PUBCHEM_BONDANNOTATIONS>
16  11  6
16  20  5
17  18  5
24  23  6
27  26  5
32  29  5
50  53  5
51  55  6

$$$$
