310929892
  -OEChem-07211613022D

 33 37  0     1  0  0  0  0  0999 V2000
    6.0527   -0.6262    0.0000 S   0  0  0  0  0  0  0  0  0  0  0  0
    2.8698  -10.2793    0.0000 O   0  0  0  0  0  0  0  0  0  0  0  0
    4.2265   -9.6009    0.0000 O   0  0  0  0  0  0  0  0  0  0  0  0
    2.7133   -0.6783    0.0000 O   0  0  0  0  0  0  0  0  0  0  0  0
    2.8698   -8.9226    0.0000 N   0  0  0  0  0  0  0  0  0  0  0  0
    4.0178   -1.3566    0.0000 N   0  0  0  0  0  0  0  0  0  0  0  0
    4.0178    0.0000    0.0000 N   0  0  0  0  0  0  0  0  0  0  0  0
    4.8005   -5.5832    0.0000 N   0  0  0  0  0  0  0  0  0  0  0  0
    6.0527   -6.0006    0.0000 N   0  0  0  0  0  0  0  0  0  0  0  0
    6.0527   -5.1657    0.0000 N   0  0  0  0  0  0  0  0  0  0  0  0
    2.0872   -9.1835    0.0000 C   0  0  0  0  0  0  0  0  0  0  0  0
    4.8005   -1.0436    0.0000 C   0  0  3  0  0  0  0  0  0  0  0  0
    2.0872  -10.0184    0.0000 C   0  0  0  0  0  0  0  0  0  0  0  0
    4.8005   -0.2609    0.0000 C   0  0  3  0  0  0  0  0  0  0  0  0
    3.3916   -9.6009    0.0000 C   0  0  0  0  0  0  0  0  0  0  0  0
    5.5832   -1.3045    0.0000 C   0  0  3  0  0  0  0  0  0  0  0  0
    1.3566   -8.7661    0.0000 C   0  0  0  0  0  0  0  0  0  0  0  0
    3.4960   -0.6783    0.0000 C   0  0  0  0  0  0  0  0  0  0  0  0
    5.5832    0.0000    0.0000 C   0  0  0  0  0  0  0  0  0  0  0  0
    1.3566  -10.4358    0.0000 C   0  0  0  0  0  0  0  0  0  0  0  0
    0.6783   -9.1835    0.0000 C   0  0  0  0  0  0  0  0  0  0  0  0
    3.1307   -8.1399    0.0000 C   0  0  0  0  0  0  0  0  0  0  0  0
    0.6783  -10.0184    0.0000 C   0  0  0  0  0  0  0  0  0  0  0  0
    5.8440   -2.0872    0.0000 C   0  0  0  0  0  0  0  0  0  0  0  0
    3.9656   -7.9834    0.0000 C   0  0  0  0  0  0  0  0  0  0  0  0
    5.3223   -2.7133    0.0000 C   0  0  0  0  0  0  0  0  0  0  0  0
    5.2701   -6.2615    0.0000 C   0  0  0  0  0  0  0  0  0  0  0  0
    5.2701   -4.9048    0.0000 C   0  0  0  0  0  0  0  0  0  0  0  0
    0.0000   -8.7661    0.0000 C   0  0  0  0  0  0  0  0  0  0  0  0
    4.2265   -7.2007    0.0000 C   0  0  0  0  0  0  0  0  0  0  0  0
    5.0092   -7.0442    0.0000 C   0  0  0  0  0  0  0  0  0  0  0  0
    5.5832   -3.4960    0.0000 C   0  0  0  0  0  0  0  0  0  0  0  0
    5.0092   -4.1221    0.0000 C   0  0  0  0  0  0  0  0  0  0  0  0
  1 16  1  0  0  0  0
  1 19  1  0  0  0  0
  2 13  1  0  0  0  0
  2 15  1  0  0  0  0
  3 15  2  0  0  0  0
  4 18  2  0  0  0  0
  5 11  1  0  0  0  0
  5 15  1  0  0  0  0
  5 22  1  0  0  0  0
 12  6  1  1  0  0  0
  6 18  1  0  0  0  0
 14  7  1  1  0  0  0
  7 18  1  0  0  0  0
  8 27  1  0  0  0  0
  8 28  2  0  0  0  0
  9 10  1  0  0  0  0
  9 27  2  0  0  0  0
 10 28  1  0  0  0  0
 11 13  2  0  0  0  0
 11 17  1  0  0  0  0
 12 14  1  0  0  0  0
 12 16  1  0  0  0  0
 13 20  1  0  0  0  0
 14 19  1  0  0  0  0
 16 24  1  1  0  0  0
 17 21  2  0  0  0  0
 20 23  2  0  0  0  0
 21 23  1  0  0  0  0
 21 29  1  0  0  0  0
 22 25  1  0  0  0  0
 24 26  1  0  0  0  0
 25 30  1  0  0  0  0
 26 32  1  0  0  0  0
 27 31  1  0  0  0  0
 28 33  1  0  0  0  0
 30 31  1  0  0  0  0
 32 33  1  0  0  0  0
M  END
> <PUBCHEM_COMPOUND_ID_TYPE>
0

> <PUBCHEM_TOTAL_CHARGE>
0

> <PUBCHEM_SUBSTANCE_ID>
310929892

> <PUBCHEM_SUBSTANCE_VERSION>
1

> <PUBCHEM_EXT_DATASOURCE_NAME>
4488

> <PUBCHEM_EXT_DATASOURCE_REGID>
SCHEMBL16107109

> <PUBCHEM_SUBSTANCE_COMMENT>
InChI=1S/C23H30N6O3S/c1-14-9-10-17-16(12-14)29(23(31)32-17)11-5-4-8-20-25-19(27-28-20)7-3-2-6-18-21-15(13-33-18)24-22(30)26-21/h9-10,12,15,18,21H,2-8,11,13H2,1H3,(H2,24,26,30)(H,25,27,28)/t15-,18-,21-/m0/s1
InChIKey=TWLNKENUOBGUDP-XERREHJYSA-N

> <PUBCHEM_SUBSTANCE_SYNONYM>
SCHEMBL16107109

> <PUBCHEM_XREF_EXT_ID>
SCHEMBL16107109

> <PUBCHEM_EXT_DATASOURCE_URL>
https://www.surechembl.org/

> <PUBCHEM_EXT_SUBSTANCE_URL>
https://www.surechembl.org/chemical/SCHEMBL16107109

> <PUBCHEM_CID_ASSOCIATIONS>
117599155  1

> <PUBCHEM_COORDINATE_TYPE>
1
3

> <PUBCHEM_BONDANNOTATIONS>
16  24  5
12  6  5
14  7  5

$$$$
