310947239
  -OEChem-07211613022D

 24 27  0     0  0  0  0  0  0999 V2000
   -3.3789    7.1479    0.0000 O   0  0  0  0  0  0  0  0  0  0  0  0
   -3.3789    3.0229    0.0000 O   0  0  0  0  0  0  0  0  0  0  0  0
   -3.3789    4.6729    0.0000 N   0  0  0  0  0  0  0  0  0  0  0  0
   -2.6645    6.7354    0.0000 C   0  0  0  0  0  0  0  0  0  0  0  0
   -2.6645    5.9104    0.0000 C   0  0  0  0  0  0  0  0  0  0  0  0
   -1.9500    7.1479    0.0000 C   0  0  0  0  0  0  0  0  0  0  0  0
   -4.0934    4.2604    0.0000 C   0  0  0  0  0  0  0  0  0  0  0  0
   -4.0934    3.4354    0.0000 C   0  0  0  0  0  0  0  0  0  0  0  0
   -3.3789    5.4979    0.0000 C   0  0  0  0  0  0  0  0  0  0  0  0
   -2.6645    8.3854    0.0000 C   0  0  0  0  0  0  0  0  0  0  0  0
   -1.9500    5.4979    0.0000 C   0  0  0  0  0  0  0  0  0  0  0  0
   -1.2355    6.7354    0.0000 C   0  0  0  0  0  0  0  0  0  0  0  0
   -3.3789    7.9729    0.0000 C   0  0  0  0  0  0  0  0  0  0  0  0
   -1.2355    5.9104    0.0000 C   0  0  0  0  0  0  0  0  0  0  0  0
   -4.8079    4.6729    0.0000 C   0  0  0  0  0  0  0  0  0  0  0  0
   -4.8079    3.0229    0.0000 C   0  0  0  0  0  0  0  0  0  0  0  0
   -3.3789    2.1979    0.0000 C   0  0  0  0  0  0  0  0  0  0  0  0
   -5.5223    4.2604    0.0000 C   0  0  0  0  0  0  0  0  0  0  0  0
   -5.5223    3.4354    0.0000 C   0  0  0  0  0  0  0  0  0  0  0  0
   -4.0934    1.7854    0.0000 C   0  0  0  0  0  0  0  0  0  0  0  0
   -2.6645    1.7854    0.0000 C   0  0  0  0  0  0  0  0  0  0  0  0
   -4.0934    0.9604    0.0000 C   0  0  0  0  0  0  0  0  0  0  0  0
   -2.6645    0.9604    0.0000 C   0  0  0  0  0  0  0  0  0  0  0  0
   -3.3789    0.5479    0.0000 C   0  0  0  0  0  0  0  0  0  0  0  0
  1  4  1  0  0  0  0
  1 13  1  0  0  0  0
  2  8  1  0  0  0  0
  2 17  1  0  0  0  0
  3  7  1  0  0  0  0
  3  9  1  0  0  0  0
  4  5  1  0  0  0  0
  4  6  2  0  0  0  0
  5  9  1  0  0  0  0
  5 11  2  0  0  0  0
  6 10  1  0  0  0  0
  6 12  1  0  0  0  0
  7  8  1  0  0  0  0
  7 15  2  0  0  0  0
  8 16  2  0  0  0  0
 10 13  1  0  0  0  0
 11 14  1  0  0  0  0
 12 14  2  0  0  0  0
 15 18  1  0  0  0  0
 16 19  1  0  0  0  0
 17 20  2  0  0  0  0
 17 21  1  0  0  0  0
 18 19  2  0  0  0  0
 20 22  1  0  0  0  0
 21 23  1  0  0  0  0
 22 24  2  0  0  0  0
 23 24  1  0  0  0  0
M  END
> <PUBCHEM_COMPOUND_ID_TYPE>
0

> <PUBCHEM_TOTAL_CHARGE>
0

> <PUBCHEM_SUBSTANCE_ID>
310947239

> <PUBCHEM_SUBSTANCE_VERSION>
1

> <PUBCHEM_EXT_DATASOURCE_NAME>
4488

> <PUBCHEM_EXT_DATASOURCE_REGID>
SCHEMBL16125394

> <PUBCHEM_SUBSTANCE_COMMENT>
InChI=1S/C21H21NO2/c1-2-9-18(10-3-1)24-20-12-5-4-11-19(20)22-15-17-8-6-7-16-13-14-23-21(16)17/h1-2,4-9,11-12,22H,3,10,13-15H2
InChIKey=STKLVKYLFMKXKK-UHFFFAOYSA-N

> <PUBCHEM_SUBSTANCE_SYNONYM>
SCHEMBL16125394

> <PUBCHEM_XREF_EXT_ID>
SCHEMBL16125394

> <PUBCHEM_EXT_DATASOURCE_URL>
https://www.surechembl.org/

> <PUBCHEM_EXT_SUBSTANCE_URL>
https://www.surechembl.org/chemical/SCHEMBL16125394

> <PUBCHEM_CID_ASSOCIATIONS>
117613053  1

> <PUBCHEM_COORDINATE_TYPE>
1
3

> <PUBCHEM_BONDANNOTATIONS>
23  21  3

$$$$
