310935315
  -OEChem-07211613022D

 26 30  0     0  0  0  0  0  0999 V2000
    5.1661   -3.6378    0.0000 O   0  0  0  0  0  0  0  0  0  0  0  0
    4.8863   -1.1193    0.0000 N   0  0  0  0  0  0  0  0  0  0  0  0
    3.0781   -4.0467    0.0000 N   0  0  0  0  0  0  0  0  0  0  0  0
    1.6144   -1.6790    0.0000 N   0  0  0  0  0  0  0  0  0  0  0  0
    3.8530   -4.3050    0.0000 N   0  0  0  0  0  0  0  0  0  0  0  0
    3.8530   -2.9705    0.0000 C   0  0  0  0  0  0  0  0  0  0  0  0
    3.0781   -3.2288    0.0000 C   0  0  0  0  0  0  0  0  0  0  0  0
    4.1113   -2.1740    0.0000 C   0  0  0  0  0  0  0  0  0  0  0  0
    2.4108   -2.7552    0.0000 C   0  0  0  0  0  0  0  0  0  0  0  0
    3.6163   -1.5283    0.0000 C   0  0  0  0  0  0  0  0  0  0  0  0
    1.6359   -3.0351    0.0000 C   0  0  0  0  0  0  0  0  0  0  0  0
    4.3481   -3.6378    0.0000 C   0  0  0  0  0  0  0  0  0  0  0  0
    4.1328   -0.8395    0.0000 C   0  0  0  0  0  0  0  0  0  0  0  0
    1.1409   -2.3247    0.0000 C   0  0  0  0  0  0  0  0  0  0  0  0
    4.9078   -1.9373    0.0000 C   0  0  0  0  0  0  0  0  0  0  0  0
    2.4108   -1.9158    0.0000 C   0  0  0  0  0  0  0  0  0  0  0  0
    2.7983   -1.4207    0.0000 C   0  0  0  0  0  0  0  0  0  0  0  0
    1.2916   -3.7669    0.0000 C   0  0  0  0  0  0  0  0  0  0  0  0
    3.7669   -0.0861    0.0000 C   0  0  0  0  0  0  0  0  0  0  0  0
    0.3229   -2.4323    0.0000 C   0  0  0  0  0  0  0  0  0  0  0  0
    2.4754   -0.6888    0.0000 C   0  0  0  0  0  0  0  0  0  0  0  0
    0.4951   -3.8746    0.0000 C   0  0  0  0  0  0  0  0  0  0  0  0
    2.9705    0.0000    0.0000 C   0  0  0  0  0  0  0  0  0  0  0  0
    0.0000   -3.1858    0.0000 C   0  0  0  0  0  0  0  0  0  0  0  0
    5.5535   -0.6242    0.0000 C   0  0  0  0  0  0  0  0  0  0  0  0
    1.3776   -0.9041    0.0000 C   0  0  0  0  0  0  0  0  0  0  0  0
  1 12  2  0  0  0  0
  2 13  1  0  0  0  0
  2 15  1  0  0  0  0
  2 25  1  0  0  0  0
  3  5  1  0  0  0  0
  3  7  1  0  0  0  0
  4 14  1  0  0  0  0
  4 16  1  0  0  0  0
  4 26  1  0  0  0  0
  5 12  1  0  0  0  0
  6  7  2  0  0  0  0
  6  8  1  0  0  0  0
  6 12  1  0  0  0  0
  7  9  1  0  0  0  0
  8 10  1  0  0  0  0
  8 15  2  0  0  0  0
  9 11  1  0  0  0  0
  9 16  2  0  0  0  0
 10 13  2  0  0  0  0
 10 17  1  0  0  0  0
 11 14  2  0  0  0  0
 11 18  1  0  0  0  0
 13 19  1  0  0  0  0
 14 20  1  0  0  0  0
 17 21  2  0  0  0  0
 18 22  2  0  0  0  0
 19 23  2  0  0  0  0
 20 24  2  0  0  0  0
 21 23  1  0  0  0  0
 22 24  1  0  0  0  0
M  END
> <PUBCHEM_COMPOUND_ID_TYPE>
0

> <PUBCHEM_TOTAL_CHARGE>
0

> <PUBCHEM_SUBSTANCE_ID>
310935315

> <PUBCHEM_SUBSTANCE_VERSION>
1

> <PUBCHEM_EXT_DATASOURCE_NAME>
4488

> <PUBCHEM_EXT_DATASOURCE_REGID>
SCHEMBL16112849

> <PUBCHEM_SUBSTANCE_COMMENT>
InChI=1S/C21H18N4O/c1-24-11-15(13-7-3-5-9-17(13)24)19-20(22-23-21(19)26)16-12-25(2)18-10-6-4-8-14(16)18/h3-12H,1-2H3,(H2,22,23,26)
InChIKey=KMUWGGSPJUQION-UHFFFAOYSA-N

> <PUBCHEM_SUBSTANCE_SYNONYM>
SCHEMBL16112849

> <PUBCHEM_XREF_EXT_ID>
SCHEMBL16112849

> <PUBCHEM_EXT_DATASOURCE_URL>
https://www.surechembl.org/

> <PUBCHEM_EXT_SUBSTANCE_URL>
https://www.surechembl.org/chemical/SCHEMBL16112849

> <PUBCHEM_CID_ASSOCIATIONS>
54754333  1

> <PUBCHEM_COORDINATE_TYPE>
1
3

$$$$
