310948066
  -OEChem-07211613022D

 31 34  0     0  0  0  0  0  0999 V2000
    1.8422   -1.4346    0.0000 Br  0  0  0  0  0  0  0  0  0  0  0  0
    3.8962    2.1193    0.0000 F   0  0  0  0  0  0  0  0  0  0  0  0
    2.7714    1.8259    0.0000 F   0  0  0  0  0  0  0  0  0  0  0  0
    4.1571    1.0107    0.0000 F   0  0  0  0  0  0  0  0  0  0  0  0
   -1.4835    0.1793    0.0000 O   0  0  0  0  0  0  0  0  0  0  0  0
    3.0648    0.7173    0.0000 O   0  0  0  0  0  0  0  0  0  0  0  0
   -4.1571   -0.8640    0.0000 O   0  0  0  0  0  0  0  0  0  0  0  0
   -1.4998   -1.4346    0.0000 N   0  0  0  0  0  0  0  0  0  0  0  0
   -0.7988    1.3368    0.0000 N   0  0  0  0  0  0  0  0  0  0  0  0
   -1.9888   -0.7662    0.0000 N   0  0  0  0  0  0  0  0  0  0  0  0
   -0.6521    0.0163    0.0000 C   0  0  0  0  0  0  0  0  0  0  0  0
   -0.2446   -0.6847    0.0000 C   0  0  0  0  0  0  0  0  0  0  0  0
   -0.2446    0.7499    0.0000 C   0  0  0  0  0  0  0  0  0  0  0  0
   -0.6521   -1.4020    0.0000 C   0  0  0  0  0  0  0  0  0  0  0  0
    0.5869    0.7336    0.0000 C   0  0  0  0  0  0  0  0  0  0  0  0
   -1.5487    1.0107    0.0000 C   0  0  0  0  0  0  0  0  0  0  0  0
    0.5869   -0.7173    0.0000 C   0  0  0  0  0  0  0  0  0  0  0  0
   -0.2282   -2.1193    0.0000 C   0  0  0  0  0  0  0  0  0  0  0  0
    0.9945   -1.4183    0.0000 C   0  0  0  0  0  0  0  0  0  0  0  0
    1.0107    0.0326    0.0000 C   0  0  0  0  0  0  0  0  0  0  0  0
    1.0107    1.4346    0.0000 C   0  0  0  0  0  0  0  0  0  0  0  0
   -1.9726   -2.0866    0.0000 C   0  0  0  0  0  0  0  0  0  0  0  0
    0.5869   -2.1193    0.0000 C   0  0  0  0  0  0  0  0  0  0  0  0
   -2.7551   -0.9945    0.0000 C   0  0  0  0  0  0  0  0  0  0  0  0
    2.2334    0.7336    0.0000 C   0  0  0  0  0  0  0  0  0  0  0  0
   -2.7714   -1.8259    0.0000 C   0  0  0  0  0  0  0  0  0  0  0  0
    1.8422    0.0326    0.0000 C   0  0  0  0  0  0  0  0  0  0  0  0
    1.8259    1.4509    0.0000 C   0  0  0  0  0  0  0  0  0  0  0  0
   -2.2823    1.4020    0.0000 C   0  0  0  0  0  0  0  0  0  0  0  0
    3.4887    1.4183    0.0000 C   0  0  0  0  0  0  0  0  0  0  0  0
   -3.4398   -0.5217    0.0000 C   0  0  0  0  0  0  0  0  0  0  0  0
  1 19  1  0  0  0  0
  2 30  1  0  0  0  0
  3 30  1  0  0  0  0
  4 30  1  0  0  0  0
  5 11  1  0  0  0  0
  5 16  1  0  0  0  0
  6 25  1  0  0  0  0
  6 30  1  0  0  0  0
  7 31  2  0  0  0  0
  8 10  1  0  0  0  0
  8 14  1  0  0  0  0
  8 22  1  0  0  0  0
  9 13  1  0  0  0  0
  9 16  2  0  0  0  0
 10 24  2  0  0  0  0
 11 12  1  0  0  0  0
 11 13  2  0  0  0  0
 12 14  1  0  0  0  0
 12 17  2  0  0  0  0
 13 15  1  0  0  0  0
 14 18  2  0  0  0  0
 15 20  2  0  0  0  0
 15 21  1  0  0  0  0
 16 29  1  0  0  0  0
 17 19  1  0  0  0  0
 18 23  1  0  0  0  0
 19 23  2  0  0  0  0
 20 27  1  0  0  0  0
 21 28  2  0  0  0  0
 22 26  2  0  0  0  0
 24 26  1  0  0  0  0
 24 31  1  0  0  0  0
 25 27  2  0  0  0  0
 25 28  1  0  0  0  0
M  END
> <PUBCHEM_COMPOUND_ID_TYPE>
0

> <PUBCHEM_TOTAL_CHARGE>
0

> <PUBCHEM_SUBSTANCE_ID>
310948066

> <PUBCHEM_SUBSTANCE_VERSION>
1

> <PUBCHEM_EXT_DATASOURCE_NAME>
4488

> <PUBCHEM_EXT_DATASOURCE_REGID>
SCHEMBL16126241

> <PUBCHEM_SUBSTANCE_COMMENT>
InChI=1S/C21H13BrF3N3O3/c1-12-26-19(13-2-5-16(6-3-13)31-21(23,24)25)20(30-12)17-10-14(22)4-7-18(17)28-9-8-15(11-29)27-28/h2-11H,1H3
InChIKey=VXPKQQLYIPPDCG-UHFFFAOYSA-N

> <PUBCHEM_SUBSTANCE_SYNONYM>
SCHEMBL16126241

> <PUBCHEM_XREF_EXT_ID>
SCHEMBL16126241

> <PUBCHEM_EXT_DATASOURCE_URL>
https://www.surechembl.org/

> <PUBCHEM_EXT_SUBSTANCE_URL>
https://www.surechembl.org/chemical/SCHEMBL16126241

> <PUBCHEM_CID_ASSOCIATIONS>
117613689  1

> <PUBCHEM_COORDINATE_TYPE>
1
3

$$$$
