310932444
  -OEChem-07211613022D

 33 37  0     0  0  0  0  0  0999 V2000
    3.0983   -0.7746    0.0000 O   0  0  0  0  0  0  0  0  0  0  0  0
    0.0000   -4.2468    0.0000 O   0  0  0  0  0  0  0  0  0  0  0  0
    5.5289   -3.1250    0.0000 O   0  0  0  0  0  0  0  0  0  0  0  0
    4.2201   -2.4840    0.0000 N   0  0  0  0  0  0  0  0  0  0  0  0
    4.2201   -3.7927    0.0000 N   0  0  0  0  0  0  0  0  0  0  0  0
    1.4691   -2.1902    0.0000 N   0  0  0  0  0  0  0  0  0  0  0  0
    3.8996   -0.7746    0.0000 N   0  0  0  0  0  0  0  0  0  0  0  0
    0.4006   -4.9947    0.0000 N   0  0  0  0  0  0  0  0  0  0  0  0
    2.6976   -1.4691    0.0000 C   0  0  0  0  0  0  0  0  0  0  0  0
    2.6976   -2.2970    0.0000 C   0  0  0  0  0  0  0  0  0  0  0  0
    3.4188   -2.6976    0.0000 C   0  0  0  0  0  0  0  0  0  0  0  0
    1.8697   -1.4957    0.0000 C   0  0  0  0  0  0  0  0  0  0  0  0
    3.5257   -1.4691    0.0000 C   0  0  0  0  0  0  0  0  0  0  0  0
    3.4188   -3.5523    0.0000 C   0  0  0  0  0  0  0  0  0  0  0  0
    2.0032   -3.5523    0.0000 C   0  0  0  0  0  0  0  0  0  0  0  0
    2.0032   -2.6976    0.0000 C   0  0  0  0  0  0  0  0  0  0  0  0
    2.6976   -3.9530    0.0000 C   0  0  0  0  0  0  0  0  0  0  0  0
    1.3087   -3.9797    0.0000 C   0  0  0  0  0  0  0  0  0  0  0  0
    4.7008   -3.1250    0.0000 C   0  0  0  0  0  0  0  0  0  0  0  0
    1.4691   -0.7746    0.0000 C   0  0  0  0  0  0  0  0  0  0  0  0
    3.9263   -2.1902    0.0000 C   0  0  0  0  0  0  0  0  0  0  0  0
    0.5342   -3.6592    0.0000 C   0  0  0  0  0  0  0  0  0  0  0  0
    1.2019   -4.7810    0.0000 C   0  0  0  0  0  0  0  0  0  0  0  0
    0.6410   -2.2436    0.0000 C   0  0  0  0  0  0  0  0  0  0  0  0
    4.7543   -0.7211    0.0000 C   0  0  0  0  0  0  0  0  0  0  0  0
    0.6143   -0.8013    0.0000 C   0  0  0  0  0  0  0  0  0  0  0  0
    4.7543   -2.1634    0.0000 C   0  0  0  0  0  0  0  0  0  0  0  0
    0.2404   -1.5225    0.0000 C   0  0  0  0  0  0  0  0  0  0  0  0
    5.1550   -1.4423    0.0000 C   0  0  0  0  0  0  0  0  0  0  0  0
    0.3472   -2.8312    0.0000 C   0  0  0  0  0  0  0  0  0  0  0  0
    1.8163   -5.3419    0.0000 C   0  0  0  0  0  0  0  0  0  0  0  0
    0.2404   -2.9648    0.0000 C   0  0  0  0  0  0  0  0  0  0  0  0
    5.1550    0.0000    0.0000 C   0  0  0  0  0  0  0  0  0  0  0  0
  1  9  1  0  0  0  0
  2  8  1  0  0  0  0
  2 22  1  0  0  0  0
  3 19  2  0  0  0  0
  4 11  1  0  0  0  0
  4 19  1  0  0  0  0
  5 14  1  0  0  0  0
  5 19  1  0  0  0  0
  6 12  1  0  0  0  0
  6 24  2  0  0  0  0
  7 13  1  0  0  0  0
  7 25  2  0  0  0  0
  8 23  2  0  0  0  0
  9 10  1  0  0  0  0
  9 12  1  0  0  0  0
  9 13  1  0  0  0  0
 10 11  1  0  0  0  0
 10 16  2  0  0  0  0
 11 14  2  0  0  0  0
 12 20  2  0  0  0  0
 13 21  2  0  0  0  0
 14 17  1  0  0  0  0
 15 16  1  0  0  0  0
 15 17  2  0  0  0  0
 15 18  1  0  0  0  0
 18 22  2  0  0  0  0
 18 23  1  0  0  0  0
 20 26  1  0  0  0  0
 21 27  1  0  0  0  0
 22 30  1  0  0  0  0
 23 31  1  0  0  0  0
 24 28  1  0  0  0  0
 24 32  1  0  0  0  0
 25 29  1  0  0  0  0
 25 33  1  0  0  0  0
 26 28  2  0  0  0  0
 27 29  2  0  0  0  0
M  END
> <PUBCHEM_COMPOUND_ID_TYPE>
0

> <PUBCHEM_TOTAL_CHARGE>
0

> <PUBCHEM_SUBSTANCE_ID>
310932444

> <PUBCHEM_SUBSTANCE_VERSION>
1

> <PUBCHEM_EXT_DATASOURCE_NAME>
4488

> <PUBCHEM_EXT_DATASOURCE_REGID>
SCHEMBL16109814

> <PUBCHEM_SUBSTANCE_COMMENT>
InChI=1S/C25H23N5O3/c1-13-7-5-9-20(26-13)25(32,21-10-6-8-14(2)27-21)18-11-17(22-15(3)30-33-16(22)4)12-19-23(18)29-24(31)28-19/h5-12,32H,1-4H3,(H2,28,29,31)
InChIKey=QIRDJXOOMCNIMD-UHFFFAOYSA-N

> <PUBCHEM_SUBSTANCE_SYNONYM>
SCHEMBL16109814

> <PUBCHEM_XREF_EXT_ID>
SCHEMBL16109814

> <PUBCHEM_EXT_DATASOURCE_URL>
https://www.surechembl.org/

> <PUBCHEM_EXT_SUBSTANCE_URL>
https://www.surechembl.org/chemical/SCHEMBL16109814

> <PUBCHEM_CID_ASSOCIATIONS>
86297157  1

> <PUBCHEM_COORDINATE_TYPE>
1
3

$$$$
