310939756
  -OEChem-07211613022D

 15 15  0     0  0  0  0  0  0999 V2000
    2.3148    9.7002    0.0000 Cl  0  0  0  0  0  0  0  0  0  0  0  0
    0.8859    9.7002    0.0000 O   0  0  0  0  0  0  0  0  0  0  0  0
    0.1714    8.4627    0.0000 N   0  0  0  0  0  0  0  0  0  0  0  0
    2.3148    7.2252    0.0000 C   0  0  0  0  0  0  0  0  0  0  0  0
    1.6003    8.4627    0.0000 C   0  0  0  0  0  0  0  0  0  0  0  0
    2.3148    8.8752    0.0000 C   0  0  0  0  0  0  0  0  0  0  0  0
    3.0293    8.4627    0.0000 C   0  0  0  0  0  0  0  0  0  0  0  0
    2.3148    6.4002    0.0000 C   0  0  0  0  0  0  0  0  0  0  0  0
    1.6003    7.6377    0.0000 C   0  0  0  0  0  0  0  0  0  0  0  0
    3.0293    7.6377    0.0000 C   0  0  0  0  0  0  0  0  0  0  0  0
    0.8859    8.8752    0.0000 C   0  0  0  0  0  0  0  0  0  0  0  0
    3.7438    8.8752    0.0000 C   0  0  0  0  0  0  0  0  0  0  0  0
    3.1398    6.4002    0.0000 C   0  0  0  0  0  0  0  0  0  0  0  0
    1.4898    6.4002    0.0000 C   0  0  0  0  0  0  0  0  0  0  0  0
    2.3148    5.5752    0.0000 C   0  0  0  0  0  0  0  0  0  0  0  0
  1  6  1  0  0  0  0
  2 11  2  0  0  0  0
  3 11  1  0  0  0  0
  4  8  1  0  0  0  0
  4  9  1  0  0  0  0
  4 10  2  0  0  0  0
  5  6  1  0  0  0  0
  5  9  2  0  0  0  0
  5 11  1  0  0  0  0
  6  7  2  0  0  0  0
  7 10  1  0  0  0  0
  7 12  1  0  0  0  0
  8 13  1  0  0  0  0
  8 14  1  0  0  0  0
  8 15  1  0  0  0  0
M  END
> <PUBCHEM_COMPOUND_ID_TYPE>
0

> <PUBCHEM_TOTAL_CHARGE>
0

> <PUBCHEM_SUBSTANCE_ID>
310939756

> <PUBCHEM_SUBSTANCE_VERSION>
1

> <PUBCHEM_EXT_DATASOURCE_NAME>
4488

> <PUBCHEM_EXT_DATASOURCE_REGID>
SCHEMBL16117686

> <PUBCHEM_SUBSTANCE_COMMENT>
InChI=1S/C12H16ClNO/c1-7-5-8(12(2,3)4)6-9(10(7)13)11(14)15/h5-6H,1-4H3,(H2,14,15)
InChIKey=CNXQXXHTLJISPI-UHFFFAOYSA-N

> <PUBCHEM_SUBSTANCE_SYNONYM>
SCHEMBL16117686

> <PUBCHEM_XREF_EXT_ID>
SCHEMBL16117686

> <PUBCHEM_EXT_DATASOURCE_URL>
https://www.surechembl.org/

> <PUBCHEM_EXT_SUBSTANCE_URL>
https://www.surechembl.org/chemical/SCHEMBL16117686

> <PUBCHEM_CID_ASSOCIATIONS>
117606979  1

> <PUBCHEM_COORDINATE_TYPE>
1
3

> <PUBCHEM_BONDANNOTATIONS>
8  13  3
8  14  3

$$$$
