310947310
  -OEChem-07211613022D

 30 33  0     1  0  0  0  0  0999 V2000
   -5.3080   -0.3059    0.0000 Br  0  0  0  0  0  0  0  0  0  0  0  0
    5.3080   -1.7993    0.0000 Cl  0  0  0  0  0  0  0  0  0  0  0  0
   -1.0211    2.1691    0.0000 O   0  0  0  0  0  0  0  0  0  0  0  0
    1.9069   -0.1483    0.0000 N   0  0  0  0  0  0  0  0  0  0  0  0
    2.3918    0.5191    0.0000 N   0  0  0  0  0  0  0  0  0  0  0  0
   -1.7356    0.9316    0.0000 N   0  0  0  0  0  0  0  0  0  0  0  0
    1.1223    0.1066    0.0000 C   0  0  0  0  0  0  0  0  0  0  0  0
    1.1223    0.9316    0.0000 C   0  0  0  0  0  0  0  0  0  0  0  0
    1.9069    1.1866    0.0000 C   0  0  0  0  0  0  0  0  0  0  0  0
   -0.3067    0.9316    0.0000 C   0  0  0  0  0  0  0  0  0  0  0  0
    0.4078    1.3441    0.0000 C   0  0  0  0  0  0  0  0  0  0  0  0
    0.4078   -0.3059    0.0000 C   0  0  0  0  0  0  0  0  0  0  0  0
   -0.3067    0.1066    0.0000 C   0  0  0  0  0  0  0  0  0  0  0  0
    2.1204   -0.9452    0.0000 C   0  0  0  0  0  0  0  0  0  0  0  0
   -1.0211    1.3441    0.0000 C   0  0  0  0  0  0  0  0  0  0  0  0
    2.9173   -1.1587    0.0000 C   0  0  0  0  0  0  0  0  0  0  0  0
    2.3194    1.9010    0.0000 C   0  0  0  0  0  0  0  0  0  0  0  0
   -2.4501    1.3441    0.0000 C   0  0  3  0  0  0  0  0  0  0  0  0
   -3.1646    0.9316    0.0000 C   0  0  0  0  0  0  0  0  0  0  0  0
    3.1308   -1.9556    0.0000 C   0  0  0  0  0  0  0  0  0  0  0  0
    3.5007   -0.5754    0.0000 C   0  0  0  0  0  0  0  0  0  0  0  0
    3.9277   -2.1691    0.0000 C   0  0  0  0  0  0  0  0  0  0  0  0
    4.2976   -0.7889    0.0000 C   0  0  0  0  0  0  0  0  0  0  0  0
    4.5111   -1.5858    0.0000 C   0  0  0  0  0  0  0  0  0  0  0  0
   -3.8790    1.3441    0.0000 C   0  0  0  0  0  0  0  0  0  0  0  0
   -3.1646    0.1066    0.0000 C   0  0  0  0  0  0  0  0  0  0  0  0
   -4.5935    0.1066    0.0000 C   0  0  0  0  0  0  0  0  0  0  0  0
   -2.4501    2.1691    0.0000 C   0  0  0  0  0  0  0  0  0  0  0  0
   -4.5935    0.9316    0.0000 C   0  0  0  0  0  0  0  0  0  0  0  0
   -3.8790   -0.3059    0.0000 C   0  0  0  0  0  0  0  0  0  0  0  0
  1 27  1  0  0  0  0
  2 24  1  0  0  0  0
  3 15  2  0  0  0  0
  4  5  1  0  0  0  0
  4  7  1  0  0  0  0
  4 14  1  0  0  0  0
  5  9  2  0  0  0  0
  6 15  1  0  0  0  0
  6 18  1  0  0  0  0
  7  8  1  0  0  0  0
  7 12  2  0  0  0  0
  8  9  1  0  0  0  0
  8 11  2  0  0  0  0
  9 17  1  0  0  0  0
 10 11  1  0  0  0  0
 10 13  2  0  0  0  0
 10 15  1  0  0  0  0
 12 13  1  0  0  0  0
 14 16  1  0  0  0  0
 16 20  2  0  0  0  0
 16 21  1  0  0  0  0
 18 19  1  0  0  0  0
 18 28  1  6  0  0  0
 19 25  2  0  0  0  0
 19 26  1  0  0  0  0
 20 22  1  0  0  0  0
 21 23  2  0  0  0  0
 22 24  2  0  0  0  0
 23 24  1  0  0  0  0
 25 29  1  0  0  0  0
 26 30  2  0  0  0  0
 27 29  2  0  0  0  0
 27 30  1  0  0  0  0
M  END
> <PUBCHEM_COMPOUND_ID_TYPE>
0

> <PUBCHEM_TOTAL_CHARGE>
0

> <PUBCHEM_SUBSTANCE_ID>
310947310

> <PUBCHEM_SUBSTANCE_VERSION>
1

> <PUBCHEM_EXT_DATASOURCE_NAME>
4488

> <PUBCHEM_EXT_DATASOURCE_REGID>
SCHEMBL16125465

> <PUBCHEM_SUBSTANCE_COMMENT>
InChI=1S/C24H21BrClN3O/c1-15(18-5-8-20(25)9-6-18)27-24(30)19-7-12-23-22(13-19)16(2)28-29(23)14-17-3-10-21(26)11-4-17/h3-13,15H,14H2,1-2H3,(H,27,30)/t15-/m0/s1
InChIKey=UNPPQWKOIMYXEK-HNNXBMFYSA-N

> <PUBCHEM_SUBSTANCE_SYNONYM>
SCHEMBL16125465

> <PUBCHEM_XREF_EXT_ID>
SCHEMBL16125465

> <PUBCHEM_EXT_DATASOURCE_URL>
https://www.surechembl.org/

> <PUBCHEM_EXT_SUBSTANCE_URL>
https://www.surechembl.org/chemical/SCHEMBL16125465

> <PUBCHEM_CID_ASSOCIATIONS>
71577227  1

> <PUBCHEM_COORDINATE_TYPE>
1
3

> <PUBCHEM_BONDANNOTATIONS>
18  28  6

$$$$
