310942614
  -OEChem-07211613022D

 37 40  0     1  0  0  0  0  0999 V2000
    2.2682    1.0703    0.0000 F   0  0  0  0  0  0  0  0  0  0  0  0
   -4.2517    2.2682    0.0000 F   0  0  0  0  0  0  0  0  0  0  0  0
   -4.2517   -1.0703    0.0000 F   0  0  0  0  0  0  0  0  0  0  0  0
    2.0915   -2.1308    0.0000 O   0  0  0  0  0  0  0  0  0  0  0  0
    0.6579   -2.1308    0.0000 O   0  0  0  0  0  0  0  0  0  0  0  0
   -2.0129    1.1685    0.0000 N   0  0  0  0  0  0  0  0  0  0  0  0
   -2.0129    2.5236    0.0000 N   0  0  0  0  0  0  0  0  0  0  0  0
   -0.2848    1.1292    0.0000 N   0  0  0  0  0  0  0  0  0  0  0  0
    1.3845   -0.8739    0.0000 N   0  0  0  0  0  0  0  0  0  0  0  0
   -0.6971    1.8362    0.0000 C   0  0  3  0  0  0  0  0  0  0  0  0
   -1.5416    1.8558    0.0000 C   0  0  0  0  0  0  0  0  0  0  0  0
   -2.8181    1.4434    0.0000 C   0  0  0  0  0  0  0  0  0  0  0  0
   -0.2651    2.6217    0.0000 C   0  0  0  0  0  0  0  0  0  0  0  0
   -3.5055    1.0114    0.0000 C   0  0  0  0  0  0  0  0  0  0  0  0
    0.9721    0.4222    0.0000 C   0  0  3  0  0  0  0  0  0  0  0  0
   -2.7788    2.2682    0.0000 C   0  0  0  0  0  0  0  0  0  0  0  0
   -4.2320    1.4434    0.0000 C   0  0  0  0  0  0  0  0  0  0  0  0
    1.7969    0.4026    0.0000 C   0  0  3  0  0  0  0  0  0  0  0  0
    0.5597    1.1292    0.0000 C   0  0  0  0  0  0  0  0  0  0  0  0
    0.7168   -0.3633    0.0000 C   0  0  0  0  0  0  0  0  0  0  0  0
   -3.5250    0.1866    0.0000 C   0  0  0  0  0  0  0  0  0  0  0  0
    2.0522   -0.3830    0.0000 C   0  0  0  0  0  0  0  0  0  0  0  0
    0.5401    2.5628    0.0000 C   0  0  0  0  0  0  0  0  0  0  0  0
    1.3845   -1.6791    0.0000 C   0  0  0  0  0  0  0  0  0  0  0  0
   -4.2320   -0.2062    0.0000 C   0  0  0  0  0  0  0  0  0  0  0  0
   -0.7168    3.2894    0.0000 C   0  0  0  0  0  0  0  0  0  0  0  0
    0.1276    3.3091    0.0000 C   0  0  0  0  0  0  0  0  0  0  0  0
   -4.9390    1.0114    0.0000 C   0  0  0  0  0  0  0  0  0  0  0  0
   -4.9587    0.1866    0.0000 C   0  0  0  0  0  0  0  0  0  0  0  0
    0.8935    3.3483    0.0000 C   0  0  0  0  0  0  0  0  0  0  0  0
    2.8181   -1.6987    0.0000 C   0  0  0  0  0  0  0  0  0  0  0  0
    3.5447   -2.1111    0.0000 C   0  0  0  0  0  0  0  0  0  0  0  0
    3.5447   -2.9555    0.0000 C   0  0  0  0  0  0  0  0  0  0  0  0
    4.2517   -1.7184    0.0000 C   0  0  0  0  0  0  0  0  0  0  0  0
    4.2517   -3.3483    0.0000 C   0  0  0  0  0  0  0  0  0  0  0  0
    4.9587   -2.1111    0.0000 C   0  0  0  0  0  0  0  0  0  0  0  0
    4.9587   -2.9555    0.0000 C   0  0  0  0  0  0  0  0  0  0  0  0
 18  1  1  1  0  0  0
  2 17  1  0  0  0  0
  3 25  1  0  0  0  0
  4 24  1  0  0  0  0
  4 31  1  0  0  0  0
  5 24  2  0  0  0  0
  6 11  2  0  0  0  0
  6 12  1  0  0  0  0
  7 11  1  0  0  0  0
  7 16  1  0  0  0  0
 10  8  1  1  0  0  0
  8 19  1  0  0  0  0
  9 20  1  0  0  0  0
  9 22  1  0  0  0  0
  9 24  1  0  0  0  0
 10 11  1  0  0  0  0
 10 13  1  0  0  0  0
 12 14  1  0  0  0  0
 12 16  2  0  0  0  0
 13 23  1  0  0  0  0
 13 26  1  0  0  0  0
 13 27  1  0  0  0  0
 14 17  2  0  0  0  0
 14 21  1  0  0  0  0
 15 18  1  0  0  0  0
 15 19  1  1  0  0  0
 15 20  1  0  0  0  0
 17 28  1  0  0  0  0
 18 22  1  0  0  0  0
 21 25  2  0  0  0  0
 23 30  2  0  0  0  0
 25 29  1  0  0  0  0
 28 29  2  0  0  0  0
 31 32  1  0  0  0  0
 32 33  2  0  0  0  0
 32 34  1  0  0  0  0
 33 35  1  0  0  0  0
 34 36  2  0  0  0  0
 35 37  2  0  0  0  0
 36 37  1  0  0  0  0
M  END
> <PUBCHEM_COMPOUND_ID_TYPE>
0

> <PUBCHEM_TOTAL_CHARGE>
0

> <PUBCHEM_SUBSTANCE_ID>
310942614

> <PUBCHEM_SUBSTANCE_VERSION>
1

> <PUBCHEM_EXT_DATASOURCE_NAME>
4488

> <PUBCHEM_EXT_DATASOURCE_REGID>
SCHEMBL16120660

> <PUBCHEM_SUBSTANCE_COMMENT>
InChI=1S/C28H31F3N4O2/c1-4-28(2,3)25(26-33-14-24(34-26)21-12-20(29)10-11-22(21)30)32-13-19-15-35(16-23(19)31)27(36)37-17-18-8-6-5-7-9-18/h4-12,14,19,23,25,32H,1,13,15-17H2,2-3H3,(H,33,34)/t19-,23+,25+/m1/s1
InChIKey=NNEVJNLLAFXHBU-VPHKFGTKSA-N

> <PUBCHEM_SUBSTANCE_SYNONYM>
SCHEMBL16120660

> <PUBCHEM_XREF_EXT_ID>
SCHEMBL16120660

> <PUBCHEM_EXT_DATASOURCE_URL>
https://www.surechembl.org/

> <PUBCHEM_EXT_SUBSTANCE_URL>
https://www.surechembl.org/chemical/SCHEMBL16120660

> <PUBCHEM_CID_ASSOCIATIONS>
117609146  1

> <PUBCHEM_COORDINATE_TYPE>
1
3

> <PUBCHEM_BONDANNOTATIONS>
18  1  5
15  19  5
10  8  5

$$$$
