310932307
  -OEChem-07211613022D

 33 36  0     1  0  0  0  0  0999 V2000
    8.2651   -0.7103    0.0000 F   0  0  0  0  0  0  0  0  0  0  0  0
    5.9083   -2.0663    0.0000 O   0  0  0  0  0  0  0  0  0  0  0  0
    1.7757   -3.7774    0.0000 O   0  0  0  0  0  0  0  0  0  0  0  0
    5.5209   -3.4868    0.0000 N   0  0  0  0  0  0  0  0  0  0  0  0
    5.9406   -4.1971    0.0000 N   0  0  0  0  0  0  0  0  0  0  0  0
    4.2617   -4.0357    0.0000 N   0  0  0  0  0  0  0  0  0  0  0  0
    1.9371   -2.3569    0.0000 N   0  0  0  0  0  0  0  0  0  0  0  0
    1.2914   -0.8394    0.0000 N   0  0  3  0  0  0  0  0  0  0  0  0
    9.6857   -0.7103    0.0000 N   0  0  0  0  0  0  0  0  0  0  0  0
    6.8446   -3.1963    0.0000 C   0  0  0  0  0  0  0  0  0  0  0  0
    6.0697   -2.8734    0.0000 C   0  0  0  0  0  0  0  0  0  0  0  0
    7.5549   -2.7766    0.0000 C   0  0  0  0  0  0  0  0  0  0  0  0
    4.7137   -3.3900    0.0000 C   0  0  0  0  0  0  0  0  0  0  0  0
    6.7477   -4.0034    0.0000 C   0  0  0  0  0  0  0  0  0  0  0  0
    8.2651   -3.1963    0.0000 C   0  0  0  0  0  0  0  0  0  0  0  0
    7.5549   -1.9695    0.0000 C   0  0  0  0  0  0  0  0  0  0  0  0
    3.0994   -3.1963    0.0000 C   0  0  0  0  0  0  0  0  0  0  0  0
    8.2651   -1.5497    0.0000 C   0  0  0  0  0  0  0  0  0  0  0  0
    4.3909   -2.6151    0.0000 C   0  0  0  0  0  0  0  0  0  0  0  0
    8.9754   -1.9695    0.0000 C   0  0  0  0  0  0  0  0  0  0  0  0
    2.2600   -3.0994    0.0000 C   0  0  0  0  0  0  0  0  0  0  0  0
    8.9754   -2.7766    0.0000 C   0  0  0  0  0  0  0  0  0  0  0  0
    3.4223   -3.9711    0.0000 C   0  0  0  0  0  0  0  0  0  0  0  0
    3.5514   -2.5506    0.0000 C   0  0  0  0  0  0  0  0  0  0  0  0
    1.1300   -2.2600    0.0000 C   0  0  0  0  0  0  0  0  0  0  0  0
    0.8071   -1.5174    0.0000 C   0  0  3  0  0  0  0  0  0  0  0  0
    2.4537   -1.7111    0.0000 C   0  0  0  0  0  0  0  0  0  0  0  0
    8.2651   -4.0034    0.0000 C   0  0  0  0  0  0  0  0  0  0  0  0
    9.6857   -1.5497    0.0000 C   0  0  0  0  0  0  0  0  0  0  0  0
    2.1309   -0.9363    0.0000 C   0  0  0  0  0  0  0  0  0  0  0  0
    0.9686   -0.0968    0.0000 C   0  0  0  0  0  0  0  0  0  0  0  0
    0.0000   -1.4205    0.0000 C   0  0  0  0  0  0  0  0  0  0  0  0
    0.1614    0.0000    0.0000 C   0  0  0  0  0  0  0  0  0  0  0  0
  1 18  1  0  0  0  0
  2 11  1  0  0  0  0
  3 21  2  0  0  0  0
  4  5  1  0  0  0  0
  4 11  1  0  0  0  0
  4 13  1  0  0  0  0
  5 14  2  0  0  0  0
  6 13  1  0  0  0  0
  6 23  2  0  0  0  0
  7 21  1  0  0  0  0
  7 25  1  0  0  0  0
  7 27  1  0  0  0  0
  8 26  1  0  0  0  0
  8 30  1  0  0  0  0
  8 31  1  0  0  0  0
  9 29  3  0  0  0  0
 10 11  2  0  0  0  0
 10 12  1  0  0  0  0
 10 14  1  0  0  0  0
 12 15  1  0  0  0  0
 12 16  2  0  0  0  0
 13 19  2  0  0  0  0
 15 22  2  0  0  0  0
 15 28  1  0  0  0  0
 16 18  1  0  0  0  0
 17 21  1  0  0  0  0
 17 23  1  0  0  0  0
 17 24  2  0  0  0  0
 18 20  2  0  0  0  0
 19 24  1  0  0  0  0
 20 22  1  0  0  0  0
 20 29  1  0  0  0  0
 25 26  1  0  0  0  0
 26 32  1  1  0  0  0
 27 30  1  0  0  0  0
 31 33  1  0  0  0  0
M  END
> <PUBCHEM_COMPOUND_ID_TYPE>
0

> <PUBCHEM_TOTAL_CHARGE>
0

> <PUBCHEM_SUBSTANCE_ID>
310932307

> <PUBCHEM_SUBSTANCE_VERSION>
1

> <PUBCHEM_EXT_DATASOURCE_NAME>
4488

> <PUBCHEM_EXT_DATASOURCE_REGID>
SCHEMBL16109671

> <PUBCHEM_SUBSTANCE_COMMENT>
InChI=1S/C24H25FN6O2/c1-4-29-7-8-30(14-16(29)3)23(32)17-5-6-22(27-12-17)31-24(33)20(13-28-31)19-10-21(25)18(11-26)9-15(19)2/h5-6,9-10,12-13,16,33H,4,7-8,14H2,1-3H3/t16-/m1/s1
InChIKey=KAOROSNDUNJDEV-MRXNPFEDSA-N

> <PUBCHEM_SUBSTANCE_SYNONYM>
SCHEMBL16109671

> <PUBCHEM_XREF_EXT_ID>
SCHEMBL16109671

> <PUBCHEM_EXT_DATASOURCE_URL>
https://www.surechembl.org/

> <PUBCHEM_EXT_SUBSTANCE_URL>
https://www.surechembl.org/chemical/SCHEMBL16109671

> <PUBCHEM_CID_ASSOCIATIONS>
117600865  1

> <PUBCHEM_COORDINATE_TYPE>
1
3

> <PUBCHEM_BONDANNOTATIONS>
26  32  5

$$$$
