310940946
  -OEChem-07211613022D

 38 43  0     1  0  0  0  0  0999 V2000
    1.3422    0.0756    0.0000 O   0  0  0  0  0  0  0  0  0  0  0  0
    2.1361   -1.0208    0.0000 O   0  0  0  0  0  0  0  0  0  0  0  0
    0.0063    0.5544    0.0000 O   0  0  0  0  0  0  0  0  0  0  0  0
   -2.0857   -0.4411    0.0000 O   0  0  0  0  0  0  0  0  0  0  0  0
    1.3422    1.5376    0.0000 O   0  0  0  0  0  0  0  0  0  0  0  0
   -4.2156   -3.3397    0.0000 O   0  0  0  0  0  0  0  0  0  0  0  0
    2.7789    1.6887    0.0000 O   0  0  0  0  0  0  0  0  0  0  0  0
    0.8507   -0.5923    0.0000 C   0  0  3  0  0  0  0  0  0  0  0  0
    0.0693   -0.8569    0.0000 C   0  0  3  0  0  0  0  0  0  0  0  0
    0.0568   -1.6761    0.0000 C   0  0  3  0  0  0  0  0  0  0  0  0
    1.3548   -1.2603    0.0000 C   0  0  3  0  0  0  0  0  0  0  0  0
    0.8632   -1.9282    0.0000 C   0  0  0  0  0  0  0  0  0  0  0  0
   -0.6364   -2.0794    0.0000 C   0  0  3  0  0  0  0  0  0  0  0  0
    0.7750    0.2395    0.0000 C   0  0  0  0  0  0  0  0  0  0  0  0
   -0.6364   -0.4537    0.0000 C   0  0  0  0  0  0  0  0  0  0  0  0
   -1.3674   -1.6761    0.0000 C   0  0  3  0  0  0  0  0  0  0  0  0
    2.1235   -0.1765    0.0000 C   0  0  3  0  0  0  0  0  0  0  0  0
   -1.3674   -0.8695    0.0000 C   0  0  3  0  0  0  0  0  0  0  0  0
    0.1576   -0.0252    0.0000 C   0  0  0  0  0  0  0  0  0  0  0  0
   -2.0732   -2.0920    0.0000 C   0  0  3  0  0  0  0  0  0  0  0  0
   -0.6490   -2.9238    0.0000 C   0  0  0  0  0  0  0  0  0  0  0  0
    2.7915    0.3025    0.0000 C   0  0  0  0  0  0  0  0  0  0  0  0
    1.4305    0.6931    0.0000 C   0  0  0  0  0  0  0  0  0  0  0  0
   -2.0857   -2.9238    0.0000 C   0  0  0  0  0  0  0  0  0  0  0  0
   -1.3548   -3.3271    0.0000 C   0  0  0  0  0  0  0  0  0  0  0  0
   -2.8167   -1.7013    0.0000 C   0  0  0  0  0  0  0  0  0  0  0  0
   -2.7789   -3.3397    0.0000 C   0  0  0  0  0  0  0  0  0  0  0  0
    2.7284    1.1217    0.0000 C   0  0  0  0  0  0  0  0  0  0  0  0
    3.5477   -0.0378    0.0000 C   0  0  0  0  0  0  0  0  0  0  0  0
   -3.4972   -2.1046    0.0000 C   0  0  0  0  0  0  0  0  0  0  0  0
   -3.4972   -2.9112    0.0000 C   0  0  0  0  0  0  0  0  0  0  0  0
    2.0101    2.0290    0.0000 C   0  0  0  0  0  0  0  0  0  0  0  0
    3.3964    1.6005    0.0000 C   0  0  0  0  0  0  0  0  0  0  0  0
    4.2156    0.4411    0.0000 C   0  0  0  0  0  0  0  0  0  0  0  0
    4.1400    1.2603    0.0000 C   0  0  0  0  0  0  0  0  0  0  0  0
    1.9345    2.8482    0.0000 C   0  0  0  0  0  0  0  0  0  0  0  0
    1.1783    3.1884    0.0000 C   0  0  0  0  0  0  0  0  0  0  0  0
    2.6025    3.3397    0.0000 C   0  0  0  0  0  0  0  0  0  0  0  0
  1  8  1  0  0  0  0
  1 17  1  0  0  0  0
 11  2  1  6  0  0  0
  2 17  1  0  0  0  0
  3 14  2  0  0  0  0
 18  4  1  1  0  0  0
  5 23  1  0  0  0  0
  5 32  1  0  0  0  0
  6 31  2  0  0  0  0
  7 32  2  0  0  0  0
  8  9  1  0  0  0  0
  8 11  1  0  0  0  0
  8 14  1  1  0  0  0
  9 10  1  0  0  0  0
  9 15  1  0  0  0  0
  9 19  1  1  0  0  0
 10 12  1  1  0  0  0
 10 13  1  0  0  0  0
 11 12  1  0  0  0  0
 13 16  1  0  0  0  0
 13 21  1  6  0  0  0
 14 23  1  0  0  0  0
 15 18  1  0  0  0  0
 16 18  1  1  0  0  0
 16 20  1  0  0  0  0
 17 22  1  0  0  0  0
 20 24  1  0  0  0  0
 20 26  1  0  0  0  0
 21 25  1  0  0  0  0
 22 28  1  0  0  0  0
 22 29  1  0  0  0  0
 24 25  1  0  0  0  0
 24 27  2  0  0  0  0
 26 30  2  0  0  0  0
 27 31  1  0  0  0  0
 28 33  1  0  0  0  0
 29 34  1  0  0  0  0
 30 31  1  0  0  0  0
 32 36  1  0  0  0  0
 33 35  1  0  0  0  0
 34 35  1  0  0  0  0
 36 37  1  0  0  0  0
 36 38  1  0  0  0  0
M  END
> <PUBCHEM_COMPOUND_ID_TYPE>
0

> <PUBCHEM_TOTAL_CHARGE>
0

> <PUBCHEM_SUBSTANCE_ID>
310940946

> <PUBCHEM_SUBSTANCE_VERSION>
1

> <PUBCHEM_EXT_DATASOURCE_NAME>
4488

> <PUBCHEM_EXT_DATASOURCE_REGID>
SCHEMBL16118905

> <PUBCHEM_SUBSTANCE_COMMENT>
InChI=1S/C31H42O7/c1-17(2)28(35)36-16-25(34)31-26(37-29(38-31)18-7-5-4-6-8-18)14-23-22-11-9-19-13-20(32)10-12-21(19)27(22)24(33)15-30(23,31)3/h10,12-13,17-18,21-24,26-27,29,33H,4-9,11,14-16H2,1-3H3/t21?,22-,23-,24-,26+,27+,29?,30-,31+/m0/s1
InChIKey=AEYCZSHKCMOLOT-DAZUKHRRSA-N

> <PUBCHEM_SUBSTANCE_SYNONYM>
SCHEMBL16118905

> <PUBCHEM_XREF_EXT_ID>
SCHEMBL16118905

> <PUBCHEM_EXT_DATASOURCE_URL>
https://www.surechembl.org/

> <PUBCHEM_EXT_SUBSTANCE_URL>
https://www.surechembl.org/chemical/SCHEMBL16118905

> <PUBCHEM_CID_ASSOCIATIONS>
117607854  1

> <PUBCHEM_COORDINATE_TYPE>
1
3

> <PUBCHEM_BONDANNOTATIONS>
10  12  5
13  21  6
16  18  5
11  2  6
18  4  5
8  14  5
9  19  5

$$$$
