310942306
  -OEChem-07211613022D

 68 73  0     1  0  0  0  0  0999 V2000
    6.0309    1.1687    0.0000 O   0  0  0  0  0  0  0  0  0  0  0  0
    4.7185    0.0312    0.0000 O   0  0  0  0  0  0  0  0  0  0  0  0
    2.9436   -0.2437    0.0000 O   0  0  0  0  0  0  0  0  0  0  0  0
    1.9186    0.0562    0.0000 O   0  0  0  0  0  0  0  0  0  0  0  0
   -0.4187    0.6312    0.0000 O   0  0  0  0  0  0  0  0  0  0  0  0
    3.4185    3.0436    0.0000 O   0  0  0  0  0  0  0  0  0  0  0  0
    4.3685    2.9186    0.0000 O   0  0  0  0  0  0  0  0  0  0  0  0
    2.1686    3.1435    0.0000 O   0  0  0  0  0  0  0  0  0  0  0  0
    5.4434   -1.2062    0.0000 O   0  0  0  0  0  0  0  0  0  0  0  0
    1.5312   -0.1437    0.0000 O   0  0  0  0  0  0  0  0  0  0  0  0
   -1.1312    1.8811    0.0000 O   0  0  0  0  0  0  0  0  0  0  0  0
   -1.8562   -0.1938    0.0000 O   0  0  0  0  0  0  0  0  0  0  0  0
   -1.1312   -1.4436    0.0000 O   0  0  0  0  0  0  0  0  0  0  0  0
   -0.7265    0.0261    0.0000 O   0  0  0  0  0  0  0  0  0  0  0  0
   -1.2286   -0.7997    0.0000 O   0  0  0  0  0  0  0  0  0  0  0  0
   -3.3060   -1.0312    0.0000 O   0  0  0  0  0  0  0  0  0  0  0  0
   -4.0185   -2.2811    0.0000 O   0  0  0  0  0  0  0  0  0  0  0  0
   -2.7685    1.8562    0.0000 N   0  0  0  0  0  0  0  0  0  0  0  0
   -6.1683   -1.0312    0.0000 N   0  0  0  0  0  0  0  0  0  0  0  0
    3.8810    0.9562    0.0000 C   0  0  3  0  0  0  0  0  0  0  0  0
    4.7434    0.8937    0.0000 C   0  0  3  0  0  0  0  0  0  0  0  0
    3.5435    1.7437    0.0000 C   0  0  3  0  0  0  0  0  0  0  0  0
    2.1311    0.8687    0.0000 C   0  0  3  0  0  0  0  0  0  0  0  0
    2.9810    0.5937    0.0000 C   0  0  3  0  0  0  0  0  0  0  0  0
    1.6187    2.3311    0.0000 C   0  0  0  0  0  0  0  0  0  0  0  0
    1.6561    1.6686    0.0000 C   0  0  0  0  0  0  0  0  0  0  0  0
    5.1934    1.3311    0.0000 C   0  0  3  0  0  0  0  0  0  0  0  0
    3.0060    2.3061    0.0000 C   0  0  0  0  0  0  0  0  0  0  0  0
    4.1685    2.1186    0.0000 C   0  0  3  0  0  0  0  0  0  0  0  0
    0.3188    1.0687    0.0000 C   0  0  3  0  0  0  0  0  0  0  0  0
    2.1811    2.3186    0.0000 C   0  0  3  0  0  0  0  0  0  0  0  0
    1.0437    0.6437    0.0000 C   0  0  0  0  0  0  0  0  0  0  0  0
    0.9062    1.6437    0.0000 C   0  0  0  0  0  0  0  0  0  0  0  0
    5.5434    0.6562    0.0000 C   0  0  0  0  0  0  0  0  0  0  0  0
    4.9184    2.0061    0.0000 C   0  0  0  0  0  0  0  0  0  0  0  0
    3.7560    2.5186    0.0000 C   0  0  0  0  0  0  0  0  0  0  0  0
    0.8937    2.7685    0.0000 C   0  0  0  0  0  0  0  0  0  0  0  0
    1.8811    2.8186    0.0000 C   0  0  0  0  0  0  0  0  0  0  0  0
    5.4684   -0.4313    0.0000 C   0  0  0  0  0  0  0  0  0  0  0  0
    2.2311   -0.6187    0.0000 C   0  0  0  0  0  0  0  0  0  0  0  0
   -0.2562    1.6437    0.0000 C   0  0  0  0  0  0  0  0  0  0  0  0
    0.3312    2.2311    0.0000 C   0  0  0  0  0  0  0  0  0  0  0  0
   -1.1186    1.0312    0.0000 C   0  0  0  0  0  0  0  0  0  0  0  0
    2.1561   -1.4686    0.0000 C   0  0  0  0  0  0  0  0  0  0  0  0
   -1.8311    0.6437    0.0000 C   0  0  3  0  0  0  0  0  0  0  0  0
    6.1683   -0.0062    0.0000 C   0  0  0  0  0  0  0  0  0  0  0  0
    2.8186   -1.9436    0.0000 C   0  0  0  0  0  0  0  0  0  0  0  0
    1.3687   -1.8311    0.0000 C   0  0  0  0  0  0  0  0  0  0  0  0
   -2.5686    1.0562    0.0000 C   0  0  3  0  0  0  0  0  0  0  0  0
   -3.4935    0.6312    0.0000 C   0  0  0  0  0  0  0  0  0  0  0  0
    2.7435   -2.7685    0.0000 C   0  0  0  0  0  0  0  0  0  0  0  0
    1.3062   -2.6686    0.0000 C   0  0  0  0  0  0  0  0  0  0  0  0
   -1.8686   -1.0187    0.0000 C   0  0  0  0  0  0  0  0  0  0  0  0
    2.0186   -3.1435    0.0000 C   0  0  0  0  0  0  0  0  0  0  0  0
   -4.1560    1.0937    0.0000 C   0  0  0  0  0  0  0  0  0  0  0  0
   -3.5560   -0.1938    0.0000 C   0  0  0  0  0  0  0  0  0  0  0  0
   -1.2286   -0.2641    0.0000 C   0  0  0  0  0  0  0  0  0  0  0  0
   -2.5561   -1.4436    0.0000 C   0  0  0  0  0  0  0  0  0  0  0  0
   -4.9184    0.7437    0.0000 C   0  0  0  0  0  0  0  0  0  0  0  0
   -4.3059   -0.5562    0.0000 C   0  0  0  0  0  0  0  0  0  0  0  0
   -5.0059   -0.0688    0.0000 C   0  0  0  0  0  0  0  0  0  0  0  0
   -0.7154    0.5840    0.0000 C   0  0  0  0  0  0  0  0  0  0  0  0
   -4.0060   -1.4187    0.0000 C   0  0  0  0  0  0  0  0  0  0  0  0
   -0.2132    0.6063    0.0000 C   0  0  0  0  0  0  0  0  0  0  0  0
   -1.2286    0.5840    0.0000 C   0  0  0  0  0  0  0  0  0  0  0  0
   -0.7265    1.1308    0.0000 C   0  0  0  0  0  0  0  0  0  0  0  0
   -4.7434   -1.0312    0.0000 C   0  0  0  0  0  0  0  0  0  0  0  0
   -5.4559   -1.4436    0.0000 C   0  0  0  0  0  0  0  0  0  0  0  0
  1 27  1  0  0  0  0
  1 34  1  0  0  0  0
 21  2  1  6  0  0  0
  2 39  1  0  0  0  0
 24  3  1  6  0  0  0
  3 40  1  0  0  0  0
 23  4  1  6  0  0  0
 30  5  1  6  0  0  0
  5 43  1  0  0  0  0
  6 28  2  0  0  0  0
 29  7  1  1  0  0  0
 31  8  1  1  0  0  0
  9 39  2  0  0  0  0
 10 40  2  0  0  0  0
 11 43  2  0  0  0  0
 45 12  1  6  0  0  0
 12 53  1  0  0  0  0
 13 53  2  0  0  0  0
 14 57  1  0  0  0  0
 14 62  1  0  0  0  0
 15 57  2  0  0  0  0
 16 58  1  0  0  0  0
 16 63  1  0  0  0  0
 17 63  2  0  0  0  0
 49 18  1  6  0  0  0
 18 57  1  0  0  0  0
 19 68  1  0  0  0  0
 20 21  1  0  0  0  0
 20 22  1  0  0  0  0
 20 24  1  1  0  0  0
 21 27  1  0  0  0  0
 21 34  1  0  0  0  0
 22 28  1  0  0  0  0
 22 29  1  0  0  0  0
 22 36  1  1  0  0  0
 23 24  1  0  0  0  0
 23 25  1  0  0  0  0
 23 32  1  0  0  0  0
 25 26  1  0  0  0  0
 25 37  1  0  0  0  0
 25 38  1  0  0  0  0
 26 31  1  0  0  0  0
 26 33  2  0  0  0  0
 27 35  1  1  0  0  0
 28 31  1  0  0  0  0
 29 35  1  0  0  0  0
 30 32  1  0  0  0  0
 30 33  1  0  0  0  0
 30 41  1  1  0  0  0
 33 42  1  0  0  0  0
 39 46  1  0  0  0  0
 40 44  1  0  0  0  0
 43 45  1  0  0  0  0
 44 47  2  0  0  0  0
 44 48  1  0  0  0  0
 45 49  1  0  0  0  0
 47 51  1  0  0  0  0
 48 52  2  0  0  0  0
 49 50  1  0  0  0  0
 50 55  2  0  0  0  0
 50 56  1  0  0  0  0
 51 54  2  0  0  0  0
 52 54  1  0  0  0  0
 53 58  1  0  0  0  0
 55 59  1  0  0  0  0
 56 60  2  0  0  0  0
 59 61  2  0  0  0  0
 60 61  1  0  0  0  0
 62 64  1  0  0  0  0
 62 65  1  0  0  0  0
 62 66  1  0  0  0  0
 63 67  1  0  0  0  0
 67 68  1  0  0  0  0
M  END
> <PUBCHEM_COMPOUND_ID_TYPE>
0

> <PUBCHEM_TOTAL_CHARGE>
0

> <PUBCHEM_SUBSTANCE_ID>
310942306

> <PUBCHEM_SUBSTANCE_VERSION>
1

> <PUBCHEM_EXT_DATASOURCE_NAME>
4488

> <PUBCHEM_EXT_DATASOURCE_REGID>
SCHEMBL16120342

> <PUBCHEM_SUBSTANCE_COMMENT>
InChI=1S/C49H62N2O17/c1-26-34-36(56)39(57)47(9)30(53)22-31-48(25-63-31,66-27(2)52)38(47)40(65-41(58)29-18-14-11-15-19-29)49(61,45(34,6)7)24-46(26,8)67-42(59)37(64-33(55)23-62-32(54)20-21-50)35(28-16-12-10-13-17-28)51-43(60)68-44(3,4)5/h10-19,30-31,35-38,40,53,56,61H,20-25,50H2,1-9H3,(H,51,60)/t30-,31+,35-,36+,37+,38-,40-,46-,47+,48-,49-/m0/s1
InChIKey=MVJCUIHUBKJVBP-KBJOCXIHSA-N

> <PUBCHEM_SUBSTANCE_SYNONYM>
SCHEMBL16120342

> <PUBCHEM_XREF_EXT_ID>
SCHEMBL16120342

> <PUBCHEM_EXT_DATASOURCE_URL>
https://www.surechembl.org/

> <PUBCHEM_EXT_SUBSTANCE_URL>
https://www.surechembl.org/chemical/SCHEMBL16120342

> <PUBCHEM_CID_ASSOCIATIONS>
117608953  1

> <PUBCHEM_COORDINATE_TYPE>
1
3

> <PUBCHEM_BONDANNOTATIONS>
45  12  6
49  18  6
21  2  6
20  24  5
22  36  5
27  35  5
24  3  6
30  41  5
23  4  6
30  5  6
29  7  5
31  8  5

$$$$
