310936472
  -OEChem-07211613022D

 27 29  0     0  0  0  0  0  0999 V2000
    4.3935    2.4134    0.0000 F   0  0  0  0  0  0  0  0  0  0  0  0
    3.6791    1.1759    0.0000 F   0  0  0  0  0  0  0  0  0  0  0  0
    0.8212    3.6509    0.0000 O   0  0  0  0  0  0  0  0  0  0  0  0
    2.9646    2.4134    0.0000 O   0  0  0  0  0  0  0  0  0  0  0  0
   -2.5986   -1.5148    0.0000 O   0  0  0  0  0  0  0  0  0  0  0  0
   -3.7546   -0.6749    0.0000 O   0  0  0  0  0  0  0  0  0  0  0  0
   -0.6078    2.0009    0.0000 N   0  0  0  0  0  0  0  0  0  0  0  0
   -2.0367    1.1759    0.0000 N   0  0  0  0  0  0  0  0  0  0  0  0
   -0.6078    3.6509    0.0000 N   0  0  0  0  0  0  0  0  0  0  0  0
   -2.7041    0.6910    0.0000 N   0  0  0  0  0  0  0  0  0  0  0  0
   -1.6242   -0.0937    0.0000 N   0  0  0  0  0  0  0  0  0  0  0  0
    0.1067    2.4134    0.0000 C   0  0  0  0  0  0  0  0  0  0  0  0
    0.8212    2.0009    0.0000 C   0  0  0  0  0  0  0  0  0  0  0  0
    0.1067    3.2384    0.0000 C   0  0  0  0  0  0  0  0  0  0  0  0
   -1.3222    2.4134    0.0000 C   0  0  0  0  0  0  0  0  0  0  0  0
   -2.0367    2.0009    0.0000 C   0  0  0  0  0  0  0  0  0  0  0  0
   -1.3222    3.2384    0.0000 C   0  0  0  0  0  0  0  0  0  0  0  0
   -2.4492   -0.0937    0.0000 C   0  0  0  0  0  0  0  0  0  0  0  0
    1.5356    2.4134    0.0000 C   0  0  0  0  0  0  0  0  0  0  0  0
    2.2501    2.0009    0.0000 C   0  0  0  0  0  0  0  0  0  0  0  0
    0.8212    1.1759    0.0000 C   0  0  0  0  0  0  0  0  0  0  0  0
   -1.3693    0.6910    0.0000 C   0  0  0  0  0  0  0  0  0  0  0  0
   -2.9341   -0.7611    0.0000 C   0  0  0  0  0  0  0  0  0  0  0  0
    2.2501    1.1759    0.0000 C   0  0  0  0  0  0  0  0  0  0  0  0
    1.5356    0.7634    0.0000 C   0  0  0  0  0  0  0  0  0  0  0  0
    3.6791    2.0009    0.0000 C   0  0  0  0  0  0  0  0  0  0  0  0
    0.8212    4.4759    0.0000 C   0  0  0  0  0  0  0  0  0  0  0  0
  1 26  1  0  0  0  0
  2 26  1  0  0  0  0
  3 14  1  0  0  0  0
  3 27  1  0  0  0  0
  4 20  1  0  0  0  0
  4 26  1  0  0  0  0
  5 23  2  0  0  0  0
  6 23  1  0  0  0  0
  7 12  1  0  0  0  0
  7 15  2  0  0  0  0
  8 10  1  0  0  0  0
  8 16  1  0  0  0  0
  8 22  1  0  0  0  0
  9 14  1  0  0  0  0
  9 17  2  0  0  0  0
 10 18  2  0  0  0  0
 11 18  1  0  0  0  0
 11 22  2  0  0  0  0
 12 13  1  0  0  0  0
 12 14  2  0  0  0  0
 13 19  2  0  0  0  0
 13 21  1  0  0  0  0
 15 16  1  0  0  0  0
 15 17  1  0  0  0  0
 18 23  1  0  0  0  0
 19 20  1  0  0  0  0
 20 24  2  0  0  0  0
 21 25  2  0  0  0  0
 24 25  1  0  0  0  0
M  END
> <PUBCHEM_COMPOUND_ID_TYPE>
0

> <PUBCHEM_TOTAL_CHARGE>
0

> <PUBCHEM_SUBSTANCE_ID>
310936472

> <PUBCHEM_SUBSTANCE_VERSION>
1

> <PUBCHEM_EXT_DATASOURCE_NAME>
4488

> <PUBCHEM_EXT_DATASOURCE_REGID>
SCHEMBL16114119

> <PUBCHEM_SUBSTANCE_COMMENT>
InChI=1S/C16H13F2N5O4/c1-26-14-12(9-3-2-4-11(5-9)27-16(17)18)21-10(6-19-14)7-23-8-20-13(22-23)15(24)25/h2-6,8,16H,7H2,1H3,(H,24,25)
InChIKey=XSFMQFRYHWCSAG-UHFFFAOYSA-N

> <PUBCHEM_SUBSTANCE_SYNONYM>
SCHEMBL16114119

> <PUBCHEM_XREF_EXT_ID>
SCHEMBL16114119

> <PUBCHEM_EXT_DATASOURCE_URL>
https://www.surechembl.org/

> <PUBCHEM_EXT_SUBSTANCE_URL>
https://www.surechembl.org/chemical/SCHEMBL16114119

> <PUBCHEM_CID_ASSOCIATIONS>
117604403  1

> <PUBCHEM_COORDINATE_TYPE>
1
3

$$$$
