310937619
  -OEChem-07211613022D

 22 24  0     0  0  0  0  0  0999 V2000
    2.0616   -1.2127    0.0000 O   0  0  0  0  0  0  0  0  0  0  0  0
    0.0000   -2.0374    0.0000 O   0  0  0  0  0  0  0  0  0  0  0  0
    3.3229   -3.4441    0.0000 O   0  0  0  0  0  0  0  0  0  0  0  0
    2.0616   -2.7407    0.0000 N   0  0  0  0  0  0  0  0  0  0  0  0
    0.9217   -0.5579    0.0000 N   0  0  0  0  0  0  0  0  0  0  0  0
    1.5280    0.0000    0.0000 N   0  0  0  0  0  0  0  0  0  0  0  0
    0.8247   -2.0374    0.0000 C   0  0  0  0  0  0  0  0  0  0  0  0
    1.2370   -1.3097    0.0000 C   0  0  0  0  0  0  0  0  0  0  0  0
    1.2370   -2.7407    0.0000 C   0  0  0  0  0  0  0  0  0  0  0  0
    2.4983   -3.4441    0.0000 C   0  0  0  0  0  0  0  0  0  0  0  0
    2.2314   -0.4123    0.0000 C   0  0  0  0  0  0  0  0  0  0  0  0
    0.8247   -3.4684    0.0000 C   0  0  0  0  0  0  0  0  0  0  0  0
    2.0616   -4.1718    0.0000 C   0  0  0  0  0  0  0  0  0  0  0  0
    1.2613   -4.1718    0.0000 C   0  0  0  0  0  0  0  0  0  0  0  0
    3.7352   -4.1476    0.0000 C   0  0  0  0  0  0  0  0  0  0  0  0
    4.5841   -4.1476    0.0000 C   0  0  0  0  0  0  0  0  0  0  0  0
    2.9833   -0.0727    0.0000 C   0  0  0  0  0  0  0  0  0  0  0  0
    4.9964   -4.8509    0.0000 C   0  0  0  0  0  0  0  0  0  0  0  0
    4.9964   -3.4199    0.0000 C   0  0  0  0  0  0  0  0  0  0  0  0
    5.8211   -4.8509    0.0000 C   0  0  0  0  0  0  0  0  0  0  0  0
    5.8211   -3.4199    0.0000 C   0  0  0  0  0  0  0  0  0  0  0  0
    6.2334   -4.1233    0.0000 C   0  0  0  0  0  0  0  0  0  0  0  0
  1  8  1  0  0  0  0
  1 11  1  0  0  0  0
  2  7  2  0  0  0  0
  3 10  1  0  0  0  0
  3 15  1  0  0  0  0
  4  9  1  0  0  0  0
  4 10  2  0  0  0  0
  5  6  1  0  0  0  0
  5  8  2  0  0  0  0
  6 11  2  0  0  0  0
  7  8  1  0  0  0  0
  7  9  1  0  0  0  0
  9 12  2  0  0  0  0
 10 13  1  0  0  0  0
 11 17  1  0  0  0  0
 12 14  1  0  0  0  0
 13 14  2  0  0  0  0
 15 16  1  0  0  0  0
 16 18  2  0  0  0  0
 16 19  1  0  0  0  0
 18 20  1  0  0  0  0
 19 21  2  0  0  0  0
 20 22  2  0  0  0  0
 21 22  1  0  0  0  0
M  END
> <PUBCHEM_COMPOUND_ID_TYPE>
0

> <PUBCHEM_TOTAL_CHARGE>
0

> <PUBCHEM_SUBSTANCE_ID>
310937619

> <PUBCHEM_SUBSTANCE_VERSION>
1

> <PUBCHEM_EXT_DATASOURCE_NAME>
4488

> <PUBCHEM_EXT_DATASOURCE_REGID>
SCHEMBL16115402

> <PUBCHEM_SUBSTANCE_COMMENT>
InChI=1S/C16H13N3O3/c1-11-18-19-16(22-11)15(20)13-8-5-9-14(17-13)21-10-12-6-3-2-4-7-12/h2-9H,10H2,1H3
InChIKey=HCZTYRDWPQCVET-UHFFFAOYSA-N

> <PUBCHEM_SUBSTANCE_SYNONYM>
SCHEMBL16115402

> <PUBCHEM_XREF_EXT_ID>
SCHEMBL16115402

> <PUBCHEM_EXT_DATASOURCE_URL>
https://www.surechembl.org/

> <PUBCHEM_EXT_SUBSTANCE_URL>
https://www.surechembl.org/chemical/SCHEMBL16115402

> <PUBCHEM_CID_ASSOCIATIONS>
117605318  1

> <PUBCHEM_COORDINATE_TYPE>
1
3

$$$$
