310939867
  -OEChem-07211613022D

 10 10  0     0  0  0  0  0  0999 V2000
    1.2875    1.3039    0.0000 Br  0  0  0  0  0  0  0  0  0  0  0  0
    1.2875   -0.4274    0.0000 F   0  0  0  0  0  0  0  0  0  0  0  0
   -0.1260   -1.3039    0.0000 N   0  0  0  0  0  0  0  0  0  0  0  0
    0.5752    0.0110    0.0000 C   0  0  0  0  0  0  0  0  0  0  0  0
   -0.1260   -0.4164    0.0000 C   0  0  0  0  0  0  0  0  0  0  0  0
    0.5862    0.8766    0.0000 C   0  0  0  0  0  0  0  0  0  0  0  0
   -0.8382    0.0000    0.0000 C   0  0  0  0  0  0  0  0  0  0  0  0
   -0.1370    1.3039    0.0000 C   0  0  0  0  0  0  0  0  0  0  0  0
   -0.8273    0.8766    0.0000 C   0  0  0  0  0  0  0  0  0  0  0  0
   -1.2875   -0.2739    0.0000 C   0  0  0  0  0  0  0  0  0  0  0  0
  1  6  1  0  0  0  0
  2  4  1  0  0  0  0
  3  5  1  0  0  0  0
  4  5  2  0  0  0  0
  4  6  1  0  0  0  0
  5  7  1  0  0  0  0
  6  8  2  0  0  0  0
  7  9  2  0  0  0  0
  7 10  1  0  0  0  0
  8  9  1  0  0  0  0
M  END
> <PUBCHEM_COMPOUND_ID_TYPE>
0

> <PUBCHEM_TOTAL_CHARGE>
0

> <PUBCHEM_SUBSTANCE_ID>
310939867

> <PUBCHEM_SUBSTANCE_VERSION>
1

> <PUBCHEM_EXT_DATASOURCE_NAME>
4488

> <PUBCHEM_EXT_DATASOURCE_REGID>
SCHEMBL16117797

> <PUBCHEM_SUBSTANCE_COMMENT>
InChI=1S/C7H7BrFN/c1-4-2-3-5(8)6(9)7(4)10/h2-3H,10H2,1H3
InChIKey=VQNSEDIAEPUXJK-UHFFFAOYSA-N

> <PUBCHEM_SUBSTANCE_SYNONYM>
SCHEMBL16117797

> <PUBCHEM_XREF_EXT_ID>
SCHEMBL16117797

> <PUBCHEM_EXT_DATASOURCE_URL>
https://www.surechembl.org/

> <PUBCHEM_EXT_SUBSTANCE_URL>
https://www.surechembl.org/chemical/SCHEMBL16117797

> <PUBCHEM_CID_ASSOCIATIONS>
83409857  1

> <PUBCHEM_COORDINATE_TYPE>
1
3

$$$$
