310938819
  -OEChem-07211613022D

 32 36  0     0  0  0  0  0  0999 V2000
   -0.4725  -12.7655    0.0000 O   0  0  0  0  0  0  0  0  0  0  0  0
    3.4851  -15.2996    0.0000 O   0  0  0  0  0  0  0  0  0  0  0  0
    1.4643  -17.3204    0.0000 O   0  0  0  0  0  0  0  0  0  0  0  0
    0.7246  -14.5599    0.0000 N   0  0  0  0  0  0  0  0  0  0  0  0
    0.7246  -13.7349    0.0000 N   0  0  0  0  0  0  0  0  0  0  0  0
   -1.8549  -13.4800    0.0000 N   0  0  0  0  0  0  0  0  0  0  0  0
   -1.8549  -14.8148    0.0000 N   0  0  0  0  0  0  0  0  0  0  0  0
   -0.3606  -16.0081    0.0000 N   0  0  0  0  0  0  0  0  0  0  0  0
   -0.5450  -14.1474    0.0000 C   0  0  0  0  0  0  0  0  0  0  0  0
   -0.0600  -14.8148    0.0000 C   0  0  0  0  0  0  0  0  0  0  0  0
   -1.3700  -14.1474    0.0000 C   0  0  0  0  0  0  0  0  0  0  0  0
   -0.0600  -13.4800    0.0000 C   0  0  0  0  0  0  0  0  0  0  0  0
    1.3079  -15.1433    0.0000 C   0  0  0  0  0  0  0  0  0  0  0  0
   -2.6395  -13.7349    0.0000 C   0  0  0  0  0  0  0  0  0  0  0  0
   -2.6395  -14.5599    0.0000 C   0  0  0  0  0  0  0  0  0  0  0  0
    1.0944  -15.9401    0.0000 C   0  0  0  0  0  0  0  0  0  0  0  0
    2.1048  -14.9297    0.0000 C   0  0  0  0  0  0  0  0  0  0  0  0
   -1.1575  -16.2216    0.0000 C   0  0  0  0  0  0  0  0  0  0  0  0
    2.6882  -15.5131    0.0000 C   0  0  0  0  0  0  0  0  0  0  0  0
    1.6778  -16.5235    0.0000 C   0  0  0  0  0  0  0  0  0  0  0  0
   -3.3540  -13.3224    0.0000 C   0  0  0  0  0  0  0  0  0  0  0  0
   -3.3540  -14.9724    0.0000 C   0  0  0  0  0  0  0  0  0  0  0  0
    2.4747  -16.3100    0.0000 C   0  0  0  0  0  0  0  0  0  0  0  0
   -4.0684  -13.7349    0.0000 C   0  0  0  0  0  0  0  0  0  0  0  0
   -4.0684  -14.5599    0.0000 C   0  0  0  0  0  0  0  0  0  0  0  0
   -1.7408  -15.6383    0.0000 C   0  0  0  0  0  0  0  0  0  0  0  0
   -1.3710  -17.0185    0.0000 C   0  0  0  0  0  0  0  0  0  0  0  0
   -2.5377  -15.8518    0.0000 C   0  0  0  0  0  0  0  0  0  0  0  0
   -2.1679  -17.2321    0.0000 C   0  0  0  0  0  0  0  0  0  0  0  0
   -2.7512  -16.6487    0.0000 C   0  0  0  0  0  0  0  0  0  0  0  0
    4.0684  -15.8829    0.0000 C   0  0  0  0  0  0  0  0  0  0  0  0
    0.6674  -17.5339    0.0000 C   0  0  0  0  0  0  0  0  0  0  0  0
  1 12  1  0  0  0  0
  2 19  1  0  0  0  0
  2 31  1  0  0  0  0
  3 20  1  0  0  0  0
  3 32  1  0  0  0  0
  4  5  1  0  0  0  0
  4 10  1  0  0  0  0
  4 13  1  0  0  0  0
  5 12  2  0  0  0  0
  6 11  2  0  0  0  0
  6 14  1  0  0  0  0
  7 11  1  0  0  0  0
  7 15  1  0  0  0  0
  8 10  1  0  0  0  0
  8 18  1  0  0  0  0
  9 10  2  0  0  0  0
  9 11  1  0  0  0  0
  9 12  1  0  0  0  0
 13 16  2  0  0  0  0
 13 17  1  0  0  0  0
 14 15  1  0  0  0  0
 14 21  2  0  0  0  0
 15 22  2  0  0  0  0
 16 20  1  0  0  0  0
 17 19  2  0  0  0  0
 18 26  2  0  0  0  0
 18 27  1  0  0  0  0
 19 23  1  0  0  0  0
 20 23  2  0  0  0  0
 21 24  1  0  0  0  0
 22 25  1  0  0  0  0
 24 25  2  0  0  0  0
 26 28  1  0  0  0  0
 27 29  2  0  0  0  0
 28 30  2  0  0  0  0
 29 30  1  0  0  0  0
M  END
> <PUBCHEM_COMPOUND_ID_TYPE>
0

> <PUBCHEM_TOTAL_CHARGE>
0

> <PUBCHEM_SUBSTANCE_ID>
310938819

> <PUBCHEM_SUBSTANCE_VERSION>
1

> <PUBCHEM_EXT_DATASOURCE_NAME>
4488

> <PUBCHEM_EXT_DATASOURCE_REGID>
SCHEMBL16116736

> <PUBCHEM_SUBSTANCE_COMMENT>
InChI=1S/C24H21N5O3/c1-31-17-12-16(13-18(14-17)32-2)29-23(25-15-8-4-3-5-9-15)21(24(30)28-29)22-26-19-10-6-7-11-20(19)27-22/h3-14,25H,1-2H3,(H,26,27)(H,28,30)
InChIKey=INMZOWGGHZYRPS-UHFFFAOYSA-N

> <PUBCHEM_SUBSTANCE_SYNONYM>
SCHEMBL16116736

> <PUBCHEM_XREF_EXT_ID>
SCHEMBL16116736

> <PUBCHEM_EXT_DATASOURCE_URL>
https://www.surechembl.org/

> <PUBCHEM_EXT_SUBSTANCE_URL>
https://www.surechembl.org/chemical/SCHEMBL16116736

> <PUBCHEM_CID_ASSOCIATIONS>
71572805  1

> <PUBCHEM_COORDINATE_TYPE>
1
3

$$$$
