310935073
  -OEChem-07211613022D

 16 18  0     0  0  0  0  0  0999 V2000
    0.0000    0.0000    0.0000 Br  0  0  0  0  0  0  0  0  0  0  0  0
    4.2561   -1.6398    0.0000 N   0  0  0  0  0  0  0  0  0  0  0  0
    3.5375   -2.8926    0.0000 N   0  0  0  0  0  0  0  0  0  0  0  0
    5.0299   -1.4187    0.0000 N   0  0  0  0  0  0  0  0  0  0  0  0
    4.2561   -2.5057    0.0000 C   0  0  0  0  0  0  0  0  0  0  0  0
    2.8374   -1.6398    0.0000 C   0  0  0  0  0  0  0  0  0  0  0  0
    3.5375   -1.2529    0.0000 C   0  0  0  0  0  0  0  0  0  0  0  0
    2.1373   -1.2345    0.0000 C   0  0  0  0  0  0  0  0  0  0  0  0
    2.8374   -2.5057    0.0000 C   0  0  0  0  0  0  0  0  0  0  0  0
    5.0299   -2.7268    0.0000 C   0  0  0  0  0  0  0  0  0  0  0  0
    5.5274   -2.0635    0.0000 C   0  0  0  0  0  0  0  0  0  0  0  0
    1.4187   -1.6398    0.0000 C   0  0  0  0  0  0  0  0  0  0  0  0
    2.1373   -0.4054    0.0000 C   0  0  0  0  0  0  0  0  0  0  0  0
    0.7185   -0.4054    0.0000 C   0  0  0  0  0  0  0  0  0  0  0  0
    0.7001   -1.2345    0.0000 C   0  0  0  0  0  0  0  0  0  0  0  0
    1.4371    0.0000    0.0000 C   0  0  0  0  0  0  0  0  0  0  0  0
  1 14  1  0  0  0  0
  2  4  1  0  0  0  0
  2  5  1  0  0  0  0
  2  7  1  0  0  0  0
  3  5  1  0  0  0  0
  3  9  2  0  0  0  0
  4 11  2  0  0  0  0
  5 10  2  0  0  0  0
  6  7  2  0  0  0  0
  6  8  1  0  0  0  0
  6  9  1  0  0  0  0
  8 12  2  0  0  0  0
  8 13  1  0  0  0  0
 10 11  1  0  0  0  0
 12 15  1  0  0  0  0
 13 16  2  0  0  0  0
 14 15  2  0  0  0  0
 14 16  1  0  0  0  0
M  END
> <PUBCHEM_COMPOUND_ID_TYPE>
0

> <PUBCHEM_TOTAL_CHARGE>
0

> <PUBCHEM_SUBSTANCE_ID>
310935073

> <PUBCHEM_SUBSTANCE_VERSION>
1

> <PUBCHEM_EXT_DATASOURCE_NAME>
4488

> <PUBCHEM_EXT_DATASOURCE_REGID>
SCHEMBL16112596

> <PUBCHEM_SUBSTANCE_COMMENT>
InChI=1S/C12H8BrN3/c13-11-3-1-9(2-4-11)10-7-14-12-5-6-15-16(12)8-10/h1-8H
InChIKey=FJVWKNMISZVRLW-UHFFFAOYSA-N

> <PUBCHEM_SUBSTANCE_SYNONYM>
SCHEMBL16112596

> <PUBCHEM_XREF_EXT_ID>
SCHEMBL16112596

> <PUBCHEM_EXT_DATASOURCE_URL>
https://www.surechembl.org/

> <PUBCHEM_EXT_SUBSTANCE_URL>
https://www.surechembl.org/chemical/SCHEMBL16112596

> <PUBCHEM_CID_ASSOCIATIONS>
82378905  1

> <PUBCHEM_COORDINATE_TYPE>
1
3

$$$$
