310948159
  -OEChem-07211613022D

 27 30  0     1  0  0  0  0  0999 V2000
   -1.4839   -1.2975    0.0000 O   0  0  0  0  0  0  0  0  0  0  0  0
    1.0513    4.1756    0.0000 O   0  0  0  0  0  0  0  0  0  0  0  0
    0.0223    1.0439    0.0000 N   0  0  0  0  0  0  0  0  0  0  0  0
    0.5145    0.3729    0.0000 N   0  0  0  0  0  0  0  0  0  0  0  0
   -2.1997   -0.0448    0.0000 N   0  0  0  0  0  0  0  0  0  0  0  0
    0.2759   -1.0886    0.0000 N   0  0  0  0  0  0  0  0  0  0  0  0
    2.1997    0.7755    0.0000 N   0  0  0  0  0  0  0  0  0  0  0  0
   -0.7531    0.7904    0.0000 C   0  0  0  0  0  0  0  0  0  0  0  0
   -0.7681   -0.0448    0.0000 C   0  0  0  0  0  0  0  0  0  0  0  0
    0.0223   -0.2983    0.0000 C   0  0  0  0  0  0  0  0  0  0  0  0
    0.2908    1.8343    0.0000 C   0  0  3  0  0  0  0  0  0  0  0  0
   -1.4689   -0.4474    0.0000 C   0  0  0  0  0  0  0  0  0  0  0  0
   -1.4988    1.1930    0.0000 C   0  0  0  0  0  0  0  0  0  0  0  0
    1.0812    2.0133    0.0000 C   0  0  3  0  0  0  0  0  0  0  0  0
   -0.2610    2.4457    0.0000 C   0  0  0  0  0  0  0  0  0  0  0  0
   -2.1848    0.7904    0.0000 C   0  0  0  0  0  0  0  0  0  0  0  0
    1.3496    2.7738    0.0000 C   0  0  0  0  0  0  0  0  0  0  0  0
    0.7979    3.4002    0.0000 C   0  0  3  0  0  0  0  0  0  0  0  0
   -0.0075    3.2212    0.0000 C   0  0  0  0  0  0  0  0  0  0  0  0
    1.6330    1.3720    0.0000 C   0  0  0  0  0  0  0  0  0  0  0  0
   -0.7531   -1.7150    0.0000 C   0  0  0  0  0  0  0  0  0  0  0  0
   -0.7681   -2.5203    0.0000 C   0  0  0  0  0  0  0  0  0  0  0  0
   -1.4839   -2.9528    0.0000 C   0  0  0  0  0  0  0  0  0  0  0  0
   -0.0522   -2.9528    0.0000 C   0  0  0  0  0  0  0  0  0  0  0  0
   -1.4839   -3.7582    0.0000 C   0  0  0  0  0  0  0  0  0  0  0  0
   -0.0522   -3.7730    0.0000 C   0  0  0  0  0  0  0  0  0  0  0  0
   -0.7531   -4.1756    0.0000 C   0  0  0  0  0  0  0  0  0  0  0  0
  1 12  1  0  0  0  0
  1 21  1  0  0  0  0
 18  2  1  1  0  0  0
  3  4  1  0  0  0  0
  3  8  1  0  0  0  0
 11  3  1  1  0  0  0
  4 10  2  0  0  0  0
  5 12  1  0  0  0  0
  5 16  2  0  0  0  0
  6 10  1  0  0  0  0
  7 20  3  0  0  0  0
  8  9  1  0  0  0  0
  8 13  2  0  0  0  0
  9 10  1  0  0  0  0
  9 12  2  0  0  0  0
 11 14  1  0  0  0  0
 11 15  1  0  0  0  0
 13 16  1  0  0  0  0
 14 17  1  0  0  0  0
 14 20  1  6  0  0  0
 15 19  1  0  0  0  0
 17 18  1  0  0  0  0
 18 19  1  0  0  0  0
 21 22  1  0  0  0  0
 22 23  2  0  0  0  0
 22 24  1  0  0  0  0
 23 25  1  0  0  0  0
 24 26  2  0  0  0  0
 25 27  2  0  0  0  0
 26 27  1  0  0  0  0
M  END
> <PUBCHEM_COMPOUND_ID_TYPE>
0

> <PUBCHEM_TOTAL_CHARGE>
0

> <PUBCHEM_SUBSTANCE_ID>
310948159

> <PUBCHEM_SUBSTANCE_VERSION>
1

> <PUBCHEM_EXT_DATASOURCE_NAME>
4488

> <PUBCHEM_EXT_DATASOURCE_REGID>
SCHEMBL16126336

> <PUBCHEM_SUBSTANCE_COMMENT>
InChI=1S/C20H21N5O2/c21-11-14-10-15(26)6-7-16(14)25-17-8-9-23-20(18(17)19(22)24-25)27-12-13-4-2-1-3-5-13/h1-5,8-9,14-16,26H,6-7,10,12H2,(H2,22,24)/t14-,15-,16+/m1/s1
InChIKey=PIYYULBMGGGQSW-OAGGEKHMSA-N

> <PUBCHEM_SUBSTANCE_SYNONYM>
SCHEMBL16126336

> <PUBCHEM_XREF_EXT_ID>
SCHEMBL16126336

> <PUBCHEM_EXT_DATASOURCE_URL>
https://www.surechembl.org/

> <PUBCHEM_EXT_SUBSTANCE_URL>
https://www.surechembl.org/chemical/SCHEMBL16126336

> <PUBCHEM_CID_ASSOCIATIONS>
117613759  1

> <PUBCHEM_COORDINATE_TYPE>
1
3

> <PUBCHEM_BONDANNOTATIONS>
14  20  6
18  2  5
11  3  5

$$$$
