310947587
  -OEChem-07211613022D

 22 24  0     1  0  0  0  0  0999 V2000
   -1.9561  -10.6159    0.0000 F   0  0  0  0  0  0  0  0  0  0  0  0
   -1.1311   -8.6319    0.0000 O   0  0  0  0  0  0  0  0  0  0  0  0
    0.0783   -9.6879    0.0000 O   0  0  0  0  0  0  0  0  0  0  0  0
    1.7499   -6.3869    0.0000 O   0  0  0  0  0  0  0  0  0  0  0  0
   -3.1788   -8.7470    0.0000 O   0  0  0  0  0  0  0  0  0  0  0  0
    0.2508   -8.7043    0.0000 N   0  0  0  0  0  0  0  0  0  0  0  0
    0.2508   -7.3694    0.0000 N   0  0  0  0  0  0  0  0  0  0  0  0
    1.7499   -8.8619    0.0000 N   0  0  0  0  0  0  0  0  0  0  0  0
    2.4643   -7.6244    0.0000 N   0  0  0  0  0  0  0  0  0  0  0  0
   -0.4637   -9.1168    0.0000 C   0  0  3  0  0  0  0  0  0  0  0  0
   -0.7186   -9.9014    0.0000 C   0  0  3  0  0  0  0  0  0  0  0  0
    1.0354   -8.4494    0.0000 C   0  0  0  0  0  0  0  0  0  0  0  0
   -1.5436   -9.9014    0.0000 C   0  0  3  0  0  0  0  0  0  0  0  0
    1.0354   -7.6244    0.0000 C   0  0  0  0  0  0  0  0  0  0  0  0
   -1.7986   -9.1168    0.0000 C   0  0  3  0  0  0  0  0  0  0  0  0
   -0.2341   -8.0369    0.0000 C   0  0  0  0  0  0  0  0  0  0  0  0
    1.7499   -7.2119    0.0000 C   0  0  0  0  0  0  0  0  0  0  0  0
   -0.3061  -10.6159    0.0000 C   0  0  0  0  0  0  0  0  0  0  0  0
    2.4643   -8.4494    0.0000 C   0  0  0  0  0  0  0  0  0  0  0  0
   -2.3819   -8.5334    0.0000 C   0  0  0  0  0  0  0  0  0  0  0  0
    3.1788   -8.8619    0.0000 C   0  0  0  0  0  0  0  0  0  0  0  0
    2.4643   -5.9744    0.0000 C   0  0  0  0  0  0  0  0  0  0  0  0
 13  1  1  6  0  0  0
 10  2  1  6  0  0  0
  2 15  1  0  0  0  0
 11  3  1  1  0  0  0
  4 17  1  0  0  0  0
  4 22  1  0  0  0  0
  5 20  1  0  0  0  0
  6 10  1  0  0  0  0
  6 12  1  0  0  0  0
  6 16  1  0  0  0  0
  7 14  1  0  0  0  0
  7 16  2  0  0  0  0
  8 12  1  0  0  0  0
  8 19  2  0  0  0  0
  9 17  2  0  0  0  0
  9 19  1  0  0  0  0
 10 11  1  0  0  0  0
 11 13  1  0  0  0  0
 11 18  1  6  0  0  0
 12 14  2  0  0  0  0
 13 15  1  0  0  0  0
 14 17  1  0  0  0  0
 15 20  1  1  0  0  0
 19 21  1  0  0  0  0
M  END
> <PUBCHEM_COMPOUND_ID_TYPE>
0

> <PUBCHEM_TOTAL_CHARGE>
0

> <PUBCHEM_SUBSTANCE_ID>
310947587

> <PUBCHEM_SUBSTANCE_VERSION>
1

> <PUBCHEM_EXT_DATASOURCE_NAME>
4488

> <PUBCHEM_EXT_DATASOURCE_REGID>
SCHEMBL16125750

> <PUBCHEM_SUBSTANCE_COMMENT>
InChI=1S/C13H17FN4O4/c1-6-16-10-8(11(17-6)21-3)15-5-18(10)12-13(2,20)9(14)7(4-19)22-12/h5,7,9,12,19-20H,4H2,1-3H3/t7-,9-,12+,13+/m1/s1
InChIKey=CGTLPSURVGNMCP-HVJKSMARSA-N

> <PUBCHEM_SUBSTANCE_SYNONYM>
SCHEMBL16125750

> <PUBCHEM_XREF_EXT_ID>
SCHEMBL16125750

> <PUBCHEM_EXT_DATASOURCE_URL>
https://www.surechembl.org/

> <PUBCHEM_EXT_SUBSTANCE_URL>
https://www.surechembl.org/chemical/SCHEMBL16125750

> <PUBCHEM_CID_ASSOCIATIONS>
117613309  1

> <PUBCHEM_COORDINATE_TYPE>
1
3

> <PUBCHEM_BONDANNOTATIONS>
13  1  6
11  18  6
15  20  5
10  2  6
11  3  5

$$$$
