310938607
  -OEChem-07211613022D

 28 31  0     0  0  0  0  0  0999 V2000
    2.8335   -2.5155    0.0000 F   0  0  0  0  0  0  0  0  0  0  0  0
    4.0710   -1.8010    0.0000 F   0  0  0  0  0  0  0  0  0  0  0  0
    3.6585   -2.5155    0.0000 F   0  0  0  0  0  0  0  0  0  0  0  0
   -1.9275    2.5155    0.0000 O   0  0  0  0  0  0  0  0  0  0  0  0
   -0.4986    0.0405    0.0000 N   0  0  0  0  0  0  0  0  0  0  0  0
    0.2860    0.2954    0.0000 N   0  0  0  0  0  0  0  0  0  0  0  0
   -1.2131   -1.1970    0.0000 N   0  0  0  0  0  0  0  0  0  0  0  0
   -1.2131    1.2780    0.0000 N   0  0  0  0  0  0  0  0  0  0  0  0
   -3.3565    1.6905    0.0000 N   0  0  0  0  0  0  0  0  0  0  0  0
   -0.4986   -0.7845    0.0000 C   0  0  0  0  0  0  0  0  0  0  0  0
    0.7710   -0.3720    0.0000 C   0  0  0  0  0  0  0  0  0  0  0  0
   -1.2131    0.4530    0.0000 C   0  0  0  0  0  0  0  0  0  0  0  0
    1.5960   -0.3720    0.0000 C   0  0  0  0  0  0  0  0  0  0  0  0
    0.2860   -1.0395    0.0000 C   0  0  0  0  0  0  0  0  0  0  0  0
    2.8335   -1.0865    0.0000 C   0  0  0  0  0  0  0  0  0  0  0  0
    2.0085   -1.0865    0.0000 C   0  0  0  0  0  0  0  0  0  0  0  0
   -1.9275    0.0405    0.0000 C   0  0  0  0  0  0  0  0  0  0  0  0
    3.2460   -1.8010    0.0000 C   0  0  0  0  0  0  0  0  0  0  0  0
    2.0085    0.3424    0.0000 C   0  0  0  0  0  0  0  0  0  0  0  0
   -1.9275   -0.7845    0.0000 C   0  0  0  0  0  0  0  0  0  0  0  0
   -1.9275    1.6905    0.0000 C   0  0  0  0  0  0  0  0  0  0  0  0
    3.2460   -0.3720    0.0000 C   0  0  0  0  0  0  0  0  0  0  0  0
    2.8335    0.3424    0.0000 C   0  0  0  0  0  0  0  0  0  0  0  0
   -2.6420    1.2780    0.0000 C   0  0  0  0  0  0  0  0  0  0  0  0
   -2.6420    0.4530    0.0000 C   0  0  0  0  0  0  0  0  0  0  0  0
   -4.0710    1.2780    0.0000 C   0  0  0  0  0  0  0  0  0  0  0  0
   -3.3565    0.0405    0.0000 C   0  0  0  0  0  0  0  0  0  0  0  0
   -4.0710    0.4530    0.0000 C   0  0  0  0  0  0  0  0  0  0  0  0
  1 18  1  0  0  0  0
  2 18  1  0  0  0  0
  3 18  1  0  0  0  0
  4 21  2  0  0  0  0
  5  6  1  0  0  0  0
  5 10  1  0  0  0  0
  5 12  1  0  0  0  0
  6 11  2  0  0  0  0
  7 10  1  0  0  0  0
  7 20  2  0  0  0  0
  8 12  1  0  0  0  0
  8 21  1  0  0  0  0
  9 24  1  0  0  0  0
  9 26  2  0  0  0  0
 10 14  2  0  0  0  0
 11 13  1  0  0  0  0
 11 14  1  0  0  0  0
 12 17  2  0  0  0  0
 13 16  1  0  0  0  0
 13 19  2  0  0  0  0
 15 16  2  0  0  0  0
 15 18  1  0  0  0  0
 15 22  1  0  0  0  0
 17 20  1  0  0  0  0
 19 23  1  0  0  0  0
 21 24  1  0  0  0  0
 22 23  2  0  0  0  0
 24 25  2  0  0  0  0
 25 27  1  0  0  0  0
 26 28  1  0  0  0  0
 27 28  2  0  0  0  0
M  END
> <PUBCHEM_COMPOUND_ID_TYPE>
0

> <PUBCHEM_TOTAL_CHARGE>
0

> <PUBCHEM_SUBSTANCE_ID>
310938607

> <PUBCHEM_SUBSTANCE_VERSION>
1

> <PUBCHEM_EXT_DATASOURCE_NAME>
4488

> <PUBCHEM_EXT_DATASOURCE_REGID>
SCHEMBL16116521

> <PUBCHEM_SUBSTANCE_COMMENT>
InChI=1S/C19H12F3N5O/c20-19(21,22)13-5-3-4-12(10-13)15-11-17-24-9-7-16(27(17)26-15)25-18(28)14-6-1-2-8-23-14/h1-11H,(H,25,28)
InChIKey=VZASJEHFIFMMRW-UHFFFAOYSA-N

> <PUBCHEM_SUBSTANCE_SYNONYM>
SCHEMBL16116521

> <PUBCHEM_XREF_EXT_ID>
SCHEMBL16116521

> <PUBCHEM_EXT_DATASOURCE_URL>
https://www.surechembl.org/

> <PUBCHEM_EXT_SUBSTANCE_URL>
https://www.surechembl.org/chemical/SCHEMBL16116521

> <PUBCHEM_CID_ASSOCIATIONS>
117606040  1

> <PUBCHEM_COORDINATE_TYPE>
1
3

$$$$
