310936663
  -OEChem-07211613022D

 38 43  0     0  0  0  0  0  0999 V2000
    0.0000   -3.3066    0.0000 F   0  0  0  0  0  0  0  0  0  0  0  0
    8.9053   -5.4108    0.0000 F   0  0  0  0  0  0  0  0  0  0  0  0
    5.0726   -6.0871    0.0000 O   0  0  0  0  0  0  0  0  0  0  0  0
    2.1794   -2.0666    0.0000 O   0  0  0  0  0  0  0  0  0  0  0  0
    6.1623   -3.7951    0.0000 O   0  0  0  0  0  0  0  0  0  0  0  0
    0.7515   -2.0666    0.0000 N   0  0  0  0  0  0  0  0  0  0  0  0
    3.5696   -6.2375    0.0000 N   0  0  0  0  0  0  0  0  0  0  0  0
    4.8096   -3.3442    0.0000 N   0  0  0  0  0  0  0  0  0  0  0  0
    0.7515   -1.2400    0.0000 C   0  0  0  0  0  0  0  0  0  0  0  0
    0.7515    0.0000    0.0000 C   0  0  0  0  0  0  0  0  0  0  0  0
    0.1127   -0.6388    0.0000 C   0  0  0  0  0  0  0  0  0  0  0  0
    1.0897   -0.6388    0.0000 C   0  0  0  0  0  0  0  0  0  0  0  0
    1.3527   -0.6388    0.0000 C   0  0  0  0  0  0  0  0  0  0  0  0
    4.2836   -4.9975    0.0000 C   0  0  0  0  0  0  0  0  0  0  0  0
    5.0726   -4.7345    0.0000 C   0  0  0  0  0  0  0  0  0  0  0  0
    4.2836   -5.8617    0.0000 C   0  0  0  0  0  0  0  0  0  0  0  0
    5.5987   -5.4108    0.0000 C   0  0  0  0  0  0  0  0  0  0  0  0
    2.8557   -4.9975    0.0000 C   0  0  0  0  0  0  0  0  0  0  0  0
    3.5696   -4.5842    0.0000 C   0  0  0  0  0  0  0  0  0  0  0  0
    1.4278   -2.4799    0.0000 C   0  0  0  0  0  0  0  0  0  0  0  0
    2.8557   -5.8617    0.0000 C   0  0  0  0  0  0  0  0  0  0  0  0
    2.1417   -4.5842    0.0000 C   0  0  0  0  0  0  0  0  0  0  0  0
    1.4278   -3.3442    0.0000 C   0  0  0  0  0  0  0  0  0  0  0  0
    6.4253   -5.4108    0.0000 C   0  0  0  0  0  0  0  0  0  0  0  0
    5.3357   -3.9829    0.0000 C   0  0  0  0  0  0  0  0  0  0  0  0
    2.1417   -3.7575    0.0000 C   0  0  0  0  0  0  0  0  0  0  0  0
    0.7139   -3.7575    0.0000 C   0  0  0  0  0  0  0  0  0  0  0  0
    1.4278   -4.9975    0.0000 C   0  0  0  0  0  0  0  0  0  0  0  0
    2.1417   -6.2750    0.0000 C   0  0  0  0  0  0  0  0  0  0  0  0
    0.7139   -4.5842    0.0000 C   0  0  0  0  0  0  0  0  0  0  0  0
    6.8387   -4.6968    0.0000 C   0  0  0  0  0  0  0  0  0  0  0  0
    6.8387   -6.1247    0.0000 C   0  0  0  0  0  0  0  0  0  0  0  0
    7.6653   -4.6968    0.0000 C   0  0  0  0  0  0  0  0  0  0  0  0
    7.6653   -6.1247    0.0000 C   0  0  0  0  0  0  0  0  0  0  0  0
    8.0787   -5.4108    0.0000 C   0  0  0  0  0  0  0  0  0  0  0  0
    2.1794   -7.1017    0.0000 C   0  0  0  0  0  0  0  0  0  0  0  0
    5.0350   -2.5551    0.0000 C   0  0  0  0  0  0  0  0  0  0  0  0
    1.4654   -7.5150    0.0000 C   0  0  0  0  0  0  0  0  0  0  0  0
  1 27  1  0  0  0  0
  2 35  1  0  0  0  0
  3 16  1  0  0  0  0
  3 17  1  0  0  0  0
  4 20  2  0  0  0  0
  5 25  2  0  0  0  0
  6  9  1  0  0  0  0
  6 20  1  0  0  0  0
  7 16  1  0  0  0  0
  7 21  2  0  0  0  0
  8 25  1  0  0  0  0
  8 37  1  0  0  0  0
  9 11  1  0  0  0  0
  9 12  1  0  0  0  0
  9 13  1  0  0  0  0
 10 11  1  0  0  0  0
 10 12  1  0  0  0  0
 10 13  1  0  0  0  0
 14 15  1  0  0  0  0
 14 16  2  0  0  0  0
 14 19  1  0  0  0  0
 15 17  2  0  0  0  0
 15 25  1  0  0  0  0
 17 24  1  0  0  0  0
 18 19  2  0  0  0  0
 18 21  1  0  0  0  0
 18 22  1  0  0  0  0
 20 23  1  0  0  0  0
 21 29  1  0  0  0  0
 22 26  1  0  0  0  0
 22 28  2  0  0  0  0
 23 26  2  0  0  0  0
 23 27  1  0  0  0  0
 24 31  2  0  0  0  0
 24 32  1  0  0  0  0
 27 30  2  0  0  0  0
 28 30  1  0  0  0  0
 29 36  2  0  0  0  0
 31 33  1  0  0  0  0
 32 34  2  0  0  0  0
 33 35  2  0  0  0  0
 34 35  1  0  0  0  0
 36 38  1  0  0  0  0
M  END
> <PUBCHEM_COMPOUND_ID_TYPE>
0

> <PUBCHEM_TOTAL_CHARGE>
0

> <PUBCHEM_SUBSTANCE_ID>
310936663

> <PUBCHEM_SUBSTANCE_VERSION>
1

> <PUBCHEM_EXT_DATASOURCE_NAME>
4488

> <PUBCHEM_EXT_DATASOURCE_REGID>
SCHEMBL16114333

> <PUBCHEM_SUBSTANCE_COMMENT>
InChI=1S/C30H25F2N3O3/c1-3-4-24-20(18-7-10-23(32)21(11-18)27(36)35-30-13-16(14-30)15-30)12-22-25(28(37)33-2)26(38-29(22)34-24)17-5-8-19(31)9-6-17/h3-12,16H,13-15H2,1-2H3,(H,33,37)(H,35,36)/b4-3+
InChIKey=LRDLVLGIISGWFQ-ONEGZZNKSA-N

> <PUBCHEM_SUBSTANCE_SYNONYM>
SCHEMBL16114333

> <PUBCHEM_XREF_EXT_ID>
SCHEMBL16114333

> <PUBCHEM_EXT_DATASOURCE_URL>
https://www.surechembl.org/

> <PUBCHEM_EXT_SUBSTANCE_URL>
https://www.surechembl.org/chemical/SCHEMBL16114333

> <PUBCHEM_CID_ASSOCIATIONS>
117604574  1

> <PUBCHEM_COORDINATE_TYPE>
1
3

$$$$
