310942763
  -OEChem-07211613022D

 45 50  0     1  0  0  0  0  0999 V2000
    4.2068    2.3096    0.0000 F   0  0  0  0  0  0  0  0  0  0  0  0
    5.3167    2.4596    0.0000 F   0  0  0  0  0  0  0  0  0  0  0  0
    5.4516    1.3348    0.0000 F   0  0  0  0  0  0  0  0  0  0  0  0
    1.8072    0.7499    0.0000 O   0  0  0  0  0  0  0  0  0  0  0  0
    2.3172   -1.3948    0.0000 O   0  0  0  0  0  0  0  0  0  0  0  0
    1.0873   -1.3048    0.0000 O   0  0  0  0  0  0  0  0  0  0  0  0
    3.2020    0.4200    0.0000 N   0  0  0  0  0  0  0  0  0  0  0  0
    3.9069   -0.9299    0.0000 N   0  0  0  0  0  0  0  0  0  0  0  0
    5.3317   -0.8699    0.0000 N   0  0  0  0  0  0  0  0  0  0  0  0
   -0.3225    0.3149    0.0000 N   0  0  3  0  0  0  0  0  0  0  0  0
    5.9466    0.4649    0.0000 N   0  0  0  0  0  0  0  0  0  0  0  0
   -2.6621   -1.2148    0.0000 N   0  0  0  0  0  0  0  0  0  0  0  0
   -3.3220   -2.4146    0.0000 N   0  0  0  0  0  0  0  0  0  0  0  0
    4.5218    0.3899    0.0000 C   0  0  0  0  0  0  0  0  0  0  0  0
    3.8619   -0.0900    0.0000 C   0  0  0  0  0  0  0  0  0  0  0  0
    4.3119    1.1698    0.0000 C   0  0  0  0  0  0  0  0  0  0  0  0
    2.4071    0.2099    0.0000 C   0  0  3  0  0  0  0  0  0  0  0  0
    3.5020    1.1998    0.0000 C   0  0  0  0  0  0  0  0  0  0  0  0
    2.0922   -0.5699    0.0000 C   0  0  3  0  0  0  0  0  0  0  0  0
    4.8218    1.8297    0.0000 C   0  0  0  0  0  0  0  0  0  0  0  0
    5.2717    0.0150    0.0000 C   0  0  0  0  0  0  0  0  0  0  0  0
    1.1173    0.3299    0.0000 C   0  0  3  0  0  0  0  0  0  0  0  0
    1.2823   -0.4949    0.0000 C   0  0  3  0  0  0  0  0  0  0  0  0
    0.3674    0.7199    0.0000 C   0  0  0  0  0  0  0  0  0  0  0  0
    4.6418   -1.2898    0.0000 C   0  0  0  0  0  0  0  0  0  0  0  0
   -0.5025   -0.5099    0.0000 C   0  0  0  0  0  0  0  0  0  0  0  0
   -0.7874   -1.6347    0.0000 C   0  0  0  0  0  0  0  0  0  0  0  0
   -1.0273    0.7349    0.0000 C   0  0  0  0  0  0  0  0  0  0  0  0
   -1.1923   -0.9448    0.0000 C   0  0  0  0  0  0  0  0  0  0  0  0
   -0.0975   -1.2148    0.0000 C   0  0  0  0  0  0  0  0  0  0  0  0
   -3.4719   -1.0498    0.0000 C   0  0  0  0  0  0  0  0  0  0  0  0
   -3.8769   -1.7848    0.0000 C   0  0  0  0  0  0  0  0  0  0  0  0
   -2.5571   -2.0697    0.0000 C   0  0  0  0  0  0  0  0  0  0  0  0
   -4.7167   -0.3299    0.0000 C   0  0  0  0  0  0  0  0  0  0  0  0
   -0.9974   -2.4596    0.0000 C   0  0  0  0  0  0  0  0  0  0  0  0
   -3.8919   -0.3450    0.0000 C   0  0  0  0  0  0  0  0  0  0  0  0
   -1.8372   -2.4596    0.0000 C   0  0  0  0  0  0  0  0  0  0  0  0
   -5.1367    0.4049    0.0000 C   0  0  0  0  0  0  0  0  0  0  0  0
   -4.6868   -1.7848    0.0000 C   0  0  0  0  0  0  0  0  0  0  0  0
   -5.0917   -1.0648    0.0000 C   0  0  0  0  0  0  0  0  0  0  0  0
   -1.0423    1.5747    0.0000 C   0  0  0  0  0  0  0  0  0  0  0  0
   -1.7473    0.3149    0.0000 C   0  0  0  0  0  0  0  0  0  0  0  0
   -5.9466    0.3600    0.0000 C   0  0  0  0  0  0  0  0  0  0  0  0
   -5.5266    1.1098    0.0000 C   0  0  0  0  0  0  0  0  0  0  0  0
   -4.7167    1.1248    0.0000 C   0  0  0  0  0  0  0  0  0  0  0  0
  1 20  1  0  0  0  0
  2 20  1  0  0  0  0
  3 20  1  0  0  0  0
 17  4  1  1  0  0  0
  4 22  1  0  0  0  0
 19  5  1  6  0  0  0
 23  6  1  6  0  0  0
  7 15  1  0  0  0  0
  7 17  1  0  0  0  0
  7 18  1  0  0  0  0
  8 15  1  0  0  0  0
  8 25  2  0  0  0  0
  9 21  2  0  0  0  0
  9 25  1  0  0  0  0
 10 24  1  0  0  0  0
 10 26  1  0  0  0  0
 10 28  1  0  0  0  0
 11 21  1  0  0  0  0
 12 31  1  0  0  0  0
 12 33  2  0  0  0  0
 13 32  1  0  0  0  0
 13 33  1  0  0  0  0
 14 15  2  0  0  0  0
 14 16  1  0  0  0  0
 14 21  1  0  0  0  0
 16 18  2  0  0  0  0
 16 20  1  0  0  0  0
 17 19  1  0  0  0  0
 19 23  1  0  0  0  0
 22 23  1  0  0  0  0
 22 24  1  1  0  0  0
 26 29  1  0  0  0  0
 26 30  1  0  0  0  0
 27 29  1  0  0  0  0
 27 30  1  0  0  0  0
 27 35  1  0  0  0  0
 28 41  1  0  0  0  0
 28 42  1  0  0  0  0
 31 32  2  0  0  0  0
 31 36  1  0  0  0  0
 32 39  1  0  0  0  0
 33 37  1  0  0  0  0
 34 36  2  0  0  0  0
 34 38  1  0  0  0  0
 34 40  1  0  0  0  0
 35 37  1  0  0  0  0
 38 43  1  0  0  0  0
 38 44  1  0  0  0  0
 38 45  1  0  0  0  0
 39 40  2  0  0  0  0
M  END
> <PUBCHEM_COMPOUND_ID_TYPE>
0

> <PUBCHEM_TOTAL_CHARGE>
0

> <PUBCHEM_SUBSTANCE_ID>
310942763

> <PUBCHEM_SUBSTANCE_VERSION>
1

> <PUBCHEM_EXT_DATASOURCE_NAME>
4488

> <PUBCHEM_EXT_DATASOURCE_REGID>
SCHEMBL16120816

> <PUBCHEM_SUBSTANCE_COMMENT>
InChI=1S/C32H42F3N7O3/c1-16(2)41(19-10-17(11-19)6-9-24-39-21-8-7-18(31(3,4)5)12-22(21)40-24)14-23-26(43)27(44)30(45-23)42-13-20(32(33,34)35)25-28(36)37-15-38-29(25)42/h7-8,12-13,15-17,19,23,26-27,30,43-44H,6,9-11,14H2,1-5H3,(H,39,40)(H2,36,37,38)/t17?,19?,23-,26-,27-,30-/m1/s1
InChIKey=NPGYTUOCAQWKSL-RMBSYEQGSA-N

> <PUBCHEM_SUBSTANCE_SYNONYM>
SCHEMBL16120816

> <PUBCHEM_XREF_EXT_ID>
SCHEMBL16120816

> <PUBCHEM_EXT_DATASOURCE_URL>
https://www.surechembl.org/

> <PUBCHEM_EXT_SUBSTANCE_URL>
https://www.surechembl.org/chemical/SCHEMBL16120816

> <PUBCHEM_CID_ASSOCIATIONS>
86275201  1

> <PUBCHEM_COORDINATE_TYPE>
1
3

> <PUBCHEM_BONDANNOTATIONS>
22  24  5
17  4  5
19  5  6
23  6  6

$$$$
