310933019
  -OEChem-07211613022D

 30 33  0     0  0  0  0  0  0999 V2000
    0.4283   -1.9467    0.0000 O   0  0  0  0  0  0  0  0  0  0  0  0
    0.0000   -4.5163    0.0000 O   0  0  0  0  0  0  0  0  0  0  0  0
    2.8811   -1.9856    0.0000 O   0  0  0  0  0  0  0  0  0  0  0  0
    4.2827   -2.8421    0.0000 O   0  0  0  0  0  0  0  0  0  0  0  0
    3.5819   -4.0491    0.0000 O   0  0  0  0  0  0  0  0  0  0  0  0
    1.4016   -4.4774    0.0000 N   0  0  0  0  0  0  0  0  0  0  0  0
    2.1414   -4.0491    0.0000 N   0  0  0  0  0  0  0  0  0  0  0  0
    0.1168   -2.6864    0.0000 N   0  0  0  0  0  0  0  0  0  0  0  0
    1.4405   -2.8032    0.0000 C   0  0  0  0  0  0  0  0  0  0  0  0
    0.7008   -3.2315    0.0000 C   0  0  0  0  0  0  0  0  0  0  0  0
    2.1414   -3.2315    0.0000 C   0  0  0  0  0  0  0  0  0  0  0  0
    1.2459   -2.0245    0.0000 C   0  0  0  0  0  0  0  0  0  0  0  0
    0.7398   -4.0880    0.0000 C   0  0  0  0  0  0  0  0  0  0  0  0
    2.8811   -2.8421    0.0000 C   0  0  0  0  0  0  0  0  0  0  0  0
    1.7910   -1.4016    0.0000 C   0  0  0  0  0  0  0  0  0  0  0  0
    1.4016   -5.2950    0.0000 C   0  0  0  0  0  0  0  0  0  0  0  0
    3.5819   -3.2315    0.0000 C   0  0  0  0  0  0  0  0  0  0  0  0
    1.5184   -0.6229    0.0000 C   0  0  0  0  0  0  0  0  0  0  0  0
    2.6086   -1.5574    0.0000 C   0  0  0  0  0  0  0  0  0  0  0  0
    0.7008   -5.7233    0.0000 C   0  0  0  0  0  0  0  0  0  0  0  0
    2.1414   -5.7233    0.0000 C   0  0  0  0  0  0  0  0  0  0  0  0
    0.7008   -6.5409    0.0000 C   0  0  0  0  0  0  0  0  0  0  0  0
    2.1414   -6.5409    0.0000 C   0  0  0  0  0  0  0  0  0  0  0  0
    2.0635    0.0000    0.0000 C   0  0  0  0  0  0  0  0  0  0  0  0
    3.1536   -0.9344    0.0000 C   0  0  0  0  0  0  0  0  0  0  0  0
    1.4405   -6.9691    0.0000 C   0  0  0  0  0  0  0  0  0  0  0  0
    2.8811   -0.1557    0.0000 C   0  0  0  0  0  0  0  0  0  0  0  0
    5.0224   -3.2315    0.0000 C   0  0  0  0  0  0  0  0  0  0  0  0
    1.4405   -7.7868    0.0000 C   0  0  0  0  0  0  0  0  0  0  0  0
    5.7233   -2.8032    0.0000 C   0  0  0  0  0  0  0  0  0  0  0  0
  1  8  1  0  0  0  0
  1 12  1  0  0  0  0
  2 13  2  0  0  0  0
  3 14  2  0  0  0  0
  4 17  1  0  0  0  0
  4 28  1  0  0  0  0
  5 17  2  0  0  0  0
  6  7  1  0  0  0  0
  6 13  1  0  0  0  0
  6 16  1  0  0  0  0
  7 11  2  0  0  0  0
  8 10  2  0  0  0  0
  9 10  1  0  0  0  0
  9 11  1  0  0  0  0
  9 12  2  0  0  0  0
 10 13  1  0  0  0  0
 11 14  1  0  0  0  0
 12 15  1  0  0  0  0
 14 17  1  0  0  0  0
 15 18  2  0  0  0  0
 15 19  1  0  0  0  0
 16 20  2  0  0  0  0
 16 21  1  0  0  0  0
 18 24  1  0  0  0  0
 19 25  2  0  0  0  0
 20 22  1  0  0  0  0
 21 23  2  0  0  0  0
 22 26  2  0  0  0  0
 23 26  1  0  0  0  0
 24 27  2  0  0  0  0
 25 27  1  0  0  0  0
 26 29  1  0  0  0  0
 28 30  1  0  0  0  0
M  END
> <PUBCHEM_COMPOUND_ID_TYPE>
0

> <PUBCHEM_TOTAL_CHARGE>
0

> <PUBCHEM_SUBSTANCE_ID>
310933019

> <PUBCHEM_SUBSTANCE_VERSION>
1

> <PUBCHEM_EXT_DATASOURCE_NAME>
4488

> <PUBCHEM_EXT_DATASOURCE_REGID>
SCHEMBL16110419

> <PUBCHEM_SUBSTANCE_COMMENT>
InChI=1S/C22H17N3O5/c1-3-29-22(28)19(26)17-16-18(24-30-20(16)14-7-5-4-6-8-14)21(27)25(23-17)15-11-9-13(2)10-12-15/h4-12H,3H2,1-2H3
InChIKey=FALJHSGZVXGLCW-UHFFFAOYSA-N

> <PUBCHEM_SUBSTANCE_SYNONYM>
SCHEMBL16110419

> <PUBCHEM_XREF_EXT_ID>
SCHEMBL16110419

> <PUBCHEM_EXT_DATASOURCE_URL>
https://www.surechembl.org/

> <PUBCHEM_EXT_SUBSTANCE_URL>
https://www.surechembl.org/chemical/SCHEMBL16110419

> <PUBCHEM_CID_ASSOCIATIONS>
117601486  1

> <PUBCHEM_COORDINATE_TYPE>
1
3

$$$$
