310943628
  -OEChem-07211613022D

 38 40  0     0  0  0  0  0  0999 V2000
    4.0230   -2.4168    0.0000 F   0  0  0  0  0  0  0  0  0  0  0  0
    4.8708   -2.4168    0.0000 F   0  0  0  0  0  0  0  0  0  0  0  0
    5.1980   -1.3163    0.0000 F   0  0  0  0  0  0  0  0  0  0  0  0
   -3.7553   -0.4388    0.0000 O   0  0  0  0  0  0  0  0  0  0  0  0
    3.7107   -1.3163    0.0000 O   0  0  0  0  0  0  0  0  0  0  0  0
   -5.1830    2.0153    0.0000 O   0  0  0  0  0  0  0  0  0  0  0  0
    1.4947   -0.0967    0.0000 O   0  0  0  0  0  0  0  0  0  0  0  0
   -3.7255    1.1973    0.0000 N   0  0  0  0  0  0  0  0  0  0  0  0
   -2.2829   -0.4536    0.0000 N   0  0  0  0  0  0  0  0  0  0  0  0
    2.2383    1.1229    0.0000 N   0  0  0  0  0  0  0  0  0  0  0  0
   -2.9820    0.7808    0.0000 C   0  0  0  0  0  0  0  0  0  0  0  0
   -1.5095    0.7510    0.0000 C   0  0  0  0  0  0  0  0  0  0  0  0
   -3.0117   -0.0372    0.0000 C   0  0  0  0  0  0  0  0  0  0  0  0
   -0.7362    1.1229    0.0000 C   0  0  0  0  0  0  0  0  0  0  0  0
   -2.2532    1.1526    0.0000 C   0  0  0  0  0  0  0  0  0  0  0  0
   -1.5393   -0.0669    0.0000 C   0  0  0  0  0  0  0  0  0  0  0  0
    0.0372    0.7065    0.0000 C   0  0  0  0  0  0  0  0  0  0  0  0
   -0.7213    1.9260    0.0000 C   0  0  0  0  0  0  0  0  0  0  0  0
    0.7510    1.1229    0.0000 C   0  0  0  0  0  0  0  0  0  0  0  0
   -3.7107    2.0003    0.0000 C   0  0  0  0  0  0  0  0  0  0  0  0
   -4.4395    0.8105    0.0000 C   0  0  0  0  0  0  0  0  0  0  0  0
    1.5095    0.7510    0.0000 C   0  0  0  0  0  0  0  0  0  0  0  0
    2.9820    0.7213    0.0000 C   0  0  0  0  0  0  0  0  0  0  0  0
    3.7107   -0.4833    0.0000 C   0  0  0  0  0  0  0  0  0  0  0  0
   -3.7702   -1.2418    0.0000 C   0  0  0  0  0  0  0  0  0  0  0  0
    2.9820   -0.0967    0.0000 C   0  0  0  0  0  0  0  0  0  0  0  0
   -4.4395    2.4168    0.0000 C   0  0  0  0  0  0  0  0  0  0  0  0
   -5.1980    1.2121    0.0000 C   0  0  0  0  0  0  0  0  0  0  0  0
    0.7660    1.9111    0.0000 C   0  0  0  0  0  0  0  0  0  0  0  0
    3.6958    1.1080    0.0000 C   0  0  0  0  0  0  0  0  0  0  0  0
    4.4543   -1.7327    0.0000 C   0  0  0  0  0  0  0  0  0  0  0  0
   -1.4650    2.3127    0.0000 C   0  0  0  0  0  0  0  0  0  0  0  0
   -0.2305    2.1640    0.0000 C   0  0  0  0  0  0  0  0  0  0  0  0
    4.4395   -0.0967    0.0000 C   0  0  0  0  0  0  0  0  0  0  0  0
    4.4395    0.7065    0.0000 C   0  0  0  0  0  0  0  0  0  0  0  0
   -4.4840   -1.6582    0.0000 C   0  0  0  0  0  0  0  0  0  0  0  0
   -2.9968   -1.6434    0.0000 C   0  0  0  0  0  0  0  0  0  0  0  0
    0.2454    2.1193    0.0000 C   0  0  0  0  0  0  0  0  0  0  0  0
  1 31  1  0  0  0  0
  2 31  1  0  0  0  0
  3 31  1  0  0  0  0
  4 13  1  0  0  0  0
  4 25  1  0  0  0  0
  5 24  1  0  0  0  0
  5 31  1  0  0  0  0
  6 27  1  0  0  0  0
  6 28  1  0  0  0  0
  7 22  2  0  0  0  0
  8 11  1  0  0  0  0
  8 20  1  0  0  0  0
  8 21  1  0  0  0  0
  9 13  1  0  0  0  0
  9 16  2  0  0  0  0
 10 22  1  0  0  0  0
 10 23  1  0  0  0  0
 11 13  2  0  0  0  0
 11 15  1  0  0  0  0
 12 14  1  0  0  0  0
 12 15  2  0  0  0  0
 12 16  1  0  0  0  0
 14 17  1  0  0  0  0
 14 18  2  0  0  0  0
 17 19  2  0  0  0  0
 18 32  1  0  0  0  0
 18 33  1  0  0  0  0
 19 22  1  0  0  0  0
 19 29  1  0  0  0  0
 20 27  1  0  0  0  0
 21 28  1  0  0  0  0
 23 26  2  0  0  0  0
 23 30  1  0  0  0  0
 24 26  1  0  0  0  0
 24 34  2  0  0  0  0
 25 36  1  0  0  0  0
 25 37  1  0  0  0  0
 29 38  2  0  0  0  0
 30 35  2  0  0  0  0
 34 35  1  0  0  0  0
M  END
> <PUBCHEM_COMPOUND_ID_TYPE>
0

> <PUBCHEM_TOTAL_CHARGE>
0

> <PUBCHEM_SUBSTANCE_ID>
310943628

> <PUBCHEM_SUBSTANCE_VERSION>
1

> <PUBCHEM_EXT_DATASOURCE_NAME>
4488

> <PUBCHEM_EXT_DATASOURCE_REGID>
SCHEMBL16121696

> <PUBCHEM_SUBSTANCE_COMMENT>
InChI=1S/C28H32F3N3O4/c1-6-20(26(35)33-22-8-7-9-23(16-22)38-28(29,30)31)14-24(18(2)3)21-15-25(34-10-12-36-13-11-34)27(32-17-21)37-19(4)5/h6-9,14-17,19H,1,10-13H2,2-5H3,(H,33,35)/b20-14+
InChIKey=AUGMYGWBVXEMRS-XSFVSMFZSA-N

> <PUBCHEM_SUBSTANCE_SYNONYM>
SCHEMBL16121696

> <PUBCHEM_XREF_EXT_ID>
SCHEMBL16121696

> <PUBCHEM_EXT_DATASOURCE_URL>
https://www.surechembl.org/

> <PUBCHEM_EXT_SUBSTANCE_URL>
https://www.surechembl.org/chemical/SCHEMBL16121696

> <PUBCHEM_CID_ASSOCIATIONS>
117610019  1

> <PUBCHEM_COORDINATE_TYPE>
1
3

$$$$
