310934140
  -OEChem-07211613022D

 31 34  0     0  0  0  0  0  0999 V2000
    0.0000   -0.0275    0.0000 F   0  0  0  0  0  0  0  0  0  0  0  0
    5.6891   -3.2981    0.0000 O   0  0  0  0  0  0  0  0  0  0  0  0
    0.1649   -4.4249    0.0000 O   0  0  0  0  0  0  0  0  0  0  0  0
    3.5729   -1.2368    0.0000 O   0  0  0  0  0  0  0  0  0  0  0  0
    4.0676   -5.3319    0.0000 O   0  0  0  0  0  0  0  0  0  0  0  0
    5.4418   -4.8921    0.0000 O   0  0  0  0  0  0  0  0  0  0  0  0
    4.3699   -3.9577    0.0000 N   0  0  0  0  0  0  0  0  0  0  0  0
    4.3699   -2.6385    0.0000 N   0  0  0  0  0  0  0  0  0  0  0  0
    0.5772   -5.1395    0.0000 N   0  0  0  0  0  0  0  0  0  0  0  0
    1.4566   -1.6490    0.0000 N   0  0  0  0  0  0  0  0  0  0  0  0
    3.6004   -3.7103    0.0000 C   0  0  0  0  0  0  0  0  0  0  0  0
    3.6004   -2.8583    0.0000 C   0  0  0  0  0  0  0  0  0  0  0  0
    2.8858   -2.4736    0.0000 C   0  0  0  0  0  0  0  0  0  0  0  0
    2.1712   -3.7103    0.0000 C   0  0  0  0  0  0  0  0  0  0  0  0
    4.8646   -3.2981    0.0000 C   0  0  0  0  0  0  0  0  0  0  0  0
    2.8858   -4.1226    0.0000 C   0  0  0  0  0  0  0  0  0  0  0  0
    2.1712   -2.8583    0.0000 C   0  0  0  0  0  0  0  0  0  0  0  0
    1.4841   -4.1226    0.0000 C   0  0  0  0  0  0  0  0  0  0  0  0
    2.8583   -1.6490    0.0000 C   0  0  0  0  0  0  0  0  0  0  0  0
    4.6448   -4.7272    0.0000 C   0  0  0  0  0  0  0  0  0  0  0  0
    0.7146   -3.8203    0.0000 C   0  0  0  0  0  0  0  0  0  0  0  0
    1.3742   -4.9471    0.0000 C   0  0  0  0  0  0  0  0  0  0  0  0
    2.1712   -1.2368    0.0000 C   0  0  0  0  0  0  0  0  0  0  0  0
    2.1437   -0.4123    0.0000 C   0  0  0  0  0  0  0  0  0  0  0  0
    6.1014   -2.5835    0.0000 C   0  0  0  0  0  0  0  0  0  0  0  0
    0.5222   -2.9957    0.0000 C   0  0  0  0  0  0  0  0  0  0  0  0
    2.0063   -5.4967    0.0000 C   0  0  0  0  0  0  0  0  0  0  0  0
    0.7420   -1.2643    0.0000 C   0  0  0  0  0  0  0  0  0  0  0  0
    1.4291    0.0000    0.0000 C   0  0  0  0  0  0  0  0  0  0  0  0
    0.7146   -0.4397    0.0000 C   0  0  0  0  0  0  0  0  0  0  0  0
    5.6891   -1.8689    0.0000 C   0  0  0  0  0  0  0  0  0  0  0  0
  1 30  1  0  0  0  0
  2 15  1  0  0  0  0
  2 25  1  0  0  0  0
  3  9  1  0  0  0  0
  3 21  1  0  0  0  0
  4 19  2  0  0  0  0
  5 20  2  0  0  0  0
  6 20  1  0  0  0  0
  7 11  1  0  0  0  0
  7 15  1  0  0  0  0
  7 20  1  0  0  0  0
  8 12  1  0  0  0  0
  8 15  2  0  0  0  0
  9 22  2  0  0  0  0
 10 23  1  0  0  0  0
 10 28  2  0  0  0  0
 11 12  2  0  0  0  0
 11 16  1  0  0  0  0
 12 13  1  0  0  0  0
 13 17  2  0  0  0  0
 13 19  1  0  0  0  0
 14 16  2  0  0  0  0
 14 17  1  0  0  0  0
 14 18  1  0  0  0  0
 18 21  2  0  0  0  0
 18 22  1  0  0  0  0
 19 23  1  0  0  0  0
 21 26  1  0  0  0  0
 22 27  1  0  0  0  0
 23 24  2  0  0  0  0
 24 29  1  0  0  0  0
 25 31  1  0  0  0  0
 28 30  1  0  0  0  0
 29 30  2  0  0  0  0
M  END
> <PUBCHEM_COMPOUND_ID_TYPE>
0

> <PUBCHEM_TOTAL_CHARGE>
0

> <PUBCHEM_SUBSTANCE_ID>
310934140

> <PUBCHEM_SUBSTANCE_VERSION>
1

> <PUBCHEM_EXT_DATASOURCE_NAME>
4488

> <PUBCHEM_EXT_DATASOURCE_REGID>
SCHEMBL16111589

> <PUBCHEM_SUBSTANCE_COMMENT>
InChI=1S/C21H17FN4O5/c1-4-30-20-24-18-14(19(27)15-6-5-13(22)9-23-15)7-12(8-16(18)26(20)21(28)29)17-10(2)25-31-11(17)3/h5-9H,4H2,1-3H3,(H,28,29)
InChIKey=QREHDLAZUBYYEX-UHFFFAOYSA-N

> <PUBCHEM_SUBSTANCE_SYNONYM>
SCHEMBL16111589

> <PUBCHEM_XREF_EXT_ID>
SCHEMBL16111589

> <PUBCHEM_EXT_DATASOURCE_URL>
https://www.surechembl.org/

> <PUBCHEM_EXT_SUBSTANCE_URL>
https://www.surechembl.org/chemical/SCHEMBL16111589

> <PUBCHEM_CID_ASSOCIATIONS>
117602417  1

> <PUBCHEM_COORDINATE_TYPE>
1
3

$$$$
