310939295
  -OEChem-07211613022D

 25 26  0     1  0  0  0  0  0999 V2000
   -0.7145    1.4437    0.0000 F   0  0  0  0  0  0  0  0  0  0  0  0
    2.1434    1.4437    0.0000 F   0  0  0  0  0  0  0  0  0  0  0  0
    0.7145    2.2687    0.0000 O   0  0  0  0  0  0  0  0  0  0  0  0
   -2.8579   -2.2687    0.0000 O   0  0  0  0  0  0  0  0  0  0  0  0
   -2.8579   -3.9187    0.0000 O   0  0  0  0  0  0  0  0  0  0  0  0
   -0.7145   -1.0313    0.0000 N   0  0  0  0  0  0  0  0  0  0  0  0
   -2.1434   -3.5062    0.0000 N   0  0  0  0  0  0  0  0  0  0  0  0
    0.7145    1.4437    0.0000 C   0  0  0  0  0  0  0  0  0  0  0  0
    0.0000    1.0313    0.0000 C   0  0  0  0  0  0  0  0  0  0  0  0
    0.0000    0.2062    0.0000 C   0  0  0  0  0  0  0  0  0  0  0  0
    1.4289    1.0313    0.0000 C   0  0  0  0  0  0  0  0  0  0  0  0
   -0.7145   -0.2062    0.0000 C   0  0  3  0  0  0  0  0  0  0  0  0
    0.7145   -0.2062    0.0000 C   0  0  0  0  0  0  0  0  0  0  0  0
    1.4289    0.2062    0.0000 C   0  0  0  0  0  0  0  0  0  0  0  0
    1.4289    2.6812    0.0000 C   0  0  0  0  0  0  0  0  0  0  0  0
   -1.4289    0.2062    0.0000 C   0  0  0  0  0  0  0  0  0  0  0  0
    2.1434    2.2687    0.0000 C   0  0  0  0  0  0  0  0  0  0  0  0
    1.4289    3.5062    0.0000 C   0  0  0  0  0  0  0  0  0  0  0  0
   -1.4289   -1.4437    0.0000 C   0  0  0  0  0  0  0  0  0  0  0  0
    2.8579    2.6812    0.0000 C   0  0  0  0  0  0  0  0  0  0  0  0
    2.1434    3.9187    0.0000 C   0  0  0  0  0  0  0  0  0  0  0  0
    2.8579    3.5062    0.0000 C   0  0  0  0  0  0  0  0  0  0  0  0
   -2.1434   -0.2062    0.0000 C   0  0  0  0  0  0  0  0  0  0  0  0
   -1.4289   -2.2687    0.0000 C   0  0  0  0  0  0  0  0  0  0  0  0
   -2.1434   -2.6812    0.0000 C   0  0  0  0  0  0  0  0  0  0  0  0
  1  9  1  0  0  0  0
  2 11  1  0  0  0  0
  3  8  1  0  0  0  0
  3 15  1  0  0  0  0
  4 25  2  0  0  0  0
  5  7  1  0  0  0  0
 12  6  1  1  0  0  0
  6 19  1  0  0  0  0
  7 25  1  0  0  0  0
  8  9  2  0  0  0  0
  8 11  1  0  0  0  0
  9 10  1  0  0  0  0
 10 12  1  0  0  0  0
 10 13  2  0  0  0  0
 11 14  2  0  0  0  0
 12 16  1  0  0  0  0
 13 14  1  0  0  0  0
 15 17  2  0  0  0  0
 15 18  1  0  0  0  0
 16 23  1  0  0  0  0
 17 20  1  0  0  0  0
 18 21  2  0  0  0  0
 19 24  1  0  0  0  0
 20 22  2  0  0  0  0
 21 22  1  0  0  0  0
 24 25  1  0  0  0  0
M  END
> <PUBCHEM_COMPOUND_ID_TYPE>
0

> <PUBCHEM_TOTAL_CHARGE>
0

> <PUBCHEM_SUBSTANCE_ID>
310939295

> <PUBCHEM_SUBSTANCE_VERSION>
1

> <PUBCHEM_EXT_DATASOURCE_NAME>
4488

> <PUBCHEM_EXT_DATASOURCE_REGID>
SCHEMBL16117216

> <PUBCHEM_SUBSTANCE_COMMENT>
InChI=1S/C18H20F2N2O3/c1-2-15(21-11-10-16(23)22-24)13-8-9-14(19)18(17(13)20)25-12-6-4-3-5-7-12/h3-9,15,21,24H,2,10-11H2,1H3,(H,22,23)/t15-/m0/s1
InChIKey=TURFBZXOIMMSTL-HNNXBMFYSA-N

> <PUBCHEM_SUBSTANCE_SYNONYM>
SCHEMBL16117216

> <PUBCHEM_XREF_EXT_ID>
SCHEMBL16117216

> <PUBCHEM_EXT_DATASOURCE_URL>
https://www.surechembl.org/

> <PUBCHEM_EXT_SUBSTANCE_URL>
https://www.surechembl.org/chemical/SCHEMBL16117216

> <PUBCHEM_CID_ASSOCIATIONS>
117606636  1

> <PUBCHEM_COORDINATE_TYPE>
1
3

> <PUBCHEM_BONDANNOTATIONS>
12  6  5

$$$$
