310934918
  -OEChem-07211613022D

 25 27  0     0  0  0  0  0  0999 V2000
    3.2040   -3.3265    0.0000 F   0  0  0  0  0  0  0  0  0  0  0  0
   -2.4075    0.0610    0.0000 F   0  0  0  0  0  0  0  0  0  0  0  0
   -0.7485   -4.2450    0.0000 O   0  0  0  0  0  0  0  0  0  0  0  0
    0.3121   -5.5090    0.0000 O   0  0  0  0  0  0  0  0  0  0  0  0
    0.5943   -4.7337    0.0000 N   0  0  0  0  0  0  0  0  0  0  0  0
   -0.2522    0.4065    0.0000 N   0  0  0  0  0  0  0  0  0  0  0  0
    0.3461   -3.3265    0.0000 C   0  0  0  0  0  0  0  0  0  0  0  0
    1.0606   -3.7390    0.0000 C   0  0  0  0  0  0  0  0  0  0  0  0
    0.0640   -4.1017    0.0000 C   0  0  0  0  0  0  0  0  0  0  0  0
   -0.4663   -3.1832    0.0000 C   0  0  0  0  0  0  0  0  0  0  0  0
    0.8764   -2.6945    0.0000 C   0  0  0  0  0  0  0  0  0  0  0  0
    1.7751   -3.3265    0.0000 C   0  0  0  0  0  0  0  0  0  0  0  0
   -0.2182   -1.7760    0.0000 C   0  0  0  0  0  0  0  0  0  0  0  0
    1.0606   -4.5640    0.0000 C   0  0  0  0  0  0  0  0  0  0  0  0
   -0.7485   -2.4080    0.0000 C   0  0  0  0  0  0  0  0  0  0  0  0
    0.5943   -1.9192    0.0000 C   0  0  0  0  0  0  0  0  0  0  0  0
    2.4895   -3.7390    0.0000 C   0  0  0  0  0  0  0  0  0  0  0  0
   -0.5004   -1.0007    0.0000 C   0  0  0  0  0  0  0  0  0  0  0  0
    1.7751   -4.9765    0.0000 C   0  0  0  0  0  0  0  0  0  0  0  0
    2.4895   -4.5640    0.0000 C   0  0  0  0  0  0  0  0  0  0  0  0
    1.7751   -2.5015    0.0000 C   0  0  0  0  0  0  0  0  0  0  0  0
   -1.3128   -0.8575    0.0000 C   0  0  0  0  0  0  0  0  0  0  0  0
    0.0299   -0.3687    0.0000 C   0  0  0  0  0  0  0  0  0  0  0  0
   -1.5950   -0.0822    0.0000 C   0  0  0  0  0  0  0  0  0  0  0  0
   -1.0647    0.5498    0.0000 C   0  0  0  0  0  0  0  0  0  0  0  0
  1 17  1  0  0  0  0
  2 24  1  0  0  0  0
  3  9  2  0  0  0  0
  4  5  1  0  0  0  0
  5  9  1  0  0  0  0
  6 23  2  0  0  0  0
  6 25  1  0  0  0  0
  7  8  1  0  0  0  0
  7  9  1  0  0  0  0
  7 10  1  0  0  0  0
  7 11  1  0  0  0  0
  8 12  2  0  0  0  0
  8 14  1  0  0  0  0
 10 15  1  0  0  0  0
 11 16  1  0  0  0  0
 12 17  1  0  0  0  0
 12 21  1  0  0  0  0
 13 15  1  0  0  0  0
 13 16  1  0  0  0  0
 13 18  1  0  0  0  0
 14 19  2  0  0  0  0
 17 20  2  0  0  0  0
 18 22  2  0  0  0  0
 18 23  1  0  0  0  0
 19 20  1  0  0  0  0
 22 24  1  0  0  0  0
 24 25  2  0  0  0  0
M  END
> <PUBCHEM_COMPOUND_ID_TYPE>
0

> <PUBCHEM_TOTAL_CHARGE>
0

> <PUBCHEM_SUBSTANCE_ID>
310934918

> <PUBCHEM_SUBSTANCE_VERSION>
1

> <PUBCHEM_EXT_DATASOURCE_NAME>
4488

> <PUBCHEM_EXT_DATASOURCE_REGID>
SCHEMBL16112431

> <PUBCHEM_SUBSTANCE_COMMENT>
InChI=1S/C19H20F2N2O2/c1-12-16(3-2-4-17(12)21)19(18(24)23-25)7-5-13(6-8-19)14-9-15(20)11-22-10-14/h2-4,9-11,13,25H,5-8H2,1H3,(H,23,24)
InChIKey=SEMVOCUFRMPVHZ-UHFFFAOYSA-N

> <PUBCHEM_SUBSTANCE_SYNONYM>
SCHEMBL16112431

> <PUBCHEM_XREF_EXT_ID>
SCHEMBL16112431

> <PUBCHEM_EXT_DATASOURCE_URL>
https://www.surechembl.org/

> <PUBCHEM_EXT_SUBSTANCE_URL>
https://www.surechembl.org/chemical/SCHEMBL16112431

> <PUBCHEM_CID_ASSOCIATIONS>
86272518  1

> <PUBCHEM_COORDINATE_TYPE>
1
3

$$$$
