310947877
  -OEChem-07211613022D

 23 26  0     0  0  0  0  0  0999 V2000
    0.3984    0.9149    0.0000 N   0  0  0  0  0  0  0  0  0  0  0  0
    2.4249    1.8414    0.0000 N   0  0  0  0  0  0  0  0  0  0  0  0
   -0.3160   -1.1476    0.0000 N   0  0  0  0  0  0  0  0  0  0  0  0
   -0.3160   -2.7976    0.0000 N   0  0  0  0  0  0  0  0  0  0  0  0
    1.0659    1.3999    0.0000 C   0  0  0  0  0  0  0  0  0  0  0  0
    0.8109    2.1845    0.0000 C   0  0  0  0  0  0  0  0  0  0  0  0
   -0.2690    1.3999    0.0000 C   0  0  0  0  0  0  0  0  0  0  0  0
   -0.0141    2.1845    0.0000 C   0  0  0  0  0  0  0  0  0  0  0  0
    1.8729    1.2283    0.0000 C   0  0  0  0  0  0  0  0  0  0  0  0
   -1.0760    1.2283    0.0000 C   0  0  0  0  0  0  0  0  0  0  0  0
    1.3630    2.7976    0.0000 C   0  0  0  0  0  0  0  0  0  0  0  0
   -0.5661    2.7976    0.0000 C   0  0  0  0  0  0  0  0  0  0  0  0
    0.3984    0.0899    0.0000 C   0  0  0  0  0  0  0  0  0  0  0  0
   -1.6280    1.8414    0.0000 C   0  0  0  0  0  0  0  0  0  0  0  0
   -1.3731    2.6260    0.0000 C   0  0  0  0  0  0  0  0  0  0  0  0
    2.1699    2.6260    0.0000 C   0  0  0  0  0  0  0  0  0  0  0  0
   -0.3160   -0.3226    0.0000 C   0  0  0  0  0  0  0  0  0  0  0  0
    2.0864    0.4314    0.0000 C   0  0  0  0  0  0  0  0  0  0  0  0
   -2.4249    1.6279    0.0000 C   0  0  0  0  0  0  0  0  0  0  0  0
   -1.0305   -1.5601    0.0000 C   0  0  0  0  0  0  0  0  0  0  0  0
    0.3984   -1.5601    0.0000 C   0  0  0  0  0  0  0  0  0  0  0  0
   -1.0305   -2.3851    0.0000 C   0  0  0  0  0  0  0  0  0  0  0  0
    0.3984   -2.3851    0.0000 C   0  0  0  0  0  0  0  0  0  0  0  0
  1  5  1  0  0  0  0
  1  7  1  0  0  0  0
  1 13  1  0  0  0  0
  2  9  2  0  0  0  0
  2 16  1  0  0  0  0
  3 17  1  0  0  0  0
  3 20  1  0  0  0  0
  3 21  1  0  0  0  0
  4 22  1  0  0  0  0
  4 23  1  0  0  0  0
  5  6  2  0  0  0  0
  5  9  1  0  0  0  0
  6  8  1  0  0  0  0
  6 11  1  0  0  0  0
  7  8  1  0  0  0  0
  7 10  2  0  0  0  0
  8 12  2  0  0  0  0
  9 18  1  0  0  0  0
 10 14  1  0  0  0  0
 11 16  2  0  0  0  0
 12 15  1  0  0  0  0
 13 17  1  0  0  0  0
 14 15  2  0  0  0  0
 14 19  1  0  0  0  0
 20 22  1  0  0  0  0
 21 23  1  0  0  0  0
M  END
> <PUBCHEM_COMPOUND_ID_TYPE>
0

> <PUBCHEM_TOTAL_CHARGE>
0

> <PUBCHEM_SUBSTANCE_ID>
310947877

> <PUBCHEM_SUBSTANCE_VERSION>
1

> <PUBCHEM_EXT_DATASOURCE_NAME>
4488

> <PUBCHEM_EXT_DATASOURCE_REGID>
SCHEMBL16126051

> <PUBCHEM_SUBSTANCE_COMMENT>
InChI=1S/C19H24N4/c1-14-3-4-16-17-5-6-21-15(2)19(17)23(18(16)13-14)12-11-22-9-7-20-8-10-22/h3-6,13,20H,7-12H2,1-2H3
InChIKey=CYMIXGYRHZWOGV-UHFFFAOYSA-N

> <PUBCHEM_SUBSTANCE_SYNONYM>
SCHEMBL16126051

> <PUBCHEM_XREF_EXT_ID>
SCHEMBL16126051

> <PUBCHEM_EXT_DATASOURCE_URL>
https://www.surechembl.org/

> <PUBCHEM_EXT_SUBSTANCE_URL>
https://www.surechembl.org/chemical/SCHEMBL16126051

> <PUBCHEM_CID_ASSOCIATIONS>
117613541  1

> <PUBCHEM_COORDINATE_TYPE>
1
3

$$$$
