310932945
  -OEChem-07211613022D

 36 40  0     1  0  0  0  0  0999 V2000
    6.4731   -2.4646    0.0000 F   0  0  0  0  0  0  0  0  0  0  0  0
    6.4731   -5.2854    0.0000 O   0  0  0  0  0  0  0  0  0  0  0  0
    6.0277   -0.3266    0.0000 O   0  0  0  0  0  0  0  0  0  0  0  0
    2.6724   -2.7021    0.0000 N   0  0  0  0  0  0  0  0  0  0  0  0
    3.4444   -3.0287    0.0000 N   0  0  0  0  0  0  0  0  0  0  0  0
    4.7806   -0.9799    0.0000 N   0  0  0  0  0  0  0  0  0  0  0  0
    6.0277   -1.7222    0.0000 N   0  0  0  0  0  0  0  0  0  0  0  0
    7.6906   -3.1475    0.0000 N   0  0  3  0  0  0  0  0  0  0  0  0
    7.2748   -1.0393    0.0000 N   0  0  0  0  0  0  0  0  0  0  0  0
    0.9799   -0.2672    0.0000 N   0  0  0  0  0  0  0  0  0  0  0  0
    3.5632   -1.7222    0.0000 C   0  0  0  0  0  0  0  0  0  0  0  0
    2.7911   -1.9003    0.0000 C   0  0  0  0  0  0  0  0  0  0  0  0
    4.0086   -2.4348    0.0000 C   0  0  0  0  0  0  0  0  0  0  0  0
    2.1676   -1.3659    0.0000 C   0  0  0  0  0  0  0  0  0  0  0  0
    4.8103   -2.4348    0.0000 C   0  0  0  0  0  0  0  0  0  0  0  0
    4.0086   -1.0095    0.0000 C   0  0  0  0  0  0  0  0  0  0  0  0
    5.2260   -1.7222    0.0000 C   0  0  0  0  0  0  0  0  0  0  0  0
    1.3956   -1.6331    0.0000 C   0  0  0  0  0  0  0  0  0  0  0  0
    2.3457   -0.5641    0.0000 C   0  0  0  0  0  0  0  0  0  0  0  0
    6.4731   -3.8601    0.0000 C   0  0  0  0  0  0  0  0  0  0  0  0
    0.7720   -1.0393    0.0000 C   0  0  0  0  0  0  0  0  0  0  0  0
    6.4434   -1.0393    0.0000 C   0  0  0  0  0  0  0  0  0  0  0  0
    6.0574   -4.5727    0.0000 C   0  0  0  0  0  0  0  0  0  0  0  0
    7.6906   -1.7519    0.0000 C   0  0  3  0  0  0  0  0  0  0  0  0
    6.0574   -3.1475    0.0000 C   0  0  0  0  0  0  0  0  0  0  0  0
    7.2748   -3.8601    0.0000 C   0  0  0  0  0  0  0  0  0  0  0  0
    1.7519    0.0000    0.0000 C   0  0  0  0  0  0  0  0  0  0  0  0
    7.2748   -2.4646    0.0000 C   0  0  0  0  0  0  0  0  0  0  0  0
    8.4923   -3.1475    0.0000 C   0  0  0  0  0  0  0  0  0  0  0  0
    5.2260   -4.5727    0.0000 C   0  0  0  0  0  0  0  0  0  0  0  0
    8.4923   -1.7519    0.0000 C   0  0  0  0  0  0  0  0  0  0  0  0
    5.2260   -3.1475    0.0000 C   0  0  0  0  0  0  0  0  0  0  0  0
    8.9079   -2.4646    0.0000 C   0  0  0  0  0  0  0  0  0  0  0  0
    4.8103   -3.8601    0.0000 C   0  0  0  0  0  0  0  0  0  0  0  0
    0.0000   -1.2768    0.0000 C   0  0  0  0  0  0  0  0  0  0  0  0
    7.3045   -5.2854    0.0000 C   0  0  0  0  0  0  0  0  0  0  0  0
  1 25  1  0  0  0  0
  2 23  1  0  0  0  0
  2 36  1  0  0  0  0
  3 22  2  0  0  0  0
  4  5  1  0  0  0  0
  4 12  2  0  0  0  0
  5 13  1  0  0  0  0
  6 16  1  0  0  0  0
  6 17  2  0  0  0  0
  7 17  1  0  0  0  0
  7 22  1  0  0  0  0
  8 26  1  0  0  0  0
  8 28  1  0  0  0  0
  8 29  1  0  0  0  0
  9 22  1  0  0  0  0
 24  9  1  1  0  0  0
 10 21  1  0  0  0  0
 10 27  2  0  0  0  0
 11 12  1  0  0  0  0
 11 13  1  0  0  0  0
 11 16  2  0  0  0  0
 12 14  1  0  0  0  0
 13 15  2  0  0  0  0
 14 18  1  0  0  0  0
 14 19  2  0  0  0  0
 15 17  1  0  0  0  0
 18 21  2  0  0  0  0
 19 27  1  0  0  0  0
 20 23  1  0  0  0  0
 20 25  2  0  0  0  0
 20 26  1  0  0  0  0
 21 35  1  0  0  0  0
 23 30  2  0  0  0  0
 24 28  1  0  0  0  0
 24 31  1  0  0  0  0
 25 32  1  0  0  0  0
 29 33  1  0  0  0  0
 30 34  1  0  0  0  0
 31 33  1  0  0  0  0
 32 34  2  0  0  0  0
M  END
> <PUBCHEM_COMPOUND_ID_TYPE>
0

> <PUBCHEM_TOTAL_CHARGE>
0

> <PUBCHEM_SUBSTANCE_ID>
310932945

> <PUBCHEM_SUBSTANCE_VERSION>
1

> <PUBCHEM_EXT_DATASOURCE_NAME>
4488

> <PUBCHEM_EXT_DATASOURCE_REGID>
SCHEMBL16110341

> <PUBCHEM_SUBSTANCE_COMMENT>
InChI=1S/C26H28FN7O2/c1-16-11-17(8-9-28-16)25-19-13-29-24(12-22(19)32-33-25)31-26(35)30-18-5-4-10-34(14-18)15-20-21(27)6-3-7-23(20)36-2/h3,6-9,11-13,18H,4-5,10,14-15H2,1-2H3,(H,32,33)(H2,29,30,31,35)/t18-/m0/s1
InChIKey=QVXUHZBHADDLFR-SFHVURJKSA-N

> <PUBCHEM_SUBSTANCE_SYNONYM>
SCHEMBL16110341

> <PUBCHEM_XREF_EXT_ID>
SCHEMBL16110341

> <PUBCHEM_EXT_DATASOURCE_URL>
https://www.surechembl.org/

> <PUBCHEM_EXT_SUBSTANCE_URL>
https://www.surechembl.org/chemical/SCHEMBL16110341

> <PUBCHEM_CID_ASSOCIATIONS>
71555168  1

> <PUBCHEM_COORDINATE_TYPE>
1
3

> <PUBCHEM_BONDANNOTATIONS>
24  9  5

$$$$
