310932937
  -OEChem-07211613022D

 26 28  0     0  0  0  0  0  0999 V2000
    2.8694   -2.1081    0.0000 O   0  0  0  0  0  0  0  0  0  0  0  0
    0.1464   -2.3716    0.0000 O   0  0  0  0  0  0  0  0  0  0  0  0
    7.3492   -2.2252    0.0000 O   0  0  0  0  0  0  0  0  0  0  0  0
    8.7839   -3.8649    0.0000 O   0  0  0  0  0  0  0  0  0  0  0  0
    3.7771   -0.9662    0.0000 N   0  0  0  0  0  0  0  0  0  0  0  0
    3.6892   -0.1464    0.0000 N   0  0  0  0  0  0  0  0  0  0  0  0
    5.2118   -0.9662    0.0000 N   0  0  0  0  0  0  0  0  0  0  0  0
    0.0000   -0.9955    0.0000 N   0  0  0  0  0  0  0  0  0  0  0  0
    6.6464   -3.4550    0.0000 N   0  0  0  0  0  0  0  0  0  0  0  0
    2.4595   -0.7027    0.0000 C   0  0  0  0  0  0  0  0  0  0  0  0
    3.0158   -1.3176    0.0000 C   0  0  0  0  0  0  0  0  0  0  0  0
    4.4797   -1.3761    0.0000 C   0  0  0  0  0  0  0  0  0  0  0  0
    1.6397   -0.7906    0.0000 C   0  0  0  0  0  0  0  0  0  0  0  0
    2.8694    0.0000    0.0000 C   0  0  0  0  0  0  0  0  0  0  0  0
    4.4797   -2.2252    0.0000 C   0  0  0  0  0  0  0  0  0  0  0  0
    1.3176   -1.5811    0.0000 C   0  0  0  0  0  0  0  0  0  0  0  0
    5.9145   -2.2252    0.0000 C   0  0  0  0  0  0  0  0  0  0  0  0
    1.1712   -0.1464    0.0000 C   0  0  0  0  0  0  0  0  0  0  0  0
    0.4977   -1.6397    0.0000 C   0  0  0  0  0  0  0  0  0  0  0  0
    5.9145   -1.3761    0.0000 C   0  0  0  0  0  0  0  0  0  0  0  0
    5.2118   -2.6058    0.0000 C   0  0  0  0  0  0  0  0  0  0  0  0
    6.6464   -2.6058    0.0000 C   0  0  0  0  0  0  0  0  0  0  0  0
    0.3221   -0.2050    0.0000 C   0  0  0  0  0  0  0  0  0  0  0  0
    7.3784   -3.8649    0.0000 C   0  0  0  0  0  0  0  0  0  0  0  0
    0.6149   -3.0451    0.0000 C   0  0  0  0  0  0  0  0  0  0  0  0
    8.0811   -3.4550    0.0000 C   0  0  0  0  0  0  0  0  0  0  0  0
  1 11  1  0  0  0  0
  2 19  1  0  0  0  0
  2 25  1  0  0  0  0
  3 22  2  0  0  0  0
  4 26  1  0  0  0  0
  5  6  1  0  0  0  0
  5 11  1  0  0  0  0
  5 12  1  0  0  0  0
  6 14  2  0  0  0  0
  7 12  2  0  0  0  0
  7 20  1  0  0  0  0
  8 19  1  0  0  0  0
  8 23  2  0  0  0  0
  9 22  1  0  0  0  0
  9 24  1  0  0  0  0
 10 11  2  0  0  0  0
 10 13  1  0  0  0  0
 10 14  1  0  0  0  0
 12 15  1  0  0  0  0
 13 16  1  0  0  0  0
 13 18  2  0  0  0  0
 15 21  2  0  0  0  0
 16 19  2  0  0  0  0
 17 20  2  0  0  0  0
 17 21  1  0  0  0  0
 17 22  1  0  0  0  0
 18 23  1  0  0  0  0
 24 26  1  0  0  0  0
M  END
> <PUBCHEM_COMPOUND_ID_TYPE>
0

> <PUBCHEM_TOTAL_CHARGE>
0

> <PUBCHEM_SUBSTANCE_ID>
310932937

> <PUBCHEM_SUBSTANCE_VERSION>
1

> <PUBCHEM_EXT_DATASOURCE_NAME>
4488

> <PUBCHEM_EXT_DATASOURCE_REGID>
SCHEMBL16110332

> <PUBCHEM_SUBSTANCE_COMMENT>
InChI=1S/C17H17N5O4/c1-26-15-8-11(4-5-18-15)13-10-21-22(17(13)25)14-3-2-12(9-20-14)16(24)19-6-7-23/h2-5,8-10,23,25H,6-7H2,1H3,(H,19,24)
InChIKey=URQOYCFPZBZAHF-UHFFFAOYSA-N

> <PUBCHEM_SUBSTANCE_SYNONYM>
SCHEMBL16110332

> <PUBCHEM_XREF_EXT_ID>
SCHEMBL16110332

> <PUBCHEM_EXT_DATASOURCE_URL>
https://www.surechembl.org/

> <PUBCHEM_EXT_SUBSTANCE_URL>
https://www.surechembl.org/chemical/SCHEMBL16110332

> <PUBCHEM_CID_ASSOCIATIONS>
117601418  1

> <PUBCHEM_COORDINATE_TYPE>
1
3

$$$$
