310944124
  -OEChem-07211613022D

 17 19  0     1  0  0  0  0  0999 V2000
   -0.4182   -1.9532    0.0000 F   0  0  0  0  0  0  0  0  0  0  0  0
    1.0124   -1.9532    0.0000 F   0  0  0  0  0  0  0  0  0  0  0  0
    2.4429   -1.1169    0.0000 O   0  0  0  0  0  0  0  0  0  0  0  0
   -1.1334    0.9408    0.0000 N   0  0  0  0  0  0  0  0  0  0  0  0
    0.3081    0.9518    0.0000 N   0  0  0  0  0  0  0  0  0  0  0  0
   -1.2104    1.7662    0.0000 N   0  0  0  0  0  0  0  0  0  0  0  0
   -2.0247    1.9532    0.0000 N   0  0  0  0  0  0  0  0  0  0  0  0
   -2.4429    1.2270    0.0000 N   0  0  0  0  0  0  0  0  0  0  0  0
    1.0234   -0.2806    0.0000 C   0  0  0  0  0  0  0  0  0  0  0  0
    0.3191   -0.7097    0.0000 C   0  0  0  0  0  0  0  0  0  0  0  0
    1.7497   -0.6987    0.0000 C   0  0  3  0  0  0  0  0  0  0  0  0
   -0.4072    0.5447    0.0000 C   0  0  0  0  0  0  0  0  0  0  0  0
   -0.4072   -0.2806    0.0000 C   0  0  0  0  0  0  0  0  0  0  0  0
    1.0234    0.5337    0.0000 C   0  0  0  0  0  0  0  0  0  0  0  0
    2.4319   -0.2916    0.0000 C   0  0  0  0  0  0  0  0  0  0  0  0
    0.3081   -1.5240    0.0000 C   0  0  0  0  0  0  0  0  0  0  0  0
   -1.8817    0.6217    0.0000 C   0  0  0  0  0  0  0  0  0  0  0  0
  1 16  1  0  0  0  0
  2 16  1  0  0  0  0
 11  3  1  6  0  0  0
  3 15  1  0  0  0  0
  4  6  1  0  0  0  0
  4 12  1  0  0  0  0
  4 17  1  0  0  0  0
  5 12  1  0  0  0  0
  5 14  2  0  0  0  0
  6  7  2  0  0  0  0
  7  8  1  0  0  0  0
  8 17  2  0  0  0  0
  9 10  2  0  0  0  0
  9 11  1  0  0  0  0
  9 14  1  0  0  0  0
 10 13  1  0  0  0  0
 10 16  1  0  0  0  0
 11 15  1  0  0  0  0
 12 13  2  0  0  0  0
M  END
> <PUBCHEM_COMPOUND_ID_TYPE>
0

> <PUBCHEM_TOTAL_CHARGE>
0

> <PUBCHEM_SUBSTANCE_ID>
310944124

> <PUBCHEM_SUBSTANCE_VERSION>
1

> <PUBCHEM_EXT_DATASOURCE_NAME>
4488

> <PUBCHEM_EXT_DATASOURCE_REGID>
SCHEMBL16122199

> <PUBCHEM_SUBSTANCE_COMMENT>
InChI=1S/C9H7F2N5O/c10-9(11)5-1-8(16-4-13-14-15-16)12-2-6(5)7-3-17-7/h1-2,4,7,9H,3H2/t7-/m0/s1
InChIKey=WIEKFGKNKUVFSY-ZETCQYMHSA-N

> <PUBCHEM_SUBSTANCE_SYNONYM>
SCHEMBL16122199

> <PUBCHEM_XREF_EXT_ID>
SCHEMBL16122199

> <PUBCHEM_EXT_DATASOURCE_URL>
https://www.surechembl.org/

> <PUBCHEM_EXT_SUBSTANCE_URL>
https://www.surechembl.org/chemical/SCHEMBL16122199

> <PUBCHEM_CID_ASSOCIATIONS>
117610405  1

> <PUBCHEM_COORDINATE_TYPE>
1
3

> <PUBCHEM_BONDANNOTATIONS>
11  3  6

$$$$
