310932885
  -OEChem-07211613022D

 31 35  0     0  0  0  0  0  0999 V2000
    2.6936   -0.5772    0.0000 F   0  0  0  0  0  0  0  0  0  0  0  0
    0.4123   -0.3848    0.0000 O   0  0  0  0  0  0  0  0  0  0  0  0
    5.5246   -2.2263    0.0000 O   0  0  0  0  0  0  0  0  0  0  0  0
    4.2053   -2.8585    0.0000 N   0  0  0  0  0  0  0  0  0  0  0  0
    4.2053   -1.5667    0.0000 N   0  0  0  0  0  0  0  0  0  0  0  0
    0.0000   -1.0994    0.0000 N   0  0  0  0  0  0  0  0  0  0  0  0
    1.9790   -5.0574    0.0000 N   0  0  0  0  0  0  0  0  0  0  0  0
    4.0953   -3.8755    0.0000 N   0  0  0  0  0  0  0  0  0  0  0  0
    3.4082   -2.6386    0.0000 C   0  0  0  0  0  0  0  0  0  0  0  0
    2.6936   -3.0234    0.0000 C   0  0  0  0  0  0  0  0  0  0  0  0
    3.4082   -1.7865    0.0000 C   0  0  0  0  0  0  0  0  0  0  0  0
    2.0065   -1.7865    0.0000 C   0  0  0  0  0  0  0  0  0  0  0  0
    2.6936   -1.4018    0.0000 C   0  0  0  0  0  0  0  0  0  0  0  0
    2.6936   -3.8480    0.0000 C   0  0  0  0  0  0  0  0  0  0  0  0
    1.2919   -1.3743    0.0000 C   0  0  0  0  0  0  0  0  0  0  0  0
    2.0065   -2.6386    0.0000 C   0  0  0  0  0  0  0  0  0  0  0  0
    4.7000   -2.2263    0.0000 C   0  0  0  0  0  0  0  0  0  0  0  0
    1.9790   -4.2603    0.0000 C   0  0  0  0  0  0  0  0  0  0  0  0
    3.4082   -4.2878    0.0000 C   0  0  0  0  0  0  0  0  0  0  0  0
    1.2094   -0.5497    0.0000 C   0  0  0  0  0  0  0  0  0  0  0  0
    0.5497   -1.7041    0.0000 C   0  0  0  0  0  0  0  0  0  0  0  0
    1.2644   -3.8205    0.0000 C   0  0  0  0  0  0  0  0  0  0  0  0
    3.3807   -5.1124    0.0000 C   0  0  0  0  0  0  0  0  0  0  0  0
    1.8140    0.0000    0.0000 C   0  0  0  0  0  0  0  0  0  0  0  0
    0.3848   -2.5012    0.0000 C   0  0  0  0  0  0  0  0  0  0  0  0
    1.2644   -5.4971    0.0000 C   0  0  0  0  0  0  0  0  0  0  0  0
    4.8374   -4.2603    0.0000 C   0  0  0  0  0  0  0  0  0  0  0  0
    0.5497   -4.2603    0.0000 C   0  0  0  0  0  0  0  0  0  0  0  0
    4.1228   -5.4971    0.0000 C   0  0  0  0  0  0  0  0  0  0  0  0
    0.5497   -5.0574    0.0000 C   0  0  0  0  0  0  0  0  0  0  0  0
    4.8100   -5.1124    0.0000 C   0  0  0  0  0  0  0  0  0  0  0  0
  1 13  1  0  0  0  0
  2  6  1  0  0  0  0
  2 20  1  0  0  0  0
  3 17  2  0  0  0  0
  4  9  1  0  0  0  0
  4 17  1  0  0  0  0
  5 11  1  0  0  0  0
  5 17  1  0  0  0  0
  6 21  2  0  0  0  0
  7 18  1  0  0  0  0
  7 26  2  0  0  0  0
  8 19  1  0  0  0  0
  8 27  2  0  0  0  0
  9 10  1  0  0  0  0
  9 11  2  0  0  0  0
 10 14  1  0  0  0  0
 10 16  2  0  0  0  0
 11 13  1  0  0  0  0
 12 13  2  0  0  0  0
 12 15  1  0  0  0  0
 12 16  1  0  0  0  0
 14 18  1  0  0  0  0
 14 19  1  0  0  0  0
 15 20  2  0  0  0  0
 15 21  1  0  0  0  0
 18 22  2  0  0  0  0
 19 23  2  0  0  0  0
 20 24  1  0  0  0  0
 21 25  1  0  0  0  0
 22 28  1  0  0  0  0
 23 29  1  0  0  0  0
 26 30  1  0  0  0  0
 27 31  1  0  0  0  0
 28 30  2  0  0  0  0
 29 31  2  0  0  0  0
M  END
> <PUBCHEM_COMPOUND_ID_TYPE>
0

> <PUBCHEM_TOTAL_CHARGE>
0

> <PUBCHEM_SUBSTANCE_ID>
310932885

> <PUBCHEM_SUBSTANCE_VERSION>
1

> <PUBCHEM_EXT_DATASOURCE_NAME>
4488

> <PUBCHEM_EXT_DATASOURCE_REGID>
SCHEMBL16110278

> <PUBCHEM_SUBSTANCE_COMMENT>
InChI=1S/C23H18FN5O2/c1-12-18(13(2)31-29-12)14-11-15(21-22(20(14)24)28-23(30)27-21)19(16-7-3-5-9-25-16)17-8-4-6-10-26-17/h3-11,19H,1-2H3,(H2,27,28,30)
InChIKey=VVZCMSKJPXBRER-UHFFFAOYSA-N

> <PUBCHEM_SUBSTANCE_SYNONYM>
SCHEMBL16110278

> <PUBCHEM_XREF_EXT_ID>
SCHEMBL16110278

> <PUBCHEM_EXT_DATASOURCE_URL>
https://www.surechembl.org/

> <PUBCHEM_EXT_SUBSTANCE_URL>
https://www.surechembl.org/chemical/SCHEMBL16110278

> <PUBCHEM_CID_ASSOCIATIONS>
117601368  1

> <PUBCHEM_COORDINATE_TYPE>
1
3

$$$$
