310941370
  -OEChem-07211613022D

 21 21  0     1  0  0  0  0  0999 V2000
    1.2281   -2.0396    0.0000 O   0  0  0  0  0  0  0  0  0  0  0  0
    0.6406   -1.0477    0.0000 O   0  0  0  0  0  0  0  0  0  0  0  0
    0.7276   -2.8625    0.0000 O   0  0  0  0  0  0  0  0  0  0  0  0
   -0.8070   -0.2157    0.0000 N   0  0  0  0  0  0  0  0  0  0  0  0
   -0.0749    0.2168    0.0000 C   0  0  3  0  0  0  0  0  0  0  0  0
   -0.8237    1.4814    0.0000 C   0  0  0  0  0  0  0  0  0  0  0  0
    0.6573   -0.1825    0.0000 C   0  0  0  0  0  0  0  0  0  0  0  0
   -0.0749    1.0488    0.0000 C   0  0  0  0  0  0  0  0  0  0  0  0
   -0.8902    2.2967    0.0000 C   0  0  0  0  0  0  0  0  0  0  0  0
    0.7276   -2.3287    0.0000 C   0  0  0  0  0  0  0  0  0  0  0  0
    1.2392   -1.4835    0.0000 C   0  0  0  0  0  0  0  0  0  0  0  0
   -1.5557    1.1320    0.0000 C   0  0  0  0  0  0  0  0  0  0  0  0
    1.3561    0.2335    0.0000 C   0  0  0  0  0  0  0  0  0  0  0  0
   -1.7055    2.4632    0.0000 C   0  0  0  0  0  0  0  0  0  0  0  0
   -2.1049    1.7477    0.0000 C   0  0  0  0  0  0  0  0  0  0  0  0
   -0.2746    2.8625    0.0000 C   0  0  0  0  0  0  0  0  0  0  0  0
    1.7397   -1.4613    0.0000 C   0  0  0  0  0  0  0  0  0  0  0  0
    0.7276   -1.4835    0.0000 C   0  0  0  0  0  0  0  0  0  0  0  0
    1.2281   -0.9386    0.0000 C   0  0  0  0  0  0  0  0  0  0  0  0
    2.1049   -0.1825    0.0000 C   0  0  0  0  0  0  0  0  0  0  0  0
    1.3728    1.0655    0.0000 C   0  0  0  0  0  0  0  0  0  0  0  0
  1 10  1  0  0  0  0
  1 11  1  0  0  0  0
  2  7  2  0  0  0  0
  3 10  2  0  0  0  0
  5  4  1  1  0  0  0
  4 10  1  0  0  0  0
  5  7  1  0  0  0  0
  5  8  1  0  0  0  0
  6  8  1  0  0  0  0
  6  9  2  0  0  0  0
  6 12  1  0  0  0  0
  7 13  1  0  0  0  0
  9 14  1  0  0  0  0
  9 16  1  0  0  0  0
 11 17  1  0  0  0  0
 11 18  1  0  0  0  0
 11 19  1  0  0  0  0
 12 15  1  0  0  0  0
 13 20  2  0  0  0  0
 13 21  1  0  0  0  0
 14 15  1  0  0  0  0
M  END
> <PUBCHEM_COMPOUND_ID_TYPE>
0

> <PUBCHEM_TOTAL_CHARGE>
0

> <PUBCHEM_SUBSTANCE_ID>
310941370

> <PUBCHEM_SUBSTANCE_VERSION>
1

> <PUBCHEM_EXT_DATASOURCE_NAME>
4488

> <PUBCHEM_EXT_DATASOURCE_REGID>
SCHEMBL16119330

> <PUBCHEM_SUBSTANCE_COMMENT>
InChI=1S/C17H27NO3/c1-11(2)15(19)14(10-13-9-7-8-12(13)3)18-16(20)21-17(4,5)6/h14H,1,7-10H2,2-6H3,(H,18,20)/t14-/m0/s1
InChIKey=YNZMEEUMFGAHPK-AWEZNQCLSA-N

> <PUBCHEM_SUBSTANCE_SYNONYM>
SCHEMBL16119330

> <PUBCHEM_XREF_EXT_ID>
SCHEMBL16119330

> <PUBCHEM_EXT_DATASOURCE_URL>
https://www.surechembl.org/

> <PUBCHEM_EXT_SUBSTANCE_URL>
https://www.surechembl.org/chemical/SCHEMBL16119330

> <PUBCHEM_CID_ASSOCIATIONS>
117608213  1

> <PUBCHEM_COORDINATE_TYPE>
1
3

> <PUBCHEM_BONDANNOTATIONS>
5  4  5

$$$$
