310948745
  -OEChem-07211613022D

 32 35  0     1  0  0  0  0  0999 V2000
    1.8850   -0.4805    0.0000 F   0  0  0  0  0  0  0  0  0  0  0  0
    2.8275   -0.8501    0.0000 F   0  0  0  0  0  0  0  0  0  0  0  0
    2.9384   -1.4599    0.0000 F   0  0  0  0  0  0  0  0  0  0  0  0
   -2.9384    1.0719    0.0000 O   0  0  0  0  0  0  0  0  0  0  0  0
   -0.1848    0.9056    0.0000 N   0  0  0  0  0  0  0  0  0  0  0  0
   -0.5174    0.1479    0.0000 N   0  0  0  0  0  0  0  0  0  0  0  0
   -1.9034   -0.3511    0.0000 N   0  0  0  0  0  0  0  0  0  0  0  0
   -2.2176    2.3100    0.0000 N   0  0  0  0  0  0  0  0  0  0  0  0
    0.6837   -1.1273    0.0000 N   0  0  0  0  0  0  0  0  0  0  0  0
    0.7577   -1.6817    0.0000 N   0  0  0  0  0  0  0  0  0  0  0  0
   -1.5154    1.0719    0.0000 C   0  0  0  0  0  0  0  0  0  0  0  0
   -0.7946    1.4599    0.0000 C   0  0  0  0  0  0  0  0  0  0  0  0
   -1.3491    0.2772    0.0000 C   0  0  0  0  0  0  0  0  0  0  0  0
    0.6283    1.0904    0.0000 C   0  0  3  0  0  0  0  0  0  0  0  0
   -2.2176    1.4969    0.0000 C   0  0  0  0  0  0  0  0  0  0  0  0
   -0.7761    2.3100    0.0000 C   0  0  0  0  0  0  0  0  0  0  0  0
    1.1643    0.4805    0.0000 C   0  0  3  0  0  0  0  0  0  0  0  0
   -1.5154    2.7166    0.0000 C   0  0  0  0  0  0  0  0  0  0  0  0
    0.9056    1.8665    0.0000 C   0  0  0  0  0  0  0  0  0  0  0  0
   -1.6633   -1.1458    0.0000 C   0  0  0  0  0  0  0  0  0  0  0  0
    1.9773    0.6283    0.0000 C   0  0  0  0  0  0  0  0  0  0  0  0
    0.9056   -0.3511    0.0000 C   0  0  0  0  0  0  0  0  0  0  0  0
    1.7186    2.0143    0.0000 C   0  0  0  0  0  0  0  0  0  0  0  0
   -0.8686   -1.3306    0.0000 C   0  0  0  0  0  0  0  0  0  0  0  0
   -2.1991   -1.7741    0.0000 C   0  0  0  0  0  0  0  0  0  0  0  0
    2.2546    1.4046    0.0000 C   0  0  0  0  0  0  0  0  0  0  0  0
   -0.6098   -2.1252    0.0000 C   0  0  0  0  0  0  0  0  0  0  0  0
   -1.9589   -2.5503    0.0000 C   0  0  0  0  0  0  0  0  0  0  0  0
   -1.1458   -2.7166    0.0000 C   0  0  0  0  0  0  0  0  0  0  0  0
    0.2032   -2.2915    0.0000 C   0  0  0  0  0  0  0  0  0  0  0  0
    2.1437   -1.2382    0.0000 C   0  0  0  0  0  0  0  0  0  0  0  0
    1.5709   -1.8665    0.0000 C   0  0  0  0  0  0  0  0  0  0  0  0
  1 31  1  0  0  0  0
  2 31  1  0  0  0  0
  3 31  1  0  0  0  0
  4 15  2  0  0  0  0
  5  6  1  0  0  0  0
  5 12  1  0  0  0  0
 14  5  1  1  0  0  0
  6 13  2  0  0  0  0
  7 13  1  0  0  0  0
  7 20  1  0  0  0  0
  8 15  1  0  0  0  0
  8 18  1  0  0  0  0
  9 22  3  0  0  0  0
 10 30  1  0  0  0  0
 10 32  1  0  0  0  0
 11 12  2  0  0  0  0
 11 13  1  0  0  0  0
 11 15  1  0  0  0  0
 12 16  1  0  0  0  0
 14 17  1  0  0  0  0
 14 19  1  0  0  0  0
 16 18  2  0  0  0  0
 17 21  1  0  0  0  0
 17 22  1  6  0  0  0
 19 23  1  0  0  0  0
 20 24  1  0  0  0  0
 20 25  2  0  0  0  0
 21 26  1  0  0  0  0
 23 26  1  0  0  0  0
 24 27  2  0  0  0  0
 25 28  1  0  0  0  0
 27 29  1  0  0  0  0
 27 30  1  0  0  0  0
 28 29  2  0  0  0  0
 31 32  1  0  0  0  0
M  END
> <PUBCHEM_COMPOUND_ID_TYPE>
0

> <PUBCHEM_TOTAL_CHARGE>
0

> <PUBCHEM_SUBSTANCE_ID>
310948745

> <PUBCHEM_SUBSTANCE_VERSION>
1

> <PUBCHEM_EXT_DATASOURCE_NAME>
4488

> <PUBCHEM_EXT_DATASOURCE_REGID>
SCHEMBL16126929

> <PUBCHEM_SUBSTANCE_COMMENT>
InChI=1S/C22H23F3N6O/c23-22(24,25)13-27-12-14-4-3-6-16(10-14)29-20-19-18(8-9-28-21(19)32)31(30-20)17-7-2-1-5-15(17)11-26/h3-4,6,8-10,15,17,27H,1-2,5,7,12-13H2,(H,28,32)(H,29,30)/t15-,17+/m1/s1
InChIKey=SPCFLPICNDRNKO-WBVHZDCISA-N

> <PUBCHEM_SUBSTANCE_SYNONYM>
SCHEMBL16126929

> <PUBCHEM_XREF_EXT_ID>
SCHEMBL16126929

> <PUBCHEM_EXT_DATASOURCE_URL>
https://www.surechembl.org/

> <PUBCHEM_EXT_SUBSTANCE_URL>
https://www.surechembl.org/chemical/SCHEMBL16126929

> <PUBCHEM_CID_ASSOCIATIONS>
117614287  1

> <PUBCHEM_COORDINATE_TYPE>
1
3

> <PUBCHEM_BONDANNOTATIONS>
17  22  6
14  5  5

$$$$
