310936793
  -OEChem-07211613022D

 46 49  0     1  0  0  0  0  0999 V2000
    1.5356   -0.8866    0.0000 F   0  0  0  0  0  0  0  0  0  0  0  0
    0.4087   -0.5846    0.0000 F   0  0  0  0  0  0  0  0  0  0  0  0
    1.2337   -2.0136    0.0000 F   0  0  0  0  0  0  0  0  0  0  0  0
   -2.7512   -0.8866    0.0000 F   0  0  0  0  0  0  0  0  0  0  0  0
   -2.4492   -2.0136    0.0000 F   0  0  0  0  0  0  0  0  0  0  0  0
   -1.6242   -0.5846    0.0000 F   0  0  0  0  0  0  0  0  0  0  0  0
   -3.5942   -9.8020    0.0000 F   0  0  0  0  0  0  0  0  0  0  0  0
   -2.4419   -9.6194    0.0000 F   0  0  0  0  0  0  0  0  0  0  0  0
   -3.7768   -8.6496    0.0000 F   0  0  0  0  0  0  0  0  0  0  0  0
    0.0597   -4.2590    0.0000 O   0  0  0  0  0  0  0  0  0  0  0  0
    0.2897   -5.7111    0.0000 O   0  0  0  0  0  0  0  0  0  0  0  0
   -0.3491   -6.5510    0.0000 O   0  0  0  0  0  0  0  0  0  0  0  0
    0.5082  -10.2331    0.0000 O   0  0  0  0  0  0  0  0  0  0  0  0
   -2.1026  -11.3955    0.0000 O   0  0  0  0  0  0  0  0  0  0  0  0
   -1.0203   -5.0437    0.0000 N   0  0  0  0  0  0  0  0  0  0  0  0
   -2.4750   -7.0460    0.0000 N   0  0  0  0  0  0  0  0  0  0  0  0
   -0.4985   -7.9721    0.0000 N   0  0  0  0  0  0  0  0  0  0  0  0
   -0.6078   -3.7741    0.0000 C   0  0  3  0  0  0  0  0  0  0  0  0
   -1.2752   -4.2590    0.0000 C   0  0  3  0  0  0  0  0  0  0  0  0
   -0.6078   -2.9491    0.0000 C   0  0  0  0  0  0  0  0  0  0  0  0
   -0.1953   -5.0437    0.0000 C   0  0  0  0  0  0  0  0  0  0  0  0
   -1.3222   -2.5366    0.0000 C   0  0  0  0  0  0  0  0  0  0  0  0
    0.1067   -2.5366    0.0000 C   0  0  0  0  0  0  0  0  0  0  0  0
   -1.5052   -5.7111    0.0000 C   0  0  0  0  0  0  0  0  0  0  0  0
   -2.0598   -4.0041    0.0000 C   0  0  0  0  0  0  0  0  0  0  0  0
   -1.3222   -1.7116    0.0000 C   0  0  0  0  0  0  0  0  0  0  0  0
    0.1067   -1.7116    0.0000 C   0  0  0  0  0  0  0  0  0  0  0  0
   -1.1696   -6.4648    0.0000 C   0  0  0  0  0  0  0  0  0  0  0  0
   -0.6078   -1.2991    0.0000 C   0  0  0  0  0  0  0  0  0  0  0  0
    0.8212   -1.2991    0.0000 C   0  0  0  0  0  0  0  0  0  0  0  0
   -2.0367   -1.2991    0.0000 C   0  0  0  0  0  0  0  0  0  0  0  0
   -1.6546   -7.1322    0.0000 C   0  0  0  0  0  0  0  0  0  0  0  0
   -1.3190   -7.8859    0.0000 C   0  0  0  0  0  0  0  0  0  0  0  0
   -2.6244   -8.4671    0.0000 C   0  0  0  0  0  0  0  0  0  0  0  0
   -1.8039   -8.5533    0.0000 C   0  0  0  0  0  0  0  0  0  0  0  0
   -2.9600   -7.7134    0.0000 C   0  0  0  0  0  0  0  0  0  0  0  0
   -3.1093   -9.1345    0.0000 C   0  0  0  0  0  0  0  0  0  0  0  0
   -0.1630   -8.7258    0.0000 C   0  0  3  0  0  0  0  0  0  0  0  0
   -0.6479   -9.3932    0.0000 C   0  0  0  0  0  0  0  0  0  0  0  0
    0.6575   -8.8120    0.0000 C   0  0  0  0  0  0  0  0  0  0  0  0
   -0.3123  -10.1469    0.0000 C   0  0  3  0  0  0  0  0  0  0  0  0
    0.9931   -9.5657    0.0000 C   0  0  0  0  0  0  0  0  0  0  0  0
   -0.7972  -10.8143    0.0000 C   0  0  0  0  0  0  0  0  0  0  0  0
   -1.6177  -10.7281    0.0000 C   0  0  0  0  0  0  0  0  0  0  0  0
    0.1273   -3.3996    0.0000 H   0  0  0  0  0  0  0  0  0  0  0  0
   -1.4043   -3.4442    0.0000 H   0  0  0  0  0  0  0  0  0  0  0  0
  1 30  1  0  0  0  0
  2 30  1  0  0  0  0
  3 30  1  0  0  0  0
  4 31  1  0  0  0  0
  5 31  1  0  0  0  0
  6 31  1  0  0  0  0
  7 37  1  0  0  0  0
  8 37  1  0  0  0  0
  9 37  1  0  0  0  0
 10 18  1  0  0  0  0
 10 21  1  0  0  0  0
 11 21  2  0  0  0  0
 12 28  2  0  0  0  0
 13 41  1  0  0  0  0
 13 42  1  0  0  0  0
 14 44  1  0  0  0  0
 15 19  1  0  0  0  0
 15 21  1  0  0  0  0
 15 24  1  0  0  0  0
 16 32  2  0  0  0  0
 16 36  1  0  0  0  0
 17 33  1  0  0  0  0
 17 38  1  0  0  0  0
 18 19  1  0  0  0  0
 18 20  1  0  0  0  0
 18 45  1  6  0  0  0
 19 25  1  1  0  0  0
 19 46  1  6  0  0  0
 20 22  2  0  0  0  0
 20 23  1  0  0  0  0
 22 26  1  0  0  0  0
 23 27  2  0  0  0  0
 24 28  1  0  0  0  0
 26 29  2  0  0  0  0
 26 31  1  0  0  0  0
 27 29  1  0  0  0  0
 27 30  1  0  0  0  0
 28 32  1  0  0  0  0
 32 33  1  0  0  0  0
 33 35  2  0  0  0  0
 34 35  1  0  0  0  0
 34 36  2  0  0  0  0
 34 37  1  0  0  0  0
 38 39  1  0  0  0  0
 38 40  1  0  0  0  0
 39 41  1  0  0  0  0
 40 42  1  0  0  0  0
 41 43  1  0  0  0  0
 43 44  1  0  0  0  0
M  END
> <PUBCHEM_COMPOUND_ID_TYPE>
0

> <PUBCHEM_TOTAL_CHARGE>
0

> <PUBCHEM_SUBSTANCE_ID>
310936793

> <PUBCHEM_SUBSTANCE_VERSION>
1

> <PUBCHEM_EXT_DATASOURCE_NAME>
4488

> <PUBCHEM_EXT_DATASOURCE_REGID>
SCHEMBL16114479

> <PUBCHEM_SUBSTANCE_COMMENT>
InChI=1S/C27H26F9N3O5/c1-13-23(14-6-15(25(28,29)30)8-16(7-14)26(31,32)33)44-24(42)39(13)12-21(41)22-20(9-17(11-37-22)27(34,35)36)38-18-3-5-43-19(10-18)2-4-40/h6-9,11,13,18-19,23,38,40H,2-5,10,12H2,1H3/t13-,18?,19?,23-/m0/s1
InChIKey=QHKYHAQWMMQHOH-GNPPVDPISA-N

> <PUBCHEM_SUBSTANCE_SYNONYM>
SCHEMBL16114479

> <PUBCHEM_XREF_EXT_ID>
SCHEMBL16114479

> <PUBCHEM_EXT_DATASOURCE_URL>
https://www.surechembl.org/

> <PUBCHEM_EXT_SUBSTANCE_URL>
https://www.surechembl.org/chemical/SCHEMBL16114479

> <PUBCHEM_CID_ASSOCIATIONS>
117604688  1

> <PUBCHEM_COORDINATE_TYPE>
1
3

> <PUBCHEM_BONDANNOTATIONS>
18  45  6
19  25  5
19  46  6

$$$$
