310944152
  -OEChem-07211613022D

 19 21  0     1  0  0  0  0  0999 V2000
   -0.7668   -2.0942    0.0000 F   0  0  0  0  0  0  0  0  0  0  0  0
   -0.4504    0.7524    0.0000 O   0  0  0  0  0  0  0  0  0  0  0  0
    2.4344    0.6949    0.0000 O   0  0  0  0  0  0  0  0  0  0  0  0
    2.1277    2.0942    0.0000 O   0  0  0  0  0  0  0  0  0  0  0  0
    0.5559   -0.2540    0.0000 N   0  0  0  0  0  0  0  0  0  0  0  0
   -2.4344   -0.6661    0.0000 N   0  0  0  0  0  0  0  0  0  0  0  0
   -0.7476   -0.6565    0.0000 C   0  0  3  0  0  0  0  0  0  0  0  0
   -0.2205    0.0144    0.0000 C   0  0  0  0  0  0  0  0  0  0  0  0
    1.2076    0.2253    0.0000 C   0  0  0  0  0  0  0  0  0  0  0  0
   -1.1693   -1.3946    0.0000 C   0  0  3  0  0  0  0  0  0  0  0  0
   -0.1917   -1.3466    0.0000 C   0  0  0  0  0  0  0  0  0  0  0  0
    0.5846   -1.1453    0.0000 C   0  0  0  0  0  0  0  0  0  0  0  0
   -1.1597    0.0623    0.0000 C   0  0  0  0  0  0  0  0  0  0  0  0
    1.1693    1.0399    0.0000 C   0  0  0  0  0  0  0  0  0  0  0  0
    1.9936    0.0240    0.0000 C   0  0  0  0  0  0  0  0  0  0  0  0
    1.9073    1.3083    0.0000 C   0  0  0  0  0  0  0  0  0  0  0  0
   -2.0127   -1.3850    0.0000 C   0  0  0  0  0  0  0  0  0  0  0  0
   -2.0127    0.0623    0.0000 C   0  0  0  0  0  0  0  0  0  0  0  0
    0.4792    1.4617    0.0000 C   0  0  0  0  0  0  0  0  0  0  0  0
  1 10  1  0  0  0  0
  2  8  2  0  0  0  0
  3 15  1  0  0  0  0
  3 16  1  0  0  0  0
  4 16  2  0  0  0  0
  5  8  1  0  0  0  0
  5  9  1  0  0  0  0
  5 12  1  0  0  0  0
  6 17  1  0  0  0  0
  6 18  1  0  0  0  0
  7  8  1  1  0  0  0
  7 10  1  0  0  0  0
  7 11  1  0  0  0  0
  7 13  1  0  0  0  0
  9 14  2  0  0  0  0
  9 15  1  0  0  0  0
 10 17  1  0  0  0  0
 11 12  1  0  0  0  0
 13 18  1  0  0  0  0
 14 16  1  0  0  0  0
 14 19  1  0  0  0  0
M  END
> <PUBCHEM_COMPOUND_ID_TYPE>
0

> <PUBCHEM_TOTAL_CHARGE>
0

> <PUBCHEM_SUBSTANCE_ID>
310944152

> <PUBCHEM_SUBSTANCE_VERSION>
1

> <PUBCHEM_EXT_DATASOURCE_NAME>
4488

> <PUBCHEM_EXT_DATASOURCE_REGID>
SCHEMBL16122227

> <PUBCHEM_SUBSTANCE_COMMENT>
InChI=1S/C13H17FN2O3/c1-8-9(7-19-11(8)17)16-5-3-13(12(16)18)2-4-15-6-10(13)14/h10,15H,2-7H2,1H3/t10?,13-/m0/s1
InChIKey=QSZXCHWTEAOLBA-HQVZTVAUSA-N

> <PUBCHEM_SUBSTANCE_SYNONYM>
SCHEMBL16122227

> <PUBCHEM_XREF_EXT_ID>
SCHEMBL16122227

> <PUBCHEM_EXT_DATASOURCE_URL>
https://www.surechembl.org/

> <PUBCHEM_EXT_SUBSTANCE_URL>
https://www.surechembl.org/chemical/SCHEMBL16122227

> <PUBCHEM_CID_ASSOCIATIONS>
117610433  1

> <PUBCHEM_COORDINATE_TYPE>
1
3

> <PUBCHEM_BONDANNOTATIONS>
7  8  5

$$$$
