310949382
  -OEChem-07211613022D

 25 27  0     0  0  0  0  0  0999 V2000
    2.8736    0.9027    0.0000 Br  0  0  0  0  0  0  0  0  0  0  0  0
   -0.0085    0.0671    0.0000 O   0  0  0  0  0  0  0  0  0  0  0  0
   -0.8560   -1.7412    0.0000 O   0  0  0  0  0  0  0  0  0  0  0  0
   -1.3521   -2.5570    0.0000 O   0  0  0  0  0  0  0  0  0  0  0  0
   -0.7248    1.3120    0.0000 N   0  0  0  0  0  0  0  0  0  0  0  0
   -0.0085    2.5570    0.0000 N   0  0  0  0  0  0  0  0  0  0  0  0
   -2.8736    0.0671    0.0000 N   0  0  0  0  0  0  0  0  0  0  0  0
    0.7078    1.3291    0.0000 C   0  0  0  0  0  0  0  0  0  0  0  0
   -0.0085    0.9368    0.0000 C   0  0  0  0  0  0  0  0  0  0  0  0
    0.7248    2.1648    0.0000 C   0  0  0  0  0  0  0  0  0  0  0  0
   -1.4411    0.9198    0.0000 C   0  0  0  0  0  0  0  0  0  0  0  0
   -0.7078    2.1648    0.0000 C   0  0  0  0  0  0  0  0  0  0  0  0
    1.4411    0.9198    0.0000 C   0  0  0  0  0  0  0  0  0  0  0  0
   -1.4411    0.0841    0.0000 C   0  0  0  0  0  0  0  0  0  0  0  0
   -2.1745    1.3120    0.0000 C   0  0  0  0  0  0  0  0  0  0  0  0
    1.4240    2.5570    0.0000 C   0  0  0  0  0  0  0  0  0  0  0  0
    2.1574    1.3291    0.0000 C   0  0  0  0  0  0  0  0  0  0  0  0
   -2.1403   -0.3252    0.0000 C   0  0  0  0  0  0  0  0  0  0  0  0
   -2.8736    0.9198    0.0000 C   0  0  0  0  0  0  0  0  0  0  0  0
   -1.3521   -2.0277    0.0000 C   0  0  0  0  0  0  0  0  0  0  0  0
    2.1574    2.1648    0.0000 C   0  0  0  0  0  0  0  0  0  0  0  0
   -0.8450   -1.1898    0.0000 C   0  0  0  0  0  0  0  0  0  0  0  0
   -0.3488   -1.1678    0.0000 C   0  0  0  0  0  0  0  0  0  0  0  0
   -1.3521   -1.1898    0.0000 C   0  0  0  0  0  0  0  0  0  0  0  0
   -0.8560   -0.6496    0.0000 C   0  0  0  0  0  0  0  0  0  0  0  0
  1 17  1  0  0  0  0
  2  9  2  0  0  0  0
  3 20  1  0  0  0  0
  3 22  1  0  0  0  0
  4 20  2  0  0  0  0
  5  9  1  0  0  0  0
  5 11  1  0  0  0  0
  5 12  1  0  0  0  0
  6 10  1  0  0  0  0
  6 12  2  0  0  0  0
  7 18  1  0  0  0  0
  7 19  1  0  0  0  0
  7 20  1  0  0  0  0
  8  9  1  0  0  0  0
  8 10  1  0  0  0  0
  8 13  2  0  0  0  0
 10 16  2  0  0  0  0
 11 14  1  0  0  0  0
 11 15  1  0  0  0  0
 13 17  1  0  0  0  0
 14 18  1  0  0  0  0
 15 19  1  0  0  0  0
 16 21  1  0  0  0  0
 17 21  2  0  0  0  0
 22 23  1  0  0  0  0
 22 24  1  0  0  0  0
 22 25  1  0  0  0  0
M  END
> <PUBCHEM_COMPOUND_ID_TYPE>
0

> <PUBCHEM_TOTAL_CHARGE>
0

> <PUBCHEM_SUBSTANCE_ID>
310949382

> <PUBCHEM_SUBSTANCE_VERSION>
1

> <PUBCHEM_EXT_DATASOURCE_NAME>
4488

> <PUBCHEM_EXT_DATASOURCE_REGID>
SCHEMBL16127574

> <PUBCHEM_SUBSTANCE_COMMENT>
InChI=1S/C18H22BrN3O3/c1-18(2,3)25-17(24)21-8-6-13(7-9-21)22-11-20-15-5-4-12(19)10-14(15)16(22)23/h4-5,10-11,13H,6-9H2,1-3H3
InChIKey=UMMYEXZDJAIGRA-UHFFFAOYSA-N

> <PUBCHEM_SUBSTANCE_SYNONYM>
SCHEMBL16127574

> <PUBCHEM_XREF_EXT_ID>
SCHEMBL16127574

> <PUBCHEM_EXT_DATASOURCE_URL>
https://www.surechembl.org/

> <PUBCHEM_EXT_SUBSTANCE_URL>
https://www.surechembl.org/chemical/SCHEMBL16127574

> <PUBCHEM_CID_ASSOCIATIONS>
117614839  1

> <PUBCHEM_COORDINATE_TYPE>
1
3

$$$$
