310935408
  -OEChem-07211613022D

 17 18  0     0  0  0  0  0  0999 V2000
    4.9628   -2.8619    0.0000 Cl  0  0  0  0  0  0  0  0  0  0  0  0
    0.0000    0.0000    0.0000 Cl  0  0  0  0  0  0  0  0  0  0  0  0
    2.4483   -2.8619    0.0000 O   0  0  0  0  0  0  0  0  0  0  0  0
    1.2241   -2.1506    0.0000 N   0  0  0  0  0  0  0  0  0  0  0  0
    2.4814   -1.4392    0.0000 C   0  0  0  0  0  0  0  0  0  0  0  0
    3.3086   -1.4392    0.0000 C   0  0  0  0  0  0  0  0  0  0  0  0
    2.0348   -2.1506    0.0000 C   0  0  0  0  0  0  0  0  0  0  0  0
    2.0348   -0.7279    0.0000 C   0  0  0  0  0  0  0  0  0  0  0  0
    1.2241   -0.7279    0.0000 C   0  0  0  0  0  0  0  0  0  0  0  0
    3.7221   -2.1506    0.0000 C   0  0  0  0  0  0  0  0  0  0  0  0
    3.7221   -0.7279    0.0000 C   0  0  0  0  0  0  0  0  0  0  0  0
    0.7941   -1.4392    0.0000 C   0  0  0  0  0  0  0  0  0  0  0  0
    4.5493   -2.1506    0.0000 C   0  0  0  0  0  0  0  0  0  0  0  0
    4.5493   -0.7279    0.0000 C   0  0  0  0  0  0  0  0  0  0  0  0
    4.9628   -1.4392    0.0000 C   0  0  0  0  0  0  0  0  0  0  0  0
    0.8271   -0.0166    0.0000 C   0  0  0  0  0  0  0  0  0  0  0  0
    3.2755   -2.8784    0.0000 C   0  0  0  0  0  0  0  0  0  0  0  0
  1 13  1  0  0  0  0
  2 16  1  0  0  0  0
  3  7  1  0  0  0  0
  3 17  1  0  0  0  0
  4  7  1  0  0  0  0
  4 12  2  0  0  0  0
  5  6  1  0  0  0  0
  5  7  2  0  0  0  0
  5  8  1  0  0  0  0
  6 10  1  0  0  0  0
  6 11  2  0  0  0  0
  8  9  2  0  0  0  0
  9 12  1  0  0  0  0
  9 16  1  0  0  0  0
 10 13  2  0  0  0  0
 11 14  1  0  0  0  0
 13 15  1  0  0  0  0
 14 15  2  0  0  0  0
M  END
> <PUBCHEM_COMPOUND_ID_TYPE>
0

> <PUBCHEM_TOTAL_CHARGE>
0

> <PUBCHEM_SUBSTANCE_ID>
310935408

> <PUBCHEM_SUBSTANCE_VERSION>
1

> <PUBCHEM_EXT_DATASOURCE_NAME>
4488

> <PUBCHEM_EXT_DATASOURCE_REGID>
SCHEMBL16112949

> <PUBCHEM_SUBSTANCE_COMMENT>
InChI=1S/C13H11Cl2NO/c1-17-13-12(5-9(7-14)8-16-13)10-3-2-4-11(15)6-10/h2-6,8H,7H2,1H3
InChIKey=UUVOQLDQTLFVBQ-UHFFFAOYSA-N

> <PUBCHEM_SUBSTANCE_SYNONYM>
SCHEMBL16112949

> <PUBCHEM_XREF_EXT_ID>
SCHEMBL16112949

> <PUBCHEM_EXT_DATASOURCE_URL>
https://www.surechembl.org/

> <PUBCHEM_EXT_SUBSTANCE_URL>
https://www.surechembl.org/chemical/SCHEMBL16112949

> <PUBCHEM_CID_ASSOCIATIONS>
117603453  1

> <PUBCHEM_COORDINATE_TYPE>
1
3

$$$$
