310947977
  -OEChem-07211613022D

 29 33  0     1  0  0  0  0  0999 V2000
   -1.4878   -0.5229    0.0000 O   0  0  0  0  0  0  0  0  0  0  0  0
   -1.7972    1.6572    0.0000 O   0  0  0  0  0  0  0  0  0  0  0  0
   -2.5042   -1.2447    0.0000 O   0  0  0  0  0  0  0  0  0  0  0  0
    2.5190    2.4821    0.0000 O   0  0  0  0  0  0  0  0  0  0  0  0
    3.2408    1.2447    0.0000 O   0  0  0  0  0  0  0  0  0  0  0  0
    1.7824   -1.2890    0.0000 N   0  0  3  0  0  0  0  0  0  0  0  0
   -1.7972   -2.4821    0.0000 N   0  0  0  0  0  0  0  0  0  0  0  0
   -0.3535   -0.7881    0.0000 C   0  0  3  0  0  0  0  0  0  0  0  0
   -0.3535    0.0368    0.0000 C   0  0  0  0  0  0  0  0  0  0  0  0
   -1.0753   -1.2300    0.0000 C   0  0  3  0  0  0  0  0  0  0  0  0
    0.3535   -1.2153    0.0000 C   0  0  3  0  0  0  0  0  0  0  0  0
   -1.0753    0.4493    0.0000 C   0  0  0  0  0  0  0  0  0  0  0  0
    0.3388    0.4493    0.0000 C   0  0  0  0  0  0  0  0  0  0  0  0
    1.0753   -0.8029    0.0000 C   0  0  3  0  0  0  0  0  0  0  0  0
    0.2210   -0.3462    0.0000 C   0  0  0  0  0  0  0  0  0  0  0  0
   -1.0753   -2.0402    0.0000 C   0  0  3  0  0  0  0  0  0  0  0  0
    1.0753    0.0221    0.0000 C   0  0  0  0  0  0  0  0  0  0  0  0
    0.3535    1.2742    0.0000 C   0  0  0  0  0  0  0  0  0  0  0  0
   -1.0753    1.2742    0.0000 C   0  0  0  0  0  0  0  0  0  0  0  0
    0.3388   -2.0550    0.0000 C   0  0  0  0  0  0  0  0  0  0  0  0
    1.5320   -0.3609    0.0000 C   0  0  0  0  0  0  0  0  0  0  0  0
   -0.3683   -2.4527    0.0000 C   0  0  0  0  0  0  0  0  0  0  0  0
   -0.3683    1.6720    0.0000 C   0  0  0  0  0  0  0  0  0  0  0  0
    1.0753    1.6867    0.0000 C   0  0  0  0  0  0  0  0  0  0  0  0
    2.6074   -1.0532    0.0000 C   0  0  0  0  0  0  0  0  0  0  0  0
   -2.5190   -2.0697    0.0000 C   0  0  0  0  0  0  0  0  0  0  0  0
    1.7824    1.2742    0.0000 C   0  0  0  0  0  0  0  0  0  0  0  0
    2.5042    1.6572    0.0000 C   0  0  0  0  0  0  0  0  0  0  0  0
   -3.2408   -2.4821    0.0000 C   0  0  0  0  0  0  0  0  0  0  0  0
 10  1  1  6  0  0  0
  1 12  1  0  0  0  0
  2 19  1  0  0  0  0
  3 26  2  0  0  0  0
  4 28  2  0  0  0  0
  5 28  1  0  0  0  0
 14  6  1  1  0  0  0
  6 21  1  0  0  0  0
  6 25  1  0  0  0  0
 16  7  1  6  0  0  0
  7 26  1  0  0  0  0
  8  9  1  6  0  0  0
  8 10  1  0  0  0  0
  8 11  1  0  0  0  0
  8 15  1  0  0  0  0
  9 12  1  0  0  0  0
  9 13  2  0  0  0  0
 10 16  1  0  0  0  0
 11 14  1  0  0  0  0
 11 20  1  0  0  0  0
 12 19  2  0  0  0  0
 13 17  1  0  0  0  0
 13 18  1  0  0  0  0
 14 17  1  0  0  0  0
 15 21  1  0  0  0  0
 16 22  1  0  0  0  0
 18 23  2  0  0  0  0
 18 24  1  0  0  0  0
 19 23  1  0  0  0  0
 20 22  1  0  0  0  0
 24 27  1  0  0  0  0
 26 29  1  0  0  0  0
 27 28  1  0  0  0  0
M  END
> <PUBCHEM_COMPOUND_ID_TYPE>
0

> <PUBCHEM_TOTAL_CHARGE>
0

> <PUBCHEM_SUBSTANCE_ID>
310947977

> <PUBCHEM_SUBSTANCE_VERSION>
1

> <PUBCHEM_EXT_DATASOURCE_NAME>
4488

> <PUBCHEM_EXT_DATASOURCE_REGID>
SCHEMBL16126151

> <PUBCHEM_SUBSTANCE_COMMENT>
InChI=1S/C22H28N2O5/c1-11(25)23-15-5-4-14-16-10-13-12(3-6-18(27)28)9-17(26)20-19(13)22(14,21(15)29-20)7-8-24(16)2/h9,14-16,21,26H,3-8,10H2,1-2H3,(H,23,25)(H,27,28)/t14?,15-,16+,21-,22-/m0/s1
InChIKey=HYPFVCIKYQUMGG-YQFZLOCWSA-N

> <PUBCHEM_SUBSTANCE_SYNONYM>
SCHEMBL16126151

> <PUBCHEM_XREF_EXT_ID>
SCHEMBL16126151

> <PUBCHEM_EXT_DATASOURCE_URL>
https://www.surechembl.org/

> <PUBCHEM_EXT_SUBSTANCE_URL>
https://www.surechembl.org/chemical/SCHEMBL16126151

> <PUBCHEM_CID_ASSOCIATIONS>
117613624  1

> <PUBCHEM_COORDINATE_TYPE>
1
3

> <PUBCHEM_BONDANNOTATIONS>
10  1  6
14  6  5
16  7  6
8  9  6

$$$$
