310946754
  -OEChem-07211613022D

 31 34  0     1  0  0  0  0  0999 V2000
   -1.8997   -3.2042    0.0000 S   0  0  0  0  0  0  0  0  0  0  0  0
    1.7366    2.5030    0.0000 F   0  0  0  0  0  0  0  0  0  0  0  0
   -1.4431   -0.9376    0.0000 O   0  0  0  0  0  0  0  0  0  0  0  0
   -1.2800   -3.7585    0.0000 O   0  0  0  0  0  0  0  0  0  0  0  0
   -2.4541   -3.8237    0.0000 O   0  0  0  0  0  0  0  0  0  0  0  0
    0.0734    1.4105    0.0000 N   0  0  0  0  0  0  0  0  0  0  0  0
    0.5626    0.7419    0.0000 N   0  0  0  0  0  0  0  0  0  0  0  0
    0.3343   -0.7256    0.0000 N   0  0  0  0  0  0  0  0  0  0  0  0
   -2.1605    0.3180    0.0000 N   0  0  0  0  0  0  0  0  0  0  0  0
    2.5030    1.9323    0.0000 N   0  0  0  0  0  0  0  0  0  0  0  0
   -2.5030   -2.6498    0.0000 N   0  0  0  0  0  0  0  0  0  0  0  0
    0.3506    2.2095    0.0000 C   0  0  3  0  0  0  0  0  0  0  0  0
   -0.7093    1.1659    0.0000 C   0  0  0  0  0  0  0  0  0  0  0  0
   -0.7256    0.3343    0.0000 C   0  0  0  0  0  0  0  0  0  0  0  0
    0.0734    0.0571    0.0000 C   0  0  0  0  0  0  0  0  0  0  0  0
    0.9213    2.7639    0.0000 C   0  0  3  0  0  0  0  0  0  0  0  0
   -1.4431   -0.0734    0.0000 C   0  0  0  0  0  0  0  0  0  0  0  0
   -0.4484    2.4704    0.0000 C   0  0  0  0  0  0  0  0  0  0  0  0
   -1.4431    1.5735    0.0000 C   0  0  0  0  0  0  0  0  0  0  0  0
    0.8724    1.5735    0.0000 C   0  0  0  0  0  0  0  0  0  0  0  0
    0.7745    3.5629    0.0000 C   0  0  0  0  0  0  0  0  0  0  0  0
   -2.1443    1.1659    0.0000 C   0  0  0  0  0  0  0  0  0  0  0  0
   -0.2365   -1.3616    0.0000 C   0  0  0  0  0  0  0  0  0  0  0  0
   -0.6115    3.2857    0.0000 C   0  0  0  0  0  0  0  0  0  0  0  0
   -0.0081    3.8237    0.0000 C   0  0  0  0  0  0  0  0  0  0  0  0
    1.6877    1.7366    0.0000 C   0  0  0  0  0  0  0  0  0  0  0  0
   -1.0354   -1.1822    0.0000 C   0  0  0  0  0  0  0  0  0  0  0  0
    0.0244   -2.1443    0.0000 C   0  0  0  0  0  0  0  0  0  0  0  0
   -1.3289   -2.5682    0.0000 C   0  0  0  0  0  0  0  0  0  0  0  0
   -1.5898   -1.7855    0.0000 C   0  0  0  0  0  0  0  0  0  0  0  0
   -0.5299   -2.7475    0.0000 C   0  0  0  0  0  0  0  0  0  0  0  0
  1  4  2  0  0  0  0
  1  5  2  0  0  0  0
  1 11  1  0  0  0  0
  1 29  1  0  0  0  0
 16  2  1  1  0  0  0
  3 17  2  0  0  0  0
  6  7  1  0  0  0  0
  6 12  1  0  0  0  0
  6 13  1  0  0  0  0
  7 15  2  0  0  0  0
  8 15  1  0  0  0  0
  8 23  1  0  0  0  0
  9 17  1  0  0  0  0
  9 22  1  0  0  0  0
 10 26  3  0  0  0  0
 12 16  1  0  0  0  0
 12 18  1  0  0  0  0
 12 20  1  6  0  0  0
 13 14  2  0  0  0  0
 13 19  1  0  0  0  0
 14 15  1  0  0  0  0
 14 17  1  0  0  0  0
 16 21  1  0  0  0  0
 18 24  1  0  0  0  0
 19 22  2  0  0  0  0
 20 26  1  0  0  0  0
 21 25  1  0  0  0  0
 23 27  2  0  0  0  0
 23 28  1  0  0  0  0
 24 25  1  0  0  0  0
 27 30  1  0  0  0  0
 28 31  2  0  0  0  0
 29 30  2  0  0  0  0
 29 31  1  0  0  0  0
M  END
> <PUBCHEM_COMPOUND_ID_TYPE>
0

> <PUBCHEM_TOTAL_CHARGE>
0

> <PUBCHEM_SUBSTANCE_ID>
310946754

> <PUBCHEM_SUBSTANCE_VERSION>
1

> <PUBCHEM_EXT_DATASOURCE_NAME>
4488

> <PUBCHEM_EXT_DATASOURCE_REGID>
SCHEMBL16124878

> <PUBCHEM_SUBSTANCE_COMMENT>
InChI=1S/C20H21FN6O3S/c21-16-3-1-2-9-20(16,10-11-22)27-15-8-12-24-19(28)17(15)18(26-27)25-13-4-6-14(7-5-13)31(23,29)30/h4-8,12,16H,1-3,9-10H2,(H,24,28)(H,25,26)(H2,23,29,30)/t16-,20-/m1/s1
InChIKey=WKORADNFARQVIY-OXQOHEQNSA-N

> <PUBCHEM_SUBSTANCE_SYNONYM>
SCHEMBL16124878

> <PUBCHEM_XREF_EXT_ID>
SCHEMBL16124878

> <PUBCHEM_EXT_DATASOURCE_URL>
https://www.surechembl.org/

> <PUBCHEM_EXT_SUBSTANCE_URL>
https://www.surechembl.org/chemical/SCHEMBL16124878

> <PUBCHEM_CID_ASSOCIATIONS>
117612629  1

> <PUBCHEM_COORDINATE_TYPE>
1
3

> <PUBCHEM_BONDANNOTATIONS>
12  20  6
16  2  5

$$$$
