310944210
  -OEChem-07211613022D

 34 37  0     0  0  0  0  0  0999 V2000
   -0.6824    3.9144    0.0000 F   0  0  0  0  0  0  0  0  0  0  0  0
    2.8871   -2.3097    0.0000 F   0  0  0  0  0  0  0  0  0  0  0  0
   -1.4473    0.2100    0.0000 N   0  0  0  0  0  0  0  0  0  0  0  0
   -0.7274   -1.0498    0.0000 N   0  0  0  0  0  0  0  0  0  0  0  0
    1.4623    3.4495    0.0000 N   0  0  0  0  0  0  0  0  0  0  0  0
   -2.8571    3.4495    0.0000 N   0  0  0  0  0  0  0  0  0  0  0  0
    1.4473   -3.9144    0.0000 N   0  0  0  0  0  0  0  0  0  0  0  0
    3.6070   -0.2849    0.0000 N   0  0  0  0  0  0  0  0  0  0  0  0
   -0.7424    0.6449    0.0000 C   0  0  0  0  0  0  0  0  0  0  0  0
   -0.0075   -0.5999    0.0000 C   0  0  0  0  0  0  0  0  0  0  0  0
   -0.7274    1.4547    0.0000 C   0  0  0  0  0  0  0  0  0  0  0  0
    0.7424   -1.0198    0.0000 C   0  0  0  0  0  0  0  0  0  0  0  0
   -1.4473   -0.5999    0.0000 C   0  0  0  0  0  0  0  0  0  0  0  0
    0.0075    0.2100    0.0000 C   0  0  0  0  0  0  0  0  0  0  0  0
    0.0225    2.6996    0.0000 C   0  0  0  0  0  0  0  0  0  0  0  0
   -1.4173    2.6996    0.0000 C   0  0  0  0  0  0  0  0  0  0  0  0
   -0.0075    1.8597    0.0000 C   0  0  0  0  0  0  0  0  0  0  0  0
   -1.4173    1.8747    0.0000 C   0  0  0  0  0  0  0  0  0  0  0  0
    1.4473   -2.2497    0.0000 C   0  0  0  0  0  0  0  0  0  0  0  0
    2.1671   -1.0348    0.0000 C   0  0  0  0  0  0  0  0  0  0  0  0
    0.7424   -1.8147    0.0000 C   0  0  0  0  0  0  0  0  0  0  0  0
    1.4473   -0.6299    0.0000 C   0  0  0  0  0  0  0  0  0  0  0  0
   -0.7124    3.1046    0.0000 C   0  0  0  0  0  0  0  0  0  0  0  0
    2.1522   -1.8597    0.0000 C   0  0  0  0  0  0  0  0  0  0  0  0
   -2.1671   -1.0049    0.0000 C   0  0  0  0  0  0  0  0  0  0  0  0
   -2.9020   -0.6149    0.0000 C   0  0  0  0  0  0  0  0  0  0  0  0
   -2.1822   -1.8447    0.0000 C   0  0  0  0  0  0  0  0  0  0  0  0
    0.7424    3.0895    0.0000 C   0  0  0  0  0  0  0  0  0  0  0  0
   -2.1522    3.0895    0.0000 C   0  0  0  0  0  0  0  0  0  0  0  0
    1.4473   -3.1046    0.0000 C   0  0  0  0  0  0  0  0  0  0  0  0
    2.8871   -0.6449    0.0000 C   0  0  0  0  0  0  0  0  0  0  0  0
   -3.6070   -1.0198    0.0000 C   0  0  0  0  0  0  0  0  0  0  0  0
   -2.8871   -2.2347    0.0000 C   0  0  0  0  0  0  0  0  0  0  0  0
   -3.6070   -1.8147    0.0000 C   0  0  0  0  0  0  0  0  0  0  0  0
  1 23  1  0  0  0  0
  2 24  1  0  0  0  0
  3  9  2  0  0  0  0
  3 13  1  0  0  0  0
  4 10  1  0  0  0  0
  4 13  2  0  0  0  0
  5 28  3  0  0  0  0
  6 29  3  0  0  0  0
  7 30  3  0  0  0  0
  8 31  3  0  0  0  0
  9 11  1  0  0  0  0
  9 14  1  0  0  0  0
 10 12  1  0  0  0  0
 10 14  2  0  0  0  0
 11 17  2  0  0  0  0
 11 18  1  0  0  0  0
 12 21  2  0  0  0  0
 12 22  1  0  0  0  0
 13 25  1  0  0  0  0
 15 17  1  0  0  0  0
 15 23  2  0  0  0  0
 15 28  1  0  0  0  0
 16 18  2  0  0  0  0
 16 23  1  0  0  0  0
 16 29  1  0  0  0  0
 19 21  1  0  0  0  0
 19 24  2  0  0  0  0
 19 30  1  0  0  0  0
 20 22  2  0  0  0  0
 20 24  1  0  0  0  0
 20 31  1  0  0  0  0
 25 26  2  0  0  0  0
 25 27  1  0  0  0  0
 26 32  1  0  0  0  0
 27 33  2  0  0  0  0
 32 34  2  0  0  0  0
 33 34  1  0  0  0  0
M  END
> <PUBCHEM_COMPOUND_ID_TYPE>
0

> <PUBCHEM_TOTAL_CHARGE>
0

> <PUBCHEM_SUBSTANCE_ID>
310944210

> <PUBCHEM_SUBSTANCE_VERSION>
1

> <PUBCHEM_EXT_DATASOURCE_NAME>
4488

> <PUBCHEM_EXT_DATASOURCE_REGID>
SCHEMBL16122285

> <PUBCHEM_SUBSTANCE_COMMENT>
InChI=1S/C26H10F2N6/c27-24-18(11-29)6-16(7-19(24)12-30)22-10-23(34-26(33-22)15-4-2-1-3-5-15)17-8-20(13-31)25(28)21(9-17)14-32/h1-10H
InChIKey=LKMYPKXLSGKWMC-UHFFFAOYSA-N

> <PUBCHEM_SUBSTANCE_SYNONYM>
SCHEMBL16122285

> <PUBCHEM_XREF_EXT_ID>
SCHEMBL16122285

> <PUBCHEM_EXT_DATASOURCE_URL>
https://www.surechembl.org/

> <PUBCHEM_EXT_SUBSTANCE_URL>
https://www.surechembl.org/chemical/SCHEMBL16122285

> <PUBCHEM_CID_ASSOCIATIONS>
117610481  1

> <PUBCHEM_COORDINATE_TYPE>
1
3

$$$$
