310941419
  -OEChem-07211613022D

 19 19  0     1  0  0  0  0  0999 V2000
    2.1904   -1.5806    0.0000 O   0  0  0  0  0  0  0  0  0  0  0  0
   -2.3281    2.3231    0.0000 O   0  0  0  0  0  0  0  0  0  0  0  0
    1.6806   -2.4190    0.0000 O   0  0  0  0  0  0  0  0  0  0  0  0
    0.8521    2.4190    0.0000 O   0  0  0  0  0  0  0  0  0  0  0  0
    1.5872    1.1405    0.0000 O   0  0  0  0  0  0  0  0  0  0  0  0
   -1.3692    1.1405    0.0000 N   0  0  0  0  0  0  0  0  0  0  0  0
    0.1170    0.2776    0.0000 N   0  0  0  0  0  0  0  0  0  0  0  0
    0.1330    1.1405    0.0000 C   0  0  3  0  0  0  0  0  0  0  0  0
   -0.6341    1.5560    0.0000 C   0  0  0  0  0  0  0  0  0  0  0  0
   -2.1523    1.4761    0.0000 C   0  0  0  0  0  0  0  0  0  0  0  0
    1.6806   -1.8752    0.0000 C   0  0  0  0  0  0  0  0  0  0  0  0
    0.8362    1.5401    0.0000 C   0  0  0  0  0  0  0  0  0  0  0  0
   -1.4651    0.2935    0.0000 C   0  0  0  0  0  0  0  0  0  0  0  0
    2.2017   -1.0141    0.0000 C   0  0  0  0  0  0  0  0  0  0  0  0
   -2.7116    0.8209    0.0000 C   0  0  0  0  0  0  0  0  0  0  0  0
   -2.2801    0.1177    0.0000 C   0  0  0  0  0  0  0  0  0  0  0  0
    2.7116   -0.9914    0.0000 C   0  0  0  0  0  0  0  0  0  0  0  0
    1.6806   -1.0141    0.0000 C   0  0  0  0  0  0  0  0  0  0  0  0
    2.1904   -0.4589    0.0000 C   0  0  0  0  0  0  0  0  0  0  0  0
  1 11  1  0  0  0  0
  1 14  1  0  0  0  0
  2 10  2  0  0  0  0
  3 11  2  0  0  0  0
  4 12  2  0  0  0  0
  5 12  1  0  0  0  0
  6  9  1  0  0  0  0
  6 10  1  0  0  0  0
  6 13  1  0  0  0  0
  8  7  1  1  0  0  0
  7 11  1  0  0  0  0
  8  9  1  0  0  0  0
  8 12  1  0  0  0  0
 10 15  1  0  0  0  0
 13 16  1  0  0  0  0
 14 17  1  0  0  0  0
 14 18  1  0  0  0  0
 14 19  1  0  0  0  0
 15 16  1  0  0  0  0
M  END
> <PUBCHEM_COMPOUND_ID_TYPE>
0

> <PUBCHEM_TOTAL_CHARGE>
0

> <PUBCHEM_SUBSTANCE_ID>
310941419

> <PUBCHEM_SUBSTANCE_VERSION>
1

> <PUBCHEM_EXT_DATASOURCE_NAME>
4488

> <PUBCHEM_EXT_DATASOURCE_REGID>
SCHEMBL16119379

> <PUBCHEM_SUBSTANCE_COMMENT>
InChI=1S/C12H20N2O5/c1-12(2,3)19-11(18)13-8(10(16)17)7-14-6-4-5-9(14)15/h8H,4-7H2,1-3H3,(H,13,18)(H,16,17)/t8-/m0/s1
InChIKey=CNPZXKIQKHKDHD-QMMMGPOBSA-N

> <PUBCHEM_SUBSTANCE_SYNONYM>
SCHEMBL16119379

> <PUBCHEM_XREF_EXT_ID>
SCHEMBL16119379

> <PUBCHEM_EXT_DATASOURCE_URL>
https://www.surechembl.org/

> <PUBCHEM_EXT_SUBSTANCE_URL>
https://www.surechembl.org/chemical/SCHEMBL16119379

> <PUBCHEM_CID_ASSOCIATIONS>
117608244  1

> <PUBCHEM_COORDINATE_TYPE>
1
3

> <PUBCHEM_BONDANNOTATIONS>
8  7  5

$$$$
