310941790
  -OEChem-07211613022D

 37 42  0     1  0  0  0  0  0999 V2000
   -2.2906   -4.0140    0.0000 Cl  0  0  0  0  0  0  0  0  0  0  0  0
   -5.3691   -4.0140    0.0000 Cl  0  0  0  0  0  0  0  0  0  0  0  0
    3.6015    2.6146    0.0000 S   0  0  0  0  0  0  0  0  0  0  0  0
   -0.1841   -0.1841    0.0000 O   0  0  0  0  0  0  0  0  0  0  0  0
    3.9993    1.8781    0.0000 O   0  0  0  0  0  0  0  0  0  0  0  0
    3.2038    3.3659    0.0000 O   0  0  0  0  0  0  0  0  0  0  0  0
    1.9223    1.0974    0.0000 N   0  0  0  0  0  0  0  0  0  0  0  0
    2.7030    2.1875    0.0000 N   0  0  0  0  0  0  0  0  0  0  0  0
    3.1744    0.6850    0.0000 N   0  0  0  0  0  0  0  0  0  0  0  0
    2.7030   -0.0074    0.0000 N   0  0  0  0  0  0  0  0  0  0  0  0
   -2.9828   -1.0385    0.0000 N   0  0  0  0  0  0  0  0  0  0  0  0
    2.6735    1.3625    0.0000 C   0  0  0  0  0  0  0  0  0  0  0  0
    1.9075    0.2431    0.0000 C   0  0  0  0  0  0  0  0  0  0  0  0
    0.5229    1.0974    0.0000 C   0  0  0  0  0  0  0  0  0  0  0  0
    0.4935    0.2431    0.0000 C   0  0  0  0  0  0  0  0  0  0  0  0
    1.2153    1.5246    0.0000 C   0  0  0  0  0  0  0  0  0  0  0  0
   -0.2136    1.5393    0.0000 C   0  0  0  0  0  0  0  0  0  0  0  0
    1.2447   -0.1694    0.0000 C   0  0  0  0  0  0  0  0  0  0  0  0
    4.3233    3.0712    0.0000 C   0  0  0  0  0  0  0  0  0  0  0  0
   -0.9648    1.5540    0.0000 C   0  0  0  0  0  0  0  0  0  0  0  0
   -0.5966    2.2169    0.0000 C   0  0  0  0  0  0  0  0  0  0  0  0
    4.8536    4.0140    0.0000 C   0  0  0  0  0  0  0  0  0  0  0  0
    5.3691    3.0712    0.0000 C   0  0  0  0  0  0  0  0  0  0  0  0
   -0.9059    0.2284    0.0000 C   0  0  0  0  0  0  0  0  0  0  0  0
   -1.5835   -0.1841    0.0000 C   0  0  0  0  0  0  0  0  0  0  0  0
   -3.6752   -1.4509    0.0000 C   0  0  3  0  0  0  0  0  0  0  0  0
   -3.6899   -2.3200    0.0000 C   0  0  0  0  0  0  0  0  0  0  0  0
   -1.5982   -1.0532    0.0000 C   0  0  0  0  0  0  0  0  0  0  0  0
   -2.2906    0.2284    0.0000 C   0  0  0  0  0  0  0  0  0  0  0  0
   -2.2611   -1.4509    0.0000 C   0  0  0  0  0  0  0  0  0  0  0  0
   -2.9681   -0.1841    0.0000 C   0  0  0  0  0  0  0  0  0  0  0  0
   -4.3675   -2.7325    0.0000 C   0  0  0  0  0  0  0  0  0  0  0  0
   -2.9976   -2.7472    0.0000 C   0  0  0  0  0  0  0  0  0  0  0  0
   -3.0123   -3.5721    0.0000 C   0  0  0  0  0  0  0  0  0  0  0  0
   -4.4117   -3.5721    0.0000 C   0  0  0  0  0  0  0  0  0  0  0  0
   -3.6752   -3.9993    0.0000 C   0  0  0  0  0  0  0  0  0  0  0  0
   -4.3675   -1.0532    0.0000 C   0  0  0  0  0  0  0  0  0  0  0  0
  1 34  1  0  0  0  0
  2 35  1  0  0  0  0
  3  5  2  0  0  0  0
  3  6  2  0  0  0  0
  3  8  1  0  0  0  0
  3 19  1  0  0  0  0
  4 15  1  0  0  0  0
  4 24  1  0  0  0  0
  7 12  1  0  0  0  0
  7 13  1  0  0  0  0
  7 16  1  0  0  0  0
  8 12  1  0  0  0  0
  9 10  1  0  0  0  0
  9 12  2  0  0  0  0
 10 13  2  0  0  0  0
 11 26  1  0  0  0  0
 11 30  1  0  0  0  0
 11 31  1  0  0  0  0
 13 18  1  0  0  0  0
 14 15  1  0  0  0  0
 14 16  2  0  0  0  0
 14 17  1  0  0  0  0
 15 18  2  0  0  0  0
 17 20  1  0  0  0  0
 17 21  1  0  0  0  0
 19 22  1  0  0  0  0
 19 23  1  0  0  0  0
 20 21  1  0  0  0  0
 22 23  1  0  0  0  0
 24 25  1  0  0  0  0
 25 28  1  0  0  0  0
 25 29  1  0  0  0  0
 26 27  1  0  0  0  0
 26 37  1  6  0  0  0
 27 32  2  0  0  0  0
 27 33  1  0  0  0  0
 28 30  1  0  0  0  0
 29 31  1  0  0  0  0
 32 35  1  0  0  0  0
 33 34  2  0  0  0  0
 34 36  1  0  0  0  0
 35 36  2  0  0  0  0
M  END
> <PUBCHEM_COMPOUND_ID_TYPE>
0

> <PUBCHEM_TOTAL_CHARGE>
0

> <PUBCHEM_SUBSTANCE_ID>
310941790

> <PUBCHEM_SUBSTANCE_VERSION>
1

> <PUBCHEM_EXT_DATASOURCE_NAME>
4488

> <PUBCHEM_EXT_DATASOURCE_REGID>
SCHEMBL16119821

> <PUBCHEM_SUBSTANCE_COMMENT>
InChI=1S/C26H31Cl2N5O3S/c1-16(19-10-20(27)12-21(28)11-19)32-8-6-17(7-9-32)15-36-24-13-25-29-30-26(31-37(34,35)22-4-5-22)33(25)14-23(24)18-2-3-18/h10-14,16-18,22H,2-9,15H2,1H3,(H,30,31)/t16-/m0/s1
InChIKey=DCVHSRYJLZCVOJ-INIZCTEOSA-N

> <PUBCHEM_SUBSTANCE_SYNONYM>
SCHEMBL16119821

> <PUBCHEM_XREF_EXT_ID>
SCHEMBL16119821

> <PUBCHEM_EXT_DATASOURCE_URL>
https://www.surechembl.org/

> <PUBCHEM_EXT_SUBSTANCE_URL>
https://www.surechembl.org/chemical/SCHEMBL16119821

> <PUBCHEM_CID_ASSOCIATIONS>
117608539  1

> <PUBCHEM_COORDINATE_TYPE>
1
3

> <PUBCHEM_BONDANNOTATIONS>
26  37  6

$$$$
