310929222
  -OEChem-07211613022D

 42 46  0     0  0  0  0  0  0999 V2000
    0.7144   -1.6500    0.0000 O   0  0  0  0  0  0  0  0  0  0  0  0
   -3.5724   -4.1250    0.0000 O   0  0  0  0  0  0  0  0  0  0  0  0
   -5.0013   -0.8250    0.0000 O   0  0  0  0  0  0  0  0  0  0  0  0
    1.4290    2.8875    0.0000 O   0  0  0  0  0  0  0  0  0  0  0  0
    2.1434    1.6500    0.0000 O   0  0  0  0  0  0  0  0  0  0  0  0
    0.7144    1.6500    0.0000 N   0  0  0  0  0  0  0  0  0  0  0  0
   -2.1434   -1.6500    0.0000 N   0  0  0  0  0  0  0  0  0  0  0  0
   -1.4290   -2.8875    0.0000 N   0  0  0  0  0  0  0  0  0  0  0  0
   -5.7158   -2.0625    0.0000 N   0  0  0  0  0  0  0  0  0  0  0  0
   -7.8592   -1.6500    0.0000 N   0  0  0  0  0  0  0  0  0  0  0  0
   -9.2881   -0.8250    0.0000 N   0  0  0  0  0  0  0  0  0  0  0  0
    0.0000   -0.4125    0.0000 C   0  0  0  0  0  0  0  0  0  0  0  0
    0.0000    0.4125    0.0000 C   0  0  0  0  0  0  0  0  0  0  0  0
    0.7144   -0.8250    0.0000 C   0  0  0  0  0  0  0  0  0  0  0  0
    0.7144    0.8250    0.0000 C   0  0  0  0  0  0  0  0  0  0  0  0
    1.4290   -0.4125    0.0000 C   0  0  0  0  0  0  0  0  0  0  0  0
    1.4290    0.4125    0.0000 C   0  0  0  0  0  0  0  0  0  0  0  0
   -0.7144   -0.8250    0.0000 C   0  0  0  0  0  0  0  0  0  0  0  0
    0.0000   -2.0625    0.0000 C   0  0  0  0  0  0  0  0  0  0  0  0
   -0.7144    0.8250    0.0000 C   0  0  0  0  0  0  0  0  0  0  0  0
   -1.4290   -2.0625    0.0000 C   0  0  0  0  0  0  0  0  0  0  0  0
   -2.8579   -2.0625    0.0000 C   0  0  0  0  0  0  0  0  0  0  0  0
   -4.2868   -2.0625    0.0000 C   0  0  0  0  0  0  0  0  0  0  0  0
   -0.7144   -1.6500    0.0000 C   0  0  0  0  0  0  0  0  0  0  0  0
   -1.4290   -0.4125    0.0000 C   0  0  0  0  0  0  0  0  0  0  0  0
   -1.4290    0.4125    0.0000 C   0  0  0  0  0  0  0  0  0  0  0  0
   -3.5724   -1.6500    0.0000 C   0  0  0  0  0  0  0  0  0  0  0  0
   -3.5724   -3.3000    0.0000 C   0  0  0  0  0  0  0  0  0  0  0  0
   -2.8579   -2.8875    0.0000 C   0  0  0  0  0  0  0  0  0  0  0  0
    0.0000   -2.8875    0.0000 C   0  0  0  0  0  0  0  0  0  0  0  0
   -4.2868   -2.8875    0.0000 C   0  0  0  0  0  0  0  0  0  0  0  0
   -5.0013   -1.6500    0.0000 C   0  0  0  0  0  0  0  0  0  0  0  0
    1.4290    2.0625    0.0000 C   0  0  0  0  0  0  0  0  0  0  0  0
   -0.7144   -3.3000    0.0000 C   0  0  0  0  0  0  0  0  0  0  0  0
   -6.4302   -1.6500    0.0000 C   0  0  0  0  0  0  0  0  0  0  0  0
   -7.1447   -2.0625    0.0000 C   0  0  0  0  0  0  0  0  0  0  0  0
   -4.2868   -4.5375    0.0000 C   0  0  0  0  0  0  0  0  0  0  0  0
   -8.5736   -2.0625    0.0000 C   0  0  0  0  0  0  0  0  0  0  0  0
   -7.8592   -0.8250    0.0000 C   0  0  0  0  0  0  0  0  0  0  0  0
   -9.2881   -1.6500    0.0000 C   0  0  0  0  0  0  0  0  0  0  0  0
   -8.5736   -0.4125    0.0000 C   0  0  0  0  0  0  0  0  0  0  0  0
  -10.0026   -0.4125    0.0000 C   0  0  0  0  0  0  0  0  0  0  0  0
  1 14  1  0  0  0  0
  1 19  1  0  0  0  0
  2 28  1  0  0  0  0
  2 37  1  0  0  0  0
  3 32  2  0  0  0  0
  4 33  2  0  0  0  0
  5 33  1  0  0  0  0
  6 15  1  0  0  0  0
  6 33  1  0  0  0  0
  7 21  1  0  0  0  0
  7 22  1  0  0  0  0
  8 21  2  0  0  0  0
  8 34  1  0  0  0  0
  9 32  1  0  0  0  0
  9 35  1  0  0  0  0
 10 36  1  0  0  0  0
 10 38  1  0  0  0  0
 10 39  1  0  0  0  0
 11 40  1  0  0  0  0
 11 41  1  0  0  0  0
 11 42  1  0  0  0  0
 12 13  1  0  0  0  0
 12 14  2  0  0  0  0
 12 18  1  0  0  0  0
 13 15  2  0  0  0  0
 13 20  1  0  0  0  0
 14 16  1  0  0  0  0
 15 17  1  0  0  0  0
 16 17  2  0  0  0  0
 18 25  2  0  0  0  0
 19 24  2  0  0  0  0
 19 30  1  0  0  0  0
 20 26  2  0  0  0  0
 21 24  1  0  0  0  0
 22 27  2  0  0  0  0
 22 29  1  0  0  0  0
 23 27  1  0  0  0  0
 23 31  2  0  0  0  0
 23 32  1  0  0  0  0
 25 26  1  0  0  0  0
 28 29  2  0  0  0  0
 28 31  1  0  0  0  0
 30 34  2  0  0  0  0
 35 36  1  0  0  0  0
 38 40  1  0  0  0  0
 39 41  1  0  0  0  0
M  END
> <PUBCHEM_COMPOUND_ID_TYPE>
0

> <PUBCHEM_TOTAL_CHARGE>
0

> <PUBCHEM_SUBSTANCE_ID>
310929222

> <PUBCHEM_SUBSTANCE_VERSION>
1

> <PUBCHEM_EXT_DATASOURCE_NAME>
4488

> <PUBCHEM_EXT_DATASOURCE_REGID>
SCHEMBL16106385

> <PUBCHEM_SUBSTANCE_COMMENT>
InChI=1S/C31H34N6O5/c1-36-13-15-37(16-14-36)12-11-33-30(38)21-17-22(19-24(18-21)41-2)34-29-20-23(9-10-32-29)42-28-8-7-27(35-31(39)40)25-5-3-4-6-26(25)28/h3-10,17-20,35H,11-16H2,1-2H3,(H,32,34)(H,33,38)(H,39,40)
InChIKey=SPFYKDGFTPKSKM-UHFFFAOYSA-N

> <PUBCHEM_SUBSTANCE_SYNONYM>
SCHEMBL16106385

> <PUBCHEM_XREF_EXT_ID>
SCHEMBL16106385

> <PUBCHEM_EXT_DATASOURCE_URL>
https://www.surechembl.org/

> <PUBCHEM_EXT_SUBSTANCE_URL>
https://www.surechembl.org/chemical/SCHEMBL16106385

> <PUBCHEM_CID_ASSOCIATIONS>
117598666  1

> <PUBCHEM_COORDINATE_TYPE>
1
3

$$$$
