310941861
  -OEChem-07211613022D

 28 33  0     0  0  0  0  0  0999 V2000
    3.1217   -1.4013    0.0000 S   0  0  0  0  0  0  0  0  0  0  0  0
   -1.2626    0.3607    0.0000 O   0  0  0  0  0  0  0  0  0  0  0  0
    3.5379   -2.1228    0.0000 O   0  0  0  0  0  0  0  0  0  0  0  0
    2.7055   -2.1228    0.0000 O   0  0  0  0  0  0  0  0  0  0  0  0
    1.0405   -0.5966    0.0000 N   0  0  0  0  0  0  0  0  0  0  0  0
    0.6521   -1.8869    0.0000 N   0  0  0  0  0  0  0  0  0  0  0  0
    1.4845   -1.8869    0.0000 N   0  0  0  0  0  0  0  0  0  0  0  0
    2.5112   -0.8464    0.0000 N   0  0  0  0  0  0  0  0  0  0  0  0
    0.1665    0.5550    0.0000 C   0  0  0  0  0  0  0  0  0  0  0  0
   -0.4856    0.0555    0.0000 C   0  0  0  0  0  0  0  0  0  0  0  0
    0.3746   -1.1099    0.0000 C   0  0  0  0  0  0  0  0  0  0  0  0
   -1.9147   -0.1387    0.0000 C   0  0  0  0  0  0  0  0  0  0  0  0
    1.7343   -1.0961    0.0000 C   0  0  0  0  0  0  0  0  0  0  0  0
    0.0555    1.3735    0.0000 C   0  0  0  0  0  0  0  0  0  0  0  0
    0.9296    0.2220    0.0000 C   0  0  0  0  0  0  0  0  0  0  0  0
   -2.7333    0.0416    0.0000 C   0  0  0  0  0  0  0  0  0  0  0  0
   -1.9563   -0.9851    0.0000 C   0  0  0  0  0  0  0  0  0  0  0  0
   -0.3884   -0.7770    0.0000 C   0  0  0  0  0  0  0  0  0  0  0  0
   -3.1633   -1.4429    0.0000 C   0  0  0  0  0  0  0  0  0  0  0  0
   -3.5241   -0.9712    0.0000 C   0  0  0  0  0  0  0  0  0  0  0  0
   -2.3447   -1.6788    0.0000 C   0  0  0  0  0  0  0  0  0  0  0  0
   -3.1355   -0.6243    0.0000 C   0  0  0  0  0  0  0  0  0  0  0  0
   -3.5101   -0.1387    0.0000 C   0  0  0  0  0  0  0  0  0  0  0  0
   -2.7609   -1.1932    0.0000 C   0  0  0  0  0  0  0  0  0  0  0  0
   -0.4162    2.0118    0.0000 C   0  0  0  0  0  0  0  0  0  0  0  0
    0.3746    2.1228    0.0000 C   0  0  0  0  0  0  0  0  0  0  0  0
   -3.9125   -1.6510    0.0000 C   0  0  0  0  0  0  0  0  0  0  0  0
    3.9125   -1.1377    0.0000 C   0  0  0  0  0  0  0  0  0  0  0  0
  1  3  2  0  0  0  0
  1  4  2  0  0  0  0
  1  8  1  0  0  0  0
  1 28  1  0  0  0  0
  2 10  1  0  0  0  0
  2 12  1  0  0  0  0
  5 11  1  0  0  0  0
  5 13  1  0  0  0  0
  5 15  1  0  0  0  0
  6  7  1  0  0  0  0
  6 11  2  0  0  0  0
  7 13  2  0  0  0  0
  8 13  1  0  0  0  0
  9 10  1  0  0  0  0
  9 14  1  0  0  0  0
  9 15  2  0  0  0  0
 10 18  2  0  0  0  0
 11 18  1  0  0  0  0
 12 16  1  0  0  0  0
 12 17  1  0  0  0  0
 14 25  1  0  0  0  0
 14 26  1  0  0  0  0
 16 22  1  0  0  0  0
 16 23  1  0  0  0  0
 17 21  1  0  0  0  0
 17 24  1  0  0  0  0
 19 21  1  0  0  0  0
 19 22  1  0  0  0  0
 19 27  1  1  0  0  0
 20 23  1  0  0  0  0
 20 24  1  0  0  0  0
 20 27  1  0  0  0  0
 25 26  1  0  0  0  0
M  END
> <PUBCHEM_COMPOUND_ID_TYPE>
0

> <PUBCHEM_TOTAL_CHARGE>
0

> <PUBCHEM_SUBSTANCE_ID>
310941861

> <PUBCHEM_SUBSTANCE_VERSION>
1

> <PUBCHEM_EXT_DATASOURCE_NAME>
4488

> <PUBCHEM_EXT_DATASOURCE_REGID>
SCHEMBL16119893

> <PUBCHEM_SUBSTANCE_COMMENT>
InChI=1S/C20H26N4O3S/c1-28(25,26)23-20-22-21-18-9-17(16(10-24(18)20)13-2-3-13)27-19-14-5-11-4-12(7-14)8-15(19)6-11/h9-15,19H,2-8H2,1H3,(H,22,23)/t11-,12?,14?,15?,19?
InChIKey=ODBLMALRJHFUOR-MUXBEZCZSA-N

> <PUBCHEM_SUBSTANCE_SYNONYM>
SCHEMBL16119893

> <PUBCHEM_XREF_EXT_ID>
SCHEMBL16119893

> <PUBCHEM_EXT_DATASOURCE_URL>
https://www.surechembl.org/

> <PUBCHEM_EXT_SUBSTANCE_URL>
https://www.surechembl.org/chemical/SCHEMBL16119893

> <PUBCHEM_CID_ASSOCIATIONS>
86267495  1

> <PUBCHEM_COORDINATE_TYPE>
1
3

> <PUBCHEM_BONDANNOTATIONS>
19  27  5

$$$$
