310937197
  -OEChem-07211613022D

 46 49  0     1  0  0  0  0  0999 V2000
    3.9680   -0.1571    0.0000 F   0  0  0  0  0  0  0  0  0  0  0  0
    2.5536    0.0000    0.0000 F   0  0  0  0  0  0  0  0  0  0  0  0
    3.8894   -0.9429    0.0000 F   0  0  0  0  0  0  0  0  0  0  0  0
    0.0000   -1.1786    0.0000 F   0  0  0  0  0  0  0  0  0  0  0  0
    0.5893   -2.4751    0.0000 F   0  0  0  0  0  0  0  0  0  0  0  0
    0.7464   -0.8643    0.0000 F   0  0  0  0  0  0  0  0  0  0  0  0
    2.3572   -7.1502    0.0000 F   0  0  0  0  0  0  0  0  0  0  0  0
    3.6144   -7.8573    0.0000 F   0  0  0  0  0  0  0  0  0  0  0  0
    2.7893   -6.4430    0.0000 F   0  0  0  0  0  0  0  0  0  0  0  0
    2.5536   -4.0073    0.0000 O   0  0  0  0  0  0  0  0  0  0  0  0
    2.9465   -5.4216    0.0000 O   0  0  0  0  0  0  0  0  0  0  0  0
    5.3037   -1.8465    0.0000 O   0  0  0  0  0  0  0  0  0  0  0  0
    6.7180   -1.8465    0.0000 O   0  0  0  0  0  0  0  0  0  0  0  0
    3.8501   -4.2823    0.0000 N   0  0  0  0  0  0  0  0  0  0  0  0
    6.0109   -5.5001    0.0000 N   0  0  3  0  0  0  0  0  0  0  0  0
    5.3037   -6.7180    0.0000 N   0  0  0  0  0  0  0  0  0  0  0  0
    6.0109   -3.0643    0.0000 N   0  0  0  0  0  0  0  0  0  0  0  0
    2.9858   -3.3001    0.0000 C   0  0  3  0  0  0  0  0  0  0  0  0
    3.7716   -3.4573    0.0000 C   0  0  3  0  0  0  0  0  0  0  0  0
    2.6322   -2.5536    0.0000 C   0  0  0  0  0  0  0  0  0  0  0  0
    3.1036   -4.6358    0.0000 C   0  0  0  0  0  0  0  0  0  0  0  0
    4.5966   -5.5001    0.0000 C   0  0  0  0  0  0  0  0  0  0  0  0
    4.5573   -4.6751    0.0000 C   0  0  0  0  0  0  0  0  0  0  0  0
    5.3037   -5.9323    0.0000 C   0  0  0  0  0  0  0  0  0  0  0  0
    2.7501   -1.1393    0.0000 C   0  0  0  0  0  0  0  0  0  0  0  0
    1.4929   -1.7286    0.0000 C   0  0  0  0  0  0  0  0  0  0  0  0
    1.8072   -2.4751    0.0000 C   0  0  0  0  0  0  0  0  0  0  0  0
    3.1036   -1.8858    0.0000 C   0  0  0  0  0  0  0  0  0  0  0  0
    1.9643   -1.0607    0.0000 C   0  0  0  0  0  0  0  0  0  0  0  0
    3.2215   -0.4714    0.0000 C   0  0  0  0  0  0  0  0  0  0  0  0
    0.6286   -1.6501    0.0000 C   0  0  0  0  0  0  0  0  0  0  0  0
    3.8894   -6.7180    0.0000 C   0  0  0  0  0  0  0  0  0  0  0  0
    3.8894   -5.9323    0.0000 C   0  0  0  0  0  0  0  0  0  0  0  0
    6.0109   -4.7144    0.0000 C   0  0  0  0  0  0  0  0  0  0  0  0
    3.1822   -7.1502    0.0000 C   0  0  0  0  0  0  0  0  0  0  0  0
    4.3608   -2.9072    0.0000 C   0  0  0  0  0  0  0  0  0  0  0  0
    4.5966   -7.1502    0.0000 C   0  0  0  0  0  0  0  0  0  0  0  0
    6.7180   -5.9323    0.0000 C   0  0  0  0  0  0  0  0  0  0  0  0
    6.7180   -4.2823    0.0000 C   0  0  0  0  0  0  0  0  0  0  0  0
    5.3037   -4.2823    0.0000 C   0  0  0  0  0  0  0  0  0  0  0  0
    6.7180   -3.4573    0.0000 C   0  0  0  0  0  0  0  0  0  0  0  0
    5.3037   -3.4573    0.0000 C   0  0  0  0  0  0  0  0  0  0  0  0
    6.0109   -2.2393    0.0000 C   0  0  0  0  0  0  0  0  0  0  0  0
    7.4252   -5.5001    0.0000 C   0  0  0  0  0  0  0  0  0  0  0  0
    5.3037   -1.0214    0.0000 C   0  0  0  0  0  0  0  0  0  0  0  0
    4.5966   -0.6286    0.0000 C   0  0  0  0  0  0  0  0  0  0  0  0
  1 30  1  0  0  0  0
  2 30  1  0  0  0  0
  3 30  1  0  0  0  0
  4 31  1  0  0  0  0
  5 31  1  0  0  0  0
  6 31  1  0  0  0  0
  7 35  1  0  0  0  0
  8 35  1  0  0  0  0
  9 35  1  0  0  0  0
 18 10  1  6  0  0  0
 10 21  1  0  0  0  0
 11 21  2  0  0  0  0
 12 43  1  0  0  0  0
 12 45  1  0  0  0  0
 13 43  2  0  0  0  0
 14 19  1  0  0  0  0
 14 21  1  0  0  0  0
 14 23  1  0  0  0  0
 15 24  1  0  0  0  0
 15 34  1  0  0  0  0
 15 38  1  0  0  0  0
 16 24  1  0  0  0  0
 16 37  2  0  0  0  0
 17 41  1  0  0  0  0
 17 42  1  0  0  0  0
 17 43  1  0  0  0  0
 18 19  1  0  0  0  0
 18 20  1  0  0  0  0
 19 36  1  6  0  0  0
 20 27  2  0  0  0  0
 20 28  1  0  0  0  0
 22 23  1  0  0  0  0
 22 24  2  0  0  0  0
 22 33  1  0  0  0  0
 25 28  2  0  0  0  0
 25 29  1  0  0  0  0
 25 30  1  0  0  0  0
 26 27  1  0  0  0  0
 26 29  2  0  0  0  0
 26 31  1  0  0  0  0
 32 33  2  0  0  0  0
 32 35  1  0  0  0  0
 32 37  1  0  0  0  0
 34 39  1  0  0  0  0
 34 40  1  0  0  0  0
 38 44  1  0  0  0  0
 39 41  1  0  0  0  0
 40 42  1  0  0  0  0
 45 46  1  0  0  0  0
M  END
> <PUBCHEM_COMPOUND_ID_TYPE>
0

> <PUBCHEM_TOTAL_CHARGE>
0

> <PUBCHEM_SUBSTANCE_ID>
310937197

> <PUBCHEM_SUBSTANCE_VERSION>
1

> <PUBCHEM_EXT_DATASOURCE_NAME>
4488

> <PUBCHEM_EXT_DATASOURCE_REGID>
SCHEMBL16114926

> <PUBCHEM_SUBSTANCE_COMMENT>
InChI=1S/C29H31F9N4O4/c1-4-41(22-6-8-40(9-7-22)25(43)45-5-2)24-18(12-21(14-39-24)29(36,37)38)15-42-16(3)23(46-26(42)44)17-10-19(27(30,31)32)13-20(11-17)28(33,34)35/h10-14,16,22-23H,4-9,15H2,1-3H3/t16-,23-/m0/s1
InChIKey=HXZXQDIFWUCZDS-HJPURHCSSA-N

> <PUBCHEM_SUBSTANCE_SYNONYM>
SCHEMBL16114926

> <PUBCHEM_XREF_EXT_ID>
SCHEMBL16114926

> <PUBCHEM_EXT_DATASOURCE_URL>
https://www.surechembl.org/

> <PUBCHEM_EXT_SUBSTANCE_URL>
https://www.surechembl.org/chemical/SCHEMBL16114926

> <PUBCHEM_CID_ASSOCIATIONS>
85473277  1

> <PUBCHEM_COORDINATE_TYPE>
1
3

> <PUBCHEM_BONDANNOTATIONS>
18  10  6
19  36  6

$$$$
