310948416
  -OEChem-07211613022D

 37 41  0     1  0  0  0  0  0999 V2000
   -0.4434   -2.8753    0.0000 F   0  0  0  0  0  0  0  0  0  0  0  0
    0.6236   -3.8314    0.0000 F   0  0  0  0  0  0  0  0  0  0  0  0
   -1.1639    2.1686    0.0000 O   0  0  0  0  0  0  0  0  0  0  0  0
    1.7321   -2.5982    0.0000 O   0  0  0  0  0  0  0  0  0  0  0  0
    1.6074    2.0300    0.0000 N   0  0  0  0  0  0  0  0  0  0  0  0
    1.2749    1.2679    0.0000 N   0  0  0  0  0  0  0  0  0  0  0  0
   -0.1108    0.7413    0.0000 N   0  0  0  0  0  0  0  0  0  0  0  0
   -0.4434    3.4157    0.0000 N   0  0  0  0  0  0  0  0  0  0  0  0
    2.4665    0.0069    0.0000 N   0  0  0  0  0  0  0  0  0  0  0  0
    0.2910    2.1686    0.0000 C   0  0  0  0  0  0  0  0  0  0  0  0
    0.9839    2.5843    0.0000 C   0  0  0  0  0  0  0  0  0  0  0  0
    0.4434    1.3649    0.0000 C   0  0  0  0  0  0  0  0  0  0  0  0
   -0.4573    2.5843    0.0000 C   0  0  0  0  0  0  0  0  0  0  0  0
    2.4111    2.1963    0.0000 C   0  0  3  0  0  0  0  0  0  0  0  0
    0.9977    3.4157    0.0000 C   0  0  0  0  0  0  0  0  0  0  0  0
    2.9930    1.5866    0.0000 C   0  0  3  0  0  0  0  0  0  0  0  0
    0.2494    3.8314    0.0000 C   0  0  0  0  0  0  0  0  0  0  0  0
    2.6882    2.9861    0.0000 C   0  0  0  0  0  0  0  0  0  0  0  0
    0.1386   -0.0347    0.0000 C   0  0  0  0  0  0  0  0  0  0  0  0
    3.7829    1.7667    0.0000 C   0  0  0  0  0  0  0  0  0  0  0  0
    2.7159    0.7829    0.0000 C   0  0  0  0  0  0  0  0  0  0  0  0
    3.4919    3.1524    0.0000 C   0  0  0  0  0  0  0  0  0  0  0  0
   -0.3880   -0.6582    0.0000 C   0  0  0  0  0  0  0  0  0  0  0  0
    0.9561   -0.2286    0.0000 C   0  0  0  0  0  0  0  0  0  0  0  0
   -1.8983    2.5843    0.0000 C   0  0  0  0  0  0  0  0  0  0  0  0
    4.0323    2.5566    0.0000 C   0  0  0  0  0  0  0  0  0  0  0  0
    0.6652   -1.6420    0.0000 C   0  0  0  0  0  0  0  0  0  0  0  0
   -0.1386   -1.4619    0.0000 C   0  0  0  0  0  0  0  0  0  0  0  0
    1.1917   -1.0323    0.0000 C   0  0  0  0  0  0  0  0  0  0  0  0
   -2.5912    2.1825    0.0000 C   0  0  0  0  0  0  0  0  0  0  0  0
    0.9007   -2.4041    0.0000 C   0  0  0  0  0  0  0  0  0  0  0  0
    0.3603   -3.0416    0.0000 C   0  0  0  0  0  0  0  0  0  0  0  0
   -3.3118    2.5704    0.0000 C   0  0  0  0  0  0  0  0  0  0  0  0
   -2.6051    1.3372    0.0000 C   0  0  0  0  0  0  0  0  0  0  0  0
   -4.0323    2.1686    0.0000 C   0  0  0  0  0  0  0  0  0  0  0  0
   -3.3256    0.9353    0.0000 C   0  0  0  0  0  0  0  0  0  0  0  0
   -4.0323    1.3510    0.0000 C   0  0  0  0  0  0  0  0  0  0  0  0
  1 32  1  0  0  0  0
  2 32  1  0  0  0  0
  3 13  1  0  0  0  0
  3 25  1  0  0  0  0
  4 31  2  0  0  0  0
  5  6  1  0  0  0  0
  5 11  1  0  0  0  0
 14  5  1  1  0  0  0
  6 12  2  0  0  0  0
  7 12  1  0  0  0  0
  7 19  1  0  0  0  0
  8 13  2  0  0  0  0
  8 17  1  0  0  0  0
  9 21  3  0  0  0  0
 10 11  2  0  0  0  0
 10 12  1  0  0  0  0
 10 13  1  0  0  0  0
 11 15  1  0  0  0  0
 14 16  1  0  0  0  0
 14 18  1  0  0  0  0
 15 17  2  0  0  0  0
 16 20  1  0  0  0  0
 16 21  1  6  0  0  0
 18 22  1  0  0  0  0
 19 23  2  0  0  0  0
 19 24  1  0  0  0  0
 20 26  1  0  0  0  0
 22 26  1  0  0  0  0
 23 28  1  0  0  0  0
 24 29  2  0  0  0  0
 25 30  1  0  0  0  0
 27 28  2  0  0  0  0
 27 29  1  0  0  0  0
 27 31  1  0  0  0  0
 30 33  2  0  0  0  0
 30 34  1  0  0  0  0
 31 32  1  0  0  0  0
 33 35  1  0  0  0  0
 34 36  2  0  0  0  0
 35 37  2  0  0  0  0
 36 37  1  0  0  0  0
M  END
> <PUBCHEM_COMPOUND_ID_TYPE>
0

> <PUBCHEM_TOTAL_CHARGE>
0

> <PUBCHEM_SUBSTANCE_ID>
310948416

> <PUBCHEM_SUBSTANCE_VERSION>
1

> <PUBCHEM_EXT_DATASOURCE_NAME>
4488

> <PUBCHEM_EXT_DATASOURCE_REGID>
SCHEMBL16126597

> <PUBCHEM_SUBSTANCE_COMMENT>
InChI=1S/C28H25F2N5O2/c29-26(30)25(36)19-10-12-21(13-11-19)33-27-24-23(35(34-27)22-9-5-4-8-20(22)16-31)14-15-32-28(24)37-17-18-6-2-1-3-7-18/h1-3,6-7,10-15,20,22,26H,4-5,8-9,17H2,(H,33,34)/t20-,22+/m1/s1
InChIKey=HUNXODFMIORXCK-IRLDBZIGSA-N

> <PUBCHEM_SUBSTANCE_SYNONYM>
SCHEMBL16126597

> <PUBCHEM_XREF_EXT_ID>
SCHEMBL16126597

> <PUBCHEM_EXT_DATASOURCE_URL>
https://www.surechembl.org/

> <PUBCHEM_EXT_SUBSTANCE_URL>
https://www.surechembl.org/chemical/SCHEMBL16126597

> <PUBCHEM_CID_ASSOCIATIONS>
117613977  1

> <PUBCHEM_COORDINATE_TYPE>
1
3

> <PUBCHEM_BONDANNOTATIONS>
16  21  6
14  5  5

$$$$
