310945061
  -OEChem-07211613022D

 34 38  0     0  0  0  0  0  0999 V2000
   -4.1298   -1.2246    0.0000 S   0  0  0  0  0  0  0  0  0  0  0  0
    3.9689   -2.3867    0.0000 O   0  0  0  0  0  0  0  0  0  0  0  0
    4.7018   -1.1531    0.0000 O   0  0  0  0  0  0  0  0  0  0  0  0
   -1.8950    0.0983    0.0000 N   0  0  0  0  0  0  0  0  0  0  0  0
   -4.2727   -2.5476    0.0000 N   0  0  0  0  0  0  0  0  0  0  0  0
   -0.4470    0.0805    0.0000 C   0  0  0  0  0  0  0  0  0  0  0  0
   -0.4291    0.9028    0.0000 C   0  0  0  0  0  0  0  0  0  0  0  0
   -1.1621   -0.3307    0.0000 C   0  0  0  0  0  0  0  0  0  0  0  0
   -1.1800    1.3319    0.0000 C   0  0  0  0  0  0  0  0  0  0  0  0
    0.3040   -0.3307    0.0000 C   0  0  0  0  0  0  0  0  0  0  0  0
    0.2861    1.3140    0.0000 C   0  0  0  0  0  0  0  0  0  0  0  0
   -1.1800   -1.1888    0.0000 C   0  0  0  0  0  0  0  0  0  0  0  0
   -2.6459   -1.1710    0.0000 C   0  0  0  0  0  0  0  0  0  0  0  0
   -1.9665    1.1174    0.0000 C   0  0  0  0  0  0  0  0  0  0  0  0
   -1.3766    2.1006    0.0000 C   0  0  0  0  0  0  0  0  0  0  0  0
    0.3040   -1.1531    0.0000 C   0  0  0  0  0  0  0  0  0  0  0  0
    1.0190    0.0626    0.0000 C   0  0  0  0  0  0  0  0  0  0  0  0
   -2.6102   -0.3307    0.0000 C   0  0  0  0  0  0  0  0  0  0  0  0
   -1.8771   -1.5822    0.0000 C   0  0  0  0  0  0  0  0  0  0  0  0
    1.0548    0.9207    0.0000 C   0  0  0  0  0  0  0  0  0  0  0  0
    0.3218    2.1543    0.0000 C   0  0  0  0  0  0  0  0  0  0  0  0
   -3.3610   -1.5822    0.0000 C   0  0  0  0  0  0  0  0  0  0  0  0
   -2.1811    1.8860    0.0000 C   0  0  0  0  0  0  0  0  0  0  0  0
    1.7521   -1.1531    0.0000 C   0  0  0  0  0  0  0  0  0  0  0  0
    1.0548   -1.5643    0.0000 C   0  0  0  0  0  0  0  0  0  0  0  0
    1.7521   -0.3486    0.0000 C   0  0  0  0  0  0  0  0  0  0  0  0
    1.7521    1.3140    0.0000 C   0  0  0  0  0  0  0  0  0  0  0  0
    1.0190    2.5476    0.0000 C   0  0  0  0  0  0  0  0  0  0  0  0
   -3.4504   -2.4045    0.0000 C   0  0  0  0  0  0  0  0  0  0  0  0
    1.7521    2.1364    0.0000 C   0  0  0  0  0  0  0  0  0  0  0  0
    2.5207   -1.5822    0.0000 C   0  0  0  0  0  0  0  0  0  0  0  0
   -4.7019   -1.8503    0.0000 C   0  0  0  0  0  0  0  0  0  0  0  0
    3.2359   -1.1710    0.0000 C   0  0  0  0  0  0  0  0  0  0  0  0
    3.9689   -1.5643    0.0000 C   0  0  0  0  0  0  0  0  0  0  0  0
  1 22  1  0  0  0  0
  1 32  1  0  0  0  0
  2 34  2  0  0  0  0
  3 34  1  0  0  0  0
  4  8  2  0  0  0  0
  4 18  1  0  0  0  0
  5 29  1  0  0  0  0
  5 32  2  0  0  0  0
  6  7  2  0  0  0  0
  6  8  1  0  0  0  0
  6 10  1  0  0  0  0
  7  9  1  0  0  0  0
  7 11  1  0  0  0  0
  8 12  1  0  0  0  0
  9 14  1  0  0  0  0
  9 15  1  0  0  0  0
 10 16  2  0  0  0  0
 10 17  1  0  0  0  0
 11 20  2  0  0  0  0
 11 21  1  0  0  0  0
 12 19  2  0  0  0  0
 13 18  2  0  0  0  0
 13 19  1  0  0  0  0
 13 22  1  0  0  0  0
 14 23  1  0  0  0  0
 15 23  1  0  0  0  0
 16 25  1  0  0  0  0
 17 26  2  0  0  0  0
 20 27  1  0  0  0  0
 21 28  2  0  0  0  0
 22 29  2  0  0  0  0
 24 25  2  0  0  0  0
 24 26  1  0  0  0  0
 24 31  1  0  0  0  0
 27 30  2  0  0  0  0
 28 30  1  0  0  0  0
 31 33  2  0  0  0  0
 33 34  1  0  0  0  0
M  END
> <PUBCHEM_COMPOUND_ID_TYPE>
0

> <PUBCHEM_TOTAL_CHARGE>
0

> <PUBCHEM_SUBSTANCE_ID>
310945061

> <PUBCHEM_SUBSTANCE_VERSION>
1

> <PUBCHEM_EXT_DATASOURCE_NAME>
4488

> <PUBCHEM_EXT_DATASOURCE_REGID>
SCHEMBL16123150

> <PUBCHEM_SUBSTANCE_COMMENT>
InChI=1S/C29H24N2O2S/c32-27(33)16-11-20-9-12-23(13-10-20)29(25-15-14-24(17-31-25)26-18-30-19-34-26)28(22-7-4-8-22)21-5-2-1-3-6-21/h1-3,5-6,9-19,22H,4,7-8H2,(H,32,33)/b16-11+,29-28-
InChIKey=SHWZFZIWQQHKNP-OSJWXVSSSA-N

> <PUBCHEM_SUBSTANCE_SYNONYM>
SCHEMBL16123150

> <PUBCHEM_XREF_EXT_ID>
SCHEMBL16123150

> <PUBCHEM_EXT_DATASOURCE_URL>
https://www.surechembl.org/

> <PUBCHEM_EXT_SUBSTANCE_URL>
https://www.surechembl.org/chemical/SCHEMBL16123150

> <PUBCHEM_CID_ASSOCIATIONS>
86271375  1

> <PUBCHEM_COORDINATE_TYPE>
1
3

$$$$
