310934953
  -OEChem-07211613022D

 26 29  0     1  0  0  0  0  0999 V2000
    0.7846    0.6674    0.0000 S   0  0  0  0  0  0  0  0  0  0  0  0
    5.8391    1.0165    0.0000 F   0  0  0  0  0  0  0  0  0  0  0  0
    2.9603   -1.7756    0.0000 O   0  0  0  0  0  0  0  0  0  0  0  0
    4.1554   -1.3939    0.0000 O   0  0  0  0  0  0  0  0  0  0  0  0
    0.7846   -0.6674    0.0000 N   0  0  0  0  0  0  0  0  0  0  0  0
    3.3641   -0.4125    0.0000 C   0  0  3  0  0  0  0  0  0  0  0  0
    4.1891   -0.4125    0.0000 C   0  0  0  0  0  0  0  0  0  0  0  0
    2.0946    0.0000    0.0000 C   0  0  3  0  0  0  0  0  0  0  0  0
    2.5795   -0.6674    0.0000 C   0  0  0  0  0  0  0  0  0  0  0  0
    3.5636   -1.2130    0.0000 C   0  0  0  0  0  0  0  0  0  0  0  0
    3.3641    0.4125    0.0000 C   0  0  0  0  0  0  0  0  0  0  0  0
    1.2696    0.0000    0.0000 C   0  0  0  0  0  0  0  0  0  0  0  0
    2.5795    0.6674    0.0000 C   0  0  0  0  0  0  0  0  0  0  0  0
    4.6016    0.3020    0.0000 C   0  0  0  0  0  0  0  0  0  0  0  0
    0.0000    0.4125    0.0000 C   0  0  0  0  0  0  0  0  0  0  0  0
    0.0000   -0.4125    0.0000 C   0  0  0  0  0  0  0  0  0  0  0  0
    4.6016   -1.1270    0.0000 C   0  0  0  0  0  0  0  0  0  0  0  0
    5.4266    0.3020    0.0000 C   0  0  0  0  0  0  0  0  0  0  0  0
    5.4266   -1.1270    0.0000 C   0  0  0  0  0  0  0  0  0  0  0  0
    5.8391   -0.4125    0.0000 C   0  0  0  0  0  0  0  0  0  0  0  0
   -0.7144    0.8250    0.0000 C   0  0  0  0  0  0  0  0  0  0  0  0
   -0.7144   -0.8250    0.0000 C   0  0  0  0  0  0  0  0  0  0  0  0
    4.1891    1.0165    0.0000 C   0  0  0  0  0  0  0  0  0  0  0  0
   -1.4290    0.4125    0.0000 C   0  0  0  0  0  0  0  0  0  0  0  0
   -1.4290   -0.4125    0.0000 C   0  0  0  0  0  0  0  0  0  0  0  0
    3.1459   -2.5795    0.0000 C   0  0  0  0  0  0  0  0  0  0  0  0
  1 12  1  0  0  0  0
  1 15  1  0  0  0  0
  2 18  1  0  0  0  0
  3 10  1  0  0  0  0
  3 26  1  0  0  0  0
  4 10  2  0  0  0  0
  5 12  2  0  0  0  0
  5 16  1  0  0  0  0
  6  7  1  0  0  0  0
  6  9  1  0  0  0  0
  6 10  1  6  0  0  0
  6 11  1  0  0  0  0
  7 14  1  0  0  0  0
  7 17  2  0  0  0  0
  8  9  1  0  0  0  0
  8 12  1  0  0  0  0
  8 13  1  0  0  0  0
 11 13  1  0  0  0  0
 14 18  2  0  0  0  0
 14 23  1  0  0  0  0
 15 16  1  0  0  0  0
 15 21  2  0  0  0  0
 16 22  2  0  0  0  0
 17 19  1  0  0  0  0
 18 20  1  0  0  0  0
 19 20  2  0  0  0  0
 21 24  1  0  0  0  0
 22 25  1  0  0  0  0
 24 25  2  0  0  0  0
M  END
> <PUBCHEM_COMPOUND_ID_TYPE>
0

> <PUBCHEM_TOTAL_CHARGE>
0

> <PUBCHEM_SUBSTANCE_ID>
310934953

> <PUBCHEM_SUBSTANCE_VERSION>
1

> <PUBCHEM_EXT_DATASOURCE_NAME>
4488

> <PUBCHEM_EXT_DATASOURCE_REGID>
SCHEMBL16112469

> <PUBCHEM_SUBSTANCE_COMMENT>
InChI=1S/C21H20FNO2S/c1-13-15(6-5-7-16(13)22)21(20(24)25-2)11-10-14(12-21)19-23-17-8-3-4-9-18(17)26-19/h3-9,14H,10-12H2,1-2H3/t14?,21-/m0/s1
InChIKey=DWUGXYRHUNVCEI-YNNZGITBSA-N

> <PUBCHEM_SUBSTANCE_SYNONYM>
SCHEMBL16112469

> <PUBCHEM_XREF_EXT_ID>
SCHEMBL16112469

> <PUBCHEM_EXT_DATASOURCE_URL>
https://www.surechembl.org/

> <PUBCHEM_EXT_SUBSTANCE_URL>
https://www.surechembl.org/chemical/SCHEMBL16112469

> <PUBCHEM_CID_ASSOCIATIONS>
117603074  1

> <PUBCHEM_COORDINATE_TYPE>
1
3

> <PUBCHEM_BONDANNOTATIONS>
6  10  6

$$$$
