310943733
  -OEChem-07211613022D

 36 39  0     0  0  0  0  0  0999 V2000
    4.2936   -2.5215    0.0000 F   0  0  0  0  0  0  0  0  0  0  0  0
   -2.8572   -0.0703    0.0000 O   0  0  0  0  0  0  0  0  0  0  0  0
   -4.2936    2.3966    0.0000 O   0  0  0  0  0  0  0  0  0  0  0  0
    1.4364   -0.0703    0.0000 O   0  0  0  0  0  0  0  0  0  0  0  0
   -2.8572    1.5847    0.0000 N   0  0  0  0  0  0  0  0  0  0  0  0
   -1.4364   -0.0547    0.0000 N   0  0  0  0  0  0  0  0  0  0  0  0
    0.7182    2.8182    0.0000 N   0  0  0  0  0  0  0  0  0  0  0  0
    2.1390    1.1788    0.0000 N   0  0  0  0  0  0  0  0  0  0  0  0
    4.2780   -0.8822    0.0000 N   0  0  0  0  0  0  0  0  0  0  0  0
   -0.7026    1.1788    0.0000 C   0  0  0  0  0  0  0  0  0  0  0  0
   -2.1390    1.1788    0.0000 C   0  0  0  0  0  0  0  0  0  0  0  0
   -0.0156    1.5847    0.0000 C   0  0  0  0  0  0  0  0  0  0  0  0
   -2.1546    0.3513    0.0000 C   0  0  0  0  0  0  0  0  0  0  0  0
   -1.4364    1.5847    0.0000 C   0  0  0  0  0  0  0  0  0  0  0  0
    0.0000    2.4122    0.0000 C   0  0  0  0  0  0  0  0  0  0  0  0
    0.7182    1.1788    0.0000 C   0  0  0  0  0  0  0  0  0  0  0  0
   -0.7182    0.3513    0.0000 C   0  0  0  0  0  0  0  0  0  0  0  0
    1.4208    1.5847    0.0000 C   0  0  0  0  0  0  0  0  0  0  0  0
    2.8572   -0.0390    0.0000 C   0  0  0  0  0  0  0  0  0  0  0  0
    2.1546    0.3825    0.0000 C   0  0  0  0  0  0  0  0  0  0  0  0
    3.5754   -1.2725    0.0000 C   0  0  0  0  0  0  0  0  0  0  0  0
    1.4364    2.3966    0.0000 C   0  0  0  0  0  0  0  0  0  0  0  0
    3.5598   -2.1000    0.0000 C   0  0  0  0  0  0  0  0  0  0  0  0
   -2.8728    2.4122    0.0000 C   0  0  0  0  0  0  0  0  0  0  0  0
   -3.5598    1.1788    0.0000 C   0  0  0  0  0  0  0  0  0  0  0  0
    2.8572   -0.8665    0.0000 C   0  0  0  0  0  0  0  0  0  0  0  0
    3.5598    0.3513    0.0000 C   0  0  0  0  0  0  0  0  0  0  0  0
   -0.7026    2.8338    0.0000 C   0  0  0  0  0  0  0  0  0  0  0  0
   -2.8572   -0.8665    0.0000 C   0  0  0  0  0  0  0  0  0  0  0  0
    4.2780   -0.0547    0.0000 C   0  0  0  0  0  0  0  0  0  0  0  0
   -3.5754    2.8182    0.0000 C   0  0  0  0  0  0  0  0  0  0  0  0
   -4.2780    1.5847    0.0000 C   0  0  0  0  0  0  0  0  0  0  0  0
    2.7323   -2.1000    0.0000 C   0  0  0  0  0  0  0  0  0  0  0  0
    3.1851   -2.8338    0.0000 C   0  0  0  0  0  0  0  0  0  0  0  0
   -3.5754   -1.2725    0.0000 C   0  0  0  0  0  0  0  0  0  0  0  0
   -2.1234   -1.2880    0.0000 C   0  0  0  0  0  0  0  0  0  0  0  0
  1 23  1  0  0  0  0
  2 13  1  0  0  0  0
  2 29  1  0  0  0  0
  3 31  1  0  0  0  0
  3 32  1  0  0  0  0
  4 20  2  0  0  0  0
  5 11  1  0  0  0  0
  5 24  1  0  0  0  0
  5 25  1  0  0  0  0
  6 13  2  0  0  0  0
  6 17  1  0  0  0  0
  7 15  1  0  0  0  0
  7 22  2  0  0  0  0
  8 18  1  0  0  0  0
  8 20  1  0  0  0  0
  9 21  2  0  0  0  0
  9 30  1  0  0  0  0
 10 12  1  0  0  0  0
 10 14  1  0  0  0  0
 10 17  2  0  0  0  0
 11 13  1  0  0  0  0
 11 14  2  0  0  0  0
 12 15  2  0  0  0  0
 12 16  1  0  0  0  0
 15 28  1  0  0  0  0
 16 18  2  0  0  0  0
 18 22  1  0  0  0  0
 19 20  1  0  0  0  0
 19 26  2  0  0  0  0
 19 27  1  0  0  0  0
 21 23  1  0  0  0  0
 21 26  1  0  0  0  0
 23 33  1  0  0  0  0
 23 34  1  0  0  0  0
 24 31  1  0  0  0  0
 25 32  1  0  0  0  0
 27 30  2  0  0  0  0
 29 35  1  0  0  0  0
 29 36  1  0  0  0  0
M  END
> <PUBCHEM_COMPOUND_ID_TYPE>
0

> <PUBCHEM_TOTAL_CHARGE>
0

> <PUBCHEM_SUBSTANCE_ID>
310943733

> <PUBCHEM_SUBSTANCE_VERSION>
1

> <PUBCHEM_EXT_DATASOURCE_NAME>
4488

> <PUBCHEM_EXT_DATASOURCE_REGID>
SCHEMBL16121801

> <PUBCHEM_SUBSTANCE_COMMENT>
InChI=1S/C27H32FN5O3/c1-17(2)36-26-23(33-8-10-35-11-9-33)12-20(15-31-26)22-14-21(16-30-18(22)3)32-25(34)19-6-7-29-24(13-19)27(4,5)28/h6-7,12-17H,8-11H2,1-5H3,(H,32,34)
InChIKey=YMRIILPEHZRPKK-UHFFFAOYSA-N

> <PUBCHEM_SUBSTANCE_SYNONYM>
SCHEMBL16121801

> <PUBCHEM_XREF_EXT_ID>
SCHEMBL16121801

> <PUBCHEM_EXT_DATASOURCE_URL>
https://www.surechembl.org/

> <PUBCHEM_EXT_SUBSTANCE_URL>
https://www.surechembl.org/chemical/SCHEMBL16121801

> <PUBCHEM_CID_ASSOCIATIONS>
117610099  1

> <PUBCHEM_COORDINATE_TYPE>
1
3

$$$$
