310941074
  -OEChem-07211613022D

 46 49  0     1  0  0  0  0  0999 V2000
    5.0689    0.6642    0.0000 O   0  0  0  0  0  0  0  0  0  0  0  0
    3.9363   -1.2795    0.0000 O   0  0  0  0  0  0  0  0  0  0  0  0
    1.7969    0.7761    0.0000 O   0  0  0  0  0  0  0  0  0  0  0  0
    0.3706    2.9295    0.0000 O   0  0  0  0  0  0  0  0  0  0  0  0
   -0.3426   -1.2795    0.0000 O   0  0  0  0  0  0  0  0  0  0  0  0
    3.9363   -2.9435    0.0000 O   0  0  0  0  0  0  0  0  0  0  0  0
   -2.4820    0.7761    0.0000 O   0  0  0  0  0  0  0  0  0  0  0  0
   -0.3426    1.6850    0.0000 O   0  0  0  0  0  0  0  0  0  0  0  0
   -5.3346    0.7761    0.0000 O   0  0  0  0  0  0  0  0  0  0  0  0
    2.5240   -0.4405    0.0000 N   0  0  0  0  0  0  0  0  0  0  0  0
    0.3706   -0.0350    0.0000 N   0  0  0  0  0  0  0  0  0  0  0  0
   -1.7689   -0.4405    0.0000 N   0  0  0  0  0  0  0  0  0  0  0  0
   -3.9083   -0.0350    0.0000 N   0  0  0  0  0  0  0  0  0  0  0  0
   -1.0558    2.9435    0.0000 N   0  0  0  0  0  0  0  0  0  0  0  0
    4.6494   -0.0210    0.0000 C   0  0  3  0  0  0  0  0  0  0  0  0
    3.9223   -0.4405    0.0000 C   0  0  0  0  0  0  0  0  0  0  0  0
    4.2579    0.6782    0.0000 C   0  0  0  0  0  0  0  0  0  0  0  0
    3.2231   -0.0350    0.0000 C   0  0  3  0  0  0  0  0  0  0  0  0
    5.3346   -0.4265    0.0000 C   0  0  0  0  0  0  0  0  0  0  0  0
    3.2231    1.2795    0.0000 C   0  0  0  0  0  0  0  0  0  0  0  0
    1.7828   -0.0489    0.0000 C   0  0  0  0  0  0  0  0  0  0  0  0
    2.5100    1.7129    0.0000 C   0  0  0  0  0  0  0  0  0  0  0  0
    1.0977   -0.4405    0.0000 C   0  0  3  0  0  0  0  0  0  0  0  0
    1.0697   -1.2795    0.0000 C   0  0  0  0  0  0  0  0  0  0  0  0
    1.8109    1.2934    0.0000 C   0  0  0  0  0  0  0  0  0  0  0  0
    2.5100    2.5240    0.0000 C   0  0  0  0  0  0  0  0  0  0  0  0
    1.8109   -1.6850    0.0000 C   0  0  0  0  0  0  0  0  0  0  0  0
   -0.3426   -0.4125    0.0000 C   0  0  0  0  0  0  0  0  0  0  0  0
    1.0977    2.5240    0.0000 C   0  0  0  0  0  0  0  0  0  0  0  0
    1.0977    1.6990    0.0000 C   0  0  0  0  0  0  0  0  0  0  0  0
    1.7969    2.9155    0.0000 C   0  0  0  0  0  0  0  0  0  0  0  0
   -1.0558   -0.0350    0.0000 C   0  0  3  0  0  0  0  0  0  0  0  0
    2.4960   -1.2934    0.0000 C   0  0  0  0  0  0  0  0  0  0  0  0
    1.8109   -2.5100    0.0000 C   0  0  0  0  0  0  0  0  0  0  0  0
    3.2092   -2.5100    0.0000 C   0  0  0  0  0  0  0  0  0  0  0  0
    3.2231   -1.6850    0.0000 C   0  0  0  0  0  0  0  0  0  0  0  0
    2.5379   -2.9155    0.0000 C   0  0  0  0  0  0  0  0  0  0  0  0
   -2.4820   -0.0629    0.0000 C   0  0  0  0  0  0  0  0  0  0  0  0
   -1.0558    0.7901    0.0000 C   0  0  0  0  0  0  0  0  0  0  0  0
   -0.3286    2.5520    0.0000 C   0  0  0  0  0  0  0  0  0  0  0  0
   -3.1812   -0.4405    0.0000 C   0  0  0  0  0  0  0  0  0  0  0  0
   -3.9083    0.7901    0.0000 C   0  0  0  0  0  0  0  0  0  0  0  0
   -4.6075   -0.4405    0.0000 C   0  0  0  0  0  0  0  0  0  0  0  0
   -4.6494    1.1956    0.0000 C   0  0  0  0  0  0  0  0  0  0  0  0
   -5.3346   -0.0350    0.0000 C   0  0  0  0  0  0  0  0  0  0  0  0
    4.6634   -2.5100    0.0000 C   0  0  0  0  0  0  0  0  0  0  0  0
  1 15  1  0  0  0  0
  1 17  1  0  0  0  0
  2 16  2  0  0  0  0
  3 21  2  0  0  0  0
  4 29  1  0  0  0  0
  4 40  1  0  0  0  0
  5 28  2  0  0  0  0
  6 35  1  0  0  0  0
  6 46  1  0  0  0  0
  7 38  2  0  0  0  0
  8 40  2  0  0  0  0
  9 44  1  0  0  0  0
  9 45  1  0  0  0  0
 18 10  1  1  0  0  0
 10 21  1  0  0  0  0
 23 11  1  6  0  0  0
 11 28  1  0  0  0  0
 12 32  1  0  0  0  0
 12 38  1  0  0  0  0
 13 41  1  0  0  0  0
 13 42  1  0  0  0  0
 13 43  1  0  0  0  0
 14 40  1  0  0  0  0
 15 16  1  1  0  0  0
 15 17  1  0  0  0  0
 15 19  1  6  0  0  0
 16 18  1  0  0  0  0
 18 20  1  0  0  0  0
 20 22  1  0  0  0  0
 21 23  1  0  0  0  0
 22 25  2  0  0  0  0
 22 26  1  0  0  0  0
 23 24  1  0  0  0  0
 24 27  1  0  0  0  0
 25 30  1  0  0  0  0
 26 31  2  0  0  0  0
 27 33  2  0  0  0  0
 27 34  1  0  0  0  0
 28 32  1  0  0  0  0
 29 30  2  0  0  0  0
 29 31  1  0  0  0  0
 32 39  1  1  0  0  0
 33 36  1  0  0  0  0
 34 37  2  0  0  0  0
 35 36  2  0  0  0  0
 35 37  1  0  0  0  0
 38 41  1  0  0  0  0
 42 44  1  0  0  0  0
 43 45  1  0  0  0  0
M  END
> <PUBCHEM_COMPOUND_ID_TYPE>
0

> <PUBCHEM_TOTAL_CHARGE>
0

> <PUBCHEM_SUBSTANCE_ID>
310941074

> <PUBCHEM_SUBSTANCE_VERSION>
1

> <PUBCHEM_EXT_DATASOURCE_NAME>
4488

> <PUBCHEM_EXT_DATASOURCE_REGID>
SCHEMBL16119034

> <PUBCHEM_SUBSTANCE_COMMENT>
InChI=1S/C32H41N5O9/c1-20(34-27(38)18-37-12-14-44-15-13-37)29(40)36-26(17-22-4-8-23(43-3)9-5-22)30(41)35-25(28(39)32(2)19-45-32)16-21-6-10-24(11-7-21)46-31(33)42/h4-11,20,25-26H,12-19H2,1-3H3,(H2,33,42)(H,34,38)(H,35,41)(H,36,40)/t20-,25-,26-,32+/m0/s1
InChIKey=GONDWZATNVNOHD-DTERDCDSSA-N

> <PUBCHEM_SUBSTANCE_SYNONYM>
SCHEMBL16119034

> <PUBCHEM_XREF_EXT_ID>
SCHEMBL16119034

> <PUBCHEM_EXT_DATASOURCE_URL>
https://www.surechembl.org/

> <PUBCHEM_EXT_SUBSTANCE_URL>
https://www.surechembl.org/chemical/SCHEMBL16119034

> <PUBCHEM_CID_ASSOCIATIONS>
117607965  1

> <PUBCHEM_COORDINATE_TYPE>
1
3

> <PUBCHEM_BONDANNOTATIONS>
18  10  5
23  11  6
15  16  5
15  19  6
32  39  5

$$$$
