310943183
  -OEChem-07211613022D

 35 38  0     0  0  0  0  0  0999 V2000
   -2.4422    1.8662    0.0000 Cl  0  0  0  0  0  0  0  0  0  0  0  0
   -4.3161   -1.0214    0.0000 O   0  0  0  0  0  0  0  0  0  0  0  0
    0.7065   -0.6067    0.0000 O   0  0  0  0  0  0  0  0  0  0  0  0
   -5.7598    1.4515    0.0000 O   0  0  0  0  0  0  0  0  0  0  0  0
   -2.8723   -1.0214    0.0000 N   0  0  0  0  0  0  0  0  0  0  0  0
   -4.3161    0.6221    0.0000 N   0  0  0  0  0  0  0  0  0  0  0  0
    1.4285    0.6221    0.0000 N   0  0  0  0  0  0  0  0  0  0  0  0
    5.7598   -0.1920    0.0000 N   0  0  0  0  0  0  0  0  0  0  0  0
   -2.1504    0.2227    0.0000 C   0  0  0  0  0  0  0  0  0  0  0  0
   -1.4592    0.6374    0.0000 C   0  0  0  0  0  0  0  0  0  0  0  0
   -3.5942    0.2227    0.0000 C   0  0  0  0  0  0  0  0  0  0  0  0
   -3.5942   -0.5914    0.0000 C   0  0  0  0  0  0  0  0  0  0  0  0
   -2.8876    0.6221    0.0000 C   0  0  0  0  0  0  0  0  0  0  0  0
   -2.1657   -0.6067    0.0000 C   0  0  0  0  0  0  0  0  0  0  0  0
   -1.4438    1.4515    0.0000 C   0  0  0  0  0  0  0  0  0  0  0  0
   -0.0154    0.6528    0.0000 C   0  0  0  0  0  0  0  0  0  0  0  0
   -0.7065    0.2227    0.0000 C   0  0  0  0  0  0  0  0  0  0  0  0
    0.7065    0.2381    0.0000 C   0  0  0  0  0  0  0  0  0  0  0  0
   -0.7373    1.8508    0.0000 C   0  0  0  0  0  0  0  0  0  0  0  0
   -0.0154    1.4515    0.0000 C   0  0  0  0  0  0  0  0  0  0  0  0
    3.6095    0.2227    0.0000 C   0  0  0  0  0  0  0  0  0  0  0  0
    2.1657    0.2227    0.0000 C   0  0  0  0  0  0  0  0  0  0  0  0
   -4.3161    1.4515    0.0000 C   0  0  0  0  0  0  0  0  0  0  0  0
   -5.0226    0.2227    0.0000 C   0  0  0  0  0  0  0  0  0  0  0  0
    4.3161    0.6528    0.0000 C   0  0  0  0  0  0  0  0  0  0  0  0
    2.8723    0.6221    0.0000 C   0  0  0  0  0  0  0  0  0  0  0  0
   -2.8569   -1.8662    0.0000 C   0  0  0  0  0  0  0  0  0  0  0  0
    3.5942   -0.5914    0.0000 C   0  0  0  0  0  0  0  0  0  0  0  0
    2.1811   -0.6067    0.0000 C   0  0  0  0  0  0  0  0  0  0  0  0
   -5.0379    1.8662    0.0000 C   0  0  0  0  0  0  0  0  0  0  0  0
   -5.7445    0.6221    0.0000 C   0  0  0  0  0  0  0  0  0  0  0  0
    2.8876   -1.0060    0.0000 C   0  0  0  0  0  0  0  0  0  0  0  0
    5.0226    0.2227    0.0000 C   0  0  0  0  0  0  0  0  0  0  0  0
    3.8860    1.3593    0.0000 C   0  0  0  0  0  0  0  0  0  0  0  0
    4.7615    1.3439    0.0000 C   0  0  0  0  0  0  0  0  0  0  0  0
  1 15  1  0  0  0  0
  2 12  2  0  0  0  0
  3 18  2  0  0  0  0
  4 30  1  0  0  0  0
  4 31  1  0  0  0  0
  5 12  1  0  0  0  0
  5 14  1  0  0  0  0
  5 27  1  0  0  0  0
  6 11  1  0  0  0  0
  6 23  1  0  0  0  0
  6 24  1  0  0  0  0
  7 18  1  0  0  0  0
  7 22  1  0  0  0  0
  8 33  3  0  0  0  0
  9 10  1  0  0  0  0
  9 13  1  0  0  0  0
  9 14  2  0  0  0  0
 10 15  2  0  0  0  0
 10 17  1  0  0  0  0
 11 12  1  0  0  0  0
 11 13  2  0  0  0  0
 15 19  1  0  0  0  0
 16 17  2  0  0  0  0
 16 18  1  0  0  0  0
 16 20  1  0  0  0  0
 19 20  2  0  0  0  0
 21 25  1  0  0  0  0
 21 26  2  0  0  0  0
 21 28  1  0  0  0  0
 22 26  1  0  0  0  0
 22 29  2  0  0  0  0
 23 30  1  0  0  0  0
 24 31  1  0  0  0  0
 25 33  1  0  0  0  0
 25 34  1  0  0  0  0
 25 35  1  0  0  0  0
 28 32  2  0  0  0  0
 29 32  1  0  0  0  0
M  END
> <PUBCHEM_COMPOUND_ID_TYPE>
0

> <PUBCHEM_TOTAL_CHARGE>
0

> <PUBCHEM_SUBSTANCE_ID>
310943183

> <PUBCHEM_SUBSTANCE_VERSION>
1

> <PUBCHEM_EXT_DATASOURCE_NAME>
4488

> <PUBCHEM_EXT_DATASOURCE_REGID>
SCHEMBL16121244

> <PUBCHEM_SUBSTANCE_COMMENT>
InChI=1S/C27H27ClN4O3/c1-27(2,17-29)20-5-4-6-21(15-20)30-25(33)18-7-8-23(28)22(13-18)19-14-24(26(34)31(3)16-19)32-9-11-35-12-10-32/h4-8,13-16H,9-12H2,1-3H3,(H,30,33)
InChIKey=QUIAXEVFTPGWBV-UHFFFAOYSA-N

> <PUBCHEM_SUBSTANCE_SYNONYM>
SCHEMBL16121244

> <PUBCHEM_XREF_EXT_ID>
SCHEMBL16121244

> <PUBCHEM_EXT_DATASOURCE_URL>
https://www.surechembl.org/

> <PUBCHEM_EXT_SUBSTANCE_URL>
https://www.surechembl.org/chemical/SCHEMBL16121244

> <PUBCHEM_CID_ASSOCIATIONS>
117609611  1

> <PUBCHEM_COORDINATE_TYPE>
1
3

$$$$
