310942194
  -OEChem-07211613022D

 29 31  0     1  0  0  0  0  0999 V2000
    1.0648    1.4385    0.0000 Cl  0  0  0  0  0  0  0  0  0  0  0  0
   -0.3674   -1.0524    0.0000 F   0  0  0  0  0  0  0  0  0  0  0  0
    1.0648   -0.2180    0.0000 O   0  0  0  0  0  0  0  0  0  0  0  0
    3.9293   -0.2180    0.0000 O   0  0  0  0  0  0  0  0  0  0  0  0
   -3.9293    0.2180    0.0000 O   0  0  0  0  0  0  0  0  0  0  0  0
   -2.5220    0.1930    0.0000 N   0  0  0  0  0  0  0  0  0  0  0  0
    3.9418    1.4634    0.0000 N   0  0  0  0  0  0  0  0  0  0  0  0
   -4.6641    1.4509    0.0000 N   0  0  0  0  0  0  0  0  0  0  0  0
    0.3425    0.2055    0.0000 C   0  0  0  0  0  0  0  0  0  0  0  0
   -0.3799   -0.2055    0.0000 C   0  0  0  0  0  0  0  0  0  0  0  0
   -1.0898    0.2055    0.0000 C   0  0  0  0  0  0  0  0  0  0  0  0
    0.3549    1.0399    0.0000 C   0  0  0  0  0  0  0  0  0  0  0  0
    1.7872    0.2055    0.0000 C   0  0  0  0  0  0  0  0  0  0  0  0
   -1.7997   -0.2055    0.0000 C   0  0  3  0  0  0  0  0  0  0  0  0
    3.2194    0.2055    0.0000 C   0  0  0  0  0  0  0  0  0  0  0  0
   -1.0773    1.0275    0.0000 C   0  0  0  0  0  0  0  0  0  0  0  0
    3.2319    1.0399    0.0000 C   0  0  0  0  0  0  0  0  0  0  0  0
   -0.3799    1.4260    0.0000 C   0  0  0  0  0  0  0  0  0  0  0  0
    2.5220   -0.2055    0.0000 C   0  0  0  0  0  0  0  0  0  0  0  0
    1.7997    1.0275    0.0000 C   0  0  0  0  0  0  0  0  0  0  0  0
    2.5095    1.4260    0.0000 C   0  0  0  0  0  0  0  0  0  0  0  0
   -1.7997   -1.0524    0.0000 C   0  0  0  0  0  0  0  0  0  0  0  0
   -2.5220    1.0399    0.0000 C   0  0  3  0  0  0  0  0  0  0  0  0
    4.6641    0.1930    0.0000 C   0  0  0  0  0  0  0  0  0  0  0  0
    4.6641    1.0275    0.0000 C   0  0  0  0  0  0  0  0  0  0  0  0
   -3.2444    1.4385    0.0000 C   0  0  0  0  0  0  0  0  0  0  0  0
   -1.0898   -1.4634    0.0000 C   0  0  0  0  0  0  0  0  0  0  0  0
   -1.7997    1.4385    0.0000 C   0  0  0  0  0  0  0  0  0  0  0  0
   -3.9543    1.0275    0.0000 C   0  0  0  0  0  0  0  0  0  0  0  0
  1 12  1  0  0  0  0
  2 10  1  0  0  0  0
  3  9  1  0  0  0  0
  3 13  1  0  0  0  0
  4 15  1  0  0  0  0
  4 24  1  0  0  0  0
  5 29  2  0  0  0  0
 14  6  1  1  0  0  0
  6 23  1  0  0  0  0
  7 17  1  0  0  0  0
  7 25  1  0  0  0  0
  8 29  1  0  0  0  0
  9 10  2  0  0  0  0
  9 12  1  0  0  0  0
 10 11  1  0  0  0  0
 11 14  1  0  0  0  0
 11 16  2  0  0  0  0
 12 18  2  0  0  0  0
 13 19  2  0  0  0  0
 13 20  1  0  0  0  0
 14 22  1  0  0  0  0
 15 17  2  0  0  0  0
 15 19  1  0  0  0  0
 16 18  1  0  0  0  0
 17 21  1  0  0  0  0
 20 21  2  0  0  0  0
 22 27  1  0  0  0  0
 23 26  1  0  0  0  0
 23 28  1  1  0  0  0
 24 25  1  0  0  0  0
 26 29  1  0  0  0  0
M  END
> <PUBCHEM_COMPOUND_ID_TYPE>
0

> <PUBCHEM_TOTAL_CHARGE>
0

> <PUBCHEM_SUBSTANCE_ID>
310942194

> <PUBCHEM_SUBSTANCE_VERSION>
1

> <PUBCHEM_EXT_DATASOURCE_NAME>
4488

> <PUBCHEM_EXT_DATASOURCE_REGID>
SCHEMBL16120229

> <PUBCHEM_SUBSTANCE_COMMENT>
InChI=1S/C21H25ClFN3O3/c1-3-16(26-12(2)10-19(24)27)14-5-6-15(22)21(20(14)23)29-13-4-7-17-18(11-13)28-9-8-25-17/h4-7,11-12,16,25-26H,3,8-10H2,1-2H3,(H2,24,27)/t12-,16-/m1/s1
InChIKey=CVJFHLMCTKVFTP-MLGOLLRUSA-N

> <PUBCHEM_SUBSTANCE_SYNONYM>
SCHEMBL16120229

> <PUBCHEM_XREF_EXT_ID>
SCHEMBL16120229

> <PUBCHEM_EXT_DATASOURCE_URL>
https://www.surechembl.org/

> <PUBCHEM_EXT_SUBSTANCE_URL>
https://www.surechembl.org/chemical/SCHEMBL16120229

> <PUBCHEM_CID_ASSOCIATIONS>
117608845  1

> <PUBCHEM_COORDINATE_TYPE>
1
3

> <PUBCHEM_BONDANNOTATIONS>
23  28  5
14  6  5

$$$$
