310942150
  -OEChem-07211613022D

 27 29  0     1  0  0  0  0  0999 V2000
    2.1606    1.4592    0.0000 Cl  0  0  0  0  0  0  0  0  0  0  0  0
    0.7202   -1.0333    0.0000 F   0  0  0  0  0  0  0  0  0  0  0  0
    2.1480   -0.2066    0.0000 O   0  0  0  0  0  0  0  0  0  0  0  0
   -1.4466    0.2192    0.0000 N   0  0  0  0  0  0  0  0  0  0  0  0
   -2.8871    0.2192    0.0000 N   0  0  0  0  0  0  0  0  0  0  0  0
   -2.1606   -1.0333    0.0000 N   0  0  0  0  0  0  0  0  0  0  0  0
   -4.2147    1.0458    0.0000 N   0  0  0  0  0  0  0  0  0  0  0  0
   -0.0062    0.2192    0.0000 C   0  0  0  0  0  0  0  0  0  0  0  0
    0.7202   -0.1941    0.0000 C   0  0  0  0  0  0  0  0  0  0  0  0
    1.4341    0.2192    0.0000 C   0  0  0  0  0  0  0  0  0  0  0  0
   -0.7202   -0.1941    0.0000 C   0  0  3  0  0  0  0  0  0  0  0  0
    1.4466    1.0584    0.0000 C   0  0  0  0  0  0  0  0  0  0  0  0
    0.0062    1.0458    0.0000 C   0  0  0  0  0  0  0  0  0  0  0  0
    0.7327    1.4592    0.0000 C   0  0  0  0  0  0  0  0  0  0  0  0
   -2.1731   -0.1941    0.0000 C   0  0  0  0  0  0  0  0  0  0  0  0
    2.8995    0.2066    0.0000 C   0  0  0  0  0  0  0  0  0  0  0  0
   -0.7327   -1.0458    0.0000 C   0  0  0  0  0  0  0  0  0  0  0  0
   -3.6135   -0.1941    0.0000 C   0  0  0  0  0  0  0  0  0  0  0  0
    2.8995    1.0083    0.0000 C   0  0  0  0  0  0  0  0  0  0  0  0
    3.6010   -0.2066    0.0000 C   0  0  0  0  0  0  0  0  0  0  0  0
   -3.6135   -1.0333    0.0000 C   0  0  0  0  0  0  0  0  0  0  0  0
   -2.8871   -1.4592    0.0000 C   0  0  0  0  0  0  0  0  0  0  0  0
   -1.4341   -1.4466    0.0000 C   0  0  0  0  0  0  0  0  0  0  0  0
    3.6260    1.4091    0.0000 C   0  0  0  0  0  0  0  0  0  0  0  0
    4.3274    0.1816    0.0000 C   0  0  0  0  0  0  0  0  0  0  0  0
   -4.3274    0.2066    0.0000 C   0  0  0  0  0  0  0  0  0  0  0  0
    4.3274    0.9957    0.0000 C   0  0  0  0  0  0  0  0  0  0  0  0
  1 12  1  0  0  0  0
  2  9  1  0  0  0  0
  3 10  1  0  0  0  0
  3 16  1  0  0  0  0
 11  4  1  1  0  0  0
  4 15  1  0  0  0  0
  5 15  2  0  0  0  0
  5 18  1  0  0  0  0
  6 15  1  0  0  0  0
  6 22  2  0  0  0  0
  7 26  1  0  0  0  0
  8  9  1  0  0  0  0
  8 11  1  0  0  0  0
  8 13  2  0  0  0  0
  9 10  2  0  0  0  0
 10 12  1  0  0  0  0
 11 17  1  0  0  0  0
 12 14  2  0  0  0  0
 13 14  1  0  0  0  0
 16 19  2  0  0  0  0
 16 20  1  0  0  0  0
 17 23  1  0  0  0  0
 18 21  2  0  0  0  0
 18 26  1  0  0  0  0
 19 24  1  0  0  0  0
 20 25  2  0  0  0  0
 21 22  1  0  0  0  0
 24 27  2  0  0  0  0
 25 27  1  0  0  0  0
M  END
> <PUBCHEM_COMPOUND_ID_TYPE>
0

> <PUBCHEM_TOTAL_CHARGE>
0

> <PUBCHEM_SUBSTANCE_ID>
310942150

> <PUBCHEM_SUBSTANCE_VERSION>
1

> <PUBCHEM_EXT_DATASOURCE_NAME>
4488

> <PUBCHEM_EXT_DATASOURCE_REGID>
SCHEMBL16120185

> <PUBCHEM_SUBSTANCE_COMMENT>
InChI=1S/C20H20ClFN4O/c1-2-17(26-20-24-11-10-13(12-23)25-20)15-8-9-16(21)19(18(15)22)27-14-6-4-3-5-7-14/h3-11,17H,2,12,23H2,1H3,(H,24,25,26)/t17-/m1/s1
InChIKey=YHIGRBMUYYALJX-QGZVFWFLSA-N

> <PUBCHEM_SUBSTANCE_SYNONYM>
SCHEMBL16120185

> <PUBCHEM_XREF_EXT_ID>
SCHEMBL16120185

> <PUBCHEM_EXT_DATASOURCE_URL>
https://www.surechembl.org/

> <PUBCHEM_EXT_SUBSTANCE_URL>
https://www.surechembl.org/chemical/SCHEMBL16120185

> <PUBCHEM_CID_ASSOCIATIONS>
89544557  1

> <PUBCHEM_COORDINATE_TYPE>
1
3

> <PUBCHEM_BONDANNOTATIONS>
11  4  5

$$$$
