310939688
  -OEChem-07211613022D

 61 73  0     0  0  0  0  0  0999 V2000
    3.4185  -11.2012    0.0000 N   0  0  0  0  0  0  0  0  0  0  0  0
    3.4185  -12.5361    0.0000 N   0  0  0  0  0  0  0  0  0  0  0  0
   -2.7742  -12.6410    0.0000 C   0  0  0  0  0  0  0  0  0  0  0  0
   -2.7742  -13.4660    0.0000 C   0  0  0  0  0  0  0  0  0  0  0  0
   -1.5045  -13.0536    0.0000 C   0  0  0  0  0  0  0  0  0  0  0  0
   -1.9895  -12.3860    0.0000 C   0  0  0  0  0  0  0  0  0  0  0  0
   -1.9895  -13.7209    0.0000 C   0  0  0  0  0  0  0  0  0  0  0  0
   -3.4887  -12.2284    0.0000 C   0  0  0  0  0  0  0  0  0  0  0  0
   -3.4887  -13.8785    0.0000 C   0  0  0  0  0  0  0  0  0  0  0  0
   -4.2031  -12.6410    0.0000 C   0  0  0  0  0  0  0  0  0  0  0  0
   -4.2031  -13.4660    0.0000 C   0  0  0  0  0  0  0  0  0  0  0  0
   -0.6841  -12.9673    0.0000 C   0  0  0  0  0  0  0  0  0  0  0  0
   -0.3484  -12.2136    0.0000 C   0  0  0  0  0  0  0  0  0  0  0  0
   -3.4887  -11.4034    0.0000 C   0  0  0  0  0  0  0  0  0  0  0  0
   -3.4887  -14.7036    0.0000 C   0  0  0  0  0  0  0  0  0  0  0  0
   -1.6539  -11.6324    0.0000 C   0  0  0  0  0  0  0  0  0  0  0  0
   -1.3552  -14.4747    0.0000 C   0  0  0  0  0  0  0  0  0  0  0  0
   -0.8334  -11.5461    0.0000 C   0  0  0  0  0  0  0  0  0  0  0  0
   -0.1991  -13.6347    0.0000 C   0  0  0  0  0  0  0  0  0  0  0  0
   -4.9176  -12.2284    0.0000 C   0  0  0  0  0  0  0  0  0  0  0  0
   -4.9176  -13.8785    0.0000 C   0  0  0  0  0  0  0  0  0  0  0  0
   -0.5346  -14.3885    0.0000 C   0  0  0  0  0  0  0  0  0  0  0  0
    0.4720  -12.1274    0.0000 C   0  0  0  0  0  0  0  0  0  0  0  0
   -4.2031  -10.9909    0.0000 C   0  0  0  0  0  0  0  0  0  0  0  0
   -2.7742  -15.1161    0.0000 C   0  0  0  0  0  0  0  0  0  0  0  0
   -2.7742  -10.9909    0.0000 C   0  0  0  0  0  0  0  0  0  0  0  0
   -4.2031  -15.1161    0.0000 C   0  0  0  0  0  0  0  0  0  0  0  0
   -5.6321  -12.6410    0.0000 C   0  0  0  0  0  0  0  0  0  0  0  0
   -5.6321  -13.4660    0.0000 C   0  0  0  0  0  0  0  0  0  0  0  0
   -4.2031  -10.1659    0.0000 C   0  0  0  0  0  0  0  0  0  0  0  0
   -2.7742  -15.9411    0.0000 C   0  0  0  0  0  0  0  0  0  0  0  0
    0.9570  -12.7948    0.0000 C   0  0  0  0  0  0  0  0  0  0  0  0
    0.8076  -11.3735    0.0000 C   0  0  0  0  0  0  0  0  0  0  0  0
   -3.4887   -9.7534    0.0000 C   0  0  0  0  0  0  0  0  0  0  0  0
   -3.4887  -16.3536    0.0000 C   0  0  0  0  0  0  0  0  0  0  0  0
   -2.7742  -10.1659    0.0000 C   0  0  0  0  0  0  0  0  0  0  0  0
   -4.2031  -15.9411    0.0000 C   0  0  0  0  0  0  0  0  0  0  0  0
    2.1131  -11.9549    0.0000 C   0  0  0  0  0  0  0  0  0  0  0  0
    2.9336  -11.8686    0.0000 C   0  0  0  0  0  0  0  0  0  0  0  0
    1.7774  -12.7085    0.0000 C   0  0  0  0  0  0  0  0  0  0  0  0
    1.6281  -11.2874    0.0000 C   0  0  0  0  0  0  0  0  0  0  0  0
    4.2031  -11.4562    0.0000 C   0  0  0  0  0  0  0  0  0  0  0  0
   -4.9176   -9.7534    0.0000 C   0  0  0  0  0  0  0  0  0  0  0  0
   -2.0597  -16.3536    0.0000 C   0  0  0  0  0  0  0  0  0  0  0  0
    4.2031  -12.2811    0.0000 C   0  0  0  0  0  0  0  0  0  0  0  0
   -3.4887   -8.9284    0.0000 C   0  0  0  0  0  0  0  0  0  0  0  0
   -3.4887  -17.1787    0.0000 C   0  0  0  0  0  0  0  0  0  0  0  0
    3.0059  -10.4866    0.0000 C   0  0  0  0  0  0  0  0  0  0  0  0
   -4.9176   -8.9284    0.0000 C   0  0  0  0  0  0  0  0  0  0  0  0
   -2.0597  -17.1787    0.0000 C   0  0  0  0  0  0  0  0  0  0  0  0
    4.9176  -11.0436    0.0000 C   0  0  0  0  0  0  0  0  0  0  0  0
   -4.2031   -8.5159    0.0000 C   0  0  0  0  0  0  0  0  0  0  0  0
   -2.7742  -17.5911    0.0000 C   0  0  0  0  0  0  0  0  0  0  0  0
    4.9176  -12.6936    0.0000 C   0  0  0  0  0  0  0  0  0  0  0  0
    3.4185   -9.7721    0.0000 C   0  0  0  0  0  0  0  0  0  0  0  0
    2.1810  -10.4866    0.0000 C   0  0  0  0  0  0  0  0  0  0  0  0
    5.6321  -11.4562    0.0000 C   0  0  0  0  0  0  0  0  0  0  0  0
    5.6321  -12.2811    0.0000 C   0  0  0  0  0  0  0  0  0  0  0  0
    3.0059   -9.0577    0.0000 C   0  0  0  0  0  0  0  0  0  0  0  0
    1.7684   -9.7721    0.0000 C   0  0  0  0  0  0  0  0  0  0  0  0
    2.1810   -9.0577    0.0000 C   0  0  0  0  0  0  0  0  0  0  0  0
  1 39  1  0  0  0  0
  1 42  1  0  0  0  0
  1 48  1  0  0  0  0
  2 39  2  0  0  0  0
  2 45  1  0  0  0  0
  3  4  1  0  0  0  0
  3  6  1  0  0  0  0
  3  8  2  0  0  0  0
  4  7  1  0  0  0  0
  4  9  2  0  0  0  0
  5  6  1  0  0  0  0
  5  7  2  0  0  0  0
  5 12  1  0  0  0  0
  6 16  2  0  0  0  0
  7 17  1  0  0  0  0
  8 10  1  0  0  0  0
  8 14  1  0  0  0  0
  9 11  1  0  0  0  0
  9 15  1  0  0  0  0
 10 11  2  0  0  0  0
 10 20  1  0  0  0  0
 11 21  1  0  0  0  0
 12 13  1  0  0  0  0
 12 19  2  0  0  0  0
 13 18  2  0  0  0  0
 13 23  1  0  0  0  0
 14 24  1  0  0  0  0
 14 26  2  0  0  0  0
 15 25  1  0  0  0  0
 15 27  2  0  0  0  0
 16 18  1  0  0  0  0
 17 22  2  0  0  0  0
 19 22  1  0  0  0  0
 20 28  2  0  0  0  0
 21 29  2  0  0  0  0
 23 32  2  0  0  0  0
 23 33  1  0  0  0  0
 24 30  2  0  0  0  0
 25 31  2  0  0  0  0
 26 36  1  0  0  0  0
 27 37  1  0  0  0  0
 28 29  1  0  0  0  0
 30 34  1  0  0  0  0
 30 43  1  0  0  0  0
 31 35  1  0  0  0  0
 31 44  1  0  0  0  0
 32 40  1  0  0  0  0
 33 41  2  0  0  0  0
 34 36  2  0  0  0  0
 34 46  1  0  0  0  0
 35 37  2  0  0  0  0
 35 47  1  0  0  0  0
 38 39  1  0  0  0  0
 38 40  2  0  0  0  0
 38 41  1  0  0  0  0
 42 45  2  0  0  0  0
 42 51  1  0  0  0  0
 43 49  2  0  0  0  0
 44 50  2  0  0  0  0
 45 54  1  0  0  0  0
 46 52  2  0  0  0  0
 47 53  2  0  0  0  0
 48 55  2  0  0  0  0
 48 56  1  0  0  0  0
 49 52  1  0  0  0  0
 50 53  1  0  0  0  0
 51 57  2  0  0  0  0
 54 58  2  0  0  0  0
 55 59  1  0  0  0  0
 56 60  2  0  0  0  0
 57 58  1  0  0  0  0
 59 61  2  0  0  0  0
 60 61  1  0  0  0  0
M  END
> <PUBCHEM_COMPOUND_ID_TYPE>
0

> <PUBCHEM_TOTAL_CHARGE>
0

> <PUBCHEM_SUBSTANCE_ID>
310939688

> <PUBCHEM_SUBSTANCE_VERSION>
1

> <PUBCHEM_EXT_DATASOURCE_NAME>
4488

> <PUBCHEM_EXT_DATASOURCE_REGID>
SCHEMBL16117618

> <PUBCHEM_SUBSTANCE_COMMENT>
InChI=1S/C59H36N2/c1-2-17-45(18-3-1)61-53-24-11-10-23-52(53)60-59(61)40-29-27-39(28-30-40)46-33-34-51-56-47(46)21-12-22-50(56)57-54(43-31-25-37-13-4-6-15-41(37)35-43)48-19-8-9-20-49(48)55(58(51)57)44-32-26-38-14-5-7-16-42(38)36-44/h1-36H
InChIKey=DIUIMYNBUVKEFE-UHFFFAOYSA-N

> <PUBCHEM_SUBSTANCE_SYNONYM>
SCHEMBL16117618

> <PUBCHEM_XREF_EXT_ID>
SCHEMBL16117618

> <PUBCHEM_EXT_DATASOURCE_URL>
https://www.surechembl.org/

> <PUBCHEM_EXT_SUBSTANCE_URL>
https://www.surechembl.org/chemical/SCHEMBL16117618

> <PUBCHEM_CID_ASSOCIATIONS>
117606921  1

> <PUBCHEM_COORDINATE_TYPE>
1
3

$$$$
