310945019
  -OEChem-07211613022D

 32 35  0     0  0  0  0  0  0999 V2000
    1.5976    1.5716    0.0000 S   0  0  0  0  0  0  0  0  0  0  0  0
   -4.0114   -1.3285    0.0000 S   0  0  0  0  0  0  0  0  0  0  0  0
    3.8551   -2.5093    0.0000 O   0  0  0  0  0  0  0  0  0  0  0  0
    4.5671   -1.2416    0.0000 O   0  0  0  0  0  0  0  0  0  0  0  0
   -4.1503   -2.6656    0.0000 N   0  0  0  0  0  0  0  0  0  0  0  0
   -0.4341    0.0087    0.0000 C   0  0  0  0  0  0  0  0  0  0  0  0
   -0.4168    0.8596    0.0000 C   0  0  0  0  0  0  0  0  0  0  0  0
   -1.1288   -0.4081    0.0000 C   0  0  0  0  0  0  0  0  0  0  0  0
    0.2952    1.2764    0.0000 C   0  0  0  0  0  0  0  0  0  0  0  0
    0.2952   -0.4081    0.0000 C   0  0  0  0  0  0  0  0  0  0  0  0
    0.3994    2.1099    0.0000 C   0  0  0  0  0  0  0  0  0  0  0  0
   -2.5527   -1.2590    0.0000 C   0  0  0  0  0  0  0  0  0  0  0  0
   -1.8407   -0.0087    0.0000 C   0  0  0  0  0  0  0  0  0  0  0  0
   -1.1461   -1.2590    0.0000 C   0  0  0  0  0  0  0  0  0  0  0  0
    1.0593    0.9291    0.0000 C   0  0  0  0  0  0  0  0  0  0  0  0
   -1.1288    1.2764    0.0000 C   0  0  0  0  0  0  0  0  0  0  0  0
    0.2952   -1.2590    0.0000 C   0  0  0  0  0  0  0  0  0  0  0  0
    1.0072   -0.0087    0.0000 C   0  0  0  0  0  0  0  0  0  0  0  0
   -2.5354   -0.4255    0.0000 C   0  0  0  0  0  0  0  0  0  0  0  0
   -1.8407   -1.6758    0.0000 C   0  0  0  0  0  0  0  0  0  0  0  0
   -3.2647   -1.6758    0.0000 C   0  0  0  0  0  0  0  0  0  0  0  0
    1.1982    2.2662    0.0000 C   0  0  0  0  0  0  0  0  0  0  0  0
    1.7018   -1.2416    0.0000 C   0  0  0  0  0  0  0  0  0  0  0  0
    1.0072   -1.6758    0.0000 C   0  0  0  0  0  0  0  0  0  0  0  0
    1.7018   -0.4255    0.0000 C   0  0  0  0  0  0  0  0  0  0  0  0
   -3.3515   -2.5267    0.0000 C   0  0  0  0  0  0  0  0  0  0  0  0
   -0.2431    2.6656    0.0000 C   0  0  0  0  0  0  0  0  0  0  0  0
   -1.1288    2.1273    0.0000 C   0  0  0  0  0  0  0  0  0  0  0  0
    2.4312   -1.6758    0.0000 C   0  0  0  0  0  0  0  0  0  0  0  0
   -4.5671   -1.9710    0.0000 C   0  0  0  0  0  0  0  0  0  0  0  0
    3.1432   -1.2590    0.0000 C   0  0  0  0  0  0  0  0  0  0  0  0
    3.8551   -1.6584    0.0000 C   0  0  0  0  0  0  0  0  0  0  0  0
  1 15  1  0  0  0  0
  1 22  1  0  0  0  0
  2 21  1  0  0  0  0
  2 30  1  0  0  0  0
  3 32  2  0  0  0  0
  4 32  1  0  0  0  0
  5 26  1  0  0  0  0
  5 30  2  0  0  0  0
  6  7  2  0  0  0  0
  6  8  1  0  0  0  0
  6 10  1  0  0  0  0
  7  9  1  0  0  0  0
  7 16  1  0  0  0  0
  8 13  2  0  0  0  0
  8 14  1  0  0  0  0
  9 11  1  0  0  0  0
  9 15  2  0  0  0  0
 10 17  2  0  0  0  0
 10 18  1  0  0  0  0
 11 22  2  0  0  0  0
 11 27  1  0  0  0  0
 12 19  2  0  0  0  0
 12 20  1  0  0  0  0
 12 21  1  0  0  0  0
 13 19  1  0  0  0  0
 14 20  2  0  0  0  0
 16 28  1  0  0  0  0
 17 24  1  0  0  0  0
 18 25  2  0  0  0  0
 21 26  2  0  0  0  0
 23 24  2  0  0  0  0
 23 25  1  0  0  0  0
 23 29  1  0  0  0  0
 29 31  2  0  0  0  0
 31 32  1  0  0  0  0
M  END
> <PUBCHEM_COMPOUND_ID_TYPE>
0

> <PUBCHEM_TOTAL_CHARGE>
0

> <PUBCHEM_SUBSTANCE_ID>
310945019

> <PUBCHEM_SUBSTANCE_VERSION>
1

> <PUBCHEM_EXT_DATASOURCE_NAME>
4488

> <PUBCHEM_EXT_DATASOURCE_REGID>
SCHEMBL16123107

> <PUBCHEM_SUBSTANCE_COMMENT>
InChI=1S/C27H23NO2S2/c1-3-23(24-16-31-15-18(24)2)27(21-7-4-19(5-8-21)6-13-26(29)30)22-11-9-20(10-12-22)25-14-28-17-32-25/h4-17H,3H2,1-2H3,(H,29,30)/b13-6+,27-23+
InChIKey=DMXZRVSRYLPSHR-DKXRTFGMSA-N

> <PUBCHEM_SUBSTANCE_SYNONYM>
SCHEMBL16123107

> <PUBCHEM_XREF_EXT_ID>
SCHEMBL16123107

> <PUBCHEM_EXT_DATASOURCE_URL>
https://www.surechembl.org/

> <PUBCHEM_EXT_SUBSTANCE_URL>
https://www.surechembl.org/chemical/SCHEMBL16123107

> <PUBCHEM_CID_ASSOCIATIONS>
86271470  1

> <PUBCHEM_COORDINATE_TYPE>
1
3

$$$$
