310932889
  -OEChem-07211613022D

 29 32  0     0  0  0  0  0  0999 V2000
    2.8558   -2.7288    0.0000 O   0  0  0  0  0  0  0  0  0  0  0  0
    1.4914    0.0000    0.0000 O   0  0  0  0  0  0  0  0  0  0  0  0
    7.3616   -2.8241    0.0000 O   0  0  0  0  0  0  0  0  0  0  0  0
    3.7760   -1.5865    0.0000 N   0  0  0  0  0  0  0  0  0  0  0  0
    1.6500   -1.4279    0.0000 N   0  0  0  0  0  0  0  0  0  0  0  0
    3.6808   -0.7615    0.0000 N   0  0  0  0  0  0  0  0  0  0  0  0
    5.2039   -1.5865    0.0000 N   0  0  0  0  0  0  0  0  0  0  0  0
    6.6636   -4.0616    0.0000 N   0  0  0  0  0  0  0  0  0  0  0  0
    2.4433   -1.3327    0.0000 C   0  0  0  0  0  0  0  0  0  0  0  0
    3.0145   -1.9356    0.0000 C   0  0  0  0  0  0  0  0  0  0  0  0
    4.5058   -1.9991    0.0000 C   0  0  0  0  0  0  0  0  0  0  0  0
    2.8558   -0.6029    0.0000 C   0  0  0  0  0  0  0  0  0  0  0  0
    1.1740   -0.7615    0.0000 C   0  0  0  0  0  0  0  0  0  0  0  0
    4.5058   -2.8241    0.0000 C   0  0  0  0  0  0  0  0  0  0  0  0
    1.3010   -2.1894    0.0000 C   0  0  0  0  0  0  0  0  0  0  0  0
    5.9337   -2.8241    0.0000 C   0  0  0  0  0  0  0  0  0  0  0  0
    5.9337   -1.9991    0.0000 C   0  0  0  0  0  0  0  0  0  0  0  0
    5.2039   -3.2366    0.0000 C   0  0  0  0  0  0  0  0  0  0  0  0
    0.3173   -0.8250    0.0000 C   0  0  0  0  0  0  0  0  0  0  0  0
    6.6636   -3.2366    0.0000 C   0  0  0  0  0  0  0  0  0  0  0  0
    0.4760   -2.2529    0.0000 C   0  0  0  0  0  0  0  0  0  0  0  0
    0.0000   -1.5865    0.0000 C   0  0  0  0  0  0  0  0  0  0  0  0
    7.3616   -4.4741    0.0000 C   0  0  0  0  0  0  0  0  0  0  0  0
    8.0914   -4.0616    0.0000 C   0  0  0  0  0  0  0  0  0  0  0  0
    8.7895   -4.4741    0.0000 C   0  0  0  0  0  0  0  0  0  0  0  0
    8.0914   -3.2366    0.0000 C   0  0  0  0  0  0  0  0  0  0  0  0
    9.5193   -4.0616    0.0000 C   0  0  0  0  0  0  0  0  0  0  0  0
    8.7895   -2.8241    0.0000 C   0  0  0  0  0  0  0  0  0  0  0  0
    9.5193   -3.2366    0.0000 C   0  0  0  0  0  0  0  0  0  0  0  0
  1 10  1  0  0  0  0
  2 13  2  0  0  0  0
  3 20  2  0  0  0  0
  4  6  1  0  0  0  0
  4 10  1  0  0  0  0
  4 11  1  0  0  0  0
  5  9  1  0  0  0  0
  5 13  1  0  0  0  0
  5 15  1  0  0  0  0
  6 12  2  0  0  0  0
  7 11  2  0  0  0  0
  7 17  1  0  0  0  0
  8 20  1  0  0  0  0
  8 23  1  0  0  0  0
  9 10  2  0  0  0  0
  9 12  1  0  0  0  0
 11 14  1  0  0  0  0
 13 19  1  0  0  0  0
 14 18  2  0  0  0  0
 15 21  2  0  0  0  0
 16 17  2  0  0  0  0
 16 18  1  0  0  0  0
 16 20  1  0  0  0  0
 19 22  2  0  0  0  0
 21 22  1  0  0  0  0
 23 24  1  0  0  0  0
 24 25  2  0  0  0  0
 24 26  1  0  0  0  0
 25 27  1  0  0  0  0
 26 28  2  0  0  0  0
 27 29  2  0  0  0  0
 28 29  1  0  0  0  0
M  END
> <PUBCHEM_COMPOUND_ID_TYPE>
0

> <PUBCHEM_TOTAL_CHARGE>
0

> <PUBCHEM_SUBSTANCE_ID>
310932889

> <PUBCHEM_SUBSTANCE_VERSION>
1

> <PUBCHEM_EXT_DATASOURCE_NAME>
4488

> <PUBCHEM_EXT_DATASOURCE_REGID>
SCHEMBL16110282

> <PUBCHEM_SUBSTANCE_COMMENT>
InChI=1S/C21H17N5O3/c27-19-8-4-5-11-25(19)17-14-24-26(21(17)29)18-10-9-16(13-22-18)20(28)23-12-15-6-2-1-3-7-15/h1-11,13-14,29H,12H2,(H,23,28)
InChIKey=JRPFPDCWIZZMDN-UHFFFAOYSA-N

> <PUBCHEM_SUBSTANCE_SYNONYM>
SCHEMBL16110282

> <PUBCHEM_XREF_EXT_ID>
SCHEMBL16110282

> <PUBCHEM_EXT_DATASOURCE_URL>
https://www.surechembl.org/

> <PUBCHEM_EXT_SUBSTANCE_URL>
https://www.surechembl.org/chemical/SCHEMBL16110282

> <PUBCHEM_CID_ASSOCIATIONS>
117601371  1

> <PUBCHEM_COORDINATE_TYPE>
1
3

$$$$
