310941901
  -OEChem-07211613022D

 20 22  0     0  0  0  0  0  0999 V2000
    0.2887   -1.3681    0.0000 Br  0  0  0  0  0  0  0  0  0  0  0  0
   -0.2063    0.0893    0.0000 O   0  0  0  0  0  0  0  0  0  0  0  0
    2.2824    0.0481    0.0000 N   0  0  0  0  0  0  0  0  0  0  0  0
    2.4475    1.3681    0.0000 N   0  0  0  0  0  0  0  0  0  0  0  0
    3.2037    1.0244    0.0000 N   0  0  0  0  0  0  0  0  0  0  0  0
    3.9050   -0.3643    0.0000 N   0  0  0  0  0  0  0  0  0  0  0  0
    1.8837    0.7632    0.0000 C   0  0  0  0  0  0  0  0  0  0  0  0
    0.6326    0.0481    0.0000 C   0  0  0  0  0  0  0  0  0  0  0  0
    3.0937    0.1994    0.0000 C   0  0  0  0  0  0  0  0  0  0  0  0
    1.0175   -0.6531    0.0000 C   0  0  0  0  0  0  0  0  0  0  0  0
    1.0588    0.7769    0.0000 C   0  0  0  0  0  0  0  0  0  0  0  0
    1.8425   -0.6669    0.0000 C   0  0  0  0  0  0  0  0  0  0  0  0
   -0.6326   -0.6257    0.0000 C   0  0  0  0  0  0  0  0  0  0  0  0
   -1.4575   -0.6119    0.0000 C   0  0  0  0  0  0  0  0  0  0  0  0
   -1.8562    0.0893    0.0000 C   0  0  0  0  0  0  0  0  0  0  0  0
   -1.8837   -1.3131    0.0000 C   0  0  0  0  0  0  0  0  0  0  0  0
   -3.0937   -0.5982    0.0000 C   0  0  0  0  0  0  0  0  0  0  0  0
   -2.6812    0.1031    0.0000 C   0  0  0  0  0  0  0  0  0  0  0  0
   -2.7087   -1.2993    0.0000 C   0  0  0  0  0  0  0  0  0  0  0  0
   -3.9050   -0.5707    0.0000 C   0  0  0  0  0  0  0  0  0  0  0  0
  1 10  1  0  0  0  0
  2  8  1  0  0  0  0
  2 13  1  0  0  0  0
  3  7  1  0  0  0  0
  3  9  1  0  0  0  0
  3 12  1  0  0  0  0
  4  5  1  0  0  0  0
  4  7  2  0  0  0  0
  5  9  2  0  0  0  0
  6  9  1  0  0  0  0
  7 11  1  0  0  0  0
  8 10  1  0  0  0  0
  8 11  2  0  0  0  0
 10 12  2  0  0  0  0
 14 13  1  1  0  0  0
 14 15  1  0  0  0  0
 14 16  1  0  0  0  0
 15 18  1  0  0  0  0
 16 19  1  0  0  0  0
 17 18  1  0  0  0  0
 17 19  1  0  0  0  0
 17 20  1  6  0  0  0
M  END
> <PUBCHEM_COMPOUND_ID_TYPE>
0

> <PUBCHEM_TOTAL_CHARGE>
0

> <PUBCHEM_SUBSTANCE_ID>
310941901

> <PUBCHEM_SUBSTANCE_VERSION>
1

> <PUBCHEM_EXT_DATASOURCE_NAME>
4488

> <PUBCHEM_EXT_DATASOURCE_REGID>
SCHEMBL16119933

> <PUBCHEM_SUBSTANCE_COMMENT>
InChI=1S/C14H19BrN4O/c1-9-2-4-10(5-3-9)8-20-12-6-13-17-18-14(16)19(13)7-11(12)15/h6-7,9-10H,2-5,8H2,1H3,(H2,16,18)/t9-,10-
InChIKey=MJLAINQCCYQXCX-MGCOHNPYSA-N

> <PUBCHEM_SUBSTANCE_SYNONYM>
SCHEMBL16119933

> <PUBCHEM_XREF_EXT_ID>
SCHEMBL16119933

> <PUBCHEM_EXT_DATASOURCE_URL>
https://www.surechembl.org/

> <PUBCHEM_EXT_SUBSTANCE_URL>
https://www.surechembl.org/chemical/SCHEMBL16119933

> <PUBCHEM_CID_ASSOCIATIONS>
117608633  1

> <PUBCHEM_COORDINATE_TYPE>
1
3

> <PUBCHEM_BONDANNOTATIONS>
14  13  5
17  20  6

$$$$
