310942853
  -OEChem-07211613022D

 53 58  0     1  0  0  0  0  0999 V2000
   -2.9370    2.0955    0.0000 F   0  0  0  0  0  0  0  0  0  0  0  0
    3.5145    0.9735    0.0000 F   0  0  0  0  0  0  0  0  0  0  0  0
   -2.9370   -1.1880    0.0000 F   0  0  0  0  0  0  0  0  0  0  0  0
    1.8645    3.6960    0.0000 O   0  0  0  0  0  0  0  0  0  0  0  0
   -0.1980    0.1320    0.0000 O   0  0  0  0  0  0  0  0  0  0  0  0
    2.4090   -2.3760    0.0000 O   0  0  0  0  0  0  0  0  0  0  0  0
    3.6630   -2.0790    0.0000 O   0  0  0  0  0  0  0  0  0  0  0  0
   -0.6105   -1.9965    0.0000 O   0  0  0  0  0  0  0  0  0  0  0  0
    1.0395    0.8415    0.0000 N   0  0  0  0  0  0  0  0  0  0  0  0
   -0.6105    2.2605    0.0000 N   0  0  0  0  0  0  0  0  0  0  0  0
   -0.7590    0.9405    0.0000 N   0  0  0  0  0  0  0  0  0  0  0  0
    1.0395   -0.5775    0.0000 N   0  0  0  0  0  0  0  0  0  0  0  0
    2.8875   -1.0560    0.0000 N   0  0  0  0  0  0  0  0  0  0  0  0
    0.6270    1.5510    0.0000 C   0  0  3  0  0  0  0  0  0  0  0  0
   -0.2145    1.5840    0.0000 C   0  0  0  0  0  0  0  0  0  0  0  0
    1.0230    2.2605    0.0000 C   0  0  0  0  0  0  0  0  0  0  0  0
   -1.5180    1.2870    0.0000 C   0  0  0  0  0  0  0  0  0  0  0  0
   -1.4190    2.0955    0.0000 C   0  0  0  0  0  0  0  0  0  0  0  0
   -2.2275    0.8745    0.0000 C   0  0  0  0  0  0  0  0  0  0  0  0
    0.6435    0.1320    0.0000 C   0  0  0  0  0  0  0  0  0  0  0  0
    1.8810    0.8250    0.0000 C   0  0  0  0  0  0  0  0  0  0  0  0
    0.6270    2.9865    0.0000 C   0  0  0  0  0  0  0  0  0  0  0  0
    1.8645    2.2605    0.0000 C   0  0  0  0  0  0  0  0  0  0  0  0
    2.2935    0.1320    0.0000 C   0  0  3  0  0  0  0  0  0  0  0  0
   -0.2145    3.0030    0.0000 C   0  0  0  0  0  0  0  0  0  0  0  0
    0.1980    2.2605    0.0000 C   0  0  0  0  0  0  0  0  0  0  0  0
   -2.9535    1.2870    0.0000 C   0  0  0  0  0  0  0  0  0  0  0  0
    3.1020    0.2475    0.0000 C   0  0  3  0  0  0  0  0  0  0  0  0
   -2.2440    0.0495    0.0000 C   0  0  0  0  0  0  0  0  0  0  0  0
    1.0395    3.6960    0.0000 C   0  0  0  0  0  0  0  0  0  0  0  0
    2.2770    2.9865    0.0000 C   0  0  0  0  0  0  0  0  0  0  0  0
   -0.6270    3.6960    0.0000 C   0  0  0  0  0  0  0  0  0  0  0  0
    2.1780   -0.6435    0.0000 C   0  0  0  0  0  0  0  0  0  0  0  0
    3.4650   -0.4620    0.0000 C   0  0  0  0  0  0  0  0  0  0  0  0
   -2.9370   -0.3465    0.0000 C   0  0  0  0  0  0  0  0  0  0  0  0
   -3.6630    0.8580    0.0000 C   0  0  0  0  0  0  0  0  0  0  0  0
    2.9865   -1.8645    0.0000 C   0  0  0  0  0  0  0  0  0  0  0  0
    0.6270   -1.2870    0.0000 C   0  0  3  0  0  0  0  0  0  0  0  0
   -3.6630    0.0495    0.0000 C   0  0  0  0  0  0  0  0  0  0  0  0
   -1.4520    3.7125    0.0000 C   0  0  0  0  0  0  0  0  0  0  0  0
   -0.2145    4.3890    0.0000 C   0  0  0  0  0  0  0  0  0  0  0  0
   -1.8480    4.3890    0.0000 C   0  0  0  0  0  0  0  0  0  0  0  0
   -0.6105    5.1150    0.0000 C   0  0  0  0  0  0  0  0  0  0  0  0
   -0.1980   -1.2870    0.0000 C   0  0  0  0  0  0  0  0  0  0  0  0
   -1.4355    5.0985    0.0000 C   0  0  0  0  0  0  0  0  0  0  0  0
    1.0560   -1.9965    0.0000 C   0  0  0  0  0  0  0  0  0  0  0  0
    2.5740   -3.2340    0.0000 C   0  0  0  0  0  0  0  0  0  0  0  0
    1.9305   -3.7455    0.0000 C   0  0  0  0  0  0  0  0  0  0  0  0
    1.1550   -3.4980    0.0000 C   0  0  0  0  0  0  0  0  0  0  0  0
    2.1120   -4.5539    0.0000 C   0  0  0  0  0  0  0  0  0  0  0  0
    0.5280   -4.0425    0.0000 C   0  0  0  0  0  0  0  0  0  0  0  0
    1.5015   -5.1150    0.0000 C   0  0  0  0  0  0  0  0  0  0  0  0
    0.6930   -4.8675    0.0000 C   0  0  0  0  0  0  0  0  0  0  0  0
  1 27  1  0  0  0  0
 28  2  1  1  0  0  0
  3 35  1  0  0  0  0
  4 30  1  0  0  0  0
  4 31  1  0  0  0  0
  5 20  2  0  0  0  0
  6 37  1  0  0  0  0
  6 47  1  0  0  0  0
  7 37  2  0  0  0  0
  8 44  1  0  0  0  0
 14  9  1  1  0  0  0
  9 20  1  0  0  0  0
  9 21  1  0  0  0  0
 10 15  1  0  0  0  0
 10 18  1  0  0  0  0
 10 25  1  0  0  0  0
 11 15  2  0  0  0  0
 11 17  1  0  0  0  0
 12 20  1  0  0  0  0
 12 38  1  0  0  0  0
 13 33  1  0  0  0  0
 13 34  1  0  0  0  0
 13 37  1  0  0  0  0
 14 15  1  0  0  0  0
 14 16  1  0  0  0  0
 16 22  1  0  0  0  0
 16 23  1  0  0  0  0
 16 26  1  0  0  0  0
 17 18  2  0  0  0  0
 17 19  1  0  0  0  0
 19 27  1  0  0  0  0
 19 29  2  0  0  0  0
 24 21  1  1  0  0  0
 22 30  1  0  0  0  0
 23 31  1  0  0  0  0
 24 28  1  0  0  0  0
 24 33  1  0  0  0  0
 25 32  1  0  0  0  0
 27 36  2  0  0  0  0
 28 34  1  0  0  0  0
 29 35  1  0  0  0  0
 32 40  2  0  0  0  0
 32 41  1  0  0  0  0
 35 39  2  0  0  0  0
 36 39  1  0  0  0  0
 38 44  1  0  0  0  0
 38 46  1  1  0  0  0
 40 42  1  0  0  0  0
 41 43  2  0  0  0  0
 42 45  2  0  0  0  0
 43 45  1  0  0  0  0
 47 48  1  0  0  0  0
 48 49  2  0  0  0  0
 48 50  1  0  0  0  0
 49 51  1  0  0  0  0
 50 52  2  0  0  0  0
 51 53  2  0  0  0  0
 52 53  1  0  0  0  0
M  END
> <PUBCHEM_COMPOUND_ID_TYPE>
0

> <PUBCHEM_TOTAL_CHARGE>
0

> <PUBCHEM_SUBSTANCE_ID>
310942853

> <PUBCHEM_SUBSTANCE_VERSION>
1

> <PUBCHEM_EXT_DATASOURCE_NAME>
4488

> <PUBCHEM_EXT_DATASOURCE_REGID>
SCHEMBL16120908

> <PUBCHEM_SUBSTANCE_COMMENT>
InChI=1S/C40H46F3N5O5/c1-27(25-49)44-38(50)48(22-30-21-47(23-34(30)43)39(51)53-26-29-11-7-4-8-12-29)36(40(2)15-17-52-18-16-40)37-45-35(32-19-31(41)13-14-33(32)42)24-46(37)20-28-9-5-3-6-10-28/h3-14,19,24,27,30,34,36,49H,15-18,20-23,25-26H2,1-2H3,(H,44,50)/t27-,30-,34-,36-/m0/s1
InChIKey=JAVILMHZMVHQED-FFNHAVLPSA-N

> <PUBCHEM_SUBSTANCE_SYNONYM>
SCHEMBL16120908

> <PUBCHEM_XREF_EXT_ID>
SCHEMBL16120908

> <PUBCHEM_EXT_DATASOURCE_URL>
https://www.surechembl.org/

> <PUBCHEM_EXT_SUBSTANCE_URL>
https://www.surechembl.org/chemical/SCHEMBL16120908

> <PUBCHEM_CID_ASSOCIATIONS>
117609343  1

> <PUBCHEM_COORDINATE_TYPE>
1
3

> <PUBCHEM_BONDANNOTATIONS>
28  2  5
24  21  5
38  46  5
14  9  5

$$$$
