310937893
  -OEChem-07211613022D

 26 29  0     0  0  0  0  0  0999 V2000
    7.6815   -2.2301    0.0000 O   0  0  0  0  0  0  0  0  0  0  0  0
    3.5517   -2.9460    0.0000 O   0  0  0  0  0  0  0  0  0  0  0  0
    1.1288   -2.2576    0.0000 O   0  0  0  0  0  0  0  0  0  0  0  0
    6.4150   -1.8171    0.0000 N   0  0  0  0  0  0  0  0  0  0  0  0
    5.8369   -3.9096    0.0000 N   0  0  0  0  0  0  0  0  0  0  0  0
    7.1859   -2.8909    0.0000 N   0  0  0  0  0  0  0  0  0  0  0  0
    1.9548   -2.3127    0.0000 N   0  0  0  0  0  0  0  0  0  0  0  0
    4.4052   -4.0748    0.0000 C   0  0  0  0  0  0  0  0  0  0  0  0
    5.7267   -3.1111    0.0000 C   0  0  0  0  0  0  0  0  0  0  0  0
    6.4150   -2.6431    0.0000 C   0  0  0  0  0  0  0  0  0  0  0  0
    4.3226   -3.2763    0.0000 C   0  0  0  0  0  0  0  0  0  0  0  0
    3.7444   -4.5428    0.0000 C   0  0  0  0  0  0  0  0  0  0  0  0
    7.1859   -1.5418    0.0000 C   0  0  0  0  0  0  0  0  0  0  0  0
    4.9834   -2.7532    0.0000 C   0  0  0  0  0  0  0  0  0  0  0  0
    7.4612   -0.7709    0.0000 C   0  0  0  0  0  0  0  0  0  0  0  0
    5.1761   -4.4327    0.0000 C   0  0  0  0  0  0  0  0  0  0  0  0
    3.3865   -5.2862    0.0000 C   0  0  0  0  0  0  0  0  0  0  0  0
    2.8909   -4.6530    0.0000 C   0  0  0  0  0  0  0  0  0  0  0  0
    2.8909   -3.4415    0.0000 C   0  0  0  0  0  0  0  0  0  0  0  0
    2.1475   -3.1111    0.0000 C   0  0  0  0  0  0  0  0  0  0  0  0
    8.2596   -1.0187    0.0000 C   0  0  0  0  0  0  0  0  0  0  0  0
    7.7090    0.0000    0.0000 C   0  0  0  0  0  0  0  0  0  0  0  0
    6.6628   -0.5231    0.0000 C   0  0  0  0  0  0  0  0  0  0  0  0
    1.4317   -3.5241    0.0000 C   0  0  0  0  0  0  0  0  0  0  0  0
    0.7984   -3.0010    0.0000 C   0  0  0  0  0  0  0  0  0  0  0  0
    0.0000   -3.1937    0.0000 C   0  0  0  0  0  0  0  0  0  0  0  0
  1  6  1  0  0  0  0
  1 13  1  0  0  0  0
  2 11  1  0  0  0  0
  2 19  1  0  0  0  0
  3  7  1  0  0  0  0
  3 25  1  0  0  0  0
  4 10  1  0  0  0  0
  4 13  2  0  0  0  0
  5  9  1  0  0  0  0
  5 16  2  0  0  0  0
  6 10  2  0  0  0  0
  7 20  2  0  0  0  0
  8 11  2  0  0  0  0
  8 12  1  0  0  0  0
  8 16  1  0  0  0  0
  9 10  1  0  0  0  0
  9 14  2  0  0  0  0
 11 14  1  0  0  0  0
 12 17  1  0  0  0  0
 12 18  1  0  0  0  0
 13 15  1  0  0  0  0
 15 21  1  0  0  0  0
 15 22  1  0  0  0  0
 15 23  1  0  0  0  0
 17 18  1  0  0  0  0
 19 20  1  0  0  0  0
 20 24  1  0  0  0  0
 24 25  2  0  0  0  0
 25 26  1  0  0  0  0
M  END
> <PUBCHEM_COMPOUND_ID_TYPE>
0

> <PUBCHEM_TOTAL_CHARGE>
0

> <PUBCHEM_SUBSTANCE_ID>
310937893

> <PUBCHEM_SUBSTANCE_VERSION>
1

> <PUBCHEM_EXT_DATASOURCE_NAME>
4488

> <PUBCHEM_EXT_DATASOURCE_REGID>
SCHEMBL16115721

> <PUBCHEM_SUBSTANCE_COMMENT>
InChI=1S/C19H22N4O3/c1-11-7-13(22-25-11)10-24-16-8-15(20-9-14(16)12-5-6-12)17-21-18(26-23-17)19(2,3)4/h7-9,12H,5-6,10H2,1-4H3
InChIKey=XBVJQRVVRPMSJR-UHFFFAOYSA-N

> <PUBCHEM_SUBSTANCE_SYNONYM>
SCHEMBL16115721

> <PUBCHEM_XREF_EXT_ID>
SCHEMBL16115721

> <PUBCHEM_EXT_DATASOURCE_URL>
https://www.surechembl.org/

> <PUBCHEM_EXT_SUBSTANCE_URL>
https://www.surechembl.org/chemical/SCHEMBL16115721

> <PUBCHEM_CID_ASSOCIATIONS>
117605515  1

> <PUBCHEM_COORDINATE_TYPE>
1
3

$$$$
