310943103
  -OEChem-07211613022D

 21 23  0     0  0  0  0  0  0999 V2000
    3.1860   -1.0349    0.0000 F   0  0  0  0  0  0  0  0  0  0  0  0
    3.2008    1.0349    0.0000 F   0  0  0  0  0  0  0  0  0  0  0  0
   -3.2008   -0.8723    0.0000 F   0  0  0  0  0  0  0  0  0  0  0  0
   -3.1712    0.9167    0.0000 F   0  0  0  0  0  0  0  0  0  0  0  0
   -2.4468    0.9167    0.0000 F   0  0  0  0  0  0  0  0  0  0  0  0
    0.5544   -0.8280    0.0000 N   0  0  0  0  0  0  0  0  0  0  0  0
    0.5692    0.8428    0.0000 N   0  0  0  0  0  0  0  0  0  0  0  0
   -1.7076   -0.8723    0.0000 N   0  0  0  0  0  0  0  0  0  0  0  0
    0.1109   -0.0296    0.0000 C   0  0  0  0  0  0  0  0  0  0  0  0
    1.2641   -0.5322    0.0000 C   0  0  0  0  0  0  0  0  0  0  0  0
    1.2641    0.5026    0.0000 C   0  0  0  0  0  0  0  0  0  0  0  0
   -0.6135    0.0000    0.0000 C   0  0  0  0  0  0  0  0  0  0  0  0
   -2.1068   -0.0148    0.0000 C   0  0  0  0  0  0  0  0  0  0  0  0
    1.8850   -1.0349    0.0000 C   0  0  0  0  0  0  0  0  0  0  0  0
    1.9293    0.9906    0.0000 C   0  0  0  0  0  0  0  0  0  0  0  0
    2.5208   -0.5322    0.0000 C   0  0  0  0  0  0  0  0  0  0  0  0
    2.5355    0.5174    0.0000 C   0  0  0  0  0  0  0  0  0  0  0  0
   -2.8313    0.0148    0.0000 C   0  0  0  0  0  0  0  0  0  0  0  0
   -0.9832   -0.9019    0.0000 C   0  0  0  0  0  0  0  0  0  0  0  0
   -0.9537    0.8576    0.0000 C   0  0  0  0  0  0  0  0  0  0  0  0
   -1.6928    0.8871    0.0000 C   0  0  0  0  0  0  0  0  0  0  0  0
  1 16  1  0  0  0  0
  2 17  1  0  0  0  0
  3 18  1  0  0  0  0
  4 18  1  0  0  0  0
  5 18  1  0  0  0  0
  6  9  2  0  0  0  0
  6 10  1  0  0  0  0
  7  9  1  0  0  0  0
  7 11  1  0  0  0  0
  8 13  1  0  0  0  0
  8 19  2  0  0  0  0
  9 12  1  0  0  0  0
 10 11  2  0  0  0  0
 10 14  1  0  0  0  0
 11 15  1  0  0  0  0
 12 19  1  0  0  0  0
 12 20  2  0  0  0  0
 13 18  1  0  0  0  0
 13 21  2  0  0  0  0
 14 16  2  0  0  0  0
 15 17  2  0  0  0  0
 16 17  1  0  0  0  0
 20 21  1  0  0  0  0
M  END
> <PUBCHEM_COMPOUND_ID_TYPE>
0

> <PUBCHEM_TOTAL_CHARGE>
0

> <PUBCHEM_SUBSTANCE_ID>
310943103

> <PUBCHEM_SUBSTANCE_VERSION>
1

> <PUBCHEM_EXT_DATASOURCE_NAME>
4488

> <PUBCHEM_EXT_DATASOURCE_REGID>
SCHEMBL16121162

> <PUBCHEM_SUBSTANCE_COMMENT>
InChI=1S/C13H6F5N3/c14-7-3-9-10(4-8(7)15)21-12(20-9)6-1-2-11(19-5-6)13(16,17)18/h1-5H,(H,20,21)
InChIKey=MJMYCBPFROMHFV-UHFFFAOYSA-N

> <PUBCHEM_SUBSTANCE_SYNONYM>
SCHEMBL16121162

> <PUBCHEM_XREF_EXT_ID>
SCHEMBL16121162

> <PUBCHEM_EXT_DATASOURCE_URL>
https://www.surechembl.org/

> <PUBCHEM_EXT_SUBSTANCE_URL>
https://www.surechembl.org/chemical/SCHEMBL16121162

> <PUBCHEM_CID_ASSOCIATIONS>
117609534  1

> <PUBCHEM_COORDINATE_TYPE>
1
3

$$$$
