310940384
  -OEChem-07211613022D

 17 18  0     0  0  0  0  0  0999 V2000
    1.9422    0.0414    0.0000 O   0  0  0  0  0  0  0  0  0  0  0  0
   -3.0343    0.7603    0.0000 O   0  0  0  0  0  0  0  0  0  0  0  0
    0.2419    0.2765    0.0000 N   0  0  0  0  0  0  0  0  0  0  0  0
    3.4213    0.9538    0.0000 N   0  0  0  0  0  0  0  0  0  0  0  0
    1.4031   -0.5667    0.0000 C   0  0  0  0  0  0  0  0  0  0  0  0
    2.7163   -0.2765    0.0000 C   0  0  0  0  0  0  0  0  0  0  0  0
   -0.5737    0.3732    0.0000 C   0  0  0  0  0  0  0  0  0  0  0  0
    1.8316   -1.2717    0.0000 C   0  0  0  0  0  0  0  0  0  0  0  0
    0.5737   -0.4562    0.0000 C   0  0  0  0  0  0  0  0  0  0  0  0
    2.6195   -1.1059    0.0000 C   0  0  0  0  0  0  0  0  0  0  0  0
   -2.2187    0.6220    0.0000 C   0  0  0  0  0  0  0  0  0  0  0  0
   -0.8778    1.1335    0.0000 C   0  0  0  0  0  0  0  0  0  0  0  0
   -1.0989   -0.2626    0.0000 C   0  0  0  0  0  0  0  0  0  0  0  0
   -1.6934    1.2717    0.0000 C   0  0  0  0  0  0  0  0  0  0  0  0
   -1.9146   -0.1244    0.0000 C   0  0  0  0  0  0  0  0  0  0  0  0
    3.4213    0.1244    0.0000 C   0  0  0  0  0  0  0  0  0  0  0  0
   -3.4213    0.0691    0.0000 C   0  0  0  0  0  0  0  0  0  0  0  0
  1  5  1  0  0  0  0
  1  6  1  0  0  0  0
  2 11  1  0  0  0  0
  2 17  1  0  0  0  0
  3  7  1  0  0  0  0
  3  9  2  0  0  0  0
  4 16  2  3  0  0  0
  5  8  2  0  0  0  0
  5  9  1  0  0  0  0
  6 10  2  0  0  0  0
  6 16  1  0  0  0  0
  7 12  2  0  0  0  0
  7 13  1  0  0  0  0
  8 10  1  0  0  0  0
 11 14  2  0  0  0  0
 11 15  1  0  0  0  0
 12 14  1  0  0  0  0
 13 15  2  0  0  0  0
M  END
> <PUBCHEM_COMPOUND_ID_TYPE>
0

> <PUBCHEM_TOTAL_CHARGE>
0

> <PUBCHEM_SUBSTANCE_ID>
310940384

> <PUBCHEM_SUBSTANCE_VERSION>
1

> <PUBCHEM_EXT_DATASOURCE_NAME>
4488

> <PUBCHEM_EXT_DATASOURCE_REGID>
SCHEMBL16118330

> <PUBCHEM_SUBSTANCE_COMMENT>
InChI=1S/C13H12N2O2/c1-16-11-4-2-10(3-5-11)15-9-13-7-6-12(8-14)17-13/h2-9,14H,1H3/b14-8?,15-9+
InChIKey=ZCMSSODBQJJOQI-LLMPCGPXSA-N

> <PUBCHEM_SUBSTANCE_SYNONYM>
SCHEMBL16118330

> <PUBCHEM_XREF_EXT_ID>
SCHEMBL16118330

> <PUBCHEM_EXT_DATASOURCE_URL>
https://www.surechembl.org/

> <PUBCHEM_EXT_SUBSTANCE_URL>
https://www.surechembl.org/chemical/SCHEMBL16118330

> <PUBCHEM_CID_ASSOCIATIONS>
117607415  1

> <PUBCHEM_COORDINATE_TYPE>
1
3

> <PUBCHEM_BONDANNOTATIONS>
3  7  3

$$$$
