310948829
  -OEChem-07211613022D

 24 24  0     1  0  0  0  0  0999 V2000
    0.3374    1.7245    0.0000 O   0  0  0  0  0  0  0  0  0  0  0  0
    0.3374   -0.8060    0.0000 O   0  0  0  0  0  0  0  0  0  0  0  0
   -1.1247    0.0375    0.0000 O   0  0  0  0  0  0  0  0  0  0  0  0
    1.7996    0.0375    0.0000 O   0  0  0  0  0  0  0  0  0  0  0  0
   -1.8371    1.3121    0.0000 O   0  0  0  0  0  0  0  0  0  0  0  0
    1.0310   -1.9870    0.0000 O   0  0  0  0  0  0  0  0  0  0  0  0
    3.2054    0.0750    0.0000 O   0  0  0  0  0  0  0  0  0  0  0  0
   -2.5118    2.4744    0.0000 O   0  0  0  0  0  0  0  0  0  0  0  0
    0.3562    0.0562    0.0000 C   0  0  3  0  0  0  0  0  0  0  0  0
   -0.3937    0.4686    0.0000 C   0  0  3  0  0  0  0  0  0  0  0  0
    1.0498    0.4499    0.0000 C   0  0  3  0  0  0  0  0  0  0  0  0
   -0.3937    1.3121    0.0000 C   0  0  3  0  0  0  0  0  0  0  0  0
    1.0685    1.2934    0.0000 C   0  0  0  0  0  0  0  0  0  0  0  0
   -1.1247    1.7245    0.0000 C   0  0  0  0  0  0  0  0  0  0  0  0
    1.0498   -1.2184    0.0000 C   0  0  0  0  0  0  0  0  0  0  0  0
    2.5493    0.4499    0.0000 C   0  0  0  0  0  0  0  0  0  0  0  0
   -1.0872   -0.7686    0.0000 C   0  0  0  0  0  0  0  0  0  0  0  0
   -2.5118    1.7245    0.0000 C   0  0  0  0  0  0  0  0  0  0  0  0
    1.7245   -0.8248    0.0000 C   0  0  0  0  0  0  0  0  0  0  0  0
   -1.7996   -1.2184    0.0000 C   0  0  0  0  0  0  0  0  0  0  0  0
    2.5118    1.2559    0.0000 C   0  0  0  0  0  0  0  0  0  0  0  0
   -1.7808   -2.0432    0.0000 C   0  0  0  0  0  0  0  0  0  0  0  0
   -3.2054    1.3309    0.0000 C   0  0  0  0  0  0  0  0  0  0  0  0
   -2.4744   -2.4744    0.0000 C   0  0  0  0  0  0  0  0  0  0  0  0
  1 12  1  0  0  0  0
  1 13  1  0  0  0  0
  9  2  1  1  0  0  0
  2 15  1  0  0  0  0
 10  3  1  6  0  0  0
  3 17  1  0  0  0  0
 11  4  1  1  0  0  0
  4 16  1  0  0  0  0
  5 14  1  0  0  0  0
  5 18  1  0  0  0  0
  6 15  2  0  0  0  0
  7 16  2  0  0  0  0
  8 18  2  0  0  0  0
  9 10  1  0  0  0  0
  9 11  1  0  0  0  0
 10 12  1  0  0  0  0
 11 13  1  0  0  0  0
 12 14  1  1  0  0  0
 15 19  1  0  0  0  0
 16 21  1  0  0  0  0
 17 20  1  0  0  0  0
 18 23  1  0  0  0  0
 20 22  1  0  0  0  0
 22 24  1  0  0  0  0
M  END
> <PUBCHEM_COMPOUND_ID_TYPE>
0

> <PUBCHEM_TOTAL_CHARGE>
0

> <PUBCHEM_SUBSTANCE_ID>
310948829

> <PUBCHEM_SUBSTANCE_VERSION>
1

> <PUBCHEM_EXT_DATASOURCE_NAME>
4488

> <PUBCHEM_EXT_DATASOURCE_REGID>
SCHEMBL16127013

> <PUBCHEM_SUBSTANCE_COMMENT>
InChI=1S/C16H26O8/c1-5-6-7-20-15-13(8-21-10(2)17)22-9-14(23-11(3)18)16(15)24-12(4)19/h13-16H,5-9H2,1-4H3/t13-,14-,15-,16-/m1/s1
InChIKey=SXCPWOQENIMWBD-KLHDSHLOSA-N

> <PUBCHEM_SUBSTANCE_SYNONYM>
SCHEMBL16127013

> <PUBCHEM_XREF_EXT_ID>
SCHEMBL16127013

> <PUBCHEM_EXT_DATASOURCE_URL>
https://www.surechembl.org/

> <PUBCHEM_EXT_SUBSTANCE_URL>
https://www.surechembl.org/chemical/SCHEMBL16127013

> <PUBCHEM_CID_ASSOCIATIONS>
117614366  1

> <PUBCHEM_COORDINATE_TYPE>
1
3

> <PUBCHEM_BONDANNOTATIONS>
12  14  5
9  2  5
10  3  6
11  4  5

$$$$
