310930796
  -OEChem-07211613022D

 28 31  0     0  0  0  0  0  0999 V2000
    2.1763   -2.4731    0.0000 S   0  0  0  0  0  0  0  0  0  0  0  0
    2.6380   -3.2314    0.0000 O   0  0  0  0  0  0  0  0  0  0  0  0
    1.8136   -1.7476    0.0000 O   0  0  0  0  0  0  0  0  0  0  0  0
    6.4959    0.0000    0.0000 O   0  0  0  0  0  0  0  0  0  0  0  0
    8.6392   -1.2201    0.0000 N   0  0  0  0  0  0  0  0  0  0  0  0
    7.8808   -2.4731    0.0000 N   0  0  0  0  0  0  0  0  0  0  0  0
    9.3976   -2.3082    0.0000 N   0  0  0  0  0  0  0  0  0  0  0  0
    5.7705   -1.2201    0.0000 N   0  0  0  0  0  0  0  0  0  0  0  0
    2.9017   -2.0444    0.0000 C   0  0  0  0  0  0  0  0  0  0  0  0
    1.4838   -2.8687    0.0000 C   0  0  0  0  0  0  0  0  0  0  0  0
    8.6392   -2.0774    0.0000 C   0  0  0  0  0  0  0  0  0  0  0  0
    7.1883   -1.2201    0.0000 C   0  0  0  0  0  0  0  0  0  0  0  0
    7.8808   -0.8243    0.0000 C   0  0  0  0  0  0  0  0  0  0  0  0
    3.6272   -2.4731    0.0000 C   0  0  0  0  0  0  0  0  0  0  0  0
    2.9017   -1.2201    0.0000 C   0  0  0  0  0  0  0  0  0  0  0  0
    6.4959   -0.8243    0.0000 C   0  0  0  0  0  0  0  0  0  0  0  0
    4.3526   -1.2201    0.0000 C   0  0  0  0  0  0  0  0  0  0  0  0
    7.1883   -2.0774    0.0000 C   0  0  0  0  0  0  0  0  0  0  0  0
    9.3976   -0.9892    0.0000 C   0  0  0  0  0  0  0  0  0  0  0  0
    1.4509   -3.6931    0.0000 C   0  0  0  0  0  0  0  0  0  0  0  0
    0.7255   -2.4731    0.0000 C   0  0  0  0  0  0  0  0  0  0  0  0
    4.3526   -2.0444    0.0000 C   0  0  0  0  0  0  0  0  0  0  0  0
    3.6272   -0.8243    0.0000 C   0  0  0  0  0  0  0  0  0  0  0  0
    9.8922   -1.6487    0.0000 C   0  0  0  0  0  0  0  0  0  0  0  0
    5.0451   -0.7914    0.0000 C   0  0  0  0  0  0  0  0  0  0  0  0
    0.7255   -4.0888    0.0000 C   0  0  0  0  0  0  0  0  0  0  0  0
    0.0330   -2.8687    0.0000 C   0  0  0  0  0  0  0  0  0  0  0  0
    0.0000   -3.6931    0.0000 C   0  0  0  0  0  0  0  0  0  0  0  0
  1  2  2  0  0  0  0
  1  3  2  0  0  0  0
  1  9  1  0  0  0  0
  1 10  1  0  0  0  0
  4 16  2  0  0  0  0
  5 11  1  0  0  0  0
  5 13  1  0  0  0  0
  5 19  1  0  0  0  0
  6 11  1  0  0  0  0
  6 18  2  0  0  0  0
  7 11  2  0  0  0  0
  7 24  1  0  0  0  0
  8 16  1  0  0  0  0
  8 25  1  0  0  0  0
  9 14  2  0  0  0  0
  9 15  1  0  0  0  0
 10 20  2  0  0  0  0
 10 21  1  0  0  0  0
 12 13  2  0  0  0  0
 12 16  1  0  0  0  0
 12 18  1  0  0  0  0
 14 22  1  0  0  0  0
 15 23  2  0  0  0  0
 17 22  2  0  0  0  0
 17 23  1  0  0  0  0
 17 25  1  0  0  0  0
 19 24  2  0  0  0  0
 20 26  1  0  0  0  0
 21 27  2  0  0  0  0
 26 28  2  0  0  0  0
 27 28  1  0  0  0  0
M  END
> <PUBCHEM_COMPOUND_ID_TYPE>
0

> <PUBCHEM_TOTAL_CHARGE>
0

> <PUBCHEM_SUBSTANCE_ID>
310930796

> <PUBCHEM_SUBSTANCE_VERSION>
1

> <PUBCHEM_EXT_DATASOURCE_NAME>
4488

> <PUBCHEM_EXT_DATASOURCE_REGID>
SCHEMBL16108093

> <PUBCHEM_SUBSTANCE_COMMENT>
InChI=1S/C20H16N4O3S/c25-19(16-13-23-20-21-10-11-24(20)14-16)22-12-15-6-8-18(9-7-15)28(26,27)17-4-2-1-3-5-17/h1-11,13-14H,12H2,(H,22,25)
InChIKey=CEIPSEPTGJZGSX-UHFFFAOYSA-N

> <PUBCHEM_SUBSTANCE_SYNONYM>
SCHEMBL16108093

> <PUBCHEM_XREF_EXT_ID>
SCHEMBL16108093

> <PUBCHEM_EXT_DATASOURCE_URL>
https://www.surechembl.org/

> <PUBCHEM_EXT_SUBSTANCE_URL>
https://www.surechembl.org/chemical/SCHEMBL16108093

> <PUBCHEM_CID_ASSOCIATIONS>
71818455  1

> <PUBCHEM_COORDINATE_TYPE>
1
3

$$$$
