310944289
  -OEChem-07211613022D

 29 31  0     0  0  0  0  0  0999 V2000
   -3.0456   -0.8577    0.0000 Cl  0  0  0  0  0  0  0  0  0  0  0  0
   -5.0221    2.0511    0.0000 F   0  0  0  0  0  0  0  0  0  0  0  0
   -0.0124   -0.8453    0.0000 O   0  0  0  0  0  0  0  0  0  0  0  0
    1.4171    1.6409    0.0000 O   0  0  0  0  0  0  0  0  0  0  0  0
    5.0221   -0.4351    0.0000 O   0  0  0  0  0  0  0  0  0  0  0  0
    2.1630    0.3978    0.0000 N   0  0  0  0  0  0  0  0  0  0  0  0
    0.0000    0.8080    0.0000 N   0  0  0  0  0  0  0  0  0  0  0  0
    3.6050   -0.4351    0.0000 N   0  0  0  0  0  0  0  0  0  0  0  0
   -2.1505    0.3978    0.0000 C   0  0  0  0  0  0  0  0  0  0  0  0
   -0.7210    0.3978    0.0000 C   0  0  0  0  0  0  0  0  0  0  0  0
   -2.1630   -0.4226    0.0000 C   0  0  0  0  0  0  0  0  0  0  0  0
   -2.8839    0.8204    0.0000 C   0  0  0  0  0  0  0  0  0  0  0  0
   -1.4420    0.8080    0.0000 C   0  0  0  0  0  0  0  0  0  0  0  0
   -0.7334   -0.4226    0.0000 C   0  0  0  0  0  0  0  0  0  0  0  0
   -1.4296   -0.8453    0.0000 C   0  0  0  0  0  0  0  0  0  0  0  0
    1.4296    0.7956    0.0000 C   0  0  0  0  0  0  0  0  0  0  0  0
   -3.5925    0.3978    0.0000 C   0  0  0  0  0  0  0  0  0  0  0  0
   -2.8715    1.6409    0.0000 C   0  0  0  0  0  0  0  0  0  0  0  0
    0.7210    0.3978    0.0000 C   0  0  0  0  0  0  0  0  0  0  0  0
    2.8715    0.8080    0.0000 C   0  0  0  0  0  0  0  0  0  0  0  0
    2.1754   -0.4351    0.0000 C   0  0  0  0  0  0  0  0  0  0  0  0
    3.5925    0.3978    0.0000 C   0  0  0  0  0  0  0  0  0  0  0  0
    2.8839   -0.8453    0.0000 C   0  0  0  0  0  0  0  0  0  0  0  0
   -4.3010    1.6409    0.0000 C   0  0  0  0  0  0  0  0  0  0  0  0
   -4.3010    0.8204    0.0000 C   0  0  0  0  0  0  0  0  0  0  0  0
   -3.6050    2.0386    0.0000 C   0  0  0  0  0  0  0  0  0  0  0  0
    4.3135   -0.8453    0.0000 C   0  0  0  0  0  0  0  0  0  0  0  0
    4.3135   -1.6781    0.0000 C   0  0  0  0  0  0  0  0  0  0  0  0
    3.5676   -2.0511    0.0000 C   0  0  0  0  0  0  0  0  0  0  0  0
  1 11  1  0  0  0  0
  2 24  1  0  0  0  0
  3 14  1  0  0  0  0
  4 16  2  0  0  0  0
  5 27  2  0  0  0  0
  6 16  1  0  0  0  0
  6 20  1  0  0  0  0
  6 21  1  0  0  0  0
  7 10  1  0  0  0  0
  7 19  1  0  0  0  0
  8 22  1  0  0  0  0
  8 23  1  0  0  0  0
  8 27  1  0  0  0  0
  9 11  2  0  0  0  0
  9 12  1  0  0  0  0
  9 13  1  0  0  0  0
 10 13  2  0  0  0  0
 10 14  1  0  0  0  0
 11 15  1  0  0  0  0
 12 17  2  0  0  0  0
 12 18  1  0  0  0  0
 14 15  2  0  0  0  0
 16 19  1  0  0  0  0
 17 25  1  0  0  0  0
 18 26  2  0  0  0  0
 20 22  1  0  0  0  0
 21 23  1  0  0  0  0
 24 25  2  0  0  0  0
 24 26  1  0  0  0  0
 27 28  1  0  0  0  0
 28 29  2  0  0  0  0
M  END
> <PUBCHEM_COMPOUND_ID_TYPE>
0

> <PUBCHEM_TOTAL_CHARGE>
0

> <PUBCHEM_SUBSTANCE_ID>
310944289

> <PUBCHEM_SUBSTANCE_VERSION>
1

> <PUBCHEM_EXT_DATASOURCE_NAME>
4488

> <PUBCHEM_EXT_DATASOURCE_REGID>
SCHEMBL16122364

> <PUBCHEM_SUBSTANCE_COMMENT>
InChI=1S/C21H21ClFN3O3/c1-2-20(28)25-7-9-26(10-8-25)21(29)13-24-18-11-16(17(22)12-19(18)27)14-3-5-15(23)6-4-14/h2-6,11-12,24,27H,1,7-10,13H2
InChIKey=CYTJLXOGPIUVNN-UHFFFAOYSA-N

> <PUBCHEM_SUBSTANCE_SYNONYM>
SCHEMBL16122364

> <PUBCHEM_XREF_EXT_ID>
SCHEMBL16122364

> <PUBCHEM_EXT_DATASOURCE_URL>
https://www.surechembl.org/

> <PUBCHEM_EXT_SUBSTANCE_URL>
https://www.surechembl.org/chemical/SCHEMBL16122364

> <PUBCHEM_CID_ASSOCIATIONS>
117610556  1

> <PUBCHEM_COORDINATE_TYPE>
1
3

$$$$
