310940544
  -OEChem-07211613022D

 37 41  0     1  0  0  0  0  0999 V2000
    1.6637    3.3962    0.0000 S   0  0  0  0  0  0  0  0  0  0  0  0
    2.3236   -1.0587    0.0000 O   0  0  0  0  0  0  0  0  0  0  0  0
    2.4199    0.4399    0.0000 O   0  0  0  0  0  0  0  0  0  0  0  0
   -1.8699   -1.1825    0.0000 O   0  0  0  0  0  0  0  0  0  0  0  0
   -3.1486   -3.1074    0.0000 O   0  0  0  0  0  0  0  0  0  0  0  0
    3.1486   -2.4337    0.0000 O   0  0  0  0  0  0  0  0  0  0  0  0
    2.4612    3.1349    0.0000 O   0  0  0  0  0  0  0  0  0  0  0  0
    1.8974    4.1660    0.0000 O   0  0  0  0  0  0  0  0  0  0  0  0
    1.1962   -0.3712    0.0000 N   0  0  0  0  0  0  0  0  0  0  0  0
    1.0312   -2.8599    0.0000 N   0  0  0  0  0  0  0  0  0  0  0  0
   -2.7362   -3.8362    0.0000 N   0  0  0  0  0  0  0  0  0  0  0  0
    0.9899   -1.1275    0.0000 C   0  0  0  0  0  0  0  0  0  0  0  0
    0.2887   -1.5400    0.0000 C   0  0  0  0  0  0  0  0  0  0  0  0
    1.7187   -1.5400    0.0000 C   0  0  0  0  0  0  0  0  0  0  0  0
    0.2750   -2.3511    0.0000 C   0  0  0  0  0  0  0  0  0  0  0  0
    1.7050   -2.3648    0.0000 C   0  0  0  0  0  0  0  0  0  0  0  0
    1.9662   -0.2612    0.0000 C   0  0  0  0  0  0  0  0  0  0  0  0
   -1.1550   -2.3648    0.0000 C   0  0  0  0  0  0  0  0  0  0  0  0
    0.6187    0.2887    0.0000 C   0  0  3  0  0  0  0  0  0  0  0  0
   -0.4399   -1.1412    0.0000 C   0  0  0  0  0  0  0  0  0  0  0  0
   -1.1550   -1.5400    0.0000 C   0  0  0  0  0  0  0  0  0  0  0  0
   -0.4399   -2.7636    0.0000 C   0  0  0  0  0  0  0  0  0  0  0  0
   -1.8837   -2.7774    0.0000 C   0  0  0  0  0  0  0  0  0  0  0  0
    0.8662    1.0999    0.0000 C   0  0  0  0  0  0  0  0  0  0  0  0
    2.4337   -2.7774    0.0000 C   0  0  0  0  0  0  0  0  0  0  0  0
   -2.6399   -2.4199    0.0000 C   0  0  0  0  0  0  0  0  0  0  0  0
   -1.9662   -3.6024    0.0000 C   0  0  0  0  0  0  0  0  0  0  0  0
   -0.1787    0.1374    0.0000 C   0  0  0  0  0  0  0  0  0  0  0  0
    0.3300    1.6912    0.0000 C   0  0  0  0  0  0  0  0  0  0  0  0
    1.6775    1.2787    0.0000 C   0  0  0  0  0  0  0  0  0  0  0  0
    1.3749    2.6674    0.0000 C   0  0  0  0  0  0  0  0  0  0  0  0
    0.5775    2.4887    0.0000 C   0  0  0  0  0  0  0  0  0  0  0  0
    1.9112    2.0624    0.0000 C   0  0  0  0  0  0  0  0  0  0  0  0
   -2.7911   -1.6225    0.0000 C   0  0  0  0  0  0  0  0  0  0  0  0
   -1.3337   -4.1660    0.0000 C   0  0  0  0  0  0  0  0  0  0  0  0
   -1.8837   -0.2887    0.0000 C   0  0  0  0  0  0  0  0  0  0  0  0
    0.8387    3.6986    0.0000 C   0  0  0  0  0  0  0  0  0  0  0  0
  1  7  2  0  0  0  0
  1  8  2  0  0  0  0
  1 31  1  0  0  0  0
  1 37  1  0  0  0  0
  2 14  1  0  0  0  0
  2 17  1  0  0  0  0
  3 17  2  0  0  0  0
  4 21  1  0  0  0  0
  4 36  1  0  0  0  0
  5 11  1  0  0  0  0
  5 26  1  0  0  0  0
  6 25  1  0  0  0  0
  9 12  1  0  0  0  0
  9 17  1  0  0  0  0
  9 19  1  0  0  0  0
 10 15  2  0  0  0  0
 10 16  1  0  0  0  0
 11 27  2  0  0  0  0
 12 13  2  0  0  0  0
 12 14  1  0  0  0  0
 13 15  1  0  0  0  0
 13 20  1  0  0  0  0
 14 16  2  0  0  0  0
 15 22  1  0  0  0  0
 16 25  1  0  0  0  0
 18 21  1  0  0  0  0
 18 22  2  0  0  0  0
 18 23  1  0  0  0  0
 19 24  1  0  0  0  0
 19 28  1  6  0  0  0
 20 21  2  0  0  0  0
 23 26  2  0  0  0  0
 23 27  1  0  0  0  0
 24 29  2  0  0  0  0
 24 30  1  0  0  0  0
 26 34  1  0  0  0  0
 27 35  1  0  0  0  0
 29 32  1  0  0  0  0
 30 33  2  0  0  0  0
 31 32  2  0  0  0  0
 31 33  1  0  0  0  0
M  END
> <PUBCHEM_COMPOUND_ID_TYPE>
0

> <PUBCHEM_TOTAL_CHARGE>
0

> <PUBCHEM_SUBSTANCE_ID>
310940544

> <PUBCHEM_SUBSTANCE_VERSION>
1

> <PUBCHEM_EXT_DATASOURCE_NAME>
4488

> <PUBCHEM_EXT_DATASOURCE_REGID>
SCHEMBL16118498

> <PUBCHEM_SUBSTANCE_COMMENT>
InChI=1S/C26H25N3O7S/c1-13-23(15(3)36-28-13)19-10-20-18(11-22(19)34-4)24-25(21(12-30)27-20)35-26(31)29(24)14(2)16-6-8-17(9-7-16)37(5,32)33/h6-11,14,30H,12H2,1-5H3/t14-/m1/s1
InChIKey=MCALCZCKOPWZRD-CQSZACIVSA-N

> <PUBCHEM_SUBSTANCE_SYNONYM>
SCHEMBL16118498

> <PUBCHEM_XREF_EXT_ID>
SCHEMBL16118498

> <PUBCHEM_EXT_DATASOURCE_URL>
https://www.surechembl.org/

> <PUBCHEM_EXT_SUBSTANCE_URL>
https://www.surechembl.org/chemical/SCHEMBL16118498

> <PUBCHEM_CID_ASSOCIATIONS>
117607545  1

> <PUBCHEM_COORDINATE_TYPE>
1
3

> <PUBCHEM_BONDANNOTATIONS>
19  28  6

$$$$
