310933585
  -OEChem-07211613022D

 43 49  0     0  0  0  0  0  0999 V2000
    2.1434   -3.3000    0.0000 Cl  0  0  0  0  0  0  0  0  0  0  0  0
    3.1993   -2.1208    0.0000 F   0  0  0  0  0  0  0  0  0  0  0  0
    2.4024   -1.9073    0.0000 F   0  0  0  0  0  0  0  0  0  0  0  0
    2.4666   -0.6828    0.0000 O   0  0  0  0  0  0  0  0  0  0  0  0
    3.7560   -1.0283    0.0000 O   0  0  0  0  0  0  0  0  0  0  0  0
    1.4290    2.0625    0.0000 O   0  0  0  0  0  0  0  0  0  0  0  0
    0.7144    1.6500    0.0000 O   0  0  0  0  0  0  0  0  0  0  0  0
   -2.1434    0.8250    0.0000 O   0  0  0  0  0  0  0  0  0  0  0  0
    1.4290    0.4125    0.0000 N   0  0  0  0  0  0  0  0  0  0  0  0
    1.4290   -0.4125    0.0000 N   0  0  0  0  0  0  0  0  0  0  0  0
    3.0722    2.1863    0.0000 C   0  0  0  0  0  0  0  0  0  0  0  0
    3.2857    1.3894    0.0000 C   0  0  0  0  0  0  0  0  0  0  0  0
    2.1434    1.6500    0.0000 C   0  0  0  0  0  0  0  0  0  0  0  0
    2.9290    2.9987    0.0000 C   0  0  0  0  0  0  0  0  0  0  0  0
    3.7042    2.7165    0.0000 C   0  0  0  0  0  0  0  0  0  0  0  0
    2.7024    0.8060    0.0000 C   0  0  0  0  0  0  0  0  0  0  0  0
    2.9159    0.0091    0.0000 C   0  0  0  0  0  0  0  0  0  0  0  0
    2.1434    0.8250    0.0000 C   0  0  0  0  0  0  0  0  0  0  0  0
    3.7128   -0.2044    0.0000 C   0  0  0  0  0  0  0  0  0  0  0  0
    4.0826    1.1759    0.0000 C   0  0  0  0  0  0  0  0  0  0  0  0
    0.0000    0.4125    0.0000 C   0  0  0  0  0  0  0  0  0  0  0  0
    0.7144    0.8250    0.0000 C   0  0  0  0  0  0  0  0  0  0  0  0
    0.0000   -0.4125    0.0000 C   0  0  0  0  0  0  0  0  0  0  0  0
    0.7144   -0.8250    0.0000 C   0  0  0  0  0  0  0  0  0  0  0  0
    2.9858   -1.3239    0.0000 C   0  0  0  0  0  0  0  0  0  0  0  0
    4.2962    0.3790    0.0000 C   0  0  0  0  0  0  0  0  0  0  0  0
    0.7144   -1.6500    0.0000 C   0  0  0  0  0  0  0  0  0  0  0  0
   -0.7144    0.8250    0.0000 C   0  0  0  0  0  0  0  0  0  0  0  0
   -0.7144   -0.8250    0.0000 C   0  0  0  0  0  0  0  0  0  0  0  0
   -1.4290    0.4125    0.0000 C   0  0  0  0  0  0  0  0  0  0  0  0
   -1.4290   -0.4125    0.0000 C   0  0  0  0  0  0  0  0  0  0  0  0
    1.4290   -2.0625    0.0000 C   0  0  0  0  0  0  0  0  0  0  0  0
    0.0000   -2.0625    0.0000 C   0  0  0  0  0  0  0  0  0  0  0  0
    1.4290   -2.8875    0.0000 C   0  0  0  0  0  0  0  0  0  0  0  0
    0.0000   -2.8875    0.0000 C   0  0  0  0  0  0  0  0  0  0  0  0
    0.7144   -3.3000    0.0000 C   0  0  0  0  0  0  0  0  0  0  0  0
   -2.8579    0.4125    0.0000 C   0  0  0  0  0  0  0  0  0  0  0  0
   -3.5724    0.8250    0.0000 C   0  0  0  0  0  0  0  0  0  0  0  0
   -3.5724    1.6500    0.0000 C   0  0  0  0  0  0  0  0  0  0  0  0
   -4.2868    0.4125    0.0000 C   0  0  0  0  0  0  0  0  0  0  0  0
   -4.2868    2.0625    0.0000 C   0  0  0  0  0  0  0  0  0  0  0  0
   -5.0013    0.8250    0.0000 C   0  0  0  0  0  0  0  0  0  0  0  0
   -5.0013    1.6500    0.0000 C   0  0  0  0  0  0  0  0  0  0  0  0
  1 34  1  0  0  0  0
  2 25  1  0  0  0  0
  3 25  1  0  0  0  0
  4 17  1  0  0  0  0
  4 25  1  0  0  0  0
  5 19  1  0  0  0  0
  5 25  1  0  0  0  0
  6 13  2  0  0  0  0
  7 22  2  0  0  0  0
  8 30  1  0  0  0  0
  8 37  1  0  0  0  0
  9 10  1  0  0  0  0
  9 18  1  0  0  0  0
  9 22  1  0  0  0  0
 10 24  2  0  0  0  0
 11 12  1  0  0  0  0
 11 13  1  0  0  0  0
 11 14  1  0  0  0  0
 11 15  1  0  0  0  0
 12 16  1  0  0  0  0
 12 20  2  0  0  0  0
 13 18  1  0  0  0  0
 14 15  1  0  0  0  0
 16 17  2  0  0  0  0
 17 19  1  0  0  0  0
 19 26  2  0  0  0  0
 20 26  1  0  0  0  0
 21 22  1  0  0  0  0
 21 23  2  0  0  0  0
 21 28  1  0  0  0  0
 23 24  1  0  0  0  0
 23 29  1  0  0  0  0
 24 27  1  0  0  0  0
 27 32  1  0  0  0  0
 27 33  2  0  0  0  0
 28 30  2  0  0  0  0
 29 31  2  0  0  0  0
 30 31  1  0  0  0  0
 32 34  2  0  0  0  0
 33 35  1  0  0  0  0
 34 36  1  0  0  0  0
 35 36  2  0  0  0  0
 37 38  1  0  0  0  0
 38 39  2  0  0  0  0
 38 40  1  0  0  0  0
 39 41  1  0  0  0  0
 40 42  2  0  0  0  0
 41 43  2  0  0  0  0
 42 43  1  0  0  0  0
M  END
> <PUBCHEM_COMPOUND_ID_TYPE>
0

> <PUBCHEM_TOTAL_CHARGE>
0

> <PUBCHEM_SUBSTANCE_ID>
310933585

> <PUBCHEM_SUBSTANCE_VERSION>
1

> <PUBCHEM_EXT_DATASOURCE_NAME>
4488

> <PUBCHEM_EXT_DATASOURCE_REGID>
SCHEMBL16111012

> <PUBCHEM_SUBSTANCE_COMMENT>
InChI=1S/C33H23ClF2N2O5/c34-23-8-4-7-21(15-23)30-25-11-10-24(41-19-20-5-2-1-3-6-20)17-26(25)31(40)38(37-30)18-29(39)32(13-14-32)22-9-12-27-28(16-22)43-33(35,36)42-27/h1-12,15-17H,13-14,18-19H2
InChIKey=IXVIWEYEFZBLIV-UHFFFAOYSA-N

> <PUBCHEM_SUBSTANCE_SYNONYM>
SCHEMBL16111012

> <PUBCHEM_XREF_EXT_ID>
SCHEMBL16111012

> <PUBCHEM_EXT_DATASOURCE_URL>
https://www.surechembl.org/

> <PUBCHEM_EXT_SUBSTANCE_URL>
https://www.surechembl.org/chemical/SCHEMBL16111012

> <PUBCHEM_CID_ASSOCIATIONS>
117601968  1

> <PUBCHEM_COORDINATE_TYPE>
1
3

$$$$
