310943263
  -OEChem-07211613022D

 35 38  0     0  0  0  0  0  0999 V2000
    3.8838    0.3016    0.0000 F   0  0  0  0  0  0  0  0  0  0  0  0
    4.7076    0.3016    0.0000 F   0  0  0  0  0  0  0  0  0  0  0  0
   -5.0165    1.6403    0.0000 O   0  0  0  0  0  0  0  0  0  0  0  0
    0.7208   -0.8459    0.0000 O   0  0  0  0  0  0  0  0  0  0  0  0
   -3.5896    0.8165    0.0000 N   0  0  0  0  0  0  0  0  0  0  0  0
   -2.1478   -0.8312    0.0000 N   0  0  0  0  0  0  0  0  0  0  0  0
   -3.5896   -0.8312    0.0000 N   0  0  0  0  0  0  0  0  0  0  0  0
    0.0000    2.0669    0.0000 N   0  0  0  0  0  0  0  0  0  0  0  0
    1.4270    0.4045    0.0000 N   0  0  0  0  0  0  0  0  0  0  0  0
    3.5748   -1.6697    0.0000 N   0  0  0  0  0  0  0  0  0  0  0  0
   -2.8540    0.4045    0.0000 C   0  0  0  0  0  0  0  0  0  0  0  0
   -1.4270    0.4193    0.0000 C   0  0  0  0  0  0  0  0  0  0  0  0
   -0.7355    0.8312    0.0000 C   0  0  0  0  0  0  0  0  0  0  0  0
   -2.8687   -0.4193    0.0000 C   0  0  0  0  0  0  0  0  0  0  0  0
   -2.1773    0.8165    0.0000 C   0  0  0  0  0  0  0  0  0  0  0  0
   -0.7061    1.6550    0.0000 C   0  0  0  0  0  0  0  0  0  0  0  0
   -1.4417   -0.4193    0.0000 C   0  0  0  0  0  0  0  0  0  0  0  0
    0.0147    0.4193    0.0000 C   0  0  0  0  0  0  0  0  0  0  0  0
    0.7061    0.8312    0.0000 C   0  0  0  0  0  0  0  0  0  0  0  0
    2.1478   -0.8312    0.0000 C   0  0  0  0  0  0  0  0  0  0  0  0
    3.5896   -0.8312    0.0000 C   0  0  0  0  0  0  0  0  0  0  0  0
    1.4417   -0.4045    0.0000 C   0  0  0  0  0  0  0  0  0  0  0  0
    0.7208    1.6550    0.0000 C   0  0  0  0  0  0  0  0  0  0  0  0
    4.2957   -0.4045    0.0000 C   0  0  0  0  0  0  0  0  0  0  0  0
    2.8540   -0.4193    0.0000 C   0  0  0  0  0  0  0  0  0  0  0  0
   -3.5896    1.6550    0.0000 C   0  0  0  0  0  0  0  0  0  0  0  0
   -4.2809    0.4193    0.0000 C   0  0  0  0  0  0  0  0  0  0  0  0
    2.1478   -1.6550    0.0000 C   0  0  0  0  0  0  0  0  0  0  0  0
   -1.4417    2.0522    0.0000 C   0  0  0  0  0  0  0  0  0  0  0  0
    2.8834   -2.0669    0.0000 C   0  0  0  0  0  0  0  0  0  0  0  0
   -4.2957    2.0669    0.0000 C   0  0  0  0  0  0  0  0  0  0  0  0
   -5.0018    0.8312    0.0000 C   0  0  0  0  0  0  0  0  0  0  0  0
   -3.5601   -1.6845    0.0000 C   0  0  0  0  0  0  0  0  0  0  0  0
   -4.3104   -0.4340    0.0000 C   0  0  0  0  0  0  0  0  0  0  0  0
    5.0165   -0.8459    0.0000 C   0  0  0  0  0  0  0  0  0  0  0  0
  1 24  1  0  0  0  0
  2 24  1  0  0  0  0
  3 31  1  0  0  0  0
  3 32  1  0  0  0  0
  4 22  2  0  0  0  0
  5 11  1  0  0  0  0
  5 26  1  0  0  0  0
  5 27  1  0  0  0  0
  6 14  2  0  0  0  0
  6 17  1  0  0  0  0
  7 14  1  0  0  0  0
  7 33  1  0  0  0  0
  7 34  1  0  0  0  0
  8 16  1  0  0  0  0
  8 23  2  0  0  0  0
  9 19  1  0  0  0  0
  9 22  1  0  0  0  0
 10 21  1  0  0  0  0
 10 30  2  0  0  0  0
 11 14  1  0  0  0  0
 11 15  2  0  0  0  0
 12 13  1  0  0  0  0
 12 15  1  0  0  0  0
 12 17  2  0  0  0  0
 13 16  2  0  0  0  0
 13 18  1  0  0  0  0
 16 29  1  0  0  0  0
 18 19  2  0  0  0  0
 19 23  1  0  0  0  0
 20 22  1  0  0  0  0
 20 25  1  0  0  0  0
 20 28  2  0  0  0  0
 21 24  1  0  0  0  0
 21 25  2  0  0  0  0
 24 35  1  0  0  0  0
 26 31  1  0  0  0  0
 27 32  1  0  0  0  0
 28 30  1  0  0  0  0
M  END
> <PUBCHEM_COMPOUND_ID_TYPE>
0

> <PUBCHEM_TOTAL_CHARGE>
0

> <PUBCHEM_SUBSTANCE_ID>
310943263

> <PUBCHEM_SUBSTANCE_VERSION>
1

> <PUBCHEM_EXT_DATASOURCE_NAME>
4488

> <PUBCHEM_EXT_DATASOURCE_REGID>
SCHEMBL16121325

> <PUBCHEM_SUBSTANCE_COMMENT>
InChI=1S/C25H28F2N6O2/c1-16-20(18-11-21(23(30-14-18)32(3)4)33-7-9-35-10-8-33)13-19(15-29-16)31-24(34)17-5-6-28-22(12-17)25(2,26)27/h5-6,11-15H,7-10H2,1-4H3,(H,31,34)
InChIKey=CZCHKIQTUUNUMO-UHFFFAOYSA-N

> <PUBCHEM_SUBSTANCE_SYNONYM>
SCHEMBL16121325

> <PUBCHEM_XREF_EXT_ID>
SCHEMBL16121325

> <PUBCHEM_EXT_DATASOURCE_URL>
https://www.surechembl.org/

> <PUBCHEM_EXT_SUBSTANCE_URL>
https://www.surechembl.org/chemical/SCHEMBL16121325

> <PUBCHEM_CID_ASSOCIATIONS>
117609688  1

> <PUBCHEM_COORDINATE_TYPE>
1
3

$$$$
