310942622
  -OEChem-07211613022D

 80 85  0     1  0  0  0  0  0999 V2000
    8.1629   -3.7866    0.0000 Cl  0  0  0  0  0  0  0  0  0  0  0  0
    6.7257   -1.2991    0.0000 O   0  0  0  0  0  0  0  0  0  0  0  0
    8.8814   -0.0645    0.0000 O   0  0  0  0  0  0  0  0  0  0  0  0
    6.0254   -1.7228    0.0000 O   0  0  0  0  0  0  0  0  0  0  0  0
    4.5882    3.2338    0.0000 O   0  0  0  0  0  0  0  0  0  0  0  0
    5.3067    1.9993    0.0000 O   0  0  0  0  0  0  0  0  0  0  0  0
   -1.8427    1.1700    0.0000 O   0  0  0  0  0  0  0  0  0  0  0  0
    0.2948    3.2338    0.0000 O   0  0  0  0  0  0  0  0  0  0  0  0
   -7.7575    3.7866    0.0000 O   0  0  0  0  0  0  0  0  0  0  0  0
   -9.2131    1.2622    0.0000 O   0  0  0  0  0  0  0  0  0  0  0  0
   -3.9985    3.2338    0.0000 O   0  0  0  0  0  0  0  0  0  0  0  0
   -2.5613    0.7463    0.0000 O   0  0  0  0  0  0  0  0  0  0  0  0
    5.3067   -0.4698    0.0000 N   0  0  0  0  0  0  0  0  0  0  0  0
    3.8695    1.9993    0.0000 N   0  0  0  0  0  0  0  0  0  0  0  0
   -8.2734    2.4046    0.0000 N   0  0  0  0  0  0  0  0  0  0  0  0
   -1.1424    2.4046    0.0000 N   0  0  0  0  0  0  0  0  0  0  0  0
    1.0135    1.9993    0.0000 N   0  0  0  0  0  0  0  0  0  0  0  0
   -3.2799    1.9993    0.0000 N   0  0  0  0  0  0  0  0  0  0  0  0
   -1.8427   -0.4883    0.0000 N   0  0  0  0  0  0  0  0  0  0  0  0
   -3.2799   -0.4883    0.0000 N   0  0  0  0  0  0  0  0  0  0  0  0
    6.7440   -0.4698    0.0000 C   0  0  0  0  0  0  0  0  0  0  0  0
    7.4258   -0.0460    0.0000 C   0  0  0  0  0  0  0  0  0  0  0  0
    6.0254   -0.0645    0.0000 C   0  0  3  0  0  0  0  0  0  0  0  0
    8.1444   -1.2991    0.0000 C   0  0  0  0  0  0  0  0  0  0  0  0
    8.1444   -0.4698    0.0000 C   0  0  0  0  0  0  0  0  0  0  0  0
    7.4627   -1.7044    0.0000 C   0  0  0  0  0  0  0  0  0  0  0  0
    7.4627    0.7647    0.0000 C   0  0  0  0  0  0  0  0  0  0  0  0
    6.0254    0.7647    0.0000 C   0  0  0  0  0  0  0  0  0  0  0  0
    7.4627   -2.5336    0.0000 C   0  0  0  0  0  0  0  0  0  0  0  0
    8.8814   -1.7228    0.0000 C   0  0  0  0  0  0  0  0  0  0  0  0
    5.2883   -1.2806    0.0000 C   0  0  0  0  0  0  0  0  0  0  0  0
    8.1813   -2.9389    0.0000 C   0  0  0  0  0  0  0  0  0  0  0  0
    8.1629    1.1885    0.0000 C   0  0  0  0  0  0  0  0  0  0  0  0
    8.8814   -2.5336    0.0000 C   0  0  0  0  0  0  0  0  0  0  0  0
    4.5882   -0.0645    0.0000 C   0  0  0  0  0  0  0  0  0  0  0  0
    4.5882   -1.7044    0.0000 C   0  0  0  0  0  0  0  0  0  0  0  0
    5.2883    1.1700    0.0000 C   0  0  0  0  0  0  0  0  0  0  0  0
    6.7440    1.1885    0.0000 C   0  0  0  0  0  0  0  0  0  0  0  0
    8.8814    0.7831    0.0000 C   0  0  0  0  0  0  0  0  0  0  0  0
    8.1813    1.9993    0.0000 C   0  0  0  0  0  0  0  0  0  0  0  0
    3.8695   -1.3175    0.0000 C   0  0  0  0  0  0  0  0  0  0  0  0
    4.5882   -2.5336    0.0000 C   0  0  0  0  0  0  0  0  0  0  0  0
    4.5882    0.7647    0.0000 C   0  0  0  0  0  0  0  0  0  0  0  0
    3.1878   -1.7044    0.0000 C   0  0  0  0  0  0  0  0  0  0  0  0
    3.8880   -2.9389    0.0000 C   0  0  0  0  0  0  0  0  0  0  0  0
    9.5817    1.1885    0.0000 C   0  0  0  0  0  0  0  0  0  0  0  0
    8.8630    2.4046    0.0000 C   0  0  0  0  0  0  0  0  0  0  0  0
    3.1509   -2.5336    0.0000 C   0  0  0  0  0  0  0  0  0  0  0  0
    9.5817    1.9993    0.0000 C   0  0  0  0  0  0  0  0  0  0  0  0
    3.8880    1.1700    0.0000 C   0  0  0  0  0  0  0  0  0  0  0  0
    2.4507   -2.9759    0.0000 C   0  0  0  0  0  0  0  0  0  0  0  0
    4.5513    2.4231    0.0000 C   0  0  0  0  0  0  0  0  0  0  0  0
   -0.4054    1.9993    0.0000 C   0  0  3  0  0  0  0  0  0  0  0  0
   -2.5796    2.4046    0.0000 C   0  0  3  0  0  0  0  0  0  0  0  0
    3.1693    3.2522    0.0000 C   0  0  0  0  0  0  0  0  0  0  0  0
    3.8511    3.6392    0.0000 C   0  0  0  0  0  0  0  0  0  0  0  0
   -1.8427    2.0177    0.0000 C   0  0  0  0  0  0  0  0  0  0  0  0
    0.2764    2.3862    0.0000 C   0  0  0  0  0  0  0  0  0  0  0  0
   -9.0289    2.1098    0.0000 C   0  0  0  0  0  0  0  0  0  0  0  0
   -8.3840    3.2155    0.0000 C   0  0  0  0  0  0  0  0  0  0  0  0
    1.7136    2.4046    0.0000 C   0  0  0  0  0  0  0  0  0  0  0  0
   -9.5817    2.6810    0.0000 C   0  0  0  0  0  0  0  0  0  0  0  0
   -9.1764    3.3997    0.0000 C   0  0  0  0  0  0  0  0  0  0  0  0
    3.1509    2.4046    0.0000 C   0  0  0  0  0  0  0  0  0  0  0  0
    2.4138    3.6392    0.0000 C   0  0  0  0  0  0  0  0  0  0  0  0
    2.4323    1.9993    0.0000 C   0  0  0  0  0  0  0  0  0  0  0  0
    1.7505    3.2338    0.0000 C   0  0  0  0  0  0  0  0  0  0  0  0
   -2.5613    3.2522    0.0000 C   0  0  0  0  0  0  0  0  0  0  0  0
   -7.5363    1.9993    0.0000 C   0  0  0  0  0  0  0  0  0  0  0  0
   -0.4054    1.1516    0.0000 C   0  0  0  0  0  0  0  0  0  0  0  0
   -4.0169    2.3862    0.0000 C   0  0  0  0  0  0  0  0  0  0  0  0
   -6.8546    2.4046    0.0000 C   0  0  0  0  0  0  0  0  0  0  0  0
   -4.6803    1.9993    0.0000 C   0  0  0  0  0  0  0  0  0  0  0  0
   -1.1240    0.7647    0.0000 C   0  0  0  0  0  0  0  0  0  0  0  0
   -3.2615    3.6576    0.0000 C   0  0  0  0  0  0  0  0  0  0  0  0
   -1.8242    3.6207    0.0000 C   0  0  0  0  0  0  0  0  0  0  0  0
   -6.1175    1.9993    0.0000 C   0  0  0  0  0  0  0  0  0  0  0  0
   -5.4358    2.4046    0.0000 C   0  0  0  0  0  0  0  0  0  0  0  0
   -1.1424   -0.0645    0.0000 C   0  0  0  0  0  0  0  0  0  0  0  0
   -2.5796   -0.0829    0.0000 C   0  0  0  0  0  0  0  0  0  0  0  0
  1 32  1  0  0  0  0
  2 21  1  0  0  0  0
  2 26  1  0  0  0  0
  3 25  2  0  0  0  0
  4 31  2  0  0  0  0
  5 52  1  0  0  0  0
  5 56  1  0  0  0  0
  6 52  2  0  0  0  0
  7 57  2  0  0  0  0
  8 58  2  0  0  0  0
  9 60  2  0  0  0  0
 10 59  2  0  0  0  0
 11 71  2  0  0  0  0
 12 80  2  0  0  0  0
 23 13  1  6  0  0  0
 13 31  1  0  0  0  0
 13 35  1  0  0  0  0
 14 50  1  0  0  0  0
 14 52  1  0  0  0  0
 15 59  1  0  0  0  0
 15 60  1  0  0  0  0
 15 69  1  0  0  0  0
 53 16  1  6  0  0  0
 16 57  1  0  0  0  0
 17 58  1  0  0  0  0
 17 61  1  0  0  0  0
 54 18  1  1  0  0  0
 18 71  1  0  0  0  0
 19 79  1  0  0  0  0
 19 80  1  0  0  0  0
 20 80  1  0  0  0  0
 21 22  2  0  0  0  0
 21 23  1  0  0  0  0
 22 25  1  0  0  0  0
 22 27  1  0  0  0  0
 23 28  1  0  0  0  0
 24 25  1  0  0  0  0
 24 26  2  0  0  0  0
 24 30  1  0  0  0  0
 26 29  1  0  0  0  0
 27 33  1  0  0  0  0
 28 37  1  0  0  0  0
 28 38  1  0  0  0  0
 29 32  2  0  0  0  0
 30 34  2  0  0  0  0
 31 36  1  0  0  0  0
 32 34  1  0  0  0  0
 33 39  2  0  0  0  0
 33 40  1  0  0  0  0
 35 43  1  0  0  0  0
 36 41  2  0  0  0  0
 36 42  1  0  0  0  0
 39 46  1  0  0  0  0
 40 47  2  0  0  0  0
 41 44  1  0  0  0  0
 42 45  2  0  0  0  0
 43 50  1  0  0  0  0
 44 48  2  0  0  0  0
 45 48  1  0  0  0  0
 46 49  2  0  0  0  0
 47 49  1  0  0  0  0
 48 51  1  0  0  0  0
 53 58  1  0  0  0  0
 53 70  1  0  0  0  0
 54 57  1  0  0  0  0
 54 68  1  0  0  0  0
 55 56  1  0  0  0  0
 55 64  2  0  0  0  0
 55 65  1  0  0  0  0
 59 62  1  0  0  0  0
 60 63  1  0  0  0  0
 61 66  2  0  0  0  0
 61 67  1  0  0  0  0
 62 63  2  0  0  0  0
 64 66  1  0  0  0  0
 65 67  2  0  0  0  0
 68 75  1  0  0  0  0
 68 76  1  0  0  0  0
 69 72  1  0  0  0  0
 70 74  1  0  0  0  0
 71 73  1  0  0  0  0
 72 77  1  0  0  0  0
 73 78  1  0  0  0  0
 74 79  1  0  0  0  0
 77 78  1  0  0  0  0
M  END
> <PUBCHEM_COMPOUND_ID_TYPE>
0

> <PUBCHEM_TOTAL_CHARGE>
0

> <PUBCHEM_SUBSTANCE_ID>
310942622

> <PUBCHEM_SUBSTANCE_VERSION>
1

> <PUBCHEM_EXT_DATASOURCE_NAME>
4488

> <PUBCHEM_EXT_DATASOURCE_REGID>
SCHEMBL16120668

> <PUBCHEM_SUBSTANCE_COMMENT>
InChI=1S/C60H71ClN8O11/c1-37(2)52(67-49(70)17-10-7-11-32-68-50(71)28-29-51(68)72)57(75)66-47(16-12-30-63-59(62)77)56(74)65-44-25-20-41(21-26-44)36-79-60(78)64-31-13-33-69(58(76)42-22-18-39(5)19-23-42)53(38(3)4)55-46(34-40-14-8-6-9-15-40)54(73)45-27-24-43(61)35-48(45)80-55/h6,8-9,14-15,18-29,35,37-38,47,52-53H,7,10-13,16-17,30-34,36H2,1-5H3,(H,64,78)(H,65,74)(H,66,75)(H,67,70)(H3,62,63,77)/t47-,52-,53+/m0/s1
InChIKey=BAINECXVHSYMRN-QEOOPTPFSA-N

> <PUBCHEM_SUBSTANCE_SYNONYM>
SCHEMBL16120668

> <PUBCHEM_XREF_EXT_ID>
SCHEMBL16120668

> <PUBCHEM_EXT_DATASOURCE_URL>
https://www.surechembl.org/

> <PUBCHEM_EXT_SUBSTANCE_URL>
https://www.surechembl.org/chemical/SCHEMBL16120668

> <PUBCHEM_CID_ASSOCIATIONS>
117609154  1

> <PUBCHEM_COORDINATE_TYPE>
1
3

> <PUBCHEM_BONDANNOTATIONS>
23  13  6
53  16  6
54  18  5

$$$$
