310936741
  -OEChem-07211613022D

 43 47  0     1  0  0  0  0  0999 V2000
    4.1489    8.0159    0.0000 F   0  0  0  0  0  0  0  0  0  0  0  0
    3.6192    6.9764    0.0000 F   0  0  0  0  0  0  0  0  0  0  0  0
    3.1093    8.5456    0.0000 F   0  0  0  0  0  0  0  0  0  0  0  0
   -0.0443    8.9072    0.0000 F   0  0  0  0  0  0  0  0  0  0  0  0
    0.0168    7.7421    0.0000 F   0  0  0  0  0  0  0  0  0  0  0  0
    1.1209    8.9683    0.0000 F   0  0  0  0  0  0  0  0  0  0  0  0
    2.0040    5.0241    0.0000 O   0  0  0  0  0  0  0  0  0  0  0  0
    1.9271    3.5559    0.0000 O   0  0  0  0  0  0  0  0  0  0  0  0
    3.4186    1.8053    0.0000 O   0  0  0  0  0  0  0  0  0  0  0  0
    0.7845    4.4811    0.0000 N   0  0  0  0  0  0  0  0  0  0  0  0
    1.1276    2.8672    0.0000 N   0  0  0  0  0  0  0  0  0  0  0  0
   -1.0547    2.8250    0.0000 N   0  0  0  0  0  0  0  0  0  0  0  0
   -0.0986    1.7631    0.0000 N   0  0  0  0  0  0  0  0  0  0  0  0
    3.1637    1.0206    0.0000 N   0  0  0  0  0  0  0  0  0  0  0  0
    1.4520    5.6372    0.0000 C   0  0  3  0  0  0  0  0  0  0  0  0
    0.6983    5.3016    0.0000 C   0  0  3  0  0  0  0  0  0  0  0  0
    1.6235    6.4441    0.0000 C   0  0  0  0  0  0  0  0  0  0  0  0
    1.5915    4.3096    0.0000 C   0  0  0  0  0  0  0  0  0  0  0  0
    0.3430    3.1221    0.0000 C   0  0  0  0  0  0  0  0  0  0  0  0
    0.1714    3.9291    0.0000 C   0  0  0  0  0  0  0  0  0  0  0  0
    2.5797    7.5060    0.0000 C   0  0  0  0  0  0  0  0  0  0  0  0
    1.1819    7.8031    0.0000 C   0  0  0  0  0  0  0  0  0  0  0  0
   -0.2701    2.5701    0.0000 C   0  0  0  0  0  0  0  0  0  0  0  0
    1.0104    6.9962    0.0000 C   0  0  0  0  0  0  0  0  0  0  0  0
    2.4081    6.6991    0.0000 C   0  0  0  0  0  0  0  0  0  0  0  0
    1.2991    2.0602    0.0000 C   0  0  0  0  0  0  0  0  0  0  0  0
    2.0837    1.8053    0.0000 C   0  0  0  0  0  0  0  0  0  0  0  0
    1.9666    8.0581    0.0000 C   0  0  0  0  0  0  0  0  0  0  0  0
    3.3643    7.7610    0.0000 C   0  0  0  0  0  0  0  0  0  0  0  0
    0.5688    8.3552    0.0000 C   0  0  0  0  0  0  0  0  0  0  0  0
    0.6860    1.5082    0.0000 C   0  0  0  0  0  0  0  0  0  0  0  0
    2.7512    2.2902    0.0000 C   0  0  0  0  0  0  0  0  0  0  0  0
    2.3387    1.0206    0.0000 C   0  0  0  0  0  0  0  0  0  0  0  0
   -0.0162    5.7141    0.0000 C   0  0  0  0  0  0  0  0  0  0  0  0
   -1.2263    3.6320    0.0000 C   0  0  0  0  0  0  0  0  0  0  0  0
   -1.6678    2.2730    0.0000 C   0  0  0  0  0  0  0  0  0  0  0  0
   -2.0109    3.8869    0.0000 C   0  0  0  0  0  0  0  0  0  0  0  0
   -0.6132    4.1840    0.0000 C   0  0  0  0  0  0  0  0  0  0  0  0
    2.7512    3.1152    0.0000 C   0  0  0  0  0  0  0  0  0  0  0  0
    1.8538    0.3532    0.0000 C   0  0  0  0  0  0  0  0  0  0  0  0
   -2.1824    4.6939    0.0000 C   0  0  0  0  0  0  0  0  0  0  0  0
   -0.7847    4.9910    0.0000 C   0  0  0  0  0  0  0  0  0  0  0  0
   -1.5693    5.2459    0.0000 C   0  0  0  0  0  0  0  0  0  0  0  0
  1 29  1  0  0  0  0
  2 29  1  0  0  0  0
  3 29  1  0  0  0  0
  4 30  1  0  0  0  0
  5 30  1  0  0  0  0
  6 30  1  0  0  0  0
  7 15  1  0  0  0  0
  7 18  1  0  0  0  0
  8 18  2  0  0  0  0
  9 14  1  0  0  0  0
  9 32  1  0  0  0  0
 10 16  1  0  0  0  0
 10 18  1  0  0  0  0
 10 20  1  0  0  0  0
 11 19  2  0  0  0  0
 11 26  1  0  0  0  0
 12 23  1  0  0  0  0
 12 35  1  0  0  0  0
 12 36  1  0  0  0  0
 13 23  2  0  0  0  0
 13 31  1  0  0  0  0
 14 33  2  0  0  0  0
 15 16  1  0  0  0  0
 15 17  1  1  0  0  0
 16 34  1  1  0  0  0
 17 24  2  0  0  0  0
 17 25  1  0  0  0  0
 19 20  1  0  0  0  0
 19 23  1  0  0  0  0
 21 25  2  0  0  0  0
 21 28  1  0  0  0  0
 21 29  1  0  0  0  0
 22 24  1  0  0  0  0
 22 28  2  0  0  0  0
 22 30  1  0  0  0  0
 26 27  1  0  0  0  0
 26 31  2  0  0  0  0
 27 32  2  0  0  0  0
 27 33  1  0  0  0  0
 32 39  1  0  0  0  0
 33 40  1  0  0  0  0
 35 37  1  0  0  0  0
 35 38  1  0  0  0  0
 37 41  1  0  0  0  0
 38 42  1  0  0  0  0
 41 43  1  0  0  0  0
 42 43  1  0  0  0  0
M  END
> <PUBCHEM_COMPOUND_ID_TYPE>
0

> <PUBCHEM_TOTAL_CHARGE>
0

> <PUBCHEM_SUBSTANCE_ID>
310936741

> <PUBCHEM_SUBSTANCE_VERSION>
1

> <PUBCHEM_EXT_DATASOURCE_NAME>
4488

> <PUBCHEM_EXT_DATASOURCE_REGID>
SCHEMBL16114423

> <PUBCHEM_SUBSTANCE_COMMENT>
InChI=1S/C29H31F6N5O3/c1-15-24(17(3)43-38-15)22-13-36-26(39(4)21-8-6-5-7-9-21)23(37-22)14-40-16(2)25(42-27(40)41)18-10-19(28(30,31)32)12-20(11-18)29(33,34)35/h10-13,16,21,25H,5-9,14H2,1-4H3/t16-,25-/m0/s1
InChIKey=OCAALQUSPBICHW-LMKMVOKYSA-N

> <PUBCHEM_SUBSTANCE_SYNONYM>
SCHEMBL16114423

> <PUBCHEM_XREF_EXT_ID>
SCHEMBL16114423

> <PUBCHEM_EXT_DATASOURCE_URL>
https://www.surechembl.org/

> <PUBCHEM_EXT_SUBSTANCE_URL>
https://www.surechembl.org/chemical/SCHEMBL16114423

> <PUBCHEM_CID_ASSOCIATIONS>
85472405  1

> <PUBCHEM_COORDINATE_TYPE>
1
3

> <PUBCHEM_BONDANNOTATIONS>
15  17  5
16  34  5

$$$$
