310938541
  -OEChem-07211613022D

 15 15  0     0  0  0  0  0  0999 V2000
   -1.3738   -0.6376    0.0000 F   0  0  0  0  0  0  0  0  0  0  0  0
   -1.3738    1.0124    0.0000 F   0  0  0  0  0  0  0  0  0  0  0  0
   -2.8028    0.1874    0.0000 O   0  0  0  0  0  0  0  0  0  0  0  0
   -3.5172    1.4249    0.0000 N   0  0  0  0  0  0  0  0  0  0  0  0
   -3.5172    0.5999    0.0000 C   0  0  0  0  0  0  0  0  0  0  0  0
   -4.2317    1.8374    0.0000 C   0  0  0  0  0  0  0  0  0  0  0  0
   -1.3738    0.1874    0.0000 C   0  0  0  0  0  0  0  0  0  0  0  0
   -2.0883    0.5999    0.0000 C   0  0  0  0  0  0  0  0  0  0  0  0
   -4.2317    0.1874    0.0000 C   0  0  0  0  0  0  0  0  0  0  0  0
   -4.9462    1.4249    0.0000 C   0  0  0  0  0  0  0  0  0  0  0  0
   -4.2317    2.6624    0.0000 C   0  0  0  0  0  0  0  0  0  0  0  0
   -4.9462    0.5999    0.0000 C   0  0  0  0  0  0  0  0  0  0  0  0
   -0.6593    0.5999    0.0000 C   0  0  0  0  0  0  0  0  0  0  0  0
   -5.0567    2.6624    0.0000 C   0  0  0  0  0  0  0  0  0  0  0  0
   -3.4711    2.6624    0.0000 C   0  0  0  0  0  0  0  0  0  0  0  0
  1  7  1  0  0  0  0
  2  7  1  0  0  0  0
  3  5  1  0  0  0  0
  3  8  1  0  0  0  0
  4  5  1  0  0  0  0
  4  6  2  0  0  0  0
  5  9  2  0  0  0  0
  6 10  1  0  0  0  0
  6 11  1  0  0  0  0
  7  8  1  0  0  0  0
  7 13  1  0  0  0  0
  9 12  1  0  0  0  0
 10 12  2  0  0  0  0
 11 14  1  0  0  0  0
 11 15  1  0  0  0  0
M  END
> <PUBCHEM_COMPOUND_ID_TYPE>
0

> <PUBCHEM_TOTAL_CHARGE>
0

> <PUBCHEM_SUBSTANCE_ID>
310938541

> <PUBCHEM_SUBSTANCE_VERSION>
1

> <PUBCHEM_EXT_DATASOURCE_NAME>
4488

> <PUBCHEM_EXT_DATASOURCE_REGID>
SCHEMBL16116455

> <PUBCHEM_SUBSTANCE_COMMENT>
InChI=1S/C11H15F2NO/c1-8(2)9-5-4-6-10(14-9)15-7-11(3,12)13/h4-6,8H,7H2,1-3H3
InChIKey=RVAIKMLAWIPBCK-UHFFFAOYSA-N

> <PUBCHEM_SUBSTANCE_SYNONYM>
SCHEMBL16116455

> <PUBCHEM_XREF_EXT_ID>
SCHEMBL16116455

> <PUBCHEM_EXT_DATASOURCE_URL>
https://www.surechembl.org/

> <PUBCHEM_EXT_SUBSTANCE_URL>
https://www.surechembl.org/chemical/SCHEMBL16116455

> <PUBCHEM_CID_ASSOCIATIONS>
117605984  1

> <PUBCHEM_COORDINATE_TYPE>
1
3

> <PUBCHEM_BONDANNOTATIONS>
11  14  3
11  15  3

$$$$
