310949300
  -OEChem-07211613022D

 18 19  0     0  0  0  0  0  0999 V2000
   -1.4706    0.9824    0.0000 F   0  0  0  0  0  0  0  0  0  0  0  0
   -1.8123    2.0686    0.0000 F   0  0  0  0  0  0  0  0  0  0  0  0
   -0.7261    2.3981    0.0000 F   0  0  0  0  0  0  0  0  0  0  0  0
    1.8123   -0.7384    0.0000 F   0  0  0  0  0  0  0  0  0  0  0  0
   -1.0801   -0.7628    0.0000 F   0  0  0  0  0  0  0  0  0  0  0  0
    0.3356   -2.3981    0.0000 N   0  0  0  0  0  0  0  0  0  0  0  0
    0.3478   -0.7261    0.0000 C   0  0  0  0  0  0  0  0  0  0  0  0
    0.3478    0.0915    0.0000 C   0  0  0  0  0  0  0  0  0  0  0  0
   -0.3844    1.2997    0.0000 C   0  0  0  0  0  0  0  0  0  0  0  0
   -1.1045    1.7024    0.0000 C   0  0  0  0  0  0  0  0  0  0  0  0
   -0.3722    0.4943    0.0000 C   0  0  0  0  0  0  0  0  0  0  0  0
    1.0922   -1.1167    0.0000 C   0  0  0  0  0  0  0  0  0  0  0  0
   -0.3601   -1.1411    0.0000 C   0  0  0  0  0  0  0  0  0  0  0  0
    1.0679    0.5187    0.0000 C   0  0  0  0  0  0  0  0  0  0  0  0
    0.3722    1.7269    0.0000 C   0  0  0  0  0  0  0  0  0  0  0  0
    1.0801    1.3363    0.0000 C   0  0  0  0  0  0  0  0  0  0  0  0
    1.0801   -1.9465    0.0000 C   0  0  0  0  0  0  0  0  0  0  0  0
   -0.3601   -1.9831    0.0000 C   0  0  0  0  0  0  0  0  0  0  0  0
  1 10  1  0  0  0  0
  2 10  1  0  0  0  0
  3 10  1  0  0  0  0
  4 12  1  0  0  0  0
  5 13  1  0  0  0  0
  6 17  2  0  0  0  0
  6 18  1  0  0  0  0
  7  8  1  0  0  0  0
  7 12  2  0  0  0  0
  7 13  1  0  0  0  0
  8 11  1  0  0  0  0
  8 14  2  0  0  0  0
  9 10  1  0  0  0  0
  9 11  2  0  0  0  0
  9 15  1  0  0  0  0
 12 17  1  0  0  0  0
 13 18  2  0  0  0  0
 14 16  1  0  0  0  0
 15 16  2  0  0  0  0
M  END
> <PUBCHEM_COMPOUND_ID_TYPE>
0

> <PUBCHEM_TOTAL_CHARGE>
0

> <PUBCHEM_SUBSTANCE_ID>
310949300

> <PUBCHEM_SUBSTANCE_VERSION>
1

> <PUBCHEM_EXT_DATASOURCE_NAME>
4488

> <PUBCHEM_EXT_DATASOURCE_REGID>
SCHEMBL16127490

> <PUBCHEM_SUBSTANCE_COMMENT>
InChI=1S/C12H6F5N/c13-9-5-18-6-10(14)11(9)7-2-1-3-8(4-7)12(15,16)17/h1-6H
InChIKey=BFRQSOGUIAXFGQ-UHFFFAOYSA-N

> <PUBCHEM_SUBSTANCE_SYNONYM>
SCHEMBL16127490

> <PUBCHEM_XREF_EXT_ID>
SCHEMBL16127490

> <PUBCHEM_EXT_DATASOURCE_URL>
https://www.surechembl.org/

> <PUBCHEM_EXT_SUBSTANCE_URL>
https://www.surechembl.org/chemical/SCHEMBL16127490

> <PUBCHEM_CID_ASSOCIATIONS>
117614784  1

> <PUBCHEM_COORDINATE_TYPE>
1
3

$$$$
