310936191
  -OEChem-07211613022D

 29 33  0     0  0  0  0  0  0999 V2000
    4.3974   -7.1255    0.0000 Cl  0  0  0  0  0  0  0  0  0  0  0  0
    4.2398   -4.1974    0.0000 N   0  0  0  0  0  0  0  0  0  0  0  0
    2.8579    0.0000    0.0000 N   0  0  0  0  0  0  0  0  0  0  0  0
    2.9049   -4.1974    0.0000 N   0  0  0  0  0  0  0  0  0  0  0  0
    2.8579   -2.4750    0.0000 N   0  0  0  0  0  0  0  0  0  0  0  0
    3.5724   -1.2375    0.0000 N   0  0  0  0  0  0  0  0  0  0  0  0
   -1.4289   -1.6500    0.0000 N   0  0  0  0  0  0  0  0  0  0  0  0
    2.1434   -1.2375    0.0000 C   0  0  0  0  0  0  0  0  0  0  0  0
    2.1434   -0.4125    0.0000 C   0  0  0  0  0  0  0  0  0  0  0  0
    2.8579   -1.6500    0.0000 C   0  0  0  0  0  0  0  0  0  0  0  0
    0.7145   -1.2375    0.0000 C   0  0  0  0  0  0  0  0  0  0  0  0
    1.4289    0.0000    0.0000 C   0  0  0  0  0  0  0  0  0  0  0  0
    1.4289   -1.6500    0.0000 C   0  0  0  0  0  0  0  0  0  0  0  0
    3.9849   -4.9820    0.0000 C   0  0  0  0  0  0  0  0  0  0  0  0
    3.1599   -4.9820    0.0000 C   0  0  0  0  0  0  0  0  0  0  0  0
    3.5724   -3.7125    0.0000 C   0  0  0  0  0  0  0  0  0  0  0  0
    0.7145   -0.4125    0.0000 C   0  0  0  0  0  0  0  0  0  0  0  0
    0.0000   -1.6500    0.0000 C   0  0  0  0  0  0  0  0  0  0  0  0
    3.5724   -2.8875    0.0000 C   0  0  0  0  0  0  0  0  0  0  0  0
    4.3974   -5.6965    0.0000 C   0  0  0  0  0  0  0  0  0  0  0  0
    3.5724   -0.4125    0.0000 C   0  0  0  0  0  0  0  0  0  0  0  0
    2.7474   -5.6965    0.0000 C   0  0  0  0  0  0  0  0  0  0  0  0
    3.9849   -6.4110    0.0000 C   0  0  0  0  0  0  0  0  0  0  0  0
    3.1599   -6.4110    0.0000 C   0  0  0  0  0  0  0  0  0  0  0  0
    1.4289    0.8250    0.0000 C   0  0  0  0  0  0  0  0  0  0  0  0
   -0.7145   -1.2375    0.0000 C   0  0  0  0  0  0  0  0  0  0  0  0
    0.0000   -2.4750    0.0000 C   0  0  0  0  0  0  0  0  0  0  0  0
   -0.7145   -2.8875    0.0000 C   0  0  0  0  0  0  0  0  0  0  0  0
   -1.4289   -2.4750    0.0000 C   0  0  0  0  0  0  0  0  0  0  0  0
  1 23  1  0  0  0  0
  2 14  1  0  0  0  0
  2 16  2  0  0  0  0
  3  9  1  0  0  0  0
  3 21  2  0  0  0  0
  4 15  1  0  0  0  0
  4 16  1  0  0  0  0
  5 10  1  0  0  0  0
  5 19  1  0  0  0  0
  6 10  2  0  0  0  0
  6 21  1  0  0  0  0
  7 26  2  0  0  0  0
  7 29  1  0  0  0  0
  8  9  1  0  0  0  0
  8 10  1  0  0  0  0
  8 13  2  0  0  0  0
  9 12  2  0  0  0  0
 11 13  1  0  0  0  0
 11 17  2  0  0  0  0
 11 18  1  0  0  0  0
 12 17  1  0  0  0  0
 12 25  1  0  0  0  0
 14 15  1  0  0  0  0
 14 20  2  0  0  0  0
 15 22  2  0  0  0  0
 16 19  1  0  0  0  0
 18 26  1  0  0  0  0
 18 27  2  0  0  0  0
 20 23  1  0  0  0  0
 22 24  1  0  0  0  0
 23 24  2  0  0  0  0
 27 28  1  0  0  0  0
 28 29  2  0  0  0  0
M  END
> <PUBCHEM_COMPOUND_ID_TYPE>
0

> <PUBCHEM_TOTAL_CHARGE>
0

> <PUBCHEM_SUBSTANCE_ID>
310936191

> <PUBCHEM_SUBSTANCE_VERSION>
1

> <PUBCHEM_EXT_DATASOURCE_NAME>
4488

> <PUBCHEM_EXT_DATASOURCE_REGID>
SCHEMBL16113803

> <PUBCHEM_SUBSTANCE_COMMENT>
InChI=1S/C22H17ClN6/c1-13-7-15(14-3-2-6-24-10-14)8-17-21(13)26-12-27-22(17)25-11-20-28-18-5-4-16(23)9-19(18)29-20/h2-10,12H,11H2,1H3,(H,28,29)(H,25,26,27)
InChIKey=SAGACJBRUKLYLS-UHFFFAOYSA-N

> <PUBCHEM_SUBSTANCE_SYNONYM>
SCHEMBL16113803

> <PUBCHEM_XREF_EXT_ID>
SCHEMBL16113803

> <PUBCHEM_EXT_DATASOURCE_URL>
https://www.surechembl.org/

> <PUBCHEM_EXT_SUBSTANCE_URL>
https://www.surechembl.org/chemical/SCHEMBL16113803

> <PUBCHEM_CID_ASSOCIATIONS>
117604147  1

> <PUBCHEM_COORDINATE_TYPE>
1
3

$$$$
