310949196
  -OEChem-07211613022D

 44 51  0     0  0  0  0  0  0999 V2000
   -0.0075    0.4866    0.0000 N   0  0  0  0  0  0  0  0  0  0  0  0
   -2.1333   -0.0075    0.0000 N   0  0  0  0  0  0  0  0  0  0  0  0
    2.1333    0.0673    0.0000 N   0  0  0  0  0  0  0  0  0  0  0  0
   -0.7261   -1.5943    0.0000 C   0  0  0  0  0  0  0  0  0  0  0  0
   -1.3399   -2.1183    0.0000 C   0  0  0  0  0  0  0  0  0  0  0  0
   -0.0075   -0.3368    0.0000 C   0  0  0  0  0  0  0  0  0  0  0  0
   -0.0075   -1.9686    0.0000 C   0  0  0  0  0  0  0  0  0  0  0  0
   -0.6962   -0.7560    0.0000 C   0  0  0  0  0  0  0  0  0  0  0  0
   -1.0105   -2.8668    0.0000 C   0  0  0  0  0  0  0  0  0  0  0  0
   -0.2021   -2.7920    0.0000 C   0  0  0  0  0  0  0  0  0  0  0  0
   -0.6962    0.9805    0.0000 C   0  0  0  0  0  0  0  0  0  0  0  0
    0.6512    1.0255    0.0000 C   0  0  0  0  0  0  0  0  0  0  0  0
    0.7261   -0.7261    0.0000 C   0  0  0  0  0  0  0  0  0  0  0  0
   -0.4416    1.7889    0.0000 C   0  0  0  0  0  0  0  0  0  0  0  0
    0.3967    1.7889    0.0000 C   0  0  0  0  0  0  0  0  0  0  0  0
    0.7111   -1.5644    0.0000 C   0  0  0  0  0  0  0  0  0  0  0  0
   -1.4297   -0.3668    0.0000 C   0  0  0  0  0  0  0  0  0  0  0  0
   -1.3099   -3.6603    0.0000 C   0  0  0  0  0  0  0  0  0  0  0  0
   -1.4896    0.8159    0.0000 C   0  0  0  0  0  0  0  0  0  0  0  0
    1.4597    0.8608    0.0000 C   0  0  0  0  0  0  0  0  0  0  0  0
    0.3069   -3.4357    0.0000 C   0  0  0  0  0  0  0  0  0  0  0  0
   -1.0105    2.3878    0.0000 C   0  0  0  0  0  0  0  0  0  0  0  0
    0.9356    2.4027    0.0000 C   0  0  0  0  0  0  0  0  0  0  0  0
   -2.1333   -2.3429    0.0000 C   0  0  0  0  0  0  0  0  0  0  0  0
   -1.7440   -1.4297    0.0000 C   0  0  0  0  0  0  0  0  0  0  0  0
   -1.8039    2.1932    0.0000 C   0  0  0  0  0  0  0  0  0  0  0  0
    1.7440    2.2381    0.0000 C   0  0  0  0  0  0  0  0  0  0  0  0
    1.4297   -0.3219    0.0000 C   0  0  0  0  0  0  0  0  0  0  0  0
   -2.0285    1.3848    0.0000 C   0  0  0  0  0  0  0  0  0  0  0  0
    2.0435    1.4597    0.0000 C   0  0  0  0  0  0  0  0  0  0  0  0
   -0.8608   -4.3040    0.0000 C   0  0  0  0  0  0  0  0  0  0  0  0
   -0.0224   -4.1992    0.0000 C   0  0  0  0  0  0  0  0  0  0  0  0
   -2.3728    2.8369    0.0000 C   0  0  0  0  0  0  0  0  0  0  0  0
    2.3279    2.9118    0.0000 C   0  0  0  0  0  0  0  0  0  0  0  0
   -2.1483    3.6453    0.0000 C   0  0  0  0  0  0  0  0  0  0  0  0
    3.1513    2.7321    0.0000 C   0  0  0  0  0  0  0  0  0  0  0  0
   -3.1363    2.6273    0.0000 C   0  0  0  0  0  0  0  0  0  0  0  0
    2.0734    3.6753    0.0000 C   0  0  0  0  0  0  0  0  0  0  0  0
   -2.6722    4.2142    0.0000 C   0  0  0  0  0  0  0  0  0  0  0  0
    3.7052    3.3459    0.0000 C   0  0  0  0  0  0  0  0  0  0  0  0
   -3.7052    3.2111    0.0000 C   0  0  0  0  0  0  0  0  0  0  0  0
    2.6572    4.3040    0.0000 C   0  0  0  0  0  0  0  0  0  0  0  0
   -3.4507    4.0345    0.0000 C   0  0  0  0  0  0  0  0  0  0  0  0
    3.4207    4.1393    0.0000 C   0  0  0  0  0  0  0  0  0  0  0  0
  1  6  1  0  0  0  0
  1 11  1  0  0  0  0
  1 12  1  0  0  0  0
  2 17  3  0  0  0  0
  3 28  3  0  0  0  0
  4  5  1  0  0  0  0
  4  7  1  0  0  0  0
  4  8  2  0  0  0  0
  5  9  1  0  0  0  0
  5 24  1  0  0  0  0
  5 25  1  0  0  0  0
  6  8  1  0  0  0  0
  6 13  2  0  0  0  0
  7 10  1  0  0  0  0
  7 16  2  0  0  0  0
  8 17  1  0  0  0  0
  9 10  2  0  0  0  0
  9 18  1  0  0  0  0
 10 21  1  0  0  0  0
 11 14  2  0  0  0  0
 11 19  1  0  0  0  0
 12 15  2  0  0  0  0
 12 20  1  0  0  0  0
 13 16  1  0  0  0  0
 13 28  1  0  0  0  0
 14 15  1  0  0  0  0
 14 22  1  0  0  0  0
 15 23  1  0  0  0  0
 18 31  2  0  0  0  0
 19 29  2  0  0  0  0
 20 30  2  0  0  0  0
 21 32  2  0  0  0  0
 22 26  2  0  0  0  0
 23 27  2  0  0  0  0
 26 29  1  0  0  0  0
 26 33  1  0  0  0  0
 27 30  1  0  0  0  0
 27 34  1  0  0  0  0
 31 32  1  0  0  0  0
 33 35  2  0  0  0  0
 33 37  1  0  0  0  0
 34 36  2  0  0  0  0
 34 38  1  0  0  0  0
 35 39  1  0  0  0  0
 36 40  1  0  0  0  0
 37 41  2  0  0  0  0
 38 42  2  0  0  0  0
 39 43  2  0  0  0  0
 40 44  2  0  0  0  0
 41 43  1  0  0  0  0
 42 44  1  0  0  0  0
M  END
> <PUBCHEM_COMPOUND_ID_TYPE>
0

> <PUBCHEM_TOTAL_CHARGE>
0

> <PUBCHEM_SUBSTANCE_ID>
310949196

> <PUBCHEM_SUBSTANCE_VERSION>
1

> <PUBCHEM_EXT_DATASOURCE_NAME>
4488

> <PUBCHEM_EXT_DATASOURCE_REGID>
SCHEMBL16127386

> <PUBCHEM_SUBSTANCE_COMMENT>
InChI=1S/C41H27N3/c1-41(2)36-16-10-9-15-31(36)34-23-30(24-42)40(35(25-43)39(34)41)44-37-19-17-28(26-11-5-3-6-12-26)21-32(37)33-22-29(18-20-38(33)44)27-13-7-4-8-14-27/h3-23H,1-2H3
InChIKey=YJIVOXMKMFNHMG-UHFFFAOYSA-N

> <PUBCHEM_SUBSTANCE_SYNONYM>
SCHEMBL16127386

> <PUBCHEM_XREF_EXT_ID>
SCHEMBL16127386

> <PUBCHEM_EXT_DATASOURCE_URL>
https://www.surechembl.org/

> <PUBCHEM_EXT_SUBSTANCE_URL>
https://www.surechembl.org/chemical/SCHEMBL16127386

> <PUBCHEM_CID_ASSOCIATIONS>
117614684  1

> <PUBCHEM_COORDINATE_TYPE>
1
3

$$$$
