310940860
  -OEChem-07211613022D

 42 45  0     1  0  0  0  0  0999 V2000
    5.0794   -1.1114    0.0000 O   0  0  0  0  0  0  0  0  0  0  0  0
    3.9538    0.8549    0.0000 O   0  0  0  0  0  0  0  0  0  0  0  0
    1.8024   -1.2111    0.0000 O   0  0  0  0  0  0  0  0  0  0  0  0
   -0.3490    0.8549    0.0000 O   0  0  0  0  0  0  0  0  0  0  0  0
    2.5147    3.3483    0.0000 O   0  0  0  0  0  0  0  0  0  0  0  0
   -2.5006   -1.2111    0.0000 O   0  0  0  0  0  0  0  0  0  0  0  0
   -5.3786   -1.2111    0.0000 O   0  0  0  0  0  0  0  0  0  0  0  0
    2.5147    0.0285    0.0000 N   0  0  0  0  0  0  0  0  0  0  0  0
    0.3633   -0.3989    0.0000 N   0  0  0  0  0  0  0  0  0  0  0  0
   -1.7881    0.0285    0.0000 N   0  0  0  0  0  0  0  0  0  0  0  0
   -3.9395   -0.3989    0.0000 N   0  0  0  0  0  0  0  0  0  0  0  0
    4.6805   -0.3705    0.0000 C   0  0  3  0  0  0  0  0  0  0  0  0
    3.8968    0.0427    0.0000 C   0  0  0  0  0  0  0  0  0  0  0  0
    4.2815   -1.0828    0.0000 C   0  0  0  0  0  0  0  0  0  0  0  0
    3.2557   -0.3562    0.0000 C   0  0  3  0  0  0  0  0  0  0  0  0
    5.3786    0.0427    0.0000 C   0  0  0  0  0  0  0  0  0  0  0  0
    3.2699   -1.7098    0.0000 C   0  0  0  0  0  0  0  0  0  0  0  0
    1.8166   -0.3420    0.0000 C   0  0  0  0  0  0  0  0  0  0  0  0
    1.0899    0.0570    0.0000 C   0  0  3  0  0  0  0  0  0  0  0  0
    2.5290   -2.1087    0.0000 C   0  0  0  0  0  0  0  0  0  0  0  0
    1.1042    0.8833    0.0000 C   0  0  0  0  0  0  0  0  0  0  0  0
    1.8024    1.2966    0.0000 C   0  0  0  0  0  0  0  0  0  0  0  0
   -0.3633    0.0285    0.0000 C   0  0  0  0  0  0  0  0  0  0  0  0
    1.7881   -1.7098    0.0000 C   0  0  0  0  0  0  0  0  0  0  0  0
    2.5290   -2.9351    0.0000 C   0  0  0  0  0  0  0  0  0  0  0  0
    1.8166    2.1230    0.0000 C   0  0  0  0  0  0  0  0  0  0  0  0
   -1.0615   -0.3562    0.0000 C   0  0  3  0  0  0  0  0  0  0  0  0
    2.5147    2.5362    0.0000 C   0  0  0  0  0  0  0  0  0  0  0  0
    2.5290    0.8833    0.0000 C   0  0  0  0  0  0  0  0  0  0  0  0
    3.2414    2.1372    0.0000 C   0  0  0  0  0  0  0  0  0  0  0  0
    3.2414    1.2966    0.0000 C   0  0  0  0  0  0  0  0  0  0  0  0
    1.1042   -2.1087    0.0000 C   0  0  0  0  0  0  0  0  0  0  0  0
    1.8166   -3.3483    0.0000 C   0  0  0  0  0  0  0  0  0  0  0  0
    1.1042   -2.9351    0.0000 C   0  0  0  0  0  0  0  0  0  0  0  0
   -2.5006   -0.3420    0.0000 C   0  0  0  0  0  0  0  0  0  0  0  0
   -1.0615   -1.1683    0.0000 C   0  0  0  0  0  0  0  0  0  0  0  0
   -3.2272    0.0427    0.0000 C   0  0  0  0  0  0  0  0  0  0  0  0
    3.9681    2.5362    0.0000 C   0  0  0  0  0  0  0  0  0  0  0  0
   -3.9395   -1.1969    0.0000 C   0  0  0  0  0  0  0  0  0  0  0  0
   -4.6662    0.0427    0.0000 C   0  0  0  0  0  0  0  0  0  0  0  0
   -4.6377   -1.5958    0.0000 C   0  0  0  0  0  0  0  0  0  0  0  0
   -5.3502   -0.3562    0.0000 C   0  0  0  0  0  0  0  0  0  0  0  0
  1 12  1  0  0  0  0
  1 14  1  0  0  0  0
  2 13  2  0  0  0  0
  3 18  2  0  0  0  0
  4 23  2  0  0  0  0
  5 28  1  0  0  0  0
  6 35  2  0  0  0  0
  7 41  1  0  0  0  0
  7 42  1  0  0  0  0
 15  8  1  6  0  0  0
  8 18  1  0  0  0  0
 19  9  1  1  0  0  0
  9 23  1  0  0  0  0
 10 27  1  0  0  0  0
 10 35  1  0  0  0  0
 11 37  1  0  0  0  0
 11 39  1  0  0  0  0
 11 40  1  0  0  0  0
 12 13  1  6  0  0  0
 12 14  1  0  0  0  0
 12 16  1  1  0  0  0
 13 15  1  0  0  0  0
 15 17  1  0  0  0  0
 17 20  1  0  0  0  0
 18 19  1  0  0  0  0
 19 21  1  0  0  0  0
 20 24  2  0  0  0  0
 20 25  1  0  0  0  0
 21 22  1  0  0  0  0
 22 26  1  0  0  0  0
 22 29  2  0  0  0  0
 23 27  1  0  0  0  0
 24 32  1  0  0  0  0
 25 33  1  0  0  0  0
 26 28  2  0  0  0  0
 27 36  1  6  0  0  0
 28 30  1  0  0  0  0
 29 31  1  0  0  0  0
 30 31  2  0  0  0  0
 30 38  1  0  0  0  0
 32 34  1  0  0  0  0
 33 34  1  0  0  0  0
 35 37  1  0  0  0  0
 39 41  1  0  0  0  0
 40 42  1  0  0  0  0
M  END
> <PUBCHEM_COMPOUND_ID_TYPE>
0

> <PUBCHEM_TOTAL_CHARGE>
0

> <PUBCHEM_SUBSTANCE_ID>
310940860

> <PUBCHEM_SUBSTANCE_VERSION>
1

> <PUBCHEM_EXT_DATASOURCE_NAME>
4488

> <PUBCHEM_EXT_DATASOURCE_REGID>
SCHEMBL16118819

> <PUBCHEM_SUBSTANCE_COMMENT>
InChI=1S/C31H44N4O7/c1-20-9-10-23(17-26(20)36)16-25(34-29(39)21(2)32-27(37)18-35-11-13-41-14-12-35)30(40)33-24(28(38)31(3)19-42-31)15-22-7-5-4-6-8-22/h7,9-10,17,21,24-25,36H,4-6,8,11-16,18-19H2,1-3H3,(H,32,37)(H,33,40)(H,34,39)/t21-,24-,25-,31+/m0/s1
InChIKey=HHTGIMKCGQZMEV-ZOSJUMCWSA-N

> <PUBCHEM_SUBSTANCE_SYNONYM>
SCHEMBL16118819

> <PUBCHEM_XREF_EXT_ID>
SCHEMBL16118819

> <PUBCHEM_EXT_DATASOURCE_URL>
https://www.surechembl.org/

> <PUBCHEM_EXT_SUBSTANCE_URL>
https://www.surechembl.org/chemical/SCHEMBL16118819

> <PUBCHEM_CID_ASSOCIATIONS>
117607777  1

> <PUBCHEM_COORDINATE_TYPE>
1
3

> <PUBCHEM_BONDANNOTATIONS>
12  13  6
12  16  5
27  36  6
15  8  6
19  9  5

$$$$
