310944668
  -OEChem-07211613022D

 25 26  0     0  0  0  0  0  0999 V2000
   -3.7418   -0.2114    0.0000 Cl  0  0  0  0  0  0  0  0  0  0  0  0
   -0.7086   -0.2114    0.0000 O   0  0  0  0  0  0  0  0  0  0  0  0
    0.7210    2.2749    0.0000 O   0  0  0  0  0  0  0  0  0  0  0  0
    2.8840   -2.2749    0.0000 O   0  0  0  0  0  0  0  0  0  0  0  0
    1.4545    1.0318    0.0000 N   0  0  0  0  0  0  0  0  0  0  0  0
   -0.6962    1.4545    0.0000 N   0  0  0  0  0  0  0  0  0  0  0  0
    3.7418   -1.0318    0.0000 N   0  0  0  0  0  0  0  0  0  0  0  0
   -1.4172    1.0442    0.0000 C   0  0  0  0  0  0  0  0  0  0  0  0
   -1.4296    0.2114    0.0000 C   0  0  0  0  0  0  0  0  0  0  0  0
   -2.8592    1.0318    0.0000 C   0  0  0  0  0  0  0  0  0  0  0  0
   -2.8592    0.2114    0.0000 C   0  0  0  0  0  0  0  0  0  0  0  0
   -2.1257    1.4420    0.0000 C   0  0  0  0  0  0  0  0  0  0  0  0
    0.7210    1.4420    0.0000 C   0  0  0  0  0  0  0  0  0  0  0  0
   -2.1257   -0.1989    0.0000 C   0  0  0  0  0  0  0  0  0  0  0  0
    0.0249    1.0442    0.0000 C   0  0  0  0  0  0  0  0  0  0  0  0
    2.8840    0.2114    0.0000 C   0  0  0  0  0  0  0  0  0  0  0  0
    1.4669    0.2114    0.0000 C   0  0  0  0  0  0  0  0  0  0  0  0
    2.1879    1.4545    0.0000 C   0  0  0  0  0  0  0  0  0  0  0  0
    2.1879   -0.1989    0.0000 C   0  0  0  0  0  0  0  0  0  0  0  0
    2.8965    1.0318    0.0000 C   0  0  0  0  0  0  0  0  0  0  0  0
    3.6175   -0.2114    0.0000 C   0  0  0  0  0  0  0  0  0  0  0  0
   -3.5677    1.4545    0.0000 C   0  0  0  0  0  0  0  0  0  0  0  0
    2.8965   -1.4296    0.0000 C   0  0  0  0  0  0  0  0  0  0  0  0
    2.1755   -1.0318    0.0000 C   0  0  0  0  0  0  0  0  0  0  0  0
    1.4917   -1.4917    0.0000 C   0  0  0  0  0  0  0  0  0  0  0  0
  1 11  1  0  0  0  0
  2  9  1  0  0  0  0
  3 13  2  0  0  0  0
  4 23  2  0  0  0  0
  5 13  1  0  0  0  0
  5 17  1  0  0  0  0
  5 18  1  0  0  0  0
  6  8  1  0  0  0  0
  6 15  1  0  0  0  0
  7 21  1  0  0  0  0
  7 23  1  0  0  0  0
  8  9  1  0  0  0  0
  8 12  2  0  0  0  0
  9 14  2  0  0  0  0
 10 11  2  0  0  0  0
 10 12  1  0  0  0  0
 10 22  1  0  0  0  0
 11 14  1  0  0  0  0
 13 15  1  0  0  0  0
 16 19  1  0  0  0  0
 16 20  1  0  0  0  0
 16 21  1  0  0  0  0
 17 19  1  0  0  0  0
 18 20  1  0  0  0  0
 23 24  1  0  0  0  0
 24 25  2  0  0  0  0
M  END
> <PUBCHEM_COMPOUND_ID_TYPE>
0

> <PUBCHEM_TOTAL_CHARGE>
0

> <PUBCHEM_SUBSTANCE_ID>
310944668

> <PUBCHEM_SUBSTANCE_VERSION>
1

> <PUBCHEM_EXT_DATASOURCE_NAME>
4488

> <PUBCHEM_EXT_DATASOURCE_REGID>
SCHEMBL16122746

> <PUBCHEM_SUBSTANCE_COMMENT>
InChI=1S/C18H24ClN3O3/c1-3-17(24)21-10-13-4-6-22(7-5-13)18(25)11-20-15-8-12(2)14(19)9-16(15)23/h3,8-9,13,20,23H,1,4-7,10-11H2,2H3,(H,21,24)
InChIKey=BWGHPUAWBBGVSV-UHFFFAOYSA-N

> <PUBCHEM_SUBSTANCE_SYNONYM>
SCHEMBL16122746

> <PUBCHEM_XREF_EXT_ID>
SCHEMBL16122746

> <PUBCHEM_EXT_DATASOURCE_URL>
https://www.surechembl.org/

> <PUBCHEM_EXT_SUBSTANCE_URL>
https://www.surechembl.org/chemical/SCHEMBL16122746

> <PUBCHEM_CID_ASSOCIATIONS>
117610897  1

> <PUBCHEM_COORDINATE_TYPE>
1
3

$$$$
