310933896
  -OEChem-07211613022D

 27 28  0     0  0  0  0  0  0999 V2000
    2.7980   -3.6897    0.0000 S   0  0  0  0  0  0  0  0  0  0  0  0
    3.4745   -4.1202    0.0000 O   0  0  0  0  0  0  0  0  0  0  0  0
    4.8889   -4.9196    0.0000 O   0  0  0  0  0  0  0  0  0  0  0  0
    2.8288   -1.2606    0.0000 O   0  0  0  0  0  0  0  0  0  0  0  0
    4.1817   -6.1495    0.0000 O   0  0  0  0  0  0  0  0  0  0  0  0
    3.5052   -2.4906    0.0000 N   0  0  0  0  0  0  0  0  0  0  0  0
    4.8889   -2.4906    0.0000 N   0  0  0  0  0  0  0  0  0  0  0  0
    2.0908   -2.4598    0.0000 N   0  0  0  0  0  0  0  0  0  0  0  0
    4.2124   -2.8903    0.0000 C   0  0  0  0  0  0  0  0  0  0  0  0
    4.1817   -3.7205    0.0000 C   0  0  0  0  0  0  0  0  0  0  0  0
    2.7980   -2.8595    0.0000 C   0  0  0  0  0  0  0  0  0  0  0  0
    4.9196   -4.0894    0.0000 C   0  0  0  0  0  0  0  0  0  0  0  0
    2.0908   -1.6604    0.0000 C   0  0  0  0  0  0  0  0  0  0  0  0
    1.3836   -1.2299    0.0000 C   0  0  0  0  0  0  0  0  0  0  0  0
    5.6268   -2.8595    0.0000 C   0  0  0  0  0  0  0  0  0  0  0  0
    3.4745   -4.9196    0.0000 C   0  0  0  0  0  0  0  0  0  0  0  0
    5.5960   -3.6897    0.0000 C   0  0  0  0  0  0  0  0  0  0  0  0
    4.1817   -5.3501    0.0000 C   0  0  0  0  0  0  0  0  0  0  0  0
    5.5960   -5.3501    0.0000 C   0  0  0  0  0  0  0  0  0  0  0  0
    1.4144   -0.4304    0.0000 C   0  0  0  0  0  0  0  0  0  0  0  0
    0.6765   -1.6296    0.0000 C   0  0  0  0  0  0  0  0  0  0  0  0
    0.7072    0.0000    0.0000 C   0  0  0  0  0  0  0  0  0  0  0  0
    0.0000   -1.2299    0.0000 C   0  0  0  0  0  0  0  0  0  0  0  0
    0.0000   -0.3997    0.0000 C   0  0  0  0  0  0  0  0  0  0  0  0
    5.1656   -6.0573    0.0000 C   0  0  0  0  0  0  0  0  0  0  0  0
    6.3032   -5.7498    0.0000 C   0  0  0  0  0  0  0  0  0  0  0  0
    5.9958   -4.6429    0.0000 C   0  0  0  0  0  0  0  0  0  0  0  0
  1 11  2  0  0  0  0
  2 10  1  0  0  0  0
  2 16  1  0  0  0  0
  3 18  1  0  0  0  0
  3 19  1  0  0  0  0
  4 13  2  0  0  0  0
  5 18  2  0  0  0  0
  6  9  1  0  0  0  0
  6 11  1  0  0  0  0
  7  9  1  0  0  0  0
  7 15  2  0  0  0  0
  8 11  1  0  0  0  0
  8 13  1  0  0  0  0
  9 10  2  0  0  0  0
 10 12  1  0  0  0  0
 12 17  2  0  0  0  0
 13 14  1  0  0  0  0
 14 20  2  0  0  0  0
 14 21  1  0  0  0  0
 15 17  1  0  0  0  0
 16 18  1  0  0  0  0
 19 25  1  0  0  0  0
 19 26  1  0  0  0  0
 19 27  1  0  0  0  0
 20 22  1  0  0  0  0
 21 23  2  0  0  0  0
 22 24  2  0  0  0  0
 23 24  1  0  0  0  0
M  END
> <PUBCHEM_COMPOUND_ID_TYPE>
0

> <PUBCHEM_TOTAL_CHARGE>
0

> <PUBCHEM_SUBSTANCE_ID>
310933896

> <PUBCHEM_SUBSTANCE_VERSION>
1

> <PUBCHEM_EXT_DATASOURCE_NAME>
4488

> <PUBCHEM_EXT_DATASOURCE_REGID>
SCHEMBL16111335

> <PUBCHEM_SUBSTANCE_COMMENT>
InChI=1S/C19H21N3O4S/c1-19(2,3)26-15(23)12-25-14-10-7-11-20-16(14)21-18(27)22-17(24)13-8-5-4-6-9-13/h4-11H,12H2,1-3H3,(H2,20,21,22,24,27)
InChIKey=PTXPOKKKUULXBC-UHFFFAOYSA-N

> <PUBCHEM_SUBSTANCE_SYNONYM>
SCHEMBL16111335

> <PUBCHEM_XREF_EXT_ID>
SCHEMBL16111335

> <PUBCHEM_EXT_DATASOURCE_URL>
https://www.surechembl.org/

> <PUBCHEM_EXT_SUBSTANCE_URL>
https://www.surechembl.org/chemical/SCHEMBL16111335

> <PUBCHEM_CID_ASSOCIATIONS>
117602226  1

> <PUBCHEM_COORDINATE_TYPE>
1
3

$$$$
