310946238
  -OEChem-07211613022D

 33 34  0     1  0  0  0  0  0999 V2000
   -0.9138    2.0784    0.0000 O   0  0  0  0  0  0  0  0  0  0  0  0
   -1.6255   -2.4827    0.0000 O   0  0  0  0  0  0  0  0  0  0  0  0
    0.5257    2.0784    0.0000 O   0  0  0  0  0  0  0  0  0  0  0  0
    1.2373   -1.6578    0.0000 O   0  0  0  0  0  0  0  0  0  0  0  0
    0.5257   -0.4125    0.0000 O   0  0  0  0  0  0  0  0  0  0  0  0
   -0.9138   -3.7281    0.0000 O   0  0  0  0  0  0  0  0  0  0  0  0
   -0.1860    3.3238    0.0000 O   0  0  0  0  0  0  0  0  0  0  0  0
   -0.0081   -2.4827    0.0000 N   0  0  0  0  0  0  0  0  0  0  0  0
   -0.1698   -1.6417    0.0000 C   0  0  3  0  0  0  0  0  0  0  0  0
   -0.8977   -0.3962    0.0000 C   0  0  0  0  0  0  0  0  0  0  0  0
   -0.8977   -1.2211    0.0000 C   0  0  0  0  0  0  0  0  0  0  0  0
   -0.8977    1.2535    0.0000 C   0  0  0  0  0  0  0  0  0  0  0  0
    0.5418   -1.2373    0.0000 C   0  0  0  0  0  0  0  0  0  0  0  0
   -0.1698    0.0081    0.0000 C   0  0  0  0  0  0  0  0  0  0  0  0
   -1.5931    0.0081    0.0000 C   0  0  0  0  0  0  0  0  0  0  0  0
   -0.8977   -2.8708    0.0000 C   0  0  0  0  0  0  0  0  0  0  0  0
   -0.1698    0.8329    0.0000 C   0  0  0  0  0  0  0  0  0  0  0  0
   -1.5931    0.8329    0.0000 C   0  0  0  0  0  0  0  0  0  0  0  0
   -0.1860    2.4827    0.0000 C   0  0  0  0  0  0  0  0  0  0  0  0
    1.2535    2.4988    0.0000 C   0  0  0  0  0  0  0  0  0  0  0  0
   -2.3210   -2.8708    0.0000 C   0  0  0  0  0  0  0  0  0  0  0  0
    1.2697    3.3238    0.0000 C   0  0  0  0  0  0  0  0  0  0  0  0
    1.9975    2.0945    0.0000 C   0  0  0  0  0  0  0  0  0  0  0  0
    2.6930    3.3399    0.0000 C   0  0  0  0  0  0  0  0  0  0  0  0
    1.9975    3.7281    0.0000 C   0  0  0  0  0  0  0  0  0  0  0  0
    2.6930    2.4988    0.0000 C   0  0  0  0  0  0  0  0  0  0  0  0
    1.2697   -2.4827    0.0000 C   0  0  0  0  0  0  0  0  0  0  0  0
   -2.5474   -2.0945    0.0000 C   0  0  0  0  0  0  0  0  0  0  0  0
   -3.1620   -2.9032    0.0000 C   0  0  0  0  0  0  0  0  0  0  0  0
   -2.3371   -3.7281    0.0000 C   0  0  0  0  0  0  0  0  0  0  0  0
    3.1620    3.5825    0.0000 C   0  0  0  0  0  0  0  0  0  0  0  0
    1.9813   -2.8871    0.0000 C   0  0  0  0  0  0  0  0  0  0  0  0
    1.9328   -3.7281    0.0000 C   0  0  0  0  0  0  0  0  0  0  0  0
  1 12  1  0  0  0  0
  1 19  1  0  0  0  0
  2 16  1  0  0  0  0
  2 21  1  0  0  0  0
  3 19  1  0  0  0  0
  3 20  1  0  0  0  0
  4 13  1  0  0  0  0
  4 27  1  0  0  0  0
  5 13  2  0  0  0  0
  6 16  2  0  0  0  0
  7 19  2  0  0  0  0
  9  8  1  1  0  0  0
  8 16  1  0  0  0  0
  9 11  1  0  0  0  0
  9 13  1  0  0  0  0
 10 11  1  0  0  0  0
 10 14  2  0  0  0  0
 10 15  1  0  0  0  0
 12 17  2  0  0  0  0
 12 18  1  0  0  0  0
 14 17  1  0  0  0  0
 15 18  2  0  0  0  0
 20 22  2  0  0  0  0
 20 23  1  0  0  0  0
 21 28  1  0  0  0  0
 21 29  1  0  0  0  0
 21 30  1  0  0  0  0
 22 25  1  0  0  0  0
 23 26  2  0  0  0  0
 24 25  2  0  0  0  0
 24 26  1  0  0  0  0
 24 31  1  0  0  0  0
 27 32  1  0  0  0  0
 32 33  2  0  0  0  0
M  END
> <PUBCHEM_COMPOUND_ID_TYPE>
0

> <PUBCHEM_TOTAL_CHARGE>
0

> <PUBCHEM_SUBSTANCE_ID>
310946238

> <PUBCHEM_SUBSTANCE_VERSION>
1

> <PUBCHEM_EXT_DATASOURCE_NAME>
4488

> <PUBCHEM_EXT_DATASOURCE_REGID>
SCHEMBL16124354

> <PUBCHEM_SUBSTANCE_COMMENT>
InChI=1S/C25H29NO7/c1-6-15-30-22(27)21(26-23(28)33-25(3,4)5)16-18-9-13-20(14-10-18)32-24(29)31-19-11-7-17(2)8-12-19/h6-14,21H,1,15-16H2,2-5H3,(H,26,28)/t21-/m0/s1
InChIKey=DRFWKFJQHMJZOX-NRFANRHFSA-N

> <PUBCHEM_SUBSTANCE_SYNONYM>
SCHEMBL16124354

> <PUBCHEM_XREF_EXT_ID>
SCHEMBL16124354

> <PUBCHEM_EXT_DATASOURCE_URL>
https://www.surechembl.org/

> <PUBCHEM_EXT_SUBSTANCE_URL>
https://www.surechembl.org/chemical/SCHEMBL16124354

> <PUBCHEM_CID_ASSOCIATIONS>
117612186  1

> <PUBCHEM_COORDINATE_TYPE>
1
3

> <PUBCHEM_BONDANNOTATIONS>
9  8  5

$$$$
