310930068
  -OEChem-07211613022D

 30 34  0     0  0  0  0  0  0999 V2000
    0.0000   -6.2069    0.0000 O   0  0  0  0  0  0  0  0  0  0  0  0
    1.4142   -6.2069    0.0000 N   0  0  0  0  0  0  0  0  0  0  0  0
    2.7892   -3.7320    0.0000 N   0  0  0  0  0  0  0  0  0  0  0  0
    2.1606   -6.5997    0.0000 C   0  0  0  0  0  0  0  0  0  0  0  0
    2.8285   -6.2069    0.0000 C   0  0  0  0  0  0  0  0  0  0  0  0
    2.1606   -7.4247    0.0000 C   0  0  0  0  0  0  0  0  0  0  0  0
    2.8285   -5.3819    0.0000 C   0  0  0  0  0  0  0  0  0  0  0  0
    3.5355   -6.5997    0.0000 C   0  0  0  0  0  0  0  0  0  0  0  0
    2.8285   -7.8568    0.0000 C   0  0  0  0  0  0  0  0  0  0  0  0
    1.4142   -7.8568    0.0000 C   0  0  0  0  0  0  0  0  0  0  0  0
    0.7071   -6.5997    0.0000 C   0  0  0  0  0  0  0  0  0  0  0  0
    3.5355   -4.9498    0.0000 C   0  0  0  0  0  0  0  0  0  0  0  0
    2.1213   -4.9891    0.0000 C   0  0  0  0  0  0  0  0  0  0  0  0
    3.5355   -7.4247    0.0000 C   0  0  0  0  0  0  0  0  0  0  0  0
    0.7071   -7.4247    0.0000 C   0  0  0  0  0  0  0  0  0  0  0  0
    3.5355   -4.1248    0.0000 C   0  0  0  0  0  0  0  0  0  0  0  0
    2.1213   -4.1641    0.0000 C   0  0  0  0  0  0  0  0  0  0  0  0
    3.4963   -2.5142    0.0000 C   0  0  0  0  0  0  0  0  0  0  0  0
    2.7892   -2.9463    0.0000 C   0  0  0  0  0  0  0  0  0  0  0  0
    4.9105   -1.6499    0.0000 C   0  0  0  0  0  0  0  0  0  0  0  0
    5.6176   -1.2571    0.0000 C   0  0  0  0  0  0  0  0  0  0  0  0
    3.4963   -1.6892    0.0000 C   0  0  0  0  0  0  0  0  0  0  0  0
    4.2034   -2.9070    0.0000 C   0  0  0  0  0  0  0  0  0  0  0  0
    4.2034   -1.2571    0.0000 C   0  0  0  0  0  0  0  0  0  0  0  0
    4.9105   -2.4749    0.0000 C   0  0  0  0  0  0  0  0  0  0  0  0
    6.3247   -1.6499    0.0000 C   0  0  0  0  0  0  0  0  0  0  0  0
    5.6176   -0.4322    0.0000 C   0  0  0  0  0  0  0  0  0  0  0  0
    7.0318   -1.2178    0.0000 C   0  0  0  0  0  0  0  0  0  0  0  0
    6.2855    0.0000    0.0000 C   0  0  0  0  0  0  0  0  0  0  0  0
    7.0318   -0.3928    0.0000 C   0  0  0  0  0  0  0  0  0  0  0  0
  1 11  2  0  0  0  0
  2  4  1  0  0  0  0
  2 11  1  0  0  0  0
  3 16  1  0  0  0  0
  3 17  1  0  0  0  0
  3 19  1  0  0  0  0
  4  5  1  0  0  0  0
  4  6  2  0  0  0  0
  5  7  1  0  0  0  0
  5  8  2  0  0  0  0
  6  9  1  0  0  0  0
  6 10  1  0  0  0  0
  7 12  1  0  0  0  0
  7 13  1  0  0  0  0
  8 14  1  0  0  0  0
  9 14  2  0  0  0  0
 10 15  1  0  0  0  0
 11 15  1  0  0  0  0
 12 16  1  0  0  0  0
 13 17  1  0  0  0  0
 18 19  1  0  0  0  0
 18 22  2  0  0  0  0
 18 23  1  0  0  0  0
 20 21  1  0  0  0  0
 20 24  2  0  0  0  0
 20 25  1  0  0  0  0
 21 26  2  0  0  0  0
 21 27  1  0  0  0  0
 22 24  1  0  0  0  0
 23 25  2  0  0  0  0
 26 28  1  0  0  0  0
 27 29  2  0  0  0  0
 28 30  2  0  0  0  0
 29 30  1  0  0  0  0
M  END
> <PUBCHEM_COMPOUND_ID_TYPE>
0

> <PUBCHEM_TOTAL_CHARGE>
0

> <PUBCHEM_SUBSTANCE_ID>
310930068

> <PUBCHEM_SUBSTANCE_VERSION>
1

> <PUBCHEM_EXT_DATASOURCE_NAME>
4488

> <PUBCHEM_EXT_DATASOURCE_REGID>
SCHEMBL16107311

> <PUBCHEM_SUBSTANCE_COMMENT>
InChI=1S/C27H28N2O/c30-26-14-13-24-7-4-8-25(27(24)28-26)23-15-17-29(18-16-23)19-20-9-11-22(12-10-20)21-5-2-1-3-6-21/h1-12,23H,13-19H2,(H,28,30)
InChIKey=NMRDWTQVHRUPBR-UHFFFAOYSA-N

> <PUBCHEM_SUBSTANCE_SYNONYM>
SCHEMBL16107311

> <PUBCHEM_XREF_EXT_ID>
SCHEMBL16107311

> <PUBCHEM_EXT_DATASOURCE_URL>
https://www.surechembl.org/

> <PUBCHEM_EXT_SUBSTANCE_URL>
https://www.surechembl.org/chemical/SCHEMBL16107311

> <PUBCHEM_CID_ASSOCIATIONS>
81689717  1

> <PUBCHEM_COORDINATE_TYPE>
1
3

$$$$
