310942875
  -OEChem-07211613022D

 57 63  0     1  0  0  0  0  0999 V2000
    3.9941    3.1702    0.0000 F   0  0  0  0  0  0  0  0  0  0  0  0
    2.8172   -3.7587    0.0000 F   0  0  0  0  0  0  0  0  0  0  0  0
    0.6988    2.8172    0.0000 F   0  0  0  0  0  0  0  0  0  0  0  0
    2.3023    0.3604    0.0000 O   0  0  0  0  0  0  0  0  0  0  0  0
   -0.1545   -1.8904    0.0000 O   0  0  0  0  0  0  0  0  0  0  0  0
    5.9065   -1.7138    0.0000 O   0  0  0  0  0  0  0  0  0  0  0  0
   -0.8753   -0.6399    0.0000 O   0  0  0  0  0  0  0  0  0  0  0  0
   -3.7440   -1.4785    0.0000 O   0  0  0  0  0  0  0  0  0  0  0  0
   -6.8333   -0.7429    0.0000 O   0  0  0  0  0  0  0  0  0  0  0  0
   -5.3769   -3.2732    0.0000 O   0  0  0  0  0  0  0  0  0  0  0  0
    3.0231   -0.8753    0.0000 N   0  0  0  0  0  0  0  0  0  0  0  0
    4.4207    0.8606    0.0000 N   0  0  0  0  0  0  0  0  0  0  0  0
    3.0673    0.8606    0.0000 N   0  0  0  0  0  0  0  0  0  0  0  0
    1.5962   -0.8753    0.0000 N   0  0  0  0  0  0  0  0  0  0  0  0
    0.9930   -2.6406    0.0000 N   0  0  0  0  0  0  0  0  0  0  0  0
   -1.5814   -1.8904    0.0000 N   0  0  0  0  0  0  0  0  0  0  0  0
   -5.9065   -1.8904    0.0000 N   0  0  0  0  0  0  0  0  0  0  0  0
    3.7292   -0.4487    0.0000 C   0  0  3  0  0  0  0  0  0  0  0  0
    3.7440    0.3751    0.0000 C   0  0  0  0  0  0  0  0  0  0  0  0
    3.3320    1.6697    0.0000 C   0  0  0  0  0  0  0  0  0  0  0  0
    2.2876   -0.4781    0.0000 C   0  0  0  0  0  0  0  0  0  0  0  0
    4.4648   -0.8753    0.0000 C   0  0  0  0  0  0  0  0  0  0  0  0
    4.1558    1.6403    0.0000 C   0  0  0  0  0  0  0  0  0  0  0  0
    2.8319    2.3317    0.0000 C   0  0  0  0  0  0  0  0  0  0  0  0
    3.0085   -1.9639    0.0000 C   0  0  0  0  0  0  0  0  0  0  0  0
    5.2004    0.6105    0.0000 C   0  0  0  0  0  0  0  0  0  0  0  0
    0.5516   -1.4638    0.0000 C   0  0  0  0  0  0  0  0  0  0  0  0
    2.3023   -2.3611    0.0000 C   0  0  3  0  0  0  0  0  0  0  0  0
    0.7723   -0.6693    0.0000 C   0  0  0  0  0  0  0  0  0  0  0  0
    1.3608   -1.6697    0.0000 C   0  0  0  0  0  0  0  0  0  0  0  0
    3.1702    3.0967    0.0000 C   0  0  0  0  0  0  0  0  0  0  0  0
    4.4648   -1.6991    0.0000 C   0  0  0  0  0  0  0  0  0  0  0  0
    5.1709   -0.4634    0.0000 C   0  0  0  0  0  0  0  0  0  0  0  0
    2.0080    2.2435    0.0000 C   0  0  0  0  0  0  0  0  0  0  0  0
    5.8182    1.1548    0.0000 C   0  0  0  0  0  0  0  0  0  0  0  0
    2.1993   -3.1997    0.0000 C   0  0  3  0  0  0  0  0  0  0  0  0
    1.5226    2.9349    0.0000 C   0  0  0  0  0  0  0  0  0  0  0  0
    2.6848    3.7587    0.0000 C   0  0  0  0  0  0  0  0  0  0  0  0
    1.5667   -2.0522    0.0000 C   0  0  0  0  0  0  0  0  0  0  0  0
    5.8918   -0.8753    0.0000 C   0  0  0  0  0  0  0  0  0  0  0  0
    5.2004   -2.1111    0.0000 C   0  0  0  0  0  0  0  0  0  0  0  0
    1.8610    3.6704    0.0000 C   0  0  0  0  0  0  0  0  0  0  0  0
    1.3902   -3.3468    0.0000 C   0  0  0  0  0  0  0  0  0  0  0  0
    6.5979    0.9048    0.0000 C   0  0  0  0  0  0  0  0  0  0  0  0
    5.6564    1.9492    0.0000 C   0  0  0  0  0  0  0  0  0  0  0  0
   -0.8900   -1.4785    0.0000 C   0  0  0  0  0  0  0  0  0  0  0  0
    7.2158    1.4638    0.0000 C   0  0  0  0  0  0  0  0  0  0  0  0
    6.2595    2.5082    0.0000 C   0  0  0  0  0  0  0  0  0  0  0  0
    7.0540    2.2728    0.0000 C   0  0  0  0  0  0  0  0  0  0  0  0
   -2.3170   -1.4638    0.0000 C   0  0  0  0  0  0  0  0  0  0  0  0
   -6.0389   -2.6848    0.0000 C   0  0  0  0  0  0  0  0  0  0  0  0
   -6.6568   -1.5521    0.0000 C   0  0  0  0  0  0  0  0  0  0  0  0
   -6.8185   -2.8760    0.0000 C   0  0  0  0  0  0  0  0  0  0  0  0
   -7.2158   -2.1846    0.0000 C   0  0  0  0  0  0  0  0  0  0  0  0
   -5.1856   -1.4638    0.0000 C   0  0  0  0  0  0  0  0  0  0  0  0
   -3.0231   -1.8756    0.0000 C   0  0  0  0  0  0  0  0  0  0  0  0
   -4.4648   -1.8756    0.0000 C   0  0  0  0  0  0  0  0  0  0  0  0
  1 31  1  0  0  0  0
 36  2  1  1  0  0  0
  3 37  1  0  0  0  0
  4 21  2  0  0  0  0
  5 27  1  0  0  0  0
  5 46  1  0  0  0  0
  6 40  1  0  0  0  0
  6 41  1  0  0  0  0
  7 46  2  0  0  0  0
  8 56  1  0  0  0  0
  8 57  1  0  0  0  0
  9 52  2  0  0  0  0
 10 51  2  0  0  0  0
 18 11  1  1  0  0  0
 11 21  1  0  0  0  0
 11 25  1  0  0  0  0
 12 19  1  0  0  0  0
 12 23  1  0  0  0  0
 12 26  1  0  0  0  0
 13 19  2  0  0  0  0
 13 20  1  0  0  0  0
 14 21  1  0  0  0  0
 14 29  1  0  0  0  0
 14 30  1  0  0  0  0
 15 39  1  0  0  0  0
 15 43  1  0  0  0  0
 16 46  1  0  0  0  0
 16 50  1  0  0  0  0
 17 51  1  0  0  0  0
 17 52  1  0  0  0  0
 17 55  1  0  0  0  0
 18 19  1  0  0  0  0
 18 22  1  0  0  0  0
 20 23  2  0  0  0  0
 20 24  1  0  0  0  0
 22 32  1  0  0  0  0
 22 33  1  0  0  0  0
 24 31  1  0  0  0  0
 24 34  2  0  0  0  0
 28 25  1  1  0  0  0
 26 35  1  0  0  0  0
 27 29  1  0  0  0  0
 27 30  1  0  0  0  0
 28 36  1  0  0  0  0
 28 39  1  0  0  0  0
 31 38  2  0  0  0  0
 32 41  1  0  0  0  0
 33 40  1  0  0  0  0
 34 37  1  0  0  0  0
 35 44  2  0  0  0  0
 35 45  1  0  0  0  0
 36 43  1  0  0  0  0
 37 42  2  0  0  0  0
 38 42  1  0  0  0  0
 44 47  1  0  0  0  0
 45 48  2  0  0  0  0
 47 49  2  0  0  0  0
 48 49  1  0  0  0  0
 50 56  1  0  0  0  0
 51 53  1  0  0  0  0
 52 54  1  0  0  0  0
 53 54  2  0  0  0  0
 55 57  1  0  0  0  0
M  END
> <PUBCHEM_COMPOUND_ID_TYPE>
0

> <PUBCHEM_TOTAL_CHARGE>
0

> <PUBCHEM_SUBSTANCE_ID>
310942875

> <PUBCHEM_SUBSTANCE_VERSION>
1

> <PUBCHEM_EXT_DATASOURCE_NAME>
4488

> <PUBCHEM_EXT_DATASOURCE_REGID>
SCHEMBL16120933

> <PUBCHEM_SUBSTANCE_COMMENT>
InChI=1S/C40H46F3N7O7/c41-29-6-7-32(42)31(18-29)34-25-47(21-26-4-2-1-3-5-26)38(46-34)37(27-10-14-55-15-11-27)50(22-28-19-44-20-33(28)43)40(54)48-23-30(24-48)57-39(53)45-12-16-56-17-13-49-35(51)8-9-36(49)52/h1-9,18,25,27-28,30,33,37,44H,10-17,19-24H2,(H,45,53)/t28-,33-,37+/m0/s1
InChIKey=IWOJGZQREZYMKY-KMTBUPBDSA-N

> <PUBCHEM_SUBSTANCE_SYNONYM>
SCHEMBL16120933

> <PUBCHEM_XREF_EXT_ID>
SCHEMBL16120933

> <PUBCHEM_EXT_DATASOURCE_URL>
https://www.surechembl.org/

> <PUBCHEM_EXT_SUBSTANCE_URL>
https://www.surechembl.org/chemical/SCHEMBL16120933

> <PUBCHEM_CID_ASSOCIATIONS>
117609362  1

> <PUBCHEM_COORDINATE_TYPE>
1
3

> <PUBCHEM_BONDANNOTATIONS>
18  11  5
36  2  5
28  25  5

$$$$
