310948239
  -OEChem-07211613022D

 48 53  0     0  0  0  0  0  0999 V2000
   -2.5435   -3.1708    0.0000 S   0  0  0  0  0  0  0  0  0  0  0  0
   -0.8593    4.1847    0.0000 F   0  0  0  0  0  0  0  0  0  0  0  0
    0.2406    4.4082    0.0000 F   0  0  0  0  0  0  0  0  0  0  0  0
    0.4468    3.3083    0.0000 F   0  0  0  0  0  0  0  0  0  0  0  0
    0.3437   -3.1536    0.0000 F   0  0  0  0  0  0  0  0  0  0  0  0
    3.3512   -3.1193    0.0000 F   0  0  0  0  0  0  0  0  0  0  0  0
    2.8185   -2.0880    0.0000 F   0  0  0  0  0  0  0  0  0  0  0  0
    2.3029   -3.6004    0.0000 F   0  0  0  0  0  0  0  0  0  0  0  0
    1.6498    1.2460    0.0000 O   0  0  0  0  0  0  0  0  0  0  0  0
   -2.9216   -2.5006    0.0000 O   0  0  0  0  0  0  0  0  0  0  0  0
   -2.1311   -3.8583    0.0000 O   0  0  0  0  0  0  0  0  0  0  0  0
    1.7874   -2.6037    0.0000 O   0  0  0  0  0  0  0  0  0  0  0  0
   -0.3953   -4.4082    0.0000 O   0  0  0  0  0  0  0  0  0  0  0  0
   -1.0999    1.7959    0.0000 N   0  0  0  0  0  0  0  0  0  0  0  0
   -0.4297    2.2943    0.0000 N   0  0  0  0  0  0  0  0  0  0  0  0
    0.4124    1.7959    0.0000 N   0  0  0  0  0  0  0  0  0  0  0  0
   -1.0827    0.9710    0.0000 C   0  0  0  0  0  0  0  0  0  0  0  0
   -0.3609    0.5758    0.0000 C   0  0  0  0  0  0  0  0  0  0  0  0
   -1.7874    2.2943    0.0000 C   0  0  0  0  0  0  0  0  0  0  0  0
    0.3437    0.9882    0.0000 C   0  0  0  0  0  0  0  0  0  0  0  0
   -2.5779    2.0365    0.0000 C   0  0  0  0  0  0  0  0  0  0  0  0
   -0.6703    3.0677    0.0000 C   0  0  0  0  0  0  0  0  0  0  0  0
    1.0999    0.6273    0.0000 C   0  0  0  0  0  0  0  0  0  0  0  0
   -1.0827   -0.6616    0.0000 C   0  0  0  0  0  0  0  0  0  0  0  0
   -1.4951    3.0849    0.0000 C   0  0  0  0  0  0  0  0  0  0  0  0
   -0.3781   -0.2492    0.0000 C   0  0  0  0  0  0  0  0  0  0  0  0
   -1.7874    0.5758    0.0000 C   0  0  0  0  0  0  0  0  0  0  0  0
   -1.0999   -1.5038    0.0000 C   0  0  0  0  0  0  0  0  0  0  0  0
   -0.2063    3.7551    0.0000 C   0  0  0  0  0  0  0  0  0  0  0  0
   -1.7874   -0.2664    0.0000 C   0  0  0  0  0  0  0  0  0  0  0  0
   -3.3512    2.1912    0.0000 C   0  0  0  0  0  0  0  0  0  0  0  0
   -3.0935    1.4522    0.0000 C   0  0  0  0  0  0  0  0  0  0  0  0
    1.2717   -0.1461    0.0000 C   0  0  0  0  0  0  0  0  0  0  0  0
    1.2546    1.9506    0.0000 C   0  0  0  0  0  0  0  0  0  0  0  0
   -1.8045   -2.7412    0.0000 C   0  0  0  0  0  0  0  0  0  0  0  0
   -1.7874   -1.9162    0.0000 C   0  0  0  0  0  0  0  0  0  0  0  0
   -1.0827   -3.1536    0.0000 C   0  0  0  0  0  0  0  0  0  0  0  0
   -0.3781   -1.9162    0.0000 C   0  0  0  0  0  0  0  0  0  0  0  0
   -0.3781   -2.7412    0.0000 C   0  0  0  0  0  0  0  0  0  0  0  0
    0.6703   -0.7132    0.0000 C   0  0  0  0  0  0  0  0  0  0  0  0
    2.0623   -0.4382    0.0000 C   0  0  0  0  0  0  0  0  0  0  0  0
   -1.0827   -3.9786    0.0000 C   0  0  0  0  0  0  0  0  0  0  0  0
    1.5640    2.7412    0.0000 C   0  0  0  0  0  0  0  0  0  0  0  0
    1.6155   -1.7787    0.0000 C   0  0  0  0  0  0  0  0  0  0  0  0
    0.8421   -1.5209    0.0000 C   0  0  0  0  0  0  0  0  0  0  0  0
    2.2341   -1.2288    0.0000 C   0  0  0  0  0  0  0  0  0  0  0  0
   -3.2138   -3.5661    0.0000 C   0  0  0  0  0  0  0  0  0  0  0  0
    2.5779   -2.8615    0.0000 C   0  0  0  0  0  0  0  0  0  0  0  0
  1 10  2  0  0  0  0
  1 11  2  0  0  0  0
  1 35  1  0  0  0  0
  1 47  1  0  0  0  0
  2 29  1  0  0  0  0
  3 29  1  0  0  0  0
  4 29  1  0  0  0  0
  5 39  1  0  0  0  0
  6 48  1  0  0  0  0
  7 48  1  0  0  0  0
  8 48  1  0  0  0  0
  9 23  1  0  0  0  0
  9 34  1  0  0  0  0
 12 44  1  0  0  0  0
 12 48  1  0  0  0  0
 13 42  1  0  0  0  0
 14 15  1  0  0  0  0
 14 17  1  0  0  0  0
 14 19  1  0  0  0  0
 15 22  2  0  0  0  0
 16 20  1  0  0  0  0
 16 34  2  0  0  0  0
 17 18  1  0  0  0  0
 17 27  2  0  0  0  0
 18 20  1  0  0  0  0
 18 26  2  0  0  0  0
 19 21  1  0  0  0  0
 19 25  2  0  0  0  0
 20 23  2  0  0  0  0
 21 31  1  0  0  0  0
 21 32  1  0  0  0  0
 22 25  1  0  0  0  0
 22 29  1  0  0  0  0
 23 33  1  0  0  0  0
 24 26  1  0  0  0  0
 24 28  1  0  0  0  0
 24 30  2  0  0  0  0
 27 30  1  0  0  0  0
 28 36  2  0  0  0  0
 28 38  1  0  0  0  0
 31 32  1  0  0  0  0
 33 40  2  0  0  0  0
 33 41  1  0  0  0  0
 34 43  1  0  0  0  0
 35 36  1  0  0  0  0
 35 37  2  0  0  0  0
 37 39  1  0  0  0  0
 37 42  1  0  0  0  0
 38 39  2  0  0  0  0
 40 45  1  0  0  0  0
 41 46  2  0  0  0  0
 44 45  2  0  0  0  0
 44 46  1  0  0  0  0
M  END
> <PUBCHEM_COMPOUND_ID_TYPE>
0

> <PUBCHEM_TOTAL_CHARGE>
0

> <PUBCHEM_SUBSTANCE_ID>
310948239

> <PUBCHEM_SUBSTANCE_VERSION>
1

> <PUBCHEM_EXT_DATASOURCE_NAME>
4488

> <PUBCHEM_EXT_DATASOURCE_REGID>
SCHEMBL16126416

> <PUBCHEM_SUBSTANCE_COMMENT>
InChI=1S/C32H24F7N3O5S/c1-16-40-29(30(46-16)18-5-8-21(9-6-18)47-32(37,38)39)22-11-19(20-12-24(33)23(15-43)27(13-20)48(2,44)45)7-10-25(22)42-26(17-3-4-17)14-28(41-42)31(34,35)36/h5-14,17,43H,3-4,15H2,1-2H3
InChIKey=NNAFIBDKTKFWSR-UHFFFAOYSA-N

> <PUBCHEM_SUBSTANCE_SYNONYM>
SCHEMBL16126416

> <PUBCHEM_XREF_EXT_ID>
SCHEMBL16126416

> <PUBCHEM_EXT_DATASOURCE_URL>
https://www.surechembl.org/

> <PUBCHEM_EXT_SUBSTANCE_URL>
https://www.surechembl.org/chemical/SCHEMBL16126416

> <PUBCHEM_CID_ASSOCIATIONS>
117613819  1

> <PUBCHEM_COORDINATE_TYPE>
1
3

$$$$
