310939843
  -OEChem-07211613022D

 12 13  0     0  0  0  0  0  0999 V2000
    1.3826    1.5418    0.0000 Br  0  0  0  0  0  0  0  0  0  0  0  0
    1.3826   -0.1152    0.0000 Cl  0  0  0  0  0  0  0  0  0  0  0  0
   -1.0425   -1.0150    0.0000 O   0  0  0  0  0  0  0  0  0  0  0  0
    0.3292   -1.5418    0.0000 O   0  0  0  0  0  0  0  0  0  0  0  0
   -0.2195   -0.9272    0.0000 N   0  3  0  0  0  0  0  0  0  0  0  0
   -1.3826   -0.2579    0.0000 N   0  0  0  0  0  0  0  0  0  0  0  0
   -0.0439   -0.1042    0.0000 C   0  0  0  0  0  0  0  0  0  0  0  0
   -0.7681    0.2909    0.0000 C   0  0  0  0  0  0  0  0  0  0  0  0
    0.6584    0.3127    0.0000 C   0  0  0  0  0  0  0  0  0  0  0  0
    0.6694    1.1247    0.0000 C   0  0  0  0  0  0  0  0  0  0  0  0
   -0.7572    1.1247    0.0000 C   0  0  0  0  0  0  0  0  0  0  0  0
   -0.0658    1.5308    0.0000 C   0  0  0  0  0  0  0  0  0  0  0  0
  1 10  1  0  0  0  0
  2  9  1  0  0  0  0
  3  5  1  0  0  0  0
  3  6  1  0  0  0  0
  4  5  1  0  0  0  0
  5  7  2  0  0  0  0
  6  8  2  0  0  0  0
  7  8  1  0  0  0  0
  7  9  1  0  0  0  0
  8 11  1  0  0  0  0
  9 10  2  0  0  0  0
 10 12  1  0  0  0  0
 11 12  2  0  0  0  0
M  CHG  1   5   1
M  END
> <PUBCHEM_COMPOUND_ID_TYPE>
0

> <PUBCHEM_TOTAL_CHARGE>
1

> <PUBCHEM_SUBSTANCE_ID>
310939843

> <PUBCHEM_SUBSTANCE_VERSION>
1

> <PUBCHEM_EXT_DATASOURCE_NAME>
4488

> <PUBCHEM_EXT_DATASOURCE_REGID>
SCHEMBL16117773

> <PUBCHEM_SUBSTANCE_COMMENT>
InChI=1S/C6H3BrClN2O2/c7-3-1-2-4-6(5(3)8)10(11)12-9-4/h1-2,11H/q+1
InChIKey=JUHDIGFYXFMBGN-UHFFFAOYSA-N

> <PUBCHEM_SUBSTANCE_SYNONYM>
SCHEMBL16117773

> <PUBCHEM_XREF_EXT_ID>
SCHEMBL16117773

> <PUBCHEM_EXT_DATASOURCE_URL>
https://www.surechembl.org/

> <PUBCHEM_EXT_SUBSTANCE_URL>
https://www.surechembl.org/chemical/SCHEMBL16117773

> <PUBCHEM_CID_ASSOCIATIONS>
117607060  1

> <PUBCHEM_COORDINATE_TYPE>
1
3

$$$$
