310945507
  -OEChem-07211613022D

 25 28  0     0  0  0  0  0  0999 V2000
   -2.1475    1.6989    0.0000 O   0  0  0  0  0  0  0  0  0  0  0  0
    0.6913    0.9340    0.0000 N   0  0  0  0  0  0  0  0  0  0  0  0
    2.7359    1.8607    0.0000 N   0  0  0  0  0  0  0  0  0  0  0  0
   -0.7207   -1.5960    0.0000 N   0  0  0  0  0  0  0  0  0  0  0  0
   -2.1622   -2.4343    0.0000 N   0  0  0  0  0  0  0  0  0  0  0  0
    1.3533    1.4341    0.0000 C   0  0  0  0  0  0  0  0  0  0  0  0
    1.1179    2.1991    0.0000 C   0  0  0  0  0  0  0  0  0  0  0  0
    0.0000    1.4488    0.0000 C   0  0  0  0  0  0  0  0  0  0  0  0
    0.2795    2.2432    0.0000 C   0  0  0  0  0  0  0  0  0  0  0  0
    2.1917    1.2429    0.0000 C   0  0  0  0  0  0  0  0  0  0  0  0
   -0.7943    1.2723    0.0000 C   0  0  0  0  0  0  0  0  0  0  0  0
   -0.2648    2.8315    0.0000 C   0  0  0  0  0  0  0  0  0  0  0  0
    1.6769    2.8315    0.0000 C   0  0  0  0  0  0  0  0  0  0  0  0
    0.6766    0.0662    0.0000 C   0  0  0  0  0  0  0  0  0  0  0  0
   -1.3386    1.8901    0.0000 C   0  0  0  0  0  0  0  0  0  0  0  0
   -1.0738    2.6697    0.0000 C   0  0  0  0  0  0  0  0  0  0  0  0
    2.4859    2.6550    0.0000 C   0  0  0  0  0  0  0  0  0  0  0  0
    2.5006    0.3456    0.0000 C   0  0  0  0  0  0  0  0  0  0  0  0
    0.0147   -0.3309    0.0000 C   0  0  0  0  0  0  0  0  0  0  0  0
    0.0000   -1.1694    0.0000 C   0  0  0  0  0  0  0  0  0  0  0  0
   -2.7359    2.3167    0.0000 C   0  0  0  0  0  0  0  0  0  0  0  0
   -0.7207   -2.4196    0.0000 C   0  0  0  0  0  0  0  0  0  0  0  0
   -1.4268   -1.1694    0.0000 C   0  0  0  0  0  0  0  0  0  0  0  0
   -1.4268   -2.8315    0.0000 C   0  0  0  0  0  0  0  0  0  0  0  0
   -2.1328   -1.5812    0.0000 C   0  0  0  0  0  0  0  0  0  0  0  0
  1 15  1  0  0  0  0
  1 21  1  0  0  0  0
  2  6  1  0  0  0  0
  2  8  1  0  0  0  0
  2 14  1  0  0  0  0
  3 10  2  0  0  0  0
  3 17  1  0  0  0  0
  4 20  1  0  0  0  0
  4 22  1  0  0  0  0
  4 23  1  0  0  0  0
  5 24  1  0  0  0  0
  5 25  1  0  0  0  0
  6  7  2  0  0  0  0
  6 10  1  0  0  0  0
  7  9  1  0  0  0  0
  7 13  1  0  0  0  0
  8  9  2  0  0  0  0
  8 11  1  0  0  0  0
  9 12  1  0  0  0  0
 10 18  1  0  0  0  0
 11 15  2  0  0  0  0
 12 16  2  0  0  0  0
 13 17  2  0  0  0  0
 14 19  1  0  0  0  0
 15 16  1  0  0  0  0
 19 20  1  0  0  0  0
 22 24  1  0  0  0  0
 23 25  1  0  0  0  0
M  END
> <PUBCHEM_COMPOUND_ID_TYPE>
0

> <PUBCHEM_TOTAL_CHARGE>
0

> <PUBCHEM_SUBSTANCE_ID>
310945507

> <PUBCHEM_SUBSTANCE_VERSION>
1

> <PUBCHEM_EXT_DATASOURCE_NAME>
4488

> <PUBCHEM_EXT_DATASOURCE_REGID>
SCHEMBL16123605

> <PUBCHEM_SUBSTANCE_COMMENT>
InChI=1S/C20H26N4O/c1-15-20-18(6-7-22-15)17-5-4-16(25-2)14-19(17)24(20)11-3-10-23-12-8-21-9-13-23/h4-7,14,21H,3,8-13H2,1-2H3
InChIKey=BEDVZTSPJGOAHL-UHFFFAOYSA-N

> <PUBCHEM_SUBSTANCE_SYNONYM>
SCHEMBL16123605

> <PUBCHEM_XREF_EXT_ID>
SCHEMBL16123605

> <PUBCHEM_EXT_DATASOURCE_URL>
https://www.surechembl.org/

> <PUBCHEM_EXT_SUBSTANCE_URL>
https://www.surechembl.org/chemical/SCHEMBL16123605

> <PUBCHEM_CID_ASSOCIATIONS>
117611549  1

> <PUBCHEM_COORDINATE_TYPE>
1
3

$$$$
