310944551
  -OEChem-07211613022D

 30 32  0     0  0  0  0  0  0999 V2000
   -3.0512   -0.8593    0.0000 Cl  0  0  0  0  0  0  0  0  0  0  0  0
   -5.0314    2.0549    0.0000 F   0  0  0  0  0  0  0  0  0  0  0  0
   -0.0125   -0.8593    0.0000 O   0  0  0  0  0  0  0  0  0  0  0  0
    1.4197    1.6315    0.0000 O   0  0  0  0  0  0  0  0  0  0  0  0
    5.0314   -0.4359    0.0000 O   0  0  0  0  0  0  0  0  0  0  0  0
    0.0000    0.8095    0.0000 N   0  0  0  0  0  0  0  0  0  0  0  0
    2.1670    0.3986    0.0000 N   0  0  0  0  0  0  0  0  0  0  0  0
    3.6117   -0.4359    0.0000 N   0  0  0  0  0  0  0  0  0  0  0  0
   -2.1545    0.3986    0.0000 C   0  0  0  0  0  0  0  0  0  0  0  0
   -0.7223    0.3986    0.0000 C   0  0  0  0  0  0  0  0  0  0  0  0
   -2.1545   -0.4359    0.0000 C   0  0  0  0  0  0  0  0  0  0  0  0
   -0.7348   -0.4234    0.0000 C   0  0  0  0  0  0  0  0  0  0  0  0
   -2.8894    0.8220    0.0000 C   0  0  0  0  0  0  0  0  0  0  0  0
   -1.4447    0.7970    0.0000 C   0  0  0  0  0  0  0  0  0  0  0  0
   -1.4322   -0.8468    0.0000 C   0  0  0  0  0  0  0  0  0  0  0  0
    1.4322    0.7970    0.0000 C   0  0  0  0  0  0  0  0  0  0  0  0
   -3.5867    0.3986    0.0000 C   0  0  0  0  0  0  0  0  0  0  0  0
   -2.8769    1.6440    0.0000 C   0  0  0  0  0  0  0  0  0  0  0  0
    0.7223    0.3986    0.0000 C   0  0  0  0  0  0  0  0  0  0  0  0
    2.8894    0.8095    0.0000 C   0  0  0  0  0  0  0  0  0  0  0  0
    2.1670   -0.4359    0.0000 C   0  0  0  0  0  0  0  0  0  0  0  0
    3.5992    0.3986    0.0000 C   0  0  0  0  0  0  0  0  0  0  0  0
    2.8894   -0.8468    0.0000 C   0  0  0  0  0  0  0  0  0  0  0  0
   -4.3091    0.8095    0.0000 C   0  0  0  0  0  0  0  0  0  0  0  0
   -3.5992    2.0424    0.0000 C   0  0  0  0  0  0  0  0  0  0  0  0
   -4.3091    1.6440    0.0000 C   0  0  0  0  0  0  0  0  0  0  0  0
    4.3216   -0.8593    0.0000 C   0  0  0  0  0  0  0  0  0  0  0  0
    0.7223   -0.4359    0.0000 C   0  0  0  0  0  0  0  0  0  0  0  0
    4.3216   -1.6813    0.0000 C   0  0  0  0  0  0  0  0  0  0  0  0
    3.5743   -2.0549    0.0000 C   0  0  0  0  0  0  0  0  0  0  0  0
  1 11  1  0  0  0  0
  2 26  1  0  0  0  0
  3 12  1  0  0  0  0
  3 28  1  0  0  0  0
  4 16  2  0  0  0  0
  5 27  2  0  0  0  0
  6 10  1  0  0  0  0
  6 19  1  0  0  0  0
  7 16  1  0  0  0  0
  7 20  1  0  0  0  0
  7 21  1  0  0  0  0
  8 22  1  0  0  0  0
  8 23  1  0  0  0  0
  8 27  1  0  0  0  0
  9 11  2  0  0  0  0
  9 13  1  0  0  0  0
  9 14  1  0  0  0  0
 10 12  1  0  0  0  0
 10 14  2  0  0  0  0
 11 15  1  0  0  0  0
 12 15  2  0  0  0  0
 13 17  2  0  0  0  0
 13 18  1  0  0  0  0
 16 19  1  0  0  0  0
 17 24  1  0  0  0  0
 18 25  2  0  0  0  0
 20 22  1  0  0  0  0
 21 23  1  0  0  0  0
 24 26  2  0  0  0  0
 25 26  1  0  0  0  0
 27 29  1  0  0  0  0
 29 30  2  0  0  0  0
M  END
> <PUBCHEM_COMPOUND_ID_TYPE>
0

> <PUBCHEM_TOTAL_CHARGE>
0

> <PUBCHEM_SUBSTANCE_ID>
310944551

> <PUBCHEM_SUBSTANCE_VERSION>
1

> <PUBCHEM_EXT_DATASOURCE_NAME>
4488

> <PUBCHEM_EXT_DATASOURCE_REGID>
SCHEMBL16122628

> <PUBCHEM_SUBSTANCE_COMMENT>
InChI=1S/C22H23ClFN3O3/c1-3-21(28)26-8-10-27(11-9-26)22(29)14-25-19-12-17(18(23)13-20(19)30-2)15-4-6-16(24)7-5-15/h3-7,12-13,25H,1,8-11,14H2,2H3
InChIKey=BCSMLTYMKSVBKQ-UHFFFAOYSA-N

> <PUBCHEM_SUBSTANCE_SYNONYM>
SCHEMBL16122628

> <PUBCHEM_XREF_EXT_ID>
SCHEMBL16122628

> <PUBCHEM_EXT_DATASOURCE_URL>
https://www.surechembl.org/

> <PUBCHEM_EXT_SUBSTANCE_URL>
https://www.surechembl.org/chemical/SCHEMBL16122628

> <PUBCHEM_CID_ASSOCIATIONS>
117610786  1

> <PUBCHEM_COORDINATE_TYPE>
1
3

$$$$
