310940236
  -OEChem-07211613022D

 18 19  0     0  0  0  0  0  0999 V2000
    1.7649    1.2291    0.0000 O   0  0  0  0  0  0  0  0  0  0  0  0
    2.4583   -0.0315    0.0000 O   0  0  0  0  0  0  0  0  0  0  0  0
    1.0558   -0.0946    0.0000 N   0  0  0  0  0  0  0  0  0  0  0  0
   -2.0013   -2.3480    0.0000 N   0  0  0  0  0  0  0  0  0  0  0  0
   -2.4583   -1.5916    0.0000 N   0  0  0  0  0  0  0  0  0  0  0  0
   -0.3940   -0.9297    0.0000 C   0  0  0  0  0  0  0  0  0  0  0  0
   -1.1188   -1.3237    0.0000 C   0  0  0  0  0  0  0  0  0  0  0  0
    1.7492    0.3782    0.0000 C   0  0  0  0  0  0  0  0  0  0  0  0
    0.2994    0.3467    0.0000 C   0  0  0  0  0  0  0  0  0  0  0  0
    1.0401   -0.9297    0.0000 C   0  0  0  0  0  0  0  0  0  0  0  0
   -0.3625   -0.0946    0.0000 C   0  0  0  0  0  0  0  0  0  0  0  0
    0.2837   -1.3237    0.0000 C   0  0  0  0  0  0  0  0  0  0  0  0
    1.0558    1.6704    0.0000 C   0  0  0  0  0  0  0  0  0  0  0  0
   -1.1976   -2.1904    0.0000 C   0  0  0  0  0  0  0  0  0  0  0  0
   -1.8595   -0.9928    0.0000 C   0  0  0  0  0  0  0  0  0  0  0  0
    1.4182    2.3480    0.0000 C   0  0  0  0  0  0  0  0  0  0  0  0
    0.6619    0.9928    0.0000 C   0  0  0  0  0  0  0  0  0  0  0  0
    0.3309    2.0801    0.0000 C   0  0  0  0  0  0  0  0  0  0  0  0
  1  8  1  0  0  0  0
  1 13  1  0  0  0  0
  2  8  2  0  0  0  0
  3  8  1  0  0  0  0
  3  9  1  0  0  0  0
  3 10  1  0  0  0  0
  4  5  1  0  0  0  0
  4 14  2  0  0  0  0
  5 15  1  0  0  0  0
  6  7  1  0  0  0  0
  6 11  1  0  0  0  0
  6 12  1  0  0  0  0
  7 14  1  0  0  0  0
  7 15  2  0  0  0  0
  9 11  1  0  0  0  0
 10 12  1  0  0  0  0
 13 16  1  0  0  0  0
 13 17  1  0  0  0  0
 13 18  1  0  0  0  0
M  END
> <PUBCHEM_COMPOUND_ID_TYPE>
0

> <PUBCHEM_TOTAL_CHARGE>
0

> <PUBCHEM_SUBSTANCE_ID>
310940236

> <PUBCHEM_SUBSTANCE_VERSION>
1

> <PUBCHEM_EXT_DATASOURCE_NAME>
4488

> <PUBCHEM_EXT_DATASOURCE_REGID>
SCHEMBL16118170

> <PUBCHEM_SUBSTANCE_COMMENT>
InChI=1S/C13H21N3O2/c1-13(2,3)18-12(17)16-6-4-10(5-7-16)11-8-14-15-9-11/h8-10H,4-7H2,1-3H3,(H,14,15)
InChIKey=NSPSFSOMUZBHPB-UHFFFAOYSA-N

> <PUBCHEM_SUBSTANCE_SYNONYM>
SCHEMBL16118170

> <PUBCHEM_XREF_EXT_ID>
SCHEMBL16118170

> <PUBCHEM_EXT_DATASOURCE_URL>
https://www.surechembl.org/

> <PUBCHEM_EXT_SUBSTANCE_URL>
https://www.surechembl.org/chemical/SCHEMBL16118170

> <PUBCHEM_CID_ASSOCIATIONS>
83404840  1

> <PUBCHEM_COORDINATE_TYPE>
1
3

$$$$
