310941474
  -OEChem-07211613022D

 29 31  0     1  0  0  0  0  0999 V2000
    1.8423   -0.5185    0.0000 S   0  0  0  0  0  0  0  0  0  0  0  0
    0.9761   -0.5185    0.0000 O   0  0  0  0  0  0  0  0  0  0  0  0
    2.6720   -0.5430    0.0000 O   0  0  0  0  0  0  0  0  0  0  0  0
    2.5744    3.0929    0.0000 O   0  0  0  0  0  0  0  0  0  0  0  0
    1.8545    1.9338    0.0000 O   0  0  0  0  0  0  0  0  0  0  0  0
    0.4514    1.9338    0.0000 N   0  0  0  0  0  0  0  0  0  0  0  0
   -0.2562    1.5312    0.0000 C   0  0  0  0  0  0  0  0  0  0  0  0
    1.8179   -1.5068    0.0000 C   0  0  0  0  0  0  0  0  0  0  0  0
   -1.1591    1.9216    0.0000 C   0  0  0  0  0  0  0  0  0  0  0  0
   -0.2684    0.7015    0.0000 C   0  0  0  0  0  0  0  0  0  0  0  0
    1.1591    1.5312    0.0000 C   0  0  3  0  0  0  0  0  0  0  0  0
    1.8545    0.3111    0.0000 C   0  0  0  0  0  0  0  0  0  0  0  0
    1.1591    0.7015    0.0000 C   0  0  0  0  0  0  0  0  0  0  0  0
    1.8667    2.7391    0.0000 C   0  0  0  0  0  0  0  0  0  0  0  0
    1.1347   -1.8973    0.0000 C   0  0  0  0  0  0  0  0  0  0  0  0
    2.5012   -1.8973    0.0000 C   0  0  0  0  0  0  0  0  0  0  0  0
   -0.9761    0.2867    0.0000 C   0  0  0  0  0  0  0  0  0  0  0  0
   -1.2445    2.7269    0.0000 C   0  0  0  0  0  0  0  0  0  0  0  0
    0.4514    0.2867    0.0000 C   0  0  0  0  0  0  0  0  0  0  0  0
   -1.8057    1.4336    0.0000 C   0  0  0  0  0  0  0  0  0  0  0  0
    1.1103   -2.6903    0.0000 C   0  0  0  0  0  0  0  0  0  0  0  0
    2.4768   -2.7025    0.0000 C   0  0  0  0  0  0  0  0  0  0  0  0
   -0.9761   -0.5552    0.0000 C   0  0  0  0  0  0  0  0  0  0  0  0
   -2.0009    3.0563    0.0000 C   0  0  0  0  0  0  0  0  0  0  0  0
    0.4514   -0.5552    0.0000 C   0  0  0  0  0  0  0  0  0  0  0  0
   -2.5744    1.7630    0.0000 C   0  0  0  0  0  0  0  0  0  0  0  0
    1.7935   -3.0929    0.0000 C   0  0  0  0  0  0  0  0  0  0  0  0
   -0.2684   -0.9821    0.0000 C   0  0  0  0  0  0  0  0  0  0  0  0
   -2.6720    2.5683    0.0000 C   0  0  0  0  0  0  0  0  0  0  0  0
  1  2  2  0  0  0  0
  1  3  2  0  0  0  0
  1  8  1  0  0  0  0
  1 12  1  0  0  0  0
  4 14  2  0  0  0  0
  5 14  1  0  0  0  0
  6  7  2  0  0  0  0
 11  6  1  6  0  0  0
  7  9  1  0  0  0  0
  7 10  1  0  0  0  0
  8 15  2  0  0  0  0
  8 16  1  0  0  0  0
  9 18  2  0  0  0  0
  9 20  1  0  0  0  0
 10 17  2  0  0  0  0
 10 19  1  0  0  0  0
 11 13  1  0  0  0  0
 11 14  1  0  0  0  0
 12 13  1  0  0  0  0
 15 21  1  0  0  0  0
 16 22  2  0  0  0  0
 17 23  1  0  0  0  0
 18 24  1  0  0  0  0
 19 25  2  0  0  0  0
 20 26  2  0  0  0  0
 21 27  2  0  0  0  0
 22 27  1  0  0  0  0
 23 28  2  0  0  0  0
 24 29  2  0  0  0  0
 25 28  1  0  0  0  0
 26 29  1  0  0  0  0
M  END
> <PUBCHEM_COMPOUND_ID_TYPE>
0

> <PUBCHEM_TOTAL_CHARGE>
0

> <PUBCHEM_SUBSTANCE_ID>
310941474

> <PUBCHEM_SUBSTANCE_VERSION>
1

> <PUBCHEM_EXT_DATASOURCE_NAME>
4488

> <PUBCHEM_EXT_DATASOURCE_REGID>
SCHEMBL16119505

> <PUBCHEM_SUBSTANCE_COMMENT>
InChI=1S/C23H21NO4S/c25-23(26)21(16-17-29(27,28)20-14-8-3-9-15-20)24-22(18-10-4-1-5-11-18)19-12-6-2-7-13-19/h1-15,21H,16-17H2,(H,25,26)/t21-/m0/s1
InChIKey=NLHDVMFBTHXECW-NRFANRHFSA-N

> <PUBCHEM_SUBSTANCE_SYNONYM>
SCHEMBL16119505

> <PUBCHEM_XREF_EXT_ID>
SCHEMBL16119505

> <PUBCHEM_EXT_DATASOURCE_URL>
https://www.surechembl.org/

> <PUBCHEM_EXT_SUBSTANCE_URL>
https://www.surechembl.org/chemical/SCHEMBL16119505

> <PUBCHEM_CID_ASSOCIATIONS>
117608296  1

> <PUBCHEM_COORDINATE_TYPE>
1
3

> <PUBCHEM_BONDANNOTATIONS>
11  6  6

$$$$
