310937037
  -OEChem-07211613022D

 22 24  0     0  0  0  0  0  0999 V2000
    0.0000   -0.9801    0.0000 F   0  0  0  0  0  0  0  0  0  0  0  0
    5.0859   -2.2251    0.0000 O   0  0  0  0  0  0  0  0  0  0  0  0
    0.9536   -2.9403    0.0000 O   0  0  0  0  0  0  0  0  0  0  0  0
    3.8144   -1.8278    0.0000 N   0  0  0  0  0  0  0  0  0  0  0  0
    3.2316   -3.9204    0.0000 N   0  0  0  0  0  0  0  0  0  0  0  0
    4.6090   -2.9138    0.0000 N   0  0  0  0  0  0  0  0  0  0  0  0
    3.8144   -2.6489    0.0000 C   0  0  0  0  0  0  0  0  0  0  0  0
    3.1522   -3.1257    0.0000 C   0  0  0  0  0  0  0  0  0  0  0  0
    1.8278   -4.0793    0.0000 C   0  0  0  0  0  0  0  0  0  0  0  0
    1.7218   -3.2846    0.0000 C   0  0  0  0  0  0  0  0  0  0  0  0
    4.6090   -1.5628    0.0000 C   0  0  0  0  0  0  0  0  0  0  0  0
    1.1390   -4.5561    0.0000 C   0  0  0  0  0  0  0  0  0  0  0  0
    2.3840   -2.7548    0.0000 C   0  0  0  0  0  0  0  0  0  0  0  0
    4.8475   -0.7682    0.0000 C   0  0  0  0  0  0  0  0  0  0  0  0
    2.5694   -4.4236    0.0000 C   0  0  0  0  0  0  0  0  0  0  0  0
    0.7947   -5.2978    0.0000 C   0  0  0  0  0  0  0  0  0  0  0  0
    0.3178   -4.6355    0.0000 C   0  0  0  0  0  0  0  0  0  0  0  0
    5.6421   -1.0331    0.0000 C   0  0  0  0  0  0  0  0  0  0  0  0
    5.1124    0.0000    0.0000 C   0  0  0  0  0  0  0  0  0  0  0  0
    4.0793   -0.5298    0.0000 C   0  0  0  0  0  0  0  0  0  0  0  0
    0.8741   -2.1456    0.0000 C   0  0  0  0  0  0  0  0  0  0  0  0
    0.1059   -1.8013    0.0000 C   0  0  0  0  0  0  0  0  0  0  0  0
  1 22  1  0  0  0  0
  2  6  1  0  0  0  0
  2 11  1  0  0  0  0
  3 10  1  0  0  0  0
  3 21  1  0  0  0  0
  4  7  1  0  0  0  0
  4 11  2  0  0  0  0
  5  8  1  0  0  0  0
  5 15  2  0  0  0  0
  6  7  2  0  0  0  0
  7  8  1  0  0  0  0
  8 13  2  0  0  0  0
  9 10  2  0  0  0  0
  9 12  1  0  0  0  0
  9 15  1  0  0  0  0
 10 13  1  0  0  0  0
 11 14  1  0  0  0  0
 12 16  1  0  0  0  0
 12 17  1  0  0  0  0
 14 18  1  0  0  0  0
 14 19  1  0  0  0  0
 14 20  1  0  0  0  0
 16 17  1  0  0  0  0
 21 22  1  0  0  0  0
M  END
> <PUBCHEM_COMPOUND_ID_TYPE>
0

> <PUBCHEM_TOTAL_CHARGE>
0

> <PUBCHEM_SUBSTANCE_ID>
310937037

> <PUBCHEM_SUBSTANCE_VERSION>
1

> <PUBCHEM_EXT_DATASOURCE_NAME>
4488

> <PUBCHEM_EXT_DATASOURCE_REGID>
SCHEMBL16114747

> <PUBCHEM_SUBSTANCE_COMMENT>
InChI=1S/C16H20FN3O2/c1-16(2,3)15-19-14(20-22-15)12-8-13(21-7-6-17)11(9-18-12)10-4-5-10/h8-10H,4-7H2,1-3H3
InChIKey=GEYUYVULXXGHJA-UHFFFAOYSA-N

> <PUBCHEM_SUBSTANCE_SYNONYM>
SCHEMBL16114747

> <PUBCHEM_XREF_EXT_ID>
SCHEMBL16114747

> <PUBCHEM_EXT_DATASOURCE_URL>
https://www.surechembl.org/

> <PUBCHEM_EXT_SUBSTANCE_URL>
https://www.surechembl.org/chemical/SCHEMBL16114747

> <PUBCHEM_CID_ASSOCIATIONS>
117604886  1

> <PUBCHEM_COORDINATE_TYPE>
1
3

$$$$
