310946099
  -OEChem-07211613022D

 16 15  0     0  0  0  0  0  0999 V2000
   -2.8579   -8.3130    0.0000 O   0  0  0  0  0  0  0  0  0  0  0  0
   -0.7145   -7.9005    0.0000 O   0  0  0  0  0  0  0  0  0  0  0  0
    1.4289   -8.3130    0.0000 O   0  0  0  0  0  0  0  0  0  0  0  0
   -3.5724   -7.0755    0.0000 O   0  0  0  0  0  0  0  0  0  0  0  0
    5.0013   -7.0755    0.0000 O   0  0  0  0  0  0  0  0  0  0  0  0
    3.5724   -7.9005    0.0000 N   0  0  0  0  0  0  0  0  0  0  0  0
   -3.5724   -7.9005    0.0000 C   0  0  0  0  0  0  0  0  0  0  0  0
   -2.1434   -7.9005    0.0000 C   0  0  0  0  0  0  0  0  0  0  0  0
   -1.4289   -8.3130    0.0000 C   0  0  0  0  0  0  0  0  0  0  0  0
    0.0000   -8.3130    0.0000 C   0  0  0  0  0  0  0  0  0  0  0  0
    0.7145   -7.9005    0.0000 C   0  0  0  0  0  0  0  0  0  0  0  0
   -4.2868   -8.3130    0.0000 C   0  0  0  0  0  0  0  0  0  0  0  0
    2.1434   -7.9005    0.0000 C   0  0  0  0  0  0  0  0  0  0  0  0
    2.8579   -8.3130    0.0000 C   0  0  0  0  0  0  0  0  0  0  0  0
   -5.0013   -7.9005    0.0000 C   0  0  0  0  0  0  0  0  0  0  0  0
    4.2868   -7.4880    0.0000 C   0  0  0  0  0  0  0  0  0  0  0  0
  1  7  1  0  0  0  0
  1  8  1  0  0  0  0
  2  9  1  0  0  0  0
  2 10  1  0  0  0  0
  3 11  1  0  0  0  0
  3 13  1  0  0  0  0
  4  7  2  0  0  0  0
  5 16  2  0  0  0  0
  6 14  1  0  0  0  0
  6 16  2  0  0  0  0
  7 12  1  0  0  0  0
  8  9  1  0  0  0  0
 10 11  1  0  0  0  0
 12 15  2  0  0  0  0
 13 14  1  0  0  0  0
M  END
> <PUBCHEM_COMPOUND_ID_TYPE>
0

> <PUBCHEM_TOTAL_CHARGE>
0

> <PUBCHEM_SUBSTANCE_ID>
310946099

> <PUBCHEM_SUBSTANCE_VERSION>
1

> <PUBCHEM_EXT_DATASOURCE_NAME>
4488

> <PUBCHEM_EXT_DATASOURCE_REGID>
SCHEMBL16124207

> <PUBCHEM_SUBSTANCE_COMMENT>
InChI=1S/C10H15NO5/c1-2-10(13)16-8-7-15-6-5-14-4-3-11-9-12/h2H,1,3-8H2
InChIKey=LXVIHOKQDPJACM-UHFFFAOYSA-N

> <PUBCHEM_SUBSTANCE_SYNONYM>
SCHEMBL16124207

> <PUBCHEM_XREF_EXT_ID>
SCHEMBL16124207

> <PUBCHEM_EXT_DATASOURCE_URL>
https://www.surechembl.org/

> <PUBCHEM_EXT_SUBSTANCE_URL>
https://www.surechembl.org/chemical/SCHEMBL16124207

> <PUBCHEM_CID_ASSOCIATIONS>
117612062  1

> <PUBCHEM_COORDINATE_TYPE>
1
3

$$$$
