310944731
  -OEChem-07211613022D

 27 29  0     0  0  0  0  0  0999 V2000
   -4.3258    1.4606    0.0000 Cl  0  0  0  0  0  0  0  0  0  0  0  0
   -4.3258   -0.1927    0.0000 Cl  0  0  0  0  0  0  0  0  0  0  0  0
    0.1368    2.2934    0.0000 O   0  0  0  0  0  0  0  0  0  0  0  0
    4.3258   -1.5725    0.0000 O   0  0  0  0  0  0  0  0  0  0  0  0
   -1.2928   -0.1927    0.0000 O   0  0  0  0  0  0  0  0  0  0  0  0
    3.1076   -0.8515    0.0000 N   0  0  0  0  0  0  0  0  0  0  0  0
    0.8702    1.0504    0.0000 N   0  0  0  0  0  0  0  0  0  0  0  0
   -1.2804    1.4730    0.0000 N   0  0  0  0  0  0  0  0  0  0  0  0
    2.3121    0.2300    0.0000 C   0  0  0  0  0  0  0  0  0  0  0  0
    2.3121   -0.6029    0.0000 C   0  0  0  0  0  0  0  0  0  0  0  0
    3.0952    0.4785    0.0000 C   0  0  0  0  0  0  0  0  0  0  0  0
    1.6036   -0.1802    0.0000 C   0  0  0  0  0  0  0  0  0  0  0  0
    2.3121    1.0504    0.0000 C   0  0  0  0  0  0  0  0  0  0  0  0
    3.5924   -0.1802    0.0000 C   0  0  0  0  0  0  0  0  0  0  0  0
    0.8826    0.2175    0.0000 C   0  0  0  0  0  0  0  0  0  0  0  0
    1.6036    1.4730    0.0000 C   0  0  0  0  0  0  0  0  0  0  0  0
    0.1368    1.4606    0.0000 C   0  0  0  0  0  0  0  0  0  0  0  0
    3.4930   -1.5600    0.0000 C   0  0  0  0  0  0  0  0  0  0  0  0
   -2.0013    1.0628    0.0000 C   0  0  0  0  0  0  0  0  0  0  0  0
   -2.0138    0.2300    0.0000 C   0  0  0  0  0  0  0  0  0  0  0  0
   -3.4308    1.0628    0.0000 C   0  0  0  0  0  0  0  0  0  0  0  0
   -3.4432    0.2300    0.0000 C   0  0  0  0  0  0  0  0  0  0  0  0
   -2.7098    1.4606    0.0000 C   0  0  0  0  0  0  0  0  0  0  0  0
   -0.5594    1.0628    0.0000 C   0  0  0  0  0  0  0  0  0  0  0  0
   -2.7098   -0.1802    0.0000 C   0  0  0  0  0  0  0  0  0  0  0  0
    3.0952   -2.2934    0.0000 C   0  0  0  0  0  0  0  0  0  0  0  0
    2.2748   -2.2437    0.0000 C   0  0  0  0  0  0  0  0  0  0  0  0
  1 21  1  0  0  0  0
  2 22  1  0  0  0  0
  3 17  2  0  0  0  0
  4 18  2  0  0  0  0
  5 20  1  0  0  0  0
  6 10  1  0  0  0  0
  6 14  1  0  0  0  0
  6 18  1  0  0  0  0
  7 15  1  0  0  0  0
  7 16  1  0  0  0  0
  7 17  1  0  0  0  0
  8 19  1  0  0  0  0
  8 24  1  0  0  0  0
  9 10  1  0  0  0  0
  9 11  1  0  0  0  0
  9 12  1  0  0  0  0
  9 13  1  0  0  0  0
 11 14  1  0  0  0  0
 12 15  1  0  0  0  0
 13 16  1  0  0  0  0
 17 24  1  0  0  0  0
 18 26  1  0  0  0  0
 19 20  1  0  0  0  0
 19 23  2  0  0  0  0
 20 25  2  0  0  0  0
 21 22  2  0  0  0  0
 21 23  1  0  0  0  0
 22 25  1  0  0  0  0
 26 27  2  0  0  0  0
M  END
> <PUBCHEM_COMPOUND_ID_TYPE>
0

> <PUBCHEM_TOTAL_CHARGE>
0

> <PUBCHEM_SUBSTANCE_ID>
310944731

> <PUBCHEM_SUBSTANCE_VERSION>
1

> <PUBCHEM_EXT_DATASOURCE_NAME>
4488

> <PUBCHEM_EXT_DATASOURCE_REGID>
SCHEMBL16122810

> <PUBCHEM_SUBSTANCE_COMMENT>
InChI=1S/C19H23Cl2N3O3/c1-2-17(26)24-8-5-19(12-24)3-6-23(7-4-19)18(27)11-22-15-9-13(20)14(21)10-16(15)25/h2,9-10,22,25H,1,3-8,11-12H2
InChIKey=BPYGCOJIEGLONC-UHFFFAOYSA-N

> <PUBCHEM_SUBSTANCE_SYNONYM>
SCHEMBL16122810

> <PUBCHEM_XREF_EXT_ID>
SCHEMBL16122810

> <PUBCHEM_EXT_DATASOURCE_URL>
https://www.surechembl.org/

> <PUBCHEM_EXT_SUBSTANCE_URL>
https://www.surechembl.org/chemical/SCHEMBL16122810

> <PUBCHEM_CID_ASSOCIATIONS>
117610949  1

> <PUBCHEM_COORDINATE_TYPE>
1
3

$$$$
