310929622
  -OEChem-07211613022D

 60 67  0     1  0  0  0  0  0999 V2000
    4.7020   -0.9288    0.0000 S   0  0  0  0  0  0  0  0  0  0  0  0
    4.3537   -2.5542    0.0000 O   0  0  0  0  0  0  0  0  0  0  0  0
    4.9342   -1.7415    0.0000 O   0  0  0  0  0  0  0  0  0  0  0  0
    4.4697   -0.1161    0.0000 O   0  0  0  0  0  0  0  0  0  0  0  0
    4.2956   -3.1927    0.0000 O   0  0  0  0  0  0  0  0  0  0  0  0
    5.3986   -5.5147    0.0000 O   0  0  0  0  0  0  0  0  0  0  0  0
    1.4512   -4.0054    0.0000 O   0  0  0  0  0  0  0  0  0  0  0  0
    6.4434   -8.4171    0.0000 O   0  0  0  0  0  0  0  0  0  0  0  0
    0.9288   -7.6044    0.0000 O   0  0  0  0  0  0  0  0  0  0  0  0
    0.0000   -6.7337    0.0000 O   0  0  0  0  0  0  0  0  0  0  0  0
    2.8444   -3.0186    0.0000 N   0  0  0  0  0  0  0  0  0  0  0  0
    3.9473   -1.1610    0.0000 N   0  0  0  0  0  0  0  0  0  0  0  0
    2.6703   -4.2956    0.0000 N   0  0  0  0  0  0  0  0  0  0  0  0
    6.3854   -5.9210    0.0000 N   0  0  0  0  0  0  0  0  0  0  0  0
    0.9288   -5.9210    0.0000 N   0  0  0  0  0  0  0  0  0  0  0  0
    7.1981  -10.7971    0.0000 N   0  0  0  0  0  0  0  0  0  0  0  0
    2.9605   -2.2059    0.0000 C   0  0  3  0  0  0  0  0  0  0  0  0
    2.2059   -1.7995    0.0000 C   0  0  3  0  0  0  0  0  0  0  0  0
    2.9025   -1.3932    0.0000 C   0  0  0  0  0  0  0  0  0  0  0  0
    3.7152   -1.9736    0.0000 C   0  0  0  0  0  0  0  0  0  0  0  0
    5.5147   -0.6966    0.0000 C   0  0  0  0  0  0  0  0  0  0  0  0
    3.5410   -3.4829    0.0000 C   0  0  0  0  0  0  0  0  0  0  0  0
    1.3932   -1.8576    0.0000 C   0  0  0  0  0  0  0  0  0  0  0  0
    6.0371   -0.1161    0.0000 C   0  0  0  0  0  0  0  0  0  0  0  0
    6.3273   -0.8708    0.0000 C   0  0  0  0  0  0  0  0  0  0  0  0
    3.4249   -4.2956    0.0000 C   0  0  3  0  0  0  0  0  0  0  0  0
    5.0503    0.0000    0.0000 C   0  0  0  0  0  0  0  0  0  0  0  0
    4.2376   -4.5278    0.0000 C   0  0  0  0  0  0  0  0  0  0  0  0
    4.9342   -4.8761    0.0000 C   0  0  3  0  0  0  0  0  0  0  0  0
    1.9156   -4.7020    0.0000 C   0  0  0  0  0  0  0  0  0  0  0  0
    3.9473   -3.9473    0.0000 C   0  0  0  0  0  0  0  0  0  0  0  0
    1.2771   -5.2824    0.0000 C   0  0  3  0  0  0  0  0  0  0  0  0
    1.0449   -2.5542    0.0000 C   0  0  0  0  0  0  0  0  0  0  0  0
    5.6888   -6.3854    0.0000 C   0  0  0  0  0  0  0  0  0  0  0  0
    5.6888   -7.1400    0.0000 C   0  0  0  0  0  0  0  0  0  0  0  0
    6.3854   -7.6044    0.0000 C   0  0  0  0  0  0  0  0  0  0  0  0
    0.6385   -4.7600    0.0000 C   0  0  0  0  0  0  0  0  0  0  0  0
    7.0820   -7.1400    0.0000 C   0  0  0  0  0  0  0  0  0  0  0  0
    7.0820   -6.3854    0.0000 C   0  0  0  0  0  0  0  0  0  0  0  0
    5.3986   -7.9527    0.0000 C   0  0  0  0  0  0  0  0  0  0  0  0
    0.8127   -6.7337    0.0000 C   0  0  0  0  0  0  0  0  0  0  0  0
    7.7786   -7.6044    0.0000 C   0  0  0  0  0  0  0  0  0  0  0  0
    7.7786   -5.9210    0.0000 C   0  0  0  0  0  0  0  0  0  0  0  0
    1.2771   -8.2430    0.0000 C   0  0  3  0  0  0  0  0  0  0  0  0
    1.9156   -8.8234    0.0000 C   0  0  3  0  0  0  0  0  0  0  0  0
    1.1610   -4.1215    0.0000 C   0  0  0  0  0  0  0  0  0  0  0  0
    0.0000   -4.2376    0.0000 C   0  0  0  0  0  0  0  0  0  0  0  0
    0.1161   -5.3405    0.0000 C   0  0  0  0  0  0  0  0  0  0  0  0
    1.1029   -9.0557    0.0000 C   0  0  0  0  0  0  0  0  0  0  0  0
    8.5332   -7.1400    0.0000 C   0  0  0  0  0  0  0  0  0  0  0  0
    8.5332   -6.3854    0.0000 C   0  0  0  0  0  0  0  0  0  0  0  0
    7.1400   -8.8234    0.0000 C   0  0  0  0  0  0  0  0  0  0  0  0
    4.9342   -8.5913    0.0000 C   0  0  0  0  0  0  0  0  0  0  0  0
    7.1981   -9.6361    0.0000 C   0  0  0  0  0  0  0  0  0  0  0  0
    2.6703   -9.1717    0.0000 C   0  0  0  0  0  0  0  0  0  0  0  0
    4.2376   -8.9976    0.0000 C   0  0  0  0  0  0  0  0  0  0  0  0
    3.4249   -9.1717    0.0000 C   0  0  0  0  0  0  0  0  0  0  0  0
    6.6176  -10.2166    0.0000 C   0  0  0  0  0  0  0  0  0  0  0  0
    7.7786  -10.2166    0.0000 C   0  0  0  0  0  0  0  0  0  0  0  0
    7.1981  -11.6098    0.0000 C   0  0  0  0  0  0  0  0  0  0  0  0
  1  3  2  0  0  0  0
  1  4  2  0  0  0  0
  1 12  1  0  0  0  0
  1 21  1  0  0  0  0
  2 20  2  0  0  0  0
  5 22  2  0  0  0  0
  6 29  1  0  0  0  0
  6 34  1  0  0  0  0
  7 30  2  0  0  0  0
  8 36  1  0  0  0  0
  8 52  1  0  0  0  0
  9 41  1  0  0  0  0
  9 44  1  0  0  0  0
 10 41  2  0  0  0  0
 17 11  1  1  0  0  0
 11 22  1  0  0  0  0
 12 20  1  0  0  0  0
 13 26  1  0  0  0  0
 13 30  1  0  0  0  0
 13 31  1  0  0  0  0
 14 34  1  0  0  0  0
 14 39  2  0  0  0  0
 15 32  1  0  0  0  0
 15 41  1  0  0  0  0
 16 58  1  0  0  0  0
 16 59  1  0  0  0  0
 16 60  1  0  0  0  0
 17 18  1  0  0  0  0
 17 19  1  0  0  0  0
 17 20  1  6  0  0  0
 18 19  1  0  0  0  0
 18 23  1  6  0  0  0
 21 24  1  0  0  0  0
 21 25  1  0  0  0  0
 21 27  1  0  0  0  0
 26 22  1  6  0  0  0
 23 33  2  0  0  0  0
 24 25  1  0  0  0  0
 26 28  1  0  0  0  0
 29 28  1  1  0  0  0
 29 31  1  0  0  0  0
 30 32  1  0  0  0  0
 32 37  1  1  0  0  0
 34 35  2  0  0  0  0
 35 36  1  0  0  0  0
 35 40  1  0  0  0  0
 36 38  2  0  0  0  0
 37 46  1  0  0  0  0
 37 47  1  0  0  0  0
 37 48  1  0  0  0  0
 38 39  1  0  0  0  0
 38 42  1  0  0  0  0
 39 43  1  0  0  0  0
 40 53  1  0  0  0  0
 42 50  2  0  0  0  0
 43 51  2  0  0  0  0
 44 45  1  0  0  0  0
 44 49  1  1  0  0  0
 45 49  1  6  0  0  0
 45 55  1  0  0  0  0
 50 51  1  0  0  0  0
 52 54  1  0  0  0  0
 53 56  1  0  0  0  0
 54 58  1  0  0  0  0
 54 59  1  0  0  0  0
 55 57  1  0  0  0  0
 56 57  1  0  0  0  0
M  END
> <PUBCHEM_COMPOUND_ID_TYPE>
0

> <PUBCHEM_TOTAL_CHARGE>
0

> <PUBCHEM_SUBSTANCE_ID>
310929622

> <PUBCHEM_SUBSTANCE_VERSION>
1

> <PUBCHEM_EXT_DATASOURCE_NAME>
4488

> <PUBCHEM_EXT_DATASOURCE_REGID>
SCHEMBL16106810

> <PUBCHEM_SUBSTANCE_COMMENT>
InChI=1S/C44H60N6O9S/c1-7-28-21-44(28,40(53)48-60(55,56)43(5)17-18-43)47-37(51)33-20-29-24-50(33)39(52)36(42(2,3)4)46-41(54)59-34-19-27(34)13-9-8-10-15-31-35(57-25-26-22-49(6)23-26)30-14-11-12-16-32(30)45-38(31)58-29/h7,11-12,14,16,26-29,33-34,36H,1,8-10,13,15,17-25H2,2-6H3,(H,46,54)(H,47,51)(H,48,53)/t27-,28-,29-,33+,34-,36-,44-/m1/s1
InChIKey=LJZJWTLEJUZHMK-BCXBCBKYSA-N

> <PUBCHEM_SUBSTANCE_SYNONYM>
SCHEMBL16106810

> <PUBCHEM_XREF_EXT_ID>
SCHEMBL16106810

> <PUBCHEM_EXT_DATASOURCE_URL>
https://www.surechembl.org/

> <PUBCHEM_EXT_SUBSTANCE_URL>
https://www.surechembl.org/chemical/SCHEMBL16106810

> <PUBCHEM_CID_ASSOCIATIONS>
117598928  1

> <PUBCHEM_COORDINATE_TYPE>
1
3

> <PUBCHEM_BONDANNOTATIONS>
17  11  5
17  20  6
18  23  6
26  22  6
29  28  5
32  37  5
44  49  5
45  49  6

$$$$
