310944859
  -OEChem-07211613022D

 20 21  0     0  0  0  0  0  0999 V2000
    1.3479   -3.2177    0.0000 Br  0  0  0  0  0  0  0  0  0  0  0  0
   -0.3044   -0.3479    0.0000 O   0  0  0  0  0  0  0  0  0  0  0  0
    0.7609    3.0438    0.0000 O   0  0  0  0  0  0  0  0  0  0  0  0
   -1.6088    0.3261    0.0000 N   0  0  0  0  0  0  0  0  0  0  0  0
   -1.6088   -1.0218    0.0000 N   0  0  0  0  0  0  0  0  0  0  0  0
    0.1087   -1.0436    0.0000 C   0  0  0  0  0  0  0  0  0  0  0  0
   -0.5435    1.3044    0.0000 C   0  0  0  0  0  0  0  0  0  0  0  0
   -1.1305   -0.3261    0.0000 C   0  0  0  0  0  0  0  0  0  0  0  0
    0.5218    2.2611    0.0000 C   0  0  0  0  0  0  0  0  0  0  0  0
   -0.2609    2.0872    0.0000 C   0  0  0  0  0  0  0  0  0  0  0  0
   -0.2826   -1.7611    0.0000 C   0  0  0  0  0  0  0  0  0  0  0  0
    0.9566   -1.0653    0.0000 C   0  0  0  0  0  0  0  0  0  0  0  0
   -1.3262    1.1305    0.0000 C   0  0  0  0  0  0  0  0  0  0  0  0
    0.9566   -2.4785    0.0000 C   0  0  0  0  0  0  0  0  0  0  0  0
    0.0217    0.6957    0.0000 C   0  0  0  0  0  0  0  0  0  0  0  0
    0.1304   -2.4785    0.0000 C   0  0  0  0  0  0  0  0  0  0  0  0
    1.3479   -1.7393    0.0000 C   0  0  0  0  0  0  0  0  0  0  0  0
    1.0653    1.6523    0.0000 C   0  0  0  0  0  0  0  0  0  0  0  0
    0.8044    0.8696    0.0000 C   0  0  0  0  0  0  0  0  0  0  0  0
    1.6088    3.2177    0.0000 C   0  0  0  0  0  0  0  0  0  0  0  0
  1 14  1  0  0  0  0
  2  6  1  0  0  0  0
  2  8  1  0  0  0  0
  3  9  1  0  0  0  0
  3 20  1  0  0  0  0
  4  8  1  0  0  0  0
  4 13  1  0  0  0  0
  5  8  2  3  0  0  0
  6 11  2  0  0  0  0
  6 12  1  0  0  0  0
  7 10  1  0  0  0  0
  7 13  1  0  0  0  0
  7 15  2  0  0  0  0
  9 10  2  0  0  0  0
  9 18  1  0  0  0  0
 11 16  1  0  0  0  0
 12 17  2  0  0  0  0
 14 16  2  0  0  0  0
 14 17  1  0  0  0  0
 15 19  1  0  0  0  0
 18 19  2  0  0  0  0
M  END
> <PUBCHEM_COMPOUND_ID_TYPE>
0

> <PUBCHEM_TOTAL_CHARGE>
0

> <PUBCHEM_SUBSTANCE_ID>
310944859

> <PUBCHEM_SUBSTANCE_VERSION>
1

> <PUBCHEM_EXT_DATASOURCE_NAME>
4488

> <PUBCHEM_EXT_DATASOURCE_REGID>
SCHEMBL16122941

> <PUBCHEM_SUBSTANCE_COMMENT>
InChI=1S/C15H15BrN2O2/c1-19-14-4-2-3-11(9-14)10-18-15(17)20-13-7-5-12(16)6-8-13/h2-9H,10H2,1H3,(H2,17,18)
InChIKey=QVMUBOFDXQZMOF-UHFFFAOYSA-N

> <PUBCHEM_SUBSTANCE_SYNONYM>
SCHEMBL16122941

> <PUBCHEM_XREF_EXT_ID>
SCHEMBL16122941

> <PUBCHEM_EXT_DATASOURCE_URL>
https://www.surechembl.org/

> <PUBCHEM_EXT_SUBSTANCE_URL>
https://www.surechembl.org/chemical/SCHEMBL16122941

> <PUBCHEM_CID_ASSOCIATIONS>
117611055  1

> <PUBCHEM_COORDINATE_TYPE>
1
3

$$$$
