310944510
  -OEChem-07211613022D

 13 13  0     0  0  0  0  0  0999 V2000
    1.4583   -0.8276    0.0000 Cl  0  0  0  0  0  0  0  0  0  0  0  0
    0.0000   -1.6455    0.0000 Cl  0  0  0  0  0  0  0  0  0  0  0  0
    0.0000    1.6455    0.0000 F   0  0  0  0  0  0  0  0  0  0  0  0
    2.1775    1.2021    0.0000 N   0  0  0  0  0  0  0  0  0  0  0  0
   -2.1775    1.1627    0.0000 N   0  0  0  0  0  0  0  0  0  0  0  0
    0.7291    0.4335    0.0000 C   0  0  0  0  0  0  0  0  0  0  0  0
    0.0000    0.8375    0.0000 C   0  0  0  0  0  0  0  0  0  0  0  0
    0.7193   -0.3843    0.0000 C   0  0  0  0  0  0  0  0  0  0  0  0
   -0.7193    0.4335    0.0000 C   0  0  0  0  0  0  0  0  0  0  0  0
    0.0098   -0.7981    0.0000 C   0  0  0  0  0  0  0  0  0  0  0  0
   -0.7094   -0.3941    0.0000 C   0  0  0  0  0  0  0  0  0  0  0  0
    1.4583    0.8276    0.0000 C   0  0  0  0  0  0  0  0  0  0  0  0
   -1.4583    0.8080    0.0000 C   0  0  0  0  0  0  0  0  0  0  0  0
  1  8  1  0  0  0  0
  2 10  1  0  0  0  0
  3  7  1  0  0  0  0
  4 12  3  0  0  0  0
  5 13  3  0  0  0  0
  6  7  2  0  0  0  0
  6  8  1  0  0  0  0
  6 12  1  0  0  0  0
  7  9  1  0  0  0  0
  8 10  2  0  0  0  0
  9 11  2  0  0  0  0
  9 13  1  0  0  0  0
 10 11  1  0  0  0  0
M  END
> <PUBCHEM_COMPOUND_ID_TYPE>
0

> <PUBCHEM_TOTAL_CHARGE>
0

> <PUBCHEM_SUBSTANCE_ID>
310944510

> <PUBCHEM_SUBSTANCE_VERSION>
1

> <PUBCHEM_EXT_DATASOURCE_NAME>
4488

> <PUBCHEM_EXT_DATASOURCE_REGID>
SCHEMBL16122585

> <PUBCHEM_SUBSTANCE_COMMENT>
InChI=1S/C8HCl2FN2/c9-6-1-4(2-12)8(11)5(3-13)7(6)10/h1H
InChIKey=PJYVTBMAMBIZEE-UHFFFAOYSA-N

> <PUBCHEM_SUBSTANCE_SYNONYM>
SCHEMBL16122585

> <PUBCHEM_XREF_EXT_ID>
SCHEMBL16122585

> <PUBCHEM_EXT_DATASOURCE_URL>
https://www.surechembl.org/

> <PUBCHEM_EXT_SUBSTANCE_URL>
https://www.surechembl.org/chemical/SCHEMBL16122585

> <PUBCHEM_CID_ASSOCIATIONS>
117610746  1

> <PUBCHEM_COORDINATE_TYPE>
1
3

$$$$
