310939372
  -OEChem-07211613022D

 28 30  0     1  0  0  0  0  0999 V2000
    1.2290    1.2093    0.0000 Cl  0  0  0  0  0  0  0  0  0  0  0  0
    2.6972   -0.3638    0.0000 S   0  0  0  0  0  0  0  0  0  0  0  0
   -0.1999   -1.2657    0.0000 F   0  0  0  0  0  0  0  0  0  0  0  0
    1.2290   -0.4407    0.0000 O   0  0  0  0  0  0  0  0  0  0  0  0
   -4.4867   -0.4407    0.0000 O   0  0  0  0  0  0  0  0  0  0  0  0
    2.0298    0.7922    0.0000 N   0  0  0  0  0  0  0  0  0  0  0  0
   -2.3433   -0.0282    0.0000 N   0  0  0  0  0  0  0  0  0  0  0  0
   -3.7723    0.7968    0.0000 N   0  0  0  0  0  0  0  0  0  0  0  0
    0.5146   -0.0282    0.0000 C   0  0  0  0  0  0  0  0  0  0  0  0
   -0.1999   -0.4407    0.0000 C   0  0  0  0  0  0  0  0  0  0  0  0
   -0.9144   -0.0282    0.0000 C   0  0  0  0  0  0  0  0  0  0  0  0
    1.9435   -0.0282    0.0000 C   0  0  0  0  0  0  0  0  0  0  0  0
    0.5146    0.7968    0.0000 C   0  0  0  0  0  0  0  0  0  0  0  0
    3.2492    0.2493    0.0000 C   0  0  0  0  0  0  0  0  0  0  0  0
    2.8367    0.9638    0.0000 C   0  0  0  0  0  0  0  0  0  0  0  0
   -1.6288   -0.4407    0.0000 C   0  0  3  0  0  0  0  0  0  0  0  0
   -0.9144    0.7968    0.0000 C   0  0  0  0  0  0  0  0  0  0  0  0
   -0.1999    1.2093    0.0000 C   0  0  0  0  0  0  0  0  0  0  0  0
    4.0742    0.2493    0.0000 C   0  0  0  0  0  0  0  0  0  0  0  0
    3.2492    1.6782    0.0000 C   0  0  0  0  0  0  0  0  0  0  0  0
   -1.6288   -1.2657    0.0000 C   0  0  0  0  0  0  0  0  0  0  0  0
    4.4867    0.9638    0.0000 C   0  0  0  0  0  0  0  0  0  0  0  0
    4.0742    1.6782    0.0000 C   0  0  0  0  0  0  0  0  0  0  0  0
   -2.3433    0.7968    0.0000 C   0  0  3  0  0  0  0  0  0  0  0  0
   -3.0578    1.2093    0.0000 C   0  0  0  0  0  0  0  0  0  0  0  0
   -0.9144   -1.6782    0.0000 C   0  0  0  0  0  0  0  0  0  0  0  0
   -1.6288    1.2093    0.0000 C   0  0  0  0  0  0  0  0  0  0  0  0
   -3.7723   -0.0282    0.0000 C   0  0  0  0  0  0  0  0  0  0  0  0
  1 13  1  0  0  0  0
  2 12  1  0  0  0  0
  2 14  1  0  0  0  0
  3 10  1  0  0  0  0
  4  9  1  0  0  0  0
  4 12  1  0  0  0  0
  5 28  2  0  0  0  0
  6 12  2  0  0  0  0
  6 15  1  0  0  0  0
 16  7  1  1  0  0  0
  7 24  1  0  0  0  0
  8 25  1  0  0  0  0
  8 28  1  0  0  0  0
  9 10  2  0  0  0  0
  9 13  1  0  0  0  0
 10 11  1  0  0  0  0
 11 16  1  0  0  0  0
 11 17  2  0  0  0  0
 13 18  2  0  0  0  0
 14 15  2  0  0  0  0
 14 19  1  0  0  0  0
 15 20  1  0  0  0  0
 16 21  1  0  0  0  0
 17 18  1  0  0  0  0
 19 22  2  0  0  0  0
 20 23  2  0  0  0  0
 21 26  1  0  0  0  0
 22 23  1  0  0  0  0
 24 25  1  0  0  0  0
 24 27  1  6  0  0  0
M  END
> <PUBCHEM_COMPOUND_ID_TYPE>
0

> <PUBCHEM_TOTAL_CHARGE>
0

> <PUBCHEM_SUBSTANCE_ID>
310939372

> <PUBCHEM_SUBSTANCE_VERSION>
1

> <PUBCHEM_EXT_DATASOURCE_NAME>
4488

> <PUBCHEM_EXT_DATASOURCE_REGID>
SCHEMBL16117293

> <PUBCHEM_SUBSTANCE_COMMENT>
InChI=1S/C20H21ClFN3O2S/c1-3-15(24-12(2)10-23-11-26)13-8-9-14(21)19(18(13)22)27-20-25-16-6-4-5-7-17(16)28-20/h4-9,11-12,15,24H,3,10H2,1-2H3,(H,23,26)/t12-,15+/m0/s1
InChIKey=YRNYMTDXGXUMSJ-SWLSCSKDSA-N

> <PUBCHEM_SUBSTANCE_SYNONYM>
SCHEMBL16117293

> <PUBCHEM_XREF_EXT_ID>
SCHEMBL16117293

> <PUBCHEM_EXT_DATASOURCE_URL>
https://www.surechembl.org/

> <PUBCHEM_EXT_SUBSTANCE_URL>
https://www.surechembl.org/chemical/SCHEMBL16117293

> <PUBCHEM_CID_ASSOCIATIONS>
117606699  1

> <PUBCHEM_COORDINATE_TYPE>
1
3

> <PUBCHEM_BONDANNOTATIONS>
24  27  6
16  7  5

$$$$
