310943647
  -OEChem-07211613022D

 16 17  0     0  0  0  0  0  0999 V2000
    2.1533    0.8336    0.0000 Cl  0  0  0  0  0  0  0  0  0  0  0  0
   -2.1533    1.6671    0.0000 O   0  0  0  0  0  0  0  0  0  0  0  0
    1.4414   -2.0665    0.0000 O   0  0  0  0  0  0  0  0  0  0  0  0
   -0.7120    0.8336    0.0000 N   0  0  0  0  0  0  0  0  0  0  0  0
    0.0000   -0.3994    0.0000 N   0  0  0  0  0  0  0  0  0  0  0  0
    1.4414   -0.3994    0.0000 N   0  0  0  0  0  0  0  0  0  0  0  0
    0.0000    0.4341    0.0000 C   0  0  0  0  0  0  0  0  0  0  0  0
    0.7294   -0.8162    0.0000 C   0  0  0  0  0  0  0  0  0  0  0  0
    0.7120    0.8336    0.0000 C   0  0  0  0  0  0  0  0  0  0  0  0
    1.4414    0.4341    0.0000 C   0  0  0  0  0  0  0  0  0  0  0  0
    0.6947   -1.6323    0.0000 C   0  0  0  0  0  0  0  0  0  0  0  0
   -0.7294    1.6671    0.0000 C   0  0  0  0  0  0  0  0  0  0  0  0
   -1.4066    0.4341    0.0000 C   0  0  0  0  0  0  0  0  0  0  0  0
   -1.4414    2.0839    0.0000 C   0  0  0  0  0  0  0  0  0  0  0  0
   -2.1533    0.8336    0.0000 C   0  0  0  0  0  0  0  0  0  0  0  0
    0.0347   -2.0839    0.0000 C   0  0  0  0  0  0  0  0  0  0  0  0
  1 10  1  0  0  0  0
  2 14  1  0  0  0  0
  2 15  1  0  0  0  0
  3 11  2  0  0  0  0
  4  7  1  0  0  0  0
  4 12  1  0  0  0  0
  4 13  1  0  0  0  0
  5  7  2  0  0  0  0
  5  8  1  0  0  0  0
  6  8  2  0  0  0  0
  6 10  1  0  0  0  0
  7  9  1  0  0  0  0
  8 11  1  0  0  0  0
  9 10  2  0  0  0  0
 11 16  1  0  0  0  0
 12 14  1  0  0  0  0
 13 15  1  0  0  0  0
M  END
> <PUBCHEM_COMPOUND_ID_TYPE>
0

> <PUBCHEM_TOTAL_CHARGE>
0

> <PUBCHEM_SUBSTANCE_ID>
310943647

> <PUBCHEM_SUBSTANCE_VERSION>
1

> <PUBCHEM_EXT_DATASOURCE_NAME>
4488

> <PUBCHEM_EXT_DATASOURCE_REGID>
SCHEMBL16121715

> <PUBCHEM_SUBSTANCE_COMMENT>
InChI=1S/C10H12ClN3O2/c1-7(15)10-12-8(11)6-9(13-10)14-2-4-16-5-3-14/h6H,2-5H2,1H3
InChIKey=MJWJGSJLOAFKBC-UHFFFAOYSA-N

> <PUBCHEM_SUBSTANCE_SYNONYM>
SCHEMBL16121715

> <PUBCHEM_XREF_EXT_ID>
SCHEMBL16121715

> <PUBCHEM_EXT_DATASOURCE_URL>
https://www.surechembl.org/

> <PUBCHEM_EXT_SUBSTANCE_URL>
https://www.surechembl.org/chemical/SCHEMBL16121715

> <PUBCHEM_CID_ASSOCIATIONS>
117610038  1

> <PUBCHEM_COORDINATE_TYPE>
1
3

$$$$
