310949194
  -OEChem-07211613022D

 61 72  0     0  0  0  0  0  0999 V2000
   -1.4722   -0.6923    0.0000 N   0  0  0  0  0  0  0  0  0  0  0  0
    0.0175    1.7790    0.0000 N   0  0  0  0  0  0  0  0  0  0  0  0
   -0.8413   -3.6544    0.0000 N   0  0  0  0  0  0  0  0  0  0  0  0
   -2.1558    1.3233    0.0000 N   0  0  0  0  0  0  0  0  0  0  0  0
    2.1908    1.3057    0.0000 N   0  0  0  0  0  0  0  0  0  0  0  0
   -1.5775   -1.5160    0.0000 C   0  0  0  0  0  0  0  0  0  0  0  0
   -2.4012   -1.6739    0.0000 C   0  0  0  0  0  0  0  0  0  0  0  0
   -1.2970   -2.8832    0.0000 C   0  0  0  0  0  0  0  0  0  0  0  0
   -2.2434   -0.3593    0.0000 C   0  0  0  0  0  0  0  0  0  0  0  0
   -2.1032   -3.0584    0.0000 C   0  0  0  0  0  0  0  0  0  0  0  0
   -2.7518   -0.9377    0.0000 C   0  0  0  0  0  0  0  0  0  0  0  0
   -0.7537   -0.2716    0.0000 C   0  0  0  0  0  0  0  0  0  0  0  0
    0.0000    0.9727    0.0000 C   0  0  0  0  0  0  0  0  0  0  0  0
   -0.7186    0.5697    0.0000 C   0  0  0  0  0  0  0  0  0  0  0  0
   -1.0166   -2.1120    0.0000 C   0  0  0  0  0  0  0  0  0  0  0  0
   -2.2084   -3.9172    0.0000 C   0  0  0  0  0  0  0  0  0  0  0  0
   -2.6116   -2.4450    0.0000 C   0  0  0  0  0  0  0  0  0  0  0  0
    0.6661    2.2872    0.0000 C   0  0  0  0  0  0  0  0  0  0  0  0
   -0.6661    2.2872    0.0000 C   0  0  0  0  0  0  0  0  0  0  0  0
   -1.4196   -4.2327    0.0000 C   0  0  0  0  0  0  0  0  0  0  0  0
    0.4381    3.0584    0.0000 C   0  0  0  0  0  0  0  0  0  0  0  0
   -0.4381    3.1110    0.0000 C   0  0  0  0  0  0  0  0  0  0  0  0
    0.7362    0.5521    0.0000 C   0  0  0  0  0  0  0  0  0  0  0  0
    0.0175   -0.6573    0.0000 C   0  0  0  0  0  0  0  0  0  0  0  0
    0.0000   -3.7245    0.0000 C   0  0  0  0  0  0  0  0  0  0  0  0
   -2.4888    0.4118    0.0000 C   0  0  0  0  0  0  0  0  0  0  0  0
   -3.5404   -0.7800    0.0000 C   0  0  0  0  0  0  0  0  0  0  0  0
    0.7186   -0.2892    0.0000 C   0  0  0  0  0  0  0  0  0  0  0  0
   -1.5073    2.1470    0.0000 C   0  0  0  0  0  0  0  0  0  0  0  0
    1.5248    2.1295    0.0000 C   0  0  0  0  0  0  0  0  0  0  0  0
   -0.9640    3.6544    0.0000 C   0  0  0  0  0  0  0  0  0  0  0  0
    1.0166    3.6894    0.0000 C   0  0  0  0  0  0  0  0  0  0  0  0
   -2.7868   -4.3904    0.0000 C   0  0  0  0  0  0  0  0  0  0  0  0
   -1.3320   -5.0564    0.0000 C   0  0  0  0  0  0  0  0  0  0  0  0
   -1.4547    0.9727    0.0000 C   0  0  0  0  0  0  0  0  0  0  0  0
   -1.8228    3.5316    0.0000 C   0  0  0  0  0  0  0  0  0  0  0  0
    1.8228    3.4965    0.0000 C   0  0  0  0  0  0  0  0  0  0  0  0
   -3.2424    0.6047    0.0000 C   0  0  0  0  0  0  0  0  0  0  0  0
   -3.8033   -0.0088    0.0000 C   0  0  0  0  0  0  0  0  0  0  0  0
   -2.0682    2.7255    0.0000 C   0  0  0  0  0  0  0  0  0  0  0  0
    2.0682    2.7255    0.0000 C   0  0  0  0  0  0  0  0  0  0  0  0
    1.4722    0.9552    0.0000 C   0  0  0  0  0  0  0  0  0  0  0  0
    0.3155   -4.4780    0.0000 C   0  0  0  0  0  0  0  0  0  0  0  0
    0.4732   -3.0935    0.0000 C   0  0  0  0  0  0  0  0  0  0  0  0
   -2.7167   -5.1966    0.0000 C   0  0  0  0  0  0  0  0  0  0  0  0
   -2.0156   -5.5471    0.0000 C   0  0  0  0  0  0  0  0  0  0  0  0
   -2.4012    4.1275    0.0000 C   0  0  0  0  0  0  0  0  0  0  0  0
    2.3661    4.1626    0.0000 C   0  0  0  0  0  0  0  0  0  0  0  0
    1.1568   -4.5481    0.0000 C   0  0  0  0  0  0  0  0  0  0  0  0
    1.3145   -3.1636    0.0000 C   0  0  0  0  0  0  0  0  0  0  0  0
    1.6651   -3.8646    0.0000 C   0  0  0  0  0  0  0  0  0  0  0  0
   -2.1208    4.9513    0.0000 C   0  0  0  0  0  0  0  0  0  0  0  0
    3.2249    3.9873    0.0000 C   0  0  0  0  0  0  0  0  0  0  0  0
   -3.1198    3.9873    0.0000 C   0  0  0  0  0  0  0  0  0  0  0  0
    2.1383    4.9162    0.0000 C   0  0  0  0  0  0  0  0  0  0  0  0
   -2.6641    5.5471    0.0000 C   0  0  0  0  0  0  0  0  0  0  0  0
    3.8033    4.5656    0.0000 C   0  0  0  0  0  0  0  0  0  0  0  0
   -3.6806    4.5656    0.0000 C   0  0  0  0  0  0  0  0  0  0  0  0
    2.7167    5.5296    0.0000 C   0  0  0  0  0  0  0  0  0  0  0  0
   -3.4352    5.3719    0.0000 C   0  0  0  0  0  0  0  0  0  0  0  0
    3.5228    5.3544    0.0000 C   0  0  0  0  0  0  0  0  0  0  0  0
  1  6  1  0  0  0  0
  1  9  1  0  0  0  0
  1 12  1  0  0  0  0
  2 13  1  0  0  0  0
  2 18  1  0  0  0  0
  2 19  1  0  0  0  0
  3  8  1  0  0  0  0
  3 20  1  0  0  0  0
  3 25  1  0  0  0  0
  4 35  3  0  0  0  0
  5 42  3  0  0  0  0
  6  7  2  0  0  0  0
  6 15  1  0  0  0  0
  7 11  1  0  0  0  0
  7 17  1  0  0  0  0
  8 10  1  0  0  0  0
  8 15  2  0  0  0  0
  9 11  2  0  0  0  0
  9 26  1  0  0  0  0
 10 16  1  0  0  0  0
 10 17  2  0  0  0  0
 11 27  1  0  0  0  0
 12 14  2  0  0  0  0
 12 24  1  0  0  0  0
 13 14  1  0  0  0  0
 13 23  2  0  0  0  0
 14 35  1  0  0  0  0
 16 20  2  0  0  0  0
 16 33  1  0  0  0  0
 18 21  2  0  0  0  0
 18 30  1  0  0  0  0
 19 22  2  0  0  0  0
 19 29  1  0  0  0  0
 20 34  1  0  0  0  0
 21 22  1  0  0  0  0
 21 32  1  0  0  0  0
 22 31  1  0  0  0  0
 23 28  1  0  0  0  0
 23 42  1  0  0  0  0
 24 28  2  0  0  0  0
 25 43  2  0  0  0  0
 25 44  1  0  0  0  0
 26 38  2  0  0  0  0
 27 39  2  0  0  0  0
 29 40  2  0  0  0  0
 30 41  2  0  0  0  0
 31 36  2  0  0  0  0
 32 37  2  0  0  0  0
 33 45  2  0  0  0  0
 34 46  2  0  0  0  0
 36 40  1  0  0  0  0
 36 47  1  0  0  0  0
 37 41  1  0  0  0  0
 37 48  1  0  0  0  0
 38 39  1  0  0  0  0
 43 49  1  0  0  0  0
 44 50  2  0  0  0  0
 45 46  1  0  0  0  0
 47 52  2  0  0  0  0
 47 54  1  0  0  0  0
 48 53  2  0  0  0  0
 48 55  1  0  0  0  0
 49 51  2  0  0  0  0
 50 51  1  0  0  0  0
 52 56  1  0  0  0  0
 53 57  1  0  0  0  0
 54 58  2  0  0  0  0
 55 59  2  0  0  0  0
 56 60  2  0  0  0  0
 57 61  2  0  0  0  0
 58 60  1  0  0  0  0
 59 61  1  0  0  0  0
M  END
> <PUBCHEM_COMPOUND_ID_TYPE>
0

> <PUBCHEM_TOTAL_CHARGE>
0

> <PUBCHEM_SUBSTANCE_ID>
310949194

> <PUBCHEM_SUBSTANCE_VERSION>
1

> <PUBCHEM_EXT_DATASOURCE_NAME>
4488

> <PUBCHEM_EXT_DATASOURCE_REGID>
SCHEMBL16127384

> <PUBCHEM_SUBSTANCE_COMMENT>
InChI=1S/C56H33N5/c57-34-40-26-29-53(60-50-23-13-11-21-43(50)47-32-46-42-20-10-12-22-49(42)59(54(46)33-55(47)60)41-18-8-3-9-19-41)48(35-58)56(40)61-51-27-24-38(36-14-4-1-5-15-36)30-44(51)45-31-39(25-28-52(45)61)37-16-6-2-7-17-37/h1-33H
InChIKey=LFGRDRTVJXNDRK-UHFFFAOYSA-N

> <PUBCHEM_SUBSTANCE_SYNONYM>
SCHEMBL16127384

> <PUBCHEM_XREF_EXT_ID>
SCHEMBL16127384

> <PUBCHEM_EXT_DATASOURCE_URL>
https://www.surechembl.org/

> <PUBCHEM_EXT_SUBSTANCE_URL>
https://www.surechembl.org/chemical/SCHEMBL16127384

> <PUBCHEM_CID_ASSOCIATIONS>
117614682  1

> <PUBCHEM_COORDINATE_TYPE>
1
3

$$$$
