310940744
  -OEChem-07211613022D

 33 36  0     0  0  0  0  0  0999 V2000
    4.1860    2.4688    0.0000 Br  0  0  0  0  0  0  0  0  0  0  0  0
   -1.1497   -0.0958    0.0000 O   0  0  0  0  0  0  0  0  0  0  0  0
    4.7608   -0.9212    0.0000 O   0  0  0  0  0  0  0  0  0  0  0  0
    4.7608   -2.3509    0.0000 O   0  0  0  0  0  0  0  0  0  0  0  0
    1.7834   -0.2432    0.0000 N   0  0  0  0  0  0  0  0  0  0  0  0
    1.7834   -1.5845    0.0000 N   0  0  0  0  0  0  0  0  0  0  0  0
   -3.3163   -0.4938    0.0000 N   0  0  0  0  0  0  0  0  0  0  0  0
    1.0023   -0.4938    0.0000 C   0  0  0  0  0  0  0  0  0  0  0  0
    2.2698   -0.9065    0.0000 C   0  0  0  0  0  0  0  0  0  0  0  0
    0.9875   -1.3044    0.0000 C   0  0  0  0  0  0  0  0  0  0  0  0
    0.2800   -0.0958    0.0000 C   0  0  0  0  0  0  0  0  0  0  0  0
    3.0952   -0.9212    0.0000 C   0  0  0  0  0  0  0  0  0  0  0  0
    2.0488    0.5380    0.0000 C   0  0  0  0  0  0  0  0  0  0  0  0
    3.5079   -1.6287    0.0000 C   0  0  0  0  0  0  0  0  0  0  0  0
    0.2948   -1.7319    0.0000 C   0  0  0  0  0  0  0  0  0  0  0  0
   -0.4274   -0.4938    0.0000 C   0  0  0  0  0  0  0  0  0  0  0  0
   -0.4274   -1.3192    0.0000 C   0  0  0  0  0  0  0  0  0  0  0  0
    2.8594    0.7149    0.0000 C   0  0  0  0  0  0  0  0  0  0  0  0
    4.3334   -1.6434    0.0000 C   0  0  0  0  0  0  0  0  0  0  0  0
    3.1247    1.4960    0.0000 C   0  0  0  0  0  0  0  0  0  0  0  0
    3.4048    0.1105    0.0000 C   0  0  0  0  0  0  0  0  0  0  0  0
    2.7857   -2.0561    0.0000 C   0  0  0  0  0  0  0  0  0  0  0  0
    3.5374   -2.4688    0.0000 C   0  0  0  0  0  0  0  0  0  0  0  0
    3.9206    1.6729    0.0000 C   0  0  0  0  0  0  0  0  0  0  0  0
   -1.8719   -0.4938    0.0000 C   0  0  0  0  0  0  0  0  0  0  0  0
    4.2154    0.2874    0.0000 C   0  0  0  0  0  0  0  0  0  0  0  0
   -2.6088   -0.0811    0.0000 C   0  0  0  0  0  0  0  0  0  0  0  0
    4.4660    1.0686    0.0000 C   0  0  0  0  0  0  0  0  0  0  0  0
   -2.5941    0.7296    0.0000 C   0  0  0  0  0  0  0  0  0  0  0  0
   -4.0238    0.7443    0.0000 C   0  0  0  0  0  0  0  0  0  0  0  0
   -4.0238   -0.0811    0.0000 C   0  0  0  0  0  0  0  0  0  0  0  0
   -3.3163    1.1570    0.0000 C   0  0  0  0  0  0  0  0  0  0  0  0
   -4.7608    1.1423    0.0000 C   0  0  0  0  0  0  0  0  0  0  0  0
  1 24  1  0  0  0  0
  2 16  1  0  0  0  0
  2 25  1  0  0  0  0
  3 19  2  0  0  0  0
  4 19  1  0  0  0  0
  5  8  1  0  0  0  0
  5  9  1  0  0  0  0
  5 13  1  0  0  0  0
  6  9  2  0  0  0  0
  6 10  1  0  0  0  0
  7 27  2  0  0  0  0
  7 31  1  0  0  0  0
  8 10  1  0  0  0  0
  8 11  2  0  0  0  0
  9 12  1  0  0  0  0
 10 15  2  0  0  0  0
 11 16  1  0  0  0  0
 12 14  1  0  0  0  0
 13 18  1  0  0  0  0
 14 19  1  0  0  0  0
 14 22  1  0  0  0  0
 14 23  1  0  0  0  0
 15 17  1  0  0  0  0
 16 17  2  0  0  0  0
 18 20  1  0  0  0  0
 18 21  2  0  0  0  0
 20 24  2  0  0  0  0
 21 26  1  0  0  0  0
 24 28  1  0  0  0  0
 25 27  1  0  0  0  0
 26 28  2  0  0  0  0
 27 29  1  0  0  0  0
 29 32  2  0  0  0  0
 30 31  2  0  0  0  0
 30 32  1  0  0  0  0
 30 33  1  0  0  0  0
M  END
> <PUBCHEM_COMPOUND_ID_TYPE>
0

> <PUBCHEM_TOTAL_CHARGE>
0

> <PUBCHEM_SUBSTANCE_ID>
310940744

> <PUBCHEM_SUBSTANCE_VERSION>
1

> <PUBCHEM_EXT_DATASOURCE_NAME>
4488

> <PUBCHEM_EXT_DATASOURCE_REGID>
SCHEMBL16118702

> <PUBCHEM_SUBSTANCE_COMMENT>
InChI=1S/C26H26BrN3O3/c1-17-7-8-20(28-14-17)16-33-21-9-10-22-23(12-21)30(15-18-5-4-6-19(27)11-18)24(29-22)13-26(2,3)25(31)32/h4-12,14H,13,15-16H2,1-3H3,(H,31,32)
InChIKey=SYOMEKAYKMANLN-UHFFFAOYSA-N

> <PUBCHEM_SUBSTANCE_SYNONYM>
SCHEMBL16118702

> <PUBCHEM_XREF_EXT_ID>
SCHEMBL16118702

> <PUBCHEM_EXT_DATASOURCE_URL>
https://www.surechembl.org/

> <PUBCHEM_EXT_SUBSTANCE_URL>
https://www.surechembl.org/chemical/SCHEMBL16118702

> <PUBCHEM_CID_ASSOCIATIONS>
117607700  1

> <PUBCHEM_COORDINATE_TYPE>
1
3

$$$$
