310939430
  -OEChem-07211613022D

 26 28  0     0  0  0  0  0  0999 V2000
   -0.9010   15.6962    0.0000 O   0  0  0  0  0  0  0  0  0  0  0  0
   -3.3760   14.2672    0.0000 N   0  0  0  0  0  0  0  0  0  0  0  0
   -3.3760   15.6962    0.0000 N   0  0  0  0  0  0  0  0  0  0  0  0
   -4.6135   14.9817    0.0000 N   0  0  0  0  0  0  0  0  0  0  0  0
   -0.9010   14.2672    0.0000 C   0  0  0  0  0  0  0  0  0  0  0  0
   -0.4885   14.9817    0.0000 C   0  0  0  0  0  0  0  0  0  0  0  0
   -2.9635   14.9817    0.0000 C   0  0  0  0  0  0  0  0  0  0  0  0
   -1.7260   14.2672    0.0000 C   0  0  0  0  0  0  0  0  0  0  0  0
   -2.1385   14.9817    0.0000 C   0  0  0  0  0  0  0  0  0  0  0  0
   -4.2010   14.2672    0.0000 C   0  0  0  0  0  0  0  0  0  0  0  0
   -4.2010   15.6962    0.0000 C   0  0  0  0  0  0  0  0  0  0  0  0
   -0.4885   13.5528    0.0000 C   0  0  0  0  0  0  0  0  0  0  0  0
    0.3365   14.9817    0.0000 C   0  0  0  0  0  0  0  0  0  0  0  0
    0.3365   16.4106    0.0000 C   0  0  0  0  0  0  0  0  0  0  0  0
   -0.4885   16.4106    0.0000 C   0  0  0  0  0  0  0  0  0  0  0  0
    0.3365   13.5528    0.0000 C   0  0  0  0  0  0  0  0  0  0  0  0
    0.7490   14.2672    0.0000 C   0  0  0  0  0  0  0  0  0  0  0  0
    0.7490   15.6962    0.0000 C   0  0  0  0  0  0  0  0  0  0  0  0
    0.7490   17.1251    0.0000 C   0  0  0  0  0  0  0  0  0  0  0  0
    1.9865   16.4106    0.0000 C   0  0  0  0  0  0  0  0  0  0  0  0
    1.5740   15.6962    0.0000 C   0  0  0  0  0  0  0  0  0  0  0  0
    1.5740   17.1251    0.0000 C   0  0  0  0  0  0  0  0  0  0  0  0
   -4.6135   13.5528    0.0000 C   0  0  0  0  0  0  0  0  0  0  0  0
   -4.6135   16.4106    0.0000 C   0  0  0  0  0  0  0  0  0  0  0  0
    2.8115   16.4106    0.0000 C   0  0  0  0  0  0  0  0  0  0  0  0
    3.2240   15.6962    0.0000 C   0  0  0  0  0  0  0  0  0  0  0  0
  1  6  1  0  0  0  0
  1 15  1  0  0  0  0
  2  7  2  0  0  0  0
  2 10  1  0  0  0  0
  3  7  1  0  0  0  0
  3 11  2  0  0  0  0
  4 10  2  0  0  0  0
  4 11  1  0  0  0  0
  5  6  1  0  0  0  0
  5  8  1  0  0  0  0
  5 12  2  0  0  0  0
  6 13  2  0  0  0  0
  7  9  1  0  0  0  0
  8  9  2  0  0  0  0
 10 23  1  0  0  0  0
 11 24  1  0  0  0  0
 12 16  1  0  0  0  0
 13 17  1  0  0  0  0
 14 15  1  0  0  0  0
 14 18  2  0  0  0  0
 14 19  1  0  0  0  0
 16 17  2  0  0  0  0
 18 21  1  0  0  0  0
 19 22  2  0  0  0  0
 20 21  2  0  0  0  0
 20 22  1  0  0  0  0
 20 25  1  0  0  0  0
 25 26  1  0  0  0  0
M  END
> <PUBCHEM_COMPOUND_ID_TYPE>
0

> <PUBCHEM_TOTAL_CHARGE>
0

> <PUBCHEM_SUBSTANCE_ID>
310939430

> <PUBCHEM_SUBSTANCE_VERSION>
1

> <PUBCHEM_EXT_DATASOURCE_NAME>
4488

> <PUBCHEM_EXT_DATASOURCE_REGID>
SCHEMBL16117352

> <PUBCHEM_SUBSTANCE_COMMENT>
InChI=1S/C22H23N3O/c1-4-18-9-11-19(12-10-18)15-26-21-8-6-5-7-20(21)13-14-22-24-16(2)23-17(3)25-22/h5-14H,4,15H2,1-3H3/b14-13+
InChIKey=BBJARIZLSZJSKL-BUHFOSPRSA-N

> <PUBCHEM_SUBSTANCE_SYNONYM>
SCHEMBL16117352

> <PUBCHEM_XREF_EXT_ID>
SCHEMBL16117352

> <PUBCHEM_EXT_DATASOURCE_URL>
https://www.surechembl.org/

> <PUBCHEM_EXT_SUBSTANCE_URL>
https://www.surechembl.org/chemical/SCHEMBL16117352

> <PUBCHEM_CID_ASSOCIATIONS>
117606754  1

> <PUBCHEM_COORDINATE_TYPE>
1
3

$$$$
