310945437
  -OEChem-07211613022D

 30 33  0     0  0  0  0  0  0999 V2000
    3.0389   -2.1186    0.0000 S   0  0  0  0  0  0  0  0  0  0  0  0
    0.8161    1.4413    0.0000 F   0  0  0  0  0  0  0  0  0  0  0  0
    1.6150    2.3270    0.0000 F   0  0  0  0  0  0  0  0  0  0  0  0
    2.4138    1.4413    0.0000 F   0  0  0  0  0  0  0  0  0  0  0  0
   -3.4383   -1.2329    0.0000 F   0  0  0  0  0  0  0  0  0  0  0  0
   -4.2198   -0.3473    0.0000 F   0  0  0  0  0  0  0  0  0  0  0  0
   -3.4383    0.5557    0.0000 F   0  0  0  0  0  0  0  0  0  0  0  0
   -1.0940    1.1982    0.0000 O   0  0  0  0  0  0  0  0  0  0  0  0
    0.1563    0.3821    0.0000 N   0  0  0  0  0  0  0  0  0  0  0  0
    0.1563   -1.0592    0.0000 N   0  0  0  0  0  0  0  0  0  0  0  0
    1.5803   -1.2329    0.0000 N   0  0  0  0  0  0  0  0  0  0  0  0
    2.2923    0.1042    0.0000 N   0  0  0  0  0  0  0  0  0  0  0  0
    0.9030    0.0694    0.0000 C   0  0  0  0  0  0  0  0  0  0  0  0
    0.8683   -0.8161    0.0000 C   0  0  0  0  0  0  0  0  0  0  0  0
    1.5803    0.5209    0.0000 C   0  0  0  0  0  0  0  0  0  0  0  0
   -0.3126   -0.3647    0.0000 C   0  0  0  0  0  0  0  0  0  0  0  0
    2.2923   -0.8335    0.0000 C   0  0  0  0  0  0  0  0  0  0  0  0
    1.5803    1.4066    0.0000 C   0  0  0  0  0  0  0  0  0  0  0  0
   -1.0940   -0.3647    0.0000 C   0  0  0  0  0  0  0  0  0  0  0  0
   -1.4760    0.3994    0.0000 C   0  0  0  0  0  0  0  0  0  0  0  0
    2.9694   -1.2676    0.0000 C   0  0  0  0  0  0  0  0  0  0  0  0
   -1.4760   -1.1288    0.0000 C   0  0  0  0  0  0  0  0  0  0  0  0
   -2.6569   -0.3647    0.0000 C   0  0  0  0  0  0  0  0  0  0  0  0
   -2.2575    0.3647    0.0000 C   0  0  0  0  0  0  0  0  0  0  0  0
   -2.2575   -1.1288    0.0000 C   0  0  0  0  0  0  0  0  0  0  0  0
   -3.4383   -0.3647    0.0000 C   0  0  0  0  0  0  0  0  0  0  0  0
    3.6814   -0.9204    0.0000 C   0  0  0  0  0  0  0  0  0  0  0  0
    3.8204   -2.3270    0.0000 C   0  0  0  0  0  0  0  0  0  0  0  0
    4.2198   -1.5455    0.0000 C   0  0  0  0  0  0  0  0  0  0  0  0
   -1.4760    1.9623    0.0000 C   0  0  0  0  0  0  0  0  0  0  0  0
  1 21  1  0  0  0  0
  1 28  1  0  0  0  0
  2 18  1  0  0  0  0
  3 18  1  0  0  0  0
  4 18  1  0  0  0  0
  5 26  1  0  0  0  0
  6 26  1  0  0  0  0
  7 26  1  0  0  0  0
  8 20  1  0  0  0  0
  8 30  1  0  0  0  0
  9 13  1  0  0  0  0
  9 16  2  0  0  0  0
 10 14  1  0  0  0  0
 10 16  1  0  0  0  0
 11 14  1  0  0  0  0
 11 17  2  0  0  0  0
 12 15  2  0  0  0  0
 12 17  1  0  0  0  0
 13 14  2  0  0  0  0
 13 15  1  0  0  0  0
 15 18  1  0  0  0  0
 16 19  1  0  0  0  0
 17 21  1  0  0  0  0
 19 20  2  0  0  0  0
 19 22  1  0  0  0  0
 20 24  1  0  0  0  0
 21 27  2  0  0  0  0
 22 25  2  0  0  0  0
 23 24  2  0  0  0  0
 23 25  1  0  0  0  0
 23 26  1  0  0  0  0
 27 29  1  0  0  0  0
 28 29  2  0  0  0  0
M  END
> <PUBCHEM_COMPOUND_ID_TYPE>
0

> <PUBCHEM_TOTAL_CHARGE>
0

> <PUBCHEM_SUBSTANCE_ID>
310945437

> <PUBCHEM_SUBSTANCE_VERSION>
1

> <PUBCHEM_EXT_DATASOURCE_NAME>
4488

> <PUBCHEM_EXT_DATASOURCE_REGID>
SCHEMBL16123535

> <PUBCHEM_SUBSTANCE_COMMENT>
InChI=1S/C18H10F6N4OS/c1-29-10-7-8(17(19,20)21)4-5-9(10)14-25-12-13(18(22,23)24)26-15(28-16(12)27-14)11-3-2-6-30-11/h2-7H,1H3,(H,25,26,27,28)
InChIKey=PHAQIPPJOHAIJM-UHFFFAOYSA-N

> <PUBCHEM_SUBSTANCE_SYNONYM>
SCHEMBL16123535

> <PUBCHEM_XREF_EXT_ID>
SCHEMBL16123535

> <PUBCHEM_EXT_DATASOURCE_URL>
https://www.surechembl.org/

> <PUBCHEM_EXT_SUBSTANCE_URL>
https://www.surechembl.org/chemical/SCHEMBL16123535

> <PUBCHEM_CID_ASSOCIATIONS>
117611482  1

> <PUBCHEM_COORDINATE_TYPE>
1
3

$$$$
