310945914
  -OEChem-07211613022D

 38 40  0     1  0  0  0  0  0999 V2000
    4.8497    0.9768    0.0000 O   0  0  0  0  0  0  0  0  0  0  0  0
    3.7134   -0.9768    0.0000 O   0  0  0  0  0  0  0  0  0  0  0  0
    1.3440    0.9630    0.0000 O   0  0  0  0  0  0  0  0  0  0  0  0
   -0.8175   -1.1015    0.0000 O   0  0  0  0  0  0  0  0  0  0  0  0
    3.4918   -2.7643    0.0000 O   0  0  0  0  0  0  0  0  0  0  0  0
   -2.9791    0.9630    0.0000 O   0  0  0  0  0  0  0  0  0  0  0  0
   -4.4201    0.9630    0.0000 O   0  0  0  0  0  0  0  0  0  0  0  0
    2.0646   -0.2702    0.0000 N   0  0  0  0  0  0  0  0  0  0  0  0
   -0.0970    0.1455    0.0000 N   0  0  0  0  0  0  0  0  0  0  0  0
   -2.2586   -0.2702    0.0000 N   0  0  0  0  0  0  0  0  0  0  0  0
    4.4340    0.3118    0.0000 C   0  0  3  0  0  0  0  0  0  0  0  0
    3.7134   -0.1178    0.0000 C   0  0  0  0  0  0  0  0  0  0  0  0
    4.0460    0.9907    0.0000 C   0  0  0  0  0  0  0  0  0  0  0  0
    2.9929    0.2840    0.0000 C   0  0  3  0  0  0  0  0  0  0  0  0
    5.1406   -0.1178    0.0000 C   0  0  0  0  0  0  0  0  0  0  0  0
    2.9929    1.3648    0.0000 C   0  0  0  0  0  0  0  0  0  0  0  0
    1.3302    0.1455    0.0000 C   0  0  0  0  0  0  0  0  0  0  0  0
    0.6374   -0.2425    0.0000 C   0  0  3  0  0  0  0  0  0  0  0  0
    2.2724    1.7944    0.0000 C   0  0  0  0  0  0  0  0  0  0  0  0
    0.6097   -1.0877    0.0000 C   0  0  0  0  0  0  0  0  0  0  0  0
    1.3579   -1.4896    0.0000 C   0  0  0  0  0  0  0  0  0  0  0  0
   -0.8036   -0.2286    0.0000 C   0  0  0  0  0  0  0  0  0  0  0  0
    1.5380    1.4479    0.0000 C   0  0  0  0  0  0  0  0  0  0  0  0
    2.1893    2.5980    0.0000 C   0  0  0  0  0  0  0  0  0  0  0  0
   -1.5380    0.1593    0.0000 C   0  0  3  0  0  0  0  0  0  0  0  0
    1.3579   -2.3209    0.0000 C   0  0  0  0  0  0  0  0  0  0  0  0
    2.0507   -1.0877    0.0000 C   0  0  0  0  0  0  0  0  0  0  0  0
    0.9838    2.0438    0.0000 C   0  0  0  0  0  0  0  0  0  0  0  0
    1.3857    2.7643    0.0000 C   0  0  0  0  0  0  0  0  0  0  0  0
    2.7851   -2.3071    0.0000 C   0  0  0  0  0  0  0  0  0  0  0  0
    2.0646   -2.7227    0.0000 C   0  0  0  0  0  0  0  0  0  0  0  0
    2.7851   -1.5034    0.0000 C   0  0  0  0  0  0  0  0  0  0  0  0
   -2.9791    0.1455    0.0000 C   0  0  0  0  0  0  0  0  0  0  0  0
   -1.5380    0.9768    0.0000 C   0  0  0  0  0  0  0  0  0  0  0  0
   -3.6858   -0.2425    0.0000 C   0  0  0  0  0  0  0  0  0  0  0  0
   -4.4201    0.1593    0.0000 C   0  0  3  0  0  0  0  0  0  0  0  0
    4.2400   -2.3347    0.0000 C   0  0  0  0  0  0  0  0  0  0  0  0
   -5.1406   -0.2425    0.0000 C   0  0  0  0  0  0  0  0  0  0  0  0
  1 11  1  0  0  0  0
  1 13  1  0  0  0  0
  2 12  2  0  0  0  0
  3 17  2  0  0  0  0
  4 22  2  0  0  0  0
  5 30  1  0  0  0  0
  5 37  1  0  0  0  0
  6 33  2  0  0  0  0
 36  7  1  6  0  0  0
 14  8  1  1  0  0  0
  8 17  1  0  0  0  0
 18  9  1  6  0  0  0
  9 22  1  0  0  0  0
 10 25  1  0  0  0  0
 10 33  1  0  0  0  0
 11 12  1  1  0  0  0
 11 13  1  0  0  0  0
 11 15  1  6  0  0  0
 12 14  1  0  0  0  0
 14 16  1  0  0  0  0
 16 19  1  0  0  0  0
 17 18  1  0  0  0  0
 18 20  1  0  0  0  0
 19 23  1  0  0  0  0
 19 24  1  0  0  0  0
 20 21  1  0  0  0  0
 21 26  2  0  0  0  0
 21 27  1  0  0  0  0
 22 25  1  0  0  0  0
 23 28  1  0  0  0  0
 24 29  1  0  0  0  0
 25 34  1  6  0  0  0
 26 31  1  0  0  0  0
 27 32  2  0  0  0  0
 28 29  1  0  0  0  0
 30 31  2  0  0  0  0
 30 32  1  0  0  0  0
 33 35  1  0  0  0  0
 35 36  1  0  0  0  0
 36 38  1  0  0  0  0
M  END
> <PUBCHEM_COMPOUND_ID_TYPE>
0

> <PUBCHEM_TOTAL_CHARGE>
0

> <PUBCHEM_SUBSTANCE_ID>
310945914

> <PUBCHEM_SUBSTANCE_VERSION>
1

> <PUBCHEM_EXT_DATASOURCE_NAME>
4488

> <PUBCHEM_EXT_DATASOURCE_REGID>
SCHEMBL16124019

> <PUBCHEM_SUBSTANCE_COMMENT>
InChI=1S/C28H41N3O7/c1-17(32)13-24(33)29-18(2)26(35)31-23(15-20-9-11-21(37-4)12-10-20)27(36)30-22(14-19-7-5-6-8-19)25(34)28(3)16-38-28/h9-12,17-19,22-23,32H,5-8,13-16H2,1-4H3,(H,29,33)(H,30,36)(H,31,35)/t17-,18+,22-,23-,28+/m0/s1
InChIKey=POHXHYJWXCRZRB-KRGQQQHGSA-N

> <PUBCHEM_SUBSTANCE_SYNONYM>
SCHEMBL16124019

> <PUBCHEM_XREF_EXT_ID>
SCHEMBL16124019

> <PUBCHEM_EXT_DATASOURCE_URL>
https://www.surechembl.org/

> <PUBCHEM_EXT_SUBSTANCE_URL>
https://www.surechembl.org/chemical/SCHEMBL16124019

> <PUBCHEM_CID_ASSOCIATIONS>
117611897  1

> <PUBCHEM_COORDINATE_TYPE>
1
3

> <PUBCHEM_BONDANNOTATIONS>
11  12  5
11  15  6
25  34  6
36  7  6
14  8  5
18  9  6

$$$$
