310934767
  -OEChem-07211613022D

 27 29  0     0  0  0  0  0  0999 V2000
    0.0359   -7.1737    0.0000 Cl  0  0  0  0  0  0  0  0  0  0  0  0
    4.5194   -0.7173    0.0000 S   0  0  0  0  0  0  0  0  0  0  0  0
    0.0000   -4.3043    0.0000 F   0  0  0  0  0  0  0  0  0  0  0  0
    1.6141    0.0000    0.0000 O   0  0  0  0  0  0  0  0  0  0  0  0
    1.2554   -2.1521    0.0000 O   0  0  0  0  0  0  0  0  0  0  0  0
    0.7891   -1.4348    0.0000 O   0  0  0  0  0  0  0  0  0  0  0  0
    2.4749   -2.8695    0.0000 N   0  0  0  0  0  0  0  0  0  0  0  0
    1.6141   -1.4348    0.0000 N   0  0  0  0  0  0  0  0  0  0  0  0
    2.8336   -0.7173    0.0000 C   0  0  0  0  0  0  0  0  0  0  0  0
    1.6499   -4.3043    0.0000 C   0  0  0  0  0  0  0  0  0  0  0  0
    2.0086   -0.7173    0.0000 C   0  0  0  0  0  0  0  0  0  0  0  0
    1.2554   -5.0216    0.0000 C   0  0  0  0  0  0  0  0  0  0  0  0
    2.4391   -1.4348    0.0000 C   0  0  0  0  0  0  0  0  0  0  0  0
    1.6499   -2.8695    0.0000 C   0  0  0  0  0  0  0  0  0  0  0  0
    3.2999   -1.4348    0.0000 C   0  0  0  0  0  0  0  0  0  0  0  0
    3.2999    0.0000    0.0000 C   0  0  0  0  0  0  0  0  0  0  0  0
    2.8695   -2.1521    0.0000 C   0  0  0  0  0  0  0  0  0  0  0  0
    1.2195   -3.5869    0.0000 C   0  0  0  0  0  0  0  0  0  0  0  0
    0.4304   -5.0216    0.0000 C   0  0  0  0  0  0  0  0  0  0  0  0
    2.4749   -4.3043    0.0000 C   0  0  0  0  0  0  0  0  0  0  0  0
    2.9054   -3.5869    0.0000 C   0  0  0  0  0  0  0  0  0  0  0  0
    1.6858   -5.7389    0.0000 C   0  0  0  0  0  0  0  0  0  0  0  0
    4.0890   -1.4348    0.0000 C   0  0  0  0  0  0  0  0  0  0  0  0
    4.0890    0.0000    0.0000 C   0  0  0  0  0  0  0  0  0  0  0  0
    0.0359   -5.7389    0.0000 C   0  0  0  0  0  0  0  0  0  0  0  0
    0.4304   -6.4564    0.0000 C   0  0  0  0  0  0  0  0  0  0  0  0
    1.2554   -6.4564    0.0000 C   0  0  0  0  0  0  0  0  0  0  0  0
  1 26  1  0  0  0  0
  2 23  1  0  0  0  0
  2 24  1  0  0  0  0
  3 19  1  0  0  0  0
  4 11  2  0  0  0  0
  5 14  2  0  0  0  0
  6  8  1  0  0  0  0
  7 14  1  0  0  0  0
  7 17  1  0  0  0  0
  7 21  1  0  0  0  0
  8 11  1  0  0  0  0
  9 11  1  0  0  0  0
  9 13  1  0  0  0  0
  9 15  1  0  0  0  0
  9 16  1  0  0  0  0
 10 12  1  0  0  0  0
 10 18  2  0  0  0  0
 10 20  1  0  0  0  0
 12 19  1  0  0  0  0
 12 22  2  0  0  0  0
 13 17  1  0  0  0  0
 14 18  1  0  0  0  0
 15 23  1  0  0  0  0
 16 24  1  0  0  0  0
 19 25  2  0  0  0  0
 20 21  2  0  0  0  0
 22 27  1  0  0  0  0
 25 26  1  0  0  0  0
 26 27  2  0  0  0  0
M  END
> <PUBCHEM_COMPOUND_ID_TYPE>
0

> <PUBCHEM_TOTAL_CHARGE>
0

> <PUBCHEM_SUBSTANCE_ID>
310934767

> <PUBCHEM_SUBSTANCE_VERSION>
1

> <PUBCHEM_EXT_DATASOURCE_NAME>
4488

> <PUBCHEM_EXT_DATASOURCE_REGID>
SCHEMBL16112269

> <PUBCHEM_SUBSTANCE_COMMENT>
InChI=1S/C19H20ClFN2O3S/c20-14-1-2-15(16(21)12-14)13-3-7-23(17(24)11-13)8-4-19(18(25)22-26)5-9-27-10-6-19/h1-3,7,11-12,26H,4-6,8-10H2,(H,22,25)
InChIKey=ULVDLPNHMZMYRG-UHFFFAOYSA-N

> <PUBCHEM_SUBSTANCE_SYNONYM>
SCHEMBL16112269

> <PUBCHEM_XREF_EXT_ID>
SCHEMBL16112269

> <PUBCHEM_EXT_DATASOURCE_URL>
https://www.surechembl.org/

> <PUBCHEM_EXT_SUBSTANCE_URL>
https://www.surechembl.org/chemical/SCHEMBL16112269

> <PUBCHEM_CID_ASSOCIATIONS>
117602917  1

> <PUBCHEM_COORDINATE_TYPE>
1
3

$$$$
