310936199
  -OEChem-07211613022D

 27 29  0     0  0  0  0  0  0999 V2000
    7.4966   -0.8496    0.0000 F   0  0  0  0  0  0  0  0  0  0  0  0
    3.6733   -0.1749    0.0000 O   0  0  0  0  0  0  0  0  0  0  0  0
    0.7497   -1.6992    0.0000 O   0  0  0  0  0  0  0  0  0  0  0  0
    3.3735   -2.9237    0.0000 O   0  0  0  0  0  0  0  0  0  0  0  0
    4.7229   -2.4739    0.0000 N   0  0  0  0  0  0  0  0  0  0  0  0
    0.0000   -1.2494    0.0000 N   0  0  0  0  0  0  0  0  0  0  0  0
    2.8737   -1.2744    0.0000 C   0  0  0  0  0  0  0  0  0  0  0  0
    3.6733   -1.4993    0.0000 C   0  0  0  0  0  0  0  0  0  0  0  0
    4.1731   -0.8496    0.0000 C   0  0  0  0  0  0  0  0  0  0  0  0
    2.8737   -0.3998    0.0000 C   0  0  0  0  0  0  0  0  0  0  0  0
    2.1490   -1.6742    0.0000 C   0  0  0  0  0  0  0  0  0  0  0  0
    4.9977   -0.8496    0.0000 C   0  0  0  0  0  0  0  0  0  0  0  0
    1.4493   -1.2744    0.0000 C   0  0  0  0  0  0  0  0  0  0  0  0
    3.9232   -2.2989    0.0000 C   0  0  0  0  0  0  0  0  0  0  0  0
    2.1490   -0.0250    0.0000 C   0  0  0  0  0  0  0  0  0  0  0  0
    1.4493   -0.3998    0.0000 C   0  0  0  0  0  0  0  0  0  0  0  0
    5.4225   -0.1249    0.0000 C   0  0  0  0  0  0  0  0  0  0  0  0
    5.4225   -1.5493    0.0000 C   0  0  0  0  0  0  0  0  0  0  0  0
    0.7497    0.0000    0.0000 C   0  0  0  0  0  0  0  0  0  0  0  0
    6.2472   -0.1249    0.0000 C   0  0  0  0  0  0  0  0  0  0  0  0
    6.2472   -1.5493    0.0000 C   0  0  0  0  0  0  0  0  0  0  0  0
    6.6720   -0.8496    0.0000 C   0  0  0  0  0  0  0  0  0  0  0  0
    0.7247   -2.5239    0.0000 C   0  0  0  0  0  0  0  0  0  0  0  0
    0.0250   -0.3998    0.0000 C   0  0  0  0  0  0  0  0  0  0  0  0
    4.9977   -3.2485    0.0000 C   0  0  0  0  0  0  0  0  0  0  0  0
    0.0000   -2.9487    0.0000 C   0  0  0  0  0  0  0  0  0  0  0  0
    1.4493   -2.9487    0.0000 C   0  0  0  0  0  0  0  0  0  0  0  0
  1 22  1  0  0  0  0
  2  9  1  0  0  0  0
  2 10  1  0  0  0  0
  3 13  1  0  0  0  0
  3 23  1  0  0  0  0
  4 14  2  0  0  0  0
  5 14  1  0  0  0  0
  5 25  1  0  0  0  0
  6 24  3  0  0  0  0
  7  8  1  0  0  0  0
  7 10  2  0  0  0  0
  7 11  1  0  0  0  0
  8  9  2  0  0  0  0
  8 14  1  0  0  0  0
  9 12  1  0  0  0  0
 10 15  1  0  0  0  0
 11 13  2  0  0  0  0
 12 17  2  0  0  0  0
 12 18  1  0  0  0  0
 13 16  1  0  0  0  0
 15 16  2  0  0  0  0
 16 19  1  0  0  0  0
 17 20  1  0  0  0  0
 18 21  2  0  0  0  0
 19 24  1  0  0  0  0
 20 22  2  0  0  0  0
 21 22  1  0  0  0  0
 23 26  1  0  0  0  0
 23 27  1  0  0  0  0
M  END
> <PUBCHEM_COMPOUND_ID_TYPE>
0

> <PUBCHEM_TOTAL_CHARGE>
0

> <PUBCHEM_SUBSTANCE_ID>
310936199

> <PUBCHEM_SUBSTANCE_VERSION>
1

> <PUBCHEM_EXT_DATASOURCE_NAME>
4488

> <PUBCHEM_EXT_DATASOURCE_REGID>
SCHEMBL16113811

> <PUBCHEM_SUBSTANCE_COMMENT>
InChI=1S/C21H19FN2O3/c1-12(2)26-17-11-16-18(10-14(17)8-9-23)27-20(19(16)21(25)24-3)13-4-6-15(22)7-5-13/h4-7,10-12H,8H2,1-3H3,(H,24,25)
InChIKey=JJWLKHZWDJGKPY-UHFFFAOYSA-N

> <PUBCHEM_SUBSTANCE_SYNONYM>
SCHEMBL16113811

> <PUBCHEM_XREF_EXT_ID>
SCHEMBL16113811

> <PUBCHEM_EXT_DATASOURCE_URL>
https://www.surechembl.org/

> <PUBCHEM_EXT_SUBSTANCE_URL>
https://www.surechembl.org/chemical/SCHEMBL16113811

> <PUBCHEM_CID_ASSOCIATIONS>
117604153  1

> <PUBCHEM_COORDINATE_TYPE>
1
3

$$$$
