310934734
  -OEChem-07211613022D

 26 28  0     0  0  0  0  0  0999 V2000
    7.8267   -0.9914    0.0000 F   0  0  0  0  0  0  0  0  0  0  0  0
    6.6005   -0.2609    0.0000 F   0  0  0  0  0  0  0  0  0  0  0  0
    7.4093   -1.6958    0.0000 F   0  0  0  0  0  0  0  0  0  0  0  0
    1.4871    0.0000    0.0000 O   0  0  0  0  0  0  0  0  0  0  0  0
    0.0000   -0.6783    0.0000 O   0  0  0  0  0  0  0  0  0  0  0  0
    2.0610   -2.1132    0.0000 N   0  0  0  0  0  0  0  0  0  0  0  0
    2.8437   -2.3741    0.0000 N   0  0  0  0  0  0  0  0  0  0  0  0
    4.1221   -1.6958    0.0000 N   0  0  0  0  0  0  0  0  0  0  0  0
    5.7657   -1.6958    0.0000 N   0  0  0  0  0  0  0  0  0  0  0  0
    0.6522   -1.1479    0.0000 N   0  0  0  0  0  0  0  0  0  0  0  0
    2.0610   -1.2783    0.0000 C   0  0  0  0  0  0  0  0  0  0  0  0
    3.3133   -1.6958    0.0000 C   0  0  0  0  0  0  0  0  0  0  0  0
    2.8437   -1.0175    0.0000 C   0  0  0  0  0  0  0  0  0  0  0  0
    1.4088   -2.5828    0.0000 C   0  0  0  0  0  0  0  0  0  0  0  0
    1.4088   -0.8087    0.0000 C   0  0  0  0  0  0  0  0  0  0  0  0
    4.5395   -2.4002    0.0000 C   0  0  0  0  0  0  0  0  0  0  0  0
    4.5395   -0.9914    0.0000 C   0  0  0  0  0  0  0  0  0  0  0  0
    1.4871   -3.4176    0.0000 C   0  0  0  0  0  0  0  0  0  0  0  0
    0.6522   -2.2437    0.0000 C   0  0  0  0  0  0  0  0  0  0  0  0
    5.3744   -0.9914    0.0000 C   0  0  0  0  0  0  0  0  0  0  0  0
    5.3744   -2.4002    0.0000 C   0  0  0  0  0  0  0  0  0  0  0  0
    6.6005   -1.6958    0.0000 C   0  0  0  0  0  0  0  0  0  0  0  0
    6.9919   -0.9914    0.0000 C   0  0  0  0  0  0  0  0  0  0  0  0
    0.8348   -3.8612    0.0000 C   0  0  0  0  0  0  0  0  0  0  0  0
    0.0000   -2.7133    0.0000 C   0  0  0  0  0  0  0  0  0  0  0  0
    0.0783   -3.5481    0.0000 C   0  0  0  0  0  0  0  0  0  0  0  0
  1 23  1  0  0  0  0
  2 23  1  0  0  0  0
  3 23  1  0  0  0  0
  4 15  2  0  0  0  0
  5 10  1  0  0  0  0
  6  7  1  0  0  0  0
  6 11  1  0  0  0  0
  6 14  1  0  0  0  0
  7 12  2  0  0  0  0
  8 12  1  0  0  0  0
  8 16  1  0  0  0  0
  8 17  1  0  0  0  0
  9 20  1  0  0  0  0
  9 21  1  0  0  0  0
  9 22  1  0  0  0  0
 10 15  1  0  0  0  0
 11 13  2  0  0  0  0
 11 15  1  0  0  0  0
 12 13  1  0  0  0  0
 14 18  2  0  0  0  0
 14 19  1  0  0  0  0
 16 21  1  0  0  0  0
 17 20  1  0  0  0  0
 18 24  1  0  0  0  0
 19 25  2  0  0  0  0
 22 23  1  0  0  0  0
 24 26  2  0  0  0  0
 25 26  1  0  0  0  0
M  END
> <PUBCHEM_COMPOUND_ID_TYPE>
0

> <PUBCHEM_TOTAL_CHARGE>
0

> <PUBCHEM_SUBSTANCE_ID>
310934734

> <PUBCHEM_SUBSTANCE_VERSION>
1

> <PUBCHEM_EXT_DATASOURCE_NAME>
4488

> <PUBCHEM_EXT_DATASOURCE_REGID>
SCHEMBL16112235

> <PUBCHEM_SUBSTANCE_COMMENT>
InChI=1S/C16H18F3N5O2/c17-16(18,19)11-22-6-8-23(9-7-22)14-10-13(15(25)21-26)24(20-14)12-4-2-1-3-5-12/h1-5,10,26H,6-9,11H2,(H,21,25)
InChIKey=QRSCUKHFHGDWQB-UHFFFAOYSA-N

> <PUBCHEM_SUBSTANCE_SYNONYM>
SCHEMBL16112235

> <PUBCHEM_XREF_EXT_ID>
SCHEMBL16112235

> <PUBCHEM_EXT_DATASOURCE_URL>
https://www.surechembl.org/

> <PUBCHEM_EXT_SUBSTANCE_URL>
https://www.surechembl.org/chemical/SCHEMBL16112235

> <PUBCHEM_CID_ASSOCIATIONS>
86292053  1

> <PUBCHEM_COORDINATE_TYPE>
1
3

$$$$
