310940424
  -OEChem-07211613022D

 16 17  0     0  0  0  0  0  0999 V2000
   -2.2408    1.3472    0.0000 F   0  0  0  0  0  0  0  0  0  0  0  0
   -3.1482   -1.3472    0.0000 F   0  0  0  0  0  0  0  0  0  0  0  0
    1.7321   -0.0275    0.0000 O   0  0  0  0  0  0  0  0  0  0  0  0
   -0.3437   -0.7699    0.0000 N   0  0  0  0  0  0  0  0  0  0  0  0
   -1.1273   -0.5087    0.0000 C   0  0  0  0  0  0  0  0  0  0  0  0
   -2.0759    0.5499    0.0000 C   0  0  0  0  0  0  0  0  0  0  0  0
   -2.5158   -0.7974    0.0000 C   0  0  0  0  0  0  0  0  0  0  0  0
    1.0723   -0.4949    0.0000 C   0  0  0  0  0  0  0  0  0  0  0  0
   -1.7459   -1.0586    0.0000 C   0  0  0  0  0  0  0  0  0  0  0  0
   -1.2922    0.2887    0.0000 C   0  0  0  0  0  0  0  0  0  0  0  0
   -2.6670    0.0138    0.0000 C   0  0  0  0  0  0  0  0  0  0  0  0
    0.2749   -0.2337    0.0000 C   0  0  0  0  0  0  0  0  0  0  0  0
    2.3921   -0.5087    0.0000 C   0  0  0  0  0  0  0  0  0  0  0  0
    1.3060   -1.2647    0.0000 C   0  0  0  0  0  0  0  0  0  0  0  0
    2.1309   -1.2785    0.0000 C   0  0  0  0  0  0  0  0  0  0  0  0
    3.1482   -0.1375    0.0000 C   0  0  0  0  0  0  0  0  0  0  0  0
  1  6  1  0  0  0  0
  2  7  1  0  0  0  0
  3  8  1  0  0  0  0
  3 13  1  0  0  0  0
  4  5  1  0  0  0  0
  4 12  2  0  0  0  0
  5  9  2  0  0  0  0
  5 10  1  0  0  0  0
  6 10  2  0  0  0  0
  6 11  1  0  0  0  0
  7  9  1  0  0  0  0
  7 11  2  0  0  0  0
  8 12  1  0  0  0  0
  8 14  2  0  0  0  0
 13 15  2  0  0  0  0
 13 16  1  0  0  0  0
 14 15  1  0  0  0  0
M  END
> <PUBCHEM_COMPOUND_ID_TYPE>
0

> <PUBCHEM_TOTAL_CHARGE>
0

> <PUBCHEM_SUBSTANCE_ID>
310940424

> <PUBCHEM_SUBSTANCE_VERSION>
1

> <PUBCHEM_EXT_DATASOURCE_NAME>
4488

> <PUBCHEM_EXT_DATASOURCE_REGID>
SCHEMBL16118372

> <PUBCHEM_SUBSTANCE_COMMENT>
InChI=1S/C12H9F2NO/c1-8-2-3-12(16-8)7-15-11-5-9(13)4-10(14)6-11/h2-7H,1H3/b15-7+
InChIKey=ADXVVPIELDFGKJ-VIZOYTHASA-N

> <PUBCHEM_SUBSTANCE_SYNONYM>
SCHEMBL16118372

> <PUBCHEM_XREF_EXT_ID>
SCHEMBL16118372

> <PUBCHEM_EXT_DATASOURCE_URL>
https://www.surechembl.org/

> <PUBCHEM_EXT_SUBSTANCE_URL>
https://www.surechembl.org/chemical/SCHEMBL16118372

> <PUBCHEM_CID_ASSOCIATIONS>
117607449  1

> <PUBCHEM_COORDINATE_TYPE>
1
3

$$$$
