310947432
  -OEChem-07211613022D

 23 24  0     0  0  0  0  0  0999 V2000
   -1.0636    2.0223    0.0000 O   0  0  0  0  0  0  0  0  0  0  0  0
    3.2233    2.0223    0.0000 O   0  0  0  0  0  0  0  0  0  0  0  0
    2.5088    3.2598    0.0000 O   0  0  0  0  0  0  0  0  0  0  0  0
   -1.7780    0.7848    0.0000 N   0  0  0  0  0  0  0  0  0  0  0  0
   -1.0636    1.1973    0.0000 C   0  0  0  0  0  0  0  0  0  0  0  0
   -1.7780   -0.0402    0.0000 C   0  0  0  0  0  0  0  0  0  0  0  0
    0.3654    1.1973    0.0000 C   0  0  0  0  0  0  0  0  0  0  0  0
   -0.3491    0.7848    0.0000 C   0  0  0  0  0  0  0  0  0  0  0  0
    1.7943    2.0223    0.0000 C   0  0  0  0  0  0  0  0  0  0  0  0
    1.0798    0.7848    0.0000 C   0  0  0  0  0  0  0  0  0  0  0  0
    0.3654    2.0223    0.0000 C   0  0  0  0  0  0  0  0  0  0  0  0
    1.7943    1.1973    0.0000 C   0  0  0  0  0  0  0  0  0  0  0  0
    1.0798    2.4348    0.0000 C   0  0  0  0  0  0  0  0  0  0  0  0
    2.5088    2.4348    0.0000 C   0  0  0  0  0  0  0  0  0  0  0  0
   -2.4925    1.1973    0.0000 C   0  0  0  0  0  0  0  0  0  0  0  0
   -1.0636   -0.4527    0.0000 C   0  0  0  0  0  0  0  0  0  0  0  0
   -2.4925   -0.4527    0.0000 C   0  0  0  0  0  0  0  0  0  0  0  0
   -1.0636   -1.2777    0.0000 C   0  0  0  0  0  0  0  0  0  0  0  0
   -2.4925   -1.2777    0.0000 C   0  0  0  0  0  0  0  0  0  0  0  0
   -1.7780   -1.6902    0.0000 C   0  0  0  0  0  0  0  0  0  0  0  0
   -2.4925    2.0223    0.0000 C   0  0  0  0  0  0  0  0  0  0  0  0
    3.2233    1.1973    0.0000 C   0  0  0  0  0  0  0  0  0  0  0  0
   -3.2070    2.4348    0.0000 C   0  0  0  0  0  0  0  0  0  0  0  0
  1  5  2  0  0  0  0
  2 14  1  0  0  0  0
  2 22  1  0  0  0  0
  3 14  2  0  0  0  0
  4  5  1  0  0  0  0
  4  6  1  0  0  0  0
  4 15  1  0  0  0  0
  5  8  1  0  0  0  0
  6 16  2  0  0  0  0
  6 17  1  0  0  0  0
  7  8  1  0  0  0  0
  7 10  2  0  0  0  0
  7 11  1  0  0  0  0
  9 12  2  0  0  0  0
  9 13  1  0  0  0  0
  9 14  1  0  0  0  0
 10 12  1  0  0  0  0
 11 13  2  0  0  0  0
 15 21  1  0  0  0  0
 16 18  1  0  0  0  0
 17 19  2  0  0  0  0
 18 20  2  0  0  0  0
 19 20  1  0  0  0  0
 21 23  1  0  0  0  0
M  END
> <PUBCHEM_COMPOUND_ID_TYPE>
0

> <PUBCHEM_TOTAL_CHARGE>
0

> <PUBCHEM_SUBSTANCE_ID>
310947432

> <PUBCHEM_SUBSTANCE_VERSION>
1

> <PUBCHEM_EXT_DATASOURCE_NAME>
4488

> <PUBCHEM_EXT_DATASOURCE_REGID>
SCHEMBL16125593

> <PUBCHEM_SUBSTANCE_COMMENT>
InChI=1S/C19H21NO3/c1-3-13-20(17-7-5-4-6-8-17)18(21)14-15-9-11-16(12-10-15)19(22)23-2/h4-12H,3,13-14H2,1-2H3
InChIKey=YZORPWWVCFJFDZ-UHFFFAOYSA-N

> <PUBCHEM_SUBSTANCE_SYNONYM>
SCHEMBL16125593

> <PUBCHEM_XREF_EXT_ID>
SCHEMBL16125593

> <PUBCHEM_EXT_DATASOURCE_URL>
https://www.surechembl.org/

> <PUBCHEM_EXT_SUBSTANCE_URL>
https://www.surechembl.org/chemical/SCHEMBL16125593

> <PUBCHEM_CID_ASSOCIATIONS>
117613164  1

> <PUBCHEM_COORDINATE_TYPE>
1
3

$$$$
