310941551
  -OEChem-07211613022D

 36 39  0     0  0  0  0  0  0999 V2000
    4.3675    1.5299    0.0000 S   0  0  0  0  0  0  0  0  0  0  0  0
    2.0256   -1.1197    0.0000 O   0  0  0  0  0  0  0  0  0  0  0  0
    3.4444   -1.1197    0.0000 O   0  0  0  0  0  0  0  0  0  0  0  0
   -0.8461   -1.1197    0.0000 O   0  0  0  0  0  0  0  0  0  0  0  0
    7.2565    0.5384    0.0000 O   0  0  0  0  0  0  0  0  0  0  0  0
    4.2308    0.1966    0.0000 N   0  0  0  0  0  0  0  0  0  0  0  0
    5.5983    0.7265    0.0000 N   0  0  0  0  0  0  0  0  0  0  0  0
    2.7436    0.1282    0.0000 C   0  0  0  0  0  0  0  0  0  0  0  0
    3.4444    0.5384    0.0000 C   0  0  0  0  0  0  0  0  0  0  0  0
    1.3077    0.1282    0.0000 C   0  0  0  0  0  0  0  0  0  0  0  0
    1.2906   -0.6923    0.0000 C   0  0  0  0  0  0  0  0  0  0  0  0
    2.7094   -0.6923    0.0000 C   0  0  0  0  0  0  0  0  0  0  0  0
    2.0428    0.5214    0.0000 C   0  0  0  0  0  0  0  0  0  0  0  0
    4.7778    0.8291    0.0000 C   0  0  0  0  0  0  0  0  0  0  0  0
    3.5471    1.3590    0.0000 C   0  0  0  0  0  0  0  0  0  0  0  0
    0.5897   -1.1197    0.0000 C   0  0  0  0  0  0  0  0  0  0  0  0
    0.6068    0.5214    0.0000 C   0  0  0  0  0  0  0  0  0  0  0  0
   -0.1282   -0.7094    0.0000 C   0  0  0  0  0  0  0  0  0  0  0  0
   -0.1111    0.1282    0.0000 C   0  0  0  0  0  0  0  0  0  0  0  0
    5.9231   -0.0086    0.0000 C   0  0  0  0  0  0  0  0  0  0  0  0
    6.7608   -0.1111    0.0000 C   0  0  0  0  0  0  0  0  0  0  0  0
    5.4616   -0.6923    0.0000 C   0  0  0  0  0  0  0  0  0  0  0  0
    7.0855   -0.8804    0.0000 C   0  0  0  0  0  0  0  0  0  0  0  0
    5.7863   -1.4445    0.0000 C   0  0  0  0  0  0  0  0  0  0  0  0
    6.6069   -1.5299    0.0000 C   0  0  0  0  0  0  0  0  0  0  0  0
   -1.5812   -0.7094    0.0000 C   0  0  0  0  0  0  0  0  0  0  0  0
   -2.2821   -1.1197    0.0000 C   0  0  0  0  0  0  0  0  0  0  0  0
    8.0599    0.4188    0.0000 C   0  0  0  0  0  0  0  0  0  0  0  0
   -3.0171   -0.7094    0.0000 C   0  0  0  0  0  0  0  0  0  0  0  0
   -3.7351   -1.1197    0.0000 C   0  0  0  0  0  0  0  0  0  0  0  0
   -4.4530   -0.7094    0.0000 C   0  0  0  0  0  0  0  0  0  0  0  0
   -5.1539   -1.1197    0.0000 C   0  0  0  0  0  0  0  0  0  0  0  0
   -5.9060   -0.7094    0.0000 C   0  0  0  0  0  0  0  0  0  0  0  0
   -6.6069   -1.1197    0.0000 C   0  0  0  0  0  0  0  0  0  0  0  0
   -7.3249   -0.7094    0.0000 C   0  0  0  0  0  0  0  0  0  0  0  0
   -8.0599   -1.1368    0.0000 C   0  0  0  0  0  0  0  0  0  0  0  0
  1 14  1  0  0  0  0
  1 15  1  0  0  0  0
  2 11  1  0  0  0  0
  2 12  1  0  0  0  0
  3 12  2  0  0  0  0
  4 18  1  0  0  0  0
  4 26  1  0  0  0  0
  5 21  1  0  0  0  0
  5 28  1  0  0  0  0
  6  9  1  0  0  0  0
  6 14  2  0  0  0  0
  7 14  1  0  0  0  0
  7 20  1  0  0  0  0
  8  9  1  0  0  0  0
  8 12  1  0  0  0  0
  8 13  2  0  0  0  0
  9 15  2  0  0  0  0
 10 11  1  0  0  0  0
 10 13  1  0  0  0  0
 10 17  2  0  0  0  0
 11 16  2  0  0  0  0
 16 18  1  0  0  0  0
 17 19  1  0  0  0  0
 18 19  2  0  0  0  0
 20 21  1  0  0  0  0
 20 22  2  0  0  0  0
 21 23  2  0  0  0  0
 22 24  1  0  0  0  0
 23 25  1  0  0  0  0
 24 25  2  0  0  0  0
 26 27  1  0  0  0  0
 27 29  1  0  0  0  0
 29 30  1  0  0  0  0
 30 31  1  0  0  0  0
 31 32  1  0  0  0  0
 32 33  1  0  0  0  0
 33 34  1  0  0  0  0
 34 35  1  0  0  0  0
 35 36  1  0  0  0  0
M  END
> <PUBCHEM_COMPOUND_ID_TYPE>
0

> <PUBCHEM_TOTAL_CHARGE>
0

> <PUBCHEM_SUBSTANCE_ID>
310941551

> <PUBCHEM_SUBSTANCE_VERSION>
1

> <PUBCHEM_EXT_DATASOURCE_NAME>
4488

> <PUBCHEM_EXT_DATASOURCE_REGID>
SCHEMBL16119582

> <PUBCHEM_SUBSTANCE_COMMENT>
InChI=1S/C29H34N2O4S/c1-3-4-5-6-7-8-9-12-17-34-22-16-15-21-18-23(28(32)35-27(21)19-22)25-20-36-29(31-25)30-24-13-10-11-14-26(24)33-2/h10-11,13-16,18-20H,3-9,12,17H2,1-2H3,(H,30,31)
InChIKey=AEIRZKUJYDYXBW-UHFFFAOYSA-N

> <PUBCHEM_SUBSTANCE_SYNONYM>
SCHEMBL16119582

> <PUBCHEM_XREF_EXT_ID>
SCHEMBL16119582

> <PUBCHEM_EXT_DATASOURCE_URL>
https://www.surechembl.org/

> <PUBCHEM_EXT_SUBSTANCE_URL>
https://www.surechembl.org/chemical/SCHEMBL16119582

> <PUBCHEM_CID_ASSOCIATIONS>
117608357  1

> <PUBCHEM_COORDINATE_TYPE>
1
3

$$$$
