310935709
  -OEChem-07211613022D

 34 38  0     0  0  0  0  0  0999 V2000
    2.5067   -0.7933    0.0000 S   0  0  0  0  0  0  0  0  0  0  0  0
    2.5067   -1.7135    0.0000 O   0  0  0  0  0  0  0  0  0  0  0  0
    2.5067    0.0000    0.0000 O   0  0  0  0  0  0  0  0  0  0  0  0
    6.2192   -1.5231    0.0000 N   0  0  0  0  0  0  0  0  0  0  0  0
    8.7259   -1.5548    0.0000 N   0  0  0  0  0  0  0  0  0  0  0  0
    7.4567   -0.8250    0.0000 N   0  0  0  0  0  0  0  0  0  0  0  0
    3.3317   -0.7933    0.0000 N   0  0  0  0  0  0  0  0  0  0  0  0
    7.0124   -5.8384    0.0000 N   0  0  0  0  0  0  0  0  0  0  0  0
    7.4567   -2.2528    0.0000 C   0  0  0  0  0  0  0  0  0  0  0  0
    8.2816   -2.2846    0.0000 C   0  0  0  0  0  0  0  0  0  0  0  0
    7.0442   -1.5231    0.0000 C   0  0  0  0  0  0  0  0  0  0  0  0
    8.6941   -2.9827    0.0000 C   0  0  0  0  0  0  0  0  0  0  0  0
    7.4567   -3.6807    0.0000 C   0  0  0  0  0  0  0  0  0  0  0  0
    7.0442   -2.9509    0.0000 C   0  0  0  0  0  0  0  0  0  0  0  0
    8.2816   -3.6807    0.0000 C   0  0  0  0  0  0  0  0  0  0  0  0
    7.0442   -4.4105    0.0000 C   0  0  0  0  0  0  0  0  0  0  0  0
    8.2816   -0.8250    0.0000 C   0  0  0  0  0  0  0  0  0  0  0  0
    5.8067   -2.2528    0.0000 C   0  0  0  0  0  0  0  0  0  0  0  0
    5.8067   -0.8250    0.0000 C   0  0  0  0  0  0  0  0  0  0  0  0
    4.5692   -1.5231    0.0000 C   0  0  0  0  0  0  0  0  0  0  0  0
    4.9817   -2.2528    0.0000 C   0  0  0  0  0  0  0  0  0  0  0  0
    4.9817   -0.8250    0.0000 C   0  0  0  0  0  0  0  0  0  0  0  0
    9.5192   -2.9509    0.0000 C   0  0  0  0  0  0  0  0  0  0  0  0
    1.7135   -0.7933    0.0000 C   0  0  0  0  0  0  0  0  0  0  0  0
    7.4249   -5.1404    0.0000 C   0  0  0  0  0  0  0  0  0  0  0  0
    6.1875   -4.4105    0.0000 C   0  0  0  0  0  0  0  0  0  0  0  0
    3.7442   -1.5231    0.0000 C   0  0  0  0  0  0  0  0  0  0  0  0
    1.2692   -1.5231    0.0000 C   0  0  0  0  0  0  0  0  0  0  0  0
    1.2692   -0.0952    0.0000 C   0  0  0  0  0  0  0  0  0  0  0  0
    5.7750   -5.1086    0.0000 C   0  0  0  0  0  0  0  0  0  0  0  0
    6.1875   -5.8701    0.0000 C   0  0  0  0  0  0  0  0  0  0  0  0
    0.4443   -1.5231    0.0000 C   0  0  0  0  0  0  0  0  0  0  0  0
    0.4443   -0.0952    0.0000 C   0  0  0  0  0  0  0  0  0  0  0  0
    0.0000   -0.7933    0.0000 C   0  0  0  0  0  0  0  0  0  0  0  0
  1  2  2  0  0  0  0
  1  3  2  0  0  0  0
  1  7  1  0  0  0  0
  1 24  1  0  0  0  0
  4 11  1  0  0  0  0
  4 18  1  0  0  0  0
  4 19  1  0  0  0  0
  5 10  2  0  0  0  0
  5 17  1  0  0  0  0
  6 11  1  0  0  0  0
  6 17  2  0  0  0  0
  7 27  1  0  0  0  0
  8 25  1  0  0  0  0
  8 31  2  0  0  0  0
  9 10  1  0  0  0  0
  9 11  2  0  0  0  0
  9 14  1  0  0  0  0
 10 12  1  0  0  0  0
 12 15  2  0  0  0  0
 12 23  1  0  0  0  0
 13 14  2  0  0  0  0
 13 15  1  0  0  0  0
 13 16  1  0  0  0  0
 16 25  2  0  0  0  0
 16 26  1  0  0  0  0
 18 21  1  0  0  0  0
 19 22  1  0  0  0  0
 20 21  1  0  0  0  0
 20 22  1  0  0  0  0
 20 27  1  0  0  0  0
 24 28  2  0  0  0  0
 24 29  1  0  0  0  0
 26 30  2  0  0  0  0
 28 32  1  0  0  0  0
 29 33  2  0  0  0  0
 30 31  1  0  0  0  0
 32 34  2  0  0  0  0
 33 34  1  0  0  0  0
M  END
> <PUBCHEM_COMPOUND_ID_TYPE>
0

> <PUBCHEM_TOTAL_CHARGE>
0

> <PUBCHEM_SUBSTANCE_ID>
310935709

> <PUBCHEM_SUBSTANCE_VERSION>
1

> <PUBCHEM_EXT_DATASOURCE_NAME>
4488

> <PUBCHEM_EXT_DATASOURCE_REGID>
SCHEMBL16113293

> <PUBCHEM_SUBSTANCE_COMMENT>
InChI=1S/C26H27N5O2S/c1-19-14-22(21-6-5-11-27-17-21)15-24-25(19)28-18-29-26(24)31-12-9-20(10-13-31)16-30-34(32,33)23-7-3-2-4-8-23/h2-8,11,14-15,17-18,20,30H,9-10,12-13,16H2,1H3
InChIKey=FTKLQQGDEOQJSM-UHFFFAOYSA-N

> <PUBCHEM_SUBSTANCE_SYNONYM>
SCHEMBL16113293

> <PUBCHEM_XREF_EXT_ID>
SCHEMBL16113293

> <PUBCHEM_EXT_DATASOURCE_URL>
https://www.surechembl.org/

> <PUBCHEM_EXT_SUBSTANCE_URL>
https://www.surechembl.org/chemical/SCHEMBL16113293

> <PUBCHEM_CID_ASSOCIATIONS>
117603715  1

> <PUBCHEM_COORDINATE_TYPE>
1
3

$$$$
