310937544
  -OEChem-07211613022D

 27 30  0     0  0  0  0  0  0999 V2000
    1.4509   -0.8535    0.0000 F   0  0  0  0  0  0  0  0  0  0  0  0
    2.1621   -2.0768    0.0000 F   0  0  0  0  0  0  0  0  0  0  0  0
    2.1621   -0.4267    0.0000 F   0  0  0  0  0  0  0  0  0  0  0  0
    4.2389    0.0000    0.0000 O   0  0  0  0  0  0  0  0  0  0  0  0
    3.5561   -1.2233    0.0000 N   0  0  0  0  0  0  0  0  0  0  0  0
    4.2389   -3.2716    0.0000 N   0  0  0  0  0  0  0  0  0  0  0  0
    5.7467   -2.3328    0.0000 N   0  0  0  0  0  0  0  0  0  0  0  0
    6.2019   -1.6501    0.0000 N   0  0  0  0  0  0  0  0  0  0  0  0
    1.4509   -3.2716    0.0000 N   0  0  0  0  0  0  0  0  0  0  0  0
    0.7397   -4.4665    0.0000 N   0  0  0  0  0  0  0  0  0  0  0  0
    0.0000   -3.2147    0.0000 N   0  0  0  0  0  0  0  0  0  0  0  0
    3.5561   -2.0768    0.0000 C   0  0  0  0  0  0  0  0  0  0  0  0
    4.2389   -2.4751    0.0000 C   0  0  0  0  0  0  0  0  0  0  0  0
    4.9786   -2.0768    0.0000 C   0  0  0  0  0  0  0  0  0  0  0  0
    4.9786   -1.2233    0.0000 C   0  0  0  0  0  0  0  0  0  0  0  0
    4.2389   -0.8250    0.0000 C   0  0  0  0  0  0  0  0  0  0  0  0
    2.8449   -2.4751    0.0000 C   0  0  0  0  0  0  0  0  0  0  0  0
    2.8449   -3.2716    0.0000 C   0  0  0  0  0  0  0  0  0  0  0  0
    2.8733   -0.8250    0.0000 C   0  0  0  0  0  0  0  0  0  0  0  0
    5.7467   -0.9673    0.0000 C   0  0  0  0  0  0  0  0  0  0  0  0
    3.5561   -3.6699    0.0000 C   0  0  0  0  0  0  0  0  0  0  0  0
    2.1337   -3.6699    0.0000 C   0  0  0  0  0  0  0  0  0  0  0  0
    2.1621   -1.2518    0.0000 C   0  0  0  0  0  0  0  0  0  0  0  0
    2.1621   -4.4950    0.0000 C   0  0  0  0  0  0  0  0  0  0  0  0
    0.7112   -3.6415    0.0000 C   0  0  0  0  0  0  0  0  0  0  0  0
    1.4225   -4.8648    0.0000 C   0  0  0  0  0  0  0  0  0  0  0  0
    1.3940   -5.6898    0.0000 C   0  0  0  0  0  0  0  0  0  0  0  0
  1 23  1  0  0  0  0
  2 23  1  0  0  0  0
  3 23  1  0  0  0  0
  4 16  2  0  0  0  0
  5 12  1  0  0  0  0
  5 16  1  0  0  0  0
  5 19  1  0  0  0  0
  6 13  2  0  0  0  0
  6 21  1  0  0  0  0
  7  8  1  0  0  0  0
  7 14  1  0  0  0  0
  8 20  2  0  0  0  0
  9 22  2  0  0  0  0
  9 25  1  0  0  0  0
 10 25  2  0  0  0  0
 10 26  1  0  0  0  0
 11 25  1  0  0  0  0
 12 13  1  0  0  0  0
 12 17  2  0  0  0  0
 13 14  1  0  0  0  0
 14 15  2  0  0  0  0
 15 16  1  0  0  0  0
 15 20  1  0  0  0  0
 17 18  1  0  0  0  0
 18 21  2  0  0  0  0
 18 22  1  0  0  0  0
 19 23  1  0  0  0  0
 22 24  1  0  0  0  0
 24 26  2  0  0  0  0
 26 27  1  0  0  0  0
M  END
> <PUBCHEM_COMPOUND_ID_TYPE>
0

> <PUBCHEM_TOTAL_CHARGE>
0

> <PUBCHEM_SUBSTANCE_ID>
310937544

> <PUBCHEM_SUBSTANCE_VERSION>
1

> <PUBCHEM_EXT_DATASOURCE_NAME>
4488

> <PUBCHEM_EXT_DATASOURCE_REGID>
SCHEMBL16115321

> <PUBCHEM_SUBSTANCE_COMMENT>
InChI=1S/C16H12F3N7O/c1-7-2-10(24-15(20)23-7)8-3-11-13(21-4-8)12-9(5-22-25-12)14(27)26(11)6-16(17,18)19/h2-5H,6H2,1H3,(H,22,25)(H2,20,23,24)
InChIKey=AJNCWLQFGOYXOQ-UHFFFAOYSA-N

> <PUBCHEM_SUBSTANCE_SYNONYM>
SCHEMBL16115321

> <PUBCHEM_XREF_EXT_ID>
SCHEMBL16115321

> <PUBCHEM_EXT_DATASOURCE_URL>
https://www.surechembl.org/

> <PUBCHEM_EXT_SUBSTANCE_URL>
https://www.surechembl.org/chemical/SCHEMBL16115321

> <PUBCHEM_CID_ASSOCIATIONS>
86299020  1

> <PUBCHEM_COORDINATE_TYPE>
1
3

$$$$
