310936897
  -OEChem-07211613022D

 21 23  0     0  0  0  0  0  0999 V2000
    0.6171   -2.9173    0.0000 Cl  0  0  0  0  0  0  0  0  0  0  0  0
    0.1963   -3.9832    0.0000 F   0  0  0  0  0  0  0  0  0  0  0  0
    0.3366   -5.6101    0.0000 O   0  0  0  0  0  0  0  0  0  0  0  0
    4.6845   -2.2160    0.0000 O   0  0  0  0  0  0  0  0  0  0  0  0
    2.8331   -3.8990    0.0000 N   0  0  0  0  0  0  0  0  0  0  0  0
    3.4222   -1.8233    0.0000 N   0  0  0  0  0  0  0  0  0  0  0  0
    4.2076   -2.8892    0.0000 N   0  0  0  0  0  0  0  0  0  0  0  0
    0.7854   -4.5161    0.0000 C   0  0  0  0  0  0  0  0  0  0  0  0
    1.4587   -4.0393    0.0000 C   0  0  0  0  0  0  0  0  0  0  0  0
    2.7490   -3.1136    0.0000 C   0  0  0  0  0  0  0  0  0  0  0  0
    1.3465   -3.2539    0.0000 C   0  0  0  0  0  0  0  0  0  0  0  0
    3.4222   -2.6367    0.0000 C   0  0  0  0  0  0  0  0  0  0  0  0
    0.0000   -4.8808    0.0000 C   0  0  0  0  0  0  0  0  0  0  0  0
    1.1220   -5.2735    0.0000 C   0  0  0  0  0  0  0  0  0  0  0  0
    4.2076   -1.5428    0.0000 C   0  0  0  0  0  0  0  0  0  0  0  0
    2.1879   -4.4039    0.0000 C   0  0  0  0  0  0  0  0  0  0  0  0
    2.0196   -2.7490    0.0000 C   0  0  0  0  0  0  0  0  0  0  0  0
    4.4600   -0.7574    0.0000 C   0  0  0  0  0  0  0  0  0  0  0  0
    5.2455   -1.0379    0.0000 C   0  0  0  0  0  0  0  0  0  0  0  0
    4.7125    0.0000    0.0000 C   0  0  0  0  0  0  0  0  0  0  0  0
    3.6746   -0.5049    0.0000 C   0  0  0  0  0  0  0  0  0  0  0  0
  1 11  1  0  0  0  0
  2  8  1  0  0  0  0
  3 13  1  0  0  0  0
  3 14  1  0  0  0  0
  4  7  1  0  0  0  0
  4 15  1  0  0  0  0
  5 10  1  0  0  0  0
  5 16  2  0  0  0  0
  6 12  1  0  0  0  0
  6 15  2  0  0  0  0
  7 12  2  0  0  0  0
  8  9  1  0  0  0  0
  8 13  1  0  0  0  0
  8 14  1  0  0  0  0
  9 11  2  0  0  0  0
  9 16  1  0  0  0  0
 10 12  1  0  0  0  0
 10 17  2  0  0  0  0
 11 17  1  0  0  0  0
 15 18  1  0  0  0  0
 18 19  1  0  0  0  0
 18 20  1  0  0  0  0
 18 21  1  0  0  0  0
M  END
> <PUBCHEM_COMPOUND_ID_TYPE>
0

> <PUBCHEM_TOTAL_CHARGE>
0

> <PUBCHEM_SUBSTANCE_ID>
310936897

> <PUBCHEM_SUBSTANCE_VERSION>
1

> <PUBCHEM_EXT_DATASOURCE_NAME>
4488

> <PUBCHEM_EXT_DATASOURCE_REGID>
SCHEMBL16114595

> <PUBCHEM_SUBSTANCE_COMMENT>
InChI=1S/C14H15ClFN3O2/c1-13(2,3)12-18-11(19-21-12)10-4-9(15)8(5-17-10)14(16)6-20-7-14/h4-5H,6-7H2,1-3H3
InChIKey=QKWJKWWGALDXLP-UHFFFAOYSA-N

> <PUBCHEM_SUBSTANCE_SYNONYM>
SCHEMBL16114595

> <PUBCHEM_XREF_EXT_ID>
SCHEMBL16114595

> <PUBCHEM_EXT_DATASOURCE_URL>
https://www.surechembl.org/

> <PUBCHEM_EXT_SUBSTANCE_URL>
https://www.surechembl.org/chemical/SCHEMBL16114595

> <PUBCHEM_CID_ASSOCIATIONS>
117604783  1

> <PUBCHEM_COORDINATE_TYPE>
1
3

$$$$
