310936149
  -OEChem-07211613022D

 18 18  0     0  0  0  0  0  0999 V2000
    0.8164   -0.7067    0.0000 O   0  0  0  0  0  0  0  0  0  0  0  0
    2.6738    0.4876    0.0000 O   0  0  0  0  0  0  0  0  0  0  0  0
    2.5244   -0.9335    0.0000 O   0  0  0  0  0  0  0  0  0  0  0  0
   -2.0807   -0.7837    0.0000 O   0  0  0  0  0  0  0  0  0  0  0  0
   -1.3663    0.4538    0.0000 O   0  0  0  0  0  0  0  0  0  0  0  0
    0.1489    0.4493    0.0000 N   0  0  0  0  0  0  0  0  0  0  0  0
   -0.6518   -0.7837    0.0000 N   0  0  0  0  0  0  0  0  0  0  0  0
    1.3684   -0.0936    0.0000 C   0  0  0  0  0  0  0  0  0  0  0  0
    0.0627   -0.3712    0.0000 C   0  0  0  0  0  0  0  0  0  0  0  0
    2.1889   -0.1799    0.0000 C   0  0  0  0  0  0  0  0  0  0  0  0
    0.9559    0.6209    0.0000 C   0  0  0  0  0  0  0  0  0  0  0  0
   -1.3663   -0.3712    0.0000 C   0  0  0  0  0  0  0  0  0  0  0  0
    3.4943    0.4014    0.0000 C   0  0  0  0  0  0  0  0  0  0  0  0
   -2.7952   -0.3712    0.0000 C   0  0  0  0  0  0  0  0  0  0  0  0
   -3.5097   -0.7837    0.0000 C   0  0  0  0  0  0  0  0  0  0  0  0
    3.9792    1.0688    0.0000 C   0  0  0  0  0  0  0  0  0  0  0  0
   -4.2241   -0.3712    0.0000 C   0  0  0  0  0  0  0  0  0  0  0  0
   -4.9386   -0.7837    0.0000 C   0  0  0  0  0  0  0  0  0  0  0  0
  1  8  1  0  0  0  0
  1  9  1  0  0  0  0
  2 10  1  0  0  0  0
  2 13  1  0  0  0  0
  3 10  2  0  0  0  0
  4 12  1  0  0  0  0
  4 14  1  0  0  0  0
  5 12  2  0  0  0  0
  6  9  2  0  0  0  0
  6 11  1  0  0  0  0
  7  9  1  0  0  0  0
  7 12  1  0  0  0  0
  8 10  1  0  0  0  0
  8 11  2  0  0  0  0
 13 16  1  0  0  0  0
 14 15  1  0  0  0  0
 15 17  1  0  0  0  0
 17 18  1  0  0  0  0
M  END
> <PUBCHEM_COMPOUND_ID_TYPE>
0

> <PUBCHEM_TOTAL_CHARGE>
0

> <PUBCHEM_SUBSTANCE_ID>
310936149

> <PUBCHEM_SUBSTANCE_VERSION>
1

> <PUBCHEM_EXT_DATASOURCE_NAME>
4488

> <PUBCHEM_EXT_DATASOURCE_REGID>
SCHEMBL16113759

> <PUBCHEM_SUBSTANCE_COMMENT>
InChI=1S/C11H16N2O5/c1-3-5-6-17-11(15)13-10-12-7-8(18-10)9(14)16-4-2/h7H,3-6H2,1-2H3,(H,12,13,15)
InChIKey=UDFXKPVUQGEHRV-UHFFFAOYSA-N

> <PUBCHEM_SUBSTANCE_SYNONYM>
SCHEMBL16113759

> <PUBCHEM_XREF_EXT_ID>
SCHEMBL16113759

> <PUBCHEM_EXT_DATASOURCE_URL>
https://www.surechembl.org/

> <PUBCHEM_EXT_SUBSTANCE_URL>
https://www.surechembl.org/chemical/SCHEMBL16113759

> <PUBCHEM_CID_ASSOCIATIONS>
117604113  1

> <PUBCHEM_COORDINATE_TYPE>
1
3

$$$$
