310944726
  -OEChem-07211613022D

 26 27  0     0  0  0  0  0  0999 V2000
   -4.7293    0.8222    0.0000 Cl  0  0  0  0  0  0  0  0  0  0  0  0
   -4.7293   -0.8222    0.0000 Cl  0  0  0  0  0  0  0  0  0  0  0  0
   -1.7124   -0.8222    0.0000 O   0  0  0  0  0  0  0  0  0  0  0  0
   -0.2906    1.6506    0.0000 O   0  0  0  0  0  0  0  0  0  0  0  0
    2.5779   -1.6506    0.0000 O   0  0  0  0  0  0  0  0  0  0  0  0
    4.7169   -0.4142    0.0000 O   0  0  0  0  0  0  0  0  0  0  0  0
    0.4389    0.4142    0.0000 N   0  0  0  0  0  0  0  0  0  0  0  0
    1.8855   -0.4018    0.0000 N   0  0  0  0  0  0  0  0  0  0  0  0
   -1.7001    0.8346    0.0000 N   0  0  0  0  0  0  0  0  0  0  0  0
   -2.4172    0.4266    0.0000 C   0  0  0  0  0  0  0  0  0  0  0  0
   -2.4295   -0.4018    0.0000 C   0  0  0  0  0  0  0  0  0  0  0  0
   -3.8390    0.4142    0.0000 C   0  0  0  0  0  0  0  0  0  0  0  0
   -3.8514   -0.4018    0.0000 C   0  0  0  0  0  0  0  0  0  0  0  0
   -0.2906    0.8222    0.0000 C   0  0  0  0  0  0  0  0  0  0  0  0
   -3.1219    0.8222    0.0000 C   0  0  0  0  0  0  0  0  0  0  0  0
   -3.1343   -0.8098    0.0000 C   0  0  0  0  0  0  0  0  0  0  0  0
   -0.9829    0.4142    0.0000 C   0  0  0  0  0  0  0  0  0  0  0  0
    0.4513   -0.4142    0.0000 C   0  0  0  0  0  0  0  0  0  0  0  0
    1.1561    0.8222    0.0000 C   0  0  0  0  0  0  0  0  0  0  0  0
    1.1684   -0.8222    0.0000 C   0  0  0  0  0  0  0  0  0  0  0  0
    1.8731    0.4142    0.0000 C   0  0  0  0  0  0  0  0  0  0  0  0
    2.5903   -0.7975    0.0000 C   0  0  0  0  0  0  0  0  0  0  0  0
    3.2456   -0.4266    0.0000 C   0  0  0  0  0  0  0  0  0  0  0  0
    3.3321    0.4389    0.0000 C   0  0  0  0  0  0  0  0  0  0  0  0
    4.0121    0.8222    0.0000 C   0  0  0  0  0  0  0  0  0  0  0  0
    4.7293    0.4142    0.0000 C   0  0  0  0  0  0  0  0  0  0  0  0
  1 12  1  0  0  0  0
  2 13  1  0  0  0  0
  3 11  1  0  0  0  0
  4 14  2  0  0  0  0
  5 22  2  0  0  0  0
  6 26  1  0  0  0  0
  7 14  1  0  0  0  0
  7 18  1  0  0  0  0
  7 19  1  0  0  0  0
  8 20  1  0  0  0  0
  8 21  1  0  0  0  0
  8 22  1  0  0  0  0
  9 10  1  0  0  0  0
  9 17  1  0  0  0  0
 10 11  1  0  0  0  0
 10 15  2  0  0  0  0
 11 16  2  0  0  0  0
 12 13  2  0  0  0  0
 12 15  1  0  0  0  0
 13 16  1  0  0  0  0
 14 17  1  0  0  0  0
 18 20  1  0  0  0  0
 19 21  1  0  0  0  0
 22 23  1  0  0  0  0
 23 24  2  0  0  0  0
 24 25  1  0  0  0  0
 25 26  1  0  0  0  0
M  END
> <PUBCHEM_COMPOUND_ID_TYPE>
0

> <PUBCHEM_TOTAL_CHARGE>
0

> <PUBCHEM_SUBSTANCE_ID>
310944726

> <PUBCHEM_SUBSTANCE_VERSION>
1

> <PUBCHEM_EXT_DATASOURCE_NAME>
4488

> <PUBCHEM_EXT_DATASOURCE_REGID>
SCHEMBL16122805

> <PUBCHEM_SUBSTANCE_COMMENT>
InChI=1S/C17H21Cl2N3O4/c18-12-9-14(15(24)10-13(12)19)20-11-17(26)22-6-4-21(5-7-22)16(25)3-1-2-8-23/h1,3,9-10,20,23-24H,2,4-8,11H2/b3-1+
InChIKey=ZBYOPWIULXGEJF-HNQUOIGGSA-N

> <PUBCHEM_SUBSTANCE_SYNONYM>
SCHEMBL16122805

> <PUBCHEM_XREF_EXT_ID>
SCHEMBL16122805

> <PUBCHEM_EXT_DATASOURCE_URL>
https://www.surechembl.org/

> <PUBCHEM_EXT_SUBSTANCE_URL>
https://www.surechembl.org/chemical/SCHEMBL16122805

> <PUBCHEM_CID_ASSOCIATIONS>
117610945  1

> <PUBCHEM_COORDINATE_TYPE>
1
3

$$$$
