310936890
  -OEChem-07211613022D

 23 26  0     0  0  0  0  0  0999 V2000
    0.6681   -1.0155    0.0000 F   0  0  0  0  0  0  0  0  0  0  0  0
    0.1069   -2.3517    0.0000 F   0  0  0  0  0  0  0  0  0  0  0  0
    0.0000   -1.5233    0.0000 F   0  0  0  0  0  0  0  0  0  0  0  0
    5.7456   -2.2715    0.0000 O   0  0  0  0  0  0  0  0  0  0  0  0
    1.6301   -2.9930    0.0000 O   0  0  0  0  0  0  0  0  0  0  0  0
    4.4896   -1.8707    0.0000 N   0  0  0  0  0  0  0  0  0  0  0  0
    3.9017   -3.9551    0.0000 N   0  0  0  0  0  0  0  0  0  0  0  0
    5.2646   -2.9396    0.0000 N   0  0  0  0  0  0  0  0  0  0  0  0
    2.4853   -4.1155    0.0000 C   0  0  0  0  0  0  0  0  0  0  0  0
    3.7948   -3.1534    0.0000 C   0  0  0  0  0  0  0  0  0  0  0  0
    4.4896   -2.6724    0.0000 C   0  0  0  0  0  0  0  0  0  0  0  0
    2.3784   -3.3138    0.0000 C   0  0  0  0  0  0  0  0  0  0  0  0
    5.2646   -1.6034    0.0000 C   0  0  0  0  0  0  0  0  0  0  0  0
    1.7905   -4.5965    0.0000 C   0  0  0  0  0  0  0  0  0  0  0  0
    5.5318   -0.8017    0.0000 C   0  0  0  0  0  0  0  0  0  0  0  0
    3.0465   -2.8060    0.0000 C   0  0  0  0  0  0  0  0  0  0  0  0
    3.2335   -4.4896    0.0000 C   0  0  0  0  0  0  0  0  0  0  0  0
    1.4698   -5.3447    0.0000 C   0  0  0  0  0  0  0  0  0  0  0  0
    0.9621   -4.7034    0.0000 C   0  0  0  0  0  0  0  0  0  0  0  0
    5.3715    0.0000    0.0000 C   0  0  0  0  0  0  0  0  0  0  0  0
    6.1464   -0.2405    0.0000 C   0  0  0  0  0  0  0  0  0  0  0  0
    1.5233   -2.1646    0.0000 C   0  0  0  0  0  0  0  0  0  0  0  0
    0.7750   -1.8439    0.0000 C   0  0  0  0  0  0  0  0  0  0  0  0
  1 23  1  0  0  0  0
  2 23  1  0  0  0  0
  3 23  1  0  0  0  0
  4  8  1  0  0  0  0
  4 13  1  0  0  0  0
  5 12  1  0  0  0  0
  5 22  1  0  0  0  0
  6 11  1  0  0  0  0
  6 13  2  0  0  0  0
  7 10  1  0  0  0  0
  7 17  2  0  0  0  0
  8 11  2  0  0  0  0
  9 12  2  0  0  0  0
  9 14  1  0  0  0  0
  9 17  1  0  0  0  0
 10 11  1  0  0  0  0
 10 16  2  0  0  0  0
 12 16  1  0  0  0  0
 13 15  1  0  0  0  0
 14 18  1  0  0  0  0
 14 19  1  0  0  0  0
 15 20  1  0  0  0  0
 15 21  1  0  0  0  0
 18 19  1  0  0  0  0
 20 21  1  0  0  0  0
 22 23  1  0  0  0  0
M  END
> <PUBCHEM_COMPOUND_ID_TYPE>
0

> <PUBCHEM_TOTAL_CHARGE>
0

> <PUBCHEM_SUBSTANCE_ID>
310936890

> <PUBCHEM_SUBSTANCE_VERSION>
1

> <PUBCHEM_EXT_DATASOURCE_NAME>
4488

> <PUBCHEM_EXT_DATASOURCE_REGID>
SCHEMBL16114588

> <PUBCHEM_SUBSTANCE_COMMENT>
InChI=1S/C15H14F3N3O2/c16-15(17,18)7-22-12-5-11(19-6-10(12)8-1-2-8)13-20-14(23-21-13)9-3-4-9/h5-6,8-9H,1-4,7H2
InChIKey=XQWCWFZAPKNWNU-UHFFFAOYSA-N

> <PUBCHEM_SUBSTANCE_SYNONYM>
SCHEMBL16114588

> <PUBCHEM_XREF_EXT_ID>
SCHEMBL16114588

> <PUBCHEM_EXT_DATASOURCE_URL>
https://www.surechembl.org/

> <PUBCHEM_EXT_SUBSTANCE_URL>
https://www.surechembl.org/chemical/SCHEMBL16114588

> <PUBCHEM_CID_ASSOCIATIONS>
86276026  1

> <PUBCHEM_COORDINATE_TYPE>
1
3

$$$$
