310943351
  -OEChem-07211613022D

 24 26  0     0  0  0  0  0  0999 V2000
   -1.5421    1.2917    0.0000 Cl  0  0  0  0  0  0  0  0  0  0  0  0
    0.4619    1.9336    0.0000 F   0  0  0  0  0  0  0  0  0  0  0  0
    1.8084    1.9336    0.0000 F   0  0  0  0  0  0  0  0  0  0  0  0
    1.8709    1.2917    0.0000 F   0  0  0  0  0  0  0  0  0  0  0  0
    1.9023   -1.6830    0.0000 F   0  0  0  0  0  0  0  0  0  0  0  0
    3.1235   -0.6498    0.0000 F   0  0  0  0  0  0  0  0  0  0  0  0
    2.4502   -1.9336    0.0000 F   0  0  0  0  0  0  0  0  0  0  0  0
   -0.3210    0.4932    0.0000 N   0  0  0  0  0  0  0  0  0  0  0  0
   -0.3210   -0.9003    0.0000 N   0  0  0  0  0  0  0  0  0  0  0  0
   -1.9649   -0.9473    0.0000 N   0  0  0  0  0  0  0  0  0  0  0  0
    0.4306    0.1957    0.0000 C   0  0  0  0  0  0  0  0  0  0  0  0
    1.0882    0.6185    0.0000 C   0  0  0  0  0  0  0  0  0  0  0  0
    0.3992   -0.6498    0.0000 C   0  0  0  0  0  0  0  0  0  0  0  0
   -0.7907   -0.2270    0.0000 C   0  0  0  0  0  0  0  0  0  0  0  0
    1.7614   -0.6498    0.0000 C   0  0  0  0  0  0  0  0  0  0  0  0
    1.1351    1.4952    0.0000 C   0  0  0  0  0  0  0  0  0  0  0  0
    1.7614    0.1957    0.0000 C   0  0  0  0  0  0  0  0  0  0  0  0
    1.1038   -1.0882    0.0000 C   0  0  0  0  0  0  0  0  0  0  0  0
    2.4502   -1.1038    0.0000 C   0  0  0  0  0  0  0  0  0  0  0  0
   -1.5421   -0.2114    0.0000 C   0  0  0  0  0  0  0  0  0  0  0  0
   -1.9493    0.5245    0.0000 C   0  0  0  0  0  0  0  0  0  0  0  0
   -2.7164    0.5245    0.0000 C   0  0  0  0  0  0  0  0  0  0  0  0
   -2.7320   -0.9473    0.0000 C   0  0  0  0  0  0  0  0  0  0  0  0
   -3.1235   -0.2114    0.0000 C   0  0  0  0  0  0  0  0  0  0  0  0
  1 21  1  0  0  0  0
  2 16  1  0  0  0  0
  3 16  1  0  0  0  0
  4 16  1  0  0  0  0
  5 19  1  0  0  0  0
  6 19  1  0  0  0  0
  7 19  1  0  0  0  0
  8 11  1  0  0  0  0
  8 14  2  0  0  0  0
  9 13  1  0  0  0  0
  9 14  1  0  0  0  0
 10 20  1  0  0  0  0
 10 23  2  0  0  0  0
 11 12  1  0  0  0  0
 11 13  2  0  0  0  0
 12 16  1  0  0  0  0
 12 17  2  0  0  0  0
 13 18  1  0  0  0  0
 14 20  1  0  0  0  0
 15 17  1  0  0  0  0
 15 18  2  0  0  0  0
 15 19  1  0  0  0  0
 20 21  2  0  0  0  0
 21 22  1  0  0  0  0
 22 24  2  0  0  0  0
 23 24  1  0  0  0  0
M  END
> <PUBCHEM_COMPOUND_ID_TYPE>
0

> <PUBCHEM_TOTAL_CHARGE>
0

> <PUBCHEM_SUBSTANCE_ID>
310943351

> <PUBCHEM_SUBSTANCE_VERSION>
1

> <PUBCHEM_EXT_DATASOURCE_NAME>
4488

> <PUBCHEM_EXT_DATASOURCE_REGID>
SCHEMBL16121414

> <PUBCHEM_SUBSTANCE_COMMENT>
InChI=1S/C14H6ClF6N3/c15-8-2-1-3-22-11(8)12-23-9-5-6(13(16,17)18)4-7(10(9)24-12)14(19,20)21/h1-5H,(H,23,24)
InChIKey=SAGIDNJUQWBRTC-UHFFFAOYSA-N

> <PUBCHEM_SUBSTANCE_SYNONYM>
SCHEMBL16121414

> <PUBCHEM_XREF_EXT_ID>
SCHEMBL16121414

> <PUBCHEM_EXT_DATASOURCE_URL>
https://www.surechembl.org/

> <PUBCHEM_EXT_SUBSTANCE_URL>
https://www.surechembl.org/chemical/SCHEMBL16121414

> <PUBCHEM_CID_ASSOCIATIONS>
117609775  1

> <PUBCHEM_COORDINATE_TYPE>
1
3

$$$$
