310931763
  -OEChem-07211613022D

 18 19  0     0  0  0  0  0  0999 V2000
    0.6674   -1.3118    0.0000 O   0  0  0  0  0  0  0  0  0  0  0  0
    4.0043   -3.0378    0.0000 O   0  0  0  0  0  0  0  0  0  0  0  0
    6.4898   -1.6340    0.0000 O   0  0  0  0  0  0  0  0  0  0  0  0
    2.7616   -0.8975    0.0000 N   0  0  0  0  0  0  0  0  0  0  0  0
    1.4499   -1.5649    0.0000 N   0  0  0  0  0  0  0  0  0  0  0  0
    4.0043   -1.6109    0.0000 C   0  0  0  0  0  0  0  0  0  0  0  0
    4.4186   -2.3243    0.0000 C   0  0  0  0  0  0  0  0  0  0  0  0
    1.9331   -0.8975    0.0000 C   0  0  0  0  0  0  0  0  0  0  0  0
    5.6613   -1.6109    0.0000 C   0  0  0  0  0  0  0  0  0  0  0  0
    3.1758   -1.6109    0.0000 C   0  0  0  0  0  0  0  0  0  0  0  0
    5.2470   -2.3474    0.0000 C   0  0  0  0  0  0  0  0  0  0  0  0
    4.4186   -0.8975    0.0000 C   0  0  0  0  0  0  0  0  0  0  0  0
    1.4499   -0.2302    0.0000 C   0  0  0  0  0  0  0  0  0  0  0  0
    0.6674   -0.4833    0.0000 C   0  0  0  0  0  0  0  0  0  0  0  0
    5.2470   -0.8975    0.0000 C   0  0  0  0  0  0  0  0  0  0  0  0
    0.0000    0.0000    0.0000 C   0  0  0  0  0  0  0  0  0  0  0  0
    4.4186   -3.7742    0.0000 C   0  0  0  0  0  0  0  0  0  0  0  0
    6.9040   -0.9205    0.0000 C   0  0  0  0  0  0  0  0  0  0  0  0
  1  5  1  0  0  0  0
  1 14  1  0  0  0  0
  2  7  1  0  0  0  0
  2 17  1  0  0  0  0
  3  9  1  0  0  0  0
  3 18  1  0  0  0  0
  4  8  1  0  0  0  0
  4 10  1  0  0  0  0
  5  8  2  0  0  0  0
  6  7  2  0  0  0  0
  6 10  1  0  0  0  0
  6 12  1  0  0  0  0
  7 11  1  0  0  0  0
  8 13  1  0  0  0  0
  9 11  2  0  0  0  0
  9 15  1  0  0  0  0
 12 15  2  0  0  0  0
 13 14  2  0  0  0  0
 14 16  1  0  0  0  0
M  END
> <PUBCHEM_COMPOUND_ID_TYPE>
0

> <PUBCHEM_TOTAL_CHARGE>
0

> <PUBCHEM_SUBSTANCE_ID>
310931763

> <PUBCHEM_SUBSTANCE_VERSION>
1

> <PUBCHEM_EXT_DATASOURCE_NAME>
4488

> <PUBCHEM_EXT_DATASOURCE_REGID>
SCHEMBL16109092

> <PUBCHEM_SUBSTANCE_COMMENT>
InChI=1S/C13H16N2O3/c1-9-6-13(15-18-9)14-8-10-4-5-11(16-2)7-12(10)17-3/h4-7H,8H2,1-3H3,(H,14,15)
InChIKey=CSDGBDQXNWHUIM-UHFFFAOYSA-N

> <PUBCHEM_SUBSTANCE_SYNONYM>
SCHEMBL16109092

> <PUBCHEM_XREF_EXT_ID>
SCHEMBL16109092

> <PUBCHEM_EXT_DATASOURCE_URL>
https://www.surechembl.org/

> <PUBCHEM_EXT_SUBSTANCE_URL>
https://www.surechembl.org/chemical/SCHEMBL16109092

> <PUBCHEM_CID_ASSOCIATIONS>
44206201  1

> <PUBCHEM_COORDINATE_TYPE>
1
3

$$$$
