310935028
  -OEChem-07211613022D

 39 42  0     1  0  0  0  0  0999 V2000
    2.4525   -9.4325    0.0000 F   0  0  0  0  0  0  0  0  0  0  0  0
    3.5843   -1.1319    0.0000 O   0  0  0  0  0  0  0  0  0  0  0  0
    0.0000   -5.1879    0.0000 O   0  0  0  0  0  0  0  0  0  0  0  0
    4.3390   -3.1599    0.0000 O   0  0  0  0  0  0  0  0  0  0  0  0
    4.9992   -1.9337    0.0000 O   0  0  0  0  0  0  0  0  0  0  0  0
    1.4620   -3.1599    0.0000 N   0  0  0  0  0  0  0  0  0  0  0  0
    3.5843   -3.5843    0.0000 N   0  0  0  0  0  0  0  0  0  0  0  0
    0.8489   -3.7259    0.0000 N   0  0  0  0  0  0  0  0  0  0  0  0
    1.1790   -5.8953    0.0000 N   0  0  0  0  0  0  0  0  0  0  0  0
    2.8769   -3.1599    0.0000 C   0  0  0  0  0  0  0  0  0  0  0  0
    2.1695   -3.5843    0.0000 C   0  0  0  0  0  0  0  0  0  0  0  0
    2.8769   -2.3581    0.0000 C   0  0  0  0  0  0  0  0  0  0  0  0
    2.1695   -1.9337    0.0000 C   0  0  0  0  0  0  0  0  0  0  0  0
    3.5843   -1.9337    0.0000 C   0  0  3  0  0  0  0  0  0  0  0  0
    2.0280   -4.3861    0.0000 C   0  0  0  0  0  0  0  0  0  0  0  0
    1.2263   -4.4805    0.0000 C   0  0  0  0  0  0  0  0  0  0  0  0
    1.5092   -2.3581    0.0000 C   0  0  0  0  0  0  0  0  0  0  0  0
    4.4805   -3.3486    0.0000 C   0  0  0  0  0  0  0  0  0  0  0  0
    3.5843   -4.3861    0.0000 C   0  0  0  0  0  0  0  0  0  0  0  0
    0.8017   -5.1879    0.0000 C   0  0  0  0  0  0  0  0  0  0  0  0
    4.3390   -2.3581    0.0000 C   0  0  0  0  0  0  0  0  0  0  0  0
    4.9992   -4.3861    0.0000 C   0  0  0  0  0  0  0  0  0  0  0  0
    2.1695   -1.1319    0.0000 C   0  0  0  0  0  0  0  0  0  0  0  0
    4.9992   -3.5843    0.0000 C   0  0  0  0  0  0  0  0  0  0  0  0
    4.2918   -4.8106    0.0000 C   0  0  0  0  0  0  0  0  0  0  0  0
    2.9241   -0.7074    0.0000 C   0  0  0  0  0  0  0  0  0  0  0  0
    5.7067   -4.8106    0.0000 C   0  0  0  0  0  0  0  0  0  0  0  0
    4.9992   -5.2350    0.0000 C   0  0  0  0  0  0  0  0  0  0  0  0
    0.8017   -6.6028    0.0000 C   0  0  0  0  0  0  0  0  0  0  0  0
    2.2166   -0.2830    0.0000 C   0  0  0  0  0  0  0  0  0  0  0  0
    3.3486    0.0000    0.0000 C   0  0  0  0  0  0  0  0  0  0  0  0
    2.4996   -1.4149    0.0000 C   0  0  0  0  0  0  0  0  0  0  0  0
    1.2263   -7.3102    0.0000 C   0  0  0  0  0  0  0  0  0  0  0  0
    0.8017   -8.0176    0.0000 C   0  0  0  0  0  0  0  0  0  0  0  0
    2.0280   -7.3102    0.0000 C   0  0  0  0  0  0  0  0  0  0  0  0
    1.1790   -8.7251    0.0000 C   0  0  0  0  0  0  0  0  0  0  0  0
    2.0280   -8.7251    0.0000 C   0  0  0  0  0  0  0  0  0  0  0  0
    2.4525   -8.0176    0.0000 C   0  0  0  0  0  0  0  0  0  0  0  0
    0.8017   -9.4325    0.0000 C   0  0  0  0  0  0  0  0  0  0  0  0
  1 37  1  0  0  0  0
 14  2  1  6  0  0  0
  2 26  1  0  0  0  0
  3 20  2  0  0  0  0
  4 21  2  0  0  0  0
  5 21  1  0  0  0  0
  6  8  1  0  0  0  0
  6 11  1  0  0  0  0
  6 17  1  0  0  0  0
  7 10  1  0  0  0  0
  7 18  1  0  0  0  0
  7 19  1  0  0  0  0
  8 16  2  0  0  0  0
  9 20  1  0  0  0  0
  9 29  1  0  0  0  0
 10 11  1  0  0  0  0
 10 12  2  0  0  0  0
 11 15  2  0  0  0  0
 12 13  1  0  0  0  0
 12 14  1  0  0  0  0
 13 17  2  0  0  0  0
 13 23  1  0  0  0  0
 14 21  1  0  0  0  0
 15 16  1  0  0  0  0
 16 20  1  0  0  0  0
 18 24  1  0  0  0  0
 19 25  1  0  0  0  0
 22 24  1  0  0  0  0
 22 25  1  0  0  0  0
 22 27  1  0  0  0  0
 22 28  1  0  0  0  0
 26 30  1  0  0  0  0
 26 31  1  0  0  0  0
 26 32  1  0  0  0  0
 29 33  1  0  0  0  0
 33 34  2  0  0  0  0
 33 35  1  0  0  0  0
 34 36  1  0  0  0  0
 35 38  2  0  0  0  0
 36 37  2  0  0  0  0
 36 39  1  0  0  0  0
 37 38  1  0  0  0  0
M  END
> <PUBCHEM_COMPOUND_ID_TYPE>
0

> <PUBCHEM_TOTAL_CHARGE>
0

> <PUBCHEM_SUBSTANCE_ID>
310935028

> <PUBCHEM_SUBSTANCE_VERSION>
1

> <PUBCHEM_EXT_DATASOURCE_NAME>
4488

> <PUBCHEM_EXT_DATASOURCE_REGID>
SCHEMBL16112547

> <PUBCHEM_SUBSTANCE_COMMENT>
InChI=1S/C30H39FN4O4/c1-18-14-20(8-9-21(18)31)16-32-27(36)22-15-23-25(34-12-10-30(6,7)11-13-34)24(19(2)17-35(23)33-22)26(28(37)38)39-29(3,4)5/h8-9,14-15,17,26H,10-13,16H2,1-7H3,(H,32,36)(H,37,38)/t26-/m0/s1
InChIKey=SLZYXZFOBJKSSS-SANMLTNESA-N

> <PUBCHEM_SUBSTANCE_SYNONYM>
SCHEMBL16112547

> <PUBCHEM_XREF_EXT_ID>
SCHEMBL16112547

> <PUBCHEM_EXT_DATASOURCE_URL>
https://www.surechembl.org/

> <PUBCHEM_EXT_SUBSTANCE_URL>
https://www.surechembl.org/chemical/SCHEMBL16112547

> <PUBCHEM_CID_ASSOCIATIONS>
86301679  1

> <PUBCHEM_COORDINATE_TYPE>
1
3

> <PUBCHEM_BONDANNOTATIONS>
14  2  6

$$$$
