310933113
  -OEChem-07211613022D

 29 32  0     0  0  0  0  0  0999 V2000
    2.8536   -2.1244    0.0000 O   0  0  0  0  0  0  0  0  0  0  0  0
    7.3243   -2.2195    0.0000 O   0  0  0  0  0  0  0  0  0  0  0  0
    9.5121   -2.6000    0.0000 O   0  0  0  0  0  0  0  0  0  0  0  0
    3.7414   -0.9829    0.0000 N   0  0  0  0  0  0  0  0  0  0  0  0
    3.6780   -0.1585    0.0000 N   0  0  0  0  0  0  0  0  0  0  0  0
    5.1999   -0.9829    0.0000 N   0  0  0  0  0  0  0  0  0  0  0  0
    0.0000   -0.9829    0.0000 N   0  0  0  0  0  0  0  0  0  0  0  0
    6.6268   -3.4561    0.0000 N   0  0  0  0  0  0  0  0  0  0  0  0
    2.4415   -0.7292    0.0000 C   0  0  0  0  0  0  0  0  0  0  0  0
    3.0122   -1.3317    0.0000 C   0  0  0  0  0  0  0  0  0  0  0  0
    4.4707   -1.3951    0.0000 C   0  0  0  0  0  0  0  0  0  0  0  0
    1.6171   -0.7927    0.0000 C   0  0  0  0  0  0  0  0  0  0  0  0
    2.8536    0.0000    0.0000 C   0  0  0  0  0  0  0  0  0  0  0  0
    4.4707   -2.2195    0.0000 C   0  0  0  0  0  0  0  0  0  0  0  0
    5.8975   -2.2195    0.0000 C   0  0  0  0  0  0  0  0  0  0  0  0
    1.3000   -1.5854    0.0000 C   0  0  0  0  0  0  0  0  0  0  0  0
    1.1415   -0.1585    0.0000 C   0  0  0  0  0  0  0  0  0  0  0  0
    5.8975   -1.3951    0.0000 C   0  0  0  0  0  0  0  0  0  0  0  0
    5.1999   -2.6317    0.0000 C   0  0  0  0  0  0  0  0  0  0  0  0
    0.4756   -1.6488    0.0000 C   0  0  0  0  0  0  0  0  0  0  0  0
    6.6268   -2.6317    0.0000 C   0  0  0  0  0  0  0  0  0  0  0  0
    0.3171   -0.2219    0.0000 C   0  0  0  0  0  0  0  0  0  0  0  0
    7.3243   -3.8682    0.0000 C   0  0  0  0  0  0  0  0  0  0  0  0
    0.1269   -2.3780    0.0000 C   0  0  0  0  0  0  0  0  0  0  0  0
    8.0536   -3.4561    0.0000 C   0  0  0  0  0  0  0  0  0  0  0  0
    8.7829   -3.8366    0.0000 C   0  0  0  0  0  0  0  0  0  0  0  0
    8.0853   -2.6317    0.0000 C   0  0  0  0  0  0  0  0  0  0  0  0
    9.4804   -3.4561    0.0000 C   0  0  0  0  0  0  0  0  0  0  0  0
    8.7829   -2.2195    0.0000 C   0  0  0  0  0  0  0  0  0  0  0  0
  1 10  1  0  0  0  0
  2 21  2  0  0  0  0
  3 28  1  0  0  0  0
  3 29  1  0  0  0  0
  4  5  1  0  0  0  0
  4 10  1  0  0  0  0
  4 11  1  0  0  0  0
  5 13  2  0  0  0  0
  6 11  2  0  0  0  0
  6 18  1  0  0  0  0
  7 20  1  0  0  0  0
  7 22  2  0  0  0  0
  8 21  1  0  0  0  0
  8 23  1  0  0  0  0
  9 10  2  0  0  0  0
  9 12  1  0  0  0  0
  9 13  1  0  0  0  0
 11 14  1  0  0  0  0
 12 16  1  0  0  0  0
 12 17  2  0  0  0  0
 14 19  2  0  0  0  0
 15 18  2  0  0  0  0
 15 19  1  0  0  0  0
 15 21  1  0  0  0  0
 16 20  2  0  0  0  0
 17 22  1  0  0  0  0
 20 24  1  0  0  0  0
 23 25  1  0  0  0  0
 25 26  1  0  0  0  0
 25 27  1  0  0  0  0
 26 28  1  0  0  0  0
 27 29  1  0  0  0  0
M  END
> <PUBCHEM_COMPOUND_ID_TYPE>
0

> <PUBCHEM_TOTAL_CHARGE>
0

> <PUBCHEM_SUBSTANCE_ID>
310933113

> <PUBCHEM_SUBSTANCE_VERSION>
1

> <PUBCHEM_EXT_DATASOURCE_NAME>
4488

> <PUBCHEM_EXT_DATASOURCE_REGID>
SCHEMBL16110515

> <PUBCHEM_SUBSTANCE_COMMENT>
InChI=1S/C21H23N5O3/c1-14-10-16(4-7-22-14)18-13-25-26(21(18)28)19-3-2-17(12-23-19)20(27)24-11-15-5-8-29-9-6-15/h2-4,7,10,12-13,15,28H,5-6,8-9,11H2,1H3,(H,24,27)
InChIKey=RBEKTXAYRSDEPO-UHFFFAOYSA-N

> <PUBCHEM_SUBSTANCE_SYNONYM>
SCHEMBL16110515

> <PUBCHEM_XREF_EXT_ID>
SCHEMBL16110515

> <PUBCHEM_EXT_DATASOURCE_URL>
https://www.surechembl.org/

> <PUBCHEM_EXT_SUBSTANCE_URL>
https://www.surechembl.org/chemical/SCHEMBL16110515

> <PUBCHEM_CID_ASSOCIATIONS>
117601570  1

> <PUBCHEM_COORDINATE_TYPE>
1
3

$$$$
