310946228
  -OEChem-07211613022D

 21 24  0     1  0  0  0  0  0999 V2000
   -0.1454   -3.4306    0.0000 O   0  0  0  0  0  0  0  0  0  0  0  0
   -1.5743   -5.9056    0.0000 O   0  0  0  0  0  0  0  0  0  0  0  0
   -1.5743   -3.4306    0.0000 C   0  0  3  0  0  0  0  0  0  0  0  0
   -1.5743   -4.2556    0.0000 C   0  0  3  0  0  0  0  0  0  0  0  0
   -2.2888   -3.8431    0.0000 C   0  0  0  0  0  0  0  0  0  0  0  0
   -2.1874   -2.8786    0.0000 C   0  0  3  0  0  0  0  0  0  0  0  0
   -0.8599   -3.0181    0.0000 C   0  0  3  0  0  0  0  0  0  0  0  0
   -0.8599   -4.6681    0.0000 C   0  0  0  0  0  0  0  0  0  0  0  0
   -0.1454   -4.2556    0.0000 C   0  0  0  0  0  0  0  0  0  0  0  0
   -1.8519   -2.1249    0.0000 C   0  0  0  0  0  0  0  0  0  0  0  0
   -1.0314   -2.2111    0.0000 C   0  0  0  0  0  0  0  0  0  0  0  0
   -0.8599   -5.4931    0.0000 C   0  0  0  0  0  0  0  0  0  0  0  0
   -1.0771   -3.8431    0.0000 C   0  0  0  0  0  0  0  0  0  0  0  0
   -2.7013   -4.5576    0.0000 C   0  0  0  0  0  0  0  0  0  0  0  0
   -0.1454   -2.6056    0.0000 C   0  0  0  0  0  0  0  0  0  0  0  0
    0.5691   -4.6681    0.0000 C   0  0  0  0  0  0  0  0  0  0  0  0
    0.5691   -5.4931    0.0000 C   0  0  0  0  0  0  0  0  0  0  0  0
   -0.1454   -5.9056    0.0000 C   0  0  0  0  0  0  0  0  0  0  0  0
    1.2835   -5.9056    0.0000 C   0  0  0  0  0  0  0  0  0  0  0  0
    1.9980   -5.4931    0.0000 C   0  0  0  0  0  0  0  0  0  0  0  0
    2.7125   -5.9056    0.0000 C   0  0  0  0  0  0  0  0  0  0  0  0
  1  7  1  0  0  0  0
  1  9  1  0  0  0  0
  2 12  1  0  0  0  0
  3  4  1  0  0  0  0
  3  6  1  0  0  0  0
  3  7  1  0  0  0  0
  4  5  1  0  0  0  0
  4  8  1  1  0  0  0
  5  6  1  0  0  0  0
  5 13  1  0  0  0  0
  5 14  1  0  0  0  0
  6 10  1  1  0  0  0
  7 11  1  0  0  0  0
  7 15  1  6  0  0  0
  8  9  2  0  0  0  0
  8 12  1  0  0  0  0
  9 16  1  0  0  0  0
 10 11  1  0  0  0  0
 12 18  2  0  0  0  0
 16 17  2  0  0  0  0
 17 18  1  0  0  0  0
 17 19  1  0  0  0  0
 19 20  1  0  0  0  0
 20 21  1  0  0  0  0
M  END
> <PUBCHEM_COMPOUND_ID_TYPE>
0

> <PUBCHEM_TOTAL_CHARGE>
0

> <PUBCHEM_SUBSTANCE_ID>
310946228

> <PUBCHEM_SUBSTANCE_VERSION>
1

> <PUBCHEM_EXT_DATASOURCE_NAME>
4488

> <PUBCHEM_EXT_DATASOURCE_REGID>
SCHEMBL16124344

> <PUBCHEM_SUBSTANCE_COMMENT>
InChI=1S/C19H26O2/c1-5-6-11-9-13(20)15-14(10-11)21-19(4)8-7-12-16(19)17(15)18(12,2)3/h9-10,12,16-17,20H,5-8H2,1-4H3/t12-,16?,17+,19+/m0/s1
InChIKey=FGYVFYUCBIDEEZ-FOZDKOPGSA-N

> <PUBCHEM_SUBSTANCE_SYNONYM>
SCHEMBL16124344

> <PUBCHEM_XREF_EXT_ID>
SCHEMBL16124344

> <PUBCHEM_EXT_DATASOURCE_URL>
https://www.surechembl.org/

> <PUBCHEM_EXT_SUBSTANCE_URL>
https://www.surechembl.org/chemical/SCHEMBL16124344

> <PUBCHEM_CID_ASSOCIATIONS>
117612176  1

> <PUBCHEM_COORDINATE_TYPE>
1
3

> <PUBCHEM_BONDANNOTATIONS>
4  8  5
6  10  5
7  15  6

$$$$
