310941434
  -OEChem-07211613022D

 31 34  0     1  0  0  0  0  0999 V2000
   -0.4500    2.5062    0.0000 O   0  0  0  0  0  0  0  0  0  0  0  0
    0.3000    1.2562    0.0000 N   0  0  0  0  0  0  0  0  0  0  0  0
   -0.4250    0.0063    0.0000 N   0  0  0  0  0  0  0  0  0  0  0  0
    1.1499   -0.8187    0.0000 N   0  0  0  0  0  0  0  0  0  0  0  0
    1.7374   -2.0686    0.0000 N   0  0  0  0  0  0  0  0  0  0  0  0
    1.0249   -3.3186    0.0000 N   0  0  0  0  0  0  0  0  0  0  0  0
    2.5874   -3.3311    0.0000 N   0  0  0  0  0  0  0  0  0  0  0  0
   -1.1375   -1.2687    0.0000 N   0  0  0  0  0  0  0  0  0  0  0  0
   -1.1499    1.2687    0.0000 C   0  0  0  0  0  0  0  0  0  0  0  0
    0.2749    0.4313    0.0000 C   0  0  0  0  0  0  0  0  0  0  0  0
   -0.4375    1.6562    0.0000 C   0  0  0  0  0  0  0  0  0  0  0  0
   -1.1624    0.4313    0.0000 C   0  0  0  0  0  0  0  0  0  0  0  0
    1.0000    1.6812    0.0000 C   0  0  0  0  0  0  0  0  0  0  0  0
   -1.8749    1.6687    0.0000 C   0  0  0  0  0  0  0  0  0  0  0  0
    1.0249    0.0063    0.0000 C   0  0  3  0  0  0  0  0  0  0  0  0
   -1.8749    0.0188    0.0000 C   0  0  0  0  0  0  0  0  0  0  0  0
   -2.5874    1.2562    0.0000 C   0  0  0  0  0  0  0  0  0  0  0  0
    1.0000   -1.6562    0.0000 C   0  0  0  0  0  0  0  0  0  0  0  0
    1.7249    1.2687    0.0000 C   0  0  0  0  0  0  0  0  0  0  0  0
    1.0249    2.5062    0.0000 C   0  0  0  0  0  0  0  0  0  0  0  0
   -2.5874    0.4313    0.0000 C   0  0  0  0  0  0  0  0  0  0  0  0
   -1.8624    2.5062    0.0000 C   0  0  0  0  0  0  0  0  0  0  0  0
    0.2875   -2.0686    0.0000 C   0  0  0  0  0  0  0  0  0  0  0  0
    1.7374    0.4187    0.0000 C   0  0  0  0  0  0  0  0  0  0  0  0
    2.4499    1.6812    0.0000 C   0  0  0  0  0  0  0  0  0  0  0  0
    1.7374    2.9186    0.0000 C   0  0  0  0  0  0  0  0  0  0  0  0
    1.7249   -2.9061    0.0000 C   0  0  0  0  0  0  0  0  0  0  0  0
    0.2875   -2.9061    0.0000 C   0  0  0  0  0  0  0  0  0  0  0  0
    2.4499    2.5062    0.0000 C   0  0  0  0  0  0  0  0  0  0  0  0
   -0.4250   -1.6562    0.0000 C   0  0  0  0  0  0  0  0  0  0  0  0
   -1.8749    3.3311    0.0000 C   0  0  0  0  0  0  0  0  0  0  0  0
  1 11  2  0  0  0  0
  2 10  1  0  0  0  0
  2 11  1  0  0  0  0
  2 13  1  0  0  0  0
  3 10  2  0  0  0  0
  3 12  1  0  0  0  0
  4 15  1  0  0  0  0
  4 18  1  0  0  0  0
  5 18  1  0  0  0  0
  5 27  2  0  0  0  0
  6 27  1  0  0  0  0
  6 28  2  0  0  0  0
  7 27  1  0  0  0  0
  8 30  3  0  0  0  0
  9 11  1  0  0  0  0
  9 12  1  0  0  0  0
  9 14  2  0  0  0  0
 10 15  1  0  0  0  0
 12 16  2  0  0  0  0
 13 19  2  0  0  0  0
 13 20  1  0  0  0  0
 14 17  1  0  0  0  0
 14 22  1  0  0  0  0
 15 24  1  6  0  0  0
 16 21  1  0  0  0  0
 17 21  2  0  0  0  0
 18 23  2  0  0  0  0
 19 25  1  0  0  0  0
 20 26  2  0  0  0  0
 22 31  3  0  0  0  0
 23 28  1  0  0  0  0
 23 30  1  0  0  0  0
 25 29  2  0  0  0  0
 26 29  1  0  0  0  0
M  END
> <PUBCHEM_COMPOUND_ID_TYPE>
0

> <PUBCHEM_TOTAL_CHARGE>
0

> <PUBCHEM_SUBSTANCE_ID>
310941434

> <PUBCHEM_SUBSTANCE_VERSION>
1

> <PUBCHEM_EXT_DATASOURCE_NAME>
4488

> <PUBCHEM_EXT_DATASOURCE_REGID>
SCHEMBL16119394

> <PUBCHEM_SUBSTANCE_COMMENT>
InChI=1S/C23H17N7O/c1-3-15-8-7-11-18-19(15)22(31)30(17-9-5-4-6-10-17)21(28-18)14(2)27-20-16(12-24)13-26-23(25)29-20/h1,4-11,13-14H,2H3,(H3,25,26,27,29)/t14-/m0/s1
InChIKey=UDUOXCFMBXDUEM-AWEZNQCLSA-N

> <PUBCHEM_SUBSTANCE_SYNONYM>
SCHEMBL16119394

> <PUBCHEM_XREF_EXT_ID>
SCHEMBL16119394

> <PUBCHEM_EXT_DATASOURCE_URL>
https://www.surechembl.org/

> <PUBCHEM_EXT_SUBSTANCE_URL>
https://www.surechembl.org/chemical/SCHEMBL16119394

> <PUBCHEM_CID_ASSOCIATIONS>
117608259  1

> <PUBCHEM_COORDINATE_TYPE>
1
3

> <PUBCHEM_BONDANNOTATIONS>
15  24  6

$$$$
