310949154
  -OEChem-07211613022D

 48 55  0     0  0  0  0  0  0999 V2000
   -0.0085    0.7544    0.0000 N   0  0  0  0  0  0  0  0  0  0  0  0
    2.1106    1.1613    0.0000 N   0  0  0  0  0  0  0  0  0  0  0  0
   -0.0254    4.8740    0.0000 N   0  0  0  0  0  0  0  0  0  0  0  0
   -0.6866    0.2966    0.0000 C   0  0  0  0  0  0  0  0  0  0  0  0
    0.6866    0.2627    0.0000 C   0  0  0  0  0  0  0  0  0  0  0  0
   -0.4492   -0.5001    0.0000 C   0  0  0  0  0  0  0  0  0  0  0  0
    0.4153   -0.5340    0.0000 C   0  0  0  0  0  0  0  0  0  0  0  0
    0.0085    1.6190    0.0000 C   0  0  0  0  0  0  0  0  0  0  0  0
   -0.9748   -1.1274    0.0000 C   0  0  0  0  0  0  0  0  0  0  0  0
    0.9409   -1.1274    0.0000 C   0  0  0  0  0  0  0  0  0  0  0  0
   -1.4834    0.4492    0.0000 C   0  0  0  0  0  0  0  0  0  0  0  0
    1.4495    0.4323    0.0000 C   0  0  0  0  0  0  0  0  0  0  0  0
    0.6866    2.0259    0.0000 C   0  0  0  0  0  0  0  0  0  0  0  0
   -0.7375    2.0259    0.0000 C   0  0  0  0  0  0  0  0  0  0  0  0
   -1.7716   -0.9239    0.0000 C   0  0  0  0  0  0  0  0  0  0  0  0
    1.7547   -0.9578    0.0000 C   0  0  0  0  0  0  0  0  0  0  0  0
   -2.0259   -0.1441    0.0000 C   0  0  0  0  0  0  0  0  0  0  0  0
    2.0259   -0.1950    0.0000 C   0  0  0  0  0  0  0  0  0  0  0  0
    2.3310   -1.6190    0.0000 C   0  0  0  0  0  0  0  0  0  0  0  0
   -2.3479   -1.5851    0.0000 C   0  0  0  0  0  0  0  0  0  0  0  0
    0.7036    2.8396    0.0000 C   0  0  0  0  0  0  0  0  0  0  0  0
   -0.7036    2.8565    0.0000 C   0  0  0  0  0  0  0  0  0  0  0  0
   -0.0085    3.2635    0.0000 C   0  0  0  0  0  0  0  0  0  0  0  0
    1.4155    1.5681    0.0000 C   0  0  0  0  0  0  0  0  0  0  0  0
   -1.4155    1.6190    0.0000 C   0  0  0  0  0  0  0  0  0  0  0  0
   -3.1617   -1.4155    0.0000 C   0  0  0  0  0  0  0  0  0  0  0  0
    2.0767   -2.4327    0.0000 C   0  0  0  0  0  0  0  0  0  0  0  0
    3.0770   -1.4495    0.0000 C   0  0  0  0  0  0  0  0  0  0  0  0
   -2.0767   -2.3819    0.0000 C   0  0  0  0  0  0  0  0  0  0  0  0
   -0.0254    4.0941    0.0000 C   0  0  0  0  0  0  0  0  0  0  0  0
   -3.4669   -2.8057    0.0000 C   0  0  0  0  0  0  0  0  0  0  0  0
    3.3821   -2.8565    0.0000 C   0  0  0  0  0  0  0  0  0  0  0  0
   -3.6703   -2.0089    0.0000 C   0  0  0  0  0  0  0  0  0  0  0  0
    2.6192   -3.0091    0.0000 C   0  0  0  0  0  0  0  0  0  0  0  0
   -2.6362   -2.9752    0.0000 C   0  0  0  0  0  0  0  0  0  0  0  0
    3.6534   -2.0767    0.0000 C   0  0  0  0  0  0  0  0  0  0  0  0
    3.9754   -3.4838    0.0000 C   0  0  0  0  0  0  0  0  0  0  0  0
   -4.0093   -3.4669    0.0000 C   0  0  0  0  0  0  0  0  0  0  0  0
   -4.7723   -3.2804    0.0000 C   0  0  0  0  0  0  0  0  0  0  0  0
    3.6873   -4.2806    0.0000 C   0  0  0  0  0  0  0  0  0  0  0  0
   -3.7551   -4.2637    0.0000 C   0  0  0  0  0  0  0  0  0  0  0  0
    4.7892   -3.3482    0.0000 C   0  0  0  0  0  0  0  0  0  0  0  0
    4.2467   -4.8740    0.0000 C   0  0  0  0  0  0  0  0  0  0  0  0
   -5.3317   -3.8737    0.0000 C   0  0  0  0  0  0  0  0  0  0  0  0
   -4.2806   -4.8401    0.0000 C   0  0  0  0  0  0  0  0  0  0  0  0
    5.3317   -3.9246    0.0000 C   0  0  0  0  0  0  0  0  0  0  0  0
    5.0943   -4.7044    0.0000 C   0  0  0  0  0  0  0  0  0  0  0  0
   -5.0943   -4.6875    0.0000 C   0  0  0  0  0  0  0  0  0  0  0  0
  1  4  1  0  0  0  0
  1  5  1  0  0  0  0
  1  8  1  0  0  0  0
  2 24  3  0  0  0  0
  3 30  3  0  0  0  0
  4  6  2  0  0  0  0
  4 11  1  0  0  0  0
  5  7  2  0  0  0  0
  5 12  1  0  0  0  0
  6  7  1  0  0  0  0
  6  9  1  0  0  0  0
  7 10  1  0  0  0  0
  8 13  2  0  0  0  0
  8 14  1  0  0  0  0
  9 15  2  0  0  0  0
 10 16  2  0  0  0  0
 11 17  2  0  0  0  0
 12 18  2  0  0  0  0
 13 21  1  0  0  0  0
 13 24  1  0  0  0  0
 14 22  2  0  0  0  0
 14 25  1  0  0  0  0
 15 17  1  0  0  0  0
 15 20  1  0  0  0  0
 16 18  1  0  0  0  0
 16 19  1  0  0  0  0
 19 27  2  0  0  0  0
 19 28  1  0  0  0  0
 20 26  2  0  0  0  0
 20 29  1  0  0  0  0
 21 23  2  0  0  0  0
 22 23  1  0  0  0  0
 23 30  1  0  0  0  0
 26 33  1  0  0  0  0
 27 34  1  0  0  0  0
 28 36  2  0  0  0  0
 29 35  2  0  0  0  0
 31 33  2  0  0  0  0
 31 35  1  0  0  0  0
 31 38  1  0  0  0  0
 32 34  2  0  0  0  0
 32 36  1  0  0  0  0
 32 37  1  0  0  0  0
 37 40  2  0  0  0  0
 37 42  1  0  0  0  0
 38 39  2  0  0  0  0
 38 41  1  0  0  0  0
 39 44  1  0  0  0  0
 40 43  1  0  0  0  0
 41 45  2  0  0  0  0
 42 46  2  0  0  0  0
 43 47  2  0  0  0  0
 44 48  2  0  0  0  0
 45 48  1  0  0  0  0
 46 47  1  0  0  0  0
M  END
> <PUBCHEM_COMPOUND_ID_TYPE>
0

> <PUBCHEM_TOTAL_CHARGE>
0

> <PUBCHEM_SUBSTANCE_ID>
310949154

> <PUBCHEM_SUBSTANCE_VERSION>
1

> <PUBCHEM_EXT_DATASOURCE_NAME>
4488

> <PUBCHEM_EXT_DATASOURCE_REGID>
SCHEMBL16127344

> <PUBCHEM_SUBSTANCE_COMMENT>
InChI=1S/C45H29N3/c1-30-24-31(28-46)25-40(29-47)45(30)48-43-22-20-38(36-16-12-34(13-17-36)32-8-4-2-5-9-32)26-41(43)42-27-39(21-23-44(42)48)37-18-14-35(15-19-37)33-10-6-3-7-11-33/h2-27H,1H3
InChIKey=FUCAGIYVGJNJMD-UHFFFAOYSA-N

> <PUBCHEM_SUBSTANCE_SYNONYM>
SCHEMBL16127344

> <PUBCHEM_XREF_EXT_ID>
SCHEMBL16127344

> <PUBCHEM_EXT_DATASOURCE_URL>
https://www.surechembl.org/

> <PUBCHEM_EXT_SUBSTANCE_URL>
https://www.surechembl.org/chemical/SCHEMBL16127344

> <PUBCHEM_CID_ASSOCIATIONS>
117614648  1

> <PUBCHEM_COORDINATE_TYPE>
1
3

$$$$
