310940545
  -OEChem-07211613022D

 31 35  0     1  0  0  0  0  0999 V2000
    2.6527   -0.3271    0.0000 O   0  0  0  0  0  0  0  0  0  0  0  0
   -1.4721   -0.4552    0.0000 O   0  0  0  0  0  0  0  0  0  0  0  0
    2.7382    1.1522    0.0000 O   0  0  0  0  0  0  0  0  0  0  0  0
   -2.7382   -2.5318    0.0000 O   0  0  0  0  0  0  0  0  0  0  0  0
    1.5575    0.3413    0.0000 N   0  0  0  0  0  0  0  0  0  0  0  0
    1.3441   -2.1052    0.0000 N   0  0  0  0  0  0  0  0  0  0  0  0
   -2.2688   -3.2146    0.0000 N   0  0  0  0  0  0  0  0  0  0  0  0
    0.5904    2.2901    0.0000 N   0  0  0  0  0  0  0  0  0  0  0  0
    1.3583   -0.4409    0.0000 C   0  0  0  0  0  0  0  0  0  0  0  0
    0.6473   -0.8250    0.0000 C   0  0  0  0  0  0  0  0  0  0  0  0
    2.0696   -0.8534    0.0000 C   0  0  0  0  0  0  0  0  0  0  0  0
    0.6473   -1.6785    0.0000 C   0  0  0  0  0  0  0  0  0  0  0  0
    2.3113    0.4267    0.0000 C   0  0  0  0  0  0  0  0  0  0  0  0
   -0.7610   -1.6785    0.0000 C   0  0  0  0  0  0  0  0  0  0  0  0
   -0.0640   -0.4552    0.0000 C   0  0  0  0  0  0  0  0  0  0  0  0
   -0.7468   -0.8534    0.0000 C   0  0  0  0  0  0  0  0  0  0  0  0
    0.9744    0.9388    0.0000 C   0  0  3  0  0  0  0  0  0  0  0  0
   -0.0498   -2.0625    0.0000 C   0  0  0  0  0  0  0  0  0  0  0  0
   -1.4721   -2.0910    0.0000 C   0  0  0  0  0  0  0  0  0  0  0  0
    2.0554   -1.6785    0.0000 C   0  0  0  0  0  0  0  0  0  0  0  0
    1.1735    1.7496    0.0000 C   0  0  0  0  0  0  0  0  0  0  0  0
   -2.2545   -1.8207    0.0000 C   0  0  0  0  0  0  0  0  0  0  0  0
   -1.4864   -2.9159    0.0000 C   0  0  0  0  0  0  0  0  0  0  0  0
   -0.0071    0.6970    0.0000 C   0  0  0  0  0  0  0  0  0  0  0  0
    1.9559    1.9487    0.0000 C   0  0  0  0  0  0  0  0  0  0  0  0
   -2.5105   -1.0241    0.0000 C   0  0  0  0  0  0  0  0  0  0  0  0
   -0.7468   -3.3284    0.0000 C   0  0  0  0  0  0  0  0  0  0  0  0
   -2.1692   -0.8392    0.0000 C   0  0  0  0  0  0  0  0  0  0  0  0
    0.8179    3.1151    0.0000 C   0  0  0  0  0  0  0  0  0  0  0  0
    2.1692    2.7453    0.0000 C   0  0  0  0  0  0  0  0  0  0  0  0
    1.5717    3.3284    0.0000 C   0  0  0  0  0  0  0  0  0  0  0  0
  1 11  1  0  0  0  0
  1 13  1  0  0  0  0
  2 16  1  0  0  0  0
  2 28  1  0  0  0  0
  3 13  2  0  0  0  0
  4  7  1  0  0  0  0
  4 22  1  0  0  0  0
  5  9  1  0  0  0  0
  5 13  1  0  0  0  0
  5 17  1  0  0  0  0
  6 12  1  0  0  0  0
  6 20  2  0  0  0  0
  7 23  2  0  0  0  0
  8 21  2  0  0  0  0
  8 29  1  0  0  0  0
  9 10  1  0  0  0  0
  9 11  2  0  0  0  0
 10 12  2  0  0  0  0
 10 15  1  0  0  0  0
 11 20  1  0  0  0  0
 12 18  1  0  0  0  0
 14 16  1  0  0  0  0
 14 18  2  0  0  0  0
 14 19  1  0  0  0  0
 15 16  2  0  0  0  0
 17 21  1  0  0  0  0
 17 24  1  6  0  0  0
 19 22  2  0  0  0  0
 19 23  1  0  0  0  0
 21 25  1  0  0  0  0
 22 26  1  0  0  0  0
 23 27  1  0  0  0  0
 25 30  2  0  0  0  0
 29 31  2  0  0  0  0
 30 31  1  0  0  0  0
M  END
> <PUBCHEM_COMPOUND_ID_TYPE>
0

> <PUBCHEM_TOTAL_CHARGE>
0

> <PUBCHEM_SUBSTANCE_ID>
310940545

> <PUBCHEM_SUBSTANCE_VERSION>
1

> <PUBCHEM_EXT_DATASOURCE_NAME>
4488

> <PUBCHEM_EXT_DATASOURCE_REGID>
SCHEMBL16118499

> <PUBCHEM_SUBSTANCE_COMMENT>
InChI=1S/C23H20N4O4/c1-12-21(14(3)31-26-12)16-9-18-15(10-19(16)29-4)22-20(11-25-18)30-23(28)27(22)13(2)17-7-5-6-8-24-17/h5-11,13H,1-4H3/t13-/m1/s1
InChIKey=QMEPNAUDBXYGLB-CYBMUJFWSA-N

> <PUBCHEM_SUBSTANCE_SYNONYM>
SCHEMBL16118499

> <PUBCHEM_XREF_EXT_ID>
SCHEMBL16118499

> <PUBCHEM_EXT_DATASOURCE_URL>
https://www.surechembl.org/

> <PUBCHEM_EXT_SUBSTANCE_URL>
https://www.surechembl.org/chemical/SCHEMBL16118499

> <PUBCHEM_CID_ASSOCIATIONS>
86305005  1

> <PUBCHEM_COORDINATE_TYPE>
1
3

> <PUBCHEM_BONDANNOTATIONS>
17  24  6

$$$$
