310945987
  -OEChem-07211613022D

 23 24  0     0  0  0  0  0  0999 V2000
    2.3912   -2.0008    0.0000 F   0  0  0  0  0  0  0  0  0  0  0  0
    2.0984   -3.1023    0.0000 F   0  0  0  0  0  0  0  0  0  0  0  0
    0.9969   -2.7956    0.0000 F   0  0  0  0  0  0  0  0  0  0  0  0
    1.6941    0.4671    0.0000 O   0  0  0  0  0  0  0  0  0  0  0  0
   -0.2162    0.6205    0.0000 O   0  0  0  0  0  0  0  0  0  0  0  0
    2.1960    2.5167    0.0000 O   0  0  0  0  0  0  0  0  0  0  0  0
   -1.2898   -1.6244    0.0000 N   0  0  0  0  0  0  0  0  0  0  0  0
   -2.0705   -1.3734    0.0000 N   0  0  0  0  0  0  0  0  0  0  0  0
    0.0069   -0.9412    0.0000 C   0  0  0  0  0  0  0  0  0  0  0  0
   -0.8157   -0.9272    0.0000 C   0  0  0  0  0  0  0  0  0  0  0  0
    1.2619   -1.6662    0.0000 C   0  0  0  0  0  0  0  0  0  0  0  0
   -1.3176   -0.2719    0.0000 C   0  0  0  0  0  0  0  0  0  0  0  0
    0.4253   -1.6522    0.0000 C   0  0  0  0  0  0  0  0  0  0  0  0
    1.6801   -2.3912    0.0000 C   0  0  0  0  0  0  0  0  0  0  0  0
    1.2479   -0.2440    0.0000 C   0  0  0  0  0  0  0  0  0  0  0  0
    0.4253   -0.2300    0.0000 C   0  0  0  0  0  0  0  0  0  0  0  0
   -2.0845   -0.5229    0.0000 C   0  0  0  0  0  0  0  0  0  0  0  0
    1.6662   -0.9551    0.0000 C   0  0  0  0  0  0  0  0  0  0  0  0
   -1.0527    0.5089    0.0000 C   0  0  0  0  0  0  0  0  0  0  0  0
   -2.7956   -0.0348    0.0000 C   0  0  0  0  0  0  0  0  0  0  0  0
    1.6941    1.3176    0.0000 C   0  0  0  0  0  0  0  0  0  0  0  0
    2.3912    1.7359    0.0000 C   0  0  0  0  0  0  0  0  0  0  0  0
    2.7956    3.1023    0.0000 C   0  0  0  0  0  0  0  0  0  0  0  0
  1 14  1  0  0  0  0
  2 14  1  0  0  0  0
  3 14  1  0  0  0  0
  4 15  1  0  0  0  0
  4 21  1  0  0  0  0
  5 19  1  0  0  0  0
  6 22  1  0  0  0  0
  6 23  1  0  0  0  0
  7  8  1  0  0  0  0
  7 10  1  0  0  0  0
  8 17  2  0  0  0  0
  9 10  1  0  0  0  0
  9 13  2  0  0  0  0
  9 16  1  0  0  0  0
 10 12  2  0  0  0  0
 11 13  1  0  0  0  0
 11 14  1  0  0  0  0
 11 18  2  0  0  0  0
 12 17  1  0  0  0  0
 12 19  1  0  0  0  0
 15 16  2  0  0  0  0
 15 18  1  0  0  0  0
 17 20  1  0  0  0  0
 21 22  1  0  0  0  0
M  END
> <PUBCHEM_COMPOUND_ID_TYPE>
0

> <PUBCHEM_TOTAL_CHARGE>
0

> <PUBCHEM_SUBSTANCE_ID>
310945987

> <PUBCHEM_SUBSTANCE_VERSION>
1

> <PUBCHEM_EXT_DATASOURCE_NAME>
4488

> <PUBCHEM_EXT_DATASOURCE_REGID>
SCHEMBL16124092

> <PUBCHEM_SUBSTANCE_COMMENT>
InChI=1S/C15H17F3N2O3/c1-9-13(8-21)14(20-19-9)10-5-11(15(16,17)18)7-12(6-10)23-4-3-22-2/h5-7,21H,3-4,8H2,1-2H3,(H,19,20)
InChIKey=AUOHIIUHEWKQJU-UHFFFAOYSA-N

> <PUBCHEM_SUBSTANCE_SYNONYM>
SCHEMBL16124092

> <PUBCHEM_XREF_EXT_ID>
SCHEMBL16124092

> <PUBCHEM_EXT_DATASOURCE_URL>
https://www.surechembl.org/

> <PUBCHEM_EXT_SUBSTANCE_URL>
https://www.surechembl.org/chemical/SCHEMBL16124092

> <PUBCHEM_CID_ASSOCIATIONS>
117611959  1

> <PUBCHEM_COORDINATE_TYPE>
1
3

$$$$
