310940422
  -OEChem-07211613022D

  9  8  0     1  0  0  0  0  0999 V2000
    1.0429    0.2209    0.0000 O   0  0  0  0  0  0  0  0  0  0  0  0
    0.3435   -0.1840    0.0000 C   0  0  3  0  0  0  0  0  0  0  0  0
    0.3313   -0.9815    0.0000 C   0  0  3  0  0  0  0  0  0  0  0  0
   -0.3435    0.2332    0.0000 C   0  0  0  0  0  0  0  0  0  0  0  0
   -0.3681   -1.4478    0.0000 C   0  0  0  0  0  0  0  0  0  0  0  0
    1.0552   -1.4233    0.0000 C   0  0  0  0  0  0  0  0  0  0  0  0
   -1.0552   -0.1840    0.0000 C   0  0  0  0  0  0  0  0  0  0  0  0
   -0.3558    1.8405    0.0000 C   0  0  0  0  0  0  0  0  0  0  0  0
   -1.0552   -1.8405    0.0000 C   0  0  0  0  0  0  0  0  0  0  0  0
  2  1  1  6  0  0  0
  2  3  1  0  0  0  0
  2  4  1  0  0  0  0
  3  5  1  0  0  0  0
  3  6  1  0  0  0  0
  4  7  1  0  0  0  0
  4  8  1  0  0  0  0
  5  9  1  0  0  0  0
M  END
> <PUBCHEM_COMPOUND_ID_TYPE>
0

> <PUBCHEM_TOTAL_CHARGE>
0

> <PUBCHEM_SUBSTANCE_ID>
310940422

> <PUBCHEM_SUBSTANCE_VERSION>
1

> <PUBCHEM_EXT_DATASOURCE_NAME>
4488

> <PUBCHEM_EXT_DATASOURCE_REGID>
SCHEMBL16118370

> <PUBCHEM_SUBSTANCE_COMMENT>
InChI=1S/C8H18O/c1-5-7(4)8(9)6(2)3/h6-9H,5H2,1-4H3/t7?,8-/m0/s1
InChIKey=UCRQJBCLZKHOGX-MQWKRIRWSA-N

> <PUBCHEM_SUBSTANCE_SYNONYM>
SCHEMBL16118370

> <PUBCHEM_XREF_EXT_ID>
SCHEMBL16118370

> <PUBCHEM_EXT_DATASOURCE_URL>
https://www.surechembl.org/

> <PUBCHEM_EXT_SUBSTANCE_URL>
https://www.surechembl.org/chemical/SCHEMBL16118370

> <PUBCHEM_CID_ASSOCIATIONS>
117607447  1

> <PUBCHEM_COORDINATE_TYPE>
1
3

> <PUBCHEM_BONDANNOTATIONS>
2  1  6

$$$$
