310939993
  -OEChem-07211613022D

 20 21  0     0  0  0  0  0  0999 V2000
   -2.5121    0.3972    0.0000 I   0  0  0  0  0  0  0  0  0  0  0  0
   -5.3699   -1.2529    0.0000 Cl  0  0  0  0  0  0  0  0  0  0  0  0
   -5.3699    0.3972    0.0000 Cl  0  0  0  0  0  0  0  0  0  0  0  0
   -2.5121   -1.2529    0.0000 O   0  0  0  0  0  0  0  0  0  0  0  0
   -1.0831    1.2222    0.0000 O   0  0  0  0  0  0  0  0  0  0  0  0
    1.0605    1.6347    0.0000 O   0  0  0  0  0  0  0  0  0  0  0  0
   -1.0831   -1.2529    0.0000 N   0  0  0  0  0  0  0  0  0  0  0  0
   -3.2264   -0.8403    0.0000 C   0  0  0  0  0  0  0  0  0  0  0  0
   -3.2264   -0.0153    0.0000 C   0  0  0  0  0  0  0  0  0  0  0  0
   -4.6554   -0.8403    0.0000 C   0  0  0  0  0  0  0  0  0  0  0  0
   -4.6554   -0.0153    0.0000 C   0  0  0  0  0  0  0  0  0  0  0  0
   -3.9409   -1.2529    0.0000 C   0  0  0  0  0  0  0  0  0  0  0  0
   -1.7975   -0.8403    0.0000 C   0  0  0  0  0  0  0  0  0  0  0  0
   -3.9409    0.3972    0.0000 C   0  0  0  0  0  0  0  0  0  0  0  0
   -1.7975   -0.0153    0.0000 C   0  0  0  0  0  0  0  0  0  0  0  0
   -1.0831    0.3972    0.0000 C   0  0  0  0  0  0  0  0  0  0  0  0
   -0.3685   -0.0153    0.0000 C   0  0  0  0  0  0  0  0  0  0  0  0
   -0.3685   -0.8403    0.0000 C   0  0  0  0  0  0  0  0  0  0  0  0
   -0.3685    1.6347    0.0000 C   0  0  0  0  0  0  0  0  0  0  0  0
    0.3459    1.2222    0.0000 C   0  0  0  0  0  0  0  0  0  0  0  0
  1  9  1  0  0  0  0
  2 10  1  0  0  0  0
  3 11  1  0  0  0  0
  4  8  1  0  0  0  0
  4 13  1  0  0  0  0
  5 16  1  0  0  0  0
  5 19  1  0  0  0  0
  6 20  1  0  0  0  0
  7 13  1  0  0  0  0
  7 18  2  0  0  0  0
  8  9  1  0  0  0  0
  8 12  2  0  0  0  0
  9 14  2  0  0  0  0
 10 11  2  0  0  0  0
 10 12  1  0  0  0  0
 11 14  1  0  0  0  0
 13 15  2  0  0  0  0
 15 16  1  0  0  0  0
 16 17  2  0  0  0  0
 17 18  1  0  0  0  0
 19 20  1  0  0  0  0
M  END
> <PUBCHEM_COMPOUND_ID_TYPE>
0

> <PUBCHEM_TOTAL_CHARGE>
0

> <PUBCHEM_SUBSTANCE_ID>
310939993

> <PUBCHEM_SUBSTANCE_VERSION>
1

> <PUBCHEM_EXT_DATASOURCE_NAME>
4488

> <PUBCHEM_EXT_DATASOURCE_REGID>
SCHEMBL16117923

> <PUBCHEM_SUBSTANCE_COMMENT>
InChI=1S/C13H10Cl2INO3/c14-9-6-11(16)12(7-10(9)15)20-13-5-8(1-2-17-13)19-4-3-18/h1-2,5-7,18H,3-4H2
InChIKey=NGGNSEAUQJLXJN-UHFFFAOYSA-N

> <PUBCHEM_SUBSTANCE_SYNONYM>
SCHEMBL16117923

> <PUBCHEM_XREF_EXT_ID>
SCHEMBL16117923

> <PUBCHEM_EXT_DATASOURCE_URL>
https://www.surechembl.org/

> <PUBCHEM_EXT_SUBSTANCE_URL>
https://www.surechembl.org/chemical/SCHEMBL16117923

> <PUBCHEM_CID_ASSOCIATIONS>
117607156  1

> <PUBCHEM_COORDINATE_TYPE>
1
3

$$$$
