310947516
  -OEChem-07211613022D

 11 11  0     1  0  0  0  0  0999 V2000
   -6.6989    2.1724    0.0000 O   0  0  0  0  0  0  0  0  0  0  0  0
   -5.3170    2.0999    0.0000 O   0  0  0  0  0  0  0  0  0  0  0  0
   -5.8739    0.1883    0.0000 O   0  0  0  0  0  0  0  0  0  0  0  0
   -7.5239    0.1883    0.0000 O   0  0  0  0  0  0  0  0  0  0  0  0
   -6.2864    0.9028    0.0000 C   0  0  3  0  0  0  0  0  0  0  0  0
   -7.1114    0.9028    0.0000 C   0  0  3  0  0  0  0  0  0  0  0  0
   -6.0315    1.6874    0.0000 C   0  0  3  0  0  0  0  0  0  0  0  0
   -7.3664    1.6874    0.0000 C   0  0  3  0  0  0  0  0  0  0  0  0
   -7.7789    2.4019    0.0000 C   0  0  0  0  0  0  0  0  0  0  0  0
   -4.6026    1.6874    0.0000 C   0  0  0  0  0  0  0  0  0  0  0  0
   -8.6039    2.4019    0.0000 C   0  0  0  0  0  0  0  0  0  0  0  0
  1  7  1  0  0  0  0
  1  8  1  0  0  0  0
  7  2  1  6  0  0  0
  2 10  1  0  0  0  0
  5  3  1  6  0  0  0
  6  4  1  1  0  0  0
  5  6  1  0  0  0  0
  5  7  1  0  0  0  0
  6  8  1  0  0  0  0
  8  9  1  1  0  0  0
  9 11  1  0  0  0  0
M  END
> <PUBCHEM_COMPOUND_ID_TYPE>
0

> <PUBCHEM_TOTAL_CHARGE>
0

> <PUBCHEM_SUBSTANCE_ID>
310947516

> <PUBCHEM_SUBSTANCE_VERSION>
1

> <PUBCHEM_EXT_DATASOURCE_NAME>
4488

> <PUBCHEM_EXT_DATASOURCE_REGID>
SCHEMBL16125678

> <PUBCHEM_SUBSTANCE_COMMENT>
InChI=1S/C7H14O4/c1-3-4-5(8)6(9)7(10-2)11-4/h4-9H,3H2,1-2H3/t4-,5+,6-,7+/m1/s1
InChIKey=TYCTZZBOKOSUQK-UCROKIRRSA-N

> <PUBCHEM_SUBSTANCE_SYNONYM>
SCHEMBL16125678

> <PUBCHEM_XREF_EXT_ID>
SCHEMBL16125678

> <PUBCHEM_EXT_DATASOURCE_URL>
https://www.surechembl.org/

> <PUBCHEM_EXT_SUBSTANCE_URL>
https://www.surechembl.org/chemical/SCHEMBL16125678

> <PUBCHEM_CID_ASSOCIATIONS>
117613238  1

> <PUBCHEM_COORDINATE_TYPE>
1
3

> <PUBCHEM_BONDANNOTATIONS>
7  2  6
5  3  6
6  4  5
8  9  5

$$$$
