310944665
  -OEChem-07211613022D

 40 44  0     0  0  0  0  0  0999 V2000
   -0.6270    0.9322    0.0000 F   0  0  0  0  0  0  0  0  0  0  0  0
   -1.2374    3.7206    0.0000 F   0  0  0  0  0  0  0  0  0  0  0  0
   -0.9569   -3.0937    0.0000 O   0  0  0  0  0  0  0  0  0  0  0  0
    1.4684    2.8461    0.0000 O   0  0  0  0  0  0  0  0  0  0  0  0
    3.0524   -1.7902    0.0000 O   0  0  0  0  0  0  0  0  0  0  0  0
   -2.0130    1.3612    0.0000 N   0  0  0  0  0  0  0  0  0  0  0  0
   -1.5179    0.7012    0.0000 N   0  0  0  0  0  0  0  0  0  0  0  0
   -0.9404   -0.9157    0.0000 N   0  0  0  0  0  0  0  0  0  0  0  0
   -2.2933   -1.3612    0.0000 N   0  0  0  0  0  0  0  0  0  0  0  0
    0.1320   -1.8562    0.0000 N   0  0  0  0  0  0  0  0  0  0  0  0
    1.5014   -1.4107    0.0000 N   0  0  0  0  0  0  0  0  0  0  0  0
    0.9734    0.1568    0.0000 N   0  0  0  0  0  0  0  0  0  0  0  0
    3.4154   -0.4208    0.0000 N   0  0  0  0  0  0  0  0  0  0  0  0
   -2.0130    0.0413    0.0000 C   0  0  0  0  0  0  0  0  0  0  0  0
   -2.8049    0.3217    0.0000 C   0  0  0  0  0  0  0  0  0  0  0  0
   -2.7884    1.1302    0.0000 C   0  0  0  0  0  0  0  0  0  0  0  0
   -1.7490   -0.7342    0.0000 C   0  0  0  0  0  0  0  0  0  0  0  0
   -1.7490    2.1696    0.0000 C   0  0  0  0  0  0  0  0  0  0  0  0
   -3.4978   -0.1072    0.0000 C   0  0  0  0  0  0  0  0  0  0  0  0
   -0.9734    2.3511    0.0000 C   0  0  0  0  0  0  0  0  0  0  0  0
   -3.4978    1.5097    0.0000 C   0  0  0  0  0  0  0  0  0  0  0  0
   -0.6765   -1.6582    0.0000 C   0  0  0  0  0  0  0  0  0  0  0  0
   -1.2374   -2.3016    0.0000 C   0  0  0  0  0  0  0  0  0  0  0  0
   -0.3960    1.7572    0.0000 C   0  0  0  0  0  0  0  0  0  0  0  0
   -0.7094    3.1266    0.0000 C   0  0  0  0  0  0  0  0  0  0  0  0
   -4.2238    0.2888    0.0000 C   0  0  0  0  0  0  0  0  0  0  0  0
   -2.0459   -2.1201    0.0000 C   0  0  0  0  0  0  0  0  0  0  0  0
   -4.2238    1.1136    0.0000 C   0  0  0  0  0  0  0  0  0  0  0  0
    0.6765    2.6976    0.0000 C   0  0  0  0  0  0  0  0  0  0  0  0
    0.4125    1.9222    0.0000 C   0  0  0  0  0  0  0  0  0  0  0  0
    0.0990    3.3082    0.0000 C   0  0  0  0  0  0  0  0  0  0  0  0
    0.6765   -1.2127    0.0000 C   0  0  0  0  0  0  0  0  0  0  0  0
    2.0294   -0.7672    0.0000 C   0  0  0  0  0  0  0  0  0  0  0  0
    0.4290   -0.4372    0.0000 C   0  0  0  0  0  0  0  0  0  0  0  0
    1.7819    0.0082    0.0000 C   0  0  0  0  0  0  0  0  0  0  0  0
    2.8214   -0.9652    0.0000 C   0  0  0  0  0  0  0  0  0  0  0  0
   -1.5179   -3.7206    0.0000 C   0  0  0  0  0  0  0  0  0  0  0  0
    2.0130    2.2851    0.0000 C   0  0  0  0  0  0  0  0  0  0  0  0
    2.8379    2.4172    0.0000 C   0  0  0  0  0  0  0  0  0  0  0  0
    4.2238   -0.6352    0.0000 C   0  0  0  0  0  0  0  0  0  0  0  0
  1 24  1  0  0  0  0
  2 25  1  0  0  0  0
  3 23  1  0  0  0  0
  3 37  1  0  0  0  0
  4 29  1  0  0  0  0
  4 38  1  0  0  0  0
  5 36  2  0  0  0  0
  6  7  1  0  0  0  0
  6 16  1  0  0  0  0
  6 18  1  0  0  0  0
  7 14  2  0  0  0  0
  8 17  1  0  0  0  0
  8 22  2  0  0  0  0
  9 17  2  0  0  0  0
  9 27  1  0  0  0  0
 10 22  1  0  0  0  0
 10 32  1  0  0  0  0
 11 32  1  0  0  0  0
 11 33  2  0  0  0  0
 12 34  1  0  0  0  0
 12 35  2  0  0  0  0
 13 36  1  0  0  0  0
 13 40  1  0  0  0  0
 14 15  1  0  0  0  0
 14 17  1  0  0  0  0
 15 16  1  0  0  0  0
 15 19  2  0  0  0  0
 16 21  2  0  0  0  0
 18 20  1  0  0  0  0
 19 26  1  0  0  0  0
 20 24  2  0  0  0  0
 20 25  1  0  0  0  0
 21 28  1  0  0  0  0
 22 23  1  0  0  0  0
 23 27  2  0  0  0  0
 24 30  1  0  0  0  0
 25 31  2  0  0  0  0
 26 28  2  0  0  0  0
 29 30  2  0  0  0  0
 29 31  1  0  0  0  0
 32 34  2  0  0  0  0
 33 35  1  0  0  0  0
 33 36  1  0  0  0  0
 38 39  1  0  0  0  0
M  END
> <PUBCHEM_COMPOUND_ID_TYPE>
0

> <PUBCHEM_TOTAL_CHARGE>
0

> <PUBCHEM_SUBSTANCE_ID>
310944665

> <PUBCHEM_SUBSTANCE_VERSION>
1

> <PUBCHEM_EXT_DATASOURCE_NAME>
4488

> <PUBCHEM_EXT_DATASOURCE_REGID>
SCHEMBL16122743

> <PUBCHEM_SUBSTANCE_COMMENT>
InChI=1S/C27H24F2N8O3/c1-4-40-15-9-18(28)17(19(29)10-15)14-37-21-8-6-5-7-16(21)24(36-37)26-32-12-22(39-3)25(35-26)34-23-13-31-11-20(33-23)27(38)30-2/h5-13H,4,14H2,1-3H3,(H,30,38)(H,32,33,34,35)
InChIKey=SBGPNQPFOWMAPY-UHFFFAOYSA-N

> <PUBCHEM_SUBSTANCE_SYNONYM>
SCHEMBL16122743

> <PUBCHEM_XREF_EXT_ID>
SCHEMBL16122743

> <PUBCHEM_EXT_DATASOURCE_URL>
https://www.surechembl.org/

> <PUBCHEM_EXT_SUBSTANCE_URL>
https://www.surechembl.org/chemical/SCHEMBL16122743

> <PUBCHEM_CID_ASSOCIATIONS>
86268919  1

> <PUBCHEM_COORDINATE_TYPE>
1
3

$$$$
