310936139
  -OEChem-07211613022D

 26 28  0     0  0  0  0  0  0999 V2000
    6.9313    0.0000    0.0000 F   0  0  0  0  0  0  0  0  0  0  0  0
    5.6605   -0.6700    0.0000 F   0  0  0  0  0  0  0  0  0  0  0  0
    4.3667   -4.2512    0.0000 O   0  0  0  0  0  0  0  0  0  0  0  0
    6.8851   -1.4324    0.0000 O   0  0  0  0  0  0  0  0  0  0  0  0
    3.1422   -3.5349    0.0000 N   0  0  0  0  0  0  0  0  0  0  0  0
    1.9177   -1.3862    0.0000 N   0  0  0  0  0  0  0  0  0  0  0  0
    1.4324   -0.7163    0.0000 N   0  0  0  0  0  0  0  0  0  0  0  0
    6.8620   -2.8418    0.0000 N   0  0  0  0  0  0  0  0  0  0  0  0
    1.4094   -2.0332    0.0000 N   0  0  0  0  0  0  0  0  0  0  0  0
    0.6469   -1.7790    0.0000 N   0  0  0  0  0  0  0  0  0  0  0  0
    4.3898   -2.8187    0.0000 C   0  0  0  0  0  0  0  0  0  0  0  0
    5.2216   -2.8187    0.0000 C   0  0  0  0  0  0  0  0  0  0  0  0
    3.9739   -3.5349    0.0000 C   0  0  0  0  0  0  0  0  0  0  0  0
    3.1422   -2.1256    0.0000 C   0  0  0  0  0  0  0  0  0  0  0  0
    3.9739   -2.1256    0.0000 C   0  0  0  0  0  0  0  0  0  0  0  0
    5.6374   -2.1025    0.0000 C   0  0  0  0  0  0  0  0  0  0  0  0
    2.7263   -2.8187    0.0000 C   0  0  0  0  0  0  0  0  0  0  0  0
    2.7494   -1.4094    0.0000 C   0  0  0  0  0  0  0  0  0  0  0  0
    6.4692   -2.1256    0.0000 C   0  0  0  0  0  0  0  0  0  0  0  0
    5.6143   -3.5349    0.0000 C   0  0  0  0  0  0  0  0  0  0  0  0
    6.4461   -3.5581    0.0000 C   0  0  0  0  0  0  0  0  0  0  0  0
    0.6469   -0.9473    0.0000 C   0  0  0  0  0  0  0  0  0  0  0  0
    5.1754   -4.2743    0.0000 C   0  0  0  0  0  0  0  0  0  0  0  0
    6.4923   -0.6931    0.0000 C   0  0  0  0  0  0  0  0  0  0  0  0
    0.0000   -0.4390    0.0000 C   0  0  0  0  0  0  0  0  0  0  0  0
    5.7761   -3.7198    0.0000 C   0  0  0  0  0  0  0  0  0  0  0  0
  1 24  1  0  0  0  0
  2 24  1  0  0  0  0
  3 13  1  0  0  0  0
  3 23  1  0  0  0  0
  4 19  1  0  0  0  0
  4 24  1  0  0  0  0
  5 13  1  0  0  0  0
  5 17  2  0  0  0  0
  6  7  1  0  0  0  0
  6  9  1  0  0  0  0
  6 18  1  0  0  0  0
  7 22  2  0  0  0  0
  8 19  1  0  0  0  0
  8 21  2  0  0  0  0
  9 10  2  0  0  0  0
 10 22  1  0  0  0  0
 11 12  1  0  0  0  0
 11 13  2  0  0  0  0
 11 15  1  0  0  0  0
 12 16  1  0  0  0  0
 12 20  2  0  0  0  0
 14 15  2  0  0  0  0
 14 17  1  0  0  0  0
 14 18  1  0  0  0  0
 16 19  2  0  0  0  0
 20 21  1  0  0  0  0
 22 25  1  0  0  0  0
 23 26  1  0  0  0  0
M  END
> <PUBCHEM_COMPOUND_ID_TYPE>
0

> <PUBCHEM_TOTAL_CHARGE>
0

> <PUBCHEM_SUBSTANCE_ID>
310936139

> <PUBCHEM_SUBSTANCE_VERSION>
1

> <PUBCHEM_EXT_DATASOURCE_NAME>
4488

> <PUBCHEM_EXT_DATASOURCE_REGID>
SCHEMBL16113749

> <PUBCHEM_SUBSTANCE_COMMENT>
InChI=1S/C16H16F2N6O2/c1-3-25-15-13(12-4-5-19-14(7-12)26-16(17)18)6-11(8-20-15)9-24-22-10(2)21-23-24/h4-8,16H,3,9H2,1-2H3
InChIKey=WQTGGDAZGCIUBL-UHFFFAOYSA-N

> <PUBCHEM_SUBSTANCE_SYNONYM>
SCHEMBL16113749

> <PUBCHEM_XREF_EXT_ID>
SCHEMBL16113749

> <PUBCHEM_EXT_DATASOURCE_URL>
https://www.surechembl.org/

> <PUBCHEM_EXT_SUBSTANCE_URL>
https://www.surechembl.org/chemical/SCHEMBL16113749

> <PUBCHEM_CID_ASSOCIATIONS>
117604102  1

> <PUBCHEM_COORDINATE_TYPE>
1
3

$$$$
