310949191
  -OEChem-07211613022D

 14 14  0     0  0  0  0  0  0999 V2000
   -0.1826    1.8638    0.0000 F   0  0  0  0  0  0  0  0  0  0  0  0
    0.9130    2.1283    0.0000 F   0  0  0  0  0  0  0  0  0  0  0  0
    1.1901    1.0327    0.0000 F   0  0  0  0  0  0  0  0  0  0  0  0
    1.1901   -1.0327    0.0000 F   0  0  0  0  0  0  0  0  0  0  0  0
    0.8752   -2.1283    0.0000 F   0  0  0  0  0  0  0  0  0  0  0  0
   -0.2204   -1.8008    0.0000 F   0  0  0  0  0  0  0  0  0  0  0  0
    0.5100    0.0126    0.0000 N   0  0  0  0  0  0  0  0  0  0  0  0
   -0.7619    0.7556    0.0000 N   0  0  0  0  0  0  0  0  0  0  0  0
   -0.7745   -0.6800    0.0000 N   0  0  0  0  0  0  0  0  0  0  0  0
    0.0693    0.7430    0.0000 C   0  0  0  0  0  0  0  0  0  0  0  0
    0.0693   -0.6675    0.0000 C   0  0  0  0  0  0  0  0  0  0  0  0
    0.4974    1.4482    0.0000 C   0  0  0  0  0  0  0  0  0  0  0  0
    0.4723   -1.4104    0.0000 C   0  0  0  0  0  0  0  0  0  0  0  0
   -1.1901    0.0629    0.0000 C   0  0  0  0  0  0  0  0  0  0  0  0
  1 12  1  0  0  0  0
  2 12  1  0  0  0  0
  3 12  1  0  0  0  0
  4 13  1  0  0  0  0
  5 13  1  0  0  0  0
  6 13  1  0  0  0  0
  7 10  1  0  0  0  0
  7 11  2  0  0  0  0
  8 10  2  0  0  0  0
  8 14  1  0  0  0  0
  9 11  1  0  0  0  0
  9 14  2  0  0  0  0
 10 12  1  0  0  0  0
 11 13  1  0  0  0  0
M  END
> <PUBCHEM_COMPOUND_ID_TYPE>
0

> <PUBCHEM_TOTAL_CHARGE>
0

> <PUBCHEM_SUBSTANCE_ID>
310949191

> <PUBCHEM_SUBSTANCE_VERSION>
1

> <PUBCHEM_EXT_DATASOURCE_NAME>
4488

> <PUBCHEM_EXT_DATASOURCE_REGID>
SCHEMBL16127381

> <PUBCHEM_SUBSTANCE_COMMENT>
InChI=1S/C5HF6N3/c6-4(7,8)2-12-1-13-3(14-2)5(9,10)11/h1H
InChIKey=AIQLUHQAIICRTI-UHFFFAOYSA-N

> <PUBCHEM_SUBSTANCE_SYNONYM>
SCHEMBL16127381

> <PUBCHEM_XREF_EXT_ID>
SCHEMBL16127381

> <PUBCHEM_EXT_DATASOURCE_URL>
https://www.surechembl.org/

> <PUBCHEM_EXT_SUBSTANCE_URL>
https://www.surechembl.org/chemical/SCHEMBL16127381

> <PUBCHEM_CID_ASSOCIATIONS>
91614506  1

> <PUBCHEM_COORDINATE_TYPE>
1
3

$$$$
