310948847
  -OEChem-07211613022D

 36 39  0     1  0  0  0  0  0999 V2000
    2.5448    0.8879    0.0000 F   0  0  0  0  0  0  0  0  0  0  0  0
    3.6354    0.5802    0.0000 F   0  0  0  0  0  0  0  0  0  0  0  0
    3.2998   -0.5104    0.0000 F   0  0  0  0  0  0  0  0  0  0  0  0
   -3.6634    0.1887    0.0000 O   0  0  0  0  0  0  0  0  0  0  0  0
   -4.3904    1.4332    0.0000 O   0  0  0  0  0  0  0  0  0  0  0  0
    0.0559    2.6776    0.0000 O   0  0  0  0  0  0  0  0  0  0  0  0
    0.7691   -0.2167    0.0000 N   0  0  3  0  0  0  0  0  0  0  0  0
    0.7691    1.4472    0.0000 N   0  0  0  0  0  0  0  0  0  0  0  0
    1.4821    2.6916    0.0000 N   0  0  0  0  0  0  0  0  0  0  0  0
   -2.1673    1.4892    0.0000 C   0  0  3  0  0  0  0  0  0  0  0  0
   -2.9083    1.4892    0.0000 C   0  0  3  0  0  0  0  0  0  0  0  0
   -1.3842    1.0277    0.0000 C   0  0  0  0  0  0  0  0  0  0  0  0
   -2.5308    2.1463    0.0000 C   0  0  0  0  0  0  0  0  0  0  0  0
    0.0419    0.2167    0.0000 C   0  0  0  0  0  0  0  0  0  0  0  0
    0.0559    1.0417    0.0000 C   0  0  0  0  0  0  0  0  0  0  0  0
   -0.6851    1.4332    0.0000 C   0  0  0  0  0  0  0  0  0  0  0  0
   -1.3983    0.2167    0.0000 C   0  0  0  0  0  0  0  0  0  0  0  0
   -3.6774    1.0557    0.0000 C   0  0  0  0  0  0  0  0  0  0  0  0
   -0.6572   -0.2028    0.0000 C   0  0  0  0  0  0  0  0  0  0  0  0
    0.7691   -1.0417    0.0000 C   0  0  0  0  0  0  0  0  0  0  0  0
    1.4682    0.2028    0.0000 C   0  0  0  0  0  0  0  0  0  0  0  0
    0.7830    2.2722    0.0000 C   0  0  0  0  0  0  0  0  0  0  0  0
    0.0559   -1.4612    0.0000 C   0  0  0  0  0  0  0  0  0  0  0  0
    1.4821   -1.4472    0.0000 C   0  0  0  0  0  0  0  0  0  0  0  0
    2.2092   -0.2028    0.0000 C   0  0  0  0  0  0  0  0  0  0  0  0
    2.9223    0.1887    0.0000 C   0  0  0  0  0  0  0  0  0  0  0  0
    0.0559   -2.2722    0.0000 C   0  0  0  0  0  0  0  0  0  0  0  0
    1.4821   -2.2722    0.0000 C   0  0  0  0  0  0  0  0  0  0  0  0
    2.2092    2.2722    0.0000 C   0  0  0  0  0  0  0  0  0  0  0  0
    0.7691   -2.6916    0.0000 C   0  0  0  0  0  0  0  0  0  0  0  0
    2.2092    1.4612    0.0000 C   0  0  0  0  0  0  0  0  0  0  0  0
    2.9223    2.6776    0.0000 C   0  0  0  0  0  0  0  0  0  0  0  0
    3.6494    1.4612    0.0000 C   0  0  0  0  0  0  0  0  0  0  0  0
    2.9363    1.0417    0.0000 C   0  0  0  0  0  0  0  0  0  0  0  0
    3.6494    2.2722    0.0000 C   0  0  0  0  0  0  0  0  0  0  0  0
    4.3904    1.0277    0.0000 C   0  0  0  0  0  0  0  0  0  0  0  0
  1 26  1  0  0  0  0
  2 26  1  0  0  0  0
  3 26  1  0  0  0  0
  4 18  2  0  0  0  0
  5 18  1  0  0  0  0
  6 22  2  0  0  0  0
  7 14  1  0  0  0  0
  7 20  1  0  0  0  0
  7 21  1  0  0  0  0
  8 15  1  0  0  0  0
  8 22  1  0  0  0  0
  9 22  1  0  0  0  0
  9 29  1  0  0  0  0
 10 11  1  0  0  0  0
 10 12  1  0  0  0  0
 10 13  1  1  0  0  0
 11 13  1  0  0  0  0
 11 18  1  1  0  0  0
 12 16  1  0  0  0  0
 12 17  2  0  0  0  0
 14 15  1  0  0  0  0
 14 19  2  0  0  0  0
 15 16  2  0  0  0  0
 17 19  1  0  0  0  0
 20 23  1  0  0  0  0
 20 24  1  0  0  0  0
 21 25  1  0  0  0  0
 23 27  1  0  0  0  0
 24 28  1  0  0  0  0
 25 26  1  0  0  0  0
 27 30  1  0  0  0  0
 28 30  1  0  0  0  0
 29 31  2  0  0  0  0
 29 32  1  0  0  0  0
 31 34  1  0  0  0  0
 32 35  2  0  0  0  0
 33 34  2  0  0  0  0
 33 35  1  0  0  0  0
 33 36  1  0  0  0  0
M  END
> <PUBCHEM_COMPOUND_ID_TYPE>
0

> <PUBCHEM_TOTAL_CHARGE>
0

> <PUBCHEM_SUBSTANCE_ID>
310948847

> <PUBCHEM_SUBSTANCE_VERSION>
1

> <PUBCHEM_EXT_DATASOURCE_NAME>
4488

> <PUBCHEM_EXT_DATASOURCE_REGID>
SCHEMBL16127031

> <PUBCHEM_SUBSTANCE_COMMENT>
InChI=1S/C27H32F3N3O3/c1-17-7-10-19(11-8-17)31-26(36)32-23-15-18(21-16-22(21)25(34)35)9-12-24(23)33(14-13-27(28,29)30)20-5-3-2-4-6-20/h7-12,15,20-22H,2-6,13-14,16H2,1H3,(H,34,35)(H2,31,32,36)/t21-,22-/m0/s1
InChIKey=CWOYNTMWOLBLLT-VXKWHMMOSA-N

> <PUBCHEM_SUBSTANCE_SYNONYM>
SCHEMBL16127031

> <PUBCHEM_XREF_EXT_ID>
SCHEMBL16127031

> <PUBCHEM_EXT_DATASOURCE_URL>
https://www.surechembl.org/

> <PUBCHEM_EXT_SUBSTANCE_URL>
https://www.surechembl.org/chemical/SCHEMBL16127031

> <PUBCHEM_CID_ASSOCIATIONS>
117614384  1

> <PUBCHEM_COORDINATE_TYPE>
1
3

> <PUBCHEM_BONDANNOTATIONS>
10  13  5
11  18  5

$$$$
