310949823
  -OEChem-07211613022D

 21 22  0     0  0  0  0  0  0999 V2000
   -0.4447    0.0000    0.0000 O   0  0  0  0  0  0  0  0  0  0  0  0
    0.4013   -1.4317    0.0000 O   0  0  0  0  0  0  0  0  0  0  0  0
    3.3297    0.6941    0.0000 O   0  0  0  0  0  0  0  0  0  0  0  0
    3.3514   -0.6508    0.0000 O   0  0  0  0  0  0  0  0  0  0  0  0
   -0.4447    1.4100    0.0000 N   0  0  0  0  0  0  0  0  0  0  0  0
   -2.9393   -0.0217    0.0000 N   0  0  0  0  0  0  0  0  0  0  0  0
    0.4013    0.0217    0.0000 C   0  0  0  0  0  0  0  0  0  0  0  0
    0.8135   -0.6724    0.0000 C   0  0  0  0  0  0  0  0  0  0  0  0
   -0.8785    0.7159    0.0000 C   0  0  0  0  0  0  0  0  0  0  0  0
    2.0499    0.0651    0.0000 C   0  0  0  0  0  0  0  0  0  0  0  0
   -1.7028    0.7375    0.0000 C   0  0  0  0  0  0  0  0  0  0  0  0
    1.6594   -0.6508    0.0000 C   0  0  0  0  0  0  0  0  0  0  0  0
    0.8135    0.7159    0.0000 C   0  0  0  0  0  0  0  0  0  0  0  0
    1.6377    0.7592    0.0000 C   0  0  0  0  0  0  0  0  0  0  0  0
    2.9176    0.0434    0.0000 C   0  0  0  0  0  0  0  0  0  0  0  0
   -2.0933    1.3883    0.0000 C   0  0  0  0  0  0  0  0  0  0  0  0
   -2.0933    0.0000    0.0000 C   0  0  0  0  0  0  0  0  0  0  0  0
   -0.8569    2.1041    0.0000 C   0  0  0  0  0  0  0  0  0  0  0  0
   -1.7028    2.1258    0.0000 C   0  0  0  0  0  0  0  0  0  0  0  0
    0.8135   -2.1258    0.0000 C   0  0  0  0  0  0  0  0  0  0  0  0
   -3.3514    0.7159    0.0000 C   0  0  0  0  0  0  0  0  0  0  0  0
  1  7  1  0  0  0  0
  1  9  1  0  0  0  0
  2  8  1  0  0  0  0
  2 20  1  0  0  0  0
  3 15  2  0  0  0  0
  4 15  1  0  0  0  0
  5  9  1  0  0  0  0
  5 18  2  0  0  0  0
  6 17  1  0  0  0  0
  6 21  1  0  0  0  0
  7  8  2  0  0  0  0
  7 13  1  0  0  0  0
  8 12  1  0  0  0  0
  9 11  2  0  0  0  0
 10 12  2  0  0  0  0
 10 14  1  0  0  0  0
 10 15  1  0  0  0  0
 11 16  1  0  0  0  0
 11 17  1  0  0  0  0
 13 14  2  0  0  0  0
 16 19  2  0  0  0  0
 18 19  1  0  0  0  0
M  END
> <PUBCHEM_COMPOUND_ID_TYPE>
0

> <PUBCHEM_TOTAL_CHARGE>
0

> <PUBCHEM_SUBSTANCE_ID>
310949823

> <PUBCHEM_SUBSTANCE_VERSION>
1

> <PUBCHEM_EXT_DATASOURCE_NAME>
4488

> <PUBCHEM_EXT_DATASOURCE_REGID>
SCHEMBL16128023

> <PUBCHEM_SUBSTANCE_COMMENT>
InChI=1S/C15H16N2O4/c1-16-9-11-4-3-7-17-14(11)21-12-6-5-10(15(18)19)8-13(12)20-2/h3-8,16H,9H2,1-2H3,(H,18,19)
InChIKey=YCESUPDCBCISGX-UHFFFAOYSA-N

> <PUBCHEM_SUBSTANCE_SYNONYM>
SCHEMBL16128023

> <PUBCHEM_XREF_EXT_ID>
SCHEMBL16128023

> <PUBCHEM_EXT_DATASOURCE_URL>
https://www.surechembl.org/

> <PUBCHEM_EXT_SUBSTANCE_URL>
https://www.surechembl.org/chemical/SCHEMBL16128023

> <PUBCHEM_CID_ASSOCIATIONS>
117615141  1

> <PUBCHEM_COORDINATE_TYPE>
1
3

$$$$
