310949127
  -OEChem-07211613022D

 43 49  0     0  0  0  0  0  0999 V2000
   -0.1573   -0.4420    0.0000 F   0  0  0  0  0  0  0  0  0  0  0  0
    0.8912   -0.8163    0.0000 F   0  0  0  0  0  0  0  0  0  0  0  0
    0.5168   -1.8799    0.0000 F   0  0  0  0  0  0  0  0  0  0  0  0
   -3.5576   -1.5654    0.0000 F   0  0  0  0  0  0  0  0  0  0  0  0
   -2.9734   -0.3071    0.0000 F   0  0  0  0  0  0  0  0  0  0  0  0
   -0.4719   -3.6774    0.0000 F   0  0  0  0  0  0  0  0  0  0  0  0
   -1.2807   -4.4564    0.0000 F   0  0  0  0  0  0  0  0  0  0  0  0
   -2.0596   -3.6324    0.0000 F   0  0  0  0  0  0  0  0  0  0  0  0
   -1.2508   -0.3221    0.0000 N   0  0  0  0  0  0  0  0  0  0  0  0
    1.0860    1.9998    0.0000 N   0  0  0  0  0  0  0  0  0  0  0  0
   -0.5917    0.2022    0.0000 C   0  0  0  0  0  0  0  0  0  0  0  0
   -1.2657   -1.1310    0.0000 C   0  0  0  0  0  0  0  0  0  0  0  0
   -0.8463    0.9662    0.0000 C   0  0  0  0  0  0  0  0  0  0  0  0
   -1.9698    0.1873    0.0000 C   0  0  0  0  0  0  0  0  0  0  0  0
   -1.6702    0.9662    0.0000 C   0  0  0  0  0  0  0  0  0  0  0  0
   -0.5318   -1.5204    0.0000 C   0  0  0  0  0  0  0  0  0  0  0  0
    0.5168    1.4006    0.0000 C   0  0  0  0  0  0  0  0  0  0  0  0
   -1.9698   -1.5354    0.0000 C   0  0  0  0  0  0  0  0  0  0  0  0
   -0.2772    1.5803    0.0000 C   0  0  0  0  0  0  0  0  0  0  0  0
    0.9062    2.8236    0.0000 C   0  0  0  0  0  0  0  0  0  0  0  0
    1.9099    1.9249    0.0000 C   0  0  0  0  0  0  0  0  0  0  0  0
    0.2022    0.0225    0.0000 C   0  0  0  0  0  0  0  0  0  0  0  0
    1.6103    3.2580    0.0000 C   0  0  0  0  0  0  0  0  0  0  0  0
    2.2393    2.6738    0.0000 C   0  0  0  0  0  0  0  0  0  0  0  0
    0.1722   -1.1609    0.0000 C   0  0  0  0  0  0  0  0  0  0  0  0
    0.7714    0.6067    0.0000 C   0  0  0  0  0  0  0  0  0  0  0  0
   -1.2508   -2.7787    0.0000 C   0  0  0  0  0  0  0  0  0  0  0  0
   -2.7337    0.0375    0.0000 C   0  0  0  0  0  0  0  0  0  0  0  0
   -0.5618   -2.3742    0.0000 C   0  0  0  0  0  0  0  0  0  0  0  0
   -2.2393    1.5654    0.0000 C   0  0  0  0  0  0  0  0  0  0  0  0
   -1.9848   -2.3742    0.0000 C   0  0  0  0  0  0  0  0  0  0  0  0
   -2.9284   -1.1459    0.0000 C   0  0  0  0  0  0  0  0  0  0  0  0
   -1.2807   -3.6474    0.0000 C   0  0  0  0  0  0  0  0  0  0  0  0
    0.1873    3.2430    0.0000 C   0  0  0  0  0  0  0  0  0  0  0  0
    2.3892    1.2807    0.0000 C   0  0  0  0  0  0  0  0  0  0  0  0
   -3.2580    0.6067    0.0000 C   0  0  0  0  0  0  0  0  0  0  0  0
   -3.0183    1.4006    0.0000 C   0  0  0  0  0  0  0  0  0  0  0  0
    1.6103    4.0519    0.0000 C   0  0  0  0  0  0  0  0  0  0  0  0
    3.0633    2.7487    0.0000 C   0  0  0  0  0  0  0  0  0  0  0  0
    0.1873    4.0519    0.0000 C   0  0  0  0  0  0  0  0  0  0  0  0
    3.2131    1.3706    0.0000 C   0  0  0  0  0  0  0  0  0  0  0  0
    0.8912    4.4564    0.0000 C   0  0  0  0  0  0  0  0  0  0  0  0
    3.5576    2.0745    0.0000 C   0  0  0  0  0  0  0  0  0  0  0  0
  1 25  1  0  0  0  0
  2 25  1  0  0  0  0
  3 25  1  0  0  0  0
  4 32  1  0  0  0  0
  5 32  1  0  0  0  0
  6 33  1  0  0  0  0
  7 33  1  0  0  0  0
  8 33  1  0  0  0  0
  9 11  1  0  0  0  0
  9 12  1  0  0  0  0
  9 14  1  0  0  0  0
 10 17  1  0  0  0  0
 10 20  1  0  0  0  0
 10 21  1  0  0  0  0
 11 13  2  0  0  0  0
 11 22  1  0  0  0  0
 12 16  2  0  0  0  0
 12 18  1  0  0  0  0
 13 15  1  0  0  0  0
 13 19  1  0  0  0  0
 14 15  2  0  0  0  0
 14 28  1  0  0  0  0
 15 30  1  0  0  0  0
 16 25  1  0  0  0  0
 16 29  1  0  0  0  0
 17 19  2  0  0  0  0
 17 26  1  0  0  0  0
 18 31  2  0  0  0  0
 18 32  1  0  0  0  0
 20 23  2  0  0  0  0
 20 34  1  0  0  0  0
 21 24  2  0  0  0  0
 21 35  1  0  0  0  0
 22 26  2  0  0  0  0
 23 24  1  0  0  0  0
 23 38  1  0  0  0  0
 24 39  1  0  0  0  0
 27 29  2  0  0  0  0
 27 31  1  0  0  0  0
 27 33  1  0  0  0  0
 28 36  2  0  0  0  0
 30 37  2  0  0  0  0
 34 40  2  0  0  0  0
 35 41  2  0  0  0  0
 36 37  1  0  0  0  0
 38 42  2  0  0  0  0
 39 43  2  0  0  0  0
 40 42  1  0  0  0  0
 41 43  1  0  0  0  0
M  END
> <PUBCHEM_COMPOUND_ID_TYPE>
0

> <PUBCHEM_TOTAL_CHARGE>
0

> <PUBCHEM_SUBSTANCE_ID>
310949127

> <PUBCHEM_SUBSTANCE_VERSION>
1

> <PUBCHEM_EXT_DATASOURCE_NAME>
4488

> <PUBCHEM_EXT_DATASOURCE_REGID>
SCHEMBL16127317

> <PUBCHEM_SUBSTANCE_COMMENT>
InChI=1S/C33H18F8N2/c34-31(35)24-15-18(32(36,37)38)16-25(33(39,40)41)30(24)43-28-12-6-3-9-22(28)23-17-19(13-14-29(23)43)42-26-10-4-1-7-20(26)21-8-2-5-11-27(21)42/h1-17,31H
InChIKey=LWAMCBMNXRTGJT-UHFFFAOYSA-N

> <PUBCHEM_SUBSTANCE_SYNONYM>
SCHEMBL16127317

> <PUBCHEM_XREF_EXT_ID>
SCHEMBL16127317

> <PUBCHEM_EXT_DATASOURCE_URL>
https://www.surechembl.org/

> <PUBCHEM_EXT_SUBSTANCE_URL>
https://www.surechembl.org/chemical/SCHEMBL16127317

> <PUBCHEM_CID_ASSOCIATIONS>
117614624  1

> <PUBCHEM_COORDINATE_TYPE>
1
3

$$$$
