310948037
  -OEChem-07211613022D

 17 18  0     0  0  0  0  0  0999 V2000
    3.0160   -2.3486    0.0000 O   0  0  0  0  0  0  0  0  0  0  0  0
    0.3967   -1.2278    0.0000 N   0  0  0  0  0  0  0  0  0  0  0  0
   -0.8122   -1.7819    0.0000 N   0  0  0  0  0  0  0  0  0  0  0  0
   -2.3108   -0.9508    0.0000 N   0  0  0  0  0  0  0  0  0  0  0  0
   -2.3108    2.3486    0.0000 N   0  0  0  0  0  0  0  0  0  0  0  0
   -0.8878   -0.9381    0.0000 C   0  0  0  0  0  0  0  0  0  0  0  0
   -1.6182   -0.5226    0.0000 C   0  0  0  0  0  0  0  0  0  0  0  0
   -0.1323   -0.6107    0.0000 C   0  0  0  0  0  0  0  0  0  0  0  0
   -1.5930    0.3085    0.0000 C   0  0  0  0  0  0  0  0  0  0  0  0
   -0.0063   -1.9456    0.0000 C   0  0  0  0  0  0  0  0  0  0  0  0
   -2.3108    0.7366    0.0000 C   0  0  0  0  0  0  0  0  0  0  0  0
    1.2278   -1.1522    0.0000 C   0  0  0  0  0  0  0  0  0  0  0  0
   -3.0160   -0.5226    0.0000 C   0  0  0  0  0  0  0  0  0  0  0  0
   -3.0160    0.3085    0.0000 C   0  0  0  0  0  0  0  0  0  0  0  0
   -2.3108    1.5552    0.0000 C   0  0  0  0  0  0  0  0  0  0  0  0
    1.7189   -1.7945    0.0000 C   0  0  0  0  0  0  0  0  0  0  0  0
    2.5249   -1.6938    0.0000 C   0  0  0  0  0  0  0  0  0  0  0  0
  1 17  1  0  0  0  0
  2  8  1  0  0  0  0
  2 10  1  0  0  0  0
  2 12  1  0  0  0  0
  3  6  1  0  0  0  0
  3 10  2  0  0  0  0
  4  7  2  0  0  0  0
  4 13  1  0  0  0  0
  5 15  3  0  0  0  0
  6  7  1  0  0  0  0
  6  8  2  0  0  0  0
  7  9  1  0  0  0  0
  9 11  2  0  0  0  0
 11 14  1  0  0  0  0
 11 15  1  0  0  0  0
 12 16  1  0  0  0  0
 13 14  2  0  0  0  0
 16 17  1  0  0  0  0
M  END
> <PUBCHEM_COMPOUND_ID_TYPE>
0

> <PUBCHEM_TOTAL_CHARGE>
0

> <PUBCHEM_SUBSTANCE_ID>
310948037

> <PUBCHEM_SUBSTANCE_VERSION>
1

> <PUBCHEM_EXT_DATASOURCE_NAME>
4488

> <PUBCHEM_EXT_DATASOURCE_REGID>
SCHEMBL16126212

> <PUBCHEM_SUBSTANCE_COMMENT>
InChI=1S/C12H12N4O/c13-7-10-2-3-14-11(6-10)12-8-16(9-15-12)4-1-5-17/h2-3,6,8-9,17H,1,4-5H2
InChIKey=BMYUGWMXMNPZHY-UHFFFAOYSA-N

> <PUBCHEM_SUBSTANCE_SYNONYM>
SCHEMBL16126212

> <PUBCHEM_XREF_EXT_ID>
SCHEMBL16126212

> <PUBCHEM_EXT_DATASOURCE_URL>
https://www.surechembl.org/

> <PUBCHEM_EXT_SUBSTANCE_URL>
https://www.surechembl.org/chemical/SCHEMBL16126212

> <PUBCHEM_CID_ASSOCIATIONS>
117613672  1

> <PUBCHEM_COORDINATE_TYPE>
1
3

$$$$
