310938156
  -OEChem-07211613022D

 23 22  0     1  0  0  0  0  0999 V2000
    5.7302   -3.7588    0.0000 O   0  0  0  0  0  0  0  0  0  0  0  0
    5.0206   -2.5234    0.0000 O   0  0  0  0  0  0  0  0  0  0  0  0
    7.1760   -0.4469    0.0000 O   0  0  0  0  0  0  0  0  0  0  0  0
    7.8857   -1.7085    0.0000 O   0  0  0  0  0  0  0  0  0  0  0  0
    2.1554    0.0000    0.0000 O   0  0  0  0  0  0  0  0  0  0  0  0
    3.6011   -0.0263    0.0000 O   0  0  0  0  0  0  0  0  0  0  0  0
    6.4663   -2.5234    0.0000 N   0  0  0  0  0  0  0  0  0  0  0  0
    2.8651   -1.2617    0.0000 N   0  0  0  0  0  0  0  0  0  0  0  0
    6.4663   -1.7085    0.0000 C   0  0  3  0  0  0  0  0  0  0  0  0
    5.7302   -2.9440    0.0000 C   0  0  0  0  0  0  0  0  0  0  0  0
    5.0206   -4.1794    0.0000 C   0  0  0  0  0  0  0  0  0  0  0  0
    7.1760   -1.2880    0.0000 C   0  0  0  0  0  0  0  0  0  0  0  0
    5.7302   -1.2880    0.0000 C   0  0  0  0  0  0  0  0  0  0  0  0
    5.0206   -1.7085    0.0000 C   0  0  0  0  0  0  0  0  0  0  0  0
    4.2846   -4.6000    0.0000 C   0  0  0  0  0  0  0  0  0  0  0  0
    4.6000   -3.4697    0.0000 C   0  0  0  0  0  0  0  0  0  0  0  0
    5.4411   -4.9154    0.0000 C   0  0  0  0  0  0  0  0  0  0  0  0
    4.2846   -1.2880    0.0000 C   0  0  0  0  0  0  0  0  0  0  0  0
    2.8651   -0.4206    0.0000 C   0  0  0  0  0  0  0  0  0  0  0  0
    3.5748   -1.6823    0.0000 C   0  0  0  0  0  0  0  0  0  0  0  0
    1.4457   -0.4206    0.0000 C   0  0  0  0  0  0  0  0  0  0  0  0
    0.7360    0.0000    0.0000 C   0  0  0  0  0  0  0  0  0  0  0  0
    0.0000   -0.3943    0.0000 C   0  0  0  0  0  0  0  0  0  0  0  0
  1 10  1  0  0  0  0
  1 11  1  0  0  0  0
  2 10  2  0  0  0  0
  3 12  2  0  0  0  0
  4 12  1  0  0  0  0
  5 19  1  0  0  0  0
  5 21  1  0  0  0  0
  6 19  2  0  0  0  0
  9  7  1  1  0  0  0
  7 10  1  0  0  0  0
  8 19  1  0  0  0  0
  8 20  1  0  0  0  0
  9 12  1  0  0  0  0
  9 13  1  0  0  0  0
 11 15  1  0  0  0  0
 11 16  1  0  0  0  0
 11 17  1  0  0  0  0
 13 14  1  0  0  0  0
 14 18  1  0  0  0  0
 18 20  1  0  0  0  0
 21 22  1  0  0  0  0
 22 23  2  0  0  0  0
M  END
> <PUBCHEM_COMPOUND_ID_TYPE>
0

> <PUBCHEM_TOTAL_CHARGE>
0

> <PUBCHEM_SUBSTANCE_ID>
310938156

> <PUBCHEM_SUBSTANCE_VERSION>
1

> <PUBCHEM_EXT_DATASOURCE_NAME>
4488

> <PUBCHEM_EXT_DATASOURCE_REGID>
SCHEMBL16116008

> <PUBCHEM_SUBSTANCE_COMMENT>
InChI=1S/C15H26N2O6/c1-5-10-22-13(20)16-9-7-6-8-11(12(18)19)17-14(21)23-15(2,3)4/h5,11H,1,6-10H2,2-4H3,(H,16,20)(H,17,21)(H,18,19)/t11-/m0/s1
InChIKey=WSUYYYMWIGBPJO-NSHDSACASA-N

> <PUBCHEM_SUBSTANCE_SYNONYM>
SCHEMBL16116008

> <PUBCHEM_XREF_EXT_ID>
SCHEMBL16116008

> <PUBCHEM_EXT_DATASOURCE_URL>
https://www.surechembl.org/

> <PUBCHEM_EXT_SUBSTANCE_URL>
https://www.surechembl.org/chemical/SCHEMBL16116008

> <PUBCHEM_CID_ASSOCIATIONS>
11688514  1

> <PUBCHEM_COORDINATE_TYPE>
1
3

> <PUBCHEM_BONDANNOTATIONS>
9  7  5

$$$$
