310938323
  -OEChem-07211613022D

 29 31  0     1  0  0  0  0  0999 V2000
    3.1197   -1.3178    0.0000 O   0  0  0  0  0  0  0  0  0  0  0  0
    1.0758   -4.1148    0.0000 O   0  0  0  0  0  0  0  0  0  0  0  0
    5.1905   -2.0440    0.0000 O   0  0  0  0  0  0  0  0  0  0  0  0
    3.9534   -1.3178    0.0000 O   0  0  0  0  0  0  0  0  0  0  0  0
    1.8557   -2.0170    0.0000 N   0  0  0  0  0  0  0  0  0  0  0  0
    2.4473   -3.6576    0.0000 N   0  0  0  0  0  0  0  0  0  0  0  0
    3.9534   -2.7432    0.0000 N   0  0  0  0  0  0  0  0  0  0  0  0
    3.8727   -5.3788    0.0000 N   0  0  0  0  0  0  0  0  0  0  0  0
    4.1417   -4.0879    0.0000 N   0  0  0  0  0  0  0  0  0  0  0  0
    4.6796   -5.2981    0.0000 N   0  0  0  0  0  0  0  0  0  0  0  0
    4.8678   -4.4913    0.0000 N   0  0  0  0  0  0  0  0  0  0  0  0
    1.3985   -1.3447    0.0000 C   0  0  0  0  0  0  0  0  0  0  0  0
    1.3985   -2.7163    0.0000 C   0  0  3  0  0  0  0  0  0  0  0  0
    0.5916   -1.6137    0.0000 C   0  0  0  0  0  0  0  0  0  0  0  0
    0.6186   -2.4473    0.0000 C   0  0  0  0  0  0  0  0  0  0  0  0
    2.6894   -2.0170    0.0000 C   0  0  0  0  0  0  0  0  0  0  0  0
    1.6405   -3.4962    0.0000 C   0  0  0  0  0  0  0  0  0  0  0  0
    1.5598   -0.5379    0.0000 C   0  0  0  0  0  0  0  0  0  0  0  0
    0.0000   -1.0489    0.0000 C   0  0  0  0  0  0  0  0  0  0  0  0
    3.1197   -2.7432    0.0000 C   0  0  0  0  0  0  0  0  0  0  0  0
    0.9682    0.0000    0.0000 C   0  0  0  0  0  0  0  0  0  0  0  0
    0.1345   -0.2689    0.0000 C   0  0  0  0  0  0  0  0  0  0  0  0
    2.7163   -4.4644    0.0000 C   0  0  0  0  0  0  0  0  0  0  0  0
    3.5231   -4.6258    0.0000 C   0  0  0  0  0  0  0  0  0  0  0  0
    4.3569   -2.0440    0.0000 C   0  0  0  0  0  0  0  0  0  0  0  0
    5.5940   -1.3178    0.0000 C   0  0  0  0  0  0  0  0  0  0  0  0
    6.3201   -1.7481    0.0000 C   0  0  0  0  0  0  0  0  0  0  0  0
    5.9974   -0.5916    0.0000 C   0  0  0  0  0  0  0  0  0  0  0  0
    4.8947   -0.9144    0.0000 C   0  0  0  0  0  0  0  0  0  0  0  0
  1 16  2  0  0  0  0
  2 17  2  0  0  0  0
  3 25  1  0  0  0  0
  3 26  1  0  0  0  0
  4 25  2  0  0  0  0
  5 12  1  0  0  0  0
  5 13  1  0  0  0  0
  5 16  1  0  0  0  0
  6 17  1  0  0  0  0
  6 23  1  0  0  0  0
  7 20  1  0  0  0  0
  7 25  1  0  0  0  0
  8 10  2  0  0  0  0
  8 24  1  0  0  0  0
  9 11  1  0  0  0  0
  9 24  2  0  0  0  0
 10 11  1  0  0  0  0
 12 14  2  0  0  0  0
 12 18  1  0  0  0  0
 13 15  1  0  0  0  0
 13 17  1  6  0  0  0
 14 15  1  0  0  0  0
 14 19  1  0  0  0  0
 16 20  1  0  0  0  0
 18 21  2  0  0  0  0
 19 22  2  0  0  0  0
 21 22  1  0  0  0  0
 23 24  1  0  0  0  0
 26 27  1  0  0  0  0
 26 28  1  0  0  0  0
 26 29  1  0  0  0  0
M  END
> <PUBCHEM_COMPOUND_ID_TYPE>
0

> <PUBCHEM_TOTAL_CHARGE>
0

> <PUBCHEM_SUBSTANCE_ID>
310938323

> <PUBCHEM_SUBSTANCE_VERSION>
1

> <PUBCHEM_EXT_DATASOURCE_NAME>
4488

> <PUBCHEM_EXT_DATASOURCE_REGID>
SCHEMBL16116201

> <PUBCHEM_SUBSTANCE_COMMENT>
InChI=1S/C18H23N7O4/c1-18(2,3)29-17(28)20-10-15(26)25-12-7-5-4-6-11(12)8-13(25)16(27)19-9-14-21-23-24-22-14/h4-7,13H,8-10H2,1-3H3,(H,19,27)(H,20,28)(H,21,22,23,24)/t13-/m0/s1
InChIKey=HSIIUWSHGDVPBY-ZDUSSCGKSA-N

> <PUBCHEM_SUBSTANCE_SYNONYM>
SCHEMBL16116201

> <PUBCHEM_XREF_EXT_ID>
SCHEMBL16116201

> <PUBCHEM_EXT_DATASOURCE_URL>
https://www.surechembl.org/

> <PUBCHEM_EXT_SUBSTANCE_URL>
https://www.surechembl.org/chemical/SCHEMBL16116201

> <PUBCHEM_CID_ASSOCIATIONS>
117605820  1

> <PUBCHEM_COORDINATE_TYPE>
1
3

> <PUBCHEM_BONDANNOTATIONS>
13  17  6

$$$$
