310947914
  -OEChem-07211613022D

 25 26  0     1  0  0  0  0  0999 V2000
    3.5463   -1.3114    0.0000 S   0  0  0  0  0  0  0  0  0  0  0  0
    2.7213   -1.3114    0.0000 O   0  0  0  0  0  0  0  0  0  0  0  0
    0.1355   -1.3114    0.0000 O   0  0  0  0  0  0  0  0  0  0  0  0
    0.0123    2.1364    0.0000 O   0  0  0  0  0  0  0  0  0  0  0  0
   -1.5269    0.9051    0.0000 O   0  0  0  0  0  0  0  0  0  0  0  0
    3.5463   -2.1364    0.0000 O   0  0  0  0  0  0  0  0  0  0  0  0
    3.5463   -0.4864    0.0000 O   0  0  0  0  0  0  0  0  0  0  0  0
    4.3591   -1.3114    0.0000 O   0  0  0  0  0  0  0  0  0  0  0  0
    0.7388    0.0923    0.0000 N   0  0  0  0  0  0  0  0  0  0  0  0
    2.1549   -0.7327    0.0000 N   0  0  0  0  0  0  0  0  0  0  0  0
   -0.6895    0.9173    0.0000 N   0  0  0  0  0  0  0  0  0  0  0  0
   -3.6448    1.3238    0.0000 N   0  0  0  0  0  0  0  0  0  0  0  0
    0.7388    0.9173    0.0000 C   0  0  3  0  0  0  0  0  0  0  0  0
    0.7388   -0.7080    0.0000 C   0  0  0  0  0  0  0  0  0  0  0  0
   -0.0370    1.2868    0.0000 C   0  0  0  0  0  0  0  0  0  0  0  0
    1.4530   -0.3140    0.0000 C   0  0  0  0  0  0  0  0  0  0  0  0
    1.4284    1.3238    0.0000 C   0  0  0  0  0  0  0  0  0  0  0  0
    2.1426    0.0801    0.0000 C   0  0  0  0  0  0  0  0  0  0  0  0
    2.1549    0.9051    0.0000 C   0  0  0  0  0  0  0  0  0  0  0  0
   -2.9306    0.9051    0.0000 C   0  0  3  0  0  0  0  0  0  0  0  0
   -2.2165    1.3114    0.0000 C   0  0  0  0  0  0  0  0  0  0  0  0
   -2.9306    0.0923    0.0000 C   0  0  0  0  0  0  0  0  0  0  0  0
   -4.3467    0.9173    0.0000 C   0  0  0  0  0  0  0  0  0  0  0  0
   -3.6326   -0.3140    0.0000 C   0  0  0  0  0  0  0  0  0  0  0  0
   -4.3591    0.0923    0.0000 C   0  0  0  0  0  0  0  0  0  0  0  0
  1  2  1  0  0  0  0
  1  6  2  0  0  0  0
  1  7  2  0  0  0  0
  1  8  1  0  0  0  0
  2 10  1  0  0  0  0
  3 14  2  0  0  0  0
  4 15  2  0  0  0  0
  5 11  1  0  0  0  0
  5 21  1  0  0  0  0
  9 13  1  0  0  0  0
  9 14  1  0  0  0  0
  9 16  1  0  0  0  0
 10 14  1  0  0  0  0
 11 15  1  0  0  0  0
 12 20  1  0  0  0  0
 12 23  1  0  0  0  0
 13 15  1  6  0  0  0
 13 17  1  0  0  0  0
 16 18  1  0  0  0  0
 17 19  1  0  0  0  0
 18 19  1  0  0  0  0
 20 21  1  6  0  0  0
 20 22  1  0  0  0  0
 22 24  1  0  0  0  0
 23 25  1  0  0  0  0
 24 25  1  0  0  0  0
M  END
> <PUBCHEM_COMPOUND_ID_TYPE>
0

> <PUBCHEM_TOTAL_CHARGE>
0

> <PUBCHEM_SUBSTANCE_ID>
310947914

> <PUBCHEM_SUBSTANCE_VERSION>
1

> <PUBCHEM_EXT_DATASOURCE_NAME>
4488

> <PUBCHEM_EXT_DATASOURCE_REGID>
SCHEMBL16126088

> <PUBCHEM_SUBSTANCE_COMMENT>
InChI=1S/C13H24N4O7S/c18-12(15-23-9-10-5-1-3-7-14-10)11-6-2-4-8-17(11)13(19)16-24-25(20,21)22/h10-11,14H,1-9H2,(H,15,18)(H,16,19)(H,20,21,22)/t10-,11-/m0/s1
InChIKey=FPLBMMXHAVTTKS-QWRGUYRKSA-N

> <PUBCHEM_SUBSTANCE_SYNONYM>
SCHEMBL16126088

> <PUBCHEM_XREF_EXT_ID>
SCHEMBL16126088

> <PUBCHEM_EXT_DATASOURCE_URL>
https://www.surechembl.org/

> <PUBCHEM_EXT_SUBSTANCE_URL>
https://www.surechembl.org/chemical/SCHEMBL16126088

> <PUBCHEM_CID_ASSOCIATIONS>
117613576  1

> <PUBCHEM_COORDINATE_TYPE>
1
3

> <PUBCHEM_BONDANNOTATIONS>
13  15  6
20  21  6

$$$$
