310945249
  -OEChem-07211613022D

 37 41  0     0  0  0  0  0  0999 V2000
    3.2992    0.0459    0.0000 O   0  0  0  0  0  0  0  0  0  0  0  0
   -4.2890   -1.6404    0.0000 O   0  0  0  0  0  0  0  0  0  0  0  0
    4.6555   -0.7240    0.0000 O   0  0  0  0  0  0  0  0  0  0  0  0
    4.4356   -2.1170    0.0000 O   0  0  0  0  0  0  0  0  0  0  0  0
   -5.0038    1.2555    0.0000 O   0  0  0  0  0  0  0  0  0  0  0  0
    3.2992   -1.3655    0.0000 N   0  0  0  0  0  0  0  0  0  0  0  0
    0.8248   -1.2005    0.0000 N   0  0  0  0  0  0  0  0  0  0  0  0
   -0.6965   -0.3757    0.0000 N   0  0  0  0  0  0  0  0  0  0  0  0
   -4.2890    0.0459    0.0000 N   0  0  0  0  0  0  0  0  0  0  0  0
   -1.4113    0.8707    0.0000 N   0  0  0  0  0  0  0  0  0  0  0  0
    2.0528   -0.6507    0.0000 C   0  0  0  0  0  0  0  0  0  0  0  0
    1.6312   -1.3655    0.0000 C   0  0  0  0  0  0  0  0  0  0  0  0
    0.7515   -0.3757    0.0000 C   0  0  0  0  0  0  0  0  0  0  0  0
    2.8593   -0.6690    0.0000 C   0  0  0  0  0  0  0  0  0  0  0  0
    1.4663   -0.0459    0.0000 C   0  0  0  0  0  0  0  0  0  0  0  0
    0.0183    0.0459    0.0000 C   0  0  0  0  0  0  0  0  0  0  0  0
   -3.5558   -0.3757    0.0000 C   0  0  0  0  0  0  0  0  0  0  0  0
   -1.4113    0.0459    0.0000 C   0  0  0  0  0  0  0  0  0  0  0  0
   -2.1262   -0.3757    0.0000 C   0  0  0  0  0  0  0  0  0  0  0  0
    2.0528   -2.0803    0.0000 C   0  0  0  0  0  0  0  0  0  0  0  0
   -3.5742   -1.2005    0.0000 C   0  0  0  0  0  0  0  0  0  0  0  0
    2.8776   -2.0987    0.0000 C   0  0  0  0  0  0  0  0  0  0  0  0
   -2.8593    0.0275    0.0000 C   0  0  0  0  0  0  0  0  0  0  0  0
    4.1240   -1.3839    0.0000 C   0  0  0  0  0  0  0  0  0  0  0  0
    0.0183    0.8707    0.0000 C   0  0  0  0  0  0  0  0  0  0  0  0
   -2.1445   -1.2005    0.0000 C   0  0  0  0  0  0  0  0  0  0  0  0
   -2.8410   -1.6038    0.0000 C   0  0  0  0  0  0  0  0  0  0  0  0
   -4.2706    0.8707    0.0000 C   0  0  0  0  0  0  0  0  0  0  0  0
   -0.7148    1.2739    0.0000 C   0  0  0  0  0  0  0  0  0  0  0  0
   -4.9855   -0.3757    0.0000 C   0  0  0  0  0  0  0  0  0  0  0  0
   -5.0038   -1.2005    0.0000 C   0  0  0  0  0  0  0  0  0  0  0  0
    4.3256    0.0641    0.0000 C   0  0  0  0  0  0  0  0  0  0  0  0
   -3.5742    1.2739    0.0000 C   0  0  0  0  0  0  0  0  0  0  0  0
    5.0038    0.3941    0.0000 C   0  0  0  0  0  0  0  0  0  0  0  0
    3.6475   -0.2475    0.0000 C   0  0  0  0  0  0  0  0  0  0  0  0
    4.0140    0.8156    0.0000 C   0  0  0  0  0  0  0  0  0  0  0  0
   -3.6475    2.1170    0.0000 C   0  0  0  0  0  0  0  0  0  0  0  0
  1 14  2  0  0  0  0
  2 21  1  0  0  0  0
  2 31  1  0  0  0  0
  3 24  1  0  0  0  0
  3 32  1  0  0  0  0
  4 24  2  0  0  0  0
  5 28  2  0  0  0  0
  6 14  1  0  0  0  0
  6 22  1  0  0  0  0
  6 24  1  0  0  0  0
  7 12  1  0  0  0  0
  7 13  1  0  0  0  0
  8 16  2  0  0  0  0
  8 18  1  0  0  0  0
  9 17  1  0  0  0  0
  9 28  1  0  0  0  0
  9 30  1  0  0  0  0
 10 18  2  0  0  0  0
 10 29  1  0  0  0  0
 11 12  2  0  0  0  0
 11 14  1  0  0  0  0
 11 15  1  0  0  0  0
 12 20  1  0  0  0  0
 13 15  2  0  0  0  0
 13 16  1  0  0  0  0
 16 25  1  0  0  0  0
 17 21  2  0  0  0  0
 17 23  1  0  0  0  0
 18 19  1  0  0  0  0
 19 23  2  0  0  0  0
 19 26  1  0  0  0  0
 20 22  1  0  0  0  0
 21 27  1  0  0  0  0
 25 29  2  0  0  0  0
 26 27  2  0  0  0  0
 28 33  1  0  0  0  0
 30 31  1  0  0  0  0
 32 34  1  0  0  0  0
 32 35  1  0  0  0  0
 32 36  1  0  0  0  0
 33 37  2  0  0  0  0
M  END
> <PUBCHEM_COMPOUND_ID_TYPE>
0

> <PUBCHEM_TOTAL_CHARGE>
0

> <PUBCHEM_SUBSTANCE_ID>
310945249

> <PUBCHEM_SUBSTANCE_VERSION>
1

> <PUBCHEM_EXT_DATASOURCE_NAME>
4488

> <PUBCHEM_EXT_DATASOURCE_REGID>
SCHEMBL16123343

> <PUBCHEM_SUBSTANCE_COMMENT>
InChI=1S/C27H27N5O5/c1-5-23(33)31-12-13-36-22-7-6-16(14-21(22)31)24-28-10-8-19(30-24)20-15-17-18(29-20)9-11-32(25(17)34)26(35)37-27(2,3)4/h5-8,10,14-15,29H,1,9,11-13H2,2-4H3
InChIKey=FVFRDCRNPCIGCI-UHFFFAOYSA-N

> <PUBCHEM_SUBSTANCE_SYNONYM>
SCHEMBL16123343

> <PUBCHEM_XREF_EXT_ID>
SCHEMBL16123343

> <PUBCHEM_EXT_DATASOURCE_URL>
https://www.surechembl.org/

> <PUBCHEM_EXT_SUBSTANCE_URL>
https://www.surechembl.org/chemical/SCHEMBL16123343

> <PUBCHEM_CID_ASSOCIATIONS>
117611316  1

> <PUBCHEM_COORDINATE_TYPE>
1
3

$$$$
