310936654
  -OEChem-07211613022D

 42 45  0     1  0  0  0  0  0999 V2000
    4.8984   -1.1235    0.0000 F   0  0  0  0  0  0  0  0  0  0  0  0
    3.7299   -0.2696    0.0000 F   0  0  0  0  0  0  0  0  0  0  0  0
    4.4490   -1.7976    0.0000 F   0  0  0  0  0  0  0  0  0  0  0  0
    0.9437    0.0000    0.0000 F   0  0  0  0  0  0  0  0  0  0  0  0
    0.7639   -1.4381    0.0000 F   0  0  0  0  0  0  0  0  0  0  0  0
    1.7077   -0.0899    0.0000 F   0  0  0  0  0  0  0  0  0  0  0  0
    0.0000   -6.4263    0.0000 F   0  0  0  0  0  0  0  0  0  0  0  0
    0.6741   -7.6397    0.0000 F   0  0  0  0  0  0  0  0  0  0  0  0
    0.6741   -6.0219    0.0000 F   0  0  0  0  0  0  0  0  0  0  0  0
    1.7077   -3.7749    0.0000 O   0  0  0  0  0  0  0  0  0  0  0  0
    1.3482   -5.2129    0.0000 O   0  0  0  0  0  0  0  0  0  0  0  0
    3.9547   -5.3927    0.0000 O   0  0  0  0  0  0  0  0  0  0  0  0
    5.2129   -6.1117    0.0000 O   0  0  0  0  0  0  0  0  0  0  0  0
    5.2129   -8.9878    0.0000 O   0  0  0  0  0  0  0  0  0  0  0  0
    2.7413   -4.6287    0.0000 N   0  0  0  0  0  0  0  0  0  0  0  0
    3.9547   -6.8307    0.0000 N   0  0  0  0  0  0  0  0  0  0  0  0
    2.7413   -7.5048    0.0000 N   0  0  0  0  0  0  0  0  0  0  0  0
    2.4267   -3.3704    0.0000 C   0  0  3  0  0  0  0  0  0  0  0  0
    3.0559   -3.9097    0.0000 C   0  0  3  0  0  0  0  0  0  0  0  0
    2.5166   -2.5166    0.0000 C   0  0  0  0  0  0  0  0  0  0  0  0
    1.8874   -4.5838    0.0000 C   0  0  0  0  0  0  0  0  0  0  0  0
    2.7413   -6.1117    0.0000 C   0  0  0  0  0  0  0  0  0  0  0  0
    3.1457   -6.8307    0.0000 C   0  0  0  0  0  0  0  0  0  0  0  0
    3.1457   -5.3477    0.0000 C   0  0  0  0  0  0  0  0  0  0  0  0
    3.3255   -1.3931    0.0000 C   0  0  0  0  0  0  0  0  0  0  0  0
    1.9324   -1.2583    0.0000 C   0  0  0  0  0  0  0  0  0  0  0  0
    1.8425   -2.0672    0.0000 C   0  0  0  0  0  0  0  0  0  0  0  0
    3.2806   -2.2020    0.0000 C   0  0  0  0  0  0  0  0  0  0  0  0
    1.5279   -6.8307    0.0000 C   0  0  0  0  0  0  0  0  0  0  0  0
    2.6964   -0.8988    0.0000 C   0  0  0  0  0  0  0  0  0  0  0  0
    1.8874   -6.1117    0.0000 C   0  0  0  0  0  0  0  0  0  0  0  0
    4.0894   -1.0336    0.0000 C   0  0  0  0  0  0  0  0  0  0  0  0
    1.2583   -0.7639    0.0000 C   0  0  0  0  0  0  0  0  0  0  0  0
    4.3591   -7.5498    0.0000 C   0  0  0  0  0  0  0  0  0  0  0  0
    0.6741   -6.8307    0.0000 C   0  0  0  0  0  0  0  0  0  0  0  0
    1.9324   -7.5498    0.0000 C   0  0  0  0  0  0  0  0  0  0  0  0
    3.8648   -3.7299    0.0000 C   0  0  0  0  0  0  0  0  0  0  0  0
    4.3591   -6.1117    0.0000 C   0  0  0  0  0  0  0  0  0  0  0  0
    3.9996   -8.2688    0.0000 C   0  0  0  0  0  0  0  0  0  0  0  0
    5.2129   -7.5498    0.0000 C   0  0  0  0  0  0  0  0  0  0  0  0
    4.4040   -8.9429    0.0000 C   0  0  0  0  0  0  0  0  0  0  0  0
    5.6174   -8.2688    0.0000 C   0  0  0  0  0  0  0  0  0  0  0  0
  1 32  1  0  0  0  0
  2 32  1  0  0  0  0
  3 32  1  0  0  0  0
  4 33  1  0  0  0  0
  5 33  1  0  0  0  0
  6 33  1  0  0  0  0
  7 35  1  0  0  0  0
  8 35  1  0  0  0  0
  9 35  1  0  0  0  0
 18 10  1  6  0  0  0
 10 21  1  0  0  0  0
 11 21  2  0  0  0  0
 12 38  2  0  0  0  0
 13 38  1  0  0  0  0
 14 41  1  0  0  0  0
 14 42  1  0  0  0  0
 15 19  1  0  0  0  0
 15 21  1  0  0  0  0
 15 24  1  0  0  0  0
 16 23  1  0  0  0  0
 16 34  1  0  0  0  0
 16 38  1  0  0  0  0
 17 23  1  0  0  0  0
 17 36  2  0  0  0  0
 18 19  1  0  0  0  0
 18 20  1  0  0  0  0
 19 37  1  6  0  0  0
 20 27  2  0  0  0  0
 20 28  1  0  0  0  0
 22 23  2  0  0  0  0
 22 24  1  0  0  0  0
 22 31  1  0  0  0  0
 25 28  2  0  0  0  0
 25 30  1  0  0  0  0
 25 32  1  0  0  0  0
 26 27  1  0  0  0  0
 26 30  2  0  0  0  0
 26 33  1  0  0  0  0
 29 31  2  0  0  0  0
 29 35  1  0  0  0  0
 29 36  1  0  0  0  0
 34 39  1  0  0  0  0
 34 40  1  0  0  0  0
 39 41  1  0  0  0  0
 40 42  1  0  0  0  0
M  END
> <PUBCHEM_COMPOUND_ID_TYPE>
0

> <PUBCHEM_TOTAL_CHARGE>
0

> <PUBCHEM_SUBSTANCE_ID>
310936654

> <PUBCHEM_SUBSTANCE_VERSION>
1

> <PUBCHEM_EXT_DATASOURCE_NAME>
4488

> <PUBCHEM_EXT_DATASOURCE_REGID>
SCHEMBL16114322

> <PUBCHEM_SUBSTANCE_COMMENT>
InChI=1S/C25H22F9N3O5/c1-12-19(13-6-15(23(26,27)28)9-16(7-13)24(29,30)31)42-22(40)36(12)11-14-8-17(25(32,33)34)10-35-20(14)37(21(38)39)18-2-4-41-5-3-18/h6-10,12,18-19H,2-5,11H2,1H3,(H,38,39)/t12-,19-/m0/s1
InChIKey=OWKVVZKMWYSJLD-BUXKBTBVSA-N

> <PUBCHEM_SUBSTANCE_SYNONYM>
SCHEMBL16114322

> <PUBCHEM_XREF_EXT_ID>
SCHEMBL16114322

> <PUBCHEM_EXT_DATASOURCE_URL>
https://www.surechembl.org/

> <PUBCHEM_EXT_SUBSTANCE_URL>
https://www.surechembl.org/chemical/SCHEMBL16114322

> <PUBCHEM_CID_ASSOCIATIONS>
117604565  1

> <PUBCHEM_COORDINATE_TYPE>
1
3

> <PUBCHEM_BONDANNOTATIONS>
18  10  6
19  37  6

$$$$
