310945394
  -OEChem-07211613022D

 16 18  0     0  0  0  0  0  0999 V2000
    2.5735    1.4046    0.0000 O   0  0  0  0  0  0  0  0  0  0  0  0
   -2.5735   -0.1598    0.0000 O   0  0  0  0  0  0  0  0  0  0  0  0
    0.2691   -0.8998    0.0000 N   0  0  0  0  0  0  0  0  0  0  0  0
    2.2876    0.0252    0.0000 N   0  0  0  0  0  0  0  0  0  0  0  0
    0.6729    0.3448    0.0000 C   0  0  0  0  0  0  0  0  0  0  0  0
    0.9251   -0.3953    0.0000 C   0  0  0  0  0  0  0  0  0  0  0  0
   -0.1514    0.3785    0.0000 C   0  0  0  0  0  0  0  0  0  0  0  0
   -0.4205   -0.4122    0.0000 C   0  0  0  0  0  0  0  0  0  0  0  0
    1.7325   -0.6140    0.0000 C   0  0  0  0  0  0  0  0  0  0  0  0
    1.2279    0.9672    0.0000 C   0  0  0  0  0  0  0  0  0  0  0  0
    2.0185    0.7821    0.0000 C   0  0  0  0  0  0  0  0  0  0  0  0
   -0.7065    0.9672    0.0000 C   0  0  0  0  0  0  0  0  0  0  0  0
   -1.2111   -0.5803    0.0000 C   0  0  0  0  0  0  0  0  0  0  0  0
   -1.7830    0.0252    0.0000 C   0  0  0  0  0  0  0  0  0  0  0  0
   -1.4970    0.7990    0.0000 C   0  0  0  0  0  0  0  0  0  0  0  0
    2.0018   -1.4046    0.0000 C   0  0  0  0  0  0  0  0  0  0  0  0
  1 11  1  0  0  0  0
  2 14  1  0  0  0  0
  3  6  1  0  0  0  0
  3  8  1  0  0  0  0
  4  9  2  0  0  0  0
  4 11  1  0  0  0  0
  5  6  2  0  0  0  0
  5  7  1  0  0  0  0
  5 10  1  0  0  0  0
  6  9  1  0  0  0  0
  7  8  2  0  0  0  0
  7 12  1  0  0  0  0
  8 13  1  0  0  0  0
  9 16  1  0  0  0  0
 10 11  2  0  0  0  0
 12 15  2  0  0  0  0
 13 14  2  0  0  0  0
 14 15  1  0  0  0  0
M  END
> <PUBCHEM_COMPOUND_ID_TYPE>
0

> <PUBCHEM_TOTAL_CHARGE>
0

> <PUBCHEM_SUBSTANCE_ID>
310945394

> <PUBCHEM_SUBSTANCE_VERSION>
1

> <PUBCHEM_EXT_DATASOURCE_NAME>
4488

> <PUBCHEM_EXT_DATASOURCE_REGID>
SCHEMBL16123492

> <PUBCHEM_SUBSTANCE_COMMENT>
InChI=1S/C12H10N2O2/c1-6-12-9(5-11(16)13-6)8-3-2-7(15)4-10(8)14-12/h2-5,14-15H,1H3,(H,13,16)
InChIKey=XYWJZIJYCSLHNH-UHFFFAOYSA-N

> <PUBCHEM_SUBSTANCE_SYNONYM>
SCHEMBL16123492

> <PUBCHEM_XREF_EXT_ID>
SCHEMBL16123492

> <PUBCHEM_EXT_DATASOURCE_URL>
https://www.surechembl.org/

> <PUBCHEM_EXT_SUBSTANCE_URL>
https://www.surechembl.org/chemical/SCHEMBL16123492

> <PUBCHEM_CID_ASSOCIATIONS>
115028648  1

> <PUBCHEM_COORDINATE_TYPE>
1
3

$$$$
