310943622
  -OEChem-07211613022D

 36 39  0     0  0  0  0  0  0999 V2000
    2.7354   -2.1041    0.0000 F   0  0  0  0  0  0  0  0  0  0  0  0
    3.1561   -2.8279    0.0000 F   0  0  0  0  0  0  0  0  0  0  0  0
   -2.8531   -0.0505    0.0000 O   0  0  0  0  0  0  0  0  0  0  0  0
    1.4224   -0.0505    0.0000 O   0  0  0  0  0  0  0  0  0  0  0  0
   -4.2840    2.4071    0.0000 O   0  0  0  0  0  0  0  0  0  0  0  0
   -2.8531    1.5992    0.0000 N   0  0  0  0  0  0  0  0  0  0  0  0
   -1.4224   -0.0505    0.0000 N   0  0  0  0  0  0  0  0  0  0  0  0
    0.7153    2.8279    0.0000 N   0  0  0  0  0  0  0  0  0  0  0  0
    2.1462    1.1783    0.0000 N   0  0  0  0  0  0  0  0  0  0  0  0
    3.5770    0.3704    0.0000 N   0  0  0  0  0  0  0  0  0  0  0  0
   -0.6985    1.1951    0.0000 C   0  0  0  0  0  0  0  0  0  0  0  0
   -0.0084    1.5992    0.0000 C   0  0  0  0  0  0  0  0  0  0  0  0
   -2.1293    1.1951    0.0000 C   0  0  0  0  0  0  0  0  0  0  0  0
   -2.1462    0.3704    0.0000 C   0  0  0  0  0  0  0  0  0  0  0  0
   -1.4224    1.5992    0.0000 C   0  0  0  0  0  0  0  0  0  0  0  0
    0.0084    2.4408    0.0000 C   0  0  0  0  0  0  0  0  0  0  0  0
    0.7153    1.1951    0.0000 C   0  0  0  0  0  0  0  0  0  0  0  0
    1.4224    1.5992    0.0000 C   0  0  0  0  0  0  0  0  0  0  0  0
   -0.7153    0.3535    0.0000 C   0  0  0  0  0  0  0  0  0  0  0  0
    2.8531   -0.0337    0.0000 C   0  0  0  0  0  0  0  0  0  0  0  0
    2.1462    0.3872    0.0000 C   0  0  0  0  0  0  0  0  0  0  0  0
    3.5770   -1.2793    0.0000 C   0  0  0  0  0  0  0  0  0  0  0  0
    1.4392    2.4071    0.0000 C   0  0  0  0  0  0  0  0  0  0  0  0
    3.5433   -2.1041    0.0000 C   0  0  0  0  0  0  0  0  0  0  0  0
    2.8531   -0.8585    0.0000 C   0  0  0  0  0  0  0  0  0  0  0  0
   -2.8531    2.4240    0.0000 C   0  0  0  0  0  0  0  0  0  0  0  0
   -3.5433    1.1951    0.0000 C   0  0  0  0  0  0  0  0  0  0  0  0
    4.2671   -0.8753    0.0000 C   0  0  0  0  0  0  0  0  0  0  0  0
   -0.7153    2.8112    0.0000 C   0  0  0  0  0  0  0  0  0  0  0  0
   -2.8699   -0.8585    0.0000 C   0  0  0  0  0  0  0  0  0  0  0  0
    4.2840   -0.0505    0.0000 C   0  0  0  0  0  0  0  0  0  0  0  0
   -3.5770    2.8279    0.0000 C   0  0  0  0  0  0  0  0  0  0  0  0
   -4.2671    1.5992    0.0000 C   0  0  0  0  0  0  0  0  0  0  0  0
    4.2840   -2.5418    0.0000 C   0  0  0  0  0  0  0  0  0  0  0  0
   -3.5770   -1.2961    0.0000 C   0  0  0  0  0  0  0  0  0  0  0  0
   -2.1125   -1.2793    0.0000 C   0  0  0  0  0  0  0  0  0  0  0  0
  1 24  1  0  0  0  0
  2 24  1  0  0  0  0
  3 14  1  0  0  0  0
  3 30  1  0  0  0  0
  4 21  2  0  0  0  0
  5 32  1  0  0  0  0
  5 33  1  0  0  0  0
  6 13  1  0  0  0  0
  6 26  1  0  0  0  0
  6 27  1  0  0  0  0
  7 14  2  0  0  0  0
  7 19  1  0  0  0  0
  8 16  1  0  0  0  0
  8 23  2  0  0  0  0
  9 18  1  0  0  0  0
  9 21  1  0  0  0  0
 10 20  1  0  0  0  0
 10 31  2  0  0  0  0
 11 12  1  0  0  0  0
 11 15  1  0  0  0  0
 11 19  2  0  0  0  0
 12 16  2  0  0  0  0
 12 17  1  0  0  0  0
 13 14  1  0  0  0  0
 13 15  2  0  0  0  0
 16 29  1  0  0  0  0
 17 18  2  0  0  0  0
 18 23  1  0  0  0  0
 20 21  1  0  0  0  0
 20 25  2  0  0  0  0
 22 24  1  0  0  0  0
 22 25  1  0  0  0  0
 22 28  2  0  0  0  0
 24 34  1  0  0  0  0
 26 32  1  0  0  0  0
 27 33  1  0  0  0  0
 28 31  1  0  0  0  0
 30 35  1  0  0  0  0
 30 36  1  0  0  0  0
M  END
> <PUBCHEM_COMPOUND_ID_TYPE>
0

> <PUBCHEM_TOTAL_CHARGE>
0

> <PUBCHEM_SUBSTANCE_ID>
310943622

> <PUBCHEM_SUBSTANCE_VERSION>
1

> <PUBCHEM_EXT_DATASOURCE_NAME>
4488

> <PUBCHEM_EXT_DATASOURCE_REGID>
SCHEMBL16121690

> <PUBCHEM_SUBSTANCE_COMMENT>
InChI=1S/C26H29F2N5O3/c1-16(2)36-25-23(33-7-9-35-10-8-33)11-18(14-31-25)21-13-20(15-30-17(21)3)32-24(34)22-12-19(5-6-29-22)26(4,27)28/h5-6,11-16H,7-10H2,1-4H3,(H,32,34)
InChIKey=MLQGCJFSMDPOAK-UHFFFAOYSA-N

> <PUBCHEM_SUBSTANCE_SYNONYM>
SCHEMBL16121690

> <PUBCHEM_XREF_EXT_ID>
SCHEMBL16121690

> <PUBCHEM_EXT_DATASOURCE_URL>
https://www.surechembl.org/

> <PUBCHEM_EXT_SUBSTANCE_URL>
https://www.surechembl.org/chemical/SCHEMBL16121690

> <PUBCHEM_CID_ASSOCIATIONS>
117610013  1

> <PUBCHEM_COORDINATE_TYPE>
1
3

$$$$
