310938622
  -OEChem-07211613022D

 35 39  0     0  0  0  0  0  0999 V2000
   -3.4280   -4.1886    0.0000 Cl  0  0  0  0  0  0  0  0  0  0  0  0
    0.1444   -4.6011    0.0000 O   0  0  0  0  0  0  0  0  0  0  0  0
    0.8589   -5.8386    0.0000 O   0  0  0  0  0  0  0  0  0  0  0  0
   -3.4280   -6.6636    0.0000 O   0  0  0  0  0  0  0  0  0  0  0  0
    1.5733   -2.1261    0.0000 N   0  0  0  0  0  0  0  0  0  0  0  0
    0.8589   -3.3636    0.0000 N   0  0  0  0  0  0  0  0  0  0  0  0
    2.2878   -3.3636    0.0000 N   0  0  0  0  0  0  0  0  0  0  0  0
    2.2878   -5.8386    0.0000 N   0  0  0  0  0  0  0  0  0  0  0  0
    3.7168   -6.6636    0.0000 N   0  0  0  0  0  0  0  0  0  0  0  0
    1.5733   -0.4761    0.0000 C   0  0  0  0  0  0  0  0  0  0  0  0
    1.9858    0.2384    0.0000 C   0  0  0  0  0  0  0  0  0  0  0  0
    1.1608    0.2384    0.0000 C   0  0  0  0  0  0  0  0  0  0  0  0
    1.5733   -2.9511    0.0000 C   0  0  0  0  0  0  0  0  0  0  0  0
    2.2878   -0.8886    0.0000 C   0  0  0  0  0  0  0  0  0  0  0  0
    0.8589   -0.8886    0.0000 C   0  0  0  0  0  0  0  0  0  0  0  0
    0.8589   -4.1886    0.0000 C   0  0  0  0  0  0  0  0  0  0  0  0
    1.5733   -4.6011    0.0000 C   0  0  0  0  0  0  0  0  0  0  0  0
    2.2878   -1.7136    0.0000 C   0  0  0  0  0  0  0  0  0  0  0  0
    0.8589   -1.7136    0.0000 C   0  0  0  0  0  0  0  0  0  0  0  0
    2.2878   -4.1886    0.0000 C   0  0  0  0  0  0  0  0  0  0  0  0
    1.5733   -5.4261    0.0000 C   0  0  0  0  0  0  0  0  0  0  0  0
   -0.5701   -4.1886    0.0000 C   0  0  0  0  0  0  0  0  0  0  0  0
   -1.2845   -4.6011    0.0000 C   0  0  0  0  0  0  0  0  0  0  0  0
   -2.7135   -4.6011    0.0000 C   0  0  0  0  0  0  0  0  0  0  0  0
   -1.9990   -4.1886    0.0000 C   0  0  0  0  0  0  0  0  0  0  0  0
   -2.7135   -5.4261    0.0000 C   0  0  0  0  0  0  0  0  0  0  0  0
   -1.2845   -5.4261    0.0000 C   0  0  0  0  0  0  0  0  0  0  0  0
    3.0023   -5.4261    0.0000 C   0  0  0  0  0  0  0  0  0  0  0  0
   -1.9990   -5.8386    0.0000 C   0  0  0  0  0  0  0  0  0  0  0  0
    3.7168   -5.8386    0.0000 C   0  0  0  0  0  0  0  0  0  0  0  0
   -3.4280   -5.8386    0.0000 C   0  0  0  0  0  0  0  0  0  0  0  0
    4.4312   -5.4261    0.0000 C   0  0  0  0  0  0  0  0  0  0  0  0
    4.4312   -7.0761    0.0000 C   0  0  0  0  0  0  0  0  0  0  0  0
    5.1457   -5.8386    0.0000 C   0  0  0  0  0  0  0  0  0  0  0  0
    5.1457   -6.6636    0.0000 C   0  0  0  0  0  0  0  0  0  0  0  0
  1 24  1  0  0  0  0
  2 16  1  0  0  0  0
  2 22  1  0  0  0  0
  3 21  2  0  0  0  0
  4 31  1  0  0  0  0
  5 13  1  0  0  0  0
  5 18  1  0  0  0  0
  5 19  1  0  0  0  0
  6 13  1  0  0  0  0
  6 16  2  0  0  0  0
  7 13  2  0  0  0  0
  7 20  1  0  0  0  0
  8 21  1  0  0  0  0
  8 28  1  0  0  0  0
  9 30  2  0  0  0  0
  9 33  1  0  0  0  0
 10 11  1  0  0  0  0
 10 12  1  0  0  0  0
 10 14  1  0  0  0  0
 10 15  1  0  0  0  0
 11 12  1  0  0  0  0
 14 18  1  0  0  0  0
 15 19  1  0  0  0  0
 16 17  1  0  0  0  0
 17 20  2  0  0  0  0
 17 21  1  0  0  0  0
 22 23  1  0  0  0  0
 23 25  2  0  0  0  0
 23 27  1  0  0  0  0
 24 25  1  0  0  0  0
 24 26  2  0  0  0  0
 26 29  1  0  0  0  0
 26 31  1  0  0  0  0
 27 29  2  0  0  0  0
 28 30  1  0  0  0  0
 30 32  1  0  0  0  0
 32 34  2  0  0  0  0
 33 35  2  0  0  0  0
 34 35  1  0  0  0  0
M  END
> <PUBCHEM_COMPOUND_ID_TYPE>
0

> <PUBCHEM_TOTAL_CHARGE>
0

> <PUBCHEM_SUBSTANCE_ID>
310938622

> <PUBCHEM_SUBSTANCE_VERSION>
1

> <PUBCHEM_EXT_DATASOURCE_NAME>
4488

> <PUBCHEM_EXT_DATASOURCE_REGID>
SCHEMBL16116536

> <PUBCHEM_SUBSTANCE_COMMENT>
InChI=1S/C26H28ClN5O3/c27-22-13-18(4-5-19(22)16-33)17-35-24-21(23(34)29-14-20-3-1-2-10-28-20)15-30-25(31-24)32-11-8-26(6-7-26)9-12-32/h1-5,10,13,15,33H,6-9,11-12,14,16-17H2,(H,29,34)
InChIKey=OSVIMZYFAKLWBX-UHFFFAOYSA-N

> <PUBCHEM_SUBSTANCE_SYNONYM>
SCHEMBL16116536

> <PUBCHEM_XREF_EXT_ID>
SCHEMBL16116536

> <PUBCHEM_EXT_DATASOURCE_URL>
https://www.surechembl.org/

> <PUBCHEM_EXT_SUBSTANCE_URL>
https://www.surechembl.org/chemical/SCHEMBL16116536

> <PUBCHEM_CID_ASSOCIATIONS>
117606055  1

> <PUBCHEM_COORDINATE_TYPE>
1
3

$$$$
