310939388
  -OEChem-07211613022D

 21 22  0     1  0  0  0  0  0999 V2000
    0.0782    0.9037    0.0000 Cl  0  0  0  0  0  0  0  0  0  0  0  0
   -0.6615   -1.8569    0.0000 F   0  0  0  0  0  0  0  0  0  0  0  0
    0.5052   -0.6901    0.0000 O   0  0  0  0  0  0  0  0  0  0  0  0
    1.4584    1.2735    0.0000 N   0  0  0  0  0  0  0  0  0  0  0  0
   -3.0522   -1.2163    0.0000 N   0  0  0  0  0  0  0  0  0  0  0  0
    2.8387    1.6433    0.0000 N   0  0  0  0  0  0  0  0  0  0  0  0
   -0.2917   -0.4766    0.0000 C   0  0  0  0  0  0  0  0  0  0  0  0
   -0.8750   -1.0600    0.0000 C   0  0  0  0  0  0  0  0  0  0  0  0
   -1.6719   -0.8464    0.0000 C   0  0  0  0  0  0  0  0  0  0  0  0
   -0.5052    0.3203    0.0000 C   0  0  0  0  0  0  0  0  0  0  0  0
    1.0886   -0.1068    0.0000 C   0  0  0  0  0  0  0  0  0  0  0  0
   -1.8855   -0.0495    0.0000 C   0  0  0  0  0  0  0  0  0  0  0  0
   -2.2553   -1.4298    0.0000 C   0  0  3  0  0  0  0  0  0  0  0  0
   -1.3021    0.5338    0.0000 C   0  0  0  0  0  0  0  0  0  0  0  0
    0.8750    0.6901    0.0000 C   0  0  0  0  0  0  0  0  0  0  0  0
    1.8855   -0.3203    0.0000 C   0  0  0  0  0  0  0  0  0  0  0  0
    2.2553    1.0600    0.0000 C   0  0  0  0  0  0  0  0  0  0  0  0
    2.4688    0.2631    0.0000 C   0  0  0  0  0  0  0  0  0  0  0  0
   -2.0418   -2.2267    0.0000 C   0  0  0  0  0  0  0  0  0  0  0  0
   -1.2449   -2.4402    0.0000 C   0  0  0  0  0  0  0  0  0  0  0  0
    3.6355    1.4298    0.0000 C   0  0  0  0  0  0  0  0  0  0  0  0
  1 10  1  0  0  0  0
  2  8  1  0  0  0  0
  3  7  1  0  0  0  0
  3 11  1  0  0  0  0
  4 15  2  0  0  0  0
  4 17  1  0  0  0  0
 13  5  1  1  0  0  0
  6 17  1  0  0  0  0
  6 21  1  0  0  0  0
  7  8  1  0  0  0  0
  7 10  2  0  0  0  0
  8  9  2  0  0  0  0
  9 12  1  0  0  0  0
  9 13  1  0  0  0  0
 10 14  1  0  0  0  0
 11 15  1  0  0  0  0
 11 16  2  0  0  0  0
 12 14  2  0  0  0  0
 13 19  1  0  0  0  0
 16 18  1  0  0  0  0
 17 18  2  0  0  0  0
 19 20  1  0  0  0  0
M  END
> <PUBCHEM_COMPOUND_ID_TYPE>
0

> <PUBCHEM_TOTAL_CHARGE>
0

> <PUBCHEM_SUBSTANCE_ID>
310939388

> <PUBCHEM_SUBSTANCE_VERSION>
1

> <PUBCHEM_EXT_DATASOURCE_NAME>
4488

> <PUBCHEM_EXT_DATASOURCE_REGID>
SCHEMBL16117309

> <PUBCHEM_SUBSTANCE_COMMENT>
InChI=1S/C15H17ClFN3O/c1-3-12(18)10-5-6-11(16)15(14(10)17)21-9-4-7-13(19-2)20-8-9/h4-8,12H,3,18H2,1-2H3,(H,19,20)/t12-/m1/s1
InChIKey=PTNOBAOQJWYYCX-GFCCVEGCSA-N

> <PUBCHEM_SUBSTANCE_SYNONYM>
SCHEMBL16117309

> <PUBCHEM_XREF_EXT_ID>
SCHEMBL16117309

> <PUBCHEM_EXT_DATASOURCE_URL>
https://www.surechembl.org/

> <PUBCHEM_EXT_SUBSTANCE_URL>
https://www.surechembl.org/chemical/SCHEMBL16117309

> <PUBCHEM_CID_ASSOCIATIONS>
117606715  1

> <PUBCHEM_COORDINATE_TYPE>
1
3

> <PUBCHEM_BONDANNOTATIONS>
13  5  5

$$$$
