310930699
  -OEChem-07211613022D

 32 35  0     0  0  0  0  0  0999 V2000
    6.3459   -3.2107    0.0000 S   0  0  0  0  0  0  0  0  0  0  0  0
    2.1909   -7.4036    0.0000 S   0  0  0  0  0  0  0  0  0  0  0  0
    8.7257   -0.0378    0.0000 F   0  0  0  0  0  0  0  0  0  0  0  0
    7.2903    0.0000    0.0000 F   0  0  0  0  0  0  0  0  0  0  0  0
    8.6879   -0.8310    0.0000 F   0  0  0  0  0  0  0  0  0  0  0  0
    5.5905   -2.7575    0.0000 O   0  0  0  0  0  0  0  0  0  0  0  0
    7.0636   -3.6263    0.0000 O   0  0  0  0  0  0  0  0  0  0  0  0
    3.8907   -7.4414    0.0000 O   0  0  0  0  0  0  0  0  0  0  0  0
    6.3459   -1.8131    0.0000 N   0  0  0  0  0  0  0  0  0  0  0  0
    3.8907   -6.0437    0.0000 N   0  0  0  0  0  0  0  0  0  0  0  0
    0.0000   -7.1769    0.0000 N   0  0  0  0  0  0  0  0  0  0  0  0
    6.7615   -2.4931    0.0000 C   0  0  0  0  0  0  0  0  0  0  0  0
    5.9304   -3.9284    0.0000 C   0  0  0  0  0  0  0  0  0  0  0  0
    7.5925   -1.1332    0.0000 C   0  0  0  0  0  0  0  0  0  0  0  0
    7.5925   -2.5308    0.0000 C   0  0  0  0  0  0  0  0  0  0  0  0
    2.6819   -6.7237    0.0000 C   0  0  0  0  0  0  0  0  0  0  0  0
    1.3976   -7.1769    0.0000 C   0  0  0  0  0  0  0  0  0  0  0  0
    1.3976   -6.3082    0.0000 C   0  0  0  0  0  0  0  0  0  0  0  0
    8.0080   -0.4155    0.0000 C   0  0  0  0  0  0  0  0  0  0  0  0
    5.1372   -3.8907    0.0000 C   0  0  0  0  0  0  0  0  0  0  0  0
    6.3459   -4.6083    0.0000 C   0  0  0  0  0  0  0  0  0  0  0  0
    6.7615   -1.0954    0.0000 C   0  0  0  0  0  0  0  0  0  0  0  0
    7.9702   -1.8131    0.0000 C   0  0  0  0  0  0  0  0  0  0  0  0
    2.1909   -6.0815    0.0000 C   0  0  0  0  0  0  0  0  0  0  0  0
    5.1372   -5.3261    0.0000 C   0  0  0  0  0  0  0  0  0  0  0  0
    3.4751   -6.7237    0.0000 C   0  0  0  0  0  0  0  0  0  0  0  0
    4.7217   -4.6083    0.0000 C   0  0  0  0  0  0  0  0  0  0  0  0
    5.9304   -5.3261    0.0000 C   0  0  0  0  0  0  0  0  0  0  0  0
    0.6799   -7.5547    0.0000 C   0  0  0  0  0  0  0  0  0  0  0  0
    0.6799   -5.9304    0.0000 C   0  0  0  0  0  0  0  0  0  0  0  0
    4.7217   -6.0437    0.0000 C   0  0  0  0  0  0  0  0  0  0  0  0
    0.0000   -6.3082    0.0000 C   0  0  0  0  0  0  0  0  0  0  0  0
  1  6  2  0  0  0  0
  1  7  2  0  0  0  0
  1 12  1  0  0  0  0
  1 13  1  0  0  0  0
  2 16  1  0  0  0  0
  2 17  1  0  0  0  0
  3 19  1  0  0  0  0
  4 19  1  0  0  0  0
  5 19  1  0  0  0  0
  8 26  2  0  0  0  0
  9 12  1  0  0  0  0
  9 22  2  0  0  0  0
 10 26  1  0  0  0  0
 10 31  1  0  0  0  0
 11 29  1  0  0  0  0
 11 32  2  0  0  0  0
 12 15  2  0  0  0  0
 13 20  2  0  0  0  0
 13 21  1  0  0  0  0
 14 19  1  0  0  0  0
 14 22  1  0  0  0  0
 14 23  2  0  0  0  0
 15 23  1  0  0  0  0
 16 24  2  0  0  0  0
 16 26  1  0  0  0  0
 17 18  1  0  0  0  0
 17 29  2  0  0  0  0
 18 24  1  0  0  0  0
 18 30  2  0  0  0  0
 20 27  1  0  0  0  0
 21 28  2  0  0  0  0
 25 27  2  0  0  0  0
 25 28  1  0  0  0  0
 25 31  1  0  0  0  0
 30 32  1  0  0  0  0
M  END
> <PUBCHEM_COMPOUND_ID_TYPE>
0

> <PUBCHEM_TOTAL_CHARGE>
0

> <PUBCHEM_SUBSTANCE_ID>
310930699

> <PUBCHEM_SUBSTANCE_VERSION>
1

> <PUBCHEM_EXT_DATASOURCE_NAME>
4488

> <PUBCHEM_EXT_DATASOURCE_REGID>
SCHEMBL16107996

> <PUBCHEM_SUBSTANCE_COMMENT>
InChI=1S/C21H14F3N3O3S2/c22-21(23,24)15-3-6-19(26-11-15)32(29,30)16-4-1-13(2-5-16)10-27-20(28)17-9-14-7-8-25-12-18(14)31-17/h1-9,11-12H,10H2,(H,27,28)
InChIKey=VVPNYVDBBPAQGN-UHFFFAOYSA-N

> <PUBCHEM_SUBSTANCE_SYNONYM>
SCHEMBL16107996

> <PUBCHEM_XREF_EXT_ID>
SCHEMBL16107996

> <PUBCHEM_EXT_DATASOURCE_URL>
https://www.surechembl.org/

> <PUBCHEM_EXT_SUBSTANCE_URL>
https://www.surechembl.org/chemical/SCHEMBL16107996

> <PUBCHEM_CID_ASSOCIATIONS>
117599740  1

> <PUBCHEM_COORDINATE_TYPE>
1
3

$$$$
