310939431
  -OEChem-07211613022D

 24 26  0     0  0  0  0  0  0999 V2000
   -0.2841   11.2747    0.0000 O   0  0  0  0  0  0  0  0  0  0  0  0
   -2.7591    9.8457    0.0000 N   0  0  0  0  0  0  0  0  0  0  0  0
   -2.7591   11.2747    0.0000 N   0  0  0  0  0  0  0  0  0  0  0  0
   -3.9966   10.5602    0.0000 N   0  0  0  0  0  0  0  0  0  0  0  0
   -0.2841    9.8457    0.0000 C   0  0  0  0  0  0  0  0  0  0  0  0
    0.1284   10.5602    0.0000 C   0  0  0  0  0  0  0  0  0  0  0  0
   -2.3466   10.5602    0.0000 C   0  0  0  0  0  0  0  0  0  0  0  0
   -1.1091    9.8457    0.0000 C   0  0  0  0  0  0  0  0  0  0  0  0
   -1.5216   10.5602    0.0000 C   0  0  0  0  0  0  0  0  0  0  0  0
   -3.5841    9.8457    0.0000 C   0  0  0  0  0  0  0  0  0  0  0  0
   -3.5841   11.2747    0.0000 C   0  0  0  0  0  0  0  0  0  0  0  0
    0.1284    9.1313    0.0000 C   0  0  0  0  0  0  0  0  0  0  0  0
    0.9534   10.5602    0.0000 C   0  0  0  0  0  0  0  0  0  0  0  0
    0.1284   11.9892    0.0000 C   0  0  0  0  0  0  0  0  0  0  0  0
    0.9534   11.9892    0.0000 C   0  0  0  0  0  0  0  0  0  0  0  0
    0.9534    9.1313    0.0000 C   0  0  0  0  0  0  0  0  0  0  0  0
    1.3659    9.8457    0.0000 C   0  0  0  0  0  0  0  0  0  0  0  0
   -3.9966    9.1313    0.0000 C   0  0  0  0  0  0  0  0  0  0  0  0
   -3.9966   11.9892    0.0000 C   0  0  0  0  0  0  0  0  0  0  0  0
    1.3659   11.2747    0.0000 C   0  0  0  0  0  0  0  0  0  0  0  0
    1.3659   12.7036    0.0000 C   0  0  0  0  0  0  0  0  0  0  0  0
    2.1909   11.2747    0.0000 C   0  0  0  0  0  0  0  0  0  0  0  0
    2.1909   12.7036    0.0000 C   0  0  0  0  0  0  0  0  0  0  0  0
    2.6034   11.9892    0.0000 C   0  0  0  0  0  0  0  0  0  0  0  0
  1  6  1  0  0  0  0
  1 14  1  0  0  0  0
  2  7  2  0  0  0  0
  2 10  1  0  0  0  0
  3  7  1  0  0  0  0
  3 11  2  0  0  0  0
  4 10  2  0  0  0  0
  4 11  1  0  0  0  0
  5  6  1  0  0  0  0
  5  8  1  0  0  0  0
  5 12  2  0  0  0  0
  6 13  2  0  0  0  0
  7  9  1  0  0  0  0
  8  9  2  0  0  0  0
 10 18  1  0  0  0  0
 11 19  1  0  0  0  0
 12 16  1  0  0  0  0
 13 17  1  0  0  0  0
 14 15  1  0  0  0  0
 15 20  2  0  0  0  0
 15 21  1  0  0  0  0
 16 17  2  0  0  0  0
 20 22  1  0  0  0  0
 21 23  2  0  0  0  0
 22 24  2  0  0  0  0
 23 24  1  0  0  0  0
M  END
> <PUBCHEM_COMPOUND_ID_TYPE>
0

> <PUBCHEM_TOTAL_CHARGE>
0

> <PUBCHEM_SUBSTANCE_ID>
310939431

> <PUBCHEM_SUBSTANCE_VERSION>
1

> <PUBCHEM_EXT_DATASOURCE_NAME>
4488

> <PUBCHEM_EXT_DATASOURCE_REGID>
SCHEMBL16117353

> <PUBCHEM_SUBSTANCE_COMMENT>
InChI=1S/C20H19N3O/c1-15-21-16(2)23-20(22-15)13-12-18-10-6-7-11-19(18)24-14-17-8-4-3-5-9-17/h3-13H,14H2,1-2H3/b13-12+
InChIKey=MVIKHMDYSFTPIN-OUKQBFOZSA-N

> <PUBCHEM_SUBSTANCE_SYNONYM>
SCHEMBL16117353

> <PUBCHEM_XREF_EXT_ID>
SCHEMBL16117353

> <PUBCHEM_EXT_DATASOURCE_URL>
https://www.surechembl.org/

> <PUBCHEM_EXT_SUBSTANCE_URL>
https://www.surechembl.org/chemical/SCHEMBL16117353

> <PUBCHEM_CID_ASSOCIATIONS>
117606755  1

> <PUBCHEM_COORDINATE_TYPE>
1
3

$$$$
