310939517
  -OEChem-07211613022D

 47 50  0     1  0  0  0  0  0999 V2000
    5.8874   -2.1494    0.0000 S   0  0  0  0  0  0  0  0  0  0  0  0
   -3.7439    0.1649    0.0000 O   0  0  0  0  0  0  0  0  0  0  0  0
   -0.9349    0.9899    0.0000 O   0  0  0  0  0  0  0  0  0  0  0  0
    0.4735    0.4065    0.0000 O   0  0  0  0  0  0  0  0  0  0  0  0
   -0.4947    3.4075    0.0000 O   0  0  0  0  0  0  0  0  0  0  0  0
    0.8861   -0.3079    0.0000 O   0  0  0  0  0  0  0  0  0  0  0  0
   -4.3479   -2.6931    0.0000 O   0  0  0  0  0  0  0  0  0  0  0  0
   -5.5855   -3.4075    0.0000 O   0  0  0  0  0  0  0  0  0  0  0  0
    0.8861   -1.7369    0.0000 N   0  0  0  0  0  0  0  0  0  0  0  0
   -3.0294    1.4024    0.0000 C   0  0  3  0  0  0  0  0  0  0  0  0
   -3.0294    0.5774    0.0000 C   0  0  3  0  0  0  0  0  0  0  0  0
   -4.4585    1.4024    0.0000 C   0  0  0  0  0  0  0  0  0  0  0  0
   -2.2448    1.6574    0.0000 C   0  0  3  0  0  0  0  0  0  0  0  0
   -4.4585    0.5774    0.0000 C   0  0  0  0  0  0  0  0  0  0  0  0
   -1.7599    0.9899    0.0000 C   0  0  3  0  0  0  0  0  0  0  0  0
   -2.2448    0.3225    0.0000 C   0  0  0  0  0  0  0  0  0  0  0  0
   -5.1729    0.1649    0.0000 C   0  0  0  0  0  0  0  0  0  0  0  0
   -5.1729    1.8150    0.0000 C   0  0  0  0  0  0  0  0  0  0  0  0
   -1.6614    2.2408    0.0000 C   0  0  0  0  0  0  0  0  0  0  0  0
   -5.8874    0.5774    0.0000 C   0  0  0  0  0  0  0  0  0  0  0  0
   -5.8874    1.4024    0.0000 C   0  0  0  0  0  0  0  0  0  0  0  0
   -0.3515    0.4065    0.0000 C   0  0  0  0  0  0  0  0  0  0  0  0
   -5.5855   -0.5496    0.0000 C   0  0  0  0  0  0  0  0  0  0  0  0
   -0.7640   -0.3079    0.0000 C   0  0  3  0  0  0  0  0  0  0  0  0
   -0.8646    2.0273    0.0000 C   0  0  0  0  0  0  0  0  0  0  0  0
   -0.3515   -1.0224    0.0000 C   0  0  3  0  0  0  0  0  0  0  0  0
   -0.2812    2.6106    0.0000 C   0  0  3  0  0  0  0  0  0  0  0  0
   -5.1729   -1.2640    0.0000 C   0  0  0  0  0  0  0  0  0  0  0  0
   -1.5890   -0.3079    0.0000 C   0  0  0  0  0  0  0  0  0  0  0  0
    0.4735   -1.0224    0.0000 C   0  0  0  0  0  0  0  0  0  0  0  0
   -0.7640   -1.7369    0.0000 C   0  0  0  0  0  0  0  0  0  0  0  0
    0.5158    2.3971    0.0000 C   0  0  3  0  0  0  0  0  0  0  0  0
   -2.0015   -1.0224    0.0000 C   0  0  0  0  0  0  0  0  0  0  0  0
   -1.5890   -1.7369    0.0000 C   0  0  0  0  0  0  0  0  0  0  0  0
   -5.5855   -1.9785    0.0000 C   0  0  0  0  0  0  0  0  0  0  0  0
    1.0991    2.9805    0.0000 C   0  0  0  0  0  0  0  0  0  0  0  0
   -5.1729   -2.6931    0.0000 C   0  0  0  0  0  0  0  0  0  0  0  0
    0.7293    1.6001    0.0000 C   0  0  0  0  0  0  0  0  0  0  0  0
    1.6005   -2.1494    0.0000 C   0  0  0  0  0  0  0  0  0  0  0  0
    1.8960    2.7669    0.0000 C   0  0  0  0  0  0  0  0  0  0  0  0
    2.3150   -1.7369    0.0000 C   0  0  0  0  0  0  0  0  0  0  0  0
    2.6928    2.5534    0.0000 C   0  0  0  0  0  0  0  0  0  0  0  0
    3.0294   -2.1494    0.0000 C   0  0  0  0  0  0  0  0  0  0  0  0
    3.7439   -1.7369    0.0000 C   0  0  0  0  0  0  0  0  0  0  0  0
    3.4898    2.3399    0.0000 C   0  0  0  0  0  0  0  0  0  0  0  0
    4.4585   -2.1494    0.0000 C   0  0  0  0  0  0  0  0  0  0  0  0
    5.1729   -1.7369    0.0000 C   0  0  0  0  0  0  0  0  0  0  0  0
  1 47  1  0  0  0  0
  2 11  1  0  0  0  0
  2 14  1  0  0  0  0
 15  3  1  6  0  0  0
  3 22  1  0  0  0  0
  4 22  2  0  0  0  0
 27  5  1  1  0  0  0
  6 30  2  0  0  0  0
  7 37  2  0  0  0  0
  8 37  1  0  0  0  0
  9 30  1  0  0  0  0
  9 39  1  0  0  0  0
 10 11  1  0  0  0  0
 10 12  1  6  0  0  0
 10 13  1  0  0  0  0
 11 16  1  6  0  0  0
 12 14  2  0  0  0  0
 12 18  1  0  0  0  0
 13 15  1  0  0  0  0
 13 19  1  1  0  0  0
 14 17  1  0  0  0  0
 15 16  1  0  0  0  0
 17 20  2  0  0  0  0
 17 23  1  0  0  0  0
 18 21  2  0  0  0  0
 19 25  2  0  0  0  0
 20 21  1  0  0  0  0
 22 24  1  0  0  0  0
 23 28  1  0  0  0  0
 24 26  1  0  0  0  0
 24 29  1  0  0  0  0
 25 27  1  0  0  0  0
 26 30  1  0  0  0  0
 26 31  1  0  0  0  0
 27 32  1  0  0  0  0
 28 35  1  0  0  0  0
 29 33  1  0  0  0  0
 31 34  1  0  0  0  0
 32 36  1  0  0  0  0
 32 38  1  6  0  0  0
 33 34  1  0  0  0  0
 35 37  1  0  0  0  0
 36 40  1  0  0  0  0
 39 41  1  0  0  0  0
 40 42  3  0  0  0  0
 41 43  1  0  0  0  0
 42 45  1  0  0  0  0
 43 44  1  0  0  0  0
 44 46  1  0  0  0  0
 46 47  1  0  0  0  0
M  END
> <PUBCHEM_COMPOUND_ID_TYPE>
0

> <PUBCHEM_TOTAL_CHARGE>
0

> <PUBCHEM_SUBSTANCE_ID>
310939517

> <PUBCHEM_SUBSTANCE_VERSION>
1

> <PUBCHEM_EXT_DATASOURCE_NAME>
4488

> <PUBCHEM_EXT_DATASOURCE_REGID>
SCHEMBL16117446

> <PUBCHEM_SUBSTANCE_COMMENT>
InChI=1S/C38H53NO7S/c1-3-4-13-25(2)31(40)21-20-29-32(24-33-35(29)30-18-11-14-26(36(30)45-33)15-12-19-34(41)42)46-38(44)28-17-8-7-16-27(28)37(43)39-22-9-5-6-10-23-47/h11,14,18,20-21,25,27-29,31-33,35,40,47H,5-10,12-13,15-17,19,22-24H2,1-2H3,(H,39,43)(H,41,42)/b21-20+/t25-,27?,28?,29-,31+,32+,33-,35-/m0/s1
InChIKey=ZXKFILCEAGYTRX-YIUMRAHYSA-N

> <PUBCHEM_SUBSTANCE_SYNONYM>
SCHEMBL16117446

> <PUBCHEM_XREF_EXT_ID>
SCHEMBL16117446

> <PUBCHEM_EXT_DATASOURCE_URL>
https://www.surechembl.org/

> <PUBCHEM_EXT_SUBSTANCE_URL>
https://www.surechembl.org/chemical/SCHEMBL16117446

> <PUBCHEM_CID_ASSOCIATIONS>
86268319  1

> <PUBCHEM_COORDINATE_TYPE>
1
3

> <PUBCHEM_BONDANNOTATIONS>
10  12  6
11  16  6
13  19  5
15  3  6
32  38  6
27  5  5

$$$$
