310934863
  -OEChem-07211613022D

 30 34  0     1  0  0  0  0  0999 V2000
   -5.0924   -3.7013    0.0000 F   0  0  0  0  0  0  0  0  0  0  0  0
   -4.8227   -0.7087    0.0000 O   0  0  0  0  0  0  0  0  0  0  0  0
   -3.7948    0.2840    0.0000 O   0  0  0  0  0  0  0  0  0  0  0  0
    1.0396    1.4521    0.0000 O   0  0  0  0  0  0  0  0  0  0  0  0
    1.2696    0.0000    0.0000 N   0  0  0  0  0  0  0  0  0  0  0  0
   -3.4491   -1.1026    0.0000 C   0  0  3  0  0  0  0  0  0  0  0  0
   -4.3779   -1.6388    0.0000 C   0  0  0  0  0  0  0  0  0  0  0  0
   -2.1434   -0.8250    0.0000 C   0  0  3  0  0  0  0  0  0  0  0  0
   -2.8971   -0.4895    0.0000 C   0  0  0  0  0  0  0  0  0  0  0  0
    0.0000    0.4125    0.0000 C   0  0  0  0  0  0  0  0  0  0  0  0
    0.0000   -0.4125    0.0000 C   0  0  0  0  0  0  0  0  0  0  0  0
   -1.4290   -0.4125    0.0000 C   0  0  0  0  0  0  0  0  0  0  0  0
   -4.0222   -0.5091    0.0000 C   0  0  0  0  0  0  0  0  0  0  0  0
   -3.0366   -1.8170    0.0000 C   0  0  0  0  0  0  0  0  0  0  0  0
    0.7846    0.6674    0.0000 C   0  0  0  0  0  0  0  0  0  0  0  0
   -2.2296   -1.6455    0.0000 C   0  0  0  0  0  0  0  0  0  0  0  0
   -4.3779   -2.4638    0.0000 C   0  0  0  0  0  0  0  0  0  0  0  0
   -0.7144   -0.8250    0.0000 C   0  0  0  0  0  0  0  0  0  0  0  0
    2.0946    0.0000    0.0000 C   0  0  0  0  0  0  0  0  0  0  0  0
    0.7846   -0.6674    0.0000 C   0  0  0  0  0  0  0  0  0  0  0  0
   -0.7144    0.8250    0.0000 C   0  0  0  0  0  0  0  0  0  0  0  0
   -1.4290    0.4125    0.0000 C   0  0  0  0  0  0  0  0  0  0  0  0
   -5.0924   -1.2263    0.0000 C   0  0  0  0  0  0  0  0  0  0  0  0
   -5.0924   -2.8763    0.0000 C   0  0  0  0  0  0  0  0  0  0  0  0
    2.8090    0.4125    0.0000 C   0  0  0  0  0  0  0  0  0  0  0  0
    2.8090   -0.4125    0.0000 C   0  0  0  0  0  0  0  0  0  0  0  0
   -5.8069   -1.6388    0.0000 C   0  0  0  0  0  0  0  0  0  0  0  0
   -5.8069   -2.4638    0.0000 C   0  0  0  0  0  0  0  0  0  0  0  0
   -3.6635   -2.8763    0.0000 C   0  0  0  0  0  0  0  0  0  0  0  0
   -5.4060   -0.1253    0.0000 C   0  0  0  0  0  0  0  0  0  0  0  0
  1 24  1  0  0  0  0
  2 13  1  0  0  0  0
  2 30  1  0  0  0  0
  3 13  2  0  0  0  0
  4 15  2  0  0  0  0
  5 15  1  0  0  0  0
  5 19  1  0  0  0  0
  5 20  1  0  0  0  0
  6  7  1  0  0  0  0
  6  9  1  0  0  0  0
  6 13  1  6  0  0  0
  6 14  1  0  0  0  0
  7 17  1  0  0  0  0
  7 23  2  0  0  0  0
  8  9  1  0  0  0  0
  8 12  1  0  0  0  0
  8 16  1  0  0  0  0
 10 11  2  0  0  0  0
 10 15  1  0  0  0  0
 10 21  1  0  0  0  0
 11 18  1  0  0  0  0
 11 20  1  0  0  0  0
 12 18  2  0  0  0  0
 12 22  1  0  0  0  0
 14 16  1  0  0  0  0
 17 24  2  0  0  0  0
 17 29  1  0  0  0  0
 19 25  1  0  0  0  0
 19 26  1  0  0  0  0
 21 22  2  0  0  0  0
 23 27  1  0  0  0  0
 24 28  1  0  0  0  0
 25 26  1  0  0  0  0
 27 28  2  0  0  0  0
M  END
> <PUBCHEM_COMPOUND_ID_TYPE>
0

> <PUBCHEM_TOTAL_CHARGE>
0

> <PUBCHEM_SUBSTANCE_ID>
310934863

> <PUBCHEM_SUBSTANCE_VERSION>
1

> <PUBCHEM_EXT_DATASOURCE_NAME>
4488

> <PUBCHEM_EXT_DATASOURCE_REGID>
SCHEMBL16112372

> <PUBCHEM_SUBSTANCE_COMMENT>
InChI=1S/C25H26FNO3/c1-15-21(4-3-5-22(15)26)25(24(29)30-2)11-10-17(13-25)16-6-9-20-18(12-16)14-27(23(20)28)19-7-8-19/h3-6,9,12,17,19H,7-8,10-11,13-14H2,1-2H3/t17?,25-/m0/s1
InChIKey=DJNUCOQVOLZJQY-HHPDBAQJSA-N

> <PUBCHEM_SUBSTANCE_SYNONYM>
SCHEMBL16112372

> <PUBCHEM_XREF_EXT_ID>
SCHEMBL16112372

> <PUBCHEM_EXT_DATASOURCE_URL>
https://www.surechembl.org/

> <PUBCHEM_EXT_SUBSTANCE_URL>
https://www.surechembl.org/chemical/SCHEMBL16112372

> <PUBCHEM_CID_ASSOCIATIONS>
117602998  1

> <PUBCHEM_COORDINATE_TYPE>
1
3

> <PUBCHEM_BONDANNOTATIONS>
6  13  6

$$$$
