310928709
  -OEChem-07211613022D

 23 25  0     0  0  0  0  0  0999 V2000
   -0.0225   -2.3950    0.0000 I   0  0  0  0  0  0  0  0  0  0  0  0
   -1.7765   -2.5929    0.0000 Cl  0  0  0  0  0  0  0  0  0  0  0  0
    2.1014    2.4214    0.0000 O   0  0  0  0  0  0  0  0  0  0  0  0
   -0.2774   -0.2755    0.0000 N   0  0  0  0  0  0  0  0  0  0  0  0
   -1.7765   -0.1179    0.0000 N   0  0  0  0  0  0  0  0  0  0  0  0
   -2.4910   -1.3554    0.0000 N   0  0  0  0  0  0  0  0  0  0  0  0
    1.3365    0.0676    0.0000 N   0  0  0  0  0  0  0  0  0  0  0  0
   -3.2054   -0.1179    0.0000 N   0  0  0  0  0  0  0  0  0  0  0  0
   -1.0620   -0.5304    0.0000 C   0  0  0  0  0  0  0  0  0  0  0  0
   -1.0620   -1.3554    0.0000 C   0  0  0  0  0  0  0  0  0  0  0  0
   -0.2774   -1.6104    0.0000 C   0  0  0  0  0  0  0  0  0  0  0  0
   -1.7765   -1.7679    0.0000 C   0  0  0  0  0  0  0  0  0  0  0  0
    0.2075   -0.9429    0.0000 C   0  0  0  0  0  0  0  0  0  0  0  0
   -0.0225    0.5091    0.0000 C   0  0  0  0  0  0  0  0  0  0  0  0
    0.7845    0.6806    0.0000 C   0  0  0  0  0  0  0  0  0  0  0  0
   -2.4910   -0.5304    0.0000 C   0  0  0  0  0  0  0  0  0  0  0  0
    1.0395    1.4653    0.0000 C   0  0  0  0  0  0  0  0  0  0  0  0
    1.8464    1.6368    0.0000 C   0  0  0  0  0  0  0  0  0  0  0  0
    2.3985    1.0237    0.0000 C   0  0  0  0  0  0  0  0  0  0  0  0
    2.1435    0.2391    0.0000 C   0  0  0  0  0  0  0  0  0  0  0  0
    0.4874    2.0784    0.0000 C   0  0  0  0  0  0  0  0  0  0  0  0
    3.2054    1.1952    0.0000 C   0  0  0  0  0  0  0  0  0  0  0  0
    2.9083    2.5929    0.0000 C   0  0  0  0  0  0  0  0  0  0  0  0
  1 11  1  0  0  0  0
  2 12  1  0  0  0  0
  3 18  1  0  0  0  0
  3 23  1  0  0  0  0
  4  9  1  0  0  0  0
  4 13  1  0  0  0  0
  4 14  1  0  0  0  0
  5  9  2  0  0  0  0
  5 16  1  0  0  0  0
  6 12  1  0  0  0  0
  6 16  2  0  0  0  0
  7 15  2  0  0  0  0
  7 20  1  0  0  0  0
  8 16  1  0  0  0  0
  9 10  1  0  0  0  0
 10 11  1  0  0  0  0
 10 12  2  0  0  0  0
 11 13  2  0  0  0  0
 14 15  1  0  0  0  0
 15 17  1  0  0  0  0
 17 18  2  0  0  0  0
 17 21  1  0  0  0  0
 18 19  1  0  0  0  0
 19 20  2  0  0  0  0
 19 22  1  0  0  0  0
M  END
> <PUBCHEM_COMPOUND_ID_TYPE>
0

> <PUBCHEM_TOTAL_CHARGE>
0

> <PUBCHEM_SUBSTANCE_ID>
310928709

> <PUBCHEM_SUBSTANCE_VERSION>
1

> <PUBCHEM_EXT_DATASOURCE_NAME>
11752

> <PUBCHEM_EXT_DATASOURCE_REGID>
BD233116

> <PUBCHEM_SUBSTANCE_SYNONYM>
4-Chloro-5-iodo-7-((4-methoxy-3,5-dimethylpyridin-2-yl)methyl)-7H-pyrrolo[2,3-d]pyrimidin-2-amine
911397-54-1

> <PUBCHEM_GENERIC_REGISTRY_NAME>
911397-54-1

> <PUBCHEM_XREF_EXT_ID>
BD233116

> <PUBCHEM_EXT_DATASOURCE_URL>
http://www.bidepharmatech.com/en/index.html

> <PUBCHEM_EXT_SUBSTANCE_URL>
http://www.bidepharmatech.com/en/goodsview_goodscode_BD233116.html

> <PUBCHEM_CID_ASSOCIATIONS>
44228964  1

> <PUBCHEM_COORDINATE_TYPE>
1
3

$$$$
