310932164
  -OEChem-07211613022D

 15 15  0     0  0  0  0  0  0999 V2000
    1.2093   -4.9523    0.0000 S   0  0  0  0  0  0  0  0  0  0  0  0
    0.4031   -4.9523    0.0000 O   0  0  0  0  0  0  0  0  0  0  0  0
    1.2093   -4.0598    0.0000 O   0  0  0  0  0  0  0  0  0  0  0  0
    1.2093   -5.7586    0.0000 O   0  0  0  0  0  0  0  0  0  0  0  0
    0.4031   -2.1306    0.0000 N   0  0  0  0  0  0  0  0  0  0  0  0
    1.2093   -0.7198    0.0000 N   0  0  0  0  0  0  0  0  0  0  0  0
    1.2093   -2.1306    0.0000 C   0  0  0  0  0  0  0  0  0  0  0  0
    0.0000   -1.4396    0.0000 C   0  0  0  0  0  0  0  0  0  0  0  0
    0.0000   -2.8505    0.0000 C   0  0  0  0  0  0  0  0  0  0  0  0
    0.4031   -0.7198    0.0000 C   0  0  0  0  0  0  0  0  0  0  0  0
    1.6412   -1.4108    0.0000 C   0  0  0  0  0  0  0  0  0  0  0  0
    0.0000   -4.2613    0.0000 C   0  0  0  0  0  0  0  0  0  0  0  0
    0.4031   -3.5415    0.0000 C   0  0  0  0  0  0  0  0  0  0  0  0
    2.0155   -4.9523    0.0000 C   0  0  0  0  0  0  0  0  0  0  0  0
    1.6124    0.0000    0.0000 C   0  0  0  0  0  0  0  0  0  0  0  0
  1  2  1  0  0  0  0
  1  3  2  0  0  0  0
  1  4  2  0  0  0  0
  1 14  1  0  0  0  0
  2 12  1  0  0  0  0
  5  7  1  0  0  0  0
  5  8  1  0  0  0  0
  5  9  1  0  0  0  0
  6 10  1  0  0  0  0
  6 11  1  0  0  0  0
  6 15  1  0  0  0  0
  7 11  1  0  0  0  0
  8 10  1  0  0  0  0
  9 13  1  0  0  0  0
 12 13  1  0  0  0  0
M  END
> <PUBCHEM_COMPOUND_ID_TYPE>
0

> <PUBCHEM_TOTAL_CHARGE>
0

> <PUBCHEM_SUBSTANCE_ID>
310932164

> <PUBCHEM_SUBSTANCE_VERSION>
1

> <PUBCHEM_EXT_DATASOURCE_NAME>
4488

> <PUBCHEM_EXT_DATASOURCE_REGID>
SCHEMBL16109518

> <PUBCHEM_SUBSTANCE_COMMENT>
InChI=1S/C9H20N2O3S/c1-10-5-7-11(8-6-10)4-3-9-14-15(2,12)13/h3-9H2,1-2H3
InChIKey=YCSVIJAIGGBLFK-UHFFFAOYSA-N

> <PUBCHEM_SUBSTANCE_SYNONYM>
SCHEMBL16109518

> <PUBCHEM_XREF_EXT_ID>
SCHEMBL16109518

> <PUBCHEM_EXT_DATASOURCE_URL>
https://www.surechembl.org/

> <PUBCHEM_EXT_SUBSTANCE_URL>
https://www.surechembl.org/chemical/SCHEMBL16109518

> <PUBCHEM_CID_ASSOCIATIONS>
117600765  1

> <PUBCHEM_COORDINATE_TYPE>
1
3

$$$$
