310929164
  -OEChem-07211613022D

 58 62  0     0  0  0  0  0  0999 V2000
    2.6398   -9.8994    0.0000 O   0  0  0  0  0  0  0  0  0  0  0  0
    5.5272  -12.3743    0.0000 O   0  0  0  0  0  0  0  0  0  0  0  0
    6.9296  -12.3743    0.0000 O   0  0  0  0  0  0  0  0  0  0  0  0
    3.3823  -14.4367    0.0000 O   0  0  0  0  0  0  0  0  0  0  0  0
    2.8049   -4.9497    0.0000 O   0  0  0  0  0  0  0  0  0  0  0  0
    4.1248   -7.5070    0.0000 O   0  0  0  0  0  0  0  0  0  0  0  0
    0.6600   -4.5372    0.0000 O   0  0  0  0  0  0  0  0  0  0  0  0
    0.0000   -2.4749    0.0000 O   0  0  0  0  0  0  0  0  0  0  0  0
    1.4849   -0.8249    0.0000 O   0  0  0  0  0  0  0  0  0  0  0  0
    4.0423  -13.1993    0.0000 N   0  0  0  0  0  0  0  0  0  0  0  0
    2.6398  -13.1993    0.0000 N   0  0  0  0  0  0  0  0  0  0  0  0
    7.6721  -13.6117    0.0000 N   0  0  0  0  0  0  0  0  0  0  0  0
    1.9799   -8.6620    0.0000 N   0  0  0  0  0  0  0  0  0  0  0  0
    1.3200   -7.4246    0.0000 N   0  0  0  0  0  0  0  0  0  0  0  0
    0.5775   -8.6620    0.0000 N   0  0  0  0  0  0  0  0  0  0  0  0
    5.5272  -13.1993    0.0000 C   0  0  0  0  0  0  0  0  0  0  0  0
    4.7847  -13.6117    0.0000 C   0  0  0  0  0  0  0  0  0  0  0  0
    3.2998  -11.9618    0.0000 C   0  0  0  0  0  0  0  0  0  0  0  0
    6.1872  -13.6117    0.0000 C   0  0  0  0  0  0  0  0  0  0  0  0
    3.3823  -11.1368    0.0000 C   0  0  0  0  0  0  0  0  0  0  0  0
    5.5272  -14.8491    0.0000 C   0  0  0  0  0  0  0  0  0  0  0  0
    2.6398  -12.3743    0.0000 C   0  0  0  0  0  0  0  0  0  0  0  0
    2.6398  -10.7244    0.0000 C   0  0  0  0  0  0  0  0  0  0  0  0
    4.7847  -14.4367    0.0000 C   0  0  0  0  0  0  0  0  0  0  0  0
    6.1872  -14.4367    0.0000 C   0  0  0  0  0  0  0  0  0  0  0  0
    5.5272  -15.6741    0.0000 C   0  0  0  0  0  0  0  0  0  0  0  0
    6.9296  -13.1993    0.0000 C   0  0  0  0  0  0  0  0  0  0  0  0
    3.3823  -13.6117    0.0000 C   0  0  0  0  0  0  0  0  0  0  0  0
    1.8974  -11.9618    0.0000 C   0  0  0  0  0  0  0  0  0  0  0  0
    1.9799  -11.1368    0.0000 C   0  0  0  0  0  0  0  0  0  0  0  0
    4.0423  -12.3743    0.0000 C   0  0  0  0  0  0  0  0  0  0  0  0
    4.0423  -10.8069    0.0000 C   0  0  0  0  0  0  0  0  0  0  0  0
    1.9799   -9.4870    0.0000 C   0  0  0  0  0  0  0  0  0  0  0  0
    4.9497  -12.2093    0.0000 C   0  0  0  0  0  0  0  0  0  0  0  0
    4.7847  -11.2193    0.0000 C   0  0  0  0  0  0  0  0  0  0  0  0
    4.6198  -15.6741    0.0000 C   0  0  0  0  0  0  0  0  0  0  0  0
    5.5272  -16.4991    0.0000 C   0  0  0  0  0  0  0  0  0  0  0  0
    6.3521  -15.6741    0.0000 C   0  0  0  0  0  0  0  0  0  0  0  0
    1.3200   -8.2495    0.0000 C   0  0  0  0  0  0  0  0  0  0  0  0
    1.2374   -9.8994    0.0000 C   0  0  0  0  0  0  0  0  0  0  0  0
    2.0624   -7.0121    0.0000 C   0  0  0  0  0  0  0  0  0  0  0  0
    4.7847  -11.9618    0.0000 C   0  0  0  0  0  0  0  0  0  0  0  0
    0.5775   -9.4870    0.0000 C   0  0  0  0  0  0  0  0  0  0  0  0
    2.0624   -6.1872    0.0000 C   0  0  0  0  0  0  0  0  0  0  0  0
    2.8049   -5.7747    0.0000 C   0  0  0  0  0  0  0  0  0  0  0  0
    2.7223   -7.4246    0.0000 C   0  0  0  0  0  0  0  0  0  0  0  0
    3.4648   -7.0946    0.0000 C   0  0  0  0  0  0  0  0  0  0  0  0
    8.3320  -13.1993    0.0000 C   0  0  0  0  0  0  0  0  0  0  0  0
    3.4648   -6.2696    0.0000 C   0  0  0  0  0  0  0  0  0  0  0  0
    8.3320  -12.3743    0.0000 C   0  0  0  0  0  0  0  0  0  0  0  0
    2.1449   -4.5372    0.0000 C   0  0  0  0  0  0  0  0  0  0  0  0
    4.8672   -7.0946    0.0000 C   0  0  0  0  0  0  0  0  0  0  0  0
    1.4024   -4.9497    0.0000 C   0  0  0  0  0  0  0  0  0  0  0  0
    0.7425   -3.7123    0.0000 C   0  0  0  0  0  0  0  0  0  0  0  0
    0.0000   -3.2998    0.0000 C   0  0  0  0  0  0  0  0  0  0  0  0
    0.7425   -2.0624    0.0000 C   0  0  0  0  0  0  0  0  0  0  0  0
    0.7425   -1.2374    0.0000 C   0  0  0  0  0  0  0  0  0  0  0  0
    1.4849    0.0000    0.0000 C   0  0  0  0  0  0  0  0  0  0  0  0
  1 23  1  0  0  0  0
  1 33  1  0  0  0  0
  2 16  1  0  0  0  0
  2 42  1  0  0  0  0
  3 27  2  0  0  0  0
  4 28  2  0  0  0  0
  5 45  1  0  0  0  0
  5 51  1  0  0  0  0
  6 47  1  0  0  0  0
  6 52  1  0  0  0  0
  7 53  1  0  0  0  0
  7 54  1  0  0  0  0
  8 55  1  0  0  0  0
  8 56  1  0  0  0  0
  9 57  1  0  0  0  0
  9 58  1  0  0  0  0
 10 17  1  0  0  0  0
 10 28  1  0  0  0  0
 11 22  1  0  0  0  0
 11 28  1  0  0  0  0
 12 27  1  0  0  0  0
 12 48  1  0  0  0  0
 13 33  2  0  0  0  0
 13 39  1  0  0  0  0
 14 39  1  0  0  0  0
 14 41  1  0  0  0  0
 15 39  2  0  0  0  0
 15 43  1  0  0  0  0
 16 17  1  0  0  0  0
 16 19  2  0  0  0  0
 17 24  2  0  0  0  0
 18 20  2  0  0  0  0
 18 22  1  0  0  0  0
 18 31  1  0  0  0  0
 19 25  1  0  0  0  0
 19 27  1  0  0  0  0
 20 23  1  0  0  0  0
 20 32  1  0  0  0  0
 21 24  1  0  0  0  0
 21 25  2  0  0  0  0
 21 26  1  0  0  0  0
 22 29  2  0  0  0  0
 23 30  2  0  0  0  0
 26 36  1  0  0  0  0
 26 37  1  0  0  0  0
 26 38  1  0  0  0  0
 29 30  1  0  0  0  0
 31 34  2  0  0  0  0
 32 35  2  0  0  0  0
 33 40  1  0  0  0  0
 34 35  1  0  0  0  0
 40 43  2  0  0  0  0
 41 44  2  0  0  0  0
 41 46  1  0  0  0  0
 44 45  1  0  0  0  0
 45 49  2  0  0  0  0
 46 47  2  0  0  0  0
 47 49  1  0  0  0  0
 48 50  1  0  0  0  0
 51 53  1  0  0  0  0
 54 55  1  0  0  0  0
 56 57  1  0  0  0  0
M  END
> <PUBCHEM_COMPOUND_ID_TYPE>
0

> <PUBCHEM_TOTAL_CHARGE>
0

> <PUBCHEM_SUBSTANCE_ID>
310929164

> <PUBCHEM_SUBSTANCE_VERSION>
1

> <PUBCHEM_EXT_DATASOURCE_NAME>
4488

> <PUBCHEM_EXT_DATASOURCE_REGID>
SCHEMBL16106327

> <PUBCHEM_SUBSTANCE_COMMENT>
InChI=1S/C43H52N6O9/c1-8-44-40(50)34-23-28(43(2,3)4)24-36(39(34)54-7)48-42(51)47-35-13-14-37(33-12-10-9-11-32(33)35)58-38-15-16-45-41(49-38)46-29-25-30(53-6)27-31(26-29)57-22-21-56-20-19-55-18-17-52-5/h9-16,23-27H,8,17-22H2,1-7H3,(H,44,50)(H,45,46,49)(H2,47,48,51)
InChIKey=OXRRQOJUZKCQEA-UHFFFAOYSA-N

> <PUBCHEM_SUBSTANCE_SYNONYM>
SCHEMBL16106327

> <PUBCHEM_XREF_EXT_ID>
SCHEMBL16106327

> <PUBCHEM_EXT_DATASOURCE_URL>
https://www.surechembl.org/

> <PUBCHEM_EXT_SUBSTANCE_URL>
https://www.surechembl.org/chemical/SCHEMBL16106327

> <PUBCHEM_CID_ASSOCIATIONS>
117598626  1

> <PUBCHEM_COORDINATE_TYPE>
1
3

$$$$
