310942310
  -OEChem-07211613022D

 22 24  0     0  0  0  0  0  0999 V2000
   -2.2937    0.1949    0.0000 Cl  0  0  0  0  0  0  0  0  0  0  0  0
   -3.7630   -0.4647    0.0000 O   0  0  0  0  0  0  0  0  0  0  0  0
    0.8545    1.0644    0.0000 O   0  0  0  0  0  0  0  0  0  0  0  0
    1.5741   -0.2249    0.0000 N   0  0  0  0  0  0  0  0  0  0  0  0
    3.0434   -1.0344    0.0000 N   0  0  0  0  0  0  0  0  0  0  0  0
    0.1349   -0.1649    0.0000 C   0  0  0  0  0  0  0  0  0  0  0  0
   -1.3043   -1.0344    0.0000 C   0  0  0  0  0  0  0  0  0  0  0  0
   -1.2743   -0.1949    0.0000 C   0  0  0  0  0  0  0  0  0  0  0  0
    0.8545    0.1949    0.0000 C   0  0  0  0  0  0  0  0  0  0  0  0
   -0.5547    0.1949    0.0000 C   0  0  0  0  0  0  0  0  0  0  0  0
    0.1049   -1.0644    0.0000 C   0  0  0  0  0  0  0  0  0  0  0  0
   -0.5547   -1.4542    0.0000 C   0  0  0  0  0  0  0  0  0  0  0  0
    2.3238    0.2249    0.0000 C   0  0  0  0  0  0  0  0  0  0  0  0
   -2.0239   -1.4542    0.0000 C   0  0  0  0  0  0  0  0  0  0  0  0
   -2.7735   -1.0344    0.0000 C   0  0  0  0  0  0  0  0  0  0  0  0
    3.0434   -0.1649    0.0000 C   0  0  0  0  0  0  0  0  0  0  0  0
   -3.4931   -1.2443    0.0000 C   0  0  0  0  0  0  0  0  0  0  0  0
   -2.9834   -0.2249    0.0000 C   0  0  0  0  0  0  0  0  0  0  0  0
    2.3538    1.0644    0.0000 C   0  0  0  0  0  0  0  0  0  0  0  0
    3.7330    0.2249    0.0000 C   0  0  0  0  0  0  0  0  0  0  0  0
    3.0434    1.4542    0.0000 C   0  0  0  0  0  0  0  0  0  0  0  0
    3.7630    1.0344    0.0000 C   0  0  0  0  0  0  0  0  0  0  0  0
  1  8  1  0  0  0  0
  2 17  1  0  0  0  0
  2 18  1  0  0  0  0
  3  9  2  0  0  0  0
  4  9  1  0  0  0  0
  4 13  1  0  0  0  0
  5 16  1  0  0  0  0
  6  9  1  0  0  0  0
  6 10  2  0  0  0  0
  6 11  1  0  0  0  0
  7  8  2  0  0  0  0
  7 12  1  0  0  0  0
  7 14  1  0  0  0  0
  8 10  1  0  0  0  0
 11 12  2  0  0  0  0
 13 16  2  0  0  0  0
 13 19  1  0  0  0  0
 14 15  2  0  0  0  0
 15 17  1  0  0  0  0
 15 18  1  0  0  0  0
 16 20  1  0  0  0  0
 19 21  2  0  0  0  0
 20 22  2  0  0  0  0
 21 22  1  0  0  0  0
M  END
> <PUBCHEM_COMPOUND_ID_TYPE>
0

> <PUBCHEM_TOTAL_CHARGE>
0

> <PUBCHEM_SUBSTANCE_ID>
310942310

> <PUBCHEM_SUBSTANCE_VERSION>
1

> <PUBCHEM_EXT_DATASOURCE_NAME>
4488

> <PUBCHEM_EXT_DATASOURCE_REGID>
SCHEMBL16120346

> <PUBCHEM_SUBSTANCE_COMMENT>
InChI=1S/C17H15ClN2O2/c18-14-8-13(6-5-12(14)7-11-9-22-10-11)17(21)20-16-4-2-1-3-15(16)19/h1-8H,9-10,19H2,(H,20,21)
InChIKey=DWJCFLIXURXBGJ-UHFFFAOYSA-N

> <PUBCHEM_SUBSTANCE_SYNONYM>
SCHEMBL16120346

> <PUBCHEM_XREF_EXT_ID>
SCHEMBL16120346

> <PUBCHEM_EXT_DATASOURCE_URL>
https://www.surechembl.org/

> <PUBCHEM_EXT_SUBSTANCE_URL>
https://www.surechembl.org/chemical/SCHEMBL16120346

> <PUBCHEM_CID_ASSOCIATIONS>
86268311  1

> <PUBCHEM_COORDINATE_TYPE>
1
3

$$$$
