310948789
  -OEChem-07211613022D

 27 30  0     1  0  0  0  0  0999 V2000
   -2.4655    1.9326    0.0000 O   0  0  0  0  0  0  0  0  0  0  0  0
    0.1273    0.9464    0.0000 N   0  0  0  0  0  0  0  0  0  0  0  0
   -0.4136    0.3261    0.0000 N   0  0  0  0  0  0  0  0  0  0  0  0
   -1.8928    0.2466    0.0000 N   0  0  0  0  0  0  0  0  0  0  0  0
   -1.3997    2.9030    0.0000 N   0  0  0  0  0  0  0  0  0  0  0  0
    0.3500   -1.2169    0.0000 N   0  0  0  0  0  0  0  0  0  0  0  0
   -0.4454   -3.0619    0.0000 N   0  0  0  0  0  0  0  0  0  0  0  0
   -1.0975    1.5032    0.0000 C   0  0  0  0  0  0  0  0  0  0  0  0
   -0.3023    1.6781    0.0000 C   0  0  0  0  0  0  0  0  0  0  0  0
   -1.1930    0.6760    0.0000 C   0  0  0  0  0  0  0  0  0  0  0  0
    0.9543    0.8669    0.0000 C   0  0  3  0  0  0  0  0  0  0  0  0
   -1.6543    2.1234    0.0000 C   0  0  0  0  0  0  0  0  0  0  0  0
   -0.0319    2.4575    0.0000 C   0  0  0  0  0  0  0  0  0  0  0  0
    1.3043    0.1193    0.0000 C   0  0  3  0  0  0  0  0  0  0  0  0
   -0.5727    3.0619    0.0000 C   0  0  0  0  0  0  0  0  0  0  0  0
    1.4316    1.5350    0.0000 C   0  0  0  0  0  0  0  0  0  0  0  0
   -1.8928   -0.5806    0.0000 C   0  0  0  0  0  0  0  0  0  0  0  0
    2.1155    0.0398    0.0000 C   0  0  0  0  0  0  0  0  0  0  0  0
    0.8112   -0.5647    0.0000 C   0  0  0  0  0  0  0  0  0  0  0  0
    2.2586    1.4554    0.0000 C   0  0  0  0  0  0  0  0  0  0  0  0
   -1.1771   -0.9941    0.0000 C   0  0  0  0  0  0  0  0  0  0  0  0
   -2.5928   -0.9941    0.0000 C   0  0  0  0  0  0  0  0  0  0  0  0
    2.5928    0.6919    0.0000 C   0  0  0  0  0  0  0  0  0  0  0  0
   -1.1771   -1.8054    0.0000 C   0  0  0  0  0  0  0  0  0  0  0  0
   -2.5768   -1.8371    0.0000 C   0  0  0  0  0  0  0  0  0  0  0  0
   -1.8610   -2.2189    0.0000 C   0  0  0  0  0  0  0  0  0  0  0  0
   -0.4454   -2.2348    0.0000 C   0  0  0  0  0  0  0  0  0  0  0  0
  1 12  2  0  0  0  0
  2  3  1  0  0  0  0
  2  9  1  0  0  0  0
 11  2  1  1  0  0  0
  3 10  2  0  0  0  0
  4 10  1  0  0  0  0
  4 17  1  0  0  0  0
  5 12  1  0  0  0  0
  5 15  1  0  0  0  0
  6 19  3  0  0  0  0
  7 27  1  0  0  0  0
  8  9  2  0  0  0  0
  8 10  1  0  0  0  0
  8 12  1  0  0  0  0
  9 13  1  0  0  0  0
 11 14  1  0  0  0  0
 11 16  1  0  0  0  0
 13 15  2  0  0  0  0
 14 18  1  0  0  0  0
 14 19  1  6  0  0  0
 16 20  1  0  0  0  0
 17 21  2  0  0  0  0
 17 22  1  0  0  0  0
 18 23  1  0  0  0  0
 20 23  1  0  0  0  0
 21 24  1  0  0  0  0
 22 25  2  0  0  0  0
 24 26  2  0  0  0  0
 24 27  1  0  0  0  0
 25 26  1  0  0  0  0
M  END
> <PUBCHEM_COMPOUND_ID_TYPE>
0

> <PUBCHEM_TOTAL_CHARGE>
0

> <PUBCHEM_SUBSTANCE_ID>
310948789

> <PUBCHEM_SUBSTANCE_VERSION>
1

> <PUBCHEM_EXT_DATASOURCE_NAME>
4488

> <PUBCHEM_EXT_DATASOURCE_REGID>
SCHEMBL16126973

> <PUBCHEM_SUBSTANCE_COMMENT>
InChI=1S/C20H22N6O/c21-11-13-4-3-6-15(10-13)24-19-18-17(8-9-23-20(18)27)26(25-19)16-7-2-1-5-14(16)12-22/h3-4,6,8-10,14,16H,1-2,5,7,11,21H2,(H,23,27)(H,24,25)/t14-,16+/m1/s1
InChIKey=UAZBMUAXZPHBEH-ZBFHGGJFSA-N

> <PUBCHEM_SUBSTANCE_SYNONYM>
SCHEMBL16126973

> <PUBCHEM_XREF_EXT_ID>
SCHEMBL16126973

> <PUBCHEM_EXT_DATASOURCE_URL>
https://www.surechembl.org/

> <PUBCHEM_EXT_SUBSTANCE_URL>
https://www.surechembl.org/chemical/SCHEMBL16126973

> <PUBCHEM_CID_ASSOCIATIONS>
117614328  1

> <PUBCHEM_COORDINATE_TYPE>
1
3

> <PUBCHEM_BONDANNOTATIONS>
14  19  6
11  2  5

$$$$
