310944669
  -OEChem-07211613022D

 33 37  0     0  0  0  0  0  0999 V2000
    0.3947   -3.7428    0.0000 O   0  0  0  0  0  0  0  0  0  0  0  0
   -2.5878    3.9621    0.0000 O   0  0  0  0  0  0  0  0  0  0  0  0
   -0.4678    0.8042    0.0000 N   0  0  0  0  0  0  0  0  0  0  0  0
    0.0146    0.1315    0.0000 N   0  0  0  0  0  0  0  0  0  0  0  0
    0.5555   -1.5497    0.0000 N   0  0  0  0  0  0  0  0  0  0  0  0
   -0.8334   -1.9298    0.0000 N   0  0  0  0  0  0  0  0  0  0  0  0
    1.5643   -2.5732    0.0000 N   0  0  0  0  0  0  0  0  0  0  0  0
    2.9679   -2.1053    0.0000 N   0  0  0  0  0  0  0  0  0  0  0  0
    3.3480   -1.3743    0.0000 N   0  0  0  0  0  0  0  0  0  0  0  0
   -0.4824   -0.5117    0.0000 C   0  0  0  0  0  0  0  0  0  0  0  0
   -1.2720   -0.2339    0.0000 C   0  0  0  0  0  0  0  0  0  0  0  0
   -1.2573    0.5848    0.0000 C   0  0  0  0  0  0  0  0  0  0  0  0
   -0.2778   -1.3012    0.0000 C   0  0  0  0  0  0  0  0  0  0  0  0
    0.7457   -2.3100    0.0000 C   0  0  0  0  0  0  0  0  0  0  0  0
   -1.9737   -0.6578    0.0000 C   0  0  0  0  0  0  0  0  0  0  0  0
   -1.9737    0.9796    0.0000 C   0  0  0  0  0  0  0  0  0  0  0  0
   -0.2632    1.6375    0.0000 C   0  0  0  0  0  0  0  0  0  0  0  0
    0.1754   -2.9094    0.0000 C   0  0  0  0  0  0  0  0  0  0  0  0
   -0.6286   -2.6901    0.0000 C   0  0  0  0  0  0  0  0  0  0  0  0
   -0.8480    2.2223    0.0000 C   0  0  0  0  0  0  0  0  0  0  0  0
   -2.6901   -0.2486    0.0000 C   0  0  0  0  0  0  0  0  0  0  0  0
   -2.6901    0.5702    0.0000 C   0  0  0  0  0  0  0  0  0  0  0  0
    2.1491   -1.9444    0.0000 C   0  0  0  0  0  0  0  0  0  0  0  0
   -1.6521    2.0176    0.0000 C   0  0  0  0  0  0  0  0  0  0  0  0
   -0.6432    3.0410    0.0000 C   0  0  0  0  0  0  0  0  0  0  0  0
    2.0176   -1.1404    0.0000 C   0  0  0  0  0  0  0  0  0  0  0  0
    2.7340   -0.7603    0.0000 C   0  0  0  0  0  0  0  0  0  0  0  0
   -2.0176    3.4064    0.0000 C   0  0  0  0  0  0  0  0  0  0  0  0
   -2.2223    2.6024    0.0000 C   0  0  0  0  0  0  0  0  0  0  0  0
   -1.2281    3.6112    0.0000 C   0  0  0  0  0  0  0  0  0  0  0  0
    3.3918   -2.8363    0.0000 C   0  0  0  0  0  0  0  0  0  0  0  0
    1.1989   -3.9621    0.0000 C   0  0  0  0  0  0  0  0  0  0  0  0
   -3.3918    3.7428    0.0000 C   0  0  0  0  0  0  0  0  0  0  0  0
  1 18  1  0  0  0  0
  1 32  1  0  0  0  0
  2 28  1  0  0  0  0
  2 33  1  0  0  0  0
  3  4  1  0  0  0  0
  3 12  1  0  0  0  0
  3 17  1  0  0  0  0
  4 10  2  0  0  0  0
  5 13  2  0  0  0  0
  5 14  1  0  0  0  0
  6 13  1  0  0  0  0
  6 19  2  0  0  0  0
  7 14  1  0  0  0  0
  7 23  1  0  0  0  0
  8  9  1  0  0  0  0
  8 23  1  0  0  0  0
  8 31  1  0  0  0  0
  9 27  2  0  0  0  0
 10 11  1  0  0  0  0
 10 13  1  0  0  0  0
 11 12  2  0  0  0  0
 11 15  1  0  0  0  0
 12 16  1  0  0  0  0
 14 18  2  0  0  0  0
 15 21  2  0  0  0  0
 16 22  2  0  0  0  0
 17 20  1  0  0  0  0
 18 19  1  0  0  0  0
 20 24  2  0  0  0  0
 20 25  1  0  0  0  0
 21 22  1  0  0  0  0
 23 26  2  0  0  0  0
 24 29  1  0  0  0  0
 25 30  2  0  0  0  0
 26 27  1  0  0  0  0
 28 29  2  0  0  0  0
 28 30  1  0  0  0  0
M  END
> <PUBCHEM_COMPOUND_ID_TYPE>
0

> <PUBCHEM_TOTAL_CHARGE>
0

> <PUBCHEM_SUBSTANCE_ID>
310944669

> <PUBCHEM_SUBSTANCE_VERSION>
1

> <PUBCHEM_EXT_DATASOURCE_NAME>
4488

> <PUBCHEM_EXT_DATASOURCE_REGID>
SCHEMBL16122747

> <PUBCHEM_SUBSTANCE_COMMENT>
InChI=1S/C24H23N7O2/c1-30-21(12-13-26-30)27-23-20(33-3)14-25-24(28-23)22-18-6-4-5-7-19(18)31(29-22)15-16-8-10-17(32-2)11-9-16/h4-14H,15H2,1-3H3,(H,25,27,28)
InChIKey=RYQWBGDYIHWOLN-UHFFFAOYSA-N

> <PUBCHEM_SUBSTANCE_SYNONYM>
SCHEMBL16122747

> <PUBCHEM_XREF_EXT_ID>
SCHEMBL16122747

> <PUBCHEM_EXT_DATASOURCE_URL>
https://www.surechembl.org/

> <PUBCHEM_EXT_SUBSTANCE_URL>
https://www.surechembl.org/chemical/SCHEMBL16122747

> <PUBCHEM_CID_ASSOCIATIONS>
86267892  1

> <PUBCHEM_COORDINATE_TYPE>
1
3

$$$$
