310934988
  -OEChem-07211613022D

 40 45  0     0  0  0  0  0  0999 V2000
    2.0009  -11.6721    0.0000 O   0  0  0  0  0  0  0  0  0  0  0  0
    0.6003  -11.6721    0.0000 O   0  0  0  0  0  0  0  0  0  0  0  0
    0.6003   -4.2019    0.0000 N   0  0  0  0  0  0  0  0  0  0  0  0
    0.0000   -3.6684    0.0000 N   0  0  0  0  0  0  0  0  0  0  0  0
    2.0676   -4.2019    0.0000 N   0  0  0  0  0  0  0  0  0  0  0  0
    1.3339   -8.8041    0.0000 N   0  0  0  0  0  0  0  0  0  0  0  0
    1.7342   -0.2001    0.0000 N   0  0  0  0  0  0  0  0  0  0  0  0
    1.3339  -10.4715    0.0000 N   0  0  0  0  0  0  0  0  0  0  0  0
    3.4682   -7.5368    0.0000 N   0  0  0  0  0  0  0  0  0  0  0  0
    1.1338   -3.0014    0.0000 C   0  0  0  0  0  0  0  0  0  0  0  0
    1.3339   -3.8018    0.0000 C   0  0  0  0  0  0  0  0  0  0  0  0
    1.6674   -2.3344    0.0000 C   0  0  0  0  0  0  0  0  0  0  0  0
    1.3339   -5.4692    0.0000 C   0  0  0  0  0  0  0  0  0  0  0  0
    1.4674   -1.6007    0.0000 C   0  0  0  0  0  0  0  0  0  0  0  0
    0.6003   -5.0690    0.0000 C   0  0  0  0  0  0  0  0  0  0  0  0
    0.3335   -2.8680    0.0000 C   0  0  0  0  0  0  0  0  0  0  0  0
    1.3339   -6.2695    0.0000 C   0  0  0  0  0  0  0  0  0  0  0  0
    2.0009   -0.9338    0.0000 C   0  0  0  0  0  0  0  0  0  0  0  0
    2.0676   -5.0023    0.0000 C   0  0  0  0  0  0  0  0  0  0  0  0
    1.3339   -7.9370    0.0000 C   0  0  0  0  0  0  0  0  0  0  0  0
    2.5345   -2.5345    0.0000 C   0  0  0  0  0  0  0  0  0  0  0  0
    2.0009   -7.5368    0.0000 C   0  0  0  0  0  0  0  0  0  0  0  0
    2.0009   -6.6698    0.0000 C   0  0  0  0  0  0  0  0  0  0  0  0
    0.6003   -6.6698    0.0000 C   0  0  0  0  0  0  0  0  0  0  0  0
    0.6670   -1.4006    0.0000 C   0  0  0  0  0  0  0  0  0  0  0  0
    0.6003   -7.5368    0.0000 C   0  0  0  0  0  0  0  0  0  0  0  0
    2.8013   -1.1338    0.0000 C   0  0  0  0  0  0  0  0  0  0  0  0
    3.0681   -1.8675    0.0000 C   0  0  0  0  0  0  0  0  0  0  0  0
    0.6003   -9.2043    0.0000 C   0  0  0  0  0  0  0  0  0  0  0  0
    2.0009   -9.2043    0.0000 C   0  0  0  0  0  0  0  0  0  0  0  0
    0.4002   -0.6003    0.0000 C   0  0  0  0  0  0  0  0  0  0  0  0
    2.7346   -7.9370    0.0000 C   0  0  0  0  0  0  0  0  0  0  0  0
    0.9338    0.0000    0.0000 C   0  0  0  0  0  0  0  0  0  0  0  0
    2.0009  -10.0046    0.0000 C   0  0  0  0  0  0  0  0  0  0  0  0
    0.6003  -10.0046    0.0000 C   0  0  0  0  0  0  0  0  0  0  0  0
    1.3339  -11.2719    0.0000 C   0  0  0  0  0  0  0  0  0  0  0  0
    2.0009  -12.5392    0.0000 C   0  0  0  0  0  0  0  0  0  0  0  0
    1.2006  -12.5392    0.0000 C   0  0  0  0  0  0  0  0  0  0  0  0
    2.0009  -13.3395    0.0000 C   0  0  0  0  0  0  0  0  0  0  0  0
    2.8680  -12.5392    0.0000 C   0  0  0  0  0  0  0  0  0  0  0  0
  1 36  1  0  0  0  0
  1 37  1  0  0  0  0
  2 36  2  0  0  0  0
  3  4  1  0  0  0  0
  3 11  1  0  0  0  0
  3 15  1  0  0  0  0
  4 16  2  0  0  0  0
  5 11  1  0  0  0  0
  5 19  2  0  0  0  0
  6 20  1  0  0  0  0
  6 29  1  0  0  0  0
  6 30  1  0  0  0  0
  7 18  2  0  0  0  0
  7 33  1  0  0  0  0
  8 34  1  0  0  0  0
  8 35  1  0  0  0  0
  8 36  1  0  0  0  0
  9 32  3  0  0  0  0
 10 11  2  0  0  0  0
 10 12  1  0  0  0  0
 10 16  1  0  0  0  0
 12 14  1  0  0  0  0
 12 21  2  0  0  0  0
 13 15  2  0  0  0  0
 13 17  1  0  0  0  0
 13 19  1  0  0  0  0
 14 18  1  0  0  0  0
 14 25  2  0  0  0  0
 17 23  1  0  0  0  0
 17 24  2  0  0  0  0
 18 27  1  0  0  0  0
 20 22  1  0  0  0  0
 20 26  2  0  0  0  0
 21 28  1  0  0  0  0
 22 23  2  0  0  0  0
 22 32  1  0  0  0  0
 24 26  1  0  0  0  0
 25 31  1  0  0  0  0
 27 28  2  0  0  0  0
 29 35  1  0  0  0  0
 30 34  1  0  0  0  0
 31 33  2  0  0  0  0
 37 38  1  0  0  0  0
 37 39  1  0  0  0  0
 37 40  1  0  0  0  0
M  END
> <PUBCHEM_COMPOUND_ID_TYPE>
0

> <PUBCHEM_TOTAL_CHARGE>
0

> <PUBCHEM_SUBSTANCE_ID>
310934988

> <PUBCHEM_SUBSTANCE_VERSION>
1

> <PUBCHEM_EXT_DATASOURCE_NAME>
4488

> <PUBCHEM_EXT_DATASOURCE_REGID>
SCHEMBL16112505

> <PUBCHEM_SUBSTANCE_COMMENT>
InChI=1S/C31H29N7O2/c1-31(2,3)40-30(39)37-14-12-36(13-15-37)28-10-9-21(16-22(28)17-32)23-18-34-29-26(19-35-38(29)20-23)24-6-4-8-27-25(24)7-5-11-33-27/h4-11,16,18-20H,12-15H2,1-3H3
InChIKey=HFVJWTZZYXWWKO-UHFFFAOYSA-N

> <PUBCHEM_SUBSTANCE_SYNONYM>
SCHEMBL16112505

> <PUBCHEM_XREF_EXT_ID>
SCHEMBL16112505

> <PUBCHEM_EXT_DATASOURCE_URL>
https://www.surechembl.org/

> <PUBCHEM_EXT_SUBSTANCE_URL>
https://www.surechembl.org/chemical/SCHEMBL16112505

> <PUBCHEM_CID_ASSOCIATIONS>
117603105  1

> <PUBCHEM_COORDINATE_TYPE>
1
3

$$$$
