310930780
  -OEChem-07211613022D

 34 38  0     0  0  0  0  0  0999 V2000
   -6.4304   -0.8250    0.0000 S   0  0  0  0  0  0  0  0  0  0  0  0
    0.7847    0.6674    0.0000 S   0  0  0  0  0  0  0  0  0  0  0  0
   -6.8429   -0.1106    0.0000 O   0  0  0  0  0  0  0  0  0  0  0  0
   -6.0179   -1.5395    0.0000 O   0  0  0  0  0  0  0  0  0  0  0  0
   -2.1435    1.6500    0.0000 O   0  0  0  0  0  0  0  0  0  0  0  0
   -9.2883   -0.8250    0.0000 N   0  0  0  0  0  0  0  0  0  0  0  0
    0.7847   -0.6674    0.0000 N   0  0  0  0  0  0  0  0  0  0  0  0
   -2.8579    0.4125    0.0000 N   0  0  0  0  0  0  0  0  0  0  0  0
   -7.1449   -1.2375    0.0000 C   0  0  0  0  0  0  0  0  0  0  0  0
   -5.7159   -0.4125    0.0000 C   0  0  0  0  0  0  0  0  0  0  0  0
   -7.8594   -0.8250    0.0000 C   0  0  0  0  0  0  0  0  0  0  0  0
   -8.5738   -1.2375    0.0000 C   0  0  0  0  0  0  0  0  0  0  0  0
   -7.1449   -2.0625    0.0000 C   0  0  0  0  0  0  0  0  0  0  0  0
   -5.7159    0.4125    0.0000 C   0  0  0  0  0  0  0  0  0  0  0  0
   -5.0014   -0.8250    0.0000 C   0  0  0  0  0  0  0  0  0  0  0  0
    0.0000    0.4125    0.0000 C   0  0  0  0  0  0  0  0  0  0  0  0
    0.0000   -0.4125    0.0000 C   0  0  0  0  0  0  0  0  0  0  0  0
   -1.4290    0.4125    0.0000 C   0  0  0  0  0  0  0  0  0  0  0  0
   -4.2869    0.4125    0.0000 C   0  0  0  0  0  0  0  0  0  0  0  0
   -0.7145    0.8250    0.0000 C   0  0  0  0  0  0  0  0  0  0  0  0
   -8.5738   -2.0625    0.0000 C   0  0  0  0  0  0  0  0  0  0  0  0
   -5.0014    0.8250    0.0000 C   0  0  0  0  0  0  0  0  0  0  0  0
   -4.2869   -0.4125    0.0000 C   0  0  0  0  0  0  0  0  0  0  0  0
   -7.8594   -2.4751    0.0000 C   0  0  0  0  0  0  0  0  0  0  0  0
   -2.1435    0.8250    0.0000 C   0  0  0  0  0  0  0  0  0  0  0  0
   -0.7145   -0.8250    0.0000 C   0  0  0  0  0  0  0  0  0  0  0  0
   -1.4290   -0.4125    0.0000 C   0  0  0  0  0  0  0  0  0  0  0  0
   -3.5724    0.8250    0.0000 C   0  0  0  0  0  0  0  0  0  0  0  0
    1.2696    0.0000    0.0000 C   0  0  0  0  0  0  0  0  0  0  0  0
  -10.0028   -1.2375    0.0000 C   0  0  0  0  0  0  0  0  0  0  0  0
   -9.2883    0.0000    0.0000 C   0  0  0  0  0  0  0  0  0  0  0  0
  -10.7173   -0.8250    0.0000 C   0  0  0  0  0  0  0  0  0  0  0  0
  -10.0028    0.4125    0.0000 C   0  0  0  0  0  0  0  0  0  0  0  0
  -10.7173    0.0000    0.0000 C   0  0  0  0  0  0  0  0  0  0  0  0
  1  3  2  0  0  0  0
  1  4  2  0  0  0  0
  1  9  1  0  0  0  0
  1 10  1  0  0  0  0
  2 16  1  0  0  0  0
  2 29  1  0  0  0  0
  5 25  2  0  0  0  0
  6 12  1  0  0  0  0
  6 30  1  0  0  0  0
  6 31  1  0  0  0  0
  7 17  1  0  0  0  0
  7 29  2  0  0  0  0
  8 25  1  0  0  0  0
  8 28  1  0  0  0  0
  9 11  1  0  0  0  0
  9 13  2  0  0  0  0
 10 14  2  0  0  0  0
 10 15  1  0  0  0  0
 11 12  2  0  0  0  0
 12 21  1  0  0  0  0
 13 24  1  0  0  0  0
 14 22  1  0  0  0  0
 15 23  2  0  0  0  0
 16 17  1  0  0  0  0
 16 20  2  0  0  0  0
 17 26  2  0  0  0  0
 18 20  1  0  0  0  0
 18 25  1  0  0  0  0
 18 27  2  0  0  0  0
 19 22  2  0  0  0  0
 19 23  1  0  0  0  0
 19 28  1  0  0  0  0
 21 24  2  0  0  0  0
 26 27  1  0  0  0  0
 30 32  1  0  0  0  0
 31 33  1  0  0  0  0
 32 34  1  0  0  0  0
 33 34  1  0  0  0  0
M  END
> <PUBCHEM_COMPOUND_ID_TYPE>
0

> <PUBCHEM_TOTAL_CHARGE>
0

> <PUBCHEM_SUBSTANCE_ID>
310930780

> <PUBCHEM_SUBSTANCE_VERSION>
1

> <PUBCHEM_EXT_DATASOURCE_NAME>
4488

> <PUBCHEM_EXT_DATASOURCE_REGID>
SCHEMBL16108077

> <PUBCHEM_SUBSTANCE_COMMENT>
InChI=1S/C26H25N3O3S2/c30-26(20-9-12-24-25(15-20)33-18-28-24)27-17-19-7-10-22(11-8-19)34(31,32)23-6-4-5-21(16-23)29-13-2-1-3-14-29/h4-12,15-16,18H,1-3,13-14,17H2,(H,27,30)
InChIKey=GVKOGOOUMLZTOE-UHFFFAOYSA-N

> <PUBCHEM_SUBSTANCE_SYNONYM>
SCHEMBL16108077

> <PUBCHEM_XREF_EXT_ID>
SCHEMBL16108077

> <PUBCHEM_EXT_DATASOURCE_URL>
https://www.surechembl.org/

> <PUBCHEM_EXT_SUBSTANCE_URL>
https://www.surechembl.org/chemical/SCHEMBL16108077

> <PUBCHEM_CID_ASSOCIATIONS>
117599794  1

> <PUBCHEM_COORDINATE_TYPE>
1
3

$$$$
