310938545
  -OEChem-07211613022D

 45 50  0     1  0  0  0  0  0999 V2000
   -6.1756   -1.0030    0.0000 Cl  0  0  0  0  0  0  0  0  0  0  0  0
    2.7604   -1.6401    0.0000 O   0  0  0  0  0  0  0  0  0  0  0  0
    4.1849    0.8388    0.0000 O   0  0  0  0  0  0  0  0  0  0  0  0
    1.3337    0.0060    0.0000 O   0  0  0  0  0  0  0  0  0  0  0  0
    1.3337   -1.6440    0.0000 O   0  0  0  0  0  0  0  0  0  0  0  0
    0.8917    1.7135    0.0000 O   0  0  0  0  0  0  0  0  0  0  0  0
   -0.1187    2.7239    0.0000 O   0  0  0  0  0  0  0  0  0  0  0  0
   -2.2387   -1.2315    0.0000 N   0  0  3  0  0  0  0  0  0  0  0  0
    3.4771   -0.4065    0.0000 N   0  0  0  0  0  0  0  0  0  0  0  0
    4.9061   -1.2315    0.0000 C   0  0  0  0  0  0  0  0  0  0  0  0
   -2.9531   -1.6440    0.0000 C   0  0  3  0  0  0  0  0  0  0  0  0
   -3.7377   -1.3890    0.0000 C   0  0  0  0  0  0  0  0  0  0  0  0
   -4.2227   -2.0565    0.0000 C   0  0  0  0  0  0  0  0  0  0  0  0
    4.1871   -1.6517    0.0000 C   0  0  0  0  0  0  0  0  0  0  0  0
    4.9061   -0.4065    0.0000 C   0  0  0  0  0  0  0  0  0  0  0  0
    3.4771   -1.2315    0.0000 C   0  0  0  0  0  0  0  0  0  0  0  0
    4.1871    0.0138    0.0000 C   0  0  0  0  0  0  0  0  0  0  0  0
   -2.9531   -2.4690    0.0000 C   0  0  0  0  0  0  0  0  0  0  0  0
    4.9061   -2.0565    0.0000 C   0  0  0  0  0  0  0  0  0  0  0  0
    5.6907   -0.9765    0.0000 C   0  0  0  0  0  0  0  0  0  0  0  0
   -3.7377   -2.7239    0.0000 C   0  0  0  0  0  0  0  0  0  0  0  0
   -4.0733   -0.6353    0.0000 C   0  0  0  0  0  0  0  0  0  0  0  0
   -1.5242   -1.6440    0.0000 C   0  0  0  0  0  0  0  0  0  0  0  0
   -5.0432   -1.9702    0.0000 C   0  0  0  0  0  0  0  0  0  0  0  0
   -0.8097   -1.2315    0.0000 C   0  0  0  0  0  0  0  0  0  0  0  0
   -2.2387   -0.4065    0.0000 C   0  0  0  0  0  0  0  0  0  0  0  0
   -5.3787   -1.2165    0.0000 C   0  0  0  0  0  0  0  0  0  0  0  0
    2.7626    0.0060    0.0000 C   0  0  0  0  0  0  0  0  0  0  0  0
    5.6907   -2.3114    0.0000 C   0  0  0  0  0  0  0  0  0  0  0  0
    6.1756   -1.6440    0.0000 C   0  0  0  0  0  0  0  0  0  0  0  0
   -4.8938   -0.5491    0.0000 C   0  0  0  0  0  0  0  0  0  0  0  0
    0.6192   -0.4065    0.0000 C   0  0  0  0  0  0  0  0  0  0  0  0
    0.6192   -1.2315    0.0000 C   0  0  0  0  0  0  0  0  0  0  0  0
   -1.6553    0.1769    0.0000 C   0  0  0  0  0  0  0  0  0  0  0  0
   -0.0952   -1.6440    0.0000 C   0  0  0  0  0  0  0  0  0  0  0  0
   -0.8097   -0.4065    0.0000 C   0  0  0  0  0  0  0  0  0  0  0  0
   -0.0952    0.0060    0.0000 C   0  0  0  0  0  0  0  0  0  0  0  0
    2.0482   -0.4065    0.0000 C   0  0  0  0  0  0  0  0  0  0  0  0
   -0.8584   -0.0366    0.0000 C   0  0  0  0  0  0  0  0  0  0  0  0
   -1.8688    0.9738    0.0000 C   0  0  0  0  0  0  0  0  0  0  0  0
   -0.4886    1.3436    0.0000 C   0  0  0  0  0  0  0  0  0  0  0  0
   -0.2750    0.5467    0.0000 C   0  0  0  0  0  0  0  0  0  0  0  0
   -1.2855    1.5572    0.0000 C   0  0  0  0  0  0  0  0  0  0  0  0
    0.0948    1.9270    0.0000 C   0  0  0  0  0  0  0  0  0  0  0  0
    2.0482   -1.2315    0.0000 C   0  0  0  0  0  0  0  0  0  0  0  0
  1 27  1  0  0  0  0
  2 16  2  0  0  0  0
  3 17  2  0  0  0  0
  4 32  1  0  0  0  0
  4 38  1  0  0  0  0
  5 33  1  0  0  0  0
  5 45  1  0  0  0  0
  6 44  2  0  0  0  0
  7 44  1  0  0  0  0
 11  8  1  1  0  0  0
  8 23  1  0  0  0  0
  8 26  1  0  0  0  0
  9 16  1  0  0  0  0
  9 17  1  0  0  0  0
  9 28  1  0  0  0  0
 10 14  1  0  0  0  0
 10 15  1  0  0  0  0
 10 19  1  0  0  0  0
 10 20  1  0  0  0  0
 11 12  1  0  0  0  0
 11 18  1  0  0  0  0
 12 13  2  0  0  0  0
 12 22  1  0  0  0  0
 13 21  1  0  0  0  0
 13 24  1  0  0  0  0
 14 16  1  0  0  0  0
 15 17  1  0  0  0  0
 18 21  1  0  0  0  0
 19 29  1  0  0  0  0
 20 30  1  0  0  0  0
 22 31  2  0  0  0  0
 23 25  1  0  0  0  0
 24 27  2  0  0  0  0
 25 35  2  0  0  0  0
 25 36  1  0  0  0  0
 34 26  1  1  0  0  0
 27 31  1  0  0  0  0
 28 38  1  0  0  0  0
 29 30  1  0  0  0  0
 32 33  2  0  0  0  0
 32 37  1  0  0  0  0
 33 35  1  0  0  0  0
 34 39  1  0  0  0  0
 34 40  1  0  0  0  0
 36 37  2  0  0  0  0
 39 42  1  0  0  0  0
 40 43  1  0  0  0  0
 41 42  1  0  0  0  0
 41 43  1  0  0  0  0
 41 44  1  6  0  0  0
M  END
> <PUBCHEM_COMPOUND_ID_TYPE>
0

> <PUBCHEM_TOTAL_CHARGE>
0

> <PUBCHEM_SUBSTANCE_ID>
310938545

> <PUBCHEM_SUBSTANCE_VERSION>
1

> <PUBCHEM_EXT_DATASOURCE_NAME>
4488

> <PUBCHEM_EXT_DATASOURCE_REGID>
SCHEMBL16116459

> <PUBCHEM_SUBSTANCE_COMMENT>
InChI=1S/C36H45ClN2O6/c1-44-32-18-25(6-13-31(32)45-17-16-39-33(40)20-36(21-34(39)41)14-2-3-15-36)23-38(22-24-4-7-26(8-5-24)35(42)43)30-12-9-27-19-28(37)10-11-29(27)30/h6,10-11,13,18-19,24,26,30H,2-5,7-9,12,14-17,20-23H2,1H3,(H,42,43)/t24-,26-,30-/m0/s1
InChIKey=FLLDHFGPYVGQHR-QECWJDIYSA-N

> <PUBCHEM_SUBSTANCE_SYNONYM>
SCHEMBL16116459

> <PUBCHEM_XREF_EXT_ID>
SCHEMBL16116459

> <PUBCHEM_EXT_DATASOURCE_URL>
https://www.surechembl.org/

> <PUBCHEM_EXT_SUBSTANCE_URL>
https://www.surechembl.org/chemical/SCHEMBL16116459

> <PUBCHEM_CID_ASSOCIATIONS>
89610509  1

> <PUBCHEM_COORDINATE_TYPE>
1
3

> <PUBCHEM_BONDANNOTATIONS>
34  26  5
41  44  6
11  8  5

$$$$
