310936711
  -OEChem-07211613022D

 25 27  0     0  0  0  0  0  0999 V2000
    2.8708   -4.8837    0.0000 O   0  0  0  0  0  0  0  0  0  0  0  0
    5.7087   -1.4189    0.0000 O   0  0  0  0  0  0  0  0  0  0  0  0
    3.2338   -1.1219    0.0000 N   0  0  0  0  0  0  0  0  0  0  0  0
    3.4648   -3.5638    0.0000 N   0  0  0  0  0  0  0  0  0  0  0  0
    4.0258   -1.3859    0.0000 N   0  0  0  0  0  0  0  0  0  0  0  0
    0.0660   -5.0817    0.0000 N   0  0  0  0  0  0  0  0  0  0  0  0
    5.7087    0.0000    0.0000 N   0  0  0  0  0  0  0  0  0  0  0  0
    1.5839   -6.5996    0.0000 N   0  0  0  0  0  0  0  0  0  0  0  0
    2.0789   -3.6958    0.0000 C   0  0  0  0  0  0  0  0  0  0  0  0
    1.4189   -4.1578    0.0000 C   0  0  0  0  0  0  0  0  0  0  0  0
    2.8048   -4.0588    0.0000 C   0  0  0  0  0  0  0  0  0  0  0  0
    2.6399   -2.4088    0.0000 C   0  0  0  0  0  0  0  0  0  0  0  0
    2.0129   -2.9038    0.0000 C   0  0  0  0  0  0  0  0  0  0  0  0
    2.5739   -1.5839    0.0000 C   0  0  0  0  0  0  0  0  0  0  0  0
    4.4877   -0.6930    0.0000 C   0  0  0  0  0  0  0  0  0  0  0  0
    3.3988   -2.7719    0.0000 C   0  0  0  0  0  0  0  0  0  0  0  0
    1.4849   -4.9827    0.0000 C   0  0  0  0  0  0  0  0  0  0  0  0
    0.6930   -3.7948    0.0000 C   0  0  0  0  0  0  0  0  0  0  0  0
    3.2338   -0.2970    0.0000 C   0  0  0  0  0  0  0  0  0  0  0  0
    0.7920   -5.4117    0.0000 C   0  0  0  0  0  0  0  0  0  0  0  0
    4.0258   -0.0330    0.0000 C   0  0  0  0  0  0  0  0  0  0  0  0
    5.3127   -0.6930    0.0000 C   0  0  0  0  0  0  0  0  0  0  0  0
    0.0000   -4.2568    0.0000 C   0  0  0  0  0  0  0  0  0  0  0  0
    0.8249   -6.2367    0.0000 C   0  0  0  0  0  0  0  0  0  0  0  0
    3.6298   -5.2137    0.0000 C   0  0  0  0  0  0  0  0  0  0  0  0
  1 11  1  0  0  0  0
  1 25  1  0  0  0  0
  2 22  2  0  0  0  0
  3  5  1  0  0  0  0
  3 14  1  0  0  0  0
  3 19  1  0  0  0  0
  4 11  2  0  0  0  0
  4 16  1  0  0  0  0
  5 15  2  0  0  0  0
  6 20  1  0  0  0  0
  6 23  2  0  0  0  0
  7 22  1  0  0  0  0
  8 24  3  0  0  0  0
  9 10  1  0  0  0  0
  9 11  1  0  0  0  0
  9 13  2  0  0  0  0
 10 17  1  0  0  0  0
 10 18  2  0  0  0  0
 12 13  1  0  0  0  0
 12 14  1  0  0  0  0
 12 16  2  0  0  0  0
 15 21  1  0  0  0  0
 15 22  1  0  0  0  0
 17 20  2  0  0  0  0
 18 23  1  0  0  0  0
 19 21  2  0  0  0  0
 20 24  1  0  0  0  0
M  END
> <PUBCHEM_COMPOUND_ID_TYPE>
0

> <PUBCHEM_TOTAL_CHARGE>
0

> <PUBCHEM_SUBSTANCE_ID>
310936711

> <PUBCHEM_SUBSTANCE_VERSION>
1

> <PUBCHEM_EXT_DATASOURCE_NAME>
4488

> <PUBCHEM_EXT_DATASOURCE_REGID>
SCHEMBL16114389

> <PUBCHEM_SUBSTANCE_COMMENT>
InChI=1S/C17H14N6O2/c1-25-17-14(12-2-4-20-13(7-12)8-18)6-11(9-21-17)10-23-5-3-15(22-23)16(19)24/h2-7,9H,10H2,1H3,(H2,19,24)
InChIKey=NDEYKHHAHOWQJJ-UHFFFAOYSA-N

> <PUBCHEM_SUBSTANCE_SYNONYM>
SCHEMBL16114389

> <PUBCHEM_XREF_EXT_ID>
SCHEMBL16114389

> <PUBCHEM_EXT_DATASOURCE_URL>
https://www.surechembl.org/

> <PUBCHEM_EXT_SUBSTANCE_URL>
https://www.surechembl.org/chemical/SCHEMBL16114389

> <PUBCHEM_CID_ASSOCIATIONS>
117604613  1

> <PUBCHEM_COORDINATE_TYPE>
1
3

$$$$
