310936155
  -OEChem-07211613022D

 34 37  0     0  0  0  0  0  0999 V2000
    3.4979    0.0000    0.0000 F   0  0  0  0  0  0  0  0  0  0  0  0
    0.8307   -8.7449    0.0000 F   0  0  0  0  0  0  0  0  0  0  0  0
    3.3230   -5.7716    0.0000 O   0  0  0  0  0  0  0  0  0  0  0  0
    1.0931   -4.1538    0.0000 O   0  0  0  0  0  0  0  0  0  0  0  0
    5.6404   -1.2680    0.0000 O   0  0  0  0  0  0  0  0  0  0  0  0
    4.9408    0.0000    0.0000 O   0  0  0  0  0  0  0  0  0  0  0  0
    0.7870   -5.5530    0.0000 N   0  0  0  0  0  0  0  0  0  0  0  0
    2.7546   -4.5473    0.0000 C   0  0  0  0  0  0  0  0  0  0  0  0
    2.1862   -5.1157    0.0000 C   0  0  0  0  0  0  0  0  0  0  0  0
    3.4979   -4.9846    0.0000 C   0  0  0  0  0  0  0  0  0  0  0  0
    2.4923   -5.9028    0.0000 C   0  0  0  0  0  0  0  0  0  0  0  0
    3.4979   -3.3230    0.0000 C   0  0  0  0  0  0  0  0  0  0  0  0
    2.7983   -3.7166    0.0000 C   0  0  0  0  0  0  0  0  0  0  0  0
    4.2412   -3.7603    0.0000 C   0  0  0  0  0  0  0  0  0  0  0  0
    4.2412   -4.5473    0.0000 C   0  0  0  0  0  0  0  0  0  0  0  0
    2.0550   -6.6024    0.0000 C   0  0  0  0  0  0  0  0  0  0  0  0
    1.3554   -4.9408    0.0000 C   0  0  0  0  0  0  0  0  0  0  0  0
    3.4979   -2.4923    0.0000 C   0  0  0  0  0  0  0  0  0  0  0  0
    4.1975   -2.0550    0.0000 C   0  0  0  0  0  0  0  0  0  0  0  0
    4.1975   -1.2680    0.0000 C   0  0  0  0  0  0  0  0  0  0  0  0
    4.9408   -3.3230    0.0000 C   0  0  0  0  0  0  0  0  0  0  0  0
    2.7546   -2.0550    0.0000 C   0  0  0  0  0  0  0  0  0  0  0  0
    2.4923   -7.3020    0.0000 C   0  0  0  0  0  0  0  0  0  0  0  0
    1.2680   -6.6024    0.0000 C   0  0  0  0  0  0  0  0  0  0  0  0
    3.4979   -0.8307    0.0000 C   0  0  0  0  0  0  0  0  0  0  0  0
    2.7546   -1.2680    0.0000 C   0  0  0  0  0  0  0  0  0  0  0  0
    4.9408   -0.8307    0.0000 C   0  0  0  0  0  0  0  0  0  0  0  0
    2.0550   -8.0453    0.0000 C   0  0  0  0  0  0  0  0  0  0  0  0
    0.8307   -7.3020    0.0000 C   0  0  0  0  0  0  0  0  0  0  0  0
    1.2680   -8.0453    0.0000 C   0  0  0  0  0  0  0  0  0  0  0  0
    4.9408   -2.5360    0.0000 C   0  0  0  0  0  0  0  0  0  0  0  0
    0.0000   -5.3781    0.0000 C   0  0  0  0  0  0  0  0  0  0  0  0
    4.4161   -2.2736    0.0000 C   0  0  0  0  0  0  0  0  0  0  0  0
    6.3837   -0.8307    0.0000 C   0  0  0  0  0  0  0  0  0  0  0  0
  1 25  1  0  0  0  0
  2 30  1  0  0  0  0
  3 10  1  0  0  0  0
  3 11  1  0  0  0  0
  4 17  2  0  0  0  0
  5 27  1  0  0  0  0
  5 34  1  0  0  0  0
  6 27  2  0  0  0  0
  7 17  1  0  0  0  0
  7 32  1  0  0  0  0
  8  9  1  0  0  0  0
  8 10  2  0  0  0  0
  8 13  1  0  0  0  0
  9 11  2  0  0  0  0
  9 17  1  0  0  0  0
 10 15  1  0  0  0  0
 11 16  1  0  0  0  0
 12 13  2  0  0  0  0
 12 14  1  0  0  0  0
 12 18  1  0  0  0  0
 14 15  2  0  0  0  0
 14 21  1  0  0  0  0
 16 23  2  0  0  0  0
 16 24  1  0  0  0  0
 18 19  2  0  0  0  0
 18 22  1  0  0  0  0
 19 20  1  0  0  0  0
 20 25  2  0  0  0  0
 20 27  1  0  0  0  0
 21 31  1  0  0  0  0
 22 26  2  0  0  0  0
 23 28  1  0  0  0  0
 24 29  2  0  0  0  0
 25 26  1  0  0  0  0
 28 30  2  0  0  0  0
 29 30  1  0  0  0  0
 31 33  1  0  0  0  0
M  END
> <PUBCHEM_COMPOUND_ID_TYPE>
0

> <PUBCHEM_TOTAL_CHARGE>
0

> <PUBCHEM_SUBSTANCE_ID>
310936155

> <PUBCHEM_SUBSTANCE_VERSION>
1

> <PUBCHEM_EXT_DATASOURCE_NAME>
4488

> <PUBCHEM_EXT_DATASOURCE_REGID>
SCHEMBL16113765

> <PUBCHEM_SUBSTANCE_COMMENT>
InChI=1S/C27H23F2NO4/c1-4-5-16-13-23-21(14-19(16)17-8-11-22(29)20(12-17)27(32)33-3)24(26(31)30-2)25(34-23)15-6-9-18(28)10-7-15/h6-14H,4-5H2,1-3H3,(H,30,31)
InChIKey=SZFFWPHJCKNTRK-UHFFFAOYSA-N

> <PUBCHEM_SUBSTANCE_SYNONYM>
SCHEMBL16113765

> <PUBCHEM_XREF_EXT_ID>
SCHEMBL16113765

> <PUBCHEM_EXT_DATASOURCE_URL>
https://www.surechembl.org/

> <PUBCHEM_EXT_SUBSTANCE_URL>
https://www.surechembl.org/chemical/SCHEMBL16113765

> <PUBCHEM_CID_ASSOCIATIONS>
117604117  1

> <PUBCHEM_COORDINATE_TYPE>
1
3

$$$$
