310944241
  -OEChem-07211613022D

 13 13  0     0  0  0  0  0  0999 V2000
   -0.3635    2.0492    0.0000 F   0  0  0  0  0  0  0  0  0  0  0  0
    1.8172    1.5852    0.0000 N   0  0  0  0  0  0  0  0  0  0  0  0
   -0.3789   -2.0492    0.0000 N   0  0  0  0  0  0  0  0  0  0  0  0
   -1.0903    0.8429    0.0000 C   0  0  0  0  0  0  0  0  0  0  0  0
   -0.3635    1.2450    0.0000 C   0  0  0  0  0  0  0  0  0  0  0  0
   -1.1058    0.0232    0.0000 C   0  0  0  0  0  0  0  0  0  0  0  0
    0.3635    0.8429    0.0000 C   0  0  0  0  0  0  0  0  0  0  0  0
   -0.3635   -0.3944    0.0000 C   0  0  0  0  0  0  0  0  0  0  0  0
    0.3481    0.0232    0.0000 C   0  0  0  0  0  0  0  0  0  0  0  0
    1.0903    1.2296    0.0000 C   0  0  0  0  0  0  0  0  0  0  0  0
   -0.3789   -1.2296    0.0000 C   0  0  0  0  0  0  0  0  0  0  0  0
   -1.8172    1.2296    0.0000 C   0  0  0  0  0  0  0  0  0  0  0  0
   -1.8172   -0.4099    0.0000 C   0  0  0  0  0  0  0  0  0  0  0  0
  1  5  1  0  0  0  0
  2 10  3  0  0  0  0
  3 11  3  0  0  0  0
  4  5  1  0  0  0  0
  4  6  2  0  0  0  0
  4 12  1  0  0  0  0
  5  7  2  0  0  0  0
  6  8  1  0  0  0  0
  6 13  1  0  0  0  0
  7  9  1  0  0  0  0
  7 10  1  0  0  0  0
  8  9  2  0  0  0  0
  8 11  1  0  0  0  0
M  END
> <PUBCHEM_COMPOUND_ID_TYPE>
0

> <PUBCHEM_TOTAL_CHARGE>
0

> <PUBCHEM_SUBSTANCE_ID>
310944241

> <PUBCHEM_SUBSTANCE_VERSION>
1

> <PUBCHEM_EXT_DATASOURCE_NAME>
4488

> <PUBCHEM_EXT_DATASOURCE_REGID>
SCHEMBL16122316

> <PUBCHEM_SUBSTANCE_COMMENT>
InChI=1S/C10H7FN2/c1-6-7(2)10(11)9(5-13)3-8(6)4-12/h3H,1-2H3
InChIKey=MAESMPKNEKIUBQ-UHFFFAOYSA-N

> <PUBCHEM_SUBSTANCE_SYNONYM>
SCHEMBL16122316

> <PUBCHEM_XREF_EXT_ID>
SCHEMBL16122316

> <PUBCHEM_EXT_DATASOURCE_URL>
https://www.surechembl.org/

> <PUBCHEM_EXT_SUBSTANCE_URL>
https://www.surechembl.org/chemical/SCHEMBL16122316

> <PUBCHEM_CID_ASSOCIATIONS>
117610512  1

> <PUBCHEM_COORDINATE_TYPE>
1
3

$$$$
