310939777
  -OEChem-07211613022D

 25 27  0     0  0  0  0  0  0999 V2000
   -1.7309    2.4750    0.0000 S   0  0  0  0  0  0  0  0  0  0  0  0
   -0.1426   -2.8875    0.0000 S   0  0  0  0  0  0  0  0  0  0  0  0
    1.8414    0.4125    0.0000 O   0  0  0  0  0  0  0  0  0  0  0  0
   -2.5559    2.4750    0.0000 O   0  0  0  0  0  0  0  0  0  0  0  0
   -0.9059    2.4750    0.0000 O   0  0  0  0  0  0  0  0  0  0  0  0
    0.3423   -2.2201    0.0000 N   0  0  0  0  0  0  0  0  0  0  0  0
    0.4125    0.4125    0.0000 N   0  0  0  0  0  0  0  0  0  0  0  0
    0.3423   -3.5549    0.0000 N   0  0  0  0  0  0  0  0  0  0  0  0
    1.8414   -1.2375    0.0000 N   0  0  0  0  0  0  0  0  0  0  0  0
   -1.7309    1.6500    0.0000 N   0  0  0  0  0  0  0  0  0  0  0  0
    1.1270   -2.4750    0.0000 C   0  0  0  0  0  0  0  0  0  0  0  0
    1.1270   -3.3000    0.0000 C   0  0  0  0  0  0  0  0  0  0  0  0
    1.8414   -2.0625    0.0000 C   0  0  0  0  0  0  0  0  0  0  0  0
   -1.0164    1.2375    0.0000 C   0  0  0  0  0  0  0  0  0  0  0  0
    1.8414   -3.7125    0.0000 C   0  0  0  0  0  0  0  0  0  0  0  0
    2.5559   -2.4750    0.0000 C   0  0  0  0  0  0  0  0  0  0  0  0
    1.1270    0.0000    0.0000 C   0  0  0  0  0  0  0  0  0  0  0  0
    2.5559   -3.3000    0.0000 C   0  0  0  0  0  0  0  0  0  0  0  0
    1.1270   -0.8250    0.0000 C   0  0  0  0  0  0  0  0  0  0  0  0
   -0.3020    0.0000    0.0000 C   0  0  0  0  0  0  0  0  0  0  0  0
    0.4125    1.2375    0.0000 C   0  0  0  0  0  0  0  0  0  0  0  0
   -1.0164    0.4125    0.0000 C   0  0  0  0  0  0  0  0  0  0  0  0
   -0.3020    1.6500    0.0000 C   0  0  0  0  0  0  0  0  0  0  0  0
   -1.7309    3.3000    0.0000 C   0  0  0  0  0  0  0  0  0  0  0  0
   -2.4454    3.7125    0.0000 C   0  0  0  0  0  0  0  0  0  0  0  0
  1  4  2  0  0  0  0
  1  5  2  0  0  0  0
  1 10  1  0  0  0  0
  1 24  1  0  0  0  0
  2  6  1  0  0  0  0
  2  8  1  0  0  0  0
  3 17  2  0  0  0  0
  6 11  2  0  0  0  0
  7 17  1  0  0  0  0
  7 20  1  0  0  0  0
  7 21  1  0  0  0  0
  8 12  2  0  0  0  0
  9 13  1  0  0  0  0
  9 19  1  0  0  0  0
 10 14  1  0  0  0  0
 11 12  1  0  0  0  0
 11 13  1  0  0  0  0
 12 15  1  0  0  0  0
 13 16  2  0  0  0  0
 14 22  1  0  0  0  0
 14 23  1  0  0  0  0
 15 18  2  0  0  0  0
 16 18  1  0  0  0  0
 17 19  1  0  0  0  0
 20 22  1  0  0  0  0
 21 23  1  0  0  0  0
 24 25  2  0  0  0  0
M  END
> <PUBCHEM_COMPOUND_ID_TYPE>
0

> <PUBCHEM_TOTAL_CHARGE>
0

> <PUBCHEM_SUBSTANCE_ID>
310939777

> <PUBCHEM_SUBSTANCE_VERSION>
1

> <PUBCHEM_EXT_DATASOURCE_NAME>
4488

> <PUBCHEM_EXT_DATASOURCE_REGID>
SCHEMBL16117707

> <PUBCHEM_SUBSTANCE_COMMENT>
InChI=1S/C15H19N5O3S2/c1-2-25(22,23)19-11-6-8-20(9-7-11)14(21)10-16-12-4-3-5-13-15(12)18-24-17-13/h2-5,11,16,19H,1,6-10H2
InChIKey=GPEABQDIYSWSFN-UHFFFAOYSA-N

> <PUBCHEM_SUBSTANCE_SYNONYM>
SCHEMBL16117707

> <PUBCHEM_XREF_EXT_ID>
SCHEMBL16117707

> <PUBCHEM_EXT_DATASOURCE_URL>
https://www.surechembl.org/

> <PUBCHEM_EXT_SUBSTANCE_URL>
https://www.surechembl.org/chemical/SCHEMBL16117707

> <PUBCHEM_CID_ASSOCIATIONS>
117606997  1

> <PUBCHEM_COORDINATE_TYPE>
1
3

$$$$
