310948306
  -OEChem-07211613022D

 11 11  0     0  0  0  0  0  0999 V2000
   -0.7035   -1.8275    0.0000 Br  0  0  0  0  0  0  0  0  0  0  0  0
    1.4151    0.2264    0.0000 O   0  0  0  0  0  0  0  0  0  0  0  0
   -0.7196    1.4717    0.0000 N   0  0  0  0  0  0  0  0  0  0  0  0
   -1.4151    1.8275    0.0000 N   0  0  0  0  0  0  0  0  0  0  0  0
    0.0081    0.2426    0.0000 C   0  0  0  0  0  0  0  0  0  0  0  0
   -0.7035    0.6631    0.0000 C   0  0  0  0  0  0  0  0  0  0  0  0
   -0.0081   -0.5823    0.0000 C   0  0  0  0  0  0  0  0  0  0  0  0
   -0.7035   -0.9864    0.0000 C   0  0  0  0  0  0  0  0  0  0  0  0
   -1.4151    0.2426    0.0000 C   0  0  0  0  0  0  0  0  0  0  0  0
   -1.3989   -0.5823    0.0000 C   0  0  0  0  0  0  0  0  0  0  0  0
    0.6874    0.6469    0.0000 C   0  0  0  0  0  0  0  0  0  0  0  0
  1  8  1  0  0  0  0
  2 11  1  0  0  0  0
  3  4  1  0  0  0  0
  3  6  1  0  0  0  0
  5  6  2  0  0  0  0
  5  7  1  0  0  0  0
  5 11  1  0  0  0  0
  6  9  1  0  0  0  0
  7  8  2  0  0  0  0
  8 10  1  0  0  0  0
  9 10  2  0  0  0  0
M  END
> <PUBCHEM_COMPOUND_ID_TYPE>
0

> <PUBCHEM_TOTAL_CHARGE>
0

> <PUBCHEM_SUBSTANCE_ID>
310948306

> <PUBCHEM_SUBSTANCE_VERSION>
1

> <PUBCHEM_EXT_DATASOURCE_NAME>
4488

> <PUBCHEM_EXT_DATASOURCE_REGID>
SCHEMBL16126484

> <PUBCHEM_SUBSTANCE_COMMENT>
InChI=1S/C7H9BrN2O/c8-6-1-2-7(10-9)5(3-6)4-11/h1-3,10-11H,4,9H2
InChIKey=AZOSTPANPIDIJX-UHFFFAOYSA-N

> <PUBCHEM_SUBSTANCE_SYNONYM>
SCHEMBL16126484

> <PUBCHEM_XREF_EXT_ID>
SCHEMBL16126484

> <PUBCHEM_EXT_DATASOURCE_URL>
https://www.surechembl.org/

> <PUBCHEM_EXT_SUBSTANCE_URL>
https://www.surechembl.org/chemical/SCHEMBL16126484

> <PUBCHEM_CID_ASSOCIATIONS>
90460953  1

> <PUBCHEM_COORDINATE_TYPE>
1
3

$$$$
