310943364
  -OEChem-07211613022D

 34 37  0     0  0  0  0  0  0999 V2000
    4.8387    1.5203    0.0000 F   0  0  0  0  0  0  0  0  0  0  0  0
    5.4235    1.2718    0.0000 F   0  0  0  0  0  0  0  0  0  0  0  0
   -2.6898   -1.8858    0.0000 O   0  0  0  0  0  0  0  0  0  0  0  0
    1.9735    1.5057    0.0000 O   0  0  0  0  0  0  0  0  0  0  0  0
   -5.5696    1.4765    0.0000 O   0  0  0  0  0  0  0  0  0  0  0  0
   -3.4061   -0.6432    0.0000 N   0  0  0  0  0  0  0  0  0  0  0  0
   -4.1371    0.6578    0.0000 N   0  0  0  0  0  0  0  0  0  0  0  0
   -0.4240    1.8858    0.0000 N   0  0  0  0  0  0  0  0  0  0  0  0
    1.0087    0.2339    0.0000 N   0  0  0  0  0  0  0  0  0  0  0  0
    4.1078   -0.5409    0.0000 N   0  0  0  0  0  0  0  0  0  0  0  0
   -1.9589    0.1754    0.0000 C   0  0  0  0  0  0  0  0  0  0  0  0
   -1.1403    0.6578    0.0000 C   0  0  0  0  0  0  0  0  0  0  0  0
   -3.4061    0.1754    0.0000 C   0  0  0  0  0  0  0  0  0  0  0  0
   -2.6898    0.5848    0.0000 C   0  0  0  0  0  0  0  0  0  0  0  0
   -2.6898   -1.0379    0.0000 C   0  0  0  0  0  0  0  0  0  0  0  0
   -1.9735   -0.6578    0.0000 C   0  0  0  0  0  0  0  0  0  0  0  0
   -1.1256    1.4765    0.0000 C   0  0  0  0  0  0  0  0  0  0  0  0
   -0.3947    0.2485    0.0000 C   0  0  0  0  0  0  0  0  0  0  0  0
    0.2923    0.6432    0.0000 C   0  0  0  0  0  0  0  0  0  0  0  0
    2.6898    0.2778    0.0000 C   0  0  0  0  0  0  0  0  0  0  0  0
    1.9589    0.6725    0.0000 C   0  0  0  0  0  0  0  0  0  0  0  0
    4.1224    0.2923    0.0000 C   0  0  0  0  0  0  0  0  0  0  0  0
    0.3070    1.4619    0.0000 C   0  0  0  0  0  0  0  0  0  0  0  0
    4.8387    0.7017    0.0000 C   0  0  0  0  0  0  0  0  0  0  0  0
    3.3769    0.6871    0.0000 C   0  0  0  0  0  0  0  0  0  0  0  0
   -4.1371    1.4765    0.0000 C   0  0  0  0  0  0  0  0  0  0  0  0
   -4.8533    0.2632    0.0000 C   0  0  0  0  0  0  0  0  0  0  0  0
   -4.1078   -1.0818    0.0000 C   0  0  0  0  0  0  0  0  0  0  0  0
    2.6898   -0.5409    0.0000 C   0  0  0  0  0  0  0  0  0  0  0  0
   -1.8565    1.8565    0.0000 C   0  0  0  0  0  0  0  0  0  0  0  0
    3.4208   -0.9502    0.0000 C   0  0  0  0  0  0  0  0  0  0  0  0
   -4.8680    1.8858    0.0000 C   0  0  0  0  0  0  0  0  0  0  0  0
   -5.5696    0.6578    0.0000 C   0  0  0  0  0  0  0  0  0  0  0  0
    5.5696    0.2923    0.0000 C   0  0  0  0  0  0  0  0  0  0  0  0
  1 24  1  0  0  0  0
  2 24  1  0  0  0  0
  3 15  2  0  0  0  0
  4 21  2  0  0  0  0
  5 32  1  0  0  0  0
  5 33  1  0  0  0  0
  6 13  1  0  0  0  0
  6 15  1  0  0  0  0
  6 28  1  0  0  0  0
  7 13  1  0  0  0  0
  7 26  1  0  0  0  0
  7 27  1  0  0  0  0
  8 17  2  0  0  0  0
  8 23  1  0  0  0  0
  9 19  1  0  0  0  0
  9 21  1  0  0  0  0
 10 22  1  0  0  0  0
 10 31  2  0  0  0  0
 11 12  1  0  0  0  0
 11 14  1  0  0  0  0
 11 16  2  0  0  0  0
 12 17  1  0  0  0  0
 12 18  2  0  0  0  0
 13 14  2  0  0  0  0
 15 16  1  0  0  0  0
 17 30  1  0  0  0  0
 18 19  1  0  0  0  0
 19 23  2  0  0  0  0
 20 21  1  0  0  0  0
 20 25  1  0  0  0  0
 20 29  2  0  0  0  0
 22 24  1  0  0  0  0
 22 25  2  0  0  0  0
 24 34  1  0  0  0  0
 26 32  1  0  0  0  0
 27 33  1  0  0  0  0
 29 31  1  0  0  0  0
M  END
> <PUBCHEM_COMPOUND_ID_TYPE>
0

> <PUBCHEM_TOTAL_CHARGE>
0

> <PUBCHEM_SUBSTANCE_ID>
310943364

> <PUBCHEM_SUBSTANCE_VERSION>
1

> <PUBCHEM_EXT_DATASOURCE_NAME>
4488

> <PUBCHEM_EXT_DATASOURCE_REGID>
SCHEMBL16121427

> <PUBCHEM_SUBSTANCE_COMMENT>
InChI=1S/C24H25F2N5O3/c1-15-19(17-11-21(30(3)22(32)12-17)31-6-8-34-9-7-31)13-18(14-28-15)29-23(33)16-4-5-27-20(10-16)24(2,25)26/h4-5,10-14H,6-9H2,1-3H3,(H,29,33)
InChIKey=BMCCEASWBGENQW-UHFFFAOYSA-N

> <PUBCHEM_SUBSTANCE_SYNONYM>
SCHEMBL16121427

> <PUBCHEM_XREF_EXT_ID>
SCHEMBL16121427

> <PUBCHEM_EXT_DATASOURCE_URL>
https://www.surechembl.org/

> <PUBCHEM_EXT_SUBSTANCE_URL>
https://www.surechembl.org/chemical/SCHEMBL16121427

> <PUBCHEM_CID_ASSOCIATIONS>
117609788  1

> <PUBCHEM_COORDINATE_TYPE>
1
3

$$$$
