310941550
  -OEChem-07211613022D

 28 31  0     0  0  0  0  0  0999 V2000
    0.3734    2.0143    0.0000 S   0  0  0  0  0  0  0  0  0  0  0  0
   -1.9882   -0.6946    0.0000 O   0  0  0  0  0  0  0  0  0  0  0  0
   -0.5297   -0.6946    0.0000 O   0  0  0  0  0  0  0  0  0  0  0  0
   -4.1415   -2.0143    0.0000 O   0  5  0  0  0  0  0  0  0  0  0  0
   -2.7176   -1.9449    0.0000 O   0  0  0  0  0  0  0  0  0  0  0  0
    3.3080    1.0245    0.0000 O   0  0  0  0  0  0  0  0  0  0  0  0
    0.2518    0.6599    0.0000 N   0  0  0  0  0  0  0  0  0  0  0  0
   -3.4469   -1.5454    0.0000 N   0  3  0  0  0  0  0  0  0  0  0  0
    1.6410    1.1982    0.0000 N   0  0  0  0  0  0  0  0  0  0  0  0
   -1.2589    0.5904    0.0000 C   0  0  0  0  0  0  0  0  0  0  0  0
   -2.7349   -0.2431    0.0000 C   0  0  0  0  0  0  0  0  0  0  0  0
   -2.7176    0.5904    0.0000 C   0  0  0  0  0  0  0  0  0  0  0  0
   -0.5297    1.0245    0.0000 C   0  0  0  0  0  0  0  0  0  0  0  0
   -1.2937   -0.2257    0.0000 C   0  0  0  0  0  0  0  0  0  0  0  0
   -2.0057    1.0071    0.0000 C   0  0  0  0  0  0  0  0  0  0  0  0
   -3.4469   -0.6599    0.0000 C   0  0  0  0  0  0  0  0  0  0  0  0
    0.8248    1.3024    0.0000 C   0  0  0  0  0  0  0  0  0  0  0  0
   -0.4428    1.8407    0.0000 C   0  0  0  0  0  0  0  0  0  0  0  0
   -3.4296    0.9898    0.0000 C   0  0  0  0  0  0  0  0  0  0  0  0
   -4.1415   -0.2605    0.0000 C   0  0  0  0  0  0  0  0  0  0  0  0
   -4.1415    0.5904    0.0000 C   0  0  0  0  0  0  0  0  0  0  0  0
    1.9709    0.4515    0.0000 C   0  0  0  0  0  0  0  0  0  0  0  0
    2.7870    0.3473    0.0000 C   0  0  0  0  0  0  0  0  0  0  0  0
    1.5021   -0.2605    0.0000 C   0  0  0  0  0  0  0  0  0  0  0  0
    3.1343   -0.4168    0.0000 C   0  0  0  0  0  0  0  0  0  0  0  0
    1.8320   -1.0071    0.0000 C   0  0  0  0  0  0  0  0  0  0  0  0
    2.6481   -1.1113    0.0000 C   0  0  0  0  0  0  0  0  0  0  0  0
    4.1415    0.9203    0.0000 C   0  0  0  0  0  0  0  0  0  0  0  0
  1 17  1  0  0  0  0
  1 18  1  0  0  0  0
  2 11  1  0  0  0  0
  2 14  1  0  0  0  0
  3 14  2  0  0  0  0
  4  8  1  0  0  0  0
  5  8  2  0  0  0  0
  6 23  1  0  0  0  0
  6 28  1  0  0  0  0
  7 13  1  0  0  0  0
  7 17  2  0  0  0  0
  8 16  1  0  0  0  0
  9 17  1  0  0  0  0
  9 22  1  0  0  0  0
 10 13  1  0  0  0  0
 10 14  1  0  0  0  0
 10 15  2  0  0  0  0
 11 12  1  0  0  0  0
 11 16  2  0  0  0  0
 12 15  1  0  0  0  0
 12 19  2  0  0  0  0
 13 18  2  0  0  0  0
 16 20  1  0  0  0  0
 19 21  1  0  0  0  0
 20 21  2  0  0  0  0
 22 23  1  0  0  0  0
 22 24  2  0  0  0  0
 23 25  2  0  0  0  0
 24 26  1  0  0  0  0
 25 27  1  0  0  0  0
 26 27  2  0  0  0  0
M  CHG  2   4  -1   8   1
M  END
> <PUBCHEM_COMPOUND_ID_TYPE>
0

> <PUBCHEM_TOTAL_CHARGE>
0

> <PUBCHEM_SUBSTANCE_ID>
310941550

> <PUBCHEM_SUBSTANCE_VERSION>
1

> <PUBCHEM_EXT_DATASOURCE_NAME>
4488

> <PUBCHEM_EXT_DATASOURCE_REGID>
SCHEMBL16119581

> <PUBCHEM_SUBSTANCE_COMMENT>
InChI=1S/C19H13N3O5S/c1-26-16-8-3-2-6-13(16)20-19-21-14(10-28-19)12-9-11-5-4-7-15(22(24)25)17(11)27-18(12)23/h2-10H,1H3,(H,20,21)
InChIKey=PPYRRZRMDLJOKD-UHFFFAOYSA-N

> <PUBCHEM_SUBSTANCE_SYNONYM>
SCHEMBL16119581

> <PUBCHEM_XREF_EXT_ID>
SCHEMBL16119581

> <PUBCHEM_EXT_DATASOURCE_URL>
https://www.surechembl.org/

> <PUBCHEM_EXT_SUBSTANCE_URL>
https://www.surechembl.org/chemical/SCHEMBL16119581

> <PUBCHEM_CID_ASSOCIATIONS>
117608356  1

> <PUBCHEM_COORDINATE_TYPE>
1
3

$$$$
