310948520
  -OEChem-07211613022D

 39 44  0     1  0  0  0  0  0999 V2000
   -1.1595    2.6454    0.0000 O   0  0  0  0  0  0  0  0  0  0  0  0
    0.8957   -3.6174    0.0000 O   0  0  0  0  0  0  0  0  0  0  0  0
    2.1455   -2.8952    0.0000 O   0  0  0  0  0  0  0  0  0  0  0  0
    1.6038    2.5204    0.0000 N   0  0  0  0  0  0  0  0  0  0  0  0
    1.2706    1.7566    0.0000 N   0  0  0  0  0  0  0  0  0  0  0  0
   -0.1180    1.2289    0.0000 N   0  0  0  0  0  0  0  0  0  0  0  0
   -0.4512    3.8951    0.0000 N   0  0  0  0  0  0  0  0  0  0  0  0
    2.4510    0.5068    0.0000 N   0  0  0  0  0  0  0  0  0  0  0  0
    0.2708    2.6593    0.0000 C   0  0  0  0  0  0  0  0  0  0  0  0
    0.9651    3.0758    0.0000 C   0  0  0  0  0  0  0  0  0  0  0  0
    0.4374    1.8677    0.0000 C   0  0  0  0  0  0  0  0  0  0  0  0
   -0.4652    3.0758    0.0000 C   0  0  0  0  0  0  0  0  0  0  0  0
    2.4093    2.6870    0.0000 C   0  0  3  0  0  0  0  0  0  0  0  0
    0.9929    3.9090    0.0000 C   0  0  0  0  0  0  0  0  0  0  0  0
   -0.1041    0.3957    0.0000 C   0  0  0  0  0  0  0  0  0  0  0  0
    2.9925    2.0761    0.0000 C   0  0  3  0  0  0  0  0  0  0  0  0
    0.2708    4.3256    0.0000 C   0  0  0  0  0  0  0  0  0  0  0  0
    0.6040   -0.8402    0.0000 C   0  0  0  0  0  0  0  0  0  0  0  0
    2.6870    3.4785    0.0000 C   0  0  0  0  0  0  0  0  0  0  0  0
   -0.1041   -1.2567    0.0000 C   0  0  0  0  0  0  0  0  0  0  0  0
    0.6040   -0.0208    0.0000 C   0  0  0  0  0  0  0  0  0  0  0  0
   -0.8263   -0.0208    0.0000 C   0  0  0  0  0  0  0  0  0  0  0  0
    0.8818   -2.1732    0.0000 C   0  0  3  0  0  0  0  0  0  0  0  0
    1.2151   -1.4095    0.0000 C   0  0  0  0  0  0  0  0  0  0  0  0
   -0.8263   -0.8541    0.0000 C   0  0  0  0  0  0  0  0  0  0  0  0
    0.0625   -2.0761    0.0000 C   0  0  0  0  0  0  0  0  0  0  0  0
    3.7840    2.2565    0.0000 C   0  0  0  0  0  0  0  0  0  0  0  0
    2.7148    1.2845    0.0000 C   0  0  0  0  0  0  0  0  0  0  0  0
    3.4924    3.6452    0.0000 C   0  0  0  0  0  0  0  0  0  0  0  0
   -1.9094    3.0619    0.0000 C   0  0  0  0  0  0  0  0  0  0  0  0
    4.0340    3.0341    0.0000 C   0  0  0  0  0  0  0  0  0  0  0  0
    1.2845   -2.8814    0.0000 C   0  0  0  0  0  0  0  0  0  0  0  0
   -2.6037    2.6593    0.0000 C   0  0  0  0  0  0  0  0  0  0  0  0
   -3.3397    3.0480    0.0000 C   0  0  0  0  0  0  0  0  0  0  0  0
   -2.6176    1.8260    0.0000 C   0  0  0  0  0  0  0  0  0  0  0  0
   -4.0340    2.6454    0.0000 C   0  0  0  0  0  0  0  0  0  0  0  0
   -3.3258    1.4095    0.0000 C   0  0  0  0  0  0  0  0  0  0  0  0
    1.2984   -4.3256    0.0000 C   0  0  0  0  0  0  0  0  0  0  0  0
   -4.0340    1.8260    0.0000 C   0  0  0  0  0  0  0  0  0  0  0  0
  1 12  1  0  0  0  0
  1 30  1  0  0  0  0
  2 32  1  0  0  0  0
  2 38  1  0  0  0  0
  3 32  2  0  0  0  0
  4  5  1  0  0  0  0
  4 10  1  0  0  0  0
 13  4  1  1  0  0  0
  5 11  2  0  0  0  0
  6 11  1  0  0  0  0
  6 15  1  0  0  0  0
  7 12  2  0  0  0  0
  7 17  1  0  0  0  0
  8 28  3  0  0  0  0
  9 10  2  0  0  0  0
  9 11  1  0  0  0  0
  9 12  1  0  0  0  0
 10 14  1  0  0  0  0
 13 16  1  0  0  0  0
 13 19  1  0  0  0  0
 14 17  2  0  0  0  0
 15 21  1  0  0  0  0
 15 22  2  0  0  0  0
 16 27  1  0  0  0  0
 16 28  1  6  0  0  0
 18 20  1  0  0  0  0
 18 21  2  0  0  0  0
 18 24  1  0  0  0  0
 19 29  1  0  0  0  0
 20 25  2  0  0  0  0
 20 26  1  0  0  0  0
 22 25  1  0  0  0  0
 23 24  1  0  0  0  0
 23 26  1  0  0  0  0
 23 32  1  0  0  0  0
 27 31  1  0  0  0  0
 29 31  1  0  0  0  0
 30 33  1  0  0  0  0
 33 34  2  0  0  0  0
 33 35  1  0  0  0  0
 34 36  1  0  0  0  0
 35 37  2  0  0  0  0
 36 39  2  0  0  0  0
 37 39  1  0  0  0  0
M  END
> <PUBCHEM_COMPOUND_ID_TYPE>
0

> <PUBCHEM_TOTAL_CHARGE>
0

> <PUBCHEM_SUBSTANCE_ID>
310948520

> <PUBCHEM_SUBSTANCE_VERSION>
1

> <PUBCHEM_EXT_DATASOURCE_NAME>
4488

> <PUBCHEM_EXT_DATASOURCE_REGID>
SCHEMBL16126702

> <PUBCHEM_SUBSTANCE_COMMENT>
InChI=1S/C31H31N5O3/c1-38-31(37)24-15-21-11-12-25(17-23(21)16-24)34-29-28-27(36(35-29)26-10-6-5-9-22(26)18-32)13-14-33-30(28)39-19-20-7-3-2-4-8-20/h2-4,7-8,11-14,17,22,24,26H,5-6,9-10,15-16,19H2,1H3,(H,34,35)/t22-,24?,26+/m1/s1
InChIKey=PMMKAVKXWJJNPR-OVQDZVAUSA-N

> <PUBCHEM_SUBSTANCE_SYNONYM>
SCHEMBL16126702

> <PUBCHEM_XREF_EXT_ID>
SCHEMBL16126702

> <PUBCHEM_EXT_DATASOURCE_URL>
https://www.surechembl.org/

> <PUBCHEM_EXT_SUBSTANCE_URL>
https://www.surechembl.org/chemical/SCHEMBL16126702

> <PUBCHEM_CID_ASSOCIATIONS>
117614077  1

> <PUBCHEM_COORDINATE_TYPE>
1
3

> <PUBCHEM_BONDANNOTATIONS>
16  28  6
13  4  5

$$$$
