310942226
  -OEChem-07211613022D

 26 27  0     1  0  0  0  0  0999 V2000
    1.1375    0.8188    0.0000 Cl  0  0  0  0  0  0  0  0  0  0  0  0
   -0.3000   -1.6687    0.0000 F   0  0  0  0  0  0  0  0  0  0  0  0
    1.1250   -0.8437    0.0000 O   0  0  0  0  0  0  0  0  0  0  0  0
   -1.0374    2.0687    0.0000 O   0  0  0  0  0  0  0  0  0  0  0  0
   -2.4625   -0.4187    0.0000 N   0  0  0  0  0  0  0  0  0  0  0  0
   -2.4749    2.0812    0.0000 N   0  0  0  0  0  0  0  0  0  0  0  0
   -3.2999    2.0687    0.0000 N   0  0  0  0  0  0  0  0  0  0  0  0
   -1.0374   -0.4187    0.0000 C   0  0  0  0  0  0  0  0  0  0  0  0
   -0.3000   -0.8312    0.0000 C   0  0  0  0  0  0  0  0  0  0  0  0
    0.4125   -0.4187    0.0000 C   0  0  0  0  0  0  0  0  0  0  0  0
    0.4125    0.4187    0.0000 C   0  0  0  0  0  0  0  0  0  0  0  0
   -1.7374   -0.8312    0.0000 C   0  0  3  0  0  0  0  0  0  0  0  0
   -1.0125    0.4063    0.0000 C   0  0  0  0  0  0  0  0  0  0  0  0
   -0.3000    0.8188    0.0000 C   0  0  0  0  0  0  0  0  0  0  0  0
    1.8500   -0.4187    0.0000 C   0  0  0  0  0  0  0  0  0  0  0  0
   -1.7500   -1.6813    0.0000 C   0  0  0  0  0  0  0  0  0  0  0  0
   -2.4625    0.4063    0.0000 C   0  0  3  0  0  0  0  0  0  0  0  0
    1.8750    0.4063    0.0000 C   0  0  0  0  0  0  0  0  0  0  0  0
    2.5875   -0.8312    0.0000 C   0  0  0  0  0  0  0  0  0  0  0  0
   -1.7500    0.8188    0.0000 C   0  0  0  0  0  0  0  0  0  0  0  0
    2.5875    0.8188    0.0000 C   0  0  0  0  0  0  0  0  0  0  0  0
    3.2999   -0.4187    0.0000 C   0  0  0  0  0  0  0  0  0  0  0  0
   -2.4500   -2.0812    0.0000 C   0  0  0  0  0  0  0  0  0  0  0  0
   -1.7625    1.6562    0.0000 C   0  0  0  0  0  0  0  0  0  0  0  0
    3.2999    0.4063    0.0000 C   0  0  0  0  0  0  0  0  0  0  0  0
   -3.1749    0.8188    0.0000 C   0  0  0  0  0  0  0  0  0  0  0  0
  1 11  1  0  0  0  0
  2  9  1  0  0  0  0
  3 10  1  0  0  0  0
  3 15  1  0  0  0  0
  4 24  2  0  0  0  0
 12  5  1  1  0  0  0
  5 17  1  0  0  0  0
  6  7  1  0  0  0  0
  6 24  1  0  0  0  0
  8  9  1  0  0  0  0
  8 12  1  0  0  0  0
  8 13  2  0  0  0  0
  9 10  2  0  0  0  0
 10 11  1  0  0  0  0
 11 14  2  0  0  0  0
 12 16  1  0  0  0  0
 13 14  1  0  0  0  0
 15 18  2  0  0  0  0
 15 19  1  0  0  0  0
 16 23  1  0  0  0  0
 17 20  1  0  0  0  0
 17 26  1  6  0  0  0
 18 21  1  0  0  0  0
 19 22  2  0  0  0  0
 20 24  1  0  0  0  0
 21 25  2  0  0  0  0
 22 25  1  0  0  0  0
M  END
> <PUBCHEM_COMPOUND_ID_TYPE>
0

> <PUBCHEM_TOTAL_CHARGE>
0

> <PUBCHEM_SUBSTANCE_ID>
310942226

> <PUBCHEM_SUBSTANCE_VERSION>
1

> <PUBCHEM_EXT_DATASOURCE_NAME>
4488

> <PUBCHEM_EXT_DATASOURCE_REGID>
SCHEMBL16120261

> <PUBCHEM_SUBSTANCE_COMMENT>
InChI=1S/C19H23ClFN3O2/c1-3-16(23-12(2)11-17(25)24-22)14-9-10-15(20)19(18(14)21)26-13-7-5-4-6-8-13/h4-10,12,16,23H,3,11,22H2,1-2H3,(H,24,25)/t12-,16-/m1/s1
InChIKey=LWJJPQFIPFWSFD-MLGOLLRUSA-N

> <PUBCHEM_SUBSTANCE_SYNONYM>
SCHEMBL16120261

> <PUBCHEM_XREF_EXT_ID>
SCHEMBL16120261

> <PUBCHEM_EXT_DATASOURCE_URL>
https://www.surechembl.org/

> <PUBCHEM_EXT_SUBSTANCE_URL>
https://www.surechembl.org/chemical/SCHEMBL16120261

> <PUBCHEM_CID_ASSOCIATIONS>
117608877  1

> <PUBCHEM_COORDINATE_TYPE>
1
3

> <PUBCHEM_BONDANNOTATIONS>
17  26  6
12  5  5

$$$$
