310944172
  -OEChem-07211613022D

 33 37  0     1  0  0  0  0  0999 V2000
    2.5204    1.0456    0.0000 O   0  0  0  0  0  0  0  0  0  0  0  0
    5.4479    0.4952    0.0000 O   0  0  0  0  0  0  0  0  0  0  0  0
    5.4148    1.9699    0.0000 O   0  0  0  0  0  0  0  0  0  0  0  0
   -0.5612   -1.4307    0.0000 O   0  0  0  0  0  0  0  0  0  0  0  0
    3.4117   -0.1320    0.0000 N   0  0  0  0  0  0  0  0  0  0  0  0
    0.4622   -0.1320    0.0000 N   0  0  0  0  0  0  0  0  0  0  0  0
   -4.1272   -0.1981    0.0000 N   0  0  0  0  0  0  0  0  0  0  0  0
   -4.5123    0.5392    0.0000 N   0  0  0  0  0  0  0  0  0  0  0  0
   -5.3268    0.3962    0.0000 N   0  0  0  0  0  0  0  0  0  0  0  0
   -5.4479   -0.4182    0.0000 N   0  0  0  0  0  0  0  0  0  0  0  0
    2.0910   -0.3521    0.0000 C   0  0  0  0  0  0  0  0  0  0  0  0
    2.6634    0.2201    0.0000 C   0  0  0  0  0  0  0  0  0  0  0  0
    4.1382    0.2751    0.0000 C   0  0  0  0  0  0  0  0  0  0  0  0
    2.4983   -1.0896    0.0000 C   0  0  0  0  0  0  0  0  0  0  0  0
    3.2906   -0.9466    0.0000 C   0  0  0  0  0  0  0  0  0  0  0  0
    1.5848   -1.0126    0.0000 C   0  0  0  0  0  0  0  0  0  0  0  0
    1.7939    0.4072    0.0000 C   0  0  0  0  0  0  0  0  0  0  0  0
    4.2592    1.0896    0.0000 C   0  0  0  0  0  0  0  0  0  0  0  0
    4.8754   -0.0990    0.0000 C   0  0  0  0  0  0  0  0  0  0  0  0
    5.0515    1.1997    0.0000 C   0  0  0  0  0  0  0  0  0  0  0  0
    0.7704   -0.8915    0.0000 C   0  0  0  0  0  0  0  0  0  0  0  0
    0.9796    0.5282    0.0000 C   0  0  0  0  0  0  0  0  0  0  0  0
   -0.3521   -0.0110    0.0000 C   0  0  0  0  0  0  0  0  0  0  0  0
   -1.6838   -0.5282    0.0000 C   0  0  0  0  0  0  0  0  0  0  0  0
   -0.8695   -0.6603    0.0000 C   0  0  3  0  0  0  0  0  0  0  0  0
   -2.1901   -1.1997    0.0000 C   0  0  0  0  0  0  0  0  0  0  0  0
    3.6538    1.6618    0.0000 C   0  0  0  0  0  0  0  0  0  0  0  0
   -3.3127   -0.2971    0.0000 C   0  0  0  0  0  0  0  0  0  0  0  0
   -3.0045   -1.0676    0.0000 C   0  0  0  0  0  0  0  0  0  0  0  0
   -1.9920    0.2201    0.0000 C   0  0  0  0  0  0  0  0  0  0  0  0
   -2.7955    0.3411    0.0000 C   0  0  0  0  0  0  0  0  0  0  0  0
   -4.6994   -0.7815    0.0000 C   0  0  0  0  0  0  0  0  0  0  0  0
   -1.8709   -1.9699    0.0000 C   0  0  0  0  0  0  0  0  0  0  0  0
  1 12  2  0  0  0  0
  2 19  1  0  0  0  0
  2 20  1  0  0  0  0
  3 20  2  0  0  0  0
 25  4  1  1  0  0  0
  5 12  1  0  0  0  0
  5 13  1  0  0  0  0
  5 15  1  0  0  0  0
  6 21  1  0  0  0  0
  6 22  1  0  0  0  0
  6 23  1  0  0  0  0
  7  8  1  0  0  0  0
  7 28  1  0  0  0  0
  7 32  1  0  0  0  0
  8  9  2  0  0  0  0
  9 10  1  0  0  0  0
 10 32  2  0  0  0  0
 11 12  1  0  0  0  0
 11 14  1  0  0  0  0
 11 16  1  0  0  0  0
 11 17  1  0  0  0  0
 13 18  2  0  0  0  0
 13 19  1  0  0  0  0
 14 15  1  0  0  0  0
 16 21  1  0  0  0  0
 17 22  1  0  0  0  0
 18 20  1  0  0  0  0
 18 27  1  0  0  0  0
 23 25  1  0  0  0  0
 24 25  1  0  0  0  0
 24 26  2  0  0  0  0
 24 30  1  0  0  0  0
 26 29  1  0  0  0  0
 26 33  1  0  0  0  0
 28 29  2  0  0  0  0
 28 31  1  0  0  0  0
 30 31  2  0  0  0  0
M  END
> <PUBCHEM_COMPOUND_ID_TYPE>
0

> <PUBCHEM_TOTAL_CHARGE>
0

> <PUBCHEM_SUBSTANCE_ID>
310944172

> <PUBCHEM_SUBSTANCE_VERSION>
1

> <PUBCHEM_EXT_DATASOURCE_NAME>
4488

> <PUBCHEM_EXT_DATASOURCE_REGID>
SCHEMBL16122247

> <PUBCHEM_SUBSTANCE_COMMENT>
InChI=1S/C23H28N6O4/c1-15-11-17(29-14-24-25-26-29)3-4-18(15)20(30)12-27-8-5-23(6-9-27)7-10-28(22(23)32)19-13-33-21(31)16(19)2/h3-4,11,14,20,30H,5-10,12-13H2,1-2H3/t20-/m1/s1
InChIKey=QKXGUMHGPOZSJJ-HXUWFJFHSA-N

> <PUBCHEM_SUBSTANCE_SYNONYM>
SCHEMBL16122247

> <PUBCHEM_XREF_EXT_ID>
SCHEMBL16122247

> <PUBCHEM_EXT_DATASOURCE_URL>
https://www.surechembl.org/

> <PUBCHEM_EXT_SUBSTANCE_URL>
https://www.surechembl.org/chemical/SCHEMBL16122247

> <PUBCHEM_CID_ASSOCIATIONS>
86271460  1

> <PUBCHEM_COORDINATE_TYPE>
1
3

> <PUBCHEM_BONDANNOTATIONS>
25  4  5

$$$$
