310944194
  -OEChem-07211613022D

 26 28  0     0  0  0  0  0  0999 V2000
   -2.7897   -1.4498    0.0000 Cl  0  0  0  0  0  0  0  0  0  0  0  0
   -1.8827    1.4498    0.0000 Cl  0  0  0  0  0  0  0  0  0  0  0  0
    0.2611   -1.4498    0.0000 O   0  0  0  0  0  0  0  0  0  0  0  0
    1.7040    1.0376    0.0000 O   0  0  0  0  0  0  0  0  0  0  0  0
    0.2748    0.2130    0.0000 N   0  0  0  0  0  0  0  0  0  0  0  0
    2.4461   -0.1993    0.0000 N   0  0  0  0  0  0  0  0  0  0  0  0
    4.0265   -1.0376    0.0000 N   0  0  0  0  0  0  0  0  0  0  0  0
   -1.8827   -0.1993    0.0000 C   0  0  0  0  0  0  0  0  0  0  0  0
   -2.6111    0.2268    0.0000 C   0  0  0  0  0  0  0  0  0  0  0  0
   -0.4398   -0.1993    0.0000 C   0  0  0  0  0  0  0  0  0  0  0  0
   -1.8827   -1.0238    0.0000 C   0  0  0  0  0  0  0  0  0  0  0  0
   -0.4535   -1.0238    0.0000 C   0  0  0  0  0  0  0  0  0  0  0  0
   -1.1681    0.1993    0.0000 C   0  0  0  0  0  0  0  0  0  0  0  0
   -1.1681   -1.4361    0.0000 C   0  0  0  0  0  0  0  0  0  0  0  0
   -2.5973    1.0513    0.0000 C   0  0  0  0  0  0  0  0  0  0  0  0
   -3.3119   -0.1993    0.0000 C   0  0  0  0  0  0  0  0  0  0  0  0
    1.7040    0.1993    0.0000 C   0  0  0  0  0  0  0  0  0  0  0  0
    1.0032   -0.1993    0.0000 C   0  0  0  0  0  0  0  0  0  0  0  0
   -3.2982    1.4498    0.0000 C   0  0  0  0  0  0  0  0  0  0  0  0
   -4.0265    0.2130    0.0000 C   0  0  0  0  0  0  0  0  0  0  0  0
   -4.0265    1.0376    0.0000 C   0  0  0  0  0  0  0  0  0  0  0  0
    3.1607    0.2130    0.0000 C   0  0  0  0  0  0  0  0  0  0  0  0
    2.4324   -1.0238    0.0000 C   0  0  0  0  0  0  0  0  0  0  0  0
    1.0032   -1.0376    0.0000 C   0  0  0  0  0  0  0  0  0  0  0  0
    3.8753   -0.1993    0.0000 C   0  0  0  0  0  0  0  0  0  0  0  0
    3.1607   -1.4498    0.0000 C   0  0  0  0  0  0  0  0  0  0  0  0
  1 11  1  0  0  0  0
  2 15  1  0  0  0  0
  3 12  1  0  0  0  0
  3 24  1  0  0  0  0
  4 17  2  0  0  0  0
  5 10  1  0  0  0  0
  5 18  1  0  0  0  0
  6 17  1  0  0  0  0
  6 22  1  0  0  0  0
  6 23  1  0  0  0  0
  7 25  1  0  0  0  0
  7 26  1  0  0  0  0
  8  9  1  0  0  0  0
  8 11  2  0  0  0  0
  8 13  1  0  0  0  0
  9 15  2  0  0  0  0
  9 16  1  0  0  0  0
 10 12  1  0  0  0  0
 10 13  2  0  0  0  0
 11 14  1  0  0  0  0
 12 14  2  0  0  0  0
 15 19  1  0  0  0  0
 16 20  2  0  0  0  0
 17 18  1  0  0  0  0
 19 21  2  0  0  0  0
 20 21  1  0  0  0  0
 22 25  1  0  0  0  0
 23 26  1  0  0  0  0
M  END
> <PUBCHEM_COMPOUND_ID_TYPE>
0

> <PUBCHEM_TOTAL_CHARGE>
0

> <PUBCHEM_SUBSTANCE_ID>
310944194

> <PUBCHEM_SUBSTANCE_VERSION>
1

> <PUBCHEM_EXT_DATASOURCE_NAME>
4488

> <PUBCHEM_EXT_DATASOURCE_REGID>
SCHEMBL16122269

> <PUBCHEM_SUBSTANCE_COMMENT>
InChI=1S/C19H21Cl2N3O2/c1-26-18-11-16(21)14(13-4-2-3-5-15(13)20)10-17(18)23-12-19(25)24-8-6-22-7-9-24/h2-5,10-11,22-23H,6-9,12H2,1H3
InChIKey=HCMIFVXIZHELOP-UHFFFAOYSA-N

> <PUBCHEM_SUBSTANCE_SYNONYM>
SCHEMBL16122269

> <PUBCHEM_XREF_EXT_ID>
SCHEMBL16122269

> <PUBCHEM_EXT_DATASOURCE_URL>
https://www.surechembl.org/

> <PUBCHEM_EXT_SUBSTANCE_URL>
https://www.surechembl.org/chemical/SCHEMBL16122269

> <PUBCHEM_CID_ASSOCIATIONS>
117610465  1

> <PUBCHEM_COORDINATE_TYPE>
1
3

$$$$
