310939522
  -OEChem-07211613022D

 46 49  0     1  0  0  0  0  0999 V2000
    4.1060  -14.4657    0.0000 S   0  0  0  0  0  0  0  0  0  0  0  0
   -2.5453  -11.1953    0.0000 O   0  0  0  0  0  0  0  0  0  0  0  0
   -6.7832  -12.9323    0.0000 O   0  0  0  0  0  0  0  0  0  0  0  0
   -1.4183  -11.4973    0.0000 O   0  0  0  0  0  0  0  0  0  0  0  0
   -0.8953  -12.6243    0.0000 O   0  0  0  0  0  0  0  0  0  0  0  0
   -2.0137   -8.9884    0.0000 O   0  0  0  0  0  0  0  0  0  0  0  0
   -6.7832  -14.5823    0.0000 O   0  0  0  0  0  0  0  0  0  0  0  0
   -8.2121  -14.5823    0.0000 O   0  0  0  0  0  0  0  0  0  0  0  0
   -0.8953  -14.0532    0.0000 N   0  0  0  0  0  0  0  0  0  0  0  0
   -4.6398  -10.7828    0.0000 C   0  0  3  0  0  0  0  0  0  0  0  0
   -4.6398  -11.6078    0.0000 C   0  0  3  0  0  0  0  0  0  0  0  0
   -3.8552  -10.5279    0.0000 C   0  0  3  0  0  0  0  0  0  0  0  0
   -3.3703  -11.1953    0.0000 C   0  0  3  0  0  0  0  0  0  0  0  0
   -6.0687  -11.6078    0.0000 C   0  0  0  0  0  0  0  0  0  0  0  0
   -6.0687  -10.7828    0.0000 C   0  0  0  0  0  0  0  0  0  0  0  0
   -3.8552  -11.8628    0.0000 C   0  0  0  0  0  0  0  0  0  0  0  0
   -5.3543  -10.3703    0.0000 C   0  0  0  0  0  0  0  0  0  0  0  0
   -5.3543  -12.0203    0.0000 C   0  0  0  0  0  0  0  0  0  0  0  0
   -6.7832  -12.0203    0.0000 C   0  0  0  0  0  0  0  0  0  0  0  0
   -3.4427   -9.8134    0.0000 C   0  0  0  0  0  0  0  0  0  0  0  0
   -6.7832  -10.3703    0.0000 C   0  0  0  0  0  0  0  0  0  0  0  0
   -2.1328  -11.9098    0.0000 C   0  0  0  0  0  0  0  0  0  0  0  0
   -7.4977  -11.6078    0.0000 C   0  0  0  0  0  0  0  0  0  0  0  0
   -2.5453  -12.6243    0.0000 C   0  0  3  0  0  0  0  0  0  0  0  0
   -7.4977  -10.7828    0.0000 C   0  0  0  0  0  0  0  0  0  0  0  0
   -2.1328  -13.3388    0.0000 C   0  0  3  0  0  0  0  0  0  0  0  0
   -2.7282  -10.2259    0.0000 C   0  0  0  0  0  0  0  0  0  0  0  0
   -3.3703  -12.6243    0.0000 C   0  0  0  0  0  0  0  0  0  0  0  0
   -1.3078  -13.3388    0.0000 C   0  0  0  0  0  0  0  0  0  0  0  0
   -2.5453  -14.0532    0.0000 C   0  0  0  0  0  0  0  0  0  0  0  0
   -2.0137   -9.8134    0.0000 C   0  0  3  0  0  0  0  0  0  0  0  0
   -7.4977  -13.3448    0.0000 C   0  0  0  0  0  0  0  0  0  0  0  0
   -3.7828  -13.3388    0.0000 C   0  0  0  0  0  0  0  0  0  0  0  0
   -3.3703  -14.0532    0.0000 C   0  0  0  0  0  0  0  0  0  0  0  0
   -7.4977  -14.1698    0.0000 C   0  0  0  0  0  0  0  0  0  0  0  0
   -1.2993  -10.2259    0.0000 C   0  0  0  0  0  0  0  0  0  0  0  0
   -0.1808  -14.4657    0.0000 C   0  0  0  0  0  0  0  0  0  0  0  0
   -0.5848   -9.8134    0.0000 C   0  0  0  0  0  0  0  0  0  0  0  0
    0.5337  -14.0532    0.0000 C   0  0  0  0  0  0  0  0  0  0  0  0
    0.1297  -10.2259    0.0000 C   0  0  0  0  0  0  0  0  0  0  0  0
    1.2482  -14.4657    0.0000 C   0  0  0  0  0  0  0  0  0  0  0  0
    0.8441   -9.8134    0.0000 C   0  0  0  0  0  0  0  0  0  0  0  0
    1.9626  -14.0532    0.0000 C   0  0  0  0  0  0  0  0  0  0  0  0
    1.5586  -10.2259    0.0000 C   0  0  0  0  0  0  0  0  0  0  0  0
    2.6771  -14.4657    0.0000 C   0  0  0  0  0  0  0  0  0  0  0  0
    3.3916  -14.0532    0.0000 C   0  0  0  0  0  0  0  0  0  0  0  0
  1 46  1  0  0  0  0
 13  2  1  6  0  0  0
  2 22  1  0  0  0  0
  3 19  1  0  0  0  0
  3 32  1  0  0  0  0
  4 22  2  0  0  0  0
  5 29  2  0  0  0  0
 31  6  1  1  0  0  0
  7 35  2  0  0  0  0
  8 35  1  0  0  0  0
  9 29  1  0  0  0  0
  9 37  1  0  0  0  0
 10 11  1  0  0  0  0
 10 12  1  0  0  0  0
 10 17  1  6  0  0  0
 11 16  1  6  0  0  0
 11 18  1  0  0  0  0
 12 13  1  0  0  0  0
 12 20  1  1  0  0  0
 13 16  1  0  0  0  0
 14 15  2  0  0  0  0
 14 18  1  0  0  0  0
 14 19  1  0  0  0  0
 15 17  1  0  0  0  0
 15 21  1  0  0  0  0
 19 23  2  0  0  0  0
 20 27  1  0  0  0  0
 21 25  2  0  0  0  0
 24 22  1  1  0  0  0
 23 25  1  0  0  0  0
 24 26  1  0  0  0  0
 24 28  1  0  0  0  0
 26 29  1  1  0  0  0
 26 30  1  0  0  0  0
 27 31  1  0  0  0  0
 28 33  1  0  0  0  0
 30 34  1  0  0  0  0
 31 36  1  0  0  0  0
 32 35  1  0  0  0  0
 33 34  1  0  0  0  0
 36 38  1  0  0  0  0
 37 39  1  0  0  0  0
 38 40  1  0  0  0  0
 39 41  1  0  0  0  0
 40 42  1  0  0  0  0
 41 43  1  0  0  0  0
 42 44  1  0  0  0  0
 43 45  1  0  0  0  0
 45 46  1  0  0  0  0
M  END
> <PUBCHEM_COMPOUND_ID_TYPE>
0

> <PUBCHEM_TOTAL_CHARGE>
0

> <PUBCHEM_SUBSTANCE_ID>
310939522

> <PUBCHEM_SUBSTANCE_VERSION>
1

> <PUBCHEM_EXT_DATASOURCE_NAME>
4488

> <PUBCHEM_EXT_DATASOURCE_REGID>
SCHEMBL16117451

> <PUBCHEM_SUBSTANCE_COMMENT>
InChI=1S/C37H57NO7S/c1-2-3-6-13-27(39)17-18-28-31-21-25-12-11-16-33(44-24-35(40)41)32(25)22-26(31)23-34(28)45-37(43)30-15-8-7-14-29(30)36(42)38-19-9-4-5-10-20-46/h11-12,16,26-31,34,39,46H,2-10,13-15,17-24H2,1H3,(H,38,42)(H,40,41)/t26-,27-,28+,29-,30+,31-,34+/m0/s1
InChIKey=ZHHCEFVDODSGEH-GYOVMWOGSA-N

> <PUBCHEM_SUBSTANCE_SYNONYM>
SCHEMBL16117451

> <PUBCHEM_XREF_EXT_ID>
SCHEMBL16117451

> <PUBCHEM_EXT_DATASOURCE_URL>
https://www.surechembl.org/

> <PUBCHEM_EXT_SUBSTANCE_URL>
https://www.surechembl.org/chemical/SCHEMBL16117451

> <PUBCHEM_CID_ASSOCIATIONS>
117606818  1

> <PUBCHEM_COORDINATE_TYPE>
1
3

> <PUBCHEM_BONDANNOTATIONS>
10  17  6
11  16  6
12  20  5
13  2  6
24  22  5
26  29  5
31  6  5

$$$$
