310938362
  -OEChem-07211613022D

 17 19  0     0  0  0  0  0  0999 V2000
    4.3325   -0.4370    0.0000 Cl  0  0  0  0  0  0  0  0  0  0  0  0
    1.0831   -1.1022    0.0000 F   0  0  0  0  0  0  0  0  0  0  0  0
    1.4252   -2.5463    0.0000 N   0  0  0  0  0  0  0  0  0  0  0  0
    2.2042   -3.6294    0.0000 N   0  0  0  0  0  0  0  0  0  0  0  0
    3.2494   -1.3872    0.0000 N   0  0  0  0  0  0  0  0  0  0  0  0
    0.7031   -2.1472    0.0000 N   0  0  0  0  0  0  0  0  0  0  0  0
    2.9644    0.0000    0.0000 N   0  0  0  0  0  0  0  0  0  0  0  0
    2.2042   -2.3183    0.0000 C   0  0  0  0  0  0  0  0  0  0  0  0
    2.4513   -1.5392    0.0000 C   0  0  0  0  0  0  0  0  0  0  0  0
    1.4252   -3.4014    0.0000 C   0  0  0  0  0  0  0  0  0  0  0  0
    1.8812   -0.9311    0.0000 C   0  0  0  0  0  0  0  0  0  0  0  0
    2.6983   -2.9834    0.0000 C   0  0  0  0  0  0  0  0  0  0  0  0
    3.5345   -0.6081    0.0000 C   0  0  0  0  0  0  0  0  0  0  0  0
    0.7031   -3.8005    0.0000 C   0  0  0  0  0  0  0  0  0  0  0  0
    2.1662   -0.1520    0.0000 C   0  0  0  0  0  0  0  0  0  0  0  0
    0.0000   -2.5463    0.0000 C   0  0  0  0  0  0  0  0  0  0  0  0
    0.0000   -3.4014    0.0000 C   0  0  0  0  0  0  0  0  0  0  0  0
  1 13  1  0  0  0  0
  2 11  1  0  0  0  0
  3  6  1  0  0  0  0
  3  8  1  0  0  0  0
  3 10  1  0  0  0  0
  4 10  2  0  0  0  0
  4 12  1  0  0  0  0
  5  9  2  0  0  0  0
  5 13  1  0  0  0  0
  6 16  2  0  0  0  0
  7 13  2  0  0  0  0
  7 15  1  0  0  0  0
  8  9  1  0  0  0  0
  8 12  2  0  0  0  0
  9 11  1  0  0  0  0
 10 14  1  0  0  0  0
 11 15  2  0  0  0  0
 14 17  2  0  0  0  0
 16 17  1  0  0  0  0
M  END
> <PUBCHEM_COMPOUND_ID_TYPE>
0

> <PUBCHEM_TOTAL_CHARGE>
0

> <PUBCHEM_SUBSTANCE_ID>
310938362

> <PUBCHEM_SUBSTANCE_VERSION>
1

> <PUBCHEM_EXT_DATASOURCE_NAME>
4488

> <PUBCHEM_EXT_DATASOURCE_REGID>
SCHEMBL16116247

> <PUBCHEM_SUBSTANCE_COMMENT>
InChI=1S/C10H5ClFN5/c11-10-14-4-6(12)9(16-10)7-5-13-8-2-1-3-15-17(7)8/h1-5H
InChIKey=LAGVDKREOUIZMA-UHFFFAOYSA-N

> <PUBCHEM_SUBSTANCE_SYNONYM>
SCHEMBL16116247

> <PUBCHEM_XREF_EXT_ID>
SCHEMBL16116247

> <PUBCHEM_EXT_DATASOURCE_URL>
https://www.surechembl.org/

> <PUBCHEM_EXT_SUBSTANCE_URL>
https://www.surechembl.org/chemical/SCHEMBL16116247

> <PUBCHEM_CID_ASSOCIATIONS>
117605845  1

> <PUBCHEM_COORDINATE_TYPE>
1
3

$$$$
