310943355
  -OEChem-07211613022D

 35 38  0     1  0  0  0  0  0999 V2000
    4.6121    1.4472    0.0000 F   0  0  0  0  0  0  0  0  0  0  0  0
    5.3137    1.0379    0.0000 F   0  0  0  0  0  0  0  0  0  0  0  0
   -2.5070   -1.8711    0.0000 O   0  0  0  0  0  0  0  0  0  0  0  0
   -5.3430    1.4618    0.0000 O   0  0  0  0  0  0  0  0  0  0  0  0
    1.7615    1.4472    0.0000 O   0  0  0  0  0  0  0  0  0  0  0  0
   -3.2233   -0.6286    0.0000 N   0  0  0  0  0  0  0  0  0  0  0  0
   -3.9250    0.6286    0.0000 N   0  0  3  0  0  0  0  0  0  0  0  0
    1.0452    0.2047    0.0000 N   0  0  0  0  0  0  0  0  0  0  0  0
    3.8957   -0.6286    0.0000 N   0  0  0  0  0  0  0  0  0  0  0  0
   -3.2087    0.2193    0.0000 C   0  0  0  0  0  0  0  0  0  0  0  0
   -1.7907    0.2047    0.0000 C   0  0  0  0  0  0  0  0  0  0  0  0
   -1.0890    0.6286    0.0000 C   0  0  0  0  0  0  0  0  0  0  0  0
   -2.5216    0.6140    0.0000 C   0  0  0  0  0  0  0  0  0  0  0  0
   -2.5216   -1.0086    0.0000 C   0  0  0  0  0  0  0  0  0  0  0  0
   -1.8053   -0.6140    0.0000 C   0  0  0  0  0  0  0  0  0  0  0  0
   -1.0744    1.4472    0.0000 C   0  0  0  0  0  0  0  0  0  0  0  0
   -0.4020    0.2193    0.0000 C   0  0  0  0  0  0  0  0  0  0  0  0
    0.3289    0.6432    0.0000 C   0  0  0  0  0  0  0  0  0  0  0  0
   -4.6121    0.2339    0.0000 C   0  0  3  0  0  0  0  0  0  0  0  0
   -3.9250    1.4618    0.0000 C   0  0  0  0  0  0  0  0  0  0  0  0
    2.4777    0.2047    0.0000 C   0  0  0  0  0  0  0  0  0  0  0  0
    3.8957    0.2047    0.0000 C   0  0  0  0  0  0  0  0  0  0  0  0
    1.7468    0.6140    0.0000 C   0  0  0  0  0  0  0  0  0  0  0  0
   -0.3728    1.8565    0.0000 C   0  0  0  0  0  0  0  0  0  0  0  0
    0.3289    1.4472    0.0000 C   0  0  0  0  0  0  0  0  0  0  0  0
    4.6121    0.6286    0.0000 C   0  0  0  0  0  0  0  0  0  0  0  0
    3.1648    0.6140    0.0000 C   0  0  0  0  0  0  0  0  0  0  0  0
   -3.9542   -1.0525    0.0000 C   0  0  0  0  0  0  0  0  0  0  0  0
   -5.3430    0.6286    0.0000 C   0  0  0  0  0  0  0  0  0  0  0  0
   -4.6413    1.8711    0.0000 C   0  0  0  0  0  0  0  0  0  0  0  0
    2.4777   -0.6286    0.0000 C   0  0  0  0  0  0  0  0  0  0  0  0
   -1.8053    1.8565    0.0000 C   0  0  0  0  0  0  0  0  0  0  0  0
    3.1940   -1.0379    0.0000 C   0  0  0  0  0  0  0  0  0  0  0  0
   -4.6413   -0.5993    0.0000 C   0  0  0  0  0  0  0  0  0  0  0  0
    5.3430    0.2047    0.0000 C   0  0  0  0  0  0  0  0  0  0  0  0
  1 26  1  0  0  0  0
  2 26  1  0  0  0  0
  3 14  2  0  0  0  0
  4 29  1  0  0  0  0
  4 30  1  0  0  0  0
  5 23  2  0  0  0  0
  6 10  1  0  0  0  0
  6 14  1  0  0  0  0
  6 28  1  0  0  0  0
  7 10  1  0  0  0  0
  7 19  1  0  0  0  0
  7 20  1  0  0  0  0
  8 18  1  0  0  0  0
  8 23  1  0  0  0  0
  9 22  1  0  0  0  0
  9 33  2  0  0  0  0
 10 13  2  0  0  0  0
 11 12  1  0  0  0  0
 11 13  1  0  0  0  0
 11 15  2  0  0  0  0
 12 16  2  0  0  0  0
 12 17  1  0  0  0  0
 14 15  1  0  0  0  0
 16 24  1  0  0  0  0
 16 32  1  0  0  0  0
 17 18  2  0  0  0  0
 18 25  1  0  0  0  0
 19 29  1  0  0  0  0
 19 34  1  6  0  0  0
 20 30  1  0  0  0  0
 21 23  1  0  0  0  0
 21 27  1  0  0  0  0
 21 31  2  0  0  0  0
 22 26  1  0  0  0  0
 22 27  2  0  0  0  0
 24 25  2  0  0  0  0
 26 35  1  0  0  0  0
 31 33  1  0  0  0  0
M  END
> <PUBCHEM_COMPOUND_ID_TYPE>
0

> <PUBCHEM_TOTAL_CHARGE>
0

> <PUBCHEM_SUBSTANCE_ID>
310943355

> <PUBCHEM_SUBSTANCE_VERSION>
1

> <PUBCHEM_EXT_DATASOURCE_NAME>
4488

> <PUBCHEM_EXT_DATASOURCE_REGID>
SCHEMBL16121418

> <PUBCHEM_SUBSTANCE_COMMENT>
InChI=1S/C26H28F2N4O3/c1-16-5-6-20(30-25(34)18-7-8-29-22(11-18)26(3,27)28)14-21(16)19-12-23(31(4)24(33)13-19)32-9-10-35-15-17(32)2/h5-8,11-14,17H,9-10,15H2,1-4H3,(H,30,34)/t17-/m1/s1
InChIKey=KUWKOKQQSGVPBT-QGZVFWFLSA-N

> <PUBCHEM_SUBSTANCE_SYNONYM>
SCHEMBL16121418

> <PUBCHEM_XREF_EXT_ID>
SCHEMBL16121418

> <PUBCHEM_EXT_DATASOURCE_URL>
https://www.surechembl.org/

> <PUBCHEM_EXT_SUBSTANCE_URL>
https://www.surechembl.org/chemical/SCHEMBL16121418

> <PUBCHEM_CID_ASSOCIATIONS>
117609779  1

> <PUBCHEM_COORDINATE_TYPE>
1
3

> <PUBCHEM_BONDANNOTATIONS>
19  34  6

$$$$
