310945967
  -OEChem-07211613022D

 39 43  0     1  0  0  0  0  0999 V2000
    4.2195    0.6860    0.0000 O   0  0  0  0  0  0  0  0  0  0  0  0
    3.0832   -1.2818    0.0000 O   0  0  0  0  0  0  0  0  0  0  0  0
    0.9215    0.7968    0.0000 O   0  0  0  0  0  0  0  0  0  0  0  0
   -1.2402   -1.2818    0.0000 O   0  0  0  0  0  0  0  0  0  0  0  0
    3.0832   -2.9447    0.0000 O   0  0  0  0  0  0  0  0  0  0  0  0
    1.6420   -0.4365    0.0000 N   0  0  0  0  0  0  0  0  0  0  0  0
   -2.0439    0.7968    0.0000 N   0  0  0  0  0  0  0  0  0  0  0  0
   -0.5197   -0.0207    0.0000 N   0  0  0  0  0  0  0  0  0  0  0  0
    3.7899   -0.0069    0.0000 C   0  0  3  0  0  0  0  0  0  0  0  0
    3.0693   -0.4226    0.0000 C   0  0  0  0  0  0  0  0  0  0  0  0
    3.4019    0.6860    0.0000 C   0  0  0  0  0  0  0  0  0  0  0  0
    2.3488   -0.0346    0.0000 C   0  0  3  0  0  0  0  0  0  0  0  0
    4.4966   -0.4226    0.0000 C   0  0  0  0  0  0  0  0  0  0  0  0
   -1.9607   -0.0069    0.0000 C   0  0  0  0  0  0  0  0  0  0  0  0
    0.9076   -0.0485    0.0000 C   0  0  0  0  0  0  0  0  0  0  0  0
    2.3626    1.2956    0.0000 C   0  0  0  0  0  0  0  0  0  0  0  0
    0.2148   -0.4365    0.0000 C   0  0  3  0  0  0  0  0  0  0  0  0
   -2.8615    0.9769    0.0000 C   0  0  0  0  0  0  0  0  0  0  0  0
   -3.2633    0.2564    0.0000 C   0  0  0  0  0  0  0  0  0  0  0  0
   -1.2264   -0.4226    0.0000 C   0  0  0  0  0  0  0  0  0  0  0  0
   -2.7229   -0.3533    0.0000 C   0  0  0  0  0  0  0  0  0  0  0  0
    1.6282    1.7252    0.0000 C   0  0  0  0  0  0  0  0  0  0  0  0
    0.2009   -1.2679    0.0000 C   0  0  0  0  0  0  0  0  0  0  0  0
   -3.2633    1.6836    0.0000 C   0  0  0  0  0  0  0  0  0  0  0  0
   -4.0947    0.2702    0.0000 C   0  0  0  0  0  0  0  0  0  0  0  0
    0.9353   -1.6836    0.0000 C   0  0  0  0  0  0  0  0  0  0  0  0
   -4.0947    1.6836    0.0000 C   0  0  0  0  0  0  0  0  0  0  0  0
   -4.4966    0.9631    0.0000 C   0  0  0  0  0  0  0  0  0  0  0  0
    1.6420    2.5428    0.0000 C   0  0  0  0  0  0  0  0  0  0  0  0
    0.9353    1.3095    0.0000 C   0  0  0  0  0  0  0  0  0  0  0  0
    0.9353   -2.5150    0.0000 C   0  0  0  0  0  0  0  0  0  0  0  0
    1.6559   -1.2818    0.0000 C   0  0  0  0  0  0  0  0  0  0  0  0
    2.3488   -2.5150    0.0000 C   0  0  0  0  0  0  0  0  0  0  0  0
    0.9215    2.9447    0.0000 C   0  0  0  0  0  0  0  0  0  0  0  0
    0.2148    1.7252    0.0000 C   0  0  0  0  0  0  0  0  0  0  0  0
    1.6559   -2.9169    0.0000 C   0  0  0  0  0  0  0  0  0  0  0  0
    2.3626   -1.6975    0.0000 C   0  0  0  0  0  0  0  0  0  0  0  0
    0.2148    2.5566    0.0000 C   0  0  0  0  0  0  0  0  0  0  0  0
    3.8176   -2.5012    0.0000 C   0  0  0  0  0  0  0  0  0  0  0  0
  1  9  1  0  0  0  0
  1 11  1  0  0  0  0
  2 10  2  0  0  0  0
  3 15  2  0  0  0  0
  4 20  2  0  0  0  0
  5 33  1  0  0  0  0
  5 39  1  0  0  0  0
 12  6  1  1  0  0  0
  6 15  1  0  0  0  0
  7 14  1  0  0  0  0
  7 18  1  0  0  0  0
 17  8  1  6  0  0  0
  8 20  1  0  0  0  0
  9 10  1  1  0  0  0
  9 11  1  0  0  0  0
  9 13  1  6  0  0  0
 10 12  1  0  0  0  0
 12 16  1  0  0  0  0
 14 20  1  0  0  0  0
 14 21  2  0  0  0  0
 15 17  1  0  0  0  0
 16 22  1  0  0  0  0
 17 23  1  0  0  0  0
 18 19  1  0  0  0  0
 18 24  2  0  0  0  0
 19 21  1  0  0  0  0
 19 25  2  0  0  0  0
 22 29  2  0  0  0  0
 22 30  1  0  0  0  0
 23 26  1  0  0  0  0
 24 27  1  0  0  0  0
 25 28  1  0  0  0  0
 26 31  2  0  0  0  0
 26 32  1  0  0  0  0
 27 28  2  0  0  0  0
 29 34  1  0  0  0  0
 30 35  2  0  0  0  0
 31 36  1  0  0  0  0
 32 37  2  0  0  0  0
 33 36  2  0  0  0  0
 33 37  1  0  0  0  0
 34 38  2  0  0  0  0
 35 38  1  0  0  0  0
M  END
> <PUBCHEM_COMPOUND_ID_TYPE>
0

> <PUBCHEM_TOTAL_CHARGE>
0

> <PUBCHEM_SUBSTANCE_ID>
310945967

> <PUBCHEM_SUBSTANCE_VERSION>
1

> <PUBCHEM_EXT_DATASOURCE_NAME>
4488

> <PUBCHEM_EXT_DATASOURCE_REGID>
SCHEMBL16124072

> <PUBCHEM_SUBSTANCE_COMMENT>
InChI=1S/C31H31N3O5/c1-31(19-39-31)28(35)25(16-20-8-4-3-5-9-20)33-29(36)26(17-21-12-14-23(38-2)15-13-21)34-30(37)27-18-22-10-6-7-11-24(22)32-27/h3-15,18,25-26,32H,16-17,19H2,1-2H3,(H,33,36)(H,34,37)/t25-,26-,31+/m0/s1
InChIKey=MZTWHGGUZUMBDD-ZBKIVJSUSA-N

> <PUBCHEM_SUBSTANCE_SYNONYM>
SCHEMBL16124072

> <PUBCHEM_XREF_EXT_ID>
SCHEMBL16124072

> <PUBCHEM_EXT_DATASOURCE_URL>
https://www.surechembl.org/

> <PUBCHEM_EXT_SUBSTANCE_URL>
https://www.surechembl.org/chemical/SCHEMBL16124072

> <PUBCHEM_CID_ASSOCIATIONS>
117611943  1

> <PUBCHEM_COORDINATE_TYPE>
1
3

> <PUBCHEM_BONDANNOTATIONS>
12  6  5
17  8  6
9  10  5
9  13  6

$$$$
