310941429
  -OEChem-07211613022D

 36 40  0     1  0  0  0  0  0999 V2000
   -0.7294    2.0584    0.0000 O   0  0  0  0  0  0  0  0  0  0  0  0
    0.0000    0.8222    0.0000 N   0  0  0  0  0  0  0  0  0  0  0  0
   -0.7047   -0.4142    0.0000 N   0  0  0  0  0  0  0  0  0  0  0  0
    0.8407   -1.2302    0.0000 N   0  0  0  0  0  0  0  0  0  0  0  0
    0.0000   -2.4664    0.0000 N   0  0  0  0  0  0  0  0  0  0  0  0
   -2.8559    3.2948    0.0000 N   0  0  0  0  0  0  0  0  0  0  0  0
    0.7171   -3.7028    0.0000 N   0  0  0  0  0  0  0  0  0  0  0  0
   -0.7047   -3.7151    0.0000 N   0  0  0  0  0  0  0  0  0  0  0  0
    2.8559   -1.6876    0.0000 N   0  0  0  0  0  0  0  0  0  0  0  0
   -1.4341    0.8345    0.0000 C   0  0  0  0  0  0  0  0  0  0  0  0
   -0.7294    1.2302    0.0000 C   0  0  0  0  0  0  0  0  0  0  0  0
   -0.0124   -0.0062    0.0000 C   0  0  0  0  0  0  0  0  0  0  0  0
   -1.4465    0.0062    0.0000 C   0  0  0  0  0  0  0  0  0  0  0  0
   -2.1512    1.2425    0.0000 C   0  0  0  0  0  0  0  0  0  0  0  0
    0.7047    1.2425    0.0000 C   0  0  0  0  0  0  0  0  0  0  0  0
    0.7171   -0.4142    0.0000 C   0  0  3  0  0  0  0  0  0  0  0  0
   -2.1388    2.0708    0.0000 C   0  0  0  0  0  0  0  0  0  0  0  0
   -2.1512   -0.4018    0.0000 C   0  0  0  0  0  0  0  0  0  0  0  0
   -2.8436    0.8222    0.0000 C   0  0  0  0  0  0  0  0  0  0  0  0
   -2.8436    0.0062    0.0000 C   0  0  0  0  0  0  0  0  0  0  0  0
    1.4217    0.8345    0.0000 C   0  0  0  0  0  0  0  0  0  0  0  0
    0.7171    2.0584    0.0000 C   0  0  0  0  0  0  0  0  0  0  0  0
    0.7047   -2.0584    0.0000 C   0  0  0  0  0  0  0  0  0  0  0  0
   -1.4341    2.4664    0.0000 C   0  0  0  0  0  0  0  0  0  0  0  0
   -2.8436    2.4664    0.0000 C   0  0  0  0  0  0  0  0  0  0  0  0
    1.4217    0.0062    0.0000 C   0  0  0  0  0  0  0  0  0  0  0  0
    1.4217   -2.4664    0.0000 C   0  0  0  0  0  0  0  0  0  0  0  0
   -1.4217    3.3072    0.0000 C   0  0  0  0  0  0  0  0  0  0  0  0
    2.1388    1.2425    0.0000 C   0  0  0  0  0  0  0  0  0  0  0  0
    1.4341    2.4664    0.0000 C   0  0  0  0  0  0  0  0  0  0  0  0
   -0.0124   -3.2948    0.0000 C   0  0  0  0  0  0  0  0  0  0  0  0
    2.1388    2.0584    0.0000 C   0  0  0  0  0  0  0  0  0  0  0  0
   -2.1388    3.7151    0.0000 C   0  0  0  0  0  0  0  0  0  0  0  0
    1.4217   -3.3072    0.0000 C   0  0  0  0  0  0  0  0  0  0  0  0
    2.1388   -2.0584    0.0000 C   0  0  0  0  0  0  0  0  0  0  0  0
   -0.7171    3.7151    0.0000 C   0  0  0  0  0  0  0  0  0  0  0  0
  1 11  2  0  0  0  0
  2 11  1  0  0  0  0
  2 12  1  0  0  0  0
  2 15  1  0  0  0  0
  3 12  2  0  0  0  0
  3 13  1  0  0  0  0
  4 16  1  0  0  0  0
  4 23  1  0  0  0  0
  5 23  2  0  0  0  0
  5 31  1  0  0  0  0
  6 25  2  0  0  0  0
  6 33  1  0  0  0  0
  7 31  2  0  0  0  0
  7 34  1  0  0  0  0
  8 31  1  0  0  0  0
  9 35  3  0  0  0  0
 10 11  1  0  0  0  0
 10 13  1  0  0  0  0
 10 14  2  0  0  0  0
 12 16  1  0  0  0  0
 13 18  2  0  0  0  0
 14 17  1  0  0  0  0
 14 19  1  0  0  0  0
 15 21  2  0  0  0  0
 15 22  1  0  0  0  0
 16 26  1  6  0  0  0
 17 24  2  0  0  0  0
 17 25  1  0  0  0  0
 18 20  1  0  0  0  0
 19 20  2  0  0  0  0
 21 29  1  0  0  0  0
 22 30  2  0  0  0  0
 23 27  1  0  0  0  0
 24 28  1  0  0  0  0
 27 34  2  0  0  0  0
 27 35  1  0  0  0  0
 28 33  2  0  0  0  0
 28 36  1  0  0  0  0
 29 32  2  0  0  0  0
 30 32  1  0  0  0  0
M  END
> <PUBCHEM_COMPOUND_ID_TYPE>
0

> <PUBCHEM_TOTAL_CHARGE>
0

> <PUBCHEM_SUBSTANCE_ID>
310941429

> <PUBCHEM_SUBSTANCE_VERSION>
1

> <PUBCHEM_EXT_DATASOURCE_NAME>
4488

> <PUBCHEM_EXT_DATASOURCE_REGID>
SCHEMBL16119389

> <PUBCHEM_SUBSTANCE_COMMENT>
InChI=1S/C27H22N8O/c1-16-11-18(14-30-13-16)21-9-6-10-22-23(21)26(36)35(20-7-4-3-5-8-20)25(33-22)17(2)32-24-19(12-28)15-31-27(29)34-24/h3-11,13-15,17H,1-2H3,(H3,29,31,32,34)/t17-/m0/s1
InChIKey=VYOLPHXZNFCCQD-KRWDZBQOSA-N

> <PUBCHEM_SUBSTANCE_SYNONYM>
SCHEMBL16119389

> <PUBCHEM_XREF_EXT_ID>
SCHEMBL16119389

> <PUBCHEM_EXT_DATASOURCE_URL>
https://www.surechembl.org/

> <PUBCHEM_EXT_SUBSTANCE_URL>
https://www.surechembl.org/chemical/SCHEMBL16119389

> <PUBCHEM_CID_ASSOCIATIONS>
117608254  1

> <PUBCHEM_COORDINATE_TYPE>
1
3

> <PUBCHEM_BONDANNOTATIONS>
16  26  6

$$$$
