310949247
  -OEChem-07211613022D

 36 41  0     0  0  0  0  0  0999 V2000
    0.2834   -0.5496    0.0000 F   0  0  0  0  0  0  0  0  0  0  0  0
    1.3711   -0.8967    0.0000 F   0  0  0  0  0  0  0  0  0  0  0  0
    1.0008   -1.9959    0.0000 F   0  0  0  0  0  0  0  0  0  0  0  0
   -2.7363   -2.0190    0.0000 F   0  0  0  0  0  0  0  0  0  0  0  0
   -3.2224   -0.9893    0.0000 F   0  0  0  0  0  0  0  0  0  0  0  0
   -2.1579   -0.5148    0.0000 F   0  0  0  0  0  0  0  0  0  0  0  0
   -0.8042   -0.4339    0.0000 N   0  0  0  0  0  0  0  0  0  0  0  0
   -0.1330    0.0752    0.0000 C   0  0  0  0  0  0  0  0  0  0  0  0
   -0.3876    0.8273    0.0000 C   0  0  0  0  0  0  0  0  0  0  0  0
    1.2438    0.5033    0.0000 C   0  0  0  0  0  0  0  0  0  0  0  0
    1.0008    1.2785    0.0000 C   0  0  0  0  0  0  0  0  0  0  0  0
    2.0885    0.4801    0.0000 C   0  0  0  0  0  0  0  0  0  0  0  0
   -1.4868    0.0520    0.0000 C   0  0  0  0  0  0  0  0  0  0  0  0
   -1.2438    0.8389    0.0000 C   0  0  0  0  0  0  0  0  0  0  0  0
   -0.8158   -1.2322    0.0000 C   0  0  0  0  0  0  0  0  0  0  0  0
    1.6719    1.7412    0.0000 C   0  0  0  0  0  0  0  0  0  0  0  0
    0.6885   -0.1099    0.0000 C   0  0  0  0  0  0  0  0  0  0  0  0
    2.3546    1.2669    0.0000 C   0  0  0  0  0  0  0  0  0  0  0  0
    0.1677    1.4405    0.0000 C   0  0  0  0  0  0  0  0  0  0  0  0
   -0.0752   -1.6372    0.0000 C   0  0  0  0  0  0  0  0  0  0  0  0
   -1.5215   -1.6488    0.0000 C   0  0  0  0  0  0  0  0  0  0  0  0
   -2.2620   -0.1099    0.0000 C   0  0  0  0  0  0  0  0  0  0  0  0
   -1.7528    1.4289    0.0000 C   0  0  0  0  0  0  0  0  0  0  0  0
    0.6422   -1.2669    0.0000 C   0  0  0  0  0  0  0  0  0  0  0  0
   -2.4587   -1.2554    0.0000 C   0  0  0  0  0  0  0  0  0  0  0  0
    1.7528    2.5628    0.0000 C   0  0  0  0  0  0  0  0  0  0  0  0
    3.1182    1.5909    0.0000 C   0  0  0  0  0  0  0  0  0  0  0  0
    2.9330    0.2719    0.0000 C   0  0  0  0  0  0  0  0  0  0  0  0
    1.8802   -0.3181    0.0000 C   0  0  0  0  0  0  0  0  0  0  0  0
   -0.0867   -2.4703    0.0000 C   0  0  0  0  0  0  0  0  0  0  0  0
   -1.5099   -2.4819    0.0000 C   0  0  0  0  0  0  0  0  0  0  0  0
   -2.7942    0.4917    0.0000 C   0  0  0  0  0  0  0  0  0  0  0  0
   -2.5397    1.2669    0.0000 C   0  0  0  0  0  0  0  0  0  0  0  0
   -0.8042   -2.8636    0.0000 C   0  0  0  0  0  0  0  0  0  0  0  0
    2.5513    2.8636    0.0000 C   0  0  0  0  0  0  0  0  0  0  0  0
    3.2224    2.4009    0.0000 C   0  0  0  0  0  0  0  0  0  0  0  0
  1 24  1  0  0  0  0
  2 24  1  0  0  0  0
  3 24  1  0  0  0  0
  4 25  1  0  0  0  0
  5 25  1  0  0  0  0
  6 25  1  0  0  0  0
  7  8  1  0  0  0  0
  7 13  1  0  0  0  0
  7 15  1  0  0  0  0
  8  9  2  0  0  0  0
  8 17  1  0  0  0  0
  9 14  1  0  0  0  0
  9 19  1  0  0  0  0
 10 11  1  0  0  0  0
 10 12  1  0  0  0  0
 10 17  2  0  0  0  0
 11 16  1  0  0  0  0
 11 19  2  0  0  0  0
 12 18  1  0  0  0  0
 12 28  1  0  0  0  0
 12 29  1  0  0  0  0
 13 14  2  0  0  0  0
 13 22  1  0  0  0  0
 14 23  1  0  0  0  0
 15 20  2  0  0  0  0
 15 21  1  0  0  0  0
 16 18  2  0  0  0  0
 16 26  1  0  0  0  0
 18 27  1  0  0  0  0
 20 24  1  0  0  0  0
 20 30  1  0  0  0  0
 21 25  1  0  0  0  0
 21 31  2  0  0  0  0
 22 32  2  0  0  0  0
 23 33  2  0  0  0  0
 26 35  2  0  0  0  0
 27 36  2  0  0  0  0
 30 34  2  0  0  0  0
 31 34  1  0  0  0  0
 32 33  1  0  0  0  0
 35 36  1  0  0  0  0
M  END
> <PUBCHEM_COMPOUND_ID_TYPE>
0

> <PUBCHEM_TOTAL_CHARGE>
0

> <PUBCHEM_SUBSTANCE_ID>
310949247

> <PUBCHEM_SUBSTANCE_VERSION>
1

> <PUBCHEM_EXT_DATASOURCE_NAME>
4488

> <PUBCHEM_EXT_DATASOURCE_REGID>
SCHEMBL16127437

> <PUBCHEM_SUBSTANCE_COMMENT>
InChI=1S/C29H19F6N/c1-27(2)20-10-5-3-8-16(20)18-14-19-17-9-4-6-13-24(17)36(25(19)15-23(18)27)26-21(28(30,31)32)11-7-12-22(26)29(33,34)35/h3-15H,1-2H3
InChIKey=JMQOYRGBOMMOFC-UHFFFAOYSA-N

> <PUBCHEM_SUBSTANCE_SYNONYM>
SCHEMBL16127437

> <PUBCHEM_XREF_EXT_ID>
SCHEMBL16127437

> <PUBCHEM_EXT_DATASOURCE_URL>
https://www.surechembl.org/

> <PUBCHEM_EXT_SUBSTANCE_URL>
https://www.surechembl.org/chemical/SCHEMBL16127437

> <PUBCHEM_CID_ASSOCIATIONS>
117614735  1

> <PUBCHEM_COORDINATE_TYPE>
1
3

$$$$
