310934010
  -OEChem-07211613022D

 27 28  0     0  0  0  0  0  0999 V2000
   15.5707    2.6496    0.0000 S   0  0  0  0  0  0  0  0  0  0  0  0
   14.8562    1.4121    0.0000 F   0  0  0  0  0  0  0  0  0  0  0  0
   14.1417    1.8246    0.0000 F   0  0  0  0  0  0  0  0  0  0  0  0
   14.1417    2.6496    0.0000 F   0  0  0  0  0  0  0  0  0  0  0  0
   22.1584    1.2291    0.0000 F   0  0  0  0  0  0  0  0  0  0  0  0
   21.4048    1.5646    0.0000 F   0  0  0  0  0  0  0  0  0  0  0  0
   23.2283    2.8895    0.0000 F   0  0  0  0  0  0  0  0  0  0  0  0
   23.7132    2.2220    0.0000 F   0  0  0  0  0  0  0  0  0  0  0  0
   23.3776    1.4683    0.0000 F   0  0  0  0  0  0  0  0  0  0  0  0
   16.2851    3.0621    0.0000 O   0  0  0  0  0  0  0  0  0  0  0  0
   21.5873    2.7170    0.0000 O   0  0  0  0  0  0  0  0  0  0  0  0
   15.9832    1.9351    0.0000 O   0  0  0  0  0  0  0  0  0  0  0  0
   15.1582    3.3641    0.0000 O   0  0  0  0  0  0  0  0  0  0  0  0
   17.7533    2.9852    0.0000 N   0  0  0  0  0  0  0  0  0  0  0  0
   17.0859    1.8291    0.0000 N   0  0  0  0  0  0  0  0  0  0  0  0
   17.8928    1.6576    0.0000 N   0  0  0  0  0  0  0  0  0  0  0  0
   14.8562    2.2371    0.0000 C   0  0  0  0  0  0  0  0  0  0  0  0
   22.0722    2.0496    0.0000 C   0  0  0  0  0  0  0  0  0  0  0  0
   16.9996    2.6496    0.0000 C   0  0  0  0  0  0  0  0  0  0  0  0
   22.8927    2.1358    0.0000 C   0  0  0  0  0  0  0  0  0  0  0  0
   18.3053    2.3721    0.0000 C   0  0  0  0  0  0  0  0  0  0  0  0
   19.1258    2.4583    0.0000 C   0  0  0  0  0  0  0  0  0  0  0  0
   20.7668    2.6308    0.0000 C   0  0  0  0  0  0  0  0  0  0  0  0
   19.6108    1.7909    0.0000 C   0  0  0  0  0  0  0  0  0  0  0  0
   19.4614    3.2120    0.0000 C   0  0  0  0  0  0  0  0  0  0  0  0
   20.4312    1.8771    0.0000 C   0  0  0  0  0  0  0  0  0  0  0  0
   20.2819    3.2982    0.0000 C   0  0  0  0  0  0  0  0  0  0  0  0
  1 10  1  0  0  0  0
  1 12  2  0  0  0  0
  1 13  2  0  0  0  0
  1 17  1  0  0  0  0
  2 17  1  0  0  0  0
  3 17  1  0  0  0  0
  4 17  1  0  0  0  0
  5 18  1  0  0  0  0
  6 18  1  0  0  0  0
  7 20  1  0  0  0  0
  8 20  1  0  0  0  0
  9 20  1  0  0  0  0
 10 19  1  0  0  0  0
 11 18  1  0  0  0  0
 11 23  1  0  0  0  0
 14 19  1  0  0  0  0
 14 21  2  0  0  0  0
 15 16  1  0  0  0  0
 15 19  2  0  0  0  0
 16 21  1  0  0  0  0
 18 20  1  0  0  0  0
 21 22  1  0  0  0  0
 22 24  2  0  0  0  0
 22 25  1  0  0  0  0
 23 26  2  0  0  0  0
 23 27  1  0  0  0  0
 24 26  1  0  0  0  0
 25 27  2  0  0  0  0
M  END
> <PUBCHEM_COMPOUND_ID_TYPE>
0

> <PUBCHEM_TOTAL_CHARGE>
0

> <PUBCHEM_SUBSTANCE_ID>
310934010

> <PUBCHEM_SUBSTANCE_VERSION>
1

> <PUBCHEM_EXT_DATASOURCE_NAME>
4488

> <PUBCHEM_EXT_DATASOURCE_REGID>
SCHEMBL16111454

> <PUBCHEM_SUBSTANCE_COMMENT>
InChI=1S/C11H5F8N3O4S/c12-9(13,14)10(15,16)25-6-3-1-5(2-4-6)7-20-8(22-21-7)26-27(23,24)11(17,18)19/h1-4H,(H,20,21,22)
InChIKey=MFCKTBDKSZVBPJ-UHFFFAOYSA-N

> <PUBCHEM_SUBSTANCE_SYNONYM>
SCHEMBL16111454

> <PUBCHEM_XREF_EXT_ID>
SCHEMBL16111454

> <PUBCHEM_EXT_DATASOURCE_URL>
https://www.surechembl.org/

> <PUBCHEM_EXT_SUBSTANCE_URL>
https://www.surechembl.org/chemical/SCHEMBL16111454

> <PUBCHEM_CID_ASSOCIATIONS>
117602313  1

> <PUBCHEM_COORDINATE_TYPE>
1
3

$$$$
