310939821
  -OEChem-07211613022D

 24 25  0     1  0  0  0  0  0999 V2000
    2.1434    3.5062    0.0000 Cl  0  0  0  0  0  0  0  0  0  0  0  0
    0.7145    4.3312    0.0000 Cl  0  0  0  0  0  0  0  0  0  0  0  0
   -0.7145    1.8563    0.0000 O   0  0  0  0  0  0  0  0  0  0  0  0
    0.7145   -0.6187    0.0000 O   0  0  0  0  0  0  0  0  0  0  0  0
    0.0000   -2.6812    0.0000 O   0  0  0  0  0  0  0  0  0  0  0  0
   -0.7145   -0.6187    0.0000 N   0  0  0  0  0  0  0  0  0  0  0  0
    0.7145    1.0313    0.0000 N   0  0  0  0  0  0  0  0  0  0  0  0
   -1.4289   -2.6812    0.0000 N   0  0  0  0  0  0  0  0  0  0  0  0
    0.7145    1.8563    0.0000 C   0  0  0  0  0  0  0  0  0  0  0  0
    0.0000    2.2687    0.0000 C   0  0  0  0  0  0  0  0  0  0  0  0
    1.4289    3.0938    0.0000 C   0  0  0  0  0  0  0  0  0  0  0  0
    0.7145    3.5062    0.0000 C   0  0  0  0  0  0  0  0  0  0  0  0
    1.4289    2.2687    0.0000 C   0  0  0  0  0  0  0  0  0  0  0  0
    0.0000   -0.2062    0.0000 C   0  0  0  0  0  0  0  0  0  0  0  0
    0.0000    3.0938    0.0000 C   0  0  0  0  0  0  0  0  0  0  0  0
   -1.4289   -1.8563    0.0000 C   0  0  3  0  0  0  0  0  0  0  0  0
   -0.7145   -1.4437    0.0000 C   0  0  0  0  0  0  0  0  0  0  0  0
    0.0000    0.6188    0.0000 C   0  0  0  0  0  0  0  0  0  0  0  0
   -1.4289   -0.2062    0.0000 C   0  0  0  0  0  0  0  0  0  0  0  0
   -2.1434   -1.4437    0.0000 C   0  0  0  0  0  0  0  0  0  0  0  0
   -2.1434   -0.6187    0.0000 C   0  0  0  0  0  0  0  0  0  0  0  0
   -0.7145   -3.0938    0.0000 C   0  0  0  0  0  0  0  0  0  0  0  0
   -0.7145   -3.9187    0.0000 C   0  0  0  0  0  0  0  0  0  0  0  0
    0.0000   -4.3312    0.0000 C   0  0  0  0  0  0  0  0  0  0  0  0
  1 11  1  0  0  0  0
  2 12  1  0  0  0  0
  3 10  1  0  0  0  0
  4 14  2  0  0  0  0
  5 22  2  0  0  0  0
  6 14  1  0  0  0  0
  6 17  1  0  0  0  0
  6 19  1  0  0  0  0
  7  9  1  0  0  0  0
  7 18  1  0  0  0  0
 16  8  1  1  0  0  0
  8 22  1  0  0  0  0
  9 10  1  0  0  0  0
  9 13  2  0  0  0  0
 10 15  2  0  0  0  0
 11 12  2  0  0  0  0
 11 13  1  0  0  0  0
 12 15  1  0  0  0  0
 14 18  1  0  0  0  0
 16 17  1  0  0  0  0
 16 20  1  0  0  0  0
 19 21  1  0  0  0  0
 20 21  1  0  0  0  0
 22 23  1  0  0  0  0
 23 24  2  0  0  0  0
M  END
> <PUBCHEM_COMPOUND_ID_TYPE>
0

> <PUBCHEM_TOTAL_CHARGE>
0

> <PUBCHEM_SUBSTANCE_ID>
310939821

> <PUBCHEM_SUBSTANCE_VERSION>
1

> <PUBCHEM_EXT_DATASOURCE_NAME>
4488

> <PUBCHEM_EXT_DATASOURCE_REGID>
SCHEMBL16117751

> <PUBCHEM_SUBSTANCE_COMMENT>
InChI=1S/C16H19Cl2N3O3/c1-2-15(23)20-10-4-3-5-21(9-10)16(24)8-19-13-6-11(17)12(18)7-14(13)22/h2,6-7,10,19,22H,1,3-5,8-9H2,(H,20,23)/t10-/m0/s1
InChIKey=UYOUZKAQAXKIJD-JTQLQIEISA-N

> <PUBCHEM_SUBSTANCE_SYNONYM>
SCHEMBL16117751

> <PUBCHEM_XREF_EXT_ID>
SCHEMBL16117751

> <PUBCHEM_EXT_DATASOURCE_URL>
https://www.surechembl.org/

> <PUBCHEM_EXT_SUBSTANCE_URL>
https://www.surechembl.org/chemical/SCHEMBL16117751

> <PUBCHEM_CID_ASSOCIATIONS>
117607038  1

> <PUBCHEM_COORDINATE_TYPE>
1
3

> <PUBCHEM_BONDANNOTATIONS>
16  8  5

$$$$
