310933456
  -OEChem-07211613022D

 23 24  0     0  0  0  0  0  0999 V2000
    2.0943   -2.8312    0.0000 O   0  0  0  0  0  0  0  0  0  0  0  0
    2.5791   -0.3684    0.0000 O   0  0  0  0  0  0  0  0  0  0  0  0
    4.5764   -1.7064    0.0000 O   0  0  0  0  0  0  0  0  0  0  0  0
    4.4988   -1.4155    0.0000 O   0  0  0  0  0  0  0  0  0  0  0  0
    4.5764   -3.1414    0.0000 O   0  0  0  0  0  0  0  0  0  0  0  0
    4.1886    0.0000    0.0000 O   0  0  0  0  0  0  0  0  0  0  0  0
    2.8699   -3.1026    0.0000 N   0  0  0  0  0  0  0  0  0  0  0  0
    2.8699   -1.7452    0.0000 C   0  0  0  0  0  0  0  0  0  0  0  0
    2.0943   -2.0167    0.0000 C   0  0  0  0  0  0  0  0  0  0  0  0
    3.3547   -2.4239    0.0000 C   0  0  0  0  0  0  0  0  0  0  0  0
    3.1220   -0.9696    0.0000 C   0  0  0  0  0  0  0  0  0  0  0  0
    1.4155   -1.5319    0.0000 C   0  0  0  0  0  0  0  0  0  0  0  0
    4.1692   -2.4239    0.0000 C   0  0  0  0  0  0  0  0  0  0  0  0
    3.9365   -0.7950    0.0000 C   0  0  0  0  0  0  0  0  0  0  0  0
    0.6593   -1.8810    0.0000 C   0  0  0  0  0  0  0  0  0  0  0  0
    1.4932   -0.7175    0.0000 C   0  0  0  0  0  0  0  0  0  0  0  0
    0.0000   -1.4155    0.0000 C   0  0  0  0  0  0  0  0  0  0  0  0
    0.8338   -0.2521    0.0000 C   0  0  0  0  0  0  0  0  0  0  0  0
    0.0776   -0.5818    0.0000 C   0  0  0  0  0  0  0  0  0  0  0  0
    5.4102   -1.7064    0.0000 C   0  0  0  0  0  0  0  0  0  0  0  0
    5.2939   -1.2410    0.0000 C   0  0  0  0  0  0  0  0  0  0  0  0
    5.8174   -0.9890    0.0000 C   0  0  0  0  0  0  0  0  0  0  0  0
    5.5460   -0.4460    0.0000 C   0  0  0  0  0  0  0  0  0  0  0  0
  1  7  1  0  0  0  0
  1  9  1  0  0  0  0
  2 11  2  0  0  0  0
  3 13  1  0  0  0  0
  3 20  1  0  0  0  0
  4 14  1  0  0  0  0
  4 21  1  0  0  0  0
  5 13  2  0  0  0  0
  6 14  2  0  0  0  0
  7 10  2  0  0  0  0
  8  9  2  0  0  0  0
  8 10  1  0  0  0  0
  8 11  1  0  0  0  0
  9 12  1  0  0  0  0
 10 13  1  0  0  0  0
 11 14  1  0  0  0  0
 12 15  2  0  0  0  0
 12 16  1  0  0  0  0
 15 17  1  0  0  0  0
 16 18  2  0  0  0  0
 17 19  2  0  0  0  0
 18 19  1  0  0  0  0
 20 22  1  0  0  0  0
 21 23  1  0  0  0  0
M  END
> <PUBCHEM_COMPOUND_ID_TYPE>
0

> <PUBCHEM_TOTAL_CHARGE>
0

> <PUBCHEM_SUBSTANCE_ID>
310933456

> <PUBCHEM_SUBSTANCE_VERSION>
1

> <PUBCHEM_EXT_DATASOURCE_NAME>
4488

> <PUBCHEM_EXT_DATASOURCE_REGID>
SCHEMBL16110874

> <PUBCHEM_SUBSTANCE_COMMENT>
InChI=1S/C16H15NO6/c1-3-21-15(19)12-11(13(18)16(20)22-4-2)14(23-17-12)10-8-6-5-7-9-10/h5-9H,3-4H2,1-2H3
InChIKey=QYSMRKUBGNAKEP-UHFFFAOYSA-N

> <PUBCHEM_SUBSTANCE_SYNONYM>
SCHEMBL16110874

> <PUBCHEM_XREF_EXT_ID>
SCHEMBL16110874

> <PUBCHEM_EXT_DATASOURCE_URL>
https://www.surechembl.org/

> <PUBCHEM_EXT_SUBSTANCE_URL>
https://www.surechembl.org/chemical/SCHEMBL16110874

> <PUBCHEM_CID_ASSOCIATIONS>
117601856  1

> <PUBCHEM_COORDINATE_TYPE>
1
3

$$$$
