310949458
  -OEChem-07211613022D

 28 31  0     0  0  0  0  0  0999 V2000
    1.6027    1.4913    0.0000 F   0  0  0  0  0  0  0  0  0  0  0  0
    2.4841   -1.0996    0.0000 F   0  0  0  0  0  0  0  0  0  0  0  0
    0.7035    0.6456    0.0000 O   0  0  0  0  0  0  0  0  0  0  0  0
    1.0862   -2.0701    0.0000 N   0  0  0  0  0  0  0  0  0  0  0  0
   -0.4452   -2.2302    0.0000 N   0  0  0  0  0  0  0  0  0  0  0  0
    3.3567    2.0879    0.0000 N   0  0  0  0  0  0  0  0  0  0  0  0
    1.0773   -0.7257    0.0000 C   0  0  0  0  0  0  0  0  0  0  0  0
    0.2849   -0.9927    0.0000 C   0  0  0  0  0  0  0  0  0  0  0  0
    1.3266    0.0579    0.0000 C   0  0  0  0  0  0  0  0  0  0  0  0
    2.1102    0.2805    0.0000 C   0  0  0  0  0  0  0  0  0  0  0  0
    0.2761   -1.8029    0.0000 C   0  0  0  0  0  0  0  0  0  0  0  0
    2.3238    1.0817    0.0000 C   0  0  0  0  0  0  0  0  0  0  0  0
    1.5670   -1.4023    0.0000 C   0  0  0  0  0  0  0  0  0  0  0  0
   -0.4541   -0.5743    0.0000 C   0  0  0  0  0  0  0  0  0  0  0  0
    2.7067   -0.2894    0.0000 C   0  0  0  0  0  0  0  0  0  0  0  0
   -1.1663   -0.9838    0.0000 C   0  0  0  0  0  0  0  0  0  0  0  0
    3.1341    1.2955    0.0000 C   0  0  0  0  0  0  0  0  0  0  0  0
   -1.1663   -1.8029    0.0000 C   0  0  0  0  0  0  0  0  0  0  0  0
   -1.8965   -0.5654    0.0000 C   0  0  0  0  0  0  0  0  0  0  0  0
    3.5170   -0.0757    0.0000 C   0  0  0  0  0  0  0  0  0  0  0  0
    3.7305    0.7079    0.0000 C   0  0  0  0  0  0  0  0  0  0  0  0
   -1.8965    0.2537    0.0000 C   0  0  0  0  0  0  0  0  0  0  0  0
   -2.6087   -0.9749    0.0000 C   0  0  0  0  0  0  0  0  0  0  0  0
   -2.6354    0.6634    0.0000 C   0  0  0  0  0  0  0  0  0  0  0  0
   -3.3389   -0.5654    0.0000 C   0  0  0  0  0  0  0  0  0  0  0  0
   -3.3477    0.2537    0.0000 C   0  0  0  0  0  0  0  0  0  0  0  0
    3.9086    2.2302    0.0000 C   0  0  0  0  0  0  0  0  0  0  0  0
   -3.9086    0.6010    0.0000 C   0  0  0  0  0  0  0  0  0  0  0  0
  1 12  1  0  0  0  0
  2 15  1  0  0  0  0
  3  9  2  0  0  0  0
  4 11  1  0  0  0  0
  4 13  1  0  0  0  0
  5 11  2  0  0  0  0
  5 18  1  0  0  0  0
  6 17  1  0  0  0  0
  6 27  1  0  0  0  0
  7  8  1  0  0  0  0
  7  9  1  0  0  0  0
  7 13  2  0  0  0  0
  8 11  1  0  0  0  0
  8 14  2  0  0  0  0
  9 10  1  0  0  0  0
 10 12  1  0  0  0  0
 10 15  2  0  0  0  0
 12 17  2  0  0  0  0
 14 16  1  0  0  0  0
 15 20  1  0  0  0  0
 16 18  2  0  0  0  0
 16 19  1  0  0  0  0
 17 21  1  0  0  0  0
 19 22  2  0  0  0  0
 19 23  1  0  0  0  0
 20 21  2  0  0  0  0
 22 24  1  0  0  0  0
 23 25  2  0  0  0  0
 24 26  2  0  0  0  0
 25 26  1  0  0  0  0
 26 28  1  0  0  0  0
M  END
> <PUBCHEM_COMPOUND_ID_TYPE>
0

> <PUBCHEM_TOTAL_CHARGE>
0

> <PUBCHEM_SUBSTANCE_ID>
310949458

> <PUBCHEM_SUBSTANCE_VERSION>
1

> <PUBCHEM_EXT_DATASOURCE_NAME>
4488

> <PUBCHEM_EXT_DATASOURCE_REGID>
SCHEMBL16127652

> <PUBCHEM_SUBSTANCE_COMMENT>
InChI=1S/C22H17F2N3O/c1-12-3-5-13(6-4-12)14-9-15-16(11-27-22(15)26-10-14)21(28)19-17(23)7-8-18(25-2)20(19)24/h3-11,25H,1-2H3,(H,26,27)
InChIKey=FBOHHFAOTGWOIL-UHFFFAOYSA-N

> <PUBCHEM_SUBSTANCE_SYNONYM>
SCHEMBL16127652

> <PUBCHEM_XREF_EXT_ID>
SCHEMBL16127652

> <PUBCHEM_EXT_DATASOURCE_URL>
https://www.surechembl.org/

> <PUBCHEM_EXT_SUBSTANCE_URL>
https://www.surechembl.org/chemical/SCHEMBL16127652

> <PUBCHEM_CID_ASSOCIATIONS>
117614903  1

> <PUBCHEM_COORDINATE_TYPE>
1
3

$$$$
