310946653
  -OEChem-07211613022D

 19 21  0     0  0  0  0  0  0999 V2000
   -1.5344   -1.0189    0.0000 O   0  0  0  0  0  0  0  0  0  0  0  0
    1.3234   -1.0189    0.0000 O   0  0  0  0  0  0  0  0  0  0  0  0
   -1.5344    1.4561    0.0000 O   0  0  0  0  0  0  0  0  0  0  0  0
   -0.8200    0.2186    0.0000 C   0  0  0  0  0  0  0  0  0  0  0  0
   -0.8200   -0.6064    0.0000 C   0  0  0  0  0  0  0  0  0  0  0  0
   -1.5344    0.6311    0.0000 C   0  0  0  0  0  0  0  0  0  0  0  0
   -2.2489   -0.6064    0.0000 C   0  0  0  0  0  0  0  0  0  0  0  0
    0.6090   -0.6064    0.0000 C   0  0  0  0  0  0  0  0  0  0  0  0
    0.6090    0.2186    0.0000 C   0  0  0  0  0  0  0  0  0  0  0  0
   -0.1055    0.6311    0.0000 C   0  0  0  0  0  0  0  0  0  0  0  0
   -0.1055   -1.0189    0.0000 C   0  0  0  0  0  0  0  0  0  0  0  0
   -2.2489    0.2186    0.0000 C   0  0  0  0  0  0  0  0  0  0  0  0
    1.3234    0.6311    0.0000 C   0  0  0  0  0  0  0  0  0  0  0  0
    2.0379   -0.6064    0.0000 C   0  0  0  0  0  0  0  0  0  0  0  0
    2.0379    0.2186    0.0000 C   0  0  0  0  0  0  0  0  0  0  0  0
   -3.0739   -0.6064    0.0000 C   0  0  0  0  0  0  0  0  0  0  0  0
   -2.6614   -1.3208    0.0000 C   0  0  0  0  0  0  0  0  0  0  0  0
    2.7524   -1.0189    0.0000 C   0  0  0  0  0  0  0  0  0  0  0  0
   -2.2489    1.8686    0.0000 C   0  0  0  0  0  0  0  0  0  0  0  0
  1  5  1  0  0  0  0
  1  7  1  0  0  0  0
  2  8  1  0  0  0  0
  2 14  1  0  0  0  0
  3  6  1  0  0  0  0
  3 19  1  0  0  0  0
  4  5  2  0  0  0  0
  4  6  1  0  0  0  0
  4 10  1  0  0  0  0
  5 11  1  0  0  0  0
  6 12  2  0  0  0  0
  7 12  1  0  0  0  0
  7 16  1  0  0  0  0
  7 17  1  0  0  0  0
  8  9  1  0  0  0  0
  8 11  2  0  0  0  0
  9 10  2  0  0  0  0
  9 13  1  0  0  0  0
 13 15  2  0  0  0  0
 14 15  1  0  0  0  0
 14 18  2  0  0  0  0
M  END
> <PUBCHEM_COMPOUND_ID_TYPE>
0

> <PUBCHEM_TOTAL_CHARGE>
0

> <PUBCHEM_SUBSTANCE_ID>
310946653

> <PUBCHEM_SUBSTANCE_VERSION>
1

> <PUBCHEM_EXT_DATASOURCE_NAME>
4488

> <PUBCHEM_EXT_DATASOURCE_REGID>
SCHEMBL16124774

> <PUBCHEM_SUBSTANCE_COMMENT>
InChI=1S/C16H16O3/c1-10-5-6-11-7-12-14(8-13(11)18-10)19-16(2,3)9-15(12)17-4/h5-9H,1H2,2-4H3
InChIKey=OXBRKLPZWQLVLO-UHFFFAOYSA-N

> <PUBCHEM_SUBSTANCE_SYNONYM>
SCHEMBL16124774

> <PUBCHEM_XREF_EXT_ID>
SCHEMBL16124774

> <PUBCHEM_EXT_DATASOURCE_URL>
https://www.surechembl.org/

> <PUBCHEM_EXT_SUBSTANCE_URL>
https://www.surechembl.org/chemical/SCHEMBL16124774

> <PUBCHEM_CID_ASSOCIATIONS>
117612553  1

> <PUBCHEM_COORDINATE_TYPE>
1
3

$$$$
