310931783
  -OEChem-07211613022D

 31 34  0     0  0  0  0  0  0999 V2000
    7.4254   -0.6188    0.0000 F   0  0  0  0  0  0  0  0  0  0  0  0
    5.0682   -1.9447    0.0000 O   0  0  0  0  0  0  0  0  0  0  0  0
    0.9724   -3.6538    0.0000 O   0  0  0  0  0  0  0  0  0  0  0  0
    4.6851   -3.3591    0.0000 N   0  0  0  0  0  0  0  0  0  0  0  0
    5.0976   -4.0663    0.0000 N   0  0  0  0  0  0  0  0  0  0  0  0
    3.4180   -3.9190    0.0000 N   0  0  0  0  0  0  0  0  0  0  0  0
    1.1197   -2.2394    0.0000 N   0  0  0  0  0  0  0  0  0  0  0  0
    0.4714   -0.7367    0.0000 N   0  0  0  0  0  0  0  0  0  0  0  0
    8.8398   -0.6188    0.0000 N   0  0  0  0  0  0  0  0  0  0  0  0
    5.9816   -3.0939    0.0000 C   0  0  0  0  0  0  0  0  0  0  0  0
    5.2449   -2.7403    0.0000 C   0  0  0  0  0  0  0  0  0  0  0  0
    6.6888   -2.6814    0.0000 C   0  0  0  0  0  0  0  0  0  0  0  0
    3.8895   -3.2707    0.0000 C   0  0  0  0  0  0  0  0  0  0  0  0
    6.6888   -1.8564    0.0000 C   0  0  0  0  0  0  0  0  0  0  0  0
    5.8932   -3.8895    0.0000 C   0  0  0  0  0  0  0  0  0  0  0  0
    7.4254   -1.4439    0.0000 C   0  0  0  0  0  0  0  0  0  0  0  0
    7.4254   -3.0939    0.0000 C   0  0  0  0  0  0  0  0  0  0  0  0
    8.1031   -1.8564    0.0000 C   0  0  0  0  0  0  0  0  0  0  0  0
    2.2689   -3.0939    0.0000 C   0  0  0  0  0  0  0  0  0  0  0  0
    3.5654   -2.5046    0.0000 C   0  0  0  0  0  0  0  0  0  0  0  0
    8.1031   -2.6814    0.0000 C   0  0  0  0  0  0  0  0  0  0  0  0
    1.4439   -3.0055    0.0000 C   0  0  0  0  0  0  0  0  0  0  0  0
    2.5930   -3.8600    0.0000 C   0  0  0  0  0  0  0  0  0  0  0  0
    2.7403   -2.4457    0.0000 C   0  0  0  0  0  0  0  0  0  0  0  0
    5.9816   -1.4439    0.0000 C   0  0  0  0  0  0  0  0  0  0  0  0
    8.8398   -1.4439    0.0000 C   0  0  0  0  0  0  0  0  0  0  0  0
    1.6206   -1.5912    0.0000 C   0  0  0  0  0  0  0  0  0  0  0  0
    0.3241   -2.1510    0.0000 C   0  0  0  0  0  0  0  0  0  0  0  0
    0.0000   -1.4143    0.0000 C   0  0  0  0  0  0  0  0  0  0  0  0
    1.2965   -0.8251    0.0000 C   0  0  0  0  0  0  0  0  0  0  0  0
    0.1473    0.0000    0.0000 C   0  0  0  0  0  0  0  0  0  0  0  0
  1 16  1  0  0  0  0
  2 11  1  0  0  0  0
  3 22  2  0  0  0  0
  4  5  1  0  0  0  0
  4 11  1  0  0  0  0
  4 13  1  0  0  0  0
  5 15  2  0  0  0  0
  6 13  1  0  0  0  0
  6 23  2  0  0  0  0
  7 22  1  0  0  0  0
  7 27  1  0  0  0  0
  7 28  1  0  0  0  0
  8 29  1  0  0  0  0
  8 30  1  0  0  0  0
  8 31  1  0  0  0  0
  9 26  3  0  0  0  0
 10 11  2  0  0  0  0
 10 12  1  0  0  0  0
 10 15  1  0  0  0  0
 12 14  2  0  0  0  0
 12 17  1  0  0  0  0
 13 20  2  0  0  0  0
 14 16  1  0  0  0  0
 14 25  1  0  0  0  0
 16 18  2  0  0  0  0
 17 21  2  0  0  0  0
 18 21  1  0  0  0  0
 18 26  1  0  0  0  0
 19 22  1  0  0  0  0
 19 23  1  0  0  0  0
 19 24  2  0  0  0  0
 20 24  1  0  0  0  0
 27 30  1  0  0  0  0
 28 29  1  0  0  0  0
M  END
> <PUBCHEM_COMPOUND_ID_TYPE>
0

> <PUBCHEM_TOTAL_CHARGE>
0

> <PUBCHEM_SUBSTANCE_ID>
310931783

> <PUBCHEM_SUBSTANCE_VERSION>
1

> <PUBCHEM_EXT_DATASOURCE_NAME>
4488

> <PUBCHEM_EXT_DATASOURCE_REGID>
SCHEMBL16109115

> <PUBCHEM_SUBSTANCE_COMMENT>
InChI=1S/C22H21FN6O2/c1-14-17(5-3-15(11-24)20(14)23)18-13-26-29(22(18)31)19-6-4-16(12-25-19)21(30)28-9-7-27(2)8-10-28/h3-6,12-13,31H,7-10H2,1-2H3
InChIKey=CHZGCHCOWXSCQA-UHFFFAOYSA-N

> <PUBCHEM_SUBSTANCE_SYNONYM>
SCHEMBL16109115

> <PUBCHEM_XREF_EXT_ID>
SCHEMBL16109115

> <PUBCHEM_EXT_DATASOURCE_URL>
https://www.surechembl.org/

> <PUBCHEM_EXT_SUBSTANCE_URL>
https://www.surechembl.org/chemical/SCHEMBL16109115

> <PUBCHEM_CID_ASSOCIATIONS>
117600467  1

> <PUBCHEM_COORDINATE_TYPE>
1
3

$$$$
