310945777
  -OEChem-07211613022D

 31 35  0     1  0  0  0  0  0999 V2000
    0.7305    2.6410    0.0000 F   0  0  0  0  0  0  0  0  0  0  0  0
    1.0489    1.5734    0.0000 F   0  0  0  0  0  0  0  0  0  0  0  0
   -0.0375    1.2924    0.0000 F   0  0  0  0  0  0  0  0  0  0  0  0
   -1.9292   -2.5848    0.0000 O   0  0  0  0  0  0  0  0  0  0  0  0
    1.5921   -0.5620    0.0000 O   0  0  0  0  0  0  0  0  0  0  0  0
   -1.1799   -1.3487    0.0000 N   0  0  0  0  0  0  0  0  0  0  0  0
   -1.1052    1.1612    0.0000 N   0  0  0  0  0  0  0  0  0  0  0  0
    0.2997   -2.2664    0.0000 N   0  0  0  0  0  0  0  0  0  0  0  0
   -0.3933   -3.4277    0.0000 N   0  0  0  0  0  0  0  0  0  0  0  0
    0.3933   -3.6150    0.0000 N   0  0  0  0  0  0  0  0  0  0  0  0
   -0.7305   -0.1311    0.0000 C   0  0  3  0  0  0  0  0  0  0  0  0
   -1.5546   -0.0375    0.0000 C   0  0  3  0  0  0  0  0  0  0  0  0
   -0.4870   -2.6223    0.0000 C   0  0  0  0  0  0  0  0  0  0  0  0
   -1.1799   -2.1727    0.0000 C   0  0  0  0  0  0  0  0  0  0  0  0
   -1.1052    2.0041    0.0000 C   0  0  0  0  0  0  0  0  0  0  0  0
   -0.5057   -0.8617    0.0000 C   0  0  0  0  0  0  0  0  0  0  0  0
   -1.8356   -0.8242    0.0000 C   0  0  0  0  0  0  0  0  0  0  0  0
   -1.7981    0.6930    0.0000 C   0  0  0  0  0  0  0  0  0  0  0  0
   -0.4682    0.6742    0.0000 C   0  0  0  0  0  0  0  0  0  0  0  0
    0.8242   -2.8845    0.0000 C   0  0  0  0  0  0  0  0  0  0  0  0
   -0.3933    2.3975    0.0000 C   0  0  0  0  0  0  0  0  0  0  0  0
    0.5432   -1.4984    0.0000 C   0  0  0  0  0  0  0  0  0  0  0  0
    0.3372    1.9666    0.0000 C   0  0  0  0  0  0  0  0  0  0  0  0
    1.5921   -2.7533    0.0000 C   0  0  0  0  0  0  0  0  0  0  0  0
    1.3487   -1.3112    0.0000 C   0  0  0  0  0  0  0  0  0  0  0  0
   -1.8169    2.4536    0.0000 C   0  0  0  0  0  0  0  0  0  0  0  0
   -0.3933    3.2028    0.0000 C   0  0  0  0  0  0  0  0  0  0  0  0
    1.8918   -1.9479    0.0000 C   0  0  0  0  0  0  0  0  0  0  0  0
   -1.7981    3.2403    0.0000 C   0  0  0  0  0  0  0  0  0  0  0  0
   -1.0677    3.6150    0.0000 C   0  0  0  0  0  0  0  0  0  0  0  0
    2.3788   -0.4120    0.0000 C   0  0  0  0  0  0  0  0  0  0  0  0
  1 23  1  0  0  0  0
  2 23  1  0  0  0  0
  3 23  1  0  0  0  0
  4 14  2  0  0  0  0
  5 25  1  0  0  0  0
  5 31  1  0  0  0  0
  6 14  1  0  0  0  0
  6 16  1  0  0  0  0
  6 17  1  0  0  0  0
  7 15  1  0  0  0  0
  7 18  1  0  0  0  0
  7 19  1  0  0  0  0
  8 13  1  0  0  0  0
  8 20  1  0  0  0  0
  8 22  1  0  0  0  0
  9 10  1  0  0  0  0
  9 13  2  0  0  0  0
 10 20  2  0  0  0  0
 11 12  1  0  0  0  0
 11 16  1  1  0  0  0
 11 19  1  0  0  0  0
 12 17  1  1  0  0  0
 12 18  1  0  0  0  0
 13 14  1  0  0  0  0
 15 21  2  0  0  0  0
 15 26  1  0  0  0  0
 20 24  1  0  0  0  0
 21 23  1  0  0  0  0
 21 27  1  0  0  0  0
 22 25  2  0  0  0  0
 24 28  2  0  0  0  0
 25 28  1  0  0  0  0
 26 29  2  0  0  0  0
 27 30  2  0  0  0  0
 29 30  1  0  0  0  0
M  END
> <PUBCHEM_COMPOUND_ID_TYPE>
0

> <PUBCHEM_TOTAL_CHARGE>
0

> <PUBCHEM_SUBSTANCE_ID>
310945777

> <PUBCHEM_SUBSTANCE_VERSION>
1

> <PUBCHEM_EXT_DATASOURCE_NAME>
4488

> <PUBCHEM_EXT_DATASOURCE_REGID>
SCHEMBL16123881

> <PUBCHEM_SUBSTANCE_COMMENT>
InChI=1S/C21H20F3N5O2/c1-31-15-6-7-18-25-26-19(29(18)12-15)20(30)28-10-13-8-27(9-14(13)11-28)17-5-3-2-4-16(17)21(22,23)24/h2-7,12-14H,8-11H2,1H3/t13-,14+
InChIKey=IAQBSQZDWCDYOD-OKILXGFUSA-N

> <PUBCHEM_SUBSTANCE_SYNONYM>
SCHEMBL16123881

> <PUBCHEM_XREF_EXT_ID>
SCHEMBL16123881

> <PUBCHEM_EXT_DATASOURCE_URL>
https://www.surechembl.org/

> <PUBCHEM_EXT_SUBSTANCE_URL>
https://www.surechembl.org/chemical/SCHEMBL16123881

> <PUBCHEM_CID_ASSOCIATIONS>
86296438  1

> <PUBCHEM_COORDINATE_TYPE>
1
3

> <PUBCHEM_BONDANNOTATIONS>
11  16  5
12  17  5

$$$$
