310934079
  -OEChem-07211613022D

 33 36  0     0  0  0  0  0  0999 V2000
    0.2471   -5.8976    0.0000 S   0  0  0  0  0  0  0  0  0  0  0  0
    3.3339   -2.0964    0.0000 F   0  0  0  0  0  0  0  0  0  0  0  0
    1.1062   -0.1252    0.0000 O   0  0  0  0  0  0  0  0  0  0  0  0
    3.1961    1.2007    0.0000 O   0  0  0  0  0  0  0  0  0  0  0  0
   -0.2605   -4.3276    0.0000 O   0  0  0  0  0  0  0  0  0  0  0  0
    0.8594   -6.4505    0.0000 O   0  0  0  0  0  0  0  0  0  0  0  0
   -0.3652   -5.3447    0.0000 O   0  0  0  0  0  0  0  0  0  0  0  0
    0.8001   -5.2853    0.0000 N   0  0  0  0  0  0  0  0  0  0  0  0
    1.1407   -0.9495    0.0000 C   0  0  0  0  0  0  0  0  0  0  0  0
    1.1445   -1.7057    0.0000 C   0  0  0  0  0  0  0  0  0  0  0  0
    0.7366   -0.2235    0.0000 C   0  0  0  0  0  0  0  0  0  0  0  0
    0.6709   -1.5755    0.0000 C   0  0  0  0  0  0  0  0  0  0  0  0
    2.0411   -1.1462    0.0000 C   0  0  0  0  0  0  0  0  0  0  0  0
    0.5275   -2.3166    0.0000 C   0  0  0  0  0  0  0  0  0  0  0  0
    1.9537   -1.8322    0.0000 C   0  0  0  0  0  0  0  0  0  0  0  0
    1.3983   -2.4907    0.0000 C   0  0  0  0  0  0  0  0  0  0  0  0
    1.8029    0.3168    0.0000 C   0  0  0  0  0  0  0  0  0  0  0  0
    2.5339   -0.0655    0.0000 C   0  0  0  0  0  0  0  0  0  0  0  0
    0.8454   -3.1030    0.0000 C   0  0  0  0  0  0  0  0  0  0  0  0
    3.2306    0.3764    0.0000 C   0  0  0  0  0  0  0  0  0  0  0  0
    2.5684   -0.8898    0.0000 C   0  0  0  0  0  0  0  0  0  0  0  0
    3.2995   -1.2721    0.0000 C   0  0  0  0  0  0  0  0  0  0  0  0
    3.9616   -0.0059    0.0000 C   0  0  0  0  0  0  0  0  0  0  0  0
    1.0992   -3.8880    0.0000 C   0  0  0  0  0  0  0  0  0  0  0  0
    3.9961   -0.8301    0.0000 C   0  0  0  0  0  0  0  0  0  0  0  0
    3.8927    1.6427    0.0000 C   0  0  0  0  0  0  0  0  0  0  0  0
    0.5463   -4.5003    0.0000 C   0  0  0  0  0  0  0  0  0  0  0  0
    3.8583    2.4670    0.0000 C   0  0  0  0  0  0  0  0  0  0  0  0
    4.6238    1.2604    0.0000 C   0  0  0  0  0  0  0  0  0  0  0  0
    4.5549    2.9090    0.0000 C   0  0  0  0  0  0  0  0  0  0  0  0
    5.3204    1.7024    0.0000 C   0  0  0  0  0  0  0  0  0  0  0  0
    5.2860    2.5267    0.0000 C   0  0  0  0  0  0  0  0  0  0  0  0
   -0.3058   -6.5099    0.0000 C   0  0  0  0  0  0  0  0  0  0  0  0
  1  6  2  0  0  0  0
  1  7  2  0  0  0  0
  1  8  1  0  0  0  0
  1 33  1  0  0  0  0
  2 22  1  0  0  0  0
  3  9  1  0  0  0  0
  3 17  1  0  0  0  0
  4 20  1  0  0  0  0
  4 26  1  0  0  0  0
  5 27  2  0  0  0  0
  8 27  1  0  0  0  0
  9 11  1  0  0  0  0
  9 12  1  0  0  0  0
  9 13  1  0  0  0  0
 10 11  1  0  0  0  0
 10 14  1  0  0  0  0
 10 15  1  0  0  0  0
 10 16  1  0  0  0  0
 12 14  1  0  0  0  0
 13 15  1  0  0  0  0
 16 19  1  0  0  0  0
 17 18  1  0  0  0  0
 18 20  2  0  0  0  0
 18 21  1  0  0  0  0
 19 24  1  0  0  0  0
 20 23  1  0  0  0  0
 21 22  2  0  0  0  0
 22 25  1  0  0  0  0
 23 25  2  0  0  0  0
 24 27  1  0  0  0  0
 26 28  2  0  0  0  0
 26 29  1  0  0  0  0
 28 30  1  0  0  0  0
 29 31  2  0  0  0  0
 30 32  2  0  0  0  0
 31 32  1  0  0  0  0
M  END
> <PUBCHEM_COMPOUND_ID_TYPE>
0

> <PUBCHEM_TOTAL_CHARGE>
0

> <PUBCHEM_SUBSTANCE_ID>
310934079

> <PUBCHEM_SUBSTANCE_VERSION>
1

> <PUBCHEM_EXT_DATASOURCE_NAME>
4488

> <PUBCHEM_EXT_DATASOURCE_REGID>
SCHEMBL16111525

> <PUBCHEM_SUBSTANCE_COMMENT>
InChI=1S/C25H30FNO5S/c1-33(29,30)27-23(28)8-5-11-24-12-14-25(18-24,15-13-24)31-17-19-16-20(26)9-10-22(19)32-21-6-3-2-4-7-21/h2-4,6-7,9-10,16H,5,8,11-15,17-18H2,1H3,(H,27,28)
InChIKey=AXCSNAATIGSCMR-UHFFFAOYSA-N

> <PUBCHEM_SUBSTANCE_SYNONYM>
SCHEMBL16111525

> <PUBCHEM_XREF_EXT_ID>
SCHEMBL16111525

> <PUBCHEM_EXT_DATASOURCE_URL>
https://www.surechembl.org/

> <PUBCHEM_EXT_SUBSTANCE_URL>
https://www.surechembl.org/chemical/SCHEMBL16111525

> <PUBCHEM_CID_ASSOCIATIONS>
117602365  1

> <PUBCHEM_COORDINATE_TYPE>
1
3

$$$$
