310929823
  -OEChem-07211613022D

 36 38  0     1  0  0  0  0  0999 V2000
   -1.3219   -9.1211    0.0000 Br  0  0  0  0  0  0  0  0  0  0  0  0
   -0.2150   -6.0123    0.0000 S   0  0  0  0  0  0  0  0  0  0  0  0
    0.0618   -5.2351    0.0000 O   0  0  0  0  0  0  0  0  0  0  0  0
   -0.3643   -1.8449    0.0000 O   0  0  0  0  0  0  0  0  0  0  0  0
    0.7867   -1.8053    0.0000 O   0  0  0  0  0  0  0  0  0  0  0  0
    1.9572   -2.6249    0.0000 O   0  0  0  0  0  0  0  0  0  0  0  0
   -2.9807   -4.3108    0.0000 O   0  0  0  0  0  0  0  0  0  0  0  0
   -2.6447   -2.9219    0.0000 O   0  0  0  0  0  0  0  0  0  0  0  0
    0.5622   -6.2890    0.0000 O   0  0  0  0  0  0  0  0  0  0  0  0
   -0.9922   -5.7355    0.0000 O   0  0  0  0  0  0  0  0  0  0  0  0
   -1.6099   -3.9073    0.0000 N   0  0  0  0  0  0  0  0  0  0  0  0
    0.1889   -2.5530    0.0000 N   0  0  0  0  0  0  0  0  0  0  0  0
   -0.9816   -3.3726    0.0000 C   0  0  3  0  0  0  0  0  0  0  0  0
    0.6621   -3.2288    0.0000 C   0  0  3  0  0  0  0  0  0  0  0  0
   -0.6329   -2.6249    0.0000 C   0  0  0  0  0  0  0  0  0  0  0  0
    1.0746   -3.9433    0.0000 C   0  0  3  0  0  0  0  0  0  0  0  0
   -1.4405   -2.6871    0.0000 C   0  0  0  0  0  0  0  0  0  0  0  0
    0.2496   -3.9433    0.0000 C   0  0  0  0  0  0  0  0  0  0  0  0
   -0.2789   -3.8049    0.0000 C   0  0  0  0  0  0  0  0  0  0  0  0
   -0.4729   -4.6068    0.0000 C   0  0  3  0  0  0  0  0  0  0  0  0
    1.1353   -2.5530    0.0000 C   0  0  0  0  0  0  0  0  0  0  0  0
   -1.2955   -4.6701    0.0000 C   0  0  0  0  0  0  0  0  0  0  0  0
   -2.4117   -3.7134    0.0000 C   0  0  0  0  0  0  0  0  0  0  0  0
    1.7891   -4.3558    0.0000 C   0  0  0  0  0  0  0  0  0  0  0  0
   -1.8995   -2.0015    0.0000 C   0  0  0  0  0  0  0  0  0  0  0  0
   -0.7550   -2.2281    0.0000 C   0  0  0  0  0  0  0  0  0  0  0  0
   -2.1261   -3.1460    0.0000 C   0  0  0  0  0  0  0  0  0  0  0  0
   -0.4917   -6.7895    0.0000 C   0  0  0  0  0  0  0  0  0  0  0  0
    1.7891   -5.1808    0.0000 C   0  0  0  0  0  0  0  0  0  0  0  0
    1.2599   -1.1295    0.0000 C   0  0  0  0  0  0  0  0  0  0  0  0
    0.0430   -7.4177    0.0000 C   0  0  0  0  0  0  0  0  0  0  0  0
   -1.3032   -6.9384    0.0000 C   0  0  0  0  0  0  0  0  0  0  0  0
   -0.2338   -8.1949    0.0000 C   0  0  0  0  0  0  0  0  0  0  0  0
   -1.5799   -7.7156    0.0000 C   0  0  0  0  0  0  0  0  0  0  0  0
   -1.0452   -8.3439    0.0000 C   0  0  0  0  0  0  0  0  0  0  0  0
    2.0817   -1.2014    0.0000 C   0  0  0  0  0  0  0  0  0  0  0  0
  1 35  1  0  0  0  0
  2  3  1  0  0  0  0
  2  9  2  0  0  0  0
  2 10  2  0  0  0  0
  2 28  1  0  0  0  0
 20  3  1  6  0  0  0
  4 15  2  0  0  0  0
  5 21  1  0  0  0  0
  5 30  1  0  0  0  0
  6 21  2  0  0  0  0
  7 23  2  0  0  0  0
  8 23  1  0  0  0  0
 11 13  1  0  0  0  0
 11 22  1  0  0  0  0
 11 23  1  0  0  0  0
 14 12  1  1  0  0  0
 12 15  1  0  0  0  0
 13 15  1  0  0  0  0
 13 17  1  6  0  0  0
 13 19  1  0  0  0  0
 14 16  1  0  0  0  0
 14 18  1  0  0  0  0
 14 21  1  6  0  0  0
 16 18  1  0  0  0  0
 16 24  1  6  0  0  0
 17 25  1  0  0  0  0
 17 26  1  0  0  0  0
 17 27  1  0  0  0  0
 19 20  1  0  0  0  0
 20 22  1  0  0  0  0
 24 29  2  0  0  0  0
 28 31  2  0  0  0  0
 28 32  1  0  0  0  0
 30 36  1  0  0  0  0
 31 33  1  0  0  0  0
 32 34  2  0  0  0  0
 33 35  2  0  0  0  0
 34 35  1  0  0  0  0
M  END
> <PUBCHEM_COMPOUND_ID_TYPE>
0

> <PUBCHEM_TOTAL_CHARGE>
0

> <PUBCHEM_SUBSTANCE_ID>
310929823

> <PUBCHEM_SUBSTANCE_VERSION>
1

> <PUBCHEM_EXT_DATASOURCE_NAME>
4488

> <PUBCHEM_EXT_DATASOURCE_REGID>
SCHEMBL16107032

> <PUBCHEM_SUBSTANCE_COMMENT>
InChI=1S/C24H31BrN2O8S/c1-6-15-12-23(15,20(29)34-7-2)26-19(28)24(22(3,4)5)13-17(14-27(24)21(30)31)35-36(32,33)18-10-8-16(25)9-11-18/h6,8-11,15,17H,1,7,12-14H2,2-5H3,(H,26,28)(H,30,31)/t15-,17+,23-,24-/m1/s1
InChIKey=LUPZQQRHVMSWGT-OMDYYJPKSA-N

> <PUBCHEM_SUBSTANCE_SYNONYM>
SCHEMBL16107032

> <PUBCHEM_XREF_EXT_ID>
SCHEMBL16107032

> <PUBCHEM_EXT_DATASOURCE_URL>
https://www.surechembl.org/

> <PUBCHEM_EXT_SUBSTANCE_URL>
https://www.surechembl.org/chemical/SCHEMBL16107032

> <PUBCHEM_CID_ASSOCIATIONS>
117599098  1

> <PUBCHEM_COORDINATE_TYPE>
1
3

> <PUBCHEM_BONDANNOTATIONS>
14  12  5
13  17  6
14  21  6
16  24  6
20  3  6

$$$$
