310938839
  -OEChem-07211613022D

 24 27  0     0  0  0  0  0  0999 V2000
   -0.3379    3.9436    0.0000 O   0  0  0  0  0  0  0  0  0  0  0  0
    1.5989   -0.6113    0.0000 O   0  0  0  0  0  0  0  0  0  0  0  0
    0.8592    2.1492    0.0000 N   0  0  0  0  0  0  0  0  0  0  0  0
   -1.7203    3.2291    0.0000 N   0  0  0  0  0  0  0  0  0  0  0  0
   -1.7203    1.8943    0.0000 N   0  0  0  0  0  0  0  0  0  0  0  0
   -0.3379    1.1798    0.0000 N   0  0  0  0  0  0  0  0  0  0  0  0
   -0.4104    2.5617    0.0000 C   0  0  0  0  0  0  0  0  0  0  0  0
    0.0746    1.8943    0.0000 C   0  0  0  0  0  0  0  0  0  0  0  0
   -1.2354    2.5617    0.0000 C   0  0  0  0  0  0  0  0  0  0  0  0
    0.0746    3.2291    0.0000 C   0  0  0  0  0  0  0  0  0  0  0  0
    0.8592    2.9742    0.0000 C   0  0  0  0  0  0  0  0  0  0  0  0
    1.4426    1.5658    0.0000 C   0  0  0  0  0  0  0  0  0  0  0  0
   -2.5049    2.9742    0.0000 C   0  0  0  0  0  0  0  0  0  0  0  0
   -2.5049    2.1492    0.0000 C   0  0  0  0  0  0  0  0  0  0  0  0
    1.2290    0.7689    0.0000 C   0  0  0  0  0  0  0  0  0  0  0  0
    2.2394    1.7794    0.0000 C   0  0  0  0  0  0  0  0  0  0  0  0
   -3.2194    3.3867    0.0000 C   0  0  0  0  0  0  0  0  0  0  0  0
   -3.2194    1.7367    0.0000 C   0  0  0  0  0  0  0  0  0  0  0  0
    1.8124    0.1856    0.0000 C   0  0  0  0  0  0  0  0  0  0  0  0
    2.8228    1.1960    0.0000 C   0  0  0  0  0  0  0  0  0  0  0  0
    2.6093    0.3991    0.0000 C   0  0  0  0  0  0  0  0  0  0  0  0
   -3.9338    2.9742    0.0000 C   0  0  0  0  0  0  0  0  0  0  0  0
   -3.9338    2.1492    0.0000 C   0  0  0  0  0  0  0  0  0  0  0  0
    3.6197    1.4095    0.0000 C   0  0  0  0  0  0  0  0  0  0  0  0
  1 10  2  0  0  0  0
  2 19  1  0  0  0  0
  3  8  1  0  0  0  0
  3 11  1  0  0  0  0
  3 12  1  0  0  0  0
  4  9  2  0  0  0  0
  4 13  1  0  0  0  0
  5  9  1  0  0  0  0
  5 14  1  0  0  0  0
  6  8  1  0  0  0  0
  7  8  2  0  0  0  0
  7  9  1  0  0  0  0
  7 10  1  0  0  0  0
 10 11  1  0  0  0  0
 12 15  1  0  0  0  0
 12 16  2  0  0  0  0
 13 14  1  0  0  0  0
 13 17  2  0  0  0  0
 14 18  2  0  0  0  0
 15 19  2  0  0  0  0
 16 20  1  0  0  0  0
 17 22  1  0  0  0  0
 18 23  1  0  0  0  0
 19 21  1  0  0  0  0
 20 21  2  0  0  0  0
 20 24  1  0  0  0  0
 22 23  2  0  0  0  0
M  END
> <PUBCHEM_COMPOUND_ID_TYPE>
0

> <PUBCHEM_TOTAL_CHARGE>
0

> <PUBCHEM_SUBSTANCE_ID>
310938839

> <PUBCHEM_SUBSTANCE_VERSION>
1

> <PUBCHEM_EXT_DATASOURCE_NAME>
4488

> <PUBCHEM_EXT_DATASOURCE_REGID>
SCHEMBL16116758

> <PUBCHEM_SUBSTANCE_COMMENT>
InChI=1S/C18H16N4O2/c1-10-6-11(8-12(23)7-10)22-9-15(24)16(17(22)19)18-20-13-4-2-3-5-14(13)21-18/h2-8,23H,9,19H2,1H3,(H,20,21)
InChIKey=BGBPLVXWYGLHPE-UHFFFAOYSA-N

> <PUBCHEM_SUBSTANCE_SYNONYM>
SCHEMBL16116758

> <PUBCHEM_XREF_EXT_ID>
SCHEMBL16116758

> <PUBCHEM_EXT_DATASOURCE_URL>
https://www.surechembl.org/

> <PUBCHEM_EXT_SUBSTANCE_URL>
https://www.surechembl.org/chemical/SCHEMBL16116758

> <PUBCHEM_CID_ASSOCIATIONS>
117606239  1

> <PUBCHEM_COORDINATE_TYPE>
1
3

$$$$
