310940942
  -OEChem-07211613022D

 32 32  0     1  0  0  0  0  0999 V2000
   -0.8658   -2.2494    0.0000 O   0  0  0  0  0  0  0  0  0  0  0  0
   -1.4466   -1.2690    0.0000 O   0  0  0  0  0  0  0  0  0  0  0  0
    1.4466   -0.4230    0.0000 O   0  0  0  0  0  0  0  0  0  0  0  0
    0.7191    0.8291    0.0000 O   0  0  0  0  0  0  0  0  0  0  0  0
   -1.4466    1.2352    0.0000 O   0  0  0  0  0  0  0  0  0  0  0  0
   -1.3622   -3.0660    0.0000 O   0  0  0  0  0  0  0  0  0  0  0  0
    2.8848   -2.9441    0.0000 O   0  0  0  0  0  0  0  0  0  0  0  0
   -0.7191   -0.0169    0.0000 N   0  0  0  0  0  0  0  0  0  0  0  0
   -2.8848   -0.4399    0.0000 N   0  0  0  0  0  0  0  0  0  0  0  0
    0.0084   -0.4230    0.0000 C   0  0  3  0  0  0  0  0  0  0  0  0
   -1.4297   -0.4060    0.0000 C   0  0  0  0  0  0  0  0  0  0  0  0
   -2.1743   -0.0169    0.0000 C   0  0  3  0  0  0  0  0  0  0  0  0
    0.7191   -1.6750    0.0000 C   0  0  0  0  0  0  0  0  0  0  0  0
   -0.0084   -1.2859    0.0000 C   0  0  0  0  0  0  0  0  0  0  0  0
    0.7022   -0.0339    0.0000 C   0  0  0  0  0  0  0  0  0  0  0  0
   -1.3622   -2.5363    0.0000 C   0  0  0  0  0  0  0  0  0  0  0  0
   -2.1573    0.8122    0.0000 C   0  0  0  0  0  0  0  0  0  0  0  0
    0.7361   -2.5211    0.0000 C   0  0  0  0  0  0  0  0  0  0  0  0
    1.4466   -1.2859    0.0000 C   0  0  0  0  0  0  0  0  0  0  0  0
   -0.8547   -1.6977    0.0000 C   0  0  0  0  0  0  0  0  0  0  0  0
    2.1573   -2.5041    0.0000 C   0  0  0  0  0  0  0  0  0  0  0  0
    1.4636   -2.9271    0.0000 C   0  0  0  0  0  0  0  0  0  0  0  0
    2.1743   -1.6750    0.0000 C   0  0  0  0  0  0  0  0  0  0  0  0
   -0.3581   -1.6756    0.0000 C   0  0  0  0  0  0  0  0  0  0  0  0
   -1.3622   -1.6977    0.0000 C   0  0  0  0  0  0  0  0  0  0  0  0
   -0.8658   -1.1571    0.0000 C   0  0  0  0  0  0  0  0  0  0  0  0
   -1.4805    2.0135    0.0000 C   0  0  0  0  0  0  0  0  0  0  0  0
    2.1235    0.0169    0.0000 C   0  0  0  0  0  0  0  0  0  0  0  0
    2.8848   -3.7562    0.0000 C   0  0  0  0  0  0  0  0  0  0  0  0
   -0.8206    2.4872    0.0000 C   0  0  0  0  0  0  0  0  0  0  0  0
   -0.9052    3.2994    0.0000 C   0  0  0  0  0  0  0  0  0  0  0  0
   -0.2284    3.7562    0.0000 C   0  0  0  0  0  0  0  0  0  0  0  0
  1 16  1  0  0  0  0
  1 20  1  0  0  0  0
  2 11  2  0  0  0  0
  3 15  1  0  0  0  0
  3 28  1  0  0  0  0
  4 15  2  0  0  0  0
  5 17  1  0  0  0  0
  5 27  1  0  0  0  0
  6 16  2  0  0  0  0
  7 21  1  0  0  0  0
  7 29  1  0  0  0  0
 10  8  1  6  0  0  0
  8 11  1  0  0  0  0
 12  9  1  1  0  0  0
  9 16  1  0  0  0  0
 10 14  1  0  0  0  0
 10 15  1  0  0  0  0
 11 12  1  0  0  0  0
 12 17  1  0  0  0  0
 13 14  1  0  0  0  0
 13 18  2  0  0  0  0
 13 19  1  0  0  0  0
 18 22  1  0  0  0  0
 19 23  2  0  0  0  0
 20 24  1  0  0  0  0
 20 25  1  0  0  0  0
 20 26  1  0  0  0  0
 21 22  2  0  0  0  0
 21 23  1  0  0  0  0
 27 30  1  0  0  0  0
 30 31  1  0  0  0  0
 31 32  1  0  0  0  0
M  END
> <PUBCHEM_COMPOUND_ID_TYPE>
0

> <PUBCHEM_TOTAL_CHARGE>
0

> <PUBCHEM_SUBSTANCE_ID>
310940942

> <PUBCHEM_SUBSTANCE_VERSION>
1

> <PUBCHEM_EXT_DATASOURCE_NAME>
4488

> <PUBCHEM_EXT_DATASOURCE_REGID>
SCHEMBL16118901

> <PUBCHEM_SUBSTANCE_COMMENT>
InChI=1S/C23H36N2O7/c1-7-8-13-31-15-19(25-22(28)32-23(2,3)4)20(26)24-18(21(27)30-6)14-16-9-11-17(29-5)12-10-16/h9-12,18-19H,7-8,13-15H2,1-6H3,(H,24,26)(H,25,28)/t18-,19-/m0/s1
InChIKey=NKXCKCCMKLMPMP-OALUTQOASA-N

> <PUBCHEM_SUBSTANCE_SYNONYM>
SCHEMBL16118901

> <PUBCHEM_XREF_EXT_ID>
SCHEMBL16118901

> <PUBCHEM_EXT_DATASOURCE_URL>
https://www.surechembl.org/

> <PUBCHEM_EXT_SUBSTANCE_URL>
https://www.surechembl.org/chemical/SCHEMBL16118901

> <PUBCHEM_CID_ASSOCIATIONS>
117607850  1

> <PUBCHEM_COORDINATE_TYPE>
1
3

> <PUBCHEM_BONDANNOTATIONS>
10  8  6
12  9  5

$$$$
