310943185
  -OEChem-07211613022D

 40 44  0     0  0  0  0  0  0999 V2000
   -4.3396   -0.2060    0.0000 O   0  0  0  0  0  0  0  0  0  0  0  0
   -5.7665    2.2801    0.0000 O   0  0  0  0  0  0  0  0  0  0  0  0
    1.4122    2.2654    0.0000 O   0  0  0  0  0  0  0  0  0  0  0  0
   -4.3396   -2.6920    0.0000 O   0  0  0  0  0  0  0  0  0  0  0  0
   -4.3396    1.4563    0.0000 N   0  0  0  0  0  0  0  0  0  0  0  0
   -2.1772    0.2207    0.0000 N   0  0  0  0  0  0  0  0  0  0  0  0
   -2.8980   -0.2060    0.0000 N   0  0  0  0  0  0  0  0  0  0  0  0
   -0.7502    2.6920    0.0000 N   0  0  0  0  0  0  0  0  0  0  0  0
    0.6914    1.0445    0.0000 N   0  0  0  0  0  0  0  0  0  0  0  0
    3.5599    0.2060    0.0000 N   0  0  0  0  0  0  0  0  0  0  0  0
    2.8686   -0.2207    0.0000 N   0  0  0  0  0  0  0  0  0  0  0  0
    5.7665    0.6325    0.0000 N   0  0  0  0  0  0  0  0  0  0  0  0
   -3.6188    1.0445    0.0000 C   0  0  0  0  0  0  0  0  0  0  0  0
   -2.1772    1.0445    0.0000 C   0  0  0  0  0  0  0  0  0  0  0  0
   -1.4710    1.4563    0.0000 C   0  0  0  0  0  0  0  0  0  0  0  0
   -3.6335    0.2207    0.0000 C   0  0  0  0  0  0  0  0  0  0  0  0
   -2.8980    1.4563    0.0000 C   0  0  0  0  0  0  0  0  0  0  0  0
   -1.4563    2.2801    0.0000 C   0  0  0  0  0  0  0  0  0  0  0  0
   -0.7355    1.0445    0.0000 C   0  0  0  0  0  0  0  0  0  0  0  0
   -0.0294    1.4563    0.0000 C   0  0  0  0  0  0  0  0  0  0  0  0
    2.1331    1.0445    0.0000 C   0  0  0  0  0  0  0  0  0  0  0  0
    3.5599    1.0445    0.0000 C   0  0  0  0  0  0  0  0  0  0  0  0
    1.3975    1.4416    0.0000 C   0  0  0  0  0  0  0  0  0  0  0  0
   -0.0294    2.2801    0.0000 C   0  0  0  0  0  0  0  0  0  0  0  0
    4.3102    1.4857    0.0000 C   0  0  0  0  0  0  0  0  0  0  0  0
   -4.3396    2.2801    0.0000 C   0  0  0  0  0  0  0  0  0  0  0  0
   -5.0457    1.0445    0.0000 C   0  0  0  0  0  0  0  0  0  0  0  0
   -4.3396   -1.0150    0.0000 C   0  0  0  0  0  0  0  0  0  0  0  0
    2.8392    1.4563    0.0000 C   0  0  0  0  0  0  0  0  0  0  0  0
    2.1331    0.2207    0.0000 C   0  0  0  0  0  0  0  0  0  0  0  0
   -2.1919    2.6773    0.0000 C   0  0  0  0  0  0  0  0  0  0  0  0
   -5.0751    2.6920    0.0000 C   0  0  0  0  0  0  0  0  0  0  0  0
   -5.7518    1.4416    0.0000 C   0  0  0  0  0  0  0  0  0  0  0  0
    5.0457    1.0298    0.0000 C   0  0  0  0  0  0  0  0  0  0  0  0
   -5.0457   -1.4416    0.0000 C   0  0  0  0  0  0  0  0  0  0  0  0
   -3.6041   -1.4563    0.0000 C   0  0  0  0  0  0  0  0  0  0  0  0
    4.2955    2.3537    0.0000 C   0  0  0  0  0  0  0  0  0  0  0  0
    4.9133    2.0448    0.0000 C   0  0  0  0  0  0  0  0  0  0  0  0
   -5.0457   -2.2654    0.0000 C   0  0  0  0  0  0  0  0  0  0  0  0
   -3.6188   -2.2654    0.0000 C   0  0  0  0  0  0  0  0  0  0  0  0
  1 16  1  0  0  0  0
  1 28  1  0  0  0  0
  2 32  1  0  0  0  0
  2 33  1  0  0  0  0
  3 23  2  0  0  0  0
  4 39  1  0  0  0  0
  4 40  1  0  0  0  0
  5 13  1  0  0  0  0
  5 26  1  0  0  0  0
  5 27  1  0  0  0  0
  6  7  1  0  0  0  0
  6 14  2  0  0  0  0
  7 16  2  0  0  0  0
  8 18  1  0  0  0  0
  8 24  2  0  0  0  0
  9 20  1  0  0  0  0
  9 23  1  0  0  0  0
 10 11  1  0  0  0  0
 10 22  2  0  0  0  0
 11 30  2  0  0  0  0
 12 34  3  0  0  0  0
 13 16  1  0  0  0  0
 13 17  2  0  0  0  0
 14 15  1  0  0  0  0
 14 17  1  0  0  0  0
 15 18  2  0  0  0  0
 15 19  1  0  0  0  0
 18 31  1  0  0  0  0
 19 20  2  0  0  0  0
 20 24  1  0  0  0  0
 21 23  1  0  0  0  0
 21 29  2  0  0  0  0
 21 30  1  0  0  0  0
 22 25  1  0  0  0  0
 22 29  1  0  0  0  0
 25 34  1  0  0  0  0
 25 37  1  0  0  0  0
 25 38  1  0  0  0  0
 26 32  1  0  0  0  0
 27 33  1  0  0  0  0
 28 35  1  0  0  0  0
 28 36  1  0  0  0  0
 35 39  1  0  0  0  0
 36 40  1  0  0  0  0
M  END
> <PUBCHEM_COMPOUND_ID_TYPE>
0

> <PUBCHEM_TOTAL_CHARGE>
0

> <PUBCHEM_SUBSTANCE_ID>
310943185

> <PUBCHEM_SUBSTANCE_VERSION>
1

> <PUBCHEM_EXT_DATASOURCE_NAME>
4488

> <PUBCHEM_EXT_DATASOURCE_REGID>
SCHEMBL16121246

> <PUBCHEM_SUBSTANCE_COMMENT>
InChI=1S/C28H32N8O4/c1-18-22(13-20(16-30-18)32-26(37)19-12-25(34-31-15-19)28(2,3)17-29)23-14-24(36-6-10-39-11-7-36)27(35-33-23)40-21-4-8-38-9-5-21/h12-16,21H,4-11H2,1-3H3,(H,32,37)
InChIKey=AMQHWJWSTZJMPB-UHFFFAOYSA-N

> <PUBCHEM_SUBSTANCE_SYNONYM>
SCHEMBL16121246

> <PUBCHEM_XREF_EXT_ID>
SCHEMBL16121246

> <PUBCHEM_EXT_DATASOURCE_URL>
https://www.surechembl.org/

> <PUBCHEM_EXT_SUBSTANCE_URL>
https://www.surechembl.org/chemical/SCHEMBL16121246

> <PUBCHEM_CID_ASSOCIATIONS>
117609613  1

> <PUBCHEM_COORDINATE_TYPE>
1
3

$$$$
