310948445
  -OEChem-07211613022D

 31 35  0     1  0  0  0  0  0999 V2000
   -2.3076    2.3987    0.0000 O   0  0  0  0  0  0  0  0  0  0  0  0
   -2.6416   -3.7044    0.0000 O   0  0  0  0  0  0  0  0  0  0  0  0
    0.3340    1.6852    0.0000 N   0  0  0  0  0  0  0  0  0  0  0  0
   -0.1518    1.0324    0.0000 N   0  0  0  0  0  0  0  0  0  0  0  0
   -1.5789    0.8046    0.0000 N   0  0  0  0  0  0  0  0  0  0  0  0
   -2.7631   -2.1559    0.0000 N   0  0  0  0  0  0  0  0  0  0  0  0
   -1.3512    3.4463    0.0000 N   0  0  0  0  0  0  0  0  0  0  0  0
    0.6984   -0.4099    0.0000 N   0  0  0  0  0  0  0  0  0  0  0  0
   -0.9109    2.1103    0.0000 C   0  0  0  0  0  0  0  0  0  0  0  0
   -0.1670    2.3532    0.0000 C   0  0  0  0  0  0  0  0  0  0  0  0
   -0.9261    1.2905    0.0000 C   0  0  0  0  0  0  0  0  0  0  0  0
   -1.3967   -2.7631    0.0000 C   0  0  0  0  0  0  0  0  0  0  0  0
   -1.2905   -1.8370    0.0000 C   0  0  0  0  0  0  0  0  0  0  0  0
   -2.1407   -1.4726    0.0000 C   0  0  0  0  0  0  0  0  0  0  0  0
    1.1994    1.7004    0.0000 C   0  0  3  0  0  0  0  0  0  0  0  0
   -1.5333    2.6569    0.0000 C   0  0  0  0  0  0  0  0  0  0  0  0
   -2.2925   -2.9301    0.0000 C   0  0  0  0  0  0  0  0  0  0  0  0
   -1.5030   -0.0151    0.0000 C   0  0  0  0  0  0  0  0  0  0  0  0
   -2.2165   -0.5314    0.0000 C   0  0  0  0  0  0  0  0  0  0  0  0
    0.0151    3.1579    0.0000 C   0  0  0  0  0  0  0  0  0  0  0  0
   -0.5617   -1.3056    0.0000 C   0  0  0  0  0  0  0  0  0  0  0  0
    1.5182    1.0172    0.0000 C   0  0  3  0  0  0  0  0  0  0  0  0
   -0.6528   -0.3948    0.0000 C   0  0  0  0  0  0  0  0  0  0  0  0
   -0.5921    3.7044    0.0000 C   0  0  0  0  0  0  0  0  0  0  0  0
    1.5333    2.3987    0.0000 C   0  0  0  0  0  0  0  0  0  0  0  0
   -0.5921   -2.9301    0.0000 C   0  0  0  0  0  0  0  0  0  0  0  0
   -1.1387   -3.5526    0.0000 C   0  0  0  0  0  0  0  0  0  0  0  0
    2.3836    1.0324    0.0000 C   0  0  0  0  0  0  0  0  0  0  0  0
    1.0931    0.3188    0.0000 C   0  0  0  0  0  0  0  0  0  0  0  0
    2.3380    2.4291    0.0000 C   0  0  0  0  0  0  0  0  0  0  0  0
    2.7631    1.7459    0.0000 C   0  0  0  0  0  0  0  0  0  0  0  0
  1 16  2  0  0  0  0
  2 17  2  0  0  0  0
  3  4  1  0  0  0  0
  3 10  1  0  0  0  0
  3 15  1  0  0  0  0
  4 11  2  0  0  0  0
  5 11  1  0  0  0  0
  5 18  1  0  0  0  0
  6 14  1  0  0  0  0
  6 17  1  0  0  0  0
  7 16  1  0  0  0  0
  7 24  1  0  0  0  0
  8 29  3  0  0  0  0
  9 10  2  0  0  0  0
  9 11  1  0  0  0  0
  9 16  1  0  0  0  0
 10 20  1  0  0  0  0
 12 13  1  0  0  0  0
 12 17  1  0  0  0  0
 12 26  1  0  0  0  0
 12 27  1  0  0  0  0
 13 14  2  0  0  0  0
 13 21  1  0  0  0  0
 14 19  1  0  0  0  0
 15 22  1  0  0  0  0
 15 25  1  0  0  0  0
 18 19  2  0  0  0  0
 18 23  1  0  0  0  0
 20 24  2  0  0  0  0
 21 23  2  0  0  0  0
 22 28  1  0  0  0  0
 22 29  1  6  0  0  0
 25 30  1  0  0  0  0
 28 31  1  0  0  0  0
 30 31  1  0  0  0  0
M  END
> <PUBCHEM_COMPOUND_ID_TYPE>
0

> <PUBCHEM_TOTAL_CHARGE>
0

> <PUBCHEM_SUBSTANCE_ID>
310948445

> <PUBCHEM_SUBSTANCE_VERSION>
1

> <PUBCHEM_EXT_DATASOURCE_NAME>
4488

> <PUBCHEM_EXT_DATASOURCE_REGID>
SCHEMBL16126626

> <PUBCHEM_SUBSTANCE_COMMENT>
InChI=1S/C23H24N6O2/c1-23(2)15-8-7-14(11-16(15)27-22(23)31)26-20-19-18(9-10-25-21(19)30)29(28-20)17-6-4-3-5-13(17)12-24/h7-11,13,17H,3-6H2,1-2H3,(H,25,30)(H,26,28)(H,27,31)/t13-,17?/m1/s1
InChIKey=AWXQBRALIQERFI-FWJOYPJLSA-N

> <PUBCHEM_SUBSTANCE_SYNONYM>
SCHEMBL16126626

> <PUBCHEM_XREF_EXT_ID>
SCHEMBL16126626

> <PUBCHEM_EXT_DATASOURCE_URL>
https://www.surechembl.org/

> <PUBCHEM_EXT_SUBSTANCE_URL>
https://www.surechembl.org/chemical/SCHEMBL16126626

> <PUBCHEM_CID_ASSOCIATIONS>
117614003  1

> <PUBCHEM_COORDINATE_TYPE>
1
3

> <PUBCHEM_BONDANNOTATIONS>
22  29  6

$$$$
