310932813
  -OEChem-07211613022D

 15 16  0     0  0  0  0  0  0999 V2000
    2.6556   -3.3404    0.0000 Br  0  0  0  0  0  0  0  0  0  0  0  0
    0.0000   -0.3007    0.0000 O   0  0  0  0  0  0  0  0  0  0  0  0
    1.3194   -0.8017    0.0000 N   0  0  0  0  0  0  0  0  0  0  0  0
    1.9542   -1.3027    0.0000 C   0  0  0  0  0  0  0  0  0  0  0  0
    1.9542   -2.0878    0.0000 C   0  0  0  0  0  0  0  0  0  0  0  0
    2.6556   -2.5220    0.0000 C   0  0  0  0  0  0  0  0  0  0  0  0
    3.3738   -2.0878    0.0000 C   0  0  0  0  0  0  0  0  0  0  0  0
    2.6556   -0.8685    0.0000 C   0  0  0  0  0  0  0  0  0  0  0  0
    0.5010   -0.9520    0.0000 C   0  0  0  0  0  0  0  0  0  0  0  0
    1.3194   -2.6055    0.0000 C   0  0  0  0  0  0  0  0  0  0  0  0
    3.3738   -1.3027    0.0000 C   0  0  0  0  0  0  0  0  0  0  0  0
    0.1503   -1.6869    0.0000 C   0  0  0  0  0  0  0  0  0  0  0  0
    0.5010   -2.4385    0.0000 C   0  0  0  0  0  0  0  0  0  0  0  0
    1.5366    0.0000    0.0000 C   0  0  0  0  0  0  0  0  0  0  0  0
    4.0753   -2.4886    0.0000 C   0  0  0  0  0  0  0  0  0  0  0  0
  1  6  1  0  0  0  0
  2  9  2  0  0  0  0
  3  4  1  0  0  0  0
  3  9  1  0  0  0  0
  3 14  1  0  0  0  0
  4  5  2  0  0  0  0
  4  8  1  0  0  0  0
  5  6  1  0  0  0  0
  5 10  1  0  0  0  0
  6  7  2  0  0  0  0
  7 11  1  0  0  0  0
  7 15  1  0  0  0  0
  8 11  2  0  0  0  0
  9 12  1  0  0  0  0
 10 13  1  0  0  0  0
 12 13  1  0  0  0  0
M  END
> <PUBCHEM_COMPOUND_ID_TYPE>
0

> <PUBCHEM_TOTAL_CHARGE>
0

> <PUBCHEM_SUBSTANCE_ID>
310932813

> <PUBCHEM_SUBSTANCE_VERSION>
1

> <PUBCHEM_EXT_DATASOURCE_NAME>
4488

> <PUBCHEM_EXT_DATASOURCE_REGID>
SCHEMBL16110201

> <PUBCHEM_SUBSTANCE_COMMENT>
InChI=1S/C12H14BrNO/c1-8-6-7-10-9(12(8)13)4-3-5-11(15)14(10)2/h6-7H,3-5H2,1-2H3
InChIKey=VJLPMZTZQYMBIG-UHFFFAOYSA-N

> <PUBCHEM_SUBSTANCE_SYNONYM>
SCHEMBL16110201

> <PUBCHEM_XREF_EXT_ID>
SCHEMBL16110201

> <PUBCHEM_EXT_DATASOURCE_URL>
https://www.surechembl.org/

> <PUBCHEM_EXT_SUBSTANCE_URL>
https://www.surechembl.org/chemical/SCHEMBL16110201

> <PUBCHEM_CID_ASSOCIATIONS>
117601303  1

> <PUBCHEM_COORDINATE_TYPE>
1
3

$$$$
