310949814
  -OEChem-07211613022D

 20 21  0     0  0  0  0  0  0999 V2000
   -0.6300   -0.0219    0.0000 O   0  0  0  0  0  0  0  0  0  0  0  0
    0.1917   -1.4572    0.0000 O   0  0  0  0  0  0  0  0  0  0  0  0
    3.1062    0.7122    0.0000 O   0  0  0  0  0  0  0  0  0  0  0  0
    3.1172   -0.6903    0.0000 O   0  0  0  0  0  0  0  0  0  0  0  0
   -0.6519    1.4244    0.0000 N   0  0  0  0  0  0  0  0  0  0  0  0
   -3.1172   -0.0328    0.0000 N   0  0  0  0  0  0  0  0  0  0  0  0
    0.1808    0.0219    0.0000 C   0  0  0  0  0  0  0  0  0  0  0  0
    0.5862   -0.6903    0.0000 C   0  0  0  0  0  0  0  0  0  0  0  0
   -1.0573    0.7232    0.0000 C   0  0  0  0  0  0  0  0  0  0  0  0
    1.8243    0.0548    0.0000 C   0  0  0  0  0  0  0  0  0  0  0  0
    1.4298   -0.6793    0.0000 C   0  0  0  0  0  0  0  0  0  0  0  0
   -1.8900    0.7232    0.0000 C   0  0  0  0  0  0  0  0  0  0  0  0
    0.5862    0.7341    0.0000 C   0  0  0  0  0  0  0  0  0  0  0  0
    1.4079    0.7670    0.0000 C   0  0  0  0  0  0  0  0  0  0  0  0
    2.6899    0.0328    0.0000 C   0  0  0  0  0  0  0  0  0  0  0  0
   -2.2954    1.4134    0.0000 C   0  0  0  0  0  0  0  0  0  0  0  0
   -2.2954    0.0000    0.0000 C   0  0  0  0  0  0  0  0  0  0  0  0
   -1.0683    2.1475    0.0000 C   0  0  0  0  0  0  0  0  0  0  0  0
   -1.8900    2.1475    0.0000 C   0  0  0  0  0  0  0  0  0  0  0  0
    0.6300   -2.1475    0.0000 C   0  0  0  0  0  0  0  0  0  0  0  0
  1  7  1  0  0  0  0
  1  9  1  0  0  0  0
  2  8  1  0  0  0  0
  2 20  1  0  0  0  0
  3 15  2  0  0  0  0
  4 15  1  0  0  0  0
  5  9  1  0  0  0  0
  5 18  2  0  0  0  0
  6 17  1  0  0  0  0
  7  8  2  0  0  0  0
  7 13  1  0  0  0  0
  8 11  1  0  0  0  0
  9 12  2  0  0  0  0
 10 11  2  0  0  0  0
 10 14  1  0  0  0  0
 10 15  1  0  0  0  0
 12 16  1  0  0  0  0
 12 17  1  0  0  0  0
 13 14  2  0  0  0  0
 16 19  2  0  0  0  0
 18 19  1  0  0  0  0
M  END
> <PUBCHEM_COMPOUND_ID_TYPE>
0

> <PUBCHEM_TOTAL_CHARGE>
0

> <PUBCHEM_SUBSTANCE_ID>
310949814

> <PUBCHEM_SUBSTANCE_VERSION>
1

> <PUBCHEM_EXT_DATASOURCE_NAME>
4488

> <PUBCHEM_EXT_DATASOURCE_REGID>
SCHEMBL16128014

> <PUBCHEM_SUBSTANCE_COMMENT>
InChI=1S/C14H14N2O4/c1-19-12-7-9(14(17)18)4-5-11(12)20-13-10(8-15)3-2-6-16-13/h2-7H,8,15H2,1H3,(H,17,18)
InChIKey=ZNEYVJWCPYCWCT-UHFFFAOYSA-N

> <PUBCHEM_SUBSTANCE_SYNONYM>
SCHEMBL16128014

> <PUBCHEM_XREF_EXT_ID>
SCHEMBL16128014

> <PUBCHEM_EXT_DATASOURCE_URL>
https://www.surechembl.org/

> <PUBCHEM_EXT_SUBSTANCE_URL>
https://www.surechembl.org/chemical/SCHEMBL16128014

> <PUBCHEM_CID_ASSOCIATIONS>
117615134  1

> <PUBCHEM_COORDINATE_TYPE>
1
3

$$$$
