310934047
  -OEChem-07211613022D

 30 32  0     0  0  0  0  0  0999 V2000
   -7.3556   -0.0950    0.0000 O   0  0  0  0  0  0  0  0  0  0  0  0
    0.7145    1.2375    0.0000 O   0  0  0  0  0  0  0  0  0  0  0  0
    1.4290    0.0000    0.0000 O   0  0  0  0  0  0  0  0  0  0  0  0
   -6.4303   -1.2375    0.0000 N   0  0  0  0  0  0  0  0  0  0  0  0
   -6.5166   -2.0580    0.0000 N   0  0  0  0  0  0  0  0  0  0  0  0
   -5.7159    0.0000    0.0000 N   0  0  0  0  0  0  0  0  0  0  0  0
   -2.8579    0.0000    0.0000 N   0  0  0  0  0  0  0  0  0  0  0  0
  -11.8385   -1.0839    0.0000 N   0  0  0  0  0  0  0  0  0  0  0  0
    0.0000    0.0000    0.0000 N   0  0  0  0  0  0  0  0  0  0  0  0
   -7.7361   -1.5151    0.0000 C   0  0  0  0  0  0  0  0  0  0  0  0
   -7.1840   -0.9020    0.0000 C   0  0  0  0  0  0  0  0  0  0  0  0
   -5.7159   -0.8250    0.0000 C   0  0  0  0  0  0  0  0  0  0  0  0
   -8.5566   -1.4288    0.0000 C   0  0  0  0  0  0  0  0  0  0  0  0
   -7.3236   -2.2295    0.0000 C   0  0  0  0  0  0  0  0  0  0  0  0
   -5.0014   -1.2375    0.0000 C   0  0  0  0  0  0  0  0  0  0  0  0
   -8.8921   -0.6752    0.0000 C   0  0  0  0  0  0  0  0  0  0  0  0
   -9.0415   -2.0963    0.0000 C   0  0  0  0  0  0  0  0  0  0  0  0
   -4.2869    0.0000    0.0000 C   0  0  0  0  0  0  0  0  0  0  0  0
   -5.0014    0.4125    0.0000 C   0  0  0  0  0  0  0  0  0  0  0  0
   -4.2869   -0.8250    0.0000 C   0  0  0  0  0  0  0  0  0  0  0  0
  -10.1976   -1.2564    0.0000 C   0  0  0  0  0  0  0  0  0  0  0  0
   -9.7127   -0.5889    0.0000 C   0  0  0  0  0  0  0  0  0  0  0  0
   -9.8620   -2.0100    0.0000 C   0  0  0  0  0  0  0  0  0  0  0  0
   -3.5724    0.4125    0.0000 C   0  0  0  0  0  0  0  0  0  0  0  0
  -11.0181   -1.1701    0.0000 C   0  0  0  0  0  0  0  0  0  0  0  0
   -2.1434    0.4125    0.0000 C   0  0  0  0  0  0  0  0  0  0  0  0
   -1.4290    0.0000    0.0000 C   0  0  0  0  0  0  0  0  0  0  0  0
   -0.7145    0.4125    0.0000 C   0  0  0  0  0  0  0  0  0  0  0  0
    0.7145    0.4125    0.0000 C   0  0  0  0  0  0  0  0  0  0  0  0
    0.0000   -0.8250    0.0000 C   0  0  0  0  0  0  0  0  0  0  0  0
  1 11  1  0  0  0  0
  2 29  2  0  0  0  0
  3 29  1  0  0  0  0
  4  5  1  0  0  0  0
  4 11  1  0  0  0  0
  4 12  1  0  0  0  0
  5 14  2  0  0  0  0
  6 12  2  0  0  0  0
  6 19  1  0  0  0  0
  7 24  1  0  0  0  0
  7 26  1  0  0  0  0
  8 25  3  0  0  0  0
  9 28  1  0  0  0  0
  9 29  1  0  0  0  0
  9 30  1  0  0  0  0
 10 11  2  0  0  0  0
 10 13  1  0  0  0  0
 10 14  1  0  0  0  0
 12 15  1  0  0  0  0
 13 16  2  0  0  0  0
 13 17  1  0  0  0  0
 15 20  2  0  0  0  0
 16 22  1  0  0  0  0
 17 23  2  0  0  0  0
 18 19  2  0  0  0  0
 18 20  1  0  0  0  0
 18 24  1  0  0  0  0
 21 22  2  0  0  0  0
 21 23  1  0  0  0  0
 21 25  1  0  0  0  0
 26 27  1  0  0  0  0
 27 28  1  0  0  0  0
M  END
> <PUBCHEM_COMPOUND_ID_TYPE>
0

> <PUBCHEM_TOTAL_CHARGE>
0

> <PUBCHEM_SUBSTANCE_ID>
310934047

> <PUBCHEM_SUBSTANCE_VERSION>
1

> <PUBCHEM_EXT_DATASOURCE_NAME>
4488

> <PUBCHEM_EXT_DATASOURCE_REGID>
SCHEMBL16111491

> <PUBCHEM_SUBSTANCE_COMMENT>
InChI=1S/C21H22N6O3/c1-26(21(29)30)10-2-9-23-12-16-5-8-19(24-13-16)27-20(28)18(14-25-27)17-6-3-15(11-22)4-7-17/h3-8,13-14,23,28H,2,9-10,12H2,1H3,(H,29,30)
InChIKey=JPSBEFKKSMRCIK-UHFFFAOYSA-N

> <PUBCHEM_SUBSTANCE_SYNONYM>
SCHEMBL16111491

> <PUBCHEM_XREF_EXT_ID>
SCHEMBL16111491

> <PUBCHEM_EXT_DATASOURCE_URL>
https://www.surechembl.org/

> <PUBCHEM_EXT_SUBSTANCE_URL>
https://www.surechembl.org/chemical/SCHEMBL16111491

> <PUBCHEM_CID_ASSOCIATIONS>
117602344  1

> <PUBCHEM_COORDINATE_TYPE>
1
3

$$$$
