310944098
  -OEChem-07211613022D

 33 37  0     1  0  0  0  0  0999 V2000
    2.1785    1.2861    0.0000 O   0  0  0  0  0  0  0  0  0  0  0  0
    4.7285    1.3415    0.0000 O   0  0  0  0  0  0  0  0  0  0  0  0
    5.9147    0.4656    0.0000 O   0  0  0  0  0  0  0  0  0  0  0  0
   -1.0477   -1.0311    0.0000 O   0  0  0  0  0  0  0  0  0  0  0  0
    3.0100    0.0665    0.0000 N   0  0  0  0  0  0  0  0  0  0  0  0
    0.0388    0.2218    0.0000 N   0  0  0  0  0  0  0  0  0  0  0  0
   -4.5843    0.3769    0.0000 N   0  0  0  0  0  0  0  0  0  0  0  0
   -3.4978   -0.5543    0.0000 N   0  0  0  0  0  0  0  0  0  0  0  0
   -4.9613    1.1197    0.0000 N   0  0  0  0  0  0  0  0  0  0  0  0
   -5.7817    0.9867    0.0000 N   0  0  0  0  0  0  0  0  0  0  0  0
   -5.9147    0.1663    0.0000 N   0  0  0  0  0  0  0  0  0  0  0  0
    1.6796   -0.0887    0.0000 C   0  0  0  0  0  0  0  0  0  0  0  0
    2.2783    0.4546    0.0000 C   0  0  0  0  0  0  0  0  0  0  0  0
    2.8437   -0.7317    0.0000 C   0  0  3  0  0  0  0  0  0  0  0  0
    3.7528    0.4324    0.0000 C   0  0  0  0  0  0  0  0  0  0  0  0
    2.0233   -0.8315    0.0000 C   0  0  0  0  0  0  0  0  0  0  0  0
    1.1364   -0.7096    0.0000 C   0  0  0  0  0  0  0  0  0  0  0  0
    1.4025    0.6874    0.0000 C   0  0  0  0  0  0  0  0  0  0  0  0
    4.4956    0.0332    0.0000 C   0  0  0  0  0  0  0  0  0  0  0  0
    3.9080    1.2417    0.0000 C   0  0  0  0  0  0  0  0  0  0  0  0
    5.0721    0.6209    0.0000 C   0  0  0  0  0  0  0  0  0  0  0  0
    0.3160   -0.5543    0.0000 C   0  0  0  0  0  0  0  0  0  0  0  0
    0.5820    0.8425    0.0000 C   0  0  0  0  0  0  0  0  0  0  0  0
    3.4313   -1.3415    0.0000 C   0  0  0  0  0  0  0  0  0  0  0  0
   -0.7705    0.3769    0.0000 C   0  0  0  0  0  0  0  0  0  0  0  0
    4.6286   -0.7983    0.0000 C   0  0  0  0  0  0  0  0  0  0  0  0
   -1.3138   -0.2328    0.0000 C   0  0  3  0  0  0  0  0  0  0  0  0
   -2.1341   -0.0665    0.0000 C   0  0  0  0  0  0  0  0  0  0  0  0
   -3.7639    0.2328    0.0000 C   0  0  0  0  0  0  0  0  0  0  0  0
   -2.6774   -0.7096    0.0000 C   0  0  0  0  0  0  0  0  0  0  0  0
   -2.4113    0.6984    0.0000 C   0  0  0  0  0  0  0  0  0  0  0  0
   -3.2206    0.8537    0.0000 C   0  0  0  0  0  0  0  0  0  0  0  0
   -5.1719   -0.1996    0.0000 C   0  0  0  0  0  0  0  0  0  0  0  0
  1 13  2  0  0  0  0
  2 20  1  0  0  0  0
  2 21  1  0  0  0  0
  3 21  2  0  0  0  0
 27  4  1  6  0  0  0
  5 13  1  0  0  0  0
  5 14  1  0  0  0  0
  5 15  1  0  0  0  0
  6 22  1  0  0  0  0
  6 23  1  0  0  0  0
  6 25  1  0  0  0  0
  7  9  1  0  0  0  0
  7 29  1  0  0  0  0
  7 33  1  0  0  0  0
  8 29  1  0  0  0  0
  8 30  2  0  0  0  0
  9 10  2  0  0  0  0
 10 11  1  0  0  0  0
 11 33  2  0  0  0  0
 12 13  1  0  0  0  0
 12 16  1  0  0  0  0
 12 17  1  0  0  0  0
 12 18  1  0  0  0  0
 14 16  1  0  0  0  0
 14 24  1  0  0  0  0
 15 19  2  0  0  0  0
 15 20  1  0  0  0  0
 17 22  1  0  0  0  0
 18 23  1  0  0  0  0
 19 21  1  0  0  0  0
 19 26  1  0  0  0  0
 25 27  1  0  0  0  0
 27 28  1  0  0  0  0
 28 30  1  0  0  0  0
 28 31  2  0  0  0  0
 29 32  2  0  0  0  0
 31 32  1  0  0  0  0
M  END
> <PUBCHEM_COMPOUND_ID_TYPE>
0

> <PUBCHEM_TOTAL_CHARGE>
0

> <PUBCHEM_SUBSTANCE_ID>
310944098

> <PUBCHEM_SUBSTANCE_VERSION>
1

> <PUBCHEM_EXT_DATASOURCE_NAME>
4488

> <PUBCHEM_EXT_DATASOURCE_REGID>
SCHEMBL16122173

> <PUBCHEM_SUBSTANCE_COMMENT>
InChI=1S/C22H27N7O4/c1-14-9-22(21(32)29(14)17-12-33-20(31)15(17)2)5-7-27(8-6-22)11-18(30)16-3-4-19(23-10-16)28-13-24-25-26-28/h3-4,10,13-14,18,30H,5-9,11-12H2,1-2H3/t14?,18-/m0/s1
InChIKey=LCFIOHFCOGNGNE-IBYPIGCZSA-N

> <PUBCHEM_SUBSTANCE_SYNONYM>
SCHEMBL16122173

> <PUBCHEM_XREF_EXT_ID>
SCHEMBL16122173

> <PUBCHEM_EXT_DATASOURCE_URL>
https://www.surechembl.org/

> <PUBCHEM_EXT_SUBSTANCE_URL>
https://www.surechembl.org/chemical/SCHEMBL16122173

> <PUBCHEM_CID_ASSOCIATIONS>
117610390  1

> <PUBCHEM_COORDINATE_TYPE>
1
3

> <PUBCHEM_BONDANNOTATIONS>
27  4  6

$$$$
