310948245
  -OEChem-07211613022D

 30 33  0     1  0  0  0  0  0999 V2000
    3.3848   -1.4047    0.0000 F   0  0  0  0  0  0  0  0  0  0  0  0
    3.8644   -2.0761    0.0000 F   0  0  0  0  0  0  0  0  0  0  0  0
    3.5356   -2.8299    0.0000 F   0  0  0  0  0  0  0  0  0  0  0  0
    0.1097   -1.3362    0.0000 O   0  0  0  0  0  0  0  0  0  0  0  0
   -1.8500    0.6235    0.0000 N   0  0  0  0  0  0  0  0  0  0  0  0
   -1.0964    0.9661    0.0000 N   0  0  0  0  0  0  0  0  0  0  0  0
    0.2740    0.4316    0.0000 N   0  0  0  0  0  0  0  0  0  0  0  0
   -1.2608   -1.7746    0.0000 N   0  0  0  0  0  0  0  0  0  0  0  0
    1.8911   -2.9943    0.0000 N   0  0  0  0  0  0  0  0  0  0  0  0
   -1.4663    2.9943    0.0000 N   0  0  0  0  0  0  0  0  0  0  0  0
   -0.9593   -0.3769    0.0000 C   0  0  0  0  0  0  0  0  0  0  0  0
   -1.7678   -0.1850    0.0000 C   0  0  0  0  0  0  0  0  0  0  0  0
   -0.5344    0.3495    0.0000 C   0  0  0  0  0  0  0  0  0  0  0  0
   -2.5901    1.0484    0.0000 C   0  0  3  0  0  0  0  0  0  0  0  0
   -0.7126   -1.1306    0.0000 C   0  0  0  0  0  0  0  0  0  0  0  0
   -2.3159   -0.8292    0.0000 C   0  0  0  0  0  0  0  0  0  0  0  0
   -2.6723    1.8569    0.0000 C   0  0  3  0  0  0  0  0  0  0  0  0
    0.7674   -0.2261    0.0000 C   0  0  0  0  0  0  0  0  0  0  0  0
   -3.3300    0.7057    0.0000 C   0  0  0  0  0  0  0  0  0  0  0  0
   -2.0556   -1.5965    0.0000 C   0  0  0  0  0  0  0  0  0  0  0  0
   -3.4671    2.0213    0.0000 C   0  0  0  0  0  0  0  0  0  0  0  0
   -3.8644    1.3088    0.0000 C   0  0  0  0  0  0  0  0  0  0  0  0
    1.7404   -1.5691    0.0000 C   0  0  0  0  0  0  0  0  0  0  0  0
    1.5896   -0.1576    0.0000 C   0  0  0  0  0  0  0  0  0  0  0  0
    0.4385   -0.9935    0.0000 C   0  0  0  0  0  0  0  0  0  0  0  0
    2.2200   -2.2406    0.0000 C   0  0  3  0  0  0  0  0  0  0  0  0
   -2.0418    2.3913    0.0000 C   0  0  0  0  0  0  0  0  0  0  0  0
    3.0560   -2.1583    0.0000 C   0  0  0  0  0  0  0  0  0  0  0  0
    2.0692   -0.8016    0.0000 C   0  0  0  0  0  0  0  0  0  0  0  0
    0.9182   -1.6513    0.0000 C   0  0  0  0  0  0  0  0  0  0  0  0
  1 28  1  0  0  0  0
  2 28  1  0  0  0  0
  3 28  1  0  0  0  0
  4 15  2  0  0  0  0
  5  6  1  0  0  0  0
  5 12  1  0  0  0  0
 14  5  1  1  0  0  0
  6 13  2  0  0  0  0
  7 13  1  0  0  0  0
  7 18  1  0  0  0  0
  8 15  1  0  0  0  0
  8 20  1  0  0  0  0
  9 26  1  0  0  0  0
 10 27  3  0  0  0  0
 11 12  2  0  0  0  0
 11 13  1  0  0  0  0
 11 15  1  0  0  0  0
 12 16  1  0  0  0  0
 14 17  1  0  0  0  0
 14 19  1  0  0  0  0
 16 20  2  0  0  0  0
 17 21  1  0  0  0  0
 17 27  1  6  0  0  0
 18 24  2  0  0  0  0
 18 25  1  0  0  0  0
 19 22  1  0  0  0  0
 21 22  1  0  0  0  0
 23 26  1  0  0  0  0
 23 29  2  0  0  0  0
 23 30  1  0  0  0  0
 24 29  1  0  0  0  0
 25 30  2  0  0  0  0
 26 28  1  0  0  0  0
M  END
> <PUBCHEM_COMPOUND_ID_TYPE>
0

> <PUBCHEM_TOTAL_CHARGE>
0

> <PUBCHEM_SUBSTANCE_ID>
310948245

> <PUBCHEM_SUBSTANCE_VERSION>
1

> <PUBCHEM_EXT_DATASOURCE_NAME>
4488

> <PUBCHEM_EXT_DATASOURCE_REGID>
SCHEMBL16126422

> <PUBCHEM_SUBSTANCE_COMMENT>
InChI=1S/C20H19F3N6O/c21-20(22,23)17(25)11-4-6-13(7-5-11)27-18-16-15(8-9-26-19(16)30)29(28-18)14-3-1-2-12(14)10-24/h4-9,12,14,17H,1-3,25H2,(H,26,30)(H,27,28)/t12-,14+,17?/m1/s1
InChIKey=PJGQQHWVCVIHBU-KMMYHCRNSA-N

> <PUBCHEM_SUBSTANCE_SYNONYM>
SCHEMBL16126422

> <PUBCHEM_XREF_EXT_ID>
SCHEMBL16126422

> <PUBCHEM_EXT_DATASOURCE_URL>
https://www.surechembl.org/

> <PUBCHEM_EXT_SUBSTANCE_URL>
https://www.surechembl.org/chemical/SCHEMBL16126422

> <PUBCHEM_CID_ASSOCIATIONS>
117613825  1

> <PUBCHEM_COORDINATE_TYPE>
1
3

> <PUBCHEM_BONDANNOTATIONS>
17  27  6
14  5  5

$$$$
