310949909
  -OEChem-07211613022D

128135  0     1  0  0  0  0  0999 V2000
   -6.9296   -1.1275    0.0000 S   0  0  0  0  0  0  0  0  0  0  0  0
   -1.0698    4.0738    0.0000 O   0  0  0  0  0  0  0  0  0  0  0  0
   -3.4731    2.0493    0.0000 O   0  0  0  0  0  0  0  0  0  0  0  0
    1.1028    2.4442    0.0000 O   0  0  0  0  0  0  0  0  0  0  0  0
    0.1153   -4.8969    0.0000 O   0  0  0  0  0  0  0  0  0  0  0  0
    6.5181   -1.8682    0.0000 O   0  0  0  0  0  0  0  0  0  0  0  0
    9.8102    0.1728    0.0000 O   0  0  0  0  0  0  0  0  0  0  0  0
    2.2879   -3.2673    0.0000 O   0  0  0  0  0  0  0  0  0  0  0  0
    4.4771   -4.8969    0.0000 O   0  0  0  0  0  0  0  0  0  0  0  0
   -2.3208   -2.5430    0.0000 O   0  0  0  0  0  0  0  0  0  0  0  0
    3.2755    4.0738    0.0000 O   0  0  0  0  0  0  0  0  0  0  0  0
    5.8762    1.8353    0.0000 O   0  0  0  0  0  0  0  0  0  0  0  0
   -5.0861    0.5679    0.0000 O   0  0  0  0  0  0  0  0  0  0  0  0
    8.5262    3.2014    0.0000 O   0  0  0  0  0  0  0  0  0  0  0  0
   -5.0861   -3.8598    0.0000 O   0  0  0  0  0  0  0  0  0  0  0  0
    2.0575   -1.5061    0.0000 O   0  0  0  0  0  0  0  0  0  0  0  0
    4.3290    4.3701    0.0000 O   0  0  0  0  0  0  0  0  0  0  0  0
    5.3166    5.4564    0.0000 O   0  0  0  0  0  0  0  0  0  0  0  0
   -7.2752   -3.6130    0.0000 O   0  0  0  0  0  0  0  0  0  0  0  0
   -4.9051   -6.0325    0.0000 O   0  0  0  0  0  0  0  0  0  0  0  0
   -9.5962   -2.4278    0.0000 O   0  0  0  0  0  0  0  0  0  0  0  0
   -2.8640    3.0369    0.0000 N   0  0  0  0  0  0  0  0  0  0  0  0
   -0.2470    3.2344    0.0000 N   0  0  0  0  0  0  0  0  0  0  0  0
   -1.2015   -2.0986    0.0000 N   0  0  0  0  0  0  0  0  0  0  0  0
    1.4814   -4.1067    0.0000 N   0  0  0  0  0  0  0  0  0  0  0  0
    1.9259    3.2673    0.0000 N   0  0  0  0  0  0  0  0  0  0  0  0
    8.1477   -1.3744    0.0000 N   0  0  0  0  0  0  0  0  0  0  0  0
   -0.6914   -4.0738    0.0000 N   0  0  0  0  0  0  0  0  0  0  0  0
   -5.9091    2.2633    0.0000 N   0  0  0  0  0  0  0  0  0  0  0  0
    5.7280   -3.7611    0.0000 N   0  0  0  0  0  0  0  0  0  0  0  0
    3.6542   -4.0738    0.0000 N   0  0  0  0  0  0  0  0  0  0  0  0
    7.4069    2.4113    0.0000 N   0  0  0  0  0  0  0  0  0  0  0  0
    4.1149    3.2344    0.0000 N   0  0  0  0  0  0  0  0  0  0  0  0
   -3.5060   -3.3825    0.0000 N   0  0  0  0  0  0  0  0  0  0  0  0
   -5.7939   -3.0369    0.0000 N   0  0  0  0  0  0  0  0  0  0  0  0
   -7.9666   -2.6912    0.0000 N   0  0  0  0  0  0  0  0  0  0  0  0
   -9.8102   -3.8434    0.0000 N   0  0  0  0  0  0  0  0  0  0  0  0
    0.0164   -1.5390    0.0000 C   0  0  0  0  0  0  0  0  0  0  0  0
    0.0987   -2.3619    0.0000 C   0  0  0  0  0  0  0  0  0  0  0  0
   -0.7900   -1.3580    0.0000 C   0  0  0  0  0  0  0  0  0  0  0  0
   -1.7447    2.7899    0.0000 C   0  0  3  0  0  0  0  0  0  0  0  0
   -1.0864    3.2508    0.0000 C   0  0  0  0  0  0  0  0  0  0  0  0
   -0.6255   -2.6912    0.0000 C   0  0  0  0  0  0  0  0  0  0  0  0
    0.8394   -2.7899    0.0000 C   0  0  0  0  0  0  0  0  0  0  0  0
    0.4115    3.7447    0.0000 C   0  0  3  0  0  0  0  0  0  0  0  0
    0.8065   -3.6130    0.0000 C   0  0  3  0  0  0  0  0  0  0  0  0
   -3.6542    2.8558    0.0000 C   0  0  0  0  0  0  0  0  0  0  0  0
    0.5597   -0.9464    0.0000 C   0  0  0  0  0  0  0  0  0  0  0  0
   -1.0205   -0.5843    0.0000 C   0  0  0  0  0  0  0  0  0  0  0  0
    1.1028    3.3003    0.0000 C   0  0  0  0  0  0  0  0  0  0  0  0
   -1.7612    1.9505    0.0000 C   0  0  0  0  0  0  0  0  0  0  0  0
   -4.4606    3.1356    0.0000 C   0  0  3  0  0  0  0  0  0  0  0  0
    0.1317   -4.0574    0.0000 C   0  0  0  0  0  0  0  0  0  0  0  0
    7.8514   -2.4608    0.0000 C   0  0  3  0  0  0  0  0  0  0  0  0
    0.2963   -0.1564    0.0000 C   0  0  0  0  0  0  0  0  0  0  0  0
   -1.0369    1.5554    0.0000 C   0  0  0  0  0  0  0  0  0  0  0  0
   -0.4938    0.0082    0.0000 C   0  0  0  0  0  0  0  0  0  0  0  0
    7.0284   -2.5266    0.0000 C   0  0  0  0  0  0  0  0  0  0  0  0
    0.4115    4.5676    0.0000 C   0  0  0  0  0  0  0  0  0  0  0  0
    5.1355   -3.7118    0.0000 C   0  0  3  0  0  0  0  0  0  0  0  0
    8.9871    0.1893    0.0000 C   0  0  0  0  0  0  0  0  0  0  0  0
   -1.7777   -3.8927    0.0000 C   0  0  3  0  0  0  0  0  0  0  0  0
    2.3043   -4.1067    0.0000 C   0  0  0  0  0  0  0  0  0  0  0  0
    4.4936   -4.2219    0.0000 C   0  0  0  0  0  0  0  0  0  0  0  0
   -4.6253    3.9586    0.0000 C   0  0  0  0  0  0  0  0  0  0  0  0
   -2.8805    3.8763    0.0000 C   0  0  0  0  0  0  0  0  0  0  0  0
    0.0329    2.4442    0.0000 C   0  0  0  0  0  0  0  0  0  0  0  0
    8.5591    1.7859    0.0000 C   0  0  3  0  0  0  0  0  0  0  0  0
    8.3617   -3.1192    0.0000 C   0  0  0  0  0  0  0  0  0  0  0  0
    2.9957   -4.5512    0.0000 C   0  0  0  0  0  0  0  0  0  0  0  0
   -2.6336   -3.1027    0.0000 C   0  0  0  0  0  0  0  0  0  0  0  0
    2.6007    2.7899    0.0000 C   0  0  0  0  0  0  0  0  0  0  0  0
   -4.0491    4.5182    0.0000 C   0  0  0  0  0  0  0  0  0  0  0  0
    5.0697   -2.8722    0.0000 C   0  0  0  0  0  0  0  0  0  0  0  0
   -0.8230    0.7490    0.0000 C   0  0  0  0  0  0  0  0  0  0  0  0
   -0.4609    2.1152    0.0000 C   0  0  0  0  0  0  0  0  0  0  0  0
    3.2591    3.2508    0.0000 C   0  0  0  0  0  0  0  0  0  0  0  0
    6.0902    2.6418    0.0000 C   0  0  0  0  0  0  0  0  0  0  0  0
    5.5305    3.2508    0.0000 C   0  0  3  0  0  0  0  0  0  0  0  0
   -5.9256    0.7983    0.0000 C   0  0  0  0  0  0  0  0  0  0  0  0
   -1.8764   -4.7158    0.0000 C   0  0  0  0  0  0  0  0  0  0  0  0
    8.0489   -3.8927    0.0000 C   0  0  0  0  0  0  0  0  0  0  0  0
   -0.2963    4.9792    0.0000 C   0  0  0  0  0  0  0  0  0  0  0  0
    4.2960   -2.5266    0.0000 C   0  0  0  0  0  0  0  0  0  0  0  0
   -2.6171   -5.0286    0.0000 C   0  0  0  0  0  0  0  0  0  0  0  0
   -4.0985   -2.8229    0.0000 C   0  0  3  0  0  0  0  0  0  0  0  0
    2.1892    4.0738    0.0000 C   0  0  0  0  0  0  0  0  0  0  0  0
    8.9707   -1.2921    0.0000 C   0  0  0  0  0  0  0  0  0  0  0  0
    8.9541    2.5266    0.0000 C   0  0  0  0  0  0  0  0  0  0  0  0
   -0.0164    0.5514    0.0000 C   0  0  0  0  0  0  0  0  0  0  0  0
    0.3457    1.9176    0.0000 C   0  0  0  0  0  0  0  0  0  0  0  0
   -4.2466    5.3084    0.0000 C   0  0  0  0  0  0  0  0  0  0  0  0
   -3.2426    4.2878    0.0000 C   0  0  0  0  0  0  0  0  0  0  0  0
   -4.9051   -3.0697    0.0000 C   0  0  0  0  0  0  0  0  0  0  0  0
    3.4895   -3.2508    0.0000 C   0  0  0  0  0  0  0  0  0  0  0  0
   -6.6992    0.3539    0.0000 C   0  0  0  0  0  0  0  0  0  0  0  0
    5.7280    4.0574    0.0000 C   0  0  0  0  0  0  0  0  0  0  0  0
    7.2424   -4.0080    0.0000 C   0  0  0  0  0  0  0  0  0  0  0  0
    8.5426   -4.5347    0.0000 C   0  0  0  0  0  0  0  0  0  0  0  0
    0.5432    1.1275    0.0000 C   0  0  0  0  0  0  0  0  0  0  0  0
    4.2302   -1.7365    0.0000 C   0  0  0  0  0  0  0  0  0  0  0  0
    3.6377   -3.0039    0.0000 C   0  0  0  0  0  0  0  0  0  0  0  0
   -6.4194   -2.4608    0.0000 C   0  0  3  0  0  0  0  0  0  0  0  0
   -3.2920   -4.5676    0.0000 C   0  0  0  0  0  0  0  0  0  0  0  0
   -2.7323   -5.8680    0.0000 C   0  0  0  0  0  0  0  0  0  0  0  0
   -3.9174   -2.0164    0.0000 C   0  0  0  0  0  0  0  0  0  0  0  0
   -0.2963    5.8021    0.0000 C   0  0  0  0  0  0  0  0  0  0  0  0
   -3.6706    5.8680    0.0000 C   0  0  0  0  0  0  0  0  0  0  0  0
   -2.6665    4.8475    0.0000 C   0  0  0  0  0  0  0  0  0  0  0  0
    2.8147   -1.8518    0.0000 C   0  0  0  0  0  0  0  0  0  0  0  0
    3.4731   -1.3908    0.0000 C   0  0  0  0  0  0  0  0  0  0  0  0
    2.8805   -2.6747    0.0000 C   0  0  0  0  0  0  0  0  0  0  0  0
    5.1355    4.6170    0.0000 C   0  0  0  0  0  0  0  0  0  0  0  0
   -6.2383   -1.6378    0.0000 C   0  0  0  0  0  0  0  0  0  0  0  0
    6.9296   -4.7652    0.0000 C   0  0  0  0  0  0  0  0  0  0  0  0
    8.2464   -5.2919    0.0000 C   0  0  0  0  0  0  0  0  0  0  0  0
   -7.1436   -2.8064    0.0000 C   0  0  0  0  0  0  0  0  0  0  0  0
   -2.8640    5.6540    0.0000 C   0  0  0  0  0  0  0  0  0  0  0  0
   -4.1479   -5.6869    0.0000 C   0  0  0  0  0  0  0  0  0  0  0  0
   -4.0326   -4.8804    0.0000 C   0  0  0  0  0  0  0  0  0  0  0  0
   -3.4731   -6.1807    0.0000 C   0  0  0  0  0  0  0  0  0  0  0  0
    7.4399   -5.4070    0.0000 C   0  0  0  0  0  0  0  0  0  0  0  0
   -4.5594   -1.4403    0.0000 C   0  0  0  0  0  0  0  0  0  0  0  0
   -1.0205    6.1807    0.0000 C   0  0  0  0  0  0  0  0  0  0  0  0
   -5.3330   -1.7201    0.0000 C   0  0  0  0  0  0  0  0  0  0  0  0
   -4.3619   -0.6337    0.0000 C   0  0  0  0  0  0  0  0  0  0  0  0
   -8.4768   -3.3167    0.0000 C   0  0  0  0  0  0  0  0  0  0  0  0
   -9.2834   -3.2014    0.0000 C   0  0  0  0  0  0  0  0  0  0  0  0
  1 96  1  0  0  0  0
  1114  1  0  0  0  0
  2 42  2  0  0  0  0
  3 47  2  0  0  0  0
  4 50  2  0  0  0  0
  5 53  2  0  0  0  0
  6 58  2  0  0  0  0
  7 61  2  0  0  0  0
  8 63  2  0  0  0  0
  9 64  2  0  0  0  0
 10 71  2  0  0  0  0
 11 77  2  0  0  0  0
 12 78  2  0  0  0  0
 13 80  2  0  0  0  0
 14 89  1  0  0  0  0
 15 94  2  0  0  0  0
 16110  1  0  0  0  0
 17113  2  0  0  0  0
 18113  1  0  0  0  0
 19117  2  0  0  0  0
 20119  1  0  0  0  0
 21128  2  0  0  0  0
 22 41  1  0  0  0  0
 22 47  1  0  0  0  0
 22 66  1  0  0  0  0
 23 42  1  0  0  0  0
 23 45  1  0  0  0  0
 23 67  1  0  0  0  0
 24 40  1  0  0  0  0
 24 43  1  0  0  0  0
 25 46  1  0  0  0  0
 25 63  1  0  0  0  0
 26 50  1  0  0  0  0
 26 72  1  0  0  0  0
 26 87  1  0  0  0  0
 27 54  1  0  0  0  0
 27 61  1  0  0  0  0
 27 88  1  0  0  0  0
 28 53  1  0  0  0  0
 28 62  1  0  0  0  0
 29 52  1  0  0  0  0
 29 80  1  0  0  0  0
 30 58  1  0  0  0  0
 30 60  1  0  0  0  0
 31 64  1  0  0  0  0
 31 70  1  0  0  0  0
 31 95  1  0  0  0  0
 32 68  1  0  0  0  0
 32 78  1  0  0  0  0
 33 77  1  0  0  0  0
 33 79  1  0  0  0  0
 34 71  1  0  0  0  0
 34 86  1  0  0  0  0
 35 94  1  0  0  0  0
 35103  1  0  0  0  0
 36117  1  0  0  0  0
 36127  1  0  0  0  0
 37128  1  0  0  0  0
 38 39  1  0  0  0  0
 38 40  2  0  0  0  0
 38 48  1  0  0  0  0
 39 43  2  0  0  0  0
 39 44  1  0  0  0  0
 40 49  1  0  0  0  0
 41 42  1  0  0  0  0
 41 51  1  6  0  0  0
 46 44  1  6  0  0  0
 45 50  1  0  0  0  0
 45 59  1  1  0  0  0
 46 53  1  0  0  0  0
 47 52  1  0  0  0  0
 48 55  2  0  0  0  0
 49 57  2  0  0  0  0
 51 56  1  0  0  0  0
 52 65  1  1  0  0  0
 54 58  1  0  0  0  0
 54 69  1  1  0  0  0
 55 57  1  0  0  0  0
 56 75  2  0  0  0  0
 56 76  1  0  0  0  0
 59 83  1  0  0  0  0
 60 64  1  0  0  0  0
 60 74  1  6  0  0  0
 61 68  1  0  0  0  0
 62 71  1  0  0  0  0
 62 81  1  1  0  0  0
 63 70  1  0  0  0  0
 65 73  1  0  0  0  0
 68 89  1  1  0  0  0
 69 82  1  0  0  0  0
 72 77  1  0  0  0  0
 73 92  2  0  0  0  0
 73 93  1  0  0  0  0
 74 84  1  0  0  0  0
 75 90  1  0  0  0  0
 76 91  2  0  0  0  0
 78 79  1  0  0  0  0
 79 97  1  1  0  0  0
 80 96  1  0  0  0  0
 81 85  1  0  0  0  0
 82 98  2  0  0  0  0
 82 99  1  0  0  0  0
 83107  1  0  0  0  0
 84101  2  0  0  0  0
 84102  1  0  0  0  0
 85104  2  0  0  0  0
 85105  1  0  0  0  0
 86 94  1  0  0  0  0
 86106  1  6  0  0  0
 90100  2  0  0  0  0
 91100  1  0  0  0  0
 92108  1  0  0  0  0
 93109  2  0  0  0  0
 97113  1  0  0  0  0
 98115  1  0  0  0  0
 99116  2  0  0  0  0
101111  1  0  0  0  0
102112  2  0  0  0  0
103114  1  0  0  0  0
103117  1  6  0  0  0
104120  1  0  0  0  0
105121  2  0  0  0  0
106123  1  0  0  0  0
107124  1  0  0  0  0
108118  2  0  0  0  0
109118  1  0  0  0  0
110111  2  0  0  0  0
110112  1  0  0  0  0
115122  2  0  0  0  0
116122  1  0  0  0  0
119120  2  0  0  0  0
119121  1  0  0  0  0
123125  1  0  0  0  0
123126  1  0  0  0  0
127128  1  0  0  0  0
M  END
> <PUBCHEM_COMPOUND_ID_TYPE>
0

> <PUBCHEM_TOTAL_CHARGE>
0

> <PUBCHEM_SUBSTANCE_ID>
310949909

> <PUBCHEM_SUBSTANCE_VERSION>
1

> <PUBCHEM_EXT_DATASOURCE_NAME>
4488

> <PUBCHEM_EXT_DATASOURCE_REGID>
SCHEMBL16128130

> <PUBCHEM_SUBSTANCE_COMMENT>
InChI=1S/C91H114N16O20S/c1-9-10-30-73-90(126)104(5)50-78(113)96-68(46-80(115)116)85(121)101-71(51-108)89(125)106(7)74(43-56-24-16-12-17-25-56)86(122)100-69(42-59-33-37-62(110)38-34-59)87(123)103(4)49-77(112)95-67(45-60-47-93-64-29-21-20-28-63(60)64)84(120)99-66(40-58-31-35-61(109)36-32-58)83(119)98-65(39-54(2)3)82(118)102-72(81(117)94-48-76(92)111)52-128-53-79(114)97-70(41-55-22-14-11-15-23-55)88(124)107(8)75(91(127)105(73)6)44-57-26-18-13-19-27-57/h11-29,31-38,47,54,65-75,93,108-110H,9-10,30,39-46,48-53H2,1-8H3,(H2,92,111)(H,94,117)(H,95,112)(H,96,113)(H,97,114)(H,98,119)(H,99,120)(H,100,122)(H,101,121)(H,102,118)(H,115,116)/t65-,66-,67-,68-,69-,70-,71-,72-,73-,74-,75-/m0/s1
InChIKey=DOSGWXDLVAKCGY-PXVBCBAVSA-N

> <PUBCHEM_SUBSTANCE_SYNONYM>
SCHEMBL16128130

> <PUBCHEM_XREF_EXT_ID>
SCHEMBL16128130

> <PUBCHEM_EXT_DATASOURCE_URL>
https://www.surechembl.org/

> <PUBCHEM_EXT_SUBSTANCE_URL>
https://www.surechembl.org/chemical/SCHEMBL16128130

> <PUBCHEM_CID_ASSOCIATIONS>
117615190  1

> <PUBCHEM_COORDINATE_TYPE>
1
3

> <PUBCHEM_BONDANNOTATIONS>
103  117  6
41  51  6
46  44  6
45  59  5
52  65  5
54  69  5
60  74  6
62  81  5
68  89  5
79  97  5
86  106  6

$$$$
