310941178
  -OEChem-07211613022D

 37 40  0     1  0  0  0  0  0999 V2000
    2.5243   -2.3134    0.0000 S   0  0  0  0  0  0  0  0  0  0  0  0
    5.0977    0.4710    0.0000 O   0  0  0  0  0  0  0  0  0  0  0  0
    3.9587   -1.4836    0.0000 O   0  0  0  0  0  0  0  0  0  0  0  0
    1.8071    0.5835    0.0000 O   0  0  0  0  0  0  0  0  0  0  0  0
   -0.3445   -1.4836    0.0000 O   0  0  0  0  0  0  0  0  0  0  0  0
   -2.4962    0.5835    0.0000 O   0  0  0  0  0  0  0  0  0  0  0  0
   -5.3650    0.5835    0.0000 O   0  0  0  0  0  0  0  0  0  0  0  0
    2.5243   -0.6539    0.0000 N   0  0  0  0  0  0  0  0  0  0  0  0
    0.3727   -0.2320    0.0000 N   0  0  0  0  0  0  0  0  0  0  0  0
   -1.7789   -0.6539    0.0000 N   0  0  0  0  0  0  0  0  0  0  0  0
   -3.9306   -0.2320    0.0000 N   0  0  0  0  0  0  0  0  0  0  0  0
    1.8211   -1.8914    0.0000 C   0  0  3  0  0  0  0  0  0  0  0  0
    4.6618   -0.2179    0.0000 C   0  0  3  0  0  0  0  0  0  0  0  0
    3.2274   -0.2320    0.0000 C   0  0  3  0  0  0  0  0  0  0  0  0
    3.9446   -0.6398    0.0000 C   0  0  0  0  0  0  0  0  0  0  0  0
    1.8071   -0.2602    0.0000 C   0  0  0  0  0  0  0  0  0  0  0  0
    1.0759   -0.6398    0.0000 C   0  0  3  0  0  0  0  0  0  0  0  0
    1.0759   -1.4977    0.0000 C   0  0  0  0  0  0  0  0  0  0  0  0
    4.2821    0.4710    0.0000 C   0  0  0  0  0  0  0  0  0  0  0  0
    3.2414    1.0899    0.0000 C   0  0  0  0  0  0  0  0  0  0  0  0
    1.8071   -2.7352    0.0000 C   0  0  0  0  0  0  0  0  0  0  0  0
    5.3650   -0.6258    0.0000 C   0  0  0  0  0  0  0  0  0  0  0  0
    2.5102    1.5117    0.0000 C   0  0  0  0  0  0  0  0  0  0  0  0
   -0.3445   -0.6258    0.0000 C   0  0  0  0  0  0  0  0  0  0  0  0
   -1.0759   -0.2320    0.0000 C   0  0  3  0  0  0  0  0  0  0  0  0
    1.8071    1.1040    0.0000 C   0  0  0  0  0  0  0  0  0  0  0  0
    2.5243    2.3274    0.0000 C   0  0  0  0  0  0  0  0  0  0  0  0
    1.0899    1.5117    0.0000 C   0  0  0  0  0  0  0  0  0  0  0  0
    1.8071    2.7352    0.0000 C   0  0  0  0  0  0  0  0  0  0  0  0
    1.0899    2.3274    0.0000 C   0  0  0  0  0  0  0  0  0  0  0  0
   -2.5102   -0.2461    0.0000 C   0  0  0  0  0  0  0  0  0  0  0  0
   -1.0618    0.5835    0.0000 C   0  0  0  0  0  0  0  0  0  0  0  0
   -3.2274   -0.6398    0.0000 C   0  0  0  0  0  0  0  0  0  0  0  0
   -3.9306    0.5977    0.0000 C   0  0  0  0  0  0  0  0  0  0  0  0
   -4.6618   -0.6398    0.0000 C   0  0  0  0  0  0  0  0  0  0  0  0
   -4.6618    1.0055    0.0000 C   0  0  0  0  0  0  0  0  0  0  0  0
   -5.3650   -0.2320    0.0000 C   0  0  0  0  0  0  0  0  0  0  0  0
  1 12  1  0  0  0  0
  2 13  1  0  0  0  0
  2 19  1  0  0  0  0
  3 15  2  0  0  0  0
  4 16  2  0  0  0  0
  5 24  2  0  0  0  0
  6 31  2  0  0  0  0
  7 36  1  0  0  0  0
  7 37  1  0  0  0  0
  8 12  1  0  0  0  0
  8 14  1  0  0  0  0
  8 16  1  0  0  0  0
 17  9  1  6  0  0  0
  9 24  1  0  0  0  0
 10 25  1  0  0  0  0
 10 31  1  0  0  0  0
 11 33  1  0  0  0  0
 11 34  1  0  0  0  0
 11 35  1  0  0  0  0
 12 18  1  0  0  0  0
 12 21  1  0  0  0  0
 13 15  1  1  0  0  0
 13 19  1  0  0  0  0
 13 22  1  6  0  0  0
 14 15  1  0  0  0  0
 14 20  1  1  0  0  0
 16 17  1  0  0  0  0
 17 18  1  0  0  0  0
 20 23  1  0  0  0  0
 23 26  2  0  0  0  0
 23 27  1  0  0  0  0
 24 25  1  0  0  0  0
 25 32  1  1  0  0  0
 26 28  1  0  0  0  0
 27 29  2  0  0  0  0
 28 30  2  0  0  0  0
 29 30  1  0  0  0  0
 31 33  1  0  0  0  0
 34 36  1  0  0  0  0
 35 37  1  0  0  0  0
M  END
> <PUBCHEM_COMPOUND_ID_TYPE>
0

> <PUBCHEM_TOTAL_CHARGE>
0

> <PUBCHEM_SUBSTANCE_ID>
310941178

> <PUBCHEM_SUBSTANCE_VERSION>
1

> <PUBCHEM_EXT_DATASOURCE_NAME>
4488

> <PUBCHEM_EXT_DATASOURCE_REGID>
SCHEMBL16119138

> <PUBCHEM_SUBSTANCE_COMMENT>
InChI=1S/C26H36N4O6S/c1-17(27-21(31)15-29-9-11-35-12-10-29)23(33)28-19-14-26(3,37)30(24(19)34)20(22(32)25(2)16-36-25)13-18-7-5-4-6-8-18/h4-8,17,19-20,37H,9-16H2,1-3H3,(H,27,31)(H,28,33)/t17-,19-,20-,25+,26?/m0/s1
InChIKey=GUVRZYXFOLOYRU-NMLVUKAUSA-N

> <PUBCHEM_SUBSTANCE_SYNONYM>
SCHEMBL16119138

> <PUBCHEM_XREF_EXT_ID>
SCHEMBL16119138

> <PUBCHEM_EXT_DATASOURCE_URL>
https://www.surechembl.org/

> <PUBCHEM_EXT_SUBSTANCE_URL>
https://www.surechembl.org/chemical/SCHEMBL16119138

> <PUBCHEM_CID_ASSOCIATIONS>
117608052  1

> <PUBCHEM_COORDINATE_TYPE>
1
3

> <PUBCHEM_BONDANNOTATIONS>
13  15  5
13  22  6
14  20  5
25  32  5
17  9  6

$$$$
