310942879
  -OEChem-07211613022D

 38 41  0     0  0  0  0  0  0999 V2000
   -0.8646    2.0711    0.0000 Cl  0  0  0  0  0  0  0  0  0  0  0  0
   -3.7337    2.0711    0.0000 Cl  0  0  0  0  0  0  0  0  0  0  0  0
    2.2897    2.0521    0.0000 S   0  0  0  0  0  0  0  0  0  0  0  0
    2.3466    3.7813    0.0000 S   0  0  0  0  0  0  0  0  0  0  0  0
    2.2897    0.3990    0.0000 F   0  0  0  0  0  0  0  0  0  0  0  0
   -0.5795    0.3990    0.0000 O   0  0  0  0  0  0  0  0  0  0  0  0
    1.8906    2.7741    0.0000 O   0  0  0  0  0  0  0  0  0  0  0  0
    2.7077    1.3301    0.0000 O   0  0  0  0  0  0  0  0  0  0  0  0
    0.8455   -4.5793    0.0000 O   0  0  0  0  0  0  0  0  0  0  0  0
    2.2706   -4.5793    0.0000 O   0  0  0  0  0  0  0  0  0  0  0  0
    3.0117    2.4701    0.0000 N   0  0  0  0  0  0  0  0  0  0  0  0
    3.6957    3.7813    0.0000 N   0  0  0  0  0  0  0  0  0  0  0  0
    2.6126    4.5793    0.0000 N   0  0  0  0  0  0  0  0  0  0  0  0
   -0.5986   -2.0901    0.0000 N   0  0  0  0  0  0  0  0  0  0  0  0
    1.5676    1.6531    0.0000 C   0  0  0  0  0  0  0  0  0  0  0  0
    1.5486    0.8361    0.0000 C   0  0  0  0  0  0  0  0  0  0  0  0
    0.1235    0.8170    0.0000 C   0  0  0  0  0  0  0  0  0  0  0  0
    0.1425    1.6531    0.0000 C   0  0  0  0  0  0  0  0  0  0  0  0
    0.8455    2.0521    0.0000 C   0  0  0  0  0  0  0  0  0  0  0  0
    0.8646    0.4180    0.0000 C   0  0  0  0  0  0  0  0  0  0  0  0
   -1.3206    0.8170    0.0000 C   0  0  0  0  0  0  0  0  0  0  0  0
    3.0117    3.3062    0.0000 C   0  0  0  0  0  0  0  0  0  0  0  0
   -2.0236    0.4180    0.0000 C   0  0  0  0  0  0  0  0  0  0  0  0
   -1.3206    1.6341    0.0000 C   0  0  0  0  0  0  0  0  0  0  0  0
   -2.7457    0.8170    0.0000 C   0  0  0  0  0  0  0  0  0  0  0  0
   -2.7457    1.6531    0.0000 C   0  0  0  0  0  0  0  0  0  0  0  0
   -2.0236   -0.4370    0.0000 C   0  0  0  0  0  0  0  0  0  0  0  0
   -2.0426    2.0521    0.0000 C   0  0  0  0  0  0  0  0  0  0  0  0
    3.4297    4.5603    0.0000 C   0  0  0  0  0  0  0  0  0  0  0  0
   -1.3016   -0.8550    0.0000 C   0  0  0  0  0  0  0  0  0  0  0  0
   -1.3206   -1.6721    0.0000 C   0  0  0  0  0  0  0  0  0  0  0  0
    0.8266   -2.9261    0.0000 C   0  0  0  0  0  0  0  0  0  0  0  0
   -0.5986   -2.9261    0.0000 C   0  0  0  0  0  0  0  0  0  0  0  0
    0.1045   -1.6911    0.0000 C   0  0  0  0  0  0  0  0  0  0  0  0
    0.1425   -3.3252    0.0000 C   0  0  0  0  0  0  0  0  0  0  0  0
    0.8455   -2.1091    0.0000 C   0  0  0  0  0  0  0  0  0  0  0  0
    1.5676   -3.3442    0.0000 C   0  0  0  0  0  0  0  0  0  0  0  0
    1.5486   -4.1613    0.0000 C   0  0  0  0  0  0  0  0  0  0  0  0
  1 18  1  0  0  0  0
  2 26  1  0  0  0  0
  3  7  2  0  0  0  0
  3  8  2  0  0  0  0
  3 11  1  0  0  0  0
  3 15  1  0  0  0  0
  4 13  1  0  0  0  0
  4 22  1  0  0  0  0
  5 16  1  0  0  0  0
  6 17  1  0  0  0  0
  6 21  1  0  0  0  0
  9 38  2  0  0  0  0
 10 38  1  0  0  0  0
 11 22  1  0  0  0  0
 12 22  2  0  0  0  0
 12 29  1  0  0  0  0
 13 29  2  0  0  0  0
 14 31  1  0  0  0  0
 14 33  1  0  0  0  0
 14 34  1  0  0  0  0
 15 16  1  0  0  0  0
 15 19  2  0  0  0  0
 16 20  2  0  0  0  0
 17 18  2  0  0  0  0
 17 20  1  0  0  0  0
 18 19  1  0  0  0  0
 21 23  2  0  0  0  0
 21 24  1  0  0  0  0
 23 25  1  0  0  0  0
 23 27  1  0  0  0  0
 24 28  2  0  0  0  0
 25 26  2  0  0  0  0
 26 28  1  0  0  0  0
 27 30  1  0  0  0  0
 30 31  1  0  0  0  0
 32 35  1  0  0  0  0
 32 36  1  0  0  0  0
 32 37  1  0  0  0  0
 33 35  1  0  0  0  0
 34 36  1  0  0  0  0
 37 38  1  0  0  0  0
M  END
> <PUBCHEM_COMPOUND_ID_TYPE>
0

> <PUBCHEM_TOTAL_CHARGE>
0

> <PUBCHEM_SUBSTANCE_ID>
310942879

> <PUBCHEM_SUBSTANCE_VERSION>
1

> <PUBCHEM_EXT_DATASOURCE_NAME>
4488

> <PUBCHEM_EXT_DATASOURCE_REGID>
SCHEMBL16120937

> <PUBCHEM_SUBSTANCE_COMMENT>
InChI=1S/C24H25Cl2FN4O5S2/c25-17-3-4-20(16(11-17)2-1-7-31-8-5-15(6-9-31)10-23(32)33)36-21-13-19(27)22(12-18(21)26)38(34,35)30-24-28-14-29-37-24/h3-4,11-15H,1-2,5-10H2,(H,32,33)(H,28,29,30)
InChIKey=PNNDFMDCGIONSI-UHFFFAOYSA-N

> <PUBCHEM_SUBSTANCE_SYNONYM>
SCHEMBL16120937

> <PUBCHEM_XREF_EXT_ID>
SCHEMBL16120937

> <PUBCHEM_EXT_DATASOURCE_URL>
https://www.surechembl.org/

> <PUBCHEM_EXT_SUBSTANCE_URL>
https://www.surechembl.org/chemical/SCHEMBL16120937

> <PUBCHEM_CID_ASSOCIATIONS>
85472419  1

> <PUBCHEM_COORDINATE_TYPE>
1
3

$$$$
