310944389
  -OEChem-07211613022D

 28 31  0     0  0  0  0  0  0999 V2000
   -2.1680    3.1176    0.0000 F   0  0  0  0  0  0  0  0  0  0  0  0
   -0.7099   -0.2398    0.0000 N   0  0  0  0  0  0  0  0  0  0  0  0
    0.0000    1.0265    0.0000 N   0  0  0  0  0  0  0  0  0  0  0  0
    0.7482   -0.2398    0.0000 N   0  0  0  0  0  0  0  0  0  0  0  0
   -2.1871   -1.0265    0.0000 N   0  0  0  0  0  0  0  0  0  0  0  0
   -1.4773    1.0648    0.0000 C   0  0  0  0  0  0  0  0  0  0  0  0
   -0.7290    0.6619    0.0000 C   0  0  0  0  0  0  0  0  0  0  0  0
    0.0191   -0.6043    0.0000 C   0  0  0  0  0  0  0  0  0  0  0  0
    0.7482    0.6619    0.0000 C   0  0  0  0  0  0  0  0  0  0  0  0
   -1.4581    1.9090    0.0000 C   0  0  0  0  0  0  0  0  0  0  0  0
   -2.1871    0.6619    0.0000 C   0  0  0  0  0  0  0  0  0  0  0  0
   -2.1871    2.3311    0.0000 C   0  0  0  0  0  0  0  0  0  0  0  0
   -0.0191   -1.4677    0.0000 C   0  0  0  0  0  0  0  0  0  0  0  0
    1.4581    1.0648    0.0000 C   0  0  0  0  0  0  0  0  0  0  0  0
   -2.8970    1.0648    0.0000 C   0  0  0  0  0  0  0  0  0  0  0  0
   -2.8970    1.8898    0.0000 C   0  0  0  0  0  0  0  0  0  0  0  0
   -2.1871   -0.2206    0.0000 C   0  0  0  0  0  0  0  0  0  0  0  0
   -0.9401    2.1584    0.0000 C   0  0  0  0  0  0  0  0  0  0  0  0
   -0.7099   -1.8898    0.0000 C   0  0  0  0  0  0  0  0  0  0  0  0
    2.1680    0.6619    0.0000 C   0  0  0  0  0  0  0  0  0  0  0  0
    0.7290   -1.8898    0.0000 C   0  0  0  0  0  0  0  0  0  0  0  0
    1.5156    1.9090    0.0000 C   0  0  0  0  0  0  0  0  0  0  0  0
   -0.7290   -2.6955    0.0000 C   0  0  0  0  0  0  0  0  0  0  0  0
    2.8970    1.0648    0.0000 C   0  0  0  0  0  0  0  0  0  0  0  0
    0.7290   -2.7148    0.0000 C   0  0  0  0  0  0  0  0  0  0  0  0
    2.2064    2.3118    0.0000 C   0  0  0  0  0  0  0  0  0  0  0  0
    0.0191   -3.1176    0.0000 C   0  0  0  0  0  0  0  0  0  0  0  0
    2.8970    1.8898    0.0000 C   0  0  0  0  0  0  0  0  0  0  0  0
  1 12  1  0  0  0  0
  2  7  2  0  0  0  0
  2  8  1  0  0  0  0
  3  7  1  0  0  0  0
  3  9  2  0  0  0  0
  4  8  2  0  0  0  0
  4  9  1  0  0  0  0
  5 17  3  0  0  0  0
  6  7  1  0  0  0  0
  6 10  1  0  0  0  0
  6 11  2  0  0  0  0
  8 13  1  0  0  0  0
  9 14  1  0  0  0  0
 10 12  2  0  0  0  0
 10 18  1  0  0  0  0
 11 15  1  0  0  0  0
 11 17  1  0  0  0  0
 12 16  1  0  0  0  0
 13 19  2  0  0  0  0
 13 21  1  0  0  0  0
 14 20  2  0  0  0  0
 14 22  1  0  0  0  0
 15 16  2  0  0  0  0
 19 23  1  0  0  0  0
 20 24  1  0  0  0  0
 21 25  2  0  0  0  0
 22 26  2  0  0  0  0
 23 27  2  0  0  0  0
 24 28  2  0  0  0  0
 25 27  1  0  0  0  0
 26 28  1  0  0  0  0
M  END
> <PUBCHEM_COMPOUND_ID_TYPE>
0

> <PUBCHEM_TOTAL_CHARGE>
0

> <PUBCHEM_SUBSTANCE_ID>
310944389

> <PUBCHEM_SUBSTANCE_VERSION>
1

> <PUBCHEM_EXT_DATASOURCE_NAME>
4488

> <PUBCHEM_EXT_DATASOURCE_REGID>
SCHEMBL16122464

> <PUBCHEM_SUBSTANCE_COMMENT>
InChI=1S/C23H15FN4/c1-15-19(24)13-12-18(14-25)20(15)23-27-21(16-8-4-2-5-9-16)26-22(28-23)17-10-6-3-7-11-17/h2-13H,1H3
InChIKey=OWUITWACEMBPIC-UHFFFAOYSA-N

> <PUBCHEM_SUBSTANCE_SYNONYM>
SCHEMBL16122464

> <PUBCHEM_XREF_EXT_ID>
SCHEMBL16122464

> <PUBCHEM_EXT_DATASOURCE_URL>
https://www.surechembl.org/

> <PUBCHEM_EXT_SUBSTANCE_URL>
https://www.surechembl.org/chemical/SCHEMBL16122464

> <PUBCHEM_CID_ASSOCIATIONS>
117610646  1

> <PUBCHEM_COORDINATE_TYPE>
1
3

$$$$
