310934500
  -OEChem-07211613022D

 37 41  0     0  0  0  0  0  0999 V2000
    4.0758   -2.3848    0.0000 O   0  0  0  0  0  0  0  0  0  0  0  0
    0.0000   -5.3332    0.0000 O   0  0  0  0  0  0  0  0  0  0  0  0
    0.8239   -6.5039    0.0000 O   0  0  0  0  0  0  0  0  0  0  0  0
    1.8645   -1.1707    0.0000 O   0  0  0  0  0  0  0  0  0  0  0  0
    2.6883    0.0000    0.0000 O   0  0  0  0  0  0  0  0  0  0  0  0
    0.6071   -4.0324    0.0000 N   0  0  0  0  0  0  0  0  0  0  0  0
    4.0758   -1.0406    0.0000 N   0  0  0  0  0  0  0  0  0  0  0  0
    4.2926   -4.8996    0.0000 N   0  0  0  0  0  0  0  0  0  0  0  0
    2.0379   -3.8590    0.0000 C   0  0  0  0  0  0  0  0  0  0  0  0
    2.0813   -4.6828    0.0000 C   0  0  0  0  0  0  0  0  0  0  0  0
    1.4309   -5.2031    0.0000 C   0  0  0  0  0  0  0  0  0  0  0  0
    1.2574   -3.5121    0.0000 C   0  0  0  0  0  0  0  0  0  0  0  0
    2.6016   -2.6016    0.0000 C   0  0  0  0  0  0  0  0  0  0  0  0
    0.6504   -4.8562    0.0000 C   0  0  0  0  0  0  0  0  0  0  0  0
    2.6883   -3.4254    0.0000 C   0  0  0  0  0  0  0  0  0  0  0  0
    3.2520   -2.1246    0.0000 C   0  0  0  0  0  0  0  0  0  0  0  0
    2.8617   -5.0297    0.0000 C   0  0  0  0  0  0  0  0  0  0  0  0
    3.2520   -1.3008    0.0000 C   0  0  0  0  0  0  0  0  0  0  0  0
    1.5176   -6.0270    0.0000 C   0  0  0  0  0  0  0  0  0  0  0  0
    1.1707   -2.7317    0.0000 C   0  0  0  0  0  0  0  0  0  0  0  0
    1.8645   -2.2547    0.0000 C   0  0  0  0  0  0  0  0  0  0  0  0
    4.5527   -1.6910    0.0000 C   0  0  0  0  0  0  0  0  0  0  0  0
    2.6016   -0.8239    0.0000 C   0  0  0  0  0  0  0  0  0  0  0  0
    3.5555   -4.5961    0.0000 C   0  0  0  0  0  0  0  0  0  0  0  0
    2.9485   -5.8535    0.0000 C   0  0  0  0  0  0  0  0  0  0  0  0
    2.2547   -6.3305    0.0000 C   0  0  0  0  0  0  0  0  0  0  0  0
    3.6856   -6.2004    0.0000 C   0  0  0  0  0  0  0  0  0  0  0  0
    5.3766   -1.6910    0.0000 C   0  0  0  0  0  0  0  0  0  0  0  0
    4.3793   -5.7668    0.0000 C   0  0  0  0  0  0  0  0  0  0  0  0
    2.3414   -7.1977    0.0000 C   0  0  0  0  0  0  0  0  0  0  0  0
    3.0785   -7.5012    0.0000 C   0  0  0  0  0  0  0  0  0  0  0  0
    1.2141   -0.6504    0.0000 C   0  0  0  0  0  0  0  0  0  0  0  0
    3.1653   -8.3250    0.0000 C   0  0  0  0  0  0  0  0  0  0  0  0
    3.7723   -7.0242    0.0000 C   0  0  0  0  0  0  0  0  0  0  0  0
    3.9024   -8.6719    0.0000 C   0  0  0  0  0  0  0  0  0  0  0  0
    4.5094   -7.3711    0.0000 C   0  0  0  0  0  0  0  0  0  0  0  0
    4.5961   -8.1950    0.0000 C   0  0  0  0  0  0  0  0  0  0  0  0
  1 16  1  0  0  0  0
  1 22  1  0  0  0  0
  2 14  2  0  0  0  0
  3 19  2  0  0  0  0
  4 23  1  0  0  0  0
  4 32  1  0  0  0  0
  5 23  2  0  0  0  0
  6 12  1  0  0  0  0
  6 14  1  0  0  0  0
  7 18  1  0  0  0  0
  7 22  2  0  0  0  0
  8 24  1  0  0  0  0
  8 29  2  0  0  0  0
  9 10  1  0  0  0  0
  9 12  2  0  0  0  0
  9 15  1  0  0  0  0
 10 11  2  0  0  0  0
 10 17  1  0  0  0  0
 11 14  1  0  0  0  0
 11 19  1  0  0  0  0
 12 20  1  0  0  0  0
 13 15  2  0  0  0  0
 13 16  1  0  0  0  0
 13 21  1  0  0  0  0
 16 18  2  0  0  0  0
 17 24  2  0  0  0  0
 17 25  1  0  0  0  0
 18 23  1  0  0  0  0
 19 26  1  0  0  0  0
 20 21  2  0  0  0  0
 22 28  1  0  0  0  0
 25 27  2  0  0  0  0
 26 30  2  0  0  0  0
 27 29  1  0  0  0  0
 30 31  1  0  0  0  0
 31 33  2  0  0  0  0
 31 34  1  0  0  0  0
 33 35  1  0  0  0  0
 34 36  2  0  0  0  0
 35 37  2  0  0  0  0
 36 37  1  0  0  0  0
M  END
> <PUBCHEM_COMPOUND_ID_TYPE>
0

> <PUBCHEM_TOTAL_CHARGE>
0

> <PUBCHEM_SUBSTANCE_ID>
310934500

> <PUBCHEM_SUBSTANCE_VERSION>
1

> <PUBCHEM_EXT_DATASOURCE_NAME>
4488

> <PUBCHEM_EXT_DATASOURCE_REGID>
SCHEMBL16111985

> <PUBCHEM_SUBSTANCE_COMMENT>
InChI=1S/C29H21N3O5/c1-17-31-26(29(35)36-2)27(37-17)19-11-12-22-21(15-19)24(20-9-6-14-30-16-20)25(28(34)32-22)23(33)13-10-18-7-4-3-5-8-18/h3-16H,1-2H3,(H,32,34)/b13-10+
InChIKey=CJVHIRKTGIJFBJ-JLHYYAGUSA-N

> <PUBCHEM_SUBSTANCE_SYNONYM>
SCHEMBL16111985

> <PUBCHEM_XREF_EXT_ID>
SCHEMBL16111985

> <PUBCHEM_EXT_DATASOURCE_URL>
https://www.surechembl.org/

> <PUBCHEM_EXT_SUBSTANCE_URL>
https://www.surechembl.org/chemical/SCHEMBL16111985

> <PUBCHEM_CID_ASSOCIATIONS>
117602699  1

> <PUBCHEM_COORDINATE_TYPE>
1
3

$$$$
