310949867
  -OEChem-07211613022D

 30 34  0     0  0  0  0  0  0999 V2000
   -0.8668    1.3143    0.0000 N   0  0  0  0  0  0  0  0  0  0  0  0
   -0.8668    2.6565    0.0000 N   0  0  0  0  0  0  0  0  0  0  0  0
    0.9368    1.3143    0.0000 N   0  0  0  0  0  0  0  0  0  0  0  0
   -0.0979   -1.0626    0.0000 N   0  0  0  0  0  0  0  0  0  0  0  0
   -0.3915    1.9993    0.0000 C   0  0  0  0  0  0  0  0  0  0  0  0
    0.4614    1.9853    0.0000 C   0  0  0  0  0  0  0  0  0  0  0  0
   -1.6638    1.5799    0.0000 C   0  0  0  0  0  0  0  0  0  0  0  0
   -1.6498    2.4048    0.0000 C   0  0  0  0  0  0  0  0  0  0  0  0
   -0.6152    0.5453    0.0000 C   0  0  0  0  0  0  0  0  0  0  0  0
    0.0839    2.7263    0.0000 C   0  0  0  0  0  0  0  0  0  0  0  0
    1.2583    2.1251    0.0000 C   0  0  0  0  0  0  0  0  0  0  0  0
   -2.3628    1.1605    0.0000 C   0  0  0  0  0  0  0  0  0  0  0  0
   -2.3768    2.7963    0.0000 C   0  0  0  0  0  0  0  0  0  0  0  0
   -1.1464   -0.0979    0.0000 C   0  0  0  0  0  0  0  0  0  0  0  0
    0.2097    0.3495    0.0000 C   0  0  0  0  0  0  0  0  0  0  0  0
    0.6571    3.2996    0.0000 C   0  0  0  0  0  0  0  0  0  0  0  0
    1.3981    2.9361    0.0000 C   0  0  0  0  0  0  0  0  0  0  0  0
   -3.0898    1.5659    0.0000 C   0  0  0  0  0  0  0  0  0  0  0  0
   -3.0898    2.4048    0.0000 C   0  0  0  0  0  0  0  0  0  0  0  0
   -0.9088   -0.8808    0.0000 C   0  0  0  0  0  0  0  0  0  0  0  0
    0.4614   -0.4194    0.0000 C   0  0  0  0  0  0  0  0  0  0  0  0
    0.1677   -1.8455    0.0000 C   0  0  0  0  0  0  0  0  0  0  0  0
    0.9647   -2.0273    0.0000 C   0  0  0  0  0  0  0  0  0  0  0  0
    1.1325   -2.8382    0.0000 C   0  0  0  0  0  0  0  0  0  0  0  0
    1.4541   -1.3422    0.0000 C   0  0  0  0  0  0  0  0  0  0  0  0
    1.8036   -3.2996    0.0000 C   0  0  0  0  0  0  0  0  0  0  0  0
    2.2650   -1.2024    0.0000 C   0  0  0  0  0  0  0  0  0  0  0  0
    2.9361   -1.6498    0.0000 C   0  0  0  0  0  0  0  0  0  0  0  0
    2.6145   -3.1598    0.0000 C   0  0  0  0  0  0  0  0  0  0  0  0
    3.0898   -2.4747    0.0000 C   0  0  0  0  0  0  0  0  0  0  0  0
  1  5  1  0  0  0  0
  1  7  1  0  0  0  0
  1  9  1  0  0  0  0
  2  5  2  0  0  0  0
  2  8  1  0  0  0  0
  3  6  1  0  0  0  0
  4 20  1  0  0  0  0
  4 21  1  0  0  0  0
  4 22  1  0  0  0  0
  5  6  1  0  0  0  0
  6 10  1  0  0  0  0
  6 11  1  0  0  0  0
  7  8  1  0  0  0  0
  7 12  2  0  0  0  0
  8 13  2  0  0  0  0
  9 14  1  0  0  0  0
  9 15  1  0  0  0  0
 10 16  1  0  0  0  0
 11 17  1  0  0  0  0
 12 18  1  0  0  0  0
 13 19  1  0  0  0  0
 14 20  1  0  0  0  0
 15 21  1  0  0  0  0
 16 17  1  0  0  0  0
 18 19  2  0  0  0  0
 22 23  1  0  0  0  0
 23 24  1  0  0  0  0
 23 25  1  0  0  0  0
 24 26  1  0  0  0  0
 25 27  1  0  0  0  0
 26 29  1  0  0  0  0
 27 28  1  0  0  0  0
 28 30  1  0  0  0  0
 29 30  1  0  0  0  0
M  END
> <PUBCHEM_COMPOUND_ID_TYPE>
0

> <PUBCHEM_TOTAL_CHARGE>
0

> <PUBCHEM_SUBSTANCE_ID>
310949867

> <PUBCHEM_SUBSTANCE_VERSION>
1

> <PUBCHEM_EXT_DATASOURCE_NAME>
4488

> <PUBCHEM_EXT_DATASOURCE_REGID>
SCHEMBL16128073

> <PUBCHEM_SUBSTANCE_COMMENT>
InChI=1S/C26H40N4/c27-26(16-8-9-17-26)25-28-23-12-6-7-13-24(23)30(25)22-14-18-29(19-15-22)20-21-10-4-2-1-3-5-11-21/h6-7,12-13,21-22H,1-5,8-11,14-20,27H2
InChIKey=DUAZWZJBFQCJPN-UHFFFAOYSA-N

> <PUBCHEM_SUBSTANCE_SYNONYM>
SCHEMBL16128073

> <PUBCHEM_XREF_EXT_ID>
SCHEMBL16128073

> <PUBCHEM_EXT_DATASOURCE_URL>
https://www.surechembl.org/

> <PUBCHEM_EXT_SUBSTANCE_URL>
https://www.surechembl.org/chemical/SCHEMBL16128073

> <PUBCHEM_CID_ASSOCIATIONS>
86272622  1

> <PUBCHEM_COORDINATE_TYPE>
1
3

$$$$
