310938592
  -OEChem-07211613022D

 34 37  0     1  0  0  0  0  0999 V2000
   -4.2868   -8.6367    0.0000 Cl  0  0  0  0  0  0  0  0  0  0  0  0
    0.0000  -10.2867    0.0000 O   0  0  0  0  0  0  0  0  0  0  0  0
    2.3923   -7.0997    0.0000 O   0  0  0  0  0  0  0  0  0  0  0  0
   -4.2868  -11.1117    0.0000 O   0  0  0  0  0  0  0  0  0  0  0  0
    0.7145   -6.5742    0.0000 N   0  0  0  0  0  0  0  0  0  0  0  0
    0.0000   -7.8117    0.0000 N   0  0  0  0  0  0  0  0  0  0  0  0
    1.4289   -7.8117    0.0000 N   0  0  0  0  0  0  0  0  0  0  0  0
   -0.7145   -9.0492    0.0000 N   0  0  0  0  0  0  0  0  0  0  0  0
    1.4289  -10.2867    0.0000 N   0  0  0  0  0  0  0  0  0  0  0  0
    2.8579  -11.1117    0.0000 N   0  0  0  0  0  0  0  0  0  0  0  0
    3.5724   -9.8742    0.0000 N   0  0  0  0  0  0  0  0  0  0  0  0
    0.7145   -7.3992    0.0000 C   0  0  0  0  0  0  0  0  0  0  0  0
    0.0000   -8.6367    0.0000 C   0  0  0  0  0  0  0  0  0  0  0  0
    0.7145   -9.0492    0.0000 C   0  0  0  0  0  0  0  0  0  0  0  0
    1.3819   -6.0893    0.0000 C   0  0  3  0  0  0  0  0  0  0  0  0
    1.4289   -8.6367    0.0000 C   0  0  0  0  0  0  0  0  0  0  0  0
    0.7145   -9.8742    0.0000 C   0  0  0  0  0  0  0  0  0  0  0  0
    0.0470   -6.0893    0.0000 C   0  0  0  0  0  0  0  0  0  0  0  0
    1.1270   -5.3047    0.0000 C   0  0  0  0  0  0  0  0  0  0  0  0
    0.3020   -5.3047    0.0000 C   0  0  0  0  0  0  0  0  0  0  0  0
   -1.4289   -8.6367    0.0000 C   0  0  0  0  0  0  0  0  0  0  0  0
   -2.1434   -9.0492    0.0000 C   0  0  0  0  0  0  0  0  0  0  0  0
    2.1788   -6.3028    0.0000 C   0  0  0  0  0  0  0  0  0  0  0  0
   -3.5724   -9.0492    0.0000 C   0  0  0  0  0  0  0  0  0  0  0  0
   -2.8579   -8.6367    0.0000 C   0  0  0  0  0  0  0  0  0  0  0  0
   -3.5724   -9.8742    0.0000 C   0  0  0  0  0  0  0  0  0  0  0  0
   -2.1434   -9.8742    0.0000 C   0  0  0  0  0  0  0  0  0  0  0  0
    2.1434   -9.8742    0.0000 C   0  0  0  0  0  0  0  0  0  0  0  0
   -2.8579  -10.2867    0.0000 C   0  0  0  0  0  0  0  0  0  0  0  0
    2.8579  -10.2867    0.0000 C   0  0  0  0  0  0  0  0  0  0  0  0
   -4.2868  -10.2867    0.0000 C   0  0  0  0  0  0  0  0  0  0  0  0
    3.5724  -11.5242    0.0000 C   0  0  0  0  0  0  0  0  0  0  0  0
    4.2868  -10.2867    0.0000 C   0  0  0  0  0  0  0  0  0  0  0  0
    4.2868  -11.1117    0.0000 C   0  0  0  0  0  0  0  0  0  0  0  0
  1 24  1  0  0  0  0
  2 17  2  0  0  0  0
  3 23  1  0  0  0  0
  4 31  1  0  0  0  0
  5 12  1  0  0  0  0
  5 15  1  0  0  0  0
  5 18  1  0  0  0  0
  6 12  1  0  0  0  0
  6 13  2  0  0  0  0
  7 12  2  0  0  0  0
  7 16  1  0  0  0  0
  8 13  1  0  0  0  0
  8 21  1  0  0  0  0
  9 17  1  0  0  0  0
  9 28  1  0  0  0  0
 10 30  2  0  0  0  0
 10 32  1  0  0  0  0
 11 30  1  0  0  0  0
 11 33  2  0  0  0  0
 13 14  1  0  0  0  0
 14 16  2  0  0  0  0
 14 17  1  0  0  0  0
 15 19  1  0  0  0  0
 15 23  1  1  0  0  0
 18 20  1  0  0  0  0
 19 20  1  0  0  0  0
 21 22  1  0  0  0  0
 22 25  2  0  0  0  0
 22 27  1  0  0  0  0
 24 25  1  0  0  0  0
 24 26  2  0  0  0  0
 26 29  1  0  0  0  0
 26 31  1  0  0  0  0
 27 29  2  0  0  0  0
 28 30  1  0  0  0  0
 32 34  2  0  0  0  0
 33 34  1  0  0  0  0
M  END
> <PUBCHEM_COMPOUND_ID_TYPE>
0

> <PUBCHEM_TOTAL_CHARGE>
0

> <PUBCHEM_SUBSTANCE_ID>
310938592

> <PUBCHEM_SUBSTANCE_VERSION>
1

> <PUBCHEM_EXT_DATASOURCE_NAME>
4488

> <PUBCHEM_EXT_DATASOURCE_REGID>
SCHEMBL16116506

> <PUBCHEM_SUBSTANCE_COMMENT>
InChI=1S/C23H26ClN7O3/c24-19-9-15(4-5-16(19)13-32)10-27-21-18(22(34)28-12-20-25-6-2-7-26-20)11-29-23(30-21)31-8-1-3-17(31)14-33/h2,4-7,9,11,17,32-33H,1,3,8,10,12-14H2,(H,28,34)(H,27,29,30)/t17-/m0/s1
InChIKey=XDVSDDYVGJPAIO-KRWDZBQOSA-N

> <PUBCHEM_SUBSTANCE_SYNONYM>
SCHEMBL16116506

> <PUBCHEM_XREF_EXT_ID>
SCHEMBL16116506

> <PUBCHEM_EXT_DATASOURCE_URL>
https://www.surechembl.org/

> <PUBCHEM_EXT_SUBSTANCE_URL>
https://www.surechembl.org/chemical/SCHEMBL16116506

> <PUBCHEM_CID_ASSOCIATIONS>
117606026  1

> <PUBCHEM_COORDINATE_TYPE>
1
3

> <PUBCHEM_BONDANNOTATIONS>
15  23  5

$$$$
