310930817
  -OEChem-07211613022D

 12 12  0     0  0  0  0  0  0999 V2000
    2.4906   -2.8793    0.0000 Br  0  0  0  0  0  0  0  0  0  0  0  0
    0.0000    0.0000    0.0000 S   0  0  0  0  0  0  0  0  0  0  0  0
    1.2525   -0.7198    0.0000 N   0  0  0  0  0  0  0  0  0  0  0  0
    0.0000   -1.4397    0.0000 N   0  0  0  0  0  0  0  0  0  0  0  0
    2.4906   -1.4540    0.0000 C   0  0  0  0  0  0  0  0  0  0  0  0
    2.8937   -2.1738    0.0000 C   0  0  0  0  0  0  0  0  0  0  0  0
    1.6700   -1.4540    0.0000 C   0  0  0  0  0  0  0  0  0  0  0  0
    2.9224   -0.7342    0.0000 C   0  0  0  0  0  0  0  0  0  0  0  0
    3.7431   -2.1738    0.0000 C   0  0  0  0  0  0  0  0  0  0  0  0
    0.4175   -0.7198    0.0000 C   0  0  0  0  0  0  0  0  0  0  0  0
    3.7431   -0.7342    0.0000 C   0  0  0  0  0  0  0  0  0  0  0  0
    4.1462   -1.4540    0.0000 C   0  0  0  0  0  0  0  0  0  0  0  0
  1  6  1  0  0  0  0
  2 10  2  0  0  0  0
  3  7  1  0  0  0  0
  3 10  1  0  0  0  0
  4 10  1  0  0  0  0
  5  6  2  0  0  0  0
  5  7  1  0  0  0  0
  5  8  1  0  0  0  0
  6  9  1  0  0  0  0
  8 11  2  0  0  0  0
  9 12  2  0  0  0  0
 11 12  1  0  0  0  0
M  END
> <PUBCHEM_COMPOUND_ID_TYPE>
0

> <PUBCHEM_TOTAL_CHARGE>
0

> <PUBCHEM_SUBSTANCE_ID>
310930817

> <PUBCHEM_SUBSTANCE_VERSION>
1

> <PUBCHEM_EXT_DATASOURCE_NAME>
4488

> <PUBCHEM_EXT_DATASOURCE_REGID>
SCHEMBL16108114

> <PUBCHEM_SUBSTANCE_COMMENT>
InChI=1S/C8H9BrN2S/c9-7-4-2-1-3-6(7)5-11-8(10)12/h1-4H,5H2,(H3,10,11,12)
InChIKey=PPQAPUVLIVDIBC-UHFFFAOYSA-N

> <PUBCHEM_SUBSTANCE_SYNONYM>
SCHEMBL16108114

> <PUBCHEM_XREF_EXT_ID>
SCHEMBL16108114

> <PUBCHEM_EXT_DATASOURCE_URL>
https://www.surechembl.org/

> <PUBCHEM_EXT_SUBSTANCE_URL>
https://www.surechembl.org/chemical/SCHEMBL16108114

> <PUBCHEM_CID_ASSOCIATIONS>
61414105  1

> <PUBCHEM_COORDINATE_TYPE>
1
3

$$$$
