310941571
  -OEChem-07211613022D

 28 31  0     0  0  0  0  0  0999 V2000
   -3.0334   -2.3622    0.0000 Cl  0  0  0  0  0  0  0  0  0  0  0  0
    0.7223    1.1216    0.0000 S   0  0  0  0  0  0  0  0  0  0  0  0
   -1.6059   -1.5295    0.0000 O   0  0  0  0  0  0  0  0  0  0  0  0
   -0.1614   -1.5295    0.0000 O   0  0  0  0  0  0  0  0  0  0  0  0
    3.5942    0.1530    0.0000 O   0  0  0  0  0  0  0  0  0  0  0  0
    0.5863   -0.2039    0.0000 N   0  0  0  0  0  0  0  0  0  0  0  0
    1.9628    0.3059    0.0000 N   0  0  0  0  0  0  0  0  0  0  0  0
    3.5263    2.3622    0.0000 N   0  0  0  0  0  0  0  0  0  0  0  0
   -0.8922   -0.2719    0.0000 C   0  0  0  0  0  0  0  0  0  0  0  0
   -0.1955    0.1360    0.0000 C   0  0  0  0  0  0  0  0  0  0  0  0
   -2.3367   -1.1046    0.0000 C   0  0  0  0  0  0  0  0  0  0  0  0
   -2.3027   -0.2719    0.0000 C   0  0  0  0  0  0  0  0  0  0  0  0
   -0.9432   -1.1046    0.0000 C   0  0  0  0  0  0  0  0  0  0  0  0
   -1.6229    0.1189    0.0000 C   0  0  0  0  0  0  0  0  0  0  0  0
    1.1131    0.4249    0.0000 C   0  0  0  0  0  0  0  0  0  0  0  0
   -3.0334   -1.5125    0.0000 C   0  0  0  0  0  0  0  0  0  0  0  0
   -0.0764    0.9517    0.0000 C   0  0  0  0  0  0  0  0  0  0  0  0
   -2.9994    0.1189    0.0000 C   0  0  0  0  0  0  0  0  0  0  0  0
    2.2687   -0.4079    0.0000 C   0  0  0  0  0  0  0  0  0  0  0  0
   -3.7302   -1.1216    0.0000 C   0  0  0  0  0  0  0  0  0  0  0  0
   -3.7472   -0.2719    0.0000 C   0  0  0  0  0  0  0  0  0  0  0  0
    3.1014   -0.5268    0.0000 C   0  0  0  0  0  0  0  0  0  0  0  0
    1.8269   -1.1046    0.0000 C   0  0  0  0  0  0  0  0  0  0  0  0
    3.4413   -1.2576    0.0000 C   0  0  0  0  0  0  0  0  0  0  0  0
    2.1327   -1.8183    0.0000 C   0  0  0  0  0  0  0  0  0  0  0  0
    2.9654   -1.9203    0.0000 C   0  0  0  0  0  0  0  0  0  0  0  0
    3.2543    0.8667    0.0000 C   0  0  0  0  0  0  0  0  0  0  0  0
    3.7472    1.5634    0.0000 C   0  0  0  0  0  0  0  0  0  0  0  0
  1 16  1  0  0  0  0
  2 15  1  0  0  0  0
  2 17  1  0  0  0  0
  3 11  1  0  0  0  0
  3 13  1  0  0  0  0
  4 13  2  0  0  0  0
  5 22  1  0  0  0  0
  5 27  1  0  0  0  0
  6 10  1  0  0  0  0
  6 15  2  0  0  0  0
  7 15  1  0  0  0  0
  7 19  1  0  0  0  0
  8 28  1  0  0  0  0
  9 10  1  0  0  0  0
  9 13  1  0  0  0  0
  9 14  2  0  0  0  0
 10 17  2  0  0  0  0
 11 12  1  0  0  0  0
 11 16  2  0  0  0  0
 12 14  1  0  0  0  0
 12 18  2  0  0  0  0
 16 20  1  0  0  0  0
 18 21  1  0  0  0  0
 19 22  1  0  0  0  0
 19 23  2  0  0  0  0
 20 21  2  0  0  0  0
 22 24  2  0  0  0  0
 23 25  1  0  0  0  0
 24 26  1  0  0  0  0
 25 26  2  0  0  0  0
 27 28  1  0  0  0  0
M  END
> <PUBCHEM_COMPOUND_ID_TYPE>
0

> <PUBCHEM_TOTAL_CHARGE>
0

> <PUBCHEM_SUBSTANCE_ID>
310941571

> <PUBCHEM_SUBSTANCE_VERSION>
1

> <PUBCHEM_EXT_DATASOURCE_NAME>
4488

> <PUBCHEM_EXT_DATASOURCE_REGID>
SCHEMBL16119602

> <PUBCHEM_SUBSTANCE_COMMENT>
InChI=1S/C20H16ClN3O3S/c21-14-5-3-4-12-10-13(19(25)27-18(12)14)16-11-28-20(24-16)23-15-6-1-2-7-17(15)26-9-8-22/h1-7,10-11H,8-9,22H2,(H,23,24)
InChIKey=LGJROVZPBFQKSF-UHFFFAOYSA-N

> <PUBCHEM_SUBSTANCE_SYNONYM>
SCHEMBL16119602

> <PUBCHEM_XREF_EXT_ID>
SCHEMBL16119602

> <PUBCHEM_EXT_DATASOURCE_URL>
https://www.surechembl.org/

> <PUBCHEM_EXT_SUBSTANCE_URL>
https://www.surechembl.org/chemical/SCHEMBL16119602

> <PUBCHEM_CID_ASSOCIATIONS>
117608373  1

> <PUBCHEM_COORDINATE_TYPE>
1
3

$$$$
