310938467
  -OEChem-07211613022D

 17 18  0     0  0  0  0  0  0999 V2000
    4.5489   -1.4649    0.0000 O   0  0  0  0  0  0  0  0  0  0  0  0
    4.5489   -2.8913    0.0000 O   0  0  0  0  0  0  0  0  0  0  0  0
    2.8527   -2.8334    0.0000 N   0  0  0  0  0  0  0  0  0  0  0  0
    0.0964   -0.3469    0.0000 N   0  0  0  0  0  0  0  0  0  0  0  0
    2.0624   -1.7733    0.0000 C   0  0  0  0  0  0  0  0  0  0  0  0
    3.3346   -2.1781    0.0000 C   0  0  0  0  0  0  0  0  0  0  0  0
    2.0624   -2.5829    0.0000 C   0  0  0  0  0  0  0  0  0  0  0  0
    2.8527   -1.5034    0.0000 C   0  0  0  0  0  0  0  0  0  0  0  0
    1.4071   -1.2914    0.0000 C   0  0  0  0  0  0  0  0  0  0  0  0
    4.1442   -2.1781    0.0000 C   0  0  0  0  0  0  0  0  0  0  0  0
    1.5034   -0.5011    0.0000 C   0  0  0  0  0  0  0  0  0  0  0  0
    0.6553   -1.6384    0.0000 C   0  0  0  0  0  0  0  0  0  0  0  0
    1.4071   -3.0455    0.0000 C   0  0  0  0  0  0  0  0  0  0  0  0
    0.8481    0.0000    0.0000 C   0  0  0  0  0  0  0  0  0  0  0  0
    0.0000   -1.1372    0.0000 C   0  0  0  0  0  0  0  0  0  0  0  0
    5.3585   -1.4649    0.0000 C   0  0  0  0  0  0  0  0  0  0  0  0
    5.7826   -0.7518    0.0000 C   0  0  0  0  0  0  0  0  0  0  0  0
  1 10  1  0  0  0  0
  1 16  1  0  0  0  0
  2 10  2  0  0  0  0
  3  6  1  0  0  0  0
  3  7  1  0  0  0  0
  4 14  2  0  0  0  0
  4 15  1  0  0  0  0
  5  7  2  0  0  0  0
  5  8  1  0  0  0  0
  5  9  1  0  0  0  0
  6  8  2  0  0  0  0
  6 10  1  0  0  0  0
  7 13  1  0  0  0  0
  9 11  2  0  0  0  0
  9 12  1  0  0  0  0
 11 14  1  0  0  0  0
 12 15  2  0  0  0  0
 16 17  1  0  0  0  0
M  END
> <PUBCHEM_COMPOUND_ID_TYPE>
0

> <PUBCHEM_TOTAL_CHARGE>
0

> <PUBCHEM_SUBSTANCE_ID>
310938467

> <PUBCHEM_SUBSTANCE_VERSION>
1

> <PUBCHEM_EXT_DATASOURCE_NAME>
4488

> <PUBCHEM_EXT_DATASOURCE_REGID>
SCHEMBL16116368

> <PUBCHEM_SUBSTANCE_COMMENT>
InChI=1S/C13H14N2O2/c1-3-17-13(16)12-8-11(9(2)15-12)10-4-6-14-7-5-10/h4-8,15H,3H2,1-2H3
InChIKey=AEHWKILFVRHNAA-UHFFFAOYSA-N

> <PUBCHEM_SUBSTANCE_SYNONYM>
SCHEMBL16116368

> <PUBCHEM_XREF_EXT_ID>
SCHEMBL16116368

> <PUBCHEM_EXT_DATASOURCE_URL>
https://www.surechembl.org/

> <PUBCHEM_EXT_SUBSTANCE_URL>
https://www.surechembl.org/chemical/SCHEMBL16116368

> <PUBCHEM_CID_ASSOCIATIONS>
117605925  1

> <PUBCHEM_COORDINATE_TYPE>
1
3

$$$$
