310943942
  -OEChem-07211613022D

 34 37  0     0  0  0  0  0  0999 V2000
    2.9475   -2.2700    0.0000 F   0  0  0  0  0  0  0  0  0  0  0  0
   -0.7543    3.9043    0.0000 F   0  0  0  0  0  0  0  0  0  0  0  0
   -0.0140    0.1885    0.0000 N   0  0  0  0  0  0  0  0  0  0  0  0
   -1.4807    0.1746    0.0000 N   0  0  0  0  0  0  0  0  0  0  0  0
   -0.7543   -1.0546    0.0000 N   0  0  0  0  0  0  0  0  0  0  0  0
    1.4388   -3.9043    0.0000 N   0  0  0  0  0  0  0  0  0  0  0  0
    1.4388    3.4434    0.0000 N   0  0  0  0  0  0  0  0  0  0  0  0
    3.6599   -0.2724    0.0000 N   0  0  0  0  0  0  0  0  0  0  0  0
   -2.9614    3.4014    0.0000 N   0  0  0  0  0  0  0  0  0  0  0  0
   -0.0140   -0.6216    0.0000 C   0  0  0  0  0  0  0  0  0  0  0  0
   -0.7683    0.6077    0.0000 C   0  0  0  0  0  0  0  0  0  0  0  0
    0.7264   -1.0128    0.0000 C   0  0  0  0  0  0  0  0  0  0  0  0
   -0.7404    1.4598    0.0000 C   0  0  0  0  0  0  0  0  0  0  0  0
   -1.4947   -0.6356    0.0000 C   0  0  0  0  0  0  0  0  0  0  0  0
    0.7404   -1.8370    0.0000 C   0  0  0  0  0  0  0  0  0  0  0  0
   -0.0559    1.8509    0.0000 C   0  0  0  0  0  0  0  0  0  0  0  0
    1.4527   -0.6216    0.0000 C   0  0  0  0  0  0  0  0  0  0  0  0
   -1.4807    1.8509    0.0000 C   0  0  0  0  0  0  0  0  0  0  0  0
    1.4388   -2.2280    0.0000 C   0  0  0  0  0  0  0  0  0  0  0  0
   -0.0280    2.7169    0.0000 C   0  0  0  0  0  0  0  0  0  0  0  0
    2.2071   -0.9988    0.0000 C   0  0  0  0  0  0  0  0  0  0  0  0
   -1.4947    2.6751    0.0000 C   0  0  0  0  0  0  0  0  0  0  0  0
   -2.1931   -1.0546    0.0000 C   0  0  0  0  0  0  0  0  0  0  0  0
    2.1792   -1.8230    0.0000 C   0  0  0  0  0  0  0  0  0  0  0  0
   -0.7543    3.1081    0.0000 C   0  0  0  0  0  0  0  0  0  0  0  0
   -2.9335   -0.6775    0.0000 C   0  0  0  0  0  0  0  0  0  0  0  0
   -2.2071   -1.8788    0.0000 C   0  0  0  0  0  0  0  0  0  0  0  0
    1.4388   -3.0801    0.0000 C   0  0  0  0  0  0  0  0  0  0  0  0
    0.6985    3.0941    0.0000 C   0  0  0  0  0  0  0  0  0  0  0  0
    2.9196   -0.6216    0.0000 C   0  0  0  0  0  0  0  0  0  0  0  0
   -2.2351    3.0522    0.0000 C   0  0  0  0  0  0  0  0  0  0  0  0
   -3.6599   -1.0826    0.0000 C   0  0  0  0  0  0  0  0  0  0  0  0
   -2.9196   -2.2839    0.0000 C   0  0  0  0  0  0  0  0  0  0  0  0
   -3.6459   -1.9068    0.0000 C   0  0  0  0  0  0  0  0  0  0  0  0
  1 24  1  0  0  0  0
  2 25  1  0  0  0  0
  3 10  2  0  0  0  0
  3 11  1  0  0  0  0
  4 11  2  0  0  0  0
  4 14  1  0  0  0  0
  5 10  1  0  0  0  0
  5 14  2  0  0  0  0
  6 28  3  0  0  0  0
  7 29  3  0  0  0  0
  8 30  3  0  0  0  0
  9 31  3  0  0  0  0
 10 12  1  0  0  0  0
 11 13  1  0  0  0  0
 12 15  2  0  0  0  0
 12 17  1  0  0  0  0
 13 16  2  0  0  0  0
 13 18  1  0  0  0  0
 14 23  1  0  0  0  0
 15 19  1  0  0  0  0
 16 20  1  0  0  0  0
 17 21  2  0  0  0  0
 18 22  2  0  0  0  0
 19 24  2  0  0  0  0
 19 28  1  0  0  0  0
 20 25  2  0  0  0  0
 20 29  1  0  0  0  0
 21 24  1  0  0  0  0
 21 30  1  0  0  0  0
 22 25  1  0  0  0  0
 22 31  1  0  0  0  0
 23 26  2  0  0  0  0
 23 27  1  0  0  0  0
 26 32  1  0  0  0  0
 27 33  2  0  0  0  0
 32 34  2  0  0  0  0
 33 34  1  0  0  0  0
M  END
> <PUBCHEM_COMPOUND_ID_TYPE>
0

> <PUBCHEM_TOTAL_CHARGE>
0

> <PUBCHEM_SUBSTANCE_ID>
310943942

> <PUBCHEM_SUBSTANCE_VERSION>
1

> <PUBCHEM_EXT_DATASOURCE_NAME>
4488

> <PUBCHEM_EXT_DATASOURCE_REGID>
SCHEMBL16122013

> <PUBCHEM_SUBSTANCE_COMMENT>
InChI=1S/C25H9F2N7/c26-21-17(10-28)6-15(7-18(21)11-29)24-32-23(14-4-2-1-3-5-14)33-25(34-24)16-8-19(12-30)22(27)20(9-16)13-31/h1-9H
InChIKey=PNYAASILAYYYRF-UHFFFAOYSA-N

> <PUBCHEM_SUBSTANCE_SYNONYM>
SCHEMBL16122013

> <PUBCHEM_XREF_EXT_ID>
SCHEMBL16122013

> <PUBCHEM_EXT_DATASOURCE_URL>
https://www.surechembl.org/

> <PUBCHEM_EXT_SUBSTANCE_URL>
https://www.surechembl.org/chemical/SCHEMBL16122013

> <PUBCHEM_CID_ASSOCIATIONS>
117610250  1

> <PUBCHEM_COORDINATE_TYPE>
1
3

$$$$
