310937184
  -OEChem-07211613022D

 18 19  0     0  0  0  0  0  0999 V2000
    4.9485   -2.1695    0.0000 Br  0  0  0  0  0  0  0  0  0  0  0  0
    1.6675   -0.7351    0.0000 Cl  0  0  0  0  0  0  0  0  0  0  0  0
    1.6495   -2.1695    0.0000 N   0  0  0  0  0  0  0  0  0  0  0  0
    2.8866   -2.8687    0.0000 N   0  0  0  0  0  0  0  0  0  0  0  0
    3.6935   -1.4523    0.0000 N   0  0  0  0  0  0  0  0  0  0  0  0
    2.4563   -2.1695    0.0000 C   0  0  0  0  0  0  0  0  0  0  0  0
    2.8866   -1.4523    0.0000 C   0  0  0  0  0  0  0  0  0  0  0  0
    1.2371   -1.4523    0.0000 C   0  0  0  0  0  0  0  0  0  0  0  0
    4.1238   -2.1695    0.0000 C   0  0  0  0  0  0  0  0  0  0  0  0
    3.6935   -2.8687    0.0000 C   0  0  0  0  0  0  0  0  0  0  0  0
    1.2371   -2.8687    0.0000 C   0  0  0  0  0  0  0  0  0  0  0  0
    2.4922   -0.7530    0.0000 C   0  0  0  0  0  0  0  0  0  0  0  0
    0.4124   -1.4164    0.0000 C   0  0  0  0  0  0  0  0  0  0  0  0
    1.7929   -0.8785    0.0000 C   0  0  0  0  0  0  0  0  0  0  0  0
    0.0000   -0.7351    0.0000 C   0  0  0  0  0  0  0  0  0  0  0  0
    1.2192   -0.0179    0.0000 C   0  0  0  0  0  0  0  0  0  0  0  0
    0.3944    0.0000    0.0000 C   0  0  0  0  0  0  0  0  0  0  0  0
    1.6495   -3.5859    0.0000 C   0  0  0  0  0  0  0  0  0  0  0  0
  1  9  1  0  0  0  0
  2 12  1  0  0  0  0
  3  6  1  0  0  0  0
  3  8  1  0  0  0  0
  3 11  1  0  0  0  0
  4  6  2  0  0  0  0
  4 10  1  0  0  0  0
  5  7  2  0  0  0  0
  5  9  1  0  0  0  0
  6  7  1  0  0  0  0
  7 12  1  0  0  0  0
  8 13  1  0  0  0  0
  8 14  1  0  0  0  0
  9 10  2  0  0  0  0
 11 18  1  0  0  0  0
 13 15  1  0  0  0  0
 14 16  1  0  0  0  0
 15 17  1  0  0  0  0
 16 17  1  0  0  0  0
M  END
> <PUBCHEM_COMPOUND_ID_TYPE>
0

> <PUBCHEM_TOTAL_CHARGE>
0

> <PUBCHEM_SUBSTANCE_ID>
310937184

> <PUBCHEM_SUBSTANCE_VERSION>
1

> <PUBCHEM_EXT_DATASOURCE_NAME>
4488

> <PUBCHEM_EXT_DATASOURCE_REGID>
SCHEMBL16114911

> <PUBCHEM_SUBSTANCE_COMMENT>
InChI=1S/C13H19BrClN3/c1-2-18(10-6-4-3-5-7-10)13-11(8-15)17-12(14)9-16-13/h9-10H,2-8H2,1H3
InChIKey=KYBFPGMZVGLUEC-UHFFFAOYSA-N

> <PUBCHEM_SUBSTANCE_SYNONYM>
SCHEMBL16114911

> <PUBCHEM_XREF_EXT_ID>
SCHEMBL16114911

> <PUBCHEM_EXT_DATASOURCE_URL>
https://www.surechembl.org/

> <PUBCHEM_EXT_SUBSTANCE_URL>
https://www.surechembl.org/chemical/SCHEMBL16114911

> <PUBCHEM_CID_ASSOCIATIONS>
117605001  1

> <PUBCHEM_COORDINATE_TYPE>
1
3

$$$$
