310944491
  -OEChem-07211613022D

 34 38  0     1  0  0  0  0  0999 V2000
   -1.4253    0.7650    0.0000 F   0  0  0  0  0  0  0  0  0  0  0  0
    2.5479    0.8530    0.0000 O   0  0  0  0  0  0  0  0  0  0  0  0
    5.4647    0.2697    0.0000 O   0  0  0  0  0  0  0  0  0  0  0  0
    5.4537    1.7224    0.0000 O   0  0  0  0  0  0  0  0  0  0  0  0
   -0.6329   -1.5574    0.0000 O   0  0  0  0  0  0  0  0  0  0  0  0
    3.4175   -0.3247    0.0000 N   0  0  0  0  0  0  0  0  0  0  0  0
    0.4677   -0.2916    0.0000 N   0  0  0  0  0  0  0  0  0  0  0  0
   -4.1329   -0.1376    0.0000 N   0  0  0  0  0  0  0  0  0  0  0  0
   -4.4741    0.5999    0.0000 N   0  0  0  0  0  0  0  0  0  0  0  0
   -5.2996    0.5118    0.0000 N   0  0  0  0  0  0  0  0  0  0  0  0
   -5.4647   -0.3027    0.0000 N   0  0  0  0  0  0  0  0  0  0  0  0
    2.0967   -0.5227    0.0000 C   0  0  0  0  0  0  0  0  0  0  0  0
    2.6800    0.0385    0.0000 C   0  0  0  0  0  0  0  0  0  0  0  0
    3.2964   -1.1282    0.0000 C   0  0  3  0  0  0  0  0  0  0  0  0
    4.1550    0.0606    0.0000 C   0  0  0  0  0  0  0  0  0  0  0  0
    2.4819   -1.2602    0.0000 C   0  0  0  0  0  0  0  0  0  0  0  0
    1.5794   -1.1722    0.0000 C   0  0  0  0  0  0  0  0  0  0  0  0
    1.7996    0.2256    0.0000 C   0  0  0  0  0  0  0  0  0  0  0  0
    4.2870    0.8750    0.0000 C   0  0  0  0  0  0  0  0  0  0  0  0
    4.9033   -0.3027    0.0000 C   0  0  0  0  0  0  0  0  0  0  0  0
    5.0684    0.9851    0.0000 C   0  0  0  0  0  0  0  0  0  0  0  0
    0.7650   -1.0401    0.0000 C   0  0  0  0  0  0  0  0  0  0  0  0
    0.9851    0.3577    0.0000 C   0  0  0  0  0  0  0  0  0  0  0  0
    3.9017   -1.7224    0.0000 C   0  0  0  0  0  0  0  0  0  0  0  0
   -0.3467   -0.1706    0.0000 C   0  0  0  0  0  0  0  0  0  0  0  0
   -1.7115   -0.6219    0.0000 C   0  0  0  0  0  0  0  0  0  0  0  0
   -0.8970   -0.7760    0.0000 C   0  0  3  0  0  0  0  0  0  0  0  0
    3.6816    1.4583    0.0000 C   0  0  0  0  0  0  0  0  0  0  0  0
   -1.9757    0.1596    0.0000 C   0  0  0  0  0  0  0  0  0  0  0  0
   -3.3184   -0.3027    0.0000 C   0  0  0  0  0  0  0  0  0  0  0  0
   -2.7791    0.3136    0.0000 C   0  0  0  0  0  0  0  0  0  0  0  0
   -2.2398   -1.2272    0.0000 C   0  0  0  0  0  0  0  0  0  0  0  0
   -3.0543   -1.0621    0.0000 C   0  0  0  0  0  0  0  0  0  0  0  0
   -4.7383   -0.6879    0.0000 C   0  0  0  0  0  0  0  0  0  0  0  0
  1 29  1  0  0  0  0
  2 13  2  0  0  0  0
  3 20  1  0  0  0  0
  3 21  1  0  0  0  0
  4 21  2  0  0  0  0
 27  5  1  1  0  0  0
  6 13  1  0  0  0  0
  6 14  1  0  0  0  0
  6 15  1  0  0  0  0
  7 22  1  0  0  0  0
  7 23  1  0  0  0  0
  7 25  1  0  0  0  0
  8  9  1  0  0  0  0
  8 30  1  0  0  0  0
  8 34  1  0  0  0  0
  9 10  2  0  0  0  0
 10 11  1  0  0  0  0
 11 34  2  0  0  0  0
 12 13  1  0  0  0  0
 12 16  1  0  0  0  0
 12 17  1  0  0  0  0
 12 18  1  0  0  0  0
 14 16  1  0  0  0  0
 14 24  1  0  0  0  0
 15 19  2  0  0  0  0
 15 20  1  0  0  0  0
 17 22  1  0  0  0  0
 18 23  1  0  0  0  0
 19 21  1  0  0  0  0
 19 28  1  0  0  0  0
 25 27  1  0  0  0  0
 26 27  1  0  0  0  0
 26 29  2  0  0  0  0
 26 32  1  0  0  0  0
 29 31  1  0  0  0  0
 30 31  2  0  0  0  0
 30 33  1  0  0  0  0
 32 33  2  0  0  0  0
M  END
> <PUBCHEM_COMPOUND_ID_TYPE>
0

> <PUBCHEM_TOTAL_CHARGE>
0

> <PUBCHEM_SUBSTANCE_ID>
310944491

> <PUBCHEM_SUBSTANCE_VERSION>
1

> <PUBCHEM_EXT_DATASOURCE_NAME>
4488

> <PUBCHEM_EXT_DATASOURCE_REGID>
SCHEMBL16122566

> <PUBCHEM_SUBSTANCE_COMMENT>
InChI=1S/C23H27FN6O4/c1-14-10-23(22(33)30(14)19-12-34-21(32)15(19)2)5-7-28(8-6-23)11-20(31)17-4-3-16(9-18(17)24)29-13-25-26-27-29/h3-4,9,13-14,20,31H,5-8,10-12H2,1-2H3/t14?,20-/m1/s1
InChIKey=QJXOBGSUDJCASG-YBMSBYLISA-N

> <PUBCHEM_SUBSTANCE_SYNONYM>
SCHEMBL16122566

> <PUBCHEM_XREF_EXT_ID>
SCHEMBL16122566

> <PUBCHEM_EXT_DATASOURCE_URL>
https://www.surechembl.org/

> <PUBCHEM_EXT_SUBSTANCE_URL>
https://www.surechembl.org/chemical/SCHEMBL16122566

> <PUBCHEM_CID_ASSOCIATIONS>
117610731  1

> <PUBCHEM_COORDINATE_TYPE>
1
3

> <PUBCHEM_BONDANNOTATIONS>
27  5  5

$$$$
