310942167
  -OEChem-07211613022D

 29 30  0     1  0  0  0  0  0999 V2000
    1.7716    0.4679    0.0000 Cl  0  0  0  0  0  0  0  0  0  0  0  0
    0.3244   -2.0274    0.0000 F   0  0  0  0  0  0  0  0  0  0  0  0
    1.7591   -1.1915    0.0000 O   0  0  0  0  0  0  0  0  0  0  0  0
   -0.3993    1.7155    0.0000 O   0  0  0  0  0  0  0  0  0  0  0  0
   -3.9300    2.4391    0.0000 O   0  0  0  0  0  0  0  0  0  0  0  0
   -1.8215   -0.7797    0.0000 N   0  0  0  0  0  0  0  0  0  0  0  0
   -1.8340    1.7155    0.0000 N   0  0  0  0  0  0  0  0  0  0  0  0
   -0.3993   -0.7673    0.0000 C   0  0  0  0  0  0  0  0  0  0  0  0
    0.3244   -1.1790    0.0000 C   0  0  0  0  0  0  0  0  0  0  0  0
    1.0356   -0.7673    0.0000 C   0  0  0  0  0  0  0  0  0  0  0  0
    1.0480    0.0686    0.0000 C   0  0  0  0  0  0  0  0  0  0  0  0
   -1.0979   -1.1790    0.0000 C   0  0  3  0  0  0  0  0  0  0  0  0
   -0.3619    0.0686    0.0000 C   0  0  0  0  0  0  0  0  0  0  0  0
    0.3369    0.4679    0.0000 C   0  0  0  0  0  0  0  0  0  0  0  0
    2.4828   -0.7673    0.0000 C   0  0  0  0  0  0  0  0  0  0  0  0
   -1.1104   -2.0274    0.0000 C   0  0  0  0  0  0  0  0  0  0  0  0
   -1.8215    0.0562    0.0000 C   0  0  3  0  0  0  0  0  0  0  0  0
    2.5202    0.0686    0.0000 C   0  0  0  0  0  0  0  0  0  0  0  0
    3.2188   -1.1915    0.0000 C   0  0  0  0  0  0  0  0  0  0  0  0
   -1.1104    0.4679    0.0000 C   0  0  0  0  0  0  0  0  0  0  0  0
   -1.1229    1.3038    0.0000 C   0  0  0  0  0  0  0  0  0  0  0  0
    3.2188    0.4679    0.0000 C   0  0  0  0  0  0  0  0  0  0  0  0
    3.9300   -0.7673    0.0000 C   0  0  0  0  0  0  0  0  0  0  0  0
   -1.7966   -2.4391    0.0000 C   0  0  0  0  0  0  0  0  0  0  0  0
   -2.5327    0.4679    0.0000 C   0  0  0  0  0  0  0  0  0  0  0  0
    3.9300    0.0562    0.0000 C   0  0  0  0  0  0  0  0  0  0  0  0
   -2.6699    1.7279    0.0000 C   0  0  3  0  0  0  0  0  0  0  0  0
   -3.0691    2.4267    0.0000 C   0  0  0  0  0  0  0  0  0  0  0  0
   -3.0691    1.0043    0.0000 C   0  0  0  0  0  0  0  0  0  0  0  0
  1 11  1  0  0  0  0
  2  9  1  0  0  0  0
  3 10  1  0  0  0  0
  3 15  1  0  0  0  0
  4 21  2  0  0  0  0
  5 28  1  0  0  0  0
 12  6  1  1  0  0  0
  6 17  1  0  0  0  0
  7 21  1  0  0  0  0
  7 27  1  0  0  0  0
  8  9  2  0  0  0  0
  8 12  1  0  0  0  0
  8 13  1  0  0  0  0
  9 10  1  0  0  0  0
 10 11  2  0  0  0  0
 11 14  1  0  0  0  0
 12 16  1  0  0  0  0
 13 14  2  0  0  0  0
 15 18  2  0  0  0  0
 15 19  1  0  0  0  0
 16 24  1  0  0  0  0
 17 20  1  0  0  0  0
 17 25  1  6  0  0  0
 18 22  1  0  0  0  0
 19 23  2  0  0  0  0
 20 21  1  0  0  0  0
 22 26  2  0  0  0  0
 23 26  1  0  0  0  0
 27 28  1  0  0  0  0
 27 29  1  6  0  0  0
M  END
> <PUBCHEM_COMPOUND_ID_TYPE>
0

> <PUBCHEM_TOTAL_CHARGE>
0

> <PUBCHEM_SUBSTANCE_ID>
310942167

> <PUBCHEM_SUBSTANCE_VERSION>
1

> <PUBCHEM_EXT_DATASOURCE_NAME>
4488

> <PUBCHEM_EXT_DATASOURCE_REGID>
SCHEMBL16120202

> <PUBCHEM_SUBSTANCE_COMMENT>
InChI=1S/C22H28ClFN2O3/c1-4-19(25-14(2)12-20(28)26-15(3)13-27)17-10-11-18(23)22(21(17)24)29-16-8-6-5-7-9-16/h5-11,14-15,19,25,27H,4,12-13H2,1-3H3,(H,26,28)/t14-,15-,19-/m1/s1
InChIKey=TWDHPHTZMAXEIC-SPYBWZPUSA-N

> <PUBCHEM_SUBSTANCE_SYNONYM>
SCHEMBL16120202

> <PUBCHEM_XREF_EXT_ID>
SCHEMBL16120202

> <PUBCHEM_EXT_DATASOURCE_URL>
https://www.surechembl.org/

> <PUBCHEM_EXT_SUBSTANCE_URL>
https://www.surechembl.org/chemical/SCHEMBL16120202

> <PUBCHEM_CID_ASSOCIATIONS>
117608820  1

> <PUBCHEM_COORDINATE_TYPE>
1
3

> <PUBCHEM_BONDANNOTATIONS>
17  25  6
27  29  6
12  6  5

$$$$
