310934835
  -OEChem-07211613022D

 40 43  0     0  0  0  0  0  0999 V2000
    3.7135   -7.1680    0.0000 S   0  0  0  0  0  0  0  0  0  0  0  0
    9.8451   -0.1727    0.0000 F   0  0  0  0  0  0  0  0  0  0  0  0
    8.4202    0.0000    0.0000 F   0  0  0  0  0  0  0  0  0  0  0  0
    8.3338   -0.8204    0.0000 F   0  0  0  0  0  0  0  0  0  0  0  0
    2.5045   -7.9020    0.0000 O   0  0  0  0  0  0  0  0  0  0  0  0
    9.0247   -1.3386    0.0000 O   0  0  0  0  0  0  0  0  0  0  0  0
    2.5045   -6.4770    0.0000 N   0  0  0  0  0  0  0  0  0  0  0  0
    5.9589   -2.6772    0.0000 N   0  0  0  0  0  0  0  0  0  0  0  0
    5.8294   -3.4976    0.0000 N   0  0  0  0  0  0  0  0  0  0  0  0
    4.6635   -2.8499    0.0000 N   0  0  0  0  0  0  0  0  0  0  0  0
    1.2522   -7.1680    0.0000 N   0  0  0  0  0  0  0  0  0  0  0  0
    3.7135   -8.6361    0.0000 N   0  0  0  0  0  0  0  0  0  0  0  0
    2.0727   -5.7430    0.0000 C   0  0  0  0  0  0  0  0  0  0  0  0
    5.0089   -3.5839    0.0000 C   0  0  0  0  0  0  0  0  0  0  0  0
    2.4613   -5.0089    0.0000 C   0  0  0  0  0  0  0  0  0  0  0  0
    4.5771   -4.3180    0.0000 C   0  0  0  0  0  0  0  0  0  0  0  0
    6.7362   -2.3317    0.0000 C   0  0  0  0  0  0  0  0  0  0  0  0
    3.8862   -5.9157    0.0000 C   0  0  0  0  0  0  0  0  0  0  0  0
    3.3249   -6.4770    0.0000 C   0  0  0  0  0  0  0  0  0  0  0  0
    2.0727   -7.1680    0.0000 C   0  0  0  0  0  0  0  0  0  0  0  0
    1.2090   -5.7430    0.0000 C   0  0  0  0  0  0  0  0  0  0  0  0
    5.2680   -2.2886    0.0000 C   0  0  0  0  0  0  0  0  0  0  0  0
    5.0089   -5.0521    0.0000 C   0  0  0  0  0  0  0  0  0  0  0  0
    3.8862   -4.4907    0.0000 C   0  0  0  0  0  0  0  0  0  0  0  0
    3.3249   -5.0089    0.0000 C   0  0  0  0  0  0  0  0  0  0  0  0
    2.0727   -4.3180    0.0000 C   0  0  0  0  0  0  0  0  0  0  0  0
    0.8204   -5.0089    0.0000 C   0  0  0  0  0  0  0  0  0  0  0  0
    4.5771   -5.7430    0.0000 C   0  0  0  0  0  0  0  0  0  0  0  0
    3.4976   -5.1816    0.0000 C   0  0  0  0  0  0  0  0  0  0  0  0
    6.8225   -1.5113    0.0000 C   0  0  0  0  0  0  0  0  0  0  0  0
    7.4270   -2.8499    0.0000 C   0  0  0  0  0  0  0  0  0  0  0  0
    1.2522   -4.3180    0.0000 C   0  0  0  0  0  0  0  0  0  0  0  0
    8.2474   -1.6840    0.0000 C   0  0  0  0  0  0  0  0  0  0  0  0
    7.5998   -1.1659    0.0000 C   0  0  0  0  0  0  0  0  0  0  0  0
    8.1611   -2.5045    0.0000 C   0  0  0  0  0  0  0  0  0  0  0  0
    9.1111   -0.5182    0.0000 C   0  0  0  0  0  0  0  0  0  0  0  0
    3.3249   -7.9020    0.0000 C   0  0  0  0  0  0  0  0  0  0  0  0
    3.7135   -4.3180    0.0000 C   0  0  0  0  0  0  0  0  0  0  0  0
    3.7135   -5.7430    0.0000 C   0  0  0  0  0  0  0  0  0  0  0  0
    0.0000   -5.0089    0.0000 C   0  0  0  0  0  0  0  0  0  0  0  0
  1 37  2  0  0  0  0
  2 36  1  0  0  0  0
  3 36  1  0  0  0  0
  4 36  1  0  0  0  0
  5 20  1  0  0  0  0
  5 37  1  0  0  0  0
  6 33  1  0  0  0  0
  6 36  1  0  0  0  0
  7 13  1  0  0  0  0
  7 19  1  0  0  0  0
  7 20  1  0  0  0  0
  8  9  1  0  0  0  0
  8 17  1  0  0  0  0
  8 22  1  0  0  0  0
  9 14  2  0  0  0  0
 10 14  1  0  0  0  0
 10 22  2  0  0  0  0
 11 20  2  3  0  0  0
 12 37  1  0  0  0  0
 13 15  1  0  0  0  0
 13 21  2  0  0  0  0
 14 16  1  0  0  0  0
 15 25  1  0  0  0  0
 15 26  2  0  0  0  0
 16 23  2  0  0  0  0
 16 24  1  0  0  0  0
 17 30  2  0  0  0  0
 17 31  1  0  0  0  0
 18 19  1  0  0  0  0
 18 28  2  0  0  0  0
 18 29  1  0  0  0  0
 21 27  1  0  0  0  0
 23 28  1  0  0  0  0
 24 29  2  0  0  0  0
 25 38  1  0  0  0  0
 25 39  1  0  0  0  0
 26 32  1  0  0  0  0
 27 32  2  0  0  0  0
 27 40  1  0  0  0  0
 30 34  1  0  0  0  0
 31 35  2  0  0  0  0
 33 34  2  0  0  0  0
 33 35  1  0  0  0  0
M  END
> <PUBCHEM_COMPOUND_ID_TYPE>
0

> <PUBCHEM_TOTAL_CHARGE>
0

> <PUBCHEM_SUBSTANCE_ID>
310934835

> <PUBCHEM_SUBSTANCE_VERSION>
1

> <PUBCHEM_EXT_DATASOURCE_NAME>
4488

> <PUBCHEM_EXT_DATASOURCE_REGID>
SCHEMBL16112342

> <PUBCHEM_SUBSTANCE_COMMENT>
InChI=1S/C28H27F3N6O2S/c1-17(2)23-13-4-18(3)14-24(23)36(26(32)38-27(33)40)15-19-5-7-20(8-6-19)25-34-16-37(35-25)21-9-11-22(12-10-21)39-28(29,30)31/h4-14,16-17,32H,15H2,1-3H3,(H2,33,40)
InChIKey=AYKHOZGTLLYKJO-UHFFFAOYSA-N

> <PUBCHEM_SUBSTANCE_SYNONYM>
SCHEMBL16112342

> <PUBCHEM_XREF_EXT_ID>
SCHEMBL16112342

> <PUBCHEM_EXT_DATASOURCE_URL>
https://www.surechembl.org/

> <PUBCHEM_EXT_SUBSTANCE_URL>
https://www.surechembl.org/chemical/SCHEMBL16112342

> <PUBCHEM_CID_ASSOCIATIONS>
117602975  1

> <PUBCHEM_COORDINATE_TYPE>
1
3

$$$$
