310945364
  -OEChem-07211613022D

 25 27  0     0  0  0  0  0  0999 V2000
   -1.1106    1.3051    0.0000 Cl  0  0  0  0  0  0  0  0  0  0  0  0
   -3.6721   -0.1702    0.0000 Cl  0  0  0  0  0  0  0  0  0  0  0  0
    0.9322    1.9374    0.0000 F   0  0  0  0  0  0  0  0  0  0  0  0
    2.3265    1.9212    0.0000 F   0  0  0  0  0  0  0  0  0  0  0  0
    2.4076    1.2726    0.0000 F   0  0  0  0  0  0  0  0  0  0  0  0
    2.4238   -1.6942    0.0000 F   0  0  0  0  0  0  0  0  0  0  0  0
    3.6721   -0.6566    0.0000 F   0  0  0  0  0  0  0  0  0  0  0  0
    2.9750   -1.9374    0.0000 F   0  0  0  0  0  0  0  0  0  0  0  0
    0.1378    0.4783    0.0000 N   0  0  0  0  0  0  0  0  0  0  0  0
    2.2941    0.2027    0.0000 N   0  0  0  0  0  0  0  0  0  0  0  0
    1.5807   -1.0781    0.0000 N   0  0  0  0  0  0  0  0  0  0  0  0
    0.1216   -0.8998    0.0000 N   0  0  0  0  0  0  0  0  0  0  0  0
    0.8998    0.1864    0.0000 C   0  0  0  0  0  0  0  0  0  0  0  0
    1.5969    0.6242    0.0000 C   0  0  0  0  0  0  0  0  0  0  0  0
    0.8674   -0.6728    0.0000 C   0  0  0  0  0  0  0  0  0  0  0  0
    2.2941   -0.6890    0.0000 C   0  0  0  0  0  0  0  0  0  0  0  0
   -0.3323   -0.2351    0.0000 C   0  0  0  0  0  0  0  0  0  0  0  0
    1.6455    1.4835    0.0000 C   0  0  0  0  0  0  0  0  0  0  0  0
    2.9912   -1.1106    0.0000 C   0  0  0  0  0  0  0  0  0  0  0  0
   -1.1430   -0.2027    0.0000 C   0  0  0  0  0  0  0  0  0  0  0  0
   -1.5321    0.5269    0.0000 C   0  0  0  0  0  0  0  0  0  0  0  0
   -1.5321   -0.9485    0.0000 C   0  0  0  0  0  0  0  0  0  0  0  0
   -2.2779    0.5431    0.0000 C   0  0  0  0  0  0  0  0  0  0  0  0
   -2.7156   -0.1864    0.0000 C   0  0  0  0  0  0  0  0  0  0  0  0
   -2.3103   -0.9485    0.0000 C   0  0  0  0  0  0  0  0  0  0  0  0
  1 21  1  0  0  0  0
  2 24  1  0  0  0  0
  3 18  1  0  0  0  0
  4 18  1  0  0  0  0
  5 18  1  0  0  0  0
  6 19  1  0  0  0  0
  7 19  1  0  0  0  0
  8 19  1  0  0  0  0
  9 13  1  0  0  0  0
  9 17  2  0  0  0  0
 10 14  2  0  0  0  0
 10 16  1  0  0  0  0
 11 15  1  0  0  0  0
 11 16  2  0  0  0  0
 12 15  1  0  0  0  0
 12 17  1  0  0  0  0
 13 14  1  0  0  0  0
 13 15  2  0  0  0  0
 14 18  1  0  0  0  0
 16 19  1  0  0  0  0
 17 20  1  0  0  0  0
 20 21  2  0  0  0  0
 20 22  1  0  0  0  0
 21 23  1  0  0  0  0
 22 25  2  0  0  0  0
 23 24  2  0  0  0  0
 24 25  1  0  0  0  0
M  END
> <PUBCHEM_COMPOUND_ID_TYPE>
0

> <PUBCHEM_TOTAL_CHARGE>
0

> <PUBCHEM_SUBSTANCE_ID>
310945364

> <PUBCHEM_SUBSTANCE_VERSION>
1

> <PUBCHEM_EXT_DATASOURCE_NAME>
4488

> <PUBCHEM_EXT_DATASOURCE_REGID>
SCHEMBL16123462

> <PUBCHEM_SUBSTANCE_COMMENT>
InChI=1S/C13H4Cl2F6N4/c14-4-1-2-5(6(15)3-4)9-22-7-8(12(16,17)18)23-11(13(19,20)21)25-10(7)24-9/h1-3H,(H,22,23,24,25)
InChIKey=RBJUNVVAYDBUER-UHFFFAOYSA-N

> <PUBCHEM_SUBSTANCE_SYNONYM>
SCHEMBL16123462

> <PUBCHEM_XREF_EXT_ID>
SCHEMBL16123462

> <PUBCHEM_EXT_DATASOURCE_URL>
https://www.surechembl.org/

> <PUBCHEM_EXT_SUBSTANCE_URL>
https://www.surechembl.org/chemical/SCHEMBL16123462

> <PUBCHEM_CID_ASSOCIATIONS>
117611420  1

> <PUBCHEM_COORDINATE_TYPE>
1
3

$$$$
