310948736
  -OEChem-07211613022D

 32 35  0     1  0  0  0  0  0999 V2000
    0.9974    1.9257    0.0000 F   0  0  0  0  0  0  0  0  0  0  0  0
    1.8010    2.5352    0.0000 F   0  0  0  0  0  0  0  0  0  0  0  0
    2.5076    2.1197    0.0000 F   0  0  0  0  0  0  0  0  0  0  0  0
   -1.8425   -2.5352    0.0000 O   0  0  0  0  0  0  0  0  0  0  0  0
   -2.5630    0.1662    0.0000 N   0  0  0  0  0  0  0  0  0  0  0  0
   -1.7317    0.0693    0.0000 N   0  0  0  0  0  0  0  0  0  0  0  0
   -0.8036   -1.0806    0.0000 N   0  0  0  0  0  0  0  0  0  0  0  0
   -3.2418   -2.2305    0.0000 N   0  0  0  0  0  0  0  0  0  0  0  0
    2.6322    0.5403    0.0000 N   0  0  0  0  0  0  0  0  0  0  0  0
   -1.0113    1.9950    0.0000 N   0  0  0  0  0  0  0  0  0  0  0  0
   -2.2720   -1.1499    0.0000 C   0  0  0  0  0  0  0  0  0  0  0  0
   -2.9093   -0.5957    0.0000 C   0  0  0  0  0  0  0  0  0  0  0  0
   -1.5655   -0.7342    0.0000 C   0  0  0  0  0  0  0  0  0  0  0  0
   -2.9786    0.8866    0.0000 C   0  0  3  0  0  0  0  0  0  0  0  0
   -2.4522   -1.9672    0.0000 C   0  0  0  0  0  0  0  0  0  0  0  0
   -3.6852   -0.8589    0.0000 C   0  0  0  0  0  0  0  0  0  0  0  0
   -2.6461    1.6486    0.0000 C   0  0  3  0  0  0  0  0  0  0  0  0
   -0.1385   -0.5957    0.0000 C   0  0  0  0  0  0  0  0  0  0  0  0
   -3.7960    0.9836    0.0000 C   0  0  0  0  0  0  0  0  0  0  0  0
   -3.8652   -1.6625    0.0000 C   0  0  0  0  0  0  0  0  0  0  0  0
   -3.2695    2.1889    0.0000 C   0  0  0  0  0  0  0  0  0  0  0  0
    1.2191    0.3879    0.0000 C   0  0  0  0  0  0  0  0  0  0  0  0
    1.8703    0.8728    0.0000 C   0  0  3  0  0  0  0  0  0  0  0  0
   -3.9622    1.7733    0.0000 C   0  0  0  0  0  0  0  0  0  0  0  0
    0.6234   -0.9282    0.0000 C   0  0  0  0  0  0  0  0  0  0  0  0
   -0.2078    0.2355    0.0000 C   0  0  0  0  0  0  0  0  0  0  0  0
    1.8010    1.7178    0.0000 C   0  0  0  0  0  0  0  0  0  0  0  0
   -1.8425    1.8010    0.0000 C   0  0  0  0  0  0  0  0  0  0  0  0
    1.2884   -0.4434    0.0000 C   0  0  0  0  0  0  0  0  0  0  0  0
    0.4710    0.7204    0.0000 C   0  0  0  0  0  0  0  0  0  0  0  0
    3.3388    0.9559    0.0000 C   0  0  0  0  0  0  0  0  0  0  0  0
    3.9622    0.3464    0.0000 C   0  0  0  0  0  0  0  0  0  0  0  0
  1 27  1  0  0  0  0
  2 27  1  0  0  0  0
  3 27  1  0  0  0  0
  4 15  2  0  0  0  0
  5  6  1  0  0  0  0
  5 12  1  0  0  0  0
 14  5  1  1  0  0  0
  6 13  2  0  0  0  0
  7 13  1  0  0  0  0
  7 18  1  0  0  0  0
  8 15  1  0  0  0  0
  8 20  1  0  0  0  0
  9 23  1  0  0  0  0
  9 31  1  0  0  0  0
 10 28  3  0  0  0  0
 11 12  2  0  0  0  0
 11 13  1  0  0  0  0
 11 15  1  0  0  0  0
 12 16  1  0  0  0  0
 14 17  1  0  0  0  0
 14 19  1  0  0  0  0
 16 20  2  0  0  0  0
 17 21  1  0  0  0  0
 17 28  1  6  0  0  0
 18 25  2  0  0  0  0
 18 26  1  0  0  0  0
 19 24  1  0  0  0  0
 21 24  1  0  0  0  0
 22 23  1  0  0  0  0
 22 29  2  0  0  0  0
 22 30  1  0  0  0  0
 23 27  1  0  0  0  0
 25 29  1  0  0  0  0
 26 30  2  0  0  0  0
 31 32  1  0  0  0  0
M  END
> <PUBCHEM_COMPOUND_ID_TYPE>
0

> <PUBCHEM_TOTAL_CHARGE>
0

> <PUBCHEM_SUBSTANCE_ID>
310948736

> <PUBCHEM_SUBSTANCE_VERSION>
1

> <PUBCHEM_EXT_DATASOURCE_NAME>
4488

> <PUBCHEM_EXT_DATASOURCE_REGID>
SCHEMBL16126920

> <PUBCHEM_SUBSTANCE_COMMENT>
InChI=1S/C22H23F3N6O/c1-2-27-19(22(23,24)25)13-6-8-15(9-7-13)29-20-18-17(10-11-28-21(18)32)31(30-20)16-5-3-4-14(16)12-26/h6-11,14,16,19,27H,2-5H2,1H3,(H,28,32)(H,29,30)/t14-,16+,19?/m1/s1
InChIKey=WVCMIRMVNCFOSR-ZMWCROOCSA-N

> <PUBCHEM_SUBSTANCE_SYNONYM>
SCHEMBL16126920

> <PUBCHEM_XREF_EXT_ID>
SCHEMBL16126920

> <PUBCHEM_EXT_DATASOURCE_URL>
https://www.surechembl.org/

> <PUBCHEM_EXT_SUBSTANCE_URL>
https://www.surechembl.org/chemical/SCHEMBL16126920

> <PUBCHEM_CID_ASSOCIATIONS>
117614278  1

> <PUBCHEM_COORDINATE_TYPE>
1
3

> <PUBCHEM_BONDANNOTATIONS>
17  28  6
14  5  5

$$$$
