310942907
  -OEChem-07211613022D

 21 22  0     1  0  0  0  0  0999 V2000
    3.1197   -0.9031    0.0000 Cl  0  0  0  0  0  0  0  0  0  0  0  0
    0.2736   -0.9031    0.0000 N   0  0  0  0  0  0  0  0  0  0  0  0
    1.6967   -0.9031    0.0000 N   0  0  0  0  0  0  0  0  0  0  0  0
    2.4082    0.3375    0.0000 N   0  0  0  0  0  0  0  0  0  0  0  0
   -1.8609    0.3375    0.0000 N   0  0  0  0  0  0  0  0  0  0  0  0
   -0.4379    1.1220    0.0000 N   0  0  0  0  0  0  0  0  0  0  0  0
    0.9670   -0.4652    0.0000 C   0  0  0  0  0  0  0  0  0  0  0  0
    1.0034    0.3557    0.0000 C   0  0  0  0  0  0  0  0  0  0  0  0
   -0.4561   -0.4652    0.0000 C   0  0  3  0  0  0  0  0  0  0  0  0
   -1.1493    0.7754    0.0000 C   0  0  0  0  0  0  0  0  0  0  0  0
    2.4082   -0.4652    0.0000 C   0  0  0  0  0  0  0  0  0  0  0  0
   -0.4196    0.3375    0.0000 C   0  0  0  0  0  0  0  0  0  0  0  0
    1.6967    0.7571    0.0000 C   0  0  0  0  0  0  0  0  0  0  0  0
    0.2736    0.7571    0.0000 C   0  0  0  0  0  0  0  0  0  0  0  0
   -1.1311   -0.8848    0.0000 C   0  0  0  0  0  0  0  0  0  0  0  0
   -1.5690    1.5051    0.0000 C   0  0  0  0  0  0  0  0  0  0  0  0
   -0.6932    1.4868    0.0000 C   0  0  0  0  0  0  0  0  0  0  0  0
   -1.8791   -0.4834    0.0000 C   0  0  0  0  0  0  0  0  0  0  0  0
   -2.6454    0.5929    0.0000 C   0  0  0  0  0  0  0  0  0  0  0  0
   -2.6088   -0.7206    0.0000 C   0  0  0  0  0  0  0  0  0  0  0  0
   -3.1197   -0.0821    0.0000 C   0  0  0  0  0  0  0  0  0  0  0  0
  1 11  1  0  0  0  0
  2  7  1  0  0  0  0
  9  2  1  1  0  0  0
  3  7  1  0  0  0  0
  3 11  2  0  0  0  0
  4 11  1  0  0  0  0
  4 13  2  0  0  0  0
  5 10  1  0  0  0  0
  5 19  1  0  0  0  0
  6 14  3  0  0  0  0
  7  8  2  0  0  0  0
  8 13  1  0  0  0  0
  8 14  1  0  0  0  0
  9 12  1  0  0  0  0
  9 15  1  0  0  0  0
 10 12  1  0  0  0  0
 10 16  1  0  0  0  0
 10 17  1  0  0  0  0
 15 18  1  0  0  0  0
 18 20  1  0  0  0  0
 19 21  1  0  0  0  0
 20 21  1  0  0  0  0
M  END
> <PUBCHEM_COMPOUND_ID_TYPE>
0

> <PUBCHEM_TOTAL_CHARGE>
0

> <PUBCHEM_SUBSTANCE_ID>
310942907

> <PUBCHEM_SUBSTANCE_VERSION>
1

> <PUBCHEM_EXT_DATASOURCE_NAME>
4488

> <PUBCHEM_EXT_DATASOURCE_REGID>
SCHEMBL16120965

> <PUBCHEM_SUBSTANCE_COMMENT>
InChI=1S/C15H22ClN5/c1-15(2)8-12(6-4-3-5-7-19-15)20-13-11(9-17)10-18-14(16)21-13/h10,12,19H,3-8H2,1-2H3,(H,18,20,21)/t12-/m0/s1
InChIKey=GBTLWALSAJOAJR-LBPRGKRZSA-N

> <PUBCHEM_SUBSTANCE_SYNONYM>
SCHEMBL16120965

> <PUBCHEM_XREF_EXT_ID>
SCHEMBL16120965

> <PUBCHEM_EXT_DATASOURCE_URL>
https://www.surechembl.org/

> <PUBCHEM_EXT_SUBSTANCE_URL>
https://www.surechembl.org/chemical/SCHEMBL16120965

> <PUBCHEM_CID_ASSOCIATIONS>
117609383  1

> <PUBCHEM_COORDINATE_TYPE>
1
3

> <PUBCHEM_BONDANNOTATIONS>
9  2  5

$$$$
