310937566
  -OEChem-07211613022D

 46 50  0     1  0  0  0  0  0999 V2000
   -0.7145   -2.0625    0.0000 F   0  0  0  0  0  0  0  0  0  0  0  0
    0.0000   -1.6500    0.0000 F   0  0  0  0  0  0  0  0  0  0  0  0
   -1.4290   -1.6500    0.0000 F   0  0  0  0  0  0  0  0  0  0  0  0
   -2.1434    2.0625    0.0000 F   0  0  0  0  0  0  0  0  0  0  0  0
   -2.8579    1.6500    0.0000 F   0  0  0  0  0  0  0  0  0  0  0  0
   -2.8579    0.8250    0.0000 F   0  0  0  0  0  0  0  0  0  0  0  0
    3.7531   -3.2600    0.0000 F   0  0  0  0  0  0  0  0  0  0  0  0
    4.3662   -2.7080    0.0000 F   0  0  0  0  0  0  0  0  0  0  0  0
    4.1649   -1.8697    0.0000 F   0  0  0  0  0  0  0  0  0  0  0  0
    0.8007    2.0580    0.0000 O   0  0  0  0  0  0  0  0  0  0  0  0
    1.9433    2.9832    0.0000 O   0  0  0  0  0  0  0  0  0  0  0  0
    2.0202    1.5151    0.0000 N   0  0  0  0  0  0  0  0  0  0  0  0
    2.5420   -1.4134    0.0000 N   0  0  3  0  0  0  0  0  0  0  0  0
    4.3323   -0.1648    0.0000 N   0  0  0  0  0  0  0  0  0  0  0  0
    4.4817    1.2564    0.0000 N   0  0  0  0  0  0  0  0  0  0  0  0
    0.7145    1.2375    0.0000 C   0  0  3  0  0  0  0  0  0  0  0  0
    1.4682    0.9020    0.0000 C   0  0  3  0  0  0  0  0  0  0  0  0
    0.0000    0.8250    0.0000 C   0  0  0  0  0  0  0  0  0  0  0  0
    1.6077    2.2295    0.0000 C   0  0  0  0  0  0  0  0  0  0  0  0
    3.1762    0.6752    0.0000 C   0  0  0  0  0  0  0  0  0  0  0  0
   -0.7145   -0.4125    0.0000 C   0  0  0  0  0  0  0  0  0  0  0  0
   -1.4290    0.8250    0.0000 C   0  0  0  0  0  0  0  0  0  0  0  0
    2.8407    1.4288    0.0000 C   0  0  0  0  0  0  0  0  0  0  0  0
    3.0269   -0.7460    0.0000 C   0  0  0  0  0  0  0  0  0  0  0  0
   -0.7145    1.2375    0.0000 C   0  0  0  0  0  0  0  0  0  0  0  0
    0.0000    0.0000    0.0000 C   0  0  0  0  0  0  0  0  0  0  0  0
    2.7969   -2.1981    0.0000 C   0  0  3  0  0  0  0  0  0  0  0  0
    3.9968    0.5889    0.0000 C   0  0  0  0  0  0  0  0  0  0  0  0
    2.6913    0.0077    0.0000 C   0  0  0  0  0  0  0  0  0  0  0  0
   -1.4290    0.0000    0.0000 C   0  0  0  0  0  0  0  0  0  0  0  0
   -0.7145   -1.2375    0.0000 C   0  0  0  0  0  0  0  0  0  0  0  0
   -2.1434    1.2375    0.0000 C   0  0  0  0  0  0  0  0  0  0  0  0
    3.5816   -2.4530    0.0000 C   0  0  0  0  0  0  0  0  0  0  0  0
    3.8474   -0.8323    0.0000 C   0  0  0  0  0  0  0  0  0  0  0  0
    1.7170   -1.4134    0.0000 C   0  0  0  0  0  0  0  0  0  0  0  0
    1.6397    0.0950    0.0000 C   0  0  0  0  0  0  0  0  0  0  0  0
    2.1295   -2.6830    0.0000 C   0  0  0  0  0  0  0  0  0  0  0  0
    1.4620   -2.1981    0.0000 C   0  0  0  0  0  0  0  0  0  0  0  0
    4.1461    2.0100    0.0000 C   0  0  3  0  0  0  0  0  0  0  0  0
    4.6310    2.6775    0.0000 C   0  0  3  0  0  0  0  0  0  0  0  0
    3.3256    2.0963    0.0000 C   0  0  0  0  0  0  0  0  0  0  0  0
    4.2955    3.4312    0.0000 C   0  0  0  0  0  0  0  0  0  0  0  0
    5.4516    2.5912    0.0000 C   0  0  0  0  0  0  0  0  0  0  0  0
    2.9901    2.8499    0.0000 C   0  0  0  0  0  0  0  0  0  0  0  0
    3.4750    3.5174    0.0000 C   0  0  0  0  0  0  0  0  0  0  0  0
    5.9365    3.2587    0.0000 C   0  0  0  0  0  0  0  0  0  0  0  0
  1 31  1  0  0  0  0
  2 31  1  0  0  0  0
  3 31  1  0  0  0  0
  4 32  1  0  0  0  0
  5 32  1  0  0  0  0
  6 32  1  0  0  0  0
  7 33  1  0  0  0  0
  8 33  1  0  0  0  0
  9 33  1  0  0  0  0
 16 10  1  1  0  0  0
 10 19  1  0  0  0  0
 11 19  2  0  0  0  0
 12 17  1  0  0  0  0
 12 19  1  0  0  0  0
 12 23  1  0  0  0  0
 13 24  1  0  0  0  0
 13 27  1  0  0  0  0
 13 35  1  0  0  0  0
 14 28  2  0  0  0  0
 14 34  1  0  0  0  0
 15 28  1  0  0  0  0
 15 39  1  0  0  0  0
 16 17  1  0  0  0  0
 16 18  1  0  0  0  0
 17 36  1  1  0  0  0
 18 25  2  0  0  0  0
 18 26  1  0  0  0  0
 20 23  1  0  0  0  0
 20 28  1  0  0  0  0
 20 29  2  0  0  0  0
 21 26  2  0  0  0  0
 21 30  1  0  0  0  0
 21 31  1  0  0  0  0
 22 25  1  0  0  0  0
 22 30  2  0  0  0  0
 22 32  1  0  0  0  0
 24 29  1  0  0  0  0
 24 34  2  0  0  0  0
 27 33  1  0  0  0  0
 27 37  1  0  0  0  0
 35 38  1  0  0  0  0
 37 38  1  0  0  0  0
 39 40  1  0  0  0  0
 39 41  1  0  0  0  0
 40 42  1  0  0  0  0
 40 43  1  0  0  0  0
 41 44  1  0  0  0  0
 42 45  1  0  0  0  0
 43 46  1  0  0  0  0
 44 45  1  0  0  0  0
M  END
> <PUBCHEM_COMPOUND_ID_TYPE>
0

> <PUBCHEM_TOTAL_CHARGE>
0

> <PUBCHEM_SUBSTANCE_ID>
310937566

> <PUBCHEM_SUBSTANCE_VERSION>
1

> <PUBCHEM_EXT_DATASOURCE_NAME>
4488

> <PUBCHEM_EXT_DATASOURCE_REGID>
SCHEMBL16115345

> <PUBCHEM_SUBSTANCE_COMMENT>
InChI=1S/C31H35F9N4O2/c1-3-18-7-4-5-8-24(18)42-27-20(13-23(15-41-27)43-10-6-9-25(43)31(38,39)40)16-44-17(2)26(46-28(44)45)19-11-21(29(32,33)34)14-22(12-19)30(35,36)37/h11-15,17-18,24-26H,3-10,16H2,1-2H3,(H,41,42)/t17-,18?,24?,25?,26-/m0/s1
InChIKey=MQNCRZIDGVILKF-KYJQVAMJSA-N

> <PUBCHEM_SUBSTANCE_SYNONYM>
SCHEMBL16115345

> <PUBCHEM_XREF_EXT_ID>
SCHEMBL16115345

> <PUBCHEM_EXT_DATASOURCE_URL>
https://www.surechembl.org/

> <PUBCHEM_EXT_SUBSTANCE_URL>
https://www.surechembl.org/chemical/SCHEMBL16115345

> <PUBCHEM_CID_ASSOCIATIONS>
117605280  1

> <PUBCHEM_COORDINATE_TYPE>
1
3

> <PUBCHEM_BONDANNOTATIONS>
16  10  5
17  36  5

$$$$
