310939143
  -OEChem-07211613022D

 24 25  0     1  0  0  0  0  0999 V2000
    2.1434   -1.0313    0.0000 F   0  0  0  0  0  0  0  0  0  0  0  0
    0.7145    1.4437    0.0000 F   0  0  0  0  0  0  0  0  0  0  0  0
    2.1434    0.6187    0.0000 O   0  0  0  0  0  0  0  0  0  0  0  0
   -1.4289   -3.0938    0.0000 O   0  0  0  0  0  0  0  0  0  0  0  0
   -2.8579   -2.2687    0.0000 O   0  0  0  0  0  0  0  0  0  0  0  0
    0.0000   -2.2687    0.0000 N   0  0  0  0  0  0  0  0  0  0  0  0
    1.4289    0.2062    0.0000 C   0  0  0  0  0  0  0  0  0  0  0  0
    1.4289   -0.6187    0.0000 C   0  0  0  0  0  0  0  0  0  0  0  0
    0.7145   -1.0313    0.0000 C   0  0  0  0  0  0  0  0  0  0  0  0
    0.7145    0.6187    0.0000 C   0  0  0  0  0  0  0  0  0  0  0  0
    0.7145   -1.8563    0.0000 C   0  0  3  0  0  0  0  0  0  0  0  0
    0.0000   -0.6187    0.0000 C   0  0  0  0  0  0  0  0  0  0  0  0
    0.0000    0.2062    0.0000 C   0  0  0  0  0  0  0  0  0  0  0  0
    2.1434    1.4437    0.0000 C   0  0  0  0  0  0  0  0  0  0  0  0
    1.4289   -2.2687    0.0000 C   0  0  0  0  0  0  0  0  0  0  0  0
    1.4289    1.8563    0.0000 C   0  0  0  0  0  0  0  0  0  0  0  0
    2.8579    1.8563    0.0000 C   0  0  0  0  0  0  0  0  0  0  0  0
   -0.7145   -1.8563    0.0000 C   0  0  0  0  0  0  0  0  0  0  0  0
    1.4289    2.6812    0.0000 C   0  0  0  0  0  0  0  0  0  0  0  0
    2.8579    2.6812    0.0000 C   0  0  0  0  0  0  0  0  0  0  0  0
   -1.4289   -2.2687    0.0000 C   0  0  3  0  0  0  0  0  0  0  0  0
    1.4289   -3.0938    0.0000 C   0  0  0  0  0  0  0  0  0  0  0  0
    2.1434    3.0938    0.0000 C   0  0  0  0  0  0  0  0  0  0  0  0
   -2.1434   -1.8563    0.0000 C   0  0  0  0  0  0  0  0  0  0  0  0
  1  8  1  0  0  0  0
  2 10  1  0  0  0  0
  3  7  1  0  0  0  0
  3 14  1  0  0  0  0
 21  4  1  1  0  0  0
  5 24  1  0  0  0  0
  6 11  1  0  0  0  0
  6 18  1  0  0  0  0
  7  8  1  0  0  0  0
  7 10  2  0  0  0  0
  8  9  2  0  0  0  0
  9 11  1  0  0  0  0
  9 12  1  0  0  0  0
 10 13  1  0  0  0  0
 11 15  1  0  0  0  0
 12 13  2  0  0  0  0
 14 16  2  0  0  0  0
 14 17  1  0  0  0  0
 15 22  1  0  0  0  0
 16 19  1  0  0  0  0
 17 20  2  0  0  0  0
 18 21  1  0  0  0  0
 19 23  2  0  0  0  0
 20 23  1  0  0  0  0
 21 24  1  0  0  0  0
M  END
> <PUBCHEM_COMPOUND_ID_TYPE>
0

> <PUBCHEM_TOTAL_CHARGE>
0

> <PUBCHEM_SUBSTANCE_ID>
310939143

> <PUBCHEM_SUBSTANCE_VERSION>
1

> <PUBCHEM_EXT_DATASOURCE_NAME>
4488

> <PUBCHEM_EXT_DATASOURCE_REGID>
SCHEMBL16117064

> <PUBCHEM_SUBSTANCE_COMMENT>
InChI=1S/C18H21F2NO3/c1-2-16(21-10-12(23)11-22)14-8-9-15(19)18(17(14)20)24-13-6-4-3-5-7-13/h3-9,12,16,21-23H,2,10-11H2,1H3/t12-,16?/m1/s1
InChIKey=QRECJNGKLPKLMA-ZGTOLYCTSA-N

> <PUBCHEM_SUBSTANCE_SYNONYM>
SCHEMBL16117064

> <PUBCHEM_XREF_EXT_ID>
SCHEMBL16117064

> <PUBCHEM_EXT_DATASOURCE_URL>
https://www.surechembl.org/

> <PUBCHEM_EXT_SUBSTANCE_URL>
https://www.surechembl.org/chemical/SCHEMBL16117064

> <PUBCHEM_CID_ASSOCIATIONS>
117606498  1

> <PUBCHEM_COORDINATE_TYPE>
1
3

> <PUBCHEM_BONDANNOTATIONS>
21  4  5

$$$$
