310941105
  -OEChem-07211613022D

 42 45  0     1  0  0  0  0  0999 V2000
    5.1117   -1.1060    0.0000 O   0  0  0  0  0  0  0  0  0  0  0  0
    3.9773    0.8649    0.0000 O   0  0  0  0  0  0  0  0  0  0  0  0
    1.8079   -1.2194    0.0000 O   0  0  0  0  0  0  0  0  0  0  0  0
   -0.3616    0.8649    0.0000 O   0  0  0  0  0  0  0  0  0  0  0  0
    2.5310    3.3605    0.0000 O   0  0  0  0  0  0  0  0  0  0  0  0
    3.9773    2.5381    0.0000 O   0  0  0  0  0  0  0  0  0  0  0  0
   -2.5452   -1.2194    0.0000 O   0  0  0  0  0  0  0  0  0  0  0  0
   -5.4378   -1.2194    0.0000 O   0  0  0  0  0  0  0  0  0  0  0  0
    2.5310    0.0426    0.0000 N   0  0  0  0  0  0  0  0  0  0  0  0
    0.3616   -0.3686    0.0000 N   0  0  0  0  0  0  0  0  0  0  0  0
   -1.8079    0.0426    0.0000 N   0  0  0  0  0  0  0  0  0  0  0  0
   -3.9773   -0.3686    0.0000 N   0  0  0  0  0  0  0  0  0  0  0  0
    4.7146   -0.3828    0.0000 C   0  0  3  0  0  0  0  0  0  0  0  0
    3.9206    0.0426    0.0000 C   0  0  0  0  0  0  0  0  0  0  0  0
    4.3034   -1.0776    0.0000 C   0  0  0  0  0  0  0  0  0  0  0  0
    3.2684   -0.3686    0.0000 C   0  0  3  0  0  0  0  0  0  0  0  0
    5.4378    0.0426    0.0000 C   0  0  0  0  0  0  0  0  0  0  0  0
    3.2684   -1.6874    0.0000 C   0  0  0  0  0  0  0  0  0  0  0  0
    1.8079   -0.3545    0.0000 C   0  0  0  0  0  0  0  0  0  0  0  0
    1.0847    0.0426    0.0000 C   0  0  3  0  0  0  0  0  0  0  0  0
    2.5452   -2.1269    0.0000 C   0  0  0  0  0  0  0  0  0  0  0  0
    1.0989    0.8791    0.0000 C   0  0  0  0  0  0  0  0  0  0  0  0
    1.8079    1.2903    0.0000 C   0  0  0  0  0  0  0  0  0  0  0  0
   -0.3616    0.0142    0.0000 C   0  0  0  0  0  0  0  0  0  0  0  0
    1.8221   -1.7157    0.0000 C   0  0  0  0  0  0  0  0  0  0  0  0
    2.5310   -2.9493    0.0000 C   0  0  0  0  0  0  0  0  0  0  0  0
    1.8221    2.1269    0.0000 C   0  0  0  0  0  0  0  0  0  0  0  0
   -1.0705   -0.3686    0.0000 C   0  0  3  0  0  0  0  0  0  0  0  0
    2.5310    2.5381    0.0000 C   0  0  0  0  0  0  0  0  0  0  0  0
    2.5452    0.8791    0.0000 C   0  0  0  0  0  0  0  0  0  0  0  0
    3.2684    2.1269    0.0000 C   0  0  0  0  0  0  0  0  0  0  0  0
    3.2542    1.2903    0.0000 C   0  0  0  0  0  0  0  0  0  0  0  0
    1.0989   -2.1127    0.0000 C   0  0  0  0  0  0  0  0  0  0  0  0
    1.8363   -3.3605    0.0000 C   0  0  0  0  0  0  0  0  0  0  0  0
   -2.5310   -0.3403    0.0000 C   0  0  0  0  0  0  0  0  0  0  0  0
    1.0989   -2.9493    0.0000 C   0  0  0  0  0  0  0  0  0  0  0  0
   -1.0847   -1.1769    0.0000 C   0  0  0  0  0  0  0  0  0  0  0  0
   -3.2542    0.0426    0.0000 C   0  0  0  0  0  0  0  0  0  0  0  0
   -3.9773   -1.2053    0.0000 C   0  0  0  0  0  0  0  0  0  0  0  0
   -4.7146    0.0426    0.0000 C   0  0  0  0  0  0  0  0  0  0  0  0
   -4.6863   -1.6164    0.0000 C   0  0  0  0  0  0  0  0  0  0  0  0
   -5.4094   -0.3686    0.0000 C   0  0  0  0  0  0  0  0  0  0  0  0
  1 13  1  0  0  0  0
  1 15  1  0  0  0  0
  2 14  2  0  0  0  0
  3 19  2  0  0  0  0
  4 24  2  0  0  0  0
  5 29  1  0  0  0  0
  6 31  1  0  0  0  0
  7 35  2  0  0  0  0
  8 41  1  0  0  0  0
  8 42  1  0  0  0  0
 16  9  1  6  0  0  0
  9 19  1  0  0  0  0
 20 10  1  1  0  0  0
 10 24  1  0  0  0  0
 11 28  1  0  0  0  0
 11 35  1  0  0  0  0
 12 38  1  0  0  0  0
 12 39  1  0  0  0  0
 12 40  1  0  0  0  0
 13 14  1  6  0  0  0
 13 15  1  0  0  0  0
 13 17  1  1  0  0  0
 14 16  1  0  0  0  0
 16 18  1  0  0  0  0
 18 21  1  0  0  0  0
 19 20  1  0  0  0  0
 20 22  1  0  0  0  0
 21 25  2  0  0  0  0
 21 26  1  0  0  0  0
 22 23  1  0  0  0  0
 23 27  1  0  0  0  0
 23 30  2  0  0  0  0
 24 28  1  0  0  0  0
 25 33  1  0  0  0  0
 26 34  2  0  0  0  0
 27 29  2  0  0  0  0
 28 37  1  6  0  0  0
 29 31  1  0  0  0  0
 30 32  1  0  0  0  0
 31 32  2  0  0  0  0
 33 36  2  0  0  0  0
 34 36  1  0  0  0  0
 35 38  1  0  0  0  0
 39 41  1  0  0  0  0
 40 42  1  0  0  0  0
M  END
> <PUBCHEM_COMPOUND_ID_TYPE>
0

> <PUBCHEM_TOTAL_CHARGE>
0

> <PUBCHEM_SUBSTANCE_ID>
310941105

> <PUBCHEM_SUBSTANCE_VERSION>
1

> <PUBCHEM_EXT_DATASOURCE_NAME>
4488

> <PUBCHEM_EXT_DATASOURCE_REGID>
SCHEMBL16119065

> <PUBCHEM_SUBSTANCE_COMMENT>
InChI=1S/C30H38N4O8/c1-19(31-26(37)17-34-10-12-41-13-11-34)28(39)33-23(15-21-8-9-24(35)25(36)16-21)29(40)32-22(27(38)30(2)18-42-30)14-20-6-4-3-5-7-20/h3-9,16,19,22-23,35-36H,10-15,17-18H2,1-2H3,(H,31,37)(H,32,40)(H,33,39)/t19-,22-,23-,30+/m0/s1
InChIKey=WGURGKVQFJGEQJ-UMKVOQDKSA-N

> <PUBCHEM_SUBSTANCE_SYNONYM>
SCHEMBL16119065

> <PUBCHEM_XREF_EXT_ID>
SCHEMBL16119065

> <PUBCHEM_EXT_DATASOURCE_URL>
https://www.surechembl.org/

> <PUBCHEM_EXT_SUBSTANCE_URL>
https://www.surechembl.org/chemical/SCHEMBL16119065

> <PUBCHEM_CID_ASSOCIATIONS>
117607988  1

> <PUBCHEM_COORDINATE_TYPE>
1
3

> <PUBCHEM_BONDANNOTATIONS>
20  10  5
13  14  6
13  17  5
28  37  6
16  9  6

$$$$
