310940705
  -OEChem-07211613022D

 27 29  0     0  0  0  0  0  0999 V2000
   -4.1722   -0.9177    0.0000 F   0  0  0  0  0  0  0  0  0  0  0  0
    1.3850    1.7505    0.0000 O   0  0  0  0  0  0  0  0  0  0  0  0
    0.7053    0.4249    0.0000 N   0  0  0  0  0  0  0  0  0  0  0  0
    2.0988    0.4249    0.0000 N   0  0  0  0  0  0  0  0  0  0  0  0
    2.7956   -1.8015    0.0000 N   0  0  0  0  0  0  0  0  0  0  0  0
    1.3850    0.8328    0.0000 C   0  0  0  0  0  0  0  0  0  0  0  0
    0.7053   -0.4589    0.0000 C   0  0  0  0  0  0  0  0  0  0  0  0
    1.4020   -0.9007    0.0000 C   0  0  0  0  0  0  0  0  0  0  0  0
    2.7617    0.8497    0.0000 C   0  0  0  0  0  0  0  0  0  0  0  0
    0.0085    0.8667    0.0000 C   0  0  0  0  0  0  0  0  0  0  0  0
   -2.0818    0.4249    0.0000 C   0  0  0  0  0  0  0  0  0  0  0  0
   -0.6713    0.4249    0.0000 C   0  0  0  0  0  0  0  0  0  0  0  0
    1.4020   -1.8015    0.0000 C   0  0  0  0  0  0  0  0  0  0  0  0
    2.0818   -0.4758    0.0000 C   0  0  0  0  0  0  0  0  0  0  0  0
   -1.3850    0.8497    0.0000 C   0  0  0  0  0  0  0  0  0  0  0  0
    3.5435    0.5099    0.0000 C   0  0  0  0  0  0  0  0  0  0  0  0
    2.7277    1.7335    0.0000 C   0  0  0  0  0  0  0  0  0  0  0  0
   -2.7787    0.8497    0.0000 C   0  0  0  0  0  0  0  0  0  0  0  0
   -2.0988   -0.4758    0.0000 C   0  0  0  0  0  0  0  0  0  0  0  0
   -3.5094   -0.4758    0.0000 C   0  0  0  0  0  0  0  0  0  0  0  0
    2.7956   -0.9177    0.0000 C   0  0  0  0  0  0  0  0  0  0  0  0
    2.0988   -2.2433    0.0000 C   0  0  0  0  0  0  0  0  0  0  0  0
   -3.4754    0.4079    0.0000 C   0  0  0  0  0  0  0  0  0  0  0  0
   -2.7617   -0.9007    0.0000 C   0  0  0  0  0  0  0  0  0  0  0  0
    4.1722    1.0197    0.0000 C   0  0  0  0  0  0  0  0  0  0  0  0
    3.3564    2.2433    0.0000 C   0  0  0  0  0  0  0  0  0  0  0  0
    4.0872    1.8864    0.0000 C   0  0  0  0  0  0  0  0  0  0  0  0
  1 20  1  0  0  0  0
  2  6  2  0  0  0  0
  3  6  1  0  0  0  0
  3  7  1  0  0  0  0
  3 10  1  0  0  0  0
  4  6  1  0  0  0  0
  4  9  1  0  0  0  0
  5 21  1  0  0  0  0
  5 22  1  0  0  0  0
  7  8  1  0  0  0  0
  8 13  1  0  0  0  0
  8 14  1  0  0  0  0
  9 16  2  0  0  0  0
  9 17  1  0  0  0  0
 10 12  1  0  0  0  0
 11 15  1  0  0  0  0
 11 18  2  0  0  0  0
 11 19  1  0  0  0  0
 12 15  2  0  0  0  0
 13 22  1  0  0  0  0
 14 21  1  0  0  0  0
 16 25  1  0  0  0  0
 17 26  2  0  0  0  0
 18 23  1  0  0  0  0
 19 24  2  0  0  0  0
 20 23  2  0  0  0  0
 20 24  1  0  0  0  0
 25 27  2  0  0  0  0
 26 27  1  0  0  0  0
M  END
> <PUBCHEM_COMPOUND_ID_TYPE>
0

> <PUBCHEM_TOTAL_CHARGE>
0

> <PUBCHEM_SUBSTANCE_ID>
310940705

> <PUBCHEM_SUBSTANCE_VERSION>
1

> <PUBCHEM_EXT_DATASOURCE_NAME>
4488

> <PUBCHEM_EXT_DATASOURCE_REGID>
SCHEMBL16118661

> <PUBCHEM_SUBSTANCE_COMMENT>
InChI=1S/C22H26FN3O/c23-20-10-8-18(9-11-20)5-4-16-26(17-19-12-14-24-15-13-19)22(27)25-21-6-2-1-3-7-21/h1-11,19,24H,12-17H2,(H,25,27)/b5-4+
InChIKey=BEXWCAHUAIMGSX-SNAWJCMRSA-N

> <PUBCHEM_SUBSTANCE_SYNONYM>
SCHEMBL16118661

> <PUBCHEM_XREF_EXT_ID>
SCHEMBL16118661

> <PUBCHEM_EXT_DATASOURCE_URL>
https://www.surechembl.org/

> <PUBCHEM_EXT_SUBSTANCE_URL>
https://www.surechembl.org/chemical/SCHEMBL16118661

> <PUBCHEM_CID_ASSOCIATIONS>
86300366  1

> <PUBCHEM_COORDINATE_TYPE>
1
3

$$$$
