310944727
  -OEChem-07211613022D

 31 33  0     0  0  0  0  0  0999 V2000
   -2.6767   -1.0509    0.0000 Cl  0  0  0  0  0  0  0  0  0  0  0  0
    0.3400   -1.0509    0.0000 O   0  0  0  0  0  0  0  0  0  0  0  0
    1.7618    1.4218    0.0000 O   0  0  0  0  0  0  0  0  0  0  0  0
    5.3473   -0.6429    0.0000 O   0  0  0  0  0  0  0  0  0  0  0  0
    0.3524    0.5934    0.0000 N   0  0  0  0  0  0  0  0  0  0  0  0
    2.5036    0.1855    0.0000 N   0  0  0  0  0  0  0  0  0  0  0  0
    3.9378   -0.6429    0.0000 N   0  0  0  0  0  0  0  0  0  0  0  0
   -5.3473    2.2502    0.0000 N   0  0  0  0  0  0  0  0  0  0  0  0
   -1.7742    0.1978    0.0000 C   0  0  0  0  0  0  0  0  0  0  0  0
   -0.3647    0.1978    0.0000 C   0  0  0  0  0  0  0  0  0  0  0  0
   -1.7989   -0.6305    0.0000 C   0  0  0  0  0  0  0  0  0  0  0  0
   -0.3771   -0.6305    0.0000 C   0  0  0  0  0  0  0  0  0  0  0  0
   -2.5160    0.6058    0.0000 C   0  0  0  0  0  0  0  0  0  0  0  0
   -1.0694    0.5934    0.0000 C   0  0  0  0  0  0  0  0  0  0  0  0
   -1.0694   -1.0509    0.0000 C   0  0  0  0  0  0  0  0  0  0  0  0
    1.7742    0.5811    0.0000 C   0  0  0  0  0  0  0  0  0  0  0  0
   -3.2331    0.1978    0.0000 C   0  0  0  0  0  0  0  0  0  0  0  0
   -2.5036    1.4218    0.0000 C   0  0  0  0  0  0  0  0  0  0  0  0
    1.0694    0.1855    0.0000 C   0  0  0  0  0  0  0  0  0  0  0  0
    3.2083    0.5934    0.0000 C   0  0  0  0  0  0  0  0  0  0  0  0
    2.5160   -0.6429    0.0000 C   0  0  0  0  0  0  0  0  0  0  0  0
   -3.9255    1.4218    0.0000 C   0  0  0  0  0  0  0  0  0  0  0  0
   -3.9255    0.6058    0.0000 C   0  0  0  0  0  0  0  0  0  0  0  0
   -3.2207    1.8298    0.0000 C   0  0  0  0  0  0  0  0  0  0  0  0
    3.9255    0.1855    0.0000 C   0  0  0  0  0  0  0  0  0  0  0  0
    3.2207   -1.0509    0.0000 C   0  0  0  0  0  0  0  0  0  0  0  0
    4.6425   -1.0509    0.0000 C   0  0  0  0  0  0  0  0  0  0  0  0
   -4.6425    1.8298    0.0000 C   0  0  0  0  0  0  0  0  0  0  0  0
    1.0694   -0.6429    0.0000 C   0  0  0  0  0  0  0  0  0  0  0  0
    4.6425   -1.8793    0.0000 C   0  0  0  0  0  0  0  0  0  0  0  0
    3.9007   -2.2502    0.0000 C   0  0  0  0  0  0  0  0  0  0  0  0
  1 11  1  0  0  0  0
  2 12  1  0  0  0  0
  2 29  1  0  0  0  0
  3 16  2  0  0  0  0
  4 27  2  0  0  0  0
  5 10  1  0  0  0  0
  5 19  1  0  0  0  0
  6 16  1  0  0  0  0
  6 20  1  0  0  0  0
  6 21  1  0  0  0  0
  7 25  1  0  0  0  0
  7 26  1  0  0  0  0
  7 27  1  0  0  0  0
  8 28  3  0  0  0  0
  9 11  2  0  0  0  0
  9 13  1  0  0  0  0
  9 14  1  0  0  0  0
 10 12  1  0  0  0  0
 10 14  2  0  0  0  0
 11 15  1  0  0  0  0
 12 15  2  0  0  0  0
 13 17  2  0  0  0  0
 13 18  1  0  0  0  0
 16 19  1  0  0  0  0
 17 23  1  0  0  0  0
 18 24  2  0  0  0  0
 20 25  1  0  0  0  0
 21 26  1  0  0  0  0
 22 23  2  0  0  0  0
 22 24  1  0  0  0  0
 22 28  1  0  0  0  0
 27 30  1  0  0  0  0
 30 31  2  0  0  0  0
M  END
> <PUBCHEM_COMPOUND_ID_TYPE>
0

> <PUBCHEM_TOTAL_CHARGE>
0

> <PUBCHEM_SUBSTANCE_ID>
310944727

> <PUBCHEM_SUBSTANCE_VERSION>
1

> <PUBCHEM_EXT_DATASOURCE_NAME>
4488

> <PUBCHEM_EXT_DATASOURCE_REGID>
SCHEMBL16122806

> <PUBCHEM_SUBSTANCE_COMMENT>
InChI=1S/C23H23ClN4O3/c1-3-22(29)27-8-10-28(11-9-27)23(30)15-26-20-12-18(19(24)13-21(20)31-2)17-6-4-16(14-25)5-7-17/h3-7,12-13,26H,1,8-11,15H2,2H3
InChIKey=FGAFAYNEJGRENL-UHFFFAOYSA-N

> <PUBCHEM_SUBSTANCE_SYNONYM>
SCHEMBL16122806

> <PUBCHEM_XREF_EXT_ID>
SCHEMBL16122806

> <PUBCHEM_EXT_DATASOURCE_URL>
https://www.surechembl.org/

> <PUBCHEM_EXT_SUBSTANCE_URL>
https://www.surechembl.org/chemical/SCHEMBL16122806

> <PUBCHEM_CID_ASSOCIATIONS>
117610946  1

> <PUBCHEM_COORDINATE_TYPE>
1
3

$$$$
