310934765
  -OEChem-07211613022D

 22 24  0     1  0  0  0  0  0999 V2000
    5.6681   -0.6693    0.0000 F   0  0  0  0  0  0  0  0  0  0  0  0
    4.4759   -2.9282    0.0000 O   0  0  0  0  0  0  0  0  0  0  0  0
    4.4759   -1.5059    0.0000 O   0  0  0  0  0  0  0  0  0  0  0  0
    0.5229   -2.8445    0.0000 N   0  0  0  0  0  0  0  0  0  0  0  0
    0.0000   -3.5138    0.0000 N   0  0  0  0  0  0  0  0  0  0  0  0
    3.2419   -2.2170    0.0000 C   0  0  3  0  0  0  0  0  0  0  0  0
    3.6184   -1.4850    0.0000 C   0  0  0  0  0  0  0  0  0  0  0  0
    2.7608   -2.8863    0.0000 C   0  0  0  0  0  0  0  0  0  0  0  0
    1.9660   -2.6353    0.0000 C   0  0  0  0  0  0  0  0  0  0  0  0
    2.7608   -1.5477    0.0000 C   0  0  0  0  0  0  0  0  0  0  0  0
    4.0576   -2.2170    0.0000 C   0  0  0  0  0  0  0  0  0  0  0  0
    4.6223   -1.6105    0.0000 C   0  0  0  0  0  0  0  0  0  0  0  0
    1.2967   -3.1164    0.0000 C   0  0  0  0  0  0  0  0  0  0  0  0
    1.9660   -1.8196    0.0000 C   0  0  0  0  0  0  0  0  0  0  0  0
    3.1791   -0.7739    0.0000 C   0  0  0  0  0  0  0  0  0  0  0  0
    4.8315   -0.6902    0.0000 C   0  0  0  0  0  0  0  0  0  0  0  0
    1.2967   -3.9321    0.0000 C   0  0  0  0  0  0  0  0  0  0  0  0
    3.5347   -0.0419    0.0000 C   0  0  0  0  0  0  0  0  0  0  0  0
    4.3713    0.0000    0.0000 C   0  0  0  0  0  0  0  0  0  0  0  0
    4.8942   -2.1334    0.0000 C   0  0  0  0  0  0  0  0  0  0  0  0
    0.5020   -4.1831    0.0000 C   0  0  0  0  0  0  0  0  0  0  0  0
    0.2719   -2.0497    0.0000 C   0  0  0  0  0  0  0  0  0  0  0  0
  1 16  1  0  0  0  0
  2 11  2  0  0  0  0
  3 11  1  0  0  0  0
  4  5  1  0  0  0  0
  4 13  1  0  0  0  0
  4 22  1  0  0  0  0
  5 21  2  0  0  0  0
  6  7  1  0  0  0  0
  6  8  1  0  0  0  0
  6 10  1  0  0  0  0
  6 11  1  6  0  0  0
  7 12  1  0  0  0  0
  7 15  2  0  0  0  0
  8  9  2  0  0  0  0
  9 13  1  0  0  0  0
  9 14  1  0  0  0  0
 10 14  1  0  0  0  0
 12 16  2  0  0  0  0
 12 20  1  0  0  0  0
 13 17  2  0  0  0  0
 15 18  1  0  0  0  0
 16 19  1  0  0  0  0
 17 21  1  0  0  0  0
 18 19  2  0  0  0  0
M  END
> <PUBCHEM_COMPOUND_ID_TYPE>
0

> <PUBCHEM_TOTAL_CHARGE>
0

> <PUBCHEM_SUBSTANCE_ID>
310934765

> <PUBCHEM_SUBSTANCE_VERSION>
1

> <PUBCHEM_EXT_DATASOURCE_NAME>
4488

> <PUBCHEM_EXT_DATASOURCE_REGID>
SCHEMBL16112267

> <PUBCHEM_SUBSTANCE_COMMENT>
InChI=1S/C17H17FN2O2/c1-11-13(4-3-5-14(11)18)17(16(21)22)8-6-12(10-17)15-7-9-19-20(15)2/h3-5,7,9-10H,6,8H2,1-2H3,(H,21,22)/t17-/m0/s1
InChIKey=YOJKSSLHKTVKCR-KRWDZBQOSA-N

> <PUBCHEM_SUBSTANCE_SYNONYM>
SCHEMBL16112267

> <PUBCHEM_XREF_EXT_ID>
SCHEMBL16112267

> <PUBCHEM_EXT_DATASOURCE_URL>
https://www.surechembl.org/

> <PUBCHEM_EXT_SUBSTANCE_URL>
https://www.surechembl.org/chemical/SCHEMBL16112267

> <PUBCHEM_CID_ASSOCIATIONS>
117602915  1

> <PUBCHEM_COORDINATE_TYPE>
1
3

> <PUBCHEM_BONDANNOTATIONS>
6  11  6

$$$$
