310946515
  -OEChem-07211613022D

 14 13  0     0  0  0  0  0  0999 V2000
   -6.6242   -7.7196    0.0000 O   0  0  0  0  0  0  0  0  0  0  0  0
   -8.0531   -7.7196    0.0000 O   0  0  0  0  0  0  0  0  0  0  0  0
   -5.4002   -5.9123    0.0000 O   0  0  0  0  0  0  0  0  0  0  0  0
   -7.7085  -11.1623    0.0000 O   0  0  0  0  0  0  0  0  0  0  0  0
   -8.4229   -9.9248    0.0000 O   0  0  0  0  0  0  0  0  0  0  0  0
   -7.3386   -8.9571    0.0000 N   0  0  0  0  0  0  0  0  0  0  0  0
   -7.3386   -8.1321    0.0000 C   0  0  0  0  0  0  0  0  0  0  0  0
   -7.1251   -9.7540    0.0000 C   0  0  0  0  0  0  0  0  0  0  0  0
   -7.7085  -10.3373    0.0000 C   0  0  0  0  0  0  0  0  0  0  0  0
   -6.4106   -6.9227    0.0000 C   0  0  0  0  0  0  0  0  0  0  0  0
   -5.6138   -6.7092    0.0000 C   0  0  0  0  0  0  0  0  0  0  0  0
   -4.6033   -5.6987    0.0000 C   0  0  0  0  0  0  0  0  0  0  0  0
   -4.3898   -4.9019    0.0000 C   0  0  0  0  0  0  0  0  0  0  0  0
   -3.5929   -4.6883    0.0000 C   0  0  0  0  0  0  0  0  0  0  0  0
  1  7  1  0  0  0  0
  1 10  1  0  0  0  0
  2  7  2  0  0  0  0
  3 11  1  0  0  0  0
  3 12  1  0  0  0  0
  4  9  2  0  0  0  0
  5  9  1  0  0  0  0
  6  7  1  0  0  0  0
  6  8  1  0  0  0  0
  8  9  1  0  0  0  0
 10 11  1  0  0  0  0
 12 13  1  0  0  0  0
 13 14  1  0  0  0  0
M  END
> <PUBCHEM_COMPOUND_ID_TYPE>
0

> <PUBCHEM_TOTAL_CHARGE>
0

> <PUBCHEM_SUBSTANCE_ID>
310946515

> <PUBCHEM_SUBSTANCE_VERSION>
1

> <PUBCHEM_EXT_DATASOURCE_NAME>
4488

> <PUBCHEM_EXT_DATASOURCE_REGID>
SCHEMBL16124636

> <PUBCHEM_SUBSTANCE_COMMENT>
InChI=1S/C8H15NO5/c1-2-3-13-4-5-14-8(12)9-6-7(10)11/h2-6H2,1H3,(H,9,12)(H,10,11)
InChIKey=NPCYOKNIFICRKB-UHFFFAOYSA-N

> <PUBCHEM_SUBSTANCE_SYNONYM>
SCHEMBL16124636

> <PUBCHEM_XREF_EXT_ID>
SCHEMBL16124636

> <PUBCHEM_EXT_DATASOURCE_URL>
https://www.surechembl.org/

> <PUBCHEM_EXT_SUBSTANCE_URL>
https://www.surechembl.org/chemical/SCHEMBL16124636

> <PUBCHEM_CID_ASSOCIATIONS>
117612420  1

> <PUBCHEM_COORDINATE_TYPE>
1
3

$$$$
