310936005
  -OEChem-07211613022D

 17 18  0     0  0  0  0  0  0999 V2000
    4.9459    0.0000    0.0000 Cl  0  0  0  0  0  0  0  0  0  0  0  0
    2.4565   -2.8357    0.0000 O   0  0  0  0  0  0  0  0  0  0  0  0
    0.0000    0.0000    0.0000 O   0  0  0  0  0  0  0  0  0  0  0  0
    1.2365   -2.1267    0.0000 N   0  0  0  0  0  0  0  0  0  0  0  0
    4.9294   -1.4013    0.0000 N   0  0  0  0  0  0  0  0  0  0  0  0
    2.4730   -1.4178    0.0000 C   0  0  0  0  0  0  0  0  0  0  0  0
    3.2973   -1.4178    0.0000 C   0  0  0  0  0  0  0  0  0  0  0  0
    2.0443   -2.1267    0.0000 C   0  0  0  0  0  0  0  0  0  0  0  0
    2.0278   -0.7089    0.0000 C   0  0  0  0  0  0  0  0  0  0  0  0
    1.2200   -0.7254    0.0000 C   0  0  0  0  0  0  0  0  0  0  0  0
    3.6929   -0.6759    0.0000 C   0  0  0  0  0  0  0  0  0  0  0  0
    3.6929   -2.0938    0.0000 C   0  0  0  0  0  0  0  0  0  0  0  0
    0.8078   -1.4178    0.0000 C   0  0  0  0  0  0  0  0  0  0  0  0
    4.5173   -0.7089    0.0000 C   0  0  0  0  0  0  0  0  0  0  0  0
    4.5338   -2.1267    0.0000 C   0  0  0  0  0  0  0  0  0  0  0  0
    0.8243    0.0000    0.0000 C   0  0  0  0  0  0  0  0  0  0  0  0
    3.2808   -2.8357    0.0000 C   0  0  0  0  0  0  0  0  0  0  0  0
  1 14  1  0  0  0  0
  2  8  1  0  0  0  0
  2 17  1  0  0  0  0
  3 16  1  0  0  0  0
  4  8  1  0  0  0  0
  4 13  2  0  0  0  0
  5 14  1  0  0  0  0
  5 15  2  0  0  0  0
  6  7  1  0  0  0  0
  6  8  2  0  0  0  0
  6  9  1  0  0  0  0
  7 11  1  0  0  0  0
  7 12  2  0  0  0  0
  9 10  2  0  0  0  0
 10 13  1  0  0  0  0
 10 16  1  0  0  0  0
 11 14  2  0  0  0  0
 12 15  1  0  0  0  0
M  END
> <PUBCHEM_COMPOUND_ID_TYPE>
0

> <PUBCHEM_TOTAL_CHARGE>
0

> <PUBCHEM_SUBSTANCE_ID>
310936005

> <PUBCHEM_SUBSTANCE_VERSION>
1

> <PUBCHEM_EXT_DATASOURCE_NAME>
4488

> <PUBCHEM_EXT_DATASOURCE_REGID>
SCHEMBL16113606

> <PUBCHEM_SUBSTANCE_COMMENT>
InChI=1S/C12H11ClN2O2/c1-17-12-10(4-8(7-16)6-15-12)9-2-3-14-11(13)5-9/h2-6,16H,7H2,1H3
InChIKey=RJWBIXAEWKDKNT-UHFFFAOYSA-N

> <PUBCHEM_SUBSTANCE_SYNONYM>
SCHEMBL16113606

> <PUBCHEM_XREF_EXT_ID>
SCHEMBL16113606

> <PUBCHEM_EXT_DATASOURCE_URL>
https://www.surechembl.org/

> <PUBCHEM_EXT_SUBSTANCE_URL>
https://www.surechembl.org/chemical/SCHEMBL16113606

> <PUBCHEM_CID_ASSOCIATIONS>
117603976  1

> <PUBCHEM_COORDINATE_TYPE>
1
3

$$$$
