310929363
  -OEChem-07211613022D

 68 77  0     1  0  0  0  0  0999 V2000
    5.5243   -0.9123    0.0000 S   0  0  0  0  0  0  0  0  0  0  0  0
    5.1189   -2.5341    0.0000 O   0  0  0  0  0  0  0  0  0  0  0  0
    5.7271   -1.7232    0.0000 O   0  0  0  0  0  0  0  0  0  0  0  0
    5.2709   -0.1521    0.0000 O   0  0  0  0  0  0  0  0  0  0  0  0
    5.0682   -3.1929    0.0000 O   0  0  0  0  0  0  0  0  0  0  0  0
    6.1832   -5.5750    0.0000 O   0  0  0  0  0  0  0  0  0  0  0  0
    7.2475   -8.4639    0.0000 O   0  0  0  0  0  0  0  0  0  0  0  0
    2.2300   -4.0546    0.0000 O   0  0  0  0  0  0  0  0  0  0  0  0
    1.6725   -7.6530    0.0000 O   0  0  0  0  0  0  0  0  0  0  0  0
    0.7602   -6.7914    0.0000 O   0  0  0  0  0  0  0  0  0  0  0  0
    6.3353   -8.7680    0.0000 O   0  0  0  0  0  0  0  0  0  0  0  0
    3.6491   -3.0410    0.0000 N   0  0  0  0  0  0  0  0  0  0  0  0
    4.7135   -1.1657    0.0000 N   0  0  0  0  0  0  0  0  0  0  0  0
    3.4464   -4.3586    0.0000 N   0  0  0  0  0  0  0  0  0  0  0  0
    7.1968   -5.9298    0.0000 N   0  0  0  0  0  0  0  0  0  0  0  0
    1.6725   -5.9298    0.0000 N   0  0  0  0  0  0  0  0  0  0  0  0
    8.4639   -9.1228    0.0000 N   0  0  0  0  0  0  0  0  0  0  0  0
    3.6998   -2.2300    0.0000 C   0  0  3  0  0  0  0  0  0  0  0  0
    2.9902   -1.8246    0.0000 C   0  0  3  0  0  0  0  0  0  0  0  0
    3.6998   -1.3684    0.0000 C   0  0  0  0  0  0  0  0  0  0  0  0
    4.5107   -1.9766    0.0000 C   0  0  0  0  0  0  0  0  0  0  0  0
    6.2845   -0.7096    0.0000 C   0  0  0  0  0  0  0  0  0  0  0  0
    4.3080   -3.5478    0.0000 C   0  0  0  0  0  0  0  0  0  0  0  0
    2.1793   -1.8753    0.0000 C   0  0  0  0  0  0  0  0  0  0  0  0
    6.8421   -0.1014    0.0000 C   0  0  0  0  0  0  0  0  0  0  0  0
    7.0955   -0.9123    0.0000 C   0  0  0  0  0  0  0  0  0  0  0  0
    4.2066   -4.3586    0.0000 C   0  0  3  0  0  0  0  0  0  0  0  0
    5.8791    0.0000    0.0000 C   0  0  0  0  0  0  0  0  0  0  0  0
    5.0682   -4.5614    0.0000 C   0  0  0  0  0  0  0  0  0  0  0  0
    5.7271   -4.9162    0.0000 C   0  0  3  0  0  0  0  0  0  0  0  0
    4.7641   -3.9532    0.0000 C   0  0  0  0  0  0  0  0  0  0  0  0
    2.7368   -4.7135    0.0000 C   0  0  0  0  0  0  0  0  0  0  0  0
    1.7739   -2.5848    0.0000 C   0  0  0  0  0  0  0  0  0  0  0  0
    6.4366   -6.3860    0.0000 C   0  0  0  0  0  0  0  0  0  0  0  0
    6.4366   -7.1462    0.0000 C   0  0  0  0  0  0  0  0  0  0  0  0
    2.0780   -5.2709    0.0000 C   0  0  3  0  0  0  0  0  0  0  0  0
    7.1968   -7.6530    0.0000 C   0  0  0  0  0  0  0  0  0  0  0  0
    7.8557   -7.1462    0.0000 C   0  0  0  0  0  0  0  0  0  0  0  0
    7.8557   -6.3860    0.0000 C   0  0  0  0  0  0  0  0  0  0  0  0
    1.4191   -4.7641    0.0000 C   0  0  0  0  0  0  0  0  0  0  0  0
    7.9571   -8.8693    0.0000 C   0  0  0  0  0  0  0  0  0  0  0  0
    6.1832   -8.0078    0.0000 C   0  0  0  0  0  0  0  0  0  0  0  0
    8.5146  -10.1364    0.0000 C   0  0  3  0  0  0  0  0  0  0  0  0
    9.3255   -8.5653    0.0000 C   0  0  3  0  0  0  0  0  0  0  0  0
    8.6159   -7.6530    0.0000 C   0  0  0  0  0  0  0  0  0  0  0  0
    8.6159   -5.9298    0.0000 C   0  0  0  0  0  0  0  0  0  0  0  0
    7.9571   -9.6296    0.0000 C   0  0  0  0  0  0  0  0  0  0  0  0
    8.5653   -8.3625    0.0000 C   0  0  0  0  0  0  0  0  0  0  0  0
    1.5712   -6.7914    0.0000 C   0  0  0  0  0  0  0  0  0  0  0  0
    9.6296   -9.3255    0.0000 C   0  0  0  0  0  0  0  0  0  0  0  0
    9.2748   -9.9844    0.0000 C   0  0  0  0  0  0  0  0  0  0  0  0
    0.6082   -5.0175    0.0000 C   0  0  0  0  0  0  0  0  0  0  0  0
    1.5204   -3.9532    0.0000 C   0  0  0  0  0  0  0  0  0  0  0  0
    9.3762   -7.1462    0.0000 C   0  0  0  0  0  0  0  0  0  0  0  0
    2.0780   -8.2612    0.0000 C   0  0  3  0  0  0  0  0  0  0  0  0
    9.3762   -6.3860    0.0000 C   0  0  0  0  0  0  0  0  0  0  0  0
    2.7368   -8.8693    0.0000 C   0  0  3  0  0  0  0  0  0  0  0  0
    5.7271   -8.6666    0.0000 C   0  0  0  0  0  0  0  0  0  0  0  0
    7.7543   -8.7173    0.0000 C   0  0  0  0  0  0  0  0  0  0  0  0
    1.8753   -9.1228    0.0000 C   0  0  0  0  0  0  0  0  0  0  0  0
    0.0000   -4.5107    0.0000 C   0  0  0  0  0  0  0  0  0  0  0  0
    0.9123   -3.3957    0.0000 C   0  0  0  0  0  0  0  0  0  0  0  0
    3.4464   -9.2241    0.0000 C   0  0  0  0  0  0  0  0  0  0  0  0
    5.0682   -9.0214    0.0000 C   0  0  0  0  0  0  0  0  0  0  0  0
    0.1014   -3.6998    0.0000 C   0  0  0  0  0  0  0  0  0  0  0  0
    4.2066   -9.2241    0.0000 C   0  0  0  0  0  0  0  0  0  0  0  0
    7.0448   -9.1734    0.0000 C   0  0  0  0  0  0  0  0  0  0  0  0
    5.6257   -9.2241    0.0000 C   0  0  0  0  0  0  0  0  0  0  0  0
  1  3  2  0  0  0  0
  1  4  2  0  0  0  0
  1 13  1  0  0  0  0
  1 22  1  0  0  0  0
  2 21  2  0  0  0  0
  5 23  2  0  0  0  0
  6 30  1  0  0  0  0
  6 34  1  0  0  0  0
  7 37  1  0  0  0  0
  7 41  1  0  0  0  0
  8 32  2  0  0  0  0
  9 49  1  0  0  0  0
  9 55  1  0  0  0  0
 10 49  2  0  0  0  0
 11 67  1  0  0  0  0
 11 68  1  0  0  0  0
 18 12  1  1  0  0  0
 12 23  1  0  0  0  0
 13 21  1  0  0  0  0
 14 27  1  0  0  0  0
 14 31  1  0  0  0  0
 14 32  1  0  0  0  0
 15 34  1  0  0  0  0
 15 39  2  0  0  0  0
 16 36  1  0  0  0  0
 16 49  1  0  0  0  0
 17 43  1  0  0  0  0
 17 44  1  0  0  0  0
 17 59  1  0  0  0  0
 18 19  1  0  0  0  0
 18 20  1  0  0  0  0
 18 21  1  6  0  0  0
 19 20  1  0  0  0  0
 19 24  1  6  0  0  0
 22 25  1  0  0  0  0
 22 26  1  0  0  0  0
 22 28  1  0  0  0  0
 27 23  1  6  0  0  0
 24 33  2  0  0  0  0
 25 26  1  0  0  0  0
 27 29  1  0  0  0  0
 30 29  1  1  0  0  0
 30 31  1  0  0  0  0
 36 32  1  1  0  0  0
 34 35  2  0  0  0  0
 35 37  1  0  0  0  0
 35 42  1  0  0  0  0
 36 40  1  0  0  0  0
 37 38  2  0  0  0  0
 38 39  1  0  0  0  0
 38 45  1  0  0  0  0
 39 46  1  0  0  0  0
 40 52  1  0  0  0  0
 40 53  1  0  0  0  0
 41 47  1  0  0  0  0
 41 48  1  0  0  0  0
 42 58  1  0  0  0  0
 43 47  1  0  0  0  0
 43 51  1  0  0  0  0
 44 48  1  0  0  0  0
 44 50  1  0  0  0  0
 45 54  2  0  0  0  0
 46 56  2  0  0  0  0
 50 51  1  0  0  0  0
 52 61  1  0  0  0  0
 53 62  1  0  0  0  0
 54 56  1  0  0  0  0
 55 57  1  0  0  0  0
 55 60  1  1  0  0  0
 57 60  1  6  0  0  0
 57 63  1  0  0  0  0
 58 64  1  0  0  0  0
 59 67  1  0  0  0  0
 61 65  1  0  0  0  0
 62 65  1  0  0  0  0
 63 66  1  0  0  0  0
 64 66  1  0  0  0  0
M  END
> <PUBCHEM_COMPOUND_ID_TYPE>
0

> <PUBCHEM_TOTAL_CHARGE>
0

> <PUBCHEM_SUBSTANCE_ID>
310929363

> <PUBCHEM_SUBSTANCE_VERSION>
1

> <PUBCHEM_EXT_DATASOURCE_NAME>
4488

> <PUBCHEM_EXT_DATASOURCE_REGID>
SCHEMBL16106534

> <PUBCHEM_SUBSTANCE_COMMENT>
InChI=1S/C51H70N6O10S/c1-4-33-29-51(33,48(60)55-68(62,63)50(2)21-22-50)54-45(58)41-28-37-30-57(41)47(59)43(31-13-7-5-8-14-31)53-49(61)67-42-25-32(42)15-9-6-10-17-39-44(38-16-11-12-18-40(38)52-46(39)66-37)65-36-26-34-19-20-35(27-36)56(34)23-24-64-3/h4,11-12,16,18,31-37,41-43H,1,5-10,13-15,17,19-30H2,2-3H3,(H,53,61)(H,54,58)(H,55,60)/t32-,33-,34?,35?,36?,37-,41+,42-,43+,51-/m1/s1
InChIKey=JCBVCONOEOAUIB-FEDKVAJESA-N

> <PUBCHEM_SUBSTANCE_SYNONYM>
SCHEMBL16106534

> <PUBCHEM_XREF_EXT_ID>
SCHEMBL16106534

> <PUBCHEM_EXT_DATASOURCE_URL>
https://www.surechembl.org/

> <PUBCHEM_EXT_SUBSTANCE_URL>
https://www.surechembl.org/chemical/SCHEMBL16106534

> <PUBCHEM_CID_ASSOCIATIONS>
117598739  1

> <PUBCHEM_COORDINATE_TYPE>
1
3

> <PUBCHEM_BONDANNOTATIONS>
18  12  5
18  21  6
19  24  6
27  23  6
30  29  5
36  32  5
55  60  5
57  60  6

$$$$
