310942051
  -OEChem-07211613022D

 21 24  0     0  0  0  0  0  0999 V2000
    2.5269    1.6484    0.0000 O   0  0  0  0  0  0  0  0  0  0  0  0
   -0.4743   -0.9097    0.0000 N   0  0  0  0  0  0  0  0  0  0  0  0
    1.1429    2.1615    0.0000 N   0  0  0  0  0  0  0  0  0  0  0  0
   -0.0622    0.3654    0.0000 C   0  0  0  0  0  0  0  0  0  0  0  0
    0.1866   -0.4121    0.0000 C   0  0  0  0  0  0  0  0  0  0  0  0
    0.4821    0.9953    0.0000 C   0  0  0  0  0  0  0  0  0  0  0  0
   -0.9097    0.3732    0.0000 C   0  0  0  0  0  0  0  0  0  0  0  0
   -1.1585   -0.4121    0.0000 C   0  0  0  0  0  0  0  0  0  0  0  0
    1.2907    0.8320    0.0000 C   0  0  0  0  0  0  0  0  0  0  0  0
    1.6872    1.5551    0.0000 C   0  0  0  0  0  0  0  0  0  0  0  0
    0.3887    1.8116    0.0000 C   0  0  0  0  0  0  0  0  0  0  0  0
    1.0030   -0.5832    0.0000 C   0  0  0  0  0  0  0  0  0  0  0  0
    1.5473    0.0233    0.0000 C   0  0  0  0  0  0  0  0  0  0  0  0
   -1.4540    0.9719    0.0000 C   0  0  0  0  0  0  0  0  0  0  0  0
   -1.9672   -0.5909    0.0000 C   0  0  0  0  0  0  0  0  0  0  0  0
   -0.4821   -1.7416    0.0000 C   0  0  0  0  0  0  0  0  0  0  0  0
   -2.2627    0.8086    0.0000 C   0  0  0  0  0  0  0  0  0  0  0  0
   -2.5269    0.0311    0.0000 C   0  0  0  0  0  0  0  0  0  0  0  0
    1.2985    2.9857    0.0000 C   0  0  0  0  0  0  0  0  0  0  0  0
   -1.1896   -2.1460    0.0000 C   0  0  0  0  0  0  0  0  0  0  0  0
   -1.1896   -2.9857    0.0000 C   0  0  0  0  0  0  0  0  0  0  0  0
  1 10  2  0  0  0  0
  2  5  1  0  0  0  0
  2  8  1  0  0  0  0
  2 16  1  0  0  0  0
  3 10  1  0  0  0  0
  3 11  1  0  0  0  0
  3 19  1  0  0  0  0
  4  5  2  0  0  0  0
  4  6  1  0  0  0  0
  4  7  1  0  0  0  0
  5 12  1  0  0  0  0
  6  9  2  0  0  0  0
  6 11  1  0  0  0  0
  7  8  1  0  0  0  0
  7 14  2  0  0  0  0
  8 15  2  0  0  0  0
  9 10  1  0  0  0  0
  9 13  1  0  0  0  0
 12 13  2  0  0  0  0
 14 17  1  0  0  0  0
 15 18  1  0  0  0  0
 16 20  1  0  0  0  0
 17 18  2  0  0  0  0
 20 21  1  0  0  0  0
M  END
> <PUBCHEM_COMPOUND_ID_TYPE>
0

> <PUBCHEM_TOTAL_CHARGE>
0

> <PUBCHEM_SUBSTANCE_ID>
310942051

> <PUBCHEM_SUBSTANCE_VERSION>
1

> <PUBCHEM_EXT_DATASOURCE_NAME>
4488

> <PUBCHEM_EXT_DATASOURCE_REGID>
SCHEMBL16120086

> <PUBCHEM_SUBSTANCE_COMMENT>
InChI=1S/C18H18N2O/c1-3-10-20-15-7-5-4-6-13(15)17-14-11-19(2)18(21)12(14)8-9-16(17)20/h4-9H,3,10-11H2,1-2H3
InChIKey=UXUZPTPFALURTO-UHFFFAOYSA-N

> <PUBCHEM_SUBSTANCE_SYNONYM>
SCHEMBL16120086

> <PUBCHEM_XREF_EXT_ID>
SCHEMBL16120086

> <PUBCHEM_EXT_DATASOURCE_URL>
https://www.surechembl.org/

> <PUBCHEM_EXT_SUBSTANCE_URL>
https://www.surechembl.org/chemical/SCHEMBL16120086

> <PUBCHEM_CID_ASSOCIATIONS>
78319125  1

> <PUBCHEM_COORDINATE_TYPE>
1
3

$$$$
