310930829
  -OEChem-07211613022D

 34 38  0     0  0  0  0  0  0999 V2000
    0.1642   -1.4776    0.0000 Cl  0  0  0  0  0  0  0  0  0  0  0  0
    4.5148   -2.5037    0.0000 S   0  0  0  0  0  0  0  0  0  0  0  0
    4.9664   -3.3246    0.0000 O   0  0  0  0  0  0  0  0  0  0  0  0
    4.1044   -1.8060    0.0000 O   0  0  0  0  0  0  0  0  0  0  0  0
    8.8656    0.0000    0.0000 O   0  0  0  0  0  0  0  0  0  0  0  0
    2.4627   -3.2015    0.0000 N   0  0  0  0  0  0  0  0  0  0  0  0
    2.8731   -3.9403    0.0000 N   0  0  0  0  0  0  0  0  0  0  0  0
   10.2611   -2.5448    0.0000 N   0  0  0  0  0  0  0  0  0  0  0  0
   11.7797   -2.3806    0.0000 N   0  0  0  0  0  0  0  0  0  0  0  0
    8.1268   -1.2724    0.0000 N   0  0  0  0  0  0  0  0  0  0  0  0
   12.3133   -1.6828    0.0000 N   0  0  0  0  0  0  0  0  0  0  0  0
    3.7760   -2.9141    0.0000 C   0  0  0  0  0  0  0  0  0  0  0  0
    5.2536   -2.0932    0.0000 C   0  0  0  0  0  0  0  0  0  0  0  0
    3.0373   -2.5858    0.0000 C   0  0  0  0  0  0  0  0  0  0  0  0
    3.6940   -3.7351    0.0000 C   0  0  0  0  0  0  0  0  0  0  0  0
    1.6418   -3.0783    0.0000 C   0  0  0  0  0  0  0  0  0  0  0  0
    5.9515   -2.5037    0.0000 C   0  0  0  0  0  0  0  0  0  0  0  0
    5.2536   -1.2724    0.0000 C   0  0  0  0  0  0  0  0  0  0  0  0
   10.9999   -1.2724    0.0000 C   0  0  0  0  0  0  0  0  0  0  0  0
    6.6903   -1.2724    0.0000 C   0  0  0  0  0  0  0  0  0  0  0  0
   10.9999   -2.1343    0.0000 C   0  0  0  0  0  0  0  0  0  0  0  0
    9.5633   -1.2724    0.0000 C   0  0  0  0  0  0  0  0  0  0  0  0
    6.6903   -2.0932    0.0000 C   0  0  0  0  0  0  0  0  0  0  0  0
    5.9515   -0.8619    0.0000 C   0  0  0  0  0  0  0  0  0  0  0  0
    1.3134   -2.3395    0.0000 C   0  0  0  0  0  0  0  0  0  0  0  0
   10.2611   -0.8619    0.0000 C   0  0  0  0  0  0  0  0  0  0  0  0
    1.1492   -3.7760    0.0000 C   0  0  0  0  0  0  0  0  0  0  0  0
    8.8656   -0.8619    0.0000 C   0  0  0  0  0  0  0  0  0  0  0  0
    9.5633   -2.1343    0.0000 C   0  0  0  0  0  0  0  0  0  0  0  0
   11.7797   -1.0261    0.0000 C   0  0  0  0  0  0  0  0  0  0  0  0
    7.4290   -0.8619    0.0000 C   0  0  0  0  0  0  0  0  0  0  0  0
    0.4925   -2.2575    0.0000 C   0  0  0  0  0  0  0  0  0  0  0  0
    0.3284   -3.6940    0.0000 C   0  0  0  0  0  0  0  0  0  0  0  0
    0.0000   -2.9141    0.0000 C   0  0  0  0  0  0  0  0  0  0  0  0
  1 32  1  0  0  0  0
  2  3  2  0  0  0  0
  2  4  2  0  0  0  0
  2 12  1  0  0  0  0
  2 13  1  0  0  0  0
  5 28  2  0  0  0  0
  6  7  1  0  0  0  0
  6 14  1  0  0  0  0
  6 16  1  0  0  0  0
  7 15  2  0  0  0  0
  8 21  1  0  0  0  0
  8 29  2  0  0  0  0
  9 11  1  0  0  0  0
  9 21  1  0  0  0  0
 10 28  1  0  0  0  0
 10 31  1  0  0  0  0
 11 30  2  0  0  0  0
 12 14  2  0  0  0  0
 12 15  1  0  0  0  0
 13 17  2  0  0  0  0
 13 18  1  0  0  0  0
 16 25  1  0  0  0  0
 16 27  2  0  0  0  0
 17 23  1  0  0  0  0
 18 24  2  0  0  0  0
 19 21  2  0  0  0  0
 19 26  1  0  0  0  0
 19 30  1  0  0  0  0
 20 23  2  0  0  0  0
 20 24  1  0  0  0  0
 20 31  1  0  0  0  0
 22 26  2  0  0  0  0
 22 28  1  0  0  0  0
 22 29  1  0  0  0  0
 25 32  2  0  0  0  0
 27 33  1  0  0  0  0
 32 34  1  0  0  0  0
 33 34  2  0  0  0  0
M  END
> <PUBCHEM_COMPOUND_ID_TYPE>
0

> <PUBCHEM_TOTAL_CHARGE>
0

> <PUBCHEM_SUBSTANCE_ID>
310930829

> <PUBCHEM_SUBSTANCE_VERSION>
1

> <PUBCHEM_EXT_DATASOURCE_NAME>
4488

> <PUBCHEM_EXT_DATASOURCE_REGID>
SCHEMBL16108126

> <PUBCHEM_SUBSTANCE_COMMENT>
InChI=1S/C23H17ClN6O3S/c24-18-2-1-3-19(9-18)30-14-21(13-28-30)34(32,33)20-6-4-15(5-7-20)10-26-23(31)17-8-16-12-27-29-22(16)25-11-17/h1-9,11-14H,10H2,(H,26,31)(H,25,27,29)
InChIKey=FMPNWSNXLXSXOI-UHFFFAOYSA-N

> <PUBCHEM_SUBSTANCE_SYNONYM>
SCHEMBL16108126

> <PUBCHEM_XREF_EXT_ID>
SCHEMBL16108126

> <PUBCHEM_EXT_DATASOURCE_URL>
https://www.surechembl.org/

> <PUBCHEM_EXT_SUBSTANCE_URL>
https://www.surechembl.org/chemical/SCHEMBL16108126

> <PUBCHEM_CID_ASSOCIATIONS>
117599827  1

> <PUBCHEM_COORDINATE_TYPE>
1
3

$$$$
