310931207
  -OEChem-07211613022D

 14 14  0     0  0  0  0  0  0999 V2000
    0.0000    0.0000    0.0000 Cl  0  0  0  0  0  0  0  0  0  0  0  0
    2.1450   -2.8874    0.0000 O   0  0  0  0  0  0  0  0  0  0  0  0
    0.7219   -3.7124    0.0000 O   0  0  0  0  0  0  0  0  0  0  0  0
    0.7219   -2.8874    0.0000 N   0  0  0  0  0  0  0  0  0  0  0  0
    1.4437    0.0000    0.0000 N   0  0  0  0  0  0  0  0  0  0  0  0
    2.8668   -1.6499    0.0000 N   0  0  0  0  0  0  0  0  0  0  0  0
    1.4437   -1.6499    0.0000 C   0  0  0  0  0  0  0  0  0  0  0  0
    1.4437   -2.4749    0.0000 C   0  0  0  0  0  0  0  0  0  0  0  0
    2.1450   -1.2375    0.0000 C   0  0  0  0  0  0  0  0  0  0  0  0
    0.7219   -1.2375    0.0000 C   0  0  0  0  0  0  0  0  0  0  0  0
    0.7219   -0.4125    0.0000 C   0  0  0  0  0  0  0  0  0  0  0  0
    2.1450   -0.4125    0.0000 C   0  0  0  0  0  0  0  0  0  0  0  0
    0.0000   -2.4749    0.0000 C   0  0  0  0  0  0  0  0  0  0  0  0
    1.4437   -4.1249    0.0000 C   0  0  0  0  0  0  0  0  0  0  0  0
  1 11  1  0  0  0  0
  2  8  2  0  0  0  0
  3  4  1  0  0  0  0
  3 14  1  0  0  0  0
  4  8  1  0  0  0  0
  4 13  1  0  0  0  0
  5 11  1  0  0  0  0
  5 12  2  0  0  0  0
  6  9  1  0  0  0  0
  7  8  1  0  0  0  0
  7  9  2  0  0  0  0
  7 10  1  0  0  0  0
  9 12  1  0  0  0  0
 10 11  2  0  0  0  0
M  END
> <PUBCHEM_COMPOUND_ID_TYPE>
0

> <PUBCHEM_TOTAL_CHARGE>
0

> <PUBCHEM_SUBSTANCE_ID>
310931207

> <PUBCHEM_SUBSTANCE_VERSION>
1

> <PUBCHEM_EXT_DATASOURCE_NAME>
4488

> <PUBCHEM_EXT_DATASOURCE_REGID>
SCHEMBL16108516

> <PUBCHEM_SUBSTANCE_COMMENT>
InChI=1S/C8H10ClN3O2/c1-12(14-2)8(13)5-3-7(9)11-4-6(5)10/h3-4H,10H2,1-2H3
InChIKey=ZWQWLYKUDUSAMD-UHFFFAOYSA-N

> <PUBCHEM_SUBSTANCE_SYNONYM>
SCHEMBL16108516

> <PUBCHEM_XREF_EXT_ID>
SCHEMBL16108516

> <PUBCHEM_EXT_DATASOURCE_URL>
https://www.surechembl.org/

> <PUBCHEM_EXT_SUBSTANCE_URL>
https://www.surechembl.org/chemical/SCHEMBL16108516

> <PUBCHEM_CID_ASSOCIATIONS>
105612979  1

> <PUBCHEM_COORDINATE_TYPE>
1
3

$$$$
