310944708
  -OEChem-07211613022D

 16 16  0     0  0  0  0  0  0999 V2000
   -2.7692    0.4221    0.0000 I   0  0  0  0  0  0  0  0  0  0  0  0
   -2.9483   -1.2407    0.0000 Cl  0  0  0  0  0  0  0  0  0  0  0  0
    0.0832   -1.2407    0.0000 O   0  0  0  0  0  0  0  0  0  0  0  0
    2.2192    0.0000    0.0000 O   0  0  0  0  0  0  0  0  0  0  0  0
    1.5030    1.2407    0.0000 O   0  0  0  0  0  0  0  0  0  0  0  0
    0.0960    0.4221    0.0000 N   0  0  0  0  0  0  0  0  0  0  0  0
   -0.6203    0.0128    0.0000 C   0  0  0  0  0  0  0  0  0  0  0  0
   -0.6331   -0.8186    0.0000 C   0  0  0  0  0  0  0  0  0  0  0  0
   -2.0529    0.0000    0.0000 C   0  0  0  0  0  0  0  0  0  0  0  0
   -2.0529   -0.8186    0.0000 C   0  0  0  0  0  0  0  0  0  0  0  0
   -1.3238    0.4093    0.0000 C   0  0  0  0  0  0  0  0  0  0  0  0
   -1.3238   -1.2279    0.0000 C   0  0  0  0  0  0  0  0  0  0  0  0
    0.8122    0.0000    0.0000 C   0  0  0  0  0  0  0  0  0  0  0  0
    1.5157    0.4093    0.0000 C   0  0  0  0  0  0  0  0  0  0  0  0
    0.7867   -0.8314    0.0000 C   0  0  0  0  0  0  0  0  0  0  0  0
    2.9483    0.4221    0.0000 C   0  0  0  0  0  0  0  0  0  0  0  0
  1  9  1  0  0  0  0
  2 10  1  0  0  0  0
  3  8  1  0  0  0  0
  3 15  1  0  0  0  0
  4 14  1  0  0  0  0
  4 16  1  0  0  0  0
  5 14  2  0  0  0  0
  6  7  1  0  0  0  0
  6 13  1  0  0  0  0
  7  8  1  0  0  0  0
  7 11  2  0  0  0  0
  8 12  2  0  0  0  0
  9 10  2  0  0  0  0
  9 11  1  0  0  0  0
 10 12  1  0  0  0  0
 13 14  1  0  0  0  0
M  END
> <PUBCHEM_COMPOUND_ID_TYPE>
0

> <PUBCHEM_TOTAL_CHARGE>
0

> <PUBCHEM_SUBSTANCE_ID>
310944708

> <PUBCHEM_SUBSTANCE_VERSION>
1

> <PUBCHEM_EXT_DATASOURCE_NAME>
4488

> <PUBCHEM_EXT_DATASOURCE_REGID>
SCHEMBL16122787

> <PUBCHEM_SUBSTANCE_COMMENT>
InChI=1S/C10H11ClINO3/c1-15-9-3-6(11)7(12)4-8(9)13-5-10(14)16-2/h3-4,13H,5H2,1-2H3
InChIKey=VEPQZFPOLDMCFF-UHFFFAOYSA-N

> <PUBCHEM_SUBSTANCE_SYNONYM>
SCHEMBL16122787

> <PUBCHEM_XREF_EXT_ID>
SCHEMBL16122787

> <PUBCHEM_EXT_DATASOURCE_URL>
https://www.surechembl.org/

> <PUBCHEM_EXT_SUBSTANCE_URL>
https://www.surechembl.org/chemical/SCHEMBL16122787

> <PUBCHEM_CID_ASSOCIATIONS>
117610930  1

> <PUBCHEM_COORDINATE_TYPE>
1
3

$$$$
