310932634
  -OEChem-07211613022D

 17 17  0     0  0  0  0  0  0999 V2000
    0.7144   -2.1919    0.0000 O   0  0  0  0  0  0  0  0  0  0  0  0
    0.0000   -3.4294    0.0000 O   0  0  0  0  0  0  0  0  0  0  0  0
   -0.7144   -1.3669    0.0000 N   0  0  0  0  0  0  0  0  0  0  0  0
   -0.0470   -0.8820    0.0000 N   0  0  0  0  0  0  0  0  0  0  0  0
   -2.1434   -2.1919    0.0000 N   0  0  0  0  0  0  0  0  0  0  0  0
   -2.0968    1.2375    0.0000 N   0  0  0  0  0  0  0  0  0  0  0  0
   -0.7144   -2.1919    0.0000 C   0  0  0  0  0  0  0  0  0  0  0  0
    0.0000   -2.6044    0.0000 C   0  0  0  0  0  0  0  0  0  0  0  0
   -1.3819   -0.8820    0.0000 C   0  0  0  0  0  0  0  0  0  0  0  0
   -1.1270   -0.0974    0.0000 C   0  0  0  0  0  0  0  0  0  0  0  0
   -1.4290   -2.6044    0.0000 C   0  0  0  0  0  0  0  0  0  0  0  0
   -0.3020   -0.0974    0.0000 C   0  0  0  0  0  0  0  0  0  0  0  0
   -1.6119    0.5701    0.0000 C   0  0  0  0  0  0  0  0  0  0  0  0
    1.4290   -2.6044    0.0000 C   0  0  0  0  0  0  0  0  0  0  0  0
   -2.1434   -1.3669    0.0000 C   0  0  0  0  0  0  0  0  0  0  0  0
   -2.8579   -2.6044    0.0000 C   0  0  0  0  0  0  0  0  0  0  0  0
    2.1434   -2.1919    0.0000 C   0  0  0  0  0  0  0  0  0  0  0  0
  1  8  1  0  0  0  0
  1 14  1  0  0  0  0
  2  8  2  0  0  0  0
  3  4  1  0  0  0  0
  3  7  1  0  0  0  0
  3  9  1  0  0  0  0
  4 12  2  0  0  0  0
  5 11  1  0  0  0  0
  5 15  1  0  0  0  0
  5 16  1  0  0  0  0
  6 13  3  0  0  0  0
  7  8  1  0  0  0  0
  7 11  2  3  0  0  0
  9 10  2  0  0  0  0
 10 12  1  0  0  0  0
 10 13  1  0  0  0  0
 14 17  1  0  0  0  0
M  END
> <PUBCHEM_COMPOUND_ID_TYPE>
0

> <PUBCHEM_TOTAL_CHARGE>
0

> <PUBCHEM_SUBSTANCE_ID>
310932634

> <PUBCHEM_SUBSTANCE_VERSION>
1

> <PUBCHEM_EXT_DATASOURCE_NAME>
4488

> <PUBCHEM_EXT_DATASOURCE_REGID>
SCHEMBL16110012

> <PUBCHEM_SUBSTANCE_COMMENT>
InChI=1S/C11H14N4O2/c1-4-17-11(16)10(8-14(2)3)15-7-9(5-12)6-13-15/h6-8H,4H2,1-3H3/b10-8-
InChIKey=WMXWCZSFDPKPQE-NTMALXAHSA-N

> <PUBCHEM_SUBSTANCE_SYNONYM>
SCHEMBL16110012

> <PUBCHEM_XREF_EXT_ID>
SCHEMBL16110012

> <PUBCHEM_EXT_DATASOURCE_URL>
https://www.surechembl.org/

> <PUBCHEM_EXT_SUBSTANCE_URL>
https://www.surechembl.org/chemical/SCHEMBL16110012

> <PUBCHEM_CID_ASSOCIATIONS>
117601152  1

> <PUBCHEM_COORDINATE_TYPE>
1
3

> <PUBCHEM_BONDANNOTATIONS>
7  11  1

$$$$
