310945054
  -OEChem-07211613022D

 31 35  0     1  0  0  0  0  0999 V2000
    1.3447   -3.1773    0.0000 S   0  0  0  0  0  0  0  0  0  0  0  0
    3.0032   -3.2609    0.0000 O   0  0  0  0  0  0  0  0  0  0  0  0
   -1.5677    1.7002    0.0000 O   0  0  0  0  0  0  0  0  0  0  0  0
    1.5677   -0.9615    0.0000 N   0  0  0  0  0  0  0  0  0  0  0  0
   -1.5816   -1.6444    0.0000 N   0  0  0  0  0  0  0  0  0  0  0  0
    3.2122   -1.8534    0.0000 N   0  0  0  0  0  0  0  0  0  0  0  0
   -2.9892    1.7141    0.0000 N   0  0  0  0  0  0  0  0  0  0  0  0
    0.5644   -2.0624    0.0000 C   0  0  0  0  0  0  0  0  0  0  0  0
    1.3308   -1.8256    0.0000 C   0  0  0  0  0  0  0  0  0  0  0  0
    0.5505   -2.8987    0.0000 C   0  0  0  0  0  0  0  0  0  0  0  0
   -0.1602   -1.6444    0.0000 C   0  0  0  0  0  0  0  0  0  0  0  0
    1.8325   -2.4805    0.0000 C   0  0  0  0  0  0  0  0  0  0  0  0
   -0.8710   -2.0624    0.0000 C   0  0  0  0  0  0  0  0  0  0  0  0
    2.6548   -2.4945    0.0000 C   0  0  0  0  0  0  0  0  0  0  0  0
   -0.1463   -3.3167    0.0000 C   0  0  0  0  0  0  0  0  0  0  0  0
   -0.8570   -2.8987    0.0000 C   0  0  0  0  0  0  0  0  0  0  0  0
   -0.1463   -0.8222    0.0000 C   0  0  0  0  0  0  0  0  0  0  0  0
   -1.5677   -0.7943    0.0000 C   0  0  0  0  0  0  0  0  0  0  0  0
   -0.8710   -0.3902    0.0000 C   0  0  0  0  0  0  0  0  0  0  0  0
   -2.2923   -0.3762    0.0000 C   0  0  0  0  0  0  0  0  0  0  0  0
    2.3064   -0.6411    0.0000 C   0  0  0  0  0  0  0  0  0  0  0  0
    3.0589   -1.0312    0.0000 C   0  0  3  0  0  0  0  0  0  0  0  0
   -2.2923    0.4459    0.0000 C   0  0  0  0  0  0  0  0  0  0  0  0
   -3.0032   -0.8083    0.0000 C   0  0  0  0  0  0  0  0  0  0  0  0
   -2.9892    0.8779    0.0000 C   0  0  0  0  0  0  0  0  0  0  0  0
    3.7139   -0.5575    0.0000 C   0  0  0  0  0  0  0  0  0  0  0  0
   -3.7139   -0.3762    0.0000 C   0  0  0  0  0  0  0  0  0  0  0  0
   -3.7139    0.4459    0.0000 C   0  0  0  0  0  0  0  0  0  0  0  0
   -2.3064    2.1321    0.0000 C   0  0  0  0  0  0  0  0  0  0  0  0
   -2.2645    2.9683    0.0000 C   0  0  0  0  0  0  0  0  0  0  0  0
   -1.5259    3.3167    0.0000 C   0  0  0  0  0  0  0  0  0  0  0  0
  1 10  1  0  0  0  0
  1 12  1  0  0  0  0
  2 14  2  0  0  0  0
  3 29  2  0  0  0  0
  4  9  1  0  0  0  0
  4 21  1  0  0  0  0
  5 13  2  0  0  0  0
  5 18  1  0  0  0  0
  6 14  1  0  0  0  0
  6 22  1  0  0  0  0
  7 25  1  0  0  0  0
  7 29  1  0  0  0  0
  8  9  1  0  0  0  0
  8 10  2  0  0  0  0
  8 11  1  0  0  0  0
  9 12  2  0  0  0  0
 10 15  1  0  0  0  0
 11 13  1  0  0  0  0
 11 17  2  0  0  0  0
 12 14  1  0  0  0  0
 13 16  1  0  0  0  0
 15 16  2  0  0  0  0
 17 19  1  0  0  0  0
 18 19  2  0  0  0  0
 18 20  1  0  0  0  0
 20 23  2  0  0  0  0
 20 24  1  0  0  0  0
 21 22  1  0  0  0  0
 22 26  1  1  0  0  0
 23 25  1  0  0  0  0
 24 27  2  0  0  0  0
 25 28  2  0  0  0  0
 27 28  1  0  0  0  0
 29 30  1  0  0  0  0
 30 31  2  0  0  0  0
M  END
> <PUBCHEM_COMPOUND_ID_TYPE>
0

> <PUBCHEM_TOTAL_CHARGE>
0

> <PUBCHEM_SUBSTANCE_ID>
310945054

> <PUBCHEM_SUBSTANCE_VERSION>
1

> <PUBCHEM_EXT_DATASOURCE_NAME>
4488

> <PUBCHEM_EXT_DATASOURCE_REGID>
SCHEMBL16123142

> <PUBCHEM_SUBSTANCE_COMMENT>
InChI=1S/C24H20N4O2S/c1-3-20(29)27-15-6-4-5-14(11-15)17-8-7-16-18(28-17)9-10-19-21(16)22-23(31-19)24(30)26-13(2)12-25-22/h3-11,13,25H,1,12H2,2H3,(H,26,30)(H,27,29)/t13-/m1/s1
InChIKey=FLDWWYUABHYIOW-CYBMUJFWSA-N

> <PUBCHEM_SUBSTANCE_SYNONYM>
SCHEMBL16123142

> <PUBCHEM_XREF_EXT_ID>
SCHEMBL16123142

> <PUBCHEM_EXT_DATASOURCE_URL>
https://www.surechembl.org/

> <PUBCHEM_EXT_SUBSTANCE_URL>
https://www.surechembl.org/chemical/SCHEMBL16123142

> <PUBCHEM_CID_ASSOCIATIONS>
117611177  1

> <PUBCHEM_COORDINATE_TYPE>
1
3

> <PUBCHEM_BONDANNOTATIONS>
22  26  5

$$$$
