310948999
  -OEChem-07211613022D

 21 22  0     0  0  0  0  0  0999 V2000
    1.6961    1.4625    0.0000 Cl  0  0  0  0  0  0  0  0  0  0  0  0
   -1.8518   -2.3078    0.0000 F   0  0  0  0  0  0  0  0  0  0  0  0
    2.3968    0.2058    0.0000 O   0  0  0  0  0  0  0  0  0  0  0  0
    1.6961   -1.0399    0.0000 O   0  0  0  0  0  0  0  0  0  0  0  0
    0.2836   -0.2058    0.0000 N   0  0  0  0  0  0  0  0  0  0  0  0
    0.2836    2.3078    0.0000 N   0  0  0  0  0  0  0  0  0  0  0  0
   -0.4393    0.2168    0.0000 C   0  0  0  0  0  0  0  0  0  0  0  0
    0.9731    0.2168    0.0000 C   0  0  0  0  0  0  0  0  0  0  0  0
   -0.4282    1.0510    0.0000 C   0  0  0  0  0  0  0  0  0  0  0  0
    0.9954    1.0510    0.0000 C   0  0  0  0  0  0  0  0  0  0  0  0
    0.2836    1.4736    0.0000 C   0  0  0  0  0  0  0  0  0  0  0  0
   -1.1400   -0.2058    0.0000 C   0  0  0  0  0  0  0  0  0  0  0  0
    1.6961   -0.1724    0.0000 C   0  0  0  0  0  0  0  0  0  0  0  0
   -1.1400   -1.0399    0.0000 C   0  0  0  0  0  0  0  0  0  0  0  0
   -1.8518    0.2058    0.0000 C   0  0  0  0  0  0  0  0  0  0  0  0
   -1.8407   -1.4514    0.0000 C   0  0  0  0  0  0  0  0  0  0  0  0
   -2.5636   -1.0399    0.0000 C   0  0  0  0  0  0  0  0  0  0  0  0
   -1.1288    1.4625    0.0000 C   0  0  0  0  0  0  0  0  0  0  0  0
   -2.5525   -0.2058    0.0000 C   0  0  0  0  0  0  0  0  0  0  0  0
   -3.1085   -1.3624    0.0000 C   0  0  0  0  0  0  0  0  0  0  0  0
    3.1085   -0.2058    0.0000 C   0  0  0  0  0  0  0  0  0  0  0  0
  1 10  1  0  0  0  0
  2 16  1  0  0  0  0
  3 13  1  0  0  0  0
  3 21  1  0  0  0  0
  4 13  2  0  0  0  0
  5  7  1  0  0  0  0
  5  8  2  0  0  0  0
  6 11  1  0  0  0  0
  7  9  2  0  0  0  0
  7 12  1  0  0  0  0
  8 10  1  0  0  0  0
  8 13  1  0  0  0  0
  9 11  1  0  0  0  0
  9 18  1  0  0  0  0
 10 11  2  0  0  0  0
 12 14  1  0  0  0  0
 12 15  2  0  0  0  0
 14 16  2  0  0  0  0
 15 19  1  0  0  0  0
 16 17  1  0  0  0  0
 17 19  2  0  0  0  0
 17 20  1  0  0  0  0
M  END
> <PUBCHEM_COMPOUND_ID_TYPE>
0

> <PUBCHEM_TOTAL_CHARGE>
0

> <PUBCHEM_SUBSTANCE_ID>
310948999

> <PUBCHEM_SUBSTANCE_VERSION>
1

> <PUBCHEM_EXT_DATASOURCE_NAME>
4488

> <PUBCHEM_EXT_DATASOURCE_REGID>
SCHEMBL16127187

> <PUBCHEM_SUBSTANCE_COMMENT>
InChI=1S/C15H14ClFN2O2/c1-7-4-5-9(6-10(7)17)13-8(2)12(18)11(16)14(19-13)15(20)21-3/h4-6H,1-3H3,(H2,18,19)
InChIKey=YMFDPDMNTDUSCR-UHFFFAOYSA-N

> <PUBCHEM_SUBSTANCE_SYNONYM>
SCHEMBL16127187

> <PUBCHEM_XREF_EXT_ID>
SCHEMBL16127187

> <PUBCHEM_EXT_DATASOURCE_URL>
https://www.surechembl.org/

> <PUBCHEM_EXT_SUBSTANCE_URL>
https://www.surechembl.org/chemical/SCHEMBL16127187

> <PUBCHEM_CID_ASSOCIATIONS>
117614508  1

> <PUBCHEM_COORDINATE_TYPE>
1
3

$$$$
