310942962
  -OEChem-07211613022D

 16 16  0     1  0  0  0  0  0999 V2000
    0.7161    0.1993    0.0000 O   0  0  0  0  0  0  0  0  0  0  0  0
    0.4048   -0.9341    0.0000 O   0  0  0  0  0  0  0  0  0  0  0  0
   -0.0062    2.2666    0.0000 O   0  0  0  0  0  0  0  0  0  0  0  0
    0.7161    1.0212    0.0000 O   0  0  0  0  0  0  0  0  0  0  0  0
   -0.7535    0.2117    0.0000 C   0  0  3  0  0  0  0  0  0  0  0  0
   -0.7161    1.0337    0.0000 C   0  0  3  0  0  0  0  0  0  0  0  0
   -0.0062   -0.1993    0.0000 C   0  0  0  0  0  0  0  0  0  0  0  0
    0.0187    1.4447    0.0000 C   0  0  0  0  0  0  0  0  0  0  0  0
   -1.4135   -0.2117    0.0000 C   0  0  0  0  0  0  0  0  0  0  0  0
   -1.4260    1.4322    0.0000 C   0  0  0  0  0  0  0  0  0  0  0  0
   -2.1359    0.1993    0.0000 C   0  0  0  0  0  0  0  0  0  0  0  0
   -2.1359    1.0212    0.0000 C   0  0  0  0  0  0  0  0  0  0  0  0
    1.4135   -0.1993    0.0000 C   0  0  0  0  0  0  0  0  0  0  0  0
    1.4135   -1.0337    0.0000 C   0  0  0  0  0  0  0  0  0  0  0  0
    2.1359   -1.4322    0.0000 C   0  0  0  0  0  0  0  0  0  0  0  0
    2.1359   -2.2666    0.0000 C   0  0  0  0  0  0  0  0  0  0  0  0
  1  7  1  0  0  0  0
  1 13  1  0  0  0  0
  2  7  2  0  0  0  0
  3  8  2  0  0  0  0
  4  8  1  0  0  0  0
  5  6  1  0  0  0  0
  5  7  1  0  0  0  0
  5  9  1  0  0  0  0
  6  8  1  1  0  0  0
  6 10  1  0  0  0  0
  9 11  1  0  0  0  0
 10 12  1  0  0  0  0
 11 12  1  0  0  0  0
 13 14  1  0  0  0  0
 14 15  1  0  0  0  0
 15 16  1  0  0  0  0
M  END
> <PUBCHEM_COMPOUND_ID_TYPE>
0

> <PUBCHEM_TOTAL_CHARGE>
0

> <PUBCHEM_SUBSTANCE_ID>
310942962

> <PUBCHEM_SUBSTANCE_VERSION>
1

> <PUBCHEM_EXT_DATASOURCE_NAME>
4488

> <PUBCHEM_EXT_DATASOURCE_REGID>
SCHEMBL16121021

> <PUBCHEM_SUBSTANCE_COMMENT>
InChI=1S/C12H20O4/c1-2-3-8-16-12(15)10-7-5-4-6-9(10)11(13)14/h9-10H,2-8H2,1H3,(H,13,14)/t9-,10?/m1/s1
InChIKey=VRHUZZLSVQTROS-YHMJZVADSA-N

> <PUBCHEM_SUBSTANCE_SYNONYM>
SCHEMBL16121021

> <PUBCHEM_XREF_EXT_ID>
SCHEMBL16121021

> <PUBCHEM_EXT_DATASOURCE_URL>
https://www.surechembl.org/

> <PUBCHEM_EXT_SUBSTANCE_URL>
https://www.surechembl.org/chemical/SCHEMBL16121021

> <PUBCHEM_CID_ASSOCIATIONS>
117609424  1

> <PUBCHEM_COORDINATE_TYPE>
1
3

> <PUBCHEM_BONDANNOTATIONS>
6  8  5

$$$$
