310930284
  -OEChem-07211613022D

 32 36  0     0  0  0  0  0  0999 V2000
    6.3609   -3.5163    0.0000 S   0  0  0  0  0  0  0  0  0  0  0  0
    5.6102   -3.0817    0.0000 O   0  0  0  0  0  0  0  0  0  0  0  0
    7.0721   -3.9509    0.0000 O   0  0  0  0  0  0  0  0  0  0  0  0
    2.1730   -7.7437    0.0000 O   0  0  0  0  0  0  0  0  0  0  0  0
    6.4004   -0.7112    0.0000 O   0  0  0  0  0  0  0  0  0  0  0  0
    8.0598   -0.7112    0.0000 O   0  0  0  0  0  0  0  0  0  0  0  0
    3.9114   -7.7833    0.0000 O   0  0  0  0  0  0  0  0  0  0  0  0
    3.9114   -6.4004    0.0000 N   0  0  0  0  0  0  0  0  0  0  0  0
    0.0000   -7.5067    0.0000 N   0  0  0  0  0  0  0  0  0  0  0  0
    6.7955   -2.8447    0.0000 C   0  0  0  0  0  0  0  0  0  0  0  0
    5.9658   -4.2274    0.0000 C   0  0  0  0  0  0  0  0  0  0  0  0
    6.7955   -1.4223    0.0000 C   0  0  0  0  0  0  0  0  0  0  0  0
    6.4004   -2.0939    0.0000 C   0  0  0  0  0  0  0  0  0  0  0  0
    7.6252   -1.4223    0.0000 C   0  0  0  0  0  0  0  0  0  0  0  0
    7.6252   -2.8447    0.0000 C   0  0  0  0  0  0  0  0  0  0  0  0
    2.6471   -7.0721    0.0000 C   0  0  0  0  0  0  0  0  0  0  0  0
    1.3828   -7.5067    0.0000 C   0  0  0  0  0  0  0  0  0  0  0  0
    1.3828   -6.6770    0.0000 C   0  0  0  0  0  0  0  0  0  0  0  0
    8.0203   -2.1335    0.0000 C   0  0  0  0  0  0  0  0  0  0  0  0
    5.1362   -4.2274    0.0000 C   0  0  0  0  0  0  0  0  0  0  0  0
    6.3609   -4.9781    0.0000 C   0  0  0  0  0  0  0  0  0  0  0  0
    2.1730   -6.4399    0.0000 C   0  0  0  0  0  0  0  0  0  0  0  0
    5.1362   -5.6498    0.0000 C   0  0  0  0  0  0  0  0  0  0  0  0
    3.4768   -7.0721    0.0000 C   0  0  0  0  0  0  0  0  0  0  0  0
    4.7411   -4.9386    0.0000 C   0  0  0  0  0  0  0  0  0  0  0  0
    5.9658   -5.6498    0.0000 C   0  0  0  0  0  0  0  0  0  0  0  0
    0.6717   -7.9018    0.0000 C   0  0  0  0  0  0  0  0  0  0  0  0
    0.6717   -6.2819    0.0000 C   0  0  0  0  0  0  0  0  0  0  0  0
    4.7016   -6.4004    0.0000 C   0  0  0  0  0  0  0  0  0  0  0  0
    6.8350    0.0000    0.0000 C   0  0  0  0  0  0  0  0  0  0  0  0
    7.6647    0.0000    0.0000 C   0  0  0  0  0  0  0  0  0  0  0  0
    0.0000   -6.6770    0.0000 C   0  0  0  0  0  0  0  0  0  0  0  0
  1  2  2  0  0  0  0
  1  3  2  0  0  0  0
  1 10  1  0  0  0  0
  1 11  1  0  0  0  0
  4 16  1  0  0  0  0
  4 17  1  0  0  0  0
  5 12  1  0  0  0  0
  5 30  1  0  0  0  0
  6 14  1  0  0  0  0
  6 31  1  0  0  0  0
  7 24  2  0  0  0  0
  8 24  1  0  0  0  0
  8 29  1  0  0  0  0
  9 27  1  0  0  0  0
  9 32  2  0  0  0  0
 10 13  2  0  0  0  0
 10 15  1  0  0  0  0
 11 20  2  0  0  0  0
 11 21  1  0  0  0  0
 12 13  1  0  0  0  0
 12 14  2  0  0  0  0
 14 19  1  0  0  0  0
 15 19  2  0  0  0  0
 16 22  2  0  0  0  0
 16 24  1  0  0  0  0
 17 18  1  0  0  0  0
 17 27  2  0  0  0  0
 18 22  1  0  0  0  0
 18 28  2  0  0  0  0
 20 25  1  0  0  0  0
 21 26  2  0  0  0  0
 23 25  2  0  0  0  0
 23 26  1  0  0  0  0
 23 29  1  0  0  0  0
 28 32  1  0  0  0  0
 30 31  1  0  0  0  0
M  END
> <PUBCHEM_COMPOUND_ID_TYPE>
0

> <PUBCHEM_TOTAL_CHARGE>
0

> <PUBCHEM_SUBSTANCE_ID>
310930284

> <PUBCHEM_SUBSTANCE_VERSION>
1

> <PUBCHEM_EXT_DATASOURCE_NAME>
4488

> <PUBCHEM_EXT_DATASOURCE_REGID>
SCHEMBL16107562

> <PUBCHEM_SUBSTANCE_COMMENT>
InChI=1S/C23H18N2O6S/c26-23(21-11-16-7-8-24-14-22(16)31-21)25-13-15-1-3-17(4-2-15)32(27,28)18-5-6-19-20(12-18)30-10-9-29-19/h1-8,11-12,14H,9-10,13H2,(H,25,26)
InChIKey=RHBXWVOOFKAUDX-UHFFFAOYSA-N

> <PUBCHEM_SUBSTANCE_SYNONYM>
SCHEMBL16107562

> <PUBCHEM_XREF_EXT_ID>
SCHEMBL16107562

> <PUBCHEM_EXT_DATASOURCE_URL>
https://www.surechembl.org/

> <PUBCHEM_EXT_SUBSTANCE_URL>
https://www.surechembl.org/chemical/SCHEMBL16107562

> <PUBCHEM_CID_ASSOCIATIONS>
117599466  1

> <PUBCHEM_COORDINATE_TYPE>
1
3

$$$$
