310940696
  -OEChem-07211613022D

 26 28  0     0  0  0  0  0  0999 V2000
   -2.2084    1.6426    0.0000 F   0  0  0  0  0  0  0  0  0  0  0  0
   -3.4982    0.9856    0.0000 F   0  0  0  0  0  0  0  0  0  0  0  0
    0.6510    1.6426    0.0000 O   0  0  0  0  0  0  0  0  0  0  0  0
   -0.0670    0.4015    0.0000 N   0  0  0  0  0  0  0  0  0  0  0  0
    1.3689    0.4015    0.0000 N   0  0  0  0  0  0  0  0  0  0  0  0
    2.0746   -1.6670    0.0000 N   0  0  0  0  0  0  0  0  0  0  0  0
   -1.4905    0.4259    0.0000 C   0  0  0  0  0  0  0  0  0  0  0  0
   -2.2084    0.8274    0.0000 C   0  0  0  0  0  0  0  0  0  0  0  0
   -0.7848    0.8274    0.0000 C   0  0  0  0  0  0  0  0  0  0  0  0
    0.6388    0.8152    0.0000 C   0  0  0  0  0  0  0  0  0  0  0  0
   -2.9141    0.4259    0.0000 C   0  0  0  0  0  0  0  0  0  0  0  0
   -0.0547   -0.4137    0.0000 C   0  0  0  0  0  0  0  0  0  0  0  0
   -1.5027   -0.4015    0.0000 C   0  0  0  0  0  0  0  0  0  0  0  0
    0.6510   -0.8152    0.0000 C   0  0  0  0  0  0  0  0  0  0  0  0
   -2.9141   -0.4015    0.0000 C   0  0  0  0  0  0  0  0  0  0  0  0
   -2.1963   -0.8152    0.0000 C   0  0  0  0  0  0  0  0  0  0  0  0
    2.0746    0.8395    0.0000 C   0  0  0  0  0  0  0  0  0  0  0  0
    0.6510   -1.6426    0.0000 C   0  0  0  0  0  0  0  0  0  0  0  0
    1.3567   -0.4137    0.0000 C   0  0  0  0  0  0  0  0  0  0  0  0
    2.0989    1.6670    0.0000 C   0  0  0  0  0  0  0  0  0  0  0  0
    2.7925    0.4259    0.0000 C   0  0  0  0  0  0  0  0  0  0  0  0
    2.0867   -0.8274    0.0000 C   0  0  0  0  0  0  0  0  0  0  0  0
    1.3810   -2.0564    0.0000 C   0  0  0  0  0  0  0  0  0  0  0  0
    2.7925    2.0563    0.0000 C   0  0  0  0  0  0  0  0  0  0  0  0
    3.4982    0.8274    0.0000 C   0  0  0  0  0  0  0  0  0  0  0  0
    3.4982    1.6548    0.0000 C   0  0  0  0  0  0  0  0  0  0  0  0
  1  8  1  0  0  0  0
  2 11  1  0  0  0  0
  3 10  2  0  0  0  0
  4  9  1  0  0  0  0
  4 10  1  0  0  0  0
  4 12  1  0  0  0  0
  5 10  1  0  0  0  0
  5 17  1  0  0  0  0
  6 22  1  0  0  0  0
  6 23  1  0  0  0  0
  7  8  2  0  0  0  0
  7  9  1  0  0  0  0
  7 13  1  0  0  0  0
  8 11  1  0  0  0  0
 11 15  2  0  0  0  0
 12 14  1  0  0  0  0
 13 16  2  0  0  0  0
 14 18  1  0  0  0  0
 14 19  1  0  0  0  0
 15 16  1  0  0  0  0
 17 20  1  0  0  0  0
 17 21  1  0  0  0  0
 18 23  1  0  0  0  0
 19 22  1  0  0  0  0
 20 24  1  0  0  0  0
 21 25  1  0  0  0  0
 24 26  1  0  0  0  0
 25 26  1  0  0  0  0
M  END
> <PUBCHEM_COMPOUND_ID_TYPE>
0

> <PUBCHEM_TOTAL_CHARGE>
0

> <PUBCHEM_SUBSTANCE_ID>
310940696

> <PUBCHEM_SUBSTANCE_VERSION>
1

> <PUBCHEM_EXT_DATASOURCE_NAME>
4488

> <PUBCHEM_EXT_DATASOURCE_REGID>
SCHEMBL16118652

> <PUBCHEM_SUBSTANCE_COMMENT>
InChI=1S/C20H29F2N3O/c21-18-8-4-5-16(19(18)22)14-25(13-15-9-11-23-12-10-15)20(26)24-17-6-2-1-3-7-17/h4-5,8,15,17,23H,1-3,6-7,9-14H2,(H,24,26)
InChIKey=JEDZHISFSJCYQL-UHFFFAOYSA-N

> <PUBCHEM_SUBSTANCE_SYNONYM>
SCHEMBL16118652

> <PUBCHEM_XREF_EXT_ID>
SCHEMBL16118652

> <PUBCHEM_EXT_DATASOURCE_URL>
https://www.surechembl.org/

> <PUBCHEM_EXT_SUBSTANCE_URL>
https://www.surechembl.org/chemical/SCHEMBL16118652

> <PUBCHEM_CID_ASSOCIATIONS>
86300061  1

> <PUBCHEM_COORDINATE_TYPE>
1
3

$$$$
