310943417
  -OEChem-07211613022D

 25 27  0     0  0  0  0  0  0999 V2000
   -1.7948   -0.2004    0.0000 O   0  0  0  0  0  0  0  0  0  0  0  0
   -3.2342    2.2776    0.0000 O   0  0  0  0  0  0  0  0  0  0  0  0
   -2.5236   -2.2594    0.0000 O   0  0  0  0  0  0  0  0  0  0  0  0
   -1.7948    1.4577    0.0000 N   0  0  0  0  0  0  0  0  0  0  0  0
    0.3553    0.2186    0.0000 N   0  0  0  0  0  0  0  0  0  0  0  0
   -0.3553   -0.2004    0.0000 N   0  0  0  0  0  0  0  0  0  0  0  0
    3.2342    1.0568    0.0000 N   0  0  0  0  0  0  0  0  0  0  0  0
   -1.0659    1.0568    0.0000 C   0  0  0  0  0  0  0  0  0  0  0  0
    0.3735    1.0568    0.0000 C   0  0  0  0  0  0  0  0  0  0  0  0
   -1.0841    0.2369    0.0000 C   0  0  0  0  0  0  0  0  0  0  0  0
    1.0841    1.4759    0.0000 C   0  0  0  0  0  0  0  0  0  0  0  0
   -0.3735    1.4577    0.0000 C   0  0  0  0  0  0  0  0  0  0  0  0
    1.0841    2.2958    0.0000 C   0  0  0  0  0  0  0  0  0  0  0  0
    1.7948    1.0568    0.0000 C   0  0  0  0  0  0  0  0  0  0  0  0
   -1.7948    2.2776    0.0000 C   0  0  0  0  0  0  0  0  0  0  0  0
   -2.5054    1.0568    0.0000 C   0  0  0  0  0  0  0  0  0  0  0  0
    2.5054    1.4759    0.0000 C   0  0  0  0  0  0  0  0  0  0  0  0
    1.7948    2.6967    0.0000 C   0  0  0  0  0  0  0  0  0  0  0  0
    2.5054    2.2776    0.0000 C   0  0  0  0  0  0  0  0  0  0  0  0
   -2.5236    2.6967    0.0000 C   0  0  0  0  0  0  0  0  0  0  0  0
   -3.2342    1.4577    0.0000 C   0  0  0  0  0  0  0  0  0  0  0  0
    0.3553    2.6785    0.0000 C   0  0  0  0  0  0  0  0  0  0  0  0
   -1.7948   -1.0204    0.0000 C   0  0  0  0  0  0  0  0  0  0  0  0
   -2.4871   -1.4212    0.0000 C   0  0  0  0  0  0  0  0  0  0  0  0
   -3.2160   -2.6967    0.0000 C   0  0  0  0  0  0  0  0  0  0  0  0
  1 10  1  0  0  0  0
  1 23  1  0  0  0  0
  2 20  1  0  0  0  0
  2 21  1  0  0  0  0
  3 24  1  0  0  0  0
  3 25  1  0  0  0  0
  4  8  1  0  0  0  0
  4 15  1  0  0  0  0
  4 16  1  0  0  0  0
  5  6  1  0  0  0  0
  5  9  2  0  0  0  0
  6 10  2  0  0  0  0
  7 17  1  0  0  0  0
  8 10  1  0  0  0  0
  8 12  2  0  0  0  0
  9 11  1  0  0  0  0
  9 12  1  0  0  0  0
 11 13  2  0  0  0  0
 11 14  1  0  0  0  0
 13 18  1  0  0  0  0
 13 22  1  0  0  0  0
 14 17  2  0  0  0  0
 15 20  1  0  0  0  0
 16 21  1  0  0  0  0
 17 19  1  0  0  0  0
 18 19  2  0  0  0  0
 23 24  1  0  0  0  0
M  END
> <PUBCHEM_COMPOUND_ID_TYPE>
0

> <PUBCHEM_TOTAL_CHARGE>
0

> <PUBCHEM_SUBSTANCE_ID>
310943417

> <PUBCHEM_SUBSTANCE_VERSION>
1

> <PUBCHEM_EXT_DATASOURCE_NAME>
4488

> <PUBCHEM_EXT_DATASOURCE_REGID>
SCHEMBL16121481

> <PUBCHEM_SUBSTANCE_COMMENT>
InChI=1S/C18H24N4O3/c1-13-3-4-14(19)11-15(13)16-12-17(22-5-7-24-8-6-22)18(21-20-16)25-10-9-23-2/h3-4,11-12H,5-10,19H2,1-2H3
InChIKey=VCEVJJFWCDFPMX-UHFFFAOYSA-N

> <PUBCHEM_SUBSTANCE_SYNONYM>
SCHEMBL16121481

> <PUBCHEM_XREF_EXT_ID>
SCHEMBL16121481

> <PUBCHEM_EXT_DATASOURCE_URL>
https://www.surechembl.org/

> <PUBCHEM_EXT_SUBSTANCE_URL>
https://www.surechembl.org/chemical/SCHEMBL16121481

> <PUBCHEM_CID_ASSOCIATIONS>
117609841  1

> <PUBCHEM_COORDINATE_TYPE>
1
3

$$$$
