310941115
  -OEChem-07211613022D

 30 31  0     1  0  0  0  0  0999 V2000
    4.2675   -1.6393    0.0000 O   0  0  0  0  0  0  0  0  0  0  0  0
    0.0000    0.0000    0.0000 O   0  0  0  0  0  0  0  0  0  0  0  0
    2.8450   -2.4657    0.0000 O   0  0  0  0  0  0  0  0  0  0  0  0
    2.1271    2.0457    0.0000 O   0  0  0  0  0  0  0  0  0  0  0  0
    2.8450    0.8129    0.0000 O   0  0  0  0  0  0  0  0  0  0  0  0
   -2.1271    2.0457    0.0000 O   0  0  0  0  0  0  0  0  0  0  0  0
   -4.9721    2.0457    0.0000 O   0  0  0  0  0  0  0  0  0  0  0  0
    0.0000    2.4522    0.0000 O   0  0  0  0  0  0  0  0  0  0  0  0
    0.7045    1.2328    0.0000 N   0  0  0  0  0  0  0  0  0  0  0  0
   -1.4226    0.8129    0.0000 N   0  0  0  0  0  0  0  0  0  0  0  0
   -3.5631    1.2328    0.0000 N   0  0  0  0  0  0  0  0  0  0  0  0
    1.4361    0.8264    0.0000 C   0  0  3  0  0  0  0  0  0  0  0  0
    2.1271   -0.4064    0.0000 C   0  0  0  0  0  0  0  0  0  0  0  0
    0.0000    0.8400    0.0000 C   0  0  0  0  0  0  0  0  0  0  0  0
   -0.7316    1.2328    0.0000 C   0  0  3  0  0  0  0  0  0  0  0  0
    1.4090   -0.0135    0.0000 C   0  0  0  0  0  0  0  0  0  0  0  0
    2.8450   -1.6257    0.0000 C   0  0  0  0  0  0  0  0  0  0  0  0
    3.5359   -1.2193    0.0000 C   0  0  0  0  0  0  0  0  0  0  0  0
    2.1271   -1.2193    0.0000 C   0  0  0  0  0  0  0  0  0  0  0  0
    2.8315   -0.0135    0.0000 C   0  0  0  0  0  0  0  0  0  0  0  0
    2.1271    1.2057    0.0000 C   0  0  0  0  0  0  0  0  0  0  0  0
    3.5495   -0.4200    0.0000 C   0  0  0  0  0  0  0  0  0  0  0  0
   -2.1542    1.2057    0.0000 C   0  0  0  0  0  0  0  0  0  0  0  0
   -2.8315    0.8264    0.0000 C   0  0  0  0  0  0  0  0  0  0  0  0
   -0.7045    2.0593    0.0000 C   0  0  0  0  0  0  0  0  0  0  0  0
   -3.5495    2.0593    0.0000 C   0  0  0  0  0  0  0  0  0  0  0  0
   -4.2540    0.8264    0.0000 C   0  0  0  0  0  0  0  0  0  0  0  0
   -4.2811    2.4657    0.0000 C   0  0  0  0  0  0  0  0  0  0  0  0
   -4.9721    1.2328    0.0000 C   0  0  0  0  0  0  0  0  0  0  0  0
    4.9721   -1.2328    0.0000 C   0  0  0  0  0  0  0  0  0  0  0  0
  1 18  1  0  0  0  0
  1 30  1  0  0  0  0
  2 14  2  0  0  0  0
  3 17  1  0  0  0  0
  4 21  2  0  0  0  0
  5 21  1  0  0  0  0
  6 23  2  0  0  0  0
  7 28  1  0  0  0  0
  7 29  1  0  0  0  0
  8 25  1  0  0  0  0
 12  9  1  6  0  0  0
  9 14  1  0  0  0  0
 15 10  1  1  0  0  0
 10 23  1  0  0  0  0
 11 24  1  0  0  0  0
 11 26  1  0  0  0  0
 11 27  1  0  0  0  0
 12 16  1  0  0  0  0
 12 21  1  0  0  0  0
 13 16  1  0  0  0  0
 13 19  2  0  0  0  0
 13 20  1  0  0  0  0
 14 15  1  0  0  0  0
 15 25  1  0  0  0  0
 17 18  2  0  0  0  0
 17 19  1  0  0  0  0
 18 22  1  0  0  0  0
 20 22  2  0  0  0  0
 23 24  1  0  0  0  0
 26 28  1  0  0  0  0
 27 29  1  0  0  0  0
M  END
> <PUBCHEM_COMPOUND_ID_TYPE>
0

> <PUBCHEM_TOTAL_CHARGE>
0

> <PUBCHEM_SUBSTANCE_ID>
310941115

> <PUBCHEM_SUBSTANCE_VERSION>
1

> <PUBCHEM_EXT_DATASOURCE_NAME>
4488

> <PUBCHEM_EXT_DATASOURCE_REGID>
SCHEMBL16119075

> <PUBCHEM_SUBSTANCE_COMMENT>
InChI=1S/C19H27N3O8/c1-29-16-3-2-12(9-15(16)24)8-13(19(27)28)21-18(26)14(11-23)20-17(25)10-22-4-6-30-7-5-22/h2-3,9,13-14,23-24H,4-8,10-11H2,1H3,(H,20,25)(H,21,26)(H,27,28)/t13-,14-/m0/s1
InChIKey=SFGRSKIBMDSGLA-KBPBESRZSA-N

> <PUBCHEM_SUBSTANCE_SYNONYM>
SCHEMBL16119075

> <PUBCHEM_XREF_EXT_ID>
SCHEMBL16119075

> <PUBCHEM_EXT_DATASOURCE_URL>
https://www.surechembl.org/

> <PUBCHEM_EXT_SUBSTANCE_URL>
https://www.surechembl.org/chemical/SCHEMBL16119075

> <PUBCHEM_CID_ASSOCIATIONS>
117607998  1

> <PUBCHEM_COORDINATE_TYPE>
1
3

> <PUBCHEM_BONDANNOTATIONS>
15  10  5
12  9  6

$$$$
