310941462
  -OEChem-07211613022D

 15 15  0     1  0  0  0  0  0999 V2000
   -0.0341    2.0821    0.0000 O   0  0  0  0  0  0  0  0  0  0  0  0
    1.3957    2.0821    0.0000 O   0  0  0  0  0  0  0  0  0  0  0  0
   -1.4751    0.4141    0.0000 O   0  0  0  0  0  0  0  0  0  0  0  0
    2.1332    0.8681    0.0000 O   0  0  0  0  0  0  0  0  0  0  0  0
    0.6922    1.6737    0.0000 C   0  0  3  0  0  0  0  0  0  0  0  0
   -0.7489    0.8340    0.0000 C   0  0  3  0  0  0  0  0  0  0  0  0
    0.6808    0.8340    0.0000 C   0  0  0  0  0  0  0  0  0  0  0  0
   -0.7489    1.6737    0.0000 C   0  0  0  0  0  0  0  0  0  0  0  0
   -0.0341    0.4255    0.0000 C   0  0  0  0  0  0  0  0  0  0  0  0
    2.1445    1.6510    0.0000 C   0  0  0  0  0  0  0  0  0  0  0  0
   -1.4525   -0.3914    0.0000 C   0  0  0  0  0  0  0  0  0  0  0  0
    2.8253    2.0707    0.0000 C   0  0  0  0  0  0  0  0  0  0  0  0
   -2.1558   -0.8227    0.0000 C   0  0  0  0  0  0  0  0  0  0  0  0
   -2.1219   -1.6510    0.0000 C   0  0  0  0  0  0  0  0  0  0  0  0
   -2.8253   -2.0821    0.0000 C   0  0  0  0  0  0  0  0  0  0  0  0
  1  5  1  0  0  0  0
  1  8  1  0  0  0  0
  2  5  1  0  0  0  0
  2 10  1  0  0  0  0
  6  3  1  6  0  0  0
  3 11  1  0  0  0  0
  4 10  2  0  0  0  0
  5  7  1  0  0  0  0
  6  8  1  0  0  0  0
  6  9  1  0  0  0  0
  7  9  1  0  0  0  0
 10 12  1  0  0  0  0
 11 13  1  0  0  0  0
 13 14  1  0  0  0  0
 14 15  1  0  0  0  0
M  END
> <PUBCHEM_COMPOUND_ID_TYPE>
0

> <PUBCHEM_TOTAL_CHARGE>
0

> <PUBCHEM_SUBSTANCE_ID>
310941462

> <PUBCHEM_SUBSTANCE_VERSION>
1

> <PUBCHEM_EXT_DATASOURCE_NAME>
4488

> <PUBCHEM_EXT_DATASOURCE_REGID>
SCHEMBL16119489

> <PUBCHEM_SUBSTANCE_COMMENT>
InChI=1S/C11H20O4/c1-3-4-7-13-10-5-6-11(14-8-10)15-9(2)12/h10-11H,3-8H2,1-2H3/t10-,11?/m0/s1
InChIKey=JSLUROHVBSTOKH-VUWPPUDQSA-N

> <PUBCHEM_SUBSTANCE_SYNONYM>
SCHEMBL16119489

> <PUBCHEM_XREF_EXT_ID>
SCHEMBL16119489

> <PUBCHEM_EXT_DATASOURCE_URL>
https://www.surechembl.org/

> <PUBCHEM_EXT_SUBSTANCE_URL>
https://www.surechembl.org/chemical/SCHEMBL16119489

> <PUBCHEM_CID_ASSOCIATIONS>
117608284  1

> <PUBCHEM_COORDINATE_TYPE>
1
3

> <PUBCHEM_BONDANNOTATIONS>
6  3  6

$$$$
