310930263
  -OEChem-07211613022D

 12 13  0     1  0  0  0  0  0999 V2000
    1.5349    0.0000    0.0000 O   0  0  0  0  0  0  0  0  0  0  0  0
    0.0000   -0.3635    0.0000 O   0  0  0  0  0  0  0  0  0  0  0  0
    1.9793   -1.3733    0.0000 N   0  0  0  0  0  0  0  0  0  0  0  0
    0.5520   -1.0368    0.0000 N   0  0  0  0  0  0  0  0  0  0  0  0
    3.4873   -2.0601    0.0000 N   0  0  0  0  0  0  0  0  0  0  0  0
    1.3329   -0.8617    0.0000 C   0  0  0  0  0  0  0  0  0  0  0  0
    0.1885   -1.7773    0.0000 C   0  0  3  0  0  0  0  0  0  0  0  0
    1.1983   -2.1004    0.0000 C   0  0  0  0  0  0  0  0  0  0  0  0
    1.9793   -2.1812    0.0000 C   0  0  3  0  0  0  0  0  0  0  0  0
    0.5520   -2.5179    0.0000 C   0  0  0  0  0  0  0  0  0  0  0  0
    1.3329   -2.6929    0.0000 C   0  0  0  0  0  0  0  0  0  0  0  0
    2.7737   -2.5583    0.0000 C   0  0  0  0  0  0  0  0  0  0  0  0
  1  6  2  0  0  0  0
  2  4  1  0  0  0  0
  3  6  1  0  0  0  0
  3  8  1  0  0  0  0
  3  9  1  0  0  0  0
  4  6  1  0  0  0  0
  4  7  1  0  0  0  0
  5 12  3  0  0  0  0
  7  8  1  1  0  0  0
  7 10  1  0  0  0  0
  9 11  1  0  0  0  0
  9 12  1  6  0  0  0
 10 11  1  0  0  0  0
M  END
> <PUBCHEM_COMPOUND_ID_TYPE>
0

> <PUBCHEM_TOTAL_CHARGE>
0

> <PUBCHEM_SUBSTANCE_ID>
310930263

> <PUBCHEM_SUBSTANCE_VERSION>
1

> <PUBCHEM_EXT_DATASOURCE_NAME>
4488

> <PUBCHEM_EXT_DATASOURCE_REGID>
SCHEMBL16107539

> <PUBCHEM_SUBSTANCE_COMMENT>
InChI=1S/C7H9N3O2/c8-3-5-1-2-6-4-9(5)7(11)10(6)12/h5-6,12H,1-2,4H2/t5-,6-/m0/s1
InChIKey=BHTQJWJCSYUVSD-WDSKDSINSA-N

> <PUBCHEM_SUBSTANCE_SYNONYM>
SCHEMBL16107539

> <PUBCHEM_XREF_EXT_ID>
SCHEMBL16107539

> <PUBCHEM_EXT_DATASOURCE_URL>
https://www.surechembl.org/

> <PUBCHEM_EXT_SUBSTANCE_URL>
https://www.surechembl.org/chemical/SCHEMBL16107539

> <PUBCHEM_CID_ASSOCIATIONS>
117599454  1

> <PUBCHEM_COORDINATE_TYPE>
1
3

> <PUBCHEM_BONDANNOTATIONS>
7  8  5
9  12  6

$$$$
