310940500
  -OEChem-07211613022D

 28 31  0     0  0  0  0  0  0999 V2000
   -0.4206    3.3403    0.0000 F   0  0  0  0  0  0  0  0  0  0  0  0
   -2.5718   -2.0138    0.0000 O   0  0  0  0  0  0  0  0  0  0  0  0
    2.5718   -2.8388    0.0000 O   0  0  0  0  0  0  0  0  0  0  0  0
   -1.8440   -0.7844    0.0000 N   0  0  0  0  0  0  0  0  0  0  0  0
   -1.2941   -2.8226    0.0000 N   0  0  0  0  0  0  0  0  0  0  0  0
   -0.5661   -3.3403    0.0000 N   0  0  0  0  0  0  0  0  0  0  0  0
    1.3426   -2.0624    0.0000 N   0  0  0  0  0  0  0  0  0  0  0  0
   -0.3882    1.7064    0.0000 N   0  0  0  0  0  0  0  0  0  0  0  0
   -0.3236   -1.9006    0.0000 C   0  0  0  0  0  0  0  0  0  0  0  0
   -1.1485   -1.9815    0.0000 C   0  0  0  0  0  0  0  0  0  0  0  0
    0.0162   -2.6446    0.0000 C   0  0  0  0  0  0  0  0  0  0  0  0
   -1.8764   -1.5932    0.0000 C   0  0  0  0  0  0  0  0  0  0  0  0
    0.1780   -1.2536    0.0000 C   0  0  0  0  0  0  0  0  0  0  0  0
    0.8734   -2.7256    0.0000 C   0  0  0  0  0  0  0  0  0  0  0  0
   -1.8602    0.8978    0.0000 C   0  0  0  0  0  0  0  0  0  0  0  0
   -1.8602    1.7064    0.0000 C   0  0  0  0  0  0  0  0  0  0  0  0
    1.0029   -1.3183    0.0000 C   0  0  0  0  0  0  0  0  0  0  0  0
   -1.1485   -0.3640    0.0000 C   0  0  0  0  0  0  0  0  0  0  0  0
   -2.5556   -0.3478    0.0000 C   0  0  0  0  0  0  0  0  0  0  0  0
   -1.1485    0.4772    0.0000 C   0  0  0  0  0  0  0  0  0  0  0  0
   -2.5718    0.4772    0.0000 C   0  0  0  0  0  0  0  0  0  0  0  0
   -1.1485    2.1433    0.0000 C   0  0  0  0  0  0  0  0  0  0  0  0
    2.1352   -2.1271    0.0000 C   0  0  0  0  0  0  0  0  0  0  0  0
   -1.1485    2.9520    0.0000 C   0  0  0  0  0  0  0  0  0  0  0  0
   -2.5556    2.1433    0.0000 C   0  0  0  0  0  0  0  0  0  0  0  0
   -1.8602    3.3403    0.0000 C   0  0  0  0  0  0  0  0  0  0  0  0
   -2.5556    2.9520    0.0000 C   0  0  0  0  0  0  0  0  0  0  0  0
    2.3617   -1.3345    0.0000 C   0  0  0  0  0  0  0  0  0  0  0  0
  1 24  1  0  0  0  0
  2 12  2  0  0  0  0
  3 23  2  0  0  0  0
  4 12  1  0  0  0  0
  4 18  1  0  0  0  0
  4 19  1  0  0  0  0
  5  6  1  0  0  0  0
  5 10  2  0  0  0  0
  6 11  1  0  0  0  0
  7 14  1  0  0  0  0
  7 17  1  0  0  0  0
  7 23  1  0  0  0  0
  8 22  1  0  0  0  0
  9 10  1  0  0  0  0
  9 11  2  0  0  0  0
  9 13  1  0  0  0  0
 10 12  1  0  0  0  0
 11 14  1  0  0  0  0
 13 17  1  0  0  0  0
 15 16  1  0  0  0  0
 15 20  1  0  0  0  0
 15 21  1  0  0  0  0
 16 22  2  0  0  0  0
 16 25  1  0  0  0  0
 18 20  1  0  0  0  0
 19 21  1  0  0  0  0
 22 24  1  0  0  0  0
 23 28  1  0  0  0  0
 24 26  2  0  0  0  0
 25 27  2  0  0  0  0
 26 27  1  0  0  0  0
M  END
> <PUBCHEM_COMPOUND_ID_TYPE>
0

> <PUBCHEM_TOTAL_CHARGE>
0

> <PUBCHEM_SUBSTANCE_ID>
310940500

> <PUBCHEM_SUBSTANCE_VERSION>
1

> <PUBCHEM_EXT_DATASOURCE_NAME>
4488

> <PUBCHEM_EXT_DATASOURCE_REGID>
SCHEMBL16118454

> <PUBCHEM_SUBSTANCE_COMMENT>
InChI=1S/C20H24FN5O2/c1-12(27)26-10-7-15-17(11-26)23-24-19(15)20(28)25-8-5-13(6-9-25)14-3-2-4-16(21)18(14)22/h2-4,13H,5-11,22H2,1H3,(H,23,24)
InChIKey=QJOLJSFOKZKBHM-UHFFFAOYSA-N

> <PUBCHEM_SUBSTANCE_SYNONYM>
SCHEMBL16118454

> <PUBCHEM_XREF_EXT_ID>
SCHEMBL16118454

> <PUBCHEM_EXT_DATASOURCE_URL>
https://www.surechembl.org/

> <PUBCHEM_EXT_SUBSTANCE_URL>
https://www.surechembl.org/chemical/SCHEMBL16118454

> <PUBCHEM_CID_ASSOCIATIONS>
117607515  1

> <PUBCHEM_COORDINATE_TYPE>
1
3

$$$$
