310942690
  -OEChem-07211613022D

 54 60  0     1  0  0  0  0  0999 V2000
    2.5151    2.9118    0.0000 F   0  0  0  0  0  0  0  0  0  0  0  0
    1.5698   -3.6038    0.0000 F   0  0  0  0  0  0  0  0  0  0  0  0
   -0.7934    2.8105    0.0000 F   0  0  0  0  0  0  0  0  0  0  0  0
   -0.4557   -1.8990    0.0000 O   0  0  0  0  0  0  0  0  0  0  0  0
    0.6076    0.0929    0.0000 O   0  0  0  0  0  0  0  0  0  0  0  0
    4.2538   -1.8652    0.0000 O   0  0  0  0  0  0  0  0  0  0  0  0
   -1.8399    1.0719    0.0000 O   0  0  0  0  0  0  0  0  0  0  0  0
   -4.5069   -0.4811    0.0000 O   0  0  0  0  0  0  0  0  0  0  0  0
   -4.5913    2.4392    0.0000 O   0  0  0  0  0  0  0  0  0  0  0  0
    1.3672   -1.1225    0.0000 N   0  0  0  0  0  0  0  0  0  0  0  0
    2.7515    0.5823    0.0000 N   0  0  0  0  0  0  0  0  0  0  0  0
    1.4179    0.6836    0.0000 N   0  0  0  0  0  0  0  0  0  0  0  0
   -1.3335   -0.4811    0.0000 N   0  0  0  0  0  0  0  0  0  0  0  0
   -0.4895   -3.0299    0.0000 N   0  0  0  0  0  0  0  0  0  0  0  0
   -4.3213    0.9875    0.0000 N   0  0  0  0  0  0  0  0  0  0  0  0
    2.0593    0.1604    0.0000 C   0  0  0  0  0  0  0  0  0  0  0  0
    2.0593   -0.6836    0.0000 C   0  0  3  0  0  0  0  0  0  0  0  0
    1.7217    1.4770    0.0000 C   0  0  0  0  0  0  0  0  0  0  0  0
    2.8021   -1.0719    0.0000 C   0  0  0  0  0  0  0  0  0  0  0  0
    2.5657    1.3757    0.0000 C   0  0  0  0  0  0  0  0  0  0  0  0
    0.6582   -0.7680    0.0000 C   0  0  0  0  0  0  0  0  0  0  0  0
    1.2998    2.1521    0.0000 C   0  0  3  0  0  0  0  0  0  0  0  0
    1.3841   -1.9496    0.0000 C   0  0  0  0  0  0  0  0  0  0  0  0
   -0.0675   -1.1394    0.0000 C   0  0  3  0  0  0  0  0  0  0  0  0
    3.4941    0.1941    0.0000 C   0  0  0  0  0  0  0  0  0  0  0  0
    1.6711    2.8949    0.0000 C   0  0  0  0  0  0  0  0  0  0  0  0
    0.6751   -2.3886    0.0000 C   0  0  3  0  0  0  0  0  0  0  0  0
    2.8358   -1.9158    0.0000 C   0  0  0  0  0  0  0  0  0  0  0  0
    3.4941   -0.6498    0.0000 C   0  0  0  0  0  0  0  0  0  0  0  0
    0.4726    2.1521    0.0000 C   0  0  0  0  0  0  0  0  0  0  0  0
    4.1862    0.6329    0.0000 C   0  0  0  0  0  0  0  0  0  0  0  0
   -0.4895   -0.4642    0.0000 C   0  0  0  0  0  0  0  0  0  0  0  0
    0.8272   -3.1819    0.0000 C   0  0  3  0  0  0  0  0  0  0  0  0
    0.0338    2.8442    0.0000 C   0  0  0  0  0  0  0  0  0  0  0  0
    1.2492    3.6038    0.0000 C   0  0  0  0  0  0  0  0  0  0  0  0
   -0.0844   -2.3041    0.0000 C   0  0  0  0  0  0  0  0  0  0  0  0
    4.2369   -1.0381    0.0000 C   0  0  0  0  0  0  0  0  0  0  0  0
    3.5616   -2.3041    0.0000 C   0  0  0  0  0  0  0  0  0  0  0  0
    0.4220    3.5701    0.0000 C   0  0  0  0  0  0  0  0  0  0  0  0
   -2.2450    0.3291    0.0000 C   0  0  0  0  0  0  0  0  0  0  0  0
   -1.2998   -1.8990    0.0000 C   0  0  0  0  0  0  0  0  0  0  0  0
   -1.7217   -1.2069    0.0000 C   0  0  0  0  0  0  0  0  0  0  0  0
    0.1182   -3.6038    0.0000 C   0  0  0  0  0  0  0  0  0  0  0  0
    4.1694    1.4601    0.0000 C   0  0  0  0  0  0  0  0  0  0  0  0
    4.9120    0.2447    0.0000 C   0  0  0  0  0  0  0  0  0  0  0  0
   -3.0721    0.3291    0.0000 C   0  0  0  0  0  0  0  0  0  0  0  0
    4.8445    1.8821    0.0000 C   0  0  0  0  0  0  0  0  0  0  0  0
    5.6041    0.6667    0.0000 C   0  0  0  0  0  0  0  0  0  0  0  0
   -3.4941    1.0212    0.0000 C   0  0  0  0  0  0  0  0  0  0  0  0
    5.5872    1.4939    0.0000 C   0  0  0  0  0  0  0  0  0  0  0  0
   -4.8107    0.3291    0.0000 C   0  0  0  0  0  0  0  0  0  0  0  0
   -4.8445    1.6458    0.0000 C   0  0  0  0  0  0  0  0  0  0  0  0
   -5.5872    0.5486    0.0000 C   0  0  0  0  0  0  0  0  0  0  0  0
   -5.6041    1.3757    0.0000 C   0  0  0  0  0  0  0  0  0  0  0  0
  1 26  1  0  0  0  0
 33  2  1  1  0  0  0
  3 34  1  0  0  0  0
  4 24  1  0  0  0  0
  4 41  1  0  0  0  0
  5 21  2  0  0  0  0
  6 37  1  0  0  0  0
  6 38  1  0  0  0  0
  7 40  2  0  0  0  0
  8 51  2  0  0  0  0
  9 52  2  0  0  0  0
 17 10  1  1  0  0  0
 10 21  1  0  0  0  0
 10 23  1  0  0  0  0
 11 16  1  0  0  0  0
 11 20  1  0  0  0  0
 11 25  1  0  0  0  0
 12 16  2  0  0  0  0
 12 18  1  0  0  0  0
 13 32  1  0  0  0  0
 13 40  1  0  0  0  0
 13 42  1  0  0  0  0
 14 36  1  0  0  0  0
 14 43  1  0  0  0  0
 15 49  1  0  0  0  0
 15 51  1  0  0  0  0
 15 52  1  0  0  0  0
 16 17  1  0  0  0  0
 17 19  1  0  0  0  0
 18 20  2  0  0  0  0
 18 22  1  0  0  0  0
 19 28  1  0  0  0  0
 19 29  1  0  0  0  0
 24 21  1  6  0  0  0
 22 26  1  0  0  0  0
 22 30  1  0  0  0  0
 27 23  1  1  0  0  0
 24 32  1  0  0  0  0
 25 31  1  0  0  0  0
 26 35  2  0  0  0  0
 27 33  1  0  0  0  0
 27 36  1  0  0  0  0
 28 38  1  0  0  0  0
 29 37  1  0  0  0  0
 30 34  1  0  0  0  0
 31 44  2  0  0  0  0
 31 45  1  0  0  0  0
 33 43  1  0  0  0  0
 34 39  2  0  0  0  0
 35 39  1  0  0  0  0
 40 46  1  0  0  0  0
 41 42  1  0  0  0  0
 44 47  1  0  0  0  0
 45 48  2  0  0  0  0
 46 49  1  0  0  0  0
 47 50  2  0  0  0  0
 48 50  1  0  0  0  0
 51 53  1  0  0  0  0
 52 54  1  0  0  0  0
 53 54  2  0  0  0  0
M  END
> <PUBCHEM_COMPOUND_ID_TYPE>
0

> <PUBCHEM_TOTAL_CHARGE>
0

> <PUBCHEM_SUBSTANCE_ID>
310942690

> <PUBCHEM_SUBSTANCE_VERSION>
1

> <PUBCHEM_EXT_DATASOURCE_NAME>
4488

> <PUBCHEM_EXT_DATASOURCE_REGID>
SCHEMBL16120736

> <PUBCHEM_SUBSTANCE_COMMENT>
InChI=1S/C39H45F3N6O6/c40-28-6-7-30(41)29(18-28)32-23-46(21-25-4-2-1-3-5-25)38(44-32)37(26-11-15-53-16-12-26)48(22-27-19-43-20-31(27)42)39(52)33-24-45(14-17-54-33)34(49)10-13-47-35(50)8-9-36(47)51/h1-9,23,26-27,29,31,33,37,43H,10-22,24H2/t27-,29?,31-,33+,37+/m0/s1
InChIKey=MGPVYEROMVPCFT-VKTXSBHOSA-N

> <PUBCHEM_SUBSTANCE_SYNONYM>
SCHEMBL16120736

> <PUBCHEM_XREF_EXT_ID>
SCHEMBL16120736

> <PUBCHEM_EXT_DATASOURCE_URL>
https://www.surechembl.org/

> <PUBCHEM_EXT_SUBSTANCE_URL>
https://www.surechembl.org/chemical/SCHEMBL16120736

> <PUBCHEM_CID_ASSOCIATIONS>
117609218  1

> <PUBCHEM_COORDINATE_TYPE>
1
3

> <PUBCHEM_BONDANNOTATIONS>
17  10  5
33  2  5
24  21  6
27  23  5

$$$$
