310934126
  -OEChem-07211613022D

 25 27  0     0  0  0  0  0  0999 V2000
   -1.2382   -5.3793    0.0000 F   0  0  0  0  0  0  0  0  0  0  0  0
    1.6197   -5.3834    0.0000 F   0  0  0  0  0  0  0  0  0  0  0  0
    0.9094   -2.4949    0.0000 O   0  0  0  0  0  0  0  0  0  0  0  0
   -0.5195   -2.4928    0.0000 O   0  0  0  0  0  0  0  0  0  0  0  0
    1.8065    1.4343    0.0000 O   0  0  0  0  0  0  0  0  0  0  0  0
    3.4047    1.8444    0.0000 N   0  3  0  0  0  0  0  0  0  0  0  0
    3.6267    2.6390    0.0000 N   0  5  0  0  0  0  0  0  0  0  0  0
    0.9106   -1.6699    0.0000 C   0  0  0  0  0  0  0  0  0  0  0  0
    1.1407   -0.9495    0.0000 C   0  0  0  0  0  0  0  0  0  0  0  0
    0.9807   -0.1341    0.0000 C   0  0  0  0  0  0  0  0  0  0  0  0
    0.1351   -2.0602    0.0000 C   0  0  0  0  0  0  0  0  0  0  0  0
    1.6411   -2.0402    0.0000 C   0  0  0  0  0  0  0  0  0  0  0  0
    0.5004   -1.3997    0.0000 C   0  0  0  0  0  0  0  0  0  0  0  0
    1.9362   -1.4148    0.0000 C   0  0  0  0  0  0  0  0  0  0  0  0
    1.3626   -0.1549    0.0000 C   0  0  0  0  0  0  0  0  0  0  0  0
    0.1943   -2.9064    0.0000 C   0  0  0  0  0  0  0  0  0  0  0  0
    0.1932   -3.7314    0.0000 C   0  0  0  0  0  0  0  0  0  0  0  0
    2.1618    0.0502    0.0000 C   0  0  0  0  0  0  0  0  0  0  0  0
    0.9070   -4.1449    0.0000 C   0  0  0  0  0  0  0  0  0  0  0  0
   -0.5219   -4.1428    0.0000 C   0  0  0  0  0  0  0  0  0  0  0  0
   -0.5231   -4.9678    0.0000 C   0  0  0  0  0  0  0  0  0  0  0  0
    0.9058   -4.9699    0.0000 C   0  0  0  0  0  0  0  0  0  0  0  0
    2.3837    0.8448    0.0000 C   0  0  0  0  0  0  0  0  0  0  0  0
    0.1908   -5.3814    0.0000 C   0  0  0  0  0  0  0  0  0  0  0  0
    3.1828    1.0498    0.0000 C   0  0  0  0  0  0  0  0  0  0  0  0
  1 21  1  0  0  0  0
  2 22  1  0  0  0  0
  3  8  1  0  0  0  0
  3 16  1  0  0  0  0
  4 16  2  0  0  0  0
  5 23  2  0  0  0  0
  6  7  2  0  0  0  0
  6 25  2  0  0  0  0
  8 10  1  0  0  0  0
  8 11  1  0  0  0  0
  8 12  1  0  0  0  0
  9 10  1  0  0  0  0
  9 13  1  0  0  0  0
  9 14  1  0  0  0  0
  9 15  1  0  0  0  0
 11 13  1  0  0  0  0
 12 14  1  0  0  0  0
 15 18  1  0  0  0  0
 16 17  1  0  0  0  0
 17 19  2  0  0  0  0
 17 20  1  0  0  0  0
 18 23  1  0  0  0  0
 19 22  1  0  0  0  0
 20 21  2  0  0  0  0
 21 24  1  0  0  0  0
 22 24  2  0  0  0  0
 23 25  1  0  0  0  0
M  CHG  2   6   1   7  -1
M  END
> <PUBCHEM_COMPOUND_ID_TYPE>
0

> <PUBCHEM_TOTAL_CHARGE>
0

> <PUBCHEM_SUBSTANCE_ID>
310934126

> <PUBCHEM_SUBSTANCE_VERSION>
1

> <PUBCHEM_EXT_DATASOURCE_NAME>
4488

> <PUBCHEM_EXT_DATASOURCE_REGID>
SCHEMBL16111572

> <PUBCHEM_SUBSTANCE_COMMENT>
InChI=1S/C18H18F2N2O3/c19-13-7-12(8-14(20)9-13)16(24)25-18-5-3-17(11-18,4-6-18)2-1-15(23)10-22-21/h7-10H,1-6,11H2
InChIKey=WLLBJDYKYRACOO-UHFFFAOYSA-N

> <PUBCHEM_SUBSTANCE_SYNONYM>
SCHEMBL16111572

> <PUBCHEM_XREF_EXT_ID>
SCHEMBL16111572

> <PUBCHEM_EXT_DATASOURCE_URL>
https://www.surechembl.org/

> <PUBCHEM_EXT_SUBSTANCE_URL>
https://www.surechembl.org/chemical/SCHEMBL16111572

> <PUBCHEM_CID_ASSOCIATIONS>
117602403  1
117602404  2

> <PUBCHEM_COORDINATE_TYPE>
1
3

$$$$
