310935187
  -OEChem-07211613022D

 24 25  0     0  0  0  0  0  0999 V2000
    4.8495   -7.8219    0.0000 F   0  0  0  0  0  0  0  0  0  0  0  0
    4.8495   -6.3749    0.0000 F   0  0  0  0  0  0  0  0  0  0  0  0
    4.0283   -7.8219    0.0000 F   0  0  0  0  0  0  0  0  0  0  0  0
    0.8213   -1.6426    0.0000 O   0  0  0  0  0  0  0  0  0  0  0  0
    2.2684   -1.6426    0.0000 O   0  0  0  0  0  0  0  0  0  0  0  0
    1.5252   -2.8941    0.0000 N   0  0  0  0  0  0  0  0  0  0  0  0
    3.7154   -6.6877    0.0000 C   0  0  0  0  0  0  0  0  0  0  0  0
    4.4194   -7.0788    0.0000 C   0  0  0  0  0  0  0  0  0  0  0  0
    2.2684   -5.8273    0.0000 C   0  0  0  0  0  0  0  0  0  0  0  0
    1.5252   -4.5758    0.0000 C   0  0  0  0  0  0  0  0  0  0  0  0
    1.5252   -2.0728    0.0000 C   0  0  0  0  0  0  0  0  0  0  0  0
    2.9723   -7.0788    0.0000 C   0  0  0  0  0  0  0  0  0  0  0  0
    3.7154   -5.8273    0.0000 C   0  0  0  0  0  0  0  0  0  0  0  0
    1.5252   -5.3971    0.0000 C   0  0  0  0  0  0  0  0  0  0  0  0
    2.2684   -6.6486    0.0000 C   0  0  0  0  0  0  0  0  0  0  0  0
    2.9723   -5.4362    0.0000 C   0  0  0  0  0  0  0  0  0  0  0  0
    2.2684   -3.3243    0.0000 C   0  0  0  0  0  0  0  0  0  0  0  0
    0.8213   -3.3243    0.0000 C   0  0  0  0  0  0  0  0  0  0  0  0
    2.2684   -4.1456    0.0000 C   0  0  0  0  0  0  0  0  0  0  0  0
    0.8213   -4.1456    0.0000 C   0  0  0  0  0  0  0  0  0  0  0  0
    0.8213   -0.8213    0.0000 C   0  0  0  0  0  0  0  0  0  0  0  0
    1.6817   -0.8213    0.0000 C   0  0  0  0  0  0  0  0  0  0  0  0
    0.8213    0.0000    0.0000 C   0  0  0  0  0  0  0  0  0  0  0  0
    0.0000   -0.8213    0.0000 C   0  0  0  0  0  0  0  0  0  0  0  0
  1  8  1  0  0  0  0
  2  8  1  0  0  0  0
  3  8  1  0  0  0  0
  4 11  1  0  0  0  0
  4 21  1  0  0  0  0
  5 11  2  0  0  0  0
  6 11  1  0  0  0  0
  6 17  1  0  0  0  0
  6 18  1  0  0  0  0
  7  8  1  0  0  0  0
  7 12  2  0  0  0  0
  7 13  1  0  0  0  0
  9 14  1  0  0  0  0
  9 15  2  0  0  0  0
  9 16  1  0  0  0  0
 10 14  1  0  0  0  0
 10 19  1  0  0  0  0
 10 20  1  0  0  0  0
 12 15  1  0  0  0  0
 13 16  2  0  0  0  0
 17 19  1  0  0  0  0
 18 20  1  0  0  0  0
 21 22  1  0  0  0  0
 21 23  1  0  0  0  0
 21 24  1  0  0  0  0
M  END
> <PUBCHEM_COMPOUND_ID_TYPE>
0

> <PUBCHEM_TOTAL_CHARGE>
0

> <PUBCHEM_SUBSTANCE_ID>
310935187

> <PUBCHEM_SUBSTANCE_VERSION>
1

> <PUBCHEM_EXT_DATASOURCE_NAME>
4488

> <PUBCHEM_EXT_DATASOURCE_REGID>
SCHEMBL16112715

> <PUBCHEM_SUBSTANCE_COMMENT>
InChI=1S/C18H24F3NO2/c1-17(2,3)24-16(23)22-10-8-14(9-11-22)12-13-4-6-15(7-5-13)18(19,20)21/h4-7,14H,8-12H2,1-3H3
InChIKey=TWOLLKZLVOJAIP-UHFFFAOYSA-N

> <PUBCHEM_SUBSTANCE_SYNONYM>
SCHEMBL16112715

> <PUBCHEM_XREF_EXT_ID>
SCHEMBL16112715

> <PUBCHEM_EXT_DATASOURCE_URL>
https://www.surechembl.org/

> <PUBCHEM_EXT_SUBSTANCE_URL>
https://www.surechembl.org/chemical/SCHEMBL16112715

> <PUBCHEM_CID_ASSOCIATIONS>
117603268  1

> <PUBCHEM_COORDINATE_TYPE>
1
3

$$$$
