310942826
  -OEChem-07211613022D

 54 58  0     1  0  0  0  0  0999 V2000
   -5.2754    0.1881    0.0000 F   0  0  0  0  0  0  0  0  0  0  0  0
   -5.2754   -3.1407    0.0000 F   0  0  0  0  0  0  0  0  0  0  0  0
   -0.8756    1.0710    0.0000 O   0  0  0  0  0  0  0  0  0  0  0  0
   -2.5256   -1.7947    0.0000 O   0  0  0  0  0  0  0  0  0  0  0  0
    1.1650   -0.9263    0.0000 O   0  0  0  0  0  0  0  0  0  0  0  0
   -1.7006   -3.2419    0.0000 O   0  0  0  0  0  0  0  0  0  0  0  0
    2.4532   -1.5776    0.0000 O   0  0  0  0  0  0  0  0  0  0  0  0
    3.2926    2.3012    0.0000 O   0  0  0  0  0  0  0  0  0  0  0  0
    5.9990    1.1723    0.0000 O   0  0  0  0  0  0  0  0  0  0  0  0
    4.4794   -0.6803    0.0000 O   0  0  0  0  0  0  0  0  0  0  0  0
   -2.9453    0.3618    0.0000 N   0  0  0  0  0  0  0  0  0  0  0  0
   -1.2808   -1.0855    0.0000 N   0  0  0  0  0  0  0  0  0  0  0  0
   -3.0899   -0.9842    0.0000 N   0  0  0  0  0  0  0  0  0  0  0  0
    0.5717   -2.9959    0.0000 N   0  0  0  0  0  0  0  0  0  0  0  0
    2.3374   -0.1447    0.0000 N   0  0  0  0  0  0  0  0  0  0  0  0
    4.5517    1.5197    0.0000 N   0  0  0  0  0  0  0  0  0  0  0  0
   -1.7006   -0.3618    0.0000 C   0  0  3  0  0  0  0  0  0  0  0  0
   -2.5400   -0.3474    0.0000 C   0  0  0  0  0  0  0  0  0  0  0  0
   -1.2808    0.3908    0.0000 C   0  0  0  0  0  0  0  0  0  0  0  0
   -3.8570   -0.6368    0.0000 C   0  0  0  0  0  0  0  0  0  0  0  0
   -3.7558    0.1881    0.0000 C   0  0  0  0  0  0  0  0  0  0  0  0
   -4.5663   -1.0565    0.0000 C   0  0  0  0  0  0  0  0  0  0  0  0
   -1.6861   -1.8091    0.0000 C   0  0  0  0  0  0  0  0  0  0  0  0
   -0.4559   -1.0855    0.0000 C   0  0  0  0  0  0  0  0  0  0  0  0
   -2.5400    1.0855    0.0000 C   0  0  0  0  0  0  0  0  0  0  0  0
   -0.0362   -1.7947    0.0000 C   0  0  3  0  0  0  0  0  0  0  0  0
   -5.2899   -0.6513    0.0000 C   0  0  0  0  0  0  0  0  0  0  0  0
   -1.7151    1.0855    0.0000 C   0  0  0  0  0  0  0  0  0  0  0  0
   -0.4414    0.3763    0.0000 C   0  0  0  0  0  0  0  0  0  0  0  0
   -4.5807   -1.8959    0.0000 C   0  0  0  0  0  0  0  0  0  0  0  0
   -1.2954   -2.5183    0.0000 C   0  0  3  0  0  0  0  0  0  0  0  0
   -2.9453    1.7947    0.0000 C   0  0  0  0  0  0  0  0  0  0  0  0
    0.7888   -1.6789    0.0000 C   0  0  3  0  0  0  0  0  0  0  0  0
   -5.2899   -2.3012    0.0000 C   0  0  0  0  0  0  0  0  0  0  0  0
   -0.1375   -2.5906    0.0000 C   0  0  0  0  0  0  0  0  0  0  0  0
   -5.9990   -1.0565    0.0000 C   0  0  0  0  0  0  0  0  0  0  0  0
   -5.9990   -1.8959    0.0000 C   0  0  0  0  0  0  0  0  0  0  0  0
    1.1506   -2.4170    0.0000 C   0  0  0  0  0  0  0  0  0  0  0  0
   -1.2954    1.8091    0.0000 C   0  0  0  0  0  0  0  0  0  0  0  0
   -3.7847    1.8091    0.0000 C   0  0  0  0  0  0  0  0  0  0  0  0
   -2.5400    2.5183    0.0000 C   0  0  0  0  0  0  0  0  0  0  0  0
   -0.4704   -2.5183    0.0000 C   0  0  0  0  0  0  0  0  0  0  0  0
    1.9611   -0.8684    0.0000 C   0  0  0  0  0  0  0  0  0  0  0  0
   -4.1755    2.5183    0.0000 C   0  0  0  0  0  0  0  0  0  0  0  0
   -2.9597    3.2419    0.0000 C   0  0  0  0  0  0  0  0  0  0  0  0
   -3.7702    3.2419    0.0000 C   0  0  0  0  0  0  0  0  0  0  0  0
    5.3188    1.7368    0.0000 C   0  0  0  0  0  0  0  0  0  0  0  0
    4.1465    2.2288    0.0000 C   0  0  0  0  0  0  0  0  0  0  0  0
    3.1768   -0.0868    0.0000 C   0  0  0  0  0  0  0  0  0  0  0  0
    5.4346    2.5327    0.0000 C   0  0  0  0  0  0  0  0  0  0  0  0
    4.6675    2.8656    0.0000 C   0  0  0  0  0  0  0  0  0  0  0  0
    4.2623    0.7382    0.0000 C   0  0  0  0  0  0  0  0  0  0  0  0
    3.6400   -0.7382    0.0000 C   0  0  0  0  0  0  0  0  0  0  0  0
    4.7688    0.1158    0.0000 C   0  0  0  0  0  0  0  0  0  0  0  0
  1 27  1  0  0  0  0
  2 34  1  0  0  0  0
  3 19  1  0  0  0  0
  3 39  1  0  0  0  0
  4 23  2  0  0  0  0
 33  5  1  6  0  0  0
  5 43  1  0  0  0  0
 31  6  1  6  0  0  0
  7 43  2  0  0  0  0
  8 48  2  0  0  0  0
  9 47  2  0  0  0  0
 10 53  1  0  0  0  0
 10 54  1  0  0  0  0
 11 18  1  0  0  0  0
 11 21  1  0  0  0  0
 11 25  1  0  0  0  0
 17 12  1  1  0  0  0
 12 23  1  0  0  0  0
 12 24  1  0  0  0  0
 13 18  2  0  0  0  0
 13 20  1  0  0  0  0
 14 35  1  0  0  0  0
 14 38  1  0  0  0  0
 15 43  1  0  0  0  0
 15 49  1  0  0  0  0
 16 47  1  0  0  0  0
 16 48  1  0  0  0  0
 16 52  1  0  0  0  0
 17 18  1  0  0  0  0
 17 19  1  0  0  0  0
 19 28  1  0  0  0  0
 19 29  1  0  0  0  0
 20 21  2  0  0  0  0
 20 22  1  0  0  0  0
 22 27  1  0  0  0  0
 22 30  2  0  0  0  0
 23 31  1  0  0  0  0
 26 24  1  1  0  0  0
 25 32  1  0  0  0  0
 26 33  1  0  0  0  0
 26 35  1  0  0  0  0
 27 36  2  0  0  0  0
 30 34  1  0  0  0  0
 31 42  1  0  0  0  0
 32 40  2  0  0  0  0
 32 41  1  0  0  0  0
 33 38  1  0  0  0  0
 34 37  2  0  0  0  0
 36 37  1  0  0  0  0
 40 44  1  0  0  0  0
 41 45  2  0  0  0  0
 44 46  2  0  0  0  0
 45 46  1  0  0  0  0
 47 50  1  0  0  0  0
 48 51  1  0  0  0  0
 49 53  1  0  0  0  0
 50 51  2  0  0  0  0
 52 54  1  0  0  0  0
M  END
> <PUBCHEM_COMPOUND_ID_TYPE>
0

> <PUBCHEM_TOTAL_CHARGE>
0

> <PUBCHEM_SUBSTANCE_ID>
310942826

> <PUBCHEM_SUBSTANCE_VERSION>
1

> <PUBCHEM_EXT_DATASOURCE_NAME>
4488

> <PUBCHEM_EXT_DATASOURCE_REGID>
SCHEMBL16120881

> <PUBCHEM_SUBSTANCE_COMMENT>
InChI=1S/C38H46F2N6O8/c1-24(47)36(50)46(22-26-19-41-20-31(26)54-37(51)42-14-16-53-17-15-45-32(48)12-13-33(45)49)34(38(2,3)52-4)35-43-30(28-18-27(39)10-11-29(28)40)23-44(35)21-25-8-6-5-7-9-25/h5-13,18,23-24,26,31,34,41,47H,14-17,19-22H2,1-4H3,(H,42,51)/t24-,26-,31+,34-/m0/s1
InChIKey=DREAPTFKMGLNSD-LSEFULCBSA-N

> <PUBCHEM_SUBSTANCE_SYNONYM>
SCHEMBL16120881

> <PUBCHEM_XREF_EXT_ID>
SCHEMBL16120881

> <PUBCHEM_EXT_DATASOURCE_URL>
https://www.surechembl.org/

> <PUBCHEM_EXT_SUBSTANCE_URL>
https://www.surechembl.org/chemical/SCHEMBL16120881

> <PUBCHEM_CID_ASSOCIATIONS>
117609326  1

> <PUBCHEM_COORDINATE_TYPE>
1
3

> <PUBCHEM_BONDANNOTATIONS>
17  12  5
26  24  5
33  5  6
31  6  6

$$$$
