310944803
  -OEChem-07211613022D

107117  0     1  0  0  0  0  0999 V2000
    1.7601    7.4001    0.0000 S   0  0  0  0  0  0  0  0  0  0  0  0
    1.7601   -3.4753    0.0000 S   0  0  0  0  0  0  0  0  0  0  0  0
    8.6959    4.7037    0.0000 S   0  0  0  0  0  0  0  0  0  0  0  0
    8.6959   -0.7789    0.0000 S   0  0  0  0  0  0  0  0  0  0  0  0
    1.3707    6.6811    0.0000 O   0  0  0  0  0  0  0  0  0  0  0  0
    1.0561    7.7596    0.0000 O   0  0  0  0  0  0  0  0  0  0  0  0
    2.1346    8.1042    0.0000 O   0  0  0  0  0  0  0  0  0  0  0  0
    2.1946   -4.1794    0.0000 O   0  0  0  0  0  0  0  0  0  0  0  0
    1.1010   -3.9248    0.0000 O   0  0  0  0  0  0  0  0  0  0  0  0
    1.3258   -2.8162    0.0000 O   0  0  0  0  0  0  0  0  0  0  0  0
    9.2951    5.1981    0.0000 O   0  0  0  0  0  0  0  0  0  0  0  0
    8.0967    4.1794    0.0000 O   0  0  0  0  0  0  0  0  0  0  0  0
    9.2202    4.0896    0.0000 O   0  0  0  0  0  0  0  0  0  0  0  0
    8.0967   -0.2397    0.0000 O   0  0  0  0  0  0  0  0  0  0  0  0
    9.2052   -0.1648    0.0000 O   0  0  0  0  0  0  0  0  0  0  0  0
    9.3251   -1.2883    0.0000 O   0  0  0  0  0  0  0  0  0  0  0  0
    1.9100    2.6814    0.0000 O   0  0  0  0  0  0  0  0  0  0  0  0
   -9.3101   -5.2280    0.0000 O   0  0  0  0  0  0  0  0  0  0  0  0
   -0.1722   -0.9138    0.0000 O   0  0  0  0  0  0  0  0  0  0  0  0
   -4.3218   -0.9138    0.0000 O   0  0  0  0  0  0  0  0  0  0  0  0
   -3.8424   -0.2097    0.0000 O   0  0  0  0  0  0  0  0  0  0  0  0
   -2.6889    0.5243    0.0000 O   0  0  0  0  0  0  0  0  0  0  0  0
    5.9695    5.6025    0.0000 N   0  0  0  0  0  0  0  0  0  0  0  0
    5.9695   -1.6778    0.0000 N   0  0  3  0  0  0  0  0  0  0  0  0
    1.8950    1.2433    0.0000 N   0  0  0  0  0  0  0  0  0  0  0  0
   -7.6623   -5.2280    0.0000 N   0  0  0  0  0  0  0  0  0  0  0  0
   -8.0667   -7.3851    0.0000 N   0  0  0  0  0  0  0  0  0  0  0  0
   -6.8234   -6.6661    0.0000 N   0  0  0  0  0  0  0  0  0  0  0  0
   -9.3251   -6.6661    0.0000 N   0  0  0  0  0  0  0  0  0  0  0  0
   -0.1873    0.5243    0.0000 N   0  0  0  0  0  0  0  0  0  0  0  0
   -9.3251   -8.1042    0.0000 N   0  0  0  0  0  0  0  0  0  0  0  0
   -5.5800   -4.5090    0.0000 N   0  0  0  0  0  0  0  0  0  0  0  0
   -3.0934   -1.6328    0.0000 N   0  0  0  0  0  0  0  0  0  0  0  0
    4.6213    5.7524    0.0000 C   0  0  0  0  0  0  0  0  0  0  0  0
    4.7861    4.9284    0.0000 C   0  0  0  0  0  0  0  0  0  0  0  0
    4.6213   -1.8126    0.0000 C   0  0  0  0  0  0  0  0  0  0  0  0
    4.7861   -0.9887    0.0000 C   0  0  0  0  0  0  0  0  0  0  0  0
    5.3404    6.1718    0.0000 C   0  0  0  0  0  0  0  0  0  0  0  0
    5.3554   -2.2171    0.0000 C   0  0  0  0  0  0  0  0  0  0  0  0
    5.6250    4.8535    0.0000 C   0  0  0  0  0  0  0  0  0  0  0  0
    5.6250   -0.9138    0.0000 C   0  0  3  0  0  0  0  0  0  0  0  0
    3.9023    6.1718    0.0000 C   0  0  0  0  0  0  0  0  0  0  0  0
    3.9173   -2.2171    0.0000 C   0  0  0  0  0  0  0  0  0  0  0  0
    3.9173    6.9957    0.0000 C   0  0  0  0  0  0  0  0  0  0  0  0
    3.9023   -3.0410    0.0000 C   0  0  0  0  0  0  0  0  0  0  0  0
    5.3404    6.9957    0.0000 C   0  0  0  0  0  0  0  0  0  0  0  0
    5.3404   -3.0559    0.0000 C   0  0  0  0  0  0  0  0  0  0  0  0
    6.0444    4.1195    0.0000 C   0  0  0  0  0  0  0  0  0  0  0  0
    6.0444   -0.1798    0.0000 C   0  0  0  0  0  0  0  0  0  0  0  0
    4.6213    7.4001    0.0000 C   0  0  0  0  0  0  0  0  0  0  0  0
    4.6363   -3.4604    0.0000 C   0  0  0  0  0  0  0  0  0  0  0  0
    3.1983    5.7524    0.0000 C   0  0  0  0  0  0  0  0  0  0  0  0
    3.1983   -1.8276    0.0000 C   0  0  0  0  0  0  0  0  0  0  0  0
    4.6513    4.1045    0.0000 C   0  0  0  0  0  0  0  0  0  0  0  0
    4.0071    4.6588    0.0000 C   0  0  0  0  0  0  0  0  0  0  0  0
    6.7934    5.7673    0.0000 C   0  0  0  0  0  0  0  0  0  0  0  0
    4.0071   -0.7490    0.0000 C   0  0  0  0  0  0  0  0  0  0  0  0
    4.6363   -0.1648    0.0000 C   0  0  0  0  0  0  0  0  0  0  0  0
    6.7784   -1.8426    0.0000 C   0  0  0  0  0  0  0  0  0  0  0  0
    3.1833    7.4001    0.0000 C   0  0  0  0  0  0  0  0  0  0  0  0
    3.1983   -3.4604    0.0000 C   0  0  0  0  0  0  0  0  0  0  0  0
    2.4792    6.9957    0.0000 C   0  0  0  0  0  0  0  0  0  0  0  0
    2.4642   -3.0559    0.0000 C   0  0  0  0  0  0  0  0  0  0  0  0
    2.4792    6.1568    0.0000 C   0  0  0  0  0  0  0  0  0  0  0  0
    2.4942   -2.2171    0.0000 C   0  0  0  0  0  0  0  0  0  0  0  0
    5.6400    3.3855    0.0000 C   0  0  0  0  0  0  0  0  0  0  0  0
    5.6400    0.5093    0.0000 C   0  0  0  0  0  0  0  0  0  0  0  0
    6.0444    2.6814    0.0000 C   0  0  0  0  0  0  0  0  0  0  0  0
    5.6250    1.9624    0.0000 C   0  0  0  0  0  0  0  0  0  0  0  0
    6.0444    1.2583    0.0000 C   0  0  0  0  0  0  0  0  0  0  0  0
    7.3627    5.1681    0.0000 C   0  0  0  0  0  0  0  0  0  0  0  0
    7.3327   -1.2283    0.0000 C   0  0  0  0  0  0  0  0  0  0  0  0
    4.7861    1.9773    0.0000 C   0  0  0  0  0  0  0  0  0  0  0  0
    8.1417    5.3329    0.0000 C   0  0  3  0  0  0  0  0  0  0  0  0
    6.8833    2.6665    0.0000 C   0  0  0  0  0  0  0  0  0  0  0  0
    6.8683    1.2583    0.0000 C   0  0  0  0  0  0  0  0  0  0  0  0
    8.1417   -1.3931    0.0000 C   0  0  3  0  0  0  0  0  0  0  0  0
    7.2878    1.9624    0.0000 C   0  0  0  0  0  0  0  0  0  0  0  0
    4.3816    1.2583    0.0000 C   0  0  0  0  0  0  0  0  0  0  0  0
    4.3816    2.6814    0.0000 C   0  0  0  0  0  0  0  0  0  0  0  0
    8.3963    6.1418    0.0000 C   0  0  0  0  0  0  0  0  0  0  0  0
    8.4263   -2.2021    0.0000 C   0  0  0  0  0  0  0  0  0  0  0  0
    3.5578    1.2583    0.0000 C   0  0  0  0  0  0  0  0  0  0  0  0
    3.5578    2.6814    0.0000 C   0  0  0  0  0  0  0  0  0  0  0  0
    3.1383    1.9624    0.0000 C   0  0  0  0  0  0  0  0  0  0  0  0
    2.3144    1.9624    0.0000 C   0  0  0  0  0  0  0  0  0  0  0  0
    1.0711    1.2433    0.0000 C   0  0  0  0  0  0  0  0  0  0  0  0
    0.6516    0.5243    0.0000 C   0  0  0  0  0  0  0  0  0  0  0  0
   -8.0817   -5.9471    0.0000 C   0  0  0  0  0  0  0  0  0  0  0  0
   -7.6623   -6.6511    0.0000 C   0  0  0  0  0  0  0  0  0  0  0  0
   -8.8907   -5.9471    0.0000 C   0  0  0  0  0  0  0  0  0  0  0  0
   -6.8384   -5.2280    0.0000 C   0  0  0  0  0  0  0  0  0  0  0  0
   -8.9056   -7.3702    0.0000 C   0  0  0  0  0  0  0  0  0  0  0  0
   -6.4189   -5.9321    0.0000 C   0  0  0  0  0  0  0  0  0  0  0  0
   -6.4039   -4.5090    0.0000 C   0  0  0  0  0  0  0  0  0  0  0  0
   -0.6067   -0.1798    0.0000 C   0  0  0  0  0  0  0  0  0  0  0  0
   -5.1756   -3.7750    0.0000 C   0  0  0  0  0  0  0  0  0  0  0  0
   -4.3517   -2.3518    0.0000 C   0  0  0  0  0  0  0  0  0  0  0  0
   -1.4156   -0.1947    0.0000 C   0  0  0  0  0  0  0  0  0  0  0  0
   -4.3367   -3.7750    0.0000 C   0  0  0  0  0  0  0  0  0  0  0  0
   -5.5651   -3.0859    0.0000 C   0  0  0  0  0  0  0  0  0  0  0  0
   -3.9323   -3.0709    0.0000 C   0  0  0  0  0  0  0  0  0  0  0  0
   -5.1606   -2.3518    0.0000 C   0  0  0  0  0  0  0  0  0  0  0  0
   -3.9173   -1.6328    0.0000 C   0  0  0  0  0  0  0  0  0  0  0  0
   -2.6739   -0.9138    0.0000 C   0  0  3  0  0  0  0  0  0  0  0  0
   -1.8500   -0.9138    0.0000 C   0  0  0  0  0  0  0  0  0  0  0  0
   -3.0784   -0.1947    0.0000 C   0  0  0  0  0  0  0  0  0  0  0  0
  1  5  2  0  0  0  0
  1  6  2  0  0  0  0
  1  7  1  0  0  0  0
  1 62  1  0  0  0  0
  2  8  2  0  0  0  0
  2  9  2  0  0  0  0
  2 10  1  0  0  0  0
  2 63  1  0  0  0  0
  3 11  2  0  0  0  0
  3 12  2  0  0  0  0
  3 13  1  0  0  0  0
  3 74  1  0  0  0  0
  4 14  2  0  0  0  0
  4 15  2  0  0  0  0
  4 16  1  0  0  0  0
  4 77  1  0  0  0  0
 17 86  2  0  0  0  0
 18 91  2  0  0  0  0
 19 96  2  0  0  0  0
 20104  2  0  0  0  0
 21107  2  0  0  0  0
 22107  1  0  0  0  0
 23 38  1  0  0  0  0
 23 40  1  0  0  0  0
 23 56  1  0  0  0  0
 24 39  1  0  0  0  0
 24 41  1  0  0  0  0
 24 59  1  0  0  0  0
 25 86  1  0  0  0  0
 25 87  1  0  0  0  0
 26 89  2  0  0  0  0
 26 92  1  0  0  0  0
 27 90  1  0  0  0  0
 27 93  2  0  0  0  0
 28 90  2  0  0  0  0
 28 94  1  0  0  0  0
 29 91  1  0  0  0  0
 29 93  1  0  0  0  0
 30 88  1  0  0  0  0
 30 96  1  0  0  0  0
 31 93  1  0  0  0  0
 32 95  1  0  0  0  0
 32 97  1  0  0  0  0
 33104  1  0  0  0  0
105 33  1  6  0  0  0
 34 35  1  0  0  0  0
 34 38  2  0  0  0  0
 34 42  1  0  0  0  0
 35 40  1  0  0  0  0
 35 54  1  0  0  0  0
 35 55  1  0  0  0  0
 36 37  1  0  0  0  0
 36 39  2  0  0  0  0
 36 43  1  0  0  0  0
 37 41  1  0  0  0  0
 37 57  1  0  0  0  0
 37 58  1  0  0  0  0
 38 46  1  0  0  0  0
 39 47  1  0  0  0  0
 40 48  2  0  0  0  0
 41 49  1  0  0  0  0
 42 44  2  0  0  0  0
 42 52  1  0  0  0  0
 43 45  2  0  0  0  0
 43 53  1  0  0  0  0
 44 50  1  0  0  0  0
 44 60  1  0  0  0  0
 45 51  1  0  0  0  0
 45 61  1  0  0  0  0
 46 50  2  0  0  0  0
 47 51  2  0  0  0  0
 48 66  1  0  0  0  0
 49 67  2  0  0  0  0
 52 64  2  0  0  0  0
 53 65  2  0  0  0  0
 56 71  1  0  0  0  0
 59 72  1  0  0  0  0
 60 62  2  0  0  0  0
 61 63  2  0  0  0  0
 62 64  1  0  0  0  0
 63 65  1  0  0  0  0
 66 68  2  0  0  0  0
 67 70  1  0  0  0  0
 68 69  1  0  0  0  0
 68 75  1  0  0  0  0
 69 70  2  0  0  0  0
 69 73  1  0  0  0  0
 70 76  1  0  0  0  0
 71 74  1  0  0  0  0
 72 77  1  0  0  0  0
 73 79  2  0  0  0  0
 73 80  1  0  0  0  0
 74 81  1  0  0  0  0
 75 78  1  0  0  0  0
 76 78  1  0  0  0  0
 77 82  1  0  0  0  0
 79 83  1  0  0  0  0
 80 84  2  0  0  0  0
 83 85  2  0  0  0  0
 84 85  1  0  0  0  0
 85 86  1  0  0  0  0
 87 88  1  0  0  0  0
 89 90  1  0  0  0  0
 89 91  1  0  0  0  0
 92 94  2  0  0  0  0
 92 95  1  0  0  0  0
 96 99  1  0  0  0  0
 97100  2  0  0  0  0
 97101  1  0  0  0  0
 98102  2  0  0  0  0
 98103  1  0  0  0  0
 98104  1  0  0  0  0
 99106  1  0  0  0  0
100102  1  0  0  0  0
101103  2  0  0  0  0
105106  1  0  0  0  0
105107  1  0  0  0  0
M  END
> <PUBCHEM_COMPOUND_ID_TYPE>
0

> <PUBCHEM_TOTAL_CHARGE>
0

> <PUBCHEM_SUBSTANCE_ID>
310944803

> <PUBCHEM_SUBSTANCE_VERSION>
1

> <PUBCHEM_EXT_DATASOURCE_NAME>
4488

> <PUBCHEM_EXT_DATASOURCE_REGID>
SCHEMBL16122882

> <PUBCHEM_SUBSTANCE_COMMENT>
InChI=1S/C74H81N11O18S4/c1-42(104(92,93)94)32-36-84-58-27-16-49-38-53(106(98,99)100)22-24-55(49)64(58)73(3,4)60(84)29-18-44-8-7-9-45(19-30-61-74(5,6)65-56-25-23-54(107(101,102)103)39-50(56)17-28-59(65)85(61)37-33-43(2)105(95,96)97)63(44)46-10-12-47(13-11-46)68(87)77-35-34-76-62(86)31-26-57(71(90)91)81-69(88)48-14-20-51(21-15-48)78-40-52-41-79-67-66(80-52)70(89)83-72(75)82-67/h10-25,27-30,38-39,41-43,57,60,78H,7-9,26,31-37,40H2,1-6H3,(H,76,86)(H,77,87)(H,81,88)(H,90,91)(H,92,93,94)(H,95,96,97)(H,98,99,100)(H,101,102,103)(H3,75,79,82,83,89)/b29-18+,45-19+,61-30+/t42?,43?,57-,60?/m0/s1
InChIKey=YHRXMYMSNICDIQ-ZWVVWTDXSA-N

> <PUBCHEM_SUBSTANCE_SYNONYM>
SCHEMBL16122882

> <PUBCHEM_XREF_EXT_ID>
SCHEMBL16122882

> <PUBCHEM_EXT_DATASOURCE_URL>
https://www.surechembl.org/

> <PUBCHEM_EXT_SUBSTANCE_URL>
https://www.surechembl.org/chemical/SCHEMBL16122882

> <PUBCHEM_CID_ASSOCIATIONS>
117611015  1

> <PUBCHEM_COORDINATE_TYPE>
1
3

> <PUBCHEM_BONDANNOTATIONS>
105  33  6

$$$$
