310947761
  -OEChem-07211613022D

 25 26  0     1  0  0  0  0  0999 V2000
    3.3314   -1.8521    0.0000 S   0  0  0  0  0  0  0  0  0  0  0  0
    2.4985   -1.8521    0.0000 O   0  0  0  0  0  0  0  0  0  0  0  0
   -0.3729   -1.8521    0.0000 O   0  0  0  0  0  0  0  0  0  0  0  0
   -0.3729    1.4668    0.0000 O   0  0  0  0  0  0  0  0  0  0  0  0
   -1.8024    0.6339    0.0000 O   0  0  0  0  0  0  0  0  0  0  0  0
    3.7415   -2.5607    0.0000 O   0  0  0  0  0  0  0  0  0  0  0  0
    3.7415   -1.1312    0.0000 O   0  0  0  0  0  0  0  0  0  0  0  0
    4.1517   -1.8521    0.0000 O   0  0  0  0  0  0  0  0  0  0  0  0
    0.3729   -0.6091    0.0000 N   0  0  0  0  0  0  0  0  0  0  0  0
    1.8024   -1.4295    0.0000 N   0  0  0  0  0  0  0  0  0  0  0  0
   -1.0690    0.2237    0.0000 N   0  0  0  0  0  0  0  0  0  0  0  0
   -3.8037    0.0497    0.0000 N   0  0  0  0  0  0  0  0  0  0  0  0
    0.3729    0.2237    0.0000 C   0  0  3  0  0  0  0  0  0  0  0  0
    0.3853   -1.4046    0.0000 C   0  0  0  0  0  0  0  0  0  0  0  0
   -0.3977    0.6091    0.0000 C   0  0  0  0  0  0  0  0  0  0  0  0
    1.0814   -1.0193    0.0000 C   0  0  0  0  0  0  0  0  0  0  0  0
    1.0690    0.6339    0.0000 C   0  0  0  0  0  0  0  0  0  0  0  0
    1.7775   -0.6215    0.0000 C   0  0  0  0  0  0  0  0  0  0  0  0
    1.7899    0.2237    0.0000 C   0  0  0  0  0  0  0  0  0  0  0  0
   -3.4432    1.4419    0.0000 C   0  0  0  0  0  0  0  0  0  0  0  0
   -3.2319    0.6464    0.0000 C   0  0  3  0  0  0  0  0  0  0  0  0
   -2.4985    0.2237    0.0000 C   0  0  0  0  0  0  0  0  0  0  0  0
   -4.1517    1.8521    0.0000 C   0  0  0  0  0  0  0  0  0  0  0  0
   -3.0330    2.1629    0.0000 C   0  0  0  0  0  0  0  0  0  0  0  0
   -3.7291    2.5607    0.0000 C   0  0  0  0  0  0  0  0  0  0  0  0
  1  2  1  0  0  0  0
  1  6  2  0  0  0  0
  1  7  2  0  0  0  0
  1  8  1  0  0  0  0
  2 10  1  0  0  0  0
  3 14  2  0  0  0  0
  4 15  2  0  0  0  0
  5 11  1  0  0  0  0
  5 22  1  0  0  0  0
  9 13  1  0  0  0  0
  9 14  1  0  0  0  0
  9 16  1  0  0  0  0
 10 14  1  0  0  0  0
 11 15  1  0  0  0  0
 12 21  1  0  0  0  0
 13 15  1  6  0  0  0
 13 17  1  0  0  0  0
 16 18  1  0  0  0  0
 17 19  1  0  0  0  0
 18 19  1  0  0  0  0
 20 21  1  0  0  0  0
 20 23  1  0  0  0  0
 20 24  1  0  0  0  0
 21 22  1  0  0  0  0
 23 25  1  0  0  0  0
 24 25  1  0  0  0  0
M  END
> <PUBCHEM_COMPOUND_ID_TYPE>
0

> <PUBCHEM_TOTAL_CHARGE>
0

> <PUBCHEM_SUBSTANCE_ID>
310947761

> <PUBCHEM_SUBSTANCE_VERSION>
1

> <PUBCHEM_EXT_DATASOURCE_NAME>
4488

> <PUBCHEM_EXT_DATASOURCE_REGID>
SCHEMBL16125933

> <PUBCHEM_SUBSTANCE_COMMENT>
InChI=1S/C13H24N4O7S/c14-10(9-4-3-5-9)8-23-15-12(18)11-6-1-2-7-17(11)13(19)16-24-25(20,21)22/h9-11H,1-8,14H2,(H,15,18)(H,16,19)(H,20,21,22)/t10?,11-/m0/s1
InChIKey=DCTUQBHPHAAJFX-DTIOYNMSSA-N

> <PUBCHEM_SUBSTANCE_SYNONYM>
SCHEMBL16125933

> <PUBCHEM_XREF_EXT_ID>
SCHEMBL16125933

> <PUBCHEM_EXT_DATASOURCE_URL>
https://www.surechembl.org/

> <PUBCHEM_EXT_SUBSTANCE_URL>
https://www.surechembl.org/chemical/SCHEMBL16125933

> <PUBCHEM_CID_ASSOCIATIONS>
117613436  1

> <PUBCHEM_COORDINATE_TYPE>
1
3

> <PUBCHEM_BONDANNOTATIONS>
13  15  6

$$$$
