310939258
  -OEChem-07211613022D

 28 30  0     1  0  0  0  0  0999 V2000
    0.4369    0.8250    0.0000 Cl  0  0  0  0  0  0  0  0  0  0  0  0
   -0.9920   -1.6500    0.0000 F   0  0  0  0  0  0  0  0  0  0  0  0
    0.4369   -0.8250    0.0000 O   0  0  0  0  0  0  0  0  0  0  0  0
    3.3650   -0.6674    0.0000 O   0  0  0  0  0  0  0  0  0  0  0  0
   -1.7065    2.0625    0.0000 O   0  0  0  0  0  0  0  0  0  0  0  0
   -3.1354   -0.4125    0.0000 N   0  0  0  0  0  0  0  0  0  0  0  0
   -3.1354    2.0625    0.0000 N   0  0  0  0  0  0  0  0  0  0  0  0
   -0.2775   -0.4125    0.0000 C   0  0  0  0  0  0  0  0  0  0  0  0
   -0.9920   -0.8250    0.0000 C   0  0  0  0  0  0  0  0  0  0  0  0
   -1.7065   -0.4125    0.0000 C   0  0  0  0  0  0  0  0  0  0  0  0
   -0.2775    0.4125    0.0000 C   0  0  0  0  0  0  0  0  0  0  0  0
    1.1514   -0.4125    0.0000 C   0  0  0  0  0  0  0  0  0  0  0  0
   -2.4209   -0.8250    0.0000 C   0  0  3  0  0  0  0  0  0  0  0  0
    2.5803   -0.4125    0.0000 C   0  0  0  0  0  0  0  0  0  0  0  0
    2.5803    0.4125    0.0000 C   0  0  0  0  0  0  0  0  0  0  0  0
   -1.7065    0.4125    0.0000 C   0  0  0  0  0  0  0  0  0  0  0  0
    1.8659   -0.8250    0.0000 C   0  0  0  0  0  0  0  0  0  0  0  0
   -0.9920    0.8250    0.0000 C   0  0  0  0  0  0  0  0  0  0  0  0
    1.1514    0.4125    0.0000 C   0  0  0  0  0  0  0  0  0  0  0  0
    1.8659    0.8250    0.0000 C   0  0  0  0  0  0  0  0  0  0  0  0
    3.3650    0.6674    0.0000 C   0  0  0  0  0  0  0  0  0  0  0  0
   -2.4209   -1.6500    0.0000 C   0  0  0  0  0  0  0  0  0  0  0  0
    3.8499    0.0000    0.0000 C   0  0  0  0  0  0  0  0  0  0  0  0
   -3.1354    0.4125    0.0000 C   0  0  3  0  0  0  0  0  0  0  0  0
   -2.4209    0.8250    0.0000 C   0  0  0  0  0  0  0  0  0  0  0  0
   -3.1354   -2.0625    0.0000 C   0  0  0  0  0  0  0  0  0  0  0  0
   -3.8499    0.8250    0.0000 C   0  0  0  0  0  0  0  0  0  0  0  0
   -2.4209    1.6500    0.0000 C   0  0  0  0  0  0  0  0  0  0  0  0
  1 11  1  0  0  0  0
  2  9  1  0  0  0  0
  3  8  1  0  0  0  0
  3 12  1  0  0  0  0
  4 14  1  0  0  0  0
  4 23  1  0  0  0  0
  5 28  2  0  0  0  0
 13  6  1  1  0  0  0
  6 24  1  0  0  0  0
  7 28  1  0  0  0  0
  8  9  1  0  0  0  0
  8 11  2  0  0  0  0
  9 10  2  0  0  0  0
 10 13  1  0  0  0  0
 10 16  1  0  0  0  0
 11 18  1  0  0  0  0
 12 17  1  0  0  0  0
 12 19  2  0  0  0  0
 13 22  1  0  0  0  0
 14 15  1  0  0  0  0
 14 17  2  0  0  0  0
 15 20  2  0  0  0  0
 15 21  1  0  0  0  0
 16 18  2  0  0  0  0
 19 20  1  0  0  0  0
 21 23  1  0  0  0  0
 22 26  1  0  0  0  0
 24 25  1  0  0  0  0
 24 27  1  1  0  0  0
 25 28  1  0  0  0  0
M  END
> <PUBCHEM_COMPOUND_ID_TYPE>
0

> <PUBCHEM_TOTAL_CHARGE>
0

> <PUBCHEM_SUBSTANCE_ID>
310939258

> <PUBCHEM_SUBSTANCE_VERSION>
1

> <PUBCHEM_EXT_DATASOURCE_NAME>
4488

> <PUBCHEM_EXT_DATASOURCE_REGID>
SCHEMBL16117179

> <PUBCHEM_SUBSTANCE_COMMENT>
InChI=1S/C21H24ClFN2O3/c1-3-17(25-12(2)10-19(24)26)15-6-7-16(22)21(20(15)23)28-14-5-4-13-8-9-27-18(13)11-14/h4-7,11-12,17,25H,3,8-10H2,1-2H3,(H2,24,26)/t12-,17+/m0/s1
InChIKey=XETMGUNQYBDLLE-YVEFUNNKSA-N

> <PUBCHEM_SUBSTANCE_SYNONYM>
SCHEMBL16117179

> <PUBCHEM_XREF_EXT_ID>
SCHEMBL16117179

> <PUBCHEM_EXT_DATASOURCE_URL>
https://www.surechembl.org/

> <PUBCHEM_EXT_SUBSTANCE_URL>
https://www.surechembl.org/chemical/SCHEMBL16117179

> <PUBCHEM_CID_ASSOCIATIONS>
117606605  1

> <PUBCHEM_COORDINATE_TYPE>
1
3

> <PUBCHEM_BONDANNOTATIONS>
24  27  5
13  6  5

$$$$
