310940041
  -OEChem-07211613022D

 12 13  0     0  0  0  0  0  0999 V2000
    0.4049    1.6221    0.0000 Cl  0  0  0  0  0  0  0  0  0  0  0  0
    3.2628    1.6221    0.0000 O   0  0  0  0  0  0  0  0  0  0  0  0
    3.2628    3.2721    0.0000 N   0  0  0  0  0  0  0  0  0  0  0  0
    1.1194    2.8596    0.0000 C   0  0  0  0  0  0  0  0  0  0  0  0
    0.4049    3.2721    0.0000 C   0  0  0  0  0  0  0  0  0  0  0  0
    1.1194    2.0346    0.0000 C   0  0  0  0  0  0  0  0  0  0  0  0
    2.5483    2.8596    0.0000 C   0  0  0  0  0  0  0  0  0  0  0  0
    2.5483    2.0346    0.0000 C   0  0  0  0  0  0  0  0  0  0  0  0
    1.8338    3.2721    0.0000 C   0  0  0  0  0  0  0  0  0  0  0  0
    1.8338    1.6221    0.0000 C   0  0  0  0  0  0  0  0  0  0  0  0
   -0.0076    3.9866    0.0000 C   0  0  0  0  0  0  0  0  0  0  0  0
   -0.4201    3.2721    0.0000 C   0  0  0  0  0  0  0  0  0  0  0  0
  1  6  1  0  0  0  0
  2  8  1  0  0  0  0
  3  7  1  0  0  0  0
  4  5  1  0  0  0  0
  4  6  2  0  0  0  0
  4  9  1  0  0  0  0
  5 11  1  0  0  0  0
  5 12  1  0  0  0  0
  6 10  1  0  0  0  0
  7  8  1  0  0  0  0
  7  9  2  0  0  0  0
  8 10  2  0  0  0  0
 11 12  1  0  0  0  0
M  END
> <PUBCHEM_COMPOUND_ID_TYPE>
0

> <PUBCHEM_TOTAL_CHARGE>
0

> <PUBCHEM_SUBSTANCE_ID>
310940041

> <PUBCHEM_SUBSTANCE_VERSION>
1

> <PUBCHEM_EXT_DATASOURCE_NAME>
4488

> <PUBCHEM_EXT_DATASOURCE_REGID>
SCHEMBL16117971

> <PUBCHEM_SUBSTANCE_COMMENT>
InChI=1S/C9H10ClNO/c10-7-4-9(12)8(11)3-6(7)5-1-2-5/h3-5,12H,1-2,11H2
InChIKey=SUQCUKRPWZQYSO-UHFFFAOYSA-N

> <PUBCHEM_SUBSTANCE_SYNONYM>
SCHEMBL16117971

> <PUBCHEM_XREF_EXT_ID>
SCHEMBL16117971

> <PUBCHEM_EXT_DATASOURCE_URL>
https://www.surechembl.org/

> <PUBCHEM_EXT_SUBSTANCE_URL>
https://www.surechembl.org/chemical/SCHEMBL16117971

> <PUBCHEM_CID_ASSOCIATIONS>
117607191  1

> <PUBCHEM_COORDINATE_TYPE>
1
3

$$$$
