310939068
  -OEChem-07211613022D

 22 24  0     0  0  0  0  0  0999 V2000
   -1.8723   -1.7053    0.0000 O   0  0  0  0  0  0  0  0  0  0  0  0
   -3.3012    0.7697    0.0000 O   0  0  0  0  0  0  0  0  0  0  0  0
    0.3413   -0.6253    0.0000 N   0  0  0  0  0  0  0  0  0  0  0  0
   -0.4433   -1.7053    0.0000 N   0  0  0  0  0  0  0  0  0  0  0  0
    0.3413   -1.9602    0.0000 N   0  0  0  0  0  0  0  0  0  0  0  0
    2.8887   -2.0072    0.0000 N   0  0  0  0  0  0  0  0  0  0  0  0
   -1.1578   -0.4678    0.0000 C   0  0  0  0  0  0  0  0  0  0  0  0
   -0.4433   -0.8803    0.0000 C   0  0  0  0  0  0  0  0  0  0  0  0
   -1.8723   -0.8803    0.0000 C   0  0  0  0  0  0  0  0  0  0  0  0
    0.8262   -1.2928    0.0000 C   0  0  0  0  0  0  0  0  0  0  0  0
   -1.8723    0.7697    0.0000 C   0  0  0  0  0  0  0  0  0  0  0  0
   -1.1578    0.3572    0.0000 C   0  0  0  0  0  0  0  0  0  0  0  0
   -2.5867    0.3572    0.0000 C   0  0  0  0  0  0  0  0  0  0  0  0
    1.6512   -1.2928    0.0000 C   0  0  0  0  0  0  0  0  0  0  0  0
   -2.5867   -0.4678    0.0000 C   0  0  0  0  0  0  0  0  0  0  0  0
   -1.8723    1.5947    0.0000 C   0  0  0  0  0  0  0  0  0  0  0  0
    2.0637   -2.0072    0.0000 C   0  0  0  0  0  0  0  0  0  0  0  0
    2.0637   -0.5783    0.0000 C   0  0  0  0  0  0  0  0  0  0  0  0
    2.8887   -0.5783    0.0000 C   0  0  0  0  0  0  0  0  0  0  0  0
   -2.5867    2.0072    0.0000 C   0  0  0  0  0  0  0  0  0  0  0  0
   -1.1578    2.0072    0.0000 C   0  0  0  0  0  0  0  0  0  0  0  0
    3.3012   -1.2928    0.0000 C   0  0  0  0  0  0  0  0  0  0  0  0
  1  9  1  0  0  0  0
  2 13  1  0  0  0  0
  3  8  1  0  0  0  0
  3 10  2  0  0  0  0
  4  5  1  0  0  0  0
  4  8  2  0  0  0  0
  5 10  1  0  0  0  0
  6 17  1  0  0  0  0
  6 22  2  0  0  0  0
  7  8  1  0  0  0  0
  7  9  2  0  0  0  0
  7 12  1  0  0  0  0
  9 15  1  0  0  0  0
 10 14  1  0  0  0  0
 11 12  2  0  0  0  0
 11 13  1  0  0  0  0
 11 16  1  0  0  0  0
 13 15  2  0  0  0  0
 14 17  2  0  0  0  0
 14 18  1  0  0  0  0
 16 20  1  0  0  0  0
 16 21  1  0  0  0  0
 18 19  2  0  0  0  0
 19 22  1  0  0  0  0
M  END
> <PUBCHEM_COMPOUND_ID_TYPE>
0

> <PUBCHEM_TOTAL_CHARGE>
0

> <PUBCHEM_SUBSTANCE_ID>
310939068

> <PUBCHEM_SUBSTANCE_VERSION>
1

> <PUBCHEM_EXT_DATASOURCE_NAME>
4488

> <PUBCHEM_EXT_DATASOURCE_REGID>
SCHEMBL16116987

> <PUBCHEM_SUBSTANCE_COMMENT>
InChI=1S/C16H16N4O2/c1-9(2)11-6-12(14(22)7-13(11)21)16-18-15(19-20-16)10-4-3-5-17-8-10/h3-9,21-22H,1-2H3,(H,18,19,20)
InChIKey=FTAYAMBJTQBGMI-UHFFFAOYSA-N

> <PUBCHEM_SUBSTANCE_SYNONYM>
SCHEMBL16116987

> <PUBCHEM_XREF_EXT_ID>
SCHEMBL16116987

> <PUBCHEM_EXT_DATASOURCE_URL>
https://www.surechembl.org/

> <PUBCHEM_EXT_SUBSTANCE_URL>
https://www.surechembl.org/chemical/SCHEMBL16116987

> <PUBCHEM_CID_ASSOCIATIONS>
117606431  1

> <PUBCHEM_COORDINATE_TYPE>
1
3

$$$$
