310937997
  -OEChem-07211613022D

 20 21  0     1  0  0  0  0  0999 V2000
    1.0164    2.7132    0.0000 F   0  0  0  0  0  0  0  0  0  0  0  0
    1.8414    1.8882    0.0000 F   0  0  0  0  0  0  0  0  0  0  0  0
    0.1914    1.8882    0.0000 F   0  0  0  0  0  0  0  0  0  0  0  0
    0.3020    0.6507    0.0000 O   0  0  0  0  0  0  0  0  0  0  0  0
   -1.8414    1.8882    0.0000 N   0  0  0  0  0  0  0  0  0  0  0  0
    2.4454    0.2382    0.0000 N   0  0  0  0  0  0  0  0  0  0  0  0
   -1.1270    3.9507    0.0000 N   0  0  0  0  0  0  0  0  0  0  0  0
    1.0164    1.0632    0.0000 C   0  0  3  0  0  0  0  0  0  0  0  0
    1.0164    1.8882    0.0000 C   0  0  0  0  0  0  0  0  0  0  0  0
   -0.4125    1.0632    0.0000 C   0  0  0  0  0  0  0  0  0  0  0  0
   -1.1270    0.6507    0.0000 C   0  0  0  0  0  0  0  0  0  0  0  0
   -1.1270   -0.1743    0.0000 C   0  0  0  0  0  0  0  0  0  0  0  0
   -0.4125    1.8882    0.0000 C   0  0  0  0  0  0  0  0  0  0  0  0
    1.7309    0.6507    0.0000 C   0  0  0  0  0  0  0  0  0  0  0  0
   -1.8414    1.0632    0.0000 C   0  0  0  0  0  0  0  0  0  0  0  0
   -1.1270    2.3007    0.0000 C   0  0  0  0  0  0  0  0  0  0  0  0
   -1.5395   -0.8888    0.0000 C   0  0  0  0  0  0  0  0  0  0  0  0
   -0.7145   -0.8888    0.0000 C   0  0  0  0  0  0  0  0  0  0  0  0
   -1.1270    3.1257    0.0000 C   0  0  0  0  0  0  0  0  0  0  0  0
    1.7309    1.4757    0.0000 H   0  0  0  0  0  0  0  0  0  0  0  0
  1  9  1  0  0  0  0
  2  9  1  0  0  0  0
  3  9  1  0  0  0  0
  8  4  1  1  0  0  0
  4 10  1  0  0  0  0
  5 15  1  0  0  0  0
  5 16  2  0  0  0  0
  6 14  3  0  0  0  0
  7 19  3  0  0  0  0
  8  9  1  0  0  0  0
  8 14  1  0  0  0  0
  8 20  1  1  0  0  0
 10 11  1  0  0  0  0
 10 13  2  0  0  0  0
 11 12  1  0  0  0  0
 11 15  2  0  0  0  0
 12 17  1  0  0  0  0
 12 18  1  0  0  0  0
 13 16  1  0  0  0  0
 16 19  1  0  0  0  0
 17 18  1  0  0  0  0
M  END
> <PUBCHEM_COMPOUND_ID_TYPE>
0

> <PUBCHEM_TOTAL_CHARGE>
0

> <PUBCHEM_SUBSTANCE_ID>
310937997

> <PUBCHEM_SUBSTANCE_VERSION>
1

> <PUBCHEM_EXT_DATASOURCE_NAME>
4488

> <PUBCHEM_EXT_DATASOURCE_REGID>
SCHEMBL16115835

> <PUBCHEM_SUBSTANCE_COMMENT>
InChI=1S/C12H8F3N3O/c13-12(14,15)11(5-17)19-10-3-8(4-16)18-6-9(10)7-1-2-7/h3,6-7,11H,1-2H2/t11-/m0/s1
InChIKey=ZRHLVTMQHVPOJE-NSHDSACASA-N

> <PUBCHEM_SUBSTANCE_SYNONYM>
SCHEMBL16115835

> <PUBCHEM_XREF_EXT_ID>
SCHEMBL16115835

> <PUBCHEM_EXT_DATASOURCE_URL>
https://www.surechembl.org/

> <PUBCHEM_EXT_SUBSTANCE_URL>
https://www.surechembl.org/chemical/SCHEMBL16115835

> <PUBCHEM_CID_ASSOCIATIONS>
117605592  1

> <PUBCHEM_COORDINATE_TYPE>
1
3

> <PUBCHEM_BONDANNOTATIONS>
8  4  5
8  20  5

$$$$
