310948514
  -OEChem-07211613022D

 29 32  0     1  0  0  0  0  0999 V2000
    2.8784   -3.2324    0.0000 Cl  0  0  0  0  0  0  0  0  0  0  0  0
   -2.1519   -2.6921    0.0000 O   0  0  0  0  0  0  0  0  0  0  0  0
   -0.6428   -0.3260    0.0000 N   0  0  0  0  0  0  0  0  0  0  0  0
   -0.1397   -0.9968    0.0000 N   0  0  0  0  0  0  0  0  0  0  0  0
   -0.3819   -2.4686    0.0000 N   0  0  0  0  0  0  0  0  0  0  0  0
   -2.8784   -1.4253    0.0000 N   0  0  0  0  0  0  0  0  0  0  0  0
    0.3446    2.8784    0.0000 N   0  0  0  0  0  0  0  0  0  0  0  0
    1.5370   -0.6055    0.0000 N   0  0  0  0  0  0  0  0  0  0  0  0
   -1.4253   -0.5869    0.0000 C   0  0  0  0  0  0  0  0  0  0  0  0
   -1.4439   -1.4066    0.0000 C   0  0  0  0  0  0  0  0  0  0  0  0
   -0.6428   -1.6861    0.0000 C   0  0  0  0  0  0  0  0  0  0  0  0
   -0.3819    0.4937    0.0000 C   0  0  3  0  0  0  0  0  0  0  0  0
   -2.1519   -1.8165    0.0000 C   0  0  0  0  0  0  0  0  0  0  0  0
    0.4378    0.6614    0.0000 C   0  0  3  0  0  0  0  0  0  0  0  0
   -2.1705   -0.1770    0.0000 C   0  0  0  0  0  0  0  0  0  0  0  0
   -0.9222    1.0899    0.0000 C   0  0  0  0  0  0  0  0  0  0  0  0
   -2.8598   -0.5682    0.0000 C   0  0  0  0  0  0  0  0  0  0  0  0
    0.6800    1.4439    0.0000 C   0  0  0  0  0  0  0  0  0  0  0  0
    0.4378   -2.6549    0.0000 C   0  0  0  0  0  0  0  0  0  0  0  0
    0.1211    2.0587    0.0000 C   0  0  3  0  0  0  0  0  0  0  0  0
   -0.6614    1.8910    0.0000 C   0  0  0  0  0  0  0  0  0  0  0  0
    0.9968    0.0093    0.0000 C   0  0  0  0  0  0  0  0  0  0  0  0
    0.6986   -3.4373    0.0000 C   0  0  0  0  0  0  0  0  0  0  0  0
    1.0154   -2.0401    0.0000 C   0  0  0  0  0  0  0  0  0  0  0  0
    1.5184   -3.6050    0.0000 C   0  0  0  0  0  0  0  0  0  0  0  0
    1.7979   -2.2078    0.0000 C   0  0  0  0  0  0  0  0  0  0  0  0
    2.0587   -2.9903    0.0000 C   0  0  0  0  0  0  0  0  0  0  0  0
   -0.0839    3.6050    0.0000 C   0  0  0  0  0  0  0  0  0  0  0  0
    1.1831    3.1020    0.0000 C   0  0  0  0  0  0  0  0  0  0  0  0
  1 27  1  0  0  0  0
  2 13  2  0  0  0  0
  3  4  1  0  0  0  0
  3  9  1  0  0  0  0
 12  3  1  1  0  0  0
  4 11  2  0  0  0  0
  5 11  1  0  0  0  0
  5 19  1  0  0  0  0
  6 13  1  0  0  0  0
  6 17  1  0  0  0  0
 20  7  1  1  0  0  0
  7 28  1  0  0  0  0
  7 29  1  0  0  0  0
  8 22  3  0  0  0  0
  9 10  2  0  0  0  0
  9 15  1  0  0  0  0
 10 11  1  0  0  0  0
 10 13  1  0  0  0  0
 12 14  1  0  0  0  0
 12 16  1  0  0  0  0
 14 18  1  0  0  0  0
 14 22  1  6  0  0  0
 15 17  2  0  0  0  0
 16 21  1  0  0  0  0
 18 20  1  0  0  0  0
 19 23  2  0  0  0  0
 19 24  1  0  0  0  0
 20 21  1  0  0  0  0
 23 25  1  0  0  0  0
 24 26  2  0  0  0  0
 25 27  2  0  0  0  0
 26 27  1  0  0  0  0
M  END
> <PUBCHEM_COMPOUND_ID_TYPE>
0

> <PUBCHEM_TOTAL_CHARGE>
0

> <PUBCHEM_SUBSTANCE_ID>
310948514

> <PUBCHEM_SUBSTANCE_VERSION>
1

> <PUBCHEM_EXT_DATASOURCE_NAME>
4488

> <PUBCHEM_EXT_DATASOURCE_REGID>
SCHEMBL16126696

> <PUBCHEM_SUBSTANCE_COMMENT>
InChI=1S/C21H23ClN6O/c1-27(2)16-7-8-17(13(11-16)12-23)28-18-9-10-24-21(29)19(18)20(26-28)25-15-5-3-14(22)4-6-15/h3-6,9-10,13,16-17H,7-8,11H2,1-2H3,(H,24,29)(H,25,26)/t13-,16-,17+/m1/s1
InChIKey=JNKWGCLPFCMWJB-XYPHTWIQSA-N

> <PUBCHEM_SUBSTANCE_SYNONYM>
SCHEMBL16126696

> <PUBCHEM_XREF_EXT_ID>
SCHEMBL16126696

> <PUBCHEM_EXT_DATASOURCE_URL>
https://www.surechembl.org/

> <PUBCHEM_EXT_SUBSTANCE_URL>
https://www.surechembl.org/chemical/SCHEMBL16126696

> <PUBCHEM_CID_ASSOCIATIONS>
117614071  1

> <PUBCHEM_COORDINATE_TYPE>
1
3

> <PUBCHEM_BONDANNOTATIONS>
14  22  6
12  3  5
20  7  5

$$$$
