310949660
  -OEChem-07211613022D

 23 24  0     0  0  0  0  0  0999 V2000
    2.8718   -2.1721    0.0000 Cl  0  0  0  0  0  0  0  0  0  0  0  0
    1.6458    1.4392    0.0000 O   0  0  0  0  0  0  0  0  0  0  0  0
    2.4720    1.4392    0.0000 O   0  0  0  0  0  0  0  0  0  0  0  0
    3.7113    0.7063    0.0000 O   0  0  0  0  0  0  0  0  0  0  0  0
   -3.6980    2.1721    0.0000 O   0  0  0  0  0  0  0  0  0  0  0  0
   -3.7113    0.7330    0.0000 O   0  0  0  0  0  0  0  0  0  0  0  0
    0.4065    0.7196    0.0000 N   0  0  0  0  0  0  0  0  0  0  0  0
    1.6458    0.0000    0.0000 C   0  0  0  0  0  0  0  0  0  0  0  0
    2.4586    0.0000    0.0000 C   0  0  0  0  0  0  0  0  0  0  0  0
    1.2193    0.7063    0.0000 C   0  0  0  0  0  0  0  0  0  0  0  0
    2.8718   -0.7330    0.0000 C   0  0  0  0  0  0  0  0  0  0  0  0
    1.2460   -0.7330    0.0000 C   0  0  0  0  0  0  0  0  0  0  0  0
    2.8850    0.7063    0.0000 C   0  0  0  0  0  0  0  0  0  0  0  0
    2.4586   -1.4259    0.0000 C   0  0  0  0  0  0  0  0  0  0  0  0
    1.6458   -1.4259    0.0000 C   0  0  0  0  0  0  0  0  0  0  0  0
   -0.8329    1.4525    0.0000 C   0  0  0  0  0  0  0  0  0  0  0  0
    0.0067    1.4259    0.0000 C   0  0  0  0  0  0  0  0  0  0  0  0
   -2.4720    1.4392    0.0000 C   0  0  0  0  0  0  0  0  0  0  0  0
   -1.2327    2.1588    0.0000 C   0  0  0  0  0  0  0  0  0  0  0  0
   -1.2460    0.7330    0.0000 C   0  0  0  0  0  0  0  0  0  0  0  0
   -2.0456    2.1588    0.0000 C   0  0  0  0  0  0  0  0  0  0  0  0
   -2.0588    0.7330    0.0000 C   0  0  0  0  0  0  0  0  0  0  0  0
   -3.2982    1.4392    0.0000 C   0  0  0  0  0  0  0  0  0  0  0  0
  1 14  1  0  0  0  0
  2 10  2  0  0  0  0
  3 13  2  0  0  0  0
  4 13  1  0  0  0  0
  5 23  2  0  0  0  0
  6 23  1  0  0  0  0
  7 10  1  0  0  0  0
  7 17  1  0  0  0  0
  8  9  2  0  0  0  0
  8 10  1  0  0  0  0
  8 12  1  0  0  0  0
  9 11  1  0  0  0  0
  9 13  1  0  0  0  0
 11 14  2  0  0  0  0
 12 15  2  0  0  0  0
 14 15  1  0  0  0  0
 16 17  1  0  0  0  0
 16 19  2  0  0  0  0
 16 20  1  0  0  0  0
 18 21  2  0  0  0  0
 18 22  1  0  0  0  0
 18 23  1  0  0  0  0
 19 21  1  0  0  0  0
 20 22  2  0  0  0  0
M  END
> <PUBCHEM_COMPOUND_ID_TYPE>
0

> <PUBCHEM_TOTAL_CHARGE>
0

> <PUBCHEM_SUBSTANCE_ID>
310949660

> <PUBCHEM_SUBSTANCE_VERSION>
1

> <PUBCHEM_EXT_DATASOURCE_NAME>
4488

> <PUBCHEM_EXT_DATASOURCE_REGID>
SCHEMBL16127858

> <PUBCHEM_SUBSTANCE_COMMENT>
InChI=1S/C16H12ClNO5/c17-11-5-6-12(13(7-11)16(22)23)14(19)18-8-9-1-3-10(4-2-9)15(20)21/h1-7H,8H2,(H,18,19)(H,20,21)(H,22,23)
InChIKey=USRUZUZKGALCCO-UHFFFAOYSA-N

> <PUBCHEM_SUBSTANCE_SYNONYM>
SCHEMBL16127858

> <PUBCHEM_XREF_EXT_ID>
SCHEMBL16127858

> <PUBCHEM_EXT_DATASOURCE_URL>
https://www.surechembl.org/

> <PUBCHEM_EXT_SUBSTANCE_URL>
https://www.surechembl.org/chemical/SCHEMBL16127858

> <PUBCHEM_CID_ASSOCIATIONS>
117615036  1

> <PUBCHEM_COORDINATE_TYPE>
1
3

$$$$
