310934396
  -OEChem-07211613022D

 28 31  0     0  0  0  0  0  0999 V2000
    8.6426   -0.7202    0.0000 S   0  0  0  0  0  0  0  0  0  0  0  0
    5.0703   -3.4858    0.0000 O   0  0  0  0  0  0  0  0  0  0  0  0
    5.7329    0.0000    0.0000 O   0  0  0  0  0  0  0  0  0  0  0  0
    6.1362   -2.1606    0.0000 O   0  0  0  0  0  0  0  0  0  0  0  0
    6.5684   -1.4404    0.0000 N   0  0  0  0  0  0  0  0  0  0  0  0
    5.6753   -2.9097    0.0000 N   0  0  0  0  0  0  0  0  0  0  0  0
    1.3540   -4.4653    0.0000 N   0  0  0  0  0  0  0  0  0  0  0  0
    5.7329   -1.4404    0.0000 N   0  0  0  0  0  0  0  0  0  0  0  0
    0.6338   -4.0621    0.0000 N   0  0  0  0  0  0  0  0  0  0  0  0
    1.1811   -5.2720    0.0000 N   0  0  0  0  0  0  0  0  0  0  0  0
    6.9717   -0.7202    0.0000 C   0  0  0  0  0  0  0  0  0  0  0  0
    6.1362   -0.7202    0.0000 C   0  0  0  0  0  0  0  0  0  0  0  0
    4.3501   -3.0537    0.0000 C   0  0  0  0  0  0  0  0  0  0  0  0
    5.3296   -2.1606    0.0000 C   0  0  0  0  0  0  0  0  0  0  0  0
    3.6011   -3.4282    0.0000 C   0  0  0  0  0  0  0  0  0  0  0  0
    7.4038   -1.4404    0.0000 C   0  0  0  0  0  0  0  0  0  0  0  0
    7.4038    0.0000    0.0000 C   0  0  0  0  0  0  0  0  0  0  0  0
    4.4942   -2.2470    0.0000 C   0  0  0  0  0  0  0  0  0  0  0  0
    5.9058   -1.6133    0.0000 C   0  0  0  0  0  0  0  0  0  0  0  0
    2.1031   -4.0908    0.0000 C   0  0  0  0  0  0  0  0  0  0  0  0
    3.5435   -4.2349    0.0000 C   0  0  0  0  0  0  0  0  0  0  0  0
    2.9385   -2.9385    0.0000 C   0  0  0  0  0  0  0  0  0  0  0  0
    2.7944   -4.5806    0.0000 C   0  0  0  0  0  0  0  0  0  0  0  0
    2.1895   -3.2842    0.0000 C   0  0  0  0  0  0  0  0  0  0  0  0
    8.2105   -1.4404    0.0000 C   0  0  0  0  0  0  0  0  0  0  0  0
    8.2105    0.0000    0.0000 C   0  0  0  0  0  0  0  0  0  0  0  0
    0.3745   -5.3584    0.0000 C   0  0  0  0  0  0  0  0  0  0  0  0
    0.0000   -4.6094    0.0000 C   0  0  0  0  0  0  0  0  0  0  0  0
  1 25  1  0  0  0  0
  1 26  1  0  0  0  0
  2  6  1  0  0  0  0
  2 13  1  0  0  0  0
  3 12  2  0  0  0  0
  4  8  1  0  0  0  0
  5 11  1  0  0  0  0
  5 19  1  0  0  0  0
  6 14  2  0  0  0  0
  7  9  1  0  0  0  0
  7 10  1  0  0  0  0
  7 20  1  0  0  0  0
  8 12  1  0  0  0  0
  9 28  2  0  0  0  0
 10 27  2  0  0  0  0
 11 12  1  0  0  0  0
 11 16  1  0  0  0  0
 11 17  1  0  0  0  0
 13 15  1  0  0  0  0
 13 18  2  0  0  0  0
 14 18  1  0  0  0  0
 14 19  1  0  0  0  0
 15 21  2  0  0  0  0
 15 22  1  0  0  0  0
 16 25  1  0  0  0  0
 17 26  1  0  0  0  0
 20 23  2  0  0  0  0
 20 24  1  0  0  0  0
 21 23  1  0  0  0  0
 22 24  2  0  0  0  0
 27 28  1  0  0  0  0
M  END
> <PUBCHEM_COMPOUND_ID_TYPE>
0

> <PUBCHEM_TOTAL_CHARGE>
0

> <PUBCHEM_SUBSTANCE_ID>
310934396

> <PUBCHEM_SUBSTANCE_VERSION>
1

> <PUBCHEM_EXT_DATASOURCE_NAME>
4488

> <PUBCHEM_EXT_DATASOURCE_REGID>
SCHEMBL16111868

> <PUBCHEM_SUBSTANCE_COMMENT>
InChI=1S/C18H20N6O3S/c25-17(22-26)18(5-9-28-10-6-18)19-12-14-11-16(27-23-14)13-1-3-15(4-2-13)24-20-7-8-21-24/h1-4,7-8,11,19,26H,5-6,9-10,12H2,(H,22,25)
InChIKey=KKLCCHILTJAVOB-UHFFFAOYSA-N

> <PUBCHEM_SUBSTANCE_SYNONYM>
SCHEMBL16111868

> <PUBCHEM_XREF_EXT_ID>
SCHEMBL16111868

> <PUBCHEM_EXT_DATASOURCE_URL>
https://www.surechembl.org/

> <PUBCHEM_EXT_SUBSTANCE_URL>
https://www.surechembl.org/chemical/SCHEMBL16111868

> <PUBCHEM_CID_ASSOCIATIONS>
117602619  1

> <PUBCHEM_COORDINATE_TYPE>
1
3

$$$$
