310949034
  -OEChem-07211613022D

 31 35  0     0  0  0  0  0  0999 V2000
   -0.2169    0.0000    0.0000 F   0  0  0  0  0  0  0  0  0  0  0  0
   -3.1132   -0.0383    0.0000 F   0  0  0  0  0  0  0  0  0  0  0  0
   -3.1132   -1.6714    0.0000 F   0  0  0  0  0  0  0  0  0  0  0  0
   -0.2169   -1.6459    0.0000 F   0  0  0  0  0  0  0  0  0  0  0  0
   -1.6714   -2.4752    0.0000 F   0  0  0  0  0  0  0  0  0  0  0  0
    0.6507    0.6507    0.0000 N   0  0  0  0  0  0  0  0  0  0  0  0
   -0.9824    1.2376    0.0000 C   0  0  0  0  0  0  0  0  0  0  0  0
    0.6379   -0.1531    0.0000 C   0  0  0  0  0  0  0  0  0  0  0  0
    1.4290    0.9569    0.0000 C   0  0  0  0  0  0  0  0  0  0  0  0
   -1.6969    0.8293    0.0000 C   0  0  0  0  0  0  0  0  0  0  0  0
   -1.6841   -0.0128    0.0000 C   0  0  0  0  0  0  0  0  0  0  0  0
    1.4928   -0.3700    0.0000 C   0  0  0  0  0  0  0  0  0  0  0  0
    1.9649    0.3317    0.0000 C   0  0  0  0  0  0  0  0  0  0  0  0
   -0.9569   -0.3956    0.0000 C   0  0  0  0  0  0  0  0  0  0  0  0
   -2.4114   -0.4082    0.0000 C   0  0  0  0  0  0  0  0  0  0  0  0
   -0.9824    2.0669    0.0000 C   0  0  0  0  0  0  0  0  0  0  0  0
   -2.4242   -1.2376    0.0000 C   0  0  0  0  0  0  0  0  0  0  0  0
   -0.9824   -1.2248    0.0000 C   0  0  0  0  0  0  0  0  0  0  0  0
   -1.6841   -1.6331    0.0000 C   0  0  0  0  0  0  0  0  0  0  0  0
   -2.4114    1.2248    0.0000 C   0  0  0  0  0  0  0  0  0  0  0  0
    0.0893   -0.7272    0.0000 C   0  0  0  0  0  0  0  0  0  0  0  0
    1.7607    1.6969    0.0000 C   0  0  0  0  0  0  0  0  0  0  0  0
    2.8069    0.4593    0.0000 C   0  0  0  0  0  0  0  0  0  0  0  0
    1.6969   -1.1738    0.0000 C   0  0  0  0  0  0  0  0  0  0  0  0
   -1.7096    2.4369    0.0000 C   0  0  0  0  0  0  0  0  0  0  0  0
   -2.4242    2.0286    0.0000 C   0  0  0  0  0  0  0  0  0  0  0  0
    0.2807   -1.5182    0.0000 C   0  0  0  0  0  0  0  0  0  0  0  0
    2.5900    1.8373    0.0000 C   0  0  0  0  0  0  0  0  0  0  0  0
    1.0972   -1.7224    0.0000 C   0  0  0  0  0  0  0  0  0  0  0  0
    3.1132    1.1994    0.0000 C   0  0  0  0  0  0  0  0  0  0  0  0
   -0.2297    2.4752    0.0000 C   0  0  0  0  0  0  0  0  0  0  0  0
  1 14  1  0  0  0  0
  2 15  1  0  0  0  0
  3 17  1  0  0  0  0
  4 18  1  0  0  0  0
  5 19  1  0  0  0  0
  6  7  1  0  0  0  0
  6  8  1  0  0  0  0
  6  9  1  0  0  0  0
  7 10  2  0  0  0  0
  7 16  1  0  0  0  0
  8 12  2  0  0  0  0
  8 21  1  0  0  0  0
  9 13  2  0  0  0  0
  9 22  1  0  0  0  0
 10 11  1  0  0  0  0
 10 20  1  0  0  0  0
 11 14  2  0  0  0  0
 11 15  1  0  0  0  0
 12 13  1  0  0  0  0
 12 24  1  0  0  0  0
 13 23  1  0  0  0  0
 14 18  1  0  0  0  0
 15 17  2  0  0  0  0
 16 25  2  0  0  0  0
 16 31  1  0  0  0  0
 17 19  1  0  0  0  0
 18 19  2  0  0  0  0
 20 26  2  0  0  0  0
 21 27  2  0  0  0  0
 22 28  2  0  0  0  0
 23 30  2  0  0  0  0
 24 29  2  0  0  0  0
 25 26  1  0  0  0  0
 27 29  1  0  0  0  0
 28 30  1  0  0  0  0
M  END
> <PUBCHEM_COMPOUND_ID_TYPE>
0

> <PUBCHEM_TOTAL_CHARGE>
0

> <PUBCHEM_SUBSTANCE_ID>
310949034

> <PUBCHEM_SUBSTANCE_VERSION>
1

> <PUBCHEM_EXT_DATASOURCE_NAME>
4488

> <PUBCHEM_EXT_DATASOURCE_REGID>
SCHEMBL16127224

> <PUBCHEM_SUBSTANCE_COMMENT>
InChI=1S/C25H14F5N/c1-13-7-6-10-16(19-20(26)22(28)24(30)23(29)21(19)27)25(13)31-17-11-4-2-8-14(17)15-9-3-5-12-18(15)31/h2-12H,1H3
InChIKey=VBDRRTHLEWCOGZ-UHFFFAOYSA-N

> <PUBCHEM_SUBSTANCE_SYNONYM>
SCHEMBL16127224

> <PUBCHEM_XREF_EXT_ID>
SCHEMBL16127224

> <PUBCHEM_EXT_DATASOURCE_URL>
https://www.surechembl.org/

> <PUBCHEM_EXT_SUBSTANCE_URL>
https://www.surechembl.org/chemical/SCHEMBL16127224

> <PUBCHEM_CID_ASSOCIATIONS>
117614539  1

> <PUBCHEM_COORDINATE_TYPE>
1
3

$$$$
