310933159
  -OEChem-07211613022D

 18 20  0     0  0  0  0  0  0999 V2000
    2.3955   -2.0688    0.0000 Br  0  0  0  0  0  0  0  0  0  0  0  0
    0.0817   -5.4444    0.0000 F   0  0  0  0  0  0  0  0  0  0  0  0
    0.9528   -5.3083    0.0000 F   0  0  0  0  0  0  0  0  0  0  0  0
    0.0000   -3.9744    0.0000 O   0  0  0  0  0  0  0  0  0  0  0  0
    1.2250   -4.4916    0.0000 O   0  0  0  0  0  0  0  0  0  0  0  0
    1.6878    0.0000    0.0000 O   0  0  0  0  0  0  0  0  0  0  0  0
    0.9800   -1.2250    0.0000 C   0  0  0  0  0  0  0  0  0  0  0  0
    1.0889   -2.0688    0.0000 C   0  0  0  0  0  0  0  0  0  0  0  0
    0.5172   -3.3483    0.0000 C   0  0  0  0  0  0  0  0  0  0  0  0
    1.3066   -3.7022    0.0000 C   0  0  0  0  0  0  0  0  0  0  0  0
    0.2178   -1.5517    0.0000 C   0  0  0  0  0  0  0  0  0  0  0  0
    0.2995   -0.7350    0.0000 C   0  0  0  0  0  0  0  0  0  0  0  0
    0.4083   -4.6822    0.0000 C   0  0  0  0  0  0  0  0  0  0  0  0
    0.4355   -2.5316    0.0000 C   0  0  0  0  0  0  0  0  0  0  0  0
    1.6878   -0.8167    0.0000 C   0  0  0  0  0  0  0  0  0  0  0  0
    1.8783   -2.3955    0.0000 C   0  0  0  0  0  0  0  0  0  0  0  0
    1.9599   -3.1850    0.0000 C   0  0  0  0  0  0  0  0  0  0  0  0
    2.3955   -1.2250    0.0000 C   0  0  0  0  0  0  0  0  0  0  0  0
  1 18  1  0  0  0  0
  2 13  1  0  0  0  0
  3 13  1  0  0  0  0
  4  9  1  0  0  0  0
  4 13  1  0  0  0  0
  5 10  1  0  0  0  0
  5 13  1  0  0  0  0
  6 15  2  0  0  0  0
  7  8  1  0  0  0  0
  7 11  1  0  0  0  0
  7 12  1  0  0  0  0
  7 15  1  0  0  0  0
  8 14  2  0  0  0  0
  8 16  1  0  0  0  0
  9 10  2  0  0  0  0
  9 14  1  0  0  0  0
 10 17  1  0  0  0  0
 11 12  1  0  0  0  0
 15 18  1  0  0  0  0
 16 17  2  0  0  0  0
M  END
> <PUBCHEM_COMPOUND_ID_TYPE>
0

> <PUBCHEM_TOTAL_CHARGE>
0

> <PUBCHEM_SUBSTANCE_ID>
310933159

> <PUBCHEM_SUBSTANCE_VERSION>
1

> <PUBCHEM_EXT_DATASOURCE_NAME>
4488

> <PUBCHEM_EXT_DATASOURCE_REGID>
SCHEMBL16110568

> <PUBCHEM_SUBSTANCE_COMMENT>
InChI=1S/C12H9BrF2O3/c13-6-10(16)11(3-4-11)7-1-2-8-9(5-7)18-12(14,15)17-8/h1-2,5H,3-4,6H2
InChIKey=RWQXWOCSCNDWCZ-UHFFFAOYSA-N

> <PUBCHEM_SUBSTANCE_SYNONYM>
SCHEMBL16110568

> <PUBCHEM_XREF_EXT_ID>
SCHEMBL16110568

> <PUBCHEM_EXT_DATASOURCE_URL>
https://www.surechembl.org/

> <PUBCHEM_EXT_SUBSTANCE_URL>
https://www.surechembl.org/chemical/SCHEMBL16110568

> <PUBCHEM_CID_ASSOCIATIONS>
117601609  1

> <PUBCHEM_COORDINATE_TYPE>
1
3

$$$$
