310946835
  -OEChem-07211613022D

 16 17  0     1  0  0  0  0  0999 V2000
   -0.3880    2.2999    0.0000 Br  0  0  0  0  0  0  0  0  0  0  0  0
    0.0277    0.0831    0.0000 F   0  0  0  0  0  0  0  0  0  0  0  0
    1.0946   -0.3187    0.0000 F   0  0  0  0  0  0  0  0  0  0  0  0
    0.6789   -1.3855    0.0000 F   0  0  0  0  0  0  0  0  0  0  0  0
   -1.0668   -1.5101    0.0000 N   0  0  0  0  0  0  0  0  0  0  0  0
   -0.3880   -0.9975    0.0000 C   0  0  3  0  0  0  0  0  0  0  0  0
    0.3464   -0.6512    0.0000 C   0  0  0  0  0  0  0  0  0  0  0  0
   -0.3741   -0.1802    0.0000 C   0  0  0  0  0  0  0  0  0  0  0  0
    0.2771   -1.4963    0.0000 C   0  0  0  0  0  0  0  0  0  0  0  0
    0.3325    0.2217    0.0000 C   0  0  0  0  0  0  0  0  0  0  0  0
   -1.0946    0.2217    0.0000 C   0  0  0  0  0  0  0  0  0  0  0  0
   -0.8035   -2.2999    0.0000 C   0  0  0  0  0  0  0  0  0  0  0  0
    0.0277   -2.2999    0.0000 C   0  0  0  0  0  0  0  0  0  0  0  0
    0.3325    1.0391    0.0000 C   0  0  0  0  0  0  0  0  0  0  0  0
   -1.0946    1.0391    0.0000 C   0  0  0  0  0  0  0  0  0  0  0  0
   -0.3880    1.4686    0.0000 C   0  0  0  0  0  0  0  0  0  0  0  0
  1 16  1  0  0  0  0
  2  7  1  0  0  0  0
  3  7  1  0  0  0  0
  4  7  1  0  0  0  0
  5  6  1  0  0  0  0
  5 12  1  0  0  0  0
  6  7  1  1  0  0  0
  6  8  1  0  0  0  0
  6  9  1  0  0  0  0
  8 10  2  0  0  0  0
  8 11  1  0  0  0  0
  9 13  1  0  0  0  0
 10 14  1  0  0  0  0
 11 15  2  0  0  0  0
 12 13  1  0  0  0  0
 14 16  2  0  0  0  0
 15 16  1  0  0  0  0
M  END
> <PUBCHEM_COMPOUND_ID_TYPE>
0

> <PUBCHEM_TOTAL_CHARGE>
0

> <PUBCHEM_SUBSTANCE_ID>
310946835

> <PUBCHEM_SUBSTANCE_VERSION>
1

> <PUBCHEM_EXT_DATASOURCE_NAME>
4488

> <PUBCHEM_EXT_DATASOURCE_REGID>
SCHEMBL16124959

> <PUBCHEM_SUBSTANCE_COMMENT>
InChI=1S/C11H11BrF3N/c12-9-4-2-8(3-5-9)10(11(13,14)15)6-1-7-16-10/h2-5,16H,1,6-7H2/t10-/m0/s1
InChIKey=IYKBYADEIPWEEE-JTQLQIEISA-N

> <PUBCHEM_SUBSTANCE_SYNONYM>
SCHEMBL16124959

> <PUBCHEM_XREF_EXT_ID>
SCHEMBL16124959

> <PUBCHEM_EXT_DATASOURCE_URL>
https://www.surechembl.org/

> <PUBCHEM_EXT_SUBSTANCE_URL>
https://www.surechembl.org/chemical/SCHEMBL16124959

> <PUBCHEM_CID_ASSOCIATIONS>
117612694  1

> <PUBCHEM_COORDINATE_TYPE>
1
3

> <PUBCHEM_BONDANNOTATIONS>
6  7  5

$$$$
