310930234
  -OEChem-07211613022D

 19 20  0     0  0  0  0  0  0999 V2000
    0.5168   -1.1685    0.0000 O   0  0  0  0  0  0  0  0  0  0  0  0
    0.0000   -2.5167    0.0000 O   0  0  0  0  0  0  0  0  0  0  0  0
    5.1007    0.0000    0.0000 O   0  0  0  0  0  0  0  0  0  0  0  0
    6.3366   -0.7191    0.0000 O   0  0  0  0  0  0  0  0  0  0  0  0
    6.7410   -2.8537    0.0000 O   0  0  0  0  0  0  0  0  0  0  0  0
    5.1007   -1.4156    0.0000 N   0  0  0  0  0  0  0  0  0  0  0  0
    1.3931   -2.1571    0.0000 C   0  0  0  0  0  0  0  0  0  0  0  0
    1.8201   -1.4381    0.0000 C   0  0  0  0  0  0  0  0  0  0  0  0
    0.6067   -1.9774    0.0000 C   0  0  0  0  0  0  0  0  0  0  0  0
    3.0559   -2.1347    0.0000 C   0  0  0  0  0  0  0  0  0  0  0  0
    2.6515   -1.4381    0.0000 C   0  0  0  0  0  0  0  0  0  0  0  0
    1.2808   -0.8314    0.0000 C   0  0  0  0  0  0  0  0  0  0  0  0
    1.8201   -2.8762    0.0000 C   0  0  0  0  0  0  0  0  0  0  0  0
    2.6290   -2.8762    0.0000 C   0  0  0  0  0  0  0  0  0  0  0  0
    3.8648   -2.1347    0.0000 C   0  0  0  0  0  0  0  0  0  0  0  0
    4.2918   -1.4156    0.0000 C   0  0  0  0  0  0  0  0  0  0  0  0
    5.5052   -0.7191    0.0000 C   0  0  0  0  0  0  0  0  0  0  0  0
    5.5052   -2.1347    0.0000 C   0  0  0  0  0  0  0  0  0  0  0  0
    6.3366   -2.1347    0.0000 C   0  0  0  0  0  0  0  0  0  0  0  0
  1  9  1  0  0  0  0
  1 12  1  0  0  0  0
  2  9  2  0  0  0  0
  3 17  2  0  0  0  0
  4 17  1  0  0  0  0
  5 19  2  0  0  0  0
  6 16  1  0  0  0  0
  6 17  1  0  0  0  0
  6 18  1  0  0  0  0
  7  8  2  0  0  0  0
  7  9  1  0  0  0  0
  7 13  1  0  0  0  0
  8 11  1  0  0  0  0
  8 12  1  0  0  0  0
 10 11  2  0  0  0  0
 10 14  1  0  0  0  0
 10 15  1  0  0  0  0
 13 14  2  0  0  0  0
 15 16  1  0  0  0  0
 18 19  1  0  0  0  0
M  END
> <PUBCHEM_COMPOUND_ID_TYPE>
0

> <PUBCHEM_TOTAL_CHARGE>
0

> <PUBCHEM_SUBSTANCE_ID>
310930234

> <PUBCHEM_SUBSTANCE_VERSION>
1

> <PUBCHEM_EXT_DATASOURCE_NAME>
4488

> <PUBCHEM_EXT_DATASOURCE_REGID>
SCHEMBL16107505

> <PUBCHEM_SUBSTANCE_COMMENT>
InChI=1S/C13H13NO5/c15-6-5-14(13(17)18)4-3-9-1-2-11-10(7-9)8-19-12(11)16/h1-2,6-7H,3-5,8H2,(H,17,18)
InChIKey=JFMFKMQYGMCZGO-UHFFFAOYSA-N

> <PUBCHEM_SUBSTANCE_SYNONYM>
SCHEMBL16107505

> <PUBCHEM_XREF_EXT_ID>
SCHEMBL16107505

> <PUBCHEM_EXT_DATASOURCE_URL>
https://www.surechembl.org/

> <PUBCHEM_EXT_SUBSTANCE_URL>
https://www.surechembl.org/chemical/SCHEMBL16107505

> <PUBCHEM_CID_ASSOCIATIONS>
117599434  1

> <PUBCHEM_COORDINATE_TYPE>
1
3

$$$$
