310944612
  -OEChem-07211613022D

 14 14  0     0  0  0  0  0  0999 V2000
    0.0066    1.6253    0.0000 F   0  0  0  0  0  0  0  0  0  0  0  0
    2.1427    1.1742    0.0000 N   0  0  0  0  0  0  0  0  0  0  0  0
   -2.1427    1.1742    0.0000 N   0  0  0  0  0  0  0  0  0  0  0  0
    0.7098    0.4312    0.0000 C   0  0  0  0  0  0  0  0  0  0  0  0
   -0.7098    0.4312    0.0000 C   0  0  0  0  0  0  0  0  0  0  0  0
   -0.0066    0.8425    0.0000 C   0  0  0  0  0  0  0  0  0  0  0  0
    0.6966   -0.3781    0.0000 C   0  0  0  0  0  0  0  0  0  0  0  0
   -0.7098   -0.3781    0.0000 C   0  0  0  0  0  0  0  0  0  0  0  0
   -0.0199   -0.7895    0.0000 C   0  0  0  0  0  0  0  0  0  0  0  0
    1.4263    0.8160    0.0000 C   0  0  0  0  0  0  0  0  0  0  0  0
   -1.4396    0.8160    0.0000 C   0  0  0  0  0  0  0  0  0  0  0  0
    1.4263   -0.8027    0.0000 C   0  0  0  0  0  0  0  0  0  0  0  0
   -1.4396   -0.8027    0.0000 C   0  0  0  0  0  0  0  0  0  0  0  0
   -0.0066   -1.6253    0.0000 C   0  0  0  0  0  0  0  0  0  0  0  0
  1  6  1  0  0  0  0
  2 10  3  0  0  0  0
  3 11  3  0  0  0  0
  4  6  2  0  0  0  0
  4  7  1  0  0  0  0
  4 10  1  0  0  0  0
  5  6  1  0  0  0  0
  5  8  2  0  0  0  0
  5 11  1  0  0  0  0
  7  9  2  0  0  0  0
  7 12  1  0  0  0  0
  8  9  1  0  0  0  0
  8 13  1  0  0  0  0
  9 14  1  0  0  0  0
M  END
> <PUBCHEM_COMPOUND_ID_TYPE>
0

> <PUBCHEM_TOTAL_CHARGE>
0

> <PUBCHEM_SUBSTANCE_ID>
310944612

> <PUBCHEM_SUBSTANCE_VERSION>
1

> <PUBCHEM_EXT_DATASOURCE_NAME>
4488

> <PUBCHEM_EXT_DATASOURCE_REGID>
SCHEMBL16122690

> <PUBCHEM_SUBSTANCE_COMMENT>
InChI=1S/C11H9FN2/c1-6-7(2)9(4-13)11(12)10(5-14)8(6)3/h1-3H3
InChIKey=ZHZFQKHEMVGUIF-UHFFFAOYSA-N

> <PUBCHEM_SUBSTANCE_SYNONYM>
SCHEMBL16122690

> <PUBCHEM_XREF_EXT_ID>
SCHEMBL16122690

> <PUBCHEM_EXT_DATASOURCE_URL>
https://www.surechembl.org/

> <PUBCHEM_EXT_SUBSTANCE_URL>
https://www.surechembl.org/chemical/SCHEMBL16122690

> <PUBCHEM_CID_ASSOCIATIONS>
117610842  1

> <PUBCHEM_COORDINATE_TYPE>
1
3

$$$$
