310949138
  -OEChem-07211613022D

 37 41  0     0  0  0  0  0  0999 V2000
    0.4311    0.1004    0.0000 F   0  0  0  0  0  0  0  0  0  0  0  0
    1.4941   -0.2657    0.0000 F   0  0  0  0  0  0  0  0  0  0  0  0
    1.1280   -1.3406    0.0000 F   0  0  0  0  0  0  0  0  0  0  0  0
   -2.6636   -1.3524    0.0000 F   0  0  0  0  0  0  0  0  0  0  0  0
   -3.1006   -0.3130    0.0000 F   0  0  0  0  0  0  0  0  0  0  0  0
   -2.0375    0.1122    0.0000 F   0  0  0  0  0  0  0  0  0  0  0  0
    0.1122   -3.0887    0.0000 F   0  0  0  0  0  0  0  0  0  0  0  0
   -0.7028   -3.8801    0.0000 F   0  0  0  0  0  0  0  0  0  0  0  0
   -1.4941   -3.0533    0.0000 F   0  0  0  0  0  0  0  0  0  0  0  0
   -0.6910    0.2067    0.0000 N   0  0  0  0  0  0  0  0  0  0  0  0
   -0.7028   -0.5848    0.0000 C   0  0  0  0  0  0  0  0  0  0  0  0
   -0.0059    0.7264    0.0000 C   0  0  0  0  0  0  0  0  0  0  0  0
   -1.3878    0.7146    0.0000 C   0  0  0  0  0  0  0  0  0  0  0  0
   -0.2776    1.4705    0.0000 C   0  0  0  0  0  0  0  0  0  0  0  0
    0.0531   -0.9863    0.0000 C   0  0  0  0  0  0  0  0  0  0  0  0
   -1.4233   -1.0099    0.0000 C   0  0  0  0  0  0  0  0  0  0  0  0
   -1.1280    1.5059    0.0000 C   0  0  0  0  0  0  0  0  0  0  0  0
    0.7737   -0.6201    0.0000 C   0  0  0  0  0  0  0  0  0  0  0  0
   -2.3564   -0.6084    0.0000 C   0  0  0  0  0  0  0  0  0  0  0  0
   -0.6792   -2.2147    0.0000 C   0  0  0  0  0  0  0  0  0  0  0  0
    0.0413   -1.8013    0.0000 C   0  0  0  0  0  0  0  0  0  0  0  0
   -1.4233   -1.8249    0.0000 C   0  0  0  0  0  0  0  0  0  0  0  0
    0.8091    0.5374    0.0000 C   0  0  0  0  0  0  0  0  0  0  0  0
    0.3012    2.0729    0.0000 C   0  0  0  0  0  0  0  0  0  0  0  0
   -2.1438    0.5493    0.0000 C   0  0  0  0  0  0  0  0  0  0  0  0
   -1.6714    2.0848    0.0000 C   0  0  0  0  0  0  0  0  0  0  0  0
    1.1280    1.8958    0.0000 C   0  0  0  0  0  0  0  0  0  0  0  0
   -0.7028   -3.0651    0.0000 C   0  0  0  0  0  0  0  0  0  0  0  0
    1.3878    1.1162    0.0000 C   0  0  0  0  0  0  0  0  0  0  0  0
   -2.6754    1.1516    0.0000 C   0  0  0  0  0  0  0  0  0  0  0  0
   -2.4391    1.9076    0.0000 C   0  0  0  0  0  0  0  0  0  0  0  0
    1.7069    2.5335    0.0000 C   0  0  0  0  0  0  0  0  0  0  0  0
    2.5099    2.3446    0.0000 C   0  0  0  0  0  0  0  0  0  0  0  0
    1.4469    3.2895    0.0000 C   0  0  0  0  0  0  0  0  0  0  0  0
    3.1006    2.9352    0.0000 C   0  0  0  0  0  0  0  0  0  0  0  0
    2.0257    3.8801    0.0000 C   0  0  0  0  0  0  0  0  0  0  0  0
    2.8407    3.7030    0.0000 C   0  0  0  0  0  0  0  0  0  0  0  0
  1 18  1  0  0  0  0
  2 18  1  0  0  0  0
  3 18  1  0  0  0  0
  4 19  1  0  0  0  0
  5 19  1  0  0  0  0
  6 19  1  0  0  0  0
  7 28  1  0  0  0  0
  8 28  1  0  0  0  0
  9 28  1  0  0  0  0
 10 11  1  0  0  0  0
 10 12  1  0  0  0  0
 10 13  1  0  0  0  0
 11 15  2  0  0  0  0
 11 16  1  0  0  0  0
 12 14  2  0  0  0  0
 12 23  1  0  0  0  0
 13 17  2  0  0  0  0
 13 25  1  0  0  0  0
 14 17  1  0  0  0  0
 14 24  1  0  0  0  0
 15 18  1  0  0  0  0
 15 21  1  0  0  0  0
 16 19  1  0  0  0  0
 16 22  2  0  0  0  0
 17 26  1  0  0  0  0
 20 21  2  0  0  0  0
 20 22  1  0  0  0  0
 20 28  1  0  0  0  0
 23 29  2  0  0  0  0
 24 27  2  0  0  0  0
 25 30  2  0  0  0  0
 26 31  2  0  0  0  0
 27 29  1  0  0  0  0
 27 32  1  0  0  0  0
 30 31  1  0  0  0  0
 32 33  2  0  0  0  0
 32 34  1  0  0  0  0
 33 35  1  0  0  0  0
 34 36  2  0  0  0  0
 35 37  2  0  0  0  0
 36 37  1  0  0  0  0
M  END
> <PUBCHEM_COMPOUND_ID_TYPE>
0

> <PUBCHEM_TOTAL_CHARGE>
0

> <PUBCHEM_SUBSTANCE_ID>
310949138

> <PUBCHEM_SUBSTANCE_VERSION>
1

> <PUBCHEM_EXT_DATASOURCE_NAME>
4488

> <PUBCHEM_EXT_DATASOURCE_REGID>
SCHEMBL16127328

> <PUBCHEM_SUBSTANCE_COMMENT>
InChI=1S/C27H14F9N/c28-25(29,30)17-13-20(26(31,32)33)24(21(14-17)27(34,35)36)37-22-9-5-4-8-18(22)19-12-16(10-11-23(19)37)15-6-2-1-3-7-15/h1-14H
InChIKey=JFNWLHVZIGMTHP-UHFFFAOYSA-N

> <PUBCHEM_SUBSTANCE_SYNONYM>
SCHEMBL16127328

> <PUBCHEM_XREF_EXT_ID>
SCHEMBL16127328

> <PUBCHEM_EXT_DATASOURCE_URL>
https://www.surechembl.org/

> <PUBCHEM_EXT_SUBSTANCE_URL>
https://www.surechembl.org/chemical/SCHEMBL16127328

> <PUBCHEM_CID_ASSOCIATIONS>
117614635  1

> <PUBCHEM_COORDINATE_TYPE>
1
3

$$$$
