310949217
  -OEChem-07211613022D

 23 26  0     0  0  0  0  0  0999 V2000
    0.2996    1.4607    0.0000 N   0  0  0  0  0  0  0  0  0  0  0  0
    0.6891    0.2173    0.0000 C   0  0  0  0  0  0  0  0  0  0  0  0
   -0.1348    0.2023    0.0000 C   0  0  0  0  0  0  0  0  0  0  0  0
    0.9887    0.9814    0.0000 C   0  0  0  0  0  0  0  0  0  0  0  0
   -0.3746    0.9962    0.0000 C   0  0  0  0  0  0  0  0  0  0  0  0
    1.2585   -0.3969    0.0000 C   0  0  0  0  0  0  0  0  0  0  0  0
    2.0825   -0.2472    0.0000 C   0  0  0  0  0  0  0  0  0  0  0  0
   -0.6742   -0.3969    0.0000 C   0  0  0  0  0  0  0  0  0  0  0  0
   -1.5282   -0.2472    0.0000 C   0  0  0  0  0  0  0  0  0  0  0  0
    1.7828    1.1312    0.0000 C   0  0  0  0  0  0  0  0  0  0  0  0
   -1.2285    1.1162    0.0000 C   0  0  0  0  0  0  0  0  0  0  0  0
    2.6068   -0.8614    0.0000 C   0  0  0  0  0  0  0  0  0  0  0  0
    2.3521    0.5318    0.0000 C   0  0  0  0  0  0  0  0  0  0  0  0
   -1.7828    0.5169    0.0000 C   0  0  0  0  0  0  0  0  0  0  0  0
   -2.1125   -0.8914    0.0000 C   0  0  0  0  0  0  0  0  0  0  0  0
   -2.9365   -0.7266    0.0000 C   0  0  0  0  0  0  0  0  0  0  0  0
   -1.8278   -1.6555    0.0000 C   0  0  0  0  0  0  0  0  0  0  0  0
    3.4908   -0.7116    0.0000 C   0  0  0  0  0  0  0  0  0  0  0  0
    2.3971   -1.6555    0.0000 C   0  0  0  0  0  0  0  0  0  0  0  0
    1.8878   -1.2360    0.0000 C   0  0  0  0  0  0  0  0  0  0  0  0
   -3.4908   -1.3409    0.0000 C   0  0  0  0  0  0  0  0  0  0  0  0
   -2.4121   -2.2698    0.0000 C   0  0  0  0  0  0  0  0  0  0  0  0
   -3.2211   -2.1050    0.0000 C   0  0  0  0  0  0  0  0  0  0  0  0
  1  4  1  0  0  0  0
  1  5  1  0  0  0  0
  2  3  1  0  0  0  0
  2  4  2  0  0  0  0
  2  6  1  0  0  0  0
  3  5  2  0  0  0  0
  3  8  1  0  0  0  0
  4 10  1  0  0  0  0
  5 11  1  0  0  0  0
  6  7  2  0  0  0  0
  7 12  1  0  0  0  0
  7 13  1  0  0  0  0
  8  9  2  0  0  0  0
  9 14  1  0  0  0  0
  9 15  1  0  0  0  0
 10 13  2  0  0  0  0
 11 14  2  0  0  0  0
 12 18  1  0  0  0  0
 12 19  1  0  0  0  0
 12 20  1  0  0  0  0
 15 16  2  0  0  0  0
 15 17  1  0  0  0  0
 16 21  1  0  0  0  0
 17 22  2  0  0  0  0
 21 23  2  0  0  0  0
 22 23  1  0  0  0  0
M  END
> <PUBCHEM_COMPOUND_ID_TYPE>
0

> <PUBCHEM_TOTAL_CHARGE>
0

> <PUBCHEM_SUBSTANCE_ID>
310949217

> <PUBCHEM_SUBSTANCE_VERSION>
1

> <PUBCHEM_EXT_DATASOURCE_NAME>
4488

> <PUBCHEM_EXT_DATASOURCE_REGID>
SCHEMBL16127407

> <PUBCHEM_SUBSTANCE_COMMENT>
InChI=1S/C22H21N/c1-22(2,3)17-10-12-21-19(14-17)18-13-16(9-11-20(18)23-21)15-7-5-4-6-8-15/h4-14,23H,1-3H3
InChIKey=XBXPWUGRCNZRIJ-UHFFFAOYSA-N

> <PUBCHEM_SUBSTANCE_SYNONYM>
SCHEMBL16127407

> <PUBCHEM_XREF_EXT_ID>
SCHEMBL16127407

> <PUBCHEM_EXT_DATASOURCE_URL>
https://www.surechembl.org/

> <PUBCHEM_EXT_SUBSTANCE_URL>
https://www.surechembl.org/chemical/SCHEMBL16127407

> <PUBCHEM_CID_ASSOCIATIONS>
117614705  1

> <PUBCHEM_COORDINATE_TYPE>
1
3

$$$$
