310940281
  -OEChem-07211613022D

 38 39  0     1  0  0  0  0  0999 V2000
    4.6060   -0.3936    0.0000 Cl  0  0  0  0  0  0  0  0  0  0  0  0
    1.9823   -1.8802    0.0000 Cl  0  0  0  0  0  0  0  0  0  0  0  0
    5.4222   -1.8512    0.0000 F   0  0  0  0  0  0  0  0  0  0  0  0
    3.3525    0.3644    0.0000 O   0  0  0  0  0  0  0  0  0  0  0  0
   -2.4779   -1.9969    0.0000 O   0  0  0  0  0  0  0  0  0  0  0  0
   -0.3499    1.2681    0.0000 N   0  0  3  0  0  0  0  0  0  0  0  0
   -2.0989   -0.5393    0.0000 N   0  0  0  0  0  0  0  0  0  0  0  0
   -4.0521   -1.5305    0.0000 N   0  0  0  0  0  0  0  0  0  0  0  0
    3.3233   -1.1224    0.0000 C   0  0  0  0  0  0  0  0  0  0  0  0
    4.1687   -1.1806    0.0000 C   0  0  0  0  0  0  0  0  0  0  0  0
    2.9444   -1.9094    0.0000 C   0  0  0  0  0  0  0  0  0  0  0  0
    2.9734   -0.4227    0.0000 C   0  0  3  0  0  0  0  0  0  0  0  0
    4.5768   -1.8802    0.0000 C   0  0  0  0  0  0  0  0  0  0  0  0
    3.3816   -2.6090    0.0000 C   0  0  0  0  0  0  0  0  0  0  0  0
    4.1395   -2.6382    0.0000 C   0  0  0  0  0  0  0  0  0  0  0  0
    2.9444    1.0640    0.0000 C   0  0  0  0  0  0  0  0  0  0  0  0
    1.6908    1.7928    0.0000 C   0  0  0  0  0  0  0  0  0  0  0  0
   -0.9329    0.6267    0.0000 C   0  0  0  0  0  0  0  0  0  0  0  0
    0.8746    1.8512    0.0000 C   0  0  0  0  0  0  0  0  0  0  0  0
    2.0989    1.0932    0.0000 C   0  0  0  0  0  0  0  0  0  0  0  0
    0.4373    1.0640    0.0000 C   0  0  0  0  0  0  0  0  0  0  0  0
    2.1864   -0.3352    0.0000 C   0  0  0  0  0  0  0  0  0  0  0  0
   -0.7288   -0.1603    0.0000 C   0  0  0  0  0  0  0  0  0  0  0  0
   -1.7491    0.8600    0.0000 C   0  0  0  0  0  0  0  0  0  0  0  0
   -1.3118   -0.7725    0.0000 C   0  0  0  0  0  0  0  0  0  0  0  0
   -2.2738    0.3352    0.0000 C   0  0  0  0  0  0  0  0  0  0  0  0
   -2.6819   -1.1515    0.0000 C   0  0  0  0  0  0  0  0  0  0  0  0
    3.3233    1.8512    0.0000 C   0  0  0  0  0  0  0  0  0  0  0  0
    2.0989    2.5216    0.0000 C   0  0  0  0  0  0  0  0  0  0  0  0
    0.3207    2.3759    0.0000 C   0  0  0  0  0  0  0  0  0  0  0  0
   -0.5247    2.2593    0.0000 C   0  0  0  0  0  0  0  0  0  0  0  0
   -3.4691   -0.9766    0.0000 C   0  0  0  0  0  0  0  0  0  0  0  0
    2.9734    2.6382    0.0000 C   0  0  0  0  0  0  0  0  0  0  0  0
    2.6819    2.4925    0.0000 C   0  0  0  0  0  0  0  0  0  0  0  0
   -0.1458    2.1135    0.0000 C   0  0  0  0  0  0  0  0  0  0  0  0
   -4.8683   -1.3555    0.0000 C   0  0  0  0  0  0  0  0  0  0  0  0
   -5.0724   -0.6267    0.0000 C   0  0  0  0  0  0  0  0  0  0  0  0
   -5.4222   -1.9678    0.0000 C   0  0  0  0  0  0  0  0  0  0  0  0
  1 10  1  0  0  0  0
  2 11  1  0  0  0  0
  3 13  1  0  0  0  0
  4 12  1  0  0  0  0
  4 16  1  0  0  0  0
  5 27  2  0  0  0  0
  6 18  1  0  0  0  0
  6 21  1  0  0  0  0
  6 31  1  0  0  0  0
  7 25  1  0  0  0  0
  7 26  1  0  0  0  0
  7 27  1  0  0  0  0
  8 32  1  0  0  0  0
  8 36  1  0  0  0  0
  9 10  2  0  0  0  0
  9 11  1  0  0  0  0
  9 12  1  0  0  0  0
 10 13  1  0  0  0  0
 11 14  2  0  0  0  0
 12 22  1  6  0  0  0
 13 15  2  0  0  0  0
 14 15  1  0  0  0  0
 16 20  1  0  0  0  0
 16 28  2  0  0  0  0
 17 19  1  0  0  0  0
 17 20  2  0  0  0  0
 17 29  1  0  0  0  0
 18 23  1  0  0  0  0
 18 24  1  0  0  0  0
 19 21  2  0  0  0  0
 19 30  1  0  0  0  0
 23 25  1  0  0  0  0
 24 26  1  0  0  0  0
 27 32  1  0  0  0  0
 28 33  1  0  0  0  0
 29 34  2  0  0  0  0
 30 35  2  0  0  0  0
 36 37  2  0  0  0  0
 36 38  1  0  0  0  0
M  END
> <PUBCHEM_COMPOUND_ID_TYPE>
0

> <PUBCHEM_TOTAL_CHARGE>
0

> <PUBCHEM_SUBSTANCE_ID>
310940281

> <PUBCHEM_SUBSTANCE_VERSION>
1

> <PUBCHEM_EXT_DATASOURCE_NAME>
4488

> <PUBCHEM_EXT_DATASOURCE_REGID>
SCHEMBL16118224

> <PUBCHEM_SUBSTANCE_COMMENT>
InChI=1S/C30H38Cl2FN3O2/c1-8-22(17-25(10-3)38-21(6)29-26(31)11-12-27(33)30(29)32)23(9-2)19-35(7)24-13-15-36(16-14-24)28(37)18-34-20(4)5/h8-12,17,19,21,24,34H,1-2,4,13-16,18H2,3,5-7H3/b22-17+,23-19+,25-10+/t21-/m0/s1
InChIKey=WRULIMLMTQKCQG-PCQLZFPESA-N

> <PUBCHEM_SUBSTANCE_SYNONYM>
SCHEMBL16118224

> <PUBCHEM_XREF_EXT_ID>
SCHEMBL16118224

> <PUBCHEM_EXT_DATASOURCE_URL>
https://www.surechembl.org/

> <PUBCHEM_EXT_SUBSTANCE_URL>
https://www.surechembl.org/chemical/SCHEMBL16118224

> <PUBCHEM_CID_ASSOCIATIONS>
117607364  1

> <PUBCHEM_COORDINATE_TYPE>
1
3

> <PUBCHEM_BONDANNOTATIONS>
12  22  6

$$$$
