310948788
  -OEChem-07211613022D

 33 38  0     1  0  0  0  0  0999 V2000
   -2.2220    2.5573    0.0000 O   0  0  0  0  0  0  0  0  0  0  0  0
   -2.5293   -0.2236    0.0000 N   0  0  0  0  0  0  0  0  0  0  0  0
   -1.7189    0.0000    0.0000 N   0  0  0  0  0  0  0  0  0  0  0  0
   -0.9642    1.2857    0.0000 N   0  0  0  0  0  0  0  0  0  0  0  0
   -3.5775    2.0403    0.0000 N   0  0  0  0  0  0  0  0  0  0  0  0
    3.3819   -1.2298    0.0000 N   0  0  0  0  0  0  0  0  0  0  0  0
   -0.6428   -1.3834    0.0000 N   0  0  0  0  0  0  0  0  0  0  0  0
   -2.4595    1.1459    0.0000 C   0  0  0  0  0  0  0  0  0  0  0  0
   -2.9906    0.4752    0.0000 C   0  0  0  0  0  0  0  0  0  0  0  0
   -1.6630    0.8384    0.0000 C   0  0  0  0  0  0  0  0  0  0  0  0
   -2.8228   -1.0201    0.0000 C   0  0  3  0  0  0  0  0  0  0  0  0
   -2.7670    1.9005    0.0000 C   0  0  0  0  0  0  0  0  0  0  0  0
   -3.8151    0.6289    0.0000 C   0  0  0  0  0  0  0  0  0  0  0  0
   -2.3058   -1.6490    0.0000 C   0  0  3  0  0  0  0  0  0  0  0  0
   -0.2376    0.8804    0.0000 C   0  0  0  0  0  0  0  0  0  0  0  0
   -4.1085    1.3695    0.0000 C   0  0  0  0  0  0  0  0  0  0  0  0
   -3.6474   -1.1459    0.0000 C   0  0  0  0  0  0  0  0  0  0  0  0
    1.1738    0.0559    0.0000 C   0  0  0  0  0  0  0  0  0  0  0  0
    1.9425   -0.3913    0.0000 C   0  0  0  0  0  0  0  0  0  0  0  0
   -2.5992   -2.4315    0.0000 C   0  0  0  0  0  0  0  0  0  0  0  0
    0.4612    1.2717    0.0000 C   0  0  0  0  0  0  0  0  0  0  0  0
   -0.2376    0.0419    0.0000 C   0  0  0  0  0  0  0  0  0  0  0  0
   -1.4673   -1.5232    0.0000 C   0  0  0  0  0  0  0  0  0  0  0  0
   -3.9408   -1.9145    0.0000 C   0  0  0  0  0  0  0  0  0  0  0  0
    2.6412   -1.6071    0.0000 C   0  0  3  0  0  0  0  0  0  0  0  0
    3.3400   -0.3773    0.0000 C   0  0  3  0  0  0  0  0  0  0  0  0
    1.2018    0.8664    0.0000 C   0  0  0  0  0  0  0  0  0  0  0  0
    0.4892   -0.3773    0.0000 C   0  0  0  0  0  0  0  0  0  0  0  0
    1.9425   -1.2158    0.0000 C   0  0  0  0  0  0  0  0  0  0  0  0
    2.6412    0.0140    0.0000 C   0  0  0  0  0  0  0  0  0  0  0  0
   -3.4238   -2.5573    0.0000 C   0  0  0  0  0  0  0  0  0  0  0  0
    2.3477   -1.0201    0.0000 C   0  0  0  0  0  0  0  0  0  0  0  0
    2.6831   -0.4332    0.0000 C   0  0  0  0  0  0  0  0  0  0  0  0
  1 12  2  0  0  0  0
  2  3  1  0  0  0  0
  2  9  1  0  0  0  0
 11  2  1  6  0  0  0
  3 10  2  0  0  0  0
  4 10  1  0  0  0  0
  4 15  1  0  0  0  0
  5 12  1  0  0  0  0
  5 16  1  0  0  0  0
  6 25  1  0  0  0  0
  6 26  1  0  0  0  0
  7 23  3  0  0  0  0
  8  9  2  0  0  0  0
  8 10  1  0  0  0  0
  8 12  1  0  0  0  0
  9 13  1  0  0  0  0
 11 14  1  0  0  0  0
 11 17  1  0  0  0  0
 13 16  2  0  0  0  0
 14 20  1  0  0  0  0
 14 23  1  1  0  0  0
 15 21  2  0  0  0  0
 15 22  1  0  0  0  0
 17 24  1  0  0  0  0
 18 19  1  0  0  0  0
 18 27  2  0  0  0  0
 18 28  1  0  0  0  0
 19 29  1  1  0  0  0
 19 30  1  0  0  0  0
 20 31  1  0  0  0  0
 21 27  1  0  0  0  0
 22 28  2  0  0  0  0
 24 31  1  0  0  0  0
 25 29  1  1  0  0  0
 25 32  1  0  0  0  0
 26 30  1  1  0  0  0
 26 33  1  0  0  0  0
 32 33  1  0  0  0  0
M  END
> <PUBCHEM_COMPOUND_ID_TYPE>
0

> <PUBCHEM_TOTAL_CHARGE>
0

> <PUBCHEM_SUBSTANCE_ID>
310948788

> <PUBCHEM_SUBSTANCE_VERSION>
1

> <PUBCHEM_EXT_DATASOURCE_NAME>
4488

> <PUBCHEM_EXT_DATASOURCE_REGID>
SCHEMBL16126972

> <PUBCHEM_SUBSTANCE_COMMENT>
InChI=1S/C26H30N6O/c27-15-17-3-1-2-4-22(17)32-23-11-12-28-26(33)24(23)25(31-32)30-19-7-5-16(6-8-19)18-13-20-9-10-21(14-18)29-20/h5-8,11-12,17-18,20-22,29H,1-4,9-10,13-14H2,(H,28,33)(H,30,31)/t17-,18-,20-,21+,22+/m1/s1
InChIKey=XCRURJVKVSWTAM-MPCSADPFSA-N

> <PUBCHEM_SUBSTANCE_SYNONYM>
SCHEMBL16126972

> <PUBCHEM_XREF_EXT_ID>
SCHEMBL16126972

> <PUBCHEM_EXT_DATASOURCE_URL>
https://www.surechembl.org/

> <PUBCHEM_EXT_SUBSTANCE_URL>
https://www.surechembl.org/chemical/SCHEMBL16126972

> <PUBCHEM_CID_ASSOCIATIONS>
117614079  1

> <PUBCHEM_COORDINATE_TYPE>
1
3

> <PUBCHEM_BONDANNOTATIONS>
14  23  5
19  29  5
11  2  6
25  29  5
26  30  5

$$$$
