310947302
  -OEChem-07211613022D

 37 41  0     1  0  0  0  0  0999 V2000
   -2.1753    2.4894    0.0000 O   0  0  0  0  0  0  0  0  0  0  0  0
    4.0227    0.3419    0.0000 O   0  0  0  0  0  0  0  0  0  0  0  0
    5.4517    0.3419    0.0000 O   0  0  0  0  0  0  0  0  0  0  0  0
    0.7528    0.1720    0.0000 N   0  0  0  0  0  0  0  0  0  0  0  0
    1.2377    0.8394    0.0000 N   0  0  0  0  0  0  0  0  0  0  0  0
   -2.8897    1.2519    0.0000 N   0  0  0  0  0  0  0  0  0  0  0  0
   -0.0319    0.4269    0.0000 C   0  0  0  0  0  0  0  0  0  0  0  0
   -0.0319    1.2519    0.0000 C   0  0  0  0  0  0  0  0  0  0  0  0
    0.7528    1.5069    0.0000 C   0  0  0  0  0  0  0  0  0  0  0  0
   -0.7463    1.6644    0.0000 C   0  0  0  0  0  0  0  0  0  0  0  0
   -1.4608    1.2519    0.0000 C   0  0  0  0  0  0  0  0  0  0  0  0
   -0.7463    0.0144    0.0000 C   0  0  0  0  0  0  0  0  0  0  0  0
    0.9663   -0.6249    0.0000 C   0  0  0  0  0  0  0  0  0  0  0  0
   -1.4608    0.4269    0.0000 C   0  0  0  0  0  0  0  0  0  0  0  0
    1.7632   -0.8384    0.0000 C   0  0  0  0  0  0  0  0  0  0  0  0
   -2.1753    1.6644    0.0000 C   0  0  0  0  0  0  0  0  0  0  0  0
    3.3570   -1.2655    0.0000 C   0  0  0  0  0  0  0  0  0  0  0  0
    4.1538   -1.4790    0.0000 C   0  0  0  0  0  0  0  0  0  0  0  0
    1.1653    2.2213    0.0000 C   0  0  0  0  0  0  0  0  0  0  0  0
    4.7372   -0.8956    0.0000 C   0  0  0  0  0  0  0  0  0  0  0  0
    1.9767   -1.6353    0.0000 C   0  0  0  0  0  0  0  0  0  0  0  0
    2.3465   -0.2551    0.0000 C   0  0  0  0  0  0  0  0  0  0  0  0
    2.7736   -1.8488    0.0000 C   0  0  0  0  0  0  0  0  0  0  0  0
    3.1434   -0.4686    0.0000 C   0  0  0  0  0  0  0  0  0  0  0  0
    4.3674   -2.2759    0.0000 C   0  0  0  0  0  0  0  0  0  0  0  0
   -3.6042    1.6644    0.0000 C   0  0  3  0  0  0  0  0  0  0  0  0
    4.7372   -0.0706    0.0000 C   0  0  0  0  0  0  0  0  0  0  0  0
    5.5341   -1.1092    0.0000 C   0  0  0  0  0  0  0  0  0  0  0  0
   -4.3187    1.2519    0.0000 C   0  0  0  0  0  0  0  0  0  0  0  0
    5.1643   -2.4894    0.0000 C   0  0  0  0  0  0  0  0  0  0  0  0
    5.7476   -1.9061    0.0000 C   0  0  0  0  0  0  0  0  0  0  0  0
   -5.0332    1.6644    0.0000 C   0  0  0  0  0  0  0  0  0  0  0  0
   -4.3187    0.4269    0.0000 C   0  0  0  0  0  0  0  0  0  0  0  0
   -3.6042    2.4894    0.0000 C   0  0  0  0  0  0  0  0  0  0  0  0
   -5.7476    1.2519    0.0000 C   0  0  0  0  0  0  0  0  0  0  0  0
   -5.0332    0.0144    0.0000 C   0  0  0  0  0  0  0  0  0  0  0  0
   -5.7476    0.4269    0.0000 C   0  0  0  0  0  0  0  0  0  0  0  0
  1 16  2  0  0  0  0
  2 27  2  0  0  0  0
  3 27  1  0  0  0  0
  4  5  1  0  0  0  0
  4  7  1  0  0  0  0
  4 13  1  0  0  0  0
  5  9  2  0  0  0  0
  6 16  1  0  0  0  0
  6 26  1  0  0  0  0
  7  8  1  0  0  0  0
  7 12  2  0  0  0  0
  8  9  1  0  0  0  0
  8 10  2  0  0  0  0
  9 19  1  0  0  0  0
 10 11  1  0  0  0  0
 11 14  2  0  0  0  0
 11 16  1  0  0  0  0
 12 14  1  0  0  0  0
 13 15  1  0  0  0  0
 15 21  2  0  0  0  0
 15 22  1  0  0  0  0
 17 18  1  0  0  0  0
 17 23  2  0  0  0  0
 17 24  1  0  0  0  0
 18 20  1  0  0  0  0
 18 25  2  0  0  0  0
 20 27  1  0  0  0  0
 20 28  2  0  0  0  0
 21 23  1  0  0  0  0
 22 24  2  0  0  0  0
 25 30  1  0  0  0  0
 26 29  1  0  0  0  0
 26 34  1  6  0  0  0
 28 31  1  0  0  0  0
 29 32  1  0  0  0  0
 29 33  1  0  0  0  0
 30 31  2  0  0  0  0
 32 35  1  0  0  0  0
 33 36  1  0  0  0  0
 35 37  1  0  0  0  0
 36 37  1  0  0  0  0
M  END
> <PUBCHEM_COMPOUND_ID_TYPE>
0

> <PUBCHEM_TOTAL_CHARGE>
0

> <PUBCHEM_SUBSTANCE_ID>
310947302

> <PUBCHEM_SUBSTANCE_VERSION>
1

> <PUBCHEM_EXT_DATASOURCE_NAME>
4488

> <PUBCHEM_EXT_DATASOURCE_REGID>
SCHEMBL16125457

> <PUBCHEM_SUBSTANCE_COMMENT>
InChI=1S/C31H33N3O3/c1-20(23-8-4-3-5-9-23)32-30(35)25-16-17-29-28(18-25)21(2)33-34(29)19-22-12-14-24(15-13-22)26-10-6-7-11-27(26)31(36)37/h6-7,10-18,20,23H,3-5,8-9,19H2,1-2H3,(H,32,35)(H,36,37)/t20-/m0/s1
InChIKey=KIXHNTSUZGKECL-FQEVSTJZSA-N

> <PUBCHEM_SUBSTANCE_SYNONYM>
SCHEMBL16125457

> <PUBCHEM_XREF_EXT_ID>
SCHEMBL16125457

> <PUBCHEM_EXT_DATASOURCE_URL>
https://www.surechembl.org/

> <PUBCHEM_EXT_SUBSTANCE_URL>
https://www.surechembl.org/chemical/SCHEMBL16125457

> <PUBCHEM_CID_ASSOCIATIONS>
71576990  1

> <PUBCHEM_COORDINATE_TYPE>
1
3

> <PUBCHEM_BONDANNOTATIONS>
26  34  6

$$$$
