310949770
  -OEChem-07211613022D

 26 28  0     0  0  0  0  0  0999 V2000
    0.9462    1.6742    0.0000 O   0  0  0  0  0  0  0  0  0  0  0  0
   -1.9167    0.8492    0.0000 O   0  0  0  0  0  0  0  0  0  0  0  0
    1.7470   -0.4124    0.0000 N   0  0  0  0  0  0  0  0  0  0  0  0
    2.5719   -0.5823    0.0000 N   0  0  0  0  0  0  0  0  0  0  0  0
    0.2426    0.4367    0.0000 N   0  0  0  0  0  0  0  0  0  0  0  0
    4.0519    1.0676    0.0000 N   0  0  0  0  0  0  0  0  0  0  0  0
    2.4020    0.7764    0.0000 C   0  0  0  0  0  0  0  0  0  0  0  0
    1.6499    0.4367    0.0000 C   0  0  0  0  0  0  0  0  0  0  0  0
    2.9601    0.1699    0.0000 C   0  0  0  0  0  0  0  0  0  0  0  0
    0.9462    0.8249    0.0000 C   0  0  0  0  0  0  0  0  0  0  0  0
    2.6932    1.5528    0.0000 C   0  0  0  0  0  0  0  0  0  0  0  0
   -2.6689   -0.3882    0.0000 C   0  0  0  0  0  0  0  0  0  0  0  0
    3.7850    0.2669    0.0000 C   0  0  0  0  0  0  0  0  0  0  0  0
   -2.6204    0.4610    0.0000 C   0  0  0  0  0  0  0  0  0  0  0  0
   -1.8925   -0.8249    0.0000 C   0  0  0  0  0  0  0  0  0  0  0  0
    3.4938    1.6742    0.0000 C   0  0  0  0  0  0  0  0  0  0  0  0
   -0.4853    0.8492    0.0000 C   0  0  0  0  0  0  0  0  0  0  0  0
   -3.3969   -0.7764    0.0000 C   0  0  0  0  0  0  0  0  0  0  0  0
   -3.3241    0.8249    0.0000 C   0  0  0  0  0  0  0  0  0  0  0  0
   -1.1889    0.4367    0.0000 C   0  0  0  0  0  0  0  0  0  0  0  0
    0.2669   -0.4124    0.0000 C   0  0  0  0  0  0  0  0  0  0  0  0
   -4.0519   -0.3882    0.0000 C   0  0  0  0  0  0  0  0  0  0  0  0
   -4.0519    0.4367    0.0000 C   0  0  0  0  0  0  0  0  0  0  0  0
   -1.1889   -0.3882    0.0000 C   0  0  0  0  0  0  0  0  0  0  0  0
   -1.2132   -1.2617    0.0000 C   0  0  0  0  0  0  0  0  0  0  0  0
   -1.9167   -1.6742    0.0000 C   0  0  0  0  0  0  0  0  0  0  0  0
  1 10  2  0  0  0  0
  2 14  1  0  0  0  0
  2 20  1  0  0  0  0
  3  4  1  0  0  0  0
  3  8  2  0  0  0  0
  4  9  1  0  0  0  0
  5 10  1  0  0  0  0
  5 17  1  0  0  0  0
  5 21  1  0  0  0  0
  6 13  1  0  0  0  0
  6 16  1  0  0  0  0
  7  8  1  0  0  0  0
  7  9  2  0  0  0  0
  7 11  1  0  0  0  0
  8 10  1  0  0  0  0
  9 13  1  0  0  0  0
 11 16  1  0  0  0  0
 12 14  1  0  0  0  0
 12 15  1  0  0  0  0
 12 18  2  0  0  0  0
 14 19  2  0  0  0  0
 15 24  1  0  0  0  0
 15 25  1  0  0  0  0
 15 26  1  0  0  0  0
 17 20  1  0  0  0  0
 18 22  1  0  0  0  0
 19 23  1  0  0  0  0
 22 23  1  0  0  0  0
M  END
> <PUBCHEM_COMPOUND_ID_TYPE>
0

> <PUBCHEM_TOTAL_CHARGE>
0

> <PUBCHEM_SUBSTANCE_ID>
310949770

> <PUBCHEM_SUBSTANCE_VERSION>
1

> <PUBCHEM_EXT_DATASOURCE_NAME>
4488

> <PUBCHEM_EXT_DATASOURCE_REGID>
SCHEMBL16127968

> <PUBCHEM_SUBSTANCE_COMMENT>
InChI=1S/C20H30N4O2/c1-20(2,3)15-7-5-6-8-17(15)26-12-11-24(4)19(25)18-14-9-10-21-13-16(14)22-23-18/h7-8,21H,5-6,9-13H2,1-4H3,(H,22,23)
InChIKey=VAMMLBBKXNJCDY-UHFFFAOYSA-N

> <PUBCHEM_SUBSTANCE_SYNONYM>
SCHEMBL16127968

> <PUBCHEM_XREF_EXT_ID>
SCHEMBL16127968

> <PUBCHEM_EXT_DATASOURCE_URL>
https://www.surechembl.org/

> <PUBCHEM_EXT_SUBSTANCE_URL>
https://www.surechembl.org/chemical/SCHEMBL16127968

> <PUBCHEM_CID_ASSOCIATIONS>
117615095  1

> <PUBCHEM_COORDINATE_TYPE>
1
3

$$$$
