310946375
  -OEChem-07211613022D

 28 29  0     1  0  0  0  0  0999 V2000
   -3.4938    1.0482    0.0000 I   0  0  0  0  0  0  0  0  0  0  0  0
   -2.0648    3.5232    0.0000 I   0  0  0  0  0  0  0  0  0  0  0  0
   -3.4938    2.6981    0.0000 O   0  0  0  0  0  0  0  0  0  0  0  0
   -0.8740    3.9357    0.0000 O   0  0  0  0  0  0  0  0  0  0  0  0
   -1.8267    2.2856    0.0000 O   0  0  0  0  0  0  0  0  0  0  0  0
    0.0785    2.2856    0.0000 N   0  0  0  0  0  0  0  0  0  0  0  0
    1.5075    1.4607    0.0000 N   0  0  0  0  0  0  0  0  0  0  0  0
   -2.7793    2.2856    0.0000 C   0  0  0  0  0  0  0  0  0  0  0  0
   -2.7793    1.4607    0.0000 C   0  0  0  0  0  0  0  0  0  0  0  0
   -2.0648    2.6981    0.0000 C   0  0  0  0  0  0  0  0  0  0  0  0
   -1.3503    1.4607    0.0000 C   0  0  0  0  0  0  0  0  0  0  0  0
   -2.0648    1.0482    0.0000 C   0  0  0  0  0  0  0  0  0  0  0  0
   -1.3503    2.2856    0.0000 C   0  0  0  0  0  0  0  0  0  0  0  0
   -4.2082    2.2856    0.0000 C   0  0  0  0  0  0  0  0  0  0  0  0
   -0.6360    1.0482    0.0000 C   0  0  0  0  0  0  0  0  0  0  0  0
    0.0785    1.4607    0.0000 C   0  0  3  0  0  0  0  0  0  0  0  0
   -4.9227    2.6981    0.0000 C   0  0  0  0  0  0  0  0  0  0  0  0
   -4.2082    1.4607    0.0000 C   0  0  0  0  0  0  0  0  0  0  0  0
   -0.8740    2.8357    0.0000 C   0  0  0  0  0  0  0  0  0  0  0  0
   -1.8267    4.4856    0.0000 C   0  0  0  0  0  0  0  0  0  0  0  0
   -5.6372    1.4607    0.0000 C   0  0  0  0  0  0  0  0  0  0  0  0
    0.7930    1.0482    0.0000 C   0  0  0  0  0  0  0  0  0  0  0  0
   -5.6372    2.2856    0.0000 C   0  0  0  0  0  0  0  0  0  0  0  0
   -4.9227    1.0482    0.0000 C   0  0  0  0  0  0  0  0  0  0  0  0
   -1.8267    5.5856    0.0000 C   0  0  0  0  0  0  0  0  0  0  0  0
   -2.7793    5.0357    0.0000 C   0  0  0  0  0  0  0  0  0  0  0  0
   -2.7793    3.9357    0.0000 C   0  0  0  0  0  0  0  0  0  0  0  0
   -6.3517    1.0482    0.0000 C   0  0  0  0  0  0  0  0  0  0  0  0
  1  9  1  0  0  0  0
  2 10  1  0  0  0  0
  3  8  1  0  0  0  0
  3 14  1  0  0  0  0
  4 19  1  0  0  0  0
  4 20  1  0  0  0  0
  5 19  2  0  0  0  0
 16  6  1  6  0  0  0
  6 19  1  0  0  0  0
  7 22  1  0  0  0  0
  8  9  2  0  0  0  0
  8 10  1  0  0  0  0
  9 12  1  0  0  0  0
 10 13  2  0  0  0  0
 11 12  2  0  0  0  0
 11 13  1  0  0  0  0
 11 15  1  0  0  0  0
 14 17  2  0  0  0  0
 14 18  1  0  0  0  0
 15 16  1  0  0  0  0
 16 22  1  0  0  0  0
 17 23  1  0  0  0  0
 18 24  2  0  0  0  0
 20 25  1  0  0  0  0
 20 26  1  0  0  0  0
 20 27  1  0  0  0  0
 21 23  2  0  0  0  0
 21 24  1  0  0  0  0
 21 28  1  0  0  0  0
M  END
> <PUBCHEM_COMPOUND_ID_TYPE>
0

> <PUBCHEM_TOTAL_CHARGE>
0

> <PUBCHEM_SUBSTANCE_ID>
310946375

> <PUBCHEM_SUBSTANCE_VERSION>
1

> <PUBCHEM_EXT_DATASOURCE_NAME>
4488

> <PUBCHEM_EXT_DATASOURCE_REGID>
SCHEMBL16124494

> <PUBCHEM_SUBSTANCE_COMMENT>
InChI=1S/C21H26I2N2O3/c1-13-5-7-16(8-6-13)27-19-17(22)10-14(11-18(19)23)9-15(12-24)25-20(26)28-21(2,3)4/h5-8,10-11,15H,9,12,24H2,1-4H3,(H,25,26)/t15-/m0/s1
InChIKey=BPFHZJWHRHUOPB-HNNXBMFYSA-N

> <PUBCHEM_SUBSTANCE_SYNONYM>
SCHEMBL16124494

> <PUBCHEM_XREF_EXT_ID>
SCHEMBL16124494

> <PUBCHEM_EXT_DATASOURCE_URL>
https://www.surechembl.org/

> <PUBCHEM_EXT_SUBSTANCE_URL>
https://www.surechembl.org/chemical/SCHEMBL16124494

> <PUBCHEM_CID_ASSOCIATIONS>
117612297  1

> <PUBCHEM_COORDINATE_TYPE>
1
3

> <PUBCHEM_BONDANNOTATIONS>
16  6  6

$$$$
