310934417
  -OEChem-07211613022D

 38 43  0     0  0  0  0  0  0999 V2000
    2.0236  -10.6085    0.0000 O   0  0  0  0  0  0  0  0  0  0  0  0
    0.6132  -10.6085    0.0000 O   0  0  0  0  0  0  0  0  0  0  0  0
    0.6132   -3.2500    0.0000 N   0  0  0  0  0  0  0  0  0  0  0  0
    0.0000   -2.6981    0.0000 N   0  0  0  0  0  0  0  0  0  0  0  0
    2.0236   -3.2500    0.0000 N   0  0  0  0  0  0  0  0  0  0  0  0
    2.7594   -0.1840    0.0000 N   0  0  0  0  0  0  0  0  0  0  0  0
    1.2877   -7.7264    0.0000 N   0  0  0  0  0  0  0  0  0  0  0  0
    0.6132   -6.5000    0.0000 N   0  0  0  0  0  0  0  0  0  0  0  0
    1.2877   -9.3820    0.0000 N   0  0  0  0  0  0  0  0  0  0  0  0
    1.1038   -2.0236    0.0000 C   0  0  0  0  0  0  0  0  0  0  0  0
    1.3491   -2.8208    0.0000 C   0  0  0  0  0  0  0  0  0  0  0  0
    1.6556   -1.4103    0.0000 C   0  0  0  0  0  0  0  0  0  0  0  0
    2.5141   -1.5944    0.0000 C   0  0  0  0  0  0  0  0  0  0  0  0
    1.2877   -4.4764    0.0000 C   0  0  0  0  0  0  0  0  0  0  0  0
    0.3066   -1.9009    0.0000 C   0  0  0  0  0  0  0  0  0  0  0  0
    0.6132   -4.0471    0.0000 C   0  0  0  0  0  0  0  0  0  0  0  0
    3.0047   -0.9811    0.0000 C   0  0  0  0  0  0  0  0  0  0  0  0
    1.2877   -5.2736    0.0000 C   0  0  0  0  0  0  0  0  0  0  0  0
    2.0236   -4.0471    0.0000 C   0  0  0  0  0  0  0  0  0  0  0  0
    1.4103   -0.6132    0.0000 C   0  0  0  0  0  0  0  0  0  0  0  0
    2.7594   -2.3302    0.0000 C   0  0  0  0  0  0  0  0  0  0  0  0
    1.2877   -6.9292    0.0000 C   0  0  0  0  0  0  0  0  0  0  0  0
    1.9623    0.0000    0.0000 C   0  0  0  0  0  0  0  0  0  0  0  0
    0.5519   -5.7028    0.0000 C   0  0  0  0  0  0  0  0  0  0  0  0
    2.0236   -5.7028    0.0000 C   0  0  0  0  0  0  0  0  0  0  0  0
    3.8019   -1.1038    0.0000 C   0  0  0  0  0  0  0  0  0  0  0  0
    2.0236   -6.5000    0.0000 C   0  0  0  0  0  0  0  0  0  0  0  0
    3.5566   -2.5141    0.0000 C   0  0  0  0  0  0  0  0  0  0  0  0
    4.1085   -1.9009    0.0000 C   0  0  0  0  0  0  0  0  0  0  0  0
    0.6132   -8.1556    0.0000 C   0  0  0  0  0  0  0  0  0  0  0  0
    2.0236   -8.1556    0.0000 C   0  0  0  0  0  0  0  0  0  0  0  0
    2.0236   -9.0141    0.0000 C   0  0  0  0  0  0  0  0  0  0  0  0
    0.6132   -9.0141    0.0000 C   0  0  0  0  0  0  0  0  0  0  0  0
    1.2877  -10.2406    0.0000 C   0  0  0  0  0  0  0  0  0  0  0  0
    2.0236  -11.4670    0.0000 C   0  0  0  0  0  0  0  0  0  0  0  0
    1.1651  -11.4670    0.0000 C   0  0  0  0  0  0  0  0  0  0  0  0
    2.0236  -12.2641    0.0000 C   0  0  0  0  0  0  0  0  0  0  0  0
    2.8208  -11.4670    0.0000 C   0  0  0  0  0  0  0  0  0  0  0  0
  1 34  1  0  0  0  0
  1 35  1  0  0  0  0
  2 34  2  0  0  0  0
  3  4  1  0  0  0  0
  3 11  1  0  0  0  0
  3 16  1  0  0  0  0
  4 15  2  0  0  0  0
  5 11  1  0  0  0  0
  5 19  2  0  0  0  0
  6 17  2  0  0  0  0
  6 23  1  0  0  0  0
  7 22  1  0  0  0  0
  7 30  1  0  0  0  0
  7 31  1  0  0  0  0
  8 22  1  0  0  0  0
  8 24  2  0  0  0  0
  9 32  1  0  0  0  0
  9 33  1  0  0  0  0
  9 34  1  0  0  0  0
 10 11  2  0  0  0  0
 10 12  1  0  0  0  0
 10 15  1  0  0  0  0
 12 13  2  0  0  0  0
 12 20  1  0  0  0  0
 13 17  1  0  0  0  0
 13 21  1  0  0  0  0
 14 16  2  0  0  0  0
 14 18  1  0  0  0  0
 14 19  1  0  0  0  0
 17 26  1  0  0  0  0
 18 24  1  0  0  0  0
 18 25  2  0  0  0  0
 20 23  2  0  0  0  0
 21 28  2  0  0  0  0
 22 27  2  0  0  0  0
 25 27  1  0  0  0  0
 26 29  2  0  0  0  0
 28 29  1  0  0  0  0
 30 33  1  0  0  0  0
 31 32  1  0  0  0  0
 35 36  1  0  0  0  0
 35 37  1  0  0  0  0
 35 38  1  0  0  0  0
M  END
> <PUBCHEM_COMPOUND_ID_TYPE>
0

> <PUBCHEM_TOTAL_CHARGE>
0

> <PUBCHEM_SUBSTANCE_ID>
310934417

> <PUBCHEM_SUBSTANCE_VERSION>
1

> <PUBCHEM_EXT_DATASOURCE_NAME>
4488

> <PUBCHEM_EXT_DATASOURCE_REGID>
SCHEMBL16111892

> <PUBCHEM_SUBSTANCE_COMMENT>
InChI=1S/C29H29N7O2/c1-29(2,3)38-28(37)35-14-12-34(13-15-35)26-9-8-20(16-31-26)21-17-32-27-24(18-33-36(27)19-21)22-10-11-30-25-7-5-4-6-23(22)25/h4-11,16-19H,12-15H2,1-3H3
InChIKey=OEDVOHGEZVMCBC-UHFFFAOYSA-N

> <PUBCHEM_SUBSTANCE_SYNONYM>
SCHEMBL16111892

> <PUBCHEM_XREF_EXT_ID>
SCHEMBL16111892

> <PUBCHEM_EXT_DATASOURCE_URL>
https://www.surechembl.org/

> <PUBCHEM_EXT_SUBSTANCE_URL>
https://www.surechembl.org/chemical/SCHEMBL16111892

> <PUBCHEM_CID_ASSOCIATIONS>
117602633  1

> <PUBCHEM_COORDINATE_TYPE>
1
3

$$$$
