310939521
  -OEChem-07211613022D

 72 79  0     1  0  0  0  0  0999 V2000
    4.8731    1.9378    0.0000 S   0  0  0  0  0  0  0  0  0  0  0  0
   -1.7782    5.2082    0.0000 O   0  0  0  0  0  0  0  0  0  0  0  0
   -6.0161    3.4712    0.0000 O   0  0  0  0  0  0  0  0  0  0  0  0
   -0.6512    4.9062    0.0000 O   0  0  0  0  0  0  0  0  0  0  0  0
   -1.2467    7.4151    0.0000 O   0  0  0  0  0  0  0  0  0  0  0  0
   -0.1282    3.7793    0.0000 O   0  0  0  0  0  0  0  0  0  0  0  0
   -7.4451    1.8212    0.0000 O   0  0  0  0  0  0  0  0  0  0  0  0
   -6.0161    1.8212    0.0000 O   0  0  0  0  0  0  0  0  0  0  0  0
   -0.1282    2.3503    0.0000 N   0  0  0  0  0  0  0  0  0  0  0  0
   -3.8727    5.6207    0.0000 C   0  0  3  0  0  0  0  0  0  0  0  0
    4.8731    1.1128    0.0000 C   0  0  0  0  0  0  0  0  0  0  0  0
   -3.8727    4.7957    0.0000 C   0  0  3  0  0  0  0  0  0  0  0  0
   -3.0881    5.8756    0.0000 C   0  0  3  0  0  0  0  0  0  0  0  0
   -2.6032    5.2082    0.0000 C   0  0  3  0  0  0  0  0  0  0  0  0
   -5.3017    4.7957    0.0000 C   0  0  0  0  0  0  0  0  0  0  0  0
   -5.3017    5.6207    0.0000 C   0  0  0  0  0  0  0  0  0  0  0  0
   -3.0881    4.5408    0.0000 C   0  0  0  0  0  0  0  0  0  0  0  0
   -4.5872    6.0332    0.0000 C   0  0  0  0  0  0  0  0  0  0  0  0
   -4.5872    4.3832    0.0000 C   0  0  0  0  0  0  0  0  0  0  0  0
    4.0481    1.1128    0.0000 C   0  0  0  0  0  0  0  0  0  0  0  0
    5.6981    1.1128    0.0000 C   0  0  0  0  0  0  0  0  0  0  0  0
    4.8731    0.2878    0.0000 C   0  0  0  0  0  0  0  0  0  0  0  0
   -6.0161    4.3832    0.0000 C   0  0  0  0  0  0  0  0  0  0  0  0
   -2.6756    6.5901    0.0000 C   0  0  0  0  0  0  0  0  0  0  0  0
   -6.0161    6.0332    0.0000 C   0  0  0  0  0  0  0  0  0  0  0  0
   -1.3657    4.4937    0.0000 C   0  0  0  0  0  0  0  0  0  0  0  0
    4.1587   -0.1247    0.0000 C   0  0  0  0  0  0  0  0  0  0  0  0
    3.6356    1.8273    0.0000 C   0  0  0  0  0  0  0  0  0  0  0  0
    6.1106    0.3984    0.0000 C   0  0  0  0  0  0  0  0  0  0  0  0
    5.5876   -0.1247    0.0000 C   0  0  0  0  0  0  0  0  0  0  0  0
    3.6356    0.3984    0.0000 C   0  0  0  0  0  0  0  0  0  0  0  0
    6.1106    1.8273    0.0000 C   0  0  0  0  0  0  0  0  0  0  0  0
   -6.7306    4.7957    0.0000 C   0  0  0  0  0  0  0  0  0  0  0  0
   -6.7306    5.6207    0.0000 C   0  0  0  0  0  0  0  0  0  0  0  0
   -1.7782    3.7793    0.0000 C   0  0  3  0  0  0  0  0  0  0  0  0
    4.1587    2.3503    0.0000 C   0  0  0  0  0  0  0  0  0  0  0  0
   -1.9611    6.1776    0.0000 C   0  0  0  0  0  0  0  0  0  0  0  0
   -1.3657    3.0648    0.0000 C   0  0  3  0  0  0  0  0  0  0  0  0
    4.1587   -0.9497    0.0000 C   0  0  0  0  0  0  0  0  0  0  0  0
    2.8106    1.8273    0.0000 C   0  0  0  0  0  0  0  0  0  0  0  0
    6.9356    0.3984    0.0000 C   0  0  0  0  0  0  0  0  0  0  0  0
    5.5876   -0.9497    0.0000 C   0  0  0  0  0  0  0  0  0  0  0  0
    2.8106    0.3984    0.0000 C   0  0  0  0  0  0  0  0  0  0  0  0
    6.9356    1.8273    0.0000 C   0  0  0  0  0  0  0  0  0  0  0  0
    4.8731   -1.3622    0.0000 C   0  0  0  0  0  0  0  0  0  0  0  0
    2.3981    1.1128    0.0000 C   0  0  0  0  0  0  0  0  0  0  0  0
    7.3481    1.1128    0.0000 C   0  0  0  0  0  0  0  0  0  0  0  0
   -2.6032    3.7793    0.0000 C   0  0  0  0  0  0  0  0  0  0  0  0
   -6.7306    3.0587    0.0000 C   0  0  0  0  0  0  0  0  0  0  0  0
   -1.2467    6.5901    0.0000 C   0  0  3  0  0  0  0  0  0  0  0  0
   -0.5407    3.0648    0.0000 C   0  0  0  0  0  0  0  0  0  0  0  0
    3.4442    1.9378    0.0000 C   0  0  0  0  0  0  0  0  0  0  0  0
   -1.7782    2.3503    0.0000 C   0  0  0  0  0  0  0  0  0  0  0  0
   -3.0157    3.0648    0.0000 C   0  0  0  0  0  0  0  0  0  0  0  0
   -6.7306    2.2337    0.0000 C   0  0  0  0  0  0  0  0  0  0  0  0
   -2.6032    2.3503    0.0000 C   0  0  0  0  0  0  0  0  0  0  0  0
   -0.5322    6.1776    0.0000 C   0  0  0  0  0  0  0  0  0  0  0  0
    2.7297    2.3503    0.0000 C   0  0  0  0  0  0  0  0  0  0  0  0
    0.5863    1.9378    0.0000 C   0  0  0  0  0  0  0  0  0  0  0  0
    2.0152    1.9378    0.0000 C   0  0  0  0  0  0  0  0  0  0  0  0
    0.1823    6.5901    0.0000 C   0  0  0  0  0  0  0  0  0  0  0  0
    1.3008    2.3503    0.0000 C   0  0  0  0  0  0  0  0  0  0  0  0
   -7.4451    0.9962    0.0000 C   0  0  0  0  0  0  0  0  0  0  0  0
    0.8968    6.1776    0.0000 C   0  0  0  0  0  0  0  0  0  0  0  0
   -8.1595    0.5837    0.0000 C   0  0  0  0  0  0  0  0  0  0  0  0
   -8.8740    0.9962    0.0000 C   0  0  0  0  0  0  0  0  0  0  0  0
   -8.1595   -0.2413    0.0000 C   0  0  0  0  0  0  0  0  0  0  0  0
    1.6112    6.5901    0.0000 C   0  0  0  0  0  0  0  0  0  0  0  0
   -9.5885    0.5837    0.0000 C   0  0  0  0  0  0  0  0  0  0  0  0
   -8.8740   -0.6538    0.0000 C   0  0  0  0  0  0  0  0  0  0  0  0
   -9.5885   -0.2413    0.0000 C   0  0  0  0  0  0  0  0  0  0  0  0
    2.3257    6.1776    0.0000 C   0  0  0  0  0  0  0  0  0  0  0  0
  1 11  1  0  0  0  0
  1 36  1  0  0  0  0
 14  2  1  6  0  0  0
  2 26  1  0  0  0  0
  3 23  1  0  0  0  0
  3 49  1  0  0  0  0
  4 26  2  0  0  0  0
 50  5  1  1  0  0  0
  6 51  2  0  0  0  0
  7 55  1  0  0  0  0
  7 63  1  0  0  0  0
  8 55  2  0  0  0  0
  9 51  1  0  0  0  0
  9 59  1  0  0  0  0
 10 12  1  0  0  0  0
 10 13  1  0  0  0  0
 10 18  1  6  0  0  0
 11 20  1  0  0  0  0
 11 21  1  0  0  0  0
 11 22  1  0  0  0  0
 12 17  1  6  0  0  0
 12 19  1  0  0  0  0
 13 14  1  0  0  0  0
 13 24  1  1  0  0  0
 14 17  1  0  0  0  0
 15 16  2  0  0  0  0
 15 19  1  0  0  0  0
 15 23  1  0  0  0  0
 16 18  1  0  0  0  0
 16 25  1  0  0  0  0
 20 28  2  0  0  0  0
 20 31  1  0  0  0  0
 21 29  2  0  0  0  0
 21 32  1  0  0  0  0
 22 27  2  0  0  0  0
 22 30  1  0  0  0  0
 23 33  2  0  0  0  0
 24 37  1  0  0  0  0
 25 34  2  0  0  0  0
 35 26  1  1  0  0  0
 27 39  1  0  0  0  0
 28 40  1  0  0  0  0
 29 41  1  0  0  0  0
 30 42  2  0  0  0  0
 31 43  2  0  0  0  0
 32 44  2  0  0  0  0
 33 34  1  0  0  0  0
 35 38  1  0  0  0  0
 35 48  1  0  0  0  0
 36 52  1  0  0  0  0
 37 50  1  0  0  0  0
 38 51  1  1  0  0  0
 38 53  1  0  0  0  0
 39 45  2  0  0  0  0
 40 46  2  0  0  0  0
 41 47  2  0  0  0  0
 42 45  1  0  0  0  0
 43 46  1  0  0  0  0
 44 47  1  0  0  0  0
 48 54  1  0  0  0  0
 49 55  1  0  0  0  0
 50 57  1  0  0  0  0
 52 58  1  0  0  0  0
 53 56  1  0  0  0  0
 54 56  1  0  0  0  0
 57 61  1  0  0  0  0
 58 60  1  0  0  0  0
 59 62  1  0  0  0  0
 60 62  1  0  0  0  0
 61 64  1  0  0  0  0
 63 65  1  0  0  0  0
 64 68  1  0  0  0  0
 65 66  2  0  0  0  0
 65 67  1  0  0  0  0
 66 69  1  0  0  0  0
 67 70  2  0  0  0  0
 68 72  1  0  0  0  0
 69 71  2  0  0  0  0
 70 71  1  0  0  0  0
M  END
> <PUBCHEM_COMPOUND_ID_TYPE>
0

> <PUBCHEM_TOTAL_CHARGE>
0

> <PUBCHEM_SUBSTANCE_ID>
310939521

> <PUBCHEM_SUBSTANCE_VERSION>
1

> <PUBCHEM_EXT_DATASOURCE_NAME>
4488

> <PUBCHEM_EXT_DATASOURCE_REGID>
SCHEMBL16117450

> <PUBCHEM_SUBSTANCE_COMMENT>
InChI=1S/C63H77NO7S/c1-2-3-10-33-52(65)37-38-53-56-41-47-26-23-36-58(69-45-60(66)70-44-46-24-11-6-12-25-46)57(47)42-48(56)43-59(53)71-62(68)55-35-20-19-34-54(55)61(67)64-39-21-4-5-22-40-72-63(49-27-13-7-14-28-49,50-29-15-8-16-30-50)51-31-17-9-18-32-51/h6-9,11-18,23-32,36,48,52-56,59,65H,2-5,10,19-22,33-35,37-45H2,1H3,(H,64,67)/t48-,52-,53+,54-,55+,56-,59+/m0/s1
InChIKey=SNOJLXJNQYQIJE-IYZKTFBGSA-N

> <PUBCHEM_SUBSTANCE_SYNONYM>
SCHEMBL16117450

> <PUBCHEM_XREF_EXT_ID>
SCHEMBL16117450

> <PUBCHEM_EXT_DATASOURCE_URL>
https://www.surechembl.org/

> <PUBCHEM_EXT_SUBSTANCE_URL>
https://www.surechembl.org/chemical/SCHEMBL16117450

> <PUBCHEM_CID_ASSOCIATIONS>
117606817  1

> <PUBCHEM_COORDINATE_TYPE>
1
3

> <PUBCHEM_BONDANNOTATIONS>
10  18  6
12  17  6
13  24  5
14  2  6
35  26  5
38  51  5
50  5  5

$$$$
