310948991
  -OEChem-07211613022D

 26 29  0     1  0  0  0  0  0999 V2000
    1.1652    2.7357    0.0000 F   0  0  0  0  0  0  0  0  0  0  0  0
    1.5097    1.6820    0.0000 F   0  0  0  0  0  0  0  0  0  0  0  0
    0.4357    1.3578    0.0000 F   0  0  0  0  0  0  0  0  0  0  0  0
   -1.5097   -2.4319    0.0000 O   0  0  0  0  0  0  0  0  0  0  0  0
   -0.7397   -1.2159    0.0000 N   0  0  0  0  0  0  0  0  0  0  0  0
   -0.0304   -3.2425    0.0000 N   0  0  0  0  0  0  0  0  0  0  0  0
    0.6991   -3.6680    0.0000 N   0  0  0  0  0  0  0  0  0  0  0  0
   -0.3142    0.0405    0.0000 C   0  0  3  0  0  0  0  0  0  0  0  0
   -1.1652    0.0608    0.0000 C   0  0  3  0  0  0  0  0  0  0  0  0
   -0.7194    1.2564    0.0000 C   0  0  0  0  0  0  0  0  0  0  0  0
   -0.6789    2.1279    0.0000 C   0  0  0  0  0  0  0  0  0  0  0  0
   -0.0507    0.7903    0.0000 C   0  0  0  0  0  0  0  0  0  0  0  0
   -1.4085    0.7903    0.0000 C   0  0  0  0  0  0  0  0  0  0  0  0
    0.0101    2.4723    0.0000 C   0  0  0  0  0  0  0  0  0  0  0  0
   -0.0709   -0.7498    0.0000 C   0  0  0  0  0  0  0  0  0  0  0  0
   -1.4287   -0.7498    0.0000 C   0  0  0  0  0  0  0  0  0  0  0  0
    0.7802    2.0468    0.0000 C   0  0  0  0  0  0  0  0  0  0  0  0
   -0.7599   -2.0062    0.0000 C   0  0  0  0  0  0  0  0  0  0  0  0
   -1.4085    2.4926    0.0000 C   0  0  0  0  0  0  0  0  0  0  0  0
   -0.0101   -2.4319    0.0000 C   0  0  0  0  0  0  0  0  0  0  0  0
    0.0507    3.2830    0.0000 C   0  0  0  0  0  0  0  0  0  0  0  0
   -1.4085    3.2830    0.0000 C   0  0  0  0  0  0  0  0  0  0  0  0
   -0.6789    3.6680    0.0000 C   0  0  0  0  0  0  0  0  0  0  0  0
    0.7397   -2.0468    0.0000 C   0  0  0  0  0  0  0  0  0  0  0  0
    1.4692   -2.4521    0.0000 C   0  0  0  0  0  0  0  0  0  0  0  0
    1.4490   -3.2627    0.0000 C   0  0  0  0  0  0  0  0  0  0  0  0
  1 17  1  0  0  0  0
  2 17  1  0  0  0  0
  3 17  1  0  0  0  0
  4 18  2  0  0  0  0
  5 15  1  0  0  0  0
  5 16  1  0  0  0  0
  5 18  1  0  0  0  0
  6  7  1  0  0  0  0
  6 20  2  0  0  0  0
  7 26  2  0  0  0  0
  8  9  1  0  0  0  0
  8 12  1  0  0  0  0
  8 15  1  1  0  0  0
  9 13  1  0  0  0  0
  9 16  1  0  0  0  0
 10 11  1  0  0  0  0
 10 12  1  0  0  0  0
 10 13  1  0  0  0  0
 11 14  1  0  0  0  0
 11 19  2  0  0  0  0
 14 17  1  0  0  0  0
 14 21  2  0  0  0  0
 18 20  1  0  0  0  0
 19 22  1  0  0  0  0
 20 24  1  0  0  0  0
 21 23  1  0  0  0  0
 22 23  2  0  0  0  0
 24 25  2  0  0  0  0
 25 26  1  0  0  0  0
M  END
> <PUBCHEM_COMPOUND_ID_TYPE>
0

> <PUBCHEM_TOTAL_CHARGE>
0

> <PUBCHEM_SUBSTANCE_ID>
310948991

> <PUBCHEM_SUBSTANCE_VERSION>
1

> <PUBCHEM_EXT_DATASOURCE_NAME>
4488

> <PUBCHEM_EXT_DATASOURCE_REGID>
SCHEMBL16127179

> <PUBCHEM_SUBSTANCE_COMMENT>
InChI=1S/C19H18F3N3O/c20-19(21,22)16-5-2-1-4-15(16)12-8-13-10-25(11-14(13)9-12)18(26)17-6-3-7-23-24-17/h1-7,12-14H,8-11H2/t12?,13-,14?/m0/s1
InChIKey=LPVYQJSZUDWBNF-MOKVOYLWSA-N

> <PUBCHEM_SUBSTANCE_SYNONYM>
SCHEMBL16127179

> <PUBCHEM_XREF_EXT_ID>
SCHEMBL16127179

> <PUBCHEM_EXT_DATASOURCE_URL>
https://www.surechembl.org/

> <PUBCHEM_EXT_SUBSTANCE_URL>
https://www.surechembl.org/chemical/SCHEMBL16127179

> <PUBCHEM_CID_ASSOCIATIONS>
117614500  1

> <PUBCHEM_COORDINATE_TYPE>
1
3

> <PUBCHEM_BONDANNOTATIONS>
8  15  5

$$$$
