310933616
  -OEChem-07211613022D

 15 16  0     0  0  0  0  0  0999 V2000
    4.5170   -0.0584    0.0000 S   0  0  0  0  0  0  0  0  0  0  0  0
    1.2266   -1.4213    0.0000 O   0  0  0  0  0  0  0  0  0  0  0  0
    1.2266    0.0000    0.0000 O   0  0  0  0  0  0  0  0  0  0  0  0
    2.9594   -1.3824    0.0000 N   0  0  0  0  0  0  0  0  0  0  0  0
    3.7187   -1.1098    0.0000 C   0  0  0  0  0  0  0  0  0  0  0  0
    3.7187   -0.3310    0.0000 C   0  0  0  0  0  0  0  0  0  0  0  0
    2.4532   -0.7204    0.0000 C   0  0  0  0  0  0  0  0  0  0  0  0
    2.9594   -0.0584    0.0000 C   0  0  0  0  0  0  0  0  0  0  0  0
    4.5170   -1.3824    0.0000 C   0  0  0  0  0  0  0  0  0  0  0  0
    5.0038   -0.7204    0.0000 C   0  0  0  0  0  0  0  0  0  0  0  0
    1.6355   -0.7204    0.0000 C   0  0  0  0  0  0  0  0  0  0  0  0
    2.7258   -2.1806    0.0000 C   0  0  0  0  0  0  0  0  0  0  0  0
    5.8410   -0.7204    0.0000 C   0  0  0  0  0  0  0  0  0  0  0  0
    0.4089   -1.4213    0.0000 C   0  0  0  0  0  0  0  0  0  0  0  0
    0.0000   -2.1417    0.0000 C   0  0  0  0  0  0  0  0  0  0  0  0
  1  6  1  0  0  0  0
  1 10  1  0  0  0  0
  2 11  1  0  0  0  0
  2 14  1  0  0  0  0
  3 11  2  0  0  0  0
  4  5  1  0  0  0  0
  4  7  1  0  0  0  0
  4 12  1  0  0  0  0
  5  6  2  0  0  0  0
  5  9  1  0  0  0  0
  6  8  1  0  0  0  0
  7  8  2  0  0  0  0
  7 11  1  0  0  0  0
  9 10  2  0  0  0  0
 10 13  1  0  0  0  0
 14 15  1  0  0  0  0
M  END
> <PUBCHEM_COMPOUND_ID_TYPE>
0

> <PUBCHEM_TOTAL_CHARGE>
0

> <PUBCHEM_SUBSTANCE_ID>
310933616

> <PUBCHEM_SUBSTANCE_VERSION>
1

> <PUBCHEM_EXT_DATASOURCE_NAME>
4488

> <PUBCHEM_EXT_DATASOURCE_REGID>
SCHEMBL16111046

> <PUBCHEM_SUBSTANCE_COMMENT>
InChI=1S/C11H13NO2S/c1-4-14-11(13)9-6-10-8(12(9)3)5-7(2)15-10/h5-6H,4H2,1-3H3
InChIKey=PRPAPNYDYLOOMV-UHFFFAOYSA-N

> <PUBCHEM_SUBSTANCE_SYNONYM>
SCHEMBL16111046

> <PUBCHEM_XREF_EXT_ID>
SCHEMBL16111046

> <PUBCHEM_EXT_DATASOURCE_URL>
https://www.surechembl.org/

> <PUBCHEM_EXT_SUBSTANCE_URL>
https://www.surechembl.org/chemical/SCHEMBL16111046

> <PUBCHEM_CID_ASSOCIATIONS>
1438929  1

> <PUBCHEM_COORDINATE_TYPE>
1
3

$$$$
