310945812
  -OEChem-07211613022D

 39 42  0     1  0  0  0  0  0999 V2000
    4.0503    0.6762    0.0000 O   0  0  0  0  0  0  0  0  0  0  0  0
    2.9070   -1.2897    0.0000 O   0  0  0  0  0  0  0  0  0  0  0  0
    0.7320    0.7878    0.0000 O   0  0  0  0  0  0  0  0  0  0  0  0
   -1.4430   -1.2897    0.0000 O   0  0  0  0  0  0  0  0  0  0  0  0
   -4.3292   -1.2897    0.0000 O   0  0  0  0  0  0  0  0  0  0  0  0
    2.9070   -2.9628    0.0000 O   0  0  0  0  0  0  0  0  0  0  0  0
   -2.1541   -2.5445    0.0000 O   0  0  0  0  0  0  0  0  0  0  0  0
    1.4570   -0.4532    0.0000 N   0  0  0  0  0  0  0  0  0  0  0  0
   -0.7041   -0.0349    0.0000 N   0  0  0  0  0  0  0  0  0  0  0  0
   -2.8791   -0.4532    0.0000 N   0  0  3  0  0  0  0  0  0  0  0  0
    3.6320   -0.0070    0.0000 C   0  0  3  0  0  0  0  0  0  0  0  0
    2.8931   -0.4392    0.0000 C   0  0  0  0  0  0  0  0  0  0  0  0
    3.2416    0.6901    0.0000 C   0  0  0  0  0  0  0  0  0  0  0  0
    2.1820   -0.0349    0.0000 C   0  0  3  0  0  0  0  0  0  0  0  0
    4.3292   -0.4253    0.0000 C   0  0  0  0  0  0  0  0  0  0  0  0
    2.1820    1.3036    0.0000 C   0  0  0  0  0  0  0  0  0  0  0  0
    0.7320   -0.0488    0.0000 C   0  0  0  0  0  0  0  0  0  0  0  0
    0.0349   -0.4392    0.0000 C   0  0  3  0  0  0  0  0  0  0  0  0
    1.4570    1.7359    0.0000 C   0  0  0  0  0  0  0  0  0  0  0  0
    0.0070   -1.3036    0.0000 C   0  0  0  0  0  0  0  0  0  0  0  0
   -1.4291   -0.4253    0.0000 C   0  0  0  0  0  0  0  0  0  0  0  0
    0.7459   -1.6940    0.0000 C   0  0  0  0  0  0  0  0  0  0  0  0
    1.4570    2.5585    0.0000 C   0  0  0  0  0  0  0  0  0  0  0  0
    0.7320    1.3176    0.0000 C   0  0  0  0  0  0  0  0  0  0  0  0
   -2.1681   -0.0349    0.0000 C   0  0  0  0  0  0  0  0  0  0  0  0
   -2.8791   -1.2757    0.0000 C   0  0  3  0  0  0  0  0  0  0  0  0
    0.7459   -2.5306    0.0000 C   0  0  0  0  0  0  0  0  0  0  0  0
    1.4570   -1.2897    0.0000 C   0  0  0  0  0  0  0  0  0  0  0  0
   -3.6181   -0.0349    0.0000 C   0  0  0  0  0  0  0  0  0  0  0  0
    0.7320    2.9628    0.0000 C   0  0  0  0  0  0  0  0  0  0  0  0
    0.0209    1.7359    0.0000 C   0  0  0  0  0  0  0  0  0  0  0  0
    2.1681   -2.5306    0.0000 C   0  0  0  0  0  0  0  0  0  0  0  0
   -3.5902   -1.6940    0.0000 C   0  0  0  0  0  0  0  0  0  0  0  0
    1.4849   -2.9489    0.0000 C   0  0  0  0  0  0  0  0  0  0  0  0
    2.1820   -1.7080    0.0000 C   0  0  0  0  0  0  0  0  0  0  0  0
    0.0209    2.5585    0.0000 C   0  0  0  0  0  0  0  0  0  0  0  0
   -2.1681   -1.6940    0.0000 C   0  0  0  0  0  0  0  0  0  0  0  0
   -4.3153   -0.4392    0.0000 C   0  0  0  0  0  0  0  0  0  0  0  0
    3.6599   -2.5306    0.0000 C   0  0  0  0  0  0  0  0  0  0  0  0
  1 11  1  0  0  0  0
  1 13  1  0  0  0  0
  2 12  2  0  0  0  0
  3 17  2  0  0  0  0
  4 21  2  0  0  0  0
  5 33  1  0  0  0  0
  5 38  1  0  0  0  0
  6 32  1  0  0  0  0
  6 39  1  0  0  0  0
  7 37  1  0  0  0  0
 14  8  1  1  0  0  0
  8 17  1  0  0  0  0
 18  9  1  6  0  0  0
  9 21  1  0  0  0  0
 10 25  1  0  0  0  0
 10 26  1  0  0  0  0
 10 29  1  0  0  0  0
 11 12  1  1  0  0  0
 11 13  1  0  0  0  0
 11 15  1  6  0  0  0
 12 14  1  0  0  0  0
 14 16  1  0  0  0  0
 16 19  1  0  0  0  0
 17 18  1  0  0  0  0
 18 20  1  0  0  0  0
 19 23  2  0  0  0  0
 19 24  1  0  0  0  0
 20 22  1  0  0  0  0
 21 25  1  0  0  0  0
 22 27  2  0  0  0  0
 22 28  1  0  0  0  0
 23 30  1  0  0  0  0
 24 31  2  0  0  0  0
 26 33  1  0  0  0  0
 26 37  1  6  0  0  0
 27 34  1  0  0  0  0
 28 35  2  0  0  0  0
 29 38  1  0  0  0  0
 30 36  2  0  0  0  0
 31 36  1  0  0  0  0
 32 34  2  0  0  0  0
 32 35  1  0  0  0  0
M  END
> <PUBCHEM_COMPOUND_ID_TYPE>
0

> <PUBCHEM_TOTAL_CHARGE>
0

> <PUBCHEM_SUBSTANCE_ID>
310945812

> <PUBCHEM_SUBSTANCE_VERSION>
1

> <PUBCHEM_EXT_DATASOURCE_NAME>
4488

> <PUBCHEM_EXT_DATASOURCE_REGID>
SCHEMBL16123916

> <PUBCHEM_SUBSTANCE_COMMENT>
InChI=1S/C29H37N3O7/c1-29(19-39-29)27(35)24(14-20-6-4-3-5-7-20)31-28(36)25(15-21-8-10-23(37-2)11-9-21)30-26(34)16-32-12-13-38-18-22(32)17-33/h3-11,22,24-25,33H,12-19H2,1-2H3,(H,30,34)(H,31,36)/t22-,24+,25+,29-/m1/s1
InChIKey=MPSDLKFYMPGWKZ-KIZPDCLMSA-N

> <PUBCHEM_SUBSTANCE_SYNONYM>
SCHEMBL16123916

> <PUBCHEM_XREF_EXT_ID>
SCHEMBL16123916

> <PUBCHEM_EXT_DATASOURCE_URL>
https://www.surechembl.org/

> <PUBCHEM_EXT_SUBSTANCE_URL>
https://www.surechembl.org/chemical/SCHEMBL16123916

> <PUBCHEM_CID_ASSOCIATIONS>
117611798  1

> <PUBCHEM_COORDINATE_TYPE>
1
3

> <PUBCHEM_BONDANNOTATIONS>
11  12  5
11  15  6
26  37  6
14  8  5
18  9  6

$$$$
