310948312
  -OEChem-07211613022D

 40 44  0     0  0  0  0  0  0999 V2000
   -2.1649   -3.4729    0.0000 S   0  0  0  0  0  0  0  0  0  0  0  0
    2.8281   -3.8783    0.0000 F   0  0  0  0  0  0  0  0  0  0  0  0
    2.5149   -2.7544    0.0000 F   0  0  0  0  0  0  0  0  0  0  0  0
    1.7043   -4.1362    0.0000 F   0  0  0  0  0  0  0  0  0  0  0  0
    0.8567    1.5016    0.0000 O   0  0  0  0  0  0  0  0  0  0  0  0
    1.3910   -3.0492    0.0000 O   0  0  0  0  0  0  0  0  0  0  0  0
   -2.5518   -2.8097    0.0000 O   0  0  0  0  0  0  0  0  0  0  0  0
   -1.7595   -4.1730    0.0000 O   0  0  0  0  0  0  0  0  0  0  0  0
   -0.2487    4.1730    0.0000 O   0  0  0  0  0  0  0  0  0  0  0  0
   -0.7462    1.5200    0.0000 N   0  0  0  0  0  0  0  0  0  0  0  0
    1.9990    0.8199    0.0000 N   0  0  0  0  0  0  0  0  0  0  0  0
   -0.0829    1.9990    0.0000 N   0  0  0  0  0  0  0  0  0  0  0  0
   -0.0276    0.2856    0.0000 C   0  0  0  0  0  0  0  0  0  0  0  0
    0.6725    0.6909    0.0000 C   0  0  0  0  0  0  0  0  0  0  0  0
   -0.7462    0.6909    0.0000 C   0  0  0  0  0  0  0  0  0  0  0  0
    1.3910    0.2856    0.0000 C   0  0  0  0  0  0  0  0  0  0  0  0
   -0.0461   -0.5619    0.0000 C   0  0  0  0  0  0  0  0  0  0  0  0
   -0.7278   -0.9673    0.0000 C   0  0  0  0  0  0  0  0  0  0  0  0
    1.3910   -0.5619    0.0000 C   0  0  0  0  0  0  0  0  0  0  0  0
    1.6674    1.5753    0.0000 C   0  0  0  0  0  0  0  0  0  0  0  0
   -1.4279    0.2856    0.0000 C   0  0  0  0  0  0  0  0  0  0  0  0
   -0.7462   -1.7964    0.0000 C   0  0  0  0  0  0  0  0  0  0  0  0
   -1.4279   -0.5619    0.0000 C   0  0  0  0  0  0  0  0  0  0  0  0
   -1.3910    1.9990    0.0000 C   0  0  0  0  0  0  0  0  0  0  0  0
    0.7093   -0.9673    0.0000 C   0  0  0  0  0  0  0  0  0  0  0  0
    2.1096   -0.9673    0.0000 C   0  0  0  0  0  0  0  0  0  0  0  0
   -1.4279   -2.2201    0.0000 C   0  0  0  0  0  0  0  0  0  0  0  0
   -0.3224    2.7729    0.0000 C   0  0  0  0  0  0  0  0  0  0  0  0
   -1.4463   -3.0492    0.0000 C   0  0  0  0  0  0  0  0  0  0  0  0
   -0.0276   -2.2201    0.0000 C   0  0  0  0  0  0  0  0  0  0  0  0
   -1.1331    2.7913    0.0000 C   0  0  0  0  0  0  0  0  0  0  0  0
    1.3910   -2.2017    0.0000 C   0  0  0  0  0  0  0  0  0  0  0  0
    0.7093   -1.7964    0.0000 C   0  0  0  0  0  0  0  0  0  0  0  0
    2.1096   -1.7964    0.0000 C   0  0  0  0  0  0  0  0  0  0  0  0
    2.0727    2.3123    0.0000 C   0  0  0  0  0  0  0  0  0  0  0  0
   -0.7278   -3.4545    0.0000 C   0  0  0  0  0  0  0  0  0  0  0  0
   -0.0276   -3.0492    0.0000 C   0  0  0  0  0  0  0  0  0  0  0  0
    0.1566    3.4545    0.0000 C   0  0  0  0  0  0  0  0  0  0  0  0
    2.1096   -3.4545    0.0000 C   0  0  0  0  0  0  0  0  0  0  0  0
   -2.8281   -3.8783    0.0000 C   0  0  0  0  0  0  0  0  0  0  0  0
  1  7  2  0  0  0  0
  1  8  2  0  0  0  0
  1 29  1  0  0  0  0
  1 40  1  0  0  0  0
  2 39  1  0  0  0  0
  3 39  1  0  0  0  0
  4 39  1  0  0  0  0
  5 14  1  0  0  0  0
  5 20  1  0  0  0  0
  6 32  1  0  0  0  0
  6 39  1  0  0  0  0
  9 38  1  0  0  0  0
 10 12  1  0  0  0  0
 10 15  1  0  0  0  0
 10 24  1  0  0  0  0
 11 16  1  0  0  0  0
 11 20  2  0  0  0  0
 12 28  2  0  0  0  0
 13 14  1  0  0  0  0
 13 15  1  0  0  0  0
 13 17  2  0  0  0  0
 14 16  2  0  0  0  0
 15 21  2  0  0  0  0
 16 19  1  0  0  0  0
 17 18  1  0  0  0  0
 18 22  1  0  0  0  0
 18 23  2  0  0  0  0
 19 25  2  0  0  0  0
 19 26  1  0  0  0  0
 20 35  1  0  0  0  0
 21 23  1  0  0  0  0
 22 27  2  0  0  0  0
 22 30  1  0  0  0  0
 24 31  2  0  0  0  0
 25 33  1  0  0  0  0
 26 34  2  0  0  0  0
 27 29  1  0  0  0  0
 28 31  1  0  0  0  0
 28 38  1  0  0  0  0
 29 36  2  0  0  0  0
 30 37  2  0  0  0  0
 32 33  2  0  0  0  0
 32 34  1  0  0  0  0
 36 37  1  0  0  0  0
M  END
> <PUBCHEM_COMPOUND_ID_TYPE>
0

> <PUBCHEM_TOTAL_CHARGE>
0

> <PUBCHEM_SUBSTANCE_ID>
310948312

> <PUBCHEM_SUBSTANCE_VERSION>
1

> <PUBCHEM_EXT_DATASOURCE_NAME>
4488

> <PUBCHEM_EXT_DATASOURCE_REGID>
SCHEMBL16126490

> <PUBCHEM_SUBSTANCE_COMMENT>
InChI=1S/C28H22F3N3O5S/c1-17-32-26(18-6-9-22(10-7-18)39-28(29,30)31)27(38-17)24-15-20(19-4-3-5-23(14-19)40(2,36)37)8-11-25(24)34-13-12-21(16-35)33-34/h3-15,35H,16H2,1-2H3
InChIKey=IITWUJFKNIZMDQ-UHFFFAOYSA-N

> <PUBCHEM_SUBSTANCE_SYNONYM>
SCHEMBL16126490

> <PUBCHEM_XREF_EXT_ID>
SCHEMBL16126490

> <PUBCHEM_EXT_DATASOURCE_URL>
https://www.surechembl.org/

> <PUBCHEM_EXT_SUBSTANCE_URL>
https://www.surechembl.org/chemical/SCHEMBL16126490

> <PUBCHEM_CID_ASSOCIATIONS>
117613877  1

> <PUBCHEM_COORDINATE_TYPE>
1
3

$$$$
