310931115
  -OEChem-07211613022D

 29 32  0     0  0  0  0  0  0999 V2000
    2.4558   -7.2652    0.0000 S   0  0  0  0  0  0  0  0  0  0  0  0
    3.2233   -6.8559    0.0000 O   0  0  0  0  0  0  0  0  0  0  0  0
    1.7396   -7.6745    0.0000 O   0  0  0  0  0  0  0  0  0  0  0  0
    0.0000   -2.8140    0.0000 O   0  0  0  0  0  0  0  0  0  0  0  0
    2.5070   -1.3814    0.0000 N   0  0  0  0  0  0  0  0  0  0  0  0
    2.6605    0.0000    0.0000 N   0  0  0  0  0  0  0  0  0  0  0  0
    0.8186   -4.2977    0.0000 N   0  0  0  0  0  0  0  0  0  0  0  0
    1.2791   -3.5814    0.0000 N   0  0  0  0  0  0  0  0  0  0  0  0
    2.0465   -6.4978    0.0000 C   0  0  0  0  0  0  0  0  0  0  0  0
    2.8652   -7.9815    0.0000 C   0  0  0  0  0  0  0  0  0  0  0  0
    2.0977   -0.6651    0.0000 C   0  0  0  0  0  0  0  0  0  0  0  0
    2.5070   -5.7814    0.0000 C   0  0  0  0  0  0  0  0  0  0  0  0
    1.2279   -6.4978    0.0000 C   0  0  0  0  0  0  0  0  0  0  0  0
    1.2791   -2.0977    0.0000 C   0  0  0  0  0  0  0  0  0  0  0  0
    1.2279   -5.0140    0.0000 C   0  0  0  0  0  0  0  0  0  0  0  0
    2.4558   -8.6978    0.0000 C   0  0  0  0  0  0  0  0  0  0  0  0
    3.7349   -8.0327    0.0000 C   0  0  0  0  0  0  0  0  0  0  0  0
    2.0977   -2.0977    0.0000 C   0  0  0  0  0  0  0  0  0  0  0  0
    0.8698   -2.8140    0.0000 C   0  0  0  0  0  0  0  0  0  0  0  0
    2.0977   -5.0652    0.0000 C   0  0  0  0  0  0  0  0  0  0  0  0
    0.8186   -5.7303    0.0000 C   0  0  0  0  0  0  0  0  0  0  0  0
    1.2791   -0.6651    0.0000 C   0  0  0  0  0  0  0  0  0  0  0  0
    0.8698   -1.3814    0.0000 C   0  0  0  0  0  0  0  0  0  0  0  0
    3.3768   -1.1767    0.0000 C   0  0  0  0  0  0  0  0  0  0  0  0
    2.8140   -9.4652    0.0000 C   0  0  0  0  0  0  0  0  0  0  0  0
    4.0931   -8.7490    0.0000 C   0  0  0  0  0  0  0  0  0  0  0  0
    3.6838   -9.4652    0.0000 C   0  0  0  0  0  0  0  0  0  0  0  0
    3.4280   -0.3582    0.0000 C   0  0  0  0  0  0  0  0  0  0  0  0
    4.0931  -10.2327    0.0000 C   0  0  0  0  0  0  0  0  0  0  0  0
  1  2  2  0  0  0  0
  1  3  2  0  0  0  0
  1  9  1  0  0  0  0
  1 10  1  0  0  0  0
  4 19  2  0  0  0  0
  5 11  1  0  0  0  0
  5 18  1  0  0  0  0
  5 24  1  0  0  0  0
  6 11  2  0  0  0  0
  6 28  1  0  0  0  0
  7  8  1  0  0  0  0
  7 15  1  0  0  0  0
  8 19  1  0  0  0  0
  9 12  2  0  0  0  0
  9 13  1  0  0  0  0
 10 16  2  0  0  0  0
 10 17  1  0  0  0  0
 11 22  1  0  0  0  0
 12 20  1  0  0  0  0
 13 21  2  0  0  0  0
 14 18  2  0  0  0  0
 14 19  1  0  0  0  0
 14 23  1  0  0  0  0
 15 20  2  0  0  0  0
 15 21  1  0  0  0  0
 16 25  1  0  0  0  0
 17 26  2  0  0  0  0
 22 23  2  0  0  0  0
 24 28  2  0  0  0  0
 25 27  2  0  0  0  0
 26 27  1  0  0  0  0
 27 29  1  0  0  0  0
M  END
> <PUBCHEM_COMPOUND_ID_TYPE>
0

> <PUBCHEM_TOTAL_CHARGE>
0

> <PUBCHEM_SUBSTANCE_ID>
310931115

> <PUBCHEM_SUBSTANCE_VERSION>
1

> <PUBCHEM_EXT_DATASOURCE_NAME>
4488

> <PUBCHEM_EXT_DATASOURCE_REGID>
SCHEMBL16108419

> <PUBCHEM_SUBSTANCE_COMMENT>
InChI=1S/C21H18N4O3S/c1-15-2-7-18(8-3-15)29(27,28)19-9-5-17(6-10-19)23-24-21(26)16-4-11-20-22-12-13-25(20)14-16/h2-14,23H,1H3,(H,24,26)
InChIKey=BCUJSUGASISYAI-UHFFFAOYSA-N

> <PUBCHEM_SUBSTANCE_SYNONYM>
SCHEMBL16108419

> <PUBCHEM_XREF_EXT_ID>
SCHEMBL16108419

> <PUBCHEM_EXT_DATASOURCE_URL>
https://www.surechembl.org/

> <PUBCHEM_EXT_SUBSTANCE_URL>
https://www.surechembl.org/chemical/SCHEMBL16108419

> <PUBCHEM_CID_ASSOCIATIONS>
88919603  1

> <PUBCHEM_COORDINATE_TYPE>
1
3

$$$$
