310944566
  -OEChem-07211613022D

 12 12  0     0  0  0  0  0  0999 V2000
   -0.0079   -1.4229    0.0000 Cl  0  0  0  0  0  0  0  0  0  0  0  0
    1.4783   -0.6008    0.0000 F   0  0  0  0  0  0  0  0  0  0  0  0
    2.1898    1.4229    0.0000 N   0  0  0  0  0  0  0  0  0  0  0  0
   -2.1898    1.3755    0.0000 N   0  0  0  0  0  0  0  0  0  0  0  0
    0.7194   -0.1581    0.0000 C   0  0  0  0  0  0  0  0  0  0  0  0
    0.7352    0.6641    0.0000 C   0  0  0  0  0  0  0  0  0  0  0  0
    0.0079   -0.5692    0.0000 C   0  0  0  0  0  0  0  0  0  0  0  0
   -0.7194    0.6641    0.0000 C   0  0  0  0  0  0  0  0  0  0  0  0
   -0.0079    1.0593    0.0000 C   0  0  0  0  0  0  0  0  0  0  0  0
   -0.7036   -0.1739    0.0000 C   0  0  0  0  0  0  0  0  0  0  0  0
    1.4625    1.0593    0.0000 C   0  0  0  0  0  0  0  0  0  0  0  0
   -1.4625    1.0435    0.0000 C   0  0  0  0  0  0  0  0  0  0  0  0
  1  7  1  0  0  0  0
  2  5  1  0  0  0  0
  3 11  3  0  0  0  0
  4 12  3  0  0  0  0
  5  6  1  0  0  0  0
  5  7  2  0  0  0  0
  6  9  2  0  0  0  0
  6 11  1  0  0  0  0
  7 10  1  0  0  0  0
  8  9  1  0  0  0  0
  8 10  2  0  0  0  0
  8 12  1  0  0  0  0
M  END
> <PUBCHEM_COMPOUND_ID_TYPE>
0

> <PUBCHEM_TOTAL_CHARGE>
0

> <PUBCHEM_SUBSTANCE_ID>
310944566

> <PUBCHEM_SUBSTANCE_VERSION>
1

> <PUBCHEM_EXT_DATASOURCE_NAME>
4488

> <PUBCHEM_EXT_DATASOURCE_REGID>
SCHEMBL16122643

> <PUBCHEM_SUBSTANCE_COMMENT>
InChI=1S/C8H2ClFN2/c9-7-2-5(3-11)1-6(4-12)8(7)10/h1-2H
InChIKey=IOARWVCROOJJPG-UHFFFAOYSA-N

> <PUBCHEM_SUBSTANCE_SYNONYM>
SCHEMBL16122643

> <PUBCHEM_XREF_EXT_ID>
SCHEMBL16122643

> <PUBCHEM_EXT_DATASOURCE_URL>
https://www.surechembl.org/

> <PUBCHEM_EXT_SUBSTANCE_URL>
https://www.surechembl.org/chemical/SCHEMBL16122643

> <PUBCHEM_CID_ASSOCIATIONS>
117610801  1

> <PUBCHEM_COORDINATE_TYPE>
1
3

$$$$
