310946377
  -OEChem-07211613022D

 28 29  0     1  0  0  0  0  0999 V2000
  -10.4086   12.9257    0.0000 I   0  0  0  0  0  0  0  0  0  0  0  0
   -8.9797   15.4006    0.0000 I   0  0  0  0  0  0  0  0  0  0  0  0
  -10.4086   14.5757    0.0000 O   0  0  0  0  0  0  0  0  0  0  0  0
   -6.1219   15.4006    0.0000 O   0  0  0  0  0  0  0  0  0  0  0  0
   -5.4076   14.1631    0.0000 O   0  0  0  0  0  0  0  0  0  0  0  0
  -13.2662   12.9257    0.0000 O   0  0  0  0  0  0  0  0  0  0  0  0
   -5.4076   13.3383    0.0000 O   0  0  0  0  0  0  0  0  0  0  0  0
   -6.8363   14.1631    0.0000 N   0  0  0  0  0  0  0  0  0  0  0  0
   -9.6940   14.1631    0.0000 C   0  0  0  0  0  0  0  0  0  0  0  0
   -9.6940   13.3383    0.0000 C   0  0  0  0  0  0  0  0  0  0  0  0
   -8.9797   14.5757    0.0000 C   0  0  0  0  0  0  0  0  0  0  0  0
   -8.2652   13.3383    0.0000 C   0  0  0  0  0  0  0  0  0  0  0  0
   -8.9797   12.9257    0.0000 C   0  0  0  0  0  0  0  0  0  0  0  0
   -8.2652   14.1631    0.0000 C   0  0  0  0  0  0  0  0  0  0  0  0
  -11.1229   14.1631    0.0000 C   0  0  0  0  0  0  0  0  0  0  0  0
   -7.5508   12.9257    0.0000 C   0  0  0  0  0  0  0  0  0  0  0  0
   -6.8363   13.3383    0.0000 C   0  0  3  0  0  0  0  0  0  0  0  0
  -11.8373   14.5757    0.0000 C   0  0  0  0  0  0  0  0  0  0  0  0
  -11.1229   13.3383    0.0000 C   0  0  0  0  0  0  0  0  0  0  0  0
   -6.1219   14.5757    0.0000 C   0  0  0  0  0  0  0  0  0  0  0  0
  -12.5518   13.3383    0.0000 C   0  0  0  0  0  0  0  0  0  0  0  0
  -12.5518   14.1631    0.0000 C   0  0  0  0  0  0  0  0  0  0  0  0
  -11.8373   12.9257    0.0000 C   0  0  0  0  0  0  0  0  0  0  0  0
   -6.8363   15.8131    0.0000 C   0  0  0  0  0  0  0  0  0  0  0  0
   -6.1219   12.9257    0.0000 C   0  0  0  0  0  0  0  0  0  0  0  0
   -6.8363   16.6380    0.0000 C   0  0  0  0  0  0  0  0  0  0  0  0
   -7.5508   15.4006    0.0000 C   0  0  0  0  0  0  0  0  0  0  0  0
   -7.5508   16.2255    0.0000 C   0  0  0  0  0  0  0  0  0  0  0  0
  1 10  1  0  0  0  0
  2 11  1  0  0  0  0
  3  9  1  0  0  0  0
  3 15  1  0  0  0  0
  4 20  1  0  0  0  0
  4 24  1  0  0  0  0
  5 20  2  0  0  0  0
  6 21  1  0  0  0  0
  7 25  1  0  0  0  0
 17  8  1  6  0  0  0
  8 20  1  0  0  0  0
  9 10  2  0  0  0  0
  9 11  1  0  0  0  0
 10 13  1  0  0  0  0
 11 14  2  0  0  0  0
 12 13  2  0  0  0  0
 12 14  1  0  0  0  0
 12 16  1  0  0  0  0
 15 18  2  0  0  0  0
 15 19  1  0  0  0  0
 16 17  1  0  0  0  0
 17 25  1  0  0  0  0
 18 22  1  0  0  0  0
 19 23  2  0  0  0  0
 21 22  2  0  0  0  0
 21 23  1  0  0  0  0
 24 26  1  0  0  0  0
 24 27  1  0  0  0  0
 24 28  1  0  0  0  0
M  END
> <PUBCHEM_COMPOUND_ID_TYPE>
0

> <PUBCHEM_TOTAL_CHARGE>
0

> <PUBCHEM_SUBSTANCE_ID>
310946377

> <PUBCHEM_SUBSTANCE_VERSION>
1

> <PUBCHEM_EXT_DATASOURCE_NAME>
4488

> <PUBCHEM_EXT_DATASOURCE_REGID>
SCHEMBL16124496

> <PUBCHEM_SUBSTANCE_COMMENT>
InChI=1S/C20H23I2NO5/c1-20(2,3)28-19(26)23-13(11-24)8-12-9-16(21)18(17(22)10-12)27-15-6-4-14(25)5-7-15/h4-7,9-10,13,24-25H,8,11H2,1-3H3,(H,23,26)/t13-/m0/s1
InChIKey=GPKOQQDIIBFVAR-ZDUSSCGKSA-N

> <PUBCHEM_SUBSTANCE_SYNONYM>
SCHEMBL16124496

> <PUBCHEM_XREF_EXT_ID>
SCHEMBL16124496

> <PUBCHEM_EXT_DATASOURCE_URL>
https://www.surechembl.org/

> <PUBCHEM_EXT_SUBSTANCE_URL>
https://www.surechembl.org/chemical/SCHEMBL16124496

> <PUBCHEM_CID_ASSOCIATIONS>
117612299  1

> <PUBCHEM_COORDINATE_TYPE>
1
3

> <PUBCHEM_BONDANNOTATIONS>
17  8  6

$$$$
