310945885
  -OEChem-07211613022D

 35 38  0     1  0  0  0  0  0999 V2000
    3.6703    1.5137    0.0000 O   0  0  0  0  0  0  0  0  0  0  0  0
    1.4031    1.5413    0.0000 O   0  0  0  0  0  0  0  0  0  0  0  0
    0.6843    1.1267    0.0000 O   0  0  0  0  0  0  0  0  0  0  0  0
   -0.0346    1.5413    0.0000 O   0  0  0  0  0  0  0  0  0  0  0  0
   -2.9515   -2.5643    0.0000 O   0  0  0  0  0  0  0  0  0  0  0  0
    1.3893   -0.1037    0.0000 N   0  0  0  0  0  0  0  0  0  0  0  0
   -0.7673    0.3248    0.0000 N   0  0  0  0  0  0  0  0  0  0  0  0
   -1.5413    2.3846    0.0000 N   0  0  0  0  0  0  0  0  0  0  0  0
   -2.2325    1.2511    0.0000 N   0  0  0  0  0  0  0  0  0  0  0  0
    2.8547    1.5413    0.0000 C   0  0  3  0  0  0  0  0  0  0  0  0
    2.0944    1.0714    0.0000 C   0  0  0  0  0  0  0  0  0  0  0  0
    3.2555    0.8364    0.0000 C   0  0  0  0  0  0  0  0  0  0  0  0
    2.1082    0.2972    0.0000 C   0  0  3  0  0  0  0  0  0  0  0  0
    2.8547    2.3570    0.0000 C   0  0  0  0  0  0  0  0  0  0  0  0
    2.8270   -0.0898    0.0000 C   0  0  0  0  0  0  0  0  0  0  0  0
    0.6567    0.3110    0.0000 C   0  0  0  0  0  0  0  0  0  0  0  0
   -0.0346   -0.0898    0.0000 C   0  0  3  0  0  0  0  0  0  0  0  0
    2.8270   -0.9332    0.0000 C   0  0  0  0  0  0  0  0  0  0  0  0
   -0.0207   -0.9332    0.0000 C   0  0  0  0  0  0  0  0  0  0  0  0
   -0.7811    1.1543    0.0000 C   0  0  0  0  0  0  0  0  0  0  0  0
   -0.7811   -1.3202    0.0000 C   0  0  0  0  0  0  0  0  0  0  0  0
   -1.4860    1.5828    0.0000 C   0  0  0  0  0  0  0  0  0  0  0  0
    3.5320   -1.3617    0.0000 C   0  0  0  0  0  0  0  0  0  0  0  0
    2.0944   -1.3478    0.0000 C   0  0  0  0  0  0  0  0  0  0  0  0
   -1.4722   -0.9193    0.0000 C   0  0  0  0  0  0  0  0  0  0  0  0
   -0.7811   -2.1358    0.0000 C   0  0  0  0  0  0  0  0  0  0  0  0
   -2.2188   -2.1220    0.0000 C   0  0  0  0  0  0  0  0  0  0  0  0
   -2.2188   -1.3063    0.0000 C   0  0  0  0  0  0  0  0  0  0  0  0
   -1.4999   -2.5505    0.0000 C   0  0  0  0  0  0  0  0  0  0  0  0
    3.5320   -2.1773    0.0000 C   0  0  0  0  0  0  0  0  0  0  0  0
    2.0944   -2.1634    0.0000 C   0  0  0  0  0  0  0  0  0  0  0  0
   -2.3570    2.5782    0.0000 C   0  0  0  0  0  0  0  0  0  0  0  0
   -2.7856    1.8594    0.0000 C   0  0  0  0  0  0  0  0  0  0  0  0
    2.8132   -2.5782    0.0000 C   0  0  0  0  0  0  0  0  0  0  0  0
   -3.6703   -2.1358    0.0000 C   0  0  0  0  0  0  0  0  0  0  0  0
  1 10  1  0  0  0  0
  1 12  1  0  0  0  0
  2 11  2  0  0  0  0
  3 16  2  0  0  0  0
  4 20  2  0  0  0  0
  5 27  1  0  0  0  0
  5 35  1  0  0  0  0
 13  6  1  6  0  0  0
  6 16  1  0  0  0  0
 17  7  1  6  0  0  0
  7 20  1  0  0  0  0
  8 22  2  0  0  0  0
  8 32  1  0  0  0  0
  9 22  1  0  0  0  0
  9 33  1  0  0  0  0
 10 11  1  6  0  0  0
 10 12  1  0  0  0  0
 10 14  1  1  0  0  0
 11 13  1  0  0  0  0
 13 15  1  0  0  0  0
 15 18  1  0  0  0  0
 16 17  1  0  0  0  0
 17 19  1  0  0  0  0
 18 23  2  0  0  0  0
 18 24  1  0  0  0  0
 19 21  1  0  0  0  0
 20 22  1  0  0  0  0
 21 25  2  0  0  0  0
 21 26  1  0  0  0  0
 23 30  1  0  0  0  0
 24 31  2  0  0  0  0
 25 28  1  0  0  0  0
 26 29  2  0  0  0  0
 27 28  2  0  0  0  0
 27 29  1  0  0  0  0
 30 34  2  0  0  0  0
 31 34  1  0  0  0  0
 32 33  2  0  0  0  0
M  END
> <PUBCHEM_COMPOUND_ID_TYPE>
0

> <PUBCHEM_TOTAL_CHARGE>
0

> <PUBCHEM_SUBSTANCE_ID>
310945885

> <PUBCHEM_SUBSTANCE_VERSION>
1

> <PUBCHEM_EXT_DATASOURCE_NAME>
4488

> <PUBCHEM_EXT_DATASOURCE_REGID>
SCHEMBL16123990

> <PUBCHEM_SUBSTANCE_COMMENT>
InChI=1S/C26H28N4O5/c1-26(16-35-26)22(31)20(14-17-6-4-3-5-7-17)29-24(32)21(30-25(33)23-27-12-13-28-23)15-18-8-10-19(34-2)11-9-18/h3-13,20-21H,14-16H2,1-2H3,(H,27,28)(H,29,32)(H,30,33)/t20-,21-,26+/m0/s1
InChIKey=FJJDBCUOLQRRKF-ISJBWFOZSA-N

> <PUBCHEM_SUBSTANCE_SYNONYM>
SCHEMBL16123990

> <PUBCHEM_XREF_EXT_ID>
SCHEMBL16123990

> <PUBCHEM_EXT_DATASOURCE_URL>
https://www.surechembl.org/

> <PUBCHEM_EXT_SUBSTANCE_URL>
https://www.surechembl.org/chemical/SCHEMBL16123990

> <PUBCHEM_CID_ASSOCIATIONS>
117611869  1

> <PUBCHEM_COORDINATE_TYPE>
1
3

> <PUBCHEM_BONDANNOTATIONS>
10  11  6
10  14  5
13  6  6
17  7  6

$$$$
