310939745
  -OEChem-07211613022D

 13 13  0     0  0  0  0  0  0999 V2000
   -1.8463  -13.5416    0.0000 Cl  0  0  0  0  0  0  0  0  0  0  0  0
   -3.2752  -16.0166    0.0000 O   0  0  0  0  0  0  0  0  0  0  0  0
   -1.8463  -16.0166    0.0000 C   0  0  0  0  0  0  0  0  0  0  0  0
   -1.8463  -16.8416    0.0000 C   0  0  0  0  0  0  0  0  0  0  0  0
   -2.5608  -15.6041    0.0000 C   0  0  0  0  0  0  0  0  0  0  0  0
   -1.1318  -15.6041    0.0000 C   0  0  0  0  0  0  0  0  0  0  0  0
   -1.1318  -14.7791    0.0000 C   0  0  0  0  0  0  0  0  0  0  0  0
   -1.8463  -14.3666    0.0000 C   0  0  0  0  0  0  0  0  0  0  0  0
   -2.5608  -14.7791    0.0000 C   0  0  0  0  0  0  0  0  0  0  0  0
   -1.0213  -16.8416    0.0000 C   0  0  0  0  0  0  0  0  0  0  0  0
   -2.6713  -16.8416    0.0000 C   0  0  0  0  0  0  0  0  0  0  0  0
   -1.8463  -17.6666    0.0000 C   0  0  0  0  0  0  0  0  0  0  0  0
   -0.4173  -14.3666    0.0000 C   0  0  0  0  0  0  0  0  0  0  0  0
  1  8  1  0  0  0  0
  2  5  1  0  0  0  0
  3  4  1  0  0  0  0
  3  5  1  0  0  0  0
  3  6  2  0  0  0  0
  4 10  1  0  0  0  0
  4 11  1  0  0  0  0
  4 12  1  0  0  0  0
  5  9  2  0  0  0  0
  6  7  1  0  0  0  0
  7  8  2  0  0  0  0
  7 13  1  0  0  0  0
  8  9  1  0  0  0  0
M  END
> <PUBCHEM_COMPOUND_ID_TYPE>
0

> <PUBCHEM_TOTAL_CHARGE>
0

> <PUBCHEM_SUBSTANCE_ID>
310939745

> <PUBCHEM_SUBSTANCE_VERSION>
1

> <PUBCHEM_EXT_DATASOURCE_NAME>
4488

> <PUBCHEM_EXT_DATASOURCE_REGID>
SCHEMBL16117675

> <PUBCHEM_SUBSTANCE_COMMENT>
InChI=1S/C11H15ClO/c1-7-5-8(11(2,3)4)10(13)6-9(7)12/h5-6,13H,1-4H3
InChIKey=MRLYMIRBDQVLKH-UHFFFAOYSA-N

> <PUBCHEM_SUBSTANCE_SYNONYM>
SCHEMBL16117675

> <PUBCHEM_XREF_EXT_ID>
SCHEMBL16117675

> <PUBCHEM_EXT_DATASOURCE_URL>
https://www.surechembl.org/

> <PUBCHEM_EXT_SUBSTANCE_URL>
https://www.surechembl.org/chemical/SCHEMBL16117675

> <PUBCHEM_CID_ASSOCIATIONS>
117606968  1

> <PUBCHEM_COORDINATE_TYPE>
1
3

> <PUBCHEM_BONDANNOTATIONS>
4  10  3
4  11  3

$$$$
