310945444
  -OEChem-07211613022D

 29 32  0     0  0  0  0  0  0999 V2000
    2.9710   -2.1321    0.0000 S   0  0  0  0  0  0  0  0  0  0  0  0
    0.8039    1.4504    0.0000 F   0  0  0  0  0  0  0  0  0  0  0  0
    1.5728    2.3592    0.0000 F   0  0  0  0  0  0  0  0  0  0  0  0
    2.3417    1.4504    0.0000 F   0  0  0  0  0  0  0  0  0  0  0  0
   -1.0486    1.2059    0.0000 F   0  0  0  0  0  0  0  0  0  0  0  0
   -3.3379   -1.2583    0.0000 F   0  0  0  0  0  0  0  0  0  0  0  0
   -4.1070   -0.3496    0.0000 F   0  0  0  0  0  0  0  0  0  0  0  0
   -3.3379    0.5592    0.0000 F   0  0  0  0  0  0  0  0  0  0  0  0
    0.1573    0.3845    0.0000 N   0  0  0  0  0  0  0  0  0  0  0  0
    0.1573   -1.0836    0.0000 N   0  0  0  0  0  0  0  0  0  0  0  0
    2.2370    0.1049    0.0000 N   0  0  0  0  0  0  0  0  0  0  0  0
    1.5553   -1.2583    0.0000 N   0  0  0  0  0  0  0  0  0  0  0  0
    0.8913    0.0699    0.0000 C   0  0  0  0  0  0  0  0  0  0  0  0
    1.5553    0.5067    0.0000 C   0  0  0  0  0  0  0  0  0  0  0  0
    0.8738   -0.8388    0.0000 C   0  0  0  0  0  0  0  0  0  0  0  0
   -0.2972   -0.3845    0.0000 C   0  0  0  0  0  0  0  0  0  0  0  0
    2.2195   -0.8388    0.0000 C   0  0  0  0  0  0  0  0  0  0  0  0
    1.5728    1.4155    0.0000 C   0  0  0  0  0  0  0  0  0  0  0  0
   -1.0661   -0.3845    0.0000 C   0  0  0  0  0  0  0  0  0  0  0  0
    2.9185   -1.2758    0.0000 C   0  0  0  0  0  0  0  0  0  0  0  0
   -1.4504    0.4020    0.0000 C   0  0  0  0  0  0  0  0  0  0  0  0
   -1.4504   -1.1535    0.0000 C   0  0  0  0  0  0  0  0  0  0  0  0
   -2.6039   -0.3845    0.0000 C   0  0  0  0  0  0  0  0  0  0  0  0
   -2.2021    0.3671    0.0000 C   0  0  0  0  0  0  0  0  0  0  0  0
   -2.2021   -1.1535    0.0000 C   0  0  0  0  0  0  0  0  0  0  0  0
   -3.3554   -0.3845    0.0000 C   0  0  0  0  0  0  0  0  0  0  0  0
    3.6175   -0.9262    0.0000 C   0  0  0  0  0  0  0  0  0  0  0  0
    3.7049   -2.3592    0.0000 C   0  0  0  0  0  0  0  0  0  0  0  0
    4.1070   -1.5903    0.0000 C   0  0  0  0  0  0  0  0  0  0  0  0
  1 20  1  0  0  0  0
  1 28  1  0  0  0  0
  2 18  1  0  0  0  0
  3 18  1  0  0  0  0
  4 18  1  0  0  0  0
  5 21  1  0  0  0  0
  6 26  1  0  0  0  0
  7 26  1  0  0  0  0
  8 26  1  0  0  0  0
  9 13  1  0  0  0  0
  9 16  2  0  0  0  0
 10 15  1  0  0  0  0
 10 16  1  0  0  0  0
 11 14  2  0  0  0  0
 11 17  1  0  0  0  0
 12 15  1  0  0  0  0
 12 17  2  0  0  0  0
 13 14  1  0  0  0  0
 13 15  2  0  0  0  0
 14 18  1  0  0  0  0
 16 19  1  0  0  0  0
 17 20  1  0  0  0  0
 19 21  2  0  0  0  0
 19 22  1  0  0  0  0
 20 27  2  0  0  0  0
 21 24  1  0  0  0  0
 22 25  2  0  0  0  0
 23 24  2  0  0  0  0
 23 25  1  0  0  0  0
 23 26  1  0  0  0  0
 27 29  1  0  0  0  0
 28 29  2  0  0  0  0
M  END
> <PUBCHEM_COMPOUND_ID_TYPE>
0

> <PUBCHEM_TOTAL_CHARGE>
0

> <PUBCHEM_SUBSTANCE_ID>
310945444

> <PUBCHEM_SUBSTANCE_VERSION>
1

> <PUBCHEM_EXT_DATASOURCE_NAME>
4488

> <PUBCHEM_EXT_DATASOURCE_REGID>
SCHEMBL16123542

> <PUBCHEM_SUBSTANCE_COMMENT>
InChI=1S/C17H7F7N4S/c18-9-6-7(16(19,20)21)3-4-8(9)13-25-11-12(17(22,23)24)26-14(28-15(11)27-13)10-2-1-5-29-10/h1-6H,(H,25,26,27,28)
InChIKey=NANARAXWWATHCW-UHFFFAOYSA-N

> <PUBCHEM_SUBSTANCE_SYNONYM>
SCHEMBL16123542

> <PUBCHEM_XREF_EXT_ID>
SCHEMBL16123542

> <PUBCHEM_EXT_DATASOURCE_URL>
https://www.surechembl.org/

> <PUBCHEM_EXT_SUBSTANCE_URL>
https://www.surechembl.org/chemical/SCHEMBL16123542

> <PUBCHEM_CID_ASSOCIATIONS>
117611489  1

> <PUBCHEM_COORDINATE_TYPE>
1
3

$$$$
