310948752
  -OEChem-07211613022D

 28 29  0     1  0  0  0  0  0999 V2000
   -0.9198   -2.7218    0.0000 Cl  0  0  0  0  0  0  0  0  0  0  0  0
    0.1960   -1.5004    0.0000 F   0  0  0  0  0  0  0  0  0  0  0  0
   -3.0008    1.8322    0.0000 O   0  0  0  0  0  0  0  0  0  0  0  0
    3.0008    2.3900    0.0000 O   0  0  0  0  0  0  0  0  0  0  0  0
   -0.2262    1.6964    0.0000 N   0  0  0  0  0  0  0  0  0  0  0  0
   -0.5730    0.9424    0.0000 N   0  0  0  0  0  0  0  0  0  0  0  0
   -1.9452    0.4147    0.0000 N   0  0  0  0  0  0  0  0  0  0  0  0
    0.6484   -0.2488    0.0000 N   0  0  0  0  0  0  0  0  0  0  0  0
   -1.5682    1.8472    0.0000 C   0  0  0  0  0  0  0  0  0  0  0  0
   -0.8444    2.2544    0.0000 C   0  0  0  0  0  0  0  0  0  0  0  0
   -1.3873    1.0480    0.0000 C   0  0  0  0  0  0  0  0  0  0  0  0
    0.5579    1.8773    0.0000 C   0  0  3  0  0  0  0  0  0  0  0  0
   -2.2770    2.2694    0.0000 C   0  0  0  0  0  0  0  0  0  0  0  0
    1.1309    1.2591    0.0000 C   0  0  3  0  0  0  0  0  0  0  0  0
   -1.6889   -0.3543    0.0000 C   0  0  0  0  0  0  0  0  0  0  0  0
   -0.8595    2.7218    0.0000 C   0  0  0  0  0  0  0  0  0  0  0  0
    0.8444    2.6615    0.0000 C   0  0  0  0  0  0  0  0  0  0  0  0
   -0.8746   -0.5353    0.0000 C   0  0  0  0  0  0  0  0  0  0  0  0
   -2.2167   -0.9575    0.0000 C   0  0  0  0  0  0  0  0  0  0  0  0
   -0.6333   -1.3044    0.0000 C   0  0  0  0  0  0  0  0  0  0  0  0
    1.9452    1.4250    0.0000 C   0  0  0  0  0  0  0  0  0  0  0  0
   -1.1762   -1.9377    0.0000 C   0  0  0  0  0  0  0  0  0  0  0  0
    0.8746    0.4750    0.0000 C   0  0  0  0  0  0  0  0  0  0  0  0
   -2.2920    2.7218    0.0000 C   0  0  0  0  0  0  0  0  0  0  0  0
   -1.9754   -1.7567    0.0000 C   0  0  0  0  0  0  0  0  0  0  0  0
    2.1865    2.2242    0.0000 C   0  0  0  0  0  0  0  0  0  0  0  0
    1.2666    2.7218    0.0000 C   0  0  0  0  0  0  0  0  0  0  0  0
    1.7191    2.7218    0.0000 C   0  0  0  0  0  0  0  0  0  0  0  0
  1 22  1  0  0  0  0
  2 20  1  0  0  0  0
  3 13  2  0  0  0  0
  4 26  2  0  0  0  0
  5  6  1  0  0  0  0
  5 10  1  0  0  0  0
  5 12  1  0  0  0  0
  6 11  2  0  0  0  0
  7 11  1  0  0  0  0
  7 15  1  0  0  0  0
  8 23  3  0  0  0  0
  9 10  2  0  0  0  0
  9 11  1  0  0  0  0
  9 13  1  0  0  0  0
 10 16  1  0  0  0  0
 12 14  1  0  0  0  0
 12 17  1  1  0  0  0
 13 24  1  0  0  0  0
 14 21  1  6  0  0  0
 14 23  1  0  0  0  0
 15 18  1  0  0  0  0
 15 19  2  0  0  0  0
 17 27  1  0  0  0  0
 18 20  2  0  0  0  0
 19 25  1  0  0  0  0
 20 22  1  0  0  0  0
 21 26  1  0  0  0  0
 22 25  2  0  0  0  0
 26 28  1  0  0  0  0
M  END
> <PUBCHEM_COMPOUND_ID_TYPE>
0

> <PUBCHEM_TOTAL_CHARGE>
0

> <PUBCHEM_SUBSTANCE_ID>
310948752

> <PUBCHEM_SUBSTANCE_VERSION>
1

> <PUBCHEM_EXT_DATASOURCE_NAME>
4488

> <PUBCHEM_EXT_DATASOURCE_REGID>
SCHEMBL16126936

> <PUBCHEM_SUBSTANCE_COMMENT>
InChI=1S/C20H22ClFN4O2/c1-5-18(14(10-23)8-11(2)27)26-12(3)19(13(4)28)20(25-26)24-15-6-7-16(21)17(22)9-15/h6-7,9,14,18H,5,8H2,1-4H3,(H,24,25)/t14-,18+/m1/s1
InChIKey=DSQDXEDTIMLZDT-KDOFPFPSSA-N

> <PUBCHEM_SUBSTANCE_SYNONYM>
SCHEMBL16126936

> <PUBCHEM_XREF_EXT_ID>
SCHEMBL16126936

> <PUBCHEM_EXT_DATASOURCE_URL>
https://www.surechembl.org/

> <PUBCHEM_EXT_SUBSTANCE_URL>
https://www.surechembl.org/chemical/SCHEMBL16126936

> <PUBCHEM_CID_ASSOCIATIONS>
117614294  1

> <PUBCHEM_COORDINATE_TYPE>
1
3

> <PUBCHEM_BONDANNOTATIONS>
12  17  5
14  21  6

$$$$
