310942479
  -OEChem-07211613022D

 43 47  0     1  0  0  0  0  0999 V2000
   -3.0652    0.4188    0.0000 F   0  0  0  0  0  0  0  0  0  0  0  0
   -2.7135   -2.9145    0.0000 F   0  0  0  0  0  0  0  0  0  0  0  0
    3.6347   -0.7705    0.0000 F   0  0  0  0  0  0  0  0  0  0  0  0
   -0.2680   -1.2897    0.0000 O   0  0  0  0  0  0  0  0  0  0  0  0
    1.8258    2.3283    0.0000 O   0  0  0  0  0  0  0  0  0  0  0  0
   -0.7537    0.8375    0.0000 N   0  0  0  0  0  0  0  0  0  0  0  0
    0.9883   -0.5695    0.0000 N   0  0  0  0  0  0  0  0  0  0  0  0
   -0.7537   -0.5192    0.0000 N   0  0  0  0  0  0  0  0  0  0  0  0
    0.9883   -2.0268    0.0000 N   0  0  0  0  0  0  0  0  0  0  0  0
    2.5293   -2.6298    0.0000 N   0  0  0  0  0  0  0  0  0  0  0  0
   -0.6700   -3.4840    0.0000 N   0  0  0  0  0  0  0  0  0  0  0  0
   -0.2680    0.1675    0.0000 C   0  0  0  0  0  0  0  0  0  0  0  0
    0.5863    0.1507    0.0000 C   0  0  3  0  0  0  0  0  0  0  0  0
   -1.5410   -0.2512    0.0000 C   0  0  0  0  0  0  0  0  0  0  0  0
    0.9883    0.9045    0.0000 C   0  0  0  0  0  0  0  0  0  0  0  0
   -1.5243    0.5695    0.0000 C   0  0  0  0  0  0  0  0  0  0  0  0
   -2.2277   -0.7537    0.0000 C   0  0  0  0  0  0  0  0  0  0  0  0
    0.6030   -1.2897    0.0000 C   0  0  0  0  0  0  0  0  0  0  0  0
   -0.4857    1.6415    0.0000 C   0  0  0  0  0  0  0  0  0  0  0  0
    1.8425   -0.5863    0.0000 C   0  0  0  0  0  0  0  0  0  0  0  0
   -2.9815   -0.4188    0.0000 C   0  0  0  0  0  0  0  0  0  0  0  0
    2.2445   -1.2897    0.0000 C   0  0  3  0  0  0  0  0  0  0  0  0
   -2.1440   -1.5912    0.0000 C   0  0  0  0  0  0  0  0  0  0  0  0
    0.5863    1.6080    0.0000 C   0  0  0  0  0  0  0  0  0  0  0  0
    1.8258    0.8878    0.0000 C   0  0  0  0  0  0  0  0  0  0  0  0
   -1.4238    2.2277    0.0000 C   0  0  0  0  0  0  0  0  0  0  0  0
   -2.8140   -2.0770    0.0000 C   0  0  0  0  0  0  0  0  0  0  0  0
    3.0652   -1.3902    0.0000 C   0  0  3  0  0  0  0  0  0  0  0  0
   -3.6347   -0.9045    0.0000 C   0  0  0  0  0  0  0  0  0  0  0  0
    1.9095   -2.0603    0.0000 C   0  0  0  0  0  0  0  0  0  0  0  0
   -3.5511   -1.7253    0.0000 C   0  0  0  0  0  0  0  0  0  0  0  0
    0.9883    2.3283    0.0000 C   0  0  0  0  0  0  0  0  0  0  0  0
    2.2445    1.6247    0.0000 C   0  0  0  0  0  0  0  0  0  0  0  0
   -1.3902    3.0150    0.0000 C   0  0  0  0  0  0  0  0  0  0  0  0
   -2.1607    1.8760    0.0000 C   0  0  0  0  0  0  0  0  0  0  0  0
    0.5695   -2.7470    0.0000 C   0  0  3  0  0  0  0  0  0  0  0  0
    3.2328   -2.2110    0.0000 C   0  0  0  0  0  0  0  0  0  0  0  0
   -2.0603    3.4840    0.0000 C   0  0  0  0  0  0  0  0  0  0  0  0
   -2.8475    2.3283    0.0000 C   0  0  0  0  0  0  0  0  0  0  0  0
   -0.2512   -2.7470    0.0000 C   0  0  0  0  0  0  0  0  0  0  0  0
   -2.7805    3.1490    0.0000 C   0  0  0  0  0  0  0  0  0  0  0  0
    1.0050   -3.4673    0.0000 C   0  0  0  0  0  0  0  0  0  0  0  0
   -1.3735   -3.4840    0.0000 C   0  0  0  0  0  0  0  0  0  0  0  0
  1 21  1  0  0  0  0
  2 27  1  0  0  0  0
 28  3  1  1  0  0  0
  4 18  2  0  0  0  0
  5 32  1  0  0  0  0
  5 33  1  0  0  0  0
  6 12  1  0  0  0  0
  6 16  1  0  0  0  0
  6 19  1  0  0  0  0
 13  7  1  1  0  0  0
  7 18  1  0  0  0  0
  7 20  1  0  0  0  0
  8 12  2  0  0  0  0
  8 14  1  0  0  0  0
  9 18  1  0  0  0  0
  9 36  1  0  0  0  0
 10 30  1  0  0  0  0
 10 37  1  0  0  0  0
 11 40  1  0  0  0  0
 11 43  1  0  0  0  0
 12 13  1  0  0  0  0
 13 15  1  0  0  0  0
 14 16  2  0  0  0  0
 14 17  1  0  0  0  0
 15 24  1  0  0  0  0
 15 25  1  0  0  0  0
 17 21  1  0  0  0  0
 17 23  2  0  0  0  0
 19 26  1  0  0  0  0
 22 20  1  1  0  0  0
 21 29  2  0  0  0  0
 22 28  1  0  0  0  0
 22 30  1  0  0  0  0
 23 27  1  0  0  0  0
 24 32  1  0  0  0  0
 25 33  1  0  0  0  0
 26 34  2  0  0  0  0
 26 35  1  0  0  0  0
 27 31  2  0  0  0  0
 28 37  1  0  0  0  0
 29 31  1  0  0  0  0
 34 38  1  0  0  0  0
 35 39  2  0  0  0  0
 36 40  1  0  0  0  0
 36 42  1  1  0  0  0
 38 41  2  0  0  0  0
 39 41  1  0  0  0  0
M  END
> <PUBCHEM_COMPOUND_ID_TYPE>
0

> <PUBCHEM_TOTAL_CHARGE>
0

> <PUBCHEM_SUBSTANCE_ID>
310942479

> <PUBCHEM_SUBSTANCE_VERSION>
1

> <PUBCHEM_EXT_DATASOURCE_NAME>
4488

> <PUBCHEM_EXT_DATASOURCE_REGID>
SCHEMBL16120515

> <PUBCHEM_SUBSTANCE_COMMENT>
InChI=1S/C32H41F3N6O2/c1-21(15-36-2)38-32(42)41(19-24-16-37-17-28(24)35)30(23-10-12-43-13-11-23)31-39-29(26-14-25(33)8-9-27(26)34)20-40(31)18-22-6-4-3-5-7-22/h3-9,14,20-21,23-24,28,30,36-37H,10-13,15-19H2,1-2H3,(H,38,42)/t21-,24-,28-,30+/m0/s1
InChIKey=UJMJZYLZONTROX-OKRKQUQJSA-N

> <PUBCHEM_SUBSTANCE_SYNONYM>
SCHEMBL16120515

> <PUBCHEM_XREF_EXT_ID>
SCHEMBL16120515

> <PUBCHEM_EXT_DATASOURCE_URL>
https://www.surechembl.org/

> <PUBCHEM_EXT_SUBSTANCE_URL>
https://www.surechembl.org/chemical/SCHEMBL16120515

> <PUBCHEM_CID_ASSOCIATIONS>
117609050  1

> <PUBCHEM_COORDINATE_TYPE>
1
3

> <PUBCHEM_BONDANNOTATIONS>
22  20  5
28  3  5
36  42  5
13  7  5

$$$$
