310936455
  -OEChem-07211613022D

 25 29  0     0  0  0  0  0  0999 V2000
    5.5450   -2.2574    0.0000 O   0  0  0  0  0  0  0  0  0  0  0  0
    1.0520   -1.9287    0.0000 N   0  0  0  0  0  0  0  0  0  0  0  0
    1.4903   -2.6519    0.0000 N   0  0  0  0  0  0  0  0  0  0  0  0
    3.0903   -0.3945    0.0000 N   0  0  0  0  0  0  0  0  0  0  0  0
    3.7917    0.0000    0.0000 N   0  0  0  0  0  0  0  0  0  0  0  0
    5.3039   -0.1754    0.0000 N   0  0  0  0  0  0  0  0  0  0  0  0
    5.7861   -0.8328    0.0000 N   0  0  0  0  0  0  0  0  0  0  0  0
    2.3890   -1.6657    0.0000 C   0  0  0  0  0  0  0  0  0  0  0  0
    2.3013   -2.4766    0.0000 C   0  0  0  0  0  0  0  0  0  0  0  0
    1.6000   -1.3369    0.0000 C   0  0  0  0  0  0  0  0  0  0  0  0
    3.0903   -1.2493    0.0000 C   0  0  0  0  0  0  0  0  0  0  0  0
    4.5149   -1.2493    0.0000 C   0  0  0  0  0  0  0  0  0  0  0  0
    3.7917   -1.6438    0.0000 C   0  0  0  0  0  0  0  0  0  0  0  0
    4.5149   -0.3945    0.0000 C   0  0  0  0  0  0  0  0  0  0  0  0
    2.9150   -3.0246    0.0000 C   0  0  0  0  0  0  0  0  0  0  0  0
    5.3039   -1.4903    0.0000 C   0  0  0  0  0  0  0  0  0  0  0  0
    1.3589   -0.5479    0.0000 C   0  0  0  0  0  0  0  0  0  0  0  0
    0.2630   -1.7753    0.0000 C   0  0  0  0  0  0  0  0  0  0  0  0
    3.7040   -2.7615    0.0000 C   0  0  0  0  0  0  0  0  0  0  0  0
    2.7396   -3.8355    0.0000 C   0  0  0  0  0  0  0  0  0  0  0  0
    0.5479   -0.3726    0.0000 C   0  0  0  0  0  0  0  0  0  0  0  0
    0.0000   -0.9863    0.0000 C   0  0  0  0  0  0  0  0  0  0  0  0
    4.3176   -3.3095    0.0000 C   0  0  0  0  0  0  0  0  0  0  0  0
    3.3533   -4.3834    0.0000 C   0  0  0  0  0  0  0  0  0  0  0  0
    4.1423   -4.1204    0.0000 C   0  0  0  0  0  0  0  0  0  0  0  0
  1 16  1  0  0  0  0
  2  3  1  0  0  0  0
  2 10  1  0  0  0  0
  2 18  1  0  0  0  0
  3  9  2  0  0  0  0
  4  5  2  0  0  0  0
  4 11  1  0  0  0  0
  5 14  1  0  0  0  0
  6  7  1  0  0  0  0
  6 14  1  0  0  0  0
  7 16  2  0  0  0  0
  8  9  1  0  0  0  0
  8 10  2  0  0  0  0
  8 11  1  0  0  0  0
  9 15  1  0  0  0  0
 10 17  1  0  0  0  0
 11 13  2  0  0  0  0
 12 13  1  0  0  0  0
 12 14  2  0  0  0  0
 12 16  1  0  0  0  0
 15 19  2  0  0  0  0
 15 20  1  0  0  0  0
 17 21  2  0  0  0  0
 18 22  2  0  0  0  0
 19 23  1  0  0  0  0
 20 24  2  0  0  0  0
 21 22  1  0  0  0  0
 23 25  2  0  0  0  0
 24 25  1  0  0  0  0
M  END
> <PUBCHEM_COMPOUND_ID_TYPE>
0

> <PUBCHEM_TOTAL_CHARGE>
0

> <PUBCHEM_SUBSTANCE_ID>
310936455

> <PUBCHEM_SUBSTANCE_VERSION>
1

> <PUBCHEM_EXT_DATASOURCE_NAME>
4488

> <PUBCHEM_EXT_DATASOURCE_REGID>
SCHEMBL16114097

> <PUBCHEM_SUBSTANCE_COMMENT>
InChI=1S/C18H12N6O/c25-18-12-10-13(19-20-17(12)21-22-18)15-14-8-4-5-9-24(14)23-16(15)11-6-2-1-3-7-11/h1-10H,(H2,20,21,22,25)
InChIKey=QMBDONCHHMIWFJ-UHFFFAOYSA-N

> <PUBCHEM_SUBSTANCE_SYNONYM>
SCHEMBL16114097

> <PUBCHEM_XREF_EXT_ID>
SCHEMBL16114097

> <PUBCHEM_EXT_DATASOURCE_URL>
https://www.surechembl.org/

> <PUBCHEM_EXT_SUBSTANCE_URL>
https://www.surechembl.org/chemical/SCHEMBL16114097

> <PUBCHEM_CID_ASSOCIATIONS>
16760417  1

> <PUBCHEM_COORDINATE_TYPE>
1
3

$$$$
