310944428
  -OEChem-07211613022D

 15 16  0     1  0  0  0  0  0999 V2000
   -2.6499   -0.1395    0.0000 F   0  0  0  0  0  0  0  0  0  0  0  0
    2.6499   -1.5032    0.0000 O   0  0  0  0  0  0  0  0  0  0  0  0
    0.3099    0.0155    0.0000 N   0  0  0  0  0  0  0  0  0  0  0  0
    0.7903    0.6819    0.0000 N   0  0  0  0  0  0  0  0  0  0  0  0
   -0.4959    0.2944    0.0000 C   0  0  0  0  0  0  0  0  0  0  0  0
   -0.4804    1.1158    0.0000 C   0  0  0  0  0  0  0  0  0  0  0  0
   -1.1777   -0.1240    0.0000 C   0  0  0  0  0  0  0  0  0  0  0  0
    0.2944    1.3637    0.0000 C   0  0  0  0  0  0  0  0  0  0  0  0
   -1.2088    1.5032    0.0000 C   0  0  0  0  0  0  0  0  0  0  0  0
   -1.9216    0.2790    0.0000 C   0  0  0  0  0  0  0  0  0  0  0  0
    0.5579   -0.7594    0.0000 C   0  0  0  0  0  0  0  0  0  0  0  0
   -1.9061    1.1158    0.0000 C   0  0  0  0  0  0  0  0  0  0  0  0
    1.4102   -0.7903    0.0000 C   0  0  3  0  0  0  0  0  0  0  0  0
    1.8131   -1.4877    0.0000 C   0  0  0  0  0  0  0  0  0  0  0  0
    1.8131   -0.0620    0.0000 C   0  0  0  0  0  0  0  0  0  0  0  0
  1 10  1  0  0  0  0
  2 14  1  0  0  0  0
  3  4  1  0  0  0  0
  3  5  1  0  0  0  0
  3 11  1  0  0  0  0
  4  8  2  0  0  0  0
  5  6  1  0  0  0  0
  5  7  2  0  0  0  0
  6  8  1  0  0  0  0
  6  9  2  0  0  0  0
  7 10  1  0  0  0  0
  9 12  1  0  0  0  0
 10 12  2  0  0  0  0
 11 13  1  0  0  0  0
 13 14  1  0  0  0  0
 13 15  1  6  0  0  0
M  END
> <PUBCHEM_COMPOUND_ID_TYPE>
0

> <PUBCHEM_TOTAL_CHARGE>
0

> <PUBCHEM_SUBSTANCE_ID>
310944428

> <PUBCHEM_SUBSTANCE_VERSION>
1

> <PUBCHEM_EXT_DATASOURCE_NAME>
4488

> <PUBCHEM_EXT_DATASOURCE_REGID>
SCHEMBL16122503

> <PUBCHEM_SUBSTANCE_COMMENT>
InChI=1S/C11H13FN2O/c1-8(7-15)6-14-11-4-10(12)3-2-9(11)5-13-14/h2-5,8,15H,6-7H2,1H3/t8-/m0/s1
InChIKey=KPDPKXGNAXAZLE-QMMMGPOBSA-N

> <PUBCHEM_SUBSTANCE_SYNONYM>
SCHEMBL16122503

> <PUBCHEM_XREF_EXT_ID>
SCHEMBL16122503

> <PUBCHEM_EXT_DATASOURCE_URL>
https://www.surechembl.org/

> <PUBCHEM_EXT_SUBSTANCE_URL>
https://www.surechembl.org/chemical/SCHEMBL16122503

> <PUBCHEM_CID_ASSOCIATIONS>
117610682  1

> <PUBCHEM_COORDINATE_TYPE>
1
3

> <PUBCHEM_BONDANNOTATIONS>
13  15  6

$$$$
