310929671
  -OEChem-07211613022D

 21 23  0     0  0  0  0  0  0999 V2000
    0.0000   -1.6560    0.0000 Br  0  0  0  0  0  0  0  0  0  0  0  0
    4.2734    0.0000    0.0000 F   0  0  0  0  0  0  0  0  0  0  0  0
    1.4423   -2.4573    0.0000 O   0  0  0  0  0  0  0  0  0  0  0  0
    0.0000    0.0000    0.0000 O   0  0  0  0  0  0  0  0  0  0  0  0
    1.4423    0.0000    0.0000 N   0  0  0  0  0  0  0  0  0  0  0  0
    2.1634   -1.2286    0.0000 C   0  0  0  0  0  0  0  0  0  0  0  0
    1.4423   -1.6560    0.0000 C   0  0  0  0  0  0  0  0  0  0  0  0
    2.1634   -0.4274    0.0000 C   0  0  0  0  0  0  0  0  0  0  0  0
    0.7211   -1.2286    0.0000 C   0  0  0  0  0  0  0  0  0  0  0  0
    0.7211   -0.4274    0.0000 C   0  0  0  0  0  0  0  0  0  0  0  0
    2.8311   -1.6560    0.0000 C   0  0  0  0  0  0  0  0  0  0  0  0
    2.8311    0.0000    0.0000 C   0  0  0  0  0  0  0  0  0  0  0  0
    3.5523   -0.4274    0.0000 C   0  0  0  0  0  0  0  0  0  0  0  0
    3.5523   -1.2286    0.0000 C   0  0  0  0  0  0  0  0  0  0  0  0
    0.7211   -2.8846    0.0000 C   0  0  0  0  0  0  0  0  0  0  0  0
    0.7211   -3.7126    0.0000 C   0  0  0  0  0  0  0  0  0  0  0  0
    0.0267   -4.1132    0.0000 C   0  0  0  0  0  0  0  0  0  0  0  0
    1.4423   -4.1132    0.0000 C   0  0  0  0  0  0  0  0  0  0  0  0
    0.0267   -4.9412    0.0000 C   0  0  0  0  0  0  0  0  0  0  0  0
    1.4423   -4.9412    0.0000 C   0  0  0  0  0  0  0  0  0  0  0  0
    0.7211   -5.3418    0.0000 C   0  0  0  0  0  0  0  0  0  0  0  0
  1  9  1  0  0  0  0
  2 13  1  0  0  0  0
  3  7  1  0  0  0  0
  3 15  1  0  0  0  0
  4 10  2  0  0  0  0
  5  8  1  0  0  0  0
  5 10  1  0  0  0  0
  6  7  1  0  0  0  0
  6  8  2  0  0  0  0
  6 11  1  0  0  0  0
  7  9  2  0  0  0  0
  8 12  1  0  0  0  0
  9 10  1  0  0  0  0
 11 14  2  0  0  0  0
 12 13  2  0  0  0  0
 13 14  1  0  0  0  0
 15 16  1  0  0  0  0
 16 17  2  0  0  0  0
 16 18  1  0  0  0  0
 17 19  1  0  0  0  0
 18 20  2  0  0  0  0
 19 21  2  0  0  0  0
 20 21  1  0  0  0  0
M  END
> <PUBCHEM_COMPOUND_ID_TYPE>
0

> <PUBCHEM_TOTAL_CHARGE>
0

> <PUBCHEM_SUBSTANCE_ID>
310929671

> <PUBCHEM_SUBSTANCE_VERSION>
1

> <PUBCHEM_EXT_DATASOURCE_NAME>
4488

> <PUBCHEM_EXT_DATASOURCE_REGID>
SCHEMBL16106862

> <PUBCHEM_SUBSTANCE_COMMENT>
InChI=1S/C16H11BrFNO2/c17-14-15(21-9-10-4-2-1-3-5-10)12-7-6-11(18)8-13(12)19-16(14)20/h1-8H,9H2,(H,19,20)
InChIKey=UYGWGQQMCWLENT-UHFFFAOYSA-N

> <PUBCHEM_SUBSTANCE_SYNONYM>
SCHEMBL16106862

> <PUBCHEM_XREF_EXT_ID>
SCHEMBL16106862

> <PUBCHEM_EXT_DATASOURCE_URL>
https://www.surechembl.org/

> <PUBCHEM_EXT_SUBSTANCE_URL>
https://www.surechembl.org/chemical/SCHEMBL16106862

> <PUBCHEM_CID_ASSOCIATIONS>
117598969  1

> <PUBCHEM_COORDINATE_TYPE>
1
3

$$$$
