310938842
  -OEChem-07211613022D

 21 23  0     0  0  0  0  0  0999 V2000
   -1.8228    1.0475    0.0000 Cl  0  0  0  0  0  0  0  0  0  0  0  0
   -0.3712    1.0475    0.0000 O   0  0  0  0  0  0  0  0  0  0  0  0
    0.3712   -0.2062    0.0000 N   0  0  0  0  0  0  0  0  0  0  0  0
   -1.0804   -0.2062    0.0000 C   0  0  0  0  0  0  0  0  0  0  0  0
   -0.3712    0.2062    0.0000 C   0  0  0  0  0  0  0  0  0  0  0  0
   -1.0969   -1.0310    0.0000 C   0  0  0  0  0  0  0  0  0  0  0  0
    0.3547   -1.0475    0.0000 C   0  0  0  0  0  0  0  0  0  0  0  0
    1.0969    0.2227    0.0000 C   0  0  0  0  0  0  0  0  0  0  0  0
   -0.3547   -1.4599    0.0000 C   0  0  0  0  0  0  0  0  0  0  0  0
   -1.8228    0.2227    0.0000 C   0  0  0  0  0  0  0  0  0  0  0  0
   -1.8228   -1.4599    0.0000 C   0  0  0  0  0  0  0  0  0  0  0  0
   -2.5321   -0.2062    0.0000 C   0  0  0  0  0  0  0  0  0  0  0  0
    0.7835   -1.2784    0.0000 C   0  0  0  0  0  0  0  0  0  0  0  0
   -2.5155   -1.0475    0.0000 C   0  0  0  0  0  0  0  0  0  0  0  0
    1.8063   -0.1897    0.0000 C   0  0  0  0  0  0  0  0  0  0  0  0
    1.0969    1.0475    0.0000 C   0  0  0  0  0  0  0  0  0  0  0  0
    2.5321    0.2062    0.0000 C   0  0  0  0  0  0  0  0  0  0  0  0
    1.8063    1.4599    0.0000 C   0  0  0  0  0  0  0  0  0  0  0  0
    1.4268   -1.2784    0.0000 C   0  0  0  0  0  0  0  0  0  0  0  0
    2.5321    1.0475    0.0000 C   0  0  0  0  0  0  0  0  0  0  0  0
    1.8393   -1.0640    0.0000 C   0  0  0  0  0  0  0  0  0  0  0  0
  1 10  1  0  0  0  0
  2  5  2  0  0  0  0
  3  5  1  0  0  0  0
  3  7  1  0  0  0  0
  3  8  1  0  0  0  0
  4  5  1  0  0  0  0
  4  6  1  0  0  0  0
  4 10  2  0  0  0  0
  6  9  1  0  0  0  0
  6 11  2  0  0  0  0
  7  9  2  0  0  0  0
  7 13  1  0  0  0  0
  8 15  2  0  0  0  0
  8 16  1  0  0  0  0
 10 12  1  0  0  0  0
 11 14  1  0  0  0  0
 12 14  2  0  0  0  0
 13 19  1  0  0  0  0
 15 17  1  0  0  0  0
 16 18  2  0  0  0  0
 17 20  2  0  0  0  0
 18 20  1  0  0  0  0
 19 21  1  0  0  0  0
M  END
> <PUBCHEM_COMPOUND_ID_TYPE>
0

> <PUBCHEM_TOTAL_CHARGE>
0

> <PUBCHEM_SUBSTANCE_ID>
310938842

> <PUBCHEM_SUBSTANCE_VERSION>
1

> <PUBCHEM_EXT_DATASOURCE_NAME>
4488

> <PUBCHEM_EXT_DATASOURCE_REGID>
SCHEMBL16116761

> <PUBCHEM_SUBSTANCE_COMMENT>
InChI=1S/C18H16ClNO/c1-2-7-15-12-13-8-6-11-16(19)17(13)18(21)20(15)14-9-4-3-5-10-14/h3-6,8-12H,2,7H2,1H3
InChIKey=WXYMGWWFBQRIRM-UHFFFAOYSA-N

> <PUBCHEM_SUBSTANCE_SYNONYM>
SCHEMBL16116761

> <PUBCHEM_XREF_EXT_ID>
SCHEMBL16116761

> <PUBCHEM_EXT_DATASOURCE_URL>
https://www.surechembl.org/

> <PUBCHEM_EXT_SUBSTANCE_URL>
https://www.surechembl.org/chemical/SCHEMBL16116761

> <PUBCHEM_CID_ASSOCIATIONS>
117606242  1

> <PUBCHEM_COORDINATE_TYPE>
1
3

> <PUBCHEM_BONDANNOTATIONS>
13  19  3

$$$$
