310930559
  -OEChem-07211613022D

 31 34  0     0  0  0  0  0  0999 V2000
   -6.4302    0.8250    0.0000 S   0  0  0  0  0  0  0  0  0  0  0  0
   -6.0177    1.5395    0.0000 O   0  0  0  0  0  0  0  0  0  0  0  0
   -6.8427    0.1106    0.0000 O   0  0  0  0  0  0  0  0  0  0  0  0
   -6.4302    2.4750    0.0000 O   0  0  0  0  0  0  0  0  0  0  0  0
   -2.1434   -1.6500    0.0000 O   0  0  0  0  0  0  0  0  0  0  0  0
   -0.7144    0.8250    0.0000 N   0  0  0  0  0  0  0  0  0  0  0  0
    0.7846    0.6674    0.0000 N   0  0  0  0  0  0  0  0  0  0  0  0
   -2.8579   -0.4125    0.0000 N   0  0  0  0  0  0  0  0  0  0  0  0
    1.2696    0.0000    0.0000 N   0  0  0  0  0  0  0  0  0  0  0  0
   -7.1447    1.2375    0.0000 C   0  0  0  0  0  0  0  0  0  0  0  0
   -5.7158    0.4125    0.0000 C   0  0  0  0  0  0  0  0  0  0  0  0
   -7.1447    2.0625    0.0000 C   0  0  0  0  0  0  0  0  0  0  0  0
   -7.8592    0.8250    0.0000 C   0  0  0  0  0  0  0  0  0  0  0  0
   -5.0013    0.8250    0.0000 C   0  0  0  0  0  0  0  0  0  0  0  0
   -5.7158   -0.4125    0.0000 C   0  0  0  0  0  0  0  0  0  0  0  0
    0.0000   -0.4125    0.0000 C   0  0  0  0  0  0  0  0  0  0  0  0
    0.0000    0.4125    0.0000 C   0  0  0  0  0  0  0  0  0  0  0  0
   -1.4290   -0.4125    0.0000 C   0  0  0  0  0  0  0  0  0  0  0  0
   -4.2868   -0.4125    0.0000 C   0  0  0  0  0  0  0  0  0  0  0  0
   -7.8592    2.4750    0.0000 C   0  0  0  0  0  0  0  0  0  0  0  0
   -0.7144   -0.8250    0.0000 C   0  0  0  0  0  0  0  0  0  0  0  0
   -4.2868    0.4125    0.0000 C   0  0  0  0  0  0  0  0  0  0  0  0
   -5.0013   -0.8250    0.0000 C   0  0  0  0  0  0  0  0  0  0  0  0
   -2.1434   -0.8250    0.0000 C   0  0  0  0  0  0  0  0  0  0  0  0
   -8.5736    1.2375    0.0000 C   0  0  0  0  0  0  0  0  0  0  0  0
   -1.4290    0.4125    0.0000 C   0  0  0  0  0  0  0  0  0  0  0  0
    0.7846   -0.6674    0.0000 C   0  0  0  0  0  0  0  0  0  0  0  0
   -8.5736    2.0625    0.0000 C   0  0  0  0  0  0  0  0  0  0  0  0
   -3.5724   -0.8250    0.0000 C   0  0  0  0  0  0  0  0  0  0  0  0
   -5.7158    2.0625    0.0000 C   0  0  0  0  0  0  0  0  0  0  0  0
   -5.0013    2.4750    0.0000 C   0  0  0  0  0  0  0  0  0  0  0  0
  1  2  2  0  0  0  0
  1  3  2  0  0  0  0
  1 10  1  0  0  0  0
  1 11  1  0  0  0  0
  4 12  1  0  0  0  0
  4 30  1  0  0  0  0
  5 24  2  0  0  0  0
  6 17  2  0  0  0  0
  6 26  1  0  0  0  0
  7  9  1  0  0  0  0
  7 17  1  0  0  0  0
  8 24  1  0  0  0  0
  8 29  1  0  0  0  0
  9 27  2  0  0  0  0
 10 12  1  0  0  0  0
 10 13  2  0  0  0  0
 11 14  2  0  0  0  0
 11 15  1  0  0  0  0
 12 20  2  0  0  0  0
 13 25  1  0  0  0  0
 14 22  1  0  0  0  0
 15 23  2  0  0  0  0
 16 17  1  0  0  0  0
 16 21  2  0  0  0  0
 16 27  1  0  0  0  0
 18 21  1  0  0  0  0
 18 24  1  0  0  0  0
 18 26  2  0  0  0  0
 19 22  2  0  0  0  0
 19 23  1  0  0  0  0
 19 29  1  0  0  0  0
 20 28  1  0  0  0  0
 25 28  2  0  0  0  0
 30 31  1  0  0  0  0
M  END
> <PUBCHEM_COMPOUND_ID_TYPE>
0

> <PUBCHEM_TOTAL_CHARGE>
0

> <PUBCHEM_SUBSTANCE_ID>
310930559

> <PUBCHEM_SUBSTANCE_VERSION>
1

> <PUBCHEM_EXT_DATASOURCE_NAME>
4488

> <PUBCHEM_EXT_DATASOURCE_REGID>
SCHEMBL16107853

> <PUBCHEM_SUBSTANCE_COMMENT>
InChI=1S/C22H20N4O4S/c1-2-30-19-5-3-4-6-20(19)31(28,29)18-9-7-15(8-10-18)12-24-22(27)17-11-16-14-25-26-21(16)23-13-17/h3-11,13-14H,2,12H2,1H3,(H,24,27)(H,23,25,26)
InChIKey=FZFZEFFSOKGJDG-UHFFFAOYSA-N

> <PUBCHEM_SUBSTANCE_SYNONYM>
SCHEMBL16107853

> <PUBCHEM_XREF_EXT_ID>
SCHEMBL16107853

> <PUBCHEM_EXT_DATASOURCE_URL>
https://www.surechembl.org/

> <PUBCHEM_EXT_SUBSTANCE_URL>
https://www.surechembl.org/chemical/SCHEMBL16107853

> <PUBCHEM_CID_ASSOCIATIONS>
90034175  1

> <PUBCHEM_COORDINATE_TYPE>
1
3

$$$$
