310949795
  -OEChem-07211613022D

  8  8  0     0  0  0  0  0  0999 V2000
   -0.6301   -0.0077    0.0000 S   0  0  0  0  0  0  0  0  0  0  0  0
    1.3925   -0.0077    0.0000 O   0  0  0  0  0  0  0  0  0  0  0  0
   -0.6301    0.8324    0.0000 O   0  0  0  0  0  0  0  0  0  0  0  0
   -0.6301   -0.8324    0.0000 O   0  0  0  0  0  0  0  0  0  0  0  0
    0.1945   -0.0077    0.0000 C   0  0  0  0  0  0  0  0  0  0  0  0
    0.7857   -0.5835    0.0000 C   0  0  0  0  0  0  0  0  0  0  0  0
    0.7701    0.5679    0.0000 C   0  0  0  0  0  0  0  0  0  0  0  0
   -1.3925   -0.0077    0.0000 C   0  0  0  0  0  0  0  0  0  0  0  0
  1  3  2  0  0  0  0
  1  4  2  0  0  0  0
  1  5  1  0  0  0  0
  1  8  1  0  0  0  0
  2  6  1  0  0  0  0
  2  7  1  0  0  0  0
  5  6  1  0  0  0  0
  5  7  1  0  0  0  0
M  END
> <PUBCHEM_COMPOUND_ID_TYPE>
0

> <PUBCHEM_TOTAL_CHARGE>
0

> <PUBCHEM_SUBSTANCE_ID>
310949795

> <PUBCHEM_SUBSTANCE_VERSION>
1

> <PUBCHEM_EXT_DATASOURCE_NAME>
4488

> <PUBCHEM_EXT_DATASOURCE_REGID>
SCHEMBL16127993

> <PUBCHEM_SUBSTANCE_COMMENT>
InChI=1S/C4H8O3S/c1-8(5,6)4-2-7-3-4/h4H,2-3H2,1H3
InChIKey=MBLDLAMUHHZYMW-UHFFFAOYSA-N

> <PUBCHEM_SUBSTANCE_SYNONYM>
SCHEMBL16127993

> <PUBCHEM_XREF_EXT_ID>
SCHEMBL16127993

> <PUBCHEM_EXT_DATASOURCE_URL>
https://www.surechembl.org/

> <PUBCHEM_EXT_SUBSTANCE_URL>
https://www.surechembl.org/chemical/SCHEMBL16127993

> <PUBCHEM_CID_ASSOCIATIONS>
117615117  1

> <PUBCHEM_COORDINATE_TYPE>
1
3

$$$$
