310939899
  -OEChem-07211613022D

 31 33  0     0  0  0  0  0  0999 V2000
   -3.5724   -1.8562    0.0000 Cl  0  0  0  0  0  0  0  0  0  0  0  0
   -2.8579    1.0313    0.0000 Cl  0  0  0  0  0  0  0  0  0  0  0  0
   -0.7145   -1.8563    0.0000 O   0  0  0  0  0  0  0  0  0  0  0  0
   -0.7145    0.6187    0.0000 O   0  0  0  0  0  0  0  0  0  0  0  0
    4.2868    1.8563    0.0000 O   0  0  0  0  0  0  0  0  0  0  0  0
    0.0000   -0.6187    0.0000 N   0  0  0  0  0  0  0  0  0  0  0  0
    2.1434   -0.2062    0.0000 N   0  0  0  0  0  0  0  0  0  0  0  0
    3.5724    0.6187    0.0000 N   0  0  0  0  0  0  0  0  0  0  0  0
   -2.8579   -0.6187    0.0000 C   0  0  0  0  0  0  0  0  0  0  0  0
   -1.4289   -0.6187    0.0000 C   0  0  0  0  0  0  0  0  0  0  0  0
   -3.5724   -0.2062    0.0000 C   0  0  0  0  0  0  0  0  0  0  0  0
   -2.8579   -1.4437    0.0000 C   0  0  0  0  0  0  0  0  0  0  0  0
   -1.4289   -1.4437    0.0000 C   0  0  0  0  0  0  0  0  0  0  0  0
   -2.1434   -0.2062    0.0000 C   0  0  0  0  0  0  0  0  0  0  0  0
   -2.1434   -1.8563    0.0000 C   0  0  0  0  0  0  0  0  0  0  0  0
   -0.7145   -0.2062    0.0000 C   0  0  0  0  0  0  0  0  0  0  0  0
   -3.5724    0.6187    0.0000 C   0  0  0  0  0  0  0  0  0  0  0  0
   -4.2868   -0.6187    0.0000 C   0  0  0  0  0  0  0  0  0  0  0  0
   -4.2868    1.0313    0.0000 C   0  0  0  0  0  0  0  0  0  0  0  0
   -5.0013   -0.2062    0.0000 C   0  0  0  0  0  0  0  0  0  0  0  0
   -5.0013    0.6187    0.0000 C   0  0  0  0  0  0  0  0  0  0  0  0
    0.7145   -0.2062    0.0000 C   0  0  0  0  0  0  0  0  0  0  0  0
    1.4289   -0.6187    0.0000 C   0  0  0  0  0  0  0  0  0  0  0  0
    2.8579   -0.6187    0.0000 C   0  0  0  0  0  0  0  0  0  0  0  0
    2.1434    0.6187    0.0000 C   0  0  0  0  0  0  0  0  0  0  0  0
    3.5724   -0.2062    0.0000 C   0  0  0  0  0  0  0  0  0  0  0  0
    2.8579    1.0313    0.0000 C   0  0  0  0  0  0  0  0  0  0  0  0
    4.2868    1.0313    0.0000 C   0  0  0  0  0  0  0  0  0  0  0  0
    0.0000   -1.4437    0.0000 C   0  0  0  0  0  0  0  0  0  0  0  0
    5.0013    0.6187    0.0000 C   0  0  0  0  0  0  0  0  0  0  0  0
    5.0013   -0.2062    0.0000 C   0  0  0  0  0  0  0  0  0  0  0  0
  1 12  1  0  0  0  0
  2 17  1  0  0  0  0
  3 13  1  0  0  0  0
  3 29  1  0  0  0  0
  4 16  2  0  0  0  0
  5 28  2  0  0  0  0
  6 16  1  0  0  0  0
  6 22  1  0  0  0  0
  7 23  1  0  0  0  0
  7 24  1  0  0  0  0
  7 25  1  0  0  0  0
  8 26  1  0  0  0  0
  8 27  1  0  0  0  0
  8 28  1  0  0  0  0
  9 11  1  0  0  0  0
  9 12  2  0  0  0  0
  9 14  1  0  0  0  0
 10 13  1  0  0  0  0
 10 14  2  0  0  0  0
 10 16  1  0  0  0  0
 11 17  2  0  0  0  0
 11 18  1  0  0  0  0
 12 15  1  0  0  0  0
 13 15  2  0  0  0  0
 17 19  1  0  0  0  0
 18 20  2  0  0  0  0
 19 21  2  0  0  0  0
 20 21  1  0  0  0  0
 22 23  1  0  0  0  0
 24 26  1  0  0  0  0
 25 27  1  0  0  0  0
 28 30  1  0  0  0  0
 30 31  2  0  0  0  0
M  END
> <PUBCHEM_COMPOUND_ID_TYPE>
0

> <PUBCHEM_TOTAL_CHARGE>
0

> <PUBCHEM_SUBSTANCE_ID>
310939899

> <PUBCHEM_SUBSTANCE_VERSION>
1

> <PUBCHEM_EXT_DATASOURCE_NAME>
4488

> <PUBCHEM_EXT_DATASOURCE_REGID>
SCHEMBL16117829

> <PUBCHEM_SUBSTANCE_COMMENT>
InChI=1S/C23H25Cl2N3O3/c1-3-22(29)28-12-10-27(11-13-28)9-8-26-23(30)18-14-17(20(25)15-21(18)31-2)16-6-4-5-7-19(16)24/h3-7,14-15H,1,8-13H2,2H3,(H,26,30)
InChIKey=PPCADKUKMLMKCJ-UHFFFAOYSA-N

> <PUBCHEM_SUBSTANCE_SYNONYM>
SCHEMBL16117829

> <PUBCHEM_XREF_EXT_ID>
SCHEMBL16117829

> <PUBCHEM_EXT_DATASOURCE_URL>
https://www.surechembl.org/

> <PUBCHEM_EXT_SUBSTANCE_URL>
https://www.surechembl.org/chemical/SCHEMBL16117829

> <PUBCHEM_CID_ASSOCIATIONS>
117607113  1

> <PUBCHEM_COORDINATE_TYPE>
1
3

$$$$
