310943624
  -OEChem-07211613022D

 36 41  0     0  0  0  0  0  0999 V2000
   -2.5558   -2.8651    0.0000 O   0  0  0  0  0  0  0  0  0  0  0  0
   -5.4430    2.4379    0.0000 O   0  0  0  0  0  0  0  0  0  0  0  0
    1.7603    2.4232    0.0000 O   0  0  0  0  0  0  0  0  0  0  0  0
   -2.5705   -0.8618    0.0000 N   0  0  0  0  0  0  0  0  0  0  0  0
   -3.2923    0.3756    0.0000 N   0  0  0  0  0  0  0  0  0  0  0  0
   -3.9994    1.6130    0.0000 N   0  0  0  0  0  0  0  0  0  0  0  0
    1.0385    1.2005    0.0000 N   0  0  0  0  0  0  0  0  0  0  0  0
    3.9110    0.3756    0.0000 N   0  0  0  0  0  0  0  0  0  0  0  0
   -1.8339    1.2005    0.0000 C   0  0  0  0  0  0  0  0  0  0  0  0
   -2.5558   -0.0368    0.0000 C   0  0  0  0  0  0  0  0  0  0  0  0
   -1.1122    1.6130    0.0000 C   0  0  0  0  0  0  0  0  0  0  0  0
   -3.2776    1.2005    0.0000 C   0  0  0  0  0  0  0  0  0  0  0  0
   -1.8487    0.3756    0.0000 C   0  0  0  0  0  0  0  0  0  0  0  0
   -2.5558    1.6130    0.0000 C   0  0  0  0  0  0  0  0  0  0  0  0
   -1.1122    2.4379    0.0000 C   0  0  0  0  0  0  0  0  0  0  0  0
   -0.4051    1.2005    0.0000 C   0  0  0  0  0  0  0  0  0  0  0  0
   -3.1450   -1.4510    0.0000 C   0  0  0  0  0  0  0  0  0  0  0  0
   -1.9813   -1.4362    0.0000 C   0  0  0  0  0  0  0  0  0  0  0  0
   -2.5558   -2.0107    0.0000 C   0  0  0  0  0  0  0  0  0  0  0  0
    0.3167    1.6277    0.0000 C   0  0  0  0  0  0  0  0  0  0  0  0
   -0.4051    2.8356    0.0000 C   0  0  0  0  0  0  0  0  0  0  0  0
    3.9258    1.2005    0.0000 C   0  0  0  0  0  0  0  0  0  0  0  0
    4.6475    1.6277    0.0000 C   0  0  0  0  0  0  0  0  0  0  0  0
    0.3167    2.4232    0.0000 C   0  0  0  0  0  0  0  0  0  0  0  0
    2.4821    1.2005    0.0000 C   0  0  0  0  0  0  0  0  0  0  0  0
    1.7456    1.5983    0.0000 C   0  0  0  0  0  0  0  0  0  0  0  0
   -4.0141    2.4379    0.0000 C   0  0  0  0  0  0  0  0  0  0  0  0
   -4.7064    1.2005    0.0000 C   0  0  0  0  0  0  0  0  0  0  0  0
    3.2039    1.6130    0.0000 C   0  0  0  0  0  0  0  0  0  0  0  0
    5.0452    2.3053    0.0000 C   0  0  0  0  0  0  0  0  0  0  0  0
    5.4430    1.6130    0.0000 C   0  0  0  0  0  0  0  0  0  0  0  0
   -1.8339    2.8651    0.0000 C   0  0  0  0  0  0  0  0  0  0  0  0
    2.4821    0.3756    0.0000 C   0  0  0  0  0  0  0  0  0  0  0  0
    3.2039   -0.0368    0.0000 C   0  0  0  0  0  0  0  0  0  0  0  0
   -4.7212    2.8504    0.0000 C   0  0  0  0  0  0  0  0  0  0  0  0
   -5.4430    1.6130    0.0000 C   0  0  0  0  0  0  0  0  0  0  0  0
  1 19  1  0  0  0  0
  2 35  1  0  0  0  0
  2 36  1  0  0  0  0
  3 26  2  0  0  0  0
  4 10  1  0  0  0  0
  4 17  1  0  0  0  0
  4 18  1  0  0  0  0
  5 10  2  0  0  0  0
  5 12  1  0  0  0  0
  6 12  1  0  0  0  0
  6 27  1  0  0  0  0
  6 28  1  0  0  0  0
  7 20  1  0  0  0  0
  7 26  1  0  0  0  0
  8 22  1  0  0  0  0
  8 34  2  0  0  0  0
  9 11  1  0  0  0  0
  9 13  2  0  0  0  0
  9 14  1  0  0  0  0
 10 13  1  0  0  0  0
 11 15  1  0  0  0  0
 11 16  2  0  0  0  0
 12 14  2  0  0  0  0
 15 21  2  0  0  0  0
 15 32  1  0  0  0  0
 16 20  1  0  0  0  0
 17 19  1  0  0  0  0
 18 19  1  0  0  0  0
 20 24  2  0  0  0  0
 21 24  1  0  0  0  0
 22 23  1  0  0  0  0
 22 29  2  0  0  0  0
 23 30  1  0  0  0  0
 23 31  1  0  0  0  0
 25 26  1  0  0  0  0
 25 29  1  0  0  0  0
 25 33  2  0  0  0  0
 27 35  1  0  0  0  0
 28 36  1  0  0  0  0
 30 31  1  0  0  0  0
 33 34  1  0  0  0  0
M  END
> <PUBCHEM_COMPOUND_ID_TYPE>
0

> <PUBCHEM_TOTAL_CHARGE>
0

> <PUBCHEM_SUBSTANCE_ID>
310943624

> <PUBCHEM_SUBSTANCE_VERSION>
1

> <PUBCHEM_EXT_DATASOURCE_NAME>
4488

> <PUBCHEM_EXT_DATASOURCE_REGID>
SCHEMBL16121692

> <PUBCHEM_SUBSTANCE_COMMENT>
InChI=1S/C28H31N5O3/c1-18-2-5-22(30-28(35)20-6-7-29-25(12-20)19-3-4-19)15-24(18)21-13-26(32-8-10-36-11-9-32)31-27(14-21)33-16-23(34)17-33/h2,5-7,12-15,19,23,34H,3-4,8-11,16-17H2,1H3,(H,30,35)
InChIKey=KQBACBRUHFGIHB-UHFFFAOYSA-N

> <PUBCHEM_SUBSTANCE_SYNONYM>
SCHEMBL16121692

> <PUBCHEM_XREF_EXT_ID>
SCHEMBL16121692

> <PUBCHEM_EXT_DATASOURCE_URL>
https://www.surechembl.org/

> <PUBCHEM_EXT_SUBSTANCE_URL>
https://www.surechembl.org/chemical/SCHEMBL16121692

> <PUBCHEM_CID_ASSOCIATIONS>
117610015  1

> <PUBCHEM_COORDINATE_TYPE>
1
3

$$$$
