310940702
  -OEChem-07211613022D

 23 25  0     0  0  0  0  0  0999 V2000
    0.3790    1.6465    0.0000 O   0  0  0  0  0  0  0  0  0  0  0  0
   -0.3267    0.4181    0.0000 N   0  0  0  0  0  0  0  0  0  0  0  0
    1.1238    0.4181    0.0000 N   0  0  0  0  0  0  0  0  0  0  0  0
   -0.3267   -2.0516    0.0000 N   0  0  0  0  0  0  0  0  0  0  0  0
   -0.3659   -0.4051    0.0000 C   0  0  0  0  0  0  0  0  0  0  0  0
    0.3528    0.8232    0.0000 C   0  0  0  0  0  0  0  0  0  0  0  0
   -1.0846    0.8363    0.0000 C   0  0  0  0  0  0  0  0  0  0  0  0
   -1.8034    0.4313    0.0000 C   0  0  0  0  0  0  0  0  0  0  0  0
   -1.0846   -0.8102    0.0000 C   0  0  0  0  0  0  0  0  0  0  0  0
    0.3659   -0.8233    0.0000 C   0  0  0  0  0  0  0  0  0  0  0  0
    1.8034    0.8363    0.0000 C   0  0  0  0  0  0  0  0  0  0  0  0
   -2.5221    0.8232    0.0000 C   0  0  0  0  0  0  0  0  0  0  0  0
   -1.8164   -0.4051    0.0000 C   0  0  0  0  0  0  0  0  0  0  0  0
   -1.0846   -1.6335    0.0000 C   0  0  0  0  0  0  0  0  0  0  0  0
    0.3528   -1.6465    0.0000 C   0  0  0  0  0  0  0  0  0  0  0  0
    1.8164    1.6596    0.0000 C   0  0  0  0  0  0  0  0  0  0  0  0
    2.5221    0.4313    0.0000 C   0  0  0  0  0  0  0  0  0  0  0  0
   -3.2408    0.4181    0.0000 C   0  0  0  0  0  0  0  0  0  0  0  0
   -2.5089   -0.8102    0.0000 C   0  0  0  0  0  0  0  0  0  0  0  0
    2.5221    2.0516    0.0000 C   0  0  0  0  0  0  0  0  0  0  0  0
    3.2408    0.8363    0.0000 C   0  0  0  0  0  0  0  0  0  0  0  0
   -3.2408   -0.4051    0.0000 C   0  0  0  0  0  0  0  0  0  0  0  0
    3.2408    1.6465    0.0000 C   0  0  0  0  0  0  0  0  0  0  0  0
  1  6  2  0  0  0  0
  2  5  1  0  0  0  0
  2  6  1  0  0  0  0
  2  7  1  0  0  0  0
  3  6  1  0  0  0  0
  3 11  1  0  0  0  0
  4 14  1  0  0  0  0
  4 15  1  0  0  0  0
  5  9  1  0  0  0  0
  5 10  1  0  0  0  0
  7  8  1  0  0  0  0
  8 12  2  0  0  0  0
  8 13  1  0  0  0  0
  9 14  1  0  0  0  0
 10 15  1  0  0  0  0
 11 16  1  0  0  0  0
 11 17  1  0  0  0  0
 12 18  1  0  0  0  0
 13 19  2  0  0  0  0
 16 20  1  0  0  0  0
 17 21  1  0  0  0  0
 18 22  2  0  0  0  0
 19 22  1  0  0  0  0
 20 23  1  0  0  0  0
 21 23  1  0  0  0  0
M  END
> <PUBCHEM_COMPOUND_ID_TYPE>
0

> <PUBCHEM_TOTAL_CHARGE>
0

> <PUBCHEM_SUBSTANCE_ID>
310940702

> <PUBCHEM_SUBSTANCE_VERSION>
1

> <PUBCHEM_EXT_DATASOURCE_NAME>
4488

> <PUBCHEM_EXT_DATASOURCE_REGID>
SCHEMBL16118658

> <PUBCHEM_SUBSTANCE_COMMENT>
InChI=1S/C19H29N3O/c23-19(21-17-9-5-2-6-10-17)22(18-11-13-20-14-12-18)15-16-7-3-1-4-8-16/h1,3-4,7-8,17-18,20H,2,5-6,9-15H2,(H,21,23)
InChIKey=UPJKWAPKMIEBBP-UHFFFAOYSA-N

> <PUBCHEM_SUBSTANCE_SYNONYM>
SCHEMBL16118658

> <PUBCHEM_XREF_EXT_ID>
SCHEMBL16118658

> <PUBCHEM_EXT_DATASOURCE_URL>
https://www.surechembl.org/

> <PUBCHEM_EXT_SUBSTANCE_URL>
https://www.surechembl.org/chemical/SCHEMBL16118658

> <PUBCHEM_CID_ASSOCIATIONS>
86300214  1

> <PUBCHEM_COORDINATE_TYPE>
1
3

$$$$
