310944201
  -OEChem-07211613022D

 32 36  0     1  0  0  0  0  0999 V2000
   -1.3192   -1.1923    0.0000 F   0  0  0  0  0  0  0  0  0  0  0  0
    2.4783   -0.0552    0.0000 O   0  0  0  0  0  0  0  0  0  0  0  0
    5.0064   -1.6228    0.0000 O   0  0  0  0  0  0  0  0  0  0  0  0
    5.4811   -0.2318    0.0000 O   0  0  0  0  0  0  0  0  0  0  0  0
    2.8647   -1.4793    0.0000 N   0  0  0  0  0  0  0  0  0  0  0  0
    0.1159   -0.3754    0.0000 N   0  0  0  0  0  0  0  0  0  0  0  0
   -4.1784    1.2805    0.0000 N   0  0  0  0  0  0  0  0  0  0  0  0
   -2.0257    0.8721    0.0000 N   0  0  0  0  0  0  0  0  0  0  0  0
   -4.2557    2.0975    0.0000 N   0  0  0  0  0  0  0  0  0  0  0  0
   -5.0726    2.2741    0.0000 N   0  0  0  0  0  0  0  0  0  0  0  0
   -5.4811    1.5566    0.0000 N   0  0  0  0  0  0  0  0  0  0  0  0
    1.5511   -1.1923    0.0000 C   0  0  0  0  0  0  0  0  0  0  0  0
    2.3018   -0.8611    0.0000 C   0  0  0  0  0  0  0  0  0  0  0  0
    3.6706   -1.3799    0.0000 C   0  0  0  0  0  0  0  0  0  0  0  0
    1.5511   -1.9982    0.0000 C   0  0  0  0  0  0  0  0  0  0  0  0
    2.3459   -2.2741    0.0000 C   0  0  0  0  0  0  0  0  0  0  0  0
    0.8555   -1.6007    0.0000 C   0  0  0  0  0  0  0  0  0  0  0  0
    1.5511   -0.3643    0.0000 C   0  0  0  0  0  0  0  0  0  0  0  0
    4.0791   -0.6403    0.0000 C   0  0  0  0  0  0  0  0  0  0  0  0
    4.2777   -1.9761    0.0000 C   0  0  0  0  0  0  0  0  0  0  0  0
    4.8849   -0.8059    0.0000 C   0  0  0  0  0  0  0  0  0  0  0  0
    0.1159   -1.1923    0.0000 C   0  0  0  0  0  0  0  0  0  0  0  0
    0.8335    0.0441    0.0000 C   0  0  0  0  0  0  0  0  0  0  0  0
   -0.6017    0.0441    0.0000 C   0  0  0  0  0  0  0  0  0  0  0  0
   -1.3082   -0.3643    0.0000 C   0  0  3  0  0  0  0  0  0  0  0  0
   -2.0368    0.0552    0.0000 C   0  0  0  0  0  0  0  0  0  0  0  0
    3.7148    0.0883    0.0000 C   0  0  0  0  0  0  0  0  0  0  0  0
   -3.4609    0.8721    0.0000 C   0  0  0  0  0  0  0  0  0  0  0  0
   -2.7323   -0.3643    0.0000 C   0  0  0  0  0  0  0  0  0  0  0  0
   -2.7543    1.2916    0.0000 C   0  0  0  0  0  0  0  0  0  0  0  0
   -3.4609    0.0552    0.0000 C   0  0  0  0  0  0  0  0  0  0  0  0
   -4.9181    0.9604    0.0000 C   0  0  0  0  0  0  0  0  0  0  0  0
 25  1  1  6  0  0  0
  2 13  2  0  0  0  0
  3 20  1  0  0  0  0
  3 21  1  0  0  0  0
  4 21  2  0  0  0  0
  5 13  1  0  0  0  0
  5 14  1  0  0  0  0
  5 16  1  0  0  0  0
  6 22  1  0  0  0  0
  6 23  1  0  0  0  0
  6 24  1  0  0  0  0
  7  9  1  0  0  0  0
  7 28  1  0  0  0  0
  7 32  1  0  0  0  0
  8 26  1  0  0  0  0
  8 30  2  0  0  0  0
  9 10  2  0  0  0  0
 10 11  1  0  0  0  0
 11 32  2  0  0  0  0
 12 13  1  0  0  0  0
 12 15  1  0  0  0  0
 12 17  1  0  0  0  0
 12 18  1  0  0  0  0
 14 19  2  0  0  0  0
 14 20  1  0  0  0  0
 15 16  1  0  0  0  0
 17 22  1  0  0  0  0
 18 23  1  0  0  0  0
 19 21  1  0  0  0  0
 19 27  1  0  0  0  0
 24 25  1  0  0  0  0
 25 26  1  0  0  0  0
 26 29  2  0  0  0  0
 28 30  1  0  0  0  0
 28 31  2  0  0  0  0
 29 31  1  0  0  0  0
M  END
> <PUBCHEM_COMPOUND_ID_TYPE>
0

> <PUBCHEM_TOTAL_CHARGE>
0

> <PUBCHEM_SUBSTANCE_ID>
310944201

> <PUBCHEM_SUBSTANCE_VERSION>
1

> <PUBCHEM_EXT_DATASOURCE_NAME>
4488

> <PUBCHEM_EXT_DATASOURCE_REGID>
SCHEMBL16122276

> <PUBCHEM_SUBSTANCE_COMMENT>
InChI=1S/C21H24FN7O3/c1-14-18(12-32-19(14)30)28-9-6-21(20(28)31)4-7-27(8-5-21)11-16(22)17-3-2-15(10-23-17)29-13-24-25-26-29/h2-3,10,13,16H,4-9,11-12H2,1H3/t16-/m0/s1
InChIKey=UJJJIQYNYCCWDH-INIZCTEOSA-N

> <PUBCHEM_SUBSTANCE_SYNONYM>
SCHEMBL16122276

> <PUBCHEM_XREF_EXT_ID>
SCHEMBL16122276

> <PUBCHEM_EXT_DATASOURCE_URL>
https://www.surechembl.org/

> <PUBCHEM_EXT_SUBSTANCE_URL>
https://www.surechembl.org/chemical/SCHEMBL16122276

> <PUBCHEM_CID_ASSOCIATIONS>
117610472  1

> <PUBCHEM_COORDINATE_TYPE>
1
3

> <PUBCHEM_BONDANNOTATIONS>
25  1  6

$$$$
