310949151
  -OEChem-07211613022D

 30 34  0     1  0  0  0  0  0999 V2000
    0.3814    3.0723    0.0000 F   0  0  0  0  0  0  0  0  0  0  0  0
    0.7114    2.0000    0.0000 F   0  0  0  0  0  0  0  0  0  0  0  0
   -0.3814    1.6702    0.0000 F   0  0  0  0  0  0  0  0  0  0  0  0
   -2.1547   -2.3506    0.0000 O   0  0  0  0  0  0  0  0  0  0  0  0
   -1.4331   -1.0722    0.0000 N   0  0  0  0  0  0  0  0  0  0  0  0
    0.5876   -2.5774    0.0000 N   0  0  0  0  0  0  0  0  0  0  0  0
   -0.6289   -3.1547    0.0000 N   0  0  0  0  0  0  0  0  0  0  0  0
    1.4124   -2.5568    0.0000 N   0  0  0  0  0  0  0  0  0  0  0  0
   -1.0413    0.2268    0.0000 C   0  0  3  0  0  0  0  0  0  0  0  0
   -1.8661    0.2474    0.0000 C   0  0  3  0  0  0  0  0  0  0  0  0
   -1.4331    1.5259    0.0000 C   0  0  0  0  0  0  0  0  0  0  0  0
   -1.4537   -1.8970    0.0000 C   0  0  0  0  0  0  0  0  0  0  0  0
   -1.4331    2.4125    0.0000 C   0  0  0  0  0  0  0  0  0  0  0  0
   -0.7320   -2.3094    0.0000 C   0  0  0  0  0  0  0  0  0  0  0  0
   -0.7732   -0.5773    0.0000 C   0  0  0  0  0  0  0  0  0  0  0  0
   -2.1135   -0.5980    0.0000 C   0  0  0  0  0  0  0  0  0  0  0  0
   -0.7939    1.0104    0.0000 C   0  0  0  0  0  0  0  0  0  0  0  0
   -2.0929    1.0310    0.0000 C   0  0  0  0  0  0  0  0  0  0  0  0
   -0.7320    2.8043    0.0000 C   0  0  0  0  0  0  0  0  0  0  0  0
    0.1753   -3.3197    0.0000 C   0  0  0  0  0  0  0  0  0  0  0  0
   -0.0103   -1.9794    0.0000 C   0  0  0  0  0  0  0  0  0  0  0  0
   -0.0103    2.3712    0.0000 C   0  0  0  0  0  0  0  0  0  0  0  0
   -2.1547    2.8043    0.0000 C   0  0  0  0  0  0  0  0  0  0  0  0
    0.6289   -4.0414    0.0000 C   0  0  0  0  0  0  0  0  0  0  0  0
   -0.7320    3.6290    0.0000 C   0  0  0  0  0  0  0  0  0  0  0  0
    1.8661   -3.2784    0.0000 C   0  0  0  0  0  0  0  0  0  0  0  0
    1.4537   -4.0208    0.0000 C   0  0  0  0  0  0  0  0  0  0  0  0
   -2.1341    3.6290    0.0000 C   0  0  0  0  0  0  0  0  0  0  0  0
   -1.4331    4.0414    0.0000 C   0  0  0  0  0  0  0  0  0  0  0  0
    2.6908   -3.2578    0.0000 C   0  0  0  0  0  0  0  0  0  0  0  0
  1 22  1  0  0  0  0
  2 22  1  0  0  0  0
  3 22  1  0  0  0  0
  4 12  2  0  0  0  0
  5 12  1  0  0  0  0
  5 15  1  0  0  0  0
  5 16  1  0  0  0  0
  6  8  1  0  0  0  0
  6 20  1  0  0  0  0
  6 21  1  0  0  0  0
  7 14  1  0  0  0  0
  7 20  2  0  0  0  0
  8 26  2  0  0  0  0
  9 10  1  0  0  0  0
  9 15  1  0  0  0  0
  9 17  1  1  0  0  0
 10 16  1  0  0  0  0
 10 18  1  1  0  0  0
 11 13  1  0  0  0  0
 11 17  1  1  0  0  0
 11 18  1  0  0  0  0
 12 14  1  0  0  0  0
 13 19  2  0  0  0  0
 13 23  1  0  0  0  0
 14 21  2  0  0  0  0
 19 22  1  0  0  0  0
 19 25  1  0  0  0  0
 20 24  1  0  0  0  0
 23 28  2  0  0  0  0
 24 27  2  0  0  0  0
 25 29  2  0  0  0  0
 26 27  1  0  0  0  0
 26 30  1  0  0  0  0
 28 29  1  0  0  0  0
M  END
> <PUBCHEM_COMPOUND_ID_TYPE>
0

> <PUBCHEM_TOTAL_CHARGE>
0

> <PUBCHEM_SUBSTANCE_ID>
310949151

> <PUBCHEM_SUBSTANCE_VERSION>
1

> <PUBCHEM_EXT_DATASOURCE_NAME>
4488

> <PUBCHEM_EXT_DATASOURCE_REGID>
SCHEMBL16127341

> <PUBCHEM_SUBSTANCE_COMMENT>
InChI=1S/C22H21F3N4O/c1-13-6-7-20-26-19(12-29(20)27-13)21(30)28-10-15-8-14(9-16(15)11-28)17-4-2-3-5-18(17)22(23,24)25/h2-7,12,14-16H,8-11H2,1H3/t14-,15-,16+
InChIKey=DSTMBQKFACASMG-PHZGNYQRSA-N

> <PUBCHEM_SUBSTANCE_SYNONYM>
SCHEMBL16127341

> <PUBCHEM_XREF_EXT_ID>
SCHEMBL16127341

> <PUBCHEM_EXT_DATASOURCE_URL>
https://www.surechembl.org/

> <PUBCHEM_EXT_SUBSTANCE_URL>
https://www.surechembl.org/chemical/SCHEMBL16127341

> <PUBCHEM_CID_ASSOCIATIONS>
86303966  1

> <PUBCHEM_COORDINATE_TYPE>
1
3

> <PUBCHEM_BONDANNOTATIONS>
10  18  5
11  17  5
9  17  5

$$$$
