310943850
  -OEChem-07211613022D

 35 39  0     1  0  0  0  0  0999 V2000
    2.1427    1.7902    0.0000 O   0  0  0  0  0  0  0  0  0  0  0  0
    5.4147    1.0631    0.0000 O   0  0  0  0  0  0  0  0  0  0  0  0
    5.2934    2.6054    0.0000 O   0  0  0  0  0  0  0  0  0  0  0  0
   -1.0190   -1.3606    0.0000 O   0  0  0  0  0  0  0  0  0  0  0  0
    3.2884    0.7105    0.0000 N   0  0  0  0  0  0  0  0  0  0  0  0
    0.3691   -0.2148    0.0000 N   0  0  0  0  0  0  0  0  0  0  0  0
   -4.0817    0.6996    0.0000 N   0  0  0  0  0  0  0  0  0  0  0  0
   -3.2003   -0.4241    0.0000 N   0  0  0  0  0  0  0  0  0  0  0  0
   -4.7756    0.2589    0.0000 N   0  0  0  0  0  0  0  0  0  0  0  0
   -5.4147    0.7876    0.0000 N   0  0  0  0  0  0  0  0  0  0  0  0
   -5.1062    1.5589    0.0000 N   0  0  0  0  0  0  0  0  0  0  0  0
    1.9664    0.2148    0.0000 C   0  0  0  0  0  0  0  0  0  0  0  0
    2.3630    0.9750    0.0000 C   0  0  0  0  0  0  0  0  0  0  0  0
    4.0817    0.9419    0.0000 C   0  0  0  0  0  0  0  0  0  0  0  0
    2.3630   -0.4241    0.0000 C   0  0  0  0  0  0  0  0  0  0  0  0
    3.1672   -0.2809    0.0000 C   0  0  0  0  0  0  0  0  0  0  0  0
    1.7461   -0.5784    0.0000 C   0  0  0  0  0  0  0  0  0  0  0  0
    1.3715    0.7987    0.0000 C   0  0  0  0  0  0  0  0  0  0  0  0
    4.2579    1.7461    0.0000 C   0  0  0  0  0  0  0  0  0  0  0  0
    4.8087    0.5123    0.0000 C   0  0  0  0  0  0  0  0  0  0  0  0
    0.9970   -0.7877    0.0000 C   0  0  0  0  0  0  0  0  0  0  0  0
    0.5894    0.5894    0.0000 C   0  0  0  0  0  0  0  0  0  0  0  0
    5.0731    1.7902    0.0000 C   0  0  0  0  0  0  0  0  0  0  0  0
   -0.5233    0.1267    0.0000 C   0  0  0  0  0  0  0  0  0  0  0  0
   -1.0190   -0.5233    0.0000 C   0  0  3  0  0  0  0  0  0  0  0  0
   -1.7902   -0.2258    0.0000 C   0  0  0  0  0  0  0  0  0  0  0  0
    3.6740    2.3300    0.0000 C   0  0  0  0  0  0  0  0  0  0  0  0
   -3.3105    0.4021    0.0000 C   0  0  0  0  0  0  0  0  0  0  0  0
   -2.4181   -0.7216    0.0000 C   0  0  0  0  0  0  0  0  0  0  0  0
   -1.9003    0.6004    0.0000 C   0  0  0  0  0  0  0  0  0  0  0  0
   -2.6605    0.9089    0.0000 C   0  0  0  0  0  0  0  0  0  0  0  0
   -4.2799    1.5038    0.0000 C   0  0  0  0  0  0  0  0  0  0  0  0
   -1.0190   -2.1758    0.0000 C   0  0  0  0  0  0  0  0  0  0  0  0
   -1.7461   -2.5834    0.0000 C   0  0  0  0  0  0  0  0  0  0  0  0
   -0.2809   -2.6054    0.0000 C   0  0  0  0  0  0  0  0  0  0  0  0
  1 13  2  0  0  0  0
  2 20  1  0  0  0  0
  2 23  1  0  0  0  0
  3 23  2  0  0  0  0
 25  4  1  6  0  0  0
  4 33  1  0  0  0  0
  5 13  1  0  0  0  0
  5 14  1  0  0  0  0
  5 16  1  0  0  0  0
  6 21  1  0  0  0  0
  6 22  1  0  0  0  0
  6 24  1  0  0  0  0
  7  9  1  0  0  0  0
  7 28  1  0  0  0  0
  7 32  1  0  0  0  0
  8 28  2  0  0  0  0
  8 29  1  0  0  0  0
  9 10  2  0  0  0  0
 10 11  1  0  0  0  0
 11 32  2  0  0  0  0
 12 13  1  0  0  0  0
 12 15  1  0  0  0  0
 12 17  1  0  0  0  0
 12 18  1  0  0  0  0
 14 19  2  0  0  0  0
 14 20  1  0  0  0  0
 15 16  1  0  0  0  0
 17 21  1  0  0  0  0
 18 22  1  0  0  0  0
 19 23  1  0  0  0  0
 19 27  1  0  0  0  0
 24 25  1  0  0  0  0
 25 26  1  0  0  0  0
 26 29  2  0  0  0  0
 26 30  1  0  0  0  0
 28 31  1  0  0  0  0
 30 31  2  0  0  0  0
 33 34  1  0  0  0  0
 33 35  1  0  0  0  0
M  END
> <PUBCHEM_COMPOUND_ID_TYPE>
0

> <PUBCHEM_TOTAL_CHARGE>
0

> <PUBCHEM_SUBSTANCE_ID>
310943850

> <PUBCHEM_SUBSTANCE_VERSION>
1

> <PUBCHEM_EXT_DATASOURCE_NAME>
4488

> <PUBCHEM_EXT_DATASOURCE_REGID>
SCHEMBL16121921

> <PUBCHEM_SUBSTANCE_COMMENT>
InChI=1S/C24H31N7O4/c1-16(2)35-20(18-4-5-21(25-12-18)31-15-26-27-28-31)13-29-9-6-24(7-10-29)8-11-30(23(24)33)19-14-34-22(32)17(19)3/h4-5,12,15-16,20H,6-11,13-14H2,1-3H3/t20-/m0/s1
InChIKey=OWHHFMCIUNTKQE-FQEVSTJZSA-N

> <PUBCHEM_SUBSTANCE_SYNONYM>
SCHEMBL16121921

> <PUBCHEM_XREF_EXT_ID>
SCHEMBL16121921

> <PUBCHEM_EXT_DATASOURCE_URL>
https://www.surechembl.org/

> <PUBCHEM_EXT_SUBSTANCE_URL>
https://www.surechembl.org/chemical/SCHEMBL16121921

> <PUBCHEM_CID_ASSOCIATIONS>
117610187  1

> <PUBCHEM_COORDINATE_TYPE>
1
3

> <PUBCHEM_BONDANNOTATIONS>
25  4  6

$$$$
