310941384
  -OEChem-07211613022D

 16 16  0     0  0  0  0  0  0999 V2000
   -3.6237    0.2578    0.0000 O   0  0  0  0  0  0  0  0  0  0  0  0
    0.7955   -0.9796    0.0000 O   0  0  0  0  0  0  0  0  0  0  0  0
    0.0884    0.2578    0.0000 O   0  0  0  0  0  0  0  0  0  0  0  0
   -1.3552   -0.5523    0.0000 N   0  0  0  0  0  0  0  0  0  0  0  0
   -2.7988    0.2725    0.0000 C   0  0  0  0  0  0  0  0  0  0  0  0
   -2.7841   -0.5523    0.0000 C   0  0  0  0  0  0  0  0  0  0  0  0
   -2.0770    0.6703    0.0000 C   0  0  0  0  0  0  0  0  0  0  0  0
   -1.3405    0.2578    0.0000 C   0  0  0  0  0  0  0  0  0  0  0  0
   -2.0476   -0.9649    0.0000 C   0  0  0  0  0  0  0  0  0  0  0  0
   -0.6188   -0.9649    0.0000 C   0  0  0  0  0  0  0  0  0  0  0  0
    0.0737   -0.5671    0.0000 C   0  0  0  0  0  0  0  0  0  0  0  0
   -3.2113    0.9943    0.0000 C   0  0  0  0  0  0  0  0  0  0  0  0
    1.4877   -0.5965    0.0000 C   0  0  0  0  0  0  0  0  0  0  0  0
    2.1949   -0.9943    0.0000 C   0  0  0  0  0  0  0  0  0  0  0  0
    2.9166   -0.5671    0.0000 C   0  0  0  0  0  0  0  0  0  0  0  0
    3.6237   -0.9796    0.0000 C   0  0  0  0  0  0  0  0  0  0  0  0
  1  5  1  0  0  0  0
  2 11  1  0  0  0  0
  2 13  1  0  0  0  0
  3 11  2  0  0  0  0
  4  8  1  0  0  0  0
  4  9  1  0  0  0  0
  4 10  1  0  0  0  0
  5  6  1  0  0  0  0
  5  7  1  0  0  0  0
  5 12  1  0  0  0  0
  6  9  1  0  0  0  0
  7  8  1  0  0  0  0
 10 11  1  0  0  0  0
 13 14  1  0  0  0  0
 14 15  1  0  0  0  0
 15 16  1  0  0  0  0
M  END
> <PUBCHEM_COMPOUND_ID_TYPE>
0

> <PUBCHEM_TOTAL_CHARGE>
0

> <PUBCHEM_SUBSTANCE_ID>
310941384

> <PUBCHEM_SUBSTANCE_VERSION>
1

> <PUBCHEM_EXT_DATASOURCE_NAME>
4488

> <PUBCHEM_EXT_DATASOURCE_REGID>
SCHEMBL16119344

> <PUBCHEM_SUBSTANCE_COMMENT>
InChI=1S/C12H23NO3/c1-3-4-9-16-11(14)10-13-7-5-12(2,15)6-8-13/h15H,3-10H2,1-2H3
InChIKey=SSTRVNDDODMGSG-UHFFFAOYSA-N

> <PUBCHEM_SUBSTANCE_SYNONYM>
SCHEMBL16119344

> <PUBCHEM_XREF_EXT_ID>
SCHEMBL16119344

> <PUBCHEM_EXT_DATASOURCE_URL>
https://www.surechembl.org/

> <PUBCHEM_EXT_SUBSTANCE_URL>
https://www.surechembl.org/chemical/SCHEMBL16119344

> <PUBCHEM_CID_ASSOCIATIONS>
80702994  1

> <PUBCHEM_COORDINATE_TYPE>
1
3

$$$$
