310938550
  -OEChem-07211613022D

 27 30  0     0  0  0  0  0  0999 V2000
   -1.9981    2.3656    0.0000 S   0  0  0  0  0  0  0  0  0  0  0  0
    3.3330   -2.4358    0.0000 F   0  0  0  0  0  0  0  0  0  0  0  0
    2.0955   -3.1502    0.0000 F   0  0  0  0  0  0  0  0  0  0  0  0
    2.9205   -3.1502    0.0000 F   0  0  0  0  0  0  0  0  0  0  0  0
   -1.2366    1.0557    0.0000 O   0  0  0  0  0  0  0  0  0  0  0  0
   -1.2366   -1.4193    0.0000 N   0  0  0  0  0  0  0  0  0  0  0  0
   -0.4520   -0.3394    0.0000 N   0  0  0  0  0  0  0  0  0  0  0  0
   -1.9511   -1.8318    0.0000 N   0  0  0  0  0  0  0  0  0  0  0  0
   -2.6655    1.0557    0.0000 N   0  0  0  0  0  0  0  0  0  0  0  0
   -3.3330    2.3656    0.0000 N   0  0  0  0  0  0  0  0  0  0  0  0
   -1.2366   -0.5943    0.0000 C   0  0  0  0  0  0  0  0  0  0  0  0
    0.0330   -1.0068    0.0000 C   0  0  0  0  0  0  0  0  0  0  0  0
   -1.9511   -0.1818    0.0000 C   0  0  0  0  0  0  0  0  0  0  0  0
   -0.4520   -1.6743    0.0000 C   0  0  0  0  0  0  0  0  0  0  0  0
    0.8580   -1.0068    0.0000 C   0  0  0  0  0  0  0  0  0  0  0  0
   -1.9511    0.6432    0.0000 C   0  0  0  0  0  0  0  0  0  0  0  0
   -2.6655   -0.5943    0.0000 C   0  0  0  0  0  0  0  0  0  0  0  0
    2.0955   -1.7213    0.0000 C   0  0  0  0  0  0  0  0  0  0  0  0
    1.2705   -1.7213    0.0000 C   0  0  0  0  0  0  0  0  0  0  0  0
   -2.6655   -1.4193    0.0000 C   0  0  0  0  0  0  0  0  0  0  0  0
    1.2705   -0.2923    0.0000 C   0  0  0  0  0  0  0  0  0  0  0  0
    2.5080   -2.4358    0.0000 C   0  0  0  0  0  0  0  0  0  0  0  0
    2.5080   -1.0068    0.0000 C   0  0  0  0  0  0  0  0  0  0  0  0
   -2.6655    1.8807    0.0000 C   0  0  0  0  0  0  0  0  0  0  0  0
    2.0955   -0.2923    0.0000 C   0  0  0  0  0  0  0  0  0  0  0  0
   -2.2530    3.1502    0.0000 C   0  0  0  0  0  0  0  0  0  0  0  0
   -3.0780    3.1502    0.0000 C   0  0  0  0  0  0  0  0  0  0  0  0
  1 24  1  0  0  0  0
  1 26  1  0  0  0  0
  2 22  1  0  0  0  0
  3 22  1  0  0  0  0
  4 22  1  0  0  0  0
  5 16  2  0  0  0  0
  6  8  1  0  0  0  0
  6 11  1  0  0  0  0
  6 14  1  0  0  0  0
  7 11  2  0  0  0  0
  7 12  1  0  0  0  0
  8 20  2  0  0  0  0
  9 16  1  0  0  0  0
  9 24  1  0  0  0  0
 10 24  2  0  0  0  0
 10 27  1  0  0  0  0
 11 13  1  0  0  0  0
 12 14  2  0  0  0  0
 12 15  1  0  0  0  0
 13 16  1  0  0  0  0
 13 17  2  0  0  0  0
 15 19  1  0  0  0  0
 15 21  2  0  0  0  0
 17 20  1  0  0  0  0
 18 19  2  0  0  0  0
 18 22  1  0  0  0  0
 18 23  1  0  0  0  0
 21 25  1  0  0  0  0
 23 25  2  0  0  0  0
 26 27  2  0  0  0  0
M  END
> <PUBCHEM_COMPOUND_ID_TYPE>
0

> <PUBCHEM_TOTAL_CHARGE>
0

> <PUBCHEM_SUBSTANCE_ID>
310938550

> <PUBCHEM_SUBSTANCE_VERSION>
1

> <PUBCHEM_EXT_DATASOURCE_NAME>
4488

> <PUBCHEM_EXT_DATASOURCE_REGID>
SCHEMBL16116464

> <PUBCHEM_SUBSTANCE_COMMENT>
InChI=1S/C17H10F3N5OS/c18-17(19,20)11-3-1-2-10(8-11)13-9-25-14(23-13)12(4-5-22-25)15(26)24-16-21-6-7-27-16/h1-9H,(H,21,24,26)
InChIKey=NCNVKWDCQWRUCB-UHFFFAOYSA-N

> <PUBCHEM_SUBSTANCE_SYNONYM>
SCHEMBL16116464

> <PUBCHEM_XREF_EXT_ID>
SCHEMBL16116464

> <PUBCHEM_EXT_DATASOURCE_URL>
https://www.surechembl.org/

> <PUBCHEM_EXT_SUBSTANCE_URL>
https://www.surechembl.org/chemical/SCHEMBL16116464

> <PUBCHEM_CID_ASSOCIATIONS>
117605990  1

> <PUBCHEM_COORDINATE_TYPE>
1
3

$$$$
