310939997
  -OEChem-07211613022D

 17 18  0     0  0  0  0  0  0999 V2000
   -4.2014    9.4098    0.0000 Cl  0  0  0  0  0  0  0  0  0  0  0  0
   -4.2014   11.0598    0.0000 Cl  0  0  0  0  0  0  0  0  0  0  0  0
    0.0857   11.8849    0.0000 Cl  0  0  0  0  0  0  0  0  0  0  0  0
   -1.3433    9.4098    0.0000 O   0  0  0  0  0  0  0  0  0  0  0  0
    0.0857    9.4098    0.0000 N   0  0  0  0  0  0  0  0  0  0  0  0
   -1.3433   11.0598    0.0000 N   0  0  0  0  0  0  0  0  0  0  0  0
   -2.0579    9.8223    0.0000 C   0  0  0  0  0  0  0  0  0  0  0  0
   -2.0579   10.6473    0.0000 C   0  0  0  0  0  0  0  0  0  0  0  0
   -3.4869    9.8223    0.0000 C   0  0  0  0  0  0  0  0  0  0  0  0
   -3.4869   10.6473    0.0000 C   0  0  0  0  0  0  0  0  0  0  0  0
   -2.7723    9.4098    0.0000 C   0  0  0  0  0  0  0  0  0  0  0  0
   -0.6287    9.8223    0.0000 C   0  0  0  0  0  0  0  0  0  0  0  0
   -2.7723   11.0598    0.0000 C   0  0  0  0  0  0  0  0  0  0  0  0
   -0.6287   10.6473    0.0000 C   0  0  0  0  0  0  0  0  0  0  0  0
    0.0857   11.0598    0.0000 C   0  0  0  0  0  0  0  0  0  0  0  0
    0.8003    9.8223    0.0000 C   0  0  0  0  0  0  0  0  0  0  0  0
    0.8003   10.6473    0.0000 C   0  0  0  0  0  0  0  0  0  0  0  0
  1  9  1  0  0  0  0
  2 10  1  0  0  0  0
  3 15  1  0  0  0  0
  4  7  1  0  0  0  0
  4 12  1  0  0  0  0
  5 12  1  0  0  0  0
  5 16  2  0  0  0  0
  6  8  1  0  0  0  0
  7  8  1  0  0  0  0
  7 11  2  0  0  0  0
  8 13  2  0  0  0  0
  9 10  2  0  0  0  0
  9 11  1  0  0  0  0
 10 13  1  0  0  0  0
 12 14  2  0  0  0  0
 14 15  1  0  0  0  0
 15 17  2  0  0  0  0
 16 17  1  0  0  0  0
M  END
> <PUBCHEM_COMPOUND_ID_TYPE>
0

> <PUBCHEM_TOTAL_CHARGE>
0

> <PUBCHEM_SUBSTANCE_ID>
310939997

> <PUBCHEM_SUBSTANCE_VERSION>
1

> <PUBCHEM_EXT_DATASOURCE_NAME>
4488

> <PUBCHEM_EXT_DATASOURCE_REGID>
SCHEMBL16117927

> <PUBCHEM_SUBSTANCE_COMMENT>
InChI=1S/C11H7Cl3N2O/c12-6-1-2-16-11(3-6)17-10-5-8(14)7(13)4-9(10)15/h1-5H,15H2
InChIKey=IQSSMGZVYVGXAW-UHFFFAOYSA-N

> <PUBCHEM_SUBSTANCE_SYNONYM>
SCHEMBL16117927

> <PUBCHEM_XREF_EXT_ID>
SCHEMBL16117927

> <PUBCHEM_EXT_DATASOURCE_URL>
https://www.surechembl.org/

> <PUBCHEM_EXT_SUBSTANCE_URL>
https://www.surechembl.org/chemical/SCHEMBL16117927

> <PUBCHEM_CID_ASSOCIATIONS>
117607160  1

> <PUBCHEM_COORDINATE_TYPE>
1
3

$$$$
