310931953
  -OEChem-07211613022D

 28 31  0     0  0  0  0  0  0999 V2000
    4.0298   -2.7606    0.0000 O   0  0  0  0  0  0  0  0  0  0  0  0
    8.5038   -2.8558    0.0000 O   0  0  0  0  0  0  0  0  0  0  0  0
    4.9183   -1.6183    0.0000 N   0  0  0  0  0  0  0  0  0  0  0  0
    4.8548   -0.7933    0.0000 N   0  0  0  0  0  0  0  0  0  0  0  0
    6.3779   -1.6183    0.0000 N   0  0  0  0  0  0  0  0  0  0  0  0
    7.8057   -4.0933    0.0000 N   0  0  0  0  0  0  0  0  0  0  0  0
    0.0000   -2.4750    0.0000 N   0  0  0  0  0  0  0  0  0  0  0  0
    3.6173   -1.3327    0.0000 C   0  0  0  0  0  0  0  0  0  0  0  0
    4.1885   -1.9356    0.0000 C   0  0  0  0  0  0  0  0  0  0  0  0
    2.7923   -1.4279    0.0000 C   0  0  0  0  0  0  0  0  0  0  0  0
    5.6480   -2.0308    0.0000 C   0  0  0  0  0  0  0  0  0  0  0  0
    4.0298   -0.6346    0.0000 C   0  0  0  0  0  0  0  0  0  0  0  0
    2.3163   -0.7616    0.0000 C   0  0  0  0  0  0  0  0  0  0  0  0
    5.6480   -2.8558    0.0000 C   0  0  0  0  0  0  0  0  0  0  0  0
    2.4750   -2.1894    0.0000 C   0  0  0  0  0  0  0  0  0  0  0  0
    7.0760   -2.8558    0.0000 C   0  0  0  0  0  0  0  0  0  0  0  0
    7.0760   -2.0308    0.0000 C   0  0  0  0  0  0  0  0  0  0  0  0
    6.3779   -3.2365    0.0000 C   0  0  0  0  0  0  0  0  0  0  0  0
    1.4913   -0.8885    0.0000 C   0  0  0  0  0  0  0  0  0  0  0  0
    1.1423   -1.6183    0.0000 C   0  0  0  0  0  0  0  0  0  0  0  0
    7.8057   -3.2365    0.0000 C   0  0  0  0  0  0  0  0  0  0  0  0
    1.6500   -2.2846    0.0000 C   0  0  0  0  0  0  0  0  0  0  0  0
    2.6336    0.0000    0.0000 C   0  0  0  0  0  0  0  0  0  0  0  0
    8.5038   -4.5057    0.0000 C   0  0  0  0  0  0  0  0  0  0  0  0
    0.3173   -1.7135    0.0000 C   0  0  0  0  0  0  0  0  0  0  0  0
    9.2971   -4.2836    0.0000 C   0  0  0  0  0  0  0  0  0  0  0  0
    8.7259   -5.3308    0.0000 C   0  0  0  0  0  0  0  0  0  0  0  0
    9.5192   -5.0769    0.0000 C   0  0  0  0  0  0  0  0  0  0  0  0
  1  9  1  0  0  0  0
  2 21  2  0  0  0  0
  3  4  1  0  0  0  0
  3  9  1  0  0  0  0
  3 11  1  0  0  0  0
  4 12  2  0  0  0  0
  5 11  2  0  0  0  0
  5 17  1  0  0  0  0
  6 21  1  0  0  0  0
  6 24  1  0  0  0  0
  7 25  3  0  0  0  0
  8  9  2  0  0  0  0
  8 10  1  0  0  0  0
  8 12  1  0  0  0  0
 10 13  1  0  0  0  0
 10 15  2  0  0  0  0
 11 14  1  0  0  0  0
 13 19  2  0  0  0  0
 13 23  1  0  0  0  0
 14 18  2  0  0  0  0
 15 22  1  0  0  0  0
 16 17  2  0  0  0  0
 16 18  1  0  0  0  0
 16 21  1  0  0  0  0
 19 20  1  0  0  0  0
 20 22  2  0  0  0  0
 20 25  1  0  0  0  0
 24 26  1  0  0  0  0
 24 27  1  0  0  0  0
 26 28  1  0  0  0  0
 27 28  1  0  0  0  0
M  END
> <PUBCHEM_COMPOUND_ID_TYPE>
0

> <PUBCHEM_TOTAL_CHARGE>
0

> <PUBCHEM_SUBSTANCE_ID>
310931953

> <PUBCHEM_SUBSTANCE_VERSION>
1

> <PUBCHEM_EXT_DATASOURCE_NAME>
4488

> <PUBCHEM_EXT_DATASOURCE_REGID>
SCHEMBL16109290

> <PUBCHEM_SUBSTANCE_COMMENT>
InChI=1S/C21H19N5O2/c1-13-9-14(10-22)5-7-17(13)18-12-24-26(21(18)28)19-8-6-15(11-23-19)20(27)25-16-3-2-4-16/h5-9,11-12,16,28H,2-4H2,1H3,(H,25,27)
InChIKey=PDSXYNAVPJDDDG-UHFFFAOYSA-N

> <PUBCHEM_SUBSTANCE_SYNONYM>
SCHEMBL16109290

> <PUBCHEM_XREF_EXT_ID>
SCHEMBL16109290

> <PUBCHEM_EXT_DATASOURCE_URL>
https://www.surechembl.org/

> <PUBCHEM_EXT_SUBSTANCE_URL>
https://www.surechembl.org/chemical/SCHEMBL16109290

> <PUBCHEM_CID_ASSOCIATIONS>
117600602  1

> <PUBCHEM_COORDINATE_TYPE>
1
3

$$$$
