310934847
  -OEChem-07211613022D

 26 29  0     0  0  0  0  0  0999 V2000
    6.7227   -7.2287    0.0000 Br  0  0  0  0  0  0  0  0  0  0  0  0
    2.8553   -2.8915    0.0000 Cl  0  0  0  0  0  0  0  0  0  0  0  0
    1.4096   -3.7228    0.0000 O   0  0  0  0  0  0  0  0  0  0  0  0
    5.6745   -5.3492    0.0000 N   0  0  0  0  0  0  0  0  0  0  0  0
    4.9516   -6.6142    0.0000 N   0  0  0  0  0  0  0  0  0  0  0  0
    6.4696   -5.1324    0.0000 N   0  0  0  0  0  0  0  0  0  0  0  0
    0.7229   -1.6265    0.0000 N   0  0  0  0  0  0  0  0  0  0  0  0
    5.6745   -6.2167    0.0000 C   0  0  0  0  0  0  0  0  0  0  0  0
    4.2649   -5.3492    0.0000 C   0  0  0  0  0  0  0  0  0  0  0  0
    3.5421   -4.9516    0.0000 C   0  0  0  0  0  0  0  0  0  0  0  0
    4.9516   -4.9516    0.0000 C   0  0  0  0  0  0  0  0  0  0  0  0
    6.4696   -6.4335    0.0000 C   0  0  0  0  0  0  0  0  0  0  0  0
    4.2649   -6.2167    0.0000 C   0  0  0  0  0  0  0  0  0  0  0  0
    6.9395   -5.7829    0.0000 C   0  0  0  0  0  0  0  0  0  0  0  0
    3.5421   -4.1204    0.0000 C   0  0  0  0  0  0  0  0  0  0  0  0
    2.8553   -3.7228    0.0000 C   0  0  0  0  0  0  0  0  0  0  0  0
    2.1325   -4.1204    0.0000 C   0  0  0  0  0  0  0  0  0  0  0  0
    2.8192   -5.3492    0.0000 C   0  0  0  0  0  0  0  0  0  0  0  0
    2.1325   -4.9516    0.0000 C   0  0  0  0  0  0  0  0  0  0  0  0
    1.4096   -2.8915    0.0000 C   0  0  0  0  0  0  0  0  0  0  0  0
    0.7229   -2.4577    0.0000 C   0  0  0  0  0  0  0  0  0  0  0  0
    0.0000   -1.2289    0.0000 C   0  0  0  0  0  0  0  0  0  0  0  0
    1.4096   -1.2289    0.0000 C   0  0  0  0  0  0  0  0  0  0  0  0
    0.0000   -0.3976    0.0000 C   0  0  0  0  0  0  0  0  0  0  0  0
    1.4096   -0.4337    0.0000 C   0  0  0  0  0  0  0  0  0  0  0  0
    0.7229    0.0000    0.0000 C   0  0  0  0  0  0  0  0  0  0  0  0
  1 12  1  0  0  0  0
  2 16  1  0  0  0  0
  3 17  1  0  0  0  0
  3 20  1  0  0  0  0
  4  6  1  0  0  0  0
  4  8  1  0  0  0  0
  4 11  1  0  0  0  0
  5  8  1  0  0  0  0
  5 13  2  0  0  0  0
  6 14  2  0  0  0  0
  7 21  1  0  0  0  0
  7 22  1  0  0  0  0
  7 23  1  0  0  0  0
  8 12  2  0  0  0  0
  9 10  1  0  0  0  0
  9 11  2  0  0  0  0
  9 13  1  0  0  0  0
 10 15  1  0  0  0  0
 10 18  2  0  0  0  0
 12 14  1  0  0  0  0
 15 16  2  0  0  0  0
 16 17  1  0  0  0  0
 17 19  2  0  0  0  0
 18 19  1  0  0  0  0
 20 21  1  0  0  0  0
 22 24  1  0  0  0  0
 23 25  1  0  0  0  0
 24 26  1  0  0  0  0
 25 26  1  0  0  0  0
M  END
> <PUBCHEM_COMPOUND_ID_TYPE>
0

> <PUBCHEM_TOTAL_CHARGE>
0

> <PUBCHEM_SUBSTANCE_ID>
310934847

> <PUBCHEM_SUBSTANCE_VERSION>
1

> <PUBCHEM_EXT_DATASOURCE_NAME>
4488

> <PUBCHEM_EXT_DATASOURCE_REGID>
SCHEMBL16112356

> <PUBCHEM_SUBSTANCE_COMMENT>
InChI=1S/C19H20BrClN4O/c20-16-12-23-25-13-15(11-22-19(16)25)14-4-5-18(17(21)10-14)26-9-8-24-6-2-1-3-7-24/h4-5,10-13H,1-3,6-9H2
InChIKey=RSKRQKDGDHWWTC-UHFFFAOYSA-N

> <PUBCHEM_SUBSTANCE_SYNONYM>
SCHEMBL16112356

> <PUBCHEM_XREF_EXT_ID>
SCHEMBL16112356

> <PUBCHEM_EXT_DATASOURCE_URL>
https://www.surechembl.org/

> <PUBCHEM_EXT_SUBSTANCE_URL>
https://www.surechembl.org/chemical/SCHEMBL16112356

> <PUBCHEM_CID_ASSOCIATIONS>
117602984  1

> <PUBCHEM_COORDINATE_TYPE>
1
3

$$$$
