310943730
  -OEChem-07211613022D

 37 39  0     0  0  0  0  0  0999 V2000
    4.8163   -1.3183    0.0000 F   0  0  0  0  0  0  0  0  0  0  0  0
    4.0073   -2.1122    0.0000 F   0  0  0  0  0  0  0  0  0  0  0  0
    3.2284   -1.3033    0.0000 F   0  0  0  0  0  0  0  0  0  0  0  0
   -3.3931   -0.4194    0.0000 O   0  0  0  0  0  0  0  0  0  0  0  0
   -4.8163    2.0524    0.0000 O   0  0  0  0  0  0  0  0  0  0  0  0
    1.8201   -0.0749    0.0000 O   0  0  0  0  0  0  0  0  0  0  0  0
   -4.1272   -2.4569    0.0000 O   0  0  0  0  0  0  0  0  0  0  0  0
   -3.3482    1.2134    0.0000 N   0  0  0  0  0  0  0  0  0  0  0  0
   -1.9250   -0.4345    0.0000 N   0  0  0  0  0  0  0  0  0  0  0  0
    2.5542    1.1535    0.0000 N   0  0  0  0  0  0  0  0  0  0  0  0
   -2.6291    0.8090    0.0000 C   0  0  0  0  0  0  0  0  0  0  0  0
   -1.1610    0.7790    0.0000 C   0  0  0  0  0  0  0  0  0  0  0  0
   -2.6590   -0.0149    0.0000 C   0  0  0  0  0  0  0  0  0  0  0  0
   -0.3820    1.1535    0.0000 C   0  0  0  0  0  0  0  0  0  0  0  0
   -1.8950    1.1835    0.0000 C   0  0  0  0  0  0  0  0  0  0  0  0
   -1.1909   -0.0449    0.0000 C   0  0  0  0  0  0  0  0  0  0  0  0
    0.3670    0.7341    0.0000 C   0  0  0  0  0  0  0  0  0  0  0  0
    1.0861    1.1535    0.0000 C   0  0  0  0  0  0  0  0  0  0  0  0
   -0.3670    1.9624    0.0000 C   0  0  0  0  0  0  0  0  0  0  0  0
    4.0223   -0.4644    0.0000 C   0  0  0  0  0  0  0  0  0  0  0  0
    1.8352    0.7790    0.0000 C   0  0  0  0  0  0  0  0  0  0  0  0
    3.2882    0.7341    0.0000 C   0  0  0  0  0  0  0  0  0  0  0  0
    4.0073   -1.3033    0.0000 C   0  0  0  0  0  0  0  0  0  0  0  0
   -3.3332    2.0373    0.0000 C   0  0  0  0  0  0  0  0  0  0  0  0
   -4.0672    0.8389    0.0000 C   0  0  0  0  0  0  0  0  0  0  0  0
    3.2882   -0.0749    0.0000 C   0  0  0  0  0  0  0  0  0  0  0  0
    4.7414   -0.0749    0.0000 C   0  0  0  0  0  0  0  0  0  0  0  0
    4.0073    1.1385    0.0000 C   0  0  0  0  0  0  0  0  0  0  0  0
    1.1011    1.9475    0.0000 C   0  0  0  0  0  0  0  0  0  0  0  0
   -4.0672    2.4569    0.0000 C   0  0  0  0  0  0  0  0  0  0  0  0
   -4.8163    1.2434    0.0000 C   0  0  0  0  0  0  0  0  0  0  0  0
    4.7414    0.7341    0.0000 C   0  0  0  0  0  0  0  0  0  0  0  0
   -3.3931   -1.2284    0.0000 C   0  0  0  0  0  0  0  0  0  0  0  0
   -1.1160    2.3520    0.0000 C   0  0  0  0  0  0  0  0  0  0  0  0
    0.0824    2.2321    0.0000 C   0  0  0  0  0  0  0  0  0  0  0  0
   -4.1122   -1.6329    0.0000 C   0  0  0  0  0  0  0  0  0  0  0  0
    0.5618    2.1572    0.0000 C   0  0  0  0  0  0  0  0  0  0  0  0
  1 23  1  0  0  0  0
  2 23  1  0  0  0  0
  3 23  1  0  0  0  0
  4 13  1  0  0  0  0
  4 33  1  0  0  0  0
  5 30  1  0  0  0  0
  5 31  1  0  0  0  0
  6 21  2  0  0  0  0
  7 36  1  0  0  0  0
  8 11  1  0  0  0  0
  8 24  1  0  0  0  0
  8 25  1  0  0  0  0
  9 13  1  0  0  0  0
  9 16  2  0  0  0  0
 10 21  1  0  0  0  0
 10 22  1  0  0  0  0
 11 13  2  0  0  0  0
 11 15  1  0  0  0  0
 12 14  1  0  0  0  0
 12 15  2  0  0  0  0
 12 16  1  0  0  0  0
 14 17  1  0  0  0  0
 14 19  2  0  0  0  0
 17 18  2  0  0  0  0
 18 21  1  0  0  0  0
 18 29  1  0  0  0  0
 19 34  1  0  0  0  0
 19 35  1  0  0  0  0
 20 23  1  0  0  0  0
 20 26  1  0  0  0  0
 20 27  2  0  0  0  0
 22 26  2  0  0  0  0
 22 28  1  0  0  0  0
 24 30  1  0  0  0  0
 25 31  1  0  0  0  0
 27 32  1  0  0  0  0
 28 32  2  0  0  0  0
 29 37  2  0  0  0  0
 33 36  1  0  0  0  0
M  END
> <PUBCHEM_COMPOUND_ID_TYPE>
0

> <PUBCHEM_TOTAL_CHARGE>
0

> <PUBCHEM_SUBSTANCE_ID>
310943730

> <PUBCHEM_SUBSTANCE_VERSION>
1

> <PUBCHEM_EXT_DATASOURCE_NAME>
4488

> <PUBCHEM_EXT_DATASOURCE_REGID>
SCHEMBL16121798

> <PUBCHEM_SUBSTANCE_COMMENT>
InChI=1S/C27H30F3N3O4/c1-4-19(25(35)32-22-7-5-6-21(16-22)27(28,29)30)14-23(18(2)3)20-15-24(33-8-11-36-12-9-33)26(31-17-20)37-13-10-34/h4-7,14-17,34H,1,8-13H2,2-3H3,(H,32,35)/b19-14+
InChIKey=ZHKJWOPLNLUGMZ-XMHGGMMESA-N

> <PUBCHEM_SUBSTANCE_SYNONYM>
SCHEMBL16121798

> <PUBCHEM_XREF_EXT_ID>
SCHEMBL16121798

> <PUBCHEM_EXT_DATASOURCE_URL>
https://www.surechembl.org/

> <PUBCHEM_EXT_SUBSTANCE_URL>
https://www.surechembl.org/chemical/SCHEMBL16121798

> <PUBCHEM_CID_ASSOCIATIONS>
117610096  1

> <PUBCHEM_COORDINATE_TYPE>
1
3

$$$$
