310929214
  -OEChem-07211613022D

 25 26  0     0  0  0  0  0  0999 V2000
   12.0202   -1.2421    0.0000 Cl  0  0  0  0  0  0  0  0  0  0  0  0
   10.5777   -0.4007    0.0000 O   0  0  0  0  0  0  0  0  0  0  0  0
    0.0000   -1.6427    0.0000 O   0  0  0  0  0  0  0  0  0  0  0  0
    9.1754   -1.2421    0.0000 N   0  0  0  0  0  0  0  0  0  0  0  0
    9.8966   -1.6427    0.0000 C   0  0  0  0  0  0  0  0  0  0  0  0
    9.8966   -2.4441    0.0000 C   0  0  0  0  0  0  0  0  0  0  0  0
   10.5777   -1.2421    0.0000 C   0  0  0  0  0  0  0  0  0  0  0  0
   11.2990   -1.6427    0.0000 C   0  0  0  0  0  0  0  0  0  0  0  0
    8.4943   -1.6427    0.0000 C   0  0  0  0  0  0  0  0  0  0  0  0
   10.5777   -2.8448    0.0000 C   0  0  0  0  0  0  0  0  0  0  0  0
    9.2155   -2.8848    0.0000 C   0  0  0  0  0  0  0  0  0  0  0  0
   11.2990   -2.4441    0.0000 C   0  0  0  0  0  0  0  0  0  0  0  0
    8.4943   -2.4441    0.0000 C   0  0  0  0  0  0  0  0  0  0  0  0
    7.7730   -1.2421    0.0000 C   0  0  0  0  0  0  0  0  0  0  0  0
    9.8565    0.0000    0.0000 C   0  0  0  0  0  0  0  0  0  0  0  0
    7.0519   -1.6427    0.0000 C   0  0  0  0  0  0  0  0  0  0  0  0
    6.3707   -1.2421    0.0000 C   0  0  0  0  0  0  0  0  0  0  0  0
    5.6495   -1.6427    0.0000 C   0  0  0  0  0  0  0  0  0  0  0  0
    4.9283   -1.2421    0.0000 C   0  0  0  0  0  0  0  0  0  0  0  0
    4.2471   -1.6427    0.0000 C   0  0  0  0  0  0  0  0  0  0  0  0
    3.5259   -1.2421    0.0000 C   0  0  0  0  0  0  0  0  0  0  0  0
    2.8047   -1.6427    0.0000 C   0  0  0  0  0  0  0  0  0  0  0  0
    2.1236   -1.2421    0.0000 C   0  0  0  0  0  0  0  0  0  0  0  0
    1.4023   -1.6427    0.0000 C   0  0  0  0  0  0  0  0  0  0  0  0
    0.6812   -1.2421    0.0000 C   0  0  0  0  0  0  0  0  0  0  0  0
  1  8  1  0  0  0  0
  2  7  1  0  0  0  0
  2 15  1  0  0  0  0
  3 25  1  0  0  0  0
  4  5  2  0  0  0  0
  4  9  1  0  0  0  0
  5  6  1  0  0  0  0
  5  7  1  0  0  0  0
  6 10  1  0  0  0  0
  6 11  2  0  0  0  0
  7  8  2  0  0  0  0
  8 12  1  0  0  0  0
  9 13  2  0  0  0  0
  9 14  1  0  0  0  0
 10 12  2  0  0  0  0
 11 13  1  0  0  0  0
 14 16  1  0  0  0  0
 16 17  1  0  0  0  0
 17 18  1  0  0  0  0
 18 19  1  0  0  0  0
 19 20  1  0  0  0  0
 20 21  1  0  0  0  0
 21 22  1  0  0  0  0
 22 23  1  0  0  0  0
 23 24  1  0  0  0  0
 24 25  1  0  0  0  0
M  END
> <PUBCHEM_COMPOUND_ID_TYPE>
0

> <PUBCHEM_TOTAL_CHARGE>
0

> <PUBCHEM_SUBSTANCE_ID>
310929214

> <PUBCHEM_SUBSTANCE_VERSION>
1

> <PUBCHEM_EXT_DATASOURCE_NAME>
4488

> <PUBCHEM_EXT_DATASOURCE_REGID>
SCHEMBL16106377

> <PUBCHEM_SUBSTANCE_COMMENT>
InChI=1S/C21H30ClNO2/c1-25-21-19(22)15-13-17-12-14-18(23-20(17)21)11-9-7-5-3-2-4-6-8-10-16-24/h12-15,24H,2-11,16H2,1H3
InChIKey=BSTNBTHKKUUYCF-UHFFFAOYSA-N

> <PUBCHEM_SUBSTANCE_SYNONYM>
SCHEMBL16106377

> <PUBCHEM_XREF_EXT_ID>
SCHEMBL16106377

> <PUBCHEM_EXT_DATASOURCE_URL>
https://www.surechembl.org/

> <PUBCHEM_EXT_SUBSTANCE_URL>
https://www.surechembl.org/chemical/SCHEMBL16106377

> <PUBCHEM_CID_ASSOCIATIONS>
85471913  1

> <PUBCHEM_COORDINATE_TYPE>
1
3

$$$$
