310935291
  -OEChem-07211613022D

 15 16  0     0  0  0  0  0  0999 V2000
    2.4915   -2.1450    0.0000 O   0  0  0  0  0  0  0  0  0  0  0  0
    3.3165   -2.1450    0.0000 O   0  0  0  0  0  0  0  0  0  0  0  0
    2.4915   -0.7260    0.0000 N   0  0  0  0  0  0  0  0  0  0  0  0
    3.3165   -0.7260    0.0000 C   0  0  0  0  0  0  0  0  0  0  0  0
    2.0790   -1.4190    0.0000 C   0  0  0  0  0  0  0  0  0  0  0  0
    1.2540   -1.4190    0.0000 C   0  0  0  0  0  0  0  0  0  0  0  0
    3.7290   -1.4190    0.0000 C   0  0  0  0  0  0  0  0  0  0  0  0
    3.7290    0.0000    0.0000 C   0  0  0  0  0  0  0  0  0  0  0  0
    0.7920   -2.0955    0.0000 C   0  0  0  0  0  0  0  0  0  0  0  0
    0.7920   -0.7590    0.0000 C   0  0  0  0  0  0  0  0  0  0  0  0
    4.5540   -1.4190    0.0000 C   0  0  0  0  0  0  0  0  0  0  0  0
    4.5540    0.0000    0.0000 C   0  0  0  0  0  0  0  0  0  0  0  0
    4.9500   -0.7260    0.0000 C   0  0  0  0  0  0  0  0  0  0  0  0
    0.0000   -1.8315    0.0000 C   0  0  0  0  0  0  0  0  0  0  0  0
    0.0000   -1.0230    0.0000 C   0  0  0  0  0  0  0  0  0  0  0  0
  1  5  2  0  0  0  0
  2  7  1  0  0  0  0
  3  4  1  0  0  0  0
  3  5  1  0  0  0  0
  4  7  1  0  0  0  0
  4  8  2  0  0  0  0
  5  6  1  0  0  0  0
  6  9  1  0  0  0  0
  6 10  1  0  0  0  0
  7 11  2  0  0  0  0
  8 12  1  0  0  0  0
  9 14  1  0  0  0  0
 10 15  1  0  0  0  0
 11 13  1  0  0  0  0
 12 13  2  0  0  0  0
 14 15  2  0  0  0  0
M  END
> <PUBCHEM_COMPOUND_ID_TYPE>
0

> <PUBCHEM_TOTAL_CHARGE>
0

> <PUBCHEM_SUBSTANCE_ID>
310935291

> <PUBCHEM_SUBSTANCE_VERSION>
1

> <PUBCHEM_EXT_DATASOURCE_NAME>
4488

> <PUBCHEM_EXT_DATASOURCE_REGID>
SCHEMBL16112823

> <PUBCHEM_SUBSTANCE_COMMENT>
InChI=1S/C12H13NO2/c14-11-8-4-3-7-10(11)13-12(15)9-5-1-2-6-9/h1-4,7-9,14H,5-6H2,(H,13,15)
InChIKey=OYOLNYQXJIRFKP-UHFFFAOYSA-N

> <PUBCHEM_SUBSTANCE_SYNONYM>
SCHEMBL16112823

> <PUBCHEM_XREF_EXT_ID>
SCHEMBL16112823

> <PUBCHEM_EXT_DATASOURCE_URL>
https://www.surechembl.org/

> <PUBCHEM_EXT_SUBSTANCE_URL>
https://www.surechembl.org/chemical/SCHEMBL16112823

> <PUBCHEM_CID_ASSOCIATIONS>
117603359  1

> <PUBCHEM_COORDINATE_TYPE>
1
3

$$$$
