310929519
  -OEChem-07211613022D

 59 66  0     1  0  0  0  0  0999 V2000
    1.5450   -1.3518    0.0000 S   0  0  0  0  0  0  0  0  0  0  0  0
    2.9451   -0.5311    0.0000 O   0  0  0  0  0  0  0  0  0  0  0  0
    4.9729   -2.7520    0.0000 O   0  0  0  0  0  0  0  0  0  0  0  0
    6.0351   -5.1660    0.0000 O   0  0  0  0  0  0  0  0  0  0  0  0
    1.9312   -0.6759    0.0000 O   0  0  0  0  0  0  0  0  0  0  0  0
    1.1105   -2.0760    0.0000 O   0  0  0  0  0  0  0  0  0  0  0  0
    1.9795   -3.6211    0.0000 O   0  0  0  0  0  0  0  0  0  0  0  0
    7.0006   -8.0146    0.0000 O   0  0  0  0  0  0  0  0  0  0  0  0
    1.4967   -7.1938    0.0000 O   0  0  0  0  0  0  0  0  0  0  0  0
    0.5793   -6.3247    0.0000 O   0  0  0  0  0  0  0  0  0  0  0  0
    5.6005   -9.6561    0.0000 O   0  0  0  0  0  0  0  0  0  0  0  0
    3.5728   -2.6072    0.0000 N   0  0  0  0  0  0  0  0  0  0  0  0
    2.2209   -1.7864    0.0000 N   0  0  0  0  0  0  0  0  0  0  0  0
    3.2348   -3.9107    0.0000 N   0  0  0  0  0  0  0  0  0  0  0  0
    7.0006   -5.5522    0.0000 N   0  0  0  0  0  0  0  0  0  0  0  0
    1.4967   -5.5522    0.0000 N   0  0  0  0  0  0  0  0  0  0  0  0
    3.6693   -1.7864    0.0000 C   0  0  3  0  0  0  0  0  0  0  0  0
    3.8624   -0.9656    0.0000 C   0  0  3  0  0  0  0  0  0  0  0  0
    4.4901   -1.5450    0.0000 C   0  0  0  0  0  0  0  0  0  0  0  0
    2.9451   -1.3518    0.0000 C   0  0  0  0  0  0  0  0  0  0  0  0
    4.2004   -3.0899    0.0000 C   0  0  0  0  0  0  0  0  0  0  0  0
    3.6693   -0.1931    0.0000 C   0  0  0  0  0  0  0  0  0  0  0  0
    4.1038   -3.9107    0.0000 C   0  0  3  0  0  0  0  0  0  0  0  0
    0.8208   -0.9656    0.0000 C   0  0  0  0  0  0  0  0  0  0  0  0
    4.8763   -4.1038    0.0000 C   0  0  0  0  0  0  0  0  0  0  0  0
    5.5522   -4.4901    0.0000 C   0  0  3  0  0  0  0  0  0  0  0  0
    2.4623   -4.2970    0.0000 C   0  0  0  0  0  0  0  0  0  0  0  0
    4.5866   -3.5245    0.0000 C   0  0  0  0  0  0  0  0  0  0  0  0
    0.0000   -0.9656    0.0000 C   0  0  0  0  0  0  0  0  0  0  0  0
    0.3863   -0.2414    0.0000 C   0  0  0  0  0  0  0  0  0  0  0  0
    6.3247   -5.9385    0.0000 C   0  0  0  0  0  0  0  0  0  0  0  0
    1.8830   -4.8763    0.0000 C   0  0  3  0  0  0  0  0  0  0  0  0
    2.8486    0.0000    0.0000 C   0  0  0  0  0  0  0  0  0  0  0  0
    6.3247   -6.8076    0.0000 C   0  0  0  0  0  0  0  0  0  0  0  0
    7.0006   -7.1938    0.0000 C   0  0  0  0  0  0  0  0  0  0  0  0
    7.6766   -6.8076    0.0000 C   0  0  0  0  0  0  0  0  0  0  0  0
    7.6766   -5.9385    0.0000 C   0  0  0  0  0  0  0  0  0  0  0  0
    1.2553   -4.3453    0.0000 C   0  0  0  0  0  0  0  0  0  0  0  0
    6.0351   -7.5801    0.0000 C   0  0  0  0  0  0  0  0  0  0  0  0
    8.4974   -7.1938    0.0000 C   0  0  0  0  0  0  0  0  0  0  0  0
    8.4974   -5.5522    0.0000 C   0  0  0  0  0  0  0  0  0  0  0  0
    0.4345   -4.5866    0.0000 C   0  0  0  0  0  0  0  0  0  0  0  0
    1.2553   -3.5245    0.0000 C   0  0  0  0  0  0  0  0  0  0  0  0
    1.4001   -6.3247    0.0000 C   0  0  0  0  0  0  0  0  0  0  0  0
    9.1733   -6.8076    0.0000 C   0  0  0  0  0  0  0  0  0  0  0  0
    9.1733   -5.9385    0.0000 C   0  0  0  0  0  0  0  0  0  0  0  0
    5.5522   -8.1594    0.0000 C   0  0  0  0  0  0  0  0  0  0  0  0
    0.0000   -3.9107    0.0000 C   0  0  0  0  0  0  0  0  0  0  0  0
    0.4828   -3.2831    0.0000 C   0  0  0  0  0  0  0  0  0  0  0  0
    6.3247   -8.4008    0.0000 C   0  0  0  0  0  0  0  0  0  0  0  0
    1.8830   -7.8697    0.0000 C   0  0  3  0  0  0  0  0  0  0  0  0
    2.4623   -8.4491    0.0000 C   0  0  3  0  0  0  0  0  0  0  0  0
    4.7798   -8.3525    0.0000 C   0  0  0  0  0  0  0  0  0  0  0  0
    1.2070   -8.2560    0.0000 C   0  0  0  0  0  0  0  0  0  0  0  0
    6.3247   -9.2216    0.0000 C   0  0  0  0  0  0  0  0  0  0  0  0
    3.2348   -8.7388    0.0000 C   0  0  0  0  0  0  0  0  0  0  0  0
    2.1726   -9.2216    0.0000 C   0  0  0  0  0  0  0  0  0  0  0  0
    4.1038   -8.8353    0.0000 C   0  0  0  0  0  0  0  0  0  0  0  0
    1.3035   -9.1250    0.0000 C   0  0  0  0  0  0  0  0  0  0  0  0
  1  5  2  0  0  0  0
  1  6  2  0  0  0  0
  1 13  1  0  0  0  0
  1 24  1  0  0  0  0
  2 20  2  0  0  0  0
  3 21  2  0  0  0  0
  4 26  1  0  0  0  0
  4 31  1  0  0  0  0
  7 27  2  0  0  0  0
  8 35  1  0  0  0  0
  8 50  1  0  0  0  0
  9 44  1  0  0  0  0
  9 51  1  0  0  0  0
 10 44  2  0  0  0  0
 11 55  1  0  0  0  0
 17 12  1  1  0  0  0
 12 21  1  0  0  0  0
 13 20  1  0  0  0  0
 14 23  1  0  0  0  0
 14 27  1  0  0  0  0
 14 28  1  0  0  0  0
 15 31  1  0  0  0  0
 15 37  2  0  0  0  0
 16 32  1  0  0  0  0
 16 44  1  0  0  0  0
 17 18  1  0  0  0  0
 17 19  1  0  0  0  0
 17 20  1  6  0  0  0
 18 19  1  0  0  0  0
 18 22  1  6  0  0  0
 23 21  1  6  0  0  0
 22 33  2  0  0  0  0
 23 25  1  0  0  0  0
 24 29  1  0  0  0  0
 24 30  1  0  0  0  0
 26 25  1  1  0  0  0
 26 28  1  0  0  0  0
 32 27  1  1  0  0  0
 29 30  1  0  0  0  0
 31 34  2  0  0  0  0
 32 38  1  0  0  0  0
 34 35  1  0  0  0  0
 34 39  1  0  0  0  0
 35 36  2  0  0  0  0
 36 37  1  0  0  0  0
 36 40  1  0  0  0  0
 37 41  1  0  0  0  0
 38 42  1  0  0  0  0
 38 43  1  0  0  0  0
 39 47  1  0  0  0  0
 40 45  2  0  0  0  0
 41 46  2  0  0  0  0
 42 48  1  0  0  0  0
 43 49  1  0  0  0  0
 45 46  1  0  0  0  0
 47 53  2  0  0  0  0
 48 49  1  0  0  0  0
 50 55  1  0  0  0  0
 51 52  1  0  0  0  0
 51 54  1  1  0  0  0
 52 56  1  0  0  0  0
 52 57  1  6  0  0  0
 53 58  1  0  0  0  0
 54 59  1  0  0  0  0
 56 58  1  0  0  0  0
 57 59  1  0  0  0  0
M  END
> <PUBCHEM_COMPOUND_ID_TYPE>
0

> <PUBCHEM_TOTAL_CHARGE>
0

> <PUBCHEM_SUBSTANCE_ID>
310929519

> <PUBCHEM_SUBSTANCE_VERSION>
1

> <PUBCHEM_EXT_DATASOURCE_NAME>
4488

> <PUBCHEM_EXT_DATASOURCE_REGID>
SCHEMBL16106698

> <PUBCHEM_SUBSTANCE_COMMENT>
InChI=1S/C43H55N5O10S/c1-2-28-24-43(28,41(52)47-59(54,55)30-19-20-30)46-38(50)34-23-29-25-48(34)40(51)36(27-12-6-7-13-27)45-42(53)58-35-18-10-14-26(35)11-4-3-5-16-32-37(56-22-21-49)31-15-8-9-17-33(31)44-39(32)57-29/h2-3,5,8-9,15,17,26-30,34-36,49H,1,4,6-7,10-14,16,18-25H2,(H,45,53)(H,46,50)(H,47,52)/b5-3+/t26-,28-,29-,34+,35-,36+,43-/m1/s1
InChIKey=DFTCHTSSMJKNNN-BYKLYZIUSA-N

> <PUBCHEM_SUBSTANCE_SYNONYM>
SCHEMBL16106698

> <PUBCHEM_XREF_EXT_ID>
SCHEMBL16106698

> <PUBCHEM_EXT_DATASOURCE_URL>
https://www.surechembl.org/

> <PUBCHEM_EXT_SUBSTANCE_URL>
https://www.surechembl.org/chemical/SCHEMBL16106698

> <PUBCHEM_CID_ASSOCIATIONS>
117598843  1

> <PUBCHEM_COORDINATE_TYPE>
1
3

> <PUBCHEM_BONDANNOTATIONS>
17  12  5
17  20  6
18  22  6
23  21  6
26  25  5
32  27  5
51  54  5
52  57  6

$$$$
