310939373
  -OEChem-07211613022D

 29 31  0     1  0  0  0  0  0999 V2000
    1.2290    0.8520    0.0000 Cl  0  0  0  0  0  0  0  0  0  0  0  0
    2.6972   -0.7210    0.0000 S   0  0  0  0  0  0  0  0  0  0  0  0
   -0.1999   -1.6230    0.0000 F   0  0  0  0  0  0  0  0  0  0  0  0
    1.2290   -0.7980    0.0000 O   0  0  0  0  0  0  0  0  0  0  0  0
   -4.4867   -0.7980    0.0000 O   0  0  0  0  0  0  0  0  0  0  0  0
    2.0298    0.4350    0.0000 N   0  0  0  0  0  0  0  0  0  0  0  0
   -2.3433   -0.3855    0.0000 N   0  0  0  0  0  0  0  0  0  0  0  0
    4.4867    2.0355    0.0000 N   0  0  0  0  0  0  0  0  0  0  0  0
   -3.7723    0.4395    0.0000 N   0  0  0  0  0  0  0  0  0  0  0  0
    0.5146   -0.3855    0.0000 C   0  0  0  0  0  0  0  0  0  0  0  0
   -0.1999   -0.7980    0.0000 C   0  0  0  0  0  0  0  0  0  0  0  0
    1.9435   -0.3855    0.0000 C   0  0  0  0  0  0  0  0  0  0  0  0
    2.8367    0.6065    0.0000 C   0  0  0  0  0  0  0  0  0  0  0  0
   -0.9144   -0.3855    0.0000 C   0  0  0  0  0  0  0  0  0  0  0  0
    3.2492   -0.1079    0.0000 C   0  0  0  0  0  0  0  0  0  0  0  0
    0.5146    0.4395    0.0000 C   0  0  0  0  0  0  0  0  0  0  0  0
   -1.6288   -0.7980    0.0000 C   0  0  3  0  0  0  0  0  0  0  0  0
   -0.9144    0.4395    0.0000 C   0  0  0  0  0  0  0  0  0  0  0  0
   -0.1999    0.8520    0.0000 C   0  0  0  0  0  0  0  0  0  0  0  0
    3.2492    1.3210    0.0000 C   0  0  0  0  0  0  0  0  0  0  0  0
    4.0742   -0.1079    0.0000 C   0  0  0  0  0  0  0  0  0  0  0  0
    4.0742    1.3210    0.0000 C   0  0  0  0  0  0  0  0  0  0  0  0
    4.4867    0.6065    0.0000 C   0  0  0  0  0  0  0  0  0  0  0  0
   -1.6288   -1.6230    0.0000 C   0  0  0  0  0  0  0  0  0  0  0  0
   -2.3433    0.4395    0.0000 C   0  0  3  0  0  0  0  0  0  0  0  0
   -0.9144   -2.0355    0.0000 C   0  0  0  0  0  0  0  0  0  0  0  0
   -3.0578    0.8520    0.0000 C   0  0  0  0  0  0  0  0  0  0  0  0
   -1.6288    0.8520    0.0000 C   0  0  0  0  0  0  0  0  0  0  0  0
   -3.7723   -0.3855    0.0000 C   0  0  0  0  0  0  0  0  0  0  0  0
  1 16  1  0  0  0  0
  2 12  1  0  0  0  0
  2 15  1  0  0  0  0
  3 11  1  0  0  0  0
  4 10  1  0  0  0  0
  4 12  1  0  0  0  0
  5 29  2  0  0  0  0
  6 12  2  0  0  0  0
  6 13  1  0  0  0  0
 17  7  1  1  0  0  0
  7 25  1  0  0  0  0
  8 22  1  0  0  0  0
  9 27  1  0  0  0  0
  9 29  1  0  0  0  0
 10 11  2  0  0  0  0
 10 16  1  0  0  0  0
 11 14  1  0  0  0  0
 13 15  2  0  0  0  0
 13 20  1  0  0  0  0
 14 17  1  0  0  0  0
 14 18  2  0  0  0  0
 15 21  1  0  0  0  0
 16 19  2  0  0  0  0
 17 24  1  0  0  0  0
 18 19  1  0  0  0  0
 20 22  2  0  0  0  0
 21 23  2  0  0  0  0
 22 23  1  0  0  0  0
 24 26  1  0  0  0  0
 25 27  1  0  0  0  0
 25 28  1  0  0  0  0
M  END
> <PUBCHEM_COMPOUND_ID_TYPE>
0

> <PUBCHEM_TOTAL_CHARGE>
0

> <PUBCHEM_SUBSTANCE_ID>
310939373

> <PUBCHEM_SUBSTANCE_VERSION>
1

> <PUBCHEM_EXT_DATASOURCE_NAME>
4488

> <PUBCHEM_EXT_DATASOURCE_REGID>
SCHEMBL16117294

> <PUBCHEM_SUBSTANCE_COMMENT>
InChI=1S/C20H22ClFN4O2S/c1-3-15(25-11(2)9-24-10-27)13-5-6-14(21)19(18(13)22)28-20-26-16-8-12(23)4-7-17(16)29-20/h4-8,10-11,15,25H,3,9,23H2,1-2H3,(H,24,27)/t11?,15-/m1/s1
InChIKey=VYBSBLAPPKTWNK-JOPIAHFSSA-N

> <PUBCHEM_SUBSTANCE_SYNONYM>
SCHEMBL16117294

> <PUBCHEM_XREF_EXT_ID>
SCHEMBL16117294

> <PUBCHEM_EXT_DATASOURCE_URL>
https://www.surechembl.org/

> <PUBCHEM_EXT_SUBSTANCE_URL>
https://www.surechembl.org/chemical/SCHEMBL16117294

> <PUBCHEM_CID_ASSOCIATIONS>
117606700  1

> <PUBCHEM_COORDINATE_TYPE>
1
3

> <PUBCHEM_BONDANNOTATIONS>
17  7  5

$$$$
