310945728
  -OEChem-07211613022D

 15 16  0     0  0  0  0  0  0999 V2000
    2.2184   -0.7106    0.0000 O   0  0  0  0  0  0  0  0  0  0  0  0
    1.2196    1.2677    0.0000 O   0  0  0  0  0  0  0  0  0  0  0  0
    0.7970   -0.3265    0.0000 N   0  0  0  0  0  0  0  0  0  0  0  0
   -0.6050   -2.1128    0.0000 N   0  0  0  0  0  0  0  0  0  0  0  0
   -1.4501   -1.9591    0.0000 N   0  0  0  0  0  0  0  0  0  0  0  0
   -0.8355   -0.7683    0.0000 C   0  0  0  0  0  0  0  0  0  0  0  0
   -0.2593   -1.3637    0.0000 C   0  0  0  0  0  0  0  0  0  0  0  0
   -1.5653   -1.1524    0.0000 C   0  0  0  0  0  0  0  0  0  0  0  0
    0.5282   -1.1716    0.0000 C   0  0  0  0  0  0  0  0  0  0  0  0
   -0.5858    0.0577    0.0000 C   0  0  0  0  0  0  0  0  0  0  0  0
    0.1824    0.2689    0.0000 C   0  0  0  0  0  0  0  0  0  0  0  0
    1.6038   -0.0960    0.0000 C   0  0  0  0  0  0  0  0  0  0  0  0
    1.8150    0.7106    0.0000 C   0  0  0  0  0  0  0  0  0  0  0  0
   -2.2184   -0.8067    0.0000 C   0  0  0  0  0  0  0  0  0  0  0  0
    1.4693    2.1128    0.0000 C   0  0  0  0  0  0  0  0  0  0  0  0
  1 12  2  0  0  0  0
  2 13  1  0  0  0  0
  2 15  1  0  0  0  0
  3  9  1  0  0  0  0
  3 11  1  0  0  0  0
  3 12  1  0  0  0  0
  4  5  1  0  0  0  0
  4  7  1  0  0  0  0
  5  8  2  0  0  0  0
  6  7  2  0  0  0  0
  6  8  1  0  0  0  0
  6 10  1  0  0  0  0
  7  9  1  0  0  0  0
  8 14  1  0  0  0  0
 10 11  1  0  0  0  0
 12 13  1  0  0  0  0
M  END
> <PUBCHEM_COMPOUND_ID_TYPE>
0

> <PUBCHEM_TOTAL_CHARGE>
0

> <PUBCHEM_SUBSTANCE_ID>
310945728

> <PUBCHEM_SUBSTANCE_VERSION>
1

> <PUBCHEM_EXT_DATASOURCE_NAME>
4488

> <PUBCHEM_EXT_DATASOURCE_REGID>
SCHEMBL16123832

> <PUBCHEM_SUBSTANCE_COMMENT>
InChI=1S/C10H15N3O2/c1-7-8-3-4-13(10(14)6-15-2)5-9(8)12-11-7/h3-6H2,1-2H3,(H,11,12)
InChIKey=PJEQMHNFVGDTAP-UHFFFAOYSA-N

> <PUBCHEM_SUBSTANCE_SYNONYM>
SCHEMBL16123832

> <PUBCHEM_XREF_EXT_ID>
SCHEMBL16123832

> <PUBCHEM_EXT_DATASOURCE_URL>
https://www.surechembl.org/

> <PUBCHEM_EXT_SUBSTANCE_URL>
https://www.surechembl.org/chemical/SCHEMBL16123832

> <PUBCHEM_CID_ASSOCIATIONS>
117611725  1

> <PUBCHEM_COORDINATE_TYPE>
1
3

$$$$
