310931671
  -OEChem-07211613022D

 24 26  0     0  0  0  0  0  0999 V2000
    3.5796   -2.4822    0.0000 O   0  0  0  0  0  0  0  0  0  0  0  0
    2.8741   -0.4181    0.0000 O   0  0  0  0  0  0  0  0  0  0  0  0
    0.0000   -2.9002    0.0000 O   0  0  0  0  0  0  0  0  0  0  0  0
    7.8123   -2.4822    0.0000 N   0  0  0  0  0  0  0  0  0  0  0  0
    4.2850   -1.2542    0.0000 C   0  0  0  0  0  0  0  0  0  0  0  0
    3.5796   -1.6461    0.0000 C   0  0  0  0  0  0  0  0  0  0  0  0
    2.8741   -1.2542    0.0000 C   0  0  0  0  0  0  0  0  0  0  0  0
    5.6959   -1.2542    0.0000 C   0  0  0  0  0  0  0  0  0  0  0  0
    2.1425   -1.6461    0.0000 C   0  0  0  0  0  0  0  0  0  0  0  0
    4.9905   -1.6461    0.0000 C   0  0  0  0  0  0  0  0  0  0  0  0
    6.4275   -1.6461    0.0000 C   0  0  0  0  0  0  0  0  0  0  0  0
    4.2850   -0.4181    0.0000 C   0  0  0  0  0  0  0  0  0  0  0  0
    5.7221   -0.4181    0.0000 C   0  0  0  0  0  0  0  0  0  0  0  0
    2.1425   -2.4822    0.0000 C   0  0  0  0  0  0  0  0  0  0  0  0
    1.4371   -1.2542    0.0000 C   0  0  0  0  0  0  0  0  0  0  0  0
    4.9905    0.0000    0.0000 C   0  0  0  0  0  0  0  0  0  0  0  0
    0.7055   -2.4822    0.0000 C   0  0  0  0  0  0  0  0  0  0  0  0
    1.4371   -2.9002    0.0000 C   0  0  0  0  0  0  0  0  0  0  0  0
    0.7316   -1.6461    0.0000 C   0  0  0  0  0  0  0  0  0  0  0  0
    6.4014   -2.4560    0.0000 C   0  0  0  0  0  0  0  0  0  0  0  0
    7.1330   -1.2280    0.0000 C   0  0  0  0  0  0  0  0  0  0  0  0
    7.1069   -2.9264    0.0000 C   0  0  0  0  0  0  0  0  0  0  0  0
    7.8384   -1.6722    0.0000 C   0  0  0  0  0  0  0  0  0  0  0  0
    0.0000   -3.7102    0.0000 C   0  0  0  0  0  0  0  0  0  0  0  0
  1  6  2  0  0  0  0
  2  7  2  0  0  0  0
  3 17  1  0  0  0  0
  3 24  1  0  0  0  0
  4 22  2  0  0  0  0
  4 23  1  0  0  0  0
  5  6  1  0  0  0  0
  5 10  1  0  0  0  0
  5 12  2  0  0  0  0
  6  7  1  0  0  0  0
  7  9  1  0  0  0  0
  8 10  2  0  0  0  0
  8 11  1  0  0  0  0
  8 13  1  0  0  0  0
  9 14  2  0  0  0  0
  9 15  1  0  0  0  0
 11 20  2  0  0  0  0
 11 21  1  0  0  0  0
 12 16  1  0  0  0  0
 13 16  2  0  0  0  0
 14 18  1  0  0  0  0
 15 19  2  0  0  0  0
 17 18  2  0  0  0  0
 17 19  1  0  0  0  0
 20 22  1  0  0  0  0
 21 23  2  0  0  0  0
M  END
> <PUBCHEM_COMPOUND_ID_TYPE>
0

> <PUBCHEM_TOTAL_CHARGE>
0

> <PUBCHEM_SUBSTANCE_ID>
310931671

> <PUBCHEM_SUBSTANCE_VERSION>
1

> <PUBCHEM_EXT_DATASOURCE_NAME>
4488

> <PUBCHEM_EXT_DATASOURCE_REGID>
SCHEMBL16108997

> <PUBCHEM_SUBSTANCE_COMMENT>
InChI=1S/C20H15NO3/c1-24-18-7-5-15(6-8-18)19(22)20(23)17-4-2-3-16(13-17)14-9-11-21-12-10-14/h2-13H,1H3
InChIKey=YLASYTZRTICNMA-UHFFFAOYSA-N

> <PUBCHEM_SUBSTANCE_SYNONYM>
SCHEMBL16108997

> <PUBCHEM_XREF_EXT_ID>
SCHEMBL16108997

> <PUBCHEM_EXT_DATASOURCE_URL>
https://www.surechembl.org/

> <PUBCHEM_EXT_SUBSTANCE_URL>
https://www.surechembl.org/chemical/SCHEMBL16108997

> <PUBCHEM_CID_ASSOCIATIONS>
117600380  1

> <PUBCHEM_COORDINATE_TYPE>
1
3

$$$$
