310939429
  -OEChem-07211613022D

 20 22  0     0  0  0  0  0  0999 V2000
    2.2687   -4.3858    0.0000 O   0  0  0  0  0  0  0  0  0  0  0  0
   -1.4437   -5.1002    0.0000 N   0  0  0  0  0  0  0  0  0  0  0  0
   -1.4437   -3.6713    0.0000 N   0  0  0  0  0  0  0  0  0  0  0  0
   -2.6812   -4.3858    0.0000 N   0  0  0  0  0  0  0  0  0  0  0  0
   -0.2062   -4.3858    0.0000 C   0  0  0  0  0  0  0  0  0  0  0  0
    0.2062   -3.6713    0.0000 C   0  0  0  0  0  0  0  0  0  0  0  0
    1.0313   -3.6713    0.0000 C   0  0  0  0  0  0  0  0  0  0  0  0
   -1.0313   -4.3858    0.0000 C   0  0  0  0  0  0  0  0  0  0  0  0
    1.4437   -4.3858    0.0000 C   0  0  0  0  0  0  0  0  0  0  0  0
    0.2062   -5.1002    0.0000 C   0  0  0  0  0  0  0  0  0  0  0  0
    1.0313   -5.1002    0.0000 C   0  0  0  0  0  0  0  0  0  0  0  0
   -0.2062   -2.9568    0.0000 C   0  0  0  0  0  0  0  0  0  0  0  0
    1.4437   -2.9568    0.0000 C   0  0  0  0  0  0  0  0  0  0  0  0
   -2.2687   -5.1002    0.0000 C   0  0  0  0  0  0  0  0  0  0  0  0
   -2.2687   -3.6713    0.0000 C   0  0  0  0  0  0  0  0  0  0  0  0
    0.2062   -2.2423    0.0000 C   0  0  0  0  0  0  0  0  0  0  0  0
    1.0313   -2.2423    0.0000 C   0  0  0  0  0  0  0  0  0  0  0  0
   -2.6812   -5.8147    0.0000 C   0  0  0  0  0  0  0  0  0  0  0  0
   -2.6812   -2.9568    0.0000 C   0  0  0  0  0  0  0  0  0  0  0  0
    2.6812   -3.6713    0.0000 C   0  0  0  0  0  0  0  0  0  0  0  0
  1  9  1  0  0  0  0
  1 20  1  0  0  0  0
  2  8  2  0  0  0  0
  2 14  1  0  0  0  0
  3  8  1  0  0  0  0
  3 15  2  0  0  0  0
  4 14  2  0  0  0  0
  4 15  1  0  0  0  0
  5  6  1  0  0  0  0
  5  8  1  0  0  0  0
  5 10  2  0  0  0  0
  6  7  2  0  0  0  0
  6 12  1  0  0  0  0
  7  9  1  0  0  0  0
  7 13  1  0  0  0  0
  9 11  2  0  0  0  0
 10 11  1  0  0  0  0
 12 16  2  0  0  0  0
 13 17  2  0  0  0  0
 14 18  1  0  0  0  0
 15 19  1  0  0  0  0
 16 17  1  0  0  0  0
M  END
> <PUBCHEM_COMPOUND_ID_TYPE>
0

> <PUBCHEM_TOTAL_CHARGE>
0

> <PUBCHEM_SUBSTANCE_ID>
310939429

> <PUBCHEM_SUBSTANCE_VERSION>
1

> <PUBCHEM_EXT_DATASOURCE_NAME>
4488

> <PUBCHEM_EXT_DATASOURCE_REGID>
SCHEMBL16117351

> <PUBCHEM_SUBSTANCE_COMMENT>
InChI=1S/C16H15N3O/c1-10-17-11(2)19-16(18-10)14-8-9-15(20-3)13-7-5-4-6-12(13)14/h4-9H,1-3H3
InChIKey=NXHAHJSRHKEHGM-UHFFFAOYSA-N

> <PUBCHEM_SUBSTANCE_SYNONYM>
SCHEMBL16117351

> <PUBCHEM_XREF_EXT_ID>
SCHEMBL16117351

> <PUBCHEM_EXT_DATASOURCE_URL>
https://www.surechembl.org/

> <PUBCHEM_EXT_SUBSTANCE_URL>
https://www.surechembl.org/chemical/SCHEMBL16117351

> <PUBCHEM_CID_ASSOCIATIONS>
117606753  1

> <PUBCHEM_COORDINATE_TYPE>
1
3

$$$$
