310948526
  -OEChem-07211613022D

 32 36  0     1  0  0  0  0  0999 V2000
   -2.5959    2.3549    0.0000 O   0  0  0  0  0  0  0  0  0  0  0  0
    0.1721    2.2171    0.0000 N   0  0  0  0  0  0  0  0  0  0  0  0
   -0.1721    1.4735    0.0000 N   0  0  0  0  0  0  0  0  0  0  0  0
   -1.5493    0.9502    0.0000 N   0  0  0  0  0  0  0  0  0  0  0  0
   -1.8797    3.5943    0.0000 N   0  0  0  0  0  0  0  0  0  0  0  0
   -1.2738   -2.8093    0.0000 N   0  0  0  0  0  0  0  0  0  0  0  0
   -1.1499   -3.6356    0.0000 N   0  0  0  0  0  0  0  0  0  0  0  0
    1.0122    0.2203    0.0000 N   0  0  0  0  0  0  0  0  0  0  0  0
   -1.8797   -4.0075    0.0000 N   0  0  0  0  0  0  0  0  0  0  0  0
   -1.1637    2.3686    0.0000 C   0  0  0  0  0  0  0  0  0  0  0  0
   -0.4613    2.7818    0.0000 C   0  0  0  0  0  0  0  0  0  0  0  0
   -0.9984    1.5699    0.0000 C   0  0  0  0  0  0  0  0  0  0  0  0
    0.9709    2.3962    0.0000 C   0  0  3  0  0  0  0  0  0  0  0  0
   -1.8797    2.7818    0.0000 C   0  0  0  0  0  0  0  0  0  0  0  0
   -0.4476    3.5943    0.0000 C   0  0  0  0  0  0  0  0  0  0  0  0
    1.5217    1.8041    0.0000 C   0  0  3  0  0  0  0  0  0  0  0  0
   -1.3427    0.1652    0.0000 C   0  0  0  0  0  0  0  0  0  0  0  0
   -1.1912    4.0075    0.0000 C   0  0  0  0  0  0  0  0  0  0  0  0
    1.2325    3.1674    0.0000 C   0  0  0  0  0  0  0  0  0  0  0  0
    2.3343    1.9555    0.0000 C   0  0  0  0  0  0  0  0  0  0  0  0
   -0.9020   -1.4460    0.0000 C   0  0  0  0  0  0  0  0  0  0  0  0
   -1.9073   -0.4269    0.0000 C   0  0  0  0  0  0  0  0  0  0  0  0
   -0.5440   -0.0688    0.0000 C   0  0  0  0  0  0  0  0  0  0  0  0
    1.2601    1.0191    0.0000 C   0  0  0  0  0  0  0  0  0  0  0  0
    2.0451    3.3326    0.0000 C   0  0  0  0  0  0  0  0  0  0  0  0
   -0.6954   -2.2171    0.0000 C   0  0  3  0  0  0  0  0  0  0  0  0
   -1.7008   -1.2256    0.0000 C   0  0  0  0  0  0  0  0  0  0  0  0
   -0.3237   -0.8538    0.0000 C   0  0  0  0  0  0  0  0  0  0  0  0
    2.5959    2.7267    0.0000 C   0  0  0  0  0  0  0  0  0  0  0  0
   -2.0864   -2.6854    0.0000 C   0  0  0  0  0  0  0  0  0  0  0  0
    0.1309   -2.4375    0.0000 C   0  0  0  0  0  0  0  0  0  0  0  0
   -2.4719   -3.4153    0.0000 C   0  0  0  0  0  0  0  0  0  0  0  0
  1 14  2  0  0  0  0
  2  3  1  0  0  0  0
  2 11  1  0  0  0  0
 13  2  1  1  0  0  0
  3 12  2  0  0  0  0
  4 12  1  0  0  0  0
  4 17  1  0  0  0  0
  5 14  1  0  0  0  0
  5 18  1  0  0  0  0
  6  7  1  0  0  0  0
  6 26  1  0  0  0  0
  6 30  1  0  0  0  0
  7  9  2  0  0  0  0
  8 24  3  0  0  0  0
  9 32  1  0  0  0  0
 10 11  2  0  0  0  0
 10 12  1  0  0  0  0
 10 14  1  0  0  0  0
 11 15  1  0  0  0  0
 13 16  1  0  0  0  0
 13 19  1  0  0  0  0
 15 18  2  0  0  0  0
 16 20  1  0  0  0  0
 16 24  1  6  0  0  0
 17 22  2  0  0  0  0
 17 23  1  0  0  0  0
 19 25  1  0  0  0  0
 20 29  1  0  0  0  0
 21 26  1  0  0  0  0
 21 27  2  0  0  0  0
 21 28  1  0  0  0  0
 22 27  1  0  0  0  0
 23 28  2  0  0  0  0
 25 29  1  0  0  0  0
 26 31  1  0  0  0  0
 30 32  2  0  0  0  0
M  END
> <PUBCHEM_COMPOUND_ID_TYPE>
0

> <PUBCHEM_TOTAL_CHARGE>
0

> <PUBCHEM_SUBSTANCE_ID>
310948526

> <PUBCHEM_SUBSTANCE_VERSION>
1

> <PUBCHEM_EXT_DATASOURCE_NAME>
4488

> <PUBCHEM_EXT_DATASOURCE_REGID>
SCHEMBL16126708

> <PUBCHEM_SUBSTANCE_COMMENT>
InChI=1S/C23H24N8O/c1-15(30-13-12-26-29-30)16-6-8-18(9-7-16)27-22-21-20(10-11-25-23(21)32)31(28-22)19-5-3-2-4-17(19)14-24/h6-13,15,17,19H,2-5H2,1H3,(H,25,32)(H,27,28)/t15?,17-,19+/m1/s1
InChIKey=FLDQYFHLMGVLAH-IMNIMJDZSA-N

> <PUBCHEM_SUBSTANCE_SYNONYM>
SCHEMBL16126708

> <PUBCHEM_XREF_EXT_ID>
SCHEMBL16126708

> <PUBCHEM_EXT_DATASOURCE_URL>
https://www.surechembl.org/

> <PUBCHEM_EXT_SUBSTANCE_URL>
https://www.surechembl.org/chemical/SCHEMBL16126708

> <PUBCHEM_CID_ASSOCIATIONS>
117614083  1

> <PUBCHEM_COORDINATE_TYPE>
1
3

> <PUBCHEM_BONDANNOTATIONS>
16  24  6
13  2  5

$$$$
