310949798
  -OEChem-07211613022D

 27 32  0     1  0  0  0  0  0999 V2000
    2.5937    1.2438    0.0000 O   0  0  0  0  0  0  0  0  0  0  0  0
    3.3188    2.4938    0.0000 O   0  0  0  0  0  0  0  0  0  0  0  0
   -3.3188   -1.7687    0.0000 O   0  0  0  0  0  0  0  0  0  0  0  0
    1.0188    0.7438    0.0000 C   0  0  3  0  0  0  0  0  0  0  0  0
    0.3063   -0.4937    0.0000 C   0  0  3  0  0  0  0  0  0  0  0  0
    1.0188   -0.0937    0.0000 C   0  0  3  0  0  0  0  0  0  0  0  0
    1.8687    0.9938    0.0000 C   0  0  3  0  0  0  0  0  0  0  0  0
    0.2938   -1.3562    0.0000 C   0  0  3  0  0  0  0  0  0  0  0  0
   -0.4188   -0.1062    0.0000 C   0  0  3  0  0  0  0  0  0  0  0  0
   -1.1438   -0.5062    0.0000 C   0  0  3  0  0  0  0  0  0  0  0  0
   -0.4188   -1.7562    0.0000 C   0  0  3  0  0  0  0  0  0  0  0  0
   -1.1438   -1.3437    0.0000 C   0  0  0  0  0  0  0  0  0  0  0  0
    0.2562   -2.1063    0.0000 C   0  0  0  0  0  0  0  0  0  0  0  0
    0.3063    1.1438    0.0000 C   0  0  0  0  0  0  0  0  0  0  0  0
    1.8188   -0.3562    0.0000 C   0  0  0  0  0  0  0  0  0  0  0  0
    2.2937    0.3063    0.0000 C   0  0  0  0  0  0  0  0  0  0  0  0
   -0.4062    0.7313    0.0000 C   0  0  0  0  0  0  0  0  0  0  0  0
    1.0188    1.5688    0.0000 C   0  0  0  0  0  0  0  0  0  0  0  0
    1.3437    1.6563    0.0000 C   0  0  0  0  0  0  0  0  0  0  0  0
   -1.8563   -0.1062    0.0000 C   0  0  0  0  0  0  0  0  0  0  0  0
   -1.8687   -1.7562    0.0000 C   0  0  0  0  0  0  0  0  0  0  0  0
    2.5937    2.0688    0.0000 C   0  0  0  0  0  0  0  0  0  0  0  0
   -1.1438    0.3188    0.0000 C   0  0  0  0  0  0  0  0  0  0  0  0
    1.8313    2.3438    0.0000 C   0  0  0  0  0  0  0  0  0  0  0  0
   -2.5812   -1.3312    0.0000 C   0  0  0  0  0  0  0  0  0  0  0  0
   -2.5687   -0.5187    0.0000 C   0  0  0  0  0  0  0  0  0  0  0  0
    0.3063    1.9813    0.0000 C   0  0  0  0  0  0  0  0  0  0  0  0
  7  1  1  1  0  0  0
  1 22  1  0  0  0  0
  2 22  2  0  0  0  0
  3 25  2  0  0  0  0
  4  6  1  0  0  0  0
  4  7  1  0  0  0  0
  4 14  1  0  0  0  0
  4 18  1  1  0  0  0
  5  6  1  0  0  0  0
  5  8  1  0  0  0  0
  5  9  1  6  0  0  0
  6 15  1  0  0  0  0
  7 16  1  0  0  0  0
  7 19  1  0  0  0  0
  8 11  1  0  0  0  0
  8 13  1  0  0  0  0
  9 10  1  0  0  0  0
  9 17  1  0  0  0  0
 10 12  1  0  0  0  0
 10 20  1  0  0  0  0
 10 23  1  1  0  0  0
 11 12  1  6  0  0  0
 11 13  1  0  0  0  0
 12 21  2  0  0  0  0
 14 17  1  0  0  0  0
 15 16  1  0  0  0  0
 18 27  1  0  0  0  0
 19 24  1  0  0  0  0
 20 26  1  0  0  0  0
 21 25  1  0  0  0  0
 22 24  1  0  0  0  0
 25 26  1  0  0  0  0
M  END
> <PUBCHEM_COMPOUND_ID_TYPE>
0

> <PUBCHEM_TOTAL_CHARGE>
0

> <PUBCHEM_SUBSTANCE_ID>
310949798

> <PUBCHEM_SUBSTANCE_VERSION>
1

> <PUBCHEM_EXT_DATASOURCE_NAME>
4488

> <PUBCHEM_EXT_DATASOURCE_REGID>
SCHEMBL16127996

> <PUBCHEM_SUBSTANCE_COMMENT>
InChI=1S/C24H32O3/c1-3-23-9-5-17-21(18(23)6-10-24(23)11-7-20(26)27-24)16-13-15(16)19-12-14(25)4-8-22(17,19)2/h12,15-18,21H,3-11,13H2,1-2H3/t15-,16?,17?,18?,21+,22+,23-,24+/m0/s1
InChIKey=JAZBZBKVUGXWFV-CAUPOKDDSA-N

> <PUBCHEM_SUBSTANCE_SYNONYM>
SCHEMBL16127996

> <PUBCHEM_XREF_EXT_ID>
SCHEMBL16127996

> <PUBCHEM_EXT_DATASOURCE_URL>
https://www.surechembl.org/

> <PUBCHEM_EXT_SUBSTANCE_URL>
https://www.surechembl.org/chemical/SCHEMBL16127996

> <PUBCHEM_CID_ASSOCIATIONS>
117615119  1

> <PUBCHEM_COORDINATE_TYPE>
1
3

> <PUBCHEM_BONDANNOTATIONS>
7  1  5
10  23  5
11  12  6
4  18  5
5  9  6

$$$$
