310934904
  -OEChem-07211613022D

 38 43  0     1  0  0  0  0  0999 V2000
    6.4951   -4.9962    0.0000 O   0  0  0  0  0  0  0  0  0  0  0  0
    5.0899   -0.8119    0.0000 O   0  0  0  0  0  0  0  0  0  0  0  0
    2.1859   -4.9962    0.0000 N   0  0  3  0  0  0  0  0  0  0  0  0
    0.7494   -4.9962    0.0000 N   0  0  0  0  0  0  0  0  0  0  0  0
    0.0312   -3.7472    0.0000 N   0  0  0  0  0  0  0  0  0  0  0  0
    3.6535   -2.4981    0.0000 N   0  0  0  0  0  0  0  0  0  0  0  0
    4.3405   -2.0921    0.0000 N   0  0  0  0  0  0  0  0  0  0  0  0
    5.7769   -3.7472    0.0000 N   0  0  0  0  0  0  0  0  0  0  0  0
    7.9315   -3.3100    0.0000 N   0  0  0  0  0  0  0  0  0  0  0  0
    1.4677   -3.7472    0.0000 C   0  0  0  0  0  0  0  0  0  0  0  0
    1.4677   -4.5903    0.0000 C   0  0  0  0  0  0  0  0  0  0  0  0
    0.7494   -3.3100    0.0000 C   0  0  0  0  0  0  0  0  0  0  0  0
    2.1859   -2.5293    0.0000 C   0  0  0  0  0  0  0  0  0  0  0  0
    0.7494   -2.5293    0.0000 C   0  0  0  0  0  0  0  0  0  0  0  0
    2.1859   -3.3413    0.0000 C   0  0  0  0  0  0  0  0  0  0  0  0
    3.6222   -4.9962    0.0000 C   0  0  0  0  0  0  0  0  0  0  0  0
    2.9040   -4.5903    0.0000 C   0  0  0  0  0  0  0  0  0  0  0  0
    1.4677   -2.0921    0.0000 C   0  0  0  0  0  0  0  0  0  0  0  0
    3.6222   -5.8393    0.0000 C   0  0  0  0  0  0  0  0  0  0  0  0
    2.9040   -2.0921    0.0000 C   0  0  0  0  0  0  0  0  0  0  0  0
    2.1859   -5.8393    0.0000 C   0  0  0  0  0  0  0  0  0  0  0  0
    0.0000   -4.5903    0.0000 C   0  0  0  0  0  0  0  0  0  0  0  0
    2.9040   -6.2453    0.0000 C   0  0  0  0  0  0  0  0  0  0  0  0
    4.3405   -4.5903    0.0000 C   0  0  0  0  0  0  0  0  0  0  0  0
    5.0587   -4.9962    0.0000 C   0  0  0  0  0  0  0  0  0  0  0  0
    4.3405   -6.2453    0.0000 C   0  0  0  0  0  0  0  0  0  0  0  0
    5.0587   -5.8393    0.0000 C   0  0  0  0  0  0  0  0  0  0  0  0
    2.9353   -1.2490    0.0000 C   0  0  0  0  0  0  0  0  0  0  0  0
    0.0000   -2.0921    0.0000 C   0  0  0  0  0  0  0  0  0  0  0  0
    5.7769   -4.5903    0.0000 C   0  0  0  0  0  0  0  0  0  0  0  0
    4.3717   -1.2490    0.0000 C   0  0  0  0  0  0  0  0  0  0  0  0
    3.6535   -0.8431    0.0000 C   0  0  0  0  0  0  0  0  0  0  0  0
    6.4951   -3.3413    0.0000 C   0  0  3  0  0  0  0  0  0  0  0  0
    7.2446   -3.7472    0.0000 C   0  0  0  0  0  0  0  0  0  0  0  0
    6.5263   -2.4981    0.0000 C   0  0  0  0  0  0  0  0  0  0  0  0
    7.2446   -2.0921    0.0000 C   0  0  0  0  0  0  0  0  0  0  0  0
    5.0899    0.0000    0.0000 C   0  0  0  0  0  0  0  0  0  0  0  0
    7.9315   -2.4981    0.0000 C   0  0  0  0  0  0  0  0  0  0  0  0
  1 30  2  0  0  0  0
  2 31  1  0  0  0  0
  2 37  1  0  0  0  0
  3 11  1  0  0  0  0
  3 17  1  0  0  0  0
  3 21  1  0  0  0  0
  4 11  1  0  0  0  0
  4 22  2  0  0  0  0
  5 12  2  0  0  0  0
  5 22  1  0  0  0  0
  6  7  2  0  0  0  0
  6 20  1  0  0  0  0
  7 31  1  0  0  0  0
  8 30  1  0  0  0  0
 33  8  1  1  0  0  0
  9 34  1  0  0  0  0
  9 38  1  0  0  0  0
 10 11  2  0  0  0  0
 10 12  1  0  0  0  0
 10 15  1  0  0  0  0
 12 14  1  0  0  0  0
 13 15  2  0  0  0  0
 13 18  1  0  0  0  0
 13 20  1  0  0  0  0
 14 18  2  0  0  0  0
 14 29  1  0  0  0  0
 16 17  1  0  0  0  0
 16 19  2  0  0  0  0
 16 24  1  0  0  0  0
 19 23  1  0  0  0  0
 19 26  1  0  0  0  0
 20 28  2  0  0  0  0
 21 23  1  0  0  0  0
 24 25  2  0  0  0  0
 25 27  1  0  0  0  0
 25 30  1  0  0  0  0
 26 27  2  0  0  0  0
 28 32  1  0  0  0  0
 31 32  2  0  0  0  0
 33 34  1  0  0  0  0
 33 35  1  0  0  0  0
 35 36  1  0  0  0  0
 36 38  1  0  0  0  0
M  END
> <PUBCHEM_COMPOUND_ID_TYPE>
0

> <PUBCHEM_TOTAL_CHARGE>
0

> <PUBCHEM_SUBSTANCE_ID>
310934904

> <PUBCHEM_SUBSTANCE_VERSION>
1

> <PUBCHEM_EXT_DATASOURCE_NAME>
4488

> <PUBCHEM_EXT_DATASOURCE_REGID>
SCHEMBL16112417

> <PUBCHEM_SUBSTANCE_COMMENT>
InChI=1S/C29H31N7O2/c1-18-12-21(25-7-8-26(38-2)35-34-25)14-24-27(18)31-17-32-28(24)36-11-9-19-5-6-20(13-22(19)16-36)29(37)33-23-4-3-10-30-15-23/h5-8,12-14,17,23,30H,3-4,9-11,15-16H2,1-2H3,(H,33,37)/t23-/m0/s1
InChIKey=IKPQVTLWUZBKEB-QHCPKHFHSA-N

> <PUBCHEM_SUBSTANCE_SYNONYM>
SCHEMBL16112417

> <PUBCHEM_XREF_EXT_ID>
SCHEMBL16112417

> <PUBCHEM_EXT_DATASOURCE_URL>
https://www.surechembl.org/

> <PUBCHEM_EXT_SUBSTANCE_URL>
https://www.surechembl.org/chemical/SCHEMBL16112417

> <PUBCHEM_CID_ASSOCIATIONS>
117603030  1

> <PUBCHEM_COORDINATE_TYPE>
1
3

> <PUBCHEM_BONDANNOTATIONS>
33  8  5

$$$$
