310939959
  -OEChem-07211613022D

 24 26  0     0  0  0  0  0  0999 V2000
   -2.3671    1.5938    0.0000 Cl  0  0  0  0  0  0  0  0  0  0  0  0
    0.0439    1.6500    0.0000 O   0  0  0  0  0  0  0  0  0  0  0  0
    2.9018   -1.6500    0.0000 O   0  0  0  0  0  0  0  0  0  0  0  0
    0.7584    0.4125    0.0000 N   0  0  0  0  0  0  0  0  0  0  0  0
   -0.6705   -0.4125    0.0000 N   0  0  0  0  0  0  0  0  0  0  0  0
   -1.4552   -0.6674    0.0000 N   0  0  0  0  0  0  0  0  0  0  0  0
    2.1873   -0.4125    0.0000 N   0  0  0  0  0  0  0  0  0  0  0  0
   -0.6705    0.4125    0.0000 C   0  0  0  0  0  0  0  0  0  0  0  0
   -1.9401    0.0000    0.0000 C   0  0  0  0  0  0  0  0  0  0  0  0
    0.0439    0.8250    0.0000 C   0  0  0  0  0  0  0  0  0  0  0  0
   -2.7370    0.2135    0.0000 C   0  0  0  0  0  0  0  0  0  0  0  0
   -1.4552    0.6674    0.0000 C   0  0  0  0  0  0  0  0  0  0  0  0
   -2.9505    1.0104    0.0000 C   0  0  0  0  0  0  0  0  0  0  0  0
    0.7584   -0.4125    0.0000 C   0  0  0  0  0  0  0  0  0  0  0  0
    1.4729    0.8250    0.0000 C   0  0  0  0  0  0  0  0  0  0  0  0
   -3.3203   -0.3698    0.0000 C   0  0  0  0  0  0  0  0  0  0  0  0
    1.4729   -0.8250    0.0000 C   0  0  0  0  0  0  0  0  0  0  0  0
    2.1873    0.4125    0.0000 C   0  0  0  0  0  0  0  0  0  0  0  0
    2.9018   -0.8250    0.0000 C   0  0  0  0  0  0  0  0  0  0  0  0
   -3.7474    1.2239    0.0000 C   0  0  0  0  0  0  0  0  0  0  0  0
   -4.1172   -0.1563    0.0000 C   0  0  0  0  0  0  0  0  0  0  0  0
   -4.3308    0.6406    0.0000 C   0  0  0  0  0  0  0  0  0  0  0  0
    3.6163   -0.4125    0.0000 C   0  0  0  0  0  0  0  0  0  0  0  0
    4.3308   -0.8250    0.0000 C   0  0  0  0  0  0  0  0  0  0  0  0
  1 13  1  0  0  0  0
  2 10  2  0  0  0  0
  3 19  2  0  0  0  0
  4 10  1  0  0  0  0
  4 14  1  0  0  0  0
  4 15  1  0  0  0  0
  5  6  1  0  0  0  0
  5  8  1  0  0  0  0
  6  9  2  0  0  0  0
  7 17  1  0  0  0  0
  7 18  1  0  0  0  0
  7 19  1  0  0  0  0
  8 10  1  0  0  0  0
  8 12  2  0  0  0  0
  9 11  1  0  0  0  0
  9 12  1  0  0  0  0
 11 13  2  0  0  0  0
 11 16  1  0  0  0  0
 13 20  1  0  0  0  0
 14 17  1  0  0  0  0
 15 18  1  0  0  0  0
 16 21  2  0  0  0  0
 19 23  1  0  0  0  0
 20 22  2  0  0  0  0
 21 22  1  0  0  0  0
 23 24  2  0  0  0  0
M  END
> <PUBCHEM_COMPOUND_ID_TYPE>
0

> <PUBCHEM_TOTAL_CHARGE>
0

> <PUBCHEM_SUBSTANCE_ID>
310939959

> <PUBCHEM_SUBSTANCE_VERSION>
1

> <PUBCHEM_EXT_DATASOURCE_NAME>
4488

> <PUBCHEM_EXT_DATASOURCE_REGID>
SCHEMBL16117889

> <PUBCHEM_SUBSTANCE_COMMENT>
InChI=1S/C17H17ClN4O2/c1-2-16(23)21-7-9-22(10-8-21)17(24)15-11-14(19-20-15)12-5-3-4-6-13(12)18/h2-6,11H,1,7-10H2,(H,19,20)
InChIKey=WSRFIJWOHAQSDP-UHFFFAOYSA-N

> <PUBCHEM_SUBSTANCE_SYNONYM>
SCHEMBL16117889

> <PUBCHEM_XREF_EXT_ID>
SCHEMBL16117889

> <PUBCHEM_EXT_DATASOURCE_URL>
https://www.surechembl.org/

> <PUBCHEM_EXT_SUBSTANCE_URL>
https://www.surechembl.org/chemical/SCHEMBL16117889

> <PUBCHEM_CID_ASSOCIATIONS>
117607125  1

> <PUBCHEM_COORDINATE_TYPE>
1
3

$$$$
