310938754
  -OEChem-07211613022D

 29 32  0     0  0  0  0  0  0999 V2000
   -2.5831  -12.8568    0.0000 O   0  0  0  0  0  0  0  0  0  0  0  0
   -1.1542  -13.6818    0.0000 O   0  0  0  0  0  0  0  0  0  0  0  0
    0.2748  -15.3318    0.0000 O   0  0  0  0  0  0  0  0  0  0  0  0
   -0.4397  -11.6193    0.0000 N   0  0  0  0  0  0  0  0  0  0  0  0
    0.9892  -14.0943    0.0000 N   0  0  0  0  0  0  0  0  0  0  0  0
    1.7037  -15.3318    0.0000 N   0  0  0  0  0  0  0  0  0  0  0  0
    2.4799  -12.0318    0.0000 N   0  0  0  0  0  0  0  0  0  0  0  0
   -0.4397  -12.4443    0.0000 C   0  0  0  0  0  0  0  0  0  0  0  0
   -1.8686  -12.4443    0.0000 C   0  0  0  0  0  0  0  0  0  0  0  0
   -1.1542  -12.8568    0.0000 C   0  0  0  0  0  0  0  0  0  0  0  0
    0.8299  -12.0318    0.0000 C   0  0  0  0  0  0  0  0  0  0  0  0
    0.3449  -12.6992    0.0000 C   0  0  0  0  0  0  0  0  0  0  0  0
    0.3449  -11.3643    0.0000 C   0  0  0  0  0  0  0  0  0  0  0  0
   -2.5831  -13.6818    0.0000 C   0  0  0  0  0  0  0  0  0  0  0  0
   -1.1542  -11.2068    0.0000 C   0  0  0  0  0  0  0  0  0  0  0  0
   -1.8686  -11.6193    0.0000 C   0  0  0  0  0  0  0  0  0  0  0  0
   -1.8686  -14.0943    0.0000 C   0  0  0  0  0  0  0  0  0  0  0  0
   -3.2976  -14.0943    0.0000 C   0  0  0  0  0  0  0  0  0  0  0  0
    1.6549  -12.0318    0.0000 C   0  0  0  0  0  0  0  0  0  0  0  0
    0.9892  -14.9193    0.0000 C   0  0  0  0  0  0  0  0  0  0  0  0
   -1.8686  -14.9193    0.0000 C   0  0  0  0  0  0  0  0  0  0  0  0
    0.2748  -13.6818    0.0000 C   0  0  0  0  0  0  0  0  0  0  0  0
   -0.4397  -14.0943    0.0000 C   0  0  0  0  0  0  0  0  0  0  0  0
   -3.2976  -14.9193    0.0000 C   0  0  0  0  0  0  0  0  0  0  0  0
    1.7037  -13.6818    0.0000 C   0  0  0  0  0  0  0  0  0  0  0  0
    2.4182  -14.9193    0.0000 C   0  0  0  0  0  0  0  0  0  0  0  0
   -2.5831  -15.3318    0.0000 C   0  0  0  0  0  0  0  0  0  0  0  0
    2.4182  -14.0943    0.0000 C   0  0  0  0  0  0  0  0  0  0  0  0
    3.1327  -15.3318    0.0000 C   0  0  0  0  0  0  0  0  0  0  0  0
  1  9  1  0  0  0  0
  1 14  1  0  0  0  0
  2 17  1  0  0  0  0
  2 23  1  0  0  0  0
  3 20  2  0  0  0  0
  4  8  1  0  0  0  0
  4 13  1  0  0  0  0
  4 15  1  0  0  0  0
  5 20  1  0  0  0  0
  5 22  1  0  0  0  0
  5 25  1  0  0  0  0
  6 20  1  0  0  0  0
  6 26  1  0  0  0  0
  7 19  3  0  0  0  0
  8 10  1  0  0  0  0
  8 12  2  0  0  0  0
  9 10  2  0  0  0  0
  9 16  1  0  0  0  0
 11 12  1  0  0  0  0
 11 13  2  0  0  0  0
 11 19  1  0  0  0  0
 14 17  1  0  0  0  0
 14 18  2  0  0  0  0
 15 16  2  0  0  0  0
 17 21  2  0  0  0  0
 18 24  1  0  0  0  0
 21 27  1  0  0  0  0
 22 23  1  0  0  0  0
 24 27  2  0  0  0  0
 25 28  2  0  0  0  0
 26 28  1  0  0  0  0
 26 29  2  0  0  0  0
M  END
> <PUBCHEM_COMPOUND_ID_TYPE>
0

> <PUBCHEM_TOTAL_CHARGE>
0

> <PUBCHEM_SUBSTANCE_ID>
310938754

> <PUBCHEM_SUBSTANCE_VERSION>
1

> <PUBCHEM_EXT_DATASOURCE_NAME>
4488

> <PUBCHEM_EXT_DATASOURCE_REGID>
SCHEMBL16116670

> <PUBCHEM_SUBSTANCE_COMMENT>
InChI=1S/C22H18N4O3/c1-16-6-8-25(22(27)24-16)10-11-28-20-4-2-3-5-21(20)29-19-7-9-26-15-17(14-23)12-18(26)13-19/h2-9,12-13,15H,1,10-11H2,(H,24,27)
InChIKey=VIXQLOMEABAWIA-UHFFFAOYSA-N

> <PUBCHEM_SUBSTANCE_SYNONYM>
SCHEMBL16116670

> <PUBCHEM_XREF_EXT_ID>
SCHEMBL16116670

> <PUBCHEM_EXT_DATASOURCE_URL>
https://www.surechembl.org/

> <PUBCHEM_EXT_SUBSTANCE_URL>
https://www.surechembl.org/chemical/SCHEMBL16116670

> <PUBCHEM_CID_ASSOCIATIONS>
117606167  1

> <PUBCHEM_COORDINATE_TYPE>
1
3

$$$$
