310940952
  -OEChem-07211613022D

 39 42  0     1  0  0  0  0  0999 V2000
    4.7678    0.9757    0.0000 O   0  0  0  0  0  0  0  0  0  0  0  0
    3.6330   -0.9896    0.0000 O   0  0  0  0  0  0  0  0  0  0  0  0
    1.2664    0.9619    0.0000 O   0  0  0  0  0  0  0  0  0  0  0  0
   -0.8927   -1.1141    0.0000 O   0  0  0  0  0  0  0  0  0  0  0  0
   -4.5326    0.0484    0.0000 O   0  0  0  0  0  0  0  0  0  0  0  0
   -3.0517    0.9619    0.0000 O   0  0  0  0  0  0  0  0  0  0  0  0
    3.4253   -2.7749    0.0000 O   0  0  0  0  0  0  0  0  0  0  0  0
    1.9860   -0.2699    0.0000 N   0  0  0  0  0  0  0  0  0  0  0  0
   -0.1730    0.1453    0.0000 N   0  0  0  0  0  0  0  0  0  0  0  0
   -2.3320   -0.2699    0.0000 N   0  0  0  0  0  0  0  0  0  0  0  0
    4.3388    0.3114    0.0000 C   0  0  3  0  0  0  0  0  0  0  0  0
    3.6330   -0.1176    0.0000 C   0  0  0  0  0  0  0  0  0  0  0  0
    3.9651    1.0034    0.0000 C   0  0  0  0  0  0  0  0  0  0  0  0
    2.9133    0.2976    0.0000 C   0  0  3  0  0  0  0  0  0  0  0  0
    5.0723   -0.1176    0.0000 C   0  0  0  0  0  0  0  0  0  0  0  0
    2.9271    1.3632    0.0000 C   0  0  0  0  0  0  0  0  0  0  0  0
    1.2664    0.1453    0.0000 C   0  0  0  0  0  0  0  0  0  0  0  0
    0.5606   -0.2422    0.0000 C   0  0  3  0  0  0  0  0  0  0  0  0
    2.1936    1.8061    0.0000 C   0  0  0  0  0  0  0  0  0  0  0  0
    0.5329   -1.1003    0.0000 C   0  0  0  0  0  0  0  0  0  0  0  0
   -0.8788   -0.2283    0.0000 C   0  0  0  0  0  0  0  0  0  0  0  0
    1.2802   -1.4878    0.0000 C   0  0  0  0  0  0  0  0  0  0  0  0
    1.4324    1.4739    0.0000 C   0  0  0  0  0  0  0  0  0  0  0  0
    2.1106    2.6088    0.0000 C   0  0  0  0  0  0  0  0  0  0  0  0
   -1.6123    0.1591    0.0000 C   0  0  3  0  0  0  0  0  0  0  0  0
   -2.9825    0.1453    0.0000 C   0  0  0  0  0  0  0  0  0  0  0  0
   -3.7714   -0.2560    0.0000 C   0  0  3  0  0  0  0  0  0  0  0  0
    0.9065    2.0552    0.0000 C   0  0  0  0  0  0  0  0  0  0  0  0
    1.3079    2.7749    0.0000 C   0  0  0  0  0  0  0  0  0  0  0  0
    1.2802   -2.3320    0.0000 C   0  0  0  0  0  0  0  0  0  0  0  0
    1.9722   -1.1003    0.0000 C   0  0  0  0  0  0  0  0  0  0  0  0
    2.7057   -2.3182    0.0000 C   0  0  0  0  0  0  0  0  0  0  0  0
    1.9998   -2.7333    0.0000 C   0  0  0  0  0  0  0  0  0  0  0  0
    2.7057   -1.5016    0.0000 C   0  0  0  0  0  0  0  0  0  0  0  0
   -3.8683   -1.0864    0.0000 C   0  0  0  0  0  0  0  0  0  0  0  0
   -1.6123    0.9757    0.0000 C   0  0  0  0  0  0  0  0  0  0  0  0
   -5.0723   -0.5467    0.0000 C   0  0  0  0  0  0  0  0  0  0  0  0
   -4.6709   -1.2525    0.0000 C   0  0  0  0  0  0  0  0  0  0  0  0
    4.1589   -2.3320    0.0000 C   0  0  0  0  0  0  0  0  0  0  0  0
  1 11  1  0  0  0  0
  1 13  1  0  0  0  0
  2 12  2  0  0  0  0
  3 17  2  0  0  0  0
  4 21  2  0  0  0  0
  5 27  1  0  0  0  0
  5 37  1  0  0  0  0
  6 26  2  0  0  0  0
  7 32  1  0  0  0  0
  7 39  1  0  0  0  0
 14  8  1  1  0  0  0
  8 17  1  0  0  0  0
 18  9  1  6  0  0  0
  9 21  1  0  0  0  0
 10 25  1  0  0  0  0
 10 26  1  0  0  0  0
 11 12  1  1  0  0  0
 11 13  1  0  0  0  0
 11 15  1  6  0  0  0
 12 14  1  0  0  0  0
 14 16  1  0  0  0  0
 16 19  1  0  0  0  0
 17 18  1  0  0  0  0
 18 20  1  0  0  0  0
 19 23  1  0  0  0  0
 19 24  1  0  0  0  0
 20 22  1  0  0  0  0
 21 25  1  0  0  0  0
 22 30  2  0  0  0  0
 22 31  1  0  0  0  0
 23 28  1  0  0  0  0
 24 29  1  0  0  0  0
 25 36  1  6  0  0  0
 27 26  1  6  0  0  0
 27 35  1  0  0  0  0
 28 29  1  0  0  0  0
 30 33  1  0  0  0  0
 31 34  2  0  0  0  0
 32 33  2  0  0  0  0
 32 34  1  0  0  0  0
 35 38  1  0  0  0  0
 37 38  1  0  0  0  0
M  END
> <PUBCHEM_COMPOUND_ID_TYPE>
0

> <PUBCHEM_TOTAL_CHARGE>
0

> <PUBCHEM_SUBSTANCE_ID>
310940952

> <PUBCHEM_SUBSTANCE_VERSION>
1

> <PUBCHEM_EXT_DATASOURCE_NAME>
4488

> <PUBCHEM_EXT_DATASOURCE_REGID>
SCHEMBL16118911

> <PUBCHEM_SUBSTANCE_COMMENT>
InChI=1S/C29H41N3O7/c1-18(30-28(36)24-9-6-14-38-24)26(34)32-23(16-20-10-12-21(37-3)13-11-20)27(35)31-22(15-19-7-4-5-8-19)25(33)29(2)17-39-29/h10-13,18-19,22-24H,4-9,14-17H2,1-3H3,(H,30,36)(H,31,35)(H,32,34)/t18-,22+,23+,24+,29-/m1/s1
InChIKey=TXWJHEADRVGPQX-TWBQWIPNSA-N

> <PUBCHEM_SUBSTANCE_SYNONYM>
SCHEMBL16118911

> <PUBCHEM_XREF_EXT_ID>
SCHEMBL16118911

> <PUBCHEM_EXT_DATASOURCE_URL>
https://www.surechembl.org/

> <PUBCHEM_EXT_SUBSTANCE_URL>
https://www.surechembl.org/chemical/SCHEMBL16118911

> <PUBCHEM_CID_ASSOCIATIONS>
117607860  1

> <PUBCHEM_COORDINATE_TYPE>
1
3

> <PUBCHEM_BONDANNOTATIONS>
11  12  5
11  15  6
25  36  6
27  26  6
14  8  5
18  9  6

$$$$
