310932324
  -OEChem-07211613022D

 51 55  0     1  0  0  0  0  0999 V2000
   16.4328   -4.2865    0.0000 Cl  0  0  0  0  0  0  0  0  0  0  0  0
   17.8618   -0.1615    0.0000 S   0  0  0  0  0  0  0  0  0  0  0  0
   17.8618   -1.8115    0.0000 F   0  0  0  0  0  0  0  0  0  0  0  0
   15.0039   -0.1615    0.0000 F   0  0  0  0  0  0  0  0  0  0  0  0
   17.4493    0.5530    0.0000 O   0  0  0  0  0  0  0  0  0  0  0  0
   18.2743   -0.8759    0.0000 O   0  0  0  0  0  0  0  0  0  0  0  0
   15.0039   -1.8115    0.0000 O   0  0  0  0  0  0  0  0  0  0  0  0
   20.7196   -0.9865    0.0000 O   0  0  0  0  0  0  0  0  0  0  0  0
   22.1486    1.4885    0.0000 O   0  0  0  0  0  0  0  0  0  0  0  0
   10.7170   -1.8115    0.0000 O   0  0  0  0  0  0  0  0  0  0  0  0
   11.4316   -0.5740    0.0000 O   0  0  0  0  0  0  0  0  0  0  0  0
   18.5762    0.2510    0.0000 N   0  0  0  0  0  0  0  0  0  0  0  0
   19.2437    1.5610    0.0000 N   0  0  0  0  0  0  0  0  0  0  0  0
   17.9088    1.5610    0.0000 N   0  0  0  0  0  0  0  0  0  0  0  0
   18.9887    2.3456    0.0000 N   0  0  0  0  0  0  0  0  0  0  0  0
   18.1637    2.3456    0.0000 N   0  0  0  0  0  0  0  0  0  0  0  0
   12.1460   -1.8115    0.0000 N   0  0  0  0  0  0  0  0  0  0  0  0
   17.1473   -0.5740    0.0000 C   0  0  0  0  0  0  0  0  0  0  0  0
   18.5762    1.0760    0.0000 C   0  0  0  0  0  0  0  0  0  0  0  0
   17.1473   -1.3990    0.0000 C   0  0  0  0  0  0  0  0  0  0  0  0
   16.4328   -0.1615    0.0000 C   0  0  0  0  0  0  0  0  0  0  0  0
   19.2907   -0.1615    0.0000 C   0  0  0  0  0  0  0  0  0  0  0  0
   15.7184   -0.5740    0.0000 C   0  0  0  0  0  0  0  0  0  0  0  0
   15.7184   -1.3990    0.0000 C   0  0  0  0  0  0  0  0  0  0  0  0
   16.4328   -1.8115    0.0000 C   0  0  0  0  0  0  0  0  0  0  0  0
   20.0052    0.2510    0.0000 C   0  0  0  0  0  0  0  0  0  0  0  0
   20.7196   -0.1615    0.0000 C   0  0  0  0  0  0  0  0  0  0  0  0
   13.5750   -1.8115    0.0000 C   0  0  3  0  0  0  0  0  0  0  0  0
   13.5750   -2.6365    0.0000 C   0  0  3  0  0  0  0  0  0  0  0  0
   20.0052    1.0760    0.0000 C   0  0  0  0  0  0  0  0  0  0  0  0
   14.2894   -1.3990    0.0000 C   0  0  0  0  0  0  0  0  0  0  0  0
   21.4341    0.2510    0.0000 C   0  0  0  0  0  0  0  0  0  0  0  0
   14.2894   -3.0490    0.0000 C   0  0  0  0  0  0  0  0  0  0  0  0
   12.8605   -1.3990    0.0000 C   0  0  0  0  0  0  0  0  0  0  0  0
   21.4341    1.0760    0.0000 C   0  0  0  0  0  0  0  0  0  0  0  0
   20.7196    1.4885    0.0000 C   0  0  0  0  0  0  0  0  0  0  0  0
   12.8605   -3.0490    0.0000 C   0  0  0  0  0  0  0  0  0  0  0  0
   12.1460   -2.6365    0.0000 C   0  0  0  0  0  0  0  0  0  0  0  0
   11.4316   -1.3990    0.0000 C   0  0  0  0  0  0  0  0  0  0  0  0
   19.4737    3.0130    0.0000 C   0  0  0  0  0  0  0  0  0  0  0  0
   15.0039   -2.6365    0.0000 C   0  0  0  0  0  0  0  0  0  0  0  0
   14.2894   -3.8740    0.0000 C   0  0  0  0  0  0  0  0  0  0  0  0
   15.7184   -3.0490    0.0000 C   0  0  0  0  0  0  0  0  0  0  0  0
   15.0039   -4.2865    0.0000 C   0  0  0  0  0  0  0  0  0  0  0  0
   15.7184   -3.8740    0.0000 C   0  0  0  0  0  0  0  0  0  0  0  0
   10.0026   -1.3990    0.0000 C   0  0  0  0  0  0  0  0  0  0  0  0
   21.4341   -1.3990    0.0000 C   0  0  0  0  0  0  0  0  0  0  0  0
   22.8630    1.0760    0.0000 C   0  0  0  0  0  0  0  0  0  0  0  0
   10.0026   -0.5740    0.0000 C   0  0  0  0  0  0  0  0  0  0  0  0
    9.2881   -0.9865    0.0000 C   0  0  0  0  0  0  0  0  0  0  0  0
    9.2881   -1.8115    0.0000 C   0  0  0  0  0  0  0  0  0  0  0  0
  1 45  1  0  0  0  0
  2  5  2  0  0  0  0
  2  6  2  0  0  0  0
  2 12  1  0  0  0  0
  2 18  1  0  0  0  0
  3 20  1  0  0  0  0
  4 23  1  0  0  0  0
  7 24  1  0  0  0  0
  7 31  1  0  0  0  0
  8 27  1  0  0  0  0
  8 47  1  0  0  0  0
  9 35  1  0  0  0  0
  9 48  1  0  0  0  0
 10 39  1  0  0  0  0
 10 46  1  0  0  0  0
 11 39  2  0  0  0  0
 12 19  1  0  0  0  0
 12 22  1  0  0  0  0
 13 15  1  0  0  0  0
 13 19  2  0  0  0  0
 14 16  2  0  0  0  0
 14 19  1  0  0  0  0
 15 16  1  0  0  0  0
 15 40  1  0  0  0  0
 17 34  1  0  0  0  0
 17 38  1  0  0  0  0
 17 39  1  0  0  0  0
 18 20  2  0  0  0  0
 18 21  1  0  0  0  0
 20 25  1  0  0  0  0
 21 23  2  0  0  0  0
 22 26  1  0  0  0  0
 23 24  1  0  0  0  0
 24 25  2  0  0  0  0
 26 27  1  0  0  0  0
 26 30  2  0  0  0  0
 27 32  2  0  0  0  0
 28 29  1  0  0  0  0
 28 31  1  6  0  0  0
 28 34  1  0  0  0  0
 29 33  1  0  0  0  0
 29 37  1  1  0  0  0
 30 36  1  0  0  0  0
 32 35  1  0  0  0  0
 33 41  2  0  0  0  0
 33 42  1  0  0  0  0
 35 36  2  0  0  0  0
 37 38  1  0  0  0  0
 41 43  1  0  0  0  0
 42 44  2  0  0  0  0
 43 45  2  0  0  0  0
 44 45  1  0  0  0  0
 46 49  1  0  0  0  0
 46 50  1  0  0  0  0
 46 51  1  0  0  0  0
M  END
> <PUBCHEM_COMPOUND_ID_TYPE>
0

> <PUBCHEM_TOTAL_CHARGE>
0

> <PUBCHEM_SUBSTANCE_ID>
310932324

> <PUBCHEM_SUBSTANCE_VERSION>
1

> <PUBCHEM_EXT_DATASOURCE_NAME>
4488

> <PUBCHEM_EXT_DATASOURCE_REGID>
SCHEMBL16109690

> <PUBCHEM_SUBSTANCE_COMMENT>
InChI=1S/C34H39ClF2N6O7S/c1-34(2,3)50-33(44)42-14-13-26(21-7-10-24(35)11-8-21)23(18-42)20-49-30-16-28(37)31(17-27(30)36)51(45,46)43(32-38-40-41(4)39-32)19-22-9-12-25(47-5)15-29(22)48-6/h7-12,15-17,23,26H,13-14,18-20H2,1-6H3/t23-,26-/m1/s1
InChIKey=OMBYNEJLSRKGIG-ZEQKJWHPSA-N

> <PUBCHEM_SUBSTANCE_SYNONYM>
SCHEMBL16109690

> <PUBCHEM_XREF_EXT_ID>
SCHEMBL16109690

> <PUBCHEM_EXT_DATASOURCE_URL>
https://www.surechembl.org/

> <PUBCHEM_EXT_SUBSTANCE_URL>
https://www.surechembl.org/chemical/SCHEMBL16109690

> <PUBCHEM_CID_ASSOCIATIONS>
117600880  1

> <PUBCHEM_COORDINATE_TYPE>
1
3

> <PUBCHEM_BONDANNOTATIONS>
28  31  6
29  37  5

$$$$
