310945289
  -OEChem-07211613022D

 30 33  0     1  0  0  0  0  0999 V2000
    1.7715   -2.1171    0.0000 S   0  0  0  0  0  0  0  0  0  0  0  0
   -3.3401    1.4370    0.0000 S   0  0  0  0  0  0  0  0  0  0  0  0
    3.4498   -2.1939    0.0000 O   0  0  0  0  0  0  0  0  0  0  0  0
   -1.1792    0.1974    0.0000 O   0  0  0  0  0  0  0  0  0  0  0  0
   -3.3292    2.2597    0.0000 O   0  0  0  0  0  0  0  0  0  0  0  0
   -4.1628    1.4370    0.0000 O   0  0  0  0  0  0  0  0  0  0  0  0
    1.9909    0.0549    0.0000 N   0  0  0  0  0  0  0  0  0  0  0  0
    3.6473   -0.8227    0.0000 N   0  0  0  0  0  0  0  0  0  0  0  0
   -3.3401    0.6143    0.0000 N   0  0  3  0  0  0  0  0  0  0  0  0
   -1.9031   -1.0311    0.0000 N   0  0  0  0  0  0  0  0  0  0  0  0
    0.9927   -1.0311    0.0000 C   0  0  0  0  0  0  0  0  0  0  0  0
    1.7825   -0.7789    0.0000 C   0  0  0  0  0  0  0  0  0  0  0  0
    2.2651   -1.4370    0.0000 C   0  0  0  0  0  0  0  0  0  0  0  0
    0.9817   -1.8538    0.0000 C   0  0  0  0  0  0  0  0  0  0  0  0
    0.2578   -0.6253    0.0000 C   0  0  0  0  0  0  0  0  0  0  0  0
   -0.4662   -1.0311    0.0000 C   0  0  0  0  0  0  0  0  0  0  0  0
    3.0989   -1.4480    0.0000 C   0  0  0  0  0  0  0  0  0  0  0  0
    0.2798   -2.2597    0.0000 C   0  0  0  0  0  0  0  0  0  0  0  0
   -0.4442   -1.8538    0.0000 C   0  0  0  0  0  0  0  0  0  0  0  0
   -1.1792   -0.6253    0.0000 C   0  0  0  0  0  0  0  0  0  0  0  0
    2.7478    0.3729    0.0000 C   0  0  0  0  0  0  0  0  0  0  0  0
    3.4937   -0.0110    0.0000 C   0  0  3  0  0  0  0  0  0  0  0  0
   -2.6162   -0.6253    0.0000 C   0  0  3  0  0  0  0  0  0  0  0  0
   -2.6052    0.1974    0.0000 C   0  0  0  0  0  0  0  0  0  0  0  0
   -4.0422    0.1974    0.0000 C   0  0  0  0  0  0  0  0  0  0  0  0
   -3.3182   -1.0311    0.0000 C   0  0  0  0  0  0  0  0  0  0  0  0
   -4.0532   -0.6143    0.0000 C   0  0  0  0  0  0  0  0  0  0  0  0
   -2.5065    1.4370    0.0000 C   0  0  0  0  0  0  0  0  0  0  0  0
    4.1628    0.4717    0.0000 C   0  0  0  0  0  0  0  0  0  0  0  0
   -2.1226    2.1829    0.0000 C   0  0  0  0  0  0  0  0  0  0  0  0
  1 13  1  0  0  0  0
  1 14  1  0  0  0  0
  2  5  2  0  0  0  0
  2  6  2  0  0  0  0
  2  9  1  0  0  0  0
  2 28  1  0  0  0  0
  3 17  2  0  0  0  0
  4 20  2  0  0  0  0
  7 12  1  0  0  0  0
  7 21  1  0  0  0  0
  8 17  1  0  0  0  0
  8 22  1  0  0  0  0
  9 24  1  0  0  0  0
  9 25  1  0  0  0  0
 10 20  1  0  0  0  0
 23 10  1  6  0  0  0
 11 12  1  0  0  0  0
 11 14  1  0  0  0  0
 11 15  2  0  0  0  0
 12 13  2  0  0  0  0
 13 17  1  0  0  0  0
 14 18  2  0  0  0  0
 15 16  1  0  0  0  0
 16 19  2  0  0  0  0
 16 20  1  0  0  0  0
 18 19  1  0  0  0  0
 21 22  1  0  0  0  0
 22 29  1  1  0  0  0
 23 24  1  0  0  0  0
 23 26  1  0  0  0  0
 25 27  1  0  0  0  0
 26 27  1  0  0  0  0
 28 30  2  0  0  0  0
M  END
> <PUBCHEM_COMPOUND_ID_TYPE>
0

> <PUBCHEM_TOTAL_CHARGE>
0

> <PUBCHEM_SUBSTANCE_ID>
310945289

> <PUBCHEM_SUBSTANCE_VERSION>
1

> <PUBCHEM_EXT_DATASOURCE_NAME>
4488

> <PUBCHEM_EXT_DATASOURCE_REGID>
SCHEMBL16123387

> <PUBCHEM_SUBSTANCE_COMMENT>
InChI=1S/C20H24N4O4S2/c1-3-30(27,28)24-8-4-5-14(11-24)23-19(25)13-6-7-16-15(9-13)17-18(29-16)20(26)22-12(2)10-21-17/h3,6-7,9,12,14,21H,1,4-5,8,10-11H2,2H3,(H,22,26)(H,23,25)/t12-,14-/m1/s1
InChIKey=SEBMSPKLVBVDQB-TZMCWYRMSA-N

> <PUBCHEM_SUBSTANCE_SYNONYM>
SCHEMBL16123387

> <PUBCHEM_XREF_EXT_ID>
SCHEMBL16123387

> <PUBCHEM_EXT_DATASOURCE_URL>
https://www.surechembl.org/

> <PUBCHEM_EXT_SUBSTANCE_URL>
https://www.surechembl.org/chemical/SCHEMBL16123387

> <PUBCHEM_CID_ASSOCIATIONS>
117611349  1

> <PUBCHEM_COORDINATE_TYPE>
1
3

> <PUBCHEM_BONDANNOTATIONS>
23  10  6
22  29  5

$$$$
