310949720
  -OEChem-07211613022D

 24 25  0     0  0  0  0  0  0999 V2000
   -1.0345   -1.8188    0.0000 O   0  0  0  0  0  0  0  0  0  0  0  0
   -2.6978    1.0886    0.0000 O   0  0  0  0  0  0  0  0  0  0  0  0
   -1.4401    0.3584    0.0000 O   0  0  0  0  0  0  0  0  0  0  0  0
    3.9013    1.1156    0.0000 O   0  0  0  0  0  0  0  0  0  0  0  0
   -1.0345   -0.3584    0.0000 N   0  0  0  0  0  0  0  0  0  0  0  0
   -0.6288    1.8323    0.0000 N   0  0  0  0  0  0  0  0  0  0  0  0
   -2.2650   -1.1021    0.0000 C   0  0  0  0  0  0  0  0  0  0  0  0
   -2.6843   -0.3854    0.0000 C   0  0  0  0  0  0  0  0  0  0  0  0
   -1.4537   -1.0886    0.0000 C   0  0  0  0  0  0  0  0  0  0  0  0
   -0.2096   -0.3584    0.0000 C   0  0  0  0  0  0  0  0  0  0  0  0
    0.2096    0.3719    0.0000 C   0  0  0  0  0  0  0  0  0  0  0  0
   -2.6843   -1.8324    0.0000 C   0  0  0  0  0  0  0  0  0  0  0  0
   -2.2650    0.3448    0.0000 C   0  0  0  0  0  0  0  0  0  0  0  0
    0.2096   -1.0886    0.0000 C   0  0  0  0  0  0  0  0  0  0  0  0
    1.4401   -0.3584    0.0000 C   0  0  0  0  0  0  0  0  0  0  0  0
   -3.4956   -0.3854    0.0000 C   0  0  0  0  0  0  0  0  0  0  0  0
    1.0345    0.3584    0.0000 C   0  0  0  0  0  0  0  0  0  0  0  0
    1.0345   -1.0886    0.0000 C   0  0  0  0  0  0  0  0  0  0  0  0
   -3.4956   -1.8324    0.0000 C   0  0  0  0  0  0  0  0  0  0  0  0
   -3.9013   -1.1156    0.0000 C   0  0  0  0  0  0  0  0  0  0  0  0
   -0.2096    1.0751    0.0000 C   0  0  0  0  0  0  0  0  0  0  0  0
    2.2650   -0.3584    0.0000 C   0  0  0  0  0  0  0  0  0  0  0  0
    2.6978    0.3854    0.0000 C   0  0  0  0  0  0  0  0  0  0  0  0
    3.5092    0.3854    0.0000 C   0  0  0  0  0  0  0  0  0  0  0  0
  1  9  2  0  0  0  0
  2 13  2  0  0  0  0
  3 13  1  0  0  0  0
  4 24  1  0  0  0  0
  5  9  1  0  0  0  0
  5 10  1  0  0  0  0
  6 21  3  0  0  0  0
  7  8  1  0  0  0  0
  7  9  1  0  0  0  0
  7 12  2  0  0  0  0
  8 13  1  0  0  0  0
  8 16  2  0  0  0  0
 10 11  1  0  0  0  0
 10 14  2  0  0  0  0
 11 17  2  0  0  0  0
 11 21  1  0  0  0  0
 12 19  1  0  0  0  0
 14 18  1  0  0  0  0
 15 17  1  0  0  0  0
 15 18  2  0  0  0  0
 15 22  1  0  0  0  0
 16 20  1  0  0  0  0
 19 20  2  0  0  0  0
 22 23  1  0  0  0  0
 23 24  1  0  0  0  0
M  END
> <PUBCHEM_COMPOUND_ID_TYPE>
0

> <PUBCHEM_TOTAL_CHARGE>
0

> <PUBCHEM_SUBSTANCE_ID>
310949720

> <PUBCHEM_SUBSTANCE_VERSION>
1

> <PUBCHEM_EXT_DATASOURCE_NAME>
4488

> <PUBCHEM_EXT_DATASOURCE_REGID>
SCHEMBL16127918

> <PUBCHEM_SUBSTANCE_COMMENT>
InChI=1S/C18H16N2O4/c19-11-13-10-12(4-3-9-21)7-8-16(13)20-17(22)14-5-1-2-6-15(14)18(23)24/h1-2,5-8,10,21H,3-4,9H2,(H,20,22)(H,23,24)
InChIKey=NZLQVAAWAQBHNC-UHFFFAOYSA-N

> <PUBCHEM_SUBSTANCE_SYNONYM>
SCHEMBL16127918

> <PUBCHEM_XREF_EXT_ID>
SCHEMBL16127918

> <PUBCHEM_EXT_DATASOURCE_URL>
https://www.surechembl.org/

> <PUBCHEM_EXT_SUBSTANCE_URL>
https://www.surechembl.org/chemical/SCHEMBL16127918

> <PUBCHEM_CID_ASSOCIATIONS>
85473207  1

> <PUBCHEM_COORDINATE_TYPE>
1
3

$$$$
