310941713
  -OEChem-07211613022D

 25 27  0     0  0  0  0  0  0999 V2000
   -2.5101    1.2350    0.0000 F   0  0  0  0  0  0  0  0  0  0  0  0
    1.0700    2.4751    0.0000 O   0  0  0  0  0  0  0  0  0  0  0  0
    1.7901   -2.0650    0.0000 O   0  0  0  0  0  0  0  0  0  0  0  0
   -0.3600   -0.0050    0.0000 N   0  0  0  0  0  0  0  0  0  0  0  0
    1.7901    1.2350    0.0000 N   0  0  0  0  0  0  0  0  0  0  0  0
    3.2302   -1.2450    0.0000 N   0  0  0  0  0  0  0  0  0  0  0  0
   -1.0900    0.4351    0.0000 C   0  0  0  0  0  0  0  0  0  0  0  0
   -1.8001    0.0150    0.0000 C   0  0  0  0  0  0  0  0  0  0  0  0
    0.3600    1.2551    0.0000 C   0  0  0  0  0  0  0  0  0  0  0  0
    1.0601    1.6551    0.0000 C   0  0  0  0  0  0  0  0  0  0  0  0
    1.7901    0.4351    0.0000 C   0  0  0  0  0  0  0  0  0  0  0  0
   -2.5301    0.4351    0.0000 C   0  0  0  0  0  0  0  0  0  0  0  0
   -1.0700    1.2750    0.0000 C   0  0  0  0  0  0  0  0  0  0  0  0
    0.3500    0.4351    0.0000 C   0  0  0  0  0  0  0  0  0  0  0  0
   -0.3801    1.6651    0.0000 C   0  0  0  0  0  0  0  0  0  0  0  0
    2.5101   -0.7950    0.0000 C   0  0  0  0  0  0  0  0  0  0  0  0
    1.8001   -1.2251    0.0000 C   0  0  0  0  0  0  0  0  0  0  0  0
    2.5101    0.0050    0.0000 C   0  0  0  0  0  0  0  0  0  0  0  0
   -1.8001   -0.8050    0.0000 C   0  0  0  0  0  0  0  0  0  0  0  0
    1.0800    0.0150    0.0000 C   0  0  0  0  0  0  0  0  0  0  0  0
    1.0800   -0.8050    0.0000 C   0  0  0  0  0  0  0  0  0  0  0  0
   -3.2302    0.0150    0.0000 C   0  0  0  0  0  0  0  0  0  0  0  0
   -2.5001   -1.2050    0.0000 C   0  0  0  0  0  0  0  0  0  0  0  0
   -3.2302   -0.8050    0.0000 C   0  0  0  0  0  0  0  0  0  0  0  0
    1.0700   -2.4751    0.0000 C   0  0  0  0  0  0  0  0  0  0  0  0
  1 12  1  0  0  0  0
  2 10  2  0  0  0  0
  3 17  1  0  0  0  0
  3 25  1  0  0  0  0
  4  7  1  0  0  0  0
  4 14  2  0  0  0  0
  5 10  1  0  0  0  0
  5 11  1  0  0  0  0
  6 16  1  0  0  0  0
  7  8  1  0  0  0  0
  7 13  2  0  0  0  0
  8 12  1  0  0  0  0
  8 19  2  0  0  0  0
  9 10  1  0  0  0  0
  9 14  1  0  0  0  0
  9 15  2  0  0  0  0
 11 18  2  0  0  0  0
 11 20  1  0  0  0  0
 12 22  2  0  0  0  0
 13 15  1  0  0  0  0
 16 17  2  0  0  0  0
 16 18  1  0  0  0  0
 17 21  1  0  0  0  0
 19 23  1  0  0  0  0
 20 21  2  0  0  0  0
 22 24  1  0  0  0  0
 23 24  2  0  0  0  0
M  END
> <PUBCHEM_COMPOUND_ID_TYPE>
0

> <PUBCHEM_TOTAL_CHARGE>
0

> <PUBCHEM_SUBSTANCE_ID>
310941713

> <PUBCHEM_SUBSTANCE_VERSION>
1

> <PUBCHEM_EXT_DATASOURCE_NAME>
4488

> <PUBCHEM_EXT_DATASOURCE_REGID>
SCHEMBL16119744

> <PUBCHEM_SUBSTANCE_COMMENT>
InChI=1S/C19H16FN3O2/c1-25-18-9-7-13(10-16(18)21)23-19(24)12-6-8-17(22-11-12)14-4-2-3-5-15(14)20/h2-11H,21H2,1H3,(H,23,24)
InChIKey=PVGJHXLQHVTOQM-UHFFFAOYSA-N

> <PUBCHEM_SUBSTANCE_SYNONYM>
SCHEMBL16119744

> <PUBCHEM_XREF_EXT_ID>
SCHEMBL16119744

> <PUBCHEM_EXT_DATASOURCE_URL>
https://www.surechembl.org/

> <PUBCHEM_EXT_SUBSTANCE_URL>
https://www.surechembl.org/chemical/SCHEMBL16119744

> <PUBCHEM_CID_ASSOCIATIONS>
117608485  1

> <PUBCHEM_COORDINATE_TYPE>
1
3

$$$$
