310942544
  -OEChem-07211613022D

 31 34  0     0  0  0  0  0  0999 V2000
    2.4442    0.8679    0.0000 S   0  0  0  0  0  0  0  0  0  0  0  0
    3.8878    1.6915    0.0000 F   0  0  0  0  0  0  0  0  0  0  0  0
    5.3314   -0.7793    0.0000 F   0  0  0  0  0  0  0  0  0  0  0  0
    2.0281    1.5852    0.0000 O   0  0  0  0  0  0  0  0  0  0  0  0
    2.8606    1.5852    0.0000 O   0  0  0  0  0  0  0  0  0  0  0  0
   -0.4339   -0.7793    0.0000 N   0  0  0  0  0  0  0  0  0  0  0  0
   -1.8775   -0.7793    0.0000 N   0  0  0  0  0  0  0  0  0  0  0  0
   -1.1601    0.4605    0.0000 N   0  0  0  0  0  0  0  0  0  0  0  0
   -4.8354    0.7085    0.0000 N   0  0  0  0  0  0  0  0  0  0  0  0
    1.0095   -0.7793    0.0000 N   0  0  0  0  0  0  0  0  0  0  0  0
   -5.3314    0.0443    0.0000 N   0  0  0  0  0  0  0  0  0  0  0  0
    3.1793    0.4605    0.0000 C   0  0  0  0  0  0  0  0  0  0  0  0
    3.8967    0.8767    0.0000 C   0  0  0  0  0  0  0  0  0  0  0  0
    0.2923    0.4605    0.0000 C   0  0  0  0  0  0  0  0  0  0  0  0
    1.7358    0.4605    0.0000 C   0  0  0  0  0  0  0  0  0  0  0  0
    0.2834   -0.3632    0.0000 C   0  0  0  0  0  0  0  0  0  0  0  0
    3.1793   -0.3632    0.0000 C   0  0  0  0  0  0  0  0  0  0  0  0
   -1.1513   -0.3543    0.0000 C   0  0  0  0  0  0  0  0  0  0  0  0
   -4.0472   -0.3543    0.0000 C   0  0  0  0  0  0  0  0  0  0  0  0
   -2.6037   -0.3543    0.0000 C   0  0  0  0  0  0  0  0  0  0  0  0
    1.0095    0.8679    0.0000 C   0  0  0  0  0  0  0  0  0  0  0  0
   -4.0383    0.4605    0.0000 C   0  0  0  0  0  0  0  0  0  0  0  0
    4.6140    0.4605    0.0000 C   0  0  0  0  0  0  0  0  0  0  0  0
    4.6140   -0.3543    0.0000 C   0  0  0  0  0  0  0  0  0  0  0  0
   -3.3122   -0.7704    0.0000 C   0  0  0  0  0  0  0  0  0  0  0  0
   -0.4339    0.8679    0.0000 C   0  0  0  0  0  0  0  0  0  0  0  0
    3.9055   -0.7704    0.0000 C   0  0  0  0  0  0  0  0  0  0  0  0
   -2.6037    0.4605    0.0000 C   0  0  0  0  0  0  0  0  0  0  0  0
   -3.3211    0.8679    0.0000 C   0  0  0  0  0  0  0  0  0  0  0  0
   -4.8443   -0.6111    0.0000 C   0  0  0  0  0  0  0  0  0  0  0  0
    0.9918   -1.6915    0.0000 C   0  0  0  0  0  0  0  0  0  0  0  0
  1  4  2  0  0  0  0
  1  5  2  0  0  0  0
  1 12  1  0  0  0  0
  1 15  1  0  0  0  0
  2 13  1  0  0  0  0
  3 24  1  0  0  0  0
  6 16  2  0  0  0  0
  6 18  1  0  0  0  0
  7 18  1  0  0  0  0
  7 20  1  0  0  0  0
  8 18  2  0  0  0  0
  8 26  1  0  0  0  0
  9 11  1  0  0  0  0
  9 22  1  0  0  0  0
 10 16  1  0  0  0  0
 10 31  1  0  0  0  0
 11 30  2  0  0  0  0
 12 13  1  0  0  0  0
 12 17  2  0  0  0  0
 13 23  2  0  0  0  0
 14 16  1  0  0  0  0
 14 21  1  0  0  0  0
 14 26  2  0  0  0  0
 15 21  2  0  0  0  0
 17 27  1  0  0  0  0
 19 22  2  0  0  0  0
 19 25  1  0  0  0  0
 19 30  1  0  0  0  0
 20 25  2  0  0  0  0
 20 28  1  0  0  0  0
 22 29  1  0  0  0  0
 23 24  1  0  0  0  0
 24 27  2  0  0  0  0
 28 29  2  0  0  0  0
M  END
> <PUBCHEM_COMPOUND_ID_TYPE>
0

> <PUBCHEM_TOTAL_CHARGE>
0

> <PUBCHEM_SUBSTANCE_ID>
310942544

> <PUBCHEM_SUBSTANCE_VERSION>
1

> <PUBCHEM_EXT_DATASOURCE_NAME>
4488

> <PUBCHEM_EXT_DATASOURCE_REGID>
SCHEMBL16120584

> <PUBCHEM_SUBSTANCE_COMMENT>
InChI=1S/C20H16F2N6O2S/c1-23-19-12(6-7-31(29,30)18-5-2-14(21)9-16(18)22)10-24-20(27-19)26-15-3-4-17-13(8-15)11-25-28-17/h2-11H,1H3,(H,25,28)(H2,23,24,26,27)/b7-6+
InChIKey=HRSQCRSVRAIKMW-VOTSOKGWSA-N

> <PUBCHEM_SUBSTANCE_SYNONYM>
SCHEMBL16120584

> <PUBCHEM_XREF_EXT_ID>
SCHEMBL16120584

> <PUBCHEM_EXT_DATASOURCE_URL>
https://www.surechembl.org/

> <PUBCHEM_EXT_SUBSTANCE_URL>
https://www.surechembl.org/chemical/SCHEMBL16120584

> <PUBCHEM_CID_ASSOCIATIONS>
117609102  1

> <PUBCHEM_COORDINATE_TYPE>
1
3

$$$$
