310942169
  -OEChem-07211613022D

 28 29  0     1  0  0  0  0  0999 V2000
    1.8026    0.8171    0.0000 Cl  0  0  0  0  0  0  0  0  0  0  0  0
    0.3680   -1.6654    0.0000 F   0  0  0  0  0  0  0  0  0  0  0  0
    1.7902   -0.8420    0.0000 O   0  0  0  0  0  0  0  0  0  0  0  0
   -0.3680    2.0646    0.0000 O   0  0  0  0  0  0  0  0  0  0  0  0
   -3.9732    1.6529    0.0000 O   0  0  0  0  0  0  0  0  0  0  0  0
   -1.7902   -0.4179    0.0000 N   0  0  0  0  0  0  0  0  0  0  0  0
   -1.7902    2.0770    0.0000 N   0  0  0  0  0  0  0  0  0  0  0  0
   -0.3680   -0.4179    0.0000 C   0  0  0  0  0  0  0  0  0  0  0  0
    0.3680   -0.8296    0.0000 C   0  0  0  0  0  0  0  0  0  0  0  0
    1.0790   -0.4179    0.0000 C   0  0  0  0  0  0  0  0  0  0  0  0
    1.0915    0.4179    0.0000 C   0  0  0  0  0  0  0  0  0  0  0  0
   -1.0666   -0.8296    0.0000 C   0  0  3  0  0  0  0  0  0  0  0  0
   -0.3431    0.4054    0.0000 C   0  0  0  0  0  0  0  0  0  0  0  0
    0.3805    0.8171    0.0000 C   0  0  0  0  0  0  0  0  0  0  0  0
    2.5137   -0.4179    0.0000 C   0  0  0  0  0  0  0  0  0  0  0  0
   -1.0790   -1.6779    0.0000 C   0  0  0  0  0  0  0  0  0  0  0  0
   -1.7777    0.4179    0.0000 C   0  0  3  0  0  0  0  0  0  0  0  0
    2.5386    0.4054    0.0000 C   0  0  0  0  0  0  0  0  0  0  0  0
    3.2621   -0.8296    0.0000 C   0  0  0  0  0  0  0  0  0  0  0  0
   -1.0790    0.8171    0.0000 C   0  0  0  0  0  0  0  0  0  0  0  0
    3.2621    0.8171    0.0000 C   0  0  0  0  0  0  0  0  0  0  0  0
    3.9732   -0.4179    0.0000 C   0  0  0  0  0  0  0  0  0  0  0  0
   -1.7777   -2.0770    0.0000 C   0  0  0  0  0  0  0  0  0  0  0  0
   -1.0790    1.6529    0.0000 C   0  0  0  0  0  0  0  0  0  0  0  0
    3.9732    0.4054    0.0000 C   0  0  0  0  0  0  0  0  0  0  0  0
   -2.5012    0.8171    0.0000 C   0  0  0  0  0  0  0  0  0  0  0  0
   -2.5012    1.6654    0.0000 C   0  0  0  0  0  0  0  0  0  0  0  0
   -3.2247    2.0770    0.0000 C   0  0  0  0  0  0  0  0  0  0  0  0
  1 11  1  0  0  0  0
  2  9  1  0  0  0  0
  3 10  1  0  0  0  0
  3 15  1  0  0  0  0
  4 24  2  0  0  0  0
  5 28  1  0  0  0  0
 12  6  1  1  0  0  0
  6 17  1  0  0  0  0
  7 24  1  0  0  0  0
  7 27  1  0  0  0  0
  8  9  2  0  0  0  0
  8 12  1  0  0  0  0
  8 13  1  0  0  0  0
  9 10  1  0  0  0  0
 10 11  2  0  0  0  0
 11 14  1  0  0  0  0
 12 16  1  0  0  0  0
 13 14  2  0  0  0  0
 15 18  2  0  0  0  0
 15 19  1  0  0  0  0
 16 23  1  0  0  0  0
 17 20  1  0  0  0  0
 17 26  1  6  0  0  0
 18 21  1  0  0  0  0
 19 22  2  0  0  0  0
 20 24  1  0  0  0  0
 21 25  2  0  0  0  0
 22 25  1  0  0  0  0
 27 28  1  0  0  0  0
M  END
> <PUBCHEM_COMPOUND_ID_TYPE>
0

> <PUBCHEM_TOTAL_CHARGE>
0

> <PUBCHEM_SUBSTANCE_ID>
310942169

> <PUBCHEM_SUBSTANCE_VERSION>
1

> <PUBCHEM_EXT_DATASOURCE_NAME>
4488

> <PUBCHEM_EXT_DATASOURCE_REGID>
SCHEMBL16120204

> <PUBCHEM_SUBSTANCE_COMMENT>
InChI=1S/C21H26ClFN2O3/c1-3-18(25-14(2)13-19(27)24-11-12-26)16-9-10-17(22)21(20(16)23)28-15-7-5-4-6-8-15/h4-10,14,18,25-26H,3,11-13H2,1-2H3,(H,24,27)/t14-,18-/m1/s1
InChIKey=SZUGQTXWPIOOGW-RDTXWAMCSA-N

> <PUBCHEM_SUBSTANCE_SYNONYM>
SCHEMBL16120204

> <PUBCHEM_XREF_EXT_ID>
SCHEMBL16120204

> <PUBCHEM_EXT_DATASOURCE_URL>
https://www.surechembl.org/

> <PUBCHEM_EXT_SUBSTANCE_URL>
https://www.surechembl.org/chemical/SCHEMBL16120204

> <PUBCHEM_CID_ASSOCIATIONS>
117608822  1

> <PUBCHEM_COORDINATE_TYPE>
1
3

> <PUBCHEM_BONDANNOTATIONS>
17  26  6
12  6  5

$$$$
