310937073
  -OEChem-07211613022D

 29 32  0     0  0  0  0  0  0999 V2000
    2.2637   -0.8772    0.0000 F   0  0  0  0  0  0  0  0  0  0  0  0
    2.9994   -2.0939    0.0000 F   0  0  0  0  0  0  0  0  0  0  0  0
    2.9994   -0.4527    0.0000 F   0  0  0  0  0  0  0  0  0  0  0  0
    0.0000   -4.9519    0.0000 F   0  0  0  0  0  0  0  0  0  0  0  0
    1.2451   -5.6593    0.0000 F   0  0  0  0  0  0  0  0  0  0  0  0
    0.4244   -4.2445    0.0000 F   0  0  0  0  0  0  0  0  0  0  0  0
    5.0934    0.0000    0.0000 O   0  0  0  0  0  0  0  0  0  0  0  0
    4.4143   -1.2451    0.0000 N   0  0  0  0  0  0  0  0  0  0  0  0
    5.1217   -3.3107    0.0000 N   0  0  0  0  0  0  0  0  0  0  0  0
    6.6497   -2.3486    0.0000 N   0  0  0  0  0  0  0  0  0  0  0  0
    7.1025   -1.6695    0.0000 N   0  0  0  0  0  0  0  0  0  0  0  0
    2.9712   -4.5274    0.0000 N   0  0  0  0  0  0  0  0  0  0  0  0
    4.4143   -2.0939    0.0000 C   0  0  0  0  0  0  0  0  0  0  0  0
    5.1217   -2.5184    0.0000 C   0  0  0  0  0  0  0  0  0  0  0  0
    5.8574   -2.0939    0.0000 C   0  0  0  0  0  0  0  0  0  0  0  0
    5.8574   -1.2451    0.0000 C   0  0  0  0  0  0  0  0  0  0  0  0
    5.1217   -0.8206    0.0000 C   0  0  0  0  0  0  0  0  0  0  0  0
    3.6786   -2.5184    0.0000 C   0  0  0  0  0  0  0  0  0  0  0  0
    3.6786   -3.3107    0.0000 C   0  0  0  0  0  0  0  0  0  0  0  0
    3.7069   -0.8489    0.0000 C   0  0  0  0  0  0  0  0  0  0  0  0
    6.6497   -0.9904    0.0000 C   0  0  0  0  0  0  0  0  0  0  0  0
    4.4143   -3.7352    0.0000 C   0  0  0  0  0  0  0  0  0  0  0  0
    2.9712   -3.7069    0.0000 C   0  0  0  0  0  0  0  0  0  0  0  0
    2.9994   -1.2734    0.0000 C   0  0  0  0  0  0  0  0  0  0  0  0
    2.2637   -3.2824    0.0000 C   0  0  0  0  0  0  0  0  0  0  0  0
    1.5563   -4.5274    0.0000 C   0  0  0  0  0  0  0  0  0  0  0  0
    0.8489   -4.9519    0.0000 C   0  0  0  0  0  0  0  0  0  0  0  0
    2.2637   -4.9802    0.0000 C   0  0  0  0  0  0  0  0  0  0  0  0
    1.5563   -3.7352    0.0000 C   0  0  0  0  0  0  0  0  0  0  0  0
  1 24  1  0  0  0  0
  2 24  1  0  0  0  0
  3 24  1  0  0  0  0
  4 27  1  0  0  0  0
  5 27  1  0  0  0  0
  6 27  1  0  0  0  0
  7 17  2  0  0  0  0
  8 13  1  0  0  0  0
  8 17  1  0  0  0  0
  8 20  1  0  0  0  0
  9 14  2  0  0  0  0
  9 22  1  0  0  0  0
 10 11  1  0  0  0  0
 10 15  1  0  0  0  0
 11 21  2  0  0  0  0
 12 23  1  0  0  0  0
 12 28  2  0  0  0  0
 13 14  1  0  0  0  0
 13 18  2  0  0  0  0
 14 15  1  0  0  0  0
 15 16  2  0  0  0  0
 16 17  1  0  0  0  0
 16 21  1  0  0  0  0
 18 19  1  0  0  0  0
 19 22  2  0  0  0  0
 19 23  1  0  0  0  0
 20 24  1  0  0  0  0
 23 25  2  0  0  0  0
 25 29  1  0  0  0  0
 26 27  1  0  0  0  0
 26 28  1  0  0  0  0
 26 29  2  0  0  0  0
M  END
> <PUBCHEM_COMPOUND_ID_TYPE>
0

> <PUBCHEM_TOTAL_CHARGE>
0

> <PUBCHEM_SUBSTANCE_ID>
310937073

> <PUBCHEM_SUBSTANCE_VERSION>
1

> <PUBCHEM_EXT_DATASOURCE_NAME>
4488

> <PUBCHEM_EXT_DATASOURCE_REGID>
SCHEMBL16114786

> <PUBCHEM_SUBSTANCE_COMMENT>
InChI=1S/C17H9F6N5O/c18-16(19,20)7-28-12-3-8(11-2-1-9(5-24-11)17(21,22)23)4-25-14(12)13-10(15(28)29)6-26-27-13/h1-6H,7H2,(H,26,27)
InChIKey=RFWKJTOBZPOMLT-UHFFFAOYSA-N

> <PUBCHEM_SUBSTANCE_SYNONYM>
SCHEMBL16114786

> <PUBCHEM_XREF_EXT_ID>
SCHEMBL16114786

> <PUBCHEM_EXT_DATASOURCE_URL>
https://www.surechembl.org/

> <PUBCHEM_EXT_SUBSTANCE_URL>
https://www.surechembl.org/chemical/SCHEMBL16114786

> <PUBCHEM_CID_ASSOCIATIONS>
86298897  1

> <PUBCHEM_COORDINATE_TYPE>
1
3

$$$$
