310941823
  -OEChem-07211613022D

 36 42  0     1  0  0  0  0  0999 V2000
    4.5698    1.6340    0.0000 Br  0  0  0  0  0  0  0  0  0  0  0  0
    1.3158   -0.7286    0.0000 O   0  0  0  0  0  0  0  0  0  0  0  0
   -1.6553    0.0212    0.0000 N   0  0  0  0  0  0  0  0  0  0  0  0
    3.5370    0.5446    0.0000 N   0  0  0  0  0  0  0  0  0  0  0  0
    4.3292   -0.5729    0.0000 N   0  0  0  0  0  0  0  0  0  0  0  0
    4.8386    0.1061    0.0000 N   0  0  0  0  0  0  0  0  0  0  0  0
   -1.2167   -0.7003    0.0000 C   0  0  3  0  0  0  0  0  0  0  0  0
   -1.2167    0.7286    0.0000 C   0  0  3  0  0  0  0  0  0  0  0  0
   -2.5325    0.0354    0.0000 C   0  0  0  0  0  0  0  0  0  0  0  0
    2.0656    0.5446    0.0000 C   0  0  0  0  0  0  0  0  0  0  0  0
    2.0373   -0.3042    0.0000 C   0  0  0  0  0  0  0  0  0  0  0  0
    3.5087   -0.3042    0.0000 C   0  0  0  0  0  0  0  0  0  0  0  0
    1.2875    0.9974    0.0000 C   0  0  0  0  0  0  0  0  0  0  0  0
    0.0283    0.0212    0.0000 C   0  0  0  0  0  0  0  0  0  0  0  0
    2.7730    0.9691    0.0000 C   0  0  0  0  0  0  0  0  0  0  0  0
   -0.3820    0.7427    0.0000 C   0  0  0  0  0  0  0  0  0  0  0  0
   -0.3962   -0.7145    0.0000 C   0  0  0  0  0  0  0  0  0  0  0  0
    2.8012   -0.7286    0.0000 C   0  0  0  0  0  0  0  0  0  0  0  0
   -3.4379    0.6154    0.0000 C   0  0  0  0  0  0  0  0  0  0  0  0
   -3.4379   -0.5871    0.0000 C   0  0  0  0  0  0  0  0  0  0  0  0
   -0.8630   -0.3325    0.0000 C   0  0  0  0  0  0  0  0  0  0  0  0
   -0.8347    0.2759    0.0000 C   0  0  0  0  0  0  0  0  0  0  0  0
    4.3292    0.7852    0.0000 C   0  0  0  0  0  0  0  0  0  0  0  0
    0.4953    0.9974    0.0000 C   0  0  0  0  0  0  0  0  0  0  0  0
    0.9055    1.6906    0.0000 C   0  0  0  0  0  0  0  0  0  0  0  0
    0.8772    0.0212    0.0000 C   0  0  0  0  0  0  0  0  0  0  0  0
   -4.1453   -0.2618    0.0000 C   0  0  0  0  0  0  0  0  0  0  0  0
   -3.3955    1.4219    0.0000 C   0  0  0  0  0  0  0  0  0  0  0  0
   -3.3672   -1.4077    0.0000 C   0  0  0  0  0  0  0  0  0  0  0  0
   -4.1312    0.2476    0.0000 C   0  0  0  0  0  0  0  0  0  0  0  0
   -4.8386   -0.7145    0.0000 C   0  0  0  0  0  0  0  0  0  0  0  0
   -4.0745    1.8746    0.0000 C   0  0  0  0  0  0  0  0  0  0  0  0
   -4.0322   -1.8746    0.0000 C   0  0  0  0  0  0  0  0  0  0  0  0
   -4.8386    0.6720    0.0000 C   0  0  0  0  0  0  0  0  0  0  0  0
   -4.7678   -1.5351    0.0000 C   0  0  0  0  0  0  0  0  0  0  0  0
   -4.8103    1.4927    0.0000 C   0  0  0  0  0  0  0  0  0  0  0  0
  1 23  1  0  0  0  0
  2 11  1  0  0  0  0
  2 26  1  0  0  0  0
  7  3  1  6  0  0  0
  8  3  1  6  0  0  0
  3  9  1  0  0  0  0
  4 12  1  0  0  0  0
  4 15  1  0  0  0  0
  4 23  1  0  0  0  0
  5  6  1  0  0  0  0
  5 12  2  0  0  0  0
  6 23  2  0  0  0  0
  7 17  1  0  0  0  0
  7 21  1  0  0  0  0
  8 16  1  0  0  0  0
  8 22  1  0  0  0  0
  9 19  1  0  0  0  0
  9 20  1  0  0  0  0
 10 11  1  0  0  0  0
 10 13  1  0  0  0  0
 10 15  2  0  0  0  0
 11 18  2  0  0  0  0
 12 18  1  0  0  0  0
 13 24  1  0  0  0  0
 13 25  1  0  0  0  0
 14 16  1  0  0  0  0
 14 17  1  0  0  0  0
 14 26  1  6  0  0  0
 19 28  2  0  0  0  0
 19 30  1  0  0  0  0
 20 27  2  0  0  0  0
 20 29  1  0  0  0  0
 21 22  1  0  0  0  0
 24 25  1  0  0  0  0
 27 31  1  0  0  0  0
 28 32  1  0  0  0  0
 29 33  2  0  0  0  0
 30 34  2  0  0  0  0
 31 35  2  0  0  0  0
 32 36  2  0  0  0  0
 33 35  1  0  0  0  0
 34 36  1  0  0  0  0
M  END
> <PUBCHEM_COMPOUND_ID_TYPE>
0

> <PUBCHEM_TOTAL_CHARGE>
0

> <PUBCHEM_SUBSTANCE_ID>
310941823

> <PUBCHEM_SUBSTANCE_VERSION>
1

> <PUBCHEM_EXT_DATASOURCE_NAME>
4488

> <PUBCHEM_EXT_DATASOURCE_REGID>
SCHEMBL16119855

> <PUBCHEM_SUBSTANCE_COMMENT>
InChI=1S/C30H31BrN4O/c31-30-33-32-28-17-27(26(18-34(28)30)21-11-12-21)36-19-20-15-24-13-14-25(16-20)35(24)29(22-7-3-1-4-8-22)23-9-5-2-6-10-23/h1-10,17-18,20-21,24-25,29H,11-16,19H2/t20-,24-,25+
InChIKey=LJPSLKKKLKZYEE-IXLXNLLXSA-N

> <PUBCHEM_SUBSTANCE_SYNONYM>
SCHEMBL16119855

> <PUBCHEM_XREF_EXT_ID>
SCHEMBL16119855

> <PUBCHEM_EXT_DATASOURCE_URL>
https://www.surechembl.org/

> <PUBCHEM_EXT_SUBSTANCE_URL>
https://www.surechembl.org/chemical/SCHEMBL16119855

> <PUBCHEM_CID_ASSOCIATIONS>
117608567  1

> <PUBCHEM_COORDINATE_TYPE>
1
3

> <PUBCHEM_BONDANNOTATIONS>
14  26  6
7  3  6
8  3  6

$$$$
