310942682
  -OEChem-07211613022D

 44 47  0     1  0  0  0  0  0999 V2000
   -3.0425    0.0315    0.0000 F   0  0  0  0  0  0  0  0  0  0  0  0
    3.4199   -1.8711    0.0000 F   0  0  0  0  0  0  0  0  0  0  0  0
   -3.0425   -3.2862    0.0000 F   0  0  0  0  0  0  0  0  0  0  0  0
   -0.5268   -1.7139    0.0000 O   0  0  0  0  0  0  0  0  0  0  0  0
   -0.7469   -2.9403    0.0000 O   0  0  0  0  0  0  0  0  0  0  0  0
    2.1777    1.2579    0.0000 O   0  0  0  0  0  0  0  0  0  0  0  0
   -2.9953    2.1384    0.0000 O   0  0  0  0  0  0  0  0  0  0  0  0
   -0.7155    0.2044    0.0000 N   0  0  0  0  0  0  0  0  0  0  0  0
    0.8569   -1.3522    0.0000 N   0  0  0  0  0  0  0  0  0  0  0  0
   -0.8569   -1.1321    0.0000 N   0  0  0  0  0  0  0  0  0  0  0  0
    2.0991   -3.5536    0.0000 N   0  0  0  0  0  0  0  0  0  0  0  0
    3.1840    0.2359    0.0000 N   0  0  0  0  0  0  0  0  0  0  0  0
    0.5110   -0.5975    0.0000 C   0  0  3  0  0  0  0  0  0  0  0  0
   -0.3066   -0.4874    0.0000 C   0  0  0  0  0  0  0  0  0  0  0  0
    0.9984    0.0943    0.0000 C   0  0  0  0  0  0  0  0  0  0  0  0
   -1.6274   -0.7704    0.0000 C   0  0  0  0  0  0  0  0  0  0  0  0
   -1.5173    0.0472    0.0000 C   0  0  0  0  0  0  0  0  0  0  0  0
   -2.3349   -1.1950    0.0000 C   0  0  0  0  0  0  0  0  0  0  0  0
    0.2594   -1.9340    0.0000 C   0  0  0  0  0  0  0  0  0  0  0  0
    1.6746   -1.4465    0.0000 C   0  0  0  0  0  0  0  0  0  0  0  0
   -0.3853    0.9591    0.0000 C   0  0  0  0  0  0  0  0  0  0  0  0
    1.8003   -0.1258    0.0000 C   0  0  0  0  0  0  0  0  0  0  0  0
   -3.0583   -0.7862    0.0000 C   0  0  0  0  0  0  0  0  0  0  0  0
    1.9890   -2.2013    0.0000 C   0  0  3  0  0  0  0  0  0  0  0  0
    0.4010    0.6604    0.0000 C   0  0  0  0  0  0  0  0  0  0  0  0
    1.2186    0.8963    0.0000 C   0  0  0  0  0  0  0  0  0  0  0  0
   -0.8727    1.6352    0.0000 C   0  0  0  0  0  0  0  0  0  0  0  0
   -2.3507   -2.0284    0.0000 C   0  0  0  0  0  0  0  0  0  0  0  0
    0.0393   -2.7359    0.0000 C   0  0  3  0  0  0  0  0  0  0  0  0
    2.3821    0.4560    0.0000 C   0  0  0  0  0  0  0  0  0  0  0  0
    2.7909   -2.3900    0.0000 C   0  0  3  0  0  0  0  0  0  0  0  0
   -3.0425   -2.4372    0.0000 C   0  0  0  0  0  0  0  0  0  0  0  0
   -3.7816   -1.2107    0.0000 C   0  0  0  0  0  0  0  0  0  0  0  0
    1.5645   -2.9089    0.0000 C   0  0  0  0  0  0  0  0  0  0  0  0
   -1.6746    1.5567    0.0000 C   0  0  0  0  0  0  0  0  0  0  0  0
   -0.5425    2.3900    0.0000 C   0  0  0  0  0  0  0  0  0  0  0  0
   -3.7659   -2.0284    0.0000 C   0  0  0  0  0  0  0  0  0  0  0  0
    2.8381   -3.2234    0.0000 C   0  0  0  0  0  0  0  0  0  0  0  0
   -2.1935    2.2171    0.0000 C   0  0  0  0  0  0  0  0  0  0  0  0
   -1.0299    3.0504    0.0000 C   0  0  0  0  0  0  0  0  0  0  0  0
    0.6211   -3.3019    0.0000 C   0  0  0  0  0  0  0  0  0  0  0  0
   -1.8161    2.9717    0.0000 C   0  0  0  0  0  0  0  0  0  0  0  0
   -0.7940    3.5536    0.0000 C   0  0  0  0  0  0  0  0  0  0  0  0
    3.7816    0.8333    0.0000 C   0  0  0  0  0  0  0  0  0  0  0  0
  1 23  1  0  0  0  0
 31  2  1  1  0  0  0
  3 32  1  0  0  0  0
  4 19  2  0  0  0  0
 29  5  1  6  0  0  0
  6 30  2  0  0  0  0
  7 39  1  0  0  0  0
  8 14  1  0  0  0  0
  8 17  1  0  0  0  0
  8 21  1  0  0  0  0
 13  9  1  1  0  0  0
  9 19  1  0  0  0  0
  9 20  1  0  0  0  0
 10 14  2  0  0  0  0
 10 16  1  0  0  0  0
 11 34  1  0  0  0  0
 11 38  1  0  0  0  0
 12 30  1  0  0  0  0
 12 44  1  0  0  0  0
 13 14  1  0  0  0  0
 13 15  1  0  0  0  0
 15 22  1  0  0  0  0
 15 25  1  0  0  0  0
 15 26  1  0  0  0  0
 16 17  2  0  0  0  0
 16 18  1  0  0  0  0
 18 23  2  0  0  0  0
 18 28  1  0  0  0  0
 19 29  1  0  0  0  0
 24 20  1  1  0  0  0
 21 27  1  0  0  0  0
 22 30  1  0  0  0  0
 23 33  1  0  0  0  0
 24 31  1  0  0  0  0
 24 34  1  0  0  0  0
 27 35  2  0  0  0  0
 27 36  1  0  0  0  0
 28 32  2  0  0  0  0
 29 41  1  0  0  0  0
 31 38  1  0  0  0  0
 32 37  1  0  0  0  0
 33 37  2  0  0  0  0
 35 39  1  0  0  0  0
 36 40  2  0  0  0  0
 39 42  2  0  0  0  0
 40 42  1  0  0  0  0
 40 43  1  0  0  0  0
M  END
> <PUBCHEM_COMPOUND_ID_TYPE>
0

> <PUBCHEM_TOTAL_CHARGE>
0

> <PUBCHEM_SUBSTANCE_ID>
310942682

> <PUBCHEM_SUBSTANCE_VERSION>
1

> <PUBCHEM_EXT_DATASOURCE_NAME>
4488

> <PUBCHEM_EXT_DATASOURCE_REGID>
SCHEMBL16120728

> <PUBCHEM_SUBSTANCE_COMMENT>
InChI=1S/C32H40F3N5O4/c1-18-8-20(10-23(42)9-18)15-39-17-27(24-11-22(33)6-7-25(24)34)38-30(39)29(32(3,4)12-28(43)36-5)40(31(44)19(2)41)16-21-13-37-14-26(21)35/h6-11,17,19,21,26,29,37,41-42H,12-16H2,1-5H3,(H,36,43)/t19-,21-,26-,29-/m0/s1
InChIKey=DHTCRKSNSKZLPO-VATHDALSSA-N

> <PUBCHEM_SUBSTANCE_SYNONYM>
SCHEMBL16120728

> <PUBCHEM_XREF_EXT_ID>
SCHEMBL16120728

> <PUBCHEM_EXT_DATASOURCE_URL>
https://www.surechembl.org/

> <PUBCHEM_EXT_SUBSTANCE_URL>
https://www.surechembl.org/chemical/SCHEMBL16120728

> <PUBCHEM_CID_ASSOCIATIONS>
117609210  1

> <PUBCHEM_COORDINATE_TYPE>
1
3

> <PUBCHEM_BONDANNOTATIONS>
31  2  5
24  20  5
29  5  6
13  9  5

$$$$
