310947530
  -OEChem-07211613022D

 11 11  0     1  0  0  0  0  0999 V2000
    2.3455   -3.3540    0.0000 F   0  0  0  0  0  0  0  0  0  0  0  0
    3.1705   -1.3700    0.0000 O   0  0  0  0  0  0  0  0  0  0  0  0
    4.5524   -1.4424    0.0000 O   0  0  0  0  0  0  0  0  0  0  0  0
    3.9955   -3.3540    0.0000 O   0  0  0  0  0  0  0  0  0  0  0  0
    3.5830   -2.6396    0.0000 C   0  0  0  0  0  0  0  0  0  0  0  0
    2.7580   -2.6396    0.0000 C   0  0  3  0  0  0  0  0  0  0  0  0
    3.8379   -1.8549    0.0000 C   0  0  3  0  0  0  0  0  0  0  0  0
    2.5030   -1.8549    0.0000 C   0  0  3  0  0  0  0  0  0  0  0  0
    2.0905   -1.1405    0.0000 C   0  0  0  0  0  0  0  0  0  0  0  0
    5.2669   -1.8549    0.0000 C   0  0  0  0  0  0  0  0  0  0  0  0
    1.2655   -1.1405    0.0000 C   0  0  0  0  0  0  0  0  0  0  0  0
  6  1  1  6  0  0  0
  2  7  1  0  0  0  0
  2  8  1  0  0  0  0
  7  3  1  1  0  0  0
  3 10  1  0  0  0  0
  4  5  2  0  0  0  0
  5  6  1  0  0  0  0
  5  7  1  0  0  0  0
  6  8  1  0  0  0  0
  8  9  1  1  0  0  0
  9 11  1  0  0  0  0
M  END
> <PUBCHEM_COMPOUND_ID_TYPE>
0

> <PUBCHEM_TOTAL_CHARGE>
0

> <PUBCHEM_SUBSTANCE_ID>
310947530

> <PUBCHEM_SUBSTANCE_VERSION>
1

> <PUBCHEM_EXT_DATASOURCE_NAME>
4488

> <PUBCHEM_EXT_DATASOURCE_REGID>
SCHEMBL16125693

> <PUBCHEM_SUBSTANCE_COMMENT>
InChI=1S/C7H11FO3/c1-3-4-5(8)6(9)7(10-2)11-4/h4-5,7H,3H2,1-2H3/t4-,5-,7-/m1/s1
InChIKey=MBFNQCVHYGEGDE-WYDQCIBASA-N

> <PUBCHEM_SUBSTANCE_SYNONYM>
SCHEMBL16125693

> <PUBCHEM_XREF_EXT_ID>
SCHEMBL16125693

> <PUBCHEM_EXT_DATASOURCE_URL>
https://www.surechembl.org/

> <PUBCHEM_EXT_SUBSTANCE_URL>
https://www.surechembl.org/chemical/SCHEMBL16125693

> <PUBCHEM_CID_ASSOCIATIONS>
117613252  1

> <PUBCHEM_COORDINATE_TYPE>
1
3

> <PUBCHEM_BONDANNOTATIONS>
6  1  6
7  3  5
8  9  5

$$$$
