310933168
  -OEChem-07211613022D

 34 37  0     0  0  0  0  0  0999 V2000
    5.5335   -3.3007    0.0000 O   0  0  0  0  0  0  0  0  0  0  0  0
    5.2746   -4.9187    0.0000 O   0  0  0  0  0  0  0  0  0  0  0  0
    0.0000   -4.4332    0.0000 O   0  0  0  0  0  0  0  0  0  0  0  0
    3.9155   -5.3717    0.0000 O   0  0  0  0  0  0  0  0  0  0  0  0
    1.9739   -1.2620    0.0000 O   0  0  0  0  0  0  0  0  0  0  0  0
    4.2068   -3.9802    0.0000 N   0  0  0  0  0  0  0  0  0  0  0  0
    4.2068   -2.6535    0.0000 N   0  0  0  0  0  0  0  0  0  0  0  0
    0.3883   -5.1451    0.0000 N   0  0  0  0  0  0  0  0  0  0  0  0
    4.1421   -1.6503    0.0000 N   0  0  0  0  0  0  0  0  0  0  0  0
    4.1097    0.0000    0.0000 N   0  0  0  0  0  0  0  0  0  0  0  0
    3.4301   -3.7537    0.0000 C   0  0  0  0  0  0  0  0  0  0  0  0
    3.4301   -2.8800    0.0000 C   0  0  0  0  0  0  0  0  0  0  0  0
    2.7182   -2.4917    0.0000 C   0  0  0  0  0  0  0  0  0  0  0  0
    4.6921   -3.3007    0.0000 C   0  0  0  0  0  0  0  0  0  0  0  0
    2.0063   -3.7537    0.0000 C   0  0  0  0  0  0  0  0  0  0  0  0
    2.7182   -4.1421    0.0000 C   0  0  0  0  0  0  0  0  0  0  0  0
    2.0063   -2.8800    0.0000 C   0  0  0  0  0  0  0  0  0  0  0  0
    1.2944   -4.1421    0.0000 C   0  0  0  0  0  0  0  0  0  0  0  0
    4.4656   -4.7569    0.0000 C   0  0  0  0  0  0  0  0  0  0  0  0
    2.6859   -1.6503    0.0000 C   0  0  0  0  0  0  0  0  0  0  0  0
    0.5501   -3.8184    0.0000 C   0  0  0  0  0  0  0  0  0  0  0  0
    1.1973   -4.9834    0.0000 C   0  0  0  0  0  0  0  0  0  0  0  0
    3.3978   -1.2296    0.0000 C   0  0  0  0  0  0  0  0  0  0  0  0
    5.5335   -5.6953    0.0000 C   0  0  0  0  0  0  0  0  0  0  0  0
    3.4301   -0.4207    0.0000 C   0  0  0  0  0  0  0  0  0  0  0  0
    5.9542   -2.5888    0.0000 C   0  0  0  0  0  0  0  0  0  0  0  0
    0.3559   -3.0094    0.0000 C   0  0  0  0  0  0  0  0  0  0  0  0
    1.8445   -5.5335    0.0000 C   0  0  0  0  0  0  0  0  0  0  0  0
    4.8540   -1.2296    0.0000 C   0  0  0  0  0  0  0  0  0  0  0  0
    4.7245   -5.9542    0.0000 C   0  0  0  0  0  0  0  0  0  0  0  0
    5.7923   -6.4719    0.0000 C   0  0  0  0  0  0  0  0  0  0  0  0
    6.3101   -5.4364    0.0000 C   0  0  0  0  0  0  0  0  0  0  0  0
    4.8540   -0.3883    0.0000 C   0  0  0  0  0  0  0  0  0  0  0  0
    5.5335   -1.8768    0.0000 C   0  0  0  0  0  0  0  0  0  0  0  0
  1 14  1  0  0  0  0
  1 26  1  0  0  0  0
  2 19  1  0  0  0  0
  2 24  1  0  0  0  0
  3  8  1  0  0  0  0
  3 21  1  0  0  0  0
  4 19  2  0  0  0  0
  5 20  2  0  0  0  0
  6 11  1  0  0  0  0
  6 14  1  0  0  0  0
  6 19  1  0  0  0  0
  7 12  1  0  0  0  0
  7 14  2  0  0  0  0
  8 22  2  0  0  0  0
  9 23  2  0  0  0  0
  9 29  1  0  0  0  0
 10 25  2  0  0  0  0
 10 33  1  0  0  0  0
 11 12  2  0  0  0  0
 11 16  1  0  0  0  0
 12 13  1  0  0  0  0
 13 17  2  0  0  0  0
 13 20  1  0  0  0  0
 15 16  2  0  0  0  0
 15 17  1  0  0  0  0
 15 18  1  0  0  0  0
 18 21  2  0  0  0  0
 18 22  1  0  0  0  0
 20 23  1  0  0  0  0
 21 27  1  0  0  0  0
 22 28  1  0  0  0  0
 23 25  1  0  0  0  0
 24 30  1  0  0  0  0
 24 31  1  0  0  0  0
 24 32  1  0  0  0  0
 26 34  1  0  0  0  0
 29 33  2  0  0  0  0
M  END
> <PUBCHEM_COMPOUND_ID_TYPE>
0

> <PUBCHEM_TOTAL_CHARGE>
0

> <PUBCHEM_SUBSTANCE_ID>
310933168

> <PUBCHEM_SUBSTANCE_VERSION>
1

> <PUBCHEM_EXT_DATASOURCE_NAME>
4488

> <PUBCHEM_EXT_DATASOURCE_REGID>
SCHEMBL16110577

> <PUBCHEM_SUBSTANCE_COMMENT>
InChI=1S/C24H25N5O5/c1-7-32-22-27-20-16(21(30)17-12-25-8-9-26-17)10-15(19-13(2)28-34-14(19)3)11-18(20)29(22)23(31)33-24(4,5)6/h8-12H,7H2,1-6H3
InChIKey=BSDGIDKCALXVEB-UHFFFAOYSA-N

> <PUBCHEM_SUBSTANCE_SYNONYM>
SCHEMBL16110577

> <PUBCHEM_XREF_EXT_ID>
SCHEMBL16110577

> <PUBCHEM_EXT_DATASOURCE_URL>
https://www.surechembl.org/

> <PUBCHEM_EXT_SUBSTANCE_URL>
https://www.surechembl.org/chemical/SCHEMBL16110577

> <PUBCHEM_CID_ASSOCIATIONS>
117601616  1

> <PUBCHEM_COORDINATE_TYPE>
1
3

$$$$
