310941798
  -OEChem-07211613022D

 30 35  0     1  0  0  0  0  0999 V2000
    3.2296    0.1958    0.0000 S   0  0  0  0  0  0  0  0  0  0  0  0
   -1.5099    0.5173    0.0000 O   0  0  0  0  0  0  0  0  0  0  0  0
    2.9360    0.9368    0.0000 O   0  0  0  0  0  0  0  0  0  0  0  0
    3.7608    0.7689    0.0000 O   0  0  0  0  0  0  0  0  0  0  0  0
    1.0066    0.4334    0.0000 N   0  0  0  0  0  0  0  0  0  0  0  0
    2.4327   -0.0140    0.0000 N   0  0  0  0  0  0  0  0  0  0  0  0
    1.9573    1.4121    0.0000 N   0  0  0  0  0  0  0  0  0  0  0  0
    1.2024    1.7895    0.0000 N   0  0  0  0  0  0  0  0  0  0  0  0
   -3.9007   -0.2517    0.0000 C   0  0  0  0  0  0  0  0  0  0  0  0
   -3.2575   -0.8388    0.0000 C   0  0  3  0  0  0  0  0  0  0  0  0
   -4.4320   -0.0699    0.0000 C   0  0  3  0  0  0  0  0  0  0  0  0
   -0.2796   -0.2377    0.0000 C   0  0  0  0  0  0  0  0  0  0  0  0
    0.6152    1.1604    0.0000 C   0  0  0  0  0  0  0  0  0  0  0  0
    1.8315    0.5732    0.0000 C   0  0  0  0  0  0  0  0  0  0  0  0
   -0.6711    0.4753    0.0000 C   0  0  0  0  0  0  0  0  0  0  0  0
   -2.7961   -0.1538    0.0000 C   0  0  3  0  0  0  0  0  0  0  0  0
   -4.0824   -0.8249    0.0000 C   0  0  0  0  0  0  0  0  0  0  0  0
    0.5592   -0.2936    0.0000 C   0  0  0  0  0  0  0  0  0  0  0  0
   -0.7270   -0.9787    0.0000 C   0  0  0  0  0  0  0  0  0  0  0  0
   -0.2097    1.2024    0.0000 C   0  0  0  0  0  0  0  0  0  0  0  0
    3.8447   -0.3914    0.0000 C   0  0  0  0  0  0  0  0  0  0  0  0
   -4.0125    0.6291    0.0000 C   0  0  0  0  0  0  0  0  0  0  0  0
   -3.1877    0.5732    0.0000 C   0  0  0  0  0  0  0  0  0  0  0  0
   -1.9434   -0.2097    0.0000 C   0  0  0  0  0  0  0  0  0  0  0  0
   -1.4401   -1.3701    0.0000 C   0  0  0  0  0  0  0  0  0  0  0  0
   -0.7689   -1.7895    0.0000 C   0  0  0  0  0  0  0  0  0  0  0  0
    4.0684   -1.1744    0.0000 C   0  0  0  0  0  0  0  0  0  0  0  0
    4.6276   -0.6011    0.0000 C   0  0  0  0  0  0  0  0  0  0  0  0
   -4.4179   -0.8108    0.0000 C   0  0  0  0  0  0  0  0  0  0  0  0
   -4.6276   -0.4474    0.0000 C   0  0  0  0  0  0  0  0  0  0  0  0
  1  3  2  0  0  0  0
  1  4  2  0  0  0  0
  1  6  1  0  0  0  0
  1 21  1  0  0  0  0
  2 15  1  0  0  0  0
  2 24  1  0  0  0  0
  5 13  1  0  0  0  0
  5 14  1  0  0  0  0
  5 18  1  0  0  0  0
  6 14  1  0  0  0  0
  7  8  1  0  0  0  0
  7 14  2  0  0  0  0
  8 13  2  0  0  0  0
  9 10  1  0  0  0  0
  9 11  1  0  0  0  0
  9 29  1  0  0  0  0
  9 30  1  0  0  0  0
 10 16  1  0  0  0  0
 10 17  1  6  0  0  0
 11 17  1  6  0  0  0
 11 22  1  0  0  0  0
 12 15  1  0  0  0  0
 12 18  2  0  0  0  0
 12 19  1  0  0  0  0
 13 20  1  0  0  0  0
 15 20  2  0  0  0  0
 16 23  1  0  0  0  0
 16 24  1  6  0  0  0
 19 25  1  0  0  0  0
 19 26  1  0  0  0  0
 21 27  1  0  0  0  0
 21 28  1  0  0  0  0
 22 23  1  0  0  0  0
 25 26  1  0  0  0  0
 27 28  1  0  0  0  0
M  END
> <PUBCHEM_COMPOUND_ID_TYPE>
0

> <PUBCHEM_TOTAL_CHARGE>
0

> <PUBCHEM_SUBSTANCE_ID>
310941798

> <PUBCHEM_SUBSTANCE_VERSION>
1

> <PUBCHEM_EXT_DATASOURCE_NAME>
4488

> <PUBCHEM_EXT_DATASOURCE_REGID>
SCHEMBL16119829

> <PUBCHEM_SUBSTANCE_COMMENT>
InChI=1S/C22H30N4O3S/c1-22(2)15-6-5-14(18(22)9-15)12-29-19-10-20-23-24-21(25-30(27,28)16-7-8-16)26(20)11-17(19)13-3-4-13/h10-11,13-16,18H,3-9,12H2,1-2H3,(H,24,25)/t14-,15+,18+/m1/s1
InChIKey=UKWOJDXGQIGNEQ-VKJFTORMSA-N

> <PUBCHEM_SUBSTANCE_SYNONYM>
SCHEMBL16119829

> <PUBCHEM_XREF_EXT_ID>
SCHEMBL16119829

> <PUBCHEM_EXT_DATASOURCE_URL>
https://www.surechembl.org/

> <PUBCHEM_EXT_SUBSTANCE_URL>
https://www.surechembl.org/chemical/SCHEMBL16119829

> <PUBCHEM_CID_ASSOCIATIONS>
117608547  1

> <PUBCHEM_COORDINATE_TYPE>
1
3

> <PUBCHEM_BONDANNOTATIONS>
10  17  6
11  17  6
16  24  6

$$$$
