310942642
  -OEChem-07211613022D

 37 40  0     1  0  0  0  0  0999 V2000
   -2.5097   -0.3754    0.0000 F   0  0  0  0  0  0  0  0  0  0  0  0
   -0.8610   -3.2604    0.0000 F   0  0  0  0  0  0  0  0  0  0  0  0
    1.5382    3.2604    0.0000 O   0  0  0  0  0  0  0  0  0  0  0  0
    0.7140   -0.6550    0.0000 O   0  0  0  0  0  0  0  0  0  0  0  0
    0.9200   -3.2310    0.0000 O   0  0  0  0  0  0  0  0  0  0  0  0
   -0.5815    0.9347    0.0000 N   0  0  0  0  0  0  0  0  0  0  0  0
   -0.0368   -0.2870    0.0000 N   0  0  0  0  0  0  0  0  0  0  0  0
    1.9504    0.1840    0.0000 N   0  0  0  0  0  0  0  0  0  0  0  0
    1.9357   -1.3762    0.0000 N   0  0  0  0  0  0  0  0  0  0  0  0
    0.8905    0.8610    0.0000 C   0  0  3  0  0  0  0  0  0  0  0  0
    0.1398    0.5226    0.0000 C   0  0  0  0  0  0  0  0  0  0  0  0
    1.1260    1.6560    0.0000 C   0  0  0  0  0  0  0  0  0  0  0  0
   -0.8610   -0.3754    0.0000 C   0  0  0  0  0  0  0  0  0  0  0  0
   -1.1996    0.3754    0.0000 C   0  0  0  0  0  0  0  0  0  0  0  0
   -1.2880   -1.0966    0.0000 C   0  0  0  0  0  0  0  0  0  0  0  0
    0.5226    2.2447    0.0000 C   0  0  0  0  0  0  0  0  0  0  0  0
    1.9062    1.8768    0.0000 C   0  0  0  0  0  0  0  0  0  0  0  0
   -0.6550    1.7443    0.0000 C   0  0  0  0  0  0  0  0  0  0  0  0
    1.5529   -0.6403    0.0000 C   0  0  0  0  0  0  0  0  0  0  0  0
   -2.1124   -1.0966    0.0000 C   0  0  0  0  0  0  0  0  0  0  0  0
    1.8473    1.2585    0.0000 C   0  0  0  0  0  0  0  0  0  0  0  0
   -0.8610   -1.8179    0.0000 C   0  0  0  0  0  0  0  0  0  0  0  0
   -1.4793    1.9798    0.0000 C   0  0  0  0  0  0  0  0  0  0  0  0
    0.7433    3.0543    0.0000 C   0  0  0  0  0  0  0  0  0  0  0  0
    2.1271    2.6716    0.0000 C   0  0  0  0  0  0  0  0  0  0  0  0
    3.0543    0.4490    0.0000 C   0  0  0  0  0  0  0  0  0  0  0  0
   -1.2733   -2.5391    0.0000 C   0  0  0  0  0  0  0  0  0  0  0  0
   -2.5097   -1.8179    0.0000 C   0  0  0  0  0  0  0  0  0  0  0  0
   -2.1124   -2.5244    0.0000 C   0  0  0  0  0  0  0  0  0  0  0  0
   -1.6854    2.7746    0.0000 C   0  0  0  0  0  0  0  0  0  0  0  0
   -2.0534    1.3910    0.0000 C   0  0  0  0  0  0  0  0  0  0  0  0
    1.7148   -2.1564    0.0000 C   0  0  3  0  0  0  0  0  0  0  0  0
   -2.4803    2.9808    0.0000 C   0  0  0  0  0  0  0  0  0  0  0  0
   -2.8483    1.6118    0.0000 C   0  0  0  0  0  0  0  0  0  0  0  0
   -3.0543    2.4213    0.0000 C   0  0  0  0  0  0  0  0  0  0  0  0
    0.9494   -2.3772    0.0000 C   0  0  0  0  0  0  0  0  0  0  0  0
    2.4508   -2.5980    0.0000 C   0  0  0  0  0  0  0  0  0  0  0  0
  1 20  1  0  0  0  0
  2 27  1  0  0  0  0
  3 24  1  0  0  0  0
  3 25  1  0  0  0  0
  4 19  2  0  0  0  0
  5 36  1  0  0  0  0
  6 11  1  0  0  0  0
  6 14  1  0  0  0  0
  6 18  1  0  0  0  0
  7 11  2  0  0  0  0
  7 13  1  0  0  0  0
 10  8  1  1  0  0  0
  8 19  1  0  0  0  0
  8 26  1  0  0  0  0
  9 19  1  0  0  0  0
  9 32  1  0  0  0  0
 10 11  1  0  0  0  0
 10 12  1  0  0  0  0
 12 16  1  0  0  0  0
 12 17  1  0  0  0  0
 12 21  1  0  0  0  0
 13 14  2  0  0  0  0
 13 15  1  0  0  0  0
 15 20  2  0  0  0  0
 15 22  1  0  0  0  0
 16 24  1  0  0  0  0
 17 25  1  0  0  0  0
 18 23  1  0  0  0  0
 20 28  1  0  0  0  0
 22 27  2  0  0  0  0
 23 30  2  0  0  0  0
 23 31  1  0  0  0  0
 27 29  1  0  0  0  0
 28 29  2  0  0  0  0
 30 33  1  0  0  0  0
 31 34  2  0  0  0  0
 32 36  1  0  0  0  0
 32 37  1  1  0  0  0
 33 35  2  0  0  0  0
 34 35  1  0  0  0  0
M  END
> <PUBCHEM_COMPOUND_ID_TYPE>
0

> <PUBCHEM_TOTAL_CHARGE>
0

> <PUBCHEM_SUBSTANCE_ID>
310942642

> <PUBCHEM_SUBSTANCE_VERSION>
1

> <PUBCHEM_EXT_DATASOURCE_NAME>
4488

> <PUBCHEM_EXT_DATASOURCE_REGID>
SCHEMBL16120688

> <PUBCHEM_SUBSTANCE_COMMENT>
InChI=1S/C28H34F2N4O3/c1-19(18-35)31-27(36)33(3)25(28(2)11-13-37-14-12-28)26-32-24(22-15-21(29)9-10-23(22)30)17-34(26)16-20-7-5-4-6-8-20/h4-10,15,17,19,25,35H,11-14,16,18H2,1-3H3,(H,31,36)/t19-,25-/m0/s1
InChIKey=GWSUIRXYRFOGBJ-DFBJGRDBSA-N

> <PUBCHEM_SUBSTANCE_SYNONYM>
SCHEMBL16120688

> <PUBCHEM_XREF_EXT_ID>
SCHEMBL16120688

> <PUBCHEM_EXT_DATASOURCE_URL>
https://www.surechembl.org/

> <PUBCHEM_EXT_SUBSTANCE_URL>
https://www.surechembl.org/chemical/SCHEMBL16120688

> <PUBCHEM_CID_ASSOCIATIONS>
117609173  1

> <PUBCHEM_COORDINATE_TYPE>
1
3

> <PUBCHEM_BONDANNOTATIONS>
32  37  5
10  8  5

$$$$
