310943305
  -OEChem-07211613022D

 20 22  0     0  0  0  0  0  0999 V2000
    0.3435    1.4659    0.0000 O   0  0  0  0  0  0  0  0  0  0  0  0
   -3.2249    1.0470    0.0000 O   0  0  0  0  0  0  0  0  0  0  0  0
   -1.7674    0.1927    0.0000 N   0  0  0  0  0  0  0  0  0  0  0  0
   -1.0638   -1.0470    0.0000 N   0  0  0  0  0  0  0  0  0  0  0  0
    1.7842    1.4659    0.0000 N   0  0  0  0  0  0  0  0  0  0  0  0
    3.2249   -0.2094    0.0000 N   0  0  0  0  0  0  0  0  0  0  0  0
    1.0470    0.2262    0.0000 C   0  0  0  0  0  0  0  0  0  0  0  0
    0.3937   -0.2094    0.0000 C   0  0  0  0  0  0  0  0  0  0  0  0
   -1.0470   -0.2094    0.0000 C   0  0  0  0  0  0  0  0  0  0  0  0
   -0.3267    0.2094    0.0000 C   0  0  0  0  0  0  0  0  0  0  0  0
    1.0806    1.0470    0.0000 C   0  0  0  0  0  0  0  0  0  0  0  0
    1.8009   -0.1927    0.0000 C   0  0  0  0  0  0  0  0  0  0  0  0
    0.3769   -1.0470    0.0000 C   0  0  0  0  0  0  0  0  0  0  0  0
    2.4878    0.2262    0.0000 C   0  0  0  0  0  0  0  0  0  0  0  0
   -0.3099   -1.4659    0.0000 C   0  0  0  0  0  0  0  0  0  0  0  0
    2.5213    1.0303    0.0000 C   0  0  0  0  0  0  0  0  0  0  0  0
   -1.7674    1.0303    0.0000 C   0  0  0  0  0  0  0  0  0  0  0  0
   -2.4878   -0.2094    0.0000 C   0  0  0  0  0  0  0  0  0  0  0  0
   -2.5045    1.4491    0.0000 C   0  0  0  0  0  0  0  0  0  0  0  0
   -3.2081    0.1927    0.0000 C   0  0  0  0  0  0  0  0  0  0  0  0
  1 11  2  0  0  0  0
  2 19  1  0  0  0  0
  2 20  1  0  0  0  0
  3  9  1  0  0  0  0
  3 17  1  0  0  0  0
  3 18  1  0  0  0  0
  4  9  2  0  0  0  0
  4 15  1  0  0  0  0
  5 11  1  0  0  0  0
  5 16  1  0  0  0  0
  6 14  1  0  0  0  0
  7  8  1  0  0  0  0
  7 11  1  0  0  0  0
  7 12  2  0  0  0  0
  8 10  2  0  0  0  0
  8 13  1  0  0  0  0
  9 10  1  0  0  0  0
 12 14  1  0  0  0  0
 13 15  2  0  0  0  0
 14 16  2  0  0  0  0
 17 19  1  0  0  0  0
 18 20  1  0  0  0  0
M  END
> <PUBCHEM_COMPOUND_ID_TYPE>
0

> <PUBCHEM_TOTAL_CHARGE>
0

> <PUBCHEM_SUBSTANCE_ID>
310943305

> <PUBCHEM_SUBSTANCE_VERSION>
1

> <PUBCHEM_EXT_DATASOURCE_NAME>
4488

> <PUBCHEM_EXT_DATASOURCE_REGID>
SCHEMBL16121367

> <PUBCHEM_SUBSTANCE_COMMENT>
InChI=1S/C14H16N4O2/c15-11-8-12(14(19)17-9-11)10-1-2-16-13(7-10)18-3-5-20-6-4-18/h1-2,7-9H,3-6,15H2,(H,17,19)
InChIKey=UTZVJXXWGSWGFS-UHFFFAOYSA-N

> <PUBCHEM_SUBSTANCE_SYNONYM>
SCHEMBL16121367

> <PUBCHEM_XREF_EXT_ID>
SCHEMBL16121367

> <PUBCHEM_EXT_DATASOURCE_URL>
https://www.surechembl.org/

> <PUBCHEM_EXT_SUBSTANCE_URL>
https://www.surechembl.org/chemical/SCHEMBL16121367

> <PUBCHEM_CID_ASSOCIATIONS>
117609730  1

> <PUBCHEM_COORDINATE_TYPE>
1
3

$$$$
