310942600
  -OEChem-07211613022D

 42 48  0     1  0  0  0  0  0999 V2000
    3.2570    2.5569    0.0000 Br  0  0  0  0  0  0  0  0  0  0  0  0
    3.1200    0.1218    0.0000 O   0  0  0  0  0  0  0  0  0  0  0  0
    3.8353   -1.9177    0.0000 O   0  0  0  0  0  0  0  0  0  0  0  0
    2.4807   -1.9329    0.0000 O   0  0  0  0  0  0  0  0  0  0  0  0
    3.8048    0.4566    0.0000 N   0  0  0  0  0  0  0  0  0  0  0  0
    5.3421    0.3348    0.0000 N   0  0  0  0  0  0  0  0  0  0  0  0
    6.0574    1.5524    0.0000 N   0  0  0  0  0  0  0  0  0  0  0  0
    1.7198    0.8523    0.0000 N   0  0  0  0  0  0  0  0  0  0  0  0
    5.3268    2.7852    0.0000 N   0  0  0  0  0  0  0  0  0  0  0  0
   -2.9678   -0.2892    0.0000 N   0  0  0  0  0  0  0  0  0  0  0  0
   -2.2677   -1.4307    0.0000 N   0  0  0  0  0  0  0  0  0  0  0  0
    3.5615   -1.1110    0.0000 C   0  0  3  0  0  0  0  0  0  0  0  0
    3.8201   -0.3197    0.0000 C   0  0  3  0  0  0  0  0  0  0  0  0
    2.7395   -1.1262    0.0000 C   0  0  3  0  0  0  0  0  0  0  0  0
    2.4655   -0.3348    0.0000 C   0  0  3  0  0  0  0  0  0  0  0  0
    4.5963    0.7609    0.0000 C   0  0  0  0  0  0  0  0  0  0  0  0
    3.1352   -2.3894    0.0000 C   0  0  0  0  0  0  0  0  0  0  0  0
    4.6268    1.5829    0.0000 C   0  0  0  0  0  0  0  0  0  0  0  0
    3.8048    1.8264    0.0000 C   0  0  0  0  0  0  0  0  0  0  0  0
    3.3179    1.1414    0.0000 C   0  0  0  0  0  0  0  0  0  0  0  0
    5.3268    1.9938    0.0000 C   0  0  0  0  0  0  0  0  0  0  0  0
    2.4503    0.4566    0.0000 C   0  0  0  0  0  0  0  0  0  0  0  0
    2.4199   -2.7852    0.0000 C   0  0  0  0  0  0  0  0  0  0  0  0
    3.8810   -2.7852    0.0000 C   0  0  0  0  0  0  0  0  0  0  0  0
    6.0574    0.7457    0.0000 C   0  0  0  0  0  0  0  0  0  0  0  0
    0.9741    0.4566    0.0000 C   0  0  0  0  0  0  0  0  0  0  0  0
   -3.5310   -0.8979    0.0000 C   0  0  0  0  0  0  0  0  0  0  0  0
   -0.0152   -0.1370    0.0000 C   0  0  0  0  0  0  0  0  0  0  0  0
   -3.0896   -1.5829    0.0000 C   0  0  0  0  0  0  0  0  0  0  0  0
    0.1979    0.6240    0.0000 C   0  0  0  0  0  0  0  0  0  0  0  0
    0.8066   -0.3197    0.0000 C   0  0  0  0  0  0  0  0  0  0  0  0
   -2.1917   -0.5784    0.0000 C   0  0  0  0  0  0  0  0  0  0  0  0
   -4.7790   -1.6133    0.0000 C   0  0  0  0  0  0  0  0  0  0  0  0
   -4.3528   -0.9132    0.0000 C   0  0  0  0  0  0  0  0  0  0  0  0
   -5.6160   -1.6133    0.0000 C   0  0  0  0  0  0  0  0  0  0  0  0
   -3.5158   -2.3133    0.0000 C   0  0  0  0  0  0  0  0  0  0  0  0
   -0.7306   -0.5632    0.0000 C   0  0  0  0  0  0  0  0  0  0  0  0
   -4.3223   -2.3133    0.0000 C   0  0  0  0  0  0  0  0  0  0  0  0
   -1.4763   -0.1674    0.0000 C   0  0  0  0  0  0  0  0  0  0  0  0
   -6.0574   -0.9284    0.0000 C   0  0  0  0  0  0  0  0  0  0  0  0
   -6.0118   -2.3590    0.0000 C   0  0  0  0  0  0  0  0  0  0  0  0
   -5.4029   -0.8371    0.0000 C   0  0  0  0  0  0  0  0  0  0  0  0
  1 19  1  0  0  0  0
 13  2  1  6  0  0  0
  2 15  1  0  0  0  0
 12  3  1  6  0  0  0
  3 17  1  0  0  0  0
 14  4  1  6  0  0  0
  4 17  1  0  0  0  0
  5 13  1  0  0  0  0
  5 16  1  0  0  0  0
  5 20  1  0  0  0  0
  6 16  1  0  0  0  0
  6 25  2  0  0  0  0
  7 21  2  0  0  0  0
  7 25  1  0  0  0  0
  8 22  1  0  0  0  0
  8 26  1  0  0  0  0
  9 21  1  0  0  0  0
 10 27  1  0  0  0  0
 10 32  2  0  0  0  0
 11 29  1  0  0  0  0
 11 32  1  0  0  0  0
 12 13  1  0  0  0  0
 12 14  1  0  0  0  0
 14 15  1  0  0  0  0
 15 22  1  1  0  0  0
 16 18  2  0  0  0  0
 17 23  1  0  0  0  0
 17 24  1  0  0  0  0
 18 19  1  0  0  0  0
 18 21  1  0  0  0  0
 19 20  2  0  0  0  0
 26 30  1  0  0  0  0
 26 31  1  0  0  0  0
 27 29  2  0  0  0  0
 27 34  1  0  0  0  0
 28 30  1  0  0  0  0
 28 31  1  0  0  0  0
 28 37  1  0  0  0  0
 29 36  1  0  0  0  0
 32 39  1  0  0  0  0
 33 34  2  0  0  0  0
 33 35  1  0  0  0  0
 33 38  1  0  0  0  0
 35 40  1  0  0  0  0
 35 41  1  0  0  0  0
 35 42  1  0  0  0  0
 36 38  2  0  0  0  0
 37 39  1  0  0  0  0
M  END
> <PUBCHEM_COMPOUND_ID_TYPE>
0

> <PUBCHEM_TOTAL_CHARGE>
0

> <PUBCHEM_SUBSTANCE_ID>
310942600

> <PUBCHEM_SUBSTANCE_VERSION>
1

> <PUBCHEM_EXT_DATASOURCE_NAME>
4488

> <PUBCHEM_EXT_DATASOURCE_REGID>
SCHEMBL16120645

> <PUBCHEM_SUBSTANCE_COMMENT>
InChI=1S/C31H40BrN7O3/c1-30(2,3)17-7-8-20-21(12-17)38-23(37-20)9-6-16-10-18(11-16)34-13-22-25-26(42-31(4,5)41-25)29(40-22)39-14-19(32)24-27(33)35-15-36-28(24)39/h7-8,12,14-16,18,22,25-26,29,34H,6,9-11,13H2,1-5H3,(H,37,38)(H2,33,35,36)/t16?,18?,22-,25-,26-,29-/m1/s1
InChIKey=XBTCEENRVNMXND-NOCKCIBXSA-N

> <PUBCHEM_SUBSTANCE_SYNONYM>
SCHEMBL16120645

> <PUBCHEM_XREF_EXT_ID>
SCHEMBL16120645

> <PUBCHEM_EXT_DATASOURCE_URL>
https://www.surechembl.org/

> <PUBCHEM_EXT_SUBSTANCE_URL>
https://www.surechembl.org/chemical/SCHEMBL16120645

> <PUBCHEM_CID_ASSOCIATIONS>
117609139  1

> <PUBCHEM_COORDINATE_TYPE>
1
3

> <PUBCHEM_BONDANNOTATIONS>
15  22  5
13  2  6
12  3  6
14  4  6

$$$$
