310944308
  -OEChem-07211613022D

 30 32  0     0  0  0  0  0  0999 V2000
   -3.7805   -1.4809    0.0000 Cl  0  0  0  0  0  0  0  0  0  0  0  0
   -0.7311   -1.4685    0.0000 O   0  0  0  0  0  0  0  0  0  0  0  0
    0.7061    1.0311    0.0000 O   0  0  0  0  0  0  0  0  0  0  0  0
    4.3179   -1.0560    0.0000 O   0  0  0  0  0  0  0  0  0  0  0  0
    1.4560   -0.2187    0.0000 N   0  0  0  0  0  0  0  0  0  0  0  0
   -0.7186    0.1937    0.0000 N   0  0  0  0  0  0  0  0  0  0  0  0
   -3.5930    0.1937    0.0000 N   0  0  0  0  0  0  0  0  0  0  0  0
    2.8932   -1.0560    0.0000 N   0  0  0  0  0  0  0  0  0  0  0  0
   -1.4435   -0.2187    0.0000 C   0  0  0  0  0  0  0  0  0  0  0  0
   -2.8807   -0.2187    0.0000 C   0  0  0  0  0  0  0  0  0  0  0  0
   -1.4560   -1.0436    0.0000 C   0  0  0  0  0  0  0  0  0  0  0  0
   -2.8807   -1.0436    0.0000 C   0  0  0  0  0  0  0  0  0  0  0  0
   -2.1683    0.1937    0.0000 C   0  0  0  0  0  0  0  0  0  0  0  0
   -2.1558   -1.4685    0.0000 C   0  0  0  0  0  0  0  0  0  0  0  0
    0.7061    0.1812    0.0000 C   0  0  0  0  0  0  0  0  0  0  0  0
    0.0062   -0.2187    0.0000 C   0  0  0  0  0  0  0  0  0  0  0  0
   -3.5930    1.0436    0.0000 C   0  0  0  0  0  0  0  0  0  0  0  0
    2.1558    0.1937    0.0000 C   0  0  0  0  0  0  0  0  0  0  0  0
    1.4560   -1.0560    0.0000 C   0  0  0  0  0  0  0  0  0  0  0  0
    2.8932   -0.2187    0.0000 C   0  0  0  0  0  0  0  0  0  0  0  0
    2.1808   -1.4685    0.0000 C   0  0  0  0  0  0  0  0  0  0  0  0
    3.6055   -1.4685    0.0000 C   0  0  0  0  0  0  0  0  0  0  0  0
   -2.8807    1.4560    0.0000 C   0  0  0  0  0  0  0  0  0  0  0  0
   -4.3179    1.4560    0.0000 C   0  0  0  0  0  0  0  0  0  0  0  0
    3.6055   -2.3183    0.0000 C   0  0  0  0  0  0  0  0  0  0  0  0
    0.0062   -1.0560    0.0000 C   0  0  0  0  0  0  0  0  0  0  0  0
   -2.8807    2.2808    0.0000 C   0  0  0  0  0  0  0  0  0  0  0  0
   -4.3179    2.2808    0.0000 C   0  0  0  0  0  0  0  0  0  0  0  0
   -3.6180    2.6807    0.0000 C   0  0  0  0  0  0  0  0  0  0  0  0
    2.8682   -2.6807    0.0000 C   0  0  0  0  0  0  0  0  0  0  0  0
  1 12  1  0  0  0  0
  2 11  1  0  0  0  0
  2 26  1  0  0  0  0
  3 15  2  0  0  0  0
  4 22  2  0  0  0  0
  5 15  1  0  0  0  0
  5 18  1  0  0  0  0
  5 19  1  0  0  0  0
  6  9  1  0  0  0  0
  6 16  1  0  0  0  0
  7 10  1  0  0  0  0
  7 17  1  0  0  0  0
  8 20  1  0  0  0  0
  8 21  1  0  0  0  0
  8 22  1  0  0  0  0
  9 11  1  0  0  0  0
  9 13  2  0  0  0  0
 10 12  2  0  0  0  0
 10 13  1  0  0  0  0
 11 14  2  0  0  0  0
 12 14  1  0  0  0  0
 15 16  1  0  0  0  0
 17 23  2  0  0  0  0
 17 24  1  0  0  0  0
 18 20  1  0  0  0  0
 19 21  1  0  0  0  0
 22 25  1  0  0  0  0
 23 27  1  0  0  0  0
 24 28  2  0  0  0  0
 25 30  2  0  0  0  0
 27 29  2  0  0  0  0
 28 29  1  0  0  0  0
M  END
> <PUBCHEM_COMPOUND_ID_TYPE>
0

> <PUBCHEM_TOTAL_CHARGE>
0

> <PUBCHEM_SUBSTANCE_ID>
310944308

> <PUBCHEM_SUBSTANCE_VERSION>
1

> <PUBCHEM_EXT_DATASOURCE_NAME>
4488

> <PUBCHEM_EXT_DATASOURCE_REGID>
SCHEMBL16122383

> <PUBCHEM_SUBSTANCE_COMMENT>
InChI=1S/C22H25ClN4O3/c1-3-21(28)26-9-11-27(12-10-26)22(29)15-24-19-14-18(17(23)13-20(19)30-2)25-16-7-5-4-6-8-16/h3-8,13-14,24-25H,1,9-12,15H2,2H3
InChIKey=TZPKDNNNGJZMIA-UHFFFAOYSA-N

> <PUBCHEM_SUBSTANCE_SYNONYM>
SCHEMBL16122383

> <PUBCHEM_XREF_EXT_ID>
SCHEMBL16122383

> <PUBCHEM_EXT_DATASOURCE_URL>
https://www.surechembl.org/

> <PUBCHEM_EXT_SUBSTANCE_URL>
https://www.surechembl.org/chemical/SCHEMBL16122383

> <PUBCHEM_CID_ASSOCIATIONS>
117610573  1

> <PUBCHEM_COORDINATE_TYPE>
1
3

$$$$
