310946339
  -OEChem-07211613022D

 25 26  0     0  0  0  0  0  0999 V2000
   -1.2335  -16.5907    0.0000 I   0  0  0  0  0  0  0  0  0  0  0  0
    0.1954  -14.1157    0.0000 I   0  0  0  0  0  0  0  0  0  0  0  0
    3.7678  -16.1782    0.0000 S   0  0  0  0  0  0  0  0  0  0  0  0
   -1.2335  -14.9407    0.0000 O   0  0  0  0  0  0  0  0  0  0  0  0
    2.3388  -15.3532    0.0000 O   0  0  0  0  0  0  0  0  0  0  0  0
   -4.0914  -16.5907    0.0000 O   0  0  0  0  0  0  0  0  0  0  0  0
    3.3553  -15.4637    0.0000 O   0  0  0  0  0  0  0  0  0  0  0  0
    4.1803  -16.8927    0.0000 O   0  0  0  0  0  0  0  0  0  0  0  0
    3.0533  -16.5907    0.0000 N   0  0  0  0  0  0  0  0  0  0  0  0
   -0.5190  -15.3532    0.0000 C   0  0  0  0  0  0  0  0  0  0  0  0
   -0.5190  -16.1782    0.0000 C   0  0  0  0  0  0  0  0  0  0  0  0
    0.1954  -14.9407    0.0000 C   0  0  0  0  0  0  0  0  0  0  0  0
    0.9099  -16.1782    0.0000 C   0  0  0  0  0  0  0  0  0  0  0  0
    0.1954  -16.5907    0.0000 C   0  0  0  0  0  0  0  0  0  0  0  0
    0.9099  -15.3532    0.0000 C   0  0  0  0  0  0  0  0  0  0  0  0
   -1.9480  -15.3532    0.0000 C   0  0  0  0  0  0  0  0  0  0  0  0
    1.6244  -16.5907    0.0000 C   0  0  0  0  0  0  0  0  0  0  0  0
    2.3388  -16.1782    0.0000 C   0  0  0  0  0  0  0  0  0  0  0  0
   -2.6625  -14.9407    0.0000 C   0  0  0  0  0  0  0  0  0  0  0  0
   -1.9480  -16.1782    0.0000 C   0  0  0  0  0  0  0  0  0  0  0  0
   -3.3769  -16.1782    0.0000 C   0  0  0  0  0  0  0  0  0  0  0  0
   -3.3769  -15.3532    0.0000 C   0  0  0  0  0  0  0  0  0  0  0  0
   -2.6625  -16.5907    0.0000 C   0  0  0  0  0  0  0  0  0  0  0  0
    4.4822  -15.7657    0.0000 C   0  0  0  0  0  0  0  0  0  0  0  0
   -4.8059  -16.1782    0.0000 C   0  0  0  0  0  0  0  0  0  0  0  0
  1 11  1  0  0  0  0
  2 12  1  0  0  0  0
  3  7  2  0  0  0  0
  3  8  2  0  0  0  0
  3  9  1  0  0  0  0
  3 24  1  0  0  0  0
  4 10  1  0  0  0  0
  4 16  1  0  0  0  0
  5 18  2  0  0  0  0
  6 21  1  0  0  0  0
  6 25  1  0  0  0  0
  9 18  1  0  0  0  0
 10 11  2  0  0  0  0
 10 12  1  0  0  0  0
 11 14  1  0  0  0  0
 12 15  2  0  0  0  0
 13 14  2  0  0  0  0
 13 15  1  0  0  0  0
 13 17  1  0  0  0  0
 16 19  2  0  0  0  0
 16 20  1  0  0  0  0
 17 18  1  0  0  0  0
 19 22  1  0  0  0  0
 20 23  2  0  0  0  0
 21 22  2  0  0  0  0
 21 23  1  0  0  0  0
M  END
> <PUBCHEM_COMPOUND_ID_TYPE>
0

> <PUBCHEM_TOTAL_CHARGE>
0

> <PUBCHEM_SUBSTANCE_ID>
310946339

> <PUBCHEM_SUBSTANCE_VERSION>
1

> <PUBCHEM_EXT_DATASOURCE_NAME>
4488

> <PUBCHEM_EXT_DATASOURCE_REGID>
SCHEMBL16124458

> <PUBCHEM_SUBSTANCE_COMMENT>
InChI=1S/C16H15I2NO5S/c1-23-11-3-5-12(6-4-11)24-16-13(17)7-10(8-14(16)18)9-15(20)19-25(2,21)22/h3-8H,9H2,1-2H3,(H,19,20)
InChIKey=IZEDYOVKRHCWEW-UHFFFAOYSA-N

> <PUBCHEM_SUBSTANCE_SYNONYM>
SCHEMBL16124458

> <PUBCHEM_XREF_EXT_ID>
SCHEMBL16124458

> <PUBCHEM_EXT_DATASOURCE_URL>
https://www.surechembl.org/

> <PUBCHEM_EXT_SUBSTANCE_URL>
https://www.surechembl.org/chemical/SCHEMBL16124458

> <PUBCHEM_CID_ASSOCIATIONS>
117612262  1

> <PUBCHEM_COORDINATE_TYPE>
1
3

$$$$
