310940661
  -OEChem-07211613022D

 34 37  0     1  0  0  0  0  0999 V2000
    2.3705   -0.3641    0.0000 O   0  0  0  0  0  0  0  0  0  0  0  0
    2.4530    1.1337    0.0000 O   0  0  0  0  0  0  0  0  0  0  0  0
   -1.8483   -0.5016    0.0000 O   0  0  0  0  0  0  0  0  0  0  0  0
    3.1813   -1.7384    0.0000 O   0  0  0  0  0  0  0  0  0  0  0  0
    2.4530   -2.9889    0.0000 O   0  0  0  0  0  0  0  0  0  0  0  0
   -3.1813   -2.6041    0.0000 O   0  0  0  0  0  0  0  0  0  0  0  0
    1.2299    0.3229    0.0000 N   0  0  0  0  0  0  0  0  0  0  0  0
    1.0237   -2.1781    0.0000 N   0  0  0  0  0  0  0  0  0  0  0  0
   -2.6728   -3.2912    0.0000 N   0  0  0  0  0  0  0  0  0  0  0  0
    1.0100   -0.4329    0.0000 C   0  0  0  0  0  0  0  0  0  0  0  0
    1.7521   -0.8588    0.0000 C   0  0  0  0  0  0  0  0  0  0  0  0
    0.3092   -0.8588    0.0000 C   0  0  0  0  0  0  0  0  0  0  0  0
    0.2955   -1.6696    0.0000 C   0  0  0  0  0  0  0  0  0  0  0  0
    1.7384   -1.6834    0.0000 C   0  0  0  0  0  0  0  0  0  0  0  0
    1.9857    0.4466    0.0000 C   0  0  0  0  0  0  0  0  0  0  0  0
    0.6253    0.9688    0.0000 C   0  0  3  0  0  0  0  0  0  0  0  0
   -0.4191   -0.4466    0.0000 C   0  0  0  0  0  0  0  0  0  0  0  0
   -1.1475   -1.6834    0.0000 C   0  0  0  0  0  0  0  0  0  0  0  0
   -1.1337   -0.8588    0.0000 C   0  0  0  0  0  0  0  0  0  0  0  0
   -0.4191   -2.0819    0.0000 C   0  0  0  0  0  0  0  0  0  0  0  0
    2.4254   -2.0956    0.0000 C   0  0  0  0  0  0  0  0  0  0  0  0
   -1.8621   -2.0956    0.0000 C   0  0  0  0  0  0  0  0  0  0  0  0
    0.8314    1.7933    0.0000 C   0  0  0  0  0  0  0  0  0  0  0  0
   -0.1718    0.7627    0.0000 C   0  0  0  0  0  0  0  0  0  0  0  0
   -2.6728   -1.8345    0.0000 C   0  0  0  0  0  0  0  0  0  0  0  0
   -1.8758   -2.9339    0.0000 C   0  0  0  0  0  0  0  0  0  0  0  0
    0.2542    2.3568    0.0000 C   0  0  0  0  0  0  0  0  0  0  0  0
    1.6284    2.0132    0.0000 C   0  0  0  0  0  0  0  0  0  0  0  0
    0.4741    3.1675    0.0000 C   0  0  0  0  0  0  0  0  0  0  0  0
    1.8345    2.7965    0.0000 C   0  0  0  0  0  0  0  0  0  0  0  0
   -1.8621    0.4054    0.0000 C   0  0  0  0  0  0  0  0  0  0  0  0
   -2.9201   -1.0237    0.0000 C   0  0  0  0  0  0  0  0  0  0  0  0
   -1.1337   -3.3737    0.0000 C   0  0  0  0  0  0  0  0  0  0  0  0
    1.2574    3.3737    0.0000 C   0  0  0  0  0  0  0  0  0  0  0  0
  1 11  1  0  0  0  0
  1 15  1  0  0  0  0
  2 15  2  0  0  0  0
  3 19  1  0  0  0  0
  3 31  1  0  0  0  0
  4 21  2  0  0  0  0
  5 21  1  0  0  0  0
  6 25  1  0  0  0  0
  7 10  1  0  0  0  0
  7 15  1  0  0  0  0
  7 16  1  0  0  0  0
  8 13  1  0  0  0  0
  8 14  2  0  0  0  0
  9 26  2  3  0  0  0
 10 11  2  0  0  0  0
 10 12  1  0  0  0  0
 11 14  1  0  0  0  0
 12 13  2  0  0  0  0
 12 17  1  0  0  0  0
 13 20  1  0  0  0  0
 14 21  1  0  0  0  0
 16 23  1  0  0  0  0
 16 24  1  6  0  0  0
 17 19  2  0  0  0  0
 18 19  1  0  0  0  0
 18 20  2  0  0  0  0
 18 22  1  0  0  0  0
 22 25  2  0  0  0  0
 22 26  1  0  0  0  0
 23 27  2  0  0  0  0
 23 28  1  0  0  0  0
 25 32  1  0  0  0  0
 26 33  1  0  0  0  0
 27 29  1  0  0  0  0
 28 30  2  0  0  0  0
 29 34  2  0  0  0  0
 30 34  1  0  0  0  0
M  END
> <PUBCHEM_COMPOUND_ID_TYPE>
0

> <PUBCHEM_TOTAL_CHARGE>
0

> <PUBCHEM_SUBSTANCE_ID>
310940661

> <PUBCHEM_SUBSTANCE_VERSION>
1

> <PUBCHEM_EXT_DATASOURCE_NAME>
4488

> <PUBCHEM_EXT_DATASOURCE_REGID>
SCHEMBL16118616

> <PUBCHEM_SUBSTANCE_COMMENT>
InChI=1S/C25H23N3O6/c1-12(26)20(14(3)29)17-10-18-16(11-19(17)33-4)22-23(21(27-18)24(30)31)34-25(32)28(22)13(2)15-8-6-5-7-9-15/h5-11,13,26,29H,1-4H3,(H,30,31)/b20-14+,26-12?/t13-/m1/s1
InChIKey=PVGIBKHPCNOCNB-IAHRFJJTSA-N

> <PUBCHEM_SUBSTANCE_SYNONYM>
SCHEMBL16118616

> <PUBCHEM_XREF_EXT_ID>
SCHEMBL16118616

> <PUBCHEM_EXT_DATASOURCE_URL>
https://www.surechembl.org/

> <PUBCHEM_EXT_SUBSTANCE_URL>
https://www.surechembl.org/chemical/SCHEMBL16118616

> <PUBCHEM_CID_ASSOCIATIONS>
117607638  1

> <PUBCHEM_COORDINATE_TYPE>
1
3

> <PUBCHEM_BONDANNOTATIONS>
16  24  6

$$$$
