310949242
  -OEChem-07211613022D

 35 40  0     0  0  0  0  0  0999 V2000
   -2.7292   -1.1780    0.0000 F   0  0  0  0  0  0  0  0  0  0  0  0
   -3.1873   -0.1309    0.0000 F   0  0  0  0  0  0  0  0  0  0  0  0
   -2.1140    0.3142    0.0000 F   0  0  0  0  0  0  0  0  0  0  0  0
   -0.7657    0.3927    0.0000 N   0  0  0  0  0  0  0  0  0  0  0  0
   -0.7919   -3.7436    0.0000 N   0  0  0  0  0  0  0  0  0  0  0  0
   -0.0982    0.9293    0.0000 C   0  0  0  0  0  0  0  0  0  0  0  0
   -0.3469    1.6754    0.0000 C   0  0  0  0  0  0  0  0  0  0  0  0
    1.2500    1.3352    0.0000 C   0  0  0  0  0  0  0  0  0  0  0  0
    1.0144    2.1336    0.0000 C   0  0  0  0  0  0  0  0  0  0  0  0
    2.0747    1.3221    0.0000 C   0  0  0  0  0  0  0  0  0  0  0  0
   -1.4464    0.9162    0.0000 C   0  0  0  0  0  0  0  0  0  0  0  0
   -1.1715    1.7016    0.0000 C   0  0  0  0  0  0  0  0  0  0  0  0
    1.6558    2.6048    0.0000 C   0  0  0  0  0  0  0  0  0  0  0  0
    2.3365    2.1336    0.0000 C   0  0  0  0  0  0  0  0  0  0  0  0
   -0.7657   -0.4319    0.0000 C   0  0  0  0  0  0  0  0  0  0  0  0
    0.7134    0.7461    0.0000 C   0  0  0  0  0  0  0  0  0  0  0  0
    0.2160    2.2907    0.0000 C   0  0  0  0  0  0  0  0  0  0  0  0
   -1.4857   -0.8247    0.0000 C   0  0  0  0  0  0  0  0  0  0  0  0
   -0.0458   -0.8247    0.0000 C   0  0  0  0  0  0  0  0  0  0  0  0
   -2.2318    0.7461    0.0000 C   0  0  0  0  0  0  0  0  0  0  0  0
   -1.7474    2.2907    0.0000 C   0  0  0  0  0  0  0  0  0  0  0  0
    1.7736    3.4294    0.0000 C   0  0  0  0  0  0  0  0  0  0  0  0
    3.0826    2.4608    0.0000 C   0  0  0  0  0  0  0  0  0  0  0  0
   -2.4281   -0.4188    0.0000 C   0  0  0  0  0  0  0  0  0  0  0  0
    2.8077    0.9162    0.0000 C   0  0  0  0  0  0  0  0  0  0  0  0
    1.8914    0.5367    0.0000 C   0  0  0  0  0  0  0  0  0  0  0  0
   -1.4726   -1.6623    0.0000 C   0  0  0  0  0  0  0  0  0  0  0  0
   -0.0589   -1.6492    0.0000 C   0  0  0  0  0  0  0  0  0  0  0  0
   -0.7788   -2.0682    0.0000 C   0  0  0  0  0  0  0  0  0  0  0  0
   -2.7946    1.3352    0.0000 C   0  0  0  0  0  0  0  0  0  0  0  0
   -2.5328    2.1336    0.0000 C   0  0  0  0  0  0  0  0  0  0  0  0
    2.4936    3.7436    0.0000 C   0  0  0  0  0  0  0  0  0  0  0  0
    3.1873    3.2855    0.0000 C   0  0  0  0  0  0  0  0  0  0  0  0
    0.6872   -0.4057    0.0000 C   0  0  0  0  0  0  0  0  0  0  0  0
   -0.7919   -2.9320    0.0000 C   0  0  0  0  0  0  0  0  0  0  0  0
  1 24  1  0  0  0  0
  2 24  1  0  0  0  0
  3 24  1  0  0  0  0
  4  6  1  0  0  0  0
  4 11  1  0  0  0  0
  4 15  1  0  0  0  0
  5 35  3  0  0  0  0
  6  7  2  0  0  0  0
  6 16  1  0  0  0  0
  7 12  1  0  0  0  0
  7 17  1  0  0  0  0
  8  9  1  0  0  0  0
  8 10  1  0  0  0  0
  8 16  2  0  0  0  0
  9 13  1  0  0  0  0
  9 17  2  0  0  0  0
 10 14  1  0  0  0  0
 10 25  1  0  0  0  0
 10 26  1  0  0  0  0
 11 12  2  0  0  0  0
 11 20  1  0  0  0  0
 12 21  1  0  0  0  0
 13 14  2  0  0  0  0
 13 22  1  0  0  0  0
 14 23  1  0  0  0  0
 15 18  1  0  0  0  0
 15 19  2  0  0  0  0
 18 24  1  0  0  0  0
 18 27  2  0  0  0  0
 19 28  1  0  0  0  0
 19 34  1  0  0  0  0
 20 30  2  0  0  0  0
 21 31  2  0  0  0  0
 22 32  2  0  0  0  0
 23 33  2  0  0  0  0
 27 29  1  0  0  0  0
 28 29  2  0  0  0  0
 29 35  1  0  0  0  0
 30 31  1  0  0  0  0
 32 33  1  0  0  0  0
M  END
> <PUBCHEM_COMPOUND_ID_TYPE>
0

> <PUBCHEM_TOTAL_CHARGE>
0

> <PUBCHEM_SUBSTANCE_ID>
310949242

> <PUBCHEM_SUBSTANCE_VERSION>
1

> <PUBCHEM_EXT_DATASOURCE_NAME>
4488

> <PUBCHEM_EXT_DATASOURCE_REGID>
SCHEMBL16127432

> <PUBCHEM_SUBSTANCE_COMMENT>
InChI=1S/C30H21F3N2/c1-17-12-18(16-34)13-25(30(31,32)33)28(17)35-26-11-7-5-9-20(26)22-14-21-19-8-4-6-10-23(19)29(2,3)24(21)15-27(22)35/h4-15H,1-3H3
InChIKey=KEDSIIVADSMLPB-UHFFFAOYSA-N

> <PUBCHEM_SUBSTANCE_SYNONYM>
SCHEMBL16127432

> <PUBCHEM_XREF_EXT_ID>
SCHEMBL16127432

> <PUBCHEM_EXT_DATASOURCE_URL>
https://www.surechembl.org/

> <PUBCHEM_EXT_SUBSTANCE_URL>
https://www.surechembl.org/chemical/SCHEMBL16127432

> <PUBCHEM_CID_ASSOCIATIONS>
117614730  1

> <PUBCHEM_COORDINATE_TYPE>
1
3

$$$$
