310949835
  -OEChem-07211613022D

 28 32  0     1  0  0  0  0  0999 V2000
    2.5936    1.2374    0.0000 O   0  0  0  0  0  0  0  0  0  0  0  0
    3.3186    2.4874    0.0000 O   0  0  0  0  0  0  0  0  0  0  0  0
   -3.3186   -1.7749    0.0000 O   0  0  0  0  0  0  0  0  0  0  0  0
    1.0187    0.7375    0.0000 C   0  0  3  0  0  0  0  0  0  0  0  0
    1.8562    0.9874    0.0000 C   0  0  3  0  0  0  0  0  0  0  0  0
    1.0187   -0.0875    0.0000 C   0  0  3  0  0  0  0  0  0  0  0  0
    0.3062   -0.5000    0.0000 C   0  0  3  0  0  0  0  0  0  0  0  0
   -0.4188   -0.1125    0.0000 C   0  0  3  0  0  0  0  0  0  0  0  0
   -1.1437   -0.5125    0.0000 C   0  0  3  0  0  0  0  0  0  0  0  0
    0.3062    1.1374    0.0000 C   0  0  0  0  0  0  0  0  0  0  0  0
    0.2937   -1.3999    0.0000 C   0  0  3  0  0  0  0  0  0  0  0  0
    2.2937    0.3000    0.0000 C   0  0  0  0  0  0  0  0  0  0  0  0
   -1.1562   -1.3499    0.0000 C   0  0  0  0  0  0  0  0  0  0  0  0
    1.8187   -0.3500    0.0000 C   0  0  0  0  0  0  0  0  0  0  0  0
   -0.4062    0.7250    0.0000 C   0  0  0  0  0  0  0  0  0  0  0  0
   -0.4688   -1.7375    0.0000 C   0  0  3  0  0  0  0  0  0  0  0  0
    1.3437    1.6499    0.0000 C   0  0  0  0  0  0  0  0  0  0  0  0
    1.0187    1.5625    0.0000 C   0  0  0  0  0  0  0  0  0  0  0  0
   -1.8562   -0.1125    0.0000 C   0  0  0  0  0  0  0  0  0  0  0  0
    2.5936    2.0624    0.0000 C   0  0  0  0  0  0  0  0  0  0  0  0
    1.8187    2.3374    0.0000 C   0  0  0  0  0  0  0  0  0  0  0  0
   -1.8687   -1.7624    0.0000 C   0  0  0  0  0  0  0  0  0  0  0  0
   -1.1437    0.3125    0.0000 C   0  0  0  0  0  0  0  0  0  0  0  0
   -2.5812   -1.3499    0.0000 C   0  0  0  0  0  0  0  0  0  0  0  0
    0.3062   -2.1999    0.0000 C   0  0  0  0  0  0  0  0  0  0  0  0
   -2.5686   -0.5249    0.0000 C   0  0  0  0  0  0  0  0  0  0  0  0
    0.3938   -2.3374    0.0000 C   0  0  0  0  0  0  0  0  0  0  0  0
    0.3062    1.9749    0.0000 C   0  0  0  0  0  0  0  0  0  0  0  0
  5  1  1  1  0  0  0
  1 20  1  0  0  0  0
  2 20  2  0  0  0  0
  3 24  2  0  0  0  0
  4  5  1  0  0  0  0
  4  6  1  0  0  0  0
  4 10  1  0  0  0  0
  4 18  1  1  0  0  0
  5 12  1  0  0  0  0
  5 17  1  0  0  0  0
  6  7  1  0  0  0  0
  6 14  1  0  0  0  0
  7  8  1  6  0  0  0
  7 11  1  0  0  0  0
  8  9  1  0  0  0  0
  8 15  1  0  0  0  0
  9 13  1  0  0  0  0
  9 19  1  0  0  0  0
  9 23  1  1  0  0  0
 10 15  1  0  0  0  0
 11 16  1  0  0  0  0
 11 25  1  1  0  0  0
 12 14  1  0  0  0  0
 13 16  1  0  0  0  0
 13 22  2  0  0  0  0
 16 27  1  1  0  0  0
 17 21  1  0  0  0  0
 18 28  1  0  0  0  0
 19 26  1  0  0  0  0
 20 21  1  0  0  0  0
 22 24  1  0  0  0  0
 24 26  1  0  0  0  0
M  END
> <PUBCHEM_COMPOUND_ID_TYPE>
0

> <PUBCHEM_TOTAL_CHARGE>
0

> <PUBCHEM_SUBSTANCE_ID>
310949835

> <PUBCHEM_SUBSTANCE_VERSION>
1

> <PUBCHEM_EXT_DATASOURCE_NAME>
4488

> <PUBCHEM_EXT_DATASOURCE_REGID>
SCHEMBL16128037

> <PUBCHEM_SUBSTANCE_COMMENT>
InChI=1S/C25H36O3/c1-5-24-11-7-18-22(19(24)8-12-25(24)13-9-21(27)28-25)16(3)15(2)20-14-17(26)6-10-23(18,20)4/h14-16,18-19,22H,5-13H2,1-4H3/t15-,16+,18?,19?,22-,23-,24+,25-/m1/s1
InChIKey=GTWXEJXIWHVYAG-JRKOEQNJSA-N

> <PUBCHEM_SUBSTANCE_SYNONYM>
SCHEMBL16128037

> <PUBCHEM_XREF_EXT_ID>
SCHEMBL16128037

> <PUBCHEM_EXT_DATASOURCE_URL>
https://www.surechembl.org/

> <PUBCHEM_EXT_SUBSTANCE_URL>
https://www.surechembl.org/chemical/SCHEMBL16128037

> <PUBCHEM_CID_ASSOCIATIONS>
117615152  1

> <PUBCHEM_COORDINATE_TYPE>
1
3

> <PUBCHEM_BONDANNOTATIONS>
5  1  5
11  25  5
16  27  5
4  18  5
7  8  6
9  23  5

$$$$
