310929514
  -OEChem-07211613022D

 69 76  0     1  0  0  0  0  0999 V2000
   -2.3861   -3.7235    0.0000 S   0  0  0  0  0  0  0  0  0  0  0  0
    1.4290   -0.8250    0.0000 O   0  0  0  0  0  0  0  0  0  0  0  0
   -1.5610   -5.1525    0.0000 O   0  0  0  0  0  0  0  0  0  0  0  0
    1.3265   -4.4380    0.0000 O   0  0  0  0  0  0  0  0  0  0  0  0
    2.8579   -4.1251    0.0000 O   0  0  0  0  0  0  0  0  0  0  0  0
   -2.3861   -2.8985    0.0000 O   0  0  0  0  0  0  0  0  0  0  0  0
   -2.3861   -4.5485    0.0000 O   0  0  0  0  0  0  0  0  0  0  0  0
    4.2869   -0.8250    0.0000 O   0  0  0  0  0  0  0  0  0  0  0  0
    0.0000    1.6500    0.0000 O   0  0  0  0  0  0  0  0  0  0  0  0
    5.0013   -2.0625    0.0000 O   0  0  0  0  0  0  0  0  0  0  0  0
   -2.8579    4.1251    0.0000 O   0  0  0  0  0  0  0  0  0  0  0  0
    0.0890   -3.7235    0.0000 N   0  0  0  0  0  0  0  0  0  0  0  0
    2.1434   -2.8875    0.0000 N   0  0  0  0  0  0  0  0  0  0  0  0
   -1.5610   -3.7235    0.0000 N   0  0  0  0  0  0  0  0  0  0  0  0
   -3.2111   -3.7235    0.0000 N   0  0  0  0  0  0  0  0  0  0  0  0
    0.0000   -0.8250    0.0000 N   0  0  0  0  0  0  0  0  0  0  0  0
    3.5724   -2.0625    0.0000 N   0  0  0  0  0  0  0  0  0  0  0  0
   -1.4290    3.3000    0.0000 N   0  0  0  0  0  0  0  0  0  0  0  0
   -0.3235   -4.4380    0.0000 C   0  0  3  0  0  0  0  0  0  0  0  0
    0.3909   -4.8505    0.0000 C   0  0  3  0  0  0  0  0  0  0  0  0
   -0.3235   -5.2630    0.0000 C   0  0  0  0  0  0  0  0  0  0  0  0
   -1.1485   -4.4380    0.0000 C   0  0  0  0  0  0  0  0  0  0  0  0
    0.9140   -3.7235    0.0000 C   0  0  0  0  0  0  0  0  0  0  0  0
    1.3265   -3.0091    0.0000 C   0  0  3  0  0  0  0  0  0  0  0  0
    1.4290   -1.6500    0.0000 C   0  0  3  0  0  0  0  0  0  0  0  0
    1.2159   -4.8505    0.0000 C   0  0  0  0  0  0  0  0  0  0  0  0
    0.9140   -2.2945    0.0000 C   0  0  0  0  0  0  0  0  0  0  0  0
    2.1434   -2.0625    0.0000 C   0  0  0  0  0  0  0  0  0  0  0  0
    2.8579   -3.3000    0.0000 C   0  0  0  0  0  0  0  0  0  0  0  0
    3.5724   -2.8875    0.0000 C   0  0  3  0  0  0  0  0  0  0  0  0
    0.7145   -0.4125    0.0000 C   0  0  0  0  0  0  0  0  0  0  0  0
    0.7145    0.4125    0.0000 C   0  0  0  0  0  0  0  0  0  0  0  0
    4.2869   -3.3000    0.0000 C   0  0  0  0  0  0  0  0  0  0  0  0
    5.0013   -0.4125    0.0000 C   0  0  3  0  0  0  0  0  0  0  0  0
    0.0000    0.8250    0.0000 C   0  0  0  0  0  0  0  0  0  0  0  0
    5.0013    0.4125    0.0000 C   0  0  3  0  0  0  0  0  0  0  0  0
    1.6285   -5.5650    0.0000 C   0  0  0  0  0  0  0  0  0  0  0  0
   -0.7145    0.4125    0.0000 C   0  0  0  0  0  0  0  0  0  0  0  0
   -0.7145   -0.4125    0.0000 C   0  0  0  0  0  0  0  0  0  0  0  0
    4.2869   -1.6500    0.0000 C   0  0  0  0  0  0  0  0  0  0  0  0
    1.4290    0.8250    0.0000 C   0  0  0  0  0  0  0  0  0  0  0  0
    5.7860   -0.6674    0.0000 C   0  0  0  0  0  0  0  0  0  0  0  0
    5.7860    0.6674    0.0000 C   0  0  0  0  0  0  0  0  0  0  0  0
   -3.6236   -4.4380    0.0000 C   0  0  0  0  0  0  0  0  0  0  0  0
   -3.6236   -3.0091    0.0000 C   0  0  0  0  0  0  0  0  0  0  0  0
    4.2869    0.8250    0.0000 C   0  0  0  0  0  0  0  0  0  0  0  0
   -1.4290    0.8250    0.0000 C   0  0  0  0  0  0  0  0  0  0  0  0
   -1.4290   -0.8250    0.0000 C   0  0  0  0  0  0  0  0  0  0  0  0
    6.2709    0.0000    0.0000 C   0  0  0  0  0  0  0  0  0  0  0  0
    5.0013   -3.7126    0.0000 C   0  0  0  0  0  0  0  0  0  0  0  0
    4.2869   -4.1251    0.0000 C   0  0  0  0  0  0  0  0  0  0  0  0
    5.0013   -2.8875    0.0000 C   0  0  0  0  0  0  0  0  0  0  0  0
    2.1434    0.4125    0.0000 C   0  0  0  0  0  0  0  0  0  0  0  0
   -2.1434    0.4125    0.0000 C   0  0  0  0  0  0  0  0  0  0  0  0
   -2.1434   -0.4125    0.0000 C   0  0  0  0  0  0  0  0  0  0  0  0
   -4.4486   -4.4380    0.0000 C   0  0  0  0  0  0  0  0  0  0  0  0
   -4.4486   -3.0091    0.0000 C   0  0  0  0  0  0  0  0  0  0  0  0
    3.5724    0.4125    0.0000 C   0  0  0  0  0  0  0  0  0  0  0  0
   -0.7145    2.0625    0.0000 C   0  0  0  0  0  0  0  0  0  0  0  0
    2.8579    0.8250    0.0000 C   0  0  0  0  0  0  0  0  0  0  0  0
   -4.8611   -3.7235    0.0000 C   0  0  0  0  0  0  0  0  0  0  0  0
   -0.7145    2.8875    0.0000 C   0  0  0  0  0  0  0  0  0  0  0  0
   -2.1434    2.8875    0.0000 C   0  0  0  0  0  0  0  0  0  0  0  0
   -1.4290    4.1251    0.0000 C   0  0  0  0  0  0  0  0  0  0  0  0
   -2.8579    3.3000    0.0000 C   0  0  0  0  0  0  0  0  0  0  0  0
   -2.1434    4.5376    0.0000 C   0  0  0  0  0  0  0  0  0  0  0  0
    0.6504   -1.3772    0.0000 H   0  0  0  0  0  0  0  0  0  0  0  0
    5.0876   -1.2330    0.0000 H   0  0  0  0  0  0  0  0  0  0  0  0
    5.0876    1.2330    0.0000 H   0  0  0  0  0  0  0  0  0  0  0  0
  1  6  2  0  0  0  0
  1  7  2  0  0  0  0
  1 14  1  0  0  0  0
  1 15  1  0  0  0  0
  2 25  1  0  0  0  0
  2 31  1  0  0  0  0
  3 22  2  0  0  0  0
  4 23  2  0  0  0  0
  5 29  2  0  0  0  0
  8 34  1  0  0  0  0
  8 40  1  0  0  0  0
  9 35  1  0  0  0  0
  9 59  1  0  0  0  0
 10 40  2  0  0  0  0
 11 65  1  0  0  0  0
 11 66  1  0  0  0  0
 19 12  1  1  0  0  0
 12 23  1  0  0  0  0
 13 24  1  0  0  0  0
 13 28  1  0  0  0  0
 13 29  1  0  0  0  0
 14 22  1  0  0  0  0
 15 44  1  0  0  0  0
 15 45  1  0  0  0  0
 16 31  2  0  0  0  0
 16 39  1  0  0  0  0
 17 30  1  0  0  0  0
 17 40  1  0  0  0  0
 18 62  1  0  0  0  0
 18 63  1  0  0  0  0
 18 64  1  0  0  0  0
 19 20  1  0  0  0  0
 19 21  1  0  0  0  0
 19 22  1  6  0  0  0
 20 21  1  0  0  0  0
 20 26  1  6  0  0  0
 24 23  1  6  0  0  0
 24 27  1  0  0  0  0
 25 27  1  0  0  0  0
 25 28  1  0  0  0  0
 25 67  1  6  0  0  0
 26 37  2  0  0  0  0
 29 30  1  0  0  0  0
 30 33  1  1  0  0  0
 31 32  1  0  0  0  0
 32 35  2  0  0  0  0
 32 41  1  0  0  0  0
 33 50  1  0  0  0  0
 33 51  1  0  0  0  0
 33 52  1  0  0  0  0
 34 36  1  0  0  0  0
 34 42  1  0  0  0  0
 34 68  1  6  0  0  0
 35 38  1  0  0  0  0
 36 43  1  0  0  0  0
 36 46  1  0  0  0  0
 36 69  1  1  0  0  0
 38 39  1  0  0  0  0
 38 47  2  0  0  0  0
 39 48  2  0  0  0  0
 41 53  1  0  0  0  0
 42 49  1  0  0  0  0
 43 49  1  0  0  0  0
 44 56  1  0  0  0  0
 45 57  1  0  0  0  0
 46 58  1  0  0  0  0
 47 54  1  0  0  0  0
 48 55  1  0  0  0  0
 53 60  1  0  0  0  0
 54 55  2  0  0  0  0
 56 61  1  0  0  0  0
 57 61  1  0  0  0  0
 58 60  1  0  0  0  0
 59 62  1  0  0  0  0
 63 65  1  0  0  0  0
 64 66  1  0  0  0  0
M  END
> <PUBCHEM_COMPOUND_ID_TYPE>
0

> <PUBCHEM_TOTAL_CHARGE>
0

> <PUBCHEM_SUBSTANCE_ID>
310929514

> <PUBCHEM_SUBSTANCE_VERSION>
1

> <PUBCHEM_EXT_DATASOURCE_NAME>
4488

> <PUBCHEM_EXT_DATASOURCE_REGID>
SCHEMBL16106693

> <PUBCHEM_SUBSTANCE_COMMENT>
InChI=1S/C48H69N7O10S/c1-5-33-30-48(33,45(58)52-66(60,61)54-21-12-7-13-22-54)51-42(56)38-29-34-31-55(38)44(57)41(47(2,3)4)50-46(59)65-39-20-14-16-32(39)15-8-6-9-18-36-40(63-28-25-53-23-26-62-27-24-53)35-17-10-11-19-37(35)49-43(36)64-34/h5,10-11,17,19,32-34,38-39,41H,1,6-9,12-16,18,20-31H2,2-4H3,(H,50,59)(H,51,56)(H,52,58)/t32-,33-,34-,38+,39-,41-,48-/m1/s1
InChIKey=UOQKLCLTWUGERQ-NUWVKEDISA-N

> <PUBCHEM_SUBSTANCE_SYNONYM>
SCHEMBL16106693

> <PUBCHEM_XREF_EXT_ID>
SCHEMBL16106693

> <PUBCHEM_EXT_DATASOURCE_URL>
https://www.surechembl.org/

> <PUBCHEM_EXT_SUBSTANCE_URL>
https://www.surechembl.org/chemical/SCHEMBL16106693

> <PUBCHEM_CID_ASSOCIATIONS>
117598838  1

> <PUBCHEM_COORDINATE_TYPE>
1
3

> <PUBCHEM_BONDANNOTATIONS>
19  12  5
19  22  6
20  26  6
24  23  6
25  67  6
30  33  5
34  68  6
36  69  5

$$$$
