310948151
  -OEChem-07211613022D

 35 38  0     0  0  0  0  0  0999 V2000
    0.9650   -2.2078    0.0000 Br  0  0  0  0  0  0  0  0  0  0  0  0
   -4.6864    0.6527    0.0000 F   0  0  0  0  0  0  0  0  0  0  0  0
   -4.3948    1.4302    0.0000 F   0  0  0  0  0  0  0  0  0  0  0  0
    4.6864    0.7498    0.0000 F   0  0  0  0  0  0  0  0  0  0  0  0
    3.4922    0.8054    0.0000 F   0  0  0  0  0  0  0  0  0  0  0  0
    4.5892   -0.4027    0.0000 F   0  0  0  0  0  0  0  0  0  0  0  0
   -2.7563    1.7080    0.0000 O   0  0  0  0  0  0  0  0  0  0  0  0
    3.4367   -0.3472    0.0000 O   0  0  0  0  0  0  0  0  0  0  0  0
   -0.3680    0.3193    0.0000 N   0  0  0  0  0  0  0  0  0  0  0  0
   -2.7563   -1.0415    0.0000 N   0  0  0  0  0  0  0  0  0  0  0  0
   -3.4783   -0.6249    0.0000 N   0  0  0  0  0  0  0  0  0  0  0  0
   -1.0345    0.8332    0.0000 N   0  0  0  0  0  0  0  0  0  0  0  0
   -0.7429    1.6107    0.0000 N   0  0  0  0  0  0  0  0  0  0  0  0
   -4.1032    2.2078    0.0000 N   0  0  0  0  0  0  0  0  0  0  0  0
   -1.1317   -0.8748    0.0000 C   0  0  0  0  0  0  0  0  0  0  0  0
   -2.1592   -0.4998    0.0000 C   0  0  0  0  0  0  0  0  0  0  0  0
   -0.4096   -0.4998    0.0000 C   0  0  0  0  0  0  0  0  0  0  0  0
   -3.3118    0.1667    0.0000 C   0  0  0  0  0  0  0  0  0  0  0  0
   -3.8810    0.8193    0.0000 C   0  0  0  0  0  0  0  0  0  0  0  0
    0.3124    0.7915    0.0000 C   0  0  0  0  0  0  0  0  0  0  0  0
   -2.4925    0.2638    0.0000 C   0  0  0  0  0  0  0  0  0  0  0  0
    0.2985   -0.9442    0.0000 C   0  0  0  0  0  0  0  0  0  0  0  0
   -1.1595   -1.7080    0.0000 C   0  0  0  0  0  0  0  0  0  0  0  0
    1.1039    0.4998    0.0000 C   0  0  0  0  0  0  0  0  0  0  0  0
    0.2707   -1.7496    0.0000 C   0  0  0  0  0  0  0  0  0  0  0  0
   -3.5756    1.5691    0.0000 C   0  0  0  0  0  0  0  0  0  0  0  0
    0.0902    1.5691    0.0000 C   0  0  0  0  0  0  0  0  0  0  0  0
   -0.4513   -2.1383    0.0000 C   0  0  0  0  0  0  0  0  0  0  0  0
   -2.6730   -1.8468    0.0000 C   0  0  0  0  0  0  0  0  0  0  0  0
    1.2567   -0.3055    0.0000 C   0  0  0  0  0  0  0  0  0  0  0  0
    1.7288    1.0136    0.0000 C   0  0  0  0  0  0  0  0  0  0  0  0
    2.6591   -0.0556    0.0000 C   0  0  0  0  0  0  0  0  0  0  0  0
    2.0343   -0.5833    0.0000 C   0  0  0  0  0  0  0  0  0  0  0  0
    2.5202    0.7359    0.0000 C   0  0  0  0  0  0  0  0  0  0  0  0
    4.0754    0.2083    0.0000 C   0  0  0  0  0  0  0  0  0  0  0  0
  1 25  1  0  0  0  0
  2 19  1  0  0  0  0
  3 19  1  0  0  0  0
  4 35  1  0  0  0  0
  5 35  1  0  0  0  0
  6 35  1  0  0  0  0
  7 26  2  0  0  0  0
  8 32  1  0  0  0  0
  8 35  1  0  0  0  0
  9 12  1  0  0  0  0
  9 17  1  0  0  0  0
  9 20  1  0  0  0  0
 10 11  1  0  0  0  0
 10 16  1  0  0  0  0
 10 29  1  0  0  0  0
 11 18  2  0  0  0  0
 12 13  2  0  0  0  0
 13 27  1  0  0  0  0
 14 26  1  0  0  0  0
 15 16  1  0  0  0  0
 15 17  2  0  0  0  0
 15 23  1  0  0  0  0
 16 21  2  0  0  0  0
 17 22  1  0  0  0  0
 18 19  1  0  0  0  0
 18 21  1  0  0  0  0
 19 26  1  0  0  0  0
 20 24  1  0  0  0  0
 20 27  2  0  0  0  0
 22 25  2  0  0  0  0
 23 28  2  0  0  0  0
 24 30  2  0  0  0  0
 24 31  1  0  0  0  0
 25 28  1  0  0  0  0
 30 33  1  0  0  0  0
 31 34  2  0  0  0  0
 32 33  2  0  0  0  0
 32 34  1  0  0  0  0
M  END
> <PUBCHEM_COMPOUND_ID_TYPE>
0

> <PUBCHEM_TOTAL_CHARGE>
0

> <PUBCHEM_SUBSTANCE_ID>
310948151

> <PUBCHEM_SUBSTANCE_VERSION>
1

> <PUBCHEM_EXT_DATASOURCE_NAME>
4488

> <PUBCHEM_EXT_DATASOURCE_REGID>
SCHEMBL16126328

> <PUBCHEM_SUBSTANCE_COMMENT>
InChI=1S/C21H14BrF5N6O2/c1-32-15(9-18(30-32)20(23,24)19(28)34)14-7-4-12(22)8-16(14)33-17(10-29-31-33)11-2-5-13(6-3-11)35-21(25,26)27/h2-10H,1H3,(H2,28,34)
InChIKey=CQJGBFSMPVXSEE-UHFFFAOYSA-N

> <PUBCHEM_SUBSTANCE_SYNONYM>
SCHEMBL16126328

> <PUBCHEM_XREF_EXT_ID>
SCHEMBL16126328

> <PUBCHEM_EXT_DATASOURCE_URL>
https://www.surechembl.org/

> <PUBCHEM_EXT_SUBSTANCE_URL>
https://www.surechembl.org/chemical/SCHEMBL16126328

> <PUBCHEM_CID_ASSOCIATIONS>
117613756  1

> <PUBCHEM_COORDINATE_TYPE>
1
3

$$$$
