310928648
  -OEChem-07211613022D

 18 19  0     0  0  0  0  0  0999 V2000
    2.8579   -0.2062    0.0000 Cl  0  0  0  0  0  0  0  0  0  0  0  0
    0.7145    1.0313    0.0000 F   0  0  0  0  0  0  0  0  0  0  0  0
   -2.1434    1.8563    0.0000 O   0  0  0  0  0  0  0  0  0  0  0  0
   -2.8579    0.6187    0.0000 O   0  0  0  0  0  0  0  0  0  0  0  0
    0.0000   -0.2062    0.0000 C   0  0  0  0  0  0  0  0  0  0  0  0
    0.7145   -0.6187    0.0000 C   0  0  0  0  0  0  0  0  0  0  0  0
    0.0000    0.6188    0.0000 C   0  0  0  0  0  0  0  0  0  0  0  0
   -1.4289    0.6188    0.0000 C   0  0  0  0  0  0  0  0  0  0  0  0
   -0.7145   -0.6187    0.0000 C   0  0  0  0  0  0  0  0  0  0  0  0
   -0.7145    1.0313    0.0000 C   0  0  0  0  0  0  0  0  0  0  0  0
    1.4289   -0.2062    0.0000 C   0  0  0  0  0  0  0  0  0  0  0  0
    2.1434   -0.6188    0.0000 C   0  0  0  0  0  0  0  0  0  0  0  0
    0.7145   -1.4437    0.0000 C   0  0  0  0  0  0  0  0  0  0  0  0
   -1.4289   -0.2062    0.0000 C   0  0  0  0  0  0  0  0  0  0  0  0
    2.1434   -1.4437    0.0000 C   0  0  0  0  0  0  0  0  0  0  0  0
    1.4289   -1.8563    0.0000 C   0  0  0  0  0  0  0  0  0  0  0  0
   -2.1434    1.0313    0.0000 C   0  0  0  0  0  0  0  0  0  0  0  0
    2.8579   -1.8563    0.0000 C   0  0  0  0  0  0  0  0  0  0  0  0
  1 12  1  0  0  0  0
  2  7  1  0  0  0  0
  3 17  2  0  0  0  0
  4 17  1  0  0  0  0
  5  6  1  0  0  0  0
  5  7  1  0  0  0  0
  5  9  2  0  0  0  0
  6 11  1  0  0  0  0
  6 13  2  0  0  0  0
  7 10  2  0  0  0  0
  8 10  1  0  0  0  0
  8 14  2  0  0  0  0
  8 17  1  0  0  0  0
  9 14  1  0  0  0  0
 11 12  2  0  0  0  0
 12 15  1  0  0  0  0
 13 16  1  0  0  0  0
 15 16  2  0  0  0  0
 15 18  1  0  0  0  0
M  END
> <PUBCHEM_COMPOUND_ID_TYPE>
0

> <PUBCHEM_TOTAL_CHARGE>
0

> <PUBCHEM_SUBSTANCE_ID>
310928648

> <PUBCHEM_SUBSTANCE_VERSION>
1

> <PUBCHEM_EXT_DATASOURCE_NAME>
11752

> <PUBCHEM_EXT_DATASOURCE_REGID>
BD243019

> <PUBCHEM_SUBSTANCE_SYNONYM>
1261965-53-0
3'-Chloro-2-fluoro-4'-methyl-[1,1'-biphenyl]-4-carboxylic acid

> <PUBCHEM_GENERIC_REGISTRY_NAME>
1261965-53-0

> <PUBCHEM_XREF_EXT_ID>
BD243019

> <PUBCHEM_EXT_DATASOURCE_URL>
http://www.bidepharmatech.com/en/index.html

> <PUBCHEM_EXT_SUBSTANCE_URL>
http://www.bidepharmatech.com/en/goodsview_goodscode_BD243019.html

> <PUBCHEM_CID_ASSOCIATIONS>
53226681  1

> <PUBCHEM_COORDINATE_TYPE>
1
3

$$$$
