310943536
  -OEChem-07211613022D

 37 40  0     1  0  0  0  0  0999 V2000
    4.3933   -2.1308    0.0000 F   0  0  0  0  0  0  0  0  0  0  0  0
    3.5865   -2.9201    0.0000 F   0  0  0  0  0  0  0  0  0  0  0  0
    2.8148   -2.1133    0.0000 F   0  0  0  0  0  0  0  0  0  0  0  0
   -2.9903    0.0263    0.0000 O   0  0  0  0  0  0  0  0  0  0  0  0
   -4.3758    2.5343    0.0000 O   0  0  0  0  0  0  0  0  0  0  0  0
    1.4293   -0.0438    0.0000 O   0  0  0  0  0  0  0  0  0  0  0  0
   -3.7619   -2.0081    0.0000 O   0  0  0  0  0  0  0  0  0  0  0  0
   -2.9552    1.6749    0.0000 N   0  0  0  0  0  0  0  0  0  0  0  0
   -1.5521   -0.0087    0.0000 N   0  0  0  0  0  0  0  0  0  0  0  0
    0.6928    2.8499    0.0000 N   0  0  0  0  0  0  0  0  0  0  0  0
    2.1484    1.1838    0.0000 N   0  0  0  0  0  0  0  0  0  0  0  0
   -0.7804    1.2364    0.0000 C   0  0  0  0  0  0  0  0  0  0  0  0
   -2.2361    1.2540    0.0000 C   0  0  0  0  0  0  0  0  0  0  0  0
   -0.0438    1.6048    0.0000 C   0  0  0  0  0  0  0  0  0  0  0  0
   -2.2712    0.4297    0.0000 C   0  0  0  0  0  0  0  0  0  0  0  0
   -1.5170    1.6398    0.0000 C   0  0  0  0  0  0  0  0  0  0  0  0
   -0.0087    2.4290    0.0000 C   0  0  0  0  0  0  0  0  0  0  0  0
   -0.8155    0.3946    0.0000 C   0  0  0  0  0  0  0  0  0  0  0  0
    0.7278    1.2013    0.0000 C   0  0  0  0  0  0  0  0  0  0  0  0
    1.4118    1.6048    0.0000 C   0  0  0  0  0  0  0  0  0  0  0  0
    2.8850   -0.0438    0.0000 C   0  0  0  0  0  0  0  0  0  0  0  0
    2.1659    0.3771    0.0000 C   0  0  0  0  0  0  0  0  0  0  0  0
    3.6041   -1.2715    0.0000 C   0  0  0  0  0  0  0  0  0  0  0  0
    1.4293    2.4290    0.0000 C   0  0  0  0  0  0  0  0  0  0  0  0
    3.5865   -2.1133    0.0000 C   0  0  0  0  0  0  0  0  0  0  0  0
   -2.9201    2.4992    0.0000 C   0  0  0  0  0  0  0  0  0  0  0  0
   -3.6742    1.2891    0.0000 C   0  0  0  0  0  0  0  0  0  0  0  0
    2.8675   -0.8506    0.0000 C   0  0  0  0  0  0  0  0  0  0  0  0
    3.5690    0.3595    0.0000 C   0  0  0  0  0  0  0  0  0  0  0  0
   -3.0253   -0.7980    0.0000 C   0  0  3  0  0  0  0  0  0  0  0  0
    4.3056   -0.8682    0.0000 C   0  0  0  0  0  0  0  0  0  0  0  0
   -0.7453    2.8148    0.0000 C   0  0  0  0  0  0  0  0  0  0  0  0
    4.3056   -0.0438    0.0000 C   0  0  0  0  0  0  0  0  0  0  0  0
   -3.6742    2.9201    0.0000 C   0  0  0  0  0  0  0  0  0  0  0  0
   -4.3933    1.7100    0.0000 C   0  0  0  0  0  0  0  0  0  0  0  0
   -3.7093   -1.1838    0.0000 C   0  0  0  0  0  0  0  0  0  0  0  0
   -2.2887   -1.2364    0.0000 C   0  0  0  0  0  0  0  0  0  0  0  0
  1 25  1  0  0  0  0
  2 25  1  0  0  0  0
  3 25  1  0  0  0  0
  4 15  1  0  0  0  0
  4 30  1  0  0  0  0
  5 34  1  0  0  0  0
  5 35  1  0  0  0  0
  6 22  2  0  0  0  0
  7 36  1  0  0  0  0
  8 13  1  0  0  0  0
  8 26  1  0  0  0  0
  8 27  1  0  0  0  0
  9 15  1  0  0  0  0
  9 18  2  0  0  0  0
 10 17  1  0  0  0  0
 10 24  2  0  0  0  0
 11 20  1  0  0  0  0
 11 22  1  0  0  0  0
 12 14  1  0  0  0  0
 12 16  2  0  0  0  0
 12 18  1  0  0  0  0
 13 15  2  0  0  0  0
 13 16  1  0  0  0  0
 14 17  2  0  0  0  0
 14 19  1  0  0  0  0
 17 32  1  0  0  0  0
 19 20  2  0  0  0  0
 20 24  1  0  0  0  0
 21 22  1  0  0  0  0
 21 28  2  0  0  0  0
 21 29  1  0  0  0  0
 23 25  1  0  0  0  0
 23 28  1  0  0  0  0
 23 31  2  0  0  0  0
 26 34  1  0  0  0  0
 27 35  1  0  0  0  0
 29 33  2  0  0  0  0
 30 36  1  0  0  0  0
 30 37  1  1  0  0  0
 31 33  1  0  0  0  0
M  END
> <PUBCHEM_COMPOUND_ID_TYPE>
0

> <PUBCHEM_TOTAL_CHARGE>
0

> <PUBCHEM_SUBSTANCE_ID>
310943536

> <PUBCHEM_SUBSTANCE_VERSION>
1

> <PUBCHEM_EXT_DATASOURCE_NAME>
4488

> <PUBCHEM_EXT_DATASOURCE_REGID>
SCHEMBL16121602

> <PUBCHEM_SUBSTANCE_COMMENT>
InChI=1S/C26H27F3N4O4/c1-16(15-34)37-25-23(33-6-8-36-9-7-33)11-19(13-31-25)22-12-21(14-30-17(22)2)32-24(35)18-4-3-5-20(10-18)26(27,28)29/h3-5,10-14,16,34H,6-9,15H2,1-2H3,(H,32,35)/t16-/m0/s1
InChIKey=BALNMMOLSVQPFQ-INIZCTEOSA-N

> <PUBCHEM_SUBSTANCE_SYNONYM>
SCHEMBL16121602

> <PUBCHEM_XREF_EXT_ID>
SCHEMBL16121602

> <PUBCHEM_EXT_DATASOURCE_URL>
https://www.surechembl.org/

> <PUBCHEM_EXT_SUBSTANCE_URL>
https://www.surechembl.org/chemical/SCHEMBL16121602

> <PUBCHEM_CID_ASSOCIATIONS>
117609949  1

> <PUBCHEM_COORDINATE_TYPE>
1
3

> <PUBCHEM_BONDANNOTATIONS>
30  37  5

$$$$
