310933898
  -OEChem-07211613022D

 47 56  0     0  0  0  0  0  0999 V2000
    4.0640    1.0426    0.0000 S   0  0  0  0  0  0  0  0  0  0  0  0
    0.0000    0.8772    0.0000 O   0  0  0  0  0  0  0  0  0  0  0  0
    0.9645   -1.0054    0.0000 N   0  0  0  0  0  0  0  0  0  0  0  0
    2.0264   -0.0493    0.0000 N   0  0  0  0  0  0  0  0  0  0  0  0
    4.3097   -2.9089    0.0000 C   0  0  0  0  0  0  0  0  0  0  0  0
    4.2235   -2.0884    0.0000 C   0  0  0  0  0  0  0  0  0  0  0  0
    3.4165   -1.9169    0.0000 C   0  0  0  0  0  0  0  0  0  0  0  0
    3.5561   -3.2445    0.0000 C   0  0  0  0  0  0  0  0  0  0  0  0
    3.0040   -2.6314    0.0000 C   0  0  0  0  0  0  0  0  0  0  0  0
    4.8177    0.7070    0.0000 C   0  0  0  0  0  0  0  0  0  0  0  0
    5.3697    1.3201    0.0000 C   0  0  0  0  0  0  0  0  0  0  0  0
    5.0726   -0.0776    0.0000 C   0  0  0  0  0  0  0  0  0  0  0  0
    4.1503    1.8630    0.0000 C   0  0  0  0  0  0  0  0  0  0  0  0
    4.5206   -0.6907    0.0000 C   0  0  0  0  0  0  0  0  0  0  0  0
    4.9572    2.0346    0.0000 C   0  0  0  0  0  0  0  0  0  0  0  0
    4.7755   -1.4753    0.0000 C   0  0  0  0  0  0  0  0  0  0  0  0
    3.5982    2.4761    0.0000 C   0  0  0  0  0  0  0  0  0  0  0  0
    3.1616   -1.1322    0.0000 C   0  0  0  0  0  0  0  0  0  0  0  0
    3.7136   -0.5192    0.0000 C   0  0  0  0  0  0  0  0  0  0  0  0
    0.6674    0.3923    0.0000 C   0  0  0  0  0  0  0  0  0  0  0  0
    2.7913    2.3046    0.0000 C   0  0  0  0  0  0  0  0  0  0  0  0
    0.4125   -0.3923    0.0000 C   0  0  0  0  0  0  0  0  0  0  0  0
    3.3011   -4.0290    0.0000 C   0  0  0  0  0  0  0  0  0  0  0  0
    1.4744    0.5638    0.0000 C   0  0  0  0  0  0  0  0  0  0  0  0
    2.1971   -2.8029    0.0000 C   0  0  0  0  0  0  0  0  0  0  0  0
    6.1767    1.1486    0.0000 C   0  0  0  0  0  0  0  0  0  0  0  0
    5.8796   -0.2491    0.0000 C   0  0  0  0  0  0  0  0  0  0  0  0
   -0.4125   -0.3923    0.0000 C   0  0  0  0  0  0  0  0  0  0  0  0
    4.7222   -3.6234    0.0000 C   0  0  0  0  0  0  0  0  0  0  0  0
    5.1347   -2.9089    0.0000 C   0  0  0  0  0  0  0  0  0  0  0  0
    5.2121    2.8192    0.0000 C   0  0  0  0  0  0  0  0  0  0  0  0
    1.7294    1.3485    0.0000 C   0  0  0  0  0  0  0  0  0  0  0  0
   -0.6674    0.3923    0.0000 C   0  0  0  0  0  0  0  0  0  0  0  0
    3.8531    3.2607    0.0000 C   0  0  0  0  0  0  0  0  0  0  0  0
    2.5363    1.5200    0.0000 C   0  0  0  0  0  0  0  0  0  0  0  0
    6.4316    0.3639    0.0000 C   0  0  0  0  0  0  0  0  0  0  0  0
    4.6601    3.4323    0.0000 C   0  0  0  0  0  0  0  0  0  0  0  0
    2.4941   -4.2006    0.0000 C   0  0  0  0  0  0  0  0  0  0  0  0
    1.9421   -3.5875    0.0000 C   0  0  0  0  0  0  0  0  0  0  0  0
    2.2392    2.9177    0.0000 C   0  0  0  0  0  0  0  0  0  0  0  0
    1.1773    1.9615    0.0000 C   0  0  0  0  0  0  0  0  0  0  0  0
   -0.9645   -1.0054    0.0000 C   0  0  0  0  0  0  0  0  0  0  0  0
    1.7715   -0.8339    0.0000 C   0  0  0  0  0  0  0  0  0  0  0  0
   -1.4744    0.5638    0.0000 C   0  0  0  0  0  0  0  0  0  0  0  0
    1.4322    2.7462    0.0000 C   0  0  0  0  0  0  0  0  0  0  0  0
   -1.7715   -0.8339    0.0000 C   0  0  0  0  0  0  0  0  0  0  0  0
   -2.0264   -0.0493    0.0000 C   0  0  0  0  0  0  0  0  0  0  0  0
  1 10  1  0  0  0  0
  1 13  1  0  0  0  0
  2 20  1  0  0  0  0
  2 33  1  0  0  0  0
  3 22  2  0  0  0  0
  3 43  1  0  0  0  0
  4 24  1  0  0  0  0
  4 43  2  0  0  0  0
  5  6  1  0  0  0  0
  5  8  1  0  0  0  0
  5 29  1  0  0  0  0
  5 30  1  0  0  0  0
  6  7  2  0  0  0  0
  6 16  1  0  0  0  0
  7  9  1  0  0  0  0
  7 18  1  0  0  0  0
  8  9  2  0  0  0  0
  8 23  1  0  0  0  0
  9 25  1  0  0  0  0
 10 11  1  0  0  0  0
 10 12  2  0  0  0  0
 11 15  1  0  0  0  0
 11 26  2  0  0  0  0
 12 14  1  0  0  0  0
 12 27  1  0  0  0  0
 13 15  1  0  0  0  0
 13 17  2  0  0  0  0
 14 16  2  0  0  0  0
 14 19  1  0  0  0  0
 15 31  2  0  0  0  0
 17 21  1  0  0  0  0
 17 34  1  0  0  0  0
 18 19  2  0  0  0  0
 20 22  1  0  0  0  0
 20 24  2  0  0  0  0
 21 35  2  0  0  0  0
 21 40  1  0  0  0  0
 22 28  1  0  0  0  0
 23 38  2  0  0  0  0
 24 32  1  0  0  0  0
 25 39  2  0  0  0  0
 26 36  1  0  0  0  0
 27 36  2  0  0  0  0
 28 33  1  0  0  0  0
 28 42  2  0  0  0  0
 31 37  1  0  0  0  0
 32 35  1  0  0  0  0
 32 41  2  0  0  0  0
 33 44  2  0  0  0  0
 34 37  2  0  0  0  0
 38 39  1  0  0  0  0
 40 45  2  0  0  0  0
 41 45  1  0  0  0  0
 42 46  1  0  0  0  0
 44 47  1  0  0  0  0
 46 47  2  0  0  0  0
M  END
> <PUBCHEM_COMPOUND_ID_TYPE>
0

> <PUBCHEM_TOTAL_CHARGE>
0

> <PUBCHEM_SUBSTANCE_ID>
310933898

> <PUBCHEM_SUBSTANCE_VERSION>
1

> <PUBCHEM_EXT_DATASOURCE_NAME>
4488

> <PUBCHEM_EXT_DATASOURCE_REGID>
SCHEMBL16111337

> <PUBCHEM_SUBSTANCE_COMMENT>
InChI=1S/C43H28N2OS/c1-43(2)35-18-5-3-12-30(35)31-21-20-26(23-36(31)43)29-15-9-17-33-32-16-8-14-28(41(32)47-42(29)33)25-10-7-11-27(22-25)38-40-39(45-24-44-38)34-13-4-6-19-37(34)46-40/h3-24H,1-2H3
InChIKey=RUZNMIQJGKOGAY-UHFFFAOYSA-N

> <PUBCHEM_SUBSTANCE_SYNONYM>
SCHEMBL16111337

> <PUBCHEM_XREF_EXT_ID>
SCHEMBL16111337

> <PUBCHEM_EXT_DATASOURCE_URL>
https://www.surechembl.org/

> <PUBCHEM_EXT_SUBSTANCE_URL>
https://www.surechembl.org/chemical/SCHEMBL16111337

> <PUBCHEM_CID_ASSOCIATIONS>
117602228  1

> <PUBCHEM_COORDINATE_TYPE>
1
3

$$$$
