310934748
  -OEChem-07211613022D

 28 31  0     1  0  0  0  0  0999 V2000
   -4.2868    2.0625    0.0000 O   0  0  0  0  0  0  0  0  0  0  0  0
   -7.6124    0.7912    0.0000 O   0  0  0  0  0  0  0  0  0  0  0  0
   -7.4631    2.2124    0.0000 O   0  0  0  0  0  0  0  0  0  0  0  0
    0.0000    0.4125    0.0000 N   0  0  0  0  0  0  0  0  0  0  0  0
   -6.3070    1.3724    0.0000 N   0  0  0  0  0  0  0  0  0  0  0  0
   -0.7145   -0.8250    0.0000 N   0  0  0  0  0  0  0  0  0  0  0  0
   -2.8579    0.4125    0.0000 N   0  0  0  0  0  0  0  0  0  0  0  0
    0.7846    0.6674    0.0000 N   0  0  0  0  0  0  0  0  0  0  0  0
   -1.4290    0.4125    0.0000 C   0  0  0  0  0  0  0  0  0  0  0  0
   -2.1434    0.8250    0.0000 C   0  0  0  0  0  0  0  0  0  0  0  0
    0.0000   -0.4125    0.0000 C   0  0  0  0  0  0  0  0  0  0  0  0
   -0.7145    0.8250    0.0000 C   0  0  0  0  0  0  0  0  0  0  0  0
   -5.0013    1.6500    0.0000 C   0  0  3  0  0  0  0  0  0  0  0  0
   -3.5724    1.6500    0.0000 C   0  0  0  0  0  0  0  0  0  0  0  0
   -1.4290   -0.4125    0.0000 C   0  0  0  0  0  0  0  0  0  0  0  0
   -5.7550    1.9855    0.0000 C   0  0  0  0  0  0  0  0  0  0  0  0
   -7.1275    1.4587    0.0000 C   0  0  0  0  0  0  0  0  0  0  0  0
   -2.1434    1.6500    0.0000 C   0  0  0  0  0  0  0  0  0  0  0  0
    0.7846   -0.6674    0.0000 C   0  0  0  0  0  0  0  0  0  0  0  0
   -5.8945    0.6580    0.0000 C   0  0  0  0  0  0  0  0  0  0  0  0
   -5.0875    0.8295    0.0000 C   0  0  0  0  0  0  0  0  0  0  0  0
   -3.5724    0.8250    0.0000 C   0  0  0  0  0  0  0  0  0  0  0  0
   -2.8579    2.0625    0.0000 C   0  0  0  0  0  0  0  0  0  0  0  0
    1.2696    0.0000    0.0000 C   0  0  0  0  0  0  0  0  0  0  0  0
   -8.4329    0.8775    0.0000 C   0  0  0  0  0  0  0  0  0  0  0  0
   -9.2534    0.9637    0.0000 C   0  0  0  0  0  0  0  0  0  0  0  0
   -8.7685    1.6311    0.0000 C   0  0  0  0  0  0  0  0  0  0  0  0
   -8.9178    0.2101    0.0000 C   0  0  0  0  0  0  0  0  0  0  0  0
 13  1  1  6  0  0  0
  1 14  1  0  0  0  0
  2 17  1  0  0  0  0
  2 25  1  0  0  0  0
  3 17  2  0  0  0  0
  4  8  1  0  0  0  0
  4 11  1  0  0  0  0
  4 12  1  0  0  0  0
  5 16  1  0  0  0  0
  5 17  1  0  0  0  0
  5 20  1  0  0  0  0
  6 11  1  0  0  0  0
  6 15  2  0  0  0  0
  7 10  1  0  0  0  0
  7 22  2  0  0  0  0
  8 24  2  0  0  0  0
  9 10  1  0  0  0  0
  9 12  2  0  0  0  0
  9 15  1  0  0  0  0
 10 18  2  0  0  0  0
 11 19  2  0  0  0  0
 13 16  1  0  0  0  0
 13 21  1  0  0  0  0
 14 22  1  0  0  0  0
 14 23  2  0  0  0  0
 18 23  1  0  0  0  0
 19 24  1  0  0  0  0
 20 21  1  0  0  0  0
 25 26  1  0  0  0  0
 25 27  1  0  0  0  0
 25 28  1  0  0  0  0
M  END
> <PUBCHEM_COMPOUND_ID_TYPE>
0

> <PUBCHEM_TOTAL_CHARGE>
0

> <PUBCHEM_SUBSTANCE_ID>
310934748

> <PUBCHEM_SUBSTANCE_VERSION>
1

> <PUBCHEM_EXT_DATASOURCE_NAME>
4488

> <PUBCHEM_EXT_DATASOURCE_REGID>
SCHEMBL16112249

> <PUBCHEM_SUBSTANCE_COMMENT>
InChI=1S/C20H23N5O3/c1-20(2,3)28-19(26)24-9-7-16(13-24)27-15-4-5-17(21-11-15)14-10-22-18-6-8-23-25(18)12-14/h4-6,8,10-12,16H,7,9,13H2,1-3H3/t16-/m1/s1
InChIKey=ODKAUXRORBXCMT-MRXNPFEDSA-N

> <PUBCHEM_SUBSTANCE_SYNONYM>
SCHEMBL16112249

> <PUBCHEM_XREF_EXT_ID>
SCHEMBL16112249

> <PUBCHEM_EXT_DATASOURCE_URL>
https://www.surechembl.org/

> <PUBCHEM_EXT_SUBSTANCE_URL>
https://www.surechembl.org/chemical/SCHEMBL16112249

> <PUBCHEM_CID_ASSOCIATIONS>
117602900  1

> <PUBCHEM_COORDINATE_TYPE>
1
3

> <PUBCHEM_BONDANNOTATIONS>
13  1  6

$$$$
