310938013
  -OEChem-07211613022D

 18 19  0     0  0  0  0  0  0999 V2000
    5.3046   -1.4783    0.0000 O   0  0  0  0  0  0  0  0  0  0  0  0
    5.3046   -2.8914    0.0000 O   0  0  0  0  0  0  0  0  0  0  0  0
    3.6089   -2.8480    0.0000 N   0  0  0  0  0  0  0  0  0  0  0  0
    0.8479   -0.3696    0.0000 N   0  0  0  0  0  0  0  0  0  0  0  0
    2.8262   -1.7827    0.0000 C   0  0  0  0  0  0  0  0  0  0  0  0
    3.6089   -1.5218    0.0000 C   0  0  0  0  0  0  0  0  0  0  0  0
    4.0872   -2.1958    0.0000 C   0  0  0  0  0  0  0  0  0  0  0  0
    2.1740   -1.3044    0.0000 C   0  0  0  0  0  0  0  0  0  0  0  0
    2.8262   -2.5870    0.0000 C   0  0  0  0  0  0  0  0  0  0  0  0
    4.8915   -2.1958    0.0000 C   0  0  0  0  0  0  0  0  0  0  0  0
    1.4131   -1.6522    0.0000 C   0  0  0  0  0  0  0  0  0  0  0  0
    2.2610   -0.5218    0.0000 C   0  0  0  0  0  0  0  0  0  0  0  0
    3.8697   -0.7391    0.0000 C   0  0  0  0  0  0  0  0  0  0  0  0
    0.7609   -1.1522    0.0000 C   0  0  0  0  0  0  0  0  0  0  0  0
    1.6088    0.0000    0.0000 C   0  0  0  0  0  0  0  0  0  0  0  0
    6.1090   -1.4783    0.0000 C   0  0  0  0  0  0  0  0  0  0  0  0
    0.0000   -1.4783    0.0000 C   0  0  0  0  0  0  0  0  0  0  0  0
    6.5220   -0.7609    0.0000 C   0  0  0  0  0  0  0  0  0  0  0  0
  1 10  1  0  0  0  0
  1 16  1  0  0  0  0
  2 10  2  0  0  0  0
  3  7  1  0  0  0  0
  3  9  1  0  0  0  0
  4 14  1  0  0  0  0
  4 15  2  0  0  0  0
  5  6  1  0  0  0  0
  5  8  1  0  0  0  0
  5  9  2  0  0  0  0
  6  7  2  0  0  0  0
  6 13  1  0  0  0  0
  7 10  1  0  0  0  0
  8 11  1  0  0  0  0
  8 12  2  0  0  0  0
 11 14  2  0  0  0  0
 12 15  1  0  0  0  0
 14 17  1  0  0  0  0
 16 18  1  0  0  0  0
M  END
> <PUBCHEM_COMPOUND_ID_TYPE>
0

> <PUBCHEM_TOTAL_CHARGE>
0

> <PUBCHEM_SUBSTANCE_ID>
310938013

> <PUBCHEM_SUBSTANCE_VERSION>
1

> <PUBCHEM_EXT_DATASOURCE_NAME>
4488

> <PUBCHEM_EXT_DATASOURCE_REGID>
SCHEMBL16115853

> <PUBCHEM_SUBSTANCE_COMMENT>
InChI=1S/C14H16N2O2/c1-4-18-14(17)13-10(3)12(8-16-13)11-5-6-15-9(2)7-11/h5-8,16H,4H2,1-3H3
InChIKey=OKQNFQHBHSZJSN-UHFFFAOYSA-N

> <PUBCHEM_SUBSTANCE_SYNONYM>
SCHEMBL16115853

> <PUBCHEM_XREF_EXT_ID>
SCHEMBL16115853

> <PUBCHEM_EXT_DATASOURCE_URL>
https://www.surechembl.org/

> <PUBCHEM_EXT_SUBSTANCE_URL>
https://www.surechembl.org/chemical/SCHEMBL16115853

> <PUBCHEM_CID_ASSOCIATIONS>
117605606  1

> <PUBCHEM_COORDINATE_TYPE>
1
3

$$$$
