310932708
  -OEChem-07211613022D

  8  8  0     0  0  0  0  0  0999 V2000
   -1.4682   -0.0770    0.0000 O   0  0  0  0  0  0  0  0  0  0  0  0
   -1.6077   -1.4045    0.0000 O   0  0  0  0  0  0  0  0  0  0  0  0
   -2.8407   -0.6038    0.0000 O   0  0  0  0  0  0  0  0  0  0  0  0
    0.7145    0.4125    0.0000 N   0  0  0  0  0  0  0  0  0  0  0  0
   -0.7145   -0.4125    0.0000 C   0  0  0  0  0  0  0  0  0  0  0  0
   -2.0202   -0.6901    0.0000 C   0  0  0  0  0  0  0  0  0  0  0  0
   -0.8007   -1.2330    0.0000 C   0  0  0  0  0  0  0  0  0  0  0  0
    0.0000    0.0000    0.0000 C   0  0  0  0  0  0  0  0  0  0  0  0
  1  5  1  0  0  0  0
  1  6  1  0  0  0  0
  2  6  1  0  0  0  0
  2  7  1  0  0  0  0
  3  6  2  0  0  0  0
  4  8  3  0  0  0  0
  5  7  2  0  0  0  0
  5  8  1  0  0  0  0
M  END
> <PUBCHEM_COMPOUND_ID_TYPE>
0

> <PUBCHEM_TOTAL_CHARGE>
0

> <PUBCHEM_SUBSTANCE_ID>
310932708

> <PUBCHEM_SUBSTANCE_VERSION>
1

> <PUBCHEM_EXT_DATASOURCE_NAME>
4488

> <PUBCHEM_EXT_DATASOURCE_REGID>
SCHEMBL16110090

> <PUBCHEM_SUBSTANCE_COMMENT>
InChI=1S/C4HNO3/c5-1-3-2-7-4(6)8-3/h2H
InChIKey=QPYPOMASAMFEHB-UHFFFAOYSA-N

> <PUBCHEM_SUBSTANCE_SYNONYM>
SCHEMBL16110090

> <PUBCHEM_XREF_EXT_ID>
SCHEMBL16110090

> <PUBCHEM_EXT_DATASOURCE_URL>
https://www.surechembl.org/

> <PUBCHEM_EXT_SUBSTANCE_URL>
https://www.surechembl.org/chemical/SCHEMBL16110090

> <PUBCHEM_CID_ASSOCIATIONS>
117601215  1

> <PUBCHEM_COORDINATE_TYPE>
1
3

$$$$
