310945292
  -OEChem-07211613022D

 15 15  0     0  0  0  0  0  0999 V2000
   -1.0058    0.2202    0.0000 S   0  0  0  0  0  0  0  0  0  0  0  0
    2.9736   -1.1258    0.0000 O   0  0  0  0  0  0  0  0  0  0  0  0
    2.3828   -2.0973    0.0000 O   0  0  0  0  0  0  0  0  0  0  0  0
   -0.9870    1.8345    0.0000 N   0  0  0  0  0  0  0  0  0  0  0  0
    0.5710    1.0273    0.0000 N   0  0  0  0  0  0  0  0  0  0  0  0
   -3.5775    1.6093    0.0000 N   0  0  0  0  0  0  0  0  0  0  0  0
   -0.4239    1.0273    0.0000 C   0  0  0  0  0  0  0  0  0  0  0  0
   -1.9069    1.5341    0.0000 C   0  0  0  0  0  0  0  0  0  0  0  0
    2.3828   -1.4671    0.0000 C   0  0  0  0  0  0  0  0  0  0  0  0
    2.9867   -0.4694    0.0000 C   0  0  0  0  0  0  0  0  0  0  0  0
   -1.9256    0.5393    0.0000 C   0  0  0  0  0  0  0  0  0  0  0  0
   -2.7328    2.0973    0.0000 C   0  0  0  0  0  0  0  0  0  0  0  0
    3.5775   -0.4431    0.0000 C   0  0  0  0  0  0  0  0  0  0  0  0
    2.3828   -0.4694    0.0000 C   0  0  0  0  0  0  0  0  0  0  0  0
    2.9736    0.1739    0.0000 C   0  0  0  0  0  0  0  0  0  0  0  0
  1  7  1  0  0  0  0
  1 11  1  0  0  0  0
  2  9  1  0  0  0  0
  2 10  1  0  0  0  0
  3  9  2  0  0  0  0
  4  7  2  0  0  0  0
  4  8  1  0  0  0  0
  5  7  1  0  0  0  0
  5  9  1  0  0  0  0
  6 12  1  0  0  0  0
  8 11  2  0  0  0  0
  8 12  1  0  0  0  0
 10 13  1  0  0  0  0
 10 14  1  0  0  0  0
 10 15  1  0  0  0  0
M  END
> <PUBCHEM_COMPOUND_ID_TYPE>
0

> <PUBCHEM_TOTAL_CHARGE>
0

> <PUBCHEM_SUBSTANCE_ID>
310945292

> <PUBCHEM_SUBSTANCE_VERSION>
1

> <PUBCHEM_EXT_DATASOURCE_NAME>
4488

> <PUBCHEM_EXT_DATASOURCE_REGID>
SCHEMBL16123390

> <PUBCHEM_SUBSTANCE_COMMENT>
InChI=1S/C9H15N3O2S/c1-9(2,3)14-8(13)12-7-11-6(4-10)5-15-7/h5H,4,10H2,1-3H3,(H,11,12,13)
InChIKey=SEKNAIFIARYMTJ-UHFFFAOYSA-N

> <PUBCHEM_SUBSTANCE_SYNONYM>
SCHEMBL16123390

> <PUBCHEM_XREF_EXT_ID>
SCHEMBL16123390

> <PUBCHEM_EXT_DATASOURCE_URL>
https://www.surechembl.org/

> <PUBCHEM_EXT_SUBSTANCE_URL>
https://www.surechembl.org/chemical/SCHEMBL16123390

> <PUBCHEM_CID_ASSOCIATIONS>
53397224  1

> <PUBCHEM_COORDINATE_TYPE>
1
3

$$$$
