310929916
  -OEChem-07211613022D

 25 26  0     1  0  0  0  0  0999 V2000
    1.3592   -4.2589    0.0000 S   0  0  0  0  0  0  0  0  0  0  0  0
    0.7249   -2.7185    0.0000 O   0  0  0  0  0  0  0  0  0  0  0  0
    0.6947   -3.7454    0.0000 O   0  0  0  0  0  0  0  0  0  0  0  0
    2.0238   -4.7724    0.0000 O   0  0  0  0  0  0  0  0  0  0  0  0
    1.6612    0.0000    0.0000 O   0  0  0  0  0  0  0  0  0  0  0  0
    2.8997   -0.7249    0.0000 O   0  0  0  0  0  0  0  0  0  0  0  0
    1.6612   -1.4498    0.0000 N   0  0  0  0  0  0  0  0  0  0  0  0
    1.8727   -3.5944    0.0000 N   0  0  0  0  0  0  0  0  0  0  0  0
    2.0841   -2.1747    0.0000 C   0  0  3  0  0  0  0  0  0  0  0  0
    2.8695   -2.0539    0.0000 C   0  0  3  0  0  0  0  0  0  0  0  0
    0.8457   -4.8932    0.0000 C   0  0  0  0  0  0  0  0  0  0  0  0
    2.5976   -2.8393    0.0000 C   0  0  0  0  0  0  0  0  0  0  0  0
    1.5706   -2.8091    0.0000 C   0  0  0  0  0  0  0  0  0  0  0  0
    0.8156   -1.4498    0.0000 C   0  0  0  0  0  0  0  0  0  0  0  0
    0.7551   -5.7087    0.0000 C   0  0  0  0  0  0  0  0  0  0  0  0
    0.0906   -5.2254    0.0000 C   0  0  0  0  0  0  0  0  0  0  0  0
    1.6311   -5.2254    0.0000 C   0  0  0  0  0  0  0  0  0  0  0  0
    2.0841   -0.7249    0.0000 C   0  0  0  0  0  0  0  0  0  0  0  0
    3.5340   -1.5405    0.0000 C   0  0  0  0  0  0  0  0  0  0  0  0
    0.8156   -0.6041    0.0000 C   0  0  0  0  0  0  0  0  0  0  0  0
    0.0000   -1.4498    0.0000 C   0  0  0  0  0  0  0  0  0  0  0  0
    0.8156   -2.2653    0.0000 C   0  0  0  0  0  0  0  0  0  0  0  0
    2.2956   -4.7120    0.0000 C   0  0  0  0  0  0  0  0  0  0  0  0
    1.7217   -6.0410    0.0000 C   0  0  0  0  0  0  0  0  0  0  0  0
    3.4132   -0.7249    0.0000 C   0  0  0  0  0  0  0  0  0  0  0  0
  1  3  2  0  0  0  0
  1  4  2  0  0  0  0
  1  8  1  0  0  0  0
  1 11  1  0  0  0  0
  2 13  2  0  0  0  0
  5 18  2  0  0  0  0
  6 18  1  0  0  0  0
  9  7  1  1  0  0  0
  7 14  1  0  0  0  0
  7 18  1  0  0  0  0
  8 13  1  0  0  0  0
  9 10  1  0  0  0  0
  9 12  1  0  0  0  0
  9 13  1  6  0  0  0
 10 12  1  0  0  0  0
 10 19  1  6  0  0  0
 11 15  1  0  0  0  0
 11 16  1  0  0  0  0
 11 17  1  0  0  0  0
 14 20  1  0  0  0  0
 14 21  1  0  0  0  0
 14 22  1  0  0  0  0
 15 16  1  0  0  0  0
 17 23  2  0  0  0  0
 17 24  1  0  0  0  0
 19 25  2  0  0  0  0
M  END
> <PUBCHEM_COMPOUND_ID_TYPE>
0

> <PUBCHEM_TOTAL_CHARGE>
0

> <PUBCHEM_SUBSTANCE_ID>
310929916

> <PUBCHEM_SUBSTANCE_VERSION>
1

> <PUBCHEM_EXT_DATASOURCE_NAME>
4488

> <PUBCHEM_EXT_DATASOURCE_REGID>
SCHEMBL16107133

> <PUBCHEM_SUBSTANCE_COMMENT>
InChI=1S/C17H26N2O5S/c1-7-12-10-17(12,19(14(21)22)15(4,5)6)13(20)18-25(23,24)16(8-9-16)11(2)3/h7,12H,1-2,8-10H2,3-6H3,(H,18,20)(H,21,22)/t12-,17-/m1/s1
InChIKey=VYLNGKPIZXKGPQ-SJKOYZFVSA-N

> <PUBCHEM_SUBSTANCE_SYNONYM>
SCHEMBL16107133

> <PUBCHEM_XREF_EXT_ID>
SCHEMBL16107133

> <PUBCHEM_EXT_DATASOURCE_URL>
https://www.surechembl.org/

> <PUBCHEM_EXT_SUBSTANCE_URL>
https://www.surechembl.org/chemical/SCHEMBL16107133

> <PUBCHEM_CID_ASSOCIATIONS>
117599178  1

> <PUBCHEM_COORDINATE_TYPE>
1
3

> <PUBCHEM_BONDANNOTATIONS>
10  19  6
9  7  5
9  13  6

$$$$
