310940652
  -OEChem-07211613022D

 17 18  0     1  0  0  0  0  0999 V2000
    1.1777   -2.3721    0.0000 O   0  0  0  0  0  0  0  0  0  0  0  0
    1.2450   -0.8748    0.0000 O   0  0  0  0  0  0  0  0  0  0  0  0
   -0.8580   -2.9274    0.0000 O   0  0  0  0  0  0  0  0  0  0  0  0
    0.0336   -1.6823    0.0000 N   0  0  0  0  0  0  0  0  0  0  0  0
    0.5215    2.9274    0.0000 N   0  0  0  0  0  0  0  0  0  0  0  0
   -0.5552   -1.0935    0.0000 C   0  0  3  0  0  0  0  0  0  0  0  0
    0.8076   -1.5983    0.0000 C   0  0  0  0  0  0  0  0  0  0  0  0
   -0.1514   -2.4899    0.0000 C   0  0  0  0  0  0  0  0  0  0  0  0
   -0.3533   -0.2691    0.0000 C   0  0  0  0  0  0  0  0  0  0  0  0
    0.5552   -2.9274    0.0000 C   0  0  0  0  0  0  0  0  0  0  0  0
   -0.9085    0.3196    0.0000 C   0  0  0  0  0  0  0  0  0  0  0  0
    0.4542   -0.0504    0.0000 C   0  0  0  0  0  0  0  0  0  0  0  0
   -1.2450   -1.2786    0.0000 C   0  0  0  0  0  0  0  0  0  0  0  0
    0.0673    1.3290    0.0000 C   0  0  0  0  0  0  0  0  0  0  0  0
   -0.7234    1.0935    0.0000 C   0  0  0  0  0  0  0  0  0  0  0  0
    0.6562    0.7403    0.0000 C   0  0  0  0  0  0  0  0  0  0  0  0
    0.3028    2.0862    0.0000 C   0  0  0  0  0  0  0  0  0  0  0  0
  1  7  1  0  0  0  0
  1 10  1  0  0  0  0
  2  7  2  0  0  0  0
  3  8  2  0  0  0  0
  4  6  1  0  0  0  0
  4  7  1  0  0  0  0
  4  8  1  0  0  0  0
  5 17  3  0  0  0  0
  6  9  1  0  0  0  0
  6 13  1  6  0  0  0
  8 10  1  0  0  0  0
  9 11  2  0  0  0  0
  9 12  1  0  0  0  0
 11 15  1  0  0  0  0
 12 16  2  0  0  0  0
 14 15  2  0  0  0  0
 14 16  1  0  0  0  0
 14 17  1  0  0  0  0
M  END
> <PUBCHEM_COMPOUND_ID_TYPE>
0

> <PUBCHEM_TOTAL_CHARGE>
0

> <PUBCHEM_SUBSTANCE_ID>
310940652

> <PUBCHEM_SUBSTANCE_VERSION>
1

> <PUBCHEM_EXT_DATASOURCE_NAME>
4488

> <PUBCHEM_EXT_DATASOURCE_REGID>
SCHEMBL16118607

> <PUBCHEM_SUBSTANCE_COMMENT>
InChI=1S/C12H10N2O3/c1-8(14-11(15)7-17-12(14)16)10-4-2-9(6-13)3-5-10/h2-5,8H,7H2,1H3/t8-/m1/s1
InChIKey=MPRWSWAFALSFBS-MRVPVSSYSA-N

> <PUBCHEM_SUBSTANCE_SYNONYM>
SCHEMBL16118607

> <PUBCHEM_XREF_EXT_ID>
SCHEMBL16118607

> <PUBCHEM_EXT_DATASOURCE_URL>
https://www.surechembl.org/

> <PUBCHEM_EXT_SUBSTANCE_URL>
https://www.surechembl.org/chemical/SCHEMBL16118607

> <PUBCHEM_CID_ASSOCIATIONS>
117607629  1

> <PUBCHEM_COORDINATE_TYPE>
1
3

> <PUBCHEM_BONDANNOTATIONS>
6  13  6

$$$$
