310934598
  -OEChem-07211613022D

 28 30  0     0  0  0  0  0  0999 V2000
    4.2459   -4.1067    0.0000 O   0  0  0  0  0  0  0  0  0  0  0  0
    2.8886   -3.2714    0.0000 O   0  0  0  0  0  0  0  0  0  0  0  0
    5.6728   -4.9419    0.0000 O   0  0  0  0  0  0  0  0  0  0  0  0
    4.2459    0.0000    0.0000 O   0  0  0  0  0  0  0  0  0  0  0  0
    3.5498   -4.5243    0.0000 N   0  0  0  0  0  0  0  0  0  0  0  0
    4.9767   -1.2529    0.0000 N   0  0  0  0  0  0  0  0  0  0  0  0
    5.6728   -4.1067    0.0000 N   0  0  0  0  0  0  0  0  0  0  0  0
    4.9767   -2.8886    0.0000 C   0  0  0  0  0  0  0  0  0  0  0  0
    4.9767   -3.6890    0.0000 C   0  0  0  0  0  0  0  0  0  0  0  0
    4.2459   -3.2714    0.0000 C   0  0  0  0  0  0  0  0  0  0  0  0
    5.7076   -2.4710    0.0000 C   0  0  0  0  0  0  0  0  0  0  0  0
    4.2807   -2.4710    0.0000 C   0  0  0  0  0  0  0  0  0  0  0  0
    4.4199   -4.2807    0.0000 C   0  0  0  0  0  0  0  0  0  0  0  0
    5.7076   -1.6357    0.0000 C   0  0  0  0  0  0  0  0  0  0  0  0
    4.2807   -1.6357    0.0000 C   0  0  0  0  0  0  0  0  0  0  0  0
    2.8538   -4.1067    0.0000 C   0  0  0  0  0  0  0  0  0  0  0  0
    2.1230   -5.3248    0.0000 C   0  0  0  0  0  0  0  0  0  0  0  0
    2.1230   -4.4895    0.0000 C   0  0  0  0  0  0  0  0  0  0  0  0
    3.5498   -5.3596    0.0000 C   0  0  0  0  0  0  0  0  0  0  0  0
    1.4269   -5.7424    0.0000 C   0  0  0  0  0  0  0  0  0  0  0  0
    4.9767   -0.4176    0.0000 C   0  0  0  0  0  0  0  0  0  0  0  0
    2.8190   -5.7424    0.0000 C   0  0  0  0  0  0  0  0  0  0  0  0
    1.4269   -6.5429    0.0000 C   0  0  0  0  0  0  0  0  0  0  0  0
    0.6961   -5.3248    0.0000 C   0  0  0  0  0  0  0  0  0  0  0  0
    5.6728    0.0000    0.0000 C   0  0  0  0  0  0  0  0  0  0  0  0
    0.6961   -6.9605    0.0000 C   0  0  0  0  0  0  0  0  0  0  0  0
    0.0000   -5.7424    0.0000 C   0  0  0  0  0  0  0  0  0  0  0  0
    0.0000   -6.5429    0.0000 C   0  0  0  0  0  0  0  0  0  0  0  0
  1  9  2  0  0  0  0
  2 16  2  0  0  0  0
  3  7  1  0  0  0  0
  4 21  2  0  0  0  0
  5 13  1  0  0  0  0
  5 16  1  0  0  0  0
  5 19  1  0  0  0  0
  6 14  1  0  0  0  0
  6 15  1  0  0  0  0
  6 21  1  0  0  0  0
  7  9  1  0  0  0  0
  8  9  1  0  0  0  0
  8 10  1  0  0  0  0
  8 11  1  0  0  0  0
  8 12  1  0  0  0  0
 10 13  1  0  0  0  0
 11 14  1  0  0  0  0
 12 15  1  0  0  0  0
 16 18  1  0  0  0  0
 17 18  2  0  0  0  0
 17 20  1  0  0  0  0
 17 22  1  0  0  0  0
 19 22  2  0  0  0  0
 20 23  2  0  0  0  0
 20 24  1  0  0  0  0
 21 25  1  0  0  0  0
 23 26  1  0  0  0  0
 24 27  2  0  0  0  0
 26 28  2  0  0  0  0
 27 28  1  0  0  0  0
M  END
> <PUBCHEM_COMPOUND_ID_TYPE>
0

> <PUBCHEM_TOTAL_CHARGE>
0

> <PUBCHEM_SUBSTANCE_ID>
310934598

> <PUBCHEM_SUBSTANCE_VERSION>
1

> <PUBCHEM_EXT_DATASOURCE_NAME>
4488

> <PUBCHEM_EXT_DATASOURCE_REGID>
SCHEMBL16112091

> <PUBCHEM_SUBSTANCE_COMMENT>
InChI=1S/C21H25N3O4/c1-16(25)23-12-8-21(9-13-23,20(27)22-28)10-14-24-11-7-18(15-19(24)26)17-5-3-2-4-6-17/h2-7,11,15,28H,8-10,12-14H2,1H3,(H,22,27)
InChIKey=DGXMWHJISAVEOJ-UHFFFAOYSA-N

> <PUBCHEM_SUBSTANCE_SYNONYM>
SCHEMBL16112091

> <PUBCHEM_XREF_EXT_ID>
SCHEMBL16112091

> <PUBCHEM_EXT_DATASOURCE_URL>
https://www.surechembl.org/

> <PUBCHEM_EXT_SUBSTANCE_URL>
https://www.surechembl.org/chemical/SCHEMBL16112091

> <PUBCHEM_CID_ASSOCIATIONS>
117602779  1

> <PUBCHEM_COORDINATE_TYPE>
1
3

$$$$
