310932985
  -OEChem-07211613022D

 29 31  0     0  0  0  0  0  0999 V2000
    2.8474   -2.1197    0.0000 O   0  0  0  0  0  0  0  0  0  0  0  0
    0.1266   -2.3729    0.0000 O   0  0  0  0  0  0  0  0  0  0  0  0
    7.3400   -2.2147    0.0000 O   0  0  0  0  0  0  0  0  0  0  0  0
    3.7649   -0.9808    0.0000 N   0  0  0  0  0  0  0  0  0  0  0  0
    3.6700   -0.1582    0.0000 N   0  0  0  0  0  0  0  0  0  0  0  0
    5.1887   -0.9808    0.0000 N   0  0  0  0  0  0  0  0  0  0  0  0
    0.0000   -0.9808    0.0000 N   0  0  0  0  0  0  0  0  0  0  0  0
    6.6123   -3.4485    0.0000 N   0  0  0  0  0  0  0  0  0  0  0  0
    8.0677   -5.9163    0.0000 N   0  0  0  0  0  0  0  0  0  0  0  0
    2.4361   -0.6961    0.0000 C   0  0  0  0  0  0  0  0  0  0  0  0
    3.0056   -1.2972    0.0000 C   0  0  0  0  0  0  0  0  0  0  0  0
    4.4610   -1.3921    0.0000 C   0  0  0  0  0  0  0  0  0  0  0  0
    1.6136   -0.7909    0.0000 C   0  0  0  0  0  0  0  0  0  0  0  0
    2.8474    0.0000    0.0000 C   0  0  0  0  0  0  0  0  0  0  0  0
    4.4610   -2.2147    0.0000 C   0  0  0  0  0  0  0  0  0  0  0  0
    1.2972   -1.5819    0.0000 C   0  0  0  0  0  0  0  0  0  0  0  0
    5.9163   -2.2147    0.0000 C   0  0  0  0  0  0  0  0  0  0  0  0
    1.1706   -0.1582    0.0000 C   0  0  0  0  0  0  0  0  0  0  0  0
    0.4746   -1.6452    0.0000 C   0  0  0  0  0  0  0  0  0  0  0  0
    5.9163   -1.3921    0.0000 C   0  0  0  0  0  0  0  0  0  0  0  0
    5.1887   -2.6260    0.0000 C   0  0  0  0  0  0  0  0  0  0  0  0
    6.6123   -2.6260    0.0000 C   0  0  0  0  0  0  0  0  0  0  0  0
    0.3164   -0.2215    0.0000 C   0  0  0  0  0  0  0  0  0  0  0  0
    7.3400   -3.8599    0.0000 C   0  0  0  0  0  0  0  0  0  0  0  0
    0.6011   -3.0372    0.0000 C   0  0  0  0  0  0  0  0  0  0  0  0
    7.3400   -4.6824    0.0000 C   0  0  0  0  0  0  0  0  0  0  0  0
    8.0677   -5.0937    0.0000 C   0  0  0  0  0  0  0  0  0  0  0  0
    7.3717   -6.3276    0.0000 C   0  0  0  0  0  0  0  0  0  0  0  0
    8.7954   -6.2960    0.0000 C   0  0  0  0  0  0  0  0  0  0  0  0
  1 11  1  0  0  0  0
  2 19  1  0  0  0  0
  2 25  1  0  0  0  0
  3 22  2  0  0  0  0
  4  5  1  0  0  0  0
  4 11  1  0  0  0  0
  4 12  1  0  0  0  0
  5 14  2  0  0  0  0
  6 12  2  0  0  0  0
  6 20  1  0  0  0  0
  7 19  1  0  0  0  0
  7 23  2  0  0  0  0
  8 22  1  0  0  0  0
  8 24  1  0  0  0  0
  9 27  1  0  0  0  0
  9 28  1  0  0  0  0
  9 29  1  0  0  0  0
 10 11  2  0  0  0  0
 10 13  1  0  0  0  0
 10 14  1  0  0  0  0
 12 15  1  0  0  0  0
 13 16  1  0  0  0  0
 13 18  2  0  0  0  0
 15 21  2  0  0  0  0
 16 19  2  0  0  0  0
 17 20  2  0  0  0  0
 17 21  1  0  0  0  0
 17 22  1  0  0  0  0
 18 23  1  0  0  0  0
 24 26  1  0  0  0  0
 26 27  1  0  0  0  0
M  END
> <PUBCHEM_COMPOUND_ID_TYPE>
0

> <PUBCHEM_TOTAL_CHARGE>
0

> <PUBCHEM_SUBSTANCE_ID>
310932985

> <PUBCHEM_SUBSTANCE_VERSION>
1

> <PUBCHEM_EXT_DATASOURCE_NAME>
4488

> <PUBCHEM_EXT_DATASOURCE_REGID>
SCHEMBL16110382

> <PUBCHEM_SUBSTANCE_COMMENT>
InChI=1S/C20H24N6O3/c1-25(2)10-4-8-22-19(27)15-5-6-17(23-12-15)26-20(28)16(13-24-26)14-7-9-21-18(11-14)29-3/h5-7,9,11-13,28H,4,8,10H2,1-3H3,(H,22,27)
InChIKey=PVYUGIQQQFZPBD-UHFFFAOYSA-N

> <PUBCHEM_SUBSTANCE_SYNONYM>
SCHEMBL16110382

> <PUBCHEM_XREF_EXT_ID>
SCHEMBL16110382

> <PUBCHEM_EXT_DATASOURCE_URL>
https://www.surechembl.org/

> <PUBCHEM_EXT_SUBSTANCE_URL>
https://www.surechembl.org/chemical/SCHEMBL16110382

> <PUBCHEM_CID_ASSOCIATIONS>
117601461  1

> <PUBCHEM_COORDINATE_TYPE>
1
3

$$$$
