310949901
  -OEChem-07211613022D

 29 33  0     0  0  0  0  0  0999 V2000
   -3.4449    1.4115    0.0000 F   0  0  0  0  0  0  0  0  0  0  0  0
   -0.5100    1.5652    0.0000 N   0  0  0  0  0  0  0  0  0  0  0  0
   -0.5100    2.9209    0.0000 N   0  0  0  0  0  0  0  0  0  0  0  0
    1.9775    2.2360    0.0000 N   0  0  0  0  0  0  0  0  0  0  0  0
    0.2585   -0.8106    0.0000 N   0  0  0  0  0  0  0  0  0  0  0  0
   -0.0210    2.2501    0.0000 C   0  0  0  0  0  0  0  0  0  0  0  0
   -1.3067    1.8308    0.0000 C   0  0  0  0  0  0  0  0  0  0  0  0
   -1.2927    2.6554    0.0000 C   0  0  0  0  0  0  0  0  0  0  0  0
   -0.2585    0.7827    0.0000 C   0  0  0  0  0  0  0  0  0  0  0  0
    0.8036    2.2360    0.0000 C   0  0  0  0  0  0  0  0  0  0  0  0
   -2.0055    1.4115    0.0000 C   0  0  0  0  0  0  0  0  0  0  0  0
   -2.0055    3.0606    0.0000 C   0  0  0  0  0  0  0  0  0  0  0  0
   -2.7322    1.8168    0.0000 C   0  0  0  0  0  0  0  0  0  0  0  0
    1.3906    2.8090    0.0000 C   0  0  0  0  0  0  0  0  0  0  0  0
    1.4045    1.6491    0.0000 C   0  0  0  0  0  0  0  0  0  0  0  0
   -0.8036    0.1397    0.0000 C   0  0  0  0  0  0  0  0  0  0  0  0
    0.5660    0.5869    0.0000 C   0  0  0  0  0  0  0  0  0  0  0  0
   -2.7182    2.6554    0.0000 C   0  0  0  0  0  0  0  0  0  0  0  0
   -0.5520   -0.6429    0.0000 C   0  0  0  0  0  0  0  0  0  0  0  0
    0.8036   -0.1816    0.0000 C   0  0  0  0  0  0  0  0  0  0  0  0
    0.5241   -1.5932    0.0000 C   0  0  0  0  0  0  0  0  0  0  0  0
    1.3207   -1.7888    0.0000 C   0  0  0  0  0  0  0  0  0  0  0  0
    1.4884   -2.5994    0.0000 C   0  0  0  0  0  0  0  0  0  0  0  0
    1.7958   -1.1041    0.0000 C   0  0  0  0  0  0  0  0  0  0  0  0
    2.1452   -3.0606    0.0000 C   0  0  0  0  0  0  0  0  0  0  0  0
    2.6064   -0.9504    0.0000 C   0  0  0  0  0  0  0  0  0  0  0  0
    3.2912   -1.4255    0.0000 C   0  0  0  0  0  0  0  0  0  0  0  0
    2.9697   -2.9209    0.0000 C   0  0  0  0  0  0  0  0  0  0  0  0
    3.4449   -2.2360    0.0000 C   0  0  0  0  0  0  0  0  0  0  0  0
  1 13  1  0  0  0  0
  2  6  1  0  0  0  0
  2  7  1  0  0  0  0
  2  9  1  0  0  0  0
  3  6  2  0  0  0  0
  3  8  1  0  0  0  0
  4 14  1  0  0  0  0
  4 15  1  0  0  0  0
  5 19  1  0  0  0  0
  5 20  1  0  0  0  0
  5 21  1  0  0  0  0
  6 10  1  0  0  0  0
  7  8  1  0  0  0  0
  7 11  2  0  0  0  0
  8 12  2  0  0  0  0
  9 16  1  0  0  0  0
  9 17  1  0  0  0  0
 10 14  1  0  0  0  0
 10 15  1  0  0  0  0
 11 13  1  0  0  0  0
 12 18  1  0  0  0  0
 13 18  2  0  0  0  0
 16 19  1  0  0  0  0
 17 20  1  0  0  0  0
 21 22  1  0  0  0  0
 22 23  1  0  0  0  0
 22 24  1  0  0  0  0
 23 25  1  0  0  0  0
 24 26  1  0  0  0  0
 25 28  1  0  0  0  0
 26 27  1  0  0  0  0
 27 29  1  0  0  0  0
 28 29  1  0  0  0  0
M  END
> <PUBCHEM_COMPOUND_ID_TYPE>
0

> <PUBCHEM_TOTAL_CHARGE>
0

> <PUBCHEM_SUBSTANCE_ID>
310949901

> <PUBCHEM_SUBSTANCE_VERSION>
1

> <PUBCHEM_EXT_DATASOURCE_NAME>
4488

> <PUBCHEM_EXT_DATASOURCE_REGID>
SCHEMBL16128122

> <PUBCHEM_SUBSTANCE_COMMENT>
InChI=1S/C24H35FN4/c25-20-8-9-22-23(14-20)29(24(27-22)19-15-26-16-19)21-10-12-28(13-11-21)17-18-6-4-2-1-3-5-7-18/h8-9,14,18-19,21,26H,1-7,10-13,15-17H2
InChIKey=YAZMXKIGKVGMSO-UHFFFAOYSA-N

> <PUBCHEM_SUBSTANCE_SYNONYM>
SCHEMBL16128122

> <PUBCHEM_XREF_EXT_ID>
SCHEMBL16128122

> <PUBCHEM_EXT_DATASOURCE_URL>
https://www.surechembl.org/

> <PUBCHEM_EXT_SUBSTANCE_URL>
https://www.surechembl.org/chemical/SCHEMBL16128122

> <PUBCHEM_CID_ASSOCIATIONS>
86273333  1

> <PUBCHEM_COORDINATE_TYPE>
1
3

$$$$
