310939748
  -OEChem-07211613022D

 21 22  0     0  0  0  0  0  0999 V2000
   -2.9483   -4.0477    0.0000 Cl  0  0  0  0  0  0  0  0  0  0  0  0
   -0.8048   -6.1102    0.0000 Cl  0  0  0  0  0  0  0  0  0  0  0  0
   -0.8048   -2.8102    0.0000 Cl  0  0  0  0  0  0  0  0  0  0  0  0
   -4.3772   -6.5227    0.0000 O   0  0  0  0  0  0  0  0  0  0  0  0
   -2.2338   -5.2852    0.0000 C   0  0  0  0  0  0  0  0  0  0  0  0
   -2.9483   -6.5227    0.0000 C   0  0  0  0  0  0  0  0  0  0  0  0
   -1.5193   -4.8727    0.0000 C   0  0  0  0  0  0  0  0  0  0  0  0
   -2.9483   -4.8727    0.0000 C   0  0  0  0  0  0  0  0  0  0  0  0
   -3.6627   -6.1102    0.0000 C   0  0  0  0  0  0  0  0  0  0  0  0
   -2.2338   -6.1102    0.0000 C   0  0  0  0  0  0  0  0  0  0  0  0
   -2.9483   -7.3477    0.0000 C   0  0  0  0  0  0  0  0  0  0  0  0
   -3.6627   -5.2852    0.0000 C   0  0  0  0  0  0  0  0  0  0  0  0
   -0.8048   -5.2852    0.0000 C   0  0  0  0  0  0  0  0  0  0  0  0
   -1.5193   -4.0477    0.0000 C   0  0  0  0  0  0  0  0  0  0  0  0
   -0.8048   -3.6352    0.0000 C   0  0  0  0  0  0  0  0  0  0  0  0
   -0.0904   -4.8727    0.0000 C   0  0  0  0  0  0  0  0  0  0  0  0
   -0.0904   -4.0477    0.0000 C   0  0  0  0  0  0  0  0  0  0  0  0
   -2.1233   -7.3477    0.0000 C   0  0  0  0  0  0  0  0  0  0  0  0
   -3.7733   -7.3477    0.0000 C   0  0  0  0  0  0  0  0  0  0  0  0
   -2.9483   -8.1727    0.0000 C   0  0  0  0  0  0  0  0  0  0  0  0
   -5.0917   -6.1102    0.0000 C   0  0  0  0  0  0  0  0  0  0  0  0
  1  8  1  0  0  0  0
  2 13  1  0  0  0  0
  3 15  1  0  0  0  0
  4  9  1  0  0  0  0
  4 21  1  0  0  0  0
  5  7  1  0  0  0  0
  5  8  2  0  0  0  0
  5 10  1  0  0  0  0
  6  9  1  0  0  0  0
  6 10  2  0  0  0  0
  6 11  1  0  0  0  0
  7 13  2  0  0  0  0
  7 14  1  0  0  0  0
  8 12  1  0  0  0  0
  9 12  2  0  0  0  0
 11 18  1  0  0  0  0
 11 19  1  0  0  0  0
 11 20  1  0  0  0  0
 13 16  1  0  0  0  0
 14 15  2  0  0  0  0
 15 17  1  0  0  0  0
 16 17  2  0  0  0  0
M  END
> <PUBCHEM_COMPOUND_ID_TYPE>
0

> <PUBCHEM_TOTAL_CHARGE>
0

> <PUBCHEM_SUBSTANCE_ID>
310939748

> <PUBCHEM_SUBSTANCE_VERSION>
1

> <PUBCHEM_EXT_DATASOURCE_NAME>
4488

> <PUBCHEM_EXT_DATASOURCE_REGID>
SCHEMBL16117678

> <PUBCHEM_SUBSTANCE_COMMENT>
InChI=1S/C17H17Cl3O/c1-17(2,3)13-8-12(15(20)9-16(13)21-4)11-7-10(18)5-6-14(11)19/h5-9H,1-4H3
InChIKey=GXVDJDUZPRNKMX-UHFFFAOYSA-N

> <PUBCHEM_SUBSTANCE_SYNONYM>
SCHEMBL16117678

> <PUBCHEM_XREF_EXT_ID>
SCHEMBL16117678

> <PUBCHEM_EXT_DATASOURCE_URL>
https://www.surechembl.org/

> <PUBCHEM_EXT_SUBSTANCE_URL>
https://www.surechembl.org/chemical/SCHEMBL16117678

> <PUBCHEM_CID_ASSOCIATIONS>
117606971  1

> <PUBCHEM_COORDINATE_TYPE>
1
3

> <PUBCHEM_BONDANNOTATIONS>
11  18  3
11  19  3

$$$$
