310938286
  -OEChem-07211613022D

 35 38  0     0  0  0  0  0  0999 V2000
    2.1434   -1.8955    0.0000 Br  0  0  0  0  0  0  0  0  0  0  0  0
   -2.8579   -0.6580    0.0000 P   0  0  0  0  0  0  0  0  0  0  0  0
   -2.1434   -0.2455    0.0000 O   0  0  0  0  0  0  0  0  0  0  0  0
   -3.5724   -0.2455    0.0000 O   0  0  0  0  0  0  0  0  0  0  0  0
   -2.8579    0.1670    0.0000 O   0  0  0  0  0  0  0  0  0  0  0  0
   -2.8579   -1.4830    0.0000 O   0  0  0  0  0  0  0  0  0  0  0  0
    1.4290   -0.6580    0.0000 N   0  0  0  0  0  0  0  0  0  0  0  0
   -0.8007   -2.7160    0.0000 N   0  0  0  0  0  0  0  0  0  0  0  0
   -1.4681   -1.5600    0.0000 N   0  0  0  0  0  0  0  0  0  0  0  0
    1.4290    0.9920    0.0000 N   0  0  0  0  0  0  0  0  0  0  0  0
    1.4290    1.8170    0.0000 N   0  3  0  0  0  0  0  0  0  0  0  0
    1.4290    2.6420    0.0000 N   0  5  0  0  0  0  0  0  0  0  0  0
    0.0000   -1.4830    0.0000 C   0  0  0  0  0  0  0  0  0  0  0  0
    0.0000   -0.6580    0.0000 C   0  0  0  0  0  0  0  0  0  0  0  0
    0.7145   -0.2455    0.0000 C   0  0  0  0  0  0  0  0  0  0  0  0
   -0.7145   -1.8955    0.0000 C   0  0  0  0  0  0  0  0  0  0  0  0
    0.7145   -1.8955    0.0000 C   0  0  0  0  0  0  0  0  0  0  0  0
    1.4290   -1.4830    0.0000 C   0  0  0  0  0  0  0  0  0  0  0  0
   -0.7145   -0.2455    0.0000 C   0  0  0  0  0  0  0  0  0  0  0  0
   -1.4290   -0.6580    0.0000 C   0  0  0  0  0  0  0  0  0  0  0  0
    0.7145    0.5795    0.0000 C   0  0  0  0  0  0  0  0  0  0  0  0
   -4.2868   -0.6580    0.0000 C   0  0  0  0  0  0  0  0  0  0  0  0
   -3.5724    0.5795    0.0000 C   0  0  0  0  0  0  0  0  0  0  0  0
   -1.6077   -2.8875    0.0000 C   0  0  0  0  0  0  0  0  0  0  0  0
   -2.0202   -2.1731    0.0000 C   0  0  0  0  0  0  0  0  0  0  0  0
   -5.0013   -0.2455    0.0000 C   0  0  0  0  0  0  0  0  0  0  0  0
   -3.5724    1.4045    0.0000 C   0  0  0  0  0  0  0  0  0  0  0  0
   -4.2868   -1.4830    0.0000 C   0  0  0  0  0  0  0  0  0  0  0  0
   -4.2868    0.1670    0.0000 C   0  0  0  0  0  0  0  0  0  0  0  0
   -5.7158   -0.6580    0.0000 C   0  0  0  0  0  0  0  0  0  0  0  0
   -4.2868    1.8170    0.0000 C   0  0  0  0  0  0  0  0  0  0  0  0
   -5.0013   -1.8955    0.0000 C   0  0  0  0  0  0  0  0  0  0  0  0
   -5.0013    0.5795    0.0000 C   0  0  0  0  0  0  0  0  0  0  0  0
   -5.7158   -1.4830    0.0000 C   0  0  0  0  0  0  0  0  0  0  0  0
   -5.0013    1.4045    0.0000 C   0  0  0  0  0  0  0  0  0  0  0  0
  1 18  1  0  0  0  0
  2  3  1  0  0  0  0
  2  4  1  0  0  0  0
  2  5  1  0  0  0  0
  2  6  2  0  0  0  0
  3 20  1  0  0  0  0
  4 22  1  0  0  0  0
  5 23  1  0  0  0  0
  7 15  2  0  0  0  0
  7 18  1  0  0  0  0
  8 16  2  0  0  0  0
  8 24  1  0  0  0  0
  9 16  1  0  0  0  0
  9 25  1  0  0  0  0
 10 11  2  0  0  0  0
 10 21  1  0  0  0  0
 11 12  2  0  0  0  0
 13 14  2  0  0  0  0
 13 16  1  0  0  0  0
 13 17  1  0  0  0  0
 14 15  1  0  0  0  0
 14 19  1  0  0  0  0
 15 21  1  0  0  0  0
 17 18  2  0  0  0  0
 19 20  1  0  0  0  0
 22 26  2  0  0  0  0
 22 28  1  0  0  0  0
 23 27  2  0  0  0  0
 23 29  1  0  0  0  0
 24 25  2  0  0  0  0
 26 30  1  0  0  0  0
 27 31  1  0  0  0  0
 28 32  2  0  0  0  0
 29 33  2  0  0  0  0
 30 34  2  0  0  0  0
 31 35  2  0  0  0  0
 32 34  1  0  0  0  0
 33 35  1  0  0  0  0
M  CHG  2  11   1  12  -1
M  END
> <PUBCHEM_COMPOUND_ID_TYPE>
0

> <PUBCHEM_TOTAL_CHARGE>
0

> <PUBCHEM_SUBSTANCE_ID>
310938286

> <PUBCHEM_SUBSTANCE_VERSION>
1

> <PUBCHEM_EXT_DATASOURCE_NAME>
4488

> <PUBCHEM_EXT_DATASOURCE_REGID>
SCHEMBL16116156

> <PUBCHEM_SUBSTANCE_COMMENT>
InChI=1S/C23H20BrN6O4P/c24-22-15-20(23-26-12-13-27-23)19(21(29-22)16-28-30-25)11-14-32-35(31,33-17-7-3-1-4-8-17)34-18-9-5-2-6-10-18/h1-10,12-13,15H,11,14,16H2,(H,26,27)
InChIKey=YNBRXYQYRIEZHV-UHFFFAOYSA-N

> <PUBCHEM_SUBSTANCE_SYNONYM>
SCHEMBL16116156

> <PUBCHEM_XREF_EXT_ID>
SCHEMBL16116156

> <PUBCHEM_EXT_DATASOURCE_URL>
https://www.surechembl.org/

> <PUBCHEM_EXT_SUBSTANCE_URL>
https://www.surechembl.org/chemical/SCHEMBL16116156

> <PUBCHEM_CID_ASSOCIATIONS>
117605792  1

> <PUBCHEM_COORDINATE_TYPE>
1
3

$$$$
