310944744
  -OEChem-07211613022D

 22 24  0     0  0  0  0  0  0999 V2000
    1.4303   -0.8564    0.0000 Br  0  0  0  0  0  0  0  0  0  0  0  0
   -1.3575    0.8199    0.0000 O   0  0  0  0  0  0  0  0  0  0  0  0
   -2.7787   -1.6946    0.0000 O   0  0  0  0  0  0  0  0  0  0  0  0
    2.4872    2.5510    0.0000 O   0  0  0  0  0  0  0  0  0  0  0  0
    0.1184   -0.1822    0.0000 N   0  0  0  0  0  0  0  0  0  0  0  0
   -1.3575   -1.6946    0.0000 N   0  0  0  0  0  0  0  0  0  0  0  0
   -2.0681   -0.4373    0.0000 N   0  0  0  0  0  0  0  0  0  0  0  0
    0.1184   -1.5488    0.0000 N   0  0  0  0  0  0  0  0  0  0  0  0
   -0.6286   -0.4373    0.0000 C   0  0  0  0  0  0  0  0  0  0  0  0
   -0.6650   -1.2755    0.0000 C   0  0  0  0  0  0  0  0  0  0  0  0
   -1.3757   -0.0365    0.0000 C   0  0  0  0  0  0  0  0  0  0  0  0
    0.6104   -0.8382    0.0000 C   0  0  0  0  0  0  0  0  0  0  0  0
   -2.0499   -1.2573    0.0000 C   0  0  0  0  0  0  0  0  0  0  0  0
    0.3917    0.6013    0.0000 C   0  0  0  0  0  0  0  0  0  0  0  0
    1.1570    0.7835    0.0000 C   0  0  0  0  0  0  0  0  0  0  0  0
   -1.3392   -2.5510    0.0000 C   0  0  0  0  0  0  0  0  0  0  0  0
   -2.7787   -0.0365    0.0000 C   0  0  0  0  0  0  0  0  0  0  0  0
    1.4486    1.5852    0.0000 C   0  0  0  0  0  0  0  0  0  0  0  0
    1.7219    0.1822    0.0000 C   0  0  0  0  0  0  0  0  0  0  0  0
    2.2321    1.7492    0.0000 C   0  0  0  0  0  0  0  0  0  0  0  0
    2.5236    0.3462    0.0000 C   0  0  0  0  0  0  0  0  0  0  0  0
    2.7787    1.1297    0.0000 C   0  0  0  0  0  0  0  0  0  0  0  0
  1 12  1  0  0  0  0
  2 11  2  0  0  0  0
  3 13  2  0  0  0  0
  4 20  1  0  0  0  0
  5  9  1  0  0  0  0
  5 12  1  0  0  0  0
  5 14  1  0  0  0  0
  6 10  1  0  0  0  0
  6 13  1  0  0  0  0
  6 16  1  0  0  0  0
  7 11  1  0  0  0  0
  7 13  1  0  0  0  0
  7 17  1  0  0  0  0
  8 10  1  0  0  0  0
  8 12  2  0  0  0  0
  9 10  2  0  0  0  0
  9 11  1  0  0  0  0
 14 15  1  0  0  0  0
 15 18  1  0  0  0  0
 15 19  2  0  0  0  0
 18 20  2  0  0  0  0
 19 21  1  0  0  0  0
 20 22  1  0  0  0  0
 21 22  2  0  0  0  0
M  END
> <PUBCHEM_COMPOUND_ID_TYPE>
0

> <PUBCHEM_TOTAL_CHARGE>
0

> <PUBCHEM_SUBSTANCE_ID>
310944744

> <PUBCHEM_SUBSTANCE_VERSION>
1

> <PUBCHEM_EXT_DATASOURCE_NAME>
4488

> <PUBCHEM_EXT_DATASOURCE_REGID>
SCHEMBL16122823

> <PUBCHEM_SUBSTANCE_COMMENT>
InChI=1S/C14H13BrN4O3/c1-17-11-10(12(21)18(2)14(17)22)19(13(15)16-11)7-8-4-3-5-9(20)6-8/h3-6,20H,7H2,1-2H3
InChIKey=PPDYDFKPCPIXGQ-UHFFFAOYSA-N

> <PUBCHEM_SUBSTANCE_SYNONYM>
SCHEMBL16122823

> <PUBCHEM_XREF_EXT_ID>
SCHEMBL16122823

> <PUBCHEM_EXT_DATASOURCE_URL>
https://www.surechembl.org/

> <PUBCHEM_EXT_SUBSTANCE_URL>
https://www.surechembl.org/chemical/SCHEMBL16122823

> <PUBCHEM_CID_ASSOCIATIONS>
117610961  1

> <PUBCHEM_COORDINATE_TYPE>
1
3

$$$$
