310946133
  -OEChem-07211613022D

 21 21  0     0  0  0  0  0  0999 V2000
    2.5402    1.2461    0.0000 O   0  0  0  0  0  0  0  0  0  0  0  0
    5.5143    1.1889    0.0000 O   0  0  0  0  0  0  0  0  0  0  0  0
    7.6914    0.5202    0.0000 O   0  0  0  0  0  0  0  0  0  0  0  0
    3.5506    0.2357    0.0000 N   0  0  0  0  0  0  0  0  0  0  0  0
   -0.2942   -1.4717    0.0000 N   0  0  0  0  0  0  0  0  0  0  0  0
   -1.0086   -1.8842    0.0000 N   0  0  0  0  0  0  0  0  0  0  0  0
    8.4059    1.7577    0.0000 N   0  0  0  0  0  0  0  0  0  0  0  0
    2.1704   -0.1341    0.0000 C   0  0  0  0  0  0  0  0  0  0  0  0
    2.7538    0.4492    0.0000 C   0  0  0  0  0  0  0  0  0  0  0  0
    1.0037   -1.3009    0.0000 C   0  0  0  0  0  0  0  0  0  0  0  0
    2.3839   -0.9310    0.0000 C   0  0  0  0  0  0  0  0  0  0  0  0
    1.3735    0.0794    0.0000 C   0  0  0  0  0  0  0  0  0  0  0  0
    1.8006   -1.5144    0.0000 C   0  0  0  0  0  0  0  0  0  0  0  0
    0.7901   -0.5040    0.0000 C   0  0  0  0  0  0  0  0  0  0  0  0
    0.4203   -1.8842    0.0000 C   0  0  0  0  0  0  0  0  0  0  0  0
    4.1340    0.8190    0.0000 C   0  0  0  0  0  0  0  0  0  0  0  0
    4.9309    0.6055    0.0000 C   0  0  0  0  0  0  0  0  0  0  0  0
    6.3112    0.9754    0.0000 C   0  0  0  0  0  0  0  0  0  0  0  0
    6.8945    1.5587    0.0000 C   0  0  0  0  0  0  0  0  0  0  0  0
    7.6914    1.3452    0.0000 C   0  0  0  0  0  0  0  0  0  0  0  0
   -1.7950   -1.5163    0.0000 C   0  0  0  0  0  0  0  0  0  0  0  0
  1  9  2  0  0  0  0
  2 17  1  0  0  0  0
  2 18  1  0  0  0  0
  3 20  2  0  0  0  0
  4  9  1  0  0  0  0
  4 16  1  0  0  0  0
  5  6  1  0  0  0  0
  5 15  2  0  0  0  0
  6 21  1  0  0  0  0
  7 20  1  0  0  0  0
  8  9  1  0  0  0  0
  8 11  2  0  0  0  0
  8 12  1  0  0  0  0
 10 13  2  0  0  0  0
 10 14  1  0  0  0  0
 10 15  1  0  0  0  0
 11 13  1  0  0  0  0
 12 14  2  0  0  0  0
 16 17  1  0  0  0  0
 18 19  1  0  0  0  0
 19 20  1  0  0  0  0
M  END
> <PUBCHEM_COMPOUND_ID_TYPE>
0

> <PUBCHEM_TOTAL_CHARGE>
0

> <PUBCHEM_SUBSTANCE_ID>
310946133

> <PUBCHEM_SUBSTANCE_VERSION>
1

> <PUBCHEM_EXT_DATASOURCE_NAME>
4488

> <PUBCHEM_EXT_DATASOURCE_REGID>
SCHEMBL16124242

> <PUBCHEM_SUBSTANCE_COMMENT>
InChI=1S/C14H20N4O3/c1-16-18-10-11-2-4-12(5-3-11)14(20)17-7-9-21-8-6-13(15)19/h2-5,10,16H,6-9H2,1H3,(H2,15,19)(H,17,20)/b18-10+
InChIKey=YLGHRZGZCNQRQY-VCHYOVAHSA-N

> <PUBCHEM_SUBSTANCE_SYNONYM>
SCHEMBL16124242

> <PUBCHEM_XREF_EXT_ID>
SCHEMBL16124242

> <PUBCHEM_EXT_DATASOURCE_URL>
https://www.surechembl.org/

> <PUBCHEM_EXT_SUBSTANCE_URL>
https://www.surechembl.org/chemical/SCHEMBL16124242

> <PUBCHEM_CID_ASSOCIATIONS>
117612092  1

> <PUBCHEM_COORDINATE_TYPE>
1
3

$$$$
