310942707
  -OEChem-07211613022D

 86 92  0     1  0  0  0  0  0999 V2000
    0.7236    2.3335    0.0000 F   0  0  0  0  0  0  0  0  0  0  0  0
    7.2356    0.4342    0.0000 F   0  0  0  0  0  0  0  0  0  0  0  0
    0.7236   -0.9949    0.0000 F   0  0  0  0  0  0  0  0  0  0  0  0
    3.1294    6.1141    0.0000 F   0  0  0  0  0  0  0  0  0  0  0  0
    3.2560    0.5607    0.0000 O   0  0  0  0  0  0  0  0  0  0  0  0
    5.7704    3.7263    0.0000 O   0  0  0  0  0  0  0  0  0  0  0  0
    6.3130   -2.6410    0.0000 O   0  0  0  0  0  0  0  0  0  0  0  0
    4.9202   -2.2973    0.0000 O   0  0  0  0  0  0  0  0  0  0  0  0
    2.3154   -1.4109    0.0000 O   0  0  0  0  0  0  0  0  0  0  0  0
    2.5325   -3.0028    0.0000 O   0  0  0  0  0  0  0  0  0  0  0  0
   -0.0362   -4.5222    0.0000 O   0  0  0  0  0  0  0  0  0  0  0  0
   -5.1915   -0.5970    0.0000 O   0  0  0  0  0  0  0  0  0  0  0  0
   -7.1994   -2.7134    0.0000 O   0  0  0  0  0  0  0  0  0  0  0  0
   -1.6461   -2.0079    0.0000 O   0  0  0  0  0  0  0  0  0  0  0  0
   -0.8321   -4.7212    0.0000 O   0  0  0  0  0  0  0  0  0  0  0  0
    3.0751    2.4963    0.0000 N   0  0  0  0  0  0  0  0  0  0  0  0
    4.6489    0.9406    0.0000 N   0  0  0  0  0  0  0  0  0  0  0  0
    2.9304    1.1577    0.0000 N   0  0  0  0  0  0  0  0  0  0  0  0
    5.8970   -1.2662    0.0000 N   0  0  0  0  0  0  0  0  0  0  0  0
    4.2690   -0.4522    0.0000 N   0  0  0  0  0  0  0  0  0  0  0  0
    2.9304   -4.3776    0.0000 N   0  0  0  0  0  0  0  0  0  0  0  0
    0.9406   -3.4730    0.0000 N   0  0  0  0  0  0  0  0  0  0  0  0
   -6.0236   -1.8089    0.0000 N   0  0  0  0  0  0  0  0  0  0  0  0
   -1.2481   -3.3827    0.0000 N   0  0  0  0  0  0  0  0  0  0  0  0
   -0.4522   -6.1141    0.0000 N   0  0  0  0  0  0  0  0  0  0  0  0
   -1.8451   -5.7342    0.0000 N   0  0  0  0  0  0  0  0  0  0  0  0
    3.4912    1.8089    0.0000 C   0  0  0  0  0  0  0  0  0  0  0  0
    4.3233    1.7004    0.0000 C   0  0  3  0  0  0  0  0  0  0  0  0
    2.1707    1.5194    0.0000 C   0  0  0  0  0  0  0  0  0  0  0  0
    4.8116    2.3877    0.0000 C   0  0  0  0  0  0  0  0  0  0  0  0
    2.2792    2.3335    0.0000 C   0  0  0  0  0  0  0  0  0  0  0  0
    1.4471    1.1034    0.0000 C   0  0  0  0  0  0  0  0  0  0  0  0
    4.0881    0.3437    0.0000 C   0  0  0  0  0  0  0  0  0  0  0  0
    5.4809    0.8502    0.0000 C   0  0  0  0  0  0  0  0  0  0  0  0
    3.4188    3.2741    0.0000 C   0  0  0  0  0  0  0  0  0  0  0  0
    5.7885    0.1085    0.0000 C   0  0  3  0  0  0  0  0  0  0  0  0
    0.7236    1.5014    0.0000 C   0  0  0  0  0  0  0  0  0  0  0  0
    1.4291    0.2533    0.0000 C   0  0  0  0  0  0  0  0  0  0  0  0
    4.4679    3.1294    0.0000 C   0  0  0  0  0  0  0  0  0  0  0  0
    5.6437    2.2973    0.0000 C   0  0  0  0  0  0  0  0  0  0  0  0
    2.9304    3.9253    0.0000 C   0  0  0  0  0  0  0  0  0  0  0  0
    6.6025   -0.1085    0.0000 C   0  0  3  0  0  0  0  0  0  0  0  0
    5.3724   -0.6512    0.0000 C   0  0  0  0  0  0  0  0  0  0  0  0
    0.7416   -0.1447    0.0000 C   0  0  0  0  0  0  0  0  0  0  0  0
    6.6568   -0.9406    0.0000 C   0  0  0  0  0  0  0  0  0  0  0  0
    0.0181    1.0853    0.0000 C   0  0  0  0  0  0  0  0  0  0  0  0
    4.9564    3.7987    0.0000 C   0  0  0  0  0  0  0  0  0  0  0  0
    6.1141    2.9666    0.0000 C   0  0  0  0  0  0  0  0  0  0  0  0
    0.0181    0.2533    0.0000 C   0  0  0  0  0  0  0  0  0  0  0  0
    3.2560    4.7031    0.0000 C   0  0  0  0  0  0  0  0  0  0  0  0
    5.7161   -2.0441    0.0000 C   0  0  0  0  0  0  0  0  0  0  0  0
    2.0983    3.8711    0.0000 C   0  0  0  0  0  0  0  0  0  0  0  0
    3.6901   -1.0311    0.0000 C   0  0  3  0  0  0  0  0  0  0  0  0
    2.7857    5.3543    0.0000 C   0  0  0  0  0  0  0  0  0  0  0  0
    1.6280    4.5222    0.0000 C   0  0  0  0  0  0  0  0  0  0  0  0
    1.9717    5.2639    0.0000 C   0  0  0  0  0  0  0  0  0  0  0  0
    2.8942   -0.8321    0.0000 C   0  0  0  0  0  0  0  0  0  0  0  0
    3.9072   -1.8270    0.0000 C   0  0  0  0  0  0  0  0  0  0  0  0
    6.1141   -3.4369    0.0000 C   0  0  0  0  0  0  0  0  0  0  0  0
    5.3182   -3.6721    0.0000 C   0  0  0  0  0  0  0  0  0  0  0  0
    4.7393   -3.1294    0.0000 C   0  0  0  0  0  0  0  0  0  0  0  0
    5.1192   -4.4679    0.0000 C   0  0  0  0  0  0  0  0  0  0  0  0
    3.7263   -4.1423    0.0000 C   0  0  0  0  0  0  0  0  0  0  0  0
    3.9434   -3.3464    0.0000 C   0  0  0  0  0  0  0  0  0  0  0  0
    4.3413   -4.7031    0.0000 C   0  0  0  0  0  0  0  0  0  0  0  0
    2.3154   -3.8168    0.0000 C   0  0  0  0  0  0  0  0  0  0  0  0
    1.5737   -4.0338    0.0000 C   0  0  3  0  0  0  0  0  0  0  0  0
    0.1628   -3.6901    0.0000 C   0  0  0  0  0  0  0  0  0  0  0  0
   -0.4703   -3.1294    0.0000 C   0  0  3  0  0  0  0  0  0  0  0  0
   -6.8376   -1.9174    0.0000 C   0  0  0  0  0  0  0  0  0  0  0  0
   -5.9332   -0.9949    0.0000 C   0  0  0  0  0  0  0  0  0  0  0  0
    1.3566   -4.8659    0.0000 C   0  0  0  0  0  0  0  0  0  0  0  0
   -0.2351   -2.2973    0.0000 C   0  0  0  0  0  0  0  0  0  0  0  0
   -7.2356   -1.2481    0.0000 C   0  0  0  0  0  0  0  0  0  0  0  0
   -6.6748   -0.6331    0.0000 C   0  0  0  0  0  0  0  0  0  0  0  0
   -5.4267   -2.3877    0.0000 C   0  0  0  0  0  0  0  0  0  0  0  0
   -1.8632   -2.8219    0.0000 C   0  0  0  0  0  0  0  0  0  0  0  0
    0.5788   -5.0830    0.0000 C   0  0  0  0  0  0  0  0  0  0  0  0
   -4.6489   -2.1526    0.0000 C   0  0  0  0  0  0  0  0  0  0  0  0
   -2.6229   -3.0390    0.0000 C   0  0  0  0  0  0  0  0  0  0  0  0
   -0.8683   -1.7727    0.0000 C   0  0  0  0  0  0  0  0  0  0  0  0
    0.5608   -2.0983    0.0000 C   0  0  0  0  0  0  0  0  0  0  0  0
   -4.0338   -2.6952    0.0000 C   0  0  0  0  0  0  0  0  0  0  0  0
   -3.2379   -2.4782    0.0000 C   0  0  0  0  0  0  0  0  0  0  0  0
    0.3437   -5.8970    0.0000 C   0  0  0  0  0  0  0  0  0  0  0  0
   -1.0492   -5.5352    0.0000 C   0  0  0  0  0  0  0  0  0  0  0  0
  1 37  1  0  0  0  0
 42  2  1  1  0  0  0
  3 44  1  0  0  0  0
  4 54  1  0  0  0  0
  5 33  2  0  0  0  0
  6 47  1  0  0  0  0
  6 48  1  0  0  0  0
  7 51  1  0  0  0  0
  7 59  1  0  0  0  0
  8 51  2  0  0  0  0
  9 57  1  0  0  0  0
 10 66  2  0  0  0  0
 11 68  2  0  0  0  0
 12 71  2  0  0  0  0
 13 70  2  0  0  0  0
 14 77  2  0  0  0  0
 15 86  2  0  0  0  0
 16 27  1  0  0  0  0
 16 31  1  0  0  0  0
 16 35  1  0  0  0  0
 28 17  1  1  0  0  0
 17 33  1  0  0  0  0
 17 34  1  0  0  0  0
 18 27  2  0  0  0  0
 18 29  1  0  0  0  0
 19 43  1  0  0  0  0
 19 45  1  0  0  0  0
 19 51  1  0  0  0  0
 20 33  1  0  0  0  0
 20 53  1  0  0  0  0
 21 63  1  0  0  0  0
 21 66  1  0  0  0  0
 67 22  1  6  0  0  0
 22 68  1  0  0  0  0
 23 70  1  0  0  0  0
 23 71  1  0  0  0  0
 23 76  1  0  0  0  0
 69 24  1  1  0  0  0
 24 77  1  0  0  0  0
 25 85  1  0  0  0  0
 25 86  1  0  0  0  0
 26 86  1  0  0  0  0
 27 28  1  0  0  0  0
 28 30  1  0  0  0  0
 29 31  2  0  0  0  0
 29 32  1  0  0  0  0
 30 39  1  0  0  0  0
 30 40  1  0  0  0  0
 32 37  2  0  0  0  0
 32 38  1  0  0  0  0
 36 34  1  1  0  0  0
 35 41  1  0  0  0  0
 36 42  1  0  0  0  0
 36 43  1  0  0  0  0
 37 46  1  0  0  0  0
 38 44  2  0  0  0  0
 39 47  1  0  0  0  0
 40 48  1  0  0  0  0
 41 50  1  0  0  0  0
 41 52  2  0  0  0  0
 42 45  1  0  0  0  0
 44 49  1  0  0  0  0
 46 49  2  0  0  0  0
 50 54  2  0  0  0  0
 52 55  1  0  0  0  0
 53 57  1  0  0  0  0
 53 58  1  1  0  0  0
 54 56  1  0  0  0  0
 55 56  2  0  0  0  0
 59 60  1  0  0  0  0
 60 61  2  0  0  0  0
 60 62  1  0  0  0  0
 61 64  1  0  0  0  0
 62 65  2  0  0  0  0
 63 64  2  0  0  0  0
 63 65  1  0  0  0  0
 66 67  1  0  0  0  0
 67 72  1  0  0  0  0
 68 69  1  0  0  0  0
 69 73  1  0  0  0  0
 70 74  1  0  0  0  0
 71 75  1  0  0  0  0
 72 78  1  0  0  0  0
 73 81  1  0  0  0  0
 73 82  1  0  0  0  0
 74 75  2  0  0  0  0
 76 79  1  0  0  0  0
 77 80  1  0  0  0  0
 78 85  1  0  0  0  0
 79 83  1  0  0  0  0
 80 84  1  0  0  0  0
 83 84  1  0  0  0  0
M  END
> <PUBCHEM_COMPOUND_ID_TYPE>
0

> <PUBCHEM_TOTAL_CHARGE>
0

> <PUBCHEM_SUBSTANCE_ID>
310942707

> <PUBCHEM_SUBSTANCE_VERSION>
1

> <PUBCHEM_EXT_DATASOURCE_NAME>
4488

> <PUBCHEM_EXT_DATASOURCE_REGID>
SCHEMBL16120753

> <PUBCHEM_SUBSTANCE_COMMENT>
InChI=1S/C60H75F4N11O11/c1-36(2)53(71-50(77)12-5-4-6-24-74-51(78)19-20-52(74)79)57(81)70-48(11-8-23-66-58(65)82)56(80)68-44-16-13-38(14-17-44)35-86-60(84)73-30-41(47(64)32-73)31-75(59(83)67-37(3)34-76)54(40-21-25-85-26-22-40)55-69-49(45-28-43(62)15-18-46(45)63)33-72(55)29-39-9-7-10-42(61)27-39/h7,9-10,13-20,27-28,33,36-37,40-41,47-48,53-54,76H,4-6,8,11-12,21-26,29-32,34-35H2,1-3H3,(H,67,83)(H,68,80)(H,70,81)(H,71,77)(H3,65,66,82)/t37-,41-,47-,48-,53-,54+/m0/s1
InChIKey=HVWLNYVHXRXGJB-ZTMGDLRGSA-N

> <PUBCHEM_SUBSTANCE_SYNONYM>
SCHEMBL16120753

> <PUBCHEM_XREF_EXT_ID>
SCHEMBL16120753

> <PUBCHEM_EXT_DATASOURCE_URL>
https://www.surechembl.org/

> <PUBCHEM_EXT_SUBSTANCE_URL>
https://www.surechembl.org/chemical/SCHEMBL16120753

> <PUBCHEM_CID_ASSOCIATIONS>
117609232  1

> <PUBCHEM_COORDINATE_TYPE>
1
3

> <PUBCHEM_BONDANNOTATIONS>
28  17  5
42  2  5
67  22  6
69  24  5
36  34  5
53  58  5

$$$$
