310936338
  -OEChem-07211613022D

 34 37  0     0  0  0  0  0  0999 V2000
    0.0000   -2.9378    0.0000 F   0  0  0  0  0  0  0  0  0  0  0  0
    3.8417   -3.6157    0.0000 O   0  0  0  0  0  0  0  0  0  0  0  0
    4.1322   -0.8716    0.0000 O   0  0  0  0  0  0  0  0  0  0  0  0
    8.9424   -0.8394    0.0000 O   0  0  0  0  0  0  0  0  0  0  0  0
    9.6849   -2.0984    0.0000 O   0  0  0  0  0  0  0  0  0  0  0  0
    8.9424   -3.3575    0.0000 O   0  0  0  0  0  0  0  0  0  0  0  0
    2.7764   -1.3236    0.0000 N   0  0  0  0  0  0  0  0  0  0  0  0
    7.4897   -0.8394    0.0000 N   0  0  0  0  0  0  0  0  0  0  0  0
    4.6165   -2.5181    0.0000 C   0  0  0  0  0  0  0  0  0  0  0  0
    3.8417   -2.2921    0.0000 C   0  0  0  0  0  0  0  0  0  0  0  0
    4.6165   -3.3897    0.0000 C   0  0  0  0  0  0  0  0  0  0  0  0
    3.3252   -2.9378    0.0000 C   0  0  0  0  0  0  0  0  0  0  0  0
    6.0692   -2.5181    0.0000 C   0  0  0  0  0  0  0  0  0  0  0  0
    5.3590   -2.0984    0.0000 C   0  0  0  0  0  0  0  0  0  0  0  0
    6.0692   -3.3897    0.0000 C   0  0  0  0  0  0  0  0  0  0  0  0
    5.3590   -3.7771    0.0000 C   0  0  0  0  0  0  0  0  0  0  0  0
    2.4858   -2.9378    0.0000 C   0  0  0  0  0  0  0  0  0  0  0  0
    3.5834   -1.4850    0.0000 C   0  0  0  0  0  0  0  0  0  0  0  0
    6.7795   -2.0984    0.0000 C   0  0  0  0  0  0  0  0  0  0  0  0
    7.4897   -2.5181    0.0000 C   0  0  0  0  0  0  0  0  0  0  0  0
    8.2322   -2.0984    0.0000 C   0  0  0  0  0  0  0  0  0  0  0  0
    6.7795   -3.8094    0.0000 C   0  0  0  0  0  0  0  0  0  0  0  0
    6.7795   -1.2590    0.0000 C   0  0  0  0  0  0  0  0  0  0  0  0
    2.0661   -3.6803    0.0000 C   0  0  0  0  0  0  0  0  0  0  0  0
    2.0661   -2.2275    0.0000 C   0  0  0  0  0  0  0  0  0  0  0  0
    8.2322   -1.2590    0.0000 C   0  0  0  0  0  0  0  0  0  0  0  0
    8.9424   -2.5181    0.0000 C   0  0  0  0  0  0  0  0  0  0  0  0
    1.2590   -3.6803    0.0000 C   0  0  0  0  0  0  0  0  0  0  0  0
    1.2590   -2.2275    0.0000 C   0  0  0  0  0  0  0  0  0  0  0  0
    0.8394   -2.9378    0.0000 C   0  0  0  0  0  0  0  0  0  0  0  0
    7.4897   -3.3897    0.0000 C   0  0  0  0  0  0  0  0  0  0  0  0
    2.5181   -0.5165    0.0000 C   0  0  0  0  0  0  0  0  0  0  0  0
    7.6511   -2.7118    0.0000 C   0  0  0  0  0  0  0  0  0  0  0  0
    8.9424    0.0000    0.0000 C   0  0  0  0  0  0  0  0  0  0  0  0
  1 30  1  0  0  0  0
  2 11  1  0  0  0  0
  2 12  1  0  0  0  0
  3 18  2  0  0  0  0
  4 26  1  0  0  0  0
  4 34  1  0  0  0  0
  5 27  2  0  0  0  0
  6 27  1  0  0  0  0
  7 18  1  0  0  0  0
  7 32  1  0  0  0  0
  8 23  2  0  0  0  0
  8 26  1  0  0  0  0
  9 10  1  0  0  0  0
  9 11  2  0  0  0  0
  9 14  1  0  0  0  0
 10 12  2  0  0  0  0
 10 18  1  0  0  0  0
 11 16  1  0  0  0  0
 12 17  1  0  0  0  0
 13 14  2  0  0  0  0
 13 15  1  0  0  0  0
 13 19  1  0  0  0  0
 15 16  2  0  0  0  0
 15 22  1  0  0  0  0
 17 24  2  0  0  0  0
 17 25  1  0  0  0  0
 19 20  2  0  0  0  0
 19 23  1  0  0  0  0
 20 21  1  0  0  0  0
 21 26  2  0  0  0  0
 21 27  1  0  0  0  0
 22 31  1  0  0  0  0
 24 28  1  0  0  0  0
 25 29  2  0  0  0  0
 28 30  2  0  0  0  0
 29 30  1  0  0  0  0
 31 33  1  0  0  0  0
M  END
> <PUBCHEM_COMPOUND_ID_TYPE>
0

> <PUBCHEM_TOTAL_CHARGE>
0

> <PUBCHEM_SUBSTANCE_ID>
310936338

> <PUBCHEM_SUBSTANCE_VERSION>
1

> <PUBCHEM_EXT_DATASOURCE_NAME>
4488

> <PUBCHEM_EXT_DATASOURCE_REGID>
SCHEMBL16113970

> <PUBCHEM_SUBSTANCE_COMMENT>
InChI=1S/C26H23FN2O5/c1-4-5-15-11-21-19(12-18(15)16-10-20(26(31)32)25(33-3)29-13-16)22(24(30)28-2)23(34-21)14-6-8-17(27)9-7-14/h6-13H,4-5H2,1-3H3,(H,28,30)(H,31,32)
InChIKey=HRQZSWVRLJDOOZ-UHFFFAOYSA-N

> <PUBCHEM_SUBSTANCE_SYNONYM>
SCHEMBL16113970

> <PUBCHEM_XREF_EXT_ID>
SCHEMBL16113970

> <PUBCHEM_EXT_DATASOURCE_URL>
https://www.surechembl.org/

> <PUBCHEM_EXT_SUBSTANCE_URL>
https://www.surechembl.org/chemical/SCHEMBL16113970

> <PUBCHEM_CID_ASSOCIATIONS>
117604281  1

> <PUBCHEM_COORDINATE_TYPE>
1
3

$$$$
