310942267
  -OEChem-07211613022D

 28 29  0     1  0  0  0  0  0999 V2000
    0.7060    0.8248    0.0000 Cl  0  0  0  0  0  0  0  0  0  0  0  0
   -0.7311   -1.6620    0.0000 F   0  0  0  0  0  0  0  0  0  0  0  0
    0.7060   -0.8373    0.0000 O   0  0  0  0  0  0  0  0  0  0  0  0
    3.5803   -0.8373    0.0000 O   0  0  0  0  0  0  0  0  0  0  0  0
   -1.4684    2.0744    0.0000 O   0  0  0  0  0  0  0  0  0  0  0  0
   -2.8930   -0.4124    0.0000 N   0  0  0  0  0  0  0  0  0  0  0  0
   -2.8930    2.0744    0.0000 N   0  0  0  0  0  0  0  0  0  0  0  0
   -0.0188   -0.4124    0.0000 C   0  0  0  0  0  0  0  0  0  0  0  0
   -0.7311   -0.8248    0.0000 C   0  0  0  0  0  0  0  0  0  0  0  0
   -1.4559   -0.4124    0.0000 C   0  0  0  0  0  0  0  0  0  0  0  0
   -0.0063    0.4249    0.0000 C   0  0  0  0  0  0  0  0  0  0  0  0
   -2.1682   -0.8248    0.0000 C   0  0  3  0  0  0  0  0  0  0  0  0
   -1.4434    0.4124    0.0000 C   0  0  0  0  0  0  0  0  0  0  0  0
    1.4309   -0.4124    0.0000 C   0  0  0  0  0  0  0  0  0  0  0  0
   -0.7186    0.8248    0.0000 C   0  0  0  0  0  0  0  0  0  0  0  0
    2.1682   -0.8248    0.0000 C   0  0  0  0  0  0  0  0  0  0  0  0
    2.8680   -0.4124    0.0000 C   0  0  0  0  0  0  0  0  0  0  0  0
    1.4434    0.4124    0.0000 C   0  0  0  0  0  0  0  0  0  0  0  0
    2.8805    0.4249    0.0000 C   0  0  0  0  0  0  0  0  0  0  0  0
   -2.1807   -1.6745    0.0000 C   0  0  0  0  0  0  0  0  0  0  0  0
    2.1682    0.8248    0.0000 C   0  0  0  0  0  0  0  0  0  0  0  0
   -2.8930    0.4249    0.0000 C   0  0  3  0  0  0  0  0  0  0  0  0
   -2.1682    0.8248    0.0000 C   0  0  0  0  0  0  0  0  0  0  0  0
    3.4053    0.7123    0.0000 C   0  0  0  0  0  0  0  0  0  0  0  0
   -2.8805   -2.0744    0.0000 C   0  0  0  0  0  0  0  0  0  0  0  0
   -3.6053    0.8248    0.0000 C   0  0  0  0  0  0  0  0  0  0  0  0
   -2.1807    1.6620    0.0000 C   0  0  0  0  0  0  0  0  0  0  0  0
    3.6053   -1.6620    0.0000 C   0  0  0  0  0  0  0  0  0  0  0  0
  1 11  1  0  0  0  0
  2  9  1  0  0  0  0
  3  8  1  0  0  0  0
  3 14  1  0  0  0  0
  4 17  1  0  0  0  0
  4 28  1  0  0  0  0
  5 27  2  0  0  0  0
 12  6  1  1  0  0  0
  6 22  1  0  0  0  0
  7 27  1  0  0  0  0
  8  9  1  0  0  0  0
  8 11  2  0  0  0  0
  9 10  2  0  0  0  0
 10 12  1  0  0  0  0
 10 13  1  0  0  0  0
 11 15  1  0  0  0  0
 12 20  1  0  0  0  0
 13 15  2  0  0  0  0
 14 16  1  0  0  0  0
 14 18  2  0  0  0  0
 16 17  2  0  0  0  0
 17 19  1  0  0  0  0
 18 21  1  0  0  0  0
 19 21  2  0  0  0  0
 19 24  1  0  0  0  0
 20 25  1  0  0  0  0
 22 23  1  0  0  0  0
 22 26  1  1  0  0  0
 23 27  1  0  0  0  0
M  END
> <PUBCHEM_COMPOUND_ID_TYPE>
0

> <PUBCHEM_TOTAL_CHARGE>
0

> <PUBCHEM_SUBSTANCE_ID>
310942267

> <PUBCHEM_SUBSTANCE_VERSION>
1

> <PUBCHEM_EXT_DATASOURCE_NAME>
4488

> <PUBCHEM_EXT_DATASOURCE_REGID>
SCHEMBL16120302

> <PUBCHEM_SUBSTANCE_COMMENT>
InChI=1S/C21H26ClFN2O3/c1-5-17(25-13(3)10-19(24)26)15-8-9-16(22)21(20(15)23)28-14-7-6-12(2)18(11-14)27-4/h6-9,11,13,17,25H,5,10H2,1-4H3,(H2,24,26)/t13-,17+/m0/s1
InChIKey=ZQTAVUJGQXENAX-SUMWQHHRSA-N

> <PUBCHEM_SUBSTANCE_SYNONYM>
SCHEMBL16120302

> <PUBCHEM_XREF_EXT_ID>
SCHEMBL16120302

> <PUBCHEM_EXT_DATASOURCE_URL>
https://www.surechembl.org/

> <PUBCHEM_EXT_SUBSTANCE_URL>
https://www.surechembl.org/chemical/SCHEMBL16120302

> <PUBCHEM_CID_ASSOCIATIONS>
117608917  1

> <PUBCHEM_COORDINATE_TYPE>
1
3

> <PUBCHEM_BONDANNOTATIONS>
22  26  5
12  6  5

$$$$
