310944119
  -OEChem-07211613022D

 34 38  0     1  0  0  0  0  0999 V2000
    2.4862    0.7524    0.0000 O   0  0  0  0  0  0  0  0  0  0  0  0
    2.1699   -2.1154    0.0000 O   0  0  0  0  0  0  0  0  0  0  0  0
    5.3977    0.6979    0.0000 O   0  0  0  0  0  0  0  0  0  0  0  0
    5.0924    2.1264    0.0000 O   0  0  0  0  0  0  0  0  0  0  0  0
   -1.2649   -1.6248    0.0000 O   0  0  0  0  0  0  0  0  0  0  0  0
    3.5113   -0.2617    0.0000 N   0  0  0  0  0  0  0  0  0  0  0  0
    0.4798   -0.6761    0.0000 N   0  0  3  0  0  0  0  0  0  0  0  0
   -4.1001    0.8178    0.0000 N   0  0  0  0  0  0  0  0  0  0  0  0
   -1.9737    0.4143    0.0000 N   0  0  0  0  0  0  0  0  0  0  0  0
   -3.3913   -0.4034    0.0000 N   0  0  0  0  0  0  0  0  0  0  0  0
   -4.1873    1.6357    0.0000 N   0  0  0  0  0  0  0  0  0  0  0  0
   -4.9833    1.8101    0.0000 N   0  0  0  0  0  0  0  0  0  0  0  0
   -5.3977    1.1013    0.0000 N   0  0  0  0  0  0  0  0  0  0  0  0
    2.1918   -0.6652    0.0000 C   0  0  3  0  0  0  0  0  0  0  0  0
    2.7043   -0.0109    0.0000 C   0  0  0  0  0  0  0  0  0  0  0  0
    1.7665   -1.4176    0.0000 C   0  0  3  0  0  0  0  0  0  0  0  0
    2.7588   -1.3631    0.0000 C   0  0  0  0  0  0  0  0  0  0  0  0
    4.1656    0.2507    0.0000 C   0  0  0  0  0  0  0  0  0  0  0  0
    1.7556    0.0654    0.0000 C   0  0  0  0  0  0  0  0  0  0  0  0
    3.5330   -1.1558    0.0000 C   0  0  0  0  0  0  0  0  0  0  0  0
    0.9051   -1.3958    0.0000 C   0  0  0  0  0  0  0  0  0  0  0  0
    4.1328    1.0468    0.0000 C   0  0  0  0  0  0  0  0  0  0  0  0
    0.9160    0.0763    0.0000 C   0  0  0  0  0  0  0  0  0  0  0  0
    4.9506    0.0218    0.0000 C   0  0  0  0  0  0  0  0  0  0  0  0
    4.8743    1.3194    0.0000 C   0  0  0  0  0  0  0  0  0  0  0  0
   -0.5671   -0.3926    0.0000 C   0  0  0  0  0  0  0  0  0  0  0  0
   -1.2649   -0.7960    0.0000 C   0  0  3  0  0  0  0  0  0  0  0  0
    3.4240    1.4831    0.0000 C   0  0  0  0  0  0  0  0  0  0  0  0
   -1.9846   -0.3926    0.0000 C   0  0  0  0  0  0  0  0  0  0  0  0
    3.0096   -2.1264    0.0000 C   0  0  0  0  0  0  0  0  0  0  0  0
   -3.3804    0.4253    0.0000 C   0  0  0  0  0  0  0  0  0  0  0  0
   -2.6607   -0.7960    0.0000 C   0  0  0  0  0  0  0  0  0  0  0  0
   -2.6825    0.8287    0.0000 C   0  0  0  0  0  0  0  0  0  0  0  0
   -4.8306    0.5017    0.0000 C   0  0  0  0  0  0  0  0  0  0  0  0
  1 15  2  0  0  0  0
  2 16  1  0  0  0  0
  2 30  1  0  0  0  0
  3 24  1  0  0  0  0
  3 25  1  0  0  0  0
  4 25  2  0  0  0  0
 27  5  1  1  0  0  0
  6 15  1  0  0  0  0
  6 18  1  0  0  0  0
  6 20  1  0  0  0  0
  7 21  1  0  0  0  0
  7 23  1  0  0  0  0
  7 26  1  0  0  0  0
  8 11  1  0  0  0  0
  8 31  1  0  0  0  0
  8 34  1  0  0  0  0
  9 29  1  0  0  0  0
  9 33  2  0  0  0  0
 10 31  2  0  0  0  0
 10 32  1  0  0  0  0
 11 12  2  0  0  0  0
 12 13  1  0  0  0  0
 13 34  2  0  0  0  0
 14 15  1  0  0  0  0
 14 16  1  0  0  0  0
 14 17  1  0  0  0  0
 14 19  1  0  0  0  0
 16 21  1  0  0  0  0
 17 20  1  0  0  0  0
 18 22  2  0  0  0  0
 18 24  1  0  0  0  0
 19 23  1  0  0  0  0
 22 25  1  0  0  0  0
 22 28  1  0  0  0  0
 26 27  1  0  0  0  0
 27 29  1  0  0  0  0
 29 32  2  0  0  0  0
 31 33  1  0  0  0  0
M  END
> <PUBCHEM_COMPOUND_ID_TYPE>
0

> <PUBCHEM_TOTAL_CHARGE>
0

> <PUBCHEM_SUBSTANCE_ID>
310944119

> <PUBCHEM_SUBSTANCE_VERSION>
1

> <PUBCHEM_EXT_DATASOURCE_NAME>
4488

> <PUBCHEM_EXT_DATASOURCE_REGID>
SCHEMBL16122194

> <PUBCHEM_SUBSTANCE_COMMENT>
InChI=1S/C21H26N8O5/c1-13-15(11-34-19(13)31)28-6-4-21(20(28)32)3-5-27(10-17(21)33-2)9-16(30)14-7-23-18(8-22-14)29-12-24-25-26-29/h7-8,12,16-17,30H,3-6,9-11H2,1-2H3/t16-,17?,21?/m1/s1
InChIKey=QZBJMDHWUFIHBJ-ZGGTZUKQSA-N

> <PUBCHEM_SUBSTANCE_SYNONYM>
SCHEMBL16122194

> <PUBCHEM_XREF_EXT_ID>
SCHEMBL16122194

> <PUBCHEM_EXT_DATASOURCE_URL>
https://www.surechembl.org/

> <PUBCHEM_EXT_SUBSTANCE_URL>
https://www.surechembl.org/chemical/SCHEMBL16122194

> <PUBCHEM_CID_ASSOCIATIONS>
86270790  1

> <PUBCHEM_COORDINATE_TYPE>
1
3

> <PUBCHEM_BONDANNOTATIONS>
27  5  5

$$$$
