310942503
  -OEChem-07211613022D

 87 93  0     1  0  0  0  0  0999 V2000
   10.0898    1.9195    0.0000 F   0  0  0  0  0  0  0  0  0  0  0  0
    5.9062   -1.8703    0.0000 F   0  0  0  0  0  0  0  0  0  0  0  0
   10.3851   -2.5265    0.0000 F   0  0  0  0  0  0  0  0  0  0  0  0
    4.6593    0.7547    0.0000 O   0  0  0  0  0  0  0  0  0  0  0  0
    5.3812    3.6586    0.0000 O   0  0  0  0  0  0  0  0  0  0  0  0
    2.6250   -0.7711    0.0000 O   0  0  0  0  0  0  0  0  0  0  0  0
    3.3305    0.4758    0.0000 O   0  0  0  0  0  0  0  0  0  0  0  0
   -1.6898   -0.7875    0.0000 O   0  0  0  0  0  0  0  0  0  0  0  0
   -3.8555   -2.8547    0.0000 O   0  0  0  0  0  0  0  0  0  0  0  0
   -8.1374   -3.0843    0.0000 O   0  0  0  0  0  0  0  0  0  0  0  0
   -6.0047   -0.7875    0.0000 O   0  0  0  0  0  0  0  0  0  0  0  0
   -4.5773   -3.2812    0.0000 O   0  0  0  0  0  0  0  0  0  0  0  0
    6.1030    0.7711    0.0000 N   0  0  0  0  0  0  0  0  0  0  0  0
    8.3015    0.4265    0.0000 N   0  0  0  0  0  0  0  0  0  0  0  0
    7.6288    1.5914    0.0000 N   0  0  0  0  0  0  0  0  0  0  0  0
    8.8593    1.0336    0.0000 N   0  0  0  0  0  0  0  0  0  0  0  0
    5.3812    2.0179    0.0000 N   0  0  0  0  0  0  0  0  0  0  0  0
    4.0523   -0.7711    0.0000 N   0  0  0  0  0  0  0  0  0  0  0  0
   -0.9679   -2.0179    0.0000 N   0  0  0  0  0  0  0  0  0  0  0  0
   -3.1336   -1.6078    0.0000 N   0  0  0  0  0  0  0  0  0  0  0  0
   -9.6140   -2.8383    0.0000 N   0  0  0  0  0  0  0  0  0  0  0  0
   -5.2992   -2.0179    0.0000 N   0  0  0  0  0  0  0  0  0  0  0  0
   -3.8555   -4.5117    0.0000 N   0  0  0  0  0  0  0  0  0  0  0  0
   -5.2992   -4.5117    0.0000 N   0  0  0  0  0  0  0  0  0  0  0  0
    6.8249    0.3609    0.0000 C   0  0  3  0  0  0  0  0  0  0  0  0
    7.5304    0.7711    0.0000 C   0  0  0  0  0  0  0  0  0  0  0  0
    6.8085   -0.4594    0.0000 C   0  0  0  0  0  0  0  0  0  0  0  0
    8.4327    1.7555    0.0000 C   0  0  0  0  0  0  0  0  0  0  0  0
    5.3812    1.1977    0.0000 C   0  0  0  0  0  0  0  0  0  0  0  0
    8.7773    2.5265    0.0000 C   0  0  0  0  0  0  0  0  0  0  0  0
    6.0866   -0.0656    0.0000 C   0  0  0  0  0  0  0  0  0  0  0  0
    8.4656   -0.3773    0.0000 C   0  0  0  0  0  0  0  0  0  0  0  0
    5.3812   -0.4758    0.0000 C   0  0  3  0  0  0  0  0  0  0  0  0
    9.5812    2.6086    0.0000 C   0  0  0  0  0  0  0  0  0  0  0  0
    5.2828   -1.2961    0.0000 C   0  0  3  0  0  0  0  0  0  0  0  0
    6.0866   -0.9187    0.0000 C   0  0  0  0  0  0  0  0  0  0  0  0
    7.5468   -0.9023    0.0000 C   0  0  0  0  0  0  0  0  0  0  0  0
    7.4156    0.0820    0.0000 C   0  0  0  0  0  0  0  0  0  0  0  0
    8.3015    3.1664    0.0000 C   0  0  0  0  0  0  0  0  0  0  0  0
    9.2530   -0.6399    0.0000 C   0  0  0  0  0  0  0  0  0  0  0  0
    4.6101   -0.1477    0.0000 C   0  0  0  0  0  0  0  0  0  0  0  0
    4.6593    2.4281    0.0000 C   0  0  0  0  0  0  0  0  0  0  0  0
    6.0866    2.4281    0.0000 C   0  0  0  0  0  0  0  0  0  0  0  0
    4.4625   -1.4601    0.0000 C   0  0  0  0  0  0  0  0  0  0  0  0
    8.6132    3.9538    0.0000 C   0  0  0  0  0  0  0  0  0  0  0  0
    9.9257    3.3633    0.0000 C   0  0  0  0  0  0  0  0  0  0  0  0
    4.6757    3.2648    0.0000 C   0  0  3  0  0  0  0  0  0  0  0  0
    6.1030    3.2648    0.0000 C   0  0  3  0  0  0  0  0  0  0  0  0
    9.4499    4.0359    0.0000 C   0  0  0  0  0  0  0  0  0  0  0  0
    9.4335   -1.4437    0.0000 C   0  0  0  0  0  0  0  0  0  0  0  0
    3.3305   -0.3609    0.0000 C   0  0  0  0  0  0  0  0  0  0  0  0
    9.8601   -0.0985    0.0000 C   0  0  0  0  0  0  0  0  0  0  0  0
   10.2210   -1.7227    0.0000 C   0  0  0  0  0  0  0  0  0  0  0  0
   10.6476   -0.3609    0.0000 C   0  0  0  0  0  0  0  0  0  0  0  0
    8.2358    4.5117    0.0000 C   0  0  0  0  0  0  0  0  0  0  0  0
   10.8280   -1.1649    0.0000 C   0  0  0  0  0  0  0  0  0  0  0  0
    3.9374    3.6750    0.0000 C   0  0  0  0  0  0  0  0  0  0  0  0
    6.8085    3.6586    0.0000 C   0  0  0  0  0  0  0  0  0  0  0  0
    1.8867   -0.3609    0.0000 C   0  0  0  0  0  0  0  0  0  0  0  0
    1.1813   -0.7711    0.0000 C   0  0  0  0  0  0  0  0  0  0  0  0
    1.1813   -1.6078    0.0000 C   0  0  0  0  0  0  0  0  0  0  0  0
    0.4594   -0.3609    0.0000 C   0  0  0  0  0  0  0  0  0  0  0  0
   -0.2461   -1.6078    0.0000 C   0  0  0  0  0  0  0  0  0  0  0  0
    0.4758   -2.0015    0.0000 C   0  0  0  0  0  0  0  0  0  0  0  0
   -0.2297   -0.7711    0.0000 C   0  0  0  0  0  0  0  0  0  0  0  0
   -1.7063   -1.6242    0.0000 C   0  0  0  0  0  0  0  0  0  0  0  0
   -2.3953   -2.0179    0.0000 C   0  0  3  0  0  0  0  0  0  0  0  0
   -3.8555   -1.9851    0.0000 C   0  0  0  0  0  0  0  0  0  0  0  0
   -4.5773   -1.5914    0.0000 C   0  0  3  0  0  0  0  0  0  0  0  0
   -2.3953   -2.8711    0.0000 C   0  0  0  0  0  0  0  0  0  0  0  0
   -8.9577   -3.3305    0.0000 C   0  0  0  0  0  0  0  0  0  0  0  0
  -10.2702   -3.3305    0.0000 C   0  0  0  0  0  0  0  0  0  0  0  0
   -4.5773   -0.7547    0.0000 C   0  0  0  0  0  0  0  0  0  0  0  0
   -9.2038   -4.1179    0.0000 C   0  0  0  0  0  0  0  0  0  0  0  0
  -10.0241   -4.1015    0.0000 C   0  0  0  0  0  0  0  0  0  0  0  0
   -9.5976   -2.0015    0.0000 C   0  0  0  0  0  0  0  0  0  0  0  0
   -6.0047   -1.6242    0.0000 C   0  0  0  0  0  0  0  0  0  0  0  0
   -3.1172   -3.2648    0.0000 C   0  0  0  0  0  0  0  0  0  0  0  0
  -10.8280   -3.1664    0.0000 C   0  0  0  0  0  0  0  0  0  0  0  0
   -8.8921   -1.5914    0.0000 C   0  0  0  0  0  0  0  0  0  0  0  0
   -6.7265   -2.0179    0.0000 C   0  0  0  0  0  0  0  0  0  0  0  0
   -5.2828   -0.3445    0.0000 C   0  0  0  0  0  0  0  0  0  0  0  0
   -3.8391   -0.3445    0.0000 C   0  0  0  0  0  0  0  0  0  0  0  0
   -8.1538   -2.0015    0.0000 C   0  0  0  0  0  0  0  0  0  0  0  0
   -3.1336   -4.1015    0.0000 C   0  0  0  0  0  0  0  0  0  0  0  0
   -7.4648   -1.6078    0.0000 C   0  0  0  0  0  0  0  0  0  0  0  0
   -4.5773   -4.1015    0.0000 C   0  0  0  0  0  0  0  0  0  0  0  0
  1 34  1  0  0  0  0
 35  2  1  1  0  0  0
  3 53  1  0  0  0  0
  4 29  2  0  0  0  0
  5 47  1  0  0  0  0
  5 48  1  0  0  0  0
  6 51  1  0  0  0  0
  6 59  1  0  0  0  0
  7 51  2  0  0  0  0
  8 66  2  0  0  0  0
  9 68  2  0  0  0  0
 10 71  2  0  0  0  0
 11 77  2  0  0  0  0
 12 87  2  0  0  0  0
 25 13  1  1  0  0  0
 13 29  1  0  0  0  0
 13 31  1  0  0  0  0
 14 16  1  0  0  0  0
 14 26  1  0  0  0  0
 14 32  1  0  0  0  0
 15 26  2  0  0  0  0
 15 28  1  0  0  0  0
 16 28  2  0  0  0  0
 17 29  1  0  0  0  0
 17 42  1  0  0  0  0
 17 43  1  0  0  0  0
 18 41  1  0  0  0  0
 18 44  1  0  0  0  0
 18 51  1  0  0  0  0
 19 63  1  0  0  0  0
 19 66  1  0  0  0  0
 67 20  1  6  0  0  0
 20 68  1  0  0  0  0
 21 71  1  0  0  0  0
 21 72  1  0  0  0  0
 21 76  1  0  0  0  0
 69 22  1  1  0  0  0
 22 77  1  0  0  0  0
 23 85  1  0  0  0  0
 23 87  1  0  0  0  0
 24 87  1  0  0  0  0
 25 26  1  0  0  0  0
 25 27  1  0  0  0  0
 27 36  1  0  0  0  0
 27 37  1  0  0  0  0
 27 38  1  0  0  0  0
 28 30  1  0  0  0  0
 30 34  2  0  0  0  0
 30 39  1  0  0  0  0
 33 31  1  1  0  0  0
 32 40  1  0  0  0  0
 33 35  1  0  0  0  0
 33 41  1  0  0  0  0
 34 46  1  0  0  0  0
 35 44  1  0  0  0  0
 39 45  2  0  0  0  0
 40 50  2  0  0  0  0
 40 52  1  0  0  0  0
 42 47  1  0  0  0  0
 43 48  1  0  0  0  0
 45 49  1  0  0  0  0
 45 55  1  0  0  0  0
 46 49  2  0  0  0  0
 47 57  1  1  0  0  0
 48 58  1  1  0  0  0
 50 53  1  0  0  0  0
 52 54  2  0  0  0  0
 53 56  2  0  0  0  0
 54 56  1  0  0  0  0
 59 60  1  0  0  0  0
 60 61  2  0  0  0  0
 60 62  1  0  0  0  0
 61 64  1  0  0  0  0
 62 65  2  0  0  0  0
 63 64  2  0  0  0  0
 63 65  1  0  0  0  0
 66 67  1  0  0  0  0
 67 70  1  0  0  0  0
 68 69  1  0  0  0  0
 69 73  1  0  0  0  0
 70 78  1  0  0  0  0
 71 74  1  0  0  0  0
 72 75  1  0  0  0  0
 72 79  2  0  0  0  0
 73 82  1  0  0  0  0
 73 83  1  0  0  0  0
 74 75  2  0  0  0  0
 76 80  1  0  0  0  0
 77 81  1  0  0  0  0
 78 85  1  0  0  0  0
 80 84  1  0  0  0  0
 81 86  1  0  0  0  0
 84 86  1  0  0  0  0
M  END
> <PUBCHEM_COMPOUND_ID_TYPE>
0

> <PUBCHEM_TOTAL_CHARGE>
0

> <PUBCHEM_SUBSTANCE_ID>
310942503

> <PUBCHEM_SUBSTANCE_VERSION>
1

> <PUBCHEM_EXT_DATASOURCE_NAME>
4488

> <PUBCHEM_EXT_DATASOURCE_REGID>
SCHEMBL16120539

> <PUBCHEM_SUBSTANCE_COMMENT>
InChI=1S/C63H83F3N12O9/c1-38(2)54(71-52(79)18-11-10-12-28-76-40(4)20-26-53(76)80)59(82)70-51(17-14-27-68-60(67)83)58(81)69-47-23-21-43(22-24-47)37-86-62(85)75-34-45(50(66)36-75)35-77(61(84)74-31-41(5)87-42(6)32-74)55(63(7,8)9)57-72-56(48-29-39(3)19-25-49(48)65)73-78(57)33-44-15-13-16-46(64)30-44/h13,15-16,19-26,29-30,38,41-42,45,50-51,54-55H,4,10-12,14,17-18,27-28,31-37H2,1-3,5-9H3,(H,69,81)(H,70,82)(H,71,79)(H3,67,68,83)/t41-,42+,45-,50-,51-,54-,55-/m0/s1
InChIKey=SOMHLQZQDNLPIV-KKOYRUNRSA-N

> <PUBCHEM_SUBSTANCE_SYNONYM>
SCHEMBL16120539

> <PUBCHEM_XREF_EXT_ID>
SCHEMBL16120539

> <PUBCHEM_EXT_DATASOURCE_URL>
https://www.surechembl.org/

> <PUBCHEM_EXT_SUBSTANCE_URL>
https://www.surechembl.org/chemical/SCHEMBL16120539

> <PUBCHEM_CID_ASSOCIATIONS>
117609073  1

> <PUBCHEM_COORDINATE_TYPE>
1
3

> <PUBCHEM_BONDANNOTATIONS>
25  13  5
35  2  5
67  20  6
69  22  5
33  31  5
47  57  5
48  58  5

$$$$
