310947374
  -OEChem-07211613022D

 22 24  0     1  0  0  0  0  0999 V2000
    0.0797    1.0313    0.0000 O   0  0  0  0  0  0  0  0  0  0  0  0
    3.0077   -1.2862    0.0000 N   0  0  0  0  0  0  0  0  0  0  0  0
    3.4927   -0.6187    0.0000 N   0  0  0  0  0  0  0  0  0  0  0  0
   -0.6348   -0.2062    0.0000 N   0  0  0  0  0  0  0  0  0  0  0  0
    2.2231   -0.2062    0.0000 C   0  0  0  0  0  0  0  0  0  0  0  0
    2.2231   -1.0313    0.0000 C   0  0  0  0  0  0  0  0  0  0  0  0
    0.7942   -0.2062    0.0000 C   0  0  0  0  0  0  0  0  0  0  0  0
    3.0077    0.0487    0.0000 C   0  0  0  0  0  0  0  0  0  0  0  0
    1.5086    0.2062    0.0000 C   0  0  0  0  0  0  0  0  0  0  0  0
    0.0797    0.2062    0.0000 C   0  0  0  0  0  0  0  0  0  0  0  0
    1.5086   -1.4437    0.0000 C   0  0  0  0  0  0  0  0  0  0  0  0
    0.7942   -1.0313    0.0000 C   0  0  0  0  0  0  0  0  0  0  0  0
   -1.3492    0.2062    0.0000 C   0  0  3  0  0  0  0  0  0  0  0  0
   -2.0637   -0.2062    0.0000 C   0  0  0  0  0  0  0  0  0  0  0  0
    3.4202    0.7632    0.0000 C   0  0  0  0  0  0  0  0  0  0  0  0
   -1.3492    1.0313    0.0000 C   0  0  0  0  0  0  0  0  0  0  0  0
   -2.7782    0.2062    0.0000 C   0  0  0  0  0  0  0  0  0  0  0  0
   -2.0637   -1.0312    0.0000 C   0  0  0  0  0  0  0  0  0  0  0  0
   -3.4927   -0.2062    0.0000 C   0  0  0  0  0  0  0  0  0  0  0  0
   -2.7782   -1.4437    0.0000 C   0  0  0  0  0  0  0  0  0  0  0  0
   -3.4927   -1.0312    0.0000 C   0  0  0  0  0  0  0  0  0  0  0  0
   -0.6348    1.4437    0.0000 C   0  0  0  0  0  0  0  0  0  0  0  0
  1 10  2  0  0  0  0
  2  3  1  0  0  0  0
  2  6  1  0  0  0  0
  3  8  2  0  0  0  0
  4 10  1  0  0  0  0
 13  4  1  6  0  0  0
  5  6  1  0  0  0  0
  5  8  1  0  0  0  0
  5  9  2  0  0  0  0
  6 11  2  0  0  0  0
  7  9  1  0  0  0  0
  7 10  1  0  0  0  0
  7 12  2  0  0  0  0
  8 15  1  0  0  0  0
 11 12  1  0  0  0  0
 13 14  1  0  0  0  0
 13 16  1  0  0  0  0
 14 17  2  0  0  0  0
 14 18  1  0  0  0  0
 16 22  1  0  0  0  0
 17 19  1  0  0  0  0
 18 20  2  0  0  0  0
 19 21  2  0  0  0  0
 20 21  1  0  0  0  0
M  END
> <PUBCHEM_COMPOUND_ID_TYPE>
0

> <PUBCHEM_TOTAL_CHARGE>
0

> <PUBCHEM_SUBSTANCE_ID>
310947374

> <PUBCHEM_SUBSTANCE_VERSION>
1

> <PUBCHEM_EXT_DATASOURCE_NAME>
4488

> <PUBCHEM_EXT_DATASOURCE_REGID>
SCHEMBL16125530

> <PUBCHEM_SUBSTANCE_COMMENT>
InChI=1S/C18H19N3O/c1-3-16(13-7-5-4-6-8-13)19-18(22)14-9-10-17-15(11-14)12(2)20-21-17/h4-11,16H,3H2,1-2H3,(H,19,22)(H,20,21)/t16-/m0/s1
InChIKey=BDGAKGGRAWUVCF-INIZCTEOSA-N

> <PUBCHEM_SUBSTANCE_SYNONYM>
SCHEMBL16125530

> <PUBCHEM_XREF_EXT_ID>
SCHEMBL16125530

> <PUBCHEM_EXT_DATASOURCE_URL>
https://www.surechembl.org/

> <PUBCHEM_EXT_SUBSTANCE_URL>
https://www.surechembl.org/chemical/SCHEMBL16125530

> <PUBCHEM_CID_ASSOCIATIONS>
117613118  1

> <PUBCHEM_COORDINATE_TYPE>
1
3

> <PUBCHEM_BONDANNOTATIONS>
13  4  6

$$$$
