310949548
  -OEChem-07211613022D

131138  0     1  0  0  0  0  0999 V2000
   -7.7109    3.4040    0.0000 Cl  0  0  0  0  0  0  0  0  0  0  0  0
   -1.2066   -2.1096    0.0000 S   0  0  0  0  0  0  0  0  0  0  0  0
   -6.9278   -1.1347    0.0000 S   0  0  0  0  0  0  0  0  0  0  0  0
   -1.0628    4.0912    0.0000 O   0  0  0  0  0  0  0  0  0  0  0  0
   -3.4759    2.0456    0.0000 O   0  0  0  0  0  0  0  0  0  0  0  0
    1.1107    2.4611    0.0000 O   0  0  0  0  0  0  0  0  0  0  0  0
    0.1198   -4.9382    0.0000 O   0  0  0  0  0  0  0  0  0  0  0  0
    9.8364    0.1758    0.0000 O   0  0  0  0  0  0  0  0  0  0  0  0
    6.5283   -1.9018    0.0000 O   0  0  0  0  0  0  0  0  0  0  0  0
    4.4827   -4.9382    0.0000 O   0  0  0  0  0  0  0  0  0  0  0  0
    2.3093   -3.3081    0.0000 O   0  0  0  0  0  0  0  0  0  0  0  0
    5.9051    1.8378    0.0000 O   0  0  0  0  0  0  0  0  0  0  0  0
   -2.3093   -2.5570    0.0000 O   0  0  0  0  0  0  0  0  0  0  0  0
    3.2842    4.0912    0.0000 O   0  0  0  0  0  0  0  0  0  0  0  0
   -5.0900    0.5594    0.0000 O   0  0  0  0  0  0  0  0  0  0  0  0
   -5.0900   -3.8994    0.0000 O   0  0  0  0  0  0  0  0  0  0  0  0
    4.3709    4.3948    0.0000 O   0  0  0  0  0  0  0  0  0  0  0  0
    5.3298    5.4976    0.0000 O   0  0  0  0  0  0  0  0  0  0  0  0
   -7.2794   -3.6597    0.0000 O   0  0  0  0  0  0  0  0  0  0  0  0
   -4.8982   -6.0889    0.0000 O   0  0  0  0  0  0  0  0  0  0  0  0
   -9.6127   -2.4611    0.0000 O   0  0  0  0  0  0  0  0  0  0  0  0
   -2.8846    3.0684    0.0000 N   0  0  0  0  0  0  0  0  0  0  0  0
   -0.2477    3.2762    0.0000 N   0  0  0  0  0  0  0  0  0  0  0  0
    8.1584   -1.3744    0.0000 N   0  0  0  0  0  0  0  0  0  0  0  0
    1.4783   -4.1231    0.0000 N   0  0  0  0  0  0  0  0  0  0  0  0
    1.9257    3.3081    0.0000 N   0  0  0  0  0  0  0  0  0  0  0  0
   -0.7112   -4.0912    0.0000 N   0  0  0  0  0  0  0  0  0  0  0  0
    5.7292   -3.7875    0.0000 N   0  0  0  0  0  0  0  0  0  0  0  0
    3.6517   -4.0912    0.0000 N   0  0  0  0  0  0  0  0  0  0  0  0
   -5.9370    2.3013    0.0000 N   0  0  0  0  0  0  0  0  0  0  0  0
    7.4073    2.4291    0.0000 N   0  0  0  0  0  0  0  0  0  0  0  0
    4.0992    3.2762    0.0000 N   0  0  0  0  0  0  0  0  0  0  0  0
   -3.5239   -3.3880    0.0000 N   0  0  0  0  0  0  0  0  0  0  0  0
   -5.8091   -3.0524    0.0000 N   0  0  0  0  0  0  0  0  0  0  0  0
   -7.9826   -2.7008    0.0000 N   0  0  0  0  0  0  0  0  0  0  0  0
    1.3664   -1.9976    0.0000 N   0  0  0  0  0  0  0  0  0  0  0  0
   -9.8364   -3.8675    0.0000 N   0  0  0  0  0  0  0  0  0  0  0  0
    0.0080   -1.5662    0.0000 C   0  0  0  0  0  0  0  0  0  0  0  0
    0.0879   -2.3812    0.0000 C   0  0  0  0  0  0  0  0  0  0  0  0
   -0.7911   -1.3744    0.0000 C   0  0  0  0  0  0  0  0  0  0  0  0
   -1.7499    2.8127    0.0000 C   0  0  3  0  0  0  0  0  0  0  0  0
   -1.0787    3.2762    0.0000 C   0  0  0  0  0  0  0  0  0  0  0  0
   -0.6473   -2.7168    0.0000 C   0  0  0  0  0  0  0  0  0  0  0  0
    0.8230   -2.8127    0.0000 C   0  0  0  0  0  0  0  0  0  0  0  0
    0.4075    3.7875    0.0000 C   0  0  3  0  0  0  0  0  0  0  0  0
    0.8071   -3.6437    0.0000 C   0  0  3  0  0  0  0  0  0  0  0  0
   -3.6677    2.8926    0.0000 C   0  0  0  0  0  0  0  0  0  0  0  0
    0.5514   -0.9429    0.0000 C   0  0  0  0  0  0  0  0  0  0  0  0
   -1.0308   -0.5753    0.0000 C   0  0  0  0  0  0  0  0  0  0  0  0
    1.1107    3.3241    0.0000 C   0  0  0  0  0  0  0  0  0  0  0  0
   -4.4667    3.1642    0.0000 C   0  0  3  0  0  0  0  0  0  0  0  0
    7.8547   -2.4771    0.0000 C   0  0  3  0  0  0  0  0  0  0  0  0
   -1.7659    1.9497    0.0000 C   0  0  0  0  0  0  0  0  0  0  0  0
    0.1198   -4.0912    0.0000 C   0  0  0  0  0  0  0  0  0  0  0  0
    8.9894    0.2078    0.0000 C   0  0  0  0  0  0  0  0  0  0  0  0
    7.0397   -2.5570    0.0000 C   0  0  0  0  0  0  0  0  0  0  0  0
    8.5739    1.8059    0.0000 C   0  0  3  0  0  0  0  0  0  0  0  0
    0.2957   -0.1439    0.0000 C   0  0  0  0  0  0  0  0  0  0  0  0
   -1.0468    1.5662    0.0000 C   0  0  0  0  0  0  0  0  0  0  0  0
    5.1379   -3.7556    0.0000 C   0  0  3  0  0  0  0  0  0  0  0  0
   -0.4874    0.0000    0.0000 C   0  0  0  0  0  0  0  0  0  0  0  0
    4.4987   -4.2510    0.0000 C   0  0  0  0  0  0  0  0  0  0  0  0
    0.4075    4.6026    0.0000 C   0  0  0  0  0  0  0  0  0  0  0  0
    2.2933   -4.1391    0.0000 C   0  0  0  0  0  0  0  0  0  0  0  0
   -1.7819   -3.9154    0.0000 C   0  0  3  0  0  0  0  0  0  0  0  0
   -4.6585    3.9633    0.0000 C   0  0  0  0  0  0  0  0  0  0  0  0
    8.3661   -3.1483    0.0000 C   0  0  0  0  0  0  0  0  0  0  0  0
   -2.8846    3.9154    0.0000 C   0  0  0  0  0  0  0  0  0  0  0  0
    0.0239    2.4611    0.0000 C   0  0  0  0  0  0  0  0  0  0  0  0
    6.0968    2.6688    0.0000 C   0  0  0  0  0  0  0  0  0  0  0  0
    8.9735    2.5730    0.0000 C   0  0  0  0  0  0  0  0  0  0  0  0
    2.9964   -4.5866    0.0000 C   0  0  0  0  0  0  0  0  0  0  0  0
   -5.4256    4.2510    0.0000 C   0  0  0  0  0  0  0  0  0  0  0  0
    5.5375    3.2762    0.0000 C   0  0  3  0  0  0  0  0  0  0  0  0
    2.6130    2.8286    0.0000 C   0  0  0  0  0  0  0  0  0  0  0  0
   -2.6449   -3.1323    0.0000 C   0  0  0  0  0  0  0  0  0  0  0  0
    8.0466   -3.9314    0.0000 C   0  0  0  0  0  0  0  0  0  0  0  0
    5.0900   -2.9085    0.0000 C   0  0  0  0  0  0  0  0  0  0  0  0
    3.2842    3.2762    0.0000 C   0  0  0  0  0  0  0  0  0  0  0  0
   -0.8230    0.7671    0.0000 C   0  0  0  0  0  0  0  0  0  0  0  0
   -0.4555    2.1415    0.0000 C   0  0  0  0  0  0  0  0  0  0  0  0
   -5.9211    0.8151    0.0000 C   0  0  0  0  0  0  0  0  0  0  0  0
   -1.8938   -4.7624    0.0000 C   0  0  0  0  0  0  0  0  0  0  0  0
    4.2909   -2.5570    0.0000 C   0  0  0  0  0  0  0  0  0  0  0  0
    9.0054   -1.2785    0.0000 C   0  0  0  0  0  0  0  0  0  0  0  0
   -0.2957    5.0181    0.0000 C   0  0  0  0  0  0  0  0  0  0  0  0
   -2.6289   -5.0821    0.0000 C   0  0  0  0  0  0  0  0  0  0  0  0
   -4.1152   -2.8446    0.0000 C   0  0  3  0  0  0  0  0  0  0  0  0
   -6.0329    3.6917    0.0000 C   0  0  0  0  0  0  0  0  0  0  0  0
    2.1974    4.1072    0.0000 C   0  0  0  0  0  0  0  0  0  0  0  0
   -5.5855    5.0500    0.0000 C   0  0  0  0  0  0  0  0  0  0  0  0
    5.7292    4.0912    0.0000 C   0  0  0  0  0  0  0  0  0  0  0  0
    7.2475   -4.0432    0.0000 C   0  0  0  0  0  0  0  0  0  0  0  0
    8.5579   -4.5706    0.0000 C   0  0  0  0  0  0  0  0  0  0  0  0
   -0.0399    0.5434    0.0000 C   0  0  0  0  0  0  0  0  0  0  0  0
    0.3276    1.9177    0.0000 C   0  0  0  0  0  0  0  0  0  0  0  0
   -6.8320    3.9633    0.0000 C   0  0  0  0  0  0  0  0  0  0  0  0
   -4.9143   -3.0843    0.0000 C   0  0  0  0  0  0  0  0  0  0  0  0
    3.4919   -3.2762    0.0000 C   0  0  0  0  0  0  0  0  0  0  0  0
    4.2270   -1.7419    0.0000 C   0  0  0  0  0  0  0  0  0  0  0  0
    3.6357   -3.0364    0.0000 C   0  0  0  0  0  0  0  0  0  0  0  0
   -6.7201    0.3516    0.0000 C   0  0  0  0  0  0  0  0  0  0  0  0
    0.5514    1.1347    0.0000 C   0  0  0  0  0  0  0  0  0  0  0  0
    8.5259    3.2122    0.0000 C   0  0  0  0  0  0  0  0  0  0  0  0
    9.8204    2.5730    0.0000 C   0  0  0  0  0  0  0  0  0  0  0  0
   -6.3525    5.3057    0.0000 C   0  0  0  0  0  0  0  0  0  0  0  0
   -6.4165   -2.4771    0.0000 C   0  0  3  0  0  0  0  0  0  0  0  0
   -3.3001   -4.6026    0.0000 C   0  0  0  0  0  0  0  0  0  0  0  0
   -2.7408   -5.8971    0.0000 C   0  0  0  0  0  0  0  0  0  0  0  0
   -6.9758    4.7784    0.0000 C   0  0  0  0  0  0  0  0  0  0  0  0
    2.8047   -1.8698    0.0000 C   0  0  0  0  0  0  0  0  0  0  0  0
    5.1539    4.6505    0.0000 C   0  0  0  0  0  0  0  0  0  0  0  0
   -3.9234   -2.0296    0.0000 C   0  0  0  0  0  0  0  0  0  0  0  0
   -0.2957    5.8332    0.0000 C   0  0  0  0  0  0  0  0  0  0  0  0
    3.4759   -1.4063    0.0000 C   0  0  0  0  0  0  0  0  0  0  0  0
    2.8846   -2.6849    0.0000 C   0  0  0  0  0  0  0  0  0  0  0  0
    6.9438   -4.7943    0.0000 C   0  0  0  0  0  0  0  0  0  0  0  0
    8.2383   -5.3377    0.0000 C   0  0  0  0  0  0  0  0  0  0  0  0
   -6.2566   -1.6620    0.0000 C   0  0  0  0  0  0  0  0  0  0  0  0
    7.4233   -5.4496    0.0000 C   0  0  0  0  0  0  0  0  0  0  0  0
   -7.1516   -2.8127    0.0000 C   0  0  0  0  0  0  0  0  0  0  0  0
   -4.1631   -5.7373    0.0000 C   0  0  0  0  0  0  0  0  0  0  0  0
   -4.0512   -4.9222    0.0000 C   0  0  0  0  0  0  0  0  0  0  0  0
   -3.4599   -6.2327    0.0000 C   0  0  0  0  0  0  0  0  0  0  0  0
   -4.5786   -1.4543    0.0000 C   0  0  0  0  0  0  0  0  0  0  0  0
    2.0536   -1.5182    0.0000 C   0  0  0  0  0  0  0  0  0  0  0  0
   -1.0308    6.2327    0.0000 C   0  0  0  0  0  0  0  0  0  0  0  0
   -5.3457   -1.7260    0.0000 C   0  0  0  0  0  0  0  0  0  0  0  0
   -4.3709   -0.6393    0.0000 C   0  0  0  0  0  0  0  0  0  0  0  0
   -8.4940   -3.3401    0.0000 C   0  0  0  0  0  0  0  0  0  0  0  0
   -9.3091   -3.2282    0.0000 C   0  0  0  0  0  0  0  0  0  0  0  0
  1 97  1  0  0  0  0
  2 40  1  0  0  0  0
  2 43  1  0  0  0  0
  3102  1  0  0  0  0
  3119  1  0  0  0  0
  4 42  2  0  0  0  0
  5 47  2  0  0  0  0
  6 50  2  0  0  0  0
  7 54  2  0  0  0  0
  8 55  2  0  0  0  0
  9 56  2  0  0  0  0
 10 62  2  0  0  0  0
 11 64  2  0  0  0  0
 12 70  2  0  0  0  0
 13 76  2  0  0  0  0
 14 79  2  0  0  0  0
 15 82  2  0  0  0  0
 16 98  2  0  0  0  0
 17112  2  0  0  0  0
 18112  1  0  0  0  0
 19121  2  0  0  0  0
 20122  1  0  0  0  0
 21131  2  0  0  0  0
 22 41  1  0  0  0  0
 22 47  1  0  0  0  0
 22 68  1  0  0  0  0
 23 42  1  0  0  0  0
 23 45  1  0  0  0  0
 23 69  1  0  0  0  0
 24 52  1  0  0  0  0
 24 55  1  0  0  0  0
 24 85  1  0  0  0  0
 25 46  1  0  0  0  0
 25 64  1  0  0  0  0
 26 50  1  0  0  0  0
 26 75  1  0  0  0  0
 26 90  1  0  0  0  0
 27 54  1  0  0  0  0
 27 65  1  0  0  0  0
 28 56  1  0  0  0  0
 28 60  1  0  0  0  0
 29 62  1  0  0  0  0
 29 72  1  0  0  0  0
 29 99  1  0  0  0  0
 30 51  1  0  0  0  0
 30 82  1  0  0  0  0
 31 57  1  0  0  0  0
 31 70  1  0  0  0  0
 32 74  1  0  0  0  0
 32 79  1  0  0  0  0
 33 76  1  0  0  0  0
 33 88  1  0  0  0  0
 34 98  1  0  0  0  0
 34107  1  0  0  0  0
 35121  1  0  0  0  0
 35130  1  0  0  0  0
 36126  1  0  0  0  0
 37131  1  0  0  0  0
 38 39  1  0  0  0  0
 38 40  2  0  0  0  0
 38 48  1  0  0  0  0
 39 43  2  0  0  0  0
 39 44  1  0  0  0  0
 40 49  1  0  0  0  0
 41 42  1  0  0  0  0
 41 53  1  6  0  0  0
 46 44  1  6  0  0  0
 45 50  1  0  0  0  0
 45 63  1  1  0  0  0
 46 54  1  0  0  0  0
 47 51  1  0  0  0  0
 48 58  2  0  0  0  0
 49 61  2  0  0  0  0
 51 66  1  1  0  0  0
 52 56  1  0  0  0  0
 52 67  1  1  0  0  0
 53 59  1  0  0  0  0
 55 57  1  0  0  0  0
 57 71  1  1  0  0  0
 58 61  1  0  0  0  0
 59 80  2  0  0  0  0
 59 81  1  0  0  0  0
 60 62  1  0  0  0  0
 60 78  1  6  0  0  0
 63 86  1  0  0  0  0
 64 72  1  0  0  0  0
 65 76  1  0  0  0  0
 65 83  1  1  0  0  0
 66 73  1  0  0  0  0
 67 77  1  0  0  0  0
 70 74  1  0  0  0  0
 71104  1  0  0  0  0
 71105  1  0  0  0  0
 73 89  1  0  0  0  0
 73 91  2  0  0  0  0
 74 92  1  1  0  0  0
 75 79  1  0  0  0  0
 77 93  2  0  0  0  0
 77 94  1  0  0  0  0
 78 84  1  0  0  0  0
 80 95  1  0  0  0  0
 81 96  2  0  0  0  0
 82102  1  0  0  0  0
 83 87  1  0  0  0  0
 84100  2  0  0  0  0
 84101  1  0  0  0  0
 86114  1  0  0  0  0
 87108  2  0  0  0  0
 87109  1  0  0  0  0
 88 98  1  0  0  0  0
 88113  1  6  0  0  0
 89 97  2  0  0  0  0
 91106  1  0  0  0  0
 92112  1  0  0  0  0
 93117  1  0  0  0  0
 94118  2  0  0  0  0
 95103  2  0  0  0  0
 96103  1  0  0  0  0
 97110  1  0  0  0  0
100115  1  0  0  0  0
101116  2  0  0  0  0
106110  2  0  0  0  0
107119  1  0  0  0  0
107121  1  6  0  0  0
108123  1  0  0  0  0
109124  2  0  0  0  0
111115  2  0  0  0  0
111116  1  0  0  0  0
111126  1  0  0  0  0
113125  1  0  0  0  0
114127  1  0  0  0  0
117120  2  0  0  0  0
118120  1  0  0  0  0
122123  2  0  0  0  0
122124  1  0  0  0  0
125128  1  0  0  0  0
125129  1  0  0  0  0
130131  1  0  0  0  0
M  END
> <PUBCHEM_COMPOUND_ID_TYPE>
0

> <PUBCHEM_TOTAL_CHARGE>
0

> <PUBCHEM_SUBSTANCE_ID>
310949548

> <PUBCHEM_SUBSTANCE_VERSION>
1

> <PUBCHEM_EXT_DATASOURCE_NAME>
4488

> <PUBCHEM_EXT_DATASOURCE_REGID>
SCHEMBL16127743

> <PUBCHEM_SUBSTANCE_COMMENT>
InChI=1S/C94H119ClN16O18S2/c1-11-12-29-74-92(127)108(7)51-80(115)100-70(47-82(117)118)88(123)106-83(56(4)5)94(129)110(9)75(44-57-22-15-13-16-23-57)89(124)104-71(42-59-31-33-61(48-96)34-32-59)90(125)107(6)50-79(114)99-69(46-63-52-131-77-30-20-19-28-66(63)77)87(122)103-68(41-60-35-37-65(112)38-36-60)86(121)102-67(39-55(2)3)85(120)105-73(84(119)98-49-78(97)113)53-130-54-81(116)101-72(43-62-26-21-27-64(95)40-62)91(126)111(10)76(93(128)109(74)8)45-58-24-17-14-18-25-58/h13-28,30-38,40,52,55-56,67-76,83,112H,11-12,29,39,41-51,53-54,96H2,1-10H3,(H2,97,113)(H,98,119)(H,99,114)(H,100,115)(H,101,116)(H,102,121)(H,103,122)(H,104,124)(H,105,120)(H,106,123)(H,117,118)/t67-,68-,69-,70-,71-,72-,73-,74-,75-,76-,83-/m0/s1
InChIKey=DGHLHNJZZSTRFI-RHSGMDAPSA-N

> <PUBCHEM_SUBSTANCE_SYNONYM>
SCHEMBL16127743

> <PUBCHEM_XREF_EXT_ID>
SCHEMBL16127743

> <PUBCHEM_EXT_DATASOURCE_URL>
https://www.surechembl.org/

> <PUBCHEM_EXT_SUBSTANCE_URL>
https://www.surechembl.org/chemical/SCHEMBL16127743

> <PUBCHEM_CID_ASSOCIATIONS>
117614971  1

> <PUBCHEM_COORDINATE_TYPE>
1
3

> <PUBCHEM_BONDANNOTATIONS>
107  121  6
41  53  6
46  44  6
45  63  5
51  66  5
52  67  5
57  71  5
60  78  6
65  83  5
74  92  5
88  113  6

$$$$
