310931298
  -OEChem-07211613022D

 54 58  0     1  0  0  0  0  0999 V2000
    0.7145    0.4125    0.0000 S   0  0  0  0  0  0  0  0  0  0  0  0
    0.7615   -1.3099    0.0000 S   0  0  0  0  0  0  0  0  0  0  0  0
    0.7145    2.0625    0.0000 F   0  0  0  0  0  0  0  0  0  0  0  0
   -2.1434    0.4125    0.0000 F   0  0  0  0  0  0  0  0  0  0  0  0
   -2.8579    5.7750    0.0000 F   0  0  0  0  0  0  0  0  0  0  0  0
   -2.1434    6.1875    0.0000 F   0  0  0  0  0  0  0  0  0  0  0  0
   -1.4290    5.7750    0.0000 F   0  0  0  0  0  0  0  0  0  0  0  0
   -0.7145    4.5375    0.0000 F   0  0  0  0  0  0  0  0  0  0  0  0
    0.3020   -0.3020    0.0000 O   0  0  0  0  0  0  0  0  0  0  0  0
    1.1270    1.1270    0.0000 O   0  0  0  0  0  0  0  0  0  0  0  0
   -2.1434    2.0625    0.0000 O   0  0  0  0  0  0  0  0  0  0  0  0
    3.5724    1.2375    0.0000 O   0  0  0  0  0  0  0  0  0  0  0  0
   -6.4302    2.0625    0.0000 O   0  0  0  0  0  0  0  0  0  0  0  0
    5.0013   -1.2375    0.0000 O   0  0  0  0  0  0  0  0  0  0  0  0
   -5.7158    0.8250    0.0000 O   0  0  0  0  0  0  0  0  0  0  0  0
    1.4290    0.0000    0.0000 N   0  0  0  0  0  0  0  0  0  0  0  0
    2.0964   -1.3099    0.0000 N   0  0  0  0  0  0  0  0  0  0  0  0
   -5.0013    2.0625    0.0000 N   0  0  0  0  0  0  0  0  0  0  0  0
    1.0165   -2.0946    0.0000 N   0  0  0  0  0  0  0  0  0  0  0  0
    0.0000    0.8250    0.0000 C   0  0  0  0  0  0  0  0  0  0  0  0
    0.0000    1.6500    0.0000 C   0  0  0  0  0  0  0  0  0  0  0  0
    1.4290   -0.8250    0.0000 C   0  0  0  0  0  0  0  0  0  0  0  0
   -0.7145    0.4125    0.0000 C   0  0  0  0  0  0  0  0  0  0  0  0
   -1.4290    1.6500    0.0000 C   0  0  0  0  0  0  0  0  0  0  0  0
   -1.4290    0.8250    0.0000 C   0  0  0  0  0  0  0  0  0  0  0  0
    2.1434    0.4125    0.0000 C   0  0  0  0  0  0  0  0  0  0  0  0
   -0.7145    2.0625    0.0000 C   0  0  0  0  0  0  0  0  0  0  0  0
    2.8579    0.0000    0.0000 C   0  0  0  0  0  0  0  0  0  0  0  0
   -3.5724    2.8875    0.0000 C   0  0  3  0  0  0  0  0  0  0  0  0
   -3.5724    2.0625    0.0000 C   0  0  3  0  0  0  0  0  0  0  0  0
   -2.8579    3.3000    0.0000 C   0  0  0  0  0  0  0  0  0  0  0  0
    3.5724    0.4125    0.0000 C   0  0  0  0  0  0  0  0  0  0  0  0
   -2.1434    4.5375    0.0000 C   0  0  0  0  0  0  0  0  0  0  0  0
   -2.8579    1.6500    0.0000 C   0  0  0  0  0  0  0  0  0  0  0  0
   -2.8579    4.1250    0.0000 C   0  0  0  0  0  0  0  0  0  0  0  0
   -4.2868    1.6500    0.0000 C   0  0  0  0  0  0  0  0  0  0  0  0
   -2.1434    5.3625    0.0000 C   0  0  0  0  0  0  0  0  0  0  0  0
    2.8579   -0.8250    0.0000 C   0  0  0  0  0  0  0  0  0  0  0  0
   -4.2868    3.3000    0.0000 C   0  0  0  0  0  0  0  0  0  0  0  0
   -1.4290    4.1250    0.0000 C   0  0  0  0  0  0  0  0  0  0  0  0
    1.8415   -2.0946    0.0000 C   0  0  0  0  0  0  0  0  0  0  0  0
   -2.1434    2.8875    0.0000 C   0  0  0  0  0  0  0  0  0  0  0  0
   -5.0013    2.8875    0.0000 C   0  0  0  0  0  0  0  0  0  0  0  0
    4.2868    0.0000    0.0000 C   0  0  0  0  0  0  0  0  0  0  0  0
   -1.4290    3.3000    0.0000 C   0  0  0  0  0  0  0  0  0  0  0  0
    4.2868   -0.8250    0.0000 C   0  0  0  0  0  0  0  0  0  0  0  0
   -5.7158    1.6500    0.0000 C   0  0  0  0  0  0  0  0  0  0  0  0
    3.5724   -1.2375    0.0000 C   0  0  0  0  0  0  0  0  0  0  0  0
   -7.1447    1.6500    0.0000 C   0  0  0  0  0  0  0  0  0  0  0  0
    4.2868    1.6500    0.0000 C   0  0  0  0  0  0  0  0  0  0  0  0
    5.7158   -0.8250    0.0000 C   0  0  0  0  0  0  0  0  0  0  0  0
   -7.1447    0.8250    0.0000 C   0  0  0  0  0  0  0  0  0  0  0  0
   -7.8592    1.2375    0.0000 C   0  0  0  0  0  0  0  0  0  0  0  0
   -7.8592    2.0625    0.0000 C   0  0  0  0  0  0  0  0  0  0  0  0
  1  9  2  0  0  0  0
  1 10  2  0  0  0  0
  1 16  1  0  0  0  0
  1 20  1  0  0  0  0
  2 19  1  0  0  0  0
  2 22  1  0  0  0  0
  3 21  1  0  0  0  0
  4 25  1  0  0  0  0
  5 37  1  0  0  0  0
  6 37  1  0  0  0  0
  7 37  1  0  0  0  0
  8 40  1  0  0  0  0
 11 24  1  0  0  0  0
 11 34  1  0  0  0  0
 12 32  1  0  0  0  0
 12 50  1  0  0  0  0
 13 47  1  0  0  0  0
 13 49  1  0  0  0  0
 14 46  1  0  0  0  0
 14 51  1  0  0  0  0
 15 47  2  0  0  0  0
 16 22  1  0  0  0  0
 16 26  1  0  0  0  0
 17 22  2  0  0  0  0
 17 41  1  0  0  0  0
 18 36  1  0  0  0  0
 18 43  1  0  0  0  0
 18 47  1  0  0  0  0
 19 41  2  0  0  0  0
 20 21  2  0  0  0  0
 20 23  1  0  0  0  0
 21 27  1  0  0  0  0
 23 25  2  0  0  0  0
 24 25  1  0  0  0  0
 24 27  2  0  0  0  0
 26 28  1  0  0  0  0
 28 32  1  0  0  0  0
 28 38  2  0  0  0  0
 29 30  1  0  0  0  0
 29 31  1  0  0  0  0
 29 39  1  6  0  0  0
 30 34  1  1  0  0  0
 30 36  1  0  0  0  0
 31 35  1  0  0  0  0
 31 42  2  0  0  0  0
 32 44  2  0  0  0  0
 33 35  2  0  0  0  0
 33 37  1  0  0  0  0
 33 40  1  0  0  0  0
 38 48  1  0  0  0  0
 39 43  1  0  0  0  0
 40 45  2  0  0  0  0
 42 45  1  0  0  0  0
 44 46  1  0  0  0  0
 46 48  2  0  0  0  0
 49 52  1  0  0  0  0
 49 53  1  0  0  0  0
 49 54  1  0  0  0  0
M  END
> <PUBCHEM_COMPOUND_ID_TYPE>
0

> <PUBCHEM_TOTAL_CHARGE>
0

> <PUBCHEM_SUBSTANCE_ID>
310931298

> <PUBCHEM_SUBSTANCE_VERSION>
1

> <PUBCHEM_EXT_DATASOURCE_NAME>
4488

> <PUBCHEM_EXT_DATASOURCE_REGID>
SCHEMBL16108615

> <PUBCHEM_SUBSTANCE_COMMENT>
InChI=1S/C35H36F6N4O7S2/c1-34(2,3)52-33(46)44-11-10-24(20-7-9-26(36)25(12-20)35(39,40)41)22(16-44)18-51-30-14-28(38)31(15-27(30)37)54(47,48)45(32-42-19-43-53-32)17-21-6-8-23(49-4)13-29(21)50-5/h6-9,12-15,19,22,24H,10-11,16-18H2,1-5H3/t22-,24-/m1/s1
InChIKey=QBBCXOILFXYDDS-ISKFKSNPSA-N

> <PUBCHEM_SUBSTANCE_SYNONYM>
SCHEMBL16108615

> <PUBCHEM_XREF_EXT_ID>
SCHEMBL16108615

> <PUBCHEM_EXT_DATASOURCE_URL>
https://www.surechembl.org/

> <PUBCHEM_EXT_SUBSTANCE_URL>
https://www.surechembl.org/chemical/SCHEMBL16108615

> <PUBCHEM_CID_ASSOCIATIONS>
117600117  1

> <PUBCHEM_COORDINATE_TYPE>
1
3

> <PUBCHEM_BONDANNOTATIONS>
29  39  6
30  34  5

$$$$
