310934011
  -OEChem-07211613022D

 23 25  0     0  0  0  0  0  0999 V2000
    1.5053    0.0000    0.0000 O   0  0  0  0  0  0  0  0  0  0  0  0
    0.0000   -0.6842    0.0000 O   0  0  0  0  0  0  0  0  0  0  0  0
    2.0917   -2.1308    0.0000 N   0  0  0  0  0  0  0  0  0  0  0  0
    2.8933   -2.3850    0.0000 N   0  0  0  0  0  0  0  0  0  0  0  0
    0.6646   -1.1729    0.0000 N   0  0  0  0  0  0  0  0  0  0  0  0
    2.0917   -1.3098    0.0000 C   0  0  0  0  0  0  0  0  0  0  0  0
    3.3624   -1.7203    0.0000 C   0  0  0  0  0  0  0  0  0  0  0  0
    1.4271   -2.6000    0.0000 C   0  0  0  0  0  0  0  0  0  0  0  0
    2.8933   -1.0361    0.0000 C   0  0  0  0  0  0  0  0  0  0  0  0
    4.2030   -1.7203    0.0000 C   0  0  0  0  0  0  0  0  0  0  0  0
    1.4271   -0.8211    0.0000 C   0  0  0  0  0  0  0  0  0  0  0  0
    0.6646   -2.2676    0.0000 C   0  0  0  0  0  0  0  0  0  0  0  0
    4.6135   -2.4436    0.0000 C   0  0  0  0  0  0  0  0  0  0  0  0
    1.5053   -3.4210    0.0000 C   0  0  0  0  0  0  0  0  0  0  0  0
    4.6135   -0.9970    0.0000 C   0  0  0  0  0  0  0  0  0  0  0  0
    0.0000   -2.7564    0.0000 C   0  0  0  0  0  0  0  0  0  0  0  0
    5.4346   -2.4436    0.0000 C   0  0  0  0  0  0  0  0  0  0  0  0
    0.8406   -3.9097    0.0000 C   0  0  0  0  0  0  0  0  0  0  0  0
    5.4346   -0.9970    0.0000 C   0  0  0  0  0  0  0  0  0  0  0  0
    0.0782   -3.5774    0.0000 C   0  0  0  0  0  0  0  0  0  0  0  0
    0.5865   -1.4466    0.0000 C   0  0  0  0  0  0  0  0  0  0  0  0
    5.8451   -1.7203    0.0000 C   0  0  0  0  0  0  0  0  0  0  0  0
    4.2030   -3.1473    0.0000 C   0  0  0  0  0  0  0  0  0  0  0  0
  1 11  2  0  0  0  0
  2  5  1  0  0  0  0
  3  4  1  0  0  0  0
  3  6  1  0  0  0  0
  3  8  1  0  0  0  0
  4  7  2  0  0  0  0
  5 11  1  0  0  0  0
  6  9  2  0  0  0  0
  6 11  1  0  0  0  0
  7  9  1  0  0  0  0
  7 10  1  0  0  0  0
  8 12  2  0  0  0  0
  8 14  1  0  0  0  0
 10 13  2  0  0  0  0
 10 15  1  0  0  0  0
 12 16  1  0  0  0  0
 12 21  1  0  0  0  0
 13 17  1  0  0  0  0
 13 23  1  0  0  0  0
 14 18  2  0  0  0  0
 15 19  2  0  0  0  0
 16 20  2  0  0  0  0
 17 22  2  0  0  0  0
 18 20  1  0  0  0  0
 19 22  1  0  0  0  0
M  END
> <PUBCHEM_COMPOUND_ID_TYPE>
0

> <PUBCHEM_TOTAL_CHARGE>
0

> <PUBCHEM_SUBSTANCE_ID>
310934011

> <PUBCHEM_SUBSTANCE_VERSION>
1

> <PUBCHEM_EXT_DATASOURCE_NAME>
4488

> <PUBCHEM_EXT_DATASOURCE_REGID>
SCHEMBL16111455

> <PUBCHEM_SUBSTANCE_COMMENT>
InChI=1S/C18H17N3O2/c1-12-7-3-5-9-14(12)15-11-17(18(22)20-23)21(19-15)16-10-6-4-8-13(16)2/h3-11,23H,1-2H3,(H,20,22)
InChIKey=SQOHRPXKKKWAET-UHFFFAOYSA-N

> <PUBCHEM_SUBSTANCE_SYNONYM>
SCHEMBL16111455

> <PUBCHEM_XREF_EXT_ID>
SCHEMBL16111455

> <PUBCHEM_EXT_DATASOURCE_URL>
https://www.surechembl.org/

> <PUBCHEM_EXT_SUBSTANCE_URL>
https://www.surechembl.org/chemical/SCHEMBL16111455

> <PUBCHEM_CID_ASSOCIATIONS>
86291844  1

> <PUBCHEM_COORDINATE_TYPE>
1
3

$$$$
