310937173
  -OEChem-07211613022D

 19 20  0     0  0  0  0  0  0999 V2000
    1.1277   -1.4499    0.0000 O   0  0  0  0  0  0  0  0  0  0  0  0
    2.3474   -0.7134    0.0000 O   0  0  0  0  0  0  0  0  0  0  0  0
    2.3705   -2.1403    0.0000 N   0  0  0  0  0  0  0  0  0  0  0  0
    6.9043   -2.8538    0.0000 N   0  0  0  0  0  0  0  0  0  0  0  0
    4.4418   -2.8538    0.0000 C   0  0  0  0  0  0  0  0  0  0  0  0
    4.8560   -2.1403    0.0000 C   0  0  0  0  0  0  0  0  0  0  0  0
    3.1760   -2.1403    0.0000 C   0  0  0  0  0  0  0  0  0  0  0  0
    3.6132   -2.8538    0.0000 C   0  0  0  0  0  0  0  0  0  0  0  0
    4.4187   -1.4269    0.0000 C   0  0  0  0  0  0  0  0  0  0  0  0
    5.6615   -2.1403    0.0000 C   0  0  0  0  0  0  0  0  0  0  0  0
    3.5902   -1.4269    0.0000 C   0  0  0  0  0  0  0  0  0  0  0  0
    4.8330   -3.5672    0.0000 C   0  0  0  0  0  0  0  0  0  0  0  0
    6.0758   -2.8538    0.0000 C   0  0  0  0  0  0  0  0  0  0  0  0
    1.9332   -1.4499    0.0000 C   0  0  0  0  0  0  0  0  0  0  0  0
    5.6615   -3.5672    0.0000 C   0  0  0  0  0  0  0  0  0  0  0  0
    0.6904   -0.7364    0.0000 C   0  0  0  0  0  0  0  0  0  0  0  0
    0.2761    0.0000    0.0000 C   0  0  0  0  0  0  0  0  0  0  0  0
    1.4039   -0.3222    0.0000 C   0  0  0  0  0  0  0  0  0  0  0  0
    0.0000   -1.1507    0.0000 C   0  0  0  0  0  0  0  0  0  0  0  0
  1 14  1  0  0  0  0
  1 16  1  0  0  0  0
  2 14  2  0  0  0  0
  3  7  1  0  0  0  0
  3 14  1  0  0  0  0
  4 13  1  0  0  0  0
  5  6  2  0  0  0  0
  5  8  1  0  0  0  0
  5 12  1  0  0  0  0
  6  9  1  0  0  0  0
  6 10  1  0  0  0  0
  7  8  2  0  0  0  0
  7 11  1  0  0  0  0
  9 11  2  0  0  0  0
 10 13  2  0  0  0  0
 12 15  2  0  0  0  0
 13 15  1  0  0  0  0
 16 17  1  0  0  0  0
 16 18  1  0  0  0  0
 16 19  1  0  0  0  0
M  END
> <PUBCHEM_COMPOUND_ID_TYPE>
0

> <PUBCHEM_TOTAL_CHARGE>
0

> <PUBCHEM_SUBSTANCE_ID>
310937173

> <PUBCHEM_SUBSTANCE_VERSION>
1

> <PUBCHEM_EXT_DATASOURCE_NAME>
4488

> <PUBCHEM_EXT_DATASOURCE_REGID>
SCHEMBL16114898

> <PUBCHEM_SUBSTANCE_COMMENT>
InChI=1S/C15H18N2O2/c1-15(2,3)19-14(18)17-13-7-5-10-8-12(16)6-4-11(10)9-13/h4-9H,16H2,1-3H3,(H,17,18)
InChIKey=VGYZOAQDBCREJZ-UHFFFAOYSA-N

> <PUBCHEM_SUBSTANCE_SYNONYM>
SCHEMBL16114898

> <PUBCHEM_XREF_EXT_ID>
SCHEMBL16114898

> <PUBCHEM_EXT_DATASOURCE_URL>
https://www.surechembl.org/

> <PUBCHEM_EXT_SUBSTANCE_URL>
https://www.surechembl.org/chemical/SCHEMBL16114898

> <PUBCHEM_CID_ASSOCIATIONS>
117604992  1

> <PUBCHEM_COORDINATE_TYPE>
1
3

$$$$
