310947589
  -OEChem-07211613022D

 47 51  0     1  0  0  0  0  0999 V2000
   -1.3926    4.0738    0.0000 P   0  0  3  0  0  0  0  0  0  0  0  0
    0.4134    1.6215    0.0000 F   0  0  0  0  0  0  0  0  0  0  0  0
    1.2384    3.6055    0.0000 O   0  0  0  0  0  0  0  0  0  0  0  0
    2.0634    1.6215    0.0000 O   0  0  0  0  0  0  0  0  0  0  0  0
   -0.8093    3.4904    0.0000 O   0  0  0  0  0  0  0  0  0  0  0  0
    3.4049    6.2630    0.0000 O   0  0  0  0  0  0  0  0  0  0  0  0
   -1.9760    4.6571    0.0000 O   0  0  0  0  0  0  0  0  0  0  0  0
   -0.8093    4.6571    0.0000 O   0  0  0  0  0  0  0  0  0  0  0  0
   -2.6905    1.4279    0.0000 O   0  0  0  0  0  0  0  0  0  0  0  0
   -3.4049    2.6654    0.0000 O   0  0  0  0  0  0  0  0  0  0  0  0
    1.9059    3.9456    0.0000 N   0  0  0  0  0  0  0  0  0  0  0  0
    1.9059    5.2805    0.0000 N   0  0  0  0  0  0  0  0  0  0  0  0
    3.4049    3.7880    0.0000 N   0  0  0  0  0  0  0  0  0  0  0  0
    4.1194    5.0255    0.0000 N   0  0  0  0  0  0  0  0  0  0  0  0
   -1.9760    3.4904    0.0000 N   0  0  0  0  0  0  0  0  0  0  0  0
    1.9059    3.1206    0.0000 C   0  0  3  0  0  0  0  0  0  0  0  0
    1.6509    2.3360    0.0000 C   0  0  3  0  0  0  0  0  0  0  0  0
    0.8259    2.3360    0.0000 C   0  0  3  0  0  0  0  0  0  0  0  0
    2.6905    4.2005    0.0000 C   0  0  0  0  0  0  0  0  0  0  0  0
    0.5710    3.1206    0.0000 C   0  0  3  0  0  0  0  0  0  0  0  0
    2.6905    5.0255    0.0000 C   0  0  0  0  0  0  0  0  0  0  0  0
    1.4209    4.6130    0.0000 C   0  0  0  0  0  0  0  0  0  0  0  0
    3.4049    5.4380    0.0000 C   0  0  0  0  0  0  0  0  0  0  0  0
    2.4478    2.5495    0.0000 C   0  0  0  0  0  0  0  0  0  0  0  0
   -0.0124    3.7039    0.0000 C   0  0  0  0  0  0  0  0  0  0  0  0
    4.1194    4.2005    0.0000 C   0  0  0  0  0  0  0  0  0  0  0  0
   -1.9760    5.4821    0.0000 C   0  0  0  0  0  0  0  0  0  0  0  0
   -2.6905    5.8946    0.0000 C   0  0  0  0  0  0  0  0  0  0  0  0
    4.8339    3.7880    0.0000 C   0  0  0  0  0  0  0  0  0  0  0  0
   -2.6905    6.7196    0.0000 C   0  0  0  0  0  0  0  0  0  0  0  0
   -1.9760    2.6654    0.0000 C   0  0  3  0  0  0  0  0  0  0  0  0
   -1.2615    5.8946    0.0000 C   0  0  0  0  0  0  0  0  0  0  0  0
    4.1194    6.6755    0.0000 C   0  0  0  0  0  0  0  0  0  0  0  0
   -3.4049    5.4821    0.0000 C   0  0  0  0  0  0  0  0  0  0  0  0
   -1.9760    7.1321    0.0000 C   0  0  0  0  0  0  0  0  0  0  0  0
   -1.2615    6.7196    0.0000 C   0  0  0  0  0  0  0  0  0  0  0  0
   -3.4049    7.1321    0.0000 C   0  0  0  0  0  0  0  0  0  0  0  0
   -2.6905    2.2529    0.0000 C   0  0  0  0  0  0  0  0  0  0  0  0
   -4.1194    5.8946    0.0000 C   0  0  0  0  0  0  0  0  0  0  0  0
   -4.1194    6.7196    0.0000 C   0  0  0  0  0  0  0  0  0  0  0  0
   -1.2615    2.2529    0.0000 C   0  0  0  0  0  0  0  0  0  0  0  0
   -3.4049    1.0154    0.0000 C   0  0  0  0  0  0  0  0  0  0  0  0
   -3.4049    0.1904    0.0000 C   0  0  0  0  0  0  0  0  0  0  0  0
   -4.1194   -0.2221    0.0000 C   0  0  0  0  0  0  0  0  0  0  0  0
   -4.1194   -1.0471    0.0000 C   0  0  0  0  0  0  0  0  0  0  0  0
   -4.8339    0.1904    0.0000 C   0  0  0  0  0  0  0  0  0  0  0  0
   -4.8339   -0.6346    0.0000 C   0  0  0  0  0  0  0  0  0  0  0  0
  1  5  1  0  0  0  0
  1  7  1  0  0  0  0
  1  8  2  0  0  0  0
  1 15  1  0  0  0  0
 18  2  1  6  0  0  0
 16  3  1  6  0  0  0
  3 20  1  0  0  0  0
 17  4  1  6  0  0  0
  5 25  1  0  0  0  0
  6 23  1  0  0  0  0
  6 33  1  0  0  0  0
  7 27  1  0  0  0  0
  9 38  1  0  0  0  0
  9 42  1  0  0  0  0
 10 38  2  0  0  0  0
 11 16  1  0  0  0  0
 11 19  1  0  0  0  0
 11 22  1  0  0  0  0
 12 21  1  0  0  0  0
 12 22  2  0  0  0  0
 13 19  1  0  0  0  0
 13 26  2  0  0  0  0
 14 23  2  0  0  0  0
 14 26  1  0  0  0  0
 15 31  1  0  0  0  0
 16 17  1  0  0  0  0
 17 18  1  0  0  0  0
 17 24  1  1  0  0  0
 18 20  1  0  0  0  0
 19 21  2  0  0  0  0
 20 25  1  1  0  0  0
 21 23  1  0  0  0  0
 26 29  1  0  0  0  0
 27 28  1  0  0  0  0
 27 32  2  0  0  0  0
 28 30  2  0  0  0  0
 28 34  1  0  0  0  0
 30 35  1  0  0  0  0
 30 37  1  0  0  0  0
 31 38  1  0  0  0  0
 31 41  1  1  0  0  0
 32 36  1  0  0  0  0
 34 39  2  0  0  0  0
 35 36  2  0  0  0  0
 37 40  2  0  0  0  0
 39 40  1  0  0  0  0
 42 43  1  0  0  0  0
 43 44  1  0  0  0  0
 44 45  1  0  0  0  0
 44 46  1  0  0  0  0
 44 47  1  0  0  0  0
M  END
> <PUBCHEM_COMPOUND_ID_TYPE>
0

> <PUBCHEM_TOTAL_CHARGE>
0

> <PUBCHEM_SUBSTANCE_ID>
310947589

> <PUBCHEM_SUBSTANCE_VERSION>
1

> <PUBCHEM_EXT_DATASOURCE_NAME>
4488

> <PUBCHEM_EXT_DATASOURCE_REGID>
SCHEMBL16125752

> <PUBCHEM_SUBSTANCE_COMMENT>
InChI=1S/C32H41FN5O8P/c1-19(29(39)43-16-15-31(3,4)5)37-47(41,46-23-14-10-12-21-11-8-9-13-22(21)23)44-17-24-26(33)32(6,40)30(45-24)38-18-34-25-27(38)35-20(2)36-28(25)42-7/h8-14,18-19,24,26,30,40H,15-17H2,1-7H3,(H,37,41)/t19-,24+,26+,30+,32+,47?/m0/s1
InChIKey=DPWPZKHYCQCGLC-ZQVLZHMNSA-N

> <PUBCHEM_SUBSTANCE_SYNONYM>
SCHEMBL16125752

> <PUBCHEM_XREF_EXT_ID>
SCHEMBL16125752

> <PUBCHEM_EXT_DATASOURCE_URL>
https://www.surechembl.org/

> <PUBCHEM_EXT_SUBSTANCE_URL>
https://www.surechembl.org/chemical/SCHEMBL16125752

> <PUBCHEM_CID_ASSOCIATIONS>
117613311  1

> <PUBCHEM_COORDINATE_TYPE>
1
3

> <PUBCHEM_BONDANNOTATIONS>
17  24  5
18  2  6
20  25  5
16  3  6
31  41  5
17  4  6

$$$$
