310939753
  -OEChem-07211613022D

 17 17  0     0  0  0  0  0  0999 V2000
    2.2474    1.9562    0.0000 Cl  0  0  0  0  0  0  0  0  0  0  0  0
    3.9783    0.0042    0.0000 F   0  0  0  0  0  0  0  0  0  0  0  0
    5.1052    0.3062    0.0000 F   0  0  0  0  0  0  0  0  0  0  0  0
    4.8033    1.4331    0.0000 F   0  0  0  0  0  0  0  0  0  0  0  0
    0.8184   -0.5188    0.0000 O   0  0  0  0  0  0  0  0  0  0  0  0
    2.2474   -0.5188    0.0000 C   0  0  0  0  0  0  0  0  0  0  0  0
    2.9618    0.7187    0.0000 C   0  0  0  0  0  0  0  0  0  0  0  0
    1.5329   -0.1063    0.0000 C   0  0  0  0  0  0  0  0  0  0  0  0
    2.2474   -1.3438    0.0000 C   0  0  0  0  0  0  0  0  0  0  0  0
    2.2474    1.1312    0.0000 C   0  0  0  0  0  0  0  0  0  0  0  0
    2.9618   -0.1063    0.0000 C   0  0  0  0  0  0  0  0  0  0  0  0
    1.5329    0.7187    0.0000 C   0  0  0  0  0  0  0  0  0  0  0  0
    3.6763    1.1312    0.0000 C   0  0  0  0  0  0  0  0  0  0  0  0
    4.3908    0.7187    0.0000 C   0  0  0  0  0  0  0  0  0  0  0  0
    3.0724   -1.3438    0.0000 C   0  0  0  0  0  0  0  0  0  0  0  0
    1.4224   -1.3438    0.0000 C   0  0  0  0  0  0  0  0  0  0  0  0
    2.2474   -2.1688    0.0000 C   0  0  0  0  0  0  0  0  0  0  0  0
  1 10  1  0  0  0  0
  2 14  1  0  0  0  0
  3 14  1  0  0  0  0
  4 14  1  0  0  0  0
  5  8  1  0  0  0  0
  6  8  1  0  0  0  0
  6  9  1  0  0  0  0
  6 11  2  0  0  0  0
  7 10  2  0  0  0  0
  7 11  1  0  0  0  0
  7 13  1  0  0  0  0
  8 12  2  0  0  0  0
  9 15  1  0  0  0  0
  9 16  1  0  0  0  0
  9 17  1  0  0  0  0
 10 12  1  0  0  0  0
 13 14  1  0  0  0  0
M  END
> <PUBCHEM_COMPOUND_ID_TYPE>
0

> <PUBCHEM_TOTAL_CHARGE>
0

> <PUBCHEM_SUBSTANCE_ID>
310939753

> <PUBCHEM_SUBSTANCE_VERSION>
1

> <PUBCHEM_EXT_DATASOURCE_NAME>
4488

> <PUBCHEM_EXT_DATASOURCE_REGID>
SCHEMBL16117683

> <PUBCHEM_SUBSTANCE_COMMENT>
InChI=1S/C12H14ClF3O/c1-11(2,3)8-4-7(6-12(14,15)16)9(13)5-10(8)17/h4-5,17H,6H2,1-3H3
InChIKey=AVEMKQPYMORBGP-UHFFFAOYSA-N

> <PUBCHEM_SUBSTANCE_SYNONYM>
SCHEMBL16117683

> <PUBCHEM_XREF_EXT_ID>
SCHEMBL16117683

> <PUBCHEM_EXT_DATASOURCE_URL>
https://www.surechembl.org/

> <PUBCHEM_EXT_SUBSTANCE_URL>
https://www.surechembl.org/chemical/SCHEMBL16117683

> <PUBCHEM_CID_ASSOCIATIONS>
117606976  1

> <PUBCHEM_COORDINATE_TYPE>
1
3

> <PUBCHEM_BONDANNOTATIONS>
9  15  3
9  16  3

$$$$
