310933190
  -OEChem-07211613022D

 28 32  0     0  0  0  0  0  0999 V2000
    0.0000   -4.3987    0.0000 O   0  0  0  0  0  0  0  0  0  0  0  0
    5.5258   -3.2990    0.0000 O   0  0  0  0  0  0  0  0  0  0  0  0
    4.2062   -2.6392    0.0000 N   0  0  0  0  0  0  0  0  0  0  0  0
    4.2062   -3.9588    0.0000 N   0  0  0  0  0  0  0  0  0  0  0  0
    1.9794   -0.4124    0.0000 N   0  0  0  0  0  0  0  0  0  0  0  0
    0.4124   -5.1409    0.0000 N   0  0  0  0  0  0  0  0  0  0  0  0
    4.0962    0.0000    0.0000 N   0  0  0  0  0  0  0  0  0  0  0  0
    2.6942   -2.4742    0.0000 C   0  0  0  0  0  0  0  0  0  0  0  0
    3.4089   -2.8591    0.0000 C   0  0  0  0  0  0  0  0  0  0  0  0
    2.6942   -1.6495    0.0000 C   0  0  0  0  0  0  0  0  0  0  0  0
    3.4089   -3.7114    0.0000 C   0  0  0  0  0  0  0  0  0  0  0  0
    2.0069   -3.7114    0.0000 C   0  0  0  0  0  0  0  0  0  0  0  0
    2.0069   -2.8591    0.0000 C   0  0  0  0  0  0  0  0  0  0  0  0
    3.3815   -1.2371    0.0000 C   0  0  0  0  0  0  0  0  0  0  0  0
    1.2921   -4.1237    0.0000 C   0  0  0  0  0  0  0  0  0  0  0  0
    2.6942   -4.1237    0.0000 C   0  0  0  0  0  0  0  0  0  0  0  0
    1.9794   -1.2371    0.0000 C   0  0  0  0  0  0  0  0  0  0  0  0
    3.3815   -0.4124    0.0000 C   0  0  0  0  0  0  0  0  0  0  0  0
    4.7011   -3.2990    0.0000 C   0  0  0  0  0  0  0  0  0  0  0  0
    0.5498   -3.8213    0.0000 C   0  0  0  0  0  0  0  0  0  0  0  0
    1.2096   -4.9485    0.0000 C   0  0  0  0  0  0  0  0  0  0  0  0
    4.0962   -1.6495    0.0000 C   0  0  0  0  0  0  0  0  0  0  0  0
    2.6942    0.0000    0.0000 C   0  0  0  0  0  0  0  0  0  0  0  0
    1.2646   -1.6495    0.0000 C   0  0  0  0  0  0  0  0  0  0  0  0
    4.8110   -1.2371    0.0000 C   0  0  0  0  0  0  0  0  0  0  0  0
    4.8110   -0.4124    0.0000 C   0  0  0  0  0  0  0  0  0  0  0  0
    0.3574   -2.9966    0.0000 C   0  0  0  0  0  0  0  0  0  0  0  0
    1.8144   -5.4983    0.0000 C   0  0  0  0  0  0  0  0  0  0  0  0
  1  6  1  0  0  0  0
  1 20  1  0  0  0  0
  2 19  2  0  0  0  0
  3  9  1  0  0  0  0
  3 19  1  0  0  0  0
  4 11  1  0  0  0  0
  4 19  1  0  0  0  0
  5 17  2  0  0  0  0
  5 23  1  0  0  0  0
  6 21  2  0  0  0  0
  7 18  1  0  0  0  0
  7 26  2  0  0  0  0
  8  9  1  0  0  0  0
  8 10  1  0  0  0  0
  8 13  2  0  0  0  0
  9 11  2  0  0  0  0
 10 14  2  0  0  0  0
 10 17  1  0  0  0  0
 11 16  1  0  0  0  0
 12 13  1  0  0  0  0
 12 15  1  0  0  0  0
 12 16  2  0  0  0  0
 14 18  1  0  0  0  0
 14 22  1  0  0  0  0
 15 20  2  0  0  0  0
 15 21  1  0  0  0  0
 17 24  1  0  0  0  0
 18 23  2  0  0  0  0
 20 27  1  0  0  0  0
 21 28  1  0  0  0  0
 22 25  2  0  0  0  0
 25 26  1  0  0  0  0
M  END
> <PUBCHEM_COMPOUND_ID_TYPE>
0

> <PUBCHEM_TOTAL_CHARGE>
0

> <PUBCHEM_SUBSTANCE_ID>
310933190

> <PUBCHEM_SUBSTANCE_VERSION>
1

> <PUBCHEM_EXT_DATASOURCE_NAME>
4488

> <PUBCHEM_EXT_DATASOURCE_REGID>
SCHEMBL16110599

> <PUBCHEM_SUBSTANCE_COMMENT>
InChI=1S/C21H17N5O2/c1-10-19(14-5-4-6-22-17(14)9-23-10)15-7-13(18-11(2)26-28-12(18)3)8-16-20(15)25-21(27)24-16/h4-9H,1-3H3,(H2,24,25,27)
InChIKey=KCAPFEQVZMAFCI-UHFFFAOYSA-N

> <PUBCHEM_SUBSTANCE_SYNONYM>
SCHEMBL16110599

> <PUBCHEM_XREF_EXT_ID>
SCHEMBL16110599

> <PUBCHEM_EXT_DATASOURCE_URL>
https://www.surechembl.org/

> <PUBCHEM_EXT_SUBSTANCE_URL>
https://www.surechembl.org/chemical/SCHEMBL16110599

> <PUBCHEM_CID_ASSOCIATIONS>
117601634  1

> <PUBCHEM_COORDINATE_TYPE>
1
3

$$$$
