310938751
  -OEChem-07211613022D

 38 41  0     1  0  0  0  0  0999 V2000
   -2.0816   -9.2790    0.0000 S   0  0  3  0  0  0  0  0  0  0  0  0
   -2.8785   -9.4926    0.0000 O   0  0  0  0  0  0  0  0  0  0  0  0
   -8.1635  -13.0194    0.0000 O   0  0  0  0  0  0  0  0  0  0  0  0
   -1.8681   -8.4822    0.0000 O   0  0  0  0  0  0  0  0  0  0  0  0
   -1.4983   -9.8624    0.0000 N   0  0  0  0  0  0  0  0  0  0  0  0
   -3.8767  -10.5444    0.0000 C   0  0  3  0  0  0  0  0  0  0  0  0
   -3.8767  -11.3694    0.0000 C   0  0  3  0  0  0  0  0  0  0  0  0
   -5.3056  -11.3694    0.0000 C   0  0  3  0  0  0  0  0  0  0  0  0
   -6.0201  -11.7819    0.0000 C   0  0  3  0  0  0  0  0  0  0  0  0
   -4.5911  -11.7819    0.0000 C   0  0  3  0  0  0  0  0  0  0  0  0
   -3.0920  -10.2895    0.0000 C   0  0  3  0  0  0  0  0  0  0  0  0
   -6.0201  -12.6069    0.0000 C   0  0  0  0  0  0  0  0  0  0  0  0
   -4.5911  -10.1319    0.0000 C   0  0  0  0  0  0  0  0  0  0  0  0
   -5.3056  -10.5444    0.0000 C   0  0  0  0  0  0  0  0  0  0  0  0
   -3.0920  -11.6243    0.0000 C   0  0  0  0  0  0  0  0  0  0  0  0
   -4.5911  -12.6069    0.0000 C   0  0  0  0  0  0  0  0  0  0  0  0
   -2.6071  -10.9569    0.0000 C   0  0  0  0  0  0  0  0  0  0  0  0
   -6.7346  -11.3694    0.0000 C   0  0  0  0  0  0  0  0  0  0  0  0
   -5.3056  -13.0194    0.0000 C   0  0  0  0  0  0  0  0  0  0  0  0
   -3.8767   -9.7194    0.0000 C   0  0  0  0  0  0  0  0  0  0  0  0
   -6.7346  -13.0194    0.0000 C   0  0  0  0  0  0  0  0  0  0  0  0
   -6.0201  -10.9569    0.0000 C   0  0  0  0  0  0  0  0  0  0  0  0
   -7.4490  -12.6069    0.0000 C   0  0  0  0  0  0  0  0  0  0  0  0
   -7.4490  -11.7819    0.0000 C   0  0  0  0  0  0  0  0  0  0  0  0
   -0.7014   -9.6489    0.0000 C   0  0  0  0  0  0  0  0  0  0  0  0
   -0.1180  -10.2322    0.0000 C   0  0  0  0  0  0  0  0  0  0  0  0
    0.6789  -10.0187    0.0000 C   0  0  0  0  0  0  0  0  0  0  0  0
    1.2622  -10.6021    0.0000 C   0  0  0  0  0  0  0  0  0  0  0  0
    2.0591  -10.3886    0.0000 C   0  0  0  0  0  0  0  0  0  0  0  0
    2.6425  -10.9719    0.0000 C   0  0  0  0  0  0  0  0  0  0  0  0
    3.4394  -10.7584    0.0000 C   0  0  0  0  0  0  0  0  0  0  0  0
    4.0227  -11.3418    0.0000 C   0  0  0  0  0  0  0  0  0  0  0  0
    4.8196  -11.1282    0.0000 C   0  0  0  0  0  0  0  0  0  0  0  0
    5.4030  -11.7116    0.0000 C   0  0  0  0  0  0  0  0  0  0  0  0
    6.1999  -11.4981    0.0000 C   0  0  0  0  0  0  0  0  0  0  0  0
    6.7832  -12.0814    0.0000 C   0  0  0  0  0  0  0  0  0  0  0  0
    7.5801  -11.8679    0.0000 C   0  0  0  0  0  0  0  0  0  0  0  0
    8.1635  -12.4513    0.0000 C   0  0  0  0  0  0  0  0  0  0  0  0
  1  2  1  0  0  0  0
  1  4  2  0  0  0  0
  1  5  1  0  0  0  0
 11  2  1  1  0  0  0
  3 23  2  0  0  0  0
  5 25  1  0  0  0  0
  6  7  1  0  0  0  0
  6 11  1  0  0  0  0
  6 13  1  0  0  0  0
  6 20  1  1  0  0  0
  7 10  1  0  0  0  0
  7 15  1  1  0  0  0
  8  9  1  0  0  0  0
  8 10  1  0  0  0  0
  8 14  1  1  0  0  0
  9 12  1  0  0  0  0
  9 18  1  0  0  0  0
  9 22  1  1  0  0  0
 10 16  1  6  0  0  0
 11 17  1  0  0  0  0
 12 19  1  0  0  0  0
 12 21  2  0  0  0  0
 13 14  1  0  0  0  0
 15 17  1  0  0  0  0
 16 19  1  0  0  0  0
 18 24  1  0  0  0  0
 21 23  1  0  0  0  0
 23 24  1  0  0  0  0
 25 26  1  0  0  0  0
 26 27  1  0  0  0  0
 27 28  1  0  0  0  0
 28 29  1  0  0  0  0
 29 30  1  0  0  0  0
 30 31  1  0  0  0  0
 31 32  1  0  0  0  0
 32 33  1  0  0  0  0
 33 34  1  0  0  0  0
 34 35  1  0  0  0  0
 35 36  1  0  0  0  0
 36 37  1  0  0  0  0
 37 38  1  0  0  0  0
M  END
> <PUBCHEM_COMPOUND_ID_TYPE>
0

> <PUBCHEM_TOTAL_CHARGE>
0

> <PUBCHEM_SUBSTANCE_ID>
310938751

> <PUBCHEM_SUBSTANCE_VERSION>
1

> <PUBCHEM_EXT_DATASOURCE_NAME>
4488

> <PUBCHEM_EXT_DATASOURCE_REGID>
SCHEMBL16116667

> <PUBCHEM_SUBSTANCE_COMMENT>
InChI=1S/C33H57NO3S/c1-4-5-6-7-8-9-10-11-12-13-14-15-24-34-38(36)37-31-19-18-29-28-17-16-26-25-27(35)20-22-32(26,2)30(28)21-23-33(29,31)3/h25,28-31,34H,4-24H2,1-3H3/t28-,29-,30-,31-,32-,33-,38?/m0/s1
InChIKey=AUJDXEQFYANBCQ-GIPCAHNLSA-N

> <PUBCHEM_SUBSTANCE_SYNONYM>
SCHEMBL16116667

> <PUBCHEM_XREF_EXT_ID>
SCHEMBL16116667

> <PUBCHEM_EXT_DATASOURCE_URL>
https://www.surechembl.org/

> <PUBCHEM_EXT_SUBSTANCE_URL>
https://www.surechembl.org/chemical/SCHEMBL16116667

> <PUBCHEM_CID_ASSOCIATIONS>
117606165  1

> <PUBCHEM_COORDINATE_TYPE>
1
3

> <PUBCHEM_BONDANNOTATIONS>
10  16  6
11  2  5
6  20  5
7  15  5
8  14  5
9  22  5

$$$$
