310936643
  -OEChem-07211613022D

 29 31  0     1  0  0  0  0  0999 V2000
    1.3018    0.0468    0.0000 O   0  0  0  0  0  0  0  0  0  0  0  0
    4.5538    0.2202    0.0000 O   0  0  0  0  0  0  0  0  0  0  0  0
    6.5402    2.4343    0.0000 O   0  0  0  0  0  0  0  0  0  0  0  0
    3.3420   -0.5370    0.0000 O   0  0  0  0  0  0  0  0  0  0  0  0
    3.3523    3.5854    0.0000 N   0  0  0  0  0  0  0  0  0  0  0  0
    3.3523    4.4104    0.0000 N   0  3  0  0  0  0  0  0  0  0  0  0
    3.3523    5.2354    0.0000 N   0  5  0  0  0  0  0  0  0  0  0  0
    1.9233    1.1104    0.0000 C   0  0  3  0  0  0  0  0  0  0  0  0
    1.9233    1.9354    0.0000 C   0  0  3  0  0  0  0  0  0  0  0  0
    1.1387    0.8555    0.0000 C   0  0  3  0  0  0  0  0  0  0  0  0
    2.6378    2.3479    0.0000 C   0  0  3  0  0  0  0  0  0  0  0  0
    3.3523    1.9354    0.0000 C   0  0  3  0  0  0  0  0  0  0  0  0
    4.0668    2.3479    0.0000 C   0  0  3  0  0  0  0  0  0  0  0  0
    2.6378    0.6979    0.0000 C   0  0  0  0  0  0  0  0  0  0  0  0
    1.1387    2.1904    0.0000 C   0  0  0  0  0  0  0  0  0  0  0  0
    3.3523    1.1104    0.0000 C   0  0  0  0  0  0  0  0  0  0  0  0
    0.6538    1.5229    0.0000 C   0  0  0  0  0  0  0  0  0  0  0  0
    4.5039    1.6483    0.0000 C   0  0  3  0  0  0  0  0  0  0  0  0
    1.8371    0.2900    0.0000 C   0  0  0  0  0  0  0  0  0  0  0  0
    4.4541    3.0764    0.0000 C   0  0  0  0  0  0  0  0  0  0  0  0
    2.6378    3.1729    0.0000 C   0  0  0  0  0  0  0  0  0  0  0  0
    0.5314    0.2971    0.0000 C   0  0  0  0  0  0  0  0  0  0  0  0
    3.3253    2.7096    0.0000 C   0  0  0  0  0  0  0  0  0  0  0  0
    5.3284    1.6771    0.0000 C   0  0  0  0  0  0  0  0  0  0  0  0
    5.2786    3.1052    0.0000 C   0  0  0  0  0  0  0  0  0  0  0  0
    5.7158    2.4055    0.0000 C   0  0  3  0  0  0  0  0  0  0  0  0
    4.1166    0.9199    0.0000 C   0  0  0  0  0  0  0  0  0  0  0  0
    4.1665   -0.5082    0.0000 C   0  0  0  0  0  0  0  0  0  0  0  0
    4.6037   -1.2078    0.0000 C   0  0  0  0  0  0  0  0  0  0  0  0
 10  1  1  1  0  0  0
  2 27  1  0  0  0  0
  2 28  1  0  0  0  0
 26  3  1  6  0  0  0
  4 28  2  0  0  0  0
  5  6  2  0  0  0  0
  5 21  1  0  0  0  0
  6  7  2  0  0  0  0
  8  9  1  0  0  0  0
  8 10  1  0  0  0  0
  8 14  1  0  0  0  0
  8 19  1  1  0  0  0
  9 11  1  0  0  0  0
  9 15  1  1  0  0  0
 10 17  1  0  0  0  0
 10 22  1  6  0  0  0
 11 12  1  0  0  0  0
 11 21  1  6  0  0  0
 12 13  1  0  0  0  0
 12 16  1  1  0  0  0
 13 18  1  0  0  0  0
 13 20  1  0  0  0  0
 13 23  1  6  0  0  0
 14 16  1  0  0  0  0
 15 17  1  0  0  0  0
 18 24  1  0  0  0  0
 18 27  1  6  0  0  0
 20 25  1  0  0  0  0
 24 26  1  0  0  0  0
 25 26  1  0  0  0  0
 28 29  1  0  0  0  0
M  CHG  2   6   1   7  -1
M  END
> <PUBCHEM_COMPOUND_ID_TYPE>
0

> <PUBCHEM_TOTAL_CHARGE>
0

> <PUBCHEM_SUBSTANCE_ID>
310936643

> <PUBCHEM_SUBSTANCE_VERSION>
1

> <PUBCHEM_EXT_DATASOURCE_NAME>
4488

> <PUBCHEM_EXT_DATASOURCE_REGID>
SCHEMBL16114308

> <PUBCHEM_SUBSTANCE_COMMENT>
InChI=1S/C22H37N3O4/c1-14(26)29-13-15-11-16(27)5-8-20(15,2)18-6-9-21(3)19(7-10-22(21,4)28)17(18)12-24-25-23/h15-19,27-28H,5-13H2,1-4H3/t15-,16+,17-,18+,19+,20+,21+,22+/m1/s1
InChIKey=ARLHDADLKMXMPX-KCTWHOTLSA-N

> <PUBCHEM_SUBSTANCE_SYNONYM>
SCHEMBL16114308

> <PUBCHEM_XREF_EXT_ID>
SCHEMBL16114308

> <PUBCHEM_EXT_DATASOURCE_URL>
https://www.surechembl.org/

> <PUBCHEM_EXT_SUBSTANCE_URL>
https://www.surechembl.org/chemical/SCHEMBL16114308

> <PUBCHEM_CID_ASSOCIATIONS>
117604557  1

> <PUBCHEM_COORDINATE_TYPE>
1
3

> <PUBCHEM_BONDANNOTATIONS>
10  1  5
10  22  6
11  21  6
12  16  5
13  23  6
18  27  6
26  3  6
8  19  5
9  15  5

$$$$
