310939886
  -OEChem-07211613022D

 21 22  0     0  0  0  0  0  0999 V2000
   -2.5051   -2.2687    0.0000 Cl  0  0  0  0  0  0  0  0  0  0  0  0
   -3.9341   -1.4437    0.0000 Cl  0  0  0  0  0  0  0  0  0  0  0  0
   -0.3617   -1.0313    0.0000 O   0  0  0  0  0  0  0  0  0  0  0  0
    2.5051    2.2687    0.0000 O   0  0  0  0  0  0  0  0  0  0  0  0
    0.3528    0.2062    0.0000 N   0  0  0  0  0  0  0  0  0  0  0  0
    1.7906    1.0313    0.0000 N   0  0  0  0  0  0  0  0  0  0  0  0
   -0.3617   -0.2062    0.0000 C   0  0  0  0  0  0  0  0  0  0  0  0
   -1.7906   -0.2062    0.0000 C   0  0  0  0  0  0  0  0  0  0  0  0
   -1.0762    0.2062    0.0000 C   0  0  0  0  0  0  0  0  0  0  0  0
    1.0762   -0.2062    0.0000 C   0  0  0  0  0  0  0  0  0  0  0  0
    0.3617    1.0313    0.0000 C   0  0  0  0  0  0  0  0  0  0  0  0
   -2.5051   -1.4437    0.0000 C   0  0  0  0  0  0  0  0  0  0  0  0
   -1.7906   -1.0313    0.0000 C   0  0  0  0  0  0  0  0  0  0  0  0
    1.7906    0.2062    0.0000 C   0  0  0  0  0  0  0  0  0  0  0  0
    1.0762    1.4437    0.0000 C   0  0  0  0  0  0  0  0  0  0  0  0
   -3.2196   -1.0313    0.0000 C   0  0  0  0  0  0  0  0  0  0  0  0
    2.5051    1.4437    0.0000 C   0  0  0  0  0  0  0  0  0  0  0  0
   -2.5051    0.2062    0.0000 C   0  0  0  0  0  0  0  0  0  0  0  0
   -3.2196   -0.2062    0.0000 C   0  0  0  0  0  0  0  0  0  0  0  0
    3.2196    1.0313    0.0000 C   0  0  0  0  0  0  0  0  0  0  0  0
    3.9341    1.4437    0.0000 C   0  0  0  0  0  0  0  0  0  0  0  0
  1 12  1  0  0  0  0
  2 16  1  0  0  0  0
  3  7  2  0  0  0  0
  4 17  2  0  0  0  0
  5  7  1  0  0  0  0
  5 10  1  0  0  0  0
  5 11  1  0  0  0  0
  6 14  1  0  0  0  0
  6 15  1  0  0  0  0
  6 17  1  0  0  0  0
  7  9  1  0  0  0  0
  8  9  1  0  0  0  0
  8 13  1  0  0  0  0
  8 18  2  0  0  0  0
 10 14  1  0  0  0  0
 11 15  1  0  0  0  0
 12 13  2  0  0  0  0
 12 16  1  0  0  0  0
 16 19  2  0  0  0  0
 17 20  1  0  0  0  0
 18 19  1  0  0  0  0
 20 21  2  0  0  0  0
M  END
> <PUBCHEM_COMPOUND_ID_TYPE>
0

> <PUBCHEM_TOTAL_CHARGE>
0

> <PUBCHEM_SUBSTANCE_ID>
310939886

> <PUBCHEM_SUBSTANCE_VERSION>
1

> <PUBCHEM_EXT_DATASOURCE_NAME>
4488

> <PUBCHEM_EXT_DATASOURCE_REGID>
SCHEMBL16117816

> <PUBCHEM_SUBSTANCE_COMMENT>
InChI=1S/C15H16Cl2N2O2/c1-2-14(20)18-5-7-19(8-6-18)15(21)10-11-3-4-12(16)13(17)9-11/h2-4,9H,1,5-8,10H2
InChIKey=DLOQOIUSMJQJHA-UHFFFAOYSA-N

> <PUBCHEM_SUBSTANCE_SYNONYM>
SCHEMBL16117816

> <PUBCHEM_XREF_EXT_ID>
SCHEMBL16117816

> <PUBCHEM_EXT_DATASOURCE_URL>
https://www.surechembl.org/

> <PUBCHEM_EXT_SUBSTANCE_URL>
https://www.surechembl.org/chemical/SCHEMBL16117816

> <PUBCHEM_CID_ASSOCIATIONS>
117607100  1

> <PUBCHEM_COORDINATE_TYPE>
1
3

$$$$
