310942815
  -OEChem-07211613022D

 82 87  0     1  0  0  0  0  0999 V2000
   10.1341    0.8007    0.0000 F   0  0  0  0  0  0  0  0  0  0  0  0
    4.2300   -1.7874    0.0000 F   0  0  0  0  0  0  0  0  0  0  0  0
    8.4519    3.6477    0.0000 F   0  0  0  0  0  0  0  0  0  0  0  0
   10.0047   -3.6477    0.0000 F   0  0  0  0  0  0  0  0  0  0  0  0
    6.9151    1.1727    0.0000 O   0  0  0  0  0  0  0  0  0  0  0  0
    5.5402    2.1271    0.0000 O   0  0  0  0  0  0  0  0  0  0  0  0
    1.7389    0.2345    0.0000 O   0  0  0  0  0  0  0  0  0  0  0  0
    2.4506    1.4801    0.0000 O   0  0  0  0  0  0  0  0  0  0  0  0
   -8.9371   -1.7713    0.0000 O   0  0  0  0  0  0  0  0  0  0  0  0
  -10.0371    0.9463    0.0000 O   0  0  0  0  0  0  0  0  0  0  0  0
   -7.4974    1.1404    0.0000 O   0  0  0  0  0  0  0  0  0  0  0  0
   -8.9047    1.3507    0.0000 O   0  0  0  0  0  0  0  0  0  0  0  0
   -6.8504    0.6227    0.0000 O   0  0  0  0  0  0  0  0  0  0  0  0
   -4.7799   -1.6095    0.0000 O   0  0  0  0  0  0  0  0  0  0  0  0
   -2.6447    0.4448    0.0000 O   0  0  0  0  0  0  0  0  0  0  0  0
   -5.5079   -2.0300    0.0000 O   0  0  0  0  0  0  0  0  0  0  0  0
    8.2092   -0.5419    0.0000 N   0  0  0  0  0  0  0  0  0  0  0  0
    6.0740    0.0081    0.0000 N   0  0  0  0  0  0  0  0  0  0  0  0
    7.6592    0.6875    0.0000 N   0  0  0  0  0  0  0  0  0  0  0  0
    3.2595    0.1213    0.0000 N   0  0  0  0  0  0  0  0  0  0  0  0
   -9.1474   -0.2831    0.0000 N   0  0  0  0  0  0  0  0  0  0  0  0
   -6.2196   -0.7845    0.0000 N   0  0  0  0  0  0  0  0  0  0  0  0
   -4.0682   -0.3802    0.0000 N   0  0  0  0  0  0  0  0  0  0  0  0
   -1.9330   -0.7845    0.0000 N   0  0  0  0  0  0  0  0  0  0  0  0
   -4.7799   -3.2595    0.0000 N   0  0  0  0  0  0  0  0  0  0  0  0
   -6.2196   -3.2595    0.0000 N   0  0  0  0  0  0  0  0  0  0  0  0
    6.7695   -0.4448    0.0000 C   0  0  3  0  0  0  0  0  0  0  0  0
    7.4813   -0.1213    0.0000 C   0  0  0  0  0  0  0  0  0  0  0  0
    6.6563   -1.3022    0.0000 C   0  0  0  0  0  0  0  0  0  0  0  0
    8.4842    0.7845    0.0000 C   0  0  0  0  0  0  0  0  0  0  0  0
    8.8239    0.0404    0.0000 C   0  0  0  0  0  0  0  0  0  0  0  0
    8.9047    1.5286    0.0000 C   0  0  0  0  0  0  0  0  0  0  0  0
    6.1387    0.8330    0.0000 C   0  0  0  0  0  0  0  0  0  0  0  0
    5.3784   -0.3478    0.0000 C   0  0  0  0  0  0  0  0  0  0  0  0
    8.3224   -1.3345    0.0000 C   0  0  0  0  0  0  0  0  0  0  0  0
    4.5049   -0.3154    0.0000 C   0  0  3  0  0  0  0  0  0  0  0  0
    9.7135    1.5125    0.0000 C   0  0  0  0  0  0  0  0  0  0  0  0
    8.5004    2.2404    0.0000 C   0  0  0  0  0  0  0  0  0  0  0  0
    9.0827   -1.6742    0.0000 C   0  0  0  0  0  0  0  0  0  0  0  0
    4.0035   -0.9948    0.0000 C   0  0  3  0  0  0  0  0  0  0  0  0
    5.9122   -1.6418    0.0000 C   0  0  0  0  0  0  0  0  0  0  0  0
    7.3681   -1.7550    0.0000 C   0  0  0  0  0  0  0  0  0  0  0  0
    6.6725   -2.1271    0.0000 C   0  0  0  0  0  0  0  0  0  0  0  0
    5.4917    1.3184    0.0000 C   0  0  3  0  0  0  0  0  0  0  0  0
    4.0682    0.3316    0.0000 C   0  0  0  0  0  0  0  0  0  0  0  0
    8.8724    2.9520    0.0000 C   0  0  0  0  0  0  0  0  0  0  0  0
    3.2432   -0.7036    0.0000 C   0  0  0  0  0  0  0  0  0  0  0  0
   10.1180    2.2242    0.0000 C   0  0  0  0  0  0  0  0  0  0  0  0
    9.6974    2.9359    0.0000 C   0  0  0  0  0  0  0  0  0  0  0  0
    9.1797   -2.4991    0.0000 C   0  0  0  0  0  0  0  0  0  0  0  0
    2.4345    0.6551    0.0000 C   0  0  0  0  0  0  0  0  0  0  0  0
    9.7297   -1.1889    0.0000 C   0  0  0  0  0  0  0  0  0  0  0  0
    9.9400   -2.8227    0.0000 C   0  0  0  0  0  0  0  0  0  0  0  0
    4.7799    0.9301    0.0000 C   0  0  0  0  0  0  0  0  0  0  0  0
   10.4738   -1.5125    0.0000 C   0  0  0  0  0  0  0  0  0  0  0  0
   10.5708   -2.3374    0.0000 C   0  0  0  0  0  0  0  0  0  0  0  0
   -8.3710    0.0243    0.0000 C   0  0  3  0  0  0  0  0  0  0  0  0
   -9.4547   -1.0757    0.0000 C   0  0  0  0  0  0  0  0  0  0  0  0
   -9.9400    0.1213    0.0000 C   0  0  0  0  0  0  0  0  0  0  0  0
    0.9301    0.8816    0.0000 C   0  0  0  0  0  0  0  0  0  0  0  0
  -10.2635   -1.1404    0.0000 C   0  0  0  0  0  0  0  0  0  0  0  0
  -10.5708   -0.4125    0.0000 C   0  0  0  0  0  0  0  0  0  0  0  0
   -8.2901    0.8977    0.0000 C   0  0  0  0  0  0  0  0  0  0  0  0
   -7.7240   -0.4772    0.0000 C   0  0  0  0  0  0  0  0  0  0  0  0
    0.2184    0.4610    0.0000 C   0  0  0  0  0  0  0  0  0  0  0  0
   -6.9799   -0.1860    0.0000 C   0  0  0  0  0  0  0  0  0  0  0  0
   -5.5079   -0.3639    0.0000 C   0  0  3  0  0  0  0  0  0  0  0  0
   -0.5095    0.8654    0.0000 C   0  0  0  0  0  0  0  0  0  0  0  0
    0.2184   -0.3639    0.0000 C   0  0  0  0  0  0  0  0  0  0  0  0
   -4.7799   -0.7522    0.0000 C   0  0  0  0  0  0  0  0  0  0  0  0
   -1.2213   -0.3639    0.0000 C   0  0  0  0  0  0  0  0  0  0  0  0
   -3.3403   -0.7684    0.0000 C   0  0  3  0  0  0  0  0  0  0  0  0
   -1.1889    0.4610    0.0000 C   0  0  0  0  0  0  0  0  0  0  0  0
   -0.4772   -0.7684    0.0000 C   0  0  0  0  0  0  0  0  0  0  0  0
   -5.4917    0.4934    0.0000 C   0  0  0  0  0  0  0  0  0  0  0  0
   -2.6447   -0.3802    0.0000 C   0  0  0  0  0  0  0  0  0  0  0  0
   -3.3403   -1.6257    0.0000 C   0  0  0  0  0  0  0  0  0  0  0  0
   -6.2196    0.8493    0.0000 C   0  0  0  0  0  0  0  0  0  0  0  0
   -4.7638    0.8493    0.0000 C   0  0  0  0  0  0  0  0  0  0  0  0
   -4.0520   -1.9977    0.0000 C   0  0  0  0  0  0  0  0  0  0  0  0
   -4.0844   -2.8388    0.0000 C   0  0  0  0  0  0  0  0  0  0  0  0
   -5.5079   -2.8550    0.0000 C   0  0  0  0  0  0  0  0  0  0  0  0
  1 37  1  0  0  0  0
 40  2  1  1  0  0  0
  3 46  1  0  0  0  0
  4 53  1  0  0  0  0
  5 33  2  0  0  0  0
 44  6  1  6  0  0  0
  7 51  1  0  0  0  0
  7 60  1  0  0  0  0
  8 51  2  0  0  0  0
  9 58  2  0  0  0  0
 10 59  2  0  0  0  0
 11 63  2  0  0  0  0
 12 63  1  0  0  0  0
 13 66  2  0  0  0  0
 14 70  2  0  0  0  0
 15 76  2  0  0  0  0
 16 82  2  0  0  0  0
 17 28  1  0  0  0  0
 17 31  1  0  0  0  0
 17 35  1  0  0  0  0
 27 18  1  1  0  0  0
 18 33  1  0  0  0  0
 18 34  1  0  0  0  0
 19 28  2  0  0  0  0
 19 30  1  0  0  0  0
 20 45  1  0  0  0  0
 20 47  1  0  0  0  0
 20 51  1  0  0  0  0
 21 57  1  0  0  0  0
 21 58  1  0  0  0  0
 21 59  1  0  0  0  0
 22 66  1  0  0  0  0
 67 22  1  1  0  0  0
 23 70  1  0  0  0  0
 72 23  1  6  0  0  0
 24 71  1  0  0  0  0
 24 76  1  0  0  0  0
 25 81  1  0  0  0  0
 25 82  1  0  0  0  0
 26 82  1  0  0  0  0
 27 28  1  0  0  0  0
 27 29  1  0  0  0  0
 29 41  1  0  0  0  0
 29 42  1  0  0  0  0
 29 43  1  0  0  0  0
 30 31  2  0  0  0  0
 30 32  1  0  0  0  0
 32 37  2  0  0  0  0
 32 38  1  0  0  0  0
 33 44  1  0  0  0  0
 36 34  1  1  0  0  0
 35 39  1  0  0  0  0
 36 40  1  0  0  0  0
 36 45  1  0  0  0  0
 37 48  1  0  0  0  0
 38 46  2  0  0  0  0
 39 50  2  0  0  0  0
 39 52  1  0  0  0  0
 40 47  1  0  0  0  0
 44 54  1  0  0  0  0
 46 49  1  0  0  0  0
 48 49  2  0  0  0  0
 50 53  1  0  0  0  0
 52 55  2  0  0  0  0
 53 56  2  0  0  0  0
 55 56  1  0  0  0  0
 57 63  1  6  0  0  0
 57 64  1  0  0  0  0
 58 61  1  0  0  0  0
 59 62  1  0  0  0  0
 60 65  1  0  0  0  0
 61 62  2  0  0  0  0
 64 66  1  0  0  0  0
 65 68  2  0  0  0  0
 65 69  1  0  0  0  0
 67 70  1  0  0  0  0
 67 75  1  0  0  0  0
 68 73  1  0  0  0  0
 69 74  2  0  0  0  0
 71 73  2  0  0  0  0
 71 74  1  0  0  0  0
 72 76  1  0  0  0  0
 72 77  1  0  0  0  0
 75 78  1  0  0  0  0
 75 79  1  0  0  0  0
 77 80  1  0  0  0  0
 80 81  1  0  0  0  0
M  END
> <PUBCHEM_COMPOUND_ID_TYPE>
0

> <PUBCHEM_TOTAL_CHARGE>
0

> <PUBCHEM_SUBSTANCE_ID>
310942815

> <PUBCHEM_SUBSTANCE_VERSION>
1

> <PUBCHEM_EXT_DATASOURCE_NAME>
4488

> <PUBCHEM_EXT_DATASOURCE_REGID>
SCHEMBL16120869

> <PUBCHEM_SUBSTANCE_COMMENT>
InChI=1S/C56H66F4N10O12/c1-30(2)47(66-44(72)23-43(53(78)79)70-45(73)18-19-46(70)74)51(76)65-41(11-8-20-62-54(61)80)50(75)63-37-15-12-32(13-16-37)29-82-55(81)68-25-34(40(60)27-68)26-69(52(77)31(3)71)48(56(4,5)6)49-64-42(38-22-36(58)14-17-39(38)59)28-67(49)24-33-9-7-10-35(57)21-33/h7,9-10,12-19,21-22,28,30-31,34,40-41,43,47-48,71H,8,11,20,23-27,29H2,1-6H3,(H,63,75)(H,65,76)(H,66,72)(H,78,79)(H3,61,62,80)/t31-,34-,40-,41-,43-,47-,48-/m0/s1
InChIKey=VKDZTVSKNWPBNG-AWWXLRQDSA-N

> <PUBCHEM_SUBSTANCE_SYNONYM>
SCHEMBL16120869

> <PUBCHEM_XREF_EXT_ID>
SCHEMBL16120869

> <PUBCHEM_EXT_DATASOURCE_URL>
https://www.surechembl.org/

> <PUBCHEM_EXT_SUBSTANCE_URL>
https://www.surechembl.org/chemical/SCHEMBL16120869

> <PUBCHEM_CID_ASSOCIATIONS>
117609318  1

> <PUBCHEM_COORDINATE_TYPE>
1
3

> <PUBCHEM_BONDANNOTATIONS>
27  18  5
40  2  5
67  22  5
72  23  6
36  34  5
57  63  6
44  6  6

$$$$
