310945172
  -OEChem-07211613022D

 35 38  0     1  0  0  0  0  0999 V2000
    0.7908    2.1416    0.0000 O   0  0  0  0  0  0  0  0  0  0  0  0
    2.7883    2.0377    0.0000 O   0  0  0  0  0  0  0  0  0  0  0  0
   -3.9774   -2.1416    0.0000 O   0  0  0  0  0  0  0  0  0  0  0  0
   -3.8966    0.8716    0.0000 O   0  0  0  0  0  0  0  0  0  0  0  0
    0.6985    0.1328    0.0000 N   0  0  0  0  0  0  0  0  0  0  0  0
    2.6959    0.0289    0.0000 N   0  0  0  0  0  0  0  0  0  0  0  0
   -1.6799    0.9063    0.0000 N   0  0  0  0  0  0  0  0  0  0  0  0
   -4.3123   -0.5138    0.0000 N   0  0  0  0  0  0  0  0  0  0  0  0
    1.3104    0.6985    0.0000 C   0  0  0  0  0  0  0  0  0  0  0  0
    2.1301    0.6523    0.0000 C   0  0  0  0  0  0  0  0  0  0  0  0
    1.3682    1.5067    0.0000 C   0  0  0  0  0  0  0  0  0  0  0  0
    2.1648    1.4605    0.0000 C   0  0  0  0  0  0  0  0  0  0  0  0
   -0.0981    0.4099    0.0000 C   0  0  0  0  0  0  0  0  0  0  0  0
   -1.5182    0.0866    0.0000 C   0  0  0  0  0  0  0  0  0  0  0  0
    3.5040    0.2367    0.0000 C   0  0  3  0  0  0  0  0  0  0  0  0
   -2.1186   -0.4792    0.0000 C   0  0  0  0  0  0  0  0  0  0  0  0
   -0.7100   -0.1675    0.0000 C   0  0  0  0  0  0  0  0  0  0  0  0
   -0.2714    1.2065    0.0000 C   0  0  0  0  0  0  0  0  0  0  0  0
   -3.5271   -0.7677    0.0000 C   0  0  0  0  0  0  0  0  0  0  0  0
    4.0928   -0.3521    0.0000 C   0  0  0  0  0  0  0  0  0  0  0  0
   -2.9152   -0.2252    0.0000 C   0  0  0  0  0  0  0  0  0  0  0  0
   -3.3539   -1.5644    0.0000 C   0  0  0  0  0  0  0  0  0  0  0  0
   -1.9569   -1.2758    0.0000 C   0  0  0  0  0  0  0  0  0  0  0  0
   -1.0680    1.4605    0.0000 C   0  0  0  0  0  0  0  0  0  0  0  0
   -2.5573   -1.8300    0.0000 C   0  0  0  0  0  0  0  0  0  0  0  0
    3.7118    1.0333    0.0000 C   0  0  0  0  0  0  0  0  0  0  0  0
    3.8735   -1.1603    0.0000 C   0  0  0  0  0  0  0  0  0  0  0  0
    4.8895   -0.1443    0.0000 C   0  0  0  0  0  0  0  0  0  0  0  0
   -4.4970    0.2944    0.0000 C   0  0  0  0  0  0  0  0  0  0  0  0
    4.4623   -1.7377    0.0000 C   0  0  0  0  0  0  0  0  0  0  0  0
    5.4668   -0.7100    0.0000 C   0  0  0  0  0  0  0  0  0  0  0  0
    5.2590   -1.5182    0.0000 C   0  0  0  0  0  0  0  0  0  0  0  0
   -5.2936    0.5254    0.0000 C   0  0  0  0  0  0  0  0  0  0  0  0
   -4.7624   -1.8993    0.0000 C   0  0  0  0  0  0  0  0  0  0  0  0
   -5.4668    1.3450    0.0000 C   0  0  0  0  0  0  0  0  0  0  0  0
  1 11  2  0  0  0  0
  2 12  2  0  0  0  0
  3 22  1  0  0  0  0
  3 34  1  0  0  0  0
  4 29  2  0  0  0  0
  5  9  1  0  0  0  0
  5 13  1  0  0  0  0
  6 10  1  0  0  0  0
  6 15  1  0  0  0  0
  7 14  1  0  0  0  0
  7 24  2  0  0  0  0
  8 19  1  0  0  0  0
  8 29  1  0  0  0  0
  9 10  2  0  0  0  0
  9 11  1  0  0  0  0
 10 12  1  0  0  0  0
 11 12  1  0  0  0  0
 13 17  1  0  0  0  0
 13 18  2  0  0  0  0
 14 16  1  0  0  0  0
 14 17  2  0  0  0  0
 15 20  1  0  0  0  0
 15 26  1  6  0  0  0
 16 21  2  0  0  0  0
 16 23  1  0  0  0  0
 18 24  1  0  0  0  0
 19 21  1  0  0  0  0
 19 22  2  0  0  0  0
 20 27  2  0  0  0  0
 20 28  1  0  0  0  0
 22 25  1  0  0  0  0
 23 25  2  0  0  0  0
 27 30  1  0  0  0  0
 28 31  2  0  0  0  0
 29 33  1  0  0  0  0
 30 32  2  0  0  0  0
 31 32  1  0  0  0  0
 33 35  2  0  0  0  0
M  END
> <PUBCHEM_COMPOUND_ID_TYPE>
0

> <PUBCHEM_TOTAL_CHARGE>
0

> <PUBCHEM_SUBSTANCE_ID>
310945172

> <PUBCHEM_SUBSTANCE_VERSION>
1

> <PUBCHEM_EXT_DATASOURCE_NAME>
4488

> <PUBCHEM_EXT_DATASOURCE_REGID>
SCHEMBL16123262

> <PUBCHEM_SUBSTANCE_COMMENT>
InChI=1S/C27H24N4O4/c1-4-23(32)31-21-14-18(10-11-22(21)35-3)20-15-19(12-13-28-20)30-25-24(26(33)27(25)34)29-16(2)17-8-6-5-7-9-17/h4-16,29H,1H2,2-3H3,(H,28,30)(H,31,32)/t16-/m1/s1
InChIKey=GZUMLEXQZXYNGU-MRXNPFEDSA-N

> <PUBCHEM_SUBSTANCE_SYNONYM>
SCHEMBL16123262

> <PUBCHEM_XREF_EXT_ID>
SCHEMBL16123262

> <PUBCHEM_EXT_DATASOURCE_URL>
https://www.surechembl.org/

> <PUBCHEM_EXT_SUBSTANCE_URL>
https://www.surechembl.org/chemical/SCHEMBL16123262

> <PUBCHEM_CID_ASSOCIATIONS>
117611258  1

> <PUBCHEM_COORDINATE_TYPE>
1
3

> <PUBCHEM_BONDANNOTATIONS>
15  26  6

$$$$
