310945099
  -OEChem-07211613022D

 30 33  0     1  0  0  0  0  0999 V2000
    1.7607   -2.1300    0.0000 S   0  0  0  0  0  0  0  0  0  0  0  0
   -3.3120    1.4405    0.0000 S   0  0  0  0  0  0  0  0  0  0  0  0
    3.4105   -2.2162    0.0000 O   0  0  0  0  0  0  0  0  0  0  0  0
   -1.1819    0.1970    0.0000 O   0  0  0  0  0  0  0  0  0  0  0  0
   -3.3243    2.2655    0.0000 O   0  0  0  0  0  0  0  0  0  0  0  0
   -4.1492    1.4405    0.0000 O   0  0  0  0  0  0  0  0  0  0  0  0
    1.9823    0.0492    0.0000 N   0  0  0  0  0  0  0  0  0  0  0  0
    3.6198   -0.8372    0.0000 N   0  0  0  0  0  0  0  0  0  0  0  0
   -3.3120    0.6033    0.0000 N   0  0  3  0  0  0  0  0  0  0  0  0
   -1.8838   -1.0465    0.0000 N   0  0  0  0  0  0  0  0  0  0  0  0
    0.9850   -1.0342    0.0000 C   0  0  0  0  0  0  0  0  0  0  0  0
    1.7607   -0.7880    0.0000 C   0  0  0  0  0  0  0  0  0  0  0  0
    2.2408   -1.4405    0.0000 C   0  0  0  0  0  0  0  0  0  0  0  0
    0.9727   -1.8591    0.0000 C   0  0  0  0  0  0  0  0  0  0  0  0
    0.2463   -0.6280    0.0000 C   0  0  0  0  0  0  0  0  0  0  0  0
   -0.4432   -1.0342    0.0000 C   0  0  0  0  0  0  0  0  0  0  0  0
    3.0657   -1.4529    0.0000 C   0  0  0  0  0  0  0  0  0  0  0  0
    0.2708   -2.2655    0.0000 C   0  0  0  0  0  0  0  0  0  0  0  0
   -0.4432   -1.8591    0.0000 C   0  0  0  0  0  0  0  0  0  0  0  0
   -1.1819   -0.6280    0.0000 C   0  0  0  0  0  0  0  0  0  0  0  0
    2.7333    0.3817    0.0000 C   0  0  0  0  0  0  0  0  0  0  0  0
    3.4721   -0.0123    0.0000 C   0  0  3  0  0  0  0  0  0  0  0  0
   -2.6102   -0.6156    0.0000 C   0  0  3  0  0  0  0  0  0  0  0  0
   -2.5979    0.1970    0.0000 C   0  0  0  0  0  0  0  0  0  0  0  0
   -4.0138    0.2093    0.0000 C   0  0  0  0  0  0  0  0  0  0  0  0
   -3.2873   -1.0342    0.0000 C   0  0  0  0  0  0  0  0  0  0  0  0
   -4.0261   -0.6280    0.0000 C   0  0  0  0  0  0  0  0  0  0  0  0
   -2.4871    1.4529    0.0000 C   0  0  0  0  0  0  0  0  0  0  0  0
    4.1492    0.4679    0.0000 C   0  0  0  0  0  0  0  0  0  0  0  0
   -2.1300    2.1916    0.0000 C   0  0  0  0  0  0  0  0  0  0  0  0
  1 13  1  0  0  0  0
  1 14  1  0  0  0  0
  2  5  2  0  0  0  0
  2  6  2  0  0  0  0
  2  9  1  0  0  0  0
  2 28  1  0  0  0  0
  3 17  2  0  0  0  0
  4 20  2  0  0  0  0
  7 12  1  0  0  0  0
  7 21  1  0  0  0  0
  8 17  1  0  0  0  0
  8 22  1  0  0  0  0
  9 24  1  0  0  0  0
  9 25  1  0  0  0  0
 10 20  1  0  0  0  0
 10 23  1  0  0  0  0
 11 12  1  0  0  0  0
 11 14  1  0  0  0  0
 11 15  2  0  0  0  0
 12 13  2  0  0  0  0
 13 17  1  0  0  0  0
 14 18  2  0  0  0  0
 15 16  1  0  0  0  0
 16 19  2  0  0  0  0
 16 20  1  0  0  0  0
 18 19  1  0  0  0  0
 21 22  1  0  0  0  0
 22 29  1  1  0  0  0
 23 24  1  0  0  0  0
 23 26  1  0  0  0  0
 25 27  1  0  0  0  0
 26 27  1  0  0  0  0
 28 30  2  0  0  0  0
M  END
> <PUBCHEM_COMPOUND_ID_TYPE>
0

> <PUBCHEM_TOTAL_CHARGE>
0

> <PUBCHEM_SUBSTANCE_ID>
310945099

> <PUBCHEM_SUBSTANCE_VERSION>
1

> <PUBCHEM_EXT_DATASOURCE_NAME>
4488

> <PUBCHEM_EXT_DATASOURCE_REGID>
SCHEMBL16123189

> <PUBCHEM_SUBSTANCE_COMMENT>
InChI=1S/C20H24N4O4S2/c1-3-30(27,28)24-8-4-5-14(11-24)23-19(25)13-6-7-16-15(9-13)17-18(29-16)20(26)22-12(2)10-21-17/h3,6-7,9,12,14,21H,1,4-5,8,10-11H2,2H3,(H,22,26)(H,23,25)/t12-,14?/m1/s1
InChIKey=SEBMSPKLVBVDQB-PUODRLBUSA-N

> <PUBCHEM_SUBSTANCE_SYNONYM>
SCHEMBL16123189

> <PUBCHEM_XREF_EXT_ID>
SCHEMBL16123189

> <PUBCHEM_EXT_DATASOURCE_URL>
https://www.surechembl.org/

> <PUBCHEM_EXT_SUBSTANCE_URL>
https://www.surechembl.org/chemical/SCHEMBL16123189

> <PUBCHEM_CID_ASSOCIATIONS>
117611195  1

> <PUBCHEM_COORDINATE_TYPE>
1
3

> <PUBCHEM_BONDANNOTATIONS>
22  29  5

$$$$
