310949791
  -OEChem-07211613022D

 15 15  0     0  0  0  0  0  0999 V2000
    2.8699    0.6013    0.0000 O   0  0  0  0  0  0  0  0  0  0  0  0
    3.1797   -0.7471    0.0000 O   0  0  0  0  0  0  0  0  0  0  0  0
    1.3939    0.3097    0.0000 N   0  0  0  0  0  0  0  0  0  0  0  0
    0.1367   -0.4008    0.0000 N   0  0  0  0  0  0  0  0  0  0  0  0
   -2.3415   -0.3644    0.0000 N   0  0  0  0  0  0  0  0  0  0  0  0
    0.5557    0.3644    0.0000 C   0  0  0  0  0  0  0  0  0  0  0  0
   -1.1024    0.3644    0.0000 C   0  0  0  0  0  0  0  0  0  0  0  0
    0.1548    1.0569    0.0000 C   0  0  0  0  0  0  0  0  0  0  0  0
   -0.6834   -0.3462    0.0000 C   0  0  0  0  0  0  0  0  0  0  0  0
   -0.6651    1.0751    0.0000 C   0  0  0  0  0  0  0  0  0  0  0  0
    1.7948   -0.3644    0.0000 C   0  0  0  0  0  0  0  0  0  0  0  0
    2.6148   -0.1458    0.0000 C   0  0  0  0  0  0  0  0  0  0  0  0
   -1.9042    0.3644    0.0000 C   0  0  0  0  0  0  0  0  0  0  0  0
    1.8130    1.0751    0.0000 C   0  0  0  0  0  0  0  0  0  0  0  0
   -3.1797   -0.3280    0.0000 C   0  0  0  0  0  0  0  0  0  0  0  0
  1 12  2  0  0  0  0
  2 12  1  0  0  0  0
  3  6  1  0  0  0  0
  3 11  1  0  0  0  0
  3 14  1  0  0  0  0
  4  6  2  0  0  0  0
  4  9  1  0  0  0  0
  5 13  1  0  0  0  0
  5 15  1  0  0  0  0
  6  8  1  0  0  0  0
  7  9  2  0  0  0  0
  7 10  1  0  0  0  0
  7 13  1  0  0  0  0
  8 10  2  0  0  0  0
 11 12  1  0  0  0  0
M  END
> <PUBCHEM_COMPOUND_ID_TYPE>
0

> <PUBCHEM_TOTAL_CHARGE>
0

> <PUBCHEM_SUBSTANCE_ID>
310949791

> <PUBCHEM_SUBSTANCE_VERSION>
1

> <PUBCHEM_EXT_DATASOURCE_NAME>
4488

> <PUBCHEM_EXT_DATASOURCE_REGID>
SCHEMBL16127989

> <PUBCHEM_SUBSTANCE_COMMENT>
InChI=1S/C10H15N3O2/c1-11-5-8-3-4-9(12-6-8)13(2)7-10(14)15/h3-4,6,11H,5,7H2,1-2H3,(H,14,15)
InChIKey=VYMYSBRLXXKRPA-UHFFFAOYSA-N

> <PUBCHEM_SUBSTANCE_SYNONYM>
SCHEMBL16127989

> <PUBCHEM_XREF_EXT_ID>
SCHEMBL16127989

> <PUBCHEM_EXT_DATASOURCE_URL>
https://www.surechembl.org/

> <PUBCHEM_EXT_SUBSTANCE_URL>
https://www.surechembl.org/chemical/SCHEMBL16127989

> <PUBCHEM_CID_ASSOCIATIONS>
117615114  1

> <PUBCHEM_COORDINATE_TYPE>
1
3

$$$$
