310941244
  -OEChem-07211613022D

 43 46  0     1  0  0  0  0  0999 V2000
    5.0551    0.6643    0.0000 O   0  0  0  0  0  0  0  0  0  0  0  0
    3.9364   -1.2795    0.0000 O   0  0  0  0  0  0  0  0  0  0  0  0
    1.7969    0.7761    0.0000 O   0  0  0  0  0  0  0  0  0  0  0  0
   -0.3566   -1.2795    0.0000 O   0  0  0  0  0  0  0  0  0  0  0  0
    3.9364   -2.9296    0.0000 O   0  0  0  0  0  0  0  0  0  0  0  0
   -2.4961    0.7761    0.0000 O   0  0  0  0  0  0  0  0  0  0  0  0
   -5.3488    0.7761    0.0000 O   0  0  0  0  0  0  0  0  0  0  0  0
    2.5101   -0.4684    0.0000 N   0  0  0  0  0  0  0  0  0  0  0  0
    0.3706   -0.0489    0.0000 N   0  0  0  0  0  0  0  0  0  0  0  0
   -1.7689   -0.4684    0.0000 N   0  0  0  0  0  0  0  0  0  0  0  0
   -3.9224   -0.0489    0.0000 N   0  0  0  0  0  0  0  0  0  0  0  0
    4.6356    0.0070    0.0000 C   0  0  3  0  0  0  0  0  0  0  0  0
    3.9364   -0.4265    0.0000 C   0  0  0  0  0  0  0  0  0  0  0  0
    4.2580    0.6782    0.0000 C   0  0  0  0  0  0  0  0  0  0  0  0
    3.2093   -0.0210    0.0000 C   0  0  3  0  0  0  0  0  0  0  0  0
    5.3488   -0.4265    0.0000 C   0  0  0  0  0  0  0  0  0  0  0  0
    3.2232    1.2935    0.0000 C   0  0  0  0  0  0  0  0  0  0  0  0
    1.7969   -0.0489    0.0000 C   0  0  0  0  0  0  0  0  0  0  0  0
    1.0838   -0.4265    0.0000 C   0  0  3  0  0  0  0  0  0  0  0  0
    2.4961    1.7130    0.0000 C   0  0  0  0  0  0  0  0  0  0  0  0
    1.0698   -1.2795    0.0000 C   0  0  0  0  0  0  0  0  0  0  0  0
    1.7969    1.3075    0.0000 C   0  0  0  0  0  0  0  0  0  0  0  0
    2.5101    2.5101    0.0000 C   0  0  0  0  0  0  0  0  0  0  0  0
    1.8109   -1.6711    0.0000 C   0  0  0  0  0  0  0  0  0  0  0  0
   -0.3286   -0.4125    0.0000 C   0  0  0  0  0  0  0  0  0  0  0  0
   -1.0698   -0.0210    0.0000 C   0  0  3  0  0  0  0  0  0  0  0  0
    1.0977    1.7130    0.0000 C   0  0  0  0  0  0  0  0  0  0  0  0
    1.7969    2.9156    0.0000 C   0  0  0  0  0  0  0  0  0  0  0  0
    1.0977    2.5380    0.0000 C   0  0  0  0  0  0  0  0  0  0  0  0
    2.4961   -1.2795    0.0000 C   0  0  0  0  0  0  0  0  0  0  0  0
    1.8109   -2.4961    0.0000 C   0  0  0  0  0  0  0  0  0  0  0  0
    3.2232   -2.4821    0.0000 C   0  0  0  0  0  0  0  0  0  0  0  0
    3.2232   -1.6850    0.0000 C   0  0  0  0  0  0  0  0  0  0  0  0
    2.5240   -2.9016    0.0000 C   0  0  0  0  0  0  0  0  0  0  0  0
   -2.4961   -0.0489    0.0000 C   0  0  0  0  0  0  0  0  0  0  0  0
   -1.0557    0.7901    0.0000 C   0  0  0  0  0  0  0  0  0  0  0  0
   -3.1813   -0.4265    0.0000 C   0  0  0  0  0  0  0  0  0  0  0  0
    0.3566    2.9296    0.0000 C   0  0  0  0  0  0  0  0  0  0  0  0
   -3.9084    0.7901    0.0000 C   0  0  0  0  0  0  0  0  0  0  0  0
   -4.6076   -0.4265    0.0000 C   0  0  0  0  0  0  0  0  0  0  0  0
   -4.6356    1.2096    0.0000 C   0  0  0  0  0  0  0  0  0  0  0  0
   -5.3347   -0.0350    0.0000 C   0  0  0  0  0  0  0  0  0  0  0  0
    4.6635   -2.4821    0.0000 C   0  0  0  0  0  0  0  0  0  0  0  0
  1 12  1  0  0  0  0
  1 14  1  0  0  0  0
  2 13  2  0  0  0  0
  3 18  2  0  0  0  0
  4 25  2  0  0  0  0
  5 32  1  0  0  0  0
  5 43  1  0  0  0  0
  6 35  2  0  0  0  0
  7 41  1  0  0  0  0
  7 42  1  0  0  0  0
 15  8  1  1  0  0  0
  8 18  1  0  0  0  0
 19  9  1  6  0  0  0
  9 25  1  0  0  0  0
 10 26  1  0  0  0  0
 10 35  1  0  0  0  0
 11 37  1  0  0  0  0
 11 39  1  0  0  0  0
 11 40  1  0  0  0  0
 12 13  1  1  0  0  0
 12 14  1  0  0  0  0
 12 16  1  6  0  0  0
 13 15  1  0  0  0  0
 15 17  1  0  0  0  0
 17 20  1  0  0  0  0
 18 19  1  0  0  0  0
 19 21  1  0  0  0  0
 20 22  2  0  0  0  0
 20 23  1  0  0  0  0
 21 24  1  0  0  0  0
 22 27  1  0  0  0  0
 23 28  2  0  0  0  0
 24 30  2  0  0  0  0
 24 31  1  0  0  0  0
 25 26  1  0  0  0  0
 26 36  1  1  0  0  0
 27 29  2  0  0  0  0
 28 29  1  0  0  0  0
 29 38  1  0  0  0  0
 30 33  1  0  0  0  0
 31 34  2  0  0  0  0
 32 33  2  0  0  0  0
 32 34  1  0  0  0  0
 35 37  1  0  0  0  0
 39 41  1  0  0  0  0
 40 42  1  0  0  0  0
M  END
> <PUBCHEM_COMPOUND_ID_TYPE>
0

> <PUBCHEM_TOTAL_CHARGE>
0

> <PUBCHEM_SUBSTANCE_ID>
310941244

> <PUBCHEM_SUBSTANCE_VERSION>
1

> <PUBCHEM_EXT_DATASOURCE_NAME>
4488

> <PUBCHEM_EXT_DATASOURCE_REGID>
SCHEMBL16119204

> <PUBCHEM_SUBSTANCE_COMMENT>
InChI=1S/C32H42N4O7/c1-21-5-7-23(8-6-21)17-26(29(38)32(3)20-43-32)34-31(40)27(18-24-9-11-25(41-4)12-10-24)35-30(39)22(2)33-28(37)19-36-13-15-42-16-14-36/h5-12,22,26-27H,13-20H2,1-4H3,(H,33,37)(H,34,40)(H,35,39)/t22-,26-,27-,32+/m0/s1
InChIKey=NVHGFOOVZRFNJI-ZBCYONBYSA-N

> <PUBCHEM_SUBSTANCE_SYNONYM>
SCHEMBL16119204

> <PUBCHEM_XREF_EXT_ID>
SCHEMBL16119204

> <PUBCHEM_EXT_DATASOURCE_URL>
https://www.surechembl.org/

> <PUBCHEM_EXT_SUBSTANCE_URL>
https://www.surechembl.org/chemical/SCHEMBL16119204

> <PUBCHEM_CID_ASSOCIATIONS>
117608103  1

> <PUBCHEM_COORDINATE_TYPE>
1
3

> <PUBCHEM_BONDANNOTATIONS>
12  13  5
12  16  6
26  36  5
15  8  5
19  9  6

$$$$
