310937934
  -OEChem-07211613022D

 42 46  0     1  0  0  0  0  0999 V2000
    2.0837    1.8053    0.0000 S   0  0  0  0  0  0  0  0  0  0  0  0
    9.2960    2.2453    0.0000 F   0  0  0  0  0  0  0  0  0  0  0  0
    8.1437    2.4278    0.0000 F   0  0  0  0  0  0  0  0  0  0  0  0
    9.4785    3.3977    0.0000 F   0  0  0  0  0  0  0  0  0  0  0  0
    8.8479    6.5086    0.0000 F   0  0  0  0  0  0  0  0  0  0  0  0
    7.7587    6.0905    0.0000 F   0  0  0  0  0  0  0  0  0  0  0  0
    9.2661    5.4194    0.0000 F   0  0  0  0  0  0  0  0  0  0  0  0
    5.7878    3.3607    0.0000 O   0  0  0  0  0  0  0  0  0  0  0  0
    4.3677    2.9802    0.0000 O   0  0  0  0  0  0  0  0  0  0  0  0
    4.8946    4.3527    0.0000 N   0  0  0  0  0  0  0  0  0  0  0  0
    2.7512    5.5902    0.0000 N   0  0  0  0  0  0  0  0  0  0  0  0
    2.0367    4.3527    0.0000 N   0  0  0  0  0  0  0  0  0  0  0  0
    6.2003    4.0751    0.0000 C   0  0  3  0  0  0  0  0  0  0  0  0
    5.6483    4.6882    0.0000 C   0  0  3  0  0  0  0  0  0  0  0  0
    7.0208    4.1614    0.0000 C   0  0  0  0  0  0  0  0  0  0  0  0
    4.9808    3.5322    0.0000 C   0  0  0  0  0  0  0  0  0  0  0  0
    8.3262    3.5802    0.0000 C   0  0  0  0  0  0  0  0  0  0  0  0
    8.1768    5.0013    0.0000 C   0  0  0  0  0  0  0  0  0  0  0  0
    3.4656    4.3527    0.0000 C   0  0  0  0  0  0  0  0  0  0  0  0
    4.1801    4.7652    0.0000 C   0  0  0  0  0  0  0  0  0  0  0  0
    7.3563    4.9151    0.0000 C   0  0  0  0  0  0  0  0  0  0  0  0
    7.5057    3.4939    0.0000 C   0  0  0  0  0  0  0  0  0  0  0  0
    2.7512    4.7652    0.0000 C   0  0  0  0  0  0  0  0  0  0  0  0
    8.6617    4.3339    0.0000 C   0  0  0  0  0  0  0  0  0  0  0  0
    8.8111    2.9127    0.0000 C   0  0  0  0  0  0  0  0  0  0  0  0
    8.5124    5.7550    0.0000 C   0  0  0  0  0  0  0  0  0  0  0  0
    3.4656    3.5277    0.0000 C   0  0  0  0  0  0  0  0  0  0  0  0
    2.7512    3.1152    0.0000 C   0  0  0  0  0  0  0  0  0  0  0  0
    5.8198    5.4952    0.0000 C   0  0  0  0  0  0  0  0  0  0  0  0
    2.0367    3.5277    0.0000 C   0  0  0  0  0  0  0  0  0  0  0  0
    2.0367    6.0027    0.0000 C   0  0  0  0  0  0  0  0  0  0  0  0
    2.7512    2.2902    0.0000 C   0  0  0  0  0  0  0  0  0  0  0  0
    3.4656    6.0027    0.0000 C   0  0  0  0  0  0  0  0  0  0  0  0
    3.4186    1.8053    0.0000 C   0  0  0  0  0  0  0  0  0  0  0  0
    1.3222    5.5902    0.0000 C   0  0  0  0  0  0  0  0  0  0  0  0
    2.0367    6.8277    0.0000 C   0  0  0  0  0  0  0  0  0  0  0  0
    2.3387    1.0206    0.0000 C   0  0  0  0  0  0  0  0  0  0  0  0
    3.1637    1.0206    0.0000 C   0  0  0  0  0  0  0  0  0  0  0  0
    0.6078    6.0027    0.0000 C   0  0  0  0  0  0  0  0  0  0  0  0
    1.3222    7.2402    0.0000 C   0  0  0  0  0  0  0  0  0  0  0  0
    4.1801    5.5902    0.0000 C   0  0  0  0  0  0  0  0  0  0  0  0
    0.6078    6.8277    0.0000 C   0  0  0  0  0  0  0  0  0  0  0  0
  1 32  1  0  0  0  0
  1 37  1  0  0  0  0
  2 25  1  0  0  0  0
  3 25  1  0  0  0  0
  4 25  1  0  0  0  0
  5 26  1  0  0  0  0
  6 26  1  0  0  0  0
  7 26  1  0  0  0  0
  8 13  1  0  0  0  0
  8 16  1  0  0  0  0
  9 16  2  0  0  0  0
 10 14  1  0  0  0  0
 10 16  1  0  0  0  0
 10 20  1  0  0  0  0
 11 23  1  0  0  0  0
 11 31  1  0  0  0  0
 11 33  1  0  0  0  0
 12 23  2  0  0  0  0
 12 30  1  0  0  0  0
 13 14  1  0  0  0  0
 13 15  1  1  0  0  0
 14 29  1  1  0  0  0
 15 21  2  0  0  0  0
 15 22  1  0  0  0  0
 17 22  2  0  0  0  0
 17 24  1  0  0  0  0
 17 25  1  0  0  0  0
 18 21  1  0  0  0  0
 18 24  2  0  0  0  0
 18 26  1  0  0  0  0
 19 20  1  0  0  0  0
 19 23  1  0  0  0  0
 19 27  2  0  0  0  0
 27 28  1  0  0  0  0
 28 30  2  0  0  0  0
 28 32  1  0  0  0  0
 31 35  1  0  0  0  0
 31 36  1  0  0  0  0
 32 34  2  0  0  0  0
 33 41  1  0  0  0  0
 34 38  1  0  0  0  0
 35 39  1  0  0  0  0
 36 40  1  0  0  0  0
 37 38  2  0  0  0  0
 39 42  1  0  0  0  0
 40 42  1  0  0  0  0
M  END
> <PUBCHEM_COMPOUND_ID_TYPE>
0

> <PUBCHEM_TOTAL_CHARGE>
0

> <PUBCHEM_SUBSTANCE_ID>
310937934

> <PUBCHEM_SUBSTANCE_VERSION>
1

> <PUBCHEM_EXT_DATASOURCE_NAME>
4488

> <PUBCHEM_EXT_DATASOURCE_REGID>
SCHEMBL16115763

> <PUBCHEM_SUBSTANCE_COMMENT>
InChI=1S/C30H31F6N3O2S/c1-3-38(24-8-5-4-6-9-24)27-21(12-20(16-37-27)25-10-7-11-42-25)17-39-18(2)26(41-28(39)40)19-13-22(29(31,32)33)15-23(14-19)30(34,35)36/h7,10-16,18,24,26H,3-6,8-9,17H2,1-2H3/t18-,26-/m0/s1
InChIKey=BOOXTZSUXFFHHT-QYBDOPJKSA-N

> <PUBCHEM_SUBSTANCE_SYNONYM>
SCHEMBL16115763

> <PUBCHEM_XREF_EXT_ID>
SCHEMBL16115763

> <PUBCHEM_EXT_DATASOURCE_URL>
https://www.surechembl.org/

> <PUBCHEM_EXT_SUBSTANCE_URL>
https://www.surechembl.org/chemical/SCHEMBL16115763

> <PUBCHEM_CID_ASSOCIATIONS>
85473415  1

> <PUBCHEM_COORDINATE_TYPE>
1
3

> <PUBCHEM_BONDANNOTATIONS>
13  15  5
14  29  5

$$$$
