310948369
  -OEChem-07211613022D

 44 48  0     0  0  0  0  0  0999 V2000
    3.8705   -0.1100    0.0000 S   0  0  0  0  0  0  0  0  0  0  0  0
   -4.1730   -0.8250    0.0000 F   0  0  0  0  0  0  0  0  0  0  0  0
   -3.0868   -0.4262    0.0000 F   0  0  0  0  0  0  0  0  0  0  0  0
    3.8292    3.1074    0.0000 F   0  0  0  0  0  0  0  0  0  0  0  0
    2.7568    2.5986    0.0000 F   0  0  0  0  0  0  0  0  0  0  0  0
    4.2829    2.0349    0.0000 F   0  0  0  0  0  0  0  0  0  0  0  0
   -3.2930   -2.5986    0.0000 O   0  0  0  0  0  0  0  0  0  0  0  0
    3.2518    1.5537    0.0000 O   0  0  0  0  0  0  0  0  0  0  0  0
    3.1555    0.2887    0.0000 O   0  0  0  0  0  0  0  0  0  0  0  0
    4.5855   -0.5225    0.0000 O   0  0  0  0  0  0  0  0  0  0  0  0
   -0.3506    0.1237    0.0000 N   0  0  0  0  0  0  0  0  0  0  0  0
   -1.6981   -2.3924    0.0000 N   0  0  0  0  0  0  0  0  0  0  0  0
   -2.5093   -2.2687    0.0000 N   0  0  0  0  0  0  0  0  0  0  0  0
   -1.1343    0.2337    0.0000 N   0  0  0  0  0  0  0  0  0  0  0  0
   -1.3131    1.0313    0.0000 N   0  0  0  0  0  0  0  0  0  0  0  0
   -4.5855   -1.9937    0.0000 N   0  0  0  0  0  0  0  0  0  0  0  0
   -0.2681   -1.4987    0.0000 C   0  0  0  0  0  0  0  0  0  0  0  0
    0.1857   -0.7974    0.0000 C   0  0  0  0  0  0  0  0  0  0  0  0
   -1.3131   -1.6637    0.0000 C   0  0  0  0  0  0  0  0  0  0  0  0
   -2.6743   -1.5124    0.0000 C   0  0  0  0  0  0  0  0  0  0  0  0
    0.0344    0.8938    0.0000 C   0  0  0  0  0  0  0  0  0  0  0  0
   -1.9318   -1.0724    0.0000 C   0  0  0  0  0  0  0  0  0  0  0  0
   -3.4305   -1.1687    0.0000 C   0  0  0  0  0  0  0  0  0  0  0  0
    0.9831   -0.8250    0.0000 C   0  0  0  0  0  0  0  0  0  0  0  0
    1.3956   -1.5124    0.0000 C   0  0  0  0  0  0  0  0  0  0  0  0
    0.1581   -2.2274    0.0000 C   0  0  0  0  0  0  0  0  0  0  0  0
    0.8318    1.0724    0.0000 C   0  0  0  0  0  0  0  0  0  0  0  0
    0.9831   -2.2274    0.0000 C   0  0  0  0  0  0  0  0  0  0  0  0
    2.2205   -1.5262    0.0000 C   0  0  0  0  0  0  0  0  0  0  0  0
   -0.6119    1.4437    0.0000 C   0  0  0  0  0  0  0  0  0  0  0  0
   -3.7880   -1.8974    0.0000 C   0  0  0  0  0  0  0  0  0  0  0  0
    2.6330   -0.8112    0.0000 C   0  0  0  0  0  0  0  0  0  0  0  0
   -1.3131   -3.1074    0.0000 C   0  0  0  0  0  0  0  0  0  0  0  0
    3.4580   -0.8112    0.0000 C   0  0  0  0  0  0  0  0  0  0  0  0
    1.3956    0.4400    0.0000 C   0  0  0  0  0  0  0  0  0  0  0  0
    1.0931    1.8287    0.0000 C   0  0  0  0  0  0  0  0  0  0  0  0
    2.6468   -2.2274    0.0000 C   0  0  0  0  0  0  0  0  0  0  0  0
    2.4542    1.4025    0.0000 C   0  0  0  0  0  0  0  0  0  0  0  0
    2.1930    0.6188    0.0000 C   0  0  0  0  0  0  0  0  0  0  0  0
    1.9043    1.9937    0.0000 C   0  0  0  0  0  0  0  0  0  0  0  0
    3.8705   -1.5124    0.0000 C   0  0  0  0  0  0  0  0  0  0  0  0
    3.4580   -2.2274    0.0000 C   0  0  0  0  0  0  0  0  0  0  0  0
    3.5268    2.3236    0.0000 C   0  0  0  0  0  0  0  0  0  0  0  0
    4.2829    0.6050    0.0000 C   0  0  0  0  0  0  0  0  0  0  0  0
  1  9  2  0  0  0  0
  1 10  2  0  0  0  0
  1 34  1  0  0  0  0
  1 44  1  0  0  0  0
  2 23  1  0  0  0  0
  3 23  1  0  0  0  0
  4 43  1  0  0  0  0
  5 43  1  0  0  0  0
  6 43  1  0  0  0  0
  7 31  2  0  0  0  0
  8 38  1  0  0  0  0
  8 43  1  0  0  0  0
 11 14  1  0  0  0  0
 11 18  1  0  0  0  0
 11 21  1  0  0  0  0
 12 13  1  0  0  0  0
 12 19  1  0  0  0  0
 12 33  1  0  0  0  0
 13 20  2  0  0  0  0
 14 15  2  0  0  0  0
 15 30  1  0  0  0  0
 16 31  1  0  0  0  0
 17 18  2  0  0  0  0
 17 19  1  0  0  0  0
 17 26  1  0  0  0  0
 18 24  1  0  0  0  0
 19 22  2  0  0  0  0
 20 22  1  0  0  0  0
 20 23  1  0  0  0  0
 21 27  1  0  0  0  0
 21 30  2  0  0  0  0
 23 31  1  0  0  0  0
 24 25  2  0  0  0  0
 25 28  1  0  0  0  0
 25 29  1  0  0  0  0
 26 28  2  0  0  0  0
 27 35  2  0  0  0  0
 27 36  1  0  0  0  0
 29 32  2  0  0  0  0
 29 37  1  0  0  0  0
 32 34  1  0  0  0  0
 34 41  2  0  0  0  0
 35 39  1  0  0  0  0
 36 40  2  0  0  0  0
 37 42  2  0  0  0  0
 38 39  2  0  0  0  0
 38 40  1  0  0  0  0
 41 42  1  0  0  0  0
M  END
> <PUBCHEM_COMPOUND_ID_TYPE>
0

> <PUBCHEM_TOTAL_CHARGE>
0

> <PUBCHEM_SUBSTANCE_ID>
310948369

> <PUBCHEM_SUBSTANCE_VERSION>
1

> <PUBCHEM_EXT_DATASOURCE_NAME>
4488

> <PUBCHEM_EXT_DATASOURCE_REGID>
SCHEMBL16126549

> <PUBCHEM_SUBSTANCE_COMMENT>
InChI=1S/C28H21F5N6O4S/c1-38-22(14-25(36-38)27(29,30)26(34)40)21-11-8-18(17-4-3-5-20(12-17)44(2,41)42)13-23(21)39-24(15-35-37-39)16-6-9-19(10-7-16)43-28(31,32)33/h3-15H,1-2H3,(H2,34,40)
InChIKey=LJXDVFRGLZZODJ-UHFFFAOYSA-N

> <PUBCHEM_SUBSTANCE_SYNONYM>
SCHEMBL16126549

> <PUBCHEM_XREF_EXT_ID>
SCHEMBL16126549

> <PUBCHEM_EXT_DATASOURCE_URL>
https://www.surechembl.org/

> <PUBCHEM_EXT_SUBSTANCE_URL>
https://www.surechembl.org/chemical/SCHEMBL16126549

> <PUBCHEM_CID_ASSOCIATIONS>
86275951  1

> <PUBCHEM_COORDINATE_TYPE>
1
3

$$$$
