310941535
  -OEChem-07211613022D

 36 39  0     0  0  0  0  0  0999 V2000
    1.8288    4.8595    0.0000 S   0  0  0  0  0  0  0  0  0  0  0  0
   -0.5065    2.1980    0.0000 O   0  0  0  0  0  0  0  0  0  0  0  0
   -1.9490    1.3737    0.0000 O   0  0  0  0  0  0  0  0  0  0  0  0
    0.9359    2.1980    0.0000 O   0  0  0  0  0  0  0  0  0  0  0  0
    4.7308    3.8808    0.0000 O   0  0  0  0  0  0  0  0  0  0  0  0
    1.6914    3.5201    0.0000 N   0  0  0  0  0  0  0  0  0  0  0  0
    3.0823    4.0525    0.0000 N   0  0  0  0  0  0  0  0  0  0  0  0
    0.2147    3.4515    0.0000 C   0  0  0  0  0  0  0  0  0  0  0  0
   -1.2621    2.6272    0.0000 C   0  0  0  0  0  0  0  0  0  0  0  0
   -1.2277    3.4515    0.0000 C   0  0  0  0  0  0  0  0  0  0  0  0
    0.9187    3.8636    0.0000 C   0  0  0  0  0  0  0  0  0  0  0  0
    0.1803    2.6272    0.0000 C   0  0  0  0  0  0  0  0  0  0  0  0
   -0.5238    3.8636    0.0000 C   0  0  0  0  0  0  0  0  0  0  0  0
   -1.9318    2.2151    0.0000 C   0  0  0  0  0  0  0  0  0  0  0  0
    2.2409    4.1555    0.0000 C   0  0  0  0  0  0  0  0  0  0  0  0
    1.0389    4.6878    0.0000 C   0  0  0  0  0  0  0  0  0  0  0  0
   -1.9490    3.8465    0.0000 C   0  0  0  0  0  0  0  0  0  0  0  0
   -2.6530    2.6101    0.0000 C   0  0  0  0  0  0  0  0  0  0  0  0
   -2.6702    3.4515    0.0000 C   0  0  0  0  0  0  0  0  0  0  0  0
    3.4086    3.2797    0.0000 C   0  0  0  0  0  0  0  0  0  0  0  0
    4.2328    3.2111    0.0000 C   0  0  0  0  0  0  0  0  0  0  0  0
    2.9449    2.6272    0.0000 C   0  0  0  0  0  0  0  0  0  0  0  0
   -2.6530    0.9616    0.0000 C   0  0  0  0  0  0  0  0  0  0  0  0
    4.5762    2.4555    0.0000 C   0  0  0  0  0  0  0  0  0  0  0  0
    3.2712    1.8889    0.0000 C   0  0  0  0  0  0  0  0  0  0  0  0
    4.0954    1.7859    0.0000 C   0  0  0  0  0  0  0  0  0  0  0  0
   -2.7045    0.1202    0.0000 C   0  0  0  0  0  0  0  0  0  0  0  0
    5.5378    3.7778    0.0000 C   0  0  0  0  0  0  0  0  0  0  0  0
   -3.3742   -0.2747    0.0000 C   0  0  0  0  0  0  0  0  0  0  0  0
   -3.4086   -1.1333    0.0000 C   0  0  0  0  0  0  0  0  0  0  0  0
   -4.0782   -1.5111    0.0000 C   0  0  0  0  0  0  0  0  0  0  0  0
   -4.1126   -2.3525    0.0000 C   0  0  0  0  0  0  0  0  0  0  0  0
   -4.7995   -2.7475    0.0000 C   0  0  0  0  0  0  0  0  0  0  0  0
   -4.8338   -3.5888    0.0000 C   0  0  0  0  0  0  0  0  0  0  0  0
   -5.5378   -4.0009    0.0000 C   0  0  0  0  0  0  0  0  0  0  0  0
   -5.5378   -4.8595    0.0000 C   0  0  0  0  0  0  0  0  0  0  0  0
  1 15  1  0  0  0  0
  1 16  1  0  0  0  0
  2  9  1  0  0  0  0
  2 12  1  0  0  0  0
  3 14  1  0  0  0  0
  3 23  1  0  0  0  0
  4 12  2  0  0  0  0
  5 21  1  0  0  0  0
  5 28  1  0  0  0  0
  6 11  1  0  0  0  0
  6 15  2  0  0  0  0
  7 15  1  0  0  0  0
  7 20  1  0  0  0  0
  8 11  1  0  0  0  0
  8 12  1  0  0  0  0
  8 13  2  0  0  0  0
  9 10  1  0  0  0  0
  9 14  2  0  0  0  0
 10 13  1  0  0  0  0
 10 17  2  0  0  0  0
 11 16  2  0  0  0  0
 14 18  1  0  0  0  0
 17 19  1  0  0  0  0
 18 19  2  0  0  0  0
 20 21  1  0  0  0  0
 20 22  2  0  0  0  0
 21 24  2  0  0  0  0
 22 25  1  0  0  0  0
 23 27  1  0  0  0  0
 24 26  1  0  0  0  0
 25 26  2  0  0  0  0
 27 29  1  0  0  0  0
 29 30  1  0  0  0  0
 30 31  1  0  0  0  0
 31 32  1  0  0  0  0
 32 33  1  0  0  0  0
 33 34  1  0  0  0  0
 34 35  1  0  0  0  0
 35 36  1  0  0  0  0
M  END
> <PUBCHEM_COMPOUND_ID_TYPE>
0

> <PUBCHEM_TOTAL_CHARGE>
0

> <PUBCHEM_SUBSTANCE_ID>
310941535

> <PUBCHEM_SUBSTANCE_VERSION>
1

> <PUBCHEM_EXT_DATASOURCE_NAME>
4488

> <PUBCHEM_EXT_DATASOURCE_REGID>
SCHEMBL16119566

> <PUBCHEM_SUBSTANCE_COMMENT>
InChI=1S/C29H34N2O4S/c1-3-4-5-6-7-8-9-12-18-34-26-17-13-14-21-19-22(28(32)35-27(21)26)24-20-36-29(31-24)30-23-15-10-11-16-25(23)33-2/h10-11,13-17,19-20H,3-9,12,18H2,1-2H3,(H,30,31)
InChIKey=NGMASWGAYXMFFT-UHFFFAOYSA-N

> <PUBCHEM_SUBSTANCE_SYNONYM>
SCHEMBL16119566

> <PUBCHEM_XREF_EXT_ID>
SCHEMBL16119566

> <PUBCHEM_EXT_DATASOURCE_URL>
https://www.surechembl.org/

> <PUBCHEM_EXT_SUBSTANCE_URL>
https://www.surechembl.org/chemical/SCHEMBL16119566

> <PUBCHEM_CID_ASSOCIATIONS>
117608343  1

> <PUBCHEM_COORDINATE_TYPE>
1
3

$$$$
