310930628
  -OEChem-07211613022D

 32 35  0     0  0  0  0  0  0999 V2000
    6.5617   -3.1984    0.0000 F   0  0  0  0  0  0  0  0  0  0  0  0
    7.8146   -2.4730    0.0000 F   0  0  0  0  0  0  0  0  0  0  0  0
    6.1660   -2.4730    0.0000 F   0  0  0  0  0  0  0  0  0  0  0  0
    0.0000   -4.5503    0.0000 O   0  0  0  0  0  0  0  0  0  0  0  0
    2.7367   -6.5617    0.0000 O   0  5  0  0  0  0  0  0  0  0  0  0
    1.3189   -6.5946    0.0000 O   0  0  0  0  0  0  0  0  0  0  0  0
    4.8470   -0.4286    0.0000 O   0  0  0  0  0  0  0  0  0  0  0  0
    0.4946   -3.8579    0.0000 N   0  0  0  0  0  0  0  0  0  0  0  0
    0.4946   -5.2098    0.0000 N   0  0  0  0  0  0  0  0  0  0  0  0
    1.9784   -2.9016    0.0000 N   0  0  0  0  0  0  0  0  0  0  0  0
    2.0114   -6.1660    0.0000 N   0  3  0  0  0  0  0  0  0  0  0  0
    5.5395   -1.6487    0.0000 N   0  0  0  0  0  0  0  0  0  0  0  0
    1.2530   -4.0886    0.0000 C   0  0  0  0  0  0  0  0  0  0  0  0
    1.2859   -4.9460    0.0000 C   0  0  0  0  0  0  0  0  0  0  0  0
    1.9784   -3.6930    0.0000 C   0  0  0  0  0  0  0  0  0  0  0  0
    1.9784   -5.3416    0.0000 C   0  0  0  0  0  0  0  0  0  0  0  0
    2.6708   -4.0886    0.0000 C   0  0  0  0  0  0  0  0  0  0  0  0
    2.6708   -4.9460    0.0000 C   0  0  0  0  0  0  0  0  0  0  0  0
    6.9903   -1.6487    0.0000 C   0  0  0  0  0  0  0  0  0  0  0  0
    2.7038   -2.4730    0.0000 C   0  0  0  0  0  0  0  0  0  0  0  0
    6.2649   -1.2530    0.0000 C   0  0  0  0  0  0  0  0  0  0  0  0
    6.9903   -2.4730    0.0000 C   0  0  0  0  0  0  0  0  0  0  0  0
    4.1216   -1.6487    0.0000 C   0  0  0  0  0  0  0  0  0  0  0  0
    4.8470   -1.2530    0.0000 C   0  0  0  0  0  0  0  0  0  0  0  0
    2.7038   -1.6487    0.0000 C   0  0  0  0  0  0  0  0  0  0  0  0
    3.4292   -2.9016    0.0000 C   0  0  0  0  0  0  0  0  0  0  0  0
    7.6827   -1.2530    0.0000 C   0  0  0  0  0  0  0  0  0  0  0  0
    3.4292   -1.2530    0.0000 C   0  0  0  0  0  0  0  0  0  0  0  0
    4.1216   -2.4730    0.0000 C   0  0  0  0  0  0  0  0  0  0  0  0
    6.2649   -0.3957    0.0000 C   0  0  0  0  0  0  0  0  0  0  0  0
    7.7157   -0.4286    0.0000 C   0  0  0  0  0  0  0  0  0  0  0  0
    6.9903    0.0000    0.0000 C   0  0  0  0  0  0  0  0  0  0  0  0
  1 22  1  0  0  0  0
  2 22  1  0  0  0  0
  3 22  1  0  0  0  0
  4  8  1  0  0  0  0
  4  9  1  0  0  0  0
  5 11  1  0  0  0  0
  6 11  2  0  0  0  0
  7 24  2  0  0  0  0
  8 13  2  0  0  0  0
  9 14  2  0  0  0  0
 10 15  1  0  0  0  0
 10 20  1  0  0  0  0
 11 16  1  0  0  0  0
 12 21  1  0  0  0  0
 12 24  1  0  0  0  0
 13 14  1  0  0  0  0
 13 15  1  0  0  0  0
 14 16  1  0  0  0  0
 15 17  2  0  0  0  0
 16 18  2  0  0  0  0
 17 18  1  0  0  0  0
 19 21  1  0  0  0  0
 19 22  1  0  0  0  0
 19 27  2  0  0  0  0
 20 25  2  0  0  0  0
 20 26  1  0  0  0  0
 21 30  2  0  0  0  0
 23 24  1  0  0  0  0
 23 28  2  0  0  0  0
 23 29  1  0  0  0  0
 25 28  1  0  0  0  0
 26 29  2  0  0  0  0
 27 31  1  0  0  0  0
 30 32  1  0  0  0  0
 31 32  2  0  0  0  0
M  CHG  2   5  -1  11   1
M  END
> <PUBCHEM_COMPOUND_ID_TYPE>
0

> <PUBCHEM_TOTAL_CHARGE>
0

> <PUBCHEM_SUBSTANCE_ID>
310930628

> <PUBCHEM_SUBSTANCE_VERSION>
1

> <PUBCHEM_EXT_DATASOURCE_NAME>
4488

> <PUBCHEM_EXT_DATASOURCE_REGID>
SCHEMBL16107925

> <PUBCHEM_SUBSTANCE_COMMENT>
InChI=1S/C20H12F3N5O4/c21-20(22,23)13-3-1-2-4-14(13)25-19(29)11-5-7-12(8-6-11)24-15-9-10-16(28(30)31)18-17(15)26-32-27-18/h1-10,24H,(H,25,29)
InChIKey=JJFPVMPFSSZFFD-UHFFFAOYSA-N

> <PUBCHEM_SUBSTANCE_SYNONYM>
SCHEMBL16107925

> <PUBCHEM_XREF_EXT_ID>
SCHEMBL16107925

> <PUBCHEM_EXT_DATASOURCE_URL>
https://www.surechembl.org/

> <PUBCHEM_EXT_SUBSTANCE_URL>
https://www.surechembl.org/chemical/SCHEMBL16107925

> <PUBCHEM_CID_ASSOCIATIONS>
86282375  1

> <PUBCHEM_COORDINATE_TYPE>
1
3

$$$$
