310939845
  -OEChem-07211613022D

 23 24  0     0  0  0  0  0  0999 V2000
   -1.4334   -0.8250    0.0000 Cl  0  0  0  0  0  0  0  0  0  0  0  0
   -4.2913    0.8250    0.0000 Cl  0  0  0  0  0  0  0  0  0  0  0  0
   -4.2913   -0.8250    0.0000 Cl  0  0  0  0  0  0  0  0  0  0  0  0
   -1.4334    0.8250    0.0000 O   0  0  0  0  0  0  0  0  0  0  0  0
   -0.0045    1.6500    0.0000 O   0  0  0  0  0  0  0  0  0  0  0  0
    2.8624   -1.6500    0.0000 O   0  0  0  0  0  0  0  0  0  0  0  0
    0.7100    0.4125    0.0000 N   0  0  0  0  0  0  0  0  0  0  0  0
    2.1479   -0.4125    0.0000 N   0  0  0  0  0  0  0  0  0  0  0  0
   -2.1479    0.4125    0.0000 C   0  0  0  0  0  0  0  0  0  0  0  0
   -2.1479   -0.4125    0.0000 C   0  0  0  0  0  0  0  0  0  0  0  0
   -3.5768    0.4125    0.0000 C   0  0  0  0  0  0  0  0  0  0  0  0
   -3.5768   -0.4125    0.0000 C   0  0  0  0  0  0  0  0  0  0  0  0
   -2.8624    0.8250    0.0000 C   0  0  0  0  0  0  0  0  0  0  0  0
   -0.0045    0.8250    0.0000 C   0  0  0  0  0  0  0  0  0  0  0  0
   -2.8624   -0.8250    0.0000 C   0  0  0  0  0  0  0  0  0  0  0  0
   -0.7189    0.4125    0.0000 C   0  0  0  0  0  0  0  0  0  0  0  0
    0.7189   -0.4125    0.0000 C   0  0  0  0  0  0  0  0  0  0  0  0
    1.4334    0.8250    0.0000 C   0  0  0  0  0  0  0  0  0  0  0  0
    1.4334   -0.8250    0.0000 C   0  0  0  0  0  0  0  0  0  0  0  0
    2.1479    0.4125    0.0000 C   0  0  0  0  0  0  0  0  0  0  0  0
    2.8624   -0.8250    0.0000 C   0  0  0  0  0  0  0  0  0  0  0  0
    3.5768   -0.4125    0.0000 C   0  0  0  0  0  0  0  0  0  0  0  0
    4.2913   -0.8250    0.0000 C   0  0  0  0  0  0  0  0  0  0  0  0
  1 10  1  0  0  0  0
  2 11  1  0  0  0  0
  3 12  1  0  0  0  0
  4  9  1  0  0  0  0
  4 16  1  0  0  0  0
  5 14  2  0  0  0  0
  6 21  2  0  0  0  0
  7 14  1  0  0  0  0
  7 17  1  0  0  0  0
  7 18  1  0  0  0  0
  8 19  1  0  0  0  0
  8 20  1  0  0  0  0
  8 21  1  0  0  0  0
  9 10  1  0  0  0  0
  9 13  2  0  0  0  0
 10 15  2  0  0  0  0
 11 12  2  0  0  0  0
 11 13  1  0  0  0  0
 12 15  1  0  0  0  0
 14 16  1  0  0  0  0
 17 19  1  0  0  0  0
 18 20  1  0  0  0  0
 21 22  1  0  0  0  0
 22 23  2  0  0  0  0
M  END
> <PUBCHEM_COMPOUND_ID_TYPE>
0

> <PUBCHEM_TOTAL_CHARGE>
0

> <PUBCHEM_SUBSTANCE_ID>
310939845

> <PUBCHEM_SUBSTANCE_VERSION>
1

> <PUBCHEM_EXT_DATASOURCE_NAME>
4488

> <PUBCHEM_EXT_DATASOURCE_REGID>
SCHEMBL16117775

> <PUBCHEM_SUBSTANCE_COMMENT>
InChI=1S/C15H15Cl3N2O3/c1-2-14(21)19-3-5-20(6-4-19)15(22)9-23-13-8-11(17)10(16)7-12(13)18/h2,7-8H,1,3-6,9H2
InChIKey=SMQODUCCHKZIQG-UHFFFAOYSA-N

> <PUBCHEM_SUBSTANCE_SYNONYM>
SCHEMBL16117775

> <PUBCHEM_XREF_EXT_ID>
SCHEMBL16117775

> <PUBCHEM_EXT_DATASOURCE_URL>
https://www.surechembl.org/

> <PUBCHEM_EXT_SUBSTANCE_URL>
https://www.surechembl.org/chemical/SCHEMBL16117775

> <PUBCHEM_CID_ASSOCIATIONS>
117607062  1

> <PUBCHEM_COORDINATE_TYPE>
1
3

$$$$
