310945221
  -OEChem-07211613022D

 23 25  0     1  0  0  0  0  0999 V2000
   -0.0100   -1.4586    0.0000 S   0  0  0  0  0  0  0  0  0  0  0  0
    1.7000   -1.4988    0.0000 O   0  0  0  0  0  0  0  0  0  0  0  0
    1.7201   -0.0704    0.0000 O   0  0  0  0  0  0  0  0  0  0  0  0
    0.2313    0.6739    0.0000 N   0  0  0  0  0  0  0  0  0  0  0  0
   -2.9675    0.0503    0.0000 N   0  0  0  0  0  0  0  0  0  0  0  0
    0.7343    2.2433    0.0000 N   0  0  0  0  0  0  0  0  0  0  0  0
   -0.7948   -0.3521    0.0000 C   0  0  0  0  0  0  0  0  0  0  0  0
   -0.0100   -0.1106    0.0000 C   0  0  0  0  0  0  0  0  0  0  0  0
   -0.8148   -1.1769    0.0000 C   0  0  0  0  0  0  0  0  0  0  0  0
    0.4728   -0.7746    0.0000 C   0  0  0  0  0  0  0  0  0  0  0  0
   -1.4988    0.0503    0.0000 C   0  0  0  0  0  0  0  0  0  0  0  0
   -2.2232   -0.3521    0.0000 C   0  0  0  0  0  0  0  0  0  0  0  0
   -1.5390   -1.5793    0.0000 C   0  0  0  0  0  0  0  0  0  0  0  0
    1.2776   -0.7948    0.0000 C   0  0  0  0  0  0  0  0  0  0  0  0
   -2.2232   -1.1971    0.0000 C   0  0  0  0  0  0  0  0  0  0  0  0
   -1.4988    0.8752    0.0000 C   0  0  0  0  0  0  0  0  0  0  0  0
   -2.2232    1.2977    0.0000 C   0  0  0  0  0  0  0  0  0  0  0  0
   -2.9474    0.8752    0.0000 C   0  0  0  0  0  0  0  0  0  0  0  0
    1.0563    0.8350    0.0000 C   0  0  0  0  0  0  0  0  0  0  0  0
    1.2977    1.6195    0.0000 C   0  0  3  0  0  0  0  0  0  0  0  0
    2.5450   -1.5190    0.0000 C   0  0  0  0  0  0  0  0  0  0  0  0
    2.1023    1.8006    0.0000 C   0  0  0  0  0  0  0  0  0  0  0  0
    2.9675   -2.2433    0.0000 C   0  0  0  0  0  0  0  0  0  0  0  0
  1  9  1  0  0  0  0
  1 10  1  0  0  0  0
  2 14  1  0  0  0  0
  2 21  1  0  0  0  0
  3 14  2  0  0  0  0
  4  8  1  0  0  0  0
  4 19  1  0  0  0  0
  5 12  2  0  0  0  0
  5 18  1  0  0  0  0
 20  6  1  6  0  0  0
  7  8  1  0  0  0  0
  7  9  2  0  0  0  0
  7 11  1  0  0  0  0
  8 10  2  0  0  0  0
  9 13  1  0  0  0  0
 10 14  1  0  0  0  0
 11 12  1  0  0  0  0
 11 16  2  0  0  0  0
 12 15  1  0  0  0  0
 13 15  2  0  0  0  0
 16 17  1  0  0  0  0
 17 18  2  0  0  0  0
 19 20  1  0  0  0  0
 20 22  1  0  0  0  0
 21 23  1  0  0  0  0
M  END
> <PUBCHEM_COMPOUND_ID_TYPE>
0

> <PUBCHEM_TOTAL_CHARGE>
0

> <PUBCHEM_SUBSTANCE_ID>
310945221

> <PUBCHEM_SUBSTANCE_VERSION>
1

> <PUBCHEM_EXT_DATASOURCE_NAME>
4488

> <PUBCHEM_EXT_DATASOURCE_REGID>
SCHEMBL16123311

> <PUBCHEM_SUBSTANCE_COMMENT>
InChI=1S/C17H19N3O2S/c1-3-22-17(21)16-15(20-9-10(2)18)14-11-5-4-8-19-12(11)6-7-13(14)23-16/h4-8,10,20H,3,9,18H2,1-2H3/t10-/m1/s1
InChIKey=AEYCOJASHWLSRJ-SNVBAGLBSA-N

> <PUBCHEM_SUBSTANCE_SYNONYM>
SCHEMBL16123311

> <PUBCHEM_XREF_EXT_ID>
SCHEMBL16123311

> <PUBCHEM_EXT_DATASOURCE_URL>
https://www.surechembl.org/

> <PUBCHEM_EXT_SUBSTANCE_URL>
https://www.surechembl.org/chemical/SCHEMBL16123311

> <PUBCHEM_CID_ASSOCIATIONS>
117611295  1

> <PUBCHEM_COORDINATE_TYPE>
1
3

> <PUBCHEM_BONDANNOTATIONS>
20  6  6

$$$$
