310933538
  -OEChem-07211613022D

 14 15  0     0  0  0  0  0  0999 V2000
    0.7235   -2.4891    0.0000 O   0  0  0  0  0  0  0  0  0  0  0  0
    1.4326   -1.2445    0.0000 N   0  0  0  0  0  0  0  0  0  0  0  0
    4.2980   -0.4052    0.0000 N   0  0  0  0  0  0  0  0  0  0  0  0
    2.8653   -1.2590    0.0000 C   0  0  0  0  0  0  0  0  0  0  0  0
    2.1562   -1.6642    0.0000 C   0  0  0  0  0  0  0  0  0  0  0  0
    3.5889   -1.6642    0.0000 C   0  0  0  0  0  0  0  0  0  0  0  0
    2.8508   -0.4342    0.0000 C   0  0  0  0  0  0  0  0  0  0  0  0
    2.1707   -2.4891    0.0000 C   0  0  0  0  0  0  0  0  0  0  0  0
    3.6034   -2.4746    0.0000 C   0  0  0  0  0  0  0  0  0  0  0  0
    4.2980   -1.2445    0.0000 C   0  0  0  0  0  0  0  0  0  0  0  0
    2.8943   -2.8943    0.0000 C   0  0  0  0  0  0  0  0  0  0  0  0
    3.5744    0.0000    0.0000 C   0  0  0  0  0  0  0  0  0  0  0  0
    0.7235   -1.6642    0.0000 C   0  0  0  0  0  0  0  0  0  0  0  0
    0.0000   -1.2445    0.0000 C   0  0  0  0  0  0  0  0  0  0  0  0
  1 13  2  0  0  0  0
  2  5  1  0  0  0  0
  2 13  1  0  0  0  0
  3 10  2  0  0  0  0
  3 12  1  0  0  0  0
  4  5  1  0  0  0  0
  4  6  2  0  0  0  0
  4  7  1  0  0  0  0
  5  8  2  0  0  0  0
  6  9  1  0  0  0  0
  6 10  1  0  0  0  0
  7 12  1  0  0  0  0
  8 11  1  0  0  0  0
  9 11  2  0  0  0  0
 13 14  1  0  0  0  0
M  END
> <PUBCHEM_COMPOUND_ID_TYPE>
0

> <PUBCHEM_TOTAL_CHARGE>
0

> <PUBCHEM_SUBSTANCE_ID>
310933538

> <PUBCHEM_SUBSTANCE_VERSION>
1

> <PUBCHEM_EXT_DATASOURCE_NAME>
4488

> <PUBCHEM_EXT_DATASOURCE_REGID>
SCHEMBL16110961

> <PUBCHEM_SUBSTANCE_COMMENT>
InChI=1S/C11H12N2O/c1-8(14)13-11-4-2-3-9-7-12-6-5-10(9)11/h2-4,7H,5-6H2,1H3,(H,13,14)
InChIKey=WHWWFXMUNPNOKO-UHFFFAOYSA-N

> <PUBCHEM_SUBSTANCE_SYNONYM>
SCHEMBL16110961

> <PUBCHEM_XREF_EXT_ID>
SCHEMBL16110961

> <PUBCHEM_EXT_DATASOURCE_URL>
https://www.surechembl.org/

> <PUBCHEM_EXT_SUBSTANCE_URL>
https://www.surechembl.org/chemical/SCHEMBL16110961

> <PUBCHEM_CID_ASSOCIATIONS>
117601926  1

> <PUBCHEM_COORDINATE_TYPE>
1
3

$$$$
