310936210
  -OEChem-07211613022D

 44 46  0     1  0  0  0  0  0999 V2000
   -3.9973    4.9839    0.0000 P   0  0  3  0  0  0  0  0  0  0  0  0
   -5.3475    4.5161    0.0000 P   0  0  3  0  0  0  0  0  0  0  0  0
   -1.2346    5.8594    0.0000 O   0  0  0  0  0  0  0  0  0  0  0  0
   -0.1044    4.0484    0.0000 O   0  0  0  0  0  0  0  0  0  0  0  0
   -3.1871    4.8279    0.0000 O   0  0  0  0  0  0  0  0  0  0  0  0
   -1.8855    3.8263    0.0000 O   0  0  0  0  0  0  0  0  0  0  0  0
   -4.8074    5.1398    0.0000 O   0  0  0  0  0  0  0  0  0  0  0  0
    2.3489    7.5852    0.0000 O   0  0  0  0  0  0  0  0  0  0  0  0
   -5.9711    5.0562    0.0000 O   0  0  0  0  0  0  0  0  0  0  0  0
   -3.8414    5.7940    0.0000 O   0  0  0  0  0  0  0  0  0  0  0  0
   -4.1532    4.1737    0.0000 O   0  0  0  0  0  0  0  0  0  0  0  0
   -4.7239    3.9760    0.0000 O   0  0  0  0  0  0  0  0  0  0  0  0
   -8.0480    3.5807    0.0000 O   0  0  0  0  0  0  0  0  0  0  0  0
   -6.9678    2.6452    0.0000 O   0  0  0  0  0  0  0  0  0  0  0  0
    0.2348    5.8109    0.0000 N   0  0  0  0  0  0  0  0  0  0  0  0
    1.5594    5.9760    0.0000 N   0  0  0  0  0  0  0  0  0  0  0  0
   -0.1071    7.2790    0.0000 N   0  0  0  0  0  0  0  0  0  0  0  0
    1.0325    8.1410    0.0000 N   0  0  0  0  0  0  0  0  0  0  0  0
   -5.8876    3.8925    0.0000 N   0  0  0  0  0  0  0  0  0  0  0  0
   -0.2838    8.6969    0.0000 N   0  0  0  0  0  0  0  0  0  0  0  0
   -6.2830    7.2166    0.0000 N   0  0  0  0  0  0  0  0  0  0  0  0
   -0.5123    5.4608    0.0000 C   0  0  3  0  0  0  0  0  0  0  0  0
    0.3907    6.6210    0.0000 C   0  0  0  0  0  0  0  0  0  0  0  0
    1.2093    6.7231    0.0000 C   0  0  0  0  0  0  0  0  0  0  0  0
   -0.6682    4.6507    0.0000 C   0  0  3  0  0  0  0  0  0  0  0  0
   -1.8369    5.2957    0.0000 C   0  0  3  0  0  0  0  0  0  0  0  0
   -1.4869    4.5486    0.0000 C   0  0  3  0  0  0  0  0  0  0  0  0
    0.9571    5.4123    0.0000 C   0  0  0  0  0  0  0  0  0  0  0  0
    1.5303    7.4831    0.0000 C   0  0  0  0  0  0  0  0  0  0  0  0
    0.2139    8.0390    0.0000 C   0  0  0  0  0  0  0  0  0  0  0  0
   -2.6471    5.4516    0.0000 C   0  0  0  0  0  0  0  0  0  0  0  0
   -6.6977    4.0484    0.0000 C   0  0  3  0  0  0  0  0  0  0  0  0
   -7.2378    3.4248    0.0000 C   0  0  0  0  0  0  0  0  0  0  0  0
   -5.8152    5.8664    0.0000 C   0  0  0  0  0  0  0  0  0  0  0  0
   -6.9678    4.8279    0.0000 C   0  0  0  0  0  0  0  0  0  0  0  0
   -6.4389    6.4064    0.0000 C   0  0  0  0  0  0  0  0  0  0  0  0
   -8.5880    2.9570    0.0000 C   0  0  0  0  0  0  0  0  0  0  0  0
   -9.3982    3.1129    0.0000 C   0  0  0  0  0  0  0  0  0  0  0  0
   -9.9383    2.4893    0.0000 C   0  0  0  0  0  0  0  0  0  0  0  0
   -9.6682    3.8925    0.0000 C   0  0  0  0  0  0  0  0  0  0  0  0
  -10.7484    2.6452    0.0000 C   0  0  0  0  0  0  0  0  0  0  0  0
  -10.4784    4.0484    0.0000 C   0  0  0  0  0  0  0  0  0  0  0  0
  -11.2885    2.0216    0.0000 C   0  0  0  0  0  0  0  0  0  0  0  0
  -10.7484    4.8279    0.0000 C   0  0  0  0  0  0  0  0  0  0  0  0
  1  5  1  0  0  0  0
  1  7  1  0  0  0  0
  1 10  2  0  0  0  0
  1 11  1  0  0  0  0
  2  7  1  0  0  0  0
  2  9  1  0  0  0  0
  2 12  2  0  0  0  0
  2 19  1  0  0  0  0
 22  3  1  1  0  0  0
  3 26  1  0  0  0  0
 25  4  1  6  0  0  0
  5 31  1  0  0  0  0
 27  6  1  1  0  0  0
  8 29  2  0  0  0  0
  9 34  1  0  0  0  0
 13 33  1  0  0  0  0
 13 37  1  0  0  0  0
 14 33  2  0  0  0  0
 15 22  1  0  0  0  0
 15 23  1  0  0  0  0
 15 28  1  0  0  0  0
 16 24  1  0  0  0  0
 16 28  2  0  0  0  0
 17 23  1  0  0  0  0
 17 30  2  0  0  0  0
 18 29  1  0  0  0  0
 18 30  1  0  0  0  0
 19 32  1  0  0  0  0
 20 30  1  0  0  0  0
 21 36  1  0  0  0  0
 22 25  1  0  0  0  0
 23 24  2  0  0  0  0
 24 29  1  0  0  0  0
 25 27  1  0  0  0  0
 26 27  1  0  0  0  0
 26 31  1  1  0  0  0
 32 33  1  0  0  0  0
 32 35  1  0  0  0  0
 34 36  1  0  0  0  0
 37 38  1  0  0  0  0
 38 39  1  0  0  0  0
 38 40  1  0  0  0  0
 39 41  1  0  0  0  0
 40 42  1  0  0  0  0
 41 43  1  0  0  0  0
 42 44  1  0  0  0  0
M  END
> <PUBCHEM_COMPOUND_ID_TYPE>
0

> <PUBCHEM_TOTAL_CHARGE>
0

> <PUBCHEM_SUBSTANCE_ID>
310936210

> <PUBCHEM_SUBSTANCE_VERSION>
1

> <PUBCHEM_EXT_DATASOURCE_NAME>
4488

> <PUBCHEM_EXT_DATASOURCE_REGID>
SCHEMBL16113822

> <PUBCHEM_SUBSTANCE_COMMENT>
InChI=1S/C23H41N7O12P2/c1-4-6-14(7-5-2)10-38-22(34)13(3)29-43(35,39-9-8-24)42-44(36,37)40-11-15-17(31)18(32)21(41-15)30-12-26-16-19(30)27-23(25)28-20(16)33/h12-15,17-18,21,31-32H,4-11,24H2,1-3H3,(H,29,35)(H,36,37)(H3,25,27,28,33)/t13?,15-,17+,18-,21-,43?/m1/s1
InChIKey=OMTWAOLCYMZAEF-CURANZKPSA-N

> <PUBCHEM_SUBSTANCE_SYNONYM>
SCHEMBL16113822

> <PUBCHEM_XREF_EXT_ID>
SCHEMBL16113822

> <PUBCHEM_EXT_DATASOURCE_URL>
https://www.surechembl.org/

> <PUBCHEM_EXT_SUBSTANCE_URL>
https://www.surechembl.org/chemical/SCHEMBL16113822

> <PUBCHEM_CID_ASSOCIATIONS>
117604163  1

> <PUBCHEM_COORDINATE_TYPE>
1
3

> <PUBCHEM_BONDANNOTATIONS>
26  31  5
22  3  5
25  4  6
27  6  5

$$$$
