310940221
  -OEChem-07211613022D

 26 26  0     1  0  0  0  0  0999 V2000
    4.5883  -12.3775    0.0000 O   0  0  0  0  0  0  0  0  0  0  0  0
    8.1609  -12.7901    0.0000 O   0  0  0  0  0  0  0  0  0  0  0  0
    7.4465  -11.5525    0.0000 O   0  0  0  0  0  0  0  0  0  0  0  0
    3.8738  -12.7901    0.0000 O   0  0  0  0  0  0  0  0  0  0  0  0
    8.2715  -14.8527    0.0000 O   0  0  0  0  0  0  0  0  0  0  0  0
    4.5883  -14.0276    0.0000 N   0  0  0  0  0  0  0  0  0  0  0  0
    6.0173  -14.8527    0.0000 N   0  0  0  0  0  0  0  0  0  0  0  0
    7.4465  -14.8527    0.0000 N   0  0  0  0  0  0  0  0  0  0  0  0
    6.7319  -16.0903    0.0000 N   0  0  0  0  0  0  0  0  0  0  0  0
    5.3029  -13.6151    0.0000 C   0  0  3  0  0  0  0  0  0  0  0  0
    5.3029  -12.7901    0.0000 C   0  0  3  0  0  0  0  0  0  0  0  0
    6.0173  -14.0276    0.0000 C   0  0  3  0  0  0  0  0  0  0  0  0
    6.7319  -12.7901    0.0000 C   0  0  0  0  0  0  0  0  0  0  0  0
    6.0173  -12.3775    0.0000 C   0  0  0  0  0  0  0  0  0  0  0  0
    6.7319  -13.6151    0.0000 C   0  0  0  0  0  0  0  0  0  0  0  0
    7.4465  -12.3775    0.0000 C   0  0  0  0  0  0  0  0  0  0  0  0
    4.5883  -11.5525    0.0000 C   0  0  0  0  0  0  0  0  0  0  0  0
    6.7319  -15.2652    0.0000 C   0  0  0  0  0  0  0  0  0  0  0  0
    3.8738  -13.6151    0.0000 C   0  0  0  0  0  0  0  0  0  0  0  0
    3.8738  -11.1399    0.0000 C   0  0  0  0  0  0  0  0  0  0  0  0
    5.3029  -11.1399    0.0000 C   0  0  0  0  0  0  0  0  0  0  0  0
    8.8755  -12.3775    0.0000 C   0  0  0  0  0  0  0  0  0  0  0  0
    3.1593  -14.0276    0.0000 C   0  0  0  0  0  0  0  0  0  0  0  0
    3.8738  -10.3149    0.0000 C   0  0  0  0  0  0  0  0  0  0  0  0
    5.3029  -10.3149    0.0000 C   0  0  0  0  0  0  0  0  0  0  0  0
    9.5900  -12.7901    0.0000 C   0  0  0  0  0  0  0  0  0  0  0  0
 11  1  1  6  0  0  0
  1 17  1  0  0  0  0
  2 16  1  0  0  0  0
  2 22  1  0  0  0  0
  3 16  2  0  0  0  0
  4 19  2  0  0  0  0
  5  8  1  0  0  0  0
 10  6  1  1  0  0  0
  6 19  1  0  0  0  0
 12  7  1  6  0  0  0
  7 18  1  0  0  0  0
  8 18  2  0  0  0  0
  9 18  1  0  0  0  0
 10 11  1  0  0  0  0
 10 12  1  0  0  0  0
 11 14  1  0  0  0  0
 12 15  1  0  0  0  0
 13 14  2  0  0  0  0
 13 15  1  0  0  0  0
 13 16  1  0  0  0  0
 17 20  1  0  0  0  0
 17 21  1  0  0  0  0
 19 23  1  0  0  0  0
 20 24  1  0  0  0  0
 21 25  1  0  0  0  0
 22 26  1  0  0  0  0
M  END
> <PUBCHEM_COMPOUND_ID_TYPE>
0

> <PUBCHEM_TOTAL_CHARGE>
0

> <PUBCHEM_SUBSTANCE_ID>
310940221

> <PUBCHEM_SUBSTANCE_VERSION>
1

> <PUBCHEM_EXT_DATASOURCE_NAME>
4488

> <PUBCHEM_EXT_DATASOURCE_REGID>
SCHEMBL16118155

> <PUBCHEM_SUBSTANCE_COMMENT>
InChI=1S/C17H30N4O5/c1-5-12(6-2)26-14-9-11(16(23)25-7-3)8-13(20-17(18)21-24)15(14)19-10(4)22/h9,12-15,24H,5-8H2,1-4H3,(H,19,22)(H3,18,20,21)/t13-,14+,15+/m0/s1
InChIKey=DAKYBSAHWDBGLY-RRFJBIMHSA-N

> <PUBCHEM_SUBSTANCE_SYNONYM>
SCHEMBL16118155

> <PUBCHEM_XREF_EXT_ID>
SCHEMBL16118155

> <PUBCHEM_EXT_DATASOURCE_URL>
https://www.surechembl.org/

> <PUBCHEM_EXT_SUBSTANCE_URL>
https://www.surechembl.org/chemical/SCHEMBL16118155

> <PUBCHEM_CID_ASSOCIATIONS>
71519649  1

> <PUBCHEM_COORDINATE_TYPE>
1
3

> <PUBCHEM_BONDANNOTATIONS>
11  1  6
8  5  3
10  6  5
12  7  6

$$$$
