310944941
  -OEChem-07211613022D

 16 17  0     0  0  0  0  0  0999 V2000
    1.4375   -0.4969    0.0000 S   0  0  0  0  0  0  0  0  0  0  0  0
   -2.7227   -0.6029    0.0000 S   0  0  0  0  0  0  0  0  0  0  0  0
    2.9082    1.0798    0.0000 O   0  0  0  0  0  0  0  0  0  0  0  0
   -1.9012    0.9341    0.0000 O   0  0  0  0  0  0  0  0  0  0  0  0
    1.4508    0.8811    0.0000 N   0  0  0  0  0  0  0  0  0  0  0  0
    0.1391    0.2186    0.0000 N   0  0  0  0  0  0  0  0  0  0  0  0
   -0.6955    0.2186    0.0000 N   0  0  0  0  0  0  0  0  0  0  0  0
    1.0003    0.2716    0.0000 C   0  0  0  0  0  0  0  0  0  0  0  0
    2.2325    0.6823    0.0000 C   0  0  0  0  0  0  0  0  0  0  0  0
    2.2325   -0.1523    0.0000 C   0  0  0  0  0  0  0  0  0  0  0  0
   -1.5038    0.2716    0.0000 C   0  0  0  0  0  0  0  0  0  0  0  0
   -1.9277   -0.4306    0.0000 C   0  0  0  0  0  0  0  0  0  0  0  0
   -1.5965   -1.1991    0.0000 C   0  0  0  0  0  0  0  0  0  0  0  0
    1.2123    1.7555    0.0000 C   0  0  0  0  0  0  0  0  0  0  0  0
   -2.9082   -1.3448    0.0000 C   0  0  0  0  0  0  0  0  0  0  0  0
   -2.1927   -1.7555    0.0000 C   0  0  0  0  0  0  0  0  0  0  0  0
  1  8  1  0  0  0  0
  1 10  1  0  0  0  0
  2 12  1  0  0  0  0
  2 15  1  0  0  0  0
  3  9  2  0  0  0  0
  4 11  2  0  0  0  0
  5  8  1  0  0  0  0
  5  9  1  0  0  0  0
  5 14  1  0  0  0  0
  6  7  1  0  0  0  0
  6  8  2  3  0  0  0
  7 11  1  0  0  0  0
  9 10  1  0  0  0  0
 11 12  1  0  0  0  0
 12 13  2  0  0  0  0
 13 16  1  0  0  0  0
 15 16  2  0  0  0  0
M  END
> <PUBCHEM_COMPOUND_ID_TYPE>
0

> <PUBCHEM_TOTAL_CHARGE>
0

> <PUBCHEM_SUBSTANCE_ID>
310944941

> <PUBCHEM_SUBSTANCE_VERSION>
1

> <PUBCHEM_EXT_DATASOURCE_NAME>
4488

> <PUBCHEM_EXT_DATASOURCE_REGID>
SCHEMBL16123026

> <PUBCHEM_SUBSTANCE_COMMENT>
InChI=1S/C9H9N3O2S2/c1-12-7(13)5-16-9(12)11-10-8(14)6-3-2-4-15-6/h2-4H,5H2,1H3,(H,10,14)/b11-9+
InChIKey=PXHOMLMREHWOJZ-PKNBQFBNSA-N

> <PUBCHEM_SUBSTANCE_SYNONYM>
SCHEMBL16123026

> <PUBCHEM_XREF_EXT_ID>
SCHEMBL16123026

> <PUBCHEM_EXT_DATASOURCE_URL>
https://www.surechembl.org/

> <PUBCHEM_EXT_SUBSTANCE_URL>
https://www.surechembl.org/chemical/SCHEMBL16123026

> <PUBCHEM_CID_ASSOCIATIONS>
117611095  1

> <PUBCHEM_COORDINATE_TYPE>
1
3

$$$$
