310930156
  -OEChem-07211613022D

 16 18  0     0  0  0  0  0  0999 V2000
    2.1119    0.0000    0.0000 N   0  0  0  0  0  0  0  0  0  0  0  0
    4.9499   -2.4584    0.0000 N   0  0  0  0  0  0  0  0  0  0  0  0
    2.8379   -1.2375    0.0000 C   0  0  0  0  0  0  0  0  0  0  0  0
    2.8379   -2.0625    0.0000 C   0  0  0  0  0  0  0  0  0  0  0  0
    2.1119   -0.8250    0.0000 C   0  0  0  0  0  0  0  0  0  0  0  0
    1.4024   -1.2375    0.0000 C   0  0  0  0  0  0  0  0  0  0  0  0
    1.4024   -2.0625    0.0000 C   0  0  0  0  0  0  0  0  0  0  0  0
    2.1119   -2.4749    0.0000 C   0  0  0  0  0  0  0  0  0  0  0  0
    3.5639   -2.4749    0.0000 C   0  0  0  0  0  0  0  0  0  0  0  0
    3.5639   -0.8250    0.0000 C   0  0  0  0  0  0  0  0  0  0  0  0
    4.2404   -2.0625    0.0000 C   0  0  0  0  0  0  0  0  0  0  0  0
    0.6765   -0.8250    0.0000 C   0  0  0  0  0  0  0  0  0  0  0  0
    0.6765   -2.4749    0.0000 C   0  0  0  0  0  0  0  0  0  0  0  0
    4.2404   -1.2375    0.0000 C   0  0  0  0  0  0  0  0  0  0  0  0
    0.0000   -1.2375    0.0000 C   0  0  0  0  0  0  0  0  0  0  0  0
    0.0000   -2.0625    0.0000 C   0  0  0  0  0  0  0  0  0  0  0  0
  1  5  1  0  0  0  0
  2 11  1  0  0  0  0
  3  4  1  0  0  0  0
  3  5  2  0  0  0  0
  3 10  1  0  0  0  0
  4  8  2  0  0  0  0
  4  9  1  0  0  0  0
  5  6  1  0  0  0  0
  6  7  2  0  0  0  0
  6 12  1  0  0  0  0
  7  8  1  0  0  0  0
  7 13  1  0  0  0  0
  9 11  2  0  0  0  0
 10 14  2  0  0  0  0
 11 14  1  0  0  0  0
 12 15  2  0  0  0  0
 13 16  2  0  0  0  0
 15 16  1  0  0  0  0
M  END
> <PUBCHEM_COMPOUND_ID_TYPE>
0

> <PUBCHEM_TOTAL_CHARGE>
0

> <PUBCHEM_SUBSTANCE_ID>
310930156

> <PUBCHEM_SUBSTANCE_VERSION>
1

> <PUBCHEM_EXT_DATASOURCE_NAME>
4488

> <PUBCHEM_EXT_DATASOURCE_REGID>
SCHEMBL16107416

> <PUBCHEM_SUBSTANCE_COMMENT>
InChI=1S/C14H12N2/c15-11-5-6-13-10(8-11)7-9-3-1-2-4-12(9)14(13)16/h1-8H,15-16H2
InChIKey=AJQMHLWGIXVWES-UHFFFAOYSA-N

> <PUBCHEM_SUBSTANCE_SYNONYM>
SCHEMBL16107416

> <PUBCHEM_XREF_EXT_ID>
SCHEMBL16107416

> <PUBCHEM_EXT_DATASOURCE_URL>
https://www.surechembl.org/

> <PUBCHEM_EXT_SUBSTANCE_URL>
https://www.surechembl.org/chemical/SCHEMBL16107416

> <PUBCHEM_CID_ASSOCIATIONS>
89422554  1

> <PUBCHEM_COORDINATE_TYPE>
1
3

$$$$
