310935438
  -OEChem-07211613022D

 39 44  0     1  0  0  0  0  0999 V2000
    4.2448   -8.6310    0.0000 F   0  0  0  0  0  0  0  0  0  0  0  0
    3.5373   -5.7540    0.0000 O   0  0  0  0  0  0  0  0  0  0  0  0
    5.7068   -3.7260    0.0000 O   0  0  0  0  0  0  0  0  0  0  0  0
    0.7075   -3.3015    0.0000 N   0  0  3  0  0  0  0  0  0  0  0  0
    0.0000   -2.0752    0.0000 N   0  0  0  0  0  0  0  0  0  0  0  0
    0.7075   -0.8018    0.0000 N   0  0  0  0  0  0  0  0  0  0  0  0
    2.8299   -6.9803    0.0000 N   0  0  0  0  0  0  0  0  0  0  0  0
    3.5844   -3.3015    0.0000 N   0  0  0  0  0  0  0  0  0  0  0  0
    4.2448   -3.7260    0.0000 N   0  0  0  0  0  0  0  0  0  0  0  0
    2.8299   -9.4328    0.0000 N   0  0  0  0  0  0  0  0  0  0  0  0
    1.4149   -2.0752    0.0000 C   0  0  0  0  0  0  0  0  0  0  0  0
    0.7075   -2.4525    0.0000 C   0  0  0  0  0  0  0  0  0  0  0  0
    1.4621   -1.2263    0.0000 C   0  0  0  0  0  0  0  0  0  0  0  0
    2.8299   -2.0752    0.0000 C   0  0  0  0  0  0  0  0  0  0  0  0
    2.1224   -0.8490    0.0000 C   0  0  0  0  0  0  0  0  0  0  0  0
    2.1224   -2.4525    0.0000 C   0  0  0  0  0  0  0  0  0  0  0  0
    1.4149   -4.5277    0.0000 C   0  0  0  0  0  0  0  0  0  0  0  0
    0.7075   -4.9522    0.0000 C   0  0  0  0  0  0  0  0  0  0  0  0
    1.4149   -3.6788    0.0000 C   0  0  0  0  0  0  0  0  0  0  0  0
    2.8299   -1.2263    0.0000 C   0  0  0  0  0  0  0  0  0  0  0  0
    0.0000   -3.6788    0.0000 C   0  0  0  0  0  0  0  0  0  0  0  0
    3.5373   -2.4525    0.0000 C   0  0  0  0  0  0  0  0  0  0  0  0
    2.1224   -5.7540    0.0000 C   0  0  0  0  0  0  0  0  0  0  0  0
    2.1224   -4.9050    0.0000 C   0  0  0  0  0  0  0  0  0  0  0  0
    0.0000   -4.5277    0.0000 C   0  0  0  0  0  0  0  0  0  0  0  0
    0.0000   -1.2263    0.0000 C   0  0  0  0  0  0  0  0  0  0  0  0
    2.8299   -6.1313    0.0000 C   0  0  0  0  0  0  0  0  0  0  0  0
    0.7075   -5.7540    0.0000 C   0  0  0  0  0  0  0  0  0  0  0  0
    1.4149   -6.1313    0.0000 C   0  0  0  0  0  0  0  0  0  0  0  0
    4.2919   -2.0752    0.0000 C   0  0  0  0  0  0  0  0  0  0  0  0
    2.1224    0.0000    0.0000 C   0  0  0  0  0  0  0  0  0  0  0  0
    3.5373   -7.3576    0.0000 C   0  0  0  0  0  0  0  0  0  0  0  0
    2.1224   -7.3576    0.0000 C   0  0  0  0  0  0  0  0  0  0  0  0
    3.5373   -8.2065    0.0000 C   0  0  3  0  0  0  0  0  0  0  0  0
    4.9994   -3.3015    0.0000 C   0  0  0  0  0  0  0  0  0  0  0  0
    4.9994   -2.4997    0.0000 C   0  0  0  0  0  0  0  0  0  0  0  0
    2.8299   -8.6310    0.0000 C   0  0  3  0  0  0  0  0  0  0  0  0
    2.1224   -8.2065    0.0000 C   0  0  0  0  0  0  0  0  0  0  0  0
    6.4143   -3.3015    0.0000 C   0  0  0  0  0  0  0  0  0  0  0  0
 34  1  1  6  0  0  0
  2 27  2  0  0  0  0
  3 35  1  0  0  0  0
  3 39  1  0  0  0  0
  4 12  1  0  0  0  0
  4 19  1  0  0  0  0
  4 21  1  0  0  0  0
  5 12  1  0  0  0  0
  5 26  2  0  0  0  0
  6 13  2  0  0  0  0
  6 26  1  0  0  0  0
  7 27  1  0  0  0  0
  7 32  1  0  0  0  0
  7 33  1  0  0  0  0
  8  9  2  0  0  0  0
  8 22  1  0  0  0  0
  9 35  1  0  0  0  0
 37 10  1  1  0  0  0
 11 12  2  0  0  0  0
 11 13  1  0  0  0  0
 11 16  1  0  0  0  0
 13 15  1  0  0  0  0
 14 16  2  0  0  0  0
 14 20  1  0  0  0  0
 14 22  1  0  0  0  0
 15 20  2  0  0  0  0
 15 31  1  0  0  0  0
 17 18  2  0  0  0  0
 17 19  1  0  0  0  0
 17 24  1  0  0  0  0
 18 25  1  0  0  0  0
 18 28  1  0  0  0  0
 21 25  1  0  0  0  0
 22 30  2  0  0  0  0
 23 24  2  0  0  0  0
 23 27  1  0  0  0  0
 23 29  1  0  0  0  0
 28 29  2  0  0  0  0
 30 36  1  0  0  0  0
 32 34  1  0  0  0  0
 33 38  1  0  0  0  0
 34 37  1  0  0  0  0
 35 36  2  0  0  0  0
 37 38  1  0  0  0  0
M  END
> <PUBCHEM_COMPOUND_ID_TYPE>
0

> <PUBCHEM_TOTAL_CHARGE>
0

> <PUBCHEM_SUBSTANCE_ID>
310935438

> <PUBCHEM_SUBSTANCE_VERSION>
1

> <PUBCHEM_EXT_DATASOURCE_NAME>
4488

> <PUBCHEM_EXT_DATASOURCE_REGID>
SCHEMBL16112982

> <PUBCHEM_SUBSTANCE_COMMENT>
InChI=1S/C29H30FN7O2/c1-17-11-20(25-5-6-26(39-2)35-34-25)13-22-27(17)32-16-33-28(22)36-9-7-18-3-4-19(12-21(18)14-36)29(38)37-10-8-24(31)23(30)15-37/h3-6,11-13,16,23-24H,7-10,14-15,31H2,1-2H3/t23-,24-/m0/s1
InChIKey=QTEBPMKWMJFRLV-ZEQRLZLVSA-N

> <PUBCHEM_SUBSTANCE_SYNONYM>
SCHEMBL16112982

> <PUBCHEM_XREF_EXT_ID>
SCHEMBL16112982

> <PUBCHEM_EXT_DATASOURCE_URL>
https://www.surechembl.org/

> <PUBCHEM_EXT_SUBSTANCE_URL>
https://www.surechembl.org/chemical/SCHEMBL16112982

> <PUBCHEM_CID_ASSOCIATIONS>
86301215  1

> <PUBCHEM_COORDINATE_TYPE>
1
3

> <PUBCHEM_BONDANNOTATIONS>
34  1  6
37  10  5

$$$$
