310944772
  -OEChem-07211613022D

 26 28  0     0  0  0  0  0  0999 V2000
    1.2376    2.8351    0.0000 Br  0  0  0  0  0  0  0  0  0  0  0  0
   -1.7026    0.5250    0.0000 O   0  0  0  0  0  0  0  0  0  0  0  0
   -3.1277   -1.9651    0.0000 O   0  0  0  0  0  0  0  0  0  0  0  0
    2.4527   -2.3701    0.0000 O   0  0  0  0  0  0  0  0  0  0  0  0
    3.1727   -1.1400    0.0000 O   0  0  0  0  0  0  0  0  0  0  0  0
   -0.2025   -0.4650    0.0000 N   0  0  0  0  0  0  0  0  0  0  0  0
   -1.7026   -1.9501    0.0000 N   0  0  0  0  0  0  0  0  0  0  0  0
   -0.2025   -1.8001    0.0000 N   0  0  0  0  0  0  0  0  0  0  0  0
   -2.4226   -0.7200    0.0000 N   0  0  0  0  0  0  0  0  0  0  0  0
   -0.9826   -0.7350    0.0000 C   0  0  0  0  0  0  0  0  0  0  0  0
   -0.9975   -1.5451    0.0000 C   0  0  0  0  0  0  0  0  0  0  0  0
   -1.7176   -0.3300    0.0000 C   0  0  0  0  0  0  0  0  0  0  0  0
    0.2925   -1.1400    0.0000 C   0  0  0  0  0  0  0  0  0  0  0  0
   -2.4077   -1.5451    0.0000 C   0  0  0  0  0  0  0  0  0  0  0  0
   -0.1875    0.3450    0.0000 C   0  0  0  0  0  0  0  0  0  0  0  0
    1.0426   -1.5451    0.0000 C   0  0  0  0  0  0  0  0  0  0  0  0
    0.5175    0.7651    0.0000 C   0  0  0  0  0  0  0  0  0  0  0  0
   -1.6876   -2.8351    0.0000 C   0  0  0  0  0  0  0  0  0  0  0  0
   -3.1727   -0.3150    0.0000 C   0  0  0  0  0  0  0  0  0  0  0  0
    1.7476   -1.1400    0.0000 C   0  0  0  0  0  0  0  0  0  0  0  0
    0.5325    1.5901    0.0000 C   0  0  0  0  0  0  0  0  0  0  0  0
    1.2526    0.3750    0.0000 C   0  0  0  0  0  0  0  0  0  0  0  0
    1.2376    1.9952    0.0000 C   0  0  0  0  0  0  0  0  0  0  0  0
    1.9576    0.7651    0.0000 C   0  0  0  0  0  0  0  0  0  0  0  0
    2.4527   -1.5301    0.0000 C   0  0  0  0  0  0  0  0  0  0  0  0
    1.9576    1.5901    0.0000 C   0  0  0  0  0  0  0  0  0  0  0  0
  1 23  1  0  0  0  0
  2 12  2  0  0  0  0
  3 14  2  0  0  0  0
  4 25  2  0  0  0  0
  5 25  1  0  0  0  0
  6 10  1  0  0  0  0
  6 13  1  0  0  0  0
  6 15  1  0  0  0  0
  7 11  1  0  0  0  0
  7 14  1  0  0  0  0
  7 18  1  0  0  0  0
  8 11  1  0  0  0  0
  8 13  2  0  0  0  0
  9 12  1  0  0  0  0
  9 14  1  0  0  0  0
  9 19  1  0  0  0  0
 10 11  2  0  0  0  0
 10 12  1  0  0  0  0
 13 16  1  0  0  0  0
 15 17  1  0  0  0  0
 16 20  1  0  0  0  0
 17 21  1  0  0  0  0
 17 22  2  0  0  0  0
 20 25  1  0  0  0  0
 21 23  2  0  0  0  0
 22 24  1  0  0  0  0
 23 26  1  0  0  0  0
 24 26  2  0  0  0  0
M  END
> <PUBCHEM_COMPOUND_ID_TYPE>
0

> <PUBCHEM_TOTAL_CHARGE>
0

> <PUBCHEM_SUBSTANCE_ID>
310944772

> <PUBCHEM_SUBSTANCE_VERSION>
1

> <PUBCHEM_EXT_DATASOURCE_NAME>
4488

> <PUBCHEM_EXT_DATASOURCE_REGID>
SCHEMBL16122851

> <PUBCHEM_SUBSTANCE_COMMENT>
InChI=1S/C17H17BrN4O4/c1-20-15-14(16(25)21(2)17(20)26)22(12(19-15)6-7-13(23)24)9-10-4-3-5-11(18)8-10/h3-5,8H,6-7,9H2,1-2H3,(H,23,24)
InChIKey=KVPIZNIJLREMNT-UHFFFAOYSA-N

> <PUBCHEM_SUBSTANCE_SYNONYM>
SCHEMBL16122851

> <PUBCHEM_XREF_EXT_ID>
SCHEMBL16122851

> <PUBCHEM_EXT_DATASOURCE_URL>
https://www.surechembl.org/

> <PUBCHEM_EXT_SUBSTANCE_URL>
https://www.surechembl.org/chemical/SCHEMBL16122851

> <PUBCHEM_CID_ASSOCIATIONS>
117610988  1

> <PUBCHEM_COORDINATE_TYPE>
1
3

$$$$
