310938155
  -OEChem-07211613022D

 43 47  0     1  0  0  0  0  0999 V2000
   -2.0810   -1.2823    0.0000 O   0  0  0  0  0  0  0  0  0  0  0  0
   -4.8430   -2.1798    0.0000 O   0  0  0  0  0  0  0  0  0  0  0  0
   -1.8254   -6.3616    0.0000 O   0  0  0  0  0  0  0  0  0  0  0  0
   -2.8520   -6.8187    0.0000 O   0  0  0  0  0  0  0  0  0  0  0  0
   -4.2497   -6.5216    0.0000 O   0  0  0  0  0  0  0  0  0  0  0  0
    2.4614   -6.3616    0.0000 O   0  0  0  0  0  0  0  0  0  0  0  0
   -3.3909   -1.9498    0.0000 N   0  0  0  0  0  0  0  0  0  0  0  0
   -2.5399   -5.1241    0.0000 N   0  0  0  0  0  0  0  0  0  0  0  0
   -0.3964   -5.5366    0.0000 N   0  0  0  0  0  0  0  0  0  0  0  0
    1.7470   -5.1241    0.0000 N   0  0  0  0  0  0  0  0  0  0  0  0
   -2.6261   -4.3036    0.0000 C   0  0  0  0  0  0  0  0  0  0  0  0
   -3.1360   -2.7344    0.0000 C   0  0  0  0  0  0  0  0  0  0  0  0
   -3.4331   -4.1321    0.0000 C   0  0  0  0  0  0  0  0  0  0  0  0
   -2.9060   -1.2823    0.0000 C   0  0  0  0  0  0  0  0  0  0  0  0
   -4.1755   -1.6948    0.0000 C   0  0  0  0  0  0  0  0  0  0  0  0
   -3.3909   -0.6149    0.0000 C   0  0  0  0  0  0  0  0  0  0  0  0
   -4.1755   -0.8698    0.0000 C   0  0  0  0  0  0  0  0  0  0  0  0
   -3.2935   -5.4597    0.0000 C   0  0  3  0  0  0  0  0  0  0  0  0
   -3.6880   -3.3475    0.0000 C   0  0  0  0  0  0  0  0  0  0  0  0
   -3.8456   -4.8466    0.0000 C   0  0  0  0  0  0  0  0  0  0  0  0
   -2.0741   -3.6906    0.0000 C   0  0  0  0  0  0  0  0  0  0  0  0
   -2.3290   -2.9059    0.0000 C   0  0  0  0  0  0  0  0  0  0  0  0
   -1.8254   -5.5366    0.0000 C   0  0  0  0  0  0  0  0  0  0  0  0
   -3.4651   -6.2667    0.0000 C   0  0  0  0  0  0  0  0  0  0  0  0
   -4.7886   -0.3178    0.0000 C   0  0  0  0  0  0  0  0  0  0  0  0
   -3.2194    0.1921    0.0000 C   0  0  0  0  0  0  0  0  0  0  0  0
   -4.6171    0.4892    0.0000 C   0  0  0  0  0  0  0  0  0  0  0  0
   -3.8325    0.7441    0.0000 C   0  0  0  0  0  0  0  0  0  0  0  0
   -1.1109   -5.1241    0.0000 C   0  0  0  0  0  0  0  0  0  0  0  0
    0.3180   -5.1241    0.0000 C   0  0  0  0  0  0  0  0  0  0  0  0
    1.0325   -5.5366    0.0000 C   0  0  3  0  0  0  0  0  0  0  0  0
    1.0325   -6.3616    0.0000 C   0  0  3  0  0  0  0  0  0  0  0  0
    2.4614   -5.5366    0.0000 C   0  0  0  0  0  0  0  0  0  0  0  0
    3.1759   -5.1241    0.0000 C   0  0  0  0  0  0  0  0  0  0  0  0
    1.7470   -6.7741    0.0000 C   0  0  0  0  0  0  0  0  0  0  0  0
    3.8904   -5.5366    0.0000 C   0  0  0  0  0  0  0  0  0  0  0  0
    0.3180   -6.7741    0.0000 C   0  0  0  0  0  0  0  0  0  0  0  0
    4.6048   -5.1241    0.0000 C   0  0  0  0  0  0  0  0  0  0  0  0
    3.8904   -6.3616    0.0000 C   0  0  0  0  0  0  0  0  0  0  0  0
    1.7470   -7.5991    0.0000 C   0  0  0  0  0  0  0  0  0  0  0  0
    5.3193   -5.5366    0.0000 C   0  0  0  0  0  0  0  0  0  0  0  0
    4.6048   -6.7741    0.0000 C   0  0  0  0  0  0  0  0  0  0  0  0
    5.3193   -6.3616    0.0000 C   0  0  0  0  0  0  0  0  0  0  0  0
  1 14  2  0  0  0  0
  2 15  2  0  0  0  0
  3 23  2  0  0  0  0
  4 24  2  0  0  0  0
  5 24  1  0  0  0  0
  6 33  2  0  0  0  0
  7 12  1  0  0  0  0
  7 14  1  0  0  0  0
  7 15  1  0  0  0  0
  8 11  1  0  0  0  0
  8 18  1  0  0  0  0
  8 23  1  0  0  0  0
  9 29  1  0  0  0  0
  9 30  1  0  0  0  0
 31 10  1  6  0  0  0
 10 33  1  0  0  0  0
 11 13  1  0  0  0  0
 11 21  2  0  0  0  0
 12 19  1  0  0  0  0
 12 22  2  0  0  0  0
 13 19  2  0  0  0  0
 13 20  1  0  0  0  0
 14 16  1  0  0  0  0
 15 17  1  0  0  0  0
 16 17  2  0  0  0  0
 16 26  1  0  0  0  0
 17 25  1  0  0  0  0
 18 20  1  0  0  0  0
 18 24  1  0  0  0  0
 21 22  1  0  0  0  0
 23 29  1  0  0  0  0
 25 27  2  0  0  0  0
 26 28  2  0  0  0  0
 27 28  1  0  0  0  0
 30 31  1  0  0  0  0
 31 32  1  0  0  0  0
 32 35  1  0  0  0  0
 32 37  1  6  0  0  0
 33 34  1  0  0  0  0
 34 36  1  0  0  0  0
 35 40  1  0  0  0  0
 36 38  2  0  0  0  0
 36 39  1  0  0  0  0
 38 41  1  0  0  0  0
 39 42  2  0  0  0  0
 41 43  2  0  0  0  0
 42 43  1  0  0  0  0
M  END
> <PUBCHEM_COMPOUND_ID_TYPE>
0

> <PUBCHEM_TOTAL_CHARGE>
0

> <PUBCHEM_SUBSTANCE_ID>
310938155

> <PUBCHEM_SUBSTANCE_VERSION>
1

> <PUBCHEM_EXT_DATASOURCE_NAME>
4488

> <PUBCHEM_EXT_DATASOURCE_REGID>
SCHEMBL16116007

> <PUBCHEM_SUBSTANCE_COMMENT>
InChI=1S/C33H34N4O6/c1-3-20(2)26(35-29(38)15-21-9-5-4-6-10-21)18-34-19-30(39)37-27-14-13-23(16-22(27)17-28(37)33(42)43)36-31(40)24-11-7-8-12-25(24)32(36)41/h4-14,16,20,26,28,34H,3,15,17-19H2,1-2H3,(H,35,38)(H,42,43)/t20-,26-,28?/m0/s1
InChIKey=JEIWKUDDAVDJHU-SPEUPTCZSA-N

> <PUBCHEM_SUBSTANCE_SYNONYM>
SCHEMBL16116007

> <PUBCHEM_XREF_EXT_ID>
SCHEMBL16116007

> <PUBCHEM_EXT_DATASOURCE_URL>
https://www.surechembl.org/

> <PUBCHEM_EXT_SUBSTANCE_URL>
https://www.surechembl.org/chemical/SCHEMBL16116007

> <PUBCHEM_CID_ASSOCIATIONS>
117605703  1

> <PUBCHEM_COORDINATE_TYPE>
1
3

> <PUBCHEM_BONDANNOTATIONS>
31  10  6
32  37  6

$$$$
