310946456
  -OEChem-07211613022D

 17 16  0     0  0  0  0  0  0999 V2000
   -2.8507    3.2194    0.0000 O   0  0  0  0  0  0  0  0  0  0  0  0
    0.7137    3.6319    0.0000 O   0  0  0  0  0  0  0  0  0  0  0  0
   -2.1342    4.4569    0.0000 O   0  0  0  0  0  0  0  0  0  0  0  0
   -0.0008    2.3944    0.0000 O   0  0  0  0  0  0  0  0  0  0  0  0
   -1.4297    3.2194    0.0000 N   0  0  0  0  0  0  0  0  0  0  0  0
   -3.5651    3.6319    0.0000 C   0  0  0  0  0  0  0  0  0  0  0  0
   -2.1362    3.6319    0.0000 C   0  0  0  0  0  0  0  0  0  0  0  0
   -0.0008    3.2194    0.0000 C   0  0  0  0  0  0  0  0  0  0  0  0
   -0.7152    3.6319    0.0000 C   0  0  0  0  0  0  0  0  0  0  0  0
   -4.2796    3.2194    0.0000 C   0  0  0  0  0  0  0  0  0  0  0  0
   -3.5651    4.4569    0.0000 C   0  0  0  0  0  0  0  0  0  0  0  0
   -4.2796    4.0444    0.0000 C   0  0  0  0  0  0  0  0  0  0  0  0
    1.4282    3.2194    0.0000 C   0  0  0  0  0  0  0  0  0  0  0  0
    2.1426    3.6319    0.0000 C   0  0  0  0  0  0  0  0  0  0  0  0
    2.8571    3.2194    0.0000 C   0  0  0  0  0  0  0  0  0  0  0  0
    3.5716    3.6319    0.0000 C   0  0  0  0  0  0  0  0  0  0  0  0
    4.2861    3.2194    0.0000 C   0  0  0  0  0  0  0  0  0  0  0  0
  1  6  1  0  0  0  0
  1  7  1  0  0  0  0
  2  8  1  0  0  0  0
  2 13  1  0  0  0  0
  3  7  2  0  0  0  0
  4  8  2  0  0  0  0
  5  7  1  0  0  0  0
  5  9  1  0  0  0  0
  6 10  1  0  0  0  0
  6 11  1  0  0  0  0
  6 12  1  0  0  0  0
  8  9  1  0  0  0  0
 13 14  1  0  0  0  0
 14 15  1  0  0  0  0
 15 16  1  0  0  0  0
 16 17  1  0  0  0  0
M  END
> <PUBCHEM_COMPOUND_ID_TYPE>
0

> <PUBCHEM_TOTAL_CHARGE>
0

> <PUBCHEM_SUBSTANCE_ID>
310946456

> <PUBCHEM_SUBSTANCE_VERSION>
1

> <PUBCHEM_EXT_DATASOURCE_NAME>
4488

> <PUBCHEM_EXT_DATASOURCE_REGID>
SCHEMBL16124577

> <PUBCHEM_SUBSTANCE_COMMENT>
InChI=1S/C12H23NO4/c1-5-6-7-8-16-10(14)9-13-11(15)17-12(2,3)4/h5-9H2,1-4H3,(H,13,15)
InChIKey=NTBBCAGSQCKULM-UHFFFAOYSA-N

> <PUBCHEM_SUBSTANCE_SYNONYM>
SCHEMBL16124577

> <PUBCHEM_XREF_EXT_ID>
SCHEMBL16124577

> <PUBCHEM_EXT_DATASOURCE_URL>
https://www.surechembl.org/

> <PUBCHEM_EXT_SUBSTANCE_URL>
https://www.surechembl.org/chemical/SCHEMBL16124577

> <PUBCHEM_CID_ASSOCIATIONS>
117612367  1

> <PUBCHEM_COORDINATE_TYPE>
1
3

$$$$
