310932901
  -OEChem-07211613022D

 19 19  0     0  0  0  0  0  0999 V2000
    0.0270   -2.5131    0.0000 Cl  0  0  0  0  0  0  0  0  0  0  0  0
    2.8644   -1.6754    0.0000 O   0  0  0  0  0  0  0  0  0  0  0  0
    2.1618   -0.4324    0.0000 O   0  0  0  0  0  0  0  0  0  0  0  0
    0.7296   -0.4054    0.0000 N   0  0  0  0  0  0  0  0  0  0  0  0
    2.1618   -5.4045    0.0000 N   0  0  0  0  0  0  0  0  0  0  0  0
    1.4592   -2.4861    0.0000 C   0  0  0  0  0  0  0  0  0  0  0  0
    1.4592   -1.6754    0.0000 C   0  0  0  0  0  0  0  0  0  0  0  0
    0.7296   -2.9185    0.0000 C   0  0  0  0  0  0  0  0  0  0  0  0
    2.1618   -1.2430    0.0000 C   0  0  0  0  0  0  0  0  0  0  0  0
    2.1618   -2.9185    0.0000 C   0  0  0  0  0  0  0  0  0  0  0  0
    0.7296   -3.7291    0.0000 C   0  0  0  0  0  0  0  0  0  0  0  0
    1.4592   -4.1615    0.0000 C   0  0  0  0  0  0  0  0  0  0  0  0
    0.7296   -1.2430    0.0000 C   0  0  0  0  0  0  0  0  0  0  0  0
    2.1618   -3.7291    0.0000 C   0  0  0  0  0  0  0  0  0  0  0  0
    1.4592   -4.9992    0.0000 C   0  0  0  0  0  0  0  0  0  0  0  0
    3.5940   -1.2430    0.0000 C   0  0  0  0  0  0  0  0  0  0  0  0
    1.4322    0.0000    0.0000 C   0  0  0  0  0  0  0  0  0  0  0  0
    0.0000    0.0000    0.0000 C   0  0  0  0  0  0  0  0  0  0  0  0
    3.5940   -0.4324    0.0000 C   0  0  0  0  0  0  0  0  0  0  0  0
  1  8  1  0  0  0  0
  2  9  1  0  0  0  0
  2 16  1  0  0  0  0
  3  9  2  0  0  0  0
  4 13  1  0  0  0  0
  4 17  1  0  0  0  0
  4 18  1  0  0  0  0
  5 15  3  0  0  0  0
  6  7  1  0  0  0  0
  6  8  1  0  0  0  0
  6 10  2  0  0  0  0
  7  9  1  0  0  0  0
  7 13  2  0  0  0  0
  8 11  2  0  0  0  0
 10 14  1  0  0  0  0
 11 12  1  0  0  0  0
 12 14  2  0  0  0  0
 12 15  1  0  0  0  0
 16 19  1  0  0  0  0
M  END
> <PUBCHEM_COMPOUND_ID_TYPE>
0

> <PUBCHEM_TOTAL_CHARGE>
0

> <PUBCHEM_SUBSTANCE_ID>
310932901

> <PUBCHEM_SUBSTANCE_VERSION>
1

> <PUBCHEM_EXT_DATASOURCE_NAME>
4488

> <PUBCHEM_EXT_DATASOURCE_REGID>
SCHEMBL16110295

> <PUBCHEM_SUBSTANCE_COMMENT>
InChI=1S/C14H15ClN2O2/c1-4-19-14(18)12(9-17(2)3)11-6-5-10(8-16)7-13(11)15/h5-7,9H,4H2,1-3H3/b12-9-
InChIKey=RHEYRJZGOUNARP-XFXZXTDPSA-N

> <PUBCHEM_SUBSTANCE_SYNONYM>
SCHEMBL16110295

> <PUBCHEM_XREF_EXT_ID>
SCHEMBL16110295

> <PUBCHEM_EXT_DATASOURCE_URL>
https://www.surechembl.org/

> <PUBCHEM_EXT_SUBSTANCE_URL>
https://www.surechembl.org/chemical/SCHEMBL16110295

> <PUBCHEM_CID_ASSOCIATIONS>
117601383  1

> <PUBCHEM_COORDINATE_TYPE>
1
3

$$$$
