310935302
  -OEChem-07211613022D

 43 48  0     1  0  0  0  0  0999 V2000
    8.6130   -3.2010    0.0000 F   0  0  0  0  0  0  0  0  0  0  0  0
    6.5010   -1.1220    0.0000 O   0  0  0  0  0  0  0  0  0  0  0  0
    8.6130   -4.8180    0.0000 O   0  0  0  0  0  0  0  0  0  0  0  0
    7.2270   -3.1680    0.0000 O   0  0  0  0  0  0  0  0  0  0  0  0
    7.9200   -1.9470    0.0000 O   0  0  0  0  0  0  0  0  0  0  0  0
    4.3890   -3.1680    0.0000 N   0  0  0  0  0  0  0  0  0  0  0  0
    3.7620   -3.7290    0.0000 N   0  0  0  0  0  0  0  0  0  0  0  0
    0.4290   -6.6000    0.0000 N   0  0  0  0  0  0  0  0  0  0  0  0
    5.8080   -3.1680    0.0000 C   0  0  0  0  0  0  0  0  0  0  0  0
    5.0820   -3.5640    0.0000 C   0  0  0  0  0  0  0  0  0  0  0  0
    5.8080   -2.3430    0.0000 C   0  0  0  0  0  0  0  0  0  0  0  0
    6.5010   -3.5970    0.0000 C   0  0  0  0  0  0  0  0  0  0  0  0
    5.0820   -1.9470    0.0000 C   0  0  0  0  0  0  0  0  0  0  0  0
    6.5010   -4.4220    0.0000 C   0  0  0  0  0  0  0  0  0  0  0  0
    6.5010   -1.9470    0.0000 C   0  0  3  0  0  0  0  0  0  0  0  0
    4.9170   -4.3890    0.0000 C   0  0  0  0  0  0  0  0  0  0  0  0
    4.0920   -4.4880    0.0000 C   0  0  0  0  0  0  0  0  0  0  0  0
    4.3890   -2.3430    0.0000 C   0  0  0  0  0  0  0  0  0  0  0  0
    7.1940   -4.8180    0.0000 C   0  0  0  0  0  0  0  0  0  0  0  0
    7.3590   -3.3330    0.0000 C   0  0  0  0  0  0  0  0  0  0  0  0
    7.9200   -4.4220    0.0000 C   0  0  0  0  0  0  0  0  0  0  0  0
    7.9200   -3.5970    0.0000 C   0  0  0  0  0  0  0  0  0  0  0  0
    3.6960   -5.1810    0.0000 C   0  0  0  0  0  0  0  0  0  0  0  0
    7.2270   -2.3430    0.0000 C   0  0  0  0  0  0  0  0  0  0  0  0
    7.1940   -5.6430    0.0000 C   0  0  0  0  0  0  0  0  0  0  0  0
    5.0820   -1.1220    0.0000 C   0  0  0  0  0  0  0  0  0  0  0  0
    5.7750   -4.8180    0.0000 C   0  0  0  0  0  0  0  0  0  0  0  0
    5.8080   -0.7260    0.0000 C   0  0  0  0  0  0  0  0  0  0  0  0
    2.8710   -5.1810    0.0000 C   0  0  0  0  0  0  0  0  0  0  0  0
    4.0920   -5.9070    0.0000 C   0  0  0  0  0  0  0  0  0  0  0  0
    2.4750   -5.9070    0.0000 C   0  0  0  0  0  0  0  0  0  0  0  0
    7.9200   -6.0390    0.0000 C   0  0  0  0  0  0  0  0  0  0  0  0
    8.6130   -5.6430    0.0000 C   0  0  0  0  0  0  0  0  0  0  0  0
    3.6960   -6.6000    0.0000 C   0  0  0  0  0  0  0  0  0  0  0  0
    2.8710   -6.6000    0.0000 C   0  0  0  0  0  0  0  0  0  0  0  0
    1.6500   -5.9070    0.0000 C   0  0  0  0  0  0  0  0  0  0  0  0
    5.0820   -0.2970    0.0000 C   0  0  0  0  0  0  0  0  0  0  0  0
    6.2370    0.0000    0.0000 C   0  0  0  0  0  0  0  0  0  0  0  0
    5.3790   -1.4190    0.0000 C   0  0  0  0  0  0  0  0  0  0  0  0
    1.2210   -6.6000    0.0000 C   0  0  0  0  0  0  0  0  0  0  0  0
    1.2210   -5.1810    0.0000 C   0  0  0  0  0  0  0  0  0  0  0  0
    0.4290   -5.1810    0.0000 C   0  0  0  0  0  0  0  0  0  0  0  0
    0.0000   -5.9070    0.0000 C   0  0  0  0  0  0  0  0  0  0  0  0
  1 22  1  0  0  0  0
 15  2  1  6  0  0  0
  2 28  1  0  0  0  0
  3 21  1  0  0  0  0
  3 33  1  0  0  0  0
  4 24  2  0  0  0  0
  5 24  1  0  0  0  0
  6  7  1  0  0  0  0
  6 10  1  0  0  0  0
  6 18  1  0  0  0  0
  7 17  2  0  0  0  0
  8 40  1  0  0  0  0
  8 43  2  0  0  0  0
  9 10  1  0  0  0  0
  9 11  2  0  0  0  0
  9 12  1  0  0  0  0
 10 16  2  0  0  0  0
 11 13  1  0  0  0  0
 11 15  1  0  0  0  0
 12 14  2  0  0  0  0
 12 20  1  0  0  0  0
 13 18  2  0  0  0  0
 13 26  1  0  0  0  0
 14 19  1  0  0  0  0
 14 27  1  0  0  0  0
 15 24  1  0  0  0  0
 16 17  1  0  0  0  0
 17 23  1  0  0  0  0
 19 21  2  0  0  0  0
 19 25  1  0  0  0  0
 20 22  2  0  0  0  0
 21 22  1  0  0  0  0
 23 29  1  0  0  0  0
 23 30  2  0  0  0  0
 25 32  1  0  0  0  0
 28 37  1  0  0  0  0
 28 38  1  0  0  0  0
 28 39  1  0  0  0  0
 29 31  2  0  0  0  0
 30 34  1  0  0  0  0
 31 35  1  0  0  0  0
 31 36  1  0  0  0  0
 32 33  1  0  0  0  0
 34 35  2  0  0  0  0
 36 40  2  0  0  0  0
 36 41  1  0  0  0  0
 41 42  2  0  0  0  0
 42 43  1  0  0  0  0
M  END
> <PUBCHEM_COMPOUND_ID_TYPE>
0

> <PUBCHEM_TOTAL_CHARGE>
0

> <PUBCHEM_SUBSTANCE_ID>
310935302

> <PUBCHEM_SUBSTANCE_VERSION>
1

> <PUBCHEM_EXT_DATASOURCE_NAME>
4488

> <PUBCHEM_EXT_DATASOURCE_REGID>
SCHEMBL16112835

> <PUBCHEM_SUBSTANCE_COMMENT>
InChI=1S/C35H34FN3O4/c1-20-19-39-29(17-28(38-39)23-10-6-9-22(15-23)24-11-7-13-37-18-24)31(30(20)33(34(40)41)43-35(3,4)5)26-16-27(36)32-25(21(26)2)12-8-14-42-32/h6-7,9-11,13,15-19,33H,8,12,14H2,1-5H3,(H,40,41)/t33-/m0/s1
InChIKey=DZVRFPSOOQHJFK-XIFFEERXSA-N

> <PUBCHEM_SUBSTANCE_SYNONYM>
SCHEMBL16112835

> <PUBCHEM_XREF_EXT_ID>
SCHEMBL16112835

> <PUBCHEM_EXT_DATASOURCE_URL>
https://www.surechembl.org/

> <PUBCHEM_EXT_SUBSTANCE_URL>
https://www.surechembl.org/chemical/SCHEMBL16112835

> <PUBCHEM_CID_ASSOCIATIONS>
86299875  1

> <PUBCHEM_COORDINATE_TYPE>
1
3

> <PUBCHEM_BONDANNOTATIONS>
15  2  6

$$$$
