310947957
  -OEChem-07211613022D

 10  9  0     1  0  0  0  0  0999 V2000
   -2.6840   -1.0313    0.0000 O   0  0  0  0  0  0  0  0  0  0  0  0
   -3.3985    1.0313    0.0000 O   0  0  0  0  0  0  0  0  0  0  0  0
   -1.9695    1.0313    0.0000 O   0  0  0  0  0  0  0  0  0  0  0  0
   -1.2551   -0.2062    0.0000 N   0  0  0  0  0  0  0  0  0  0  0  0
   -2.6840   -0.2062    0.0000 C   0  0  3  0  0  0  0  0  0  0  0  0
   -3.3985    0.2062    0.0000 C   0  0  3  0  0  0  0  0  0  0  0  0
   -1.9695    0.2062    0.0000 C   0  0  0  0  0  0  0  0  0  0  0  0
   -4.1129   -0.2062    0.0000 C   0  0  0  0  0  0  0  0  0  0  0  0
   -4.5254    0.5082    0.0000 C   0  0  0  0  0  0  0  0  0  0  0  0
   -3.7004   -0.9207    0.0000 C   0  0  0  0  0  0  0  0  0  0  0  0
  5  1  1  1  0  0  0
  6  2  1  1  0  0  0
  3  7  2  0  0  0  0
  4  7  1  0  0  0  0
  5  6  1  0  0  0  0
  5  7  1  0  0  0  0
  6  8  1  0  0  0  0
  8  9  1  0  0  0  0
  8 10  1  0  0  0  0
M  END
> <PUBCHEM_COMPOUND_ID_TYPE>
0

> <PUBCHEM_TOTAL_CHARGE>
0

> <PUBCHEM_SUBSTANCE_ID>
310947957

> <PUBCHEM_SUBSTANCE_VERSION>
1

> <PUBCHEM_EXT_DATASOURCE_NAME>
4488

> <PUBCHEM_EXT_DATASOURCE_REGID>
SCHEMBL16126131

> <PUBCHEM_SUBSTANCE_COMMENT>
InChI=1S/C6H13NO3/c1-3(2)4(8)5(9)6(7)10/h3-5,8-9H,1-2H3,(H2,7,10)/t4-,5+/m1/s1
InChIKey=WZTOYJHZHKKPDF-UHNVWZDZSA-N

> <PUBCHEM_SUBSTANCE_SYNONYM>
SCHEMBL16126131

> <PUBCHEM_XREF_EXT_ID>
SCHEMBL16126131

> <PUBCHEM_EXT_DATASOURCE_URL>
https://www.surechembl.org/

> <PUBCHEM_EXT_SUBSTANCE_URL>
https://www.surechembl.org/chemical/SCHEMBL16126131

> <PUBCHEM_CID_ASSOCIATIONS>
102122220  1

> <PUBCHEM_COORDINATE_TYPE>
1
3

> <PUBCHEM_BONDANNOTATIONS>
5  1  5
6  2  5
8  10  3
8  9  3

$$$$
