310939069
  -OEChem-07211613022D

 31 33  0     0  0  0  0  0  0999 V2000
   -1.3290   -2.7874    0.0000 O   0  0  0  0  0  0  0  0  0  0  0  0
   -2.7580   -0.3124    0.0000 O   0  0  0  0  0  0  0  0  0  0  0  0
    2.6069   -1.6604    0.0000 O   0  0  0  0  0  0  0  0  0  0  0  0
    0.8845   -1.7075    0.0000 N   0  0  0  0  0  0  0  0  0  0  0  0
    0.0999   -2.7874    0.0000 N   0  0  0  0  0  0  0  0  0  0  0  0
    1.7386    1.4801    0.0000 N   0  0  0  0  0  0  0  0  0  0  0  0
    0.8845   -3.0423    0.0000 N   0  0  0  0  0  0  0  0  0  0  0  0
    2.6069   -3.0894    0.0000 N   0  0  0  0  0  0  0  0  0  0  0  0
    0.0999   -1.9624    0.0000 C   0  0  0  0  0  0  0  0  0  0  0  0
   -0.6146   -1.5499    0.0000 C   0  0  0  0  0  0  0  0  0  0  0  0
    1.0980   -0.9106    0.0000 C   0  0  0  0  0  0  0  0  0  0  0  0
   -1.3290   -1.9624    0.0000 C   0  0  0  0  0  0  0  0  0  0  0  0
    1.3694   -2.3749    0.0000 C   0  0  0  0  0  0  0  0  0  0  0  0
   -1.3290   -0.3124    0.0000 C   0  0  0  0  0  0  0  0  0  0  0  0
   -0.6146   -0.7249    0.0000 C   0  0  0  0  0  0  0  0  0  0  0  0
   -2.0435   -0.7249    0.0000 C   0  0  0  0  0  0  0  0  0  0  0  0
   -2.0435   -1.5499    0.0000 C   0  0  0  0  0  0  0  0  0  0  0  0
    1.8949   -0.6970    0.0000 C   0  0  0  0  0  0  0  0  0  0  0  0
    0.5147   -0.3272    0.0000 C   0  0  0  0  0  0  0  0  0  0  0  0
    1.5251    0.6832    0.0000 C   0  0  0  0  0  0  0  0  0  0  0  0
    2.1944   -2.3749    0.0000 C   0  0  0  0  0  0  0  0  0  0  0  0
   -1.3290    0.5126    0.0000 C   0  0  0  0  0  0  0  0  0  0  0  0
    2.1085    0.0998    0.0000 C   0  0  0  0  0  0  0  0  0  0  0  0
    0.7282    0.4697    0.0000 C   0  0  0  0  0  0  0  0  0  0  0  0
    1.1553    2.0635    0.0000 C   0  0  0  0  0  0  0  0  0  0  0  0
    2.5355    1.6936    0.0000 C   0  0  0  0  0  0  0  0  0  0  0  0
   -2.0435    0.9251    0.0000 C   0  0  0  0  0  0  0  0  0  0  0  0
   -0.6146    0.9251    0.0000 C   0  0  0  0  0  0  0  0  0  0  0  0
    2.7580    2.5060    0.0000 C   0  0  0  0  0  0  0  0  0  0  0  0
    1.3643    2.8681    0.0000 C   0  0  0  0  0  0  0  0  0  0  0  0
    2.1657    3.0894    0.0000 C   0  0  0  0  0  0  0  0  0  0  0  0
  1 12  1  0  0  0  0
  2 16  1  0  0  0  0
  3 21  2  0  0  0  0
  4  9  1  0  0  0  0
  4 11  1  0  0  0  0
  4 13  1  0  0  0  0
  5  9  2  3  0  0  0
  6 20  1  0  0  0  0
  6 25  1  0  0  0  0
  6 26  1  0  0  0  0
  7 13  2  3  0  0  0
  8 21  1  0  0  0  0
  9 10  1  0  0  0  0
 10 12  1  0  0  0  0
 10 15  2  0  0  0  0
 11 18  2  0  0  0  0
 11 19  1  0  0  0  0
 12 17  2  0  0  0  0
 13 21  1  0  0  0  0
 14 15  1  0  0  0  0
 14 16  2  0  0  0  0
 14 22  1  0  0  0  0
 16 17  1  0  0  0  0
 18 23  1  0  0  0  0
 19 24  2  0  0  0  0
 20 23  2  0  0  0  0
 20 24  1  0  0  0  0
 22 27  1  0  0  0  0
 22 28  1  0  0  0  0
 25 30  1  0  0  0  0
 26 29  1  0  0  0  0
 29 31  1  0  0  0  0
 30 31  1  0  0  0  0
M  END
> <PUBCHEM_COMPOUND_ID_TYPE>
0

> <PUBCHEM_TOTAL_CHARGE>
0

> <PUBCHEM_SUBSTANCE_ID>
310939069

> <PUBCHEM_SUBSTANCE_VERSION>
1

> <PUBCHEM_EXT_DATASOURCE_NAME>
4488

> <PUBCHEM_EXT_DATASOURCE_REGID>
SCHEMBL16116988

> <PUBCHEM_SUBSTANCE_COMMENT>
InChI=1S/C23H29N5O3/c1-14(2)17-12-18(20(30)13-19(17)29)21(24)28(22(25)23(26)31)16-8-6-15(7-9-16)27-10-4-3-5-11-27/h6-9,12-14,24-25,29-30H,3-5,10-11H2,1-2H3,(H2,26,31)
InChIKey=KOQNQKKZTRMZHE-UHFFFAOYSA-N

> <PUBCHEM_SUBSTANCE_SYNONYM>
SCHEMBL16116988

> <PUBCHEM_XREF_EXT_ID>
SCHEMBL16116988

> <PUBCHEM_EXT_DATASOURCE_URL>
https://www.surechembl.org/

> <PUBCHEM_EXT_SUBSTANCE_URL>
https://www.surechembl.org/chemical/SCHEMBL16116988

> <PUBCHEM_CID_ASSOCIATIONS>
117606432  1

> <PUBCHEM_COORDINATE_TYPE>
1
3

$$$$
