310945434
  -OEChem-07211613022D

 23 24  0     0  0  0  0  0  0999 V2000
   -1.7873    2.2544    0.0000 F   0  0  0  0  0  0  0  0  0  0  0  0
   -1.0525    2.6530    0.0000 F   0  0  0  0  0  0  0  0  0  0  0  0
   -0.3425    2.2420    0.0000 F   0  0  0  0  0  0  0  0  0  0  0  0
    2.5347   -1.0338    0.0000 F   0  0  0  0  0  0  0  0  0  0  0  0
    3.2446   -1.4448    0.0000 F   0  0  0  0  0  0  0  0  0  0  0  0
    2.5223   -2.6530    0.0000 F   0  0  0  0  0  0  0  0  0  0  0  0
   -0.3550    0.6103    0.0000 N   0  0  0  0  0  0  0  0  0  0  0  0
   -1.0774   -0.6103    0.0000 N   0  0  0  0  0  0  0  0  0  0  0  0
    1.0774   -1.8433    0.0000 N   0  0  0  0  0  0  0  0  0  0  0  0
   -2.5347   -0.6103    0.0000 N   0  0  0  0  0  0  0  0  0  0  0  0
   -2.5223    1.0213    0.0000 N   0  0  0  0  0  0  0  0  0  0  0  0
   -1.0899    1.0213    0.0000 C   0  0  0  0  0  0  0  0  0  0  0  0
   -0.3674   -0.1993    0.0000 C   0  0  0  0  0  0  0  0  0  0  0  0
   -1.7998    0.6103    0.0000 C   0  0  0  0  0  0  0  0  0  0  0  0
   -1.0774    1.8558    0.0000 C   0  0  0  0  0  0  0  0  0  0  0  0
   -1.8122   -0.2118    0.0000 C   0  0  0  0  0  0  0  0  0  0  0  0
    0.3799   -0.6103    0.0000 C   0  0  0  0  0  0  0  0  0  0  0  0
    1.7998   -1.4448    0.0000 C   0  0  0  0  0  0  0  0  0  0  0  0
    2.5347   -1.8433    0.0000 C   0  0  0  0  0  0  0  0  0  0  0  0
    0.3674   -1.4448    0.0000 C   0  0  0  0  0  0  0  0  0  0  0  0
    1.0899   -0.2242    0.0000 C   0  0  0  0  0  0  0  0  0  0  0  0
    1.8122   -0.6227    0.0000 C   0  0  0  0  0  0  0  0  0  0  0  0
   -3.2446   -0.2242    0.0000 C   0  0  0  0  0  0  0  0  0  0  0  0
  1 15  1  0  0  0  0
  2 15  1  0  0  0  0
  3 15  1  0  0  0  0
  4 19  1  0  0  0  0
  5 19  1  0  0  0  0
  6 19  1  0  0  0  0
  7 12  2  0  0  0  0
  7 13  1  0  0  0  0
  8 13  2  0  0  0  0
  8 16  1  0  0  0  0
  9 18  2  0  0  0  0
  9 20  1  0  0  0  0
 10 16  1  0  0  0  0
 10 23  1  0  0  0  0
 11 14  1  0  0  0  0
 12 14  1  0  0  0  0
 12 15  1  0  0  0  0
 13 17  1  0  0  0  0
 14 16  2  0  0  0  0
 17 20  2  0  0  0  0
 17 21  1  0  0  0  0
 18 19  1  0  0  0  0
 18 22  1  0  0  0  0
 21 22  2  0  0  0  0
M  END
> <PUBCHEM_COMPOUND_ID_TYPE>
0

> <PUBCHEM_TOTAL_CHARGE>
0

> <PUBCHEM_SUBSTANCE_ID>
310945434

> <PUBCHEM_SUBSTANCE_VERSION>
1

> <PUBCHEM_EXT_DATASOURCE_NAME>
4488

> <PUBCHEM_EXT_DATASOURCE_REGID>
SCHEMBL16123532

> <PUBCHEM_SUBSTANCE_COMMENT>
InChI=1S/C12H9F6N5/c1-20-10-7(19)8(12(16,17)18)22-9(23-10)5-2-3-6(21-4-5)11(13,14)15/h2-4H,19H2,1H3,(H,20,22,23)
InChIKey=IFVSZKOYFBPIAD-UHFFFAOYSA-N

> <PUBCHEM_SUBSTANCE_SYNONYM>
SCHEMBL16123532

> <PUBCHEM_XREF_EXT_ID>
SCHEMBL16123532

> <PUBCHEM_EXT_DATASOURCE_URL>
https://www.surechembl.org/

> <PUBCHEM_EXT_SUBSTANCE_URL>
https://www.surechembl.org/chemical/SCHEMBL16123532

> <PUBCHEM_CID_ASSOCIATIONS>
117611479  1

> <PUBCHEM_COORDINATE_TYPE>
1
3

$$$$
