310938172
  -OEChem-07211613022D

 13 13  0     1  0  0  0  0  0999 V2000
   -1.6077    1.4045    0.0000 O   0  0  0  0  0  0  0  0  0  0  0  0
   -0.1876    1.7850    0.0000 O   0  0  0  0  0  0  0  0  0  0  0  0
    0.7145    0.4125    0.0000 O   0  0  0  0  0  0  0  0  0  0  0  0
   -1.4682    0.0770    0.0000 N   0  0  0  0  0  0  0  0  0  0  0  0
   -2.0202    0.6901    0.0000 C   0  0  3  0  0  0  0  0  0  0  0  0
   -0.7145    0.4125    0.0000 C   0  0  3  0  0  0  0  0  0  0  0  0
   -2.8407    0.6038    0.0000 C   0  0  0  0  0  0  0  0  0  0  0  0
   -0.8007    1.2330    0.0000 C   0  0  0  0  0  0  0  0  0  0  0  0
    0.0000    0.0000    0.0000 C   0  0  0  0  0  0  0  0  0  0  0  0
   -3.1762   -0.1499    0.0000 C   0  0  0  0  0  0  0  0  0  0  0  0
   -3.6612    0.5176    0.0000 C   0  0  0  0  0  0  0  0  0  0  0  0
   -3.3256    1.2713    0.0000 C   0  0  0  0  0  0  0  0  0  0  0  0
    1.4290    0.0000    0.0000 C   0  0  0  0  0  0  0  0  0  0  0  0
  1  5  1  0  0  0  0
  1  8  1  0  0  0  0
  2  8  2  0  0  0  0
  3  9  1  0  0  0  0
  3 13  1  0  0  0  0
  4  5  1  0  0  0  0
  4  6  1  0  0  0  0
  5  7  1  0  0  0  0
  6  8  1  0  0  0  0
  6  9  1  1  0  0  0
  7 10  1  0  0  0  0
  7 11  1  0  0  0  0
  7 12  1  0  0  0  0
M  END
> <PUBCHEM_COMPOUND_ID_TYPE>
0

> <PUBCHEM_TOTAL_CHARGE>
0

> <PUBCHEM_SUBSTANCE_ID>
310938172

> <PUBCHEM_SUBSTANCE_VERSION>
1

> <PUBCHEM_EXT_DATASOURCE_NAME>
4488

> <PUBCHEM_EXT_DATASOURCE_REGID>
SCHEMBL16116025

> <PUBCHEM_SUBSTANCE_COMMENT>
InChI=1S/C9H17NO3/c1-9(2,3)8-10-6(5-12-4)7(11)13-8/h6,8,10H,5H2,1-4H3/t6-,8?/m1/s1
InChIKey=FKLSWUXSJYRQJM-XPJFZRNWSA-N

> <PUBCHEM_SUBSTANCE_SYNONYM>
SCHEMBL16116025

> <PUBCHEM_XREF_EXT_ID>
SCHEMBL16116025

> <PUBCHEM_EXT_DATASOURCE_URL>
https://www.surechembl.org/

> <PUBCHEM_EXT_SUBSTANCE_URL>
https://www.surechembl.org/chemical/SCHEMBL16116025

> <PUBCHEM_CID_ASSOCIATIONS>
117605714  1

> <PUBCHEM_COORDINATE_TYPE>
1
3

> <PUBCHEM_BONDANNOTATIONS>
6  9  5

$$$$
