310933366
  -OEChem-07211613022D

 28 32  0     0  0  0  0  0  0999 V2000
    0.4206   -0.9989    0.0000 O   0  0  0  0  0  0  0  0  0  0  0  0
    4.1270   -5.2573    0.0000 O   0  0  0  0  0  0  0  0  0  0  0  0
    4.0481   -3.7853    0.0000 N   0  0  0  0  0  0  0  0  0  0  0  0
    2.9178   -4.4161    0.0000 N   0  0  0  0  0  0  0  0  0  0  0  0
    4.8893   -0.7097    0.0000 N   0  0  0  0  0  0  0  0  0  0  0  0
    0.0000   -1.7086    0.0000 N   0  0  0  0  0  0  0  0  0  0  0  0
    7.0448   -1.9715    0.0000 N   0  0  0  0  0  0  0  0  0  0  0  0
    3.4435   -2.3920    0.0000 C   0  0  0  0  0  0  0  0  0  0  0  0
    3.4698   -3.2069    0.0000 C   0  0  0  0  0  0  0  0  0  0  0  0
    4.1533   -1.9715    0.0000 C   0  0  0  0  0  0  0  0  0  0  0  0
    2.7338   -3.6275    0.0000 C   0  0  0  0  0  0  0  0  0  0  0  0
    2.0240   -2.3920    0.0000 C   0  0  0  0  0  0  0  0  0  0  0  0
    4.1533   -1.1303    0.0000 C   0  0  0  0  0  0  0  0  0  0  0  0
    2.7863   -1.9715    0.0000 C   0  0  0  0  0  0  0  0  0  0  0  0
    1.3143   -1.9977    0.0000 C   0  0  0  0  0  0  0  0  0  0  0  0
    2.0240   -3.2069    0.0000 C   0  0  0  0  0  0  0  0  0  0  0  0
    3.4435   -0.7097    0.0000 C   0  0  0  0  0  0  0  0  0  0  0  0
    3.7327   -4.5476    0.0000 C   0  0  0  0  0  0  0  0  0  0  0  0
    4.8893   -2.3658    0.0000 C   0  0  0  0  0  0  0  0  0  0  0  0
    1.2354   -1.1566    0.0000 C   0  0  0  0  0  0  0  0  0  0  0  0
    0.5520   -2.3132    0.0000 C   0  0  0  0  0  0  0  0  0  0  0  0
    5.5990   -1.9715    0.0000 C   0  0  0  0  0  0  0  0  0  0  0  0
    2.6287   -0.7097    0.0000 C   0  0  0  0  0  0  0  0  0  0  0  0
    3.0229    0.0000    0.0000 C   0  0  0  0  0  0  0  0  0  0  0  0
    5.5990   -1.1303    0.0000 C   0  0  0  0  0  0  0  0  0  0  0  0
    1.8401   -0.6046    0.0000 C   0  0  0  0  0  0  0  0  0  0  0  0
    0.3943   -3.1281    0.0000 C   0  0  0  0  0  0  0  0  0  0  0  0
    6.3351   -2.3658    0.0000 C   0  0  0  0  0  0  0  0  0  0  0  0
  1  6  1  0  0  0  0
  1 20  1  0  0  0  0
  2 18  2  0  0  0  0
  3  9  1  0  0  0  0
  3 18  1  0  0  0  0
  4 11  1  0  0  0  0
  4 18  1  0  0  0  0
  5 13  2  0  0  0  0
  5 25  1  0  0  0  0
  6 21  2  0  0  0  0
  7 28  3  0  0  0  0
  8  9  1  0  0  0  0
  8 10  1  0  0  0  0
  8 14  2  0  0  0  0
  9 11  2  0  0  0  0
 10 13  1  0  0  0  0
 10 19  2  0  0  0  0
 11 16  1  0  0  0  0
 12 14  1  0  0  0  0
 12 15  1  0  0  0  0
 12 16  2  0  0  0  0
 13 17  1  0  0  0  0
 15 20  2  0  0  0  0
 15 21  1  0  0  0  0
 17 23  1  0  0  0  0
 17 24  1  0  0  0  0
 19 22  1  0  0  0  0
 20 26  1  0  0  0  0
 21 27  1  0  0  0  0
 22 25  2  0  0  0  0
 22 28  1  0  0  0  0
 23 24  1  0  0  0  0
M  END
> <PUBCHEM_COMPOUND_ID_TYPE>
0

> <PUBCHEM_TOTAL_CHARGE>
0

> <PUBCHEM_SUBSTANCE_ID>
310933366

> <PUBCHEM_SUBSTANCE_VERSION>
1

> <PUBCHEM_EXT_DATASOURCE_NAME>
4488

> <PUBCHEM_EXT_DATASOURCE_REGID>
SCHEMBL16110781

> <PUBCHEM_SUBSTANCE_COMMENT>
InChI=1S/C21H17N5O2/c1-10-18(11(2)28-26-10)14-6-16(20-17(7-14)24-21(27)25-20)15-5-12(8-22)9-23-19(15)13-3-4-13/h5-7,9,13H,3-4H2,1-2H3,(H2,24,25,27)
InChIKey=KHJWOIRNIQVMAK-UHFFFAOYSA-N

> <PUBCHEM_SUBSTANCE_SYNONYM>
SCHEMBL16110781

> <PUBCHEM_XREF_EXT_ID>
SCHEMBL16110781

> <PUBCHEM_EXT_DATASOURCE_URL>
https://www.surechembl.org/

> <PUBCHEM_EXT_SUBSTANCE_URL>
https://www.surechembl.org/chemical/SCHEMBL16110781

> <PUBCHEM_CID_ASSOCIATIONS>
117601777  1

> <PUBCHEM_COORDINATE_TYPE>
1
3

$$$$
