310934722
  -OEChem-07211613022D

 24 26  0     0  0  0  0  0  0999 V2000
    1.8207   -7.4313    0.0000 Cl  0  0  0  0  0  0  0  0  0  0  0  0
    3.7528   -0.7060    0.0000 S   0  0  0  0  0  0  0  0  0  0  0  0
    0.8174   -1.4120    0.0000 O   0  0  0  0  0  0  0  0  0  0  0  0
    0.8174    0.0000    0.0000 O   0  0  0  0  0  0  0  0  0  0  0  0
    1.6720   -2.8610    0.0000 N   0  0  0  0  0  0  0  0  0  0  0  0
    2.0064   -3.6413    0.0000 N   0  0  0  0  0  0  0  0  0  0  0  0
    0.8546   -2.9725    0.0000 N   0  0  0  0  0  0  0  0  0  0  0  0
    2.0436   -0.7060    0.0000 C   0  0  0  0  0  0  0  0  0  0  0  0
    1.2262   -0.7060    0.0000 C   0  0  0  0  0  0  0  0  0  0  0  0
    1.6720   -1.4491    0.0000 C   0  0  0  0  0  0  0  0  0  0  0  0
    1.4120   -4.1615    0.0000 C   0  0  0  0  0  0  0  0  0  0  0  0
    2.4895   -1.4120    0.0000 C   0  0  0  0  0  0  0  0  0  0  0  0
    2.4895    0.0000    0.0000 C   0  0  0  0  0  0  0  0  0  0  0  0
    1.5234   -4.9790    0.0000 C   0  0  0  0  0  0  0  0  0  0  0  0
    2.0808   -2.1550    0.0000 C   0  0  0  0  0  0  0  0  0  0  0  0
    0.6688   -3.7899    0.0000 C   0  0  0  0  0  0  0  0  0  0  0  0
    3.3069   -1.4120    0.0000 C   0  0  0  0  0  0  0  0  0  0  0  0
    3.3069    0.0000    0.0000 C   0  0  0  0  0  0  0  0  0  0  0  0
    2.2665   -5.3133    0.0000 C   0  0  0  0  0  0  0  0  0  0  0  0
    0.8546   -5.4991    0.0000 C   0  0  0  0  0  0  0  0  0  0  0  0
    1.7092   -6.6138    0.0000 C   0  0  0  0  0  0  0  0  0  0  0  0
    2.3780   -6.1308    0.0000 C   0  0  0  0  0  0  0  0  0  0  0  0
    0.9661   -6.3166    0.0000 C   0  0  0  0  0  0  0  0  0  0  0  0
    0.0000   -1.4120    0.0000 C   0  0  0  0  0  0  0  0  0  0  0  0
  1 21  1  0  0  0  0
  2 17  1  0  0  0  0
  2 18  1  0  0  0  0
  3  9  1  0  0  0  0
  3 24  1  0  0  0  0
  4  9  2  0  0  0  0
  5  6  1  0  0  0  0
  5  7  1  0  0  0  0
  5 15  1  0  0  0  0
  6 11  2  0  0  0  0
  7 16  2  0  0  0  0
  8  9  1  0  0  0  0
  8 10  1  0  0  0  0
  8 12  1  0  0  0  0
  8 13  1  0  0  0  0
 10 15  1  0  0  0  0
 11 14  1  0  0  0  0
 11 16  1  0  0  0  0
 12 17  1  0  0  0  0
 13 18  1  0  0  0  0
 14 19  2  0  0  0  0
 14 20  1  0  0  0  0
 19 22  1  0  0  0  0
 20 23  2  0  0  0  0
 21 22  2  0  0  0  0
 21 23  1  0  0  0  0
M  END
> <PUBCHEM_COMPOUND_ID_TYPE>
0

> <PUBCHEM_TOTAL_CHARGE>
0

> <PUBCHEM_SUBSTANCE_ID>
310934722

> <PUBCHEM_SUBSTANCE_VERSION>
1

> <PUBCHEM_EXT_DATASOURCE_NAME>
4488

> <PUBCHEM_EXT_DATASOURCE_REGID>
SCHEMBL16112223

> <PUBCHEM_SUBSTANCE_COMMENT>
InChI=1S/C17H20ClN3O2S/c1-23-16(22)17(7-10-24-11-8-17)6-9-21-19-12-15(20-21)13-2-4-14(18)5-3-13/h2-5,12H,6-11H2,1H3
InChIKey=DLOQSOCXDJXMGM-UHFFFAOYSA-N

> <PUBCHEM_SUBSTANCE_SYNONYM>
SCHEMBL16112223

> <PUBCHEM_XREF_EXT_ID>
SCHEMBL16112223

> <PUBCHEM_EXT_DATASOURCE_URL>
https://www.surechembl.org/

> <PUBCHEM_EXT_SUBSTANCE_URL>
https://www.surechembl.org/chemical/SCHEMBL16112223

> <PUBCHEM_CID_ASSOCIATIONS>
117602878  1

> <PUBCHEM_COORDINATE_TYPE>
1
3

$$$$
