310940539
  -OEChem-07211613022D

 38 43  0     0  0  0  0  0  0999 V2000
    1.2563   -0.1502    0.0000 O   0  0  0  0  0  0  0  0  0  0  0  0
   -2.9224   -0.3141    0.0000 O   0  0  0  0  0  0  0  0  0  0  0  0
    1.3246    1.3246    0.0000 O   0  0  0  0  0  0  0  0  0  0  0  0
   -4.2333   -2.2396    0.0000 O   0  0  0  0  0  0  0  0  0  0  0  0
    2.0893   -1.5431    0.0000 O   0  0  0  0  0  0  0  0  0  0  0  0
    0.0956    0.5053    0.0000 N   0  0  0  0  0  0  0  0  0  0  0  0
   -0.0547   -1.9528    0.0000 N   0  0  0  0  0  0  0  0  0  0  0  0
   -3.8237   -2.9497    0.0000 N   0  0  0  0  0  0  0  0  0  0  0  0
   -0.0683   -0.3278    0.0000 C   0  0  0  0  0  0  0  0  0  0  0  0
   -0.7784   -0.7510    0.0000 C   0  0  0  0  0  0  0  0  0  0  0  0
    0.6555   -0.7374    0.0000 C   0  0  0  0  0  0  0  0  0  0  0  0
   -0.7784   -1.5567    0.0000 C   0  0  0  0  0  0  0  0  0  0  0  0
    0.6418   -1.5705    0.0000 C   0  0  0  0  0  0  0  0  0  0  0  0
   -2.2259   -1.5841    0.0000 C   0  0  0  0  0  0  0  0  0  0  0  0
    0.9013    0.5599    0.0000 C   0  0  0  0  0  0  0  0  0  0  0  0
   -1.5022   -0.3551    0.0000 C   0  0  0  0  0  0  0  0  0  0  0  0
   -2.1986   -0.7510    0.0000 C   0  0  0  0  0  0  0  0  0  0  0  0
   -1.4885   -1.9801    0.0000 C   0  0  0  0  0  0  0  0  0  0  0  0
   -2.9087   -1.9937    0.0000 C   0  0  0  0  0  0  0  0  0  0  0  0
   -0.5872    0.9423    0.0000 C   0  0  0  0  0  0  0  0  0  0  0  0
    1.3656   -1.9801    0.0000 C   0  0  0  0  0  0  0  0  0  0  0  0
   -3.6734   -1.6387    0.0000 C   0  0  0  0  0  0  0  0  0  0  0  0
   -3.0316   -2.7858    0.0000 C   0  0  0  0  0  0  0  0  0  0  0  0
   -0.5189    1.7753    0.0000 C   0  0  0  0  0  0  0  0  0  0  0  0
   -3.8510   -0.8330    0.0000 C   0  0  0  0  0  0  0  0  0  0  0  0
   -2.3898   -3.3867    0.0000 C   0  0  0  0  0  0  0  0  0  0  0  0
    0.2185    2.1167    0.0000 C   0  0  0  0  0  0  0  0  0  0  0  0
   -1.1880    2.2259    0.0000 C   0  0  0  0  0  0  0  0  0  0  0  0
    2.8131   -1.9801    0.0000 C   0  0  0  0  0  0  0  0  0  0  0  0
   -2.9224    0.4917    0.0000 C   0  0  0  0  0  0  0  0  0  0  0  0
    0.2868    2.9360    0.0000 C   0  0  0  0  0  0  0  0  0  0  0  0
   -1.1335    3.0453    0.0000 C   0  0  0  0  0  0  0  0  0  0  0  0
    3.5095   -1.5841    0.0000 C   0  0  0  0  0  0  0  0  0  0  0  0
    2.8131   -2.7994    0.0000 C   0  0  0  0  0  0  0  0  0  0  0  0
   -0.4097    3.3867    0.0000 C   0  0  0  0  0  0  0  0  0  0  0  0
    4.2333   -1.9801    0.0000 C   0  0  0  0  0  0  0  0  0  0  0  0
    3.5369   -3.1955    0.0000 C   0  0  0  0  0  0  0  0  0  0  0  0
    4.2333   -2.7994    0.0000 C   0  0  0  0  0  0  0  0  0  0  0  0
  1 11  1  0  0  0  0
  1 15  1  0  0  0  0
  2 17  1  0  0  0  0
  2 30  1  0  0  0  0
  3 15  2  0  0  0  0
  4  8  1  0  0  0  0
  4 22  1  0  0  0  0
  5 21  1  0  0  0  0
  5 29  1  0  0  0  0
  6  9  1  0  0  0  0
  6 15  1  0  0  0  0
  6 20  1  0  0  0  0
  7 12  1  0  0  0  0
  7 13  2  0  0  0  0
  8 23  2  0  0  0  0
  9 10  1  0  0  0  0
  9 11  2  0  0  0  0
 10 12  1  0  0  0  0
 10 16  2  0  0  0  0
 11 13  1  0  0  0  0
 12 18  2  0  0  0  0
 13 21  1  0  0  0  0
 14 17  2  0  0  0  0
 14 18  1  0  0  0  0
 14 19  1  0  0  0  0
 16 17  1  0  0  0  0
 19 22  2  0  0  0  0
 19 23  1  0  0  0  0
 20 24  1  0  0  0  0
 22 25  1  0  0  0  0
 23 26  1  0  0  0  0
 24 27  2  0  0  0  0
 24 28  1  0  0  0  0
 27 31  1  0  0  0  0
 28 32  2  0  0  0  0
 29 33  2  0  0  0  0
 29 34  1  0  0  0  0
 31 35  2  0  0  0  0
 32 35  1  0  0  0  0
 33 36  1  0  0  0  0
 34 37  2  0  0  0  0
 36 38  2  0  0  0  0
 37 38  1  0  0  0  0
M  END
> <PUBCHEM_COMPOUND_ID_TYPE>
0

> <PUBCHEM_TOTAL_CHARGE>
0

> <PUBCHEM_SUBSTANCE_ID>
310940539

> <PUBCHEM_SUBSTANCE_VERSION>
1

> <PUBCHEM_EXT_DATASOURCE_NAME>
4488

> <PUBCHEM_EXT_DATASOURCE_REGID>
SCHEMBL16118493

> <PUBCHEM_SUBSTANCE_COMMENT>
InChI=1S/C30H25N3O5/c1-18-27(19(2)38-32-18)23-14-24-22(15-26(23)35-3)28-29(25(31-24)17-36-21-12-8-5-9-13-21)37-30(34)33(28)16-20-10-6-4-7-11-20/h4-15H,16-17H2,1-3H3
InChIKey=XOCIMDMGHFTEOH-UHFFFAOYSA-N

> <PUBCHEM_SUBSTANCE_SYNONYM>
SCHEMBL16118493

> <PUBCHEM_XREF_EXT_ID>
SCHEMBL16118493

> <PUBCHEM_EXT_DATASOURCE_URL>
https://www.surechembl.org/

> <PUBCHEM_EXT_SUBSTANCE_URL>
https://www.surechembl.org/chemical/SCHEMBL16118493

> <PUBCHEM_CID_ASSOCIATIONS>
86303267  1

> <PUBCHEM_COORDINATE_TYPE>
1
3

$$$$
