310941461
  -OEChem-07211613022D

 11 10  0     0  0  0  0  0  0999 V2000
   -0.0239   -0.0299    0.0000 O   0  0  0  0  0  0  0  0  0  0  0  0
   -0.0239    1.2602    0.0000 O   0  0  0  0  0  0  0  0  0  0  0  0
   -1.1467    0.6152    0.0000 N   0  0  0  0  0  0  0  0  0  0  0  0
   -0.4061    0.5913    0.0000 C   0  0  0  0  0  0  0  0  0  0  0  0
   -1.8037    1.4155    0.0000 C   0  0  0  0  0  0  0  0  0  0  0  0
    0.7883   -0.0179    0.0000 C   0  0  0  0  0  0  0  0  0  0  0  0
   -1.7440   -0.1493    0.0000 C   0  0  0  0  0  0  0  0  0  0  0  0
    1.2065   -0.7346    0.0000 C   0  0  0  0  0  0  0  0  0  0  0  0
   -2.4487    1.3797    0.0000 C   0  0  0  0  0  0  0  0  0  0  0  0
    2.0307   -0.6988    0.0000 C   0  0  0  0  0  0  0  0  0  0  0  0
    2.4487   -1.4155    0.0000 C   0  0  0  0  0  0  0  0  0  0  0  0
  1  4  1  0  0  0  0
  1  6  1  0  0  0  0
  2  4  2  0  0  0  0
  3  4  1  0  0  0  0
  3  5  1  0  0  0  0
  3  7  1  0  0  0  0
  5  9  1  0  0  0  0
  6  8  1  0  0  0  0
  8 10  1  0  0  0  0
 10 11  1  0  0  0  0
M  END
> <PUBCHEM_COMPOUND_ID_TYPE>
0

> <PUBCHEM_TOTAL_CHARGE>
0

> <PUBCHEM_SUBSTANCE_ID>
310941461

> <PUBCHEM_SUBSTANCE_VERSION>
1

> <PUBCHEM_EXT_DATASOURCE_NAME>
4488

> <PUBCHEM_EXT_DATASOURCE_REGID>
SCHEMBL16119487

> <PUBCHEM_SUBSTANCE_COMMENT>
InChI=1S/C8H17NO2/c1-4-6-7-11-8(10)9(3)5-2/h4-7H2,1-3H3
InChIKey=SXODXIOLWGHHNI-UHFFFAOYSA-N

> <PUBCHEM_SUBSTANCE_SYNONYM>
SCHEMBL16119487

> <PUBCHEM_XREF_EXT_ID>
SCHEMBL16119487

> <PUBCHEM_EXT_DATASOURCE_URL>
https://www.surechembl.org/

> <PUBCHEM_EXT_SUBSTANCE_URL>
https://www.surechembl.org/chemical/SCHEMBL16119487

> <PUBCHEM_CID_ASSOCIATIONS>
57290167  1

> <PUBCHEM_COORDINATE_TYPE>
1
3

$$$$
