310948945
  -OEChem-07211613022D

  8  7  0     0  0  0  0  0  0999 V2000
    1.6981    0.8345    0.0000 O   0  0  0  0  0  0  0  0  0  0  0  0
   -0.1171    1.3323    0.0000 C   0  0  0  0  0  0  0  0  0  0  0  0
    0.6148    1.7129    0.0000 C   0  0  0  0  0  0  0  0  0  0  0  0
   -0.7026    0.5416    0.0000 C   0  0  0  0  0  0  0  0  0  0  0  0
    1.1419    1.2737    0.0000 C   0  0  0  0  0  0  0  0  0  0  0  0
   -0.7026   -0.2488    0.0000 C   0  0  0  0  0  0  0  0  0  0  0  0
   -1.6397   -0.6588    0.0000 C   0  0  0  0  0  0  0  0  0  0  0  0
   -1.6981   -1.7129    0.0000 C   0  0  0  0  0  0  0  0  0  0  0  0
  1  5  1  0  0  0  0
  2  3  1  0  0  0  0
  2  4  1  0  0  0  0
  3  5  2  3  0  0  0
  4  6  2  0  0  0  0
  6  7  1  0  0  0  0
  7  8  1  0  0  0  0
M  END
> <PUBCHEM_COMPOUND_ID_TYPE>
0

> <PUBCHEM_TOTAL_CHARGE>
0

> <PUBCHEM_SUBSTANCE_ID>
310948945

> <PUBCHEM_SUBSTANCE_VERSION>
1

> <PUBCHEM_EXT_DATASOURCE_NAME>
4488

> <PUBCHEM_EXT_DATASOURCE_REGID>
SCHEMBL16127133

> <PUBCHEM_SUBSTANCE_COMMENT>
InChI=1S/C7H12O/c1-2-3-4-5-6-7-8/h3-4,6-8H,2,5H2,1H3/b4-3+,7-6?
InChIKey=OJLQBIWSNOKXMV-PKKPSLABSA-N

> <PUBCHEM_SUBSTANCE_SYNONYM>
SCHEMBL16127133

> <PUBCHEM_XREF_EXT_ID>
SCHEMBL16127133

> <PUBCHEM_EXT_DATASOURCE_URL>
https://www.surechembl.org/

> <PUBCHEM_EXT_SUBSTANCE_URL>
https://www.surechembl.org/chemical/SCHEMBL16127133

> <PUBCHEM_CID_ASSOCIATIONS>
117614455  1

> <PUBCHEM_COORDINATE_TYPE>
1
3

$$$$
