310949465
  -OEChem-07211613022D

 38 41  0     0  0  0  0  0  0999 V2000
   -1.2480    0.0785    0.0000 S   0  0  0  0  0  0  0  0  0  0  0  0
   -2.2954    1.4749    0.0000 O   0  0  0  0  0  0  0  0  0  0  0  0
    1.8066    3.5870    0.0000 O   0  0  0  0  0  0  0  0  0  0  0  0
    0.1484   -4.1979    0.0000 O   0  0  0  0  0  0  0  0  0  0  0  0
    0.1134    0.0785    0.0000 N   0  0  0  0  0  0  0  0  0  0  0  0
   -0.5673   -1.2655    0.0000 N   0  0  0  0  0  0  0  0  0  0  0  0
   -0.5673   -2.9412    0.0000 N   0  0  0  0  0  0  0  0  0  0  0  0
   -3.4823   -3.7790    0.0000 N   0  0  0  0  0  0  0  0  0  0  0  0
   -0.1658    0.8990    0.0000 C   0  0  0  0  0  0  0  0  0  0  0  0
   -0.9862    0.9164    0.0000 C   0  0  0  0  0  0  0  0  0  0  0  0
   -0.5673   -0.3753    0.0000 C   0  0  0  0  0  0  0  0  0  0  0  0
    0.3229    1.5972    0.0000 C   0  0  0  0  0  0  0  0  0  0  0  0
   -1.4749    1.5797    0.0000 C   0  0  0  0  0  0  0  0  0  0  0  0
    1.1433    1.4924    0.0000 C   0  0  0  0  0  0  0  0  0  0  0  0
   -0.0087    2.3477    0.0000 C   0  0  0  0  0  0  0  0  0  0  0  0
    0.1484   -1.6495    0.0000 C   0  0  0  0  0  0  0  0  0  0  0  0
   -1.2830   -1.6495    0.0000 C   0  0  0  0  0  0  0  0  0  0  0  0
    1.2830    2.9237    0.0000 C   0  0  0  0  0  0  0  0  0  0  0  0
   -1.3004    1.9986    0.0000 C   0  0  0  0  0  0  0  0  0  0  0  0
    1.6320    2.1731    0.0000 C   0  0  0  0  0  0  0  0  0  0  0  0
    0.4626    3.0110    0.0000 C   0  0  0  0  0  0  0  0  0  0  0  0
    0.1309   -2.5048    0.0000 C   0  0  0  0  0  0  0  0  0  0  0  0
   -1.3004   -2.4699    0.0000 C   0  0  0  0  0  0  0  0  0  0  0  0
   -0.6022   -3.7441    0.0000 C   0  0  0  0  0  0  0  0  0  0  0  0
   -1.3004    2.5223    0.0000 C   0  0  0  0  0  0  0  0  0  0  0  0
    2.6096    3.5172    0.0000 C   0  0  0  0  0  0  0  0  0  0  0  0
   -1.3004   -4.1630    0.0000 C   0  0  0  0  0  0  0  0  0  0  0  0
    2.9412    2.7666    0.0000 C   0  0  0  0  0  0  0  0  0  0  0  0
    3.0983    4.1979    0.0000 C   0  0  0  0  0  0  0  0  0  0  0  0
   -0.9688    2.1033    0.0000 C   0  0  0  0  0  0  0  0  0  0  0  0
   -2.0335   -3.7441    0.0000 C   0  0  0  0  0  0  0  0  0  0  0  0
    3.7790    2.6794    0.0000 C   0  0  0  0  0  0  0  0  0  0  0  0
    3.9012    4.1106    0.0000 C   0  0  0  0  0  0  0  0  0  0  0  0
    4.2503    3.3601    0.0000 C   0  0  0  0  0  0  0  0  0  0  0  0
   -2.7666   -4.1630    0.0000 C   0  0  0  0  0  0  0  0  0  0  0  0
   -0.9688    2.5746    0.0000 C   0  0  0  0  0  0  0  0  0  0  0  0
   -3.4997   -2.8713    0.0000 C   0  0  0  0  0  0  0  0  0  0  0  0
   -4.2503   -4.1805    0.0000 C   0  0  0  0  0  0  0  0  0  0  0  0
  1 10  1  0  0  0  0
  1 11  1  0  0  0  0
  2 13  2  0  0  0  0
  3 18  1  0  0  0  0
  3 26  1  0  0  0  0
  4 24  2  0  0  0  0
  5  9  1  0  0  0  0
  5 11  2  0  0  0  0
  6 11  1  0  0  0  0
  6 16  1  0  0  0  0
  6 17  1  0  0  0  0
  7 22  1  0  0  0  0
  7 23  1  0  0  0  0
  7 24  1  0  0  0  0
  8 35  1  0  0  0  0
  8 37  1  0  0  0  0
  8 38  1  0  0  0  0
  9 10  2  0  0  0  0
  9 12  1  0  0  0  0
 10 13  1  0  0  0  0
 12 14  2  0  0  0  0
 12 15  1  0  0  0  0
 13 19  1  0  0  0  0
 14 20  1  0  0  0  0
 15 21  2  0  0  0  0
 16 22  1  0  0  0  0
 17 23  1  0  0  0  0
 18 20  2  0  0  0  0
 18 21  1  0  0  0  0
 19 25  1  0  0  0  0
 24 27  1  0  0  0  0
 25 30  1  0  0  0  0
 26 28  2  0  0  0  0
 26 29  1  0  0  0  0
 27 31  2  0  0  0  0
 28 32  1  0  0  0  0
 29 33  2  0  0  0  0
 30 36  1  0  0  0  0
 31 35  1  0  0  0  0
 32 34  2  0  0  0  0
 33 34  1  0  0  0  0
M  END
> <PUBCHEM_COMPOUND_ID_TYPE>
0

> <PUBCHEM_TOTAL_CHARGE>
0

> <PUBCHEM_SUBSTANCE_ID>
310949465

> <PUBCHEM_SUBSTANCE_VERSION>
1

> <PUBCHEM_EXT_DATASOURCE_NAME>
4488

> <PUBCHEM_EXT_DATASOURCE_REGID>
SCHEMBL16127659

> <PUBCHEM_SUBSTANCE_COMMENT>
InChI=1S/C30H36N4O3S/c1-4-5-12-26(35)29-28(23-14-16-25(17-15-23)37-24-10-7-6-8-11-24)31-30(38-29)34-21-19-33(20-22-34)27(36)13-9-18-32(2)3/h6-11,13-17H,4-5,12,18-22H2,1-3H3/b13-9+
InChIKey=AUUIFAJCSJNJHA-UKTHLTGXSA-N

> <PUBCHEM_SUBSTANCE_SYNONYM>
SCHEMBL16127659

> <PUBCHEM_XREF_EXT_ID>
SCHEMBL16127659

> <PUBCHEM_EXT_DATASOURCE_URL>
https://www.surechembl.org/

> <PUBCHEM_EXT_SUBSTANCE_URL>
https://www.surechembl.org/chemical/SCHEMBL16127659

> <PUBCHEM_CID_ASSOCIATIONS>
117614910  1

> <PUBCHEM_COORDINATE_TYPE>
1
3

$$$$
