310949318
  -OEChem-07211613022D

 26 29  0     0  0  0  0  0  0999 V2000
    1.2998    3.1619    0.0000 S   0  0  0  0  0  0  0  0  0  0  0  0
    2.0926    3.4200    0.0000 O   0  0  0  0  0  0  0  0  0  0  0  0
    1.1338    3.9732    0.0000 O   0  0  0  0  0  0  0  0  0  0  0  0
    0.5992   -2.7378    0.0000 O   0  0  0  0  0  0  0  0  0  0  0  0
   -0.5070   -3.9732    0.0000 O   0  0  0  0  0  0  0  0  0  0  0  0
    0.1383    1.0048    0.0000 N   0  0  0  0  0  0  0  0  0  0  0  0
   -0.7652   -3.1803    0.0000 N   0  0  0  0  0  0  0  0  0  0  0  0
    0.1198    2.3507    0.0000 C   0  0  0  0  0  0  0  0  0  0  0  0
    0.6176    1.6870    0.0000 C   0  0  0  0  0  0  0  0  0  0  0  0
   -0.6545    2.0926    0.0000 C   0  0  0  0  0  0  0  0  0  0  0  0
   -0.6729    1.2814    0.0000 C   0  0  0  0  0  0  0  0  0  0  0  0
    0.4886    3.0881    0.0000 C   0  0  0  0  0  0  0  0  0  0  0  0
    1.4657    1.7607    0.0000 C   0  0  0  0  0  0  0  0  0  0  0  0
    0.3964    0.2305    0.0000 C   0  0  0  0  0  0  0  0  0  0  0  0
   -1.3920    2.4982    0.0000 C   0  0  0  0  0  0  0  0  0  0  0  0
   -1.3920    0.8758    0.0000 C   0  0  0  0  0  0  0  0  0  0  0  0
    1.7976    2.5166    0.0000 C   0  0  0  0  0  0  0  0  0  0  0  0
   -0.1752   -0.3779    0.0000 C   0  0  0  0  0  0  0  0  0  0  0  0
   -2.0742    2.0926    0.0000 C   0  0  0  0  0  0  0  0  0  0  0  0
   -2.0926    1.2629    0.0000 C   0  0  0  0  0  0  0  0  0  0  0  0
    0.0830   -1.1708    0.0000 C   0  0  0  0  0  0  0  0  0  0  0  0
   -0.4702   -1.7792    0.0000 C   0  0  0  0  0  0  0  0  0  0  0  0
   -0.9864   -0.2305    0.0000 C   0  0  0  0  0  0  0  0  0  0  0  0
   -1.2814   -1.5948    0.0000 C   0  0  0  0  0  0  0  0  0  0  0  0
   -1.5210   -0.8205    0.0000 C   0  0  0  0  0  0  0  0  0  0  0  0
   -0.2305   -2.5351    0.0000 C   0  0  0  0  0  0  0  0  0  0  0  0
  1  2  2  0  0  0  0
  1  3  2  0  0  0  0
  1 12  1  0  0  0  0
  1 17  1  0  0  0  0
  4 26  2  0  0  0  0
  5  7  1  0  0  0  0
  6  9  1  0  0  0  0
  6 11  1  0  0  0  0
  6 14  1  0  0  0  0
  7 26  1  0  0  0  0
  8  9  2  0  0  0  0
  8 10  1  0  0  0  0
  8 12  1  0  0  0  0
  9 13  1  0  0  0  0
 10 11  1  0  0  0  0
 10 15  2  0  0  0  0
 11 16  2  0  0  0  0
 13 17  1  0  0  0  0
 14 18  1  0  0  0  0
 15 19  1  0  0  0  0
 16 20  1  0  0  0  0
 18 21  1  0  0  0  0
 18 23  2  0  0  0  0
 19 20  2  0  0  0  0
 21 22  2  0  0  0  0
 22 24  1  0  0  0  0
 22 26  1  0  0  0  0
 23 25  1  0  0  0  0
 24 25  2  0  0  0  0
M  END
> <PUBCHEM_COMPOUND_ID_TYPE>
0

> <PUBCHEM_TOTAL_CHARGE>
0

> <PUBCHEM_SUBSTANCE_ID>
310949318

> <PUBCHEM_SUBSTANCE_VERSION>
1

> <PUBCHEM_EXT_DATASOURCE_NAME>
4488

> <PUBCHEM_EXT_DATASOURCE_REGID>
SCHEMBL16127508

> <PUBCHEM_SUBSTANCE_COMMENT>
InChI=1S/C19H18N2O4S/c22-19(20-23)14-5-3-4-13(10-14)11-21-17-7-2-1-6-15(17)16-12-26(24,25)9-8-18(16)21/h1-7,10,23H,8-9,11-12H2,(H,20,22)
InChIKey=DYRFCEVBKCEBST-UHFFFAOYSA-N

> <PUBCHEM_SUBSTANCE_SYNONYM>
SCHEMBL16127508

> <PUBCHEM_XREF_EXT_ID>
SCHEMBL16127508

> <PUBCHEM_EXT_DATASOURCE_URL>
https://www.surechembl.org/

> <PUBCHEM_EXT_SUBSTANCE_URL>
https://www.surechembl.org/chemical/SCHEMBL16127508

> <PUBCHEM_CID_ASSOCIATIONS>
117614798  1

> <PUBCHEM_COORDINATE_TYPE>
1
3

$$$$
