310935265
  -OEChem-07211613022D

 22 24  0     0  0  0  0  0  0999 V2000
    2.8917   -3.9433    0.0000 S   0  0  0  0  0  0  0  0  0  0  0  0
    0.7098   -5.0999    0.0000 O   0  0  0  0  0  0  0  0  0  0  0  0
    4.6004   -3.7329    0.0000 N   0  0  0  0  0  0  0  0  0  0  0  0
    5.2577   -2.2345    0.0000 N   0  0  0  0  0  0  0  0  0  0  0  0
    2.2082   -5.0999    0.0000 N   0  0  0  0  0  0  0  0  0  0  0  0
    1.4195   -3.8644    0.0000 N   0  0  0  0  0  0  0  0  0  0  0  0
    3.4438   -4.5479    0.0000 C   0  0  0  0  0  0  0  0  0  0  0  0
    2.1294   -4.2850    0.0000 C   0  0  0  0  0  0  0  0  0  0  0  0
    4.2587   -4.4690    0.0000 C   0  0  0  0  0  0  0  0  0  0  0  0
    5.5994   -1.4984    0.0000 C   0  0  0  0  0  0  0  0  0  0  0  0
    3.0232   -5.2577    0.0000 C   0  0  0  0  0  0  0  0  0  0  0  0
    5.4154   -3.6541    0.0000 C   0  0  0  0  0  0  0  0  0  0  0  0
    4.1272   -3.0757    0.0000 C   0  0  0  0  0  0  0  0  0  0  0  0
    4.4427   -2.3133    0.0000 C   0  0  0  0  0  0  0  0  0  0  0  0
    5.7309   -2.9180    0.0000 C   0  0  0  0  0  0  0  0  0  0  0  0
    5.1262   -0.8150    0.0000 C   0  0  0  0  0  0  0  0  0  0  0  0
    6.4406   -1.4195    0.0000 C   0  0  0  0  0  0  0  0  0  0  0  0
    0.7098   -4.2850    0.0000 C   0  0  0  0  0  0  0  0  0  0  0  0
    5.4679   -0.0788    0.0000 C   0  0  0  0  0  0  0  0  0  0  0  0
    6.7561   -0.6572    0.0000 C   0  0  0  0  0  0  0  0  0  0  0  0
    6.2829    0.0000    0.0000 C   0  0  0  0  0  0  0  0  0  0  0  0
    0.0000   -3.8644    0.0000 C   0  0  0  0  0  0  0  0  0  0  0  0
  1  7  1  0  0  0  0
  1  8  1  0  0  0  0
  2 18  2  0  0  0  0
  3  9  1  0  0  0  0
  3 12  1  0  0  0  0
  3 13  1  0  0  0  0
  4 10  1  0  0  0  0
  4 14  1  0  0  0  0
  4 15  1  0  0  0  0
  5  8  2  0  0  0  0
  5 11  1  0  0  0  0
  6  8  1  0  0  0  0
  6 18  1  0  0  0  0
  7  9  1  0  0  0  0
  7 11  2  0  0  0  0
 10 16  2  0  0  0  0
 10 17  1  0  0  0  0
 12 15  1  0  0  0  0
 13 14  1  0  0  0  0
 16 19  1  0  0  0  0
 17 20  2  0  0  0  0
 18 22  1  0  0  0  0
 19 21  2  0  0  0  0
 20 21  1  0  0  0  0
M  END
> <PUBCHEM_COMPOUND_ID_TYPE>
0

> <PUBCHEM_TOTAL_CHARGE>
0

> <PUBCHEM_SUBSTANCE_ID>
310935265

> <PUBCHEM_SUBSTANCE_VERSION>
1

> <PUBCHEM_EXT_DATASOURCE_NAME>
4488

> <PUBCHEM_EXT_DATASOURCE_REGID>
SCHEMBL16112796

> <PUBCHEM_SUBSTANCE_COMMENT>
InChI=1S/C16H20N4OS/c1-13(21)18-16-17-11-15(22-16)12-19-7-9-20(10-8-19)14-5-3-2-4-6-14/h2-6,11H,7-10,12H2,1H3,(H,17,18,21)
InChIKey=MPVJZLIPMVTGOS-UHFFFAOYSA-N

> <PUBCHEM_SUBSTANCE_SYNONYM>
SCHEMBL16112796

> <PUBCHEM_XREF_EXT_ID>
SCHEMBL16112796

> <PUBCHEM_EXT_DATASOURCE_URL>
https://www.surechembl.org/

> <PUBCHEM_EXT_SUBSTANCE_URL>
https://www.surechembl.org/chemical/SCHEMBL16112796

> <PUBCHEM_CID_ASSOCIATIONS>
86274809  1

> <PUBCHEM_COORDINATE_TYPE>
1
3

$$$$
