310929481
  -OEChem-07211613022D

 26 27  0     0  0  0  0  0  0999 V2000
   12.0196   -1.6427    0.0000 Cl  0  0  0  0  0  0  0  0  0  0  0  0
    9.1750   -0.0401    0.0000 O   0  0  0  0  0  0  0  0  0  0  0  0
    0.0000   -2.8847    0.0000 O   0  0  0  0  0  0  0  0  0  0  0  0
    9.2150   -1.6427    0.0000 N   0  0  0  0  0  0  0  0  0  0  0  0
    9.8962   -1.2420    0.0000 C   0  0  0  0  0  0  0  0  0  0  0  0
   10.6174   -1.6427    0.0000 C   0  0  0  0  0  0  0  0  0  0  0  0
    9.8962   -0.4407    0.0000 C   0  0  0  0  0  0  0  0  0  0  0  0
   11.2984   -1.2420    0.0000 C   0  0  0  0  0  0  0  0  0  0  0  0
    9.1750   -2.4440    0.0000 C   0  0  0  0  0  0  0  0  0  0  0  0
   10.6174   -2.4440    0.0000 C   0  0  0  0  0  0  0  0  0  0  0  0
   10.6174    0.0000    0.0000 C   0  0  0  0  0  0  0  0  0  0  0  0
   11.2984   -0.4407    0.0000 C   0  0  0  0  0  0  0  0  0  0  0  0
    9.8962   -2.8847    0.0000 C   0  0  0  0  0  0  0  0  0  0  0  0
    8.4938   -2.8847    0.0000 C   0  0  0  0  0  0  0  0  0  0  0  0
    7.7727   -2.4440    0.0000 C   0  0  0  0  0  0  0  0  0  0  0  0
    8.4938   -0.4407    0.0000 C   0  0  0  0  0  0  0  0  0  0  0  0
    7.0515   -2.8847    0.0000 C   0  0  0  0  0  0  0  0  0  0  0  0
    6.3704   -2.4440    0.0000 C   0  0  0  0  0  0  0  0  0  0  0  0
    5.6492   -2.8847    0.0000 C   0  0  0  0  0  0  0  0  0  0  0  0
    4.9281   -2.4440    0.0000 C   0  0  0  0  0  0  0  0  0  0  0  0
    4.2469   -2.8847    0.0000 C   0  0  0  0  0  0  0  0  0  0  0  0
    3.5257   -2.4440    0.0000 C   0  0  0  0  0  0  0  0  0  0  0  0
    2.8046   -2.8847    0.0000 C   0  0  0  0  0  0  0  0  0  0  0  0
    2.1235   -2.4440    0.0000 C   0  0  0  0  0  0  0  0  0  0  0  0
    1.4023   -2.8847    0.0000 C   0  0  0  0  0  0  0  0  0  0  0  0
    0.6811   -2.4440    0.0000 C   0  0  0  0  0  0  0  0  0  0  0  0
  1  8  1  0  0  0  0
  2  7  1  0  0  0  0
  2 16  1  0  0  0  0
  3 26  1  0  0  0  0
  4  5  2  0  0  0  0
  4  9  1  0  0  0  0
  5  6  1  0  0  0  0
  5  7  1  0  0  0  0
  6  8  1  0  0  0  0
  6 10  2  0  0  0  0
  7 11  2  0  0  0  0
  8 12  2  0  0  0  0
  9 13  2  0  0  0  0
  9 14  1  0  0  0  0
 10 13  1  0  0  0  0
 11 12  1  0  0  0  0
 14 15  1  0  0  0  0
 15 17  1  0  0  0  0
 17 18  1  0  0  0  0
 18 19  1  0  0  0  0
 19 20  1  0  0  0  0
 20 21  1  0  0  0  0
 21 22  1  0  0  0  0
 22 23  1  0  0  0  0
 23 24  1  0  0  0  0
 24 25  1  0  0  0  0
 25 26  1  0  0  0  0
M  END
> <PUBCHEM_COMPOUND_ID_TYPE>
0

> <PUBCHEM_TOTAL_CHARGE>
0

> <PUBCHEM_SUBSTANCE_ID>
310929481

> <PUBCHEM_SUBSTANCE_VERSION>
1

> <PUBCHEM_EXT_DATASOURCE_NAME>
4488

> <PUBCHEM_EXT_DATASOURCE_REGID>
SCHEMBL16106657

> <PUBCHEM_SUBSTANCE_COMMENT>
InChI=1S/C22H32ClNO2/c1-26-21-16-15-20(23)19-14-13-18(24-22(19)21)12-10-8-6-4-2-3-5-7-9-11-17-25/h13-16,25H,2-12,17H2,1H3
InChIKey=LEGHYZZDTFCTGF-UHFFFAOYSA-N

> <PUBCHEM_SUBSTANCE_SYNONYM>
SCHEMBL16106657

> <PUBCHEM_XREF_EXT_ID>
SCHEMBL16106657

> <PUBCHEM_EXT_DATASOURCE_URL>
https://www.surechembl.org/

> <PUBCHEM_EXT_SUBSTANCE_URL>
https://www.surechembl.org/chemical/SCHEMBL16106657

> <PUBCHEM_CID_ASSOCIATIONS>
86300014  1

> <PUBCHEM_COORDINATE_TYPE>
1
3

$$$$
