310929274
  -OEChem-07211613022D

 48 52  0     0  0  0  0  0  0999 V2000
    0.7144   -1.6500    0.0000 O   0  0  0  0  0  0  0  0  0  0  0  0
    2.1434    3.3000    0.0000 O   0  0  0  0  0  0  0  0  0  0  0  0
    2.8579    4.5375    0.0000 O   0  0  0  0  0  0  0  0  0  0  0  0
    1.4290    2.8875    0.0000 O   0  0  0  0  0  0  0  0  0  0  0  0
   -4.2868   -4.5375    0.0000 O   0  0  0  0  0  0  0  0  0  0  0  0
    2.1434    1.6500    0.0000 N   0  0  0  0  0  0  0  0  0  0  0  0
    0.7144    1.6500    0.0000 N   0  0  0  0  0  0  0  0  0  0  0  0
    4.2868    4.5375    0.0000 N   0  0  0  0  0  0  0  0  0  0  0  0
   -2.1434   -1.6500    0.0000 N   0  0  0  0  0  0  0  0  0  0  0  0
   -1.4290   -2.8875    0.0000 N   0  0  0  0  0  0  0  0  0  0  0  0
    2.8579    2.8875    0.0000 C   0  0  0  0  0  0  0  0  0  0  0  0
    2.8579    2.0625    0.0000 C   0  0  0  0  0  0  0  0  0  0  0  0
    0.0000    0.4125    0.0000 C   0  0  0  0  0  0  0  0  0  0  0  0
    3.5724    3.3000    0.0000 C   0  0  0  0  0  0  0  0  0  0  0  0
    0.0000   -0.4125    0.0000 C   0  0  0  0  0  0  0  0  0  0  0  0
    4.2868    2.0625    0.0000 C   0  0  0  0  0  0  0  0  0  0  0  0
    0.7144    0.8250    0.0000 C   0  0  0  0  0  0  0  0  0  0  0  0
    0.7144   -0.8250    0.0000 C   0  0  0  0  0  0  0  0  0  0  0  0
    3.5724    1.6500    0.0000 C   0  0  0  0  0  0  0  0  0  0  0  0
    4.2868    2.8875    0.0000 C   0  0  0  0  0  0  0  0  0  0  0  0
    5.0013    1.6500    0.0000 C   0  0  0  0  0  0  0  0  0  0  0  0
    3.5724    4.1250    0.0000 C   0  0  0  0  0  0  0  0  0  0  0  0
    1.4290    2.0625    0.0000 C   0  0  0  0  0  0  0  0  0  0  0  0
    1.4290    0.4125    0.0000 C   0  0  0  0  0  0  0  0  0  0  0  0
    1.4290   -0.4125    0.0000 C   0  0  0  0  0  0  0  0  0  0  0  0
   -0.7144    0.8250    0.0000 C   0  0  0  0  0  0  0  0  0  0  0  0
   -0.7144   -0.8250    0.0000 C   0  0  0  0  0  0  0  0  0  0  0  0
    0.0000   -2.0625    0.0000 C   0  0  0  0  0  0  0  0  0  0  0  0
   -1.4290    0.4125    0.0000 C   0  0  0  0  0  0  0  0  0  0  0  0
   -1.4290   -0.4125    0.0000 C   0  0  0  0  0  0  0  0  0  0  0  0
   -0.7144   -1.6500    0.0000 C   0  0  0  0  0  0  0  0  0  0  0  0
   -1.4290   -2.0625    0.0000 C   0  0  0  0  0  0  0  0  0  0  0  0
    5.7158    1.2375    0.0000 C   0  0  0  0  0  0  0  0  0  0  0  0
    5.0013    0.8250    0.0000 C   0  0  0  0  0  0  0  0  0  0  0  0
    5.7158    2.0625    0.0000 C   0  0  0  0  0  0  0  0  0  0  0  0
    0.0000   -2.8875    0.0000 C   0  0  0  0  0  0  0  0  0  0  0  0
   -2.8579   -2.0625    0.0000 C   0  0  0  0  0  0  0  0  0  0  0  0
   -0.7144   -3.3000    0.0000 C   0  0  0  0  0  0  0  0  0  0  0  0
    2.1434    4.1250    0.0000 C   0  0  0  0  0  0  0  0  0  0  0  0
   -2.8579   -2.8875    0.0000 C   0  0  0  0  0  0  0  0  0  0  0  0
   -3.5724   -1.6500    0.0000 C   0  0  0  0  0  0  0  0  0  0  0  0
   -3.5724   -3.3000    0.0000 C   0  0  0  0  0  0  0  0  0  0  0  0
   -4.2868   -2.0625    0.0000 C   0  0  0  0  0  0  0  0  0  0  0  0
   -4.2868   -2.8875    0.0000 C   0  0  0  0  0  0  0  0  0  0  0  0
    4.2868    5.3625    0.0000 C   0  0  0  0  0  0  0  0  0  0  0  0
   -3.5724   -4.1250    0.0000 C   0  0  0  0  0  0  0  0  0  0  0  0
   -5.0013   -1.6500    0.0000 C   0  0  0  0  0  0  0  0  0  0  0  0
   -5.7158   -1.2375    0.0000 C   0  0  0  0  0  0  0  0  0  0  0  0
  1 18  1  0  0  0  0
  1 28  1  0  0  0  0
  2 11  1  0  0  0  0
  2 39  1  0  0  0  0
  3 22  2  0  0  0  0
  4 23  2  0  0  0  0
  5 46  1  0  0  0  0
  6 12  1  0  0  0  0
  6 23  1  0  0  0  0
  7 17  1  0  0  0  0
  7 23  1  0  0  0  0
  8 22  1  0  0  0  0
  8 45  1  0  0  0  0
  9 32  1  0  0  0  0
  9 37  1  0  0  0  0
 10 32  2  0  0  0  0
 10 38  1  0  0  0  0
 11 12  2  0  0  0  0
 11 14  1  0  0  0  0
 12 19  1  0  0  0  0
 13 15  1  0  0  0  0
 13 17  2  0  0  0  0
 13 26  1  0  0  0  0
 14 20  2  0  0  0  0
 14 22  1  0  0  0  0
 15 18  2  0  0  0  0
 15 27  1  0  0  0  0
 16 19  2  0  0  0  0
 16 20  1  0  0  0  0
 16 21  1  0  0  0  0
 17 24  1  0  0  0  0
 18 25  1  0  0  0  0
 21 33  1  0  0  0  0
 21 34  1  0  0  0  0
 21 35  1  0  0  0  0
 24 25  2  0  0  0  0
 26 29  2  0  0  0  0
 27 30  2  0  0  0  0
 28 31  2  0  0  0  0
 28 36  1  0  0  0  0
 29 30  1  0  0  0  0
 31 32  1  0  0  0  0
 36 38  2  0  0  0  0
 37 40  2  0  0  0  0
 37 41  1  0  0  0  0
 40 42  1  0  0  0  0
 41 43  2  0  0  0  0
 42 44  2  0  0  0  0
 42 46  1  0  0  0  0
 43 44  1  0  0  0  0
 43 47  1  0  0  0  0
 47 48  3  0  0  0  0
M  END
> <PUBCHEM_COMPOUND_ID_TYPE>
0

> <PUBCHEM_TOTAL_CHARGE>
0

> <PUBCHEM_SUBSTANCE_ID>
310929274

> <PUBCHEM_SUBSTANCE_VERSION>
1

> <PUBCHEM_EXT_DATASOURCE_NAME>
4488

> <PUBCHEM_EXT_DATASOURCE_REGID>
SCHEMBL16106438

> <PUBCHEM_SUBSTANCE_COMMENT>
InChI=1S/C38H37N5O5/c1-7-23-16-24(22-44)18-26(17-23)41-34-21-27(14-15-40-34)48-33-13-12-31(28-10-8-9-11-29(28)33)42-37(46)43-32-20-25(38(2,3)4)19-30(35(32)47-6)36(45)39-5/h1,8-21,44H,22H2,2-6H3,(H,39,45)(H,40,41)(H2,42,43,46)
InChIKey=HBXARKCGJMUAON-UHFFFAOYSA-N

> <PUBCHEM_SUBSTANCE_SYNONYM>
SCHEMBL16106438

> <PUBCHEM_XREF_EXT_ID>
SCHEMBL16106438

> <PUBCHEM_EXT_DATASOURCE_URL>
https://www.surechembl.org/

> <PUBCHEM_EXT_SUBSTANCE_URL>
https://www.surechembl.org/chemical/SCHEMBL16106438

> <PUBCHEM_CID_ASSOCIATIONS>
117598692  1

> <PUBCHEM_COORDINATE_TYPE>
1
3

$$$$
