310936432
  -OEChem-07211613022D

 20 23  0     0  0  0  0  0  0999 V2000
    0.6670   -1.3344    0.0000 O   0  0  0  0  0  0  0  0  0  0  0  0
    2.2912   -1.6248    0.0000 O   0  0  0  0  0  0  0  0  0  0  0  0
   -1.5048    1.6179    0.0000 O   0  0  0  0  0  0  0  0  0  0  0  0
    0.9185    0.0722    0.0000 C   0  0  0  0  0  0  0  0  0  0  0  0
    1.4503    0.7029    0.0000 C   0  0  0  0  0  0  0  0  0  0  0  0
    0.1064    0.2174    0.0000 C   0  0  0  0  0  0  0  0  0  0  0  0
    2.2624    0.5577    0.0000 C   0  0  0  0  0  0  0  0  0  0  0  0
    1.1988   -0.7037    0.0000 C   0  0  0  0  0  0  0  0  0  0  0  0
   -0.1739    0.9934    0.0000 C   0  0  0  0  0  0  0  0  0  0  0  0
    2.5427   -0.2182    0.0000 C   0  0  0  0  0  0  0  0  0  0  0  0
    2.0109   -0.8489    0.0000 C   0  0  0  0  0  0  0  0  0  0  0  0
    1.1700    1.4789    0.0000 C   0  0  0  0  0  0  0  0  0  0  0  0
   -0.9985    0.9666    0.0000 C   0  0  0  0  0  0  0  0  0  0  0  0
    0.3579    1.6241    0.0000 C   0  0  0  0  0  0  0  0  0  0  0  0
   -0.5450   -0.2889    0.0000 C   0  0  0  0  0  0  0  0  0  0  0  0
    2.7943    1.1884    0.0000 C   0  0  0  0  0  0  0  0  0  0  0  0
   -1.2278    0.1741    0.0000 C   0  0  0  0  0  0  0  0  0  0  0  0
    3.3549   -0.3634    0.0000 C   0  0  0  0  0  0  0  0  0  0  0  0
    3.6064    1.0432    0.0000 C   0  0  0  0  0  0  0  0  0  0  0  0
    3.8867    0.2673    0.0000 C   0  0  0  0  0  0  0  0  0  0  0  0
  1  8  1  0  0  0  0
  2 11  1  0  0  0  0
  3 13  1  0  0  0  0
  4  5  1  0  0  0  0
  4  6  2  0  0  0  0
  4  8  1  0  0  0  0
  5  7  1  0  0  0  0
  5 12  2  0  0  0  0
  6  9  1  0  0  0  0
  6 15  1  0  0  0  0
  7 10  2  0  0  0  0
  7 16  1  0  0  0  0
  8 11  2  0  0  0  0
  9 13  1  0  0  0  0
  9 14  2  0  0  0  0
 10 11  1  0  0  0  0
 10 18  1  0  0  0  0
 12 14  1  0  0  0  0
 13 17  2  0  0  0  0
 15 17  1  0  0  0  0
 16 19  2  0  0  0  0
 18 20  2  0  0  0  0
 19 20  1  0  0  0  0
M  END
> <PUBCHEM_COMPOUND_ID_TYPE>
0

> <PUBCHEM_TOTAL_CHARGE>
0

> <PUBCHEM_SUBSTANCE_ID>
310936432

> <PUBCHEM_SUBSTANCE_VERSION>
1

> <PUBCHEM_EXT_DATASOURCE_NAME>
4488

> <PUBCHEM_EXT_DATASOURCE_REGID>
SCHEMBL16114073

> <PUBCHEM_SUBSTANCE_COMMENT>
InChI=1S/C17H12O3/c18-14-8-7-12-10(14)5-6-11-9-3-1-2-4-13(9)16(19)17(20)15(11)12/h1-6,8,18-20H,7H2
InChIKey=VJOIRHDJGNIUAO-UHFFFAOYSA-N

> <PUBCHEM_SUBSTANCE_SYNONYM>
SCHEMBL16114073

> <PUBCHEM_XREF_EXT_ID>
SCHEMBL16114073

> <PUBCHEM_EXT_DATASOURCE_URL>
https://www.surechembl.org/

> <PUBCHEM_EXT_SUBSTANCE_URL>
https://www.surechembl.org/chemical/SCHEMBL16114073

> <PUBCHEM_CID_ASSOCIATIONS>
117604365  1

> <PUBCHEM_COORDINATE_TYPE>
1
3

$$$$
