310936646
  -OEChem-07211613022D

 43 47  0     1  0  0  0  0  0999 V2000
   -0.7145   -2.0625    0.0000 F   0  0  0  0  0  0  0  0  0  0  0  0
    0.0000   -1.6500    0.0000 F   0  0  0  0  0  0  0  0  0  0  0  0
   -1.4290   -1.6500    0.0000 F   0  0  0  0  0  0  0  0  0  0  0  0
   -2.1434    2.0625    0.0000 F   0  0  0  0  0  0  0  0  0  0  0  0
   -2.8579    1.6500    0.0000 F   0  0  0  0  0  0  0  0  0  0  0  0
   -2.8579    0.8250    0.0000 F   0  0  0  0  0  0  0  0  0  0  0  0
    0.8007    2.0580    0.0000 O   0  0  0  0  0  0  0  0  0  0  0  0
    1.9433    2.9832    0.0000 O   0  0  0  0  0  0  0  0  0  0  0  0
    1.7170   -1.4134    0.0000 O   0  0  0  0  0  0  0  0  0  0  0  0
    2.0202    1.5151    0.0000 N   0  0  0  0  0  0  0  0  0  0  0  0
    4.3323   -0.1648    0.0000 N   0  0  0  0  0  0  0  0  0  0  0  0
    4.4817    1.2564    0.0000 N   0  0  0  0  0  0  0  0  0  0  0  0
    0.7145    1.2375    0.0000 C   0  0  3  0  0  0  0  0  0  0  0  0
    0.0000    0.8250    0.0000 C   0  0  0  0  0  0  0  0  0  0  0  0
    1.4682    0.9020    0.0000 C   0  0  3  0  0  0  0  0  0  0  0  0
    1.6077    2.2295    0.0000 C   0  0  0  0  0  0  0  0  0  0  0  0
   -0.7145   -0.4125    0.0000 C   0  0  0  0  0  0  0  0  0  0  0  0
   -1.4290    0.8250    0.0000 C   0  0  0  0  0  0  0  0  0  0  0  0
   -0.7145    1.2375    0.0000 C   0  0  0  0  0  0  0  0  0  0  0  0
    0.0000    0.0000    0.0000 C   0  0  0  0  0  0  0  0  0  0  0  0
    2.8407    1.4288    0.0000 C   0  0  0  0  0  0  0  0  0  0  0  0
    3.1762    0.6752    0.0000 C   0  0  0  0  0  0  0  0  0  0  0  0
   -1.4290    0.0000    0.0000 C   0  0  0  0  0  0  0  0  0  0  0  0
   -0.7145   -1.2375    0.0000 C   0  0  0  0  0  0  0  0  0  0  0  0
   -2.1434    1.2375    0.0000 C   0  0  0  0  0  0  0  0  0  0  0  0
    3.9968    0.5889    0.0000 C   0  0  0  0  0  0  0  0  0  0  0  0
    3.0269   -0.7460    0.0000 C   0  0  0  0  0  0  0  0  0  0  0  0
    2.6913    0.0077    0.0000 C   0  0  0  0  0  0  0  0  0  0  0  0
    1.6397    0.0950    0.0000 C   0  0  0  0  0  0  0  0  0  0  0  0
    2.5420   -1.4134    0.0000 C   0  0  0  0  0  0  0  0  0  0  0  0
    3.8474   -0.8323    0.0000 C   0  0  0  0  0  0  0  0  0  0  0  0
    4.1461    2.0100    0.0000 C   0  0  3  0  0  0  0  0  0  0  0  0
    2.7969   -2.1981    0.0000 C   0  0  0  0  0  0  0  0  0  0  0  0
    4.6310    2.6775    0.0000 C   0  0  3  0  0  0  0  0  0  0  0  0
    1.4620   -2.1981    0.0000 C   0  0  0  0  0  0  0  0  0  0  0  0
    2.1295   -2.6830    0.0000 C   0  0  0  0  0  0  0  0  0  0  0  0
    3.3256    2.0963    0.0000 C   0  0  0  0  0  0  0  0  0  0  0  0
    4.2955    3.4312    0.0000 C   0  0  0  0  0  0  0  0  0  0  0  0
    5.4516    2.5912    0.0000 C   0  0  0  0  0  0  0  0  0  0  0  0
    2.9901    2.8499    0.0000 C   0  0  0  0  0  0  0  0  0  0  0  0
    3.4750    3.5174    0.0000 C   0  0  0  0  0  0  0  0  0  0  0  0
    0.6774   -2.4530    0.0000 C   0  0  0  0  0  0  0  0  0  0  0  0
    5.9365    3.2587    0.0000 C   0  0  0  0  0  0  0  0  0  0  0  0
  1 24  1  0  0  0  0
  2 24  1  0  0  0  0
  3 24  1  0  0  0  0
  4 25  1  0  0  0  0
  5 25  1  0  0  0  0
  6 25  1  0  0  0  0
 13  7  1  1  0  0  0
  7 16  1  0  0  0  0
  8 16  2  0  0  0  0
  9 30  1  0  0  0  0
  9 35  1  0  0  0  0
 10 15  1  0  0  0  0
 10 16  1  0  0  0  0
 10 21  1  0  0  0  0
 11 26  2  0  0  0  0
 11 31  1  0  0  0  0
 12 26  1  0  0  0  0
 12 32  1  0  0  0  0
 13 14  1  0  0  0  0
 13 15  1  0  0  0  0
 14 19  2  0  0  0  0
 14 20  1  0  0  0  0
 15 29  1  1  0  0  0
 17 20  2  0  0  0  0
 17 23  1  0  0  0  0
 17 24  1  0  0  0  0
 18 19  1  0  0  0  0
 18 23  2  0  0  0  0
 18 25  1  0  0  0  0
 21 22  1  0  0  0  0
 22 26  1  0  0  0  0
 22 28  2  0  0  0  0
 27 28  1  0  0  0  0
 27 30  1  0  0  0  0
 27 31  2  0  0  0  0
 30 33  2  0  0  0  0
 32 34  1  0  0  0  0
 32 37  1  0  0  0  0
 33 36  1  0  0  0  0
 34 38  1  0  0  0  0
 34 39  1  0  0  0  0
 35 36  2  0  0  0  0
 35 42  1  0  0  0  0
 37 40  1  0  0  0  0
 38 41  1  0  0  0  0
 39 43  1  0  0  0  0
 40 41  1  0  0  0  0
M  END
> <PUBCHEM_COMPOUND_ID_TYPE>
0

> <PUBCHEM_TOTAL_CHARGE>
0

> <PUBCHEM_SUBSTANCE_ID>
310936646

> <PUBCHEM_SUBSTANCE_VERSION>
1

> <PUBCHEM_EXT_DATASOURCE_NAME>
4488

> <PUBCHEM_EXT_DATASOURCE_REGID>
SCHEMBL16114311

> <PUBCHEM_SUBSTANCE_COMMENT>
InChI=1S/C31H33F6N3O3/c1-4-19-7-5-6-8-25(19)39-28-22(11-21(15-38-28)26-10-9-17(2)42-26)16-40-18(3)27(43-29(40)41)20-12-23(30(32,33)34)14-24(13-20)31(35,36)37/h9-15,18-19,25,27H,4-8,16H2,1-3H3,(H,38,39)/t18-,19?,25?,27-/m0/s1
InChIKey=VDCCTIKJOZWVAG-ODSROUJUSA-N

> <PUBCHEM_SUBSTANCE_SYNONYM>
SCHEMBL16114311

> <PUBCHEM_XREF_EXT_ID>
SCHEMBL16114311

> <PUBCHEM_EXT_DATASOURCE_URL>
https://www.surechembl.org/

> <PUBCHEM_EXT_SUBSTANCE_URL>
https://www.surechembl.org/chemical/SCHEMBL16114311

> <PUBCHEM_CID_ASSOCIATIONS>
117604560  1

> <PUBCHEM_COORDINATE_TYPE>
1
3

> <PUBCHEM_BONDANNOTATIONS>
15  29  5
13  7  5

$$$$
