310949952
  -OEChem-07211613022D

 43 46  0     1  0  0  0  0  0999 V2000
   -3.0748    0.3655    0.0000 P   0  0  3  0  0  0  0  0  0  0  0  0
    0.9848   -0.5548    0.0000 F   0  0  0  0  0  0  0  0  0  0  0  0
    0.1935   -1.1740    0.0000 F   0  0  0  0  0  0  0  0  0  0  0  0
   -0.2452    0.9160    0.0000 O   0  0  0  0  0  0  0  0  0  0  0  0
   -2.3007    0.1075    0.0000 O   0  0  0  0  0  0  0  0  0  0  0  0
   -1.1311   -1.0364    0.0000 O   0  0  0  0  0  0  0  0  0  0  0  0
   -3.2898   -0.4430    0.0000 O   0  0  0  0  0  0  0  0  0  0  0  0
    0.7698    2.0599    0.0000 O   0  0  0  0  0  0  0  0  0  0  0  0
   -2.8598    1.1568    0.0000 O   0  0  0  0  0  0  0  0  0  0  0  0
   -5.5003    1.9998    0.0000 O   0  0  0  0  0  0  0  0  0  0  0  0
    4.0295    0.1161    0.0000 O   0  0  0  0  0  0  0  0  0  0  0  0
   -5.4143    0.5634    0.0000 O   0  0  0  0  0  0  0  0  0  0  0  0
    1.2170    0.7010    0.0000 N   0  0  0  0  0  0  0  0  0  0  0  0
   -3.9005    0.5805    0.0000 N   0  0  3  0  0  0  0  0  0  0  0  0
    2.1717    1.7675    0.0000 N   0  0  0  0  0  0  0  0  0  0  0  0
    3.5737    1.4750    0.0000 N   0  0  0  0  0  0  0  0  0  0  0  0
    5.6637    0.7010    0.0000 N   0  0  3  0  0  0  0  0  0  0  0  0
    0.1763   -0.3311    0.0000 C   0  0  0  0  0  0  0  0  0  0  0  0
    0.4257    0.4602    0.0000 C   0  0  3  0  0  0  0  0  0  0  0  0
   -0.6321   -0.3397    0.0000 C   0  0  3  0  0  0  0  0  0  0  0  0
   -0.9074    0.4343    0.0000 C   0  0  3  0  0  0  0  0  0  0  0  0
    1.4063    1.5094    0.0000 C   0  0  0  0  0  0  0  0  0  0  0  0
   -1.6901    0.6752    0.0000 C   0  0  0  0  0  0  0  0  0  0  0  0
    1.8449    0.1677    0.0000 C   0  0  0  0  0  0  0  0  0  0  0  0
    2.7996    1.2342    0.0000 C   0  0  0  0  0  0  0  0  0  0  0  0
    2.6190    0.4257    0.0000 C   0  0  0  0  0  0  0  0  0  0  0  0
   -4.2102    1.3547    0.0000 C   0  0  3  0  0  0  0  0  0  0  0  0
   -4.0209   -0.8300    0.0000 C   0  0  0  0  0  0  0  0  0  0  0  0
    4.2102    0.9590    0.0000 C   0  0  0  0  0  0  0  0  0  0  0  0
   -5.0444    1.3547    0.0000 C   0  0  0  0  0  0  0  0  0  0  0  0
   -4.5542    0.0559    0.0000 C   0  0  0  0  0  0  0  0  0  0  0  0
    4.9670    1.1826    0.0000 C   0  0  3  0  0  0  0  0  0  0  0  0
   -4.7434   -0.4257    0.0000 C   0  0  0  0  0  0  0  0  0  0  0  0
   -4.0123   -1.6471    0.0000 C   0  0  0  0  0  0  0  0  0  0  0  0
   -3.7543    2.0427    0.0000 C   0  0  0  0  0  0  0  0  0  0  0  0
    5.1820    1.9653    0.0000 C   0  0  0  0  0  0  0  0  0  0  0  0
   -5.4572   -0.8386    0.0000 C   0  0  0  0  0  0  0  0  0  0  0  0
   -4.7004   -2.0599    0.0000 C   0  0  0  0  0  0  0  0  0  0  0  0
    6.3345    1.2084    0.0000 C   0  0  0  0  0  0  0  0  0  0  0  0
    6.0851    1.9739    0.0000 C   0  0  0  0  0  0  0  0  0  0  0  0
   -5.4486   -1.6643    0.0000 C   0  0  0  0  0  0  0  0  0  0  0  0
    5.6637   -0.1247    0.0000 C   0  0  0  0  0  0  0  0  0  0  0  0
   -6.3345    1.9481    0.0000 C   0  0  0  0  0  0  0  0  0  0  0  0
  1  5  1  0  0  0  0
  1  7  1  0  0  0  0
  1  9  2  0  0  0  0
  1 14  1  0  0  0  0
  2 18  1  0  0  0  0
  3 18  1  0  0  0  0
 19  4  1  1  0  0  0
  4 21  1  0  0  0  0
  5 23  1  0  0  0  0
 20  6  1  6  0  0  0
  7 28  1  0  0  0  0
  8 22  2  0  0  0  0
 10 30  1  0  0  0  0
 10 43  1  0  0  0  0
 11 29  2  0  0  0  0
 12 30  2  0  0  0  0
 13 19  1  0  0  0  0
 13 22  1  0  0  0  0
 13 24  1  0  0  0  0
 14 27  1  0  0  0  0
 14 31  1  0  0  0  0
 15 22  1  0  0  0  0
 15 25  2  0  0  0  0
 16 25  1  0  0  0  0
 16 29  1  0  0  0  0
 17 32  1  0  0  0  0
 17 39  1  0  0  0  0
 17 42  1  0  0  0  0
 18 19  1  0  0  0  0
 18 20  1  0  0  0  0
 20 21  1  0  0  0  0
 21 23  1  1  0  0  0
 24 26  2  0  0  0  0
 25 26  1  0  0  0  0
 27 30  1  0  0  0  0
 27 35  1  6  0  0  0
 28 33  2  0  0  0  0
 28 34  1  0  0  0  0
 32 29  1  6  0  0  0
 32 36  1  0  0  0  0
 33 37  1  0  0  0  0
 34 38  2  0  0  0  0
 36 40  1  0  0  0  0
 37 41  2  0  0  0  0
 38 41  1  0  0  0  0
 39 40  1  0  0  0  0
M  END
> <PUBCHEM_COMPOUND_ID_TYPE>
0

> <PUBCHEM_TOTAL_CHARGE>
0

> <PUBCHEM_SUBSTANCE_ID>
310949952

> <PUBCHEM_SUBSTANCE_VERSION>
1

> <PUBCHEM_EXT_DATASOURCE_NAME>
4488

> <PUBCHEM_EXT_DATASOURCE_REGID>
SCHEMBL16128181

> <PUBCHEM_SUBSTANCE_COMMENT>
InChI=1S/C26H34F2N5O9P/c1-16(23(36)39-4)32(3)43(38,42-17-9-6-5-7-10-17)40-15-19-21(34)26(27,28)24(41-19)33-14-12-20(30-25(33)37)29-22(35)18-11-8-13-31(18)2/h5-7,9-10,12,14,16,18-19,21,24,34H,8,11,13,15H2,1-4H3,(H,29,30,35,37)/t16-,18-,19+,21+,24+,43?/m0/s1
InChIKey=DHPPDOXBEAIIHC-ARFDNCJDSA-N

> <PUBCHEM_SUBSTANCE_SYNONYM>
SCHEMBL16128181

> <PUBCHEM_XREF_EXT_ID>
SCHEMBL16128181

> <PUBCHEM_EXT_DATASOURCE_URL>
https://www.surechembl.org/

> <PUBCHEM_EXT_SUBSTANCE_URL>
https://www.surechembl.org/chemical/SCHEMBL16128181

> <PUBCHEM_CID_ASSOCIATIONS>
86269934  1

> <PUBCHEM_COORDINATE_TYPE>
1
3

> <PUBCHEM_BONDANNOTATIONS>
21  23  5
27  35  6
32  29  6
19  4  5
20  6  6

$$$$
