310936760
  -OEChem-07211613022D

 34 37  0     1  0  0  0  0  0999 V2000
    3.6680   -4.2809    0.0000 O   0  0  0  0  0  0  0  0  0  0  0  0
    3.1279   -2.7218    0.0000 O   0  0  0  0  0  0  0  0  0  0  0  0
    7.4486   -4.2809    0.0000 O   0  0  0  0  0  0  0  0  0  0  0  0
    6.3685   -3.3454    0.0000 O   0  0  0  0  0  0  0  0  0  0  0  0
    0.1574   -2.8777    0.0000 O   0  0  0  0  0  0  0  0  0  0  0  0
    6.0984   -4.7486    0.0000 N   0  0  0  0  0  0  0  0  0  0  0  0
    1.7777   -3.1895    0.0000 N   0  0  0  0  0  0  0  0  0  0  0  0
    4.7482   -5.2164    0.0000 C   0  0  3  0  0  0  0  0  0  0  0  0
    5.0182   -5.9959    0.0000 C   0  0  0  0  0  0  0  0  0  0  0  0
    3.9381   -5.0605    0.0000 C   0  0  3  0  0  0  0  0  0  0  0  0
    6.0984   -6.9314    0.0000 C   0  0  0  0  0  0  0  0  0  0  0  0
    3.3980   -5.6841    0.0000 C   0  0  0  0  0  0  0  0  0  0  0  0
    5.8284   -6.1518    0.0000 C   0  0  0  0  0  0  0  0  0  0  0  0
    5.5583   -7.5550    0.0000 C   0  0  0  0  0  0  0  0  0  0  0  0
    4.4782   -6.6196    0.0000 C   0  0  0  0  0  0  0  0  0  0  0  0
    5.2883   -4.5927    0.0000 C   0  0  0  0  0  0  0  0  0  0  0  0
    4.7482   -7.3991    0.0000 C   0  0  0  0  0  0  0  0  0  0  0  0
    6.9086   -7.0873    0.0000 C   0  0  0  0  0  0  0  0  0  0  0  0
    3.6680   -6.4637    0.0000 C   0  0  0  0  0  0  0  0  0  0  0  0
    2.5878   -5.5282    0.0000 C   0  0  0  0  0  0  0  0  0  0  0  0
    5.8284   -8.3346    0.0000 C   0  0  0  0  0  0  0  0  0  0  0  0
    2.8579   -4.1250    0.0000 C   0  0  0  0  0  0  0  0  0  0  0  0
    2.5878   -3.3454    0.0000 C   0  0  0  0  0  0  0  0  0  0  0  0
    7.1786   -7.8668    0.0000 C   0  0  0  0  0  0  0  0  0  0  0  0
    6.6385   -4.1250    0.0000 C   0  0  0  0  0  0  0  0  0  0  0  0
    6.6385   -8.4905    0.0000 C   0  0  0  0  0  0  0  0  0  0  0  0
    3.1279   -7.0873    0.0000 C   0  0  0  0  0  0  0  0  0  0  0  0
    2.0477   -6.1518    0.0000 C   0  0  0  0  0  0  0  0  0  0  0  0
    2.3178   -6.9314    0.0000 C   0  0  0  0  0  0  0  0  0  0  0  0
    6.3685   -5.5282    0.0000 C   0  0  0  0  0  0  0  0  0  0  0  0
    1.2376   -3.8132    0.0000 C   0  0  0  0  0  0  0  0  0  0  0  0
    1.5077   -2.4100    0.0000 C   0  0  0  0  0  0  0  0  0  0  0  0
    0.4275   -3.6573    0.0000 C   0  0  0  0  0  0  0  0  0  0  0  0
    0.6975   -2.2541    0.0000 C   0  0  0  0  0  0  0  0  0  0  0  0
 10  1  1  1  0  0  0
  1 22  1  0  0  0  0
  2 23  2  0  0  0  0
  3 25  2  0  0  0  0
  4 25  1  0  0  0  0
  5 33  1  0  0  0  0
  5 34  1  0  0  0  0
  6 16  1  0  0  0  0
  6 25  1  0  0  0  0
  6 30  1  0  0  0  0
  7 23  1  0  0  0  0
  7 31  1  0  0  0  0
  7 32  1  0  0  0  0
  8  9  1  0  0  0  0
  8 10  1  0  0  0  0
  8 16  1  6  0  0  0
  9 13  2  0  0  0  0
  9 15  1  0  0  0  0
 10 12  1  0  0  0  0
 11 13  1  0  0  0  0
 11 14  1  0  0  0  0
 11 18  2  0  0  0  0
 12 19  2  0  0  0  0
 12 20  1  0  0  0  0
 14 17  1  0  0  0  0
 14 21  2  0  0  0  0
 15 17  2  0  0  0  0
 18 24  1  0  0  0  0
 19 27  1  0  0  0  0
 20 28  2  0  0  0  0
 21 26  1  0  0  0  0
 22 23  1  0  0  0  0
 24 26  2  0  0  0  0
 27 29  2  0  0  0  0
 28 29  1  0  0  0  0
 31 33  1  0  0  0  0
 32 34  1  0  0  0  0
M  END
> <PUBCHEM_COMPOUND_ID_TYPE>
0

> <PUBCHEM_TOTAL_CHARGE>
0

> <PUBCHEM_SUBSTANCE_ID>
310936760

> <PUBCHEM_SUBSTANCE_VERSION>
1

> <PUBCHEM_EXT_DATASOURCE_NAME>
4488

> <PUBCHEM_EXT_DATASOURCE_REGID>
SCHEMBL16114444

> <PUBCHEM_SUBSTANCE_COMMENT>
InChI=1S/C27H30N2O5/c1-28(27(31)32)18-24(23-12-11-20-7-5-6-10-22(20)17-23)26(21-8-3-2-4-9-21)34-19-25(30)29-13-15-33-16-14-29/h2-12,17,24,26H,13-16,18-19H2,1H3,(H,31,32)/t24-,26-/m1/s1
InChIKey=LLKNVVDJHJTMFQ-AOYPEHQESA-N

> <PUBCHEM_SUBSTANCE_SYNONYM>
SCHEMBL16114444

> <PUBCHEM_XREF_EXT_ID>
SCHEMBL16114444

> <PUBCHEM_EXT_DATASOURCE_URL>
https://www.surechembl.org/

> <PUBCHEM_EXT_SUBSTANCE_URL>
https://www.surechembl.org/chemical/SCHEMBL16114444

> <PUBCHEM_CID_ASSOCIATIONS>
117604657  1

> <PUBCHEM_COORDINATE_TYPE>
1
3

> <PUBCHEM_BONDANNOTATIONS>
10  1  5
8  16  6

$$$$
