310943604
  -OEChem-07211613022D

 35 38  0     0  0  0  0  0  0999 V2000
    4.6692    2.2683    0.0000 F   0  0  0  0  0  0  0  0  0  0  0  0
    5.3909    1.0311    0.0000 F   0  0  0  0  0  0  0  0  0  0  0  0
   -5.3909    2.2683    0.0000 O   0  0  0  0  0  0  0  0  0  0  0  0
    1.7970    2.2683    0.0000 O   0  0  0  0  0  0  0  0  0  0  0  0
   -1.0900   -2.6955    0.0000 O   0  0  0  0  0  0  0  0  0  0  0  0
   -3.9622    1.4435    0.0000 N   0  0  0  0  0  0  0  0  0  0  0  0
   -3.2405    0.2062    0.0000 N   0  0  0  0  0  0  0  0  0  0  0  0
   -0.3683    2.6955    0.0000 N   0  0  0  0  0  0  0  0  0  0  0  0
    1.0753    1.0311    0.0000 N   0  0  0  0  0  0  0  0  0  0  0  0
   -2.5187   -1.0311    0.0000 N   0  0  0  0  0  0  0  0  0  0  0  0
   -1.7970    1.0458    0.0000 C   0  0  0  0  0  0  0  0  0  0  0  0
   -1.0900    1.4582    0.0000 C   0  0  0  0  0  0  0  0  0  0  0  0
   -3.2405    1.0458    0.0000 C   0  0  0  0  0  0  0  0  0  0  0  0
   -2.5335    1.4435    0.0000 C   0  0  0  0  0  0  0  0  0  0  0  0
   -1.0753    2.2831    0.0000 C   0  0  0  0  0  0  0  0  0  0  0  0
   -1.8117    0.1915    0.0000 C   0  0  0  0  0  0  0  0  0  0  0  0
   -2.5187   -0.2062    0.0000 C   0  0  0  0  0  0  0  0  0  0  0  0
   -0.3388    1.0458    0.0000 C   0  0  0  0  0  0  0  0  0  0  0  0
    0.3535    1.4582    0.0000 C   0  0  0  0  0  0  0  0  0  0  0  0
    0.3683    2.2683    0.0000 C   0  0  0  0  0  0  0  0  0  0  0  0
    1.7823    1.4287    0.0000 C   0  0  0  0  0  0  0  0  0  0  0  0
    2.5187    1.0311    0.0000 C   0  0  0  0  0  0  0  0  0  0  0  0
   -3.9475    2.2683    0.0000 C   0  0  0  0  0  0  0  0  0  0  0  0
   -4.6545    1.0458    0.0000 C   0  0  0  0  0  0  0  0  0  0  0  0
   -1.7970    2.6955    0.0000 C   0  0  0  0  0  0  0  0  0  0  0  0
    3.2110    1.4287    0.0000 C   0  0  0  0  0  0  0  0  0  0  0  0
    3.9475    1.0458    0.0000 C   0  0  0  0  0  0  0  0  0  0  0  0
    2.5187    0.2062    0.0000 C   0  0  0  0  0  0  0  0  0  0  0  0
   -4.6692    2.6955    0.0000 C   0  0  0  0  0  0  0  0  0  0  0  0
   -5.3909    1.4435    0.0000 C   0  0  0  0  0  0  0  0  0  0  0  0
    3.9475    0.2062    0.0000 C   0  0  0  0  0  0  0  0  0  0  0  0
    3.2405   -0.2062    0.0000 C   0  0  0  0  0  0  0  0  0  0  0  0
    4.6545    1.4435    0.0000 C   0  0  0  0  0  0  0  0  0  0  0  0
   -1.7970   -1.4582    0.0000 C   0  0  0  0  0  0  0  0  0  0  0  0
   -1.7970   -2.2683    0.0000 C   0  0  0  0  0  0  0  0  0  0  0  0
  1 33  1  0  0  0  0
  2 33  1  0  0  0  0
  3 29  1  0  0  0  0
  3 30  1  0  0  0  0
  4 21  2  0  0  0  0
  5 35  1  0  0  0  0
  6 13  1  0  0  0  0
  6 23  1  0  0  0  0
  6 24  1  0  0  0  0
  7 13  2  0  0  0  0
  7 17  1  0  0  0  0
  8 15  2  0  0  0  0
  8 20  1  0  0  0  0
  9 19  1  0  0  0  0
  9 21  1  0  0  0  0
 10 17  1  0  0  0  0
 10 34  1  0  0  0  0
 11 12  1  0  0  0  0
 11 14  2  0  0  0  0
 11 16  1  0  0  0  0
 12 15  1  0  0  0  0
 12 18  2  0  0  0  0
 13 14  1  0  0  0  0
 15 25  1  0  0  0  0
 16 17  2  0  0  0  0
 18 19  1  0  0  0  0
 19 20  2  0  0  0  0
 21 22  1  0  0  0  0
 22 26  1  0  0  0  0
 22 28  2  0  0  0  0
 23 29  1  0  0  0  0
 24 30  1  0  0  0  0
 26 27  2  0  0  0  0
 27 31  1  0  0  0  0
 27 33  1  0  0  0  0
 28 32  1  0  0  0  0
 31 32  2  0  0  0  0
 34 35  1  0  0  0  0
M  END
> <PUBCHEM_COMPOUND_ID_TYPE>
0

> <PUBCHEM_TOTAL_CHARGE>
0

> <PUBCHEM_SUBSTANCE_ID>
310943604

> <PUBCHEM_SUBSTANCE_VERSION>
1

> <PUBCHEM_EXT_DATASOURCE_NAME>
4488

> <PUBCHEM_EXT_DATASOURCE_REGID>
SCHEMBL16121671

> <PUBCHEM_SUBSTANCE_COMMENT>
InChI=1S/C25H27F2N5O3/c1-16-21(14-20(15-29-16)30-25(34)18-4-2-3-17(11-18)24(26)27)19-12-22(28-5-8-33)31-23(13-19)32-6-9-35-10-7-32/h2-4,11-15,24,33H,5-10H2,1H3,(H,28,31)(H,30,34)
InChIKey=WNCYYCZFDZCRER-UHFFFAOYSA-N

> <PUBCHEM_SUBSTANCE_SYNONYM>
SCHEMBL16121671

> <PUBCHEM_XREF_EXT_ID>
SCHEMBL16121671

> <PUBCHEM_EXT_DATASOURCE_URL>
https://www.surechembl.org/

> <PUBCHEM_EXT_SUBSTANCE_URL>
https://www.surechembl.org/chemical/SCHEMBL16121671

> <PUBCHEM_CID_ASSOCIATIONS>
117609995  1

> <PUBCHEM_COORDINATE_TYPE>
1
3

$$$$
