310931521
  -OEChem-07211613022D

 33 37  0     1  0  0  0  0  0999 V2000
    6.6812   -3.0102    0.0000 S   0  0  0  0  0  0  0  0  0  0  0  0
    5.6534   -7.3420    0.0000 F   0  0  0  0  0  0  0  0  0  0  0  0
    4.8457   -5.8369    0.0000 O   0  0  0  0  0  0  0  0  0  0  0  0
    8.1863   -5.9837    0.0000 O   0  0  0  0  0  0  0  0  0  0  0  0
    2.0558   -3.5976    0.0000 O   0  0  0  0  0  0  0  0  0  0  0  0
    0.8443    0.0000    0.0000 O   0  0  0  0  0  0  0  0  0  0  0  0
    6.6078   -4.4419    0.0000 N   0  0  0  0  0  0  0  0  0  0  0  0
    3.3039   -2.9001    0.0000 N   0  0  0  0  0  0  0  0  0  0  0  0
    7.8559   -3.7811    0.0000 N   0  0  0  0  0  0  0  0  0  0  0  0
    1.2481   -2.1659    0.0000 N   0  0  0  0  0  0  0  0  0  0  0  0
    5.7635   -4.4419    0.0000 C   0  0  3  0  0  0  0  0  0  0  0  0
    6.1306   -5.1761    0.0000 C   0  0  0  0  0  0  0  0  0  0  0  0
    4.8824   -4.4052    0.0000 C   0  0  0  0  0  0  0  0  0  0  0  0
    5.6900   -5.8736    0.0000 C   0  0  0  0  0  0  0  0  0  0  0  0
    4.4419   -5.1027    0.0000 C   0  0  0  0  0  0  0  0  0  0  0  0
    5.3964   -3.6710    0.0000 C   0  0  0  0  0  0  0  0  0  0  0  0
    6.9749   -5.2128    0.0000 C   0  0  0  0  0  0  0  0  0  0  0  0
    4.5154   -3.6343    0.0000 C   0  0  0  0  0  0  0  0  0  0  0  0
    6.0938   -6.6445    0.0000 C   0  0  0  0  0  0  0  0  0  0  0  0
    3.5976   -5.0659    0.0000 C   0  0  0  0  0  0  0  0  0  0  0  0
    7.0483   -3.7444    0.0000 C   0  0  0  0  0  0  0  0  0  0  0  0
    3.7077   -3.6343    0.0000 C   0  0  0  0  0  0  0  0  0  0  0  0
    7.3420   -5.9470    0.0000 C   0  0  0  0  0  0  0  0  0  0  0  0
    6.9015   -6.6445    0.0000 C   0  0  0  0  0  0  0  0  0  0  0  0
    5.8369   -2.9735    0.0000 C   0  0  0  0  0  0  0  0  0  0  0  0
    3.2672   -4.3318    0.0000 C   0  0  0  0  0  0  0  0  0  0  0  0
    2.4963   -2.9001    0.0000 C   0  0  0  0  0  0  0  0  0  0  0  0
    2.0558   -2.1659    0.0000 C   0  0  0  0  0  0  0  0  0  0  0  0
    2.5330   -1.4684    0.0000 C   0  0  0  0  0  0  0  0  0  0  0  0
    1.2481   -0.7342    0.0000 C   0  0  0  0  0  0  0  0  0  0  0  0
    0.8076   -1.4684    0.0000 C   0  0  0  0  0  0  0  0  0  0  0  0
    2.0558   -0.7342    0.0000 C   0  0  0  0  0  0  0  0  0  0  0  0
    0.0000    0.0000    0.0000 C   0  0  0  0  0  0  0  0  0  0  0  0
  1 21  1  0  0  0  0
  1 25  1  0  0  0  0
  2 19  1  0  0  0  0
  3 14  1  0  0  0  0
  3 15  1  0  0  0  0
  4 23  1  0  0  0  0
  5 27  2  0  0  0  0
  6 30  1  0  0  0  0
  6 33  1  0  0  0  0
 11  7  1  6  0  0  0
  7 21  2  0  0  0  0
  8 22  1  0  0  0  0
  8 27  1  0  0  0  0
  9 21  1  0  0  0  0
 10 28  1  0  0  0  0
 10 31  2  0  0  0  0
 11 12  1  0  0  0  0
 11 13  1  0  0  0  0
 11 16  1  0  0  0  0
 12 14  2  0  0  0  0
 12 17  1  0  0  0  0
 13 15  2  0  0  0  0
 13 18  1  0  0  0  0
 14 19  1  0  0  0  0
 15 20  1  0  0  0  0
 16 25  1  0  0  0  0
 17 23  2  0  0  0  0
 18 22  2  0  0  0  0
 19 24  2  0  0  0  0
 20 26  2  0  0  0  0
 22 26  1  0  0  0  0
 23 24  1  0  0  0  0
 27 28  1  0  0  0  0
 28 29  2  0  0  0  0
 29 32  1  0  0  0  0
 30 31  1  0  0  0  0
 30 32  2  0  0  0  0
M  END
> <PUBCHEM_COMPOUND_ID_TYPE>
0

> <PUBCHEM_TOTAL_CHARGE>
0

> <PUBCHEM_SUBSTANCE_ID>
310931521

> <PUBCHEM_SUBSTANCE_VERSION>
1

> <PUBCHEM_EXT_DATASOURCE_NAME>
4488

> <PUBCHEM_EXT_DATASOURCE_REGID>
SCHEMBL16108847

> <PUBCHEM_SUBSTANCE_COMMENT>
InChI=1S/C23H19FN4O4S/c1-31-14-3-4-18(26-11-14)21(30)27-12-2-5-19-15(8-12)23(6-7-33-22(25)28-23)16-9-13(29)10-17(24)20(16)32-19/h2-5,8-11,29H,6-7H2,1H3,(H2,25,28)(H,27,30)/t23-/m0/s1
InChIKey=ORIRAOZBBWMJBK-QHCPKHFHSA-N

> <PUBCHEM_SUBSTANCE_SYNONYM>
SCHEMBL16108847

> <PUBCHEM_XREF_EXT_ID>
SCHEMBL16108847

> <PUBCHEM_EXT_DATASOURCE_URL>
https://www.surechembl.org/

> <PUBCHEM_EXT_SUBSTANCE_URL>
https://www.surechembl.org/chemical/SCHEMBL16108847

> <PUBCHEM_CID_ASSOCIATIONS>
117600277  1

> <PUBCHEM_COORDINATE_TYPE>
1
3

> <PUBCHEM_BONDANNOTATIONS>
11  7  6

$$$$
