310932537
  -OEChem-07211613022D

 30 32  0     0  0  0  0  0  0999 V2000
    4.0546   -2.7387    0.0000 O   0  0  0  0  0  0  0  0  0  0  0  0
    8.5361   -2.8454    0.0000 O   0  0  0  0  0  0  0  0  0  0  0  0
    9.9588   -6.9711    0.0000 O   0  0  0  0  0  0  0  0  0  0  0  0
    4.9438   -1.6005    0.0000 N   0  0  0  0  0  0  0  0  0  0  0  0
    4.8727   -0.7825    0.0000 N   0  0  0  0  0  0  0  0  0  0  0  0
    6.3665   -1.6005    0.0000 N   0  0  0  0  0  0  0  0  0  0  0  0
    7.8248   -4.0546    0.0000 N   0  0  0  0  0  0  0  0  0  0  0  0
    0.0000   -2.4542    0.0000 N   0  0  0  0  0  0  0  0  0  0  0  0
    3.6278   -1.3160    0.0000 C   0  0  0  0  0  0  0  0  0  0  0  0
    4.1969   -1.9206    0.0000 C   0  0  0  0  0  0  0  0  0  0  0  0
    2.8098   -1.4227    0.0000 C   0  0  0  0  0  0  0  0  0  0  0  0
    5.6552   -1.9917    0.0000 C   0  0  0  0  0  0  0  0  0  0  0  0
    4.0546   -0.6046    0.0000 C   0  0  0  0  0  0  0  0  0  0  0  0
    2.3119   -0.7469    0.0000 C   0  0  0  0  0  0  0  0  0  0  0  0
    2.4897   -2.1696    0.0000 C   0  0  0  0  0  0  0  0  0  0  0  0
    5.6552   -2.8454    0.0000 C   0  0  0  0  0  0  0  0  0  0  0  0
    7.0778   -2.8454    0.0000 C   0  0  0  0  0  0  0  0  0  0  0  0
    1.4938   -0.8536    0.0000 C   0  0  0  0  0  0  0  0  0  0  0  0
    1.1737   -1.6005    0.0000 C   0  0  0  0  0  0  0  0  0  0  0  0
    7.0778   -1.9917    0.0000 C   0  0  0  0  0  0  0  0  0  0  0  0
    6.3665   -3.2366    0.0000 C   0  0  0  0  0  0  0  0  0  0  0  0
    1.6716   -2.2763    0.0000 C   0  0  0  0  0  0  0  0  0  0  0  0
    7.8248   -3.2366    0.0000 C   0  0  0  0  0  0  0  0  0  0  0  0
    2.6320    0.0000    0.0000 C   0  0  0  0  0  0  0  0  0  0  0  0
    0.3557   -1.7072    0.0000 C   0  0  0  0  0  0  0  0  0  0  0  0
    8.5361   -4.4814    0.0000 C   0  0  0  0  0  0  0  0  0  0  0  0
    8.5361   -5.2995    0.0000 C   0  0  0  0  0  0  0  0  0  0  0  0
    9.2474   -5.7263    0.0000 C   0  0  0  0  0  0  0  0  0  0  0  0
    9.2474   -6.5443    0.0000 C   0  0  0  0  0  0  0  0  0  0  0  0
   10.6701   -6.5443    0.0000 C   0  0  0  0  0  0  0  0  0  0  0  0
  1 10  1  0  0  0  0
  2 23  2  0  0  0  0
  3 29  1  0  0  0  0
  3 30  1  0  0  0  0
  4  5  1  0  0  0  0
  4 10  1  0  0  0  0
  4 12  1  0  0  0  0
  5 13  2  0  0  0  0
  6 12  2  0  0  0  0
  6 20  1  0  0  0  0
  7 23  1  0  0  0  0
  7 26  1  0  0  0  0
  8 25  3  0  0  0  0
  9 10  2  0  0  0  0
  9 11  1  0  0  0  0
  9 13  1  0  0  0  0
 11 14  1  0  0  0  0
 11 15  2  0  0  0  0
 12 16  1  0  0  0  0
 14 18  2  0  0  0  0
 14 24  1  0  0  0  0
 15 22  1  0  0  0  0
 16 21  2  0  0  0  0
 17 20  2  0  0  0  0
 17 21  1  0  0  0  0
 17 23  1  0  0  0  0
 18 19  1  0  0  0  0
 19 22  2  0  0  0  0
 19 25  1  0  0  0  0
 26 27  1  0  0  0  0
 27 28  1  0  0  0  0
 28 29  1  0  0  0  0
M  END
> <PUBCHEM_COMPOUND_ID_TYPE>
0

> <PUBCHEM_TOTAL_CHARGE>
0

> <PUBCHEM_SUBSTANCE_ID>
310932537

> <PUBCHEM_SUBSTANCE_VERSION>
1

> <PUBCHEM_EXT_DATASOURCE_NAME>
4488

> <PUBCHEM_EXT_DATASOURCE_REGID>
SCHEMBL16109912

> <PUBCHEM_SUBSTANCE_COMMENT>
InChI=1S/C22H23N5O3/c1-15-11-16(12-23)5-7-18(15)19-14-26-27(22(19)29)20-8-6-17(13-25-20)21(28)24-9-3-4-10-30-2/h5-8,11,13-14,29H,3-4,9-10H2,1-2H3,(H,24,28)
InChIKey=UZMSZIIAPRECEP-UHFFFAOYSA-N

> <PUBCHEM_SUBSTANCE_SYNONYM>
SCHEMBL16109912

> <PUBCHEM_XREF_EXT_ID>
SCHEMBL16109912

> <PUBCHEM_EXT_DATASOURCE_URL>
https://www.surechembl.org/

> <PUBCHEM_EXT_SUBSTANCE_URL>
https://www.surechembl.org/chemical/SCHEMBL16109912

> <PUBCHEM_CID_ASSOCIATIONS>
117601068  1

> <PUBCHEM_COORDINATE_TYPE>
1
3

$$$$
