310941532
  -OEChem-07211613022D

 29 32  0     0  0  0  0  0  0999 V2000
    0.7818    2.5600    0.0000 S   0  0  0  0  0  0  0  0  0  0  0  0
   -1.5549   -0.1031    0.0000 O   0  0  0  0  0  0  0  0  0  0  0  0
   -3.0153   -0.9450    0.0000 O   0  0  0  0  0  0  0  0  0  0  0  0
   -0.1117   -0.1031    0.0000 O   0  0  0  0  0  0  0  0  0  0  0  0
    3.6682    1.5635    0.0000 O   0  0  0  0  0  0  0  0  0  0  0  0
    0.6443    1.2199    0.0000 N   0  0  0  0  0  0  0  0  0  0  0  0
    2.0187    1.7524    0.0000 N   0  0  0  0  0  0  0  0  0  0  0  0
   -0.8505    1.1340    0.0000 C   0  0  0  0  0  0  0  0  0  0  0  0
   -2.2937    0.3265    0.0000 C   0  0  0  0  0  0  0  0  0  0  0  0
   -2.2765    1.1512    0.0000 C   0  0  0  0  0  0  0  0  0  0  0  0
   -0.1289    1.5635    0.0000 C   0  0  0  0  0  0  0  0  0  0  0  0
   -0.8677    0.3265    0.0000 C   0  0  0  0  0  0  0  0  0  0  0  0
   -1.5549    1.5635    0.0000 C   0  0  0  0  0  0  0  0  0  0  0  0
   -2.9981   -0.0859    0.0000 C   0  0  0  0  0  0  0  0  0  0  0  0
    1.1769    1.8555    0.0000 C   0  0  0  0  0  0  0  0  0  0  0  0
   -0.0258    2.3881    0.0000 C   0  0  0  0  0  0  0  0  0  0  0  0
   -2.9981    1.5463    0.0000 C   0  0  0  0  0  0  0  0  0  0  0  0
   -3.7197    0.3093    0.0000 C   0  0  0  0  0  0  0  0  0  0  0  0
    2.3452    0.9965    0.0000 C   0  0  0  0  0  0  0  0  0  0  0  0
   -3.7025    1.1512    0.0000 C   0  0  0  0  0  0  0  0  0  0  0  0
    3.1699    0.8934    0.0000 C   0  0  0  0  0  0  0  0  0  0  0  0
    1.8813    0.3093    0.0000 C   0  0  0  0  0  0  0  0  0  0  0  0
    3.5135    0.1546    0.0000 C   0  0  0  0  0  0  0  0  0  0  0  0
   -3.7025   -1.3401    0.0000 C   0  0  0  0  0  0  0  0  0  0  0  0
    2.2077   -0.4295    0.0000 C   0  0  0  0  0  0  0  0  0  0  0  0
    3.0496   -0.5155    0.0000 C   0  0  0  0  0  0  0  0  0  0  0  0
   -3.7369   -2.1820    0.0000 C   0  0  0  0  0  0  0  0  0  0  0  0
    4.4757    1.4604    0.0000 C   0  0  0  0  0  0  0  0  0  0  0  0
   -4.4757   -2.5600    0.0000 C   0  0  0  0  0  0  0  0  0  0  0  0
  1 15  1  0  0  0  0
  1 16  1  0  0  0  0
  2  9  1  0  0  0  0
  2 12  1  0  0  0  0
  3 14  1  0  0  0  0
  3 24  1  0  0  0  0
  4 12  2  0  0  0  0
  5 21  1  0  0  0  0
  5 28  1  0  0  0  0
  6 11  1  0  0  0  0
  6 15  2  0  0  0  0
  7 15  1  0  0  0  0
  7 19  1  0  0  0  0
  8 11  1  0  0  0  0
  8 12  1  0  0  0  0
  8 13  2  0  0  0  0
  9 10  1  0  0  0  0
  9 14  2  0  0  0  0
 10 13  1  0  0  0  0
 10 17  2  0  0  0  0
 11 16  2  0  0  0  0
 14 18  1  0  0  0  0
 17 20  1  0  0  0  0
 18 20  2  0  0  0  0
 19 21  1  0  0  0  0
 19 22  2  0  0  0  0
 21 23  2  0  0  0  0
 22 25  1  0  0  0  0
 23 26  1  0  0  0  0
 24 27  1  0  0  0  0
 25 26  2  0  0  0  0
 27 29  2  0  0  0  0
M  END
> <PUBCHEM_COMPOUND_ID_TYPE>
0

> <PUBCHEM_TOTAL_CHARGE>
0

> <PUBCHEM_SUBSTANCE_ID>
310941532

> <PUBCHEM_SUBSTANCE_VERSION>
1

> <PUBCHEM_EXT_DATASOURCE_NAME>
4488

> <PUBCHEM_EXT_DATASOURCE_REGID>
SCHEMBL16119563

> <PUBCHEM_SUBSTANCE_COMMENT>
InChI=1S/C22H18N2O4S/c1-3-11-27-19-10-6-7-14-12-15(21(25)28-20(14)19)17-13-29-22(24-17)23-16-8-4-5-9-18(16)26-2/h3-10,12-13H,1,11H2,2H3,(H,23,24)
InChIKey=RMAICHSCGWGKQI-UHFFFAOYSA-N

> <PUBCHEM_SUBSTANCE_SYNONYM>
SCHEMBL16119563

> <PUBCHEM_XREF_EXT_ID>
SCHEMBL16119563

> <PUBCHEM_EXT_DATASOURCE_URL>
https://www.surechembl.org/

> <PUBCHEM_EXT_SUBSTANCE_URL>
https://www.surechembl.org/chemical/SCHEMBL16119563

> <PUBCHEM_CID_ASSOCIATIONS>
117608340  1

> <PUBCHEM_COORDINATE_TYPE>
1
3

$$$$
