310942048
  -OEChem-07211613022D

 22 25  0     0  0  0  0  0  0999 V2000
   -2.7536    2.0623    0.0000 Br  0  0  0  0  0  0  0  0  0  0  0  0
   -1.6739   -2.7614    0.0000 F   0  0  0  0  0  0  0  0  0  0  0  0
    2.7536    2.2565    0.0000 O   0  0  0  0  0  0  0  0  0  0  0  0
   -0.2369   -0.2757    0.0000 N   0  0  0  0  0  0  0  0  0  0  0  0
    0.1670    0.9904    0.0000 C   0  0  0  0  0  0  0  0  0  0  0  0
    0.4233    0.2136    0.0000 C   0  0  0  0  0  0  0  0  0  0  0  0
   -0.6719    0.9981    0.0000 C   0  0  0  0  0  0  0  0  0  0  0  0
   -0.9282    0.2059    0.0000 C   0  0  0  0  0  0  0  0  0  0  0  0
    0.7263    1.6195    0.0000 C   0  0  0  0  0  0  0  0  0  0  0  0
    1.5186    1.4486    0.0000 C   0  0  0  0  0  0  0  0  0  0  0  0
    1.2389    0.0427    0.0000 C   0  0  0  0  0  0  0  0  0  0  0  0
   -1.2079    1.5962    0.0000 C   0  0  0  0  0  0  0  0  0  0  0  0
    1.9147    2.1633    0.0000 C   0  0  0  0  0  0  0  0  0  0  0  0
    1.7826    0.6486    0.0000 C   0  0  0  0  0  0  0  0  0  0  0  0
    0.6331    2.4274    0.0000 C   0  0  0  0  0  0  0  0  0  0  0  0
   -1.7283    0.0350    0.0000 C   0  0  0  0  0  0  0  0  0  0  0  0
   -0.2446   -1.1068    0.0000 C   0  0  0  0  0  0  0  0  0  0  0  0
   -2.0235    1.4331    0.0000 C   0  0  0  0  0  0  0  0  0  0  0  0
    1.3787    2.7614    0.0000 C   0  0  0  0  0  0  0  0  0  0  0  0
   -2.2797    0.6486    0.0000 C   0  0  0  0  0  0  0  0  0  0  0  0
   -0.9593   -1.5263    0.0000 C   0  0  0  0  0  0  0  0  0  0  0  0
   -0.9593   -2.3574    0.0000 C   0  0  0  0  0  0  0  0  0  0  0  0
  1 18  1  0  0  0  0
  2 22  1  0  0  0  0
  3 13  2  0  0  0  0
  4  6  1  0  0  0  0
  4  8  1  0  0  0  0
  4 17  1  0  0  0  0
  5  6  2  0  0  0  0
  5  7  1  0  0  0  0
  5  9  1  0  0  0  0
  6 11  1  0  0  0  0
  7  8  1  0  0  0  0
  7 12  2  0  0  0  0
  8 16  2  0  0  0  0
  9 10  2  0  0  0  0
  9 15  1  0  0  0  0
 10 13  1  0  0  0  0
 10 14  1  0  0  0  0
 11 14  2  0  0  0  0
 12 18  1  0  0  0  0
 13 19  1  0  0  0  0
 15 19  1  0  0  0  0
 16 20  1  0  0  0  0
 17 21  1  0  0  0  0
 18 20  2  0  0  0  0
 21 22  1  0  0  0  0
M  END
> <PUBCHEM_COMPOUND_ID_TYPE>
0

> <PUBCHEM_TOTAL_CHARGE>
0

> <PUBCHEM_SUBSTANCE_ID>
310942048

> <PUBCHEM_SUBSTANCE_VERSION>
1

> <PUBCHEM_EXT_DATASOURCE_NAME>
4488

> <PUBCHEM_EXT_DATASOURCE_REGID>
SCHEMBL16120083

> <PUBCHEM_SUBSTANCE_COMMENT>
InChI=1S/C18H15BrFNO/c19-11-2-5-15-14(10-11)18-13-4-7-17(22)12(13)3-6-16(18)21(15)9-1-8-20/h2-3,5-6,10H,1,4,7-9H2
InChIKey=ZEANEZJIZYDYCJ-UHFFFAOYSA-N

> <PUBCHEM_SUBSTANCE_SYNONYM>
SCHEMBL16120083

> <PUBCHEM_XREF_EXT_ID>
SCHEMBL16120083

> <PUBCHEM_EXT_DATASOURCE_URL>
https://www.surechembl.org/

> <PUBCHEM_EXT_SUBSTANCE_URL>
https://www.surechembl.org/chemical/SCHEMBL16120083

> <PUBCHEM_CID_ASSOCIATIONS>
86274764  1

> <PUBCHEM_COORDINATE_TYPE>
1
3

$$$$
