310946893
  -OEChem-07211613022D

 20 22  0     1  0  0  0  0  0999 V2000
    2.4725   -1.1559    0.0000 S   0  0  0  0  0  0  0  0  0  0  0  0
    1.7555   -1.5638    0.0000 O   0  0  0  0  0  0  0  0  0  0  0  0
   -1.1002   -1.5638    0.0000 O   0  0  0  0  0  0  0  0  0  0  0  0
    2.4725   -0.3276    0.0000 O   0  0  0  0  0  0  0  0  0  0  0  0
    2.4725   -1.9842    0.0000 O   0  0  0  0  0  0  0  0  0  0  0  0
    3.1772   -1.5638    0.0000 O   0  0  0  0  0  0  0  0  0  0  0  0
   -0.3709   -0.3276    0.0000 N   0  0  0  0  0  0  0  0  0  0  0  0
    1.0632   -1.1559    0.0000 N   0  0  0  0  0  0  0  0  0  0  0  0
   -1.8668    0.6490    0.0000 N   0  0  0  0  0  0  0  0  0  0  0  0
   -1.0756    1.7370    0.0000 N   0  0  0  0  0  0  0  0  0  0  0  0
   -2.3489    1.3166    0.0000 N   0  0  0  0  0  0  0  0  0  0  0  0
   -1.8668    1.9842    0.0000 N   0  0  0  0  0  0  0  0  0  0  0  0
   -0.3462   -1.1312    0.0000 C   0  0  0  0  0  0  0  0  0  0  0  0
    1.1002   -0.3029    0.0000 C   0  0  3  0  0  0  0  0  0  0  0  0
   -0.3585    0.5007    0.0000 C   0  0  3  0  0  0  0  0  0  0  0  0
    0.3462   -0.7356    0.0000 C   0  0  0  0  0  0  0  0  0  0  0  0
   -1.0879    0.9087    0.0000 C   0  0  0  0  0  0  0  0  0  0  0  0
    1.0509    0.5007    0.0000 C   0  0  0  0  0  0  0  0  0  0  0  0
    0.3338    0.9087    0.0000 C   0  0  0  0  0  0  0  0  0  0  0  0
   -3.1772    1.3166    0.0000 C   0  0  0  0  0  0  0  0  0  0  0  0
  1  2  1  0  0  0  0
  1  4  2  0  0  0  0
  1  5  2  0  0  0  0
  1  6  1  0  0  0  0
  2  8  1  0  0  0  0
  3 13  2  0  0  0  0
  7 13  1  0  0  0  0
  7 15  1  0  0  0  0
  7 16  1  0  0  0  0
  8 13  1  0  0  0  0
  8 14  1  0  0  0  0
  9 11  1  0  0  0  0
  9 17  2  0  0  0  0
 10 12  2  0  0  0  0
 10 17  1  0  0  0  0
 11 12  1  0  0  0  0
 11 20  1  0  0  0  0
 14 16  1  0  0  0  0
 14 18  1  0  0  0  0
 15 17  1  6  0  0  0
 15 19  1  0  0  0  0
 18 19  1  0  0  0  0
M  END
> <PUBCHEM_COMPOUND_ID_TYPE>
0

> <PUBCHEM_TOTAL_CHARGE>
0

> <PUBCHEM_SUBSTANCE_ID>
310946893

> <PUBCHEM_SUBSTANCE_VERSION>
1

> <PUBCHEM_EXT_DATASOURCE_NAME>
4488

> <PUBCHEM_EXT_DATASOURCE_REGID>
SCHEMBL16125017

> <PUBCHEM_SUBSTANCE_COMMENT>
InChI=1S/C8H12N6O5S/c1-12-10-7(9-11-12)6-3-2-5-4-13(6)8(15)14(5)19-20(16,17)18/h5-6H,2-4H2,1H3,(H,16,17,18)/t5?,6-/m0/s1
InChIKey=ZFHDWRVNXVQODI-GDVGLLTNSA-N

> <PUBCHEM_SUBSTANCE_SYNONYM>
SCHEMBL16125017

> <PUBCHEM_XREF_EXT_ID>
SCHEMBL16125017

> <PUBCHEM_EXT_DATASOURCE_URL>
https://www.surechembl.org/

> <PUBCHEM_EXT_SUBSTANCE_URL>
https://www.surechembl.org/chemical/SCHEMBL16125017

> <PUBCHEM_CID_ASSOCIATIONS>
117612751  1

> <PUBCHEM_COORDINATE_TYPE>
1
3

> <PUBCHEM_BONDANNOTATIONS>
15  17  6

$$$$
