310948512
  -OEChem-07211613022D

 35 39  0     1  0  0  0  0  0999 V2000
    2.6917   -2.9414    0.0000 F   0  0  0  0  0  0  0  0  0  0  0  0
    3.2651   -3.9033    0.0000 F   0  0  0  0  0  0  0  0  0  0  0  0
    2.2662   -4.4584    0.0000 F   0  0  0  0  0  0  0  0  0  0  0  0
   -2.5436   -3.1634    0.0000 O   0  0  0  0  0  0  0  0  0  0  0  0
   -1.0267   -0.8140    0.0000 N   0  0  0  0  0  0  0  0  0  0  0  0
   -0.5458   -1.4984    0.0000 N   0  0  0  0  0  0  0  0  0  0  0  0
   -0.7678   -2.9599    0.0000 N   0  0  0  0  0  0  0  0  0  0  0  0
   -3.2651   -1.9055    0.0000 N   0  0  0  0  0  0  0  0  0  0  0  0
   -0.0463    2.3679    0.0000 N   0  0  0  0  0  0  0  0  0  0  0  0
    1.1377   -1.0914    0.0000 N   0  0  0  0  0  0  0  0  0  0  0  0
   -1.8407   -1.9055    0.0000 C   0  0  0  0  0  0  0  0  0  0  0  0
   -1.8222   -1.0730    0.0000 C   0  0  0  0  0  0  0  0  0  0  0  0
   -1.0267   -2.1644    0.0000 C   0  0  0  0  0  0  0  0  0  0  0  0
   -0.7678    0.0000    0.0000 C   0  0  3  0  0  0  0  0  0  0  0  0
   -2.5252   -2.2939    0.0000 C   0  0  0  0  0  0  0  0  0  0  0  0
    0.0463    0.1480    0.0000 C   0  0  3  0  0  0  0  0  0  0  0  0
   -2.5621   -0.6660    0.0000 C   0  0  0  0  0  0  0  0  0  0  0  0
   -1.3042    0.6105    0.0000 C   0  0  0  0  0  0  0  0  0  0  0  0
    0.0463   -3.1264    0.0000 C   0  0  0  0  0  0  0  0  0  0  0  0
   -3.2467   -1.0545    0.0000 C   0  0  0  0  0  0  0  0  0  0  0  0
    0.2867    0.9620    0.0000 C   0  0  0  0  0  0  0  0  0  0  0  0
   -0.2682    1.5725    0.0000 C   0  0  3  0  0  0  0  0  0  0  0  0
   -1.0637    1.3875    0.0000 C   0  0  0  0  0  0  0  0  0  0  0  0
    0.6012   -0.4810    0.0000 C   0  0  0  0  0  0  0  0  0  0  0  0
    0.3052   -3.9033    0.0000 C   0  0  0  0  0  0  0  0  0  0  0  0
    0.6012   -2.5159    0.0000 C   0  0  0  0  0  0  0  0  0  0  0  0
    1.6557   -3.4593    0.0000 C   0  0  0  0  0  0  0  0  0  0  0  0
    2.4697   -3.6999    0.0000 C   0  0  0  0  0  0  0  0  0  0  0  0
    1.1007   -4.0883    0.0000 C   0  0  0  0  0  0  0  0  0  0  0  0
    1.3967   -2.6824    0.0000 C   0  0  0  0  0  0  0  0  0  0  0  0
   -0.4533    3.0894    0.0000 C   0  0  3  0  0  0  0  0  0  0  0  0
    0.1572    3.7184    0.0000 C   0  0  0  0  0  0  0  0  0  0  0  0
    0.3423    4.4584    0.0000 C   0  0  0  0  0  0  0  0  0  0  0  0
    0.8972    3.9033    0.0000 C   0  0  0  0  0  0  0  0  0  0  0  0
   -1.2857    3.0894    0.0000 C   0  0  0  0  0  0  0  0  0  0  0  0
  1 28  1  0  0  0  0
  2 28  1  0  0  0  0
  3 28  1  0  0  0  0
  4 15  2  0  0  0  0
  5  6  1  0  0  0  0
  5 12  1  0  0  0  0
 14  5  1  6  0  0  0
  6 13  2  0  0  0  0
  7 13  1  0  0  0  0
  7 19  1  0  0  0  0
  8 15  1  0  0  0  0
  8 20  1  0  0  0  0
 22  9  1  1  0  0  0
  9 31  1  0  0  0  0
 10 24  3  0  0  0  0
 11 12  2  0  0  0  0
 11 13  1  0  0  0  0
 11 15  1  0  0  0  0
 12 17  1  0  0  0  0
 14 16  1  0  0  0  0
 14 18  1  0  0  0  0
 16 21  1  0  0  0  0
 16 24  1  1  0  0  0
 17 20  2  0  0  0  0
 18 23  1  0  0  0  0
 19 25  2  0  0  0  0
 19 26  1  0  0  0  0
 21 22  1  0  0  0  0
 22 23  1  0  0  0  0
 25 29  1  0  0  0  0
 26 30  2  0  0  0  0
 27 28  1  0  0  0  0
 27 29  2  0  0  0  0
 27 30  1  0  0  0  0
 31 32  1  0  0  0  0
 31 35  1  1  0  0  0
 32 33  1  0  0  0  0
 32 34  1  0  0  0  0
 33 34  1  0  0  0  0
M  END
> <PUBCHEM_COMPOUND_ID_TYPE>
0

> <PUBCHEM_TOTAL_CHARGE>
0

> <PUBCHEM_SUBSTANCE_ID>
310948512

> <PUBCHEM_SUBSTANCE_VERSION>
1

> <PUBCHEM_EXT_DATASOURCE_NAME>
4488

> <PUBCHEM_EXT_DATASOURCE_REGID>
SCHEMBL16126694

> <PUBCHEM_SUBSTANCE_COMMENT>
InChI=1S/C25H27F3N6O/c1-14(15-2-3-15)31-19-8-9-20(16(12-19)13-29)34-21-10-11-30-24(35)22(21)23(33-34)32-18-6-4-17(5-7-18)25(26,27)28/h4-7,10-11,14-16,19-20,31H,2-3,8-9,12H2,1H3,(H,30,35)(H,32,33)/t14-,16-,19+,20+/m0/s1
InChIKey=HAOJRYPDUQJHGB-QTLCSOKXSA-N

> <PUBCHEM_SUBSTANCE_SYNONYM>
SCHEMBL16126694

> <PUBCHEM_XREF_EXT_ID>
SCHEMBL16126694

> <PUBCHEM_EXT_DATASOURCE_URL>
https://www.surechembl.org/

> <PUBCHEM_EXT_SUBSTANCE_URL>
https://www.surechembl.org/chemical/SCHEMBL16126694

> <PUBCHEM_CID_ASSOCIATIONS>
117614069  1

> <PUBCHEM_COORDINATE_TYPE>
1
3

> <PUBCHEM_BONDANNOTATIONS>
16  24  5
31  35  5
14  5  6
22  9  5

$$$$
