310942794
  -OEChem-07211613022D

 39 42  0     1  0  0  0  0  0999 V2000
    0.9672   -1.0788    0.0000 Cl  0  0  0  0  0  0  0  0  0  0  0  0
   -3.7012    1.3205    0.0000 Cl  0  0  0  0  0  0  0  0  0  0  0  0
    2.3435    1.4507    0.0000 S   0  0  0  0  0  0  0  0  0  0  0  0
    2.3435    3.1805    0.0000 S   0  0  0  0  0  0  0  0  0  0  0  0
    0.8927    2.2691    0.0000 F   0  0  0  0  0  0  0  0  0  0  0  0
   -0.5022   -0.2790    0.0000 O   0  0  0  0  0  0  0  0  0  0  0  0
    1.9158    2.1575    0.0000 O   0  0  0  0  0  0  0  0  0  0  0  0
    2.7899    0.7440    0.0000 O   0  0  0  0  0  0  0  0  0  0  0  0
   -0.4278   -3.6083    0.0000 O   0  0  0  0  0  0  0  0  0  0  0  0
    1.7483   -3.9617    0.0000 O   0  0  0  0  0  0  0  0  0  0  0  0
    0.2976   -3.9989    0.0000 O   0  0  0  0  0  0  0  0  0  0  0  0
    3.0689    1.8972    0.0000 N   0  0  0  0  0  0  0  0  0  0  0  0
    3.7012    3.2363    0.0000 N   0  0  0  0  0  0  0  0  0  0  0  0
   -1.8972   -2.7899    0.0000 N   0  0  0  0  0  0  0  0  0  0  0  0
    2.6039    3.9989    0.0000 N   0  0  0  0  0  0  0  0  0  0  0  0
    0.2604   -2.3250    0.0000 N   0  0  0  0  0  0  0  0  0  0  0  0
    1.6367    1.0230    0.0000 C   0  0  0  0  0  0  0  0  0  0  0  0
    0.8927    1.4135    0.0000 C   0  0  0  0  0  0  0  0  0  0  0  0
    0.2232    0.1674    0.0000 C   0  0  0  0  0  0  0  0  0  0  0  0
    0.9486   -0.2232    0.0000 C   0  0  0  0  0  0  0  0  0  0  0  0
    1.6367    0.1860    0.0000 C   0  0  0  0  0  0  0  0  0  0  0  0
    0.2046    0.9858    0.0000 C   0  0  0  0  0  0  0  0  0  0  0  0
   -1.2462    0.1302    0.0000 C   0  0  0  0  0  0  0  0  0  0  0  0
   -1.9343   -0.2976    0.0000 C   0  0  0  0  0  0  0  0  0  0  0  0
   -1.9529   -1.1346    0.0000 C   0  0  0  0  0  0  0  0  0  0  0  0
    3.0503    2.7341    0.0000 C   0  0  0  0  0  0  0  0  0  0  0  0
   -2.6597    0.1116    0.0000 C   0  0  0  0  0  0  0  0  0  0  0  0
   -1.2648    0.9672    0.0000 C   0  0  0  0  0  0  0  0  0  0  0  0
   -1.2089   -1.5251    0.0000 C   0  0  0  0  0  0  0  0  0  0  0  0
   -2.6969    0.9300    0.0000 C   0  0  0  0  0  0  0  0  0  0  0  0
   -1.1904   -2.3621    0.0000 C   0  0  0  0  0  0  0  0  0  0  0  0
   -2.6411   -1.5624    0.0000 C   0  0  0  0  0  0  0  0  0  0  0  0
   -1.9902    1.3391    0.0000 C   0  0  0  0  0  0  0  0  0  0  0  0
   -0.4464   -2.7527    0.0000 C   0  0  0  0  0  0  0  0  0  0  0  0
   -2.6225   -2.3807    0.0000 C   0  0  0  0  0  0  0  0  0  0  0  0
    3.4409    3.9989    0.0000 C   0  0  0  0  0  0  0  0  0  0  0  0
    1.0043   -2.7341    0.0000 C   0  0  3  0  0  0  0  0  0  0  0  0
    0.9858   -3.5525    0.0000 C   0  0  0  0  0  0  0  0  0  0  0  0
    1.6926   -2.3063    0.0000 C   0  0  0  0  0  0  0  0  0  0  0  0
  1 20  1  0  0  0  0
  2 30  1  0  0  0  0
  3  7  2  0  0  0  0
  3  8  2  0  0  0  0
  3 12  1  0  0  0  0
  3 17  1  0  0  0  0
  4 15  1  0  0  0  0
  4 26  1  0  0  0  0
  5 18  1  0  0  0  0
  6 19  1  0  0  0  0
  6 23  1  0  0  0  0
  9 34  2  0  0  0  0
 10 38  2  0  0  0  0
 11 38  1  0  0  0  0
 12 26  1  0  0  0  0
 13 26  2  0  0  0  0
 13 36  1  0  0  0  0
 14 31  1  0  0  0  0
 14 35  2  0  0  0  0
 15 36  2  0  0  0  0
 16 34  1  0  0  0  0
 16 37  1  0  0  0  0
 17 18  1  0  0  0  0
 17 21  2  0  0  0  0
 18 22  2  0  0  0  0
 19 20  2  0  0  0  0
 19 22  1  0  0  0  0
 20 21  1  0  0  0  0
 23 24  2  0  0  0  0
 23 28  1  0  0  0  0
 24 25  1  0  0  0  0
 24 27  1  0  0  0  0
 25 29  1  0  0  0  0
 25 32  2  0  0  0  0
 27 30  2  0  0  0  0
 28 33  2  0  0  0  0
 29 31  2  0  0  0  0
 30 33  1  0  0  0  0
 31 34  1  0  0  0  0
 32 35  1  0  0  0  0
 37 38  1  0  0  0  0
 37 39  1  6  0  0  0
M  END
> <PUBCHEM_COMPOUND_ID_TYPE>
0

> <PUBCHEM_TOTAL_CHARGE>
0

> <PUBCHEM_SUBSTANCE_ID>
310942794

> <PUBCHEM_SUBSTANCE_VERSION>
1

> <PUBCHEM_EXT_DATASOURCE_NAME>
4488

> <PUBCHEM_EXT_DATASOURCE_REGID>
SCHEMBL16120847

> <PUBCHEM_SUBSTANCE_COMMENT>
InChI=1S/C23H16Cl2FN5O6S2/c1-11(22(33)34)30-21(32)17-6-12(4-5-27-17)14-7-13(24)2-3-18(14)37-19-9-16(26)20(8-15(19)25)39(35,36)31-23-28-10-29-38-23/h2-11H,1H3,(H,30,32)(H,33,34)(H,28,29,31)/t11-/m1/s1
InChIKey=QXDYIMFUBBMMFL-LLVKDONJSA-N

> <PUBCHEM_SUBSTANCE_SYNONYM>
SCHEMBL16120847

> <PUBCHEM_XREF_EXT_ID>
SCHEMBL16120847

> <PUBCHEM_EXT_DATASOURCE_URL>
https://www.surechembl.org/

> <PUBCHEM_EXT_SUBSTANCE_URL>
https://www.surechembl.org/chemical/SCHEMBL16120847

> <PUBCHEM_CID_ASSOCIATIONS>
85471748  1

> <PUBCHEM_COORDINATE_TYPE>
1
3

> <PUBCHEM_BONDANNOTATIONS>
37  39  6

$$$$
