310948374
  -OEChem-07211613022D

 35 39  0     1  0  0  0  0  0999 V2000
   -2.5902    2.5995    0.0000 O   0  0  0  0  0  0  0  0  0  0  0  0
    0.0277   -3.2817    0.0000 O   0  0  0  0  0  0  0  0  0  0  0  0
    0.1567    2.4336    0.0000 N   0  0  0  0  0  0  0  0  0  0  0  0
   -0.1751    1.6777    0.0000 N   0  0  0  0  0  0  0  0  0  0  0  0
   -1.5579    1.1799    0.0000 N   0  0  0  0  0  0  0  0  0  0  0  0
   -1.8713    3.8532    0.0000 N   0  0  0  0  0  0  0  0  0  0  0  0
    0.8573   -1.5487    0.0000 N   0  0  0  0  0  0  0  0  0  0  0  0
    1.7053   -2.5626    0.0000 N   0  0  0  0  0  0  0  0  0  0  0  0
    1.6500   -1.7515    0.0000 N   0  0  0  0  0  0  0  0  0  0  0  0
    1.0416    0.4056    0.0000 N   0  0  0  0  0  0  0  0  0  0  0  0
   -1.1338    2.5995    0.0000 C   0  0  0  0  0  0  0  0  0  0  0  0
   -0.4701    3.0051    0.0000 C   0  0  0  0  0  0  0  0  0  0  0  0
   -1.0048    1.8067    0.0000 C   0  0  0  0  0  0  0  0  0  0  0  0
    0.9679    2.5995    0.0000 C   0  0  3  0  0  0  0  0  0  0  0  0
   -1.8713    3.0235    0.0000 C   0  0  0  0  0  0  0  0  0  0  0  0
   -0.4333    3.8163    0.0000 C   0  0  0  0  0  0  0  0  0  0  0  0
    1.5210    1.9911    0.0000 C   0  0  3  0  0  0  0  0  0  0  0  0
   -1.3182    0.3872    0.0000 C   0  0  0  0  0  0  0  0  0  0  0  0
   -1.1338    4.2587    0.0000 C   0  0  0  0  0  0  0  0  0  0  0  0
    1.2444    3.3922    0.0000 C   0  0  0  0  0  0  0  0  0  0  0  0
    2.3322    2.1570    0.0000 C   0  0  0  0  0  0  0  0  0  0  0  0
   -0.5070    0.1844    0.0000 C   0  0  0  0  0  0  0  0  0  0  0  0
   -0.2674   -0.5900    0.0000 C   0  0  0  0  0  0  0  0  0  0  0  0
    0.9495   -2.8576    0.0000 C   0  0  0  0  0  0  0  0  0  0  0  0
    1.2628    1.1799    0.0000 C   0  0  0  0  0  0  0  0  0  0  0  0
    2.0556    3.5397    0.0000 C   0  0  0  0  0  0  0  0  0  0  0  0
   -1.8528   -0.2397    0.0000 C   0  0  0  0  0  0  0  0  0  0  0  0
    0.7098   -3.6688    0.0000 C   0  0  0  0  0  0  0  0  0  0  0  0
    2.5902    2.9497    0.0000 C   0  0  0  0  0  0  0  0  0  0  0  0
    0.5623   -0.7743    0.0000 C   0  0  0  0  0  0  0  0  0  0  0  0
    0.4148   -2.2308    0.0000 C   0  0  0  0  0  0  0  0  0  0  0  0
   -0.8020   -1.1984    0.0000 C   0  0  0  0  0  0  0  0  0  0  0  0
   -1.6131   -1.0140    0.0000 C   0  0  0  0  0  0  0  0  0  0  0  0
    1.3735   -4.2587    0.0000 C   0  0  0  0  0  0  0  0  0  0  0  0
   -0.0646   -3.9269    0.0000 C   0  0  0  0  0  0  0  0  0  0  0  0
  1 15  2  0  0  0  0
  2 28  1  0  0  0  0
  3  4  1  0  0  0  0
  3 12  1  0  0  0  0
 14  3  1  1  0  0  0
  4 13  2  0  0  0  0
  5 13  1  0  0  0  0
  5 18  1  0  0  0  0
  6 15  1  0  0  0  0
  6 19  1  0  0  0  0
  7  9  1  0  0  0  0
  7 30  1  0  0  0  0
  7 31  1  0  0  0  0
  8  9  2  0  0  0  0
  8 24  1  0  0  0  0
 10 25  3  0  0  0  0
 11 12  2  0  0  0  0
 11 13  1  0  0  0  0
 11 15  1  0  0  0  0
 12 16  1  0  0  0  0
 14 17  1  0  0  0  0
 14 20  1  0  0  0  0
 16 19  2  0  0  0  0
 17 21  1  0  0  0  0
 17 25  1  6  0  0  0
 18 22  1  0  0  0  0
 18 27  2  0  0  0  0
 20 26  1  0  0  0  0
 21 29  1  0  0  0  0
 22 23  2  0  0  0  0
 23 30  1  0  0  0  0
 23 32  1  0  0  0  0
 24 28  1  0  0  0  0
 24 31  2  0  0  0  0
 26 29  1  0  0  0  0
 27 33  1  0  0  0  0
 28 34  1  0  0  0  0
 28 35  1  0  0  0  0
 32 33  2  0  0  0  0
M  END
> <PUBCHEM_COMPOUND_ID_TYPE>
0

> <PUBCHEM_TOTAL_CHARGE>
0

> <PUBCHEM_SUBSTANCE_ID>
310948374

> <PUBCHEM_SUBSTANCE_VERSION>
1

> <PUBCHEM_EXT_DATASOURCE_NAME>
4488

> <PUBCHEM_EXT_DATASOURCE_REGID>
SCHEMBL16126555

> <PUBCHEM_SUBSTANCE_COMMENT>
InChI=1S/C25H28N8O2/c1-25(2,35)21-15-32(31-29-21)14-16-6-5-8-18(12-16)28-23-22-20(10-11-27-24(22)34)33(30-23)19-9-4-3-7-17(19)13-26/h5-6,8,10-12,15,17,19,35H,3-4,7,9,14H2,1-2H3,(H,27,34)(H,28,30)/t17-,19+/m1/s1
InChIKey=XKLZUPAFXVYMQF-MJGOQNOKSA-N

> <PUBCHEM_SUBSTANCE_SYNONYM>
SCHEMBL16126555

> <PUBCHEM_XREF_EXT_ID>
SCHEMBL16126555

> <PUBCHEM_EXT_DATASOURCE_URL>
https://www.surechembl.org/

> <PUBCHEM_EXT_SUBSTANCE_URL>
https://www.surechembl.org/chemical/SCHEMBL16126555

> <PUBCHEM_CID_ASSOCIATIONS>
117613937  1

> <PUBCHEM_COORDINATE_TYPE>
1
3

> <PUBCHEM_BONDANNOTATIONS>
17  25  6
14  3  5

$$$$
