310946365
  -OEChem-07211613022D

 21 22  0     0  0  0  0  0  0999 V2000
   -0.8201    0.4149    0.0000 I   0  0  0  0  0  0  0  0  0  0  0  0
    0.6088    2.8899    0.0000 I   0  0  0  0  0  0  0  0  0  0  0  0
   -3.6780    2.0649    0.0000 I   0  0  0  0  0  0  0  0  0  0  0  0
   -0.8201    2.0649    0.0000 O   0  0  0  0  0  0  0  0  0  0  0  0
   -3.6780    0.4149    0.0000 O   0  0  0  0  0  0  0  0  0  0  0  0
    2.7522    1.6524    0.0000 O   0  0  0  0  0  0  0  0  0  0  0  0
   -0.1057    1.6524    0.0000 C   0  0  0  0  0  0  0  0  0  0  0  0
   -0.1057    0.8274    0.0000 C   0  0  0  0  0  0  0  0  0  0  0  0
    0.6088    2.0649    0.0000 C   0  0  0  0  0  0  0  0  0  0  0  0
   -1.5346    1.6524    0.0000 C   0  0  0  0  0  0  0  0  0  0  0  0
    1.3233    0.8274    0.0000 C   0  0  0  0  0  0  0  0  0  0  0  0
    0.6088    0.4149    0.0000 C   0  0  0  0  0  0  0  0  0  0  0  0
    1.3233    1.6524    0.0000 C   0  0  0  0  0  0  0  0  0  0  0  0
   -2.2491    2.0649    0.0000 C   0  0  0  0  0  0  0  0  0  0  0  0
   -2.9635    1.6524    0.0000 C   0  0  0  0  0  0  0  0  0  0  0  0
   -1.5346    0.8274    0.0000 C   0  0  0  0  0  0  0  0  0  0  0  0
   -2.9635    0.8274    0.0000 C   0  0  0  0  0  0  0  0  0  0  0  0
   -2.2491    0.4149    0.0000 C   0  0  0  0  0  0  0  0  0  0  0  0
    2.0377    0.4149    0.0000 C   0  0  0  0  0  0  0  0  0  0  0  0
    2.7522    0.8274    0.0000 C   0  0  0  0  0  0  0  0  0  0  0  0
    3.4667    0.4149    0.0000 C   0  0  0  0  0  0  0  0  0  0  0  0
  1  8  1  0  0  0  0
  2  9  1  0  0  0  0
  3 15  1  0  0  0  0
  4  7  1  0  0  0  0
  4 10  1  0  0  0  0
  5 17  1  0  0  0  0
  6 20  2  0  0  0  0
  7  8  2  0  0  0  0
  7  9  1  0  0  0  0
  8 12  1  0  0  0  0
  9 13  2  0  0  0  0
 10 14  2  0  0  0  0
 10 16  1  0  0  0  0
 11 12  2  0  0  0  0
 11 13  1  0  0  0  0
 11 19  1  0  0  0  0
 14 15  1  0  0  0  0
 15 17  2  0  0  0  0
 16 18  2  0  0  0  0
 17 18  1  0  0  0  0
 19 20  1  0  0  0  0
 20 21  1  0  0  0  0
M  END
> <PUBCHEM_COMPOUND_ID_TYPE>
0

> <PUBCHEM_TOTAL_CHARGE>
0

> <PUBCHEM_SUBSTANCE_ID>
310946365

> <PUBCHEM_SUBSTANCE_VERSION>
1

> <PUBCHEM_EXT_DATASOURCE_NAME>
4488

> <PUBCHEM_EXT_DATASOURCE_REGID>
SCHEMBL16124484

> <PUBCHEM_SUBSTANCE_COMMENT>
InChI=1S/C15H11I3O3/c1-8(19)4-9-5-12(17)15(13(18)6-9)21-10-2-3-14(20)11(16)7-10/h2-3,5-7,20H,4H2,1H3
InChIKey=MAYUSTDDFBCQCA-UHFFFAOYSA-N

> <PUBCHEM_SUBSTANCE_SYNONYM>
SCHEMBL16124484

> <PUBCHEM_XREF_EXT_ID>
SCHEMBL16124484

> <PUBCHEM_EXT_DATASOURCE_URL>
https://www.surechembl.org/

> <PUBCHEM_EXT_SUBSTANCE_URL>
https://www.surechembl.org/chemical/SCHEMBL16124484

> <PUBCHEM_CID_ASSOCIATIONS>
117612287  1

> <PUBCHEM_COORDINATE_TYPE>
1
3

$$$$
