310948331
  -OEChem-07211613022D

 20 22  0     1  0  0  0  0  0999 V2000
   -2.7173    0.1798    0.0000 O   0  0  0  0  0  0  0  0  0  0  0  0
    0.0622    0.0830    0.0000 N   0  0  0  0  0  0  0  0  0  0  0  0
   -0.2696   -0.6776    0.0000 N   0  0  0  0  0  0  0  0  0  0  0  0
   -2.0120    1.4381    0.0000 N   0  0  0  0  0  0  0  0  0  0  0  0
   -1.6386   -1.2169    0.0000 N   0  0  0  0  0  0  0  0  0  0  0  0
    0.6568   -1.8668    0.0000 N   0  0  0  0  0  0  0  0  0  0  0  0
   -0.5876    0.6361    0.0000 C   0  0  0  0  0  0  0  0  0  0  0  0
   -1.2653    0.2212    0.0000 C   0  0  0  0  0  0  0  0  0  0  0  0
   -1.0994   -0.5808    0.0000 C   0  0  0  0  0  0  0  0  0  0  0  0
    0.8505    0.2627    0.0000 C   0  0  3  0  0  0  0  0  0  0  0  0
   -1.9843    0.6222    0.0000 C   0  0  0  0  0  0  0  0  0  0  0  0
   -0.5738    1.4658    0.0000 C   0  0  0  0  0  0  0  0  0  0  0  0
    1.3759   -0.3733    0.0000 C   0  0  3  0  0  0  0  0  0  0  0  0
   -1.3068    1.8668    0.0000 C   0  0  0  0  0  0  0  0  0  0  0  0
    1.0579    1.0786    0.0000 C   0  0  0  0  0  0  0  0  0  0  0  0
    2.2055   -0.3733    0.0000 C   0  0  0  0  0  0  0  0  0  0  0  0
    1.0026   -1.1339    0.0000 C   0  0  0  0  0  0  0  0  0  0  0  0
    1.7769    1.4243    0.0000 C   0  0  0  0  0  0  0  0  0  0  0  0
    2.7173    0.2627    0.0000 C   0  0  0  0  0  0  0  0  0  0  0  0
    2.5375    1.0648    0.0000 C   0  0  0  0  0  0  0  0  0  0  0  0
  1 11  2  0  0  0  0
  2  3  1  0  0  0  0
  2  7  1  0  0  0  0
 10  2  1  1  0  0  0
  3  9  2  0  0  0  0
  4 11  1  0  0  0  0
  4 14  1  0  0  0  0
  5  9  1  0  0  0  0
  6 17  3  0  0  0  0
  7  8  2  0  0  0  0
  7 12  1  0  0  0  0
  8  9  1  0  0  0  0
  8 11  1  0  0  0  0
 10 13  1  0  0  0  0
 10 15  1  0  0  0  0
 12 14  2  0  0  0  0
 13 16  1  0  0  0  0
 13 17  1  1  0  0  0
 15 18  1  0  0  0  0
 16 19  1  0  0  0  0
 18 20  1  0  0  0  0
 19 20  1  0  0  0  0
M  END
> <PUBCHEM_COMPOUND_ID_TYPE>
0

> <PUBCHEM_TOTAL_CHARGE>
0

> <PUBCHEM_SUBSTANCE_ID>
310948331

> <PUBCHEM_SUBSTANCE_VERSION>
1

> <PUBCHEM_EXT_DATASOURCE_NAME>
4488

> <PUBCHEM_EXT_DATASOURCE_REGID>
SCHEMBL16126509

> <PUBCHEM_SUBSTANCE_COMMENT>
InChI=1S/C14H17N5O/c15-8-9-4-2-1-3-5-10(9)19-11-6-7-17-14(20)12(11)13(16)18-19/h6-7,9-10H,1-5H2,(H2,16,18)(H,17,20)/t9-,10-/m0/s1
InChIKey=LEQMCYARURHXCV-UWVGGRQHSA-N

> <PUBCHEM_SUBSTANCE_SYNONYM>
SCHEMBL16126509

> <PUBCHEM_XREF_EXT_ID>
SCHEMBL16126509

> <PUBCHEM_EXT_DATASOURCE_URL>
https://www.surechembl.org/

> <PUBCHEM_EXT_SUBSTANCE_URL>
https://www.surechembl.org/chemical/SCHEMBL16126509

> <PUBCHEM_CID_ASSOCIATIONS>
117613896  1

> <PUBCHEM_COORDINATE_TYPE>
1
3

> <PUBCHEM_BONDANNOTATIONS>
13  17  5
10  2  5

$$$$
