310946326
  -OEChem-07211613022D

 34 36  0     0  0  0  0  0  0999 V2000
   -0.1819    9.1823    0.0000 I   0  0  0  0  0  0  0  0  0  0  0  0
    1.2469   11.6571    0.0000 I   0  0  0  0  0  0  0  0  0  0  0  0
    4.8191   10.4197    0.0000 S   0  0  0  0  0  0  0  0  0  0  0  0
   -0.1819   10.8321    0.0000 O   0  0  0  0  0  0  0  0  0  0  0  0
   -3.0396    9.1823    0.0000 O   0  0  0  0  0  0  0  0  0  0  0  0
   -3.0396   11.6571    0.0000 O   0  0  0  0  0  0  0  0  0  0  0  0
    4.1047    8.3572    0.0000 O   0  0  0  0  0  0  0  0  0  0  0  0
    3.9942   10.4197    0.0000 O   0  0  0  0  0  0  0  0  0  0  0  0
    5.6440   10.4197    0.0000 O   0  0  0  0  0  0  0  0  0  0  0  0
   -3.7540   10.4197    0.0000 N   0  0  0  0  0  0  0  0  0  0  0  0
    4.8191    9.5947    0.0000 N   0  0  0  0  0  0  0  0  0  0  0  0
    0.5325   10.4197    0.0000 C   0  0  0  0  0  0  0  0  0  0  0  0
   -0.8963   10.4197    0.0000 C   0  0  0  0  0  0  0  0  0  0  0  0
    0.5325    9.5947    0.0000 C   0  0  0  0  0  0  0  0  0  0  0  0
    1.2469   10.8321    0.0000 C   0  0  0  0  0  0  0  0  0  0  0  0
   -2.3253   10.4197    0.0000 C   0  0  0  0  0  0  0  0  0  0  0  0
    1.9613    9.5947    0.0000 C   0  0  0  0  0  0  0  0  0  0  0  0
   -1.6107   10.8321    0.0000 C   0  0  0  0  0  0  0  0  0  0  0  0
   -2.3253    9.5947    0.0000 C   0  0  0  0  0  0  0  0  0  0  0  0
    1.2469    9.1823    0.0000 C   0  0  0  0  0  0  0  0  0  0  0  0
    1.9613   10.4197    0.0000 C   0  0  0  0  0  0  0  0  0  0  0  0
   -3.0396   10.8321    0.0000 C   0  0  0  0  0  0  0  0  0  0  0  0
   -0.8963    9.5947    0.0000 C   0  0  0  0  0  0  0  0  0  0  0  0
   -1.6107    9.1823    0.0000 C   0  0  0  0  0  0  0  0  0  0  0  0
    2.6759    9.1823    0.0000 C   0  0  0  0  0  0  0  0  0  0  0  0
   -4.4685   10.8321    0.0000 C   0  0  0  0  0  0  0  0  0  0  0  0
    3.3902    9.5947    0.0000 C   0  0  0  0  0  0  0  0  0  0  0  0
    4.1047    9.1823    0.0000 C   0  0  0  0  0  0  0  0  0  0  0  0
   -4.4685   11.6571    0.0000 C   0  0  0  0  0  0  0  0  0  0  0  0
   -5.1828   10.4197    0.0000 C   0  0  0  0  0  0  0  0  0  0  0  0
   -5.1828   12.0695    0.0000 C   0  0  0  0  0  0  0  0  0  0  0  0
   -5.8973   10.8321    0.0000 C   0  0  0  0  0  0  0  0  0  0  0  0
   -5.8973   11.6571    0.0000 C   0  0  0  0  0  0  0  0  0  0  0  0
    4.8191   11.2445    0.0000 C   0  0  0  0  0  0  0  0  0  0  0  0
  1 14  1  0  0  0  0
  2 15  1  0  0  0  0
  3  8  2  0  0  0  0
  3  9  2  0  0  0  0
  3 11  1  0  0  0  0
  3 34  1  0  0  0  0
  4 12  1  0  0  0  0
  4 13  1  0  0  0  0
  5 19  1  0  0  0  0
  6 22  2  0  0  0  0
  7 28  2  0  0  0  0
 10 22  1  0  0  0  0
 10 26  1  0  0  0  0
 11 28  1  0  0  0  0
 12 14  2  0  0  0  0
 12 15  1  0  0  0  0
 13 18  2  0  0  0  0
 13 23  1  0  0  0  0
 14 20  1  0  0  0  0
 15 21  2  0  0  0  0
 16 18  1  0  0  0  0
 16 19  2  0  0  0  0
 16 22  1  0  0  0  0
 17 20  2  0  0  0  0
 17 21  1  0  0  0  0
 17 25  1  0  0  0  0
 19 24  1  0  0  0  0
 23 24  2  0  0  0  0
 25 27  1  0  0  0  0
 26 29  2  0  0  0  0
 26 30  1  0  0  0  0
 27 28  1  0  0  0  0
 29 31  1  0  0  0  0
 30 32  2  0  0  0  0
 31 33  2  0  0  0  0
 32 33  1  0  0  0  0
M  END
> <PUBCHEM_COMPOUND_ID_TYPE>
0

> <PUBCHEM_TOTAL_CHARGE>
0

> <PUBCHEM_SUBSTANCE_ID>
310946326

> <PUBCHEM_SUBSTANCE_VERSION>
1

> <PUBCHEM_EXT_DATASOURCE_NAME>
4488

> <PUBCHEM_EXT_DATASOURCE_REGID>
SCHEMBL16124445

> <PUBCHEM_SUBSTANCE_COMMENT>
InChI=1S/C23H20I2N2O6S/c1-34(31,32)27-21(29)10-7-14-11-18(24)22(19(25)12-14)33-16-8-9-20(28)17(13-16)23(30)26-15-5-3-2-4-6-15/h2-6,8-9,11-13,28H,7,10H2,1H3,(H,26,30)(H,27,29)
InChIKey=XKHXJODGJJPGGZ-UHFFFAOYSA-N

> <PUBCHEM_SUBSTANCE_SYNONYM>
SCHEMBL16124445

> <PUBCHEM_XREF_EXT_ID>
SCHEMBL16124445

> <PUBCHEM_EXT_DATASOURCE_URL>
https://www.surechembl.org/

> <PUBCHEM_EXT_SUBSTANCE_URL>
https://www.surechembl.org/chemical/SCHEMBL16124445

> <PUBCHEM_CID_ASSOCIATIONS>
117612257  1

> <PUBCHEM_COORDINATE_TYPE>
1
3

$$$$
