310937450
  -OEChem-07211613022D

 31 33  0     1  0  0  0  0  0999 V2000
    2.8653   -0.2892    0.0000 O   0  0  0  0  0  0  0  0  0  0  0  0
    2.8653   -2.7865    0.0000 O   0  0  0  0  0  0  0  0  0  0  0  0
    1.4458   -1.9453    0.0000 O   0  0  0  0  0  0  0  0  0  0  0  0
    5.7307   -0.2892    0.0000 O   0  0  0  0  0  0  0  0  0  0  0  0
    4.2848   -2.7865    0.0000 O   0  0  0  0  0  0  0  0  0  0  0  0
    2.1293   -3.1808    0.0000 O   0  0  0  0  0  0  0  0  0  0  0  0
    7.1765   -0.2892    0.0000 O   0  0  0  0  0  0  0  0  0  0  0  0
    3.5751   -1.5247    0.0000 C   0  0  0  0  0  0  0  0  0  0  0  0
    2.1293   -0.7098    0.0000 C   0  0  0  0  0  0  0  0  0  0  0  0
    2.8653   -1.9453    0.0000 C   0  0  3  0  0  0  0  0  0  0  0  0
    2.1293   -1.5247    0.0000 C   0  0  3  0  0  0  0  0  0  0  0  0
    3.5751   -0.7098    0.0000 C   0  0  0  0  0  0  0  0  0  0  0  0
    4.2848   -1.9453    0.0000 C   0  0  0  0  0  0  0  0  0  0  0  0
    5.0209   -1.5247    0.0000 C   0  0  0  0  0  0  0  0  0  0  0  0
    5.0209   -0.7098    0.0000 C   0  0  0  0  0  0  0  0  0  0  0  0
    4.2848   -0.2892    0.0000 C   0  0  0  0  0  0  0  0  0  0  0  0
    1.3144   -0.7098    0.0000 C   0  0  0  0  0  0  0  0  0  0  0  0
    1.7349    0.0000    0.0000 C   0  0  0  0  0  0  0  0  0  0  0  0
    5.7307   -1.9453    0.0000 C   0  0  0  0  0  0  0  0  0  0  0  0
    3.5751   -3.1808    0.0000 C   0  0  0  0  0  0  0  0  0  0  0  0
    1.4458   -2.7865    0.0000 C   0  0  0  0  0  0  0  0  0  0  0  0
    6.4404   -0.7098    0.0000 C   0  0  0  0  0  0  0  0  0  0  0  0
    6.4404   -1.5247    0.0000 C   0  0  0  0  0  0  0  0  0  0  0  0
    3.5751   -4.0220    0.0000 C   0  0  0  0  0  0  0  0  0  0  0  0
    0.7098   -3.1808    0.0000 C   0  0  0  0  0  0  0  0  0  0  0  0
    4.2848   -4.4163    0.0000 C   0  0  0  0  0  0  0  0  0  0  0  0
    0.7098   -4.0220    0.0000 C   0  0  0  0  0  0  0  0  0  0  0  0
    4.2848   -5.2575    0.0000 C   0  0  0  0  0  0  0  0  0  0  0  0
    5.0209   -4.0220    0.0000 C   0  0  0  0  0  0  0  0  0  0  0  0
    0.0000   -4.4426    0.0000 C   0  0  0  0  0  0  0  0  0  0  0  0
    1.4458   -4.4426    0.0000 C   0  0  0  0  0  0  0  0  0  0  0  0
  1  9  1  0  0  0  0
  1 12  1  0  0  0  0
 10  2  1  1  0  0  0
  2 20  1  0  0  0  0
 11  3  1  6  0  0  0
  3 21  1  0  0  0  0
  4 15  1  0  0  0  0
  4 22  1  0  0  0  0
  5 20  2  0  0  0  0
  6 21  2  0  0  0  0
  7 22  2  0  0  0  0
  8 10  1  0  0  0  0
  8 12  2  0  0  0  0
  8 13  1  0  0  0  0
  9 11  1  0  0  0  0
  9 17  1  0  0  0  0
  9 18  1  0  0  0  0
 10 11  1  0  0  0  0
 12 16  1  0  0  0  0
 13 14  2  0  0  0  0
 14 15  1  0  0  0  0
 14 19  1  0  0  0  0
 15 16  2  0  0  0  0
 19 23  2  0  0  0  0
 20 24  1  0  0  0  0
 21 25  1  0  0  0  0
 22 23  1  0  0  0  0
 24 26  2  0  0  0  0
 25 27  2  0  0  0  0
 26 28  1  0  0  0  0
 26 29  1  0  0  0  0
 27 30  1  0  0  0  0
 27 31  1  0  0  0  0
M  END
> <PUBCHEM_COMPOUND_ID_TYPE>
0

> <PUBCHEM_TOTAL_CHARGE>
0

> <PUBCHEM_SUBSTANCE_ID>
310937450

> <PUBCHEM_SUBSTANCE_VERSION>
1

> <PUBCHEM_EXT_DATASOURCE_NAME>
4488

> <PUBCHEM_EXT_DATASOURCE_REGID>
SCHEMBL16115218

> <PUBCHEM_SUBSTANCE_COMMENT>
InChI=1S/C24H26O7/c1-13(2)9-20(26)29-22-16-11-15-7-8-19(25)28-17(15)12-18(16)31-24(5,6)23(22)30-21(27)10-14(3)4/h7-12,22-23H,1-6H3/t22-,23+/m1/s1
InChIKey=SYRXQLPUGCYKFH-PKTZIBPZSA-N

> <PUBCHEM_SUBSTANCE_SYNONYM>
SCHEMBL16115218

> <PUBCHEM_XREF_EXT_ID>
SCHEMBL16115218

> <PUBCHEM_EXT_DATASOURCE_URL>
https://www.surechembl.org/

> <PUBCHEM_EXT_SUBSTANCE_URL>
https://www.surechembl.org/chemical/SCHEMBL16115218

> <PUBCHEM_CID_ASSOCIATIONS>
15521791  1

> <PUBCHEM_COORDINATE_TYPE>
1
3

> <PUBCHEM_BONDANNOTATIONS>
10  2  5
11  3  6

$$$$
