310941966
  -OEChem-07211613022D

 31 34  0     0  0  0  0  0  0999 V2000
   -2.2828   -5.9045    0.0000 F   0  0  0  0  0  0  0  0  0  0  0  0
    2.2732   -1.2534    0.0000 O   0  0  0  0  0  0  0  0  0  0  0  0
    2.0349    1.7013    0.0000 O   0  0  0  0  0  0  0  0  0  0  0  0
    2.0540    3.8840    0.0000 O   0  0  0  0  0  0  0  0  0  0  0  0
   -0.8625   -3.4360    0.0000 N   0  0  0  0  0  0  0  0  0  0  0  0
    1.1962   -0.3098    0.0000 N   0  0  0  0  0  0  0  0  0  0  0  0
    2.8927    5.9045    0.0000 N   0  0  0  0  0  0  0  0  0  0  0  0
   -0.4432   -2.1684    0.0000 C   0  0  0  0  0  0  0  0  0  0  0  0
   -0.1954   -2.9403    0.0000 C   0  0  0  0  0  0  0  0  0  0  0  0
   -1.2914   -2.1588    0.0000 C   0  0  0  0  0  0  0  0  0  0  0  0
    0.1000   -1.5393    0.0000 C   0  0  0  0  0  0  0  0  0  0  0  0
   -1.5393   -2.9499    0.0000 C   0  0  0  0  0  0  0  0  0  0  0  0
    0.9102   -1.7108    0.0000 C   0  0  0  0  0  0  0  0  0  0  0  0
    0.6243   -3.1214    0.0000 C   0  0  0  0  0  0  0  0  0  0  0  0
    1.4440   -1.0817    0.0000 C   0  0  0  0  0  0  0  0  0  0  0  0
    1.1675   -2.5114    0.0000 C   0  0  0  0  0  0  0  0  0  0  0  0
   -0.1382   -0.7578    0.0000 C   0  0  0  0  0  0  0  0  0  0  0  0
   -1.8252   -1.5584    0.0000 C   0  0  0  0  0  0  0  0  0  0  0  0
   -2.3495   -3.1214    0.0000 C   0  0  0  0  0  0  0  0  0  0  0  0
   -0.8625   -4.2652    0.0000 C   0  0  0  0  0  0  0  0  0  0  0  0
    0.3956   -0.1573    0.0000 C   0  0  0  0  0  0  0  0  0  0  0  0
   -2.6353   -1.7299    0.0000 C   0  0  0  0  0  0  0  0  0  0  0  0
   -2.8927   -2.5209    0.0000 C   0  0  0  0  0  0  0  0  0  0  0  0
    1.7490    0.3002    0.0000 C   0  0  0  0  0  0  0  0  0  0  0  0
   -1.5584   -4.6750    0.0000 C   0  0  0  0  0  0  0  0  0  0  0  0
    1.4916    1.0817    0.0000 C   0  0  0  0  0  0  0  0  0  0  0  0
   -1.5774   -5.4948    0.0000 C   0  0  0  0  0  0  0  0  0  0  0  0
    1.7776    2.4542    0.0000 C   0  0  0  0  0  0  0  0  0  0  0  0
    2.3208    3.1119    0.0000 C   0  0  0  0  0  0  0  0  0  0  0  0
    2.5972    4.5130    0.0000 C   0  0  0  0  0  0  0  0  0  0  0  0
    2.3399    5.2850    0.0000 C   0  0  0  0  0  0  0  0  0  0  0  0
  1 27  1  0  0  0  0
  2 15  2  0  0  0  0
  3 26  1  0  0  0  0
  3 28  1  0  0  0  0
  4 29  1  0  0  0  0
  4 30  1  0  0  0  0
  5  9  1  0  0  0  0
  5 12  1  0  0  0  0
  5 20  1  0  0  0  0
  6 15  1  0  0  0  0
  6 21  1  0  0  0  0
  6 24  1  0  0  0  0
  7 31  1  0  0  0  0
  8  9  2  0  0  0  0
  8 10  1  0  0  0  0
  8 11  1  0  0  0  0
  9 14  1  0  0  0  0
 10 12  1  0  0  0  0
 10 18  2  0  0  0  0
 11 13  2  0  0  0  0
 11 17  1  0  0  0  0
 12 19  2  0  0  0  0
 13 15  1  0  0  0  0
 13 16  1  0  0  0  0
 14 16  2  0  0  0  0
 17 21  2  0  0  0  0
 18 22  1  0  0  0  0
 19 23  1  0  0  0  0
 20 25  1  0  0  0  0
 22 23  2  0  0  0  0
 24 26  1  0  0  0  0
 25 27  1  0  0  0  0
 28 29  1  0  0  0  0
 30 31  1  0  0  0  0
M  END
> <PUBCHEM_COMPOUND_ID_TYPE>
0

> <PUBCHEM_TOTAL_CHARGE>
0

> <PUBCHEM_SUBSTANCE_ID>
310941966

> <PUBCHEM_SUBSTANCE_VERSION>
1

> <PUBCHEM_EXT_DATASOURCE_NAME>
4488

> <PUBCHEM_EXT_DATASOURCE_REGID>
SCHEMBL16120000

> <PUBCHEM_SUBSTANCE_COMMENT>
InChI=1S/C24H28FN3O3/c25-9-3-11-28-21-5-2-1-4-20(21)23-18-8-12-27(13-15-31-17-16-30-14-10-26)24(29)19(18)6-7-22(23)28/h1-2,4-8,12H,3,9-11,13-17,26H2
InChIKey=PWQBXXVMMPCSTB-UHFFFAOYSA-N

> <PUBCHEM_SUBSTANCE_SYNONYM>
SCHEMBL16120000

> <PUBCHEM_XREF_EXT_ID>
SCHEMBL16120000

> <PUBCHEM_EXT_DATASOURCE_URL>
https://www.surechembl.org/

> <PUBCHEM_EXT_SUBSTANCE_URL>
https://www.surechembl.org/chemical/SCHEMBL16120000

> <PUBCHEM_CID_ASSOCIATIONS>
117608678  1

> <PUBCHEM_COORDINATE_TYPE>
1
3

$$$$
