310949145
  -OEChem-07211613022D

 51 60  0     0  0  0  0  0  0999 V2000
   -0.0445    1.1140    0.0000 N   0  0  0  0  0  0  0  0  0  0  0  0
   -0.0595   -4.6491    0.0000 N   0  0  0  0  0  0  0  0  0  0  0  0
    2.1241   -0.9952    0.0000 N   0  0  0  0  0  0  0  0  0  0  0  0
   -1.5893   -1.4853    0.0000 C   0  0  0  0  0  0  0  0  0  0  0  0
   -0.8021   -1.7676    0.0000 C   0  0  0  0  0  0  0  0  0  0  0  0
   -0.8021   -2.5697    0.0000 C   0  0  0  0  0  0  0  0  0  0  0  0
   -0.0595   -1.3517    0.0000 C   0  0  0  0  0  0  0  0  0  0  0  0
   -2.0795   -2.1537    0.0000 C   0  0  0  0  0  0  0  0  0  0  0  0
   -1.6042   -2.8073    0.0000 C   0  0  0  0  0  0  0  0  0  0  0  0
   -1.3814   -0.6833    0.0000 C   0  0  0  0  0  0  0  0  0  0  0  0
   -2.3469   -1.2625    0.0000 C   0  0  0  0  0  0  0  0  0  0  0  0
    0.6090    1.8566    0.0000 C   0  0  0  0  0  0  0  0  0  0  0  0
   -0.0891   -2.9707    0.0000 C   0  0  0  0  0  0  0  0  0  0  0  0
    0.6684   -1.7527    0.0000 C   0  0  0  0  0  0  0  0  0  0  0  0
   -0.7576    1.8270    0.0000 C   0  0  0  0  0  0  0  0  0  0  0  0
    0.3416    2.6142    0.0000 C   0  0  0  0  0  0  0  0  0  0  0  0
   -0.4901    2.6290    0.0000 C   0  0  0  0  0  0  0  0  0  0  0  0
    1.9755    2.3023    0.0000 C   0  0  0  0  0  0  0  0  0  0  0  0
    1.7081    3.0598    0.0000 C   0  0  0  0  0  0  0  0  0  0  0  0
    0.6536   -2.5845    0.0000 C   0  0  0  0  0  0  0  0  0  0  0  0
   -2.8370   -2.2429    0.0000 C   0  0  0  0  0  0  0  0  0  0  0  0
    2.8073    2.3023    0.0000 C   0  0  0  0  0  0  0  0  0  0  0  0
    1.3962    1.7081    0.0000 C   0  0  0  0  0  0  0  0  0  0  0  0
   -1.9309   -3.5499    0.0000 C   0  0  0  0  0  0  0  0  0  0  0  0
    0.9061    3.2232    0.0000 C   0  0  0  0  0  0  0  0  0  0  0  0
    2.3914    3.5499    0.0000 C   0  0  0  0  0  0  0  0  0  0  0  0
    3.0598    3.0746    0.0000 C   0  0  0  0  0  0  0  0  0  0  0  0
   -0.5793   -0.4901    0.0000 C   0  0  0  0  0  0  0  0  0  0  0  0
   -2.5399   -0.4753    0.0000 C   0  0  0  0  0  0  0  0  0  0  0  0
   -1.9309   -0.1485    0.0000 C   0  0  0  0  0  0  0  0  0  0  0  0
   -2.8965   -1.8270    0.0000 C   0  0  0  0  0  0  0  0  0  0  0  0
   -1.5596    1.6933    0.0000 C   0  0  0  0  0  0  0  0  0  0  0  0
   -0.0743   -3.8174    0.0000 C   0  0  0  0  0  0  0  0  0  0  0  0
    1.3814   -1.3665    0.0000 C   0  0  0  0  0  0  0  0  0  0  0  0
   -1.0694    3.2232    0.0000 C   0  0  0  0  0  0  0  0  0  0  0  0
   -3.1786   -3.0004    0.0000 C   0  0  0  0  0  0  0  0  0  0  0  0
   -2.7033   -3.6242    0.0000 C   0  0  0  0  0  0  0  0  0  0  0  0
    2.4805    4.3223    0.0000 C   0  0  0  0  0  0  0  0  0  0  0  0
    3.8322    3.3866    0.0000 C   0  0  0  0  0  0  0  0  0  0  0  0
   -0.3416    0.2971    0.0000 C   0  0  0  0  0  0  0  0  0  0  0  0
   -3.3271   -0.2673    0.0000 C   0  0  0  0  0  0  0  0  0  0  0  0
   -1.7527    0.6684    0.0000 C   0  0  0  0  0  0  0  0  0  0  0  0
   -3.6985   -1.6190    0.0000 C   0  0  0  0  0  0  0  0  0  0  0  0
    3.6837    2.2874    0.0000 C   0  0  0  0  0  0  0  0  0  0  0  0
    2.6142    1.5002    0.0000 C   0  0  0  0  0  0  0  0  0  0  0  0
   -2.0944    2.2577    0.0000 C   0  0  0  0  0  0  0  0  0  0  0  0
   -1.8566    3.0301    0.0000 C   0  0  0  0  0  0  0  0  0  0  0  0
   -0.9506    0.8764    0.0000 C   0  0  0  0  0  0  0  0  0  0  0  0
   -3.9065   -0.8169    0.0000 C   0  0  0  0  0  0  0  0  0  0  0  0
    3.2381    4.6491    0.0000 C   0  0  0  0  0  0  0  0  0  0  0  0
    3.9065    4.1887    0.0000 C   0  0  0  0  0  0  0  0  0  0  0  0
  1  7  1  0  0  0  0
  1 12  1  0  0  0  0
  1 15  1  0  0  0  0
  2 33  3  0  0  0  0
  3 34  3  0  0  0  0
  4  5  1  0  0  0  0
  4  8  1  0  0  0  0
  4 10  1  0  0  0  0
  4 11  1  0  0  0  0
  5  6  2  0  0  0  0
  5  7  1  0  0  0  0
  6  9  1  0  0  0  0
  6 13  1  0  0  0  0
  7 14  2  0  0  0  0
  8  9  2  0  0  0  0
  8 21  1  0  0  0  0
  9 24  1  0  0  0  0
 10 28  2  0  0  0  0
 10 30  1  0  0  0  0
 11 29  2  0  0  0  0
 11 31  1  0  0  0  0
 12 16  2  0  0  0  0
 12 23  1  0  0  0  0
 13 20  2  0  0  0  0
 13 33  1  0  0  0  0
 14 20  1  0  0  0  0
 14 34  1  0  0  0  0
 15 17  2  0  0  0  0
 15 32  1  0  0  0  0
 16 17  1  0  0  0  0
 16 25  1  0  0  0  0
 17 35  1  0  0  0  0
 18 19  1  0  0  0  0
 18 22  1  0  0  0  0
 18 23  2  0  0  0  0
 19 25  2  0  0  0  0
 19 26  1  0  0  0  0
 21 36  2  0  0  0  0
 22 27  1  0  0  0  0
 22 44  1  0  0  0  0
 22 45  1  0  0  0  0
 24 37  2  0  0  0  0
 26 27  2  0  0  0  0
 26 38  1  0  0  0  0
 27 39  1  0  0  0  0
 28 40  1  0  0  0  0
 29 41  1  0  0  0  0
 30 42  2  0  0  0  0
 31 43  2  0  0  0  0
 32 46  2  0  0  0  0
 35 47  2  0  0  0  0
 36 37  1  0  0  0  0
 38 50  2  0  0  0  0
 39 51  2  0  0  0  0
 40 48  2  0  0  0  0
 41 49  2  0  0  0  0
 42 48  1  0  0  0  0
 43 49  1  0  0  0  0
 46 47  1  0  0  0  0
 50 51  1  0  0  0  0
M  END
> <PUBCHEM_COMPOUND_ID_TYPE>
0

> <PUBCHEM_TOTAL_CHARGE>
0

> <PUBCHEM_SUBSTANCE_ID>
310949145

> <PUBCHEM_SUBSTANCE_VERSION>
1

> <PUBCHEM_EXT_DATASOURCE_NAME>
4488

> <PUBCHEM_EXT_DATASOURCE_REGID>
SCHEMBL16127335

> <PUBCHEM_SUBSTANCE_COMMENT>
InChI=1S/C48H31N3/c1-47(2)39-22-12-9-19-34(39)37-26-38-35-20-11-14-24-42(35)51(43(38)27-41(37)47)46-31(29-50)25-30(28-49)44-36-21-10-13-23-40(36)48(45(44)46,32-15-5-3-6-16-32)33-17-7-4-8-18-33/h3-27H,1-2H3
InChIKey=NJVQLNPLTYVXSE-UHFFFAOYSA-N

> <PUBCHEM_SUBSTANCE_SYNONYM>
SCHEMBL16127335

> <PUBCHEM_XREF_EXT_ID>
SCHEMBL16127335

> <PUBCHEM_EXT_DATASOURCE_URL>
https://www.surechembl.org/

> <PUBCHEM_EXT_SUBSTANCE_URL>
https://www.surechembl.org/chemical/SCHEMBL16127335

> <PUBCHEM_CID_ASSOCIATIONS>
117614641  1

> <PUBCHEM_COORDINATE_TYPE>
1
3

$$$$
