310930706
  -OEChem-07211613022D

 32 35  0     0  0  0  0  0  0999 V2000
   -6.4303    0.8250    0.0000 S   0  0  0  0  0  0  0  0  0  0  0  0
   -6.0178    1.5395    0.0000 O   0  0  0  0  0  0  0  0  0  0  0  0
   -6.8428    0.1106    0.0000 O   0  0  0  0  0  0  0  0  0  0  0  0
   -9.2883    2.4750    0.0000 O   0  0  0  0  0  0  0  0  0  0  0  0
   -2.1434   -1.6500    0.0000 O   0  0  0  0  0  0  0  0  0  0  0  0
    0.0000   -0.4125    0.0000 N   0  0  0  0  0  0  0  0  0  0  0  0
    0.7846    0.6674    0.0000 N   0  0  0  0  0  0  0  0  0  0  0  0
   -2.8579   -0.4125    0.0000 N   0  0  0  0  0  0  0  0  0  0  0  0
   -5.7159    0.4125    0.0000 C   0  0  0  0  0  0  0  0  0  0  0  0
   -7.1448    1.2375    0.0000 C   0  0  0  0  0  0  0  0  0  0  0  0
   -5.0013    0.8250    0.0000 C   0  0  0  0  0  0  0  0  0  0  0  0
   -5.7159   -0.4125    0.0000 C   0  0  0  0  0  0  0  0  0  0  0  0
    0.0000    0.4125    0.0000 C   0  0  0  0  0  0  0  0  0  0  0  0
   -7.1448    2.0625    0.0000 C   0  0  0  0  0  0  0  0  0  0  0  0
   -7.8593    0.8250    0.0000 C   0  0  0  0  0  0  0  0  0  0  0  0
   -1.4290   -0.4125    0.0000 C   0  0  0  0  0  0  0  0  0  0  0  0
   -4.2869   -0.4125    0.0000 C   0  0  0  0  0  0  0  0  0  0  0  0
   -0.7145   -0.8250    0.0000 C   0  0  0  0  0  0  0  0  0  0  0  0
   -4.2869    0.4125    0.0000 C   0  0  0  0  0  0  0  0  0  0  0  0
   -5.0013   -0.8250    0.0000 C   0  0  0  0  0  0  0  0  0  0  0  0
   -2.1434   -0.8250    0.0000 C   0  0  0  0  0  0  0  0  0  0  0  0
   -8.5738    2.0625    0.0000 C   0  0  0  0  0  0  0  0  0  0  0  0
   -7.8593    2.4750    0.0000 C   0  0  0  0  0  0  0  0  0  0  0  0
   -8.5738    1.2375    0.0000 C   0  0  0  0  0  0  0  0  0  0  0  0
   -0.7145    0.8250    0.0000 C   0  0  0  0  0  0  0  0  0  0  0  0
   -1.4290    0.4125    0.0000 C   0  0  0  0  0  0  0  0  0  0  0  0
    0.7846   -0.6674    0.0000 C   0  0  0  0  0  0  0  0  0  0  0  0
   -3.5724   -0.8250    0.0000 C   0  0  0  0  0  0  0  0  0  0  0  0
    1.2696    0.0000    0.0000 C   0  0  0  0  0  0  0  0  0  0  0  0
  -10.0027    2.0625    0.0000 C   0  0  0  0  0  0  0  0  0  0  0  0
  -10.7172    2.4750    0.0000 C   0  0  0  0  0  0  0  0  0  0  0  0
  -11.4317    2.0625    0.0000 C   0  0  0  0  0  0  0  0  0  0  0  0
  1  2  2  0  0  0  0
  1  3  2  0  0  0  0
  1  9  1  0  0  0  0
  1 10  1  0  0  0  0
  4 22  1  0  0  0  0
  4 30  1  0  0  0  0
  5 21  2  0  0  0  0
  6 13  1  0  0  0  0
  6 18  1  0  0  0  0
  6 27  1  0  0  0  0
  7 13  2  0  0  0  0
  7 29  1  0  0  0  0
  8 21  1  0  0  0  0
  8 28  1  0  0  0  0
  9 11  2  0  0  0  0
  9 12  1  0  0  0  0
 10 14  2  0  0  0  0
 10 15  1  0  0  0  0
 11 19  1  0  0  0  0
 12 20  2  0  0  0  0
 13 25  1  0  0  0  0
 14 23  1  0  0  0  0
 15 24  2  0  0  0  0
 16 18  2  0  0  0  0
 16 21  1  0  0  0  0
 16 26  1  0  0  0  0
 17 19  2  0  0  0  0
 17 20  1  0  0  0  0
 17 28  1  0  0  0  0
 22 23  2  0  0  0  0
 22 24  1  0  0  0  0
 25 26  2  0  0  0  0
 27 29  2  0  0  0  0
 30 31  1  0  0  0  0
 31 32  1  0  0  0  0
M  END
> <PUBCHEM_COMPOUND_ID_TYPE>
0

> <PUBCHEM_TOTAL_CHARGE>
0

> <PUBCHEM_SUBSTANCE_ID>
310930706

> <PUBCHEM_SUBSTANCE_VERSION>
1

> <PUBCHEM_EXT_DATASOURCE_NAME>
4488

> <PUBCHEM_EXT_DATASOURCE_REGID>
SCHEMBL16108003

> <PUBCHEM_SUBSTANCE_COMMENT>
InChI=1S/C24H23N3O4S/c1-2-15-31-20-6-10-22(11-7-20)32(29,30)21-8-3-18(4-9-21)16-26-24(28)19-5-12-23-25-13-14-27(23)17-19/h3-14,17H,2,15-16H2,1H3,(H,26,28)
InChIKey=QNMFNHDCWODIIY-UHFFFAOYSA-N

> <PUBCHEM_SUBSTANCE_SYNONYM>
SCHEMBL16108003

> <PUBCHEM_XREF_EXT_ID>
SCHEMBL16108003

> <PUBCHEM_EXT_DATASOURCE_URL>
https://www.surechembl.org/

> <PUBCHEM_EXT_SUBSTANCE_URL>
https://www.surechembl.org/chemical/SCHEMBL16108003

> <PUBCHEM_CID_ASSOCIATIONS>
117599745  1

> <PUBCHEM_COORDINATE_TYPE>
1
3

$$$$
