310946173
  -OEChem-07211613022D

 15 15  0     0  0  0  0  0  0999 V2000
   -3.5507    2.7560    0.0000 F   0  0  0  0  0  0  0  0  0  0  0  0
    0.0217    3.9935    0.0000 O   0  0  0  0  0  0  0  0  0  0  0  0
   -0.6928    5.2310    0.0000 O   0  0  0  0  0  0  0  0  0  0  0  0
    3.5940    5.2310    0.0000 O   0  0  0  0  0  0  0  0  0  0  0  0
    2.1651    4.4060    0.0000 N   0  0  0  0  0  0  0  0  0  0  0  0
   -1.4073    3.9935    0.0000 C   0  0  0  0  0  0  0  0  0  0  0  0
   -0.6928    4.4060    0.0000 C   0  0  0  0  0  0  0  0  0  0  0  0
   -2.1218    4.4060    0.0000 C   0  0  0  0  0  0  0  0  0  0  0  0
   -1.4073    3.1685    0.0000 C   0  0  0  0  0  0  0  0  0  0  0  0
   -2.8362    3.1685    0.0000 C   0  0  0  0  0  0  0  0  0  0  0  0
   -2.8362    3.9935    0.0000 C   0  0  0  0  0  0  0  0  0  0  0  0
   -2.1218    2.7560    0.0000 C   0  0  0  0  0  0  0  0  0  0  0  0
    0.7361    4.4060    0.0000 C   0  0  0  0  0  0  0  0  0  0  0  0
    1.4506    3.9935    0.0000 C   0  0  0  0  0  0  0  0  0  0  0  0
    2.8795    4.8185    0.0000 C   0  0  0  0  0  0  0  0  0  0  0  0
  1 10  1  0  0  0  0
  2  7  1  0  0  0  0
  2 13  1  0  0  0  0
  3  7  2  0  0  0  0
  4 15  2  0  0  0  0
  5 14  1  0  0  0  0
  5 15  2  0  0  0  0
  6  7  1  0  0  0  0
  6  8  2  0  0  0  0
  6  9  1  0  0  0  0
  8 11  1  0  0  0  0
  9 12  2  0  0  0  0
 10 11  2  0  0  0  0
 10 12  1  0  0  0  0
 13 14  1  0  0  0  0
M  END
> <PUBCHEM_COMPOUND_ID_TYPE>
0

> <PUBCHEM_TOTAL_CHARGE>
0

> <PUBCHEM_SUBSTANCE_ID>
310946173

> <PUBCHEM_SUBSTANCE_VERSION>
1

> <PUBCHEM_EXT_DATASOURCE_NAME>
4488

> <PUBCHEM_EXT_DATASOURCE_REGID>
SCHEMBL16124282

> <PUBCHEM_SUBSTANCE_COMMENT>
InChI=1S/C10H8FNO3/c11-9-3-1-8(2-4-9)10(14)15-6-5-12-7-13/h1-4H,5-6H2
InChIKey=VTHLRCZDOCXRJQ-UHFFFAOYSA-N

> <PUBCHEM_SUBSTANCE_SYNONYM>
SCHEMBL16124282

> <PUBCHEM_XREF_EXT_ID>
SCHEMBL16124282

> <PUBCHEM_EXT_DATASOURCE_URL>
https://www.surechembl.org/

> <PUBCHEM_EXT_SUBSTANCE_URL>
https://www.surechembl.org/chemical/SCHEMBL16124282

> <PUBCHEM_CID_ASSOCIATIONS>
117612128  1

> <PUBCHEM_COORDINATE_TYPE>
1
3

$$$$
