310940688
  -OEChem-07211613022D

 26 28  0     0  0  0  0  0  0999 V2000
   -2.5121    1.6628    0.0000 F   0  0  0  0  0  0  0  0  0  0  0  0
   -1.0766   -0.8254    0.0000 F   0  0  0  0  0  0  0  0  0  0  0  0
    0.3588    1.6507    0.0000 O   0  0  0  0  0  0  0  0  0  0  0  0
   -0.3709    0.4186    0.0000 N   0  0  0  0  0  0  0  0  0  0  0  0
    1.0766    0.4186    0.0000 N   0  0  0  0  0  0  0  0  0  0  0  0
    1.7943   -1.6507    0.0000 N   0  0  0  0  0  0  0  0  0  0  0  0
   -1.8063    0.4067    0.0000 C   0  0  0  0  0  0  0  0  0  0  0  0
   -1.0885    0.8135    0.0000 C   0  0  0  0  0  0  0  0  0  0  0  0
   -2.5240    0.8135    0.0000 C   0  0  0  0  0  0  0  0  0  0  0  0
   -1.8063   -0.4067    0.0000 C   0  0  0  0  0  0  0  0  0  0  0  0
    0.3469    0.8014    0.0000 C   0  0  0  0  0  0  0  0  0  0  0  0
   -0.3709   -0.4067    0.0000 C   0  0  0  0  0  0  0  0  0  0  0  0
    0.3709   -0.8254    0.0000 C   0  0  0  0  0  0  0  0  0  0  0  0
   -3.2298    0.4067    0.0000 C   0  0  0  0  0  0  0  0  0  0  0  0
   -2.5001   -0.8254    0.0000 C   0  0  0  0  0  0  0  0  0  0  0  0
    1.7943    0.8254    0.0000 C   0  0  0  0  0  0  0  0  0  0  0  0
   -3.2178   -0.4067    0.0000 C   0  0  0  0  0  0  0  0  0  0  0  0
    0.3588   -1.6507    0.0000 C   0  0  0  0  0  0  0  0  0  0  0  0
    1.0885   -0.4186    0.0000 C   0  0  0  0  0  0  0  0  0  0  0  0
    2.5121    0.4307    0.0000 C   0  0  0  0  0  0  0  0  0  0  0  0
    1.8063    1.6507    0.0000 C   0  0  0  0  0  0  0  0  0  0  0  0
    1.1006   -2.0575    0.0000 C   0  0  0  0  0  0  0  0  0  0  0  0
    1.8063   -0.8374    0.0000 C   0  0  0  0  0  0  0  0  0  0  0  0
    2.5121    2.0575    0.0000 C   0  0  0  0  0  0  0  0  0  0  0  0
    3.2298    0.8254    0.0000 C   0  0  0  0  0  0  0  0  0  0  0  0
    3.2298    1.6507    0.0000 C   0  0  0  0  0  0  0  0  0  0  0  0
  1  9  1  0  0  0  0
  2 10  1  0  0  0  0
  3 11  2  0  0  0  0
  4  8  1  0  0  0  0
  4 11  1  0  0  0  0
  4 12  1  0  0  0  0
  5 11  1  0  0  0  0
  5 16  1  0  0  0  0
  6 22  1  0  0  0  0
  6 23  1  0  0  0  0
  7  8  1  0  0  0  0
  7  9  2  0  0  0  0
  7 10  1  0  0  0  0
  9 14  1  0  0  0  0
 10 15  2  0  0  0  0
 12 13  1  0  0  0  0
 13 18  1  0  0  0  0
 13 19  1  0  0  0  0
 14 17  2  0  0  0  0
 15 17  1  0  0  0  0
 16 20  1  0  0  0  0
 16 21  1  0  0  0  0
 18 22  1  0  0  0  0
 19 23  1  0  0  0  0
 20 25  1  0  0  0  0
 21 24  1  0  0  0  0
 24 26  1  0  0  0  0
 25 26  1  0  0  0  0
M  END
> <PUBCHEM_COMPOUND_ID_TYPE>
0

> <PUBCHEM_TOTAL_CHARGE>
0

> <PUBCHEM_SUBSTANCE_ID>
310940688

> <PUBCHEM_SUBSTANCE_VERSION>
1

> <PUBCHEM_EXT_DATASOURCE_NAME>
4488

> <PUBCHEM_EXT_DATASOURCE_REGID>
SCHEMBL16118644

> <PUBCHEM_SUBSTANCE_COMMENT>
InChI=1S/C20H29F2N3O/c21-18-7-4-8-19(22)17(18)14-25(13-15-9-11-23-12-10-15)20(26)24-16-5-2-1-3-6-16/h4,7-8,15-16,23H,1-3,5-6,9-14H2,(H,24,26)
InChIKey=KWENTZNUCJPXOG-UHFFFAOYSA-N

> <PUBCHEM_SUBSTANCE_SYNONYM>
SCHEMBL16118644

> <PUBCHEM_XREF_EXT_ID>
SCHEMBL16118644

> <PUBCHEM_EXT_DATASOURCE_URL>
https://www.surechembl.org/

> <PUBCHEM_EXT_SUBSTANCE_URL>
https://www.surechembl.org/chemical/SCHEMBL16118644

> <PUBCHEM_CID_ASSOCIATIONS>
86300063  1

> <PUBCHEM_COORDINATE_TYPE>
1
3

$$$$
