310945593
  -OEChem-07211613022D

 23 25  0     0  0  0  0  0  0999 V2000
   -1.0724    2.4256    0.0000 F   0  0  0  0  0  0  0  0  0  0  0  0
    0.0216    2.0657    0.0000 F   0  0  0  0  0  0  0  0  0  0  0  0
   -0.3527    0.9860    0.0000 F   0  0  0  0  0  0  0  0  0  0  0  0
   -0.6837    0.0504    0.0000 N   0  0  0  0  0  0  0  0  0  0  0  0
   -1.4611    1.3172    0.0000 C   0  0  0  0  0  0  0  0  0  0  0  0
   -1.4755    0.4823    0.0000 C   0  0  0  0  0  0  0  0  0  0  0  0
   -0.7125    1.7057    0.0000 C   0  0  0  0  0  0  0  0  0  0  0  0
   -0.0072   -1.1876    0.0000 C   0  0  0  0  0  0  0  0  0  0  0  0
   -0.7269   -0.7845    0.0000 C   0  0  0  0  0  0  0  0  0  0  0  0
    1.4468   -1.1876    0.0000 C   0  0  0  0  0  0  0  0  0  0  0  0
    1.4323   -2.0081    0.0000 C   0  0  0  0  0  0  0  0  0  0  0  0
    0.7269   -0.7845    0.0000 C   0  0  0  0  0  0  0  0  0  0  0  0
   -2.2097    1.7202    0.0000 C   0  0  0  0  0  0  0  0  0  0  0  0
   -2.1952    0.0792    0.0000 C   0  0  0  0  0  0  0  0  0  0  0  0
    0.0072   -2.0225    0.0000 C   0  0  0  0  0  0  0  0  0  0  0  0
    0.7269   -2.4256    0.0000 C   0  0  0  0  0  0  0  0  0  0  0  0
   -2.9006    1.3028    0.0000 C   0  0  0  0  0  0  0  0  0  0  0  0
   -2.9006    0.4823    0.0000 C   0  0  0  0  0  0  0  0  0  0  0  0
    2.1808   -0.7701    0.0000 C   0  0  0  0  0  0  0  0  0  0  0  0
    2.1808   -2.4256    0.0000 C   0  0  0  0  0  0  0  0  0  0  0  0
   -1.4755   -1.1876    0.0000 C   0  0  0  0  0  0  0  0  0  0  0  0
    2.9006   -1.1876    0.0000 C   0  0  0  0  0  0  0  0  0  0  0  0
    2.9006   -2.0225    0.0000 C   0  0  0  0  0  0  0  0  0  0  0  0
  1  7  1  0  0  0  0
  2  7  1  0  0  0  0
  3  7  1  0  0  0  0
  4  6  1  0  0  0  0
  4  9  2  0  0  0  0
  5  6  2  0  0  0  0
  5  7  1  0  0  0  0
  5 13  1  0  0  0  0
  6 14  1  0  0  0  0
  8  9  1  0  0  0  0
  8 12  1  0  0  0  0
  8 15  2  0  0  0  0
  9 21  1  0  0  0  0
 10 11  1  0  0  0  0
 10 12  2  0  0  0  0
 10 19  1  0  0  0  0
 11 16  2  0  0  0  0
 11 20  1  0  0  0  0
 13 17  2  0  0  0  0
 14 18  2  0  0  0  0
 15 16  1  0  0  0  0
 17 18  1  0  0  0  0
 19 22  2  0  0  0  0
 20 23  2  0  0  0  0
 22 23  1  0  0  0  0
M  END
> <PUBCHEM_COMPOUND_ID_TYPE>
0

> <PUBCHEM_TOTAL_CHARGE>
0

> <PUBCHEM_SUBSTANCE_ID>
310945593

> <PUBCHEM_SUBSTANCE_VERSION>
1

> <PUBCHEM_EXT_DATASOURCE_NAME>
4488

> <PUBCHEM_EXT_DATASOURCE_REGID>
SCHEMBL16123692

> <PUBCHEM_SUBSTANCE_COMMENT>
InChI=1S/C19H14F3N/c1-13(15-11-10-14-6-2-3-7-16(14)12-15)23-18-9-5-4-8-17(18)19(20,21)22/h2-12H,1H3/b23-13+
InChIKey=HMXQQHIKLSELST-YDZHTSKRSA-N

> <PUBCHEM_SUBSTANCE_SYNONYM>
SCHEMBL16123692

> <PUBCHEM_XREF_EXT_ID>
SCHEMBL16123692

> <PUBCHEM_EXT_DATASOURCE_URL>
https://www.surechembl.org/

> <PUBCHEM_EXT_SUBSTANCE_URL>
https://www.surechembl.org/chemical/SCHEMBL16123692

> <PUBCHEM_CID_ASSOCIATIONS>
86176222  1

> <PUBCHEM_COORDINATE_TYPE>
1
3

$$$$
