310945065
  -OEChem-07211613022D

 33 36  0     0  0  0  0  0  0999 V2000
   -0.7108    2.5447    0.0000 Cl  0  0  0  0  0  0  0  0  0  0  0  0
   -4.0628   -1.2285    0.0000 S   0  0  0  0  0  0  0  0  0  0  0  0
    3.8872   -2.3692    0.0000 O   0  0  0  0  0  0  0  0  0  0  0  0
    4.6068   -1.1407    0.0000 O   0  0  0  0  0  0  0  0  0  0  0  0
   -4.2032   -2.5447    0.0000 N   0  0  0  0  0  0  0  0  0  0  0  0
   -0.4300    0.0702    0.0000 C   0  0  0  0  0  0  0  0  0  0  0  0
   -0.4124    0.8950    0.0000 C   0  0  0  0  0  0  0  0  0  0  0  0
   -1.1320   -0.3335    0.0000 C   0  0  0  0  0  0  0  0  0  0  0  0
    0.3071   -0.3335    0.0000 C   0  0  0  0  0  0  0  0  0  0  0  0
    0.2896    1.2987    0.0000 C   0  0  0  0  0  0  0  0  0  0  0  0
   -2.5886   -1.1583    0.0000 C   0  0  0  0  0  0  0  0  0  0  0  0
   -1.8691    0.0526    0.0000 C   0  0  0  0  0  0  0  0  0  0  0  0
   -1.1495   -1.1583    0.0000 C   0  0  0  0  0  0  0  0  0  0  0  0
    0.3071    2.1235    0.0000 C   0  0  0  0  0  0  0  0  0  0  0  0
    0.3246   -1.1758    0.0000 C   0  0  0  0  0  0  0  0  0  0  0  0
    1.0091    0.0526    0.0000 C   0  0  0  0  0  0  0  0  0  0  0  0
   -1.1320    1.2987    0.0000 C   0  0  0  0  0  0  0  0  0  0  0  0
   -2.5535   -0.3335    0.0000 C   0  0  0  0  0  0  0  0  0  0  0  0
   -1.8866   -1.5619    0.0000 C   0  0  0  0  0  0  0  0  0  0  0  0
   -3.2906   -1.5619    0.0000 C   0  0  0  0  0  0  0  0  0  0  0  0
    1.0091    0.8950    0.0000 C   0  0  0  0  0  0  0  0  0  0  0  0
    1.7287   -1.1583    0.0000 C   0  0  0  0  0  0  0  0  0  0  0  0
    1.0091   -1.5619    0.0000 C   0  0  0  0  0  0  0  0  0  0  0  0
    1.7287   -0.3510    0.0000 C   0  0  0  0  0  0  0  0  0  0  0  0
    1.0091    2.5096    0.0000 C   0  0  0  0  0  0  0  0  0  0  0  0
    1.7287    1.2987    0.0000 C   0  0  0  0  0  0  0  0  0  0  0  0
   -3.3959   -2.3867    0.0000 C   0  0  0  0  0  0  0  0  0  0  0  0
    1.7287    2.1060    0.0000 C   0  0  0  0  0  0  0  0  0  0  0  0
   -1.1495    2.1235    0.0000 C   0  0  0  0  0  0  0  0  0  0  0  0
    2.4657   -1.5619    0.0000 C   0  0  0  0  0  0  0  0  0  0  0  0
   -4.6068   -1.8602    0.0000 C   0  0  0  0  0  0  0  0  0  0  0  0
    3.1502   -1.1758    0.0000 C   0  0  0  0  0  0  0  0  0  0  0  0
    3.8872   -1.5444    0.0000 C   0  0  0  0  0  0  0  0  0  0  0  0
  1 14  1  0  0  0  0
  2 20  1  0  0  0  0
  2 31  1  0  0  0  0
  3 33  2  0  0  0  0
  4 33  1  0  0  0  0
  5 27  1  0  0  0  0
  5 31  2  0  0  0  0
  6  7  2  0  0  0  0
  6  8  1  0  0  0  0
  6  9  1  0  0  0  0
  7 10  1  0  0  0  0
  7 17  1  0  0  0  0
  8 12  2  0  0  0  0
  8 13  1  0  0  0  0
  9 15  2  0  0  0  0
  9 16  1  0  0  0  0
 10 14  1  0  0  0  0
 10 21  2  0  0  0  0
 11 18  2  0  0  0  0
 11 19  1  0  0  0  0
 11 20  1  0  0  0  0
 12 18  1  0  0  0  0
 13 19  2  0  0  0  0
 14 25  2  0  0  0  0
 15 23  1  0  0  0  0
 16 24  2  0  0  0  0
 17 29  1  0  0  0  0
 20 27  2  0  0  0  0
 21 26  1  0  0  0  0
 22 23  2  0  0  0  0
 22 24  1  0  0  0  0
 22 30  1  0  0  0  0
 25 28  1  0  0  0  0
 26 28  2  0  0  0  0
 30 32  2  0  0  0  0
 32 33  1  0  0  0  0
M  END
> <PUBCHEM_COMPOUND_ID_TYPE>
0

> <PUBCHEM_TOTAL_CHARGE>
0

> <PUBCHEM_SUBSTANCE_ID>
310945065

> <PUBCHEM_SUBSTANCE_VERSION>
1

> <PUBCHEM_EXT_DATASOURCE_NAME>
4488

> <PUBCHEM_EXT_DATASOURCE_REGID>
SCHEMBL16123154

> <PUBCHEM_SUBSTANCE_COMMENT>
InChI=1S/C28H22ClNO2S/c1-2-23(24-5-3-4-6-25(24)29)28(21-10-7-19(8-11-21)9-16-27(31)32)22-14-12-20(13-15-22)26-17-30-18-33-26/h3-18H,2H2,1H3,(H,31,32)/b16-9+,28-23+
InChIKey=YXOFRFBOEUCPAI-ZXCNNHPTSA-N

> <PUBCHEM_SUBSTANCE_SYNONYM>
SCHEMBL16123154

> <PUBCHEM_XREF_EXT_ID>
SCHEMBL16123154

> <PUBCHEM_EXT_DATASOURCE_URL>
https://www.surechembl.org/

> <PUBCHEM_EXT_SUBSTANCE_URL>
https://www.surechembl.org/chemical/SCHEMBL16123154

> <PUBCHEM_CID_ASSOCIATIONS>
86271378  1

> <PUBCHEM_COORDINATE_TYPE>
1
3

$$$$
