310928994
  -OEChem-07211613022D

 24 25  0     0  0  0  0  0  0999 V2000
   -4.1612   -0.6740    0.0000 S   0  0  0  0  0  0  0  0  0  0  0  0
    2.4478    0.3180    0.0000 S   0  0  0  0  0  0  0  0  0  0  0  0
    0.1256   -0.6740    0.0000 S   0  0  0  0  0  0  0  0  0  0  0  0
   -4.9862   -0.6740    0.0000 O   0  0  0  0  0  0  0  0  0  0  0  0
   -4.5737   -1.3885    0.0000 O   0  0  0  0  0  0  0  0  0  0  0  0
   -2.7322    0.1510    0.0000 N   0  0  0  0  0  0  0  0  0  0  0  0
   -3.4467   -1.0865    0.0000 N   0  0  0  0  0  0  0  0  0  0  0  0
   -4.1612    0.1510    0.0000 N   0  0  0  0  0  0  0  0  0  0  0  0
   -2.0178   -1.0865    0.0000 N   0  0  0  0  0  0  0  0  0  0  0  0
   -3.4467    1.3885    0.0000 N   0  0  0  0  0  0  0  0  0  0  0  0
    2.3083   -1.0096    0.0000 N   0  0  0  0  0  0  0  0  0  0  0  0
    3.6808   -0.4827    0.0000 N   0  0  0  0  0  0  0  0  0  0  0  0
    3.8301    0.9384    0.0000 N   0  0  0  0  0  0  0  0  0  0  0  0
    4.9862    0.0985    0.0000 N   0  0  0  0  0  0  0  0  0  0  0  0
   -2.7322   -0.6740    0.0000 C   0  0  0  0  0  0  0  0  0  0  0  0
   -3.4467    0.5635    0.0000 C   0  0  0  0  0  0  0  0  0  0  0  0
   -2.0178    0.5635    0.0000 C   0  0  0  0  0  0  0  0  0  0  0  0
    1.5546   -0.6740    0.0000 C   0  0  0  0  0  0  0  0  0  0  0  0
    2.8603   -0.3965    0.0000 C   0  0  0  0  0  0  0  0  0  0  0  0
   -1.3033   -0.6740    0.0000 C   0  0  0  0  0  0  0  0  0  0  0  0
    1.6408    0.1465    0.0000 C   0  0  0  0  0  0  0  0  0  0  0  0
    0.8401   -1.0865    0.0000 C   0  0  0  0  0  0  0  0  0  0  0  0
   -0.5888   -1.0865    0.0000 C   0  0  0  0  0  0  0  0  0  0  0  0
    4.1657    0.1847    0.0000 C   0  0  0  0  0  0  0  0  0  0  0  0
  1  4  2  0  0  0  0
  1  5  2  0  0  0  0
  1  7  1  0  0  0  0
  1  8  1  0  0  0  0
  2 19  1  0  0  0  0
  2 21  1  0  0  0  0
  3 22  1  0  0  0  0
  3 23  1  0  0  0  0
  6 15  1  0  0  0  0
  6 16  1  0  0  0  0
  6 17  1  0  0  0  0
  7 15  2  0  0  0  0
  8 16  2  0  0  0  0
  9 15  1  0  0  0  0
  9 20  1  0  0  0  0
 10 16  1  0  0  0  0
 11 18  1  0  0  0  0
 11 19  2  0  0  0  0
 12 19  1  0  0  0  0
 12 24  1  0  0  0  0
 13 24  2  3  0  0  0
 14 24  1  0  0  0  0
 18 21  2  0  0  0  0
 18 22  1  0  0  0  0
 20 23  1  0  0  0  0
M  END
> <PUBCHEM_COMPOUND_ID_TYPE>
0

> <PUBCHEM_TOTAL_CHARGE>
0

> <PUBCHEM_SUBSTANCE_ID>
310928994

> <PUBCHEM_SUBSTANCE_VERSION>
1

> <PUBCHEM_EXT_DATASOURCE_NAME>
11752

> <PUBCHEM_EXT_DATASOURCE_REGID>
BD156091

> <PUBCHEM_SUBSTANCE_SYNONYM>
1-(4-(((2-((5-Amino-4-methyl-1,1-dioxido-4H-1,2,4,6-thiatriazin-3-yl)amino)ethyl)thio)methyl)thiazol-2-yl)guanidine
91257-14-6

> <PUBCHEM_GENERIC_REGISTRY_NAME>
91257-14-6

> <PUBCHEM_XREF_EXT_ID>
BD156091

> <PUBCHEM_EXT_DATASOURCE_URL>
http://www.bidepharmatech.com/en/index.html

> <PUBCHEM_EXT_SUBSTANCE_URL>
http://www.bidepharmatech.com/en/goodsview_goodscode_BD156091.html

> <PUBCHEM_CID_ASSOCIATIONS>
65826  1

> <PUBCHEM_COORDINATE_TYPE>
1
3

$$$$
