310935683
  -OEChem-07211613022D

 19 20  0     0  0  0  0  0  0999 V2000
    2.8828   -3.1046    0.0000 S   0  0  0  0  0  0  0  0  0  0  0  0
    0.7096   -4.2799    0.0000 O   0  0  0  0  0  0  0  0  0  0  0  0
    4.5903   -2.9050    0.0000 N   0  0  0  0  0  0  0  0  0  0  0  0
    2.2175   -4.2799    0.0000 N   0  0  0  0  0  0  0  0  0  0  0  0
    1.4192   -3.0380    0.0000 N   0  0  0  0  0  0  0  0  0  0  0  0
    5.6104   -0.6653    0.0000 N   0  0  0  0  0  0  0  0  0  0  0  0
    3.4372   -3.7255    0.0000 C   0  0  0  0  0  0  0  0  0  0  0  0
    2.1288   -3.4593    0.0000 C   0  0  0  0  0  0  0  0  0  0  0  0
    4.2577   -3.6368    0.0000 C   0  0  0  0  0  0  0  0  0  0  0  0
    3.0158   -4.4351    0.0000 C   0  0  0  0  0  0  0  0  0  0  0  0
    5.2555   -1.4192    0.0000 C   0  0  0  0  0  0  0  0  0  0  0  0
    4.1024   -2.2175    0.0000 C   0  0  0  0  0  0  0  0  0  0  0  0
    5.3886   -2.8163    0.0000 C   0  0  0  0  0  0  0  0  0  0  0  0
    4.4351   -1.4857    0.0000 C   0  0  0  0  0  0  0  0  0  0  0  0
    5.7434   -2.0845    0.0000 C   0  0  0  0  0  0  0  0  0  0  0  0
    0.7096   -3.4593    0.0000 C   0  0  0  0  0  0  0  0  0  0  0  0
    6.4308   -0.5765    0.0000 C   0  0  0  0  0  0  0  0  0  0  0  0
    5.1225    0.0000    0.0000 C   0  0  0  0  0  0  0  0  0  0  0  0
    0.0000   -3.0380    0.0000 C   0  0  0  0  0  0  0  0  0  0  0  0
  1  7  1  0  0  0  0
  1  8  1  0  0  0  0
  2 16  2  0  0  0  0
  3  9  1  0  0  0  0
  3 12  1  0  0  0  0
  3 13  1  0  0  0  0
  4  8  2  0  0  0  0
  4 10  1  0  0  0  0
  5  8  1  0  0  0  0
  5 16  1  0  0  0  0
  6 11  1  0  0  0  0
  6 17  1  0  0  0  0
  6 18  1  0  0  0  0
  7  9  1  0  0  0  0
  7 10  2  0  0  0  0
 11 14  1  0  0  0  0
 11 15  1  0  0  0  0
 12 14  1  0  0  0  0
 13 15  1  0  0  0  0
 16 19  1  0  0  0  0
M  END
> <PUBCHEM_COMPOUND_ID_TYPE>
0

> <PUBCHEM_TOTAL_CHARGE>
0

> <PUBCHEM_SUBSTANCE_ID>
310935683

> <PUBCHEM_SUBSTANCE_VERSION>
1

> <PUBCHEM_EXT_DATASOURCE_NAME>
4488

> <PUBCHEM_EXT_DATASOURCE_REGID>
SCHEMBL16113265

> <PUBCHEM_SUBSTANCE_COMMENT>
InChI=1S/C13H22N4OS/c1-10(18)15-13-14-8-12(19-13)9-17-6-4-11(5-7-17)16(2)3/h8,11H,4-7,9H2,1-3H3,(H,14,15,18)
InChIKey=PLYWGIVBZJEOHK-UHFFFAOYSA-N

> <PUBCHEM_SUBSTANCE_SYNONYM>
SCHEMBL16113265

> <PUBCHEM_XREF_EXT_ID>
SCHEMBL16113265

> <PUBCHEM_EXT_DATASOURCE_URL>
https://www.surechembl.org/

> <PUBCHEM_EXT_SUBSTANCE_URL>
https://www.surechembl.org/chemical/SCHEMBL16113265

> <PUBCHEM_CID_ASSOCIATIONS>
86275299  1

> <PUBCHEM_COORDINATE_TYPE>
1
3

$$$$
