310931598
  -OEChem-07211613022D

 51 55  0     1  0  0  0  0  0999 V2000
   16.4328   -4.2865    0.0000 Cl  0  0  0  0  0  0  0  0  0  0  0  0
   17.8618   -0.1615    0.0000 S   0  0  0  0  0  0  0  0  0  0  0  0
   17.9088    1.5610    0.0000 S   0  0  0  0  0  0  0  0  0  0  0  0
   17.8618   -1.8115    0.0000 F   0  0  0  0  0  0  0  0  0  0  0  0
   15.0039   -0.1615    0.0000 F   0  0  0  0  0  0  0  0  0  0  0  0
   17.4493    0.5530    0.0000 O   0  0  0  0  0  0  0  0  0  0  0  0
   18.2743   -0.8759    0.0000 O   0  0  0  0  0  0  0  0  0  0  0  0
   15.0039   -1.8115    0.0000 O   0  0  0  0  0  0  0  0  0  0  0  0
   20.7196   -0.9865    0.0000 O   0  0  0  0  0  0  0  0  0  0  0  0
   22.1486    1.4885    0.0000 O   0  0  0  0  0  0  0  0  0  0  0  0
   10.7170   -1.8115    0.0000 O   0  0  0  0  0  0  0  0  0  0  0  0
   11.4316   -0.5740    0.0000 O   0  0  0  0  0  0  0  0  0  0  0  0
   18.5762    0.2510    0.0000 N   0  0  0  0  0  0  0  0  0  0  0  0
   19.2437    1.5610    0.0000 N   0  0  0  0  0  0  0  0  0  0  0  0
   12.1460   -1.8115    0.0000 N   0  0  0  0  0  0  0  0  0  0  0  0
   17.1473   -0.5740    0.0000 C   0  0  0  0  0  0  0  0  0  0  0  0
   18.5762    1.0760    0.0000 C   0  0  0  0  0  0  0  0  0  0  0  0
   17.1473   -1.3990    0.0000 C   0  0  0  0  0  0  0  0  0  0  0  0
   16.4328   -0.1615    0.0000 C   0  0  0  0  0  0  0  0  0  0  0  0
   19.2907   -0.1615    0.0000 C   0  0  0  0  0  0  0  0  0  0  0  0
   15.7184   -0.5740    0.0000 C   0  0  0  0  0  0  0  0  0  0  0  0
   15.7184   -1.3990    0.0000 C   0  0  0  0  0  0  0  0  0  0  0  0
   16.4328   -1.8115    0.0000 C   0  0  0  0  0  0  0  0  0  0  0  0
   20.0052    0.2510    0.0000 C   0  0  0  0  0  0  0  0  0  0  0  0
   18.1637    2.3456    0.0000 C   0  0  0  0  0  0  0  0  0  0  0  0
   20.7196   -0.1615    0.0000 C   0  0  0  0  0  0  0  0  0  0  0  0
   18.9887    2.3456    0.0000 C   0  0  0  0  0  0  0  0  0  0  0  0
   13.5750   -1.8115    0.0000 C   0  0  3  0  0  0  0  0  0  0  0  0
   13.5750   -2.6365    0.0000 C   0  0  3  0  0  0  0  0  0  0  0  0
   20.0052    1.0760    0.0000 C   0  0  0  0  0  0  0  0  0  0  0  0
   14.2894   -1.3990    0.0000 C   0  0  0  0  0  0  0  0  0  0  0  0
   21.4341    0.2510    0.0000 C   0  0  0  0  0  0  0  0  0  0  0  0
   14.2894   -3.0490    0.0000 C   0  0  0  0  0  0  0  0  0  0  0  0
   12.8605   -1.3990    0.0000 C   0  0  0  0  0  0  0  0  0  0  0  0
   21.4341    1.0760    0.0000 C   0  0  0  0  0  0  0  0  0  0  0  0
   20.7196    1.4885    0.0000 C   0  0  0  0  0  0  0  0  0  0  0  0
   12.8605   -3.0490    0.0000 C   0  0  0  0  0  0  0  0  0  0  0  0
   12.1460   -2.6365    0.0000 C   0  0  0  0  0  0  0  0  0  0  0  0
   11.4316   -1.3990    0.0000 C   0  0  0  0  0  0  0  0  0  0  0  0
   17.6788    3.0130    0.0000 C   0  0  0  0  0  0  0  0  0  0  0  0
   15.0039   -2.6365    0.0000 C   0  0  0  0  0  0  0  0  0  0  0  0
   14.2894   -3.8740    0.0000 C   0  0  0  0  0  0  0  0  0  0  0  0
   15.7184   -3.0490    0.0000 C   0  0  0  0  0  0  0  0  0  0  0  0
   15.0039   -4.2865    0.0000 C   0  0  0  0  0  0  0  0  0  0  0  0
   15.7184   -3.8740    0.0000 C   0  0  0  0  0  0  0  0  0  0  0  0
   10.0026   -1.3990    0.0000 C   0  0  0  0  0  0  0  0  0  0  0  0
   21.4341   -1.3990    0.0000 C   0  0  0  0  0  0  0  0  0  0  0  0
   22.8630    1.0760    0.0000 C   0  0  0  0  0  0  0  0  0  0  0  0
   10.0026   -0.5740    0.0000 C   0  0  0  0  0  0  0  0  0  0  0  0
    9.2881   -0.9865    0.0000 C   0  0  0  0  0  0  0  0  0  0  0  0
    9.2881   -1.8115    0.0000 C   0  0  0  0  0  0  0  0  0  0  0  0
  1 45  1  0  0  0  0
  2  6  2  0  0  0  0
  2  7  2  0  0  0  0
  2 13  1  0  0  0  0
  2 16  1  0  0  0  0
  3 17  1  0  0  0  0
  3 25  1  0  0  0  0
  4 18  1  0  0  0  0
  5 21  1  0  0  0  0
  8 22  1  0  0  0  0
  8 31  1  0  0  0  0
  9 26  1  0  0  0  0
  9 47  1  0  0  0  0
 10 35  1  0  0  0  0
 10 48  1  0  0  0  0
 11 39  1  0  0  0  0
 11 46  1  0  0  0  0
 12 39  2  0  0  0  0
 13 17  1  0  0  0  0
 13 20  1  0  0  0  0
 14 17  2  0  0  0  0
 14 27  1  0  0  0  0
 15 34  1  0  0  0  0
 15 38  1  0  0  0  0
 15 39  1  0  0  0  0
 16 18  2  0  0  0  0
 16 19  1  0  0  0  0
 18 23  1  0  0  0  0
 19 21  2  0  0  0  0
 20 24  1  0  0  0  0
 21 22  1  0  0  0  0
 22 23  2  0  0  0  0
 24 26  1  0  0  0  0
 24 30  2  0  0  0  0
 25 27  2  0  0  0  0
 25 40  1  0  0  0  0
 26 32  2  0  0  0  0
 28 29  1  0  0  0  0
 28 31  1  6  0  0  0
 28 34  1  0  0  0  0
 29 33  1  0  0  0  0
 29 37  1  1  0  0  0
 30 36  1  0  0  0  0
 32 35  1  0  0  0  0
 33 41  2  0  0  0  0
 33 42  1  0  0  0  0
 35 36  2  0  0  0  0
 37 38  1  0  0  0  0
 41 43  1  0  0  0  0
 42 44  2  0  0  0  0
 43 45  2  0  0  0  0
 44 45  1  0  0  0  0
 46 49  1  0  0  0  0
 46 50  1  0  0  0  0
 46 51  1  0  0  0  0
M  END
> <PUBCHEM_COMPOUND_ID_TYPE>
0

> <PUBCHEM_TOTAL_CHARGE>
0

> <PUBCHEM_SUBSTANCE_ID>
310931598

> <PUBCHEM_SUBSTANCE_VERSION>
1

> <PUBCHEM_EXT_DATASOURCE_NAME>
4488

> <PUBCHEM_EXT_DATASOURCE_REGID>
SCHEMBL16108924

> <PUBCHEM_SUBSTANCE_COMMENT>
InChI=1S/C36H40ClF2N3O7S2/c1-22-18-40-34(50-22)42(20-24-9-12-27(46-5)15-31(24)47-6)51(44,45)33-17-29(38)32(16-30(33)39)48-21-25-19-41(35(43)49-36(2,3)4)14-13-28(25)23-7-10-26(37)11-8-23/h7-12,15-18,25,28H,13-14,19-21H2,1-6H3/t25-,28-/m1/s1
InChIKey=PTCUXHKSMDJLFI-LEAFIULHSA-N

> <PUBCHEM_SUBSTANCE_SYNONYM>
SCHEMBL16108924

> <PUBCHEM_XREF_EXT_ID>
SCHEMBL16108924

> <PUBCHEM_EXT_DATASOURCE_URL>
https://www.surechembl.org/

> <PUBCHEM_EXT_SUBSTANCE_URL>
https://www.surechembl.org/chemical/SCHEMBL16108924

> <PUBCHEM_CID_ASSOCIATIONS>
117600328  1

> <PUBCHEM_COORDINATE_TYPE>
1
3

> <PUBCHEM_BONDANNOTATIONS>
28  31  6
29  37  5

$$$$
