310941536
  -OEChem-07211613022D

 35 39  0     0  0  0  0  0  0999 V2000
    0.7608    3.1799    0.0000 S   0  0  0  0  0  0  0  0  0  0  0  0
   -1.5642    0.5300    0.0000 O   0  0  0  0  0  0  0  0  0  0  0  0
   -3.0004   -0.2906    0.0000 O   0  0  0  0  0  0  0  0  0  0  0  0
   -0.1453    0.5300    0.0000 O   0  0  0  0  0  0  0  0  0  0  0  0
    3.6158    2.2055    0.0000 O   0  0  0  0  0  0  0  0  0  0  0  0
    0.6069    1.8463    0.0000 N   0  0  0  0  0  0  0  0  0  0  0  0
    1.9917    2.3764    0.0000 N   0  0  0  0  0  0  0  0  0  0  0  0
   -3.7185   -3.1799    0.0000 N   0  0  0  0  0  0  0  0  0  0  0  0
   -1.5814   -1.1454    0.0000 N   0  0  0  0  0  0  0  0  0  0  0  0
   -0.8634    1.7779    0.0000 C   0  0  0  0  0  0  0  0  0  0  0  0
   -2.2995    0.9745    0.0000 C   0  0  0  0  0  0  0  0  0  0  0  0
   -2.2995    1.7779    0.0000 C   0  0  0  0  0  0  0  0  0  0  0  0
   -0.1624    2.2055    0.0000 C   0  0  0  0  0  0  0  0  0  0  0  0
   -0.8976    0.9745    0.0000 C   0  0  0  0  0  0  0  0  0  0  0  0
   -1.5814    2.1883    0.0000 C   0  0  0  0  0  0  0  0  0  0  0  0
   -3.0004    0.5470    0.0000 C   0  0  0  0  0  0  0  0  0  0  0  0
    1.1540    2.4789    0.0000 C   0  0  0  0  0  0  0  0  0  0  0  0
   -2.9662    2.1713    0.0000 C   0  0  0  0  0  0  0  0  0  0  0  0
   -0.0427    3.0089    0.0000 C   0  0  0  0  0  0  0  0  0  0  0  0
   -3.7185    0.9574    0.0000 C   0  0  0  0  0  0  0  0  0  0  0  0
   -3.7013    1.7779    0.0000 C   0  0  0  0  0  0  0  0  0  0  0  0
    2.2995    1.6583    0.0000 C   0  0  0  0  0  0  0  0  0  0  0  0
   -3.6843   -0.6838    0.0000 C   0  0  0  0  0  0  0  0  0  0  0  0
    3.1200    1.5387    0.0000 C   0  0  0  0  0  0  0  0  0  0  0  0
   -3.7185   -1.5215    0.0000 C   0  0  0  0  0  0  0  0  0  0  0  0
    1.8549    0.9574    0.0000 C   0  0  0  0  0  0  0  0  0  0  0  0
   -2.9832   -1.9148    0.0000 C   0  0  0  0  0  0  0  0  0  0  0  0
    3.4619    0.7693    0.0000 C   0  0  0  0  0  0  0  0  0  0  0  0
   -4.4022   -1.9148    0.0000 C   0  0  0  0  0  0  0  0  0  0  0  0
    2.1627    0.2222    0.0000 C   0  0  0  0  0  0  0  0  0  0  0  0
    2.9832    0.1367    0.0000 C   0  0  0  0  0  0  0  0  0  0  0  0
   -3.0004   -2.7696    0.0000 C   0  0  0  0  0  0  0  0  0  0  0  0
   -2.2824   -1.5215    0.0000 C   0  0  0  0  0  0  0  0  0  0  0  0
   -4.4193   -2.7696    0.0000 C   0  0  0  0  0  0  0  0  0  0  0  0
    4.4193    2.1028    0.0000 C   0  0  0  0  0  0  0  0  0  0  0  0
  1 17  1  0  0  0  0
  1 19  1  0  0  0  0
  2 11  1  0  0  0  0
  2 14  1  0  0  0  0
  3 16  1  0  0  0  0
  3 23  1  0  0  0  0
  4 14  2  0  0  0  0
  5 24  1  0  0  0  0
  5 35  1  0  0  0  0
  6 13  1  0  0  0  0
  6 17  2  0  0  0  0
  7 17  1  0  0  0  0
  7 22  1  0  0  0  0
  8 32  1  0  0  0  0
  8 34  2  0  0  0  0
  9 33  3  0  0  0  0
 10 13  1  0  0  0  0
 10 14  1  0  0  0  0
 10 15  2  0  0  0  0
 11 12  1  0  0  0  0
 11 16  2  0  0  0  0
 12 15  1  0  0  0  0
 12 18  2  0  0  0  0
 13 19  2  0  0  0  0
 16 20  1  0  0  0  0
 18 21  1  0  0  0  0
 20 21  2  0  0  0  0
 22 24  1  0  0  0  0
 22 26  2  0  0  0  0
 23 25  1  0  0  0  0
 24 28  2  0  0  0  0
 25 27  1  0  0  0  0
 25 29  2  0  0  0  0
 26 30  1  0  0  0  0
 27 32  2  0  0  0  0
 27 33  1  0  0  0  0
 28 31  1  0  0  0  0
 29 34  1  0  0  0  0
 30 31  2  0  0  0  0
M  END
> <PUBCHEM_COMPOUND_ID_TYPE>
0

> <PUBCHEM_TOTAL_CHARGE>
0

> <PUBCHEM_SUBSTANCE_ID>
310941536

> <PUBCHEM_SUBSTANCE_VERSION>
1

> <PUBCHEM_EXT_DATASOURCE_NAME>
4488

> <PUBCHEM_EXT_DATASOURCE_REGID>
SCHEMBL16119567

> <PUBCHEM_SUBSTANCE_COMMENT>
InChI=1S/C26H18N4O4S/c1-32-22-7-3-2-6-20(22)29-26-30-21(15-35-26)19-11-16-5-4-8-23(24(16)34-25(19)31)33-14-17-9-10-28-13-18(17)12-27/h2-11,13,15H,14H2,1H3,(H,29,30)
InChIKey=JNCSDKYKHMDZDE-UHFFFAOYSA-N

> <PUBCHEM_SUBSTANCE_SYNONYM>
SCHEMBL16119567

> <PUBCHEM_XREF_EXT_ID>
SCHEMBL16119567

> <PUBCHEM_EXT_DATASOURCE_URL>
https://www.surechembl.org/

> <PUBCHEM_EXT_SUBSTANCE_URL>
https://www.surechembl.org/chemical/SCHEMBL16119567

> <PUBCHEM_CID_ASSOCIATIONS>
117608344  1

> <PUBCHEM_COORDINATE_TYPE>
1
3

$$$$
