310948453
  -OEChem-07211613022D

 33 36  0     1  0  0  0  0  0999 V2000
   -0.7136   -2.3138    0.0000 S   0  0  0  0  0  0  0  0  0  0  0  0
    1.9605    3.8101    0.0000 F   0  0  0  0  0  0  0  0  0  0  0  0
    2.7779    3.0758    0.0000 F   0  0  0  0  0  0  0  0  0  0  0  0
   -2.7779    2.2723    0.0000 O   0  0  0  0  0  0  0  0  0  0  0  0
    0.0762   -2.0506    0.0000 O   0  0  0  0  0  0  0  0  0  0  0  0
   -1.4894   -2.5631    0.0000 O   0  0  0  0  0  0  0  0  0  0  0  0
   -0.0208    2.1476    0.0000 N   0  0  0  0  0  0  0  0  0  0  0  0
   -0.3533    1.3855    0.0000 N   0  0  0  0  0  0  0  0  0  0  0  0
   -1.7249    0.8589    0.0000 N   0  0  0  0  0  0  0  0  0  0  0  0
   -2.0713    3.5330    0.0000 N   0  0  0  0  0  0  0  0  0  0  0  0
    1.2400    0.1108    0.0000 N   0  0  0  0  0  0  0  0  0  0  0  0
   -0.6443    2.7017    0.0000 C   0  0  0  0  0  0  0  0  0  0  0  0
   -1.3509    2.2861    0.0000 C   0  0  0  0  0  0  0  0  0  0  0  0
    0.8106    2.2999    0.0000 C   0  0  3  0  0  0  0  0  0  0  0  0
   -1.1846    1.4963    0.0000 C   0  0  0  0  0  0  0  0  0  0  0  0
    1.4202    1.7734    0.0000 C   0  0  3  0  0  0  0  0  0  0  0  0
    1.9466    2.9926    0.0000 C   0  0  0  0  0  0  0  0  0  0  0  0
   -2.0575    2.7017    0.0000 C   0  0  0  0  0  0  0  0  0  0  0  0
    1.1292    3.0619    0.0000 C   0  0  0  0  0  0  0  0  0  0  0  0
   -0.6304    3.5330    0.0000 C   0  0  0  0  0  0  0  0  0  0  0  0
    2.1129    2.1614    0.0000 C   0  0  0  0  0  0  0  0  0  0  0  0
   -1.4756    0.0693    0.0000 C   0  0  0  0  0  0  0  0  0  0  0  0
   -0.9628   -1.5241    0.0000 C   0  0  0  0  0  0  0  0  0  0  0  0
   -0.4642   -3.0897    0.0000 C   0  0  0  0  0  0  0  0  0  0  0  0
   -1.3509    3.9348    0.0000 C   0  0  0  0  0  0  0  0  0  0  0  0
    1.3231    0.9282    0.0000 C   0  0  0  0  0  0  0  0  0  0  0  0
   -2.0159   -0.5404    0.0000 C   0  0  0  0  0  0  0  0  0  0  0  0
   -0.6720   -0.1108    0.0000 C   0  0  0  0  0  0  0  0  0  0  0  0
   -1.7803   -1.3301    0.0000 C   0  0  0  0  0  0  0  0  0  0  0  0
   -0.4364   -0.9144    0.0000 C   0  0  0  0  0  0  0  0  0  0  0  0
   -1.2816   -3.2282    0.0000 C   0  0  0  0  0  0  0  0  0  0  0  0
    0.3810   -3.2282    0.0000 C   0  0  0  0  0  0  0  0  0  0  0  0
   -0.4364   -3.9348    0.0000 C   0  0  0  0  0  0  0  0  0  0  0  0
  1  5  2  0  0  0  0
  1  6  2  0  0  0  0
  1 23  1  0  0  0  0
  1 24  1  0  0  0  0
  2 17  1  0  0  0  0
  3 17  1  0  0  0  0
  4 18  2  0  0  0  0
  7  8  1  0  0  0  0
  7 12  1  0  0  0  0
 14  7  1  6  0  0  0
  8 15  2  0  0  0  0
  9 15  1  0  0  0  0
  9 22  1  0  0  0  0
 10 18  1  0  0  0  0
 10 25  1  0  0  0  0
 11 26  3  0  0  0  0
 12 13  2  0  0  0  0
 12 20  1  0  0  0  0
 13 15  1  0  0  0  0
 13 18  1  0  0  0  0
 14 16  1  0  0  0  0
 14 19  1  0  0  0  0
 16 21  1  0  0  0  0
 16 26  1  6  0  0  0
 17 19  1  0  0  0  0
 17 21  1  0  0  0  0
 20 25  2  0  0  0  0
 22 27  2  0  0  0  0
 22 28  1  0  0  0  0
 23 29  2  0  0  0  0
 23 30  1  0  0  0  0
 24 31  1  0  0  0  0
 24 32  1  0  0  0  0
 24 33  1  0  0  0  0
 27 29  1  0  0  0  0
 28 30  2  0  0  0  0
M  END
> <PUBCHEM_COMPOUND_ID_TYPE>
0

> <PUBCHEM_TOTAL_CHARGE>
0

> <PUBCHEM_SUBSTANCE_ID>
310948453

> <PUBCHEM_SUBSTANCE_VERSION>
1

> <PUBCHEM_EXT_DATASOURCE_NAME>
4488

> <PUBCHEM_EXT_DATASOURCE_REGID>
SCHEMBL16126634

> <PUBCHEM_SUBSTANCE_COMMENT>
InChI=1S/C22H23F2N5O3S/c1-21(2,3)33(31,32)15-6-4-14(5-7-15)27-19-18-16(8-9-26-20(18)30)29(28-19)17-11-22(23,24)10-13(17)12-25/h4-9,13,17H,10-11H2,1-3H3,(H,26,30)(H,27,28)/t13-,17-/m1/s1
InChIKey=OKKSQYGPSXAHSK-CXAGYDPISA-N

> <PUBCHEM_SUBSTANCE_SYNONYM>
SCHEMBL16126634

> <PUBCHEM_XREF_EXT_ID>
SCHEMBL16126634

> <PUBCHEM_EXT_DATASOURCE_URL>
https://www.surechembl.org/

> <PUBCHEM_EXT_SUBSTANCE_URL>
https://www.surechembl.org/chemical/SCHEMBL16126634

> <PUBCHEM_CID_ASSOCIATIONS>
117614011  1

> <PUBCHEM_COORDINATE_TYPE>
1
3

> <PUBCHEM_BONDANNOTATIONS>
16  26  6
14  7  6

$$$$
