310940530
  -OEChem-07211613022D

 35 38  0     1  0  0  0  0  0999 V2000
    1.9178   -0.3712    0.0000 O   0  0  0  0  0  0  0  0  0  0  0  0
    2.0003    1.1273    0.0000 O   0  0  0  0  0  0  0  0  0  0  0  0
   -2.2754   -0.4949    0.0000 O   0  0  0  0  0  0  0  0  0  0  0  0
    2.7703   -1.7460    0.0000 O   0  0  0  0  0  0  0  0  0  0  0  0
    0.7905    0.3162    0.0000 N   0  0  0  0  0  0  0  0  0  0  0  0
    0.6255   -2.1722    0.0000 N   0  0  0  0  0  0  0  0  0  0  0  0
   -3.0590   -3.2583    0.0000 N   0  0  0  0  0  0  0  0  0  0  0  0
    0.5843   -0.4399    0.0000 C   0  0  0  0  0  0  0  0  0  0  0  0
   -0.1169   -0.8249    0.0000 C   0  0  0  0  0  0  0  0  0  0  0  0
    1.3129   -0.8524    0.0000 C   0  0  0  0  0  0  0  0  0  0  0  0
   -0.1306   -1.6911    0.0000 C   0  0  0  0  0  0  0  0  0  0  0  0
    1.2992   -1.6773    0.0000 C   0  0  0  0  0  0  0  0  0  0  0  0
    1.5604    0.4537    0.0000 C   0  0  0  0  0  0  0  0  0  0  0  0
    0.1994    0.9624    0.0000 C   0  0  3  0  0  0  0  0  0  0  0  0
   -0.8455   -0.4399    0.0000 C   0  0  0  0  0  0  0  0  0  0  0  0
   -1.5604   -1.6773    0.0000 C   0  0  0  0  0  0  0  0  0  0  0  0
   -1.5467   -0.8524    0.0000 C   0  0  0  0  0  0  0  0  0  0  0  0
   -0.8455   -2.0760    0.0000 C   0  0  0  0  0  0  0  0  0  0  0  0
   -2.2754   -2.0897    0.0000 C   0  0  0  0  0  0  0  0  0  0  0  0
    0.4055    1.8010    0.0000 C   0  0  0  0  0  0  0  0  0  0  0  0
    2.0278   -2.0897    0.0000 C   0  0  0  0  0  0  0  0  0  0  0  0
   -0.5980    0.7699    0.0000 C   0  0  0  0  0  0  0  0  0  0  0  0
   -2.2891   -2.9284    0.0000 C   0  0  0  0  0  0  0  0  0  0  0  0
   -3.0728   -1.8285    0.0000 C   0  0  0  0  0  0  0  0  0  0  0  0
   -0.1719    2.3647    0.0000 C   0  0  0  0  0  0  0  0  0  0  0  0
    1.2029    2.0210    0.0000 C   0  0  0  0  0  0  0  0  0  0  0  0
    0.0481    3.1759    0.0000 C   0  0  0  0  0  0  0  0  0  0  0  0
    1.3954    2.8046    0.0000 C   0  0  0  0  0  0  0  0  0  0  0  0
   -2.2754    0.4124    0.0000 C   0  0  0  0  0  0  0  0  0  0  0  0
   -1.5467   -3.3683    0.0000 C   0  0  0  0  0  0  0  0  0  0  0  0
   -3.4027   -2.3510    0.0000 C   0  0  0  0  0  0  0  0  0  0  0  0
   -3.3202   -1.0174    0.0000 C   0  0  0  0  0  0  0  0  0  0  0  0
    0.8318    3.3683    0.0000 C   0  0  0  0  0  0  0  0  0  0  0  0
    3.4714   -2.0897    0.0000 C   0  0  0  0  0  0  0  0  0  0  0  0
   -3.4714   -2.5846    0.0000 C   0  0  0  0  0  0  0  0  0  0  0  0
  1 10  1  0  0  0  0
  1 13  1  0  0  0  0
  2 13  2  0  0  0  0
  3 17  1  0  0  0  0
  3 29  1  0  0  0  0
  4 21  1  0  0  0  0
  4 34  1  0  0  0  0
  5  8  1  0  0  0  0
  5 13  1  0  0  0  0
  5 14  1  0  0  0  0
  6 11  1  0  0  0  0
  6 12  2  0  0  0  0
  7 23  2  0  0  0  0
  7 35  1  0  0  0  0
  8  9  1  0  0  0  0
  8 10  2  0  0  0  0
  9 11  2  0  0  0  0
  9 15  1  0  0  0  0
 10 12  1  0  0  0  0
 11 18  1  0  0  0  0
 12 21  1  0  0  0  0
 14 20  1  0  0  0  0
 14 22  1  6  0  0  0
 15 17  2  0  0  0  0
 16 17  1  0  0  0  0
 16 18  2  0  0  0  0
 16 19  1  0  0  0  0
 19 23  1  0  0  0  0
 19 24  2  0  0  0  0
 20 25  2  0  0  0  0
 20 26  1  0  0  0  0
 23 30  1  0  0  0  0
 24 31  1  0  0  0  0
 24 32  1  0  0  0  0
 25 27  1  0  0  0  0
 26 28  2  0  0  0  0
 27 33  2  0  0  0  0
 28 33  1  0  0  0  0
M  END
> <PUBCHEM_COMPOUND_ID_TYPE>
0

> <PUBCHEM_TOTAL_CHARGE>
0

> <PUBCHEM_SUBSTANCE_ID>
310940530

> <PUBCHEM_SUBSTANCE_VERSION>
1

> <PUBCHEM_EXT_DATASOURCE_NAME>
4488

> <PUBCHEM_EXT_DATASOURCE_REGID>
SCHEMBL16118484

> <PUBCHEM_SUBSTANCE_COMMENT>
InChI=1S/C28H31N3O4/c1-16(2)25(17(3)29-5)21-13-22-20(14-24(21)34-7)26-27(23(30-22)15-33-6)35-28(32)31(26)18(4)19-11-9-8-10-12-19/h8-14,18H,15H2,1-7H3/b29-17-/t18-/m1/s1
InChIKey=RVGBAXWQJWYHRJ-LMITWDTESA-N

> <PUBCHEM_SUBSTANCE_SYNONYM>
SCHEMBL16118484

> <PUBCHEM_XREF_EXT_ID>
SCHEMBL16118484

> <PUBCHEM_EXT_DATASOURCE_URL>
https://www.surechembl.org/

> <PUBCHEM_EXT_SUBSTANCE_URL>
https://www.surechembl.org/chemical/SCHEMBL16118484

> <PUBCHEM_CID_ASSOCIATIONS>
117607540  1

> <PUBCHEM_COORDINATE_TYPE>
1
3

> <PUBCHEM_BONDANNOTATIONS>
14  22  6

$$$$
