310932585
  -OEChem-07211613022D

 32 35  0     1  0  0  0  0  0999 V2000
    4.0461   -2.7303    0.0000 O   0  0  0  0  0  0  0  0  0  0  0  0
    8.5528   -2.8290    0.0000 O   0  0  0  0  0  0  0  0  0  0  0  0
    8.8817   -2.7632    0.0000 O   0  0  0  0  0  0  0  0  0  0  0  0
    4.9672   -1.5790    0.0000 N   0  0  0  0  0  0  0  0  0  0  0  0
    4.8685   -0.7566    0.0000 N   0  0  0  0  0  0  0  0  0  0  0  0
    6.4146   -1.5790    0.0000 N   0  0  0  0  0  0  0  0  0  0  0  0
    7.8620   -4.0790    0.0000 N   0  0  0  0  0  0  0  0  0  0  0  0
    0.0000   -2.4342    0.0000 N   0  0  0  0  0  0  0  0  0  0  0  0
    3.6514   -1.3158    0.0000 C   0  0  0  0  0  0  0  0  0  0  0  0
    4.2106   -1.9408    0.0000 C   0  0  0  0  0  0  0  0  0  0  0  0
    2.8290   -1.4145    0.0000 C   0  0  0  0  0  0  0  0  0  0  0  0
    5.6909   -2.0066    0.0000 C   0  0  0  0  0  0  0  0  0  0  0  0
    4.0461   -0.5921    0.0000 C   0  0  0  0  0  0  0  0  0  0  0  0
    2.3356   -0.7566    0.0000 C   0  0  0  0  0  0  0  0  0  0  0  0
    5.6909   -2.8290    0.0000 C   0  0  0  0  0  0  0  0  0  0  0  0
    7.1054   -2.8290    0.0000 C   0  0  0  0  0  0  0  0  0  0  0  0
    2.5000   -2.1711    0.0000 C   0  0  0  0  0  0  0  0  0  0  0  0
    7.1054   -2.0066    0.0000 C   0  0  0  0  0  0  0  0  0  0  0  0
    6.4146   -3.2237    0.0000 C   0  0  0  0  0  0  0  0  0  0  0  0
    1.5132   -0.8552    0.0000 C   0  0  0  0  0  0  0  0  0  0  0  0
    7.8620   -3.2237    0.0000 C   0  0  0  0  0  0  0  0  0  0  0  0
    1.1842   -1.6119    0.0000 C   0  0  0  0  0  0  0  0  0  0  0  0
    1.6777   -2.2698    0.0000 C   0  0  0  0  0  0  0  0  0  0  0  0
    8.5857   -4.4738    0.0000 C   0  0  3  0  0  0  0  0  0  0  0  0
    9.3423   -4.1448    0.0000 C   0  0  3  0  0  0  0  0  0  0  0  0
    2.6645    0.0000    0.0000 C   0  0  0  0  0  0  0  0  0  0  0  0
    8.6515   -5.2961    0.0000 C   0  0  0  0  0  0  0  0  0  0  0  0
    0.3618   -1.6777    0.0000 C   0  0  0  0  0  0  0  0  0  0  0  0
    9.8686   -4.7698    0.0000 C   0  0  0  0  0  0  0  0  0  0  0  0
    9.4738   -5.4606    0.0000 C   0  0  0  0  0  0  0  0  0  0  0  0
    9.5068   -3.3224    0.0000 C   0  0  0  0  0  0  0  0  0  0  0  0
    8.0922   -3.0264    0.0000 C   0  0  0  0  0  0  0  0  0  0  0  0
  1 10  1  0  0  0  0
  2 21  2  0  0  0  0
  3 31  1  0  0  0  0
  3 32  1  0  0  0  0
  4  5  1  0  0  0  0
  4 10  1  0  0  0  0
  4 12  1  0  0  0  0
  5 13  2  0  0  0  0
  6 12  2  0  0  0  0
  6 18  1  0  0  0  0
  7 21  1  0  0  0  0
 24  7  1  1  0  0  0
  8 28  3  0  0  0  0
  9 10  2  0  0  0  0
  9 11  1  0  0  0  0
  9 13  1  0  0  0  0
 11 14  1  0  0  0  0
 11 17  2  0  0  0  0
 12 15  1  0  0  0  0
 14 20  2  0  0  0  0
 14 26  1  0  0  0  0
 15 19  2  0  0  0  0
 16 18  2  0  0  0  0
 16 19  1  0  0  0  0
 16 21  1  0  0  0  0
 17 23  1  0  0  0  0
 20 22  1  0  0  0  0
 22 23  2  0  0  0  0
 22 28  1  0  0  0  0
 24 25  1  0  0  0  0
 24 27  1  0  0  0  0
 25 29  1  0  0  0  0
 25 31  1  1  0  0  0
 27 30  1  0  0  0  0
 29 30  1  0  0  0  0
M  END
> <PUBCHEM_COMPOUND_ID_TYPE>
0

> <PUBCHEM_TOTAL_CHARGE>
0

> <PUBCHEM_SUBSTANCE_ID>
310932585

> <PUBCHEM_SUBSTANCE_VERSION>
1

> <PUBCHEM_EXT_DATASOURCE_NAME>
4488

> <PUBCHEM_EXT_DATASOURCE_REGID>
SCHEMBL16109962

> <PUBCHEM_SUBSTANCE_COMMENT>
InChI=1S/C24H25N5O3/c1-15-10-16(11-25)6-8-19(15)20-13-27-29(24(20)31)22-9-7-17(12-26-22)23(30)28-21-5-3-4-18(21)14-32-2/h6-10,12-13,18,21,31H,3-5,14H2,1-2H3,(H,28,30)/t18-,21-/m1/s1
InChIKey=XMTIGGNSMJFGQN-WIYYLYMNSA-N

> <PUBCHEM_SUBSTANCE_SYNONYM>
SCHEMBL16109962

> <PUBCHEM_XREF_EXT_ID>
SCHEMBL16109962

> <PUBCHEM_EXT_DATASOURCE_URL>
https://www.surechembl.org/

> <PUBCHEM_EXT_SUBSTANCE_URL>
https://www.surechembl.org/chemical/SCHEMBL16109962

> <PUBCHEM_CID_ASSOCIATIONS>
117601107  1

> <PUBCHEM_COORDINATE_TYPE>
1
3

> <PUBCHEM_BONDANNOTATIONS>
25  31  5
24  7  5

$$$$
