310929969
  -OEChem-07211613022D

 41 47  0     1  0  0  0  0  0999 V2000
    0.0000   -3.8855    0.0000 F   0  0  0  0  0  0  0  0  0  0  0  0
    1.1498   -4.6784    0.0000 F   0  0  0  0  0  0  0  0  0  0  0  0
    0.4361   -3.2114    0.0000 F   0  0  0  0  0  0  0  0  0  0  0  0
    0.9119   -3.0925    0.0000 O   0  0  0  0  0  0  0  0  0  0  0  0
    3.8458   -1.7445    0.0000 O   0  0  0  0  0  0  0  0  0  0  0  0
    8.2069   -1.0704    0.0000 O   0  0  0  0  0  0  0  0  0  0  0  0
    5.2731   -7.9294    0.0000 O   0  0  0  0  0  0  0  0  0  0  0  0
    4.5594   -5.8678    0.0000 N   0  0  0  0  0  0  0  0  0  0  0  0
    5.2334   -5.3920    0.0000 N   0  0  0  0  0  0  0  0  0  0  0  0
    5.9867   -6.7004    0.0000 N   0  0  0  0  0  0  0  0  0  0  0  0
    1.5462   -3.5682    0.0000 C   0  0  3  0  0  0  0  0  0  0  0  0
    2.2995   -3.3304    0.0000 C   0  0  0  0  0  0  0  0  0  0  0  0
    2.8149   -4.0440    0.0000 C   0  0  0  0  0  0  0  0  0  0  0  0
    1.5066   -4.4405    0.0000 C   0  0  0  0  0  0  0  0  0  0  0  0
    2.2995   -4.6784    0.0000 C   0  0  0  0  0  0  0  0  0  0  0  0
    0.8326   -3.9251    0.0000 C   0  0  0  0  0  0  0  0  0  0  0  0
    3.6476   -3.9251    0.0000 C   0  0  0  0  0  0  0  0  0  0  0  0
    2.6564   -2.5374    0.0000 C   0  0  0  0  0  0  0  0  0  0  0  0
    0.9119   -4.9559    0.0000 C   0  0  0  0  0  0  0  0  0  0  0  0
    3.4889   -2.4978    0.0000 C   0  0  0  0  0  0  0  0  0  0  0  0
    2.4581   -5.5109    0.0000 C   0  0  0  0  0  0  0  0  0  0  0  0
    3.9647   -3.1718    0.0000 C   0  0  0  0  0  0  0  0  0  0  0  0
    4.1233   -4.5991    0.0000 C   0  0  0  0  0  0  0  0  0  0  0  0
    5.8282   -0.8326    0.0000 C   0  0  0  0  0  0  0  0  0  0  0  0
    7.3744   -1.1498    0.0000 C   0  0  0  0  0  0  0  0  0  0  0  0
    1.1101   -5.7488    0.0000 C   0  0  0  0  0  0  0  0  0  0  0  0
    1.8634   -6.0264    0.0000 C   0  0  0  0  0  0  0  0  0  0  0  0
    6.6211   -1.2291    0.0000 C   0  0  0  0  0  0  0  0  0  0  0  0
    6.9779   -1.4670    0.0000 C   0  0  3  0  0  0  0  0  0  0  0  0
    6.8590    0.0000    0.0000 C   0  0  3  0  0  0  0  0  0  0  0  0
    3.8855   -5.3920    0.0000 C   0  0  0  0  0  0  0  0  0  0  0  0
    6.2643   -1.5462    0.0000 C   0  0  0  0  0  0  0  0  0  0  0  0
    6.1057   -0.0793    0.0000 C   0  0  0  0  0  0  0  0  0  0  0  0
    4.9559   -4.5991    0.0000 C   0  0  0  0  0  0  0  0  0  0  0  0
    7.8105   -1.8238    0.0000 C   0  0  0  0  0  0  0  0  0  0  0  0
    7.6915   -0.3568    0.0000 C   0  0  0  0  0  0  0  0  0  0  0  0
    4.9955   -0.9119    0.0000 C   0  0  0  0  0  0  0  0  0  0  0  0
    7.2951   -0.7137    0.0000 C   0  0  0  0  0  0  0  0  0  0  0  0
    4.6387   -1.6652    0.0000 C   0  0  0  0  0  0  0  0  0  0  0  0
    4.5594   -6.7004    0.0000 C   0  0  0  0  0  0  0  0  0  0  0  0
    5.2731   -7.0969    0.0000 C   0  0  0  0  0  0  0  0  0  0  0  0
  1 16  1  0  0  0  0
  2 16  1  0  0  0  0
  3 16  1  0  0  0  0
 11  4  1  1  0  0  0
  5 20  1  0  0  0  0
  5 39  1  0  0  0  0
  6 25  1  0  0  0  0
  7 41  2  0  0  0  0
  8  9  1  0  0  0  0
  8 31  1  0  0  0  0
  8 40  1  0  0  0  0
  9 34  2  0  0  0  0
 10 41  1  0  0  0  0
 11 12  1  0  0  0  0
 11 14  1  0  0  0  0
 11 16  1  6  0  0  0
 12 13  2  0  0  0  0
 12 18  1  0  0  0  0
 13 15  1  0  0  0  0
 13 17  1  0  0  0  0
 14 15  2  0  0  0  0
 14 19  1  0  0  0  0
 15 21  1  0  0  0  0
 17 22  2  0  0  0  0
 17 23  1  0  0  0  0
 18 20  2  0  0  0  0
 19 26  2  0  0  0  0
 20 22  1  0  0  0  0
 21 27  2  0  0  0  0
 23 31  2  0  0  0  0
 23 34  1  0  0  0  0
 24 28  1  0  0  0  0
 24 32  1  0  0  0  0
 24 33  1  0  0  0  0
 24 37  1  0  0  0  0
 25 28  1  0  0  0  0
 25 35  1  0  0  0  0
 25 36  1  0  0  0  0
 26 27  1  0  0  0  0
 29 32  1  0  0  0  0
 29 35  1  0  0  0  0
 29 38  1  0  0  0  0
 30 33  1  0  0  0  0
 30 36  1  0  0  0  0
 30 38  1  0  0  0  0
 37 39  1  0  0  0  0
 40 41  1  0  0  0  0
M  END
> <PUBCHEM_COMPOUND_ID_TYPE>
0

> <PUBCHEM_TOTAL_CHARGE>
0

> <PUBCHEM_SUBSTANCE_ID>
310929969

> <PUBCHEM_SUBSTANCE_VERSION>
1

> <PUBCHEM_EXT_DATASOURCE_NAME>
4488

> <PUBCHEM_EXT_DATASOURCE_REGID>
SCHEMBL16107202

> <PUBCHEM_SUBSTANCE_COMMENT>
InChI=1S/C31H32F3N3O4/c32-31(33,34)30(40)24-4-2-1-3-22(24)27-23(20-14-36-37(15-20)16-26(35)38)8-21(9-25(27)30)41-6-5-28-10-18-7-19(11-28)13-29(39,12-18)17-28/h1-4,8-9,14-15,18-19,39-40H,5-7,10-13,16-17H2,(H2,35,38)/t18?,19?,28?,29?,30-/m1/s1
InChIKey=DFMOPMRTXWAYEQ-OGLZCMIGSA-N

> <PUBCHEM_SUBSTANCE_SYNONYM>
SCHEMBL16107202

> <PUBCHEM_XREF_EXT_ID>
SCHEMBL16107202

> <PUBCHEM_EXT_DATASOURCE_URL>
https://www.surechembl.org/

> <PUBCHEM_EXT_SUBSTANCE_URL>
https://www.surechembl.org/chemical/SCHEMBL16107202

> <PUBCHEM_CID_ASSOCIATIONS>
102594415  1

> <PUBCHEM_COORDINATE_TYPE>
1
3

> <PUBCHEM_BONDANNOTATIONS>
11  16  6
11  4  5

$$$$
