310944022
  -OEChem-07211613022D

 21 22  0     0  0  0  0  0  0999 V2000
   -0.0156    3.0587    0.0000 F   0  0  0  0  0  0  0  0  0  0  0  0
    2.1481    2.6073    0.0000 N   0  0  0  0  0  0  0  0  0  0  0  0
   -2.1325    2.5917    0.0000 N   0  0  0  0  0  0  0  0  0  0  0  0
    0.0000    0.6460    0.0000 C   0  0  0  0  0  0  0  0  0  0  0  0
   -0.0156    2.2493    0.0000 C   0  0  0  0  0  0  0  0  0  0  0  0
    0.7161    1.8601    0.0000 C   0  0  0  0  0  0  0  0  0  0  0  0
   -0.7005    1.8446    0.0000 C   0  0  0  0  0  0  0  0  0  0  0  0
    0.0000   -0.1791    0.0000 C   0  0  0  0  0  0  0  0  0  0  0  0
    0.7005    1.0351    0.0000 C   0  0  0  0  0  0  0  0  0  0  0  0
   -0.7161    1.0351    0.0000 C   0  0  0  0  0  0  0  0  0  0  0  0
   -0.7161   -0.5993    0.0000 C   0  0  0  0  0  0  0  0  0  0  0  0
    0.6849   -0.5837    0.0000 C   0  0  0  0  0  0  0  0  0  0  0  0
    1.4321    2.2493    0.0000 C   0  0  0  0  0  0  0  0  0  0  0  0
   -1.4321    2.2338    0.0000 C   0  0  0  0  0  0  0  0  0  0  0  0
   -0.0156   -1.8290    0.0000 C   0  0  0  0  0  0  0  0  0  0  0  0
   -0.7161   -1.3931    0.0000 C   0  0  0  0  0  0  0  0  0  0  0  0
    0.7005   -1.4087    0.0000 C   0  0  0  0  0  0  0  0  0  0  0  0
   -0.0156   -2.6695    0.0000 C   0  0  0  0  0  0  0  0  0  0  0  0
   -0.7005   -3.0587    0.0000 C   0  0  0  0  0  0  0  0  0  0  0  0
   -1.4476   -2.6539    0.0000 C   0  0  0  0  0  0  0  0  0  0  0  0
   -2.1481   -3.0587    0.0000 C   0  0  0  0  0  0  0  0  0  0  0  0
  1  5  1  0  0  0  0
  2 13  3  0  0  0  0
  3 14  3  0  0  0  0
  4  8  1  0  0  0  0
  4  9  2  0  0  0  0
  4 10  1  0  0  0  0
  5  6  2  0  0  0  0
  5  7  1  0  0  0  0
  6  9  1  0  0  0  0
  6 13  1  0  0  0  0
  7 10  2  0  0  0  0
  7 14  1  0  0  0  0
  8 11  1  0  0  0  0
  8 12  1  0  0  0  0
 11 16  1  0  0  0  0
 12 17  1  0  0  0  0
 15 16  1  0  0  0  0
 15 17  1  0  0  0  0
 15 18  1  0  0  0  0
 18 19  1  0  0  0  0
 19 20  1  0  0  0  0
 20 21  1  0  0  0  0
M  END
> <PUBCHEM_COMPOUND_ID_TYPE>
0

> <PUBCHEM_TOTAL_CHARGE>
0

> <PUBCHEM_SUBSTANCE_ID>
310944022

> <PUBCHEM_SUBSTANCE_VERSION>
1

> <PUBCHEM_EXT_DATASOURCE_NAME>
4488

> <PUBCHEM_EXT_DATASOURCE_REGID>
SCHEMBL16122095

> <PUBCHEM_SUBSTANCE_COMMENT>
InChI=1S/C18H21FN2/c1-2-3-4-13-5-7-14(8-6-13)15-9-16(11-20)18(19)17(10-15)12-21/h9-10,13-14H,2-8H2,1H3
InChIKey=TUSYSZAUHWCBPF-UHFFFAOYSA-N

> <PUBCHEM_SUBSTANCE_SYNONYM>
SCHEMBL16122095

> <PUBCHEM_XREF_EXT_ID>
SCHEMBL16122095

> <PUBCHEM_EXT_DATASOURCE_URL>
https://www.surechembl.org/

> <PUBCHEM_EXT_SUBSTANCE_URL>
https://www.surechembl.org/chemical/SCHEMBL16122095

> <PUBCHEM_CID_ASSOCIATIONS>
117610325  1

> <PUBCHEM_COORDINATE_TYPE>
1
3

$$$$
