310940921
  -OEChem-07211613022D

  8  8  0     0  0  0  0  0  0999 V2000
    1.5746    0.0560    0.0000 I   0  0  0  0  0  0  0  0  0  0  0  0
    0.9028   -1.1337    0.0000 O   0  0  0  0  0  0  0  0  0  0  0  0
   -1.5746    1.1337    0.0000 O   0  0  0  0  0  0  0  0  0  0  0  0
    0.1750    0.1680    0.0000 C   0  0  0  0  0  0  0  0  0  0  0  0
   -0.8327    0.7418    0.0000 C   0  0  0  0  0  0  0  0  0  0  0  0
    0.9168   -0.2519    0.0000 C   0  0  0  0  0  0  0  0  0  0  0  0
   -0.6228   -0.0560    0.0000 C   0  0  0  0  0  0  0  0  0  0  0  0
   -0.0350    0.9377    0.0000 C   0  0  0  0  0  0  0  0  0  0  0  0
  1  6  1  0  0  0  0
  2  6  2  0  0  0  0
  3  5  1  0  0  0  0
  4  6  1  0  0  0  0
  4  7  1  0  0  0  0
  4  8  1  0  0  0  0
  5  7  1  0  0  0  0
  5  8  1  0  0  0  0
M  END
> <PUBCHEM_COMPOUND_ID_TYPE>
0

> <PUBCHEM_TOTAL_CHARGE>
0

> <PUBCHEM_SUBSTANCE_ID>
310940921

> <PUBCHEM_SUBSTANCE_VERSION>
1

> <PUBCHEM_EXT_DATASOURCE_NAME>
4488

> <PUBCHEM_EXT_DATASOURCE_REGID>
SCHEMBL16118880

> <PUBCHEM_SUBSTANCE_COMMENT>
InChI=1S/C5H7IO2/c6-5(8)3-1-4(7)2-3/h3-4,7H,1-2H2
InChIKey=WGLNDFTUOSLUOQ-UHFFFAOYSA-N

> <PUBCHEM_SUBSTANCE_SYNONYM>
SCHEMBL16118880

> <PUBCHEM_XREF_EXT_ID>
SCHEMBL16118880

> <PUBCHEM_EXT_DATASOURCE_URL>
https://www.surechembl.org/

> <PUBCHEM_EXT_SUBSTANCE_URL>
https://www.surechembl.org/chemical/SCHEMBL16118880

> <PUBCHEM_CID_ASSOCIATIONS>
117607830  1

> <PUBCHEM_COORDINATE_TYPE>
1
3

$$$$
