310944580
  -OEChem-07211613022D

 16 16  0     0  0  0  0  0  0999 V2000
   -2.3670   -1.2486    0.0000 Cl  0  0  0  0  0  0  0  0  0  0  0  0
    0.6971   -1.2332    0.0000 O   0  0  0  0  0  0  0  0  0  0  0  0
    2.1371    1.2486    0.0000 O   0  0  0  0  0  0  0  0  0  0  0  0
    2.8572    0.0077    0.0000 O   0  0  0  0  0  0  0  0  0  0  0  0
    0.7124    0.4213    0.0000 N   0  0  0  0  0  0  0  0  0  0  0  0
   -0.0077    0.0230    0.0000 C   0  0  0  0  0  0  0  0  0  0  0  0
   -0.0077   -0.8043    0.0000 C   0  0  0  0  0  0  0  0  0  0  0  0
   -1.4324    0.0077    0.0000 C   0  0  0  0  0  0  0  0  0  0  0  0
   -1.4324   -0.8197    0.0000 C   0  0  0  0  0  0  0  0  0  0  0  0
   -0.7277    0.4060    0.0000 C   0  0  0  0  0  0  0  0  0  0  0  0
   -0.7124   -1.2332    0.0000 C   0  0  0  0  0  0  0  0  0  0  0  0
   -2.1678    0.4213    0.0000 C   0  0  0  0  0  0  0  0  0  0  0  0
    1.4477    0.0077    0.0000 C   0  0  0  0  0  0  0  0  0  0  0  0
    2.1525    0.4213    0.0000 C   0  0  0  0  0  0  0  0  0  0  0  0
    1.4324   -0.8197    0.0000 C   0  0  0  0  0  0  0  0  0  0  0  0
   -2.8572   -0.0077    0.0000 C   0  0  0  0  0  0  0  0  0  0  0  0
  1  9  1  0  0  0  0
  2  7  1  0  0  0  0
  2 15  1  0  0  0  0
  3 14  2  0  0  0  0
  4 14  1  0  0  0  0
  5  6  1  0  0  0  0
  5 13  1  0  0  0  0
  6  7  1  0  0  0  0
  6 10  2  0  0  0  0
  7 11  2  0  0  0  0
  8  9  2  0  0  0  0
  8 10  1  0  0  0  0
  8 12  1  0  0  0  0
  9 11  1  0  0  0  0
 12 16  1  0  0  0  0
 13 14  1  0  0  0  0
M  END
> <PUBCHEM_COMPOUND_ID_TYPE>
0

> <PUBCHEM_TOTAL_CHARGE>
0

> <PUBCHEM_SUBSTANCE_ID>
310944580

> <PUBCHEM_SUBSTANCE_VERSION>
1

> <PUBCHEM_EXT_DATASOURCE_NAME>
4488

> <PUBCHEM_EXT_DATASOURCE_REGID>
SCHEMBL16122658

> <PUBCHEM_SUBSTANCE_COMMENT>
InChI=1S/C11H14ClNO3/c1-3-7-4-9(13-6-11(14)15)10(16-2)5-8(7)12/h4-5,13H,3,6H2,1-2H3,(H,14,15)
InChIKey=LTRVAVWEMGKHAY-UHFFFAOYSA-N

> <PUBCHEM_SUBSTANCE_SYNONYM>
SCHEMBL16122658

> <PUBCHEM_XREF_EXT_ID>
SCHEMBL16122658

> <PUBCHEM_EXT_DATASOURCE_URL>
https://www.surechembl.org/

> <PUBCHEM_EXT_SUBSTANCE_URL>
https://www.surechembl.org/chemical/SCHEMBL16122658

> <PUBCHEM_CID_ASSOCIATIONS>
117610811  1

> <PUBCHEM_COORDINATE_TYPE>
1
3

$$$$
