310947296
  -OEChem-07211613022D

 42 46  0     1  0  0  0  0  0999 V2000
   -7.9524    2.6568    0.0000 Br  0  0  0  0  0  0  0  0  0  0  0  0
   -3.6656    5.1318    0.0000 O   0  0  0  0  0  0  0  0  0  0  0  0
    3.3875    4.2433    0.0000 O   0  0  0  0  0  0  0  0  0  0  0  0
    2.1500    3.5288    0.0000 O   0  0  0  0  0  0  0  0  0  0  0  0
   -0.7375    2.8143    0.0000 N   0  0  0  0  0  0  0  0  0  0  0  0
   -0.2526    3.4818    0.0000 N   0  0  0  0  0  0  0  0  0  0  0  0
   -4.3800    3.8943    0.0000 N   0  0  0  0  0  0  0  0  0  0  0  0
   -1.5222    3.0693    0.0000 C   0  0  0  0  0  0  0  0  0  0  0  0
   -1.5222    3.8943    0.0000 C   0  0  0  0  0  0  0  0  0  0  0  0
   -0.7375    4.1492    0.0000 C   0  0  0  0  0  0  0  0  0  0  0  0
   -2.2366    4.3068    0.0000 C   0  0  0  0  0  0  0  0  0  0  0  0
   -2.9511    3.8943    0.0000 C   0  0  0  0  0  0  0  0  0  0  0  0
   -2.2366    2.6568    0.0000 C   0  0  0  0  0  0  0  0  0  0  0  0
   -0.3250    2.0999    0.0000 C   0  0  0  0  0  0  0  0  0  0  0  0
   -2.9511    3.0693    0.0000 C   0  0  0  0  0  0  0  0  0  0  0  0
    0.5000    2.0999    0.0000 C   0  0  0  0  0  0  0  0  0  0  0  0
   -3.6656    4.3068    0.0000 C   0  0  0  0  0  0  0  0  0  0  0  0
    2.9750    2.0999    0.0000 C   0  0  0  0  0  0  0  0  0  0  0  0
    2.1500    2.0999    0.0000 C   0  0  0  0  0  0  0  0  0  0  0  0
    3.3875    2.8143    0.0000 C   0  0  0  0  0  0  0  0  0  0  0  0
   -0.3250    4.8637    0.0000 C   0  0  0  0  0  0  0  0  0  0  0  0
    0.9125    1.3854    0.0000 C   0  0  0  0  0  0  0  0  0  0  0  0
    0.9125    2.8143    0.0000 C   0  0  0  0  0  0  0  0  0  0  0  0
    1.7375    1.3854    0.0000 C   0  0  0  0  0  0  0  0  0  0  0  0
    1.7375    2.8143    0.0000 C   0  0  0  0  0  0  0  0  0  0  0  0
    2.9750    3.5288    0.0000 C   0  0  0  0  0  0  0  0  0  0  0  0
    3.3875    1.3854    0.0000 C   0  0  0  0  0  0  0  0  0  0  0  0
    4.2125    2.8143    0.0000 C   0  0  0  0  0  0  0  0  0  0  0  0
   -5.0945    4.3068    0.0000 C   0  0  3  0  0  0  0  0  0  0  0  0
   -5.8090    3.8943    0.0000 C   0  0  0  0  0  0  0  0  0  0  0  0
    4.2125    1.3854    0.0000 C   0  0  0  0  0  0  0  0  0  0  0  0
    4.6250    2.0999    0.0000 C   0  0  0  0  0  0  0  0  0  0  0  0
    2.9750    4.9578    0.0000 C   0  0  0  0  0  0  0  0  0  0  0  0
   -6.5235    4.3068    0.0000 C   0  0  0  0  0  0  0  0  0  0  0  0
   -5.8090    3.0693    0.0000 C   0  0  0  0  0  0  0  0  0  0  0  0
   -5.0945    5.1318    0.0000 C   0  0  0  0  0  0  0  0  0  0  0  0
   -7.2379    3.0693    0.0000 C   0  0  0  0  0  0  0  0  0  0  0  0
   -7.2379    3.8943    0.0000 C   0  0  0  0  0  0  0  0  0  0  0  0
   -6.5235    2.6568    0.0000 C   0  0  0  0  0  0  0  0  0  0  0  0
    3.3875    5.6722    0.0000 C   0  0  0  0  0  0  0  0  0  0  0  0
    2.1500    4.9578    0.0000 C   0  0  0  0  0  0  0  0  0  0  0  0
    3.8000    4.9578    0.0000 C   0  0  0  0  0  0  0  0  0  0  0  0
  1 37  1  0  0  0  0
  2 17  2  0  0  0  0
  3 26  1  0  0  0  0
  3 33  1  0  0  0  0
  4 26  2  0  0  0  0
  5  6  1  0  0  0  0
  5  8  1  0  0  0  0
  5 14  1  0  0  0  0
  6 10  2  0  0  0  0
  7 17  1  0  0  0  0
  7 29  1  0  0  0  0
  8  9  1  0  0  0  0
  8 13  2  0  0  0  0
  9 10  1  0  0  0  0
  9 11  2  0  0  0  0
 10 21  1  0  0  0  0
 11 12  1  0  0  0  0
 12 15  2  0  0  0  0
 12 17  1  0  0  0  0
 13 15  1  0  0  0  0
 14 16  1  0  0  0  0
 16 22  2  0  0  0  0
 16 23  1  0  0  0  0
 18 19  1  0  0  0  0
 18 20  1  0  0  0  0
 18 27  2  0  0  0  0
 19 24  2  0  0  0  0
 19 25  1  0  0  0  0
 20 26  1  0  0  0  0
 20 28  2  0  0  0  0
 22 24  1  0  0  0  0
 23 25  2  0  0  0  0
 27 31  1  0  0  0  0
 28 32  1  0  0  0  0
 29 30  1  0  0  0  0
 29 36  1  6  0  0  0
 30 34  2  0  0  0  0
 30 35  1  0  0  0  0
 31 32  2  0  0  0  0
 33 40  1  0  0  0  0
 33 41  1  0  0  0  0
 33 42  1  0  0  0  0
 34 38  1  0  0  0  0
 35 39  2  0  0  0  0
 37 38  2  0  0  0  0
 37 39  1  0  0  0  0
M  END
> <PUBCHEM_COMPOUND_ID_TYPE>
0

> <PUBCHEM_TOTAL_CHARGE>
0

> <PUBCHEM_SUBSTANCE_ID>
310947296

> <PUBCHEM_SUBSTANCE_VERSION>
1

> <PUBCHEM_EXT_DATASOURCE_NAME>
4488

> <PUBCHEM_EXT_DATASOURCE_REGID>
SCHEMBL16125451

> <PUBCHEM_SUBSTANCE_COMMENT>
InChI=1S/C35H34BrN3O3/c1-22(25-14-17-28(36)18-15-25)37-33(40)27-16-19-32-31(20-27)23(2)38-39(32)21-24-10-12-26(13-11-24)29-8-6-7-9-30(29)34(41)42-35(3,4)5/h6-20,22H,21H2,1-5H3,(H,37,40)/t22-/m0/s1
InChIKey=UMGLNRSSHKRKKL-QFIPXVFZSA-N

> <PUBCHEM_SUBSTANCE_SYNONYM>
SCHEMBL16125451

> <PUBCHEM_XREF_EXT_ID>
SCHEMBL16125451

> <PUBCHEM_EXT_DATASOURCE_URL>
https://www.surechembl.org/

> <PUBCHEM_EXT_SUBSTANCE_URL>
https://www.surechembl.org/chemical/SCHEMBL16125451

> <PUBCHEM_CID_ASSOCIATIONS>
117613079  1

> <PUBCHEM_COORDINATE_TYPE>
1
3

> <PUBCHEM_BONDANNOTATIONS>
29  36  6

$$$$
