310944363
  -OEChem-07211613022D

 29 32  0     0  0  0  0  0  0999 V2000
   -1.8220    2.8555    0.0000 F   0  0  0  0  0  0  0  0  0  0  0  0
    0.3379    2.4051    0.0000 N   0  0  0  0  0  0  0  0  0  0  0  0
   -1.8352   -1.2257    0.0000 N   0  0  0  0  0  0  0  0  0  0  0  0
   -0.3777    0.4174    0.0000 C   0  0  0  0  0  0  0  0  0  0  0  0
   -1.1197    0.8281    0.0000 C   0  0  0  0  0  0  0  0  0  0  0  0
   -0.3512   -0.4174    0.0000 C   0  0  0  0  0  0  0  0  0  0  0  0
    0.3777    0.8149    0.0000 C   0  0  0  0  0  0  0  0  0  0  0  0
   -1.1064    1.6630    0.0000 C   0  0  0  0  0  0  0  0  0  0  0  0
   -1.8220    0.4174    0.0000 C   0  0  0  0  0  0  0  0  0  0  0  0
   -0.3909   -1.2389    0.0000 C   0  0  0  0  0  0  0  0  0  0  0  0
    1.0667    1.2389    0.0000 C   0  0  0  0  0  0  0  0  0  0  0  0
   -1.8485    2.0472    0.0000 C   0  0  0  0  0  0  0  0  0  0  0  0
    0.3512   -0.8017    0.0000 C   0  0  0  0  0  0  0  0  0  0  0  0
    1.0932    0.4042    0.0000 C   0  0  0  0  0  0  0  0  0  0  0  0
   -2.5508    0.8281    0.0000 C   0  0  0  0  0  0  0  0  0  0  0  0
   -2.5508    1.6497    0.0000 C   0  0  0  0  0  0  0  0  0  0  0  0
    1.0932   -0.3777    0.0000 C   0  0  0  0  0  0  0  0  0  0  0  0
   -0.3777    2.0472    0.0000 C   0  0  0  0  0  0  0  0  0  0  0  0
   -1.8352   -0.4174    0.0000 C   0  0  0  0  0  0  0  0  0  0  0  0
   -1.1197   -1.6364    0.0000 C   0  0  0  0  0  0  0  0  0  0  0  0
    0.3247   -1.6364    0.0000 C   0  0  0  0  0  0  0  0  0  0  0  0
    1.8352    0.8414    0.0000 C   0  0  0  0  0  0  0  0  0  0  0  0
    1.1064    2.0605    0.0000 C   0  0  0  0  0  0  0  0  0  0  0  0
   -1.1064   -2.4580    0.0000 C   0  0  0  0  0  0  0  0  0  0  0  0
    0.3247   -2.4713    0.0000 C   0  0  0  0  0  0  0  0  0  0  0  0
    2.5508    1.2654    0.0000 C   0  0  0  0  0  0  0  0  0  0  0  0
    1.8088    2.4580    0.0000 C   0  0  0  0  0  0  0  0  0  0  0  0
   -0.3644   -2.8555    0.0000 C   0  0  0  0  0  0  0  0  0  0  0  0
    2.5508    2.0605    0.0000 C   0  0  0  0  0  0  0  0  0  0  0  0
  1 12  1  0  0  0  0
  2 18  3  0  0  0  0
  3 19  3  0  0  0  0
  4  5  1  0  0  0  0
  4  6  2  0  0  0  0
  4  7  1  0  0  0  0
  5  8  1  0  0  0  0
  5  9  2  0  0  0  0
  6 10  1  0  0  0  0
  6 13  1  0  0  0  0
  7 11  1  0  0  0  0
  7 14  2  0  0  0  0
  8 12  2  0  0  0  0
  8 18  1  0  0  0  0
  9 15  1  0  0  0  0
  9 19  1  0  0  0  0
 10 20  2  0  0  0  0
 10 21  1  0  0  0  0
 11 22  2  0  0  0  0
 11 23  1  0  0  0  0
 12 16  1  0  0  0  0
 13 17  2  0  0  0  0
 14 17  1  0  0  0  0
 15 16  2  0  0  0  0
 20 24  1  0  0  0  0
 21 25  2  0  0  0  0
 22 26  1  0  0  0  0
 23 27  2  0  0  0  0
 24 28  2  0  0  0  0
 25 28  1  0  0  0  0
 26 29  2  0  0  0  0
 27 29  1  0  0  0  0
M  END
> <PUBCHEM_COMPOUND_ID_TYPE>
0

> <PUBCHEM_TOTAL_CHARGE>
0

> <PUBCHEM_SUBSTANCE_ID>
310944363

> <PUBCHEM_SUBSTANCE_VERSION>
1

> <PUBCHEM_EXT_DATASOURCE_NAME>
4488

> <PUBCHEM_EXT_DATASOURCE_REGID>
SCHEMBL16122438

> <PUBCHEM_SUBSTANCE_COMMENT>
InChI=1S/C26H15FN2/c27-24-15-14-20(16-28)25(23(24)17-29)26-21(18-8-3-1-4-9-18)12-7-13-22(26)19-10-5-2-6-11-19/h1-15H
InChIKey=HPMWDUGKXQOEEG-UHFFFAOYSA-N

> <PUBCHEM_SUBSTANCE_SYNONYM>
SCHEMBL16122438

> <PUBCHEM_XREF_EXT_ID>
SCHEMBL16122438

> <PUBCHEM_EXT_DATASOURCE_URL>
https://www.surechembl.org/

> <PUBCHEM_EXT_SUBSTANCE_URL>
https://www.surechembl.org/chemical/SCHEMBL16122438

> <PUBCHEM_CID_ASSOCIATIONS>
117610620  1

> <PUBCHEM_COORDINATE_TYPE>
1
3

$$$$
