310942953
  -OEChem-07211613022D

 37 41  0     1  0  0  0  0  0999 V2000
    2.5507    0.4477    0.0000 F   0  0  0  0  0  0  0  0  0  0  0  0
    3.3446    0.1943    0.0000 F   0  0  0  0  0  0  0  0  0  0  0  0
    3.5642   -0.3969    0.0000 F   0  0  0  0  0  0  0  0  0  0  0  0
   -2.8378   -0.5490    0.0000 O   0  0  0  0  0  0  0  0  0  0  0  0
   -1.4190    3.9781    0.0000 O   0  0  0  0  0  0  0  0  0  0  0  0
   -1.3514    1.7990    0.0000 N   0  0  0  0  0  0  0  0  0  0  0  0
   -0.8446    1.1402    0.0000 N   0  0  0  0  0  0  0  0  0  0  0  0
   -1.0642   -0.3294    0.0000 N   0  0  0  0  0  0  0  0  0  0  0  0
   -3.5642    0.6842    0.0000 N   0  0  0  0  0  0  0  0  0  0  0  0
    2.4493   -1.7652    0.0000 N   0  0  0  0  0  0  0  0  0  0  0  0
    2.9899   -3.3362    0.0000 N   0  0  0  0  0  0  0  0  0  0  0  0
    0.8446    1.5456    0.0000 N   0  0  0  0  0  0  0  0  0  0  0  0
   -2.1453    0.7179    0.0000 C   0  0  0  0  0  0  0  0  0  0  0  0
   -2.1115    1.5456    0.0000 C   0  0  0  0  0  0  0  0  0  0  0  0
   -1.3344    0.4645    0.0000 C   0  0  0  0  0  0  0  0  0  0  0  0
   -1.0980    2.6098    0.0000 C   0  0  3  0  0  0  0  0  0  0  0  0
   -2.8378    0.2956    0.0000 C   0  0  0  0  0  0  0  0  0  0  0  0
   -2.8716    1.9342    0.0000 C   0  0  0  0  0  0  0  0  0  0  0  0
   -0.2871    2.7618    0.0000 C   0  0  3  0  0  0  0  0  0  0  0  0
    2.1791   -0.9713    0.0000 C   0  0  3  0  0  0  0  0  0  0  0  0
   -0.2534   -0.4814    0.0000 C   0  0  0  0  0  0  0  0  0  0  0  0
    1.3852   -0.8024    0.0000 C   0  0  0  0  0  0  0  0  0  0  0  0
   -3.5473    1.5287    0.0000 C   0  0  0  0  0  0  0  0  0  0  0  0
   -1.6555    3.1841    0.0000 C   0  0  0  0  0  0  0  0  0  0  0  0
    2.7534   -0.3294    0.0000 C   0  0  0  0  0  0  0  0  0  0  0  0
    0.0338   -1.2754    0.0000 C   0  0  0  0  0  0  0  0  0  0  0  0
    0.3041    0.1267    0.0000 C   0  0  0  0  0  0  0  0  0  0  0  0
    0.8277   -1.4274    0.0000 C   0  0  0  0  0  0  0  0  0  0  0  0
    1.0980   -0.0254    0.0000 C   0  0  0  0  0  0  0  0  0  0  0  0
   -0.0506    3.5727    0.0000 C   0  0  0  0  0  0  0  0  0  0  0  0
    0.2534    2.1538    0.0000 C   0  0  0  0  0  0  0  0  0  0  0  0
   -0.6081    4.1639    0.0000 C   0  0  0  0  0  0  0  0  0  0  0  0
    1.9088   -2.4071    0.0000 C   0  0  0  0  0  0  0  0  0  0  0  0
    3.2771   -1.9342    0.0000 C   0  0  0  0  0  0  0  0  0  0  0  0
    2.1622   -3.1503    0.0000 C   0  0  0  0  0  0  0  0  0  0  0  0
    3.5304   -2.6943    0.0000 C   0  0  0  0  0  0  0  0  0  0  0  0
    3.1757   -4.1639    0.0000 C   0  0  0  0  0  0  0  0  0  0  0  0
  1 25  1  0  0  0  0
  2 25  1  0  0  0  0
  3 25  1  0  0  0  0
  4 17  2  0  0  0  0
  5 24  1  0  0  0  0
  5 32  1  0  0  0  0
  6  7  1  0  0  0  0
  6 14  1  0  0  0  0
 16  6  1  1  0  0  0
  7 15  2  0  0  0  0
  8 15  1  0  0  0  0
  8 21  1  0  0  0  0
  9 17  1  0  0  0  0
  9 23  1  0  0  0  0
 10 20  1  0  0  0  0
 10 33  1  0  0  0  0
 10 34  1  0  0  0  0
 11 35  1  0  0  0  0
 11 36  1  0  0  0  0
 11 37  1  0  0  0  0
 12 31  3  0  0  0  0
 13 14  2  0  0  0  0
 13 15  1  0  0  0  0
 13 17  1  0  0  0  0
 14 18  1  0  0  0  0
 16 19  1  0  0  0  0
 16 24  1  0  0  0  0
 18 23  2  0  0  0  0
 19 30  1  0  0  0  0
 19 31  1  6  0  0  0
 20 22  1  0  0  0  0
 20 25  1  0  0  0  0
 21 26  2  0  0  0  0
 21 27  1  0  0  0  0
 22 28  2  0  0  0  0
 22 29  1  0  0  0  0
 26 28  1  0  0  0  0
 27 29  2  0  0  0  0
 30 32  1  0  0  0  0
 33 35  1  0  0  0  0
 34 36  1  0  0  0  0
M  END
> <PUBCHEM_COMPOUND_ID_TYPE>
0

> <PUBCHEM_TOTAL_CHARGE>
0

> <PUBCHEM_SUBSTANCE_ID>
310942953

> <PUBCHEM_SUBSTANCE_VERSION>
1

> <PUBCHEM_EXT_DATASOURCE_NAME>
4488

> <PUBCHEM_EXT_DATASOURCE_REGID>
SCHEMBL16121012

> <PUBCHEM_SUBSTANCE_COMMENT>
InChI=1S/C25H28F3N7O2/c1-33-9-11-34(12-10-33)22(25(26,27)28)16-2-4-18(5-3-16)31-23-21-19(6-8-30-24(21)36)35(32-23)20-15-37-13-7-17(20)14-29/h2-6,8,17,20,22H,7,9-13,15H2,1H3,(H,30,36)(H,31,32)/t17-,20+,22?/m1/s1
InChIKey=NAITXMCGULBVPE-QIFHVCNWSA-N

> <PUBCHEM_SUBSTANCE_SYNONYM>
SCHEMBL16121012

> <PUBCHEM_XREF_EXT_ID>
SCHEMBL16121012

> <PUBCHEM_EXT_DATASOURCE_URL>
https://www.surechembl.org/

> <PUBCHEM_EXT_SUBSTANCE_URL>
https://www.surechembl.org/chemical/SCHEMBL16121012

> <PUBCHEM_CID_ASSOCIATIONS>
117609415  1

> <PUBCHEM_COORDINATE_TYPE>
1
3

> <PUBCHEM_BONDANNOTATIONS>
19  31  6
16  6  5

$$$$
