310929812
  -OEChem-07211613022D

 29 33  0     1  0  0  0  0  0999 V2000
    0.3572   -2.2688    0.0000 O   0  0  0  0  0  0  0  0  0  0  0  0
   -3.3014   -2.6767    0.0000 O   0  0  0  0  0  0  0  0  0  0  0  0
   -4.1083   -2.8483    0.0000 O   0  0  0  0  0  0  0  0  0  0  0  0
    2.3680    1.5653    0.0000 N   0  0  0  0  0  0  0  0  0  0  0  0
    0.3572   -0.6188    0.0000 C   0  0  3  0  0  0  0  0  0  0  0  0
    0.3572    0.2063    0.0000 C   0  0  3  0  0  0  0  0  0  0  0  0
   -0.3572   -1.0313    0.0000 C   0  0  3  0  0  0  0  0  0  0  0  0
    1.1419    0.4612    0.0000 C   0  0  3  0  0  0  0  0  0  0  0  0
   -1.0717   -0.6188    0.0000 C   0  0  0  0  0  0  0  0  0  0  0  0
   -0.3572   -1.8563    0.0000 C   0  0  3  0  0  0  0  0  0  0  0  0
    1.1419   -0.8737    0.0000 C   0  0  0  0  0  0  0  0  0  0  0  0
   -0.3572    0.6188    0.0000 C   0  0  0  0  0  0  0  0  0  0  0  0
   -1.7862   -1.0313    0.0000 C   0  0  0  0  0  0  0  0  0  0  0  0
    1.6268   -0.2063    0.0000 C   0  0  0  0  0  0  0  0  0  0  0  0
   -1.0717    0.2063    0.0000 C   0  0  0  0  0  0  0  0  0  0  0  0
   -1.7862   -1.8563    0.0000 C   0  0  0  0  0  0  0  0  0  0  0  0
    0.3572    1.0313    0.0000 C   0  0  0  0  0  0  0  0  0  0  0  0
   -1.0717   -2.2688    0.0000 C   0  0  0  0  0  0  0  0  0  0  0  0
    1.7550    1.0132    0.0000 C   0  0  0  0  0  0  0  0  0  0  0  0
    0.9703    1.2681    0.0000 C   0  0  0  0  0  0  0  0  0  0  0  0
   -3.2151   -1.8563    0.0000 C   0  0  3  0  0  0  0  0  0  0  0  0
   -2.5006   -0.6188    0.0000 C   0  0  0  0  0  0  0  0  0  0  0  0
   -2.5006   -2.2688    0.0000 C   0  0  0  0  0  0  0  0  0  0  0  0
   -3.2151   -1.0313    0.0000 C   0  0  0  0  0  0  0  0  0  0  0  0
   -3.9688   -1.5207    0.0000 C   0  0  0  0  0  0  0  0  0  0  0  0
    0.1857    1.5231    0.0000 C   0  0  0  0  0  0  0  0  0  0  0  0
   -4.5208   -2.1338    0.0000 C   0  0  0  0  0  0  0  0  0  0  0  0
    0.3572   -1.4438    0.0000 H   0  0  0  0  0  0  0  0  0  0  0  0
   -0.3572   -0.2063    0.0000 H   0  0  0  0  0  0  0  0  0  0  0  0
 10  1  1  6  0  0  0
  2  3  1  0  0  0  0
  2 21  1  0  0  0  0
  3 27  1  0  0  0  0
  4 19  3  0  0  0  0
  5  6  1  0  0  0  0
  5  7  1  0  0  0  0
  5 11  1  0  0  0  0
  5 28  1  6  0  0  0
  6  8  1  0  0  0  0
  6 12  1  0  0  0  0
  6 17  1  1  0  0  0
  7  9  1  0  0  0  0
  7 10  1  0  0  0  0
  7 29  1  1  0  0  0
  8 14  1  0  0  0  0
  8 19  1  1  0  0  0
  8 20  1  6  0  0  0
  9 13  1  0  0  0  0
  9 15  2  0  0  0  0
 10 18  1  0  0  0  0
 11 14  1  0  0  0  0
 12 15  1  0  0  0  0
 13 16  2  0  0  0  0
 13 22  1  0  0  0  0
 16 18  1  0  0  0  0
 16 23  1  0  0  0  0
 20 26  1  0  0  0  0
 21 23  1  0  0  0  0
 21 24  1  0  0  0  0
 21 25  1  0  0  0  0
 22 24  1  0  0  0  0
 25 27  1  0  0  0  0
M  END
> <PUBCHEM_COMPOUND_ID_TYPE>
0

> <PUBCHEM_TOTAL_CHARGE>
0

> <PUBCHEM_SUBSTANCE_ID>
310929812

> <PUBCHEM_SUBSTANCE_VERSION>
1

> <PUBCHEM_EXT_DATASOURCE_NAME>
4488

> <PUBCHEM_EXT_DATASOURCE_REGID>
SCHEMBL16107019

> <PUBCHEM_SUBSTANCE_COMMENT>
InChI=1S/C23H31NO3/c1-3-22(14-24)8-6-18-20-17(4-7-21(18,22)2)16-5-9-23(10-11-26-27-23)13-15(16)12-19(20)25/h4,18-20,25H,3,5-13H2,1-2H3/t18-,19+,20+,21-,22+,23?/m0/s1
InChIKey=CVDVWXAVJBOSIH-IVZBKJBKSA-N

> <PUBCHEM_SUBSTANCE_SYNONYM>
SCHEMBL16107019

> <PUBCHEM_XREF_EXT_ID>
SCHEMBL16107019

> <PUBCHEM_EXT_DATASOURCE_URL>
https://www.surechembl.org/

> <PUBCHEM_EXT_SUBSTANCE_URL>
https://www.surechembl.org/chemical/SCHEMBL16107019

> <PUBCHEM_CID_ASSOCIATIONS>
117599089  1

> <PUBCHEM_COORDINATE_TYPE>
1
3

> <PUBCHEM_BONDANNOTATIONS>
10  1  6
5  28  6
6  17  5
7  29  5
8  19  5
8  20  6

$$$$
