310930394
  -OEChem-07211613022D

 21 23  0     0  0  0  0  0  0999 V2000
    4.1669   -2.0567    0.0000 O   0  0  0  0  0  0  0  0  0  0  0  0
    1.4424   -0.0267    0.0000 O   0  5  0  0  0  0  0  0  0  0  0  0
    2.8580    0.0000    0.0000 O   0  0  0  0  0  0  0  0  0  0  0  0
    0.7479   -2.8580    0.0000 O   0  0  0  0  0  0  0  0  0  0  0  0
    3.6594   -2.7245    0.0000 N   0  0  0  0  0  0  0  0  0  0  0  0
    3.6594   -1.4157    0.0000 N   0  0  0  0  0  0  0  0  0  0  0  0
    2.1636   -3.7128    0.0000 N   0  0  0  0  0  0  0  0  0  0  0  0
    2.1636   -0.4274    0.0000 N   0  3  0  0  0  0  0  0  0  0  0  0
    2.8848   -2.5108    0.0000 C   0  0  0  0  0  0  0  0  0  0  0  0
    2.8848   -1.6294    0.0000 C   0  0  0  0  0  0  0  0  0  0  0  0
    2.1636   -2.8848    0.0000 C   0  0  0  0  0  0  0  0  0  0  0  0
    2.1636   -1.2554    0.0000 C   0  0  0  0  0  0  0  0  0  0  0  0
    1.4691   -2.5108    0.0000 C   0  0  0  0  0  0  0  0  0  0  0  0
    1.4691   -1.6294    0.0000 C   0  0  0  0  0  0  0  0  0  0  0  0
    1.4424   -4.1135    0.0000 C   0  0  0  0  0  0  0  0  0  0  0  0
    0.7212   -3.6861    0.0000 C   0  0  0  0  0  0  0  0  0  0  0  0
    1.4157   -4.9415    0.0000 C   0  0  0  0  0  0  0  0  0  0  0  0
    0.0000   -4.0868    0.0000 C   0  0  0  0  0  0  0  0  0  0  0  0
    0.6945   -5.3421    0.0000 C   0  0  0  0  0  0  0  0  0  0  0  0
    0.0000   -4.9147    0.0000 C   0  0  0  0  0  0  0  0  0  0  0  0
    0.0267   -2.4574    0.0000 C   0  0  0  0  0  0  0  0  0  0  0  0
  1  5  1  0  0  0  0
  1  6  1  0  0  0  0
  2  8  1  0  0  0  0
  3  8  2  0  0  0  0
  4 16  1  0  0  0  0
  4 21  1  0  0  0  0
  5  9  2  0  0  0  0
  6 10  2  0  0  0  0
  7 11  1  0  0  0  0
  7 15  1  0  0  0  0
  8 12  1  0  0  0  0
  9 10  1  0  0  0  0
  9 11  1  0  0  0  0
 10 12  1  0  0  0  0
 11 13  2  0  0  0  0
 12 14  2  0  0  0  0
 13 14  1  0  0  0  0
 15 16  1  0  0  0  0
 15 17  2  0  0  0  0
 16 18  2  0  0  0  0
 17 19  1  0  0  0  0
 18 20  1  0  0  0  0
 19 20  2  0  0  0  0
M  CHG  2   2  -1   8   1
M  END
> <PUBCHEM_COMPOUND_ID_TYPE>
0

> <PUBCHEM_TOTAL_CHARGE>
0

> <PUBCHEM_SUBSTANCE_ID>
310930394

> <PUBCHEM_SUBSTANCE_VERSION>
1

> <PUBCHEM_EXT_DATASOURCE_NAME>
4488

> <PUBCHEM_EXT_DATASOURCE_REGID>
SCHEMBL16107680

> <PUBCHEM_SUBSTANCE_COMMENT>
InChI=1S/C13H10N4O4/c1-20-11-5-3-2-4-8(11)14-9-6-7-10(17(18)19)13-12(9)15-21-16-13/h2-7,14H,1H3
InChIKey=VJAOXAJLJFBPMX-UHFFFAOYSA-N

> <PUBCHEM_SUBSTANCE_SYNONYM>
SCHEMBL16107680

> <PUBCHEM_XREF_EXT_ID>
SCHEMBL16107680

> <PUBCHEM_EXT_DATASOURCE_URL>
https://www.surechembl.org/

> <PUBCHEM_EXT_SUBSTANCE_URL>
https://www.surechembl.org/chemical/SCHEMBL16107680

> <PUBCHEM_CID_ASSOCIATIONS>
2821614  1

> <PUBCHEM_COORDINATE_TYPE>
1
3

$$$$
