310948322
  -OEChem-07211613022D

 43 47  0     0  0  0  0  0  0999 V2000
   -4.1261    1.4653    0.0000 Cl  0  0  0  0  0  0  0  0  0  0  0  0
    2.8497   -1.4473    0.0000 S   0  0  0  0  0  0  0  0  0  0  0  0
   -3.4429    2.6338    0.0000 F   0  0  0  0  0  0  0  0  0  0  0  0
   -2.8137    3.5867    0.0000 F   0  0  0  0  0  0  0  0  0  0  0  0
   -1.8608    2.9395    0.0000 F   0  0  0  0  0  0  0  0  0  0  0  0
    0.9439   -3.5867    0.0000 F   0  0  0  0  0  0  0  0  0  0  0  0
   -0.7821    1.9507    0.0000 O   0  0  0  0  0  0  0  0  0  0  0  0
    3.6946   -1.5012    0.0000 O   0  0  0  0  0  0  0  0  0  0  0  0
    2.0945   -1.3573    0.0000 O   0  0  0  0  0  0  0  0  0  0  0  0
    3.2991   -2.8137    0.0000 O   0  0  0  0  0  0  0  0  0  0  0  0
    3.4069    0.0090    0.0000 O   0  0  0  0  0  0  0  0  0  0  0  0
   -1.8069    0.8180    0.0000 N   0  0  0  0  0  0  0  0  0  0  0  0
   -1.7170    1.6451    0.0000 N   0  0  0  0  0  0  0  0  0  0  0  0
    0.4404    2.4900    0.0000 N   0  0  0  0  0  0  0  0  0  0  0  0
    1.9687   -0.0090    0.0000 N   0  0  0  0  0  0  0  0  0  0  0  0
    2.6877    1.2495    0.0000 N   0  0  0  0  0  0  0  0  0  0  0  0
   -0.4224    0.5304    0.0000 C   0  0  0  0  0  0  0  0  0  0  0  0
   -1.1776    0.2786    0.0000 C   0  0  0  0  0  0  0  0  0  0  0  0
   -0.2247    1.3393    0.0000 C   0  0  0  0  0  0  0  0  0  0  0  0
    0.5124    1.6810    0.0000 C   0  0  0  0  0  0  0  0  0  0  0  0
    0.0270   -0.8360    0.0000 C   0  0  0  0  0  0  0  0  0  0  0  0
    0.1888   -0.0270    0.0000 C   0  0  0  0  0  0  0  0  0  0  0  0
   -2.4900    2.0046    0.0000 C   0  0  0  0  0  0  0  0  0  0  0  0
    0.6742   -1.3933    0.0000 C   0  0  0  0  0  0  0  0  0  0  0  0
   -1.3573   -0.5484    0.0000 C   0  0  0  0  0  0  0  0  0  0  0  0
   -3.0474    1.3573    0.0000 C   0  0  0  0  0  0  0  0  0  0  0  0
   -2.6158    0.6563    0.0000 C   0  0  0  0  0  0  0  0  0  0  0  0
    2.0586   -1.6810    0.0000 C   0  0  0  0  0  0  0  0  0  0  0  0
   -0.7461   -1.0877    0.0000 C   0  0  0  0  0  0  0  0  0  0  0  0
    1.2495    1.2674    0.0000 C   0  0  0  0  0  0  0  0  0  0  0  0
   -2.6518    2.7957    0.0000 C   0  0  0  0  0  0  0  0  0  0  0  0
   -0.3865    2.6877    0.0000 C   0  0  0  0  0  0  0  0  0  0  0  0
    1.4473   -1.1596    0.0000 C   0  0  0  0  0  0  0  0  0  0  0  0
    1.8608   -2.5080    0.0000 C   0  0  0  0  0  0  0  0  0  0  0  0
    0.4944   -2.2203    0.0000 C   0  0  0  0  0  0  0  0  0  0  0  0
    1.1057   -2.7418    0.0000 C   0  0  0  0  0  0  0  0  0  0  0  0
    1.2315    0.4404    0.0000 C   0  0  0  0  0  0  0  0  0  0  0  0
    1.9507    1.6631    0.0000 C   0  0  0  0  0  0  0  0  0  0  0  0
    2.5080   -3.0653    0.0000 C   0  0  0  0  0  0  0  0  0  0  0  0
   -0.6922    3.4429    0.0000 C   0  0  0  0  0  0  0  0  0  0  0  0
    2.6518    0.4404    0.0000 C   0  0  0  0  0  0  0  0  0  0  0  0
    3.0114   -0.6203    0.0000 C   0  0  0  0  0  0  0  0  0  0  0  0
    4.1261    0.4404    0.0000 C   0  0  0  0  0  0  0  0  0  0  0  0
  1 26  1  0  0  0  0
  2  8  2  0  0  0  0
  2  9  2  0  0  0  0
  2 28  1  0  0  0  0
  2 42  1  0  0  0  0
  3 31  1  0  0  0  0
  4 31  1  0  0  0  0
  5 31  1  0  0  0  0
  6 36  1  0  0  0  0
  7 19  1  0  0  0  0
  7 32  1  0  0  0  0
 10 39  1  0  0  0  0
 11 41  1  0  0  0  0
 11 43  1  0  0  0  0
 12 13  1  0  0  0  0
 12 18  1  0  0  0  0
 12 27  1  0  0  0  0
 13 23  2  0  0  0  0
 14 20  1  0  0  0  0
 14 32  2  0  0  0  0
 15 37  2  0  0  0  0
 15 41  1  0  0  0  0
 16 38  1  0  0  0  0
 16 41  2  0  0  0  0
 17 18  1  0  0  0  0
 17 19  1  0  0  0  0
 17 22  2  0  0  0  0
 18 25  2  0  0  0  0
 19 20  2  0  0  0  0
 20 30  1  0  0  0  0
 21 22  1  0  0  0  0
 21 24  1  0  0  0  0
 21 29  2  0  0  0  0
 23 26  1  0  0  0  0
 23 31  1  0  0  0  0
 24 33  1  0  0  0  0
 24 35  2  0  0  0  0
 25 29  1  0  0  0  0
 26 27  2  0  0  0  0
 28 33  2  0  0  0  0
 28 34  1  0  0  0  0
 30 37  1  0  0  0  0
 30 38  2  0  0  0  0
 32 40  1  0  0  0  0
 34 36  2  0  0  0  0
 34 39  1  0  0  0  0
 35 36  1  0  0  0  0
M  END
> <PUBCHEM_COMPOUND_ID_TYPE>
0

> <PUBCHEM_TOTAL_CHARGE>
0

> <PUBCHEM_SUBSTANCE_ID>
310948322

> <PUBCHEM_SUBSTANCE_VERSION>
1

> <PUBCHEM_EXT_DATASOURCE_NAME>
4488

> <PUBCHEM_EXT_DATASOURCE_REGID>
SCHEMBL16126500

> <PUBCHEM_SUBSTANCE_COMMENT>
InChI=1S/C27H20ClF4N5O5S/c1-13-35-23(16-9-33-26(41-2)34-10-16)24(42-13)17-6-14(15-7-20(29)18(12-38)22(8-15)43(3,39)40)4-5-21(17)37-11-19(28)25(36-37)27(30,31)32/h4-11,38H,12H2,1-3H3
InChIKey=VWZSJNNBXOALDR-UHFFFAOYSA-N

> <PUBCHEM_SUBSTANCE_SYNONYM>
SCHEMBL16126500

> <PUBCHEM_XREF_EXT_ID>
SCHEMBL16126500

> <PUBCHEM_EXT_DATASOURCE_URL>
https://www.surechembl.org/

> <PUBCHEM_EXT_SUBSTANCE_URL>
https://www.surechembl.org/chemical/SCHEMBL16126500

> <PUBCHEM_CID_ASSOCIATIONS>
117613887  1

> <PUBCHEM_COORDINATE_TYPE>
1
3

$$$$
