310944936
  -OEChem-07211613022D

 26 28  0     0  0  0  0  0  0999 V2000
    1.5744   -1.7537    0.0000 S   0  0  0  0  0  0  0  0  0  0  0  0
    3.0757   -0.1993    0.0000 O   0  0  0  0  0  0  0  0  0  0  0  0
    2.9959    2.2053    0.0000 O   0  5  0  0  0  0  0  0  0  0  0  0
    1.9862    3.1487    0.0000 O   0  0  0  0  0  0  0  0  0  0  0  0
   -1.7869   -0.3720    0.0000 O   0  0  0  0  0  0  0  0  0  0  0  0
    1.6142   -0.4252    0.0000 N   0  0  0  0  0  0  0  0  0  0  0  0
    0.2724   -1.0894    0.0000 N   0  0  0  0  0  0  0  0  0  0  0  0
    2.1987    2.3914    0.0000 N   0  3  0  0  0  0  0  0  0  0  0  0
   -0.5647   -1.0894    0.0000 N   0  0  0  0  0  0  0  0  0  0  0  0
   -3.0757   -2.5243    0.0000 N   0  0  0  0  0  0  0  0  0  0  0  0
    1.3352    0.4252    0.0000 C   0  0  0  0  0  0  0  0  0  0  0  0
    1.1226   -1.0230    0.0000 C   0  0  0  0  0  0  0  0  0  0  0  0
    2.3847   -0.6112    0.0000 C   0  0  0  0  0  0  0  0  0  0  0  0
    0.5381    0.6378    0.0000 C   0  0  0  0  0  0  0  0  0  0  0  0
    1.8932    1.0495    0.0000 C   0  0  0  0  0  0  0  0  0  0  0  0
    2.3714   -1.4481    0.0000 C   0  0  0  0  0  0  0  0  0  0  0  0
    1.6541    1.8334    0.0000 C   0  0  0  0  0  0  0  0  0  0  0  0
    0.2989    1.4083    0.0000 C   0  0  0  0  0  0  0  0  0  0  0  0
    0.8569    2.0193    0.0000 C   0  0  0  0  0  0  0  0  0  0  0  0
   -1.4016   -1.0363    0.0000 C   0  0  0  0  0  0  0  0  0  0  0  0
   -0.0465   -0.0265    0.0000 C   0  0  0  0  0  0  0  0  0  0  0  0
   -1.8268   -1.7271    0.0000 C   0  0  0  0  0  0  0  0  0  0  0  0
   -2.6372   -1.7139    0.0000 C   0  0  0  0  0  0  0  0  0  0  0  0
   -1.4149   -2.4578    0.0000 C   0  0  0  0  0  0  0  0  0  0  0  0
   -1.8268   -3.1487    0.0000 C   0  0  0  0  0  0  0  0  0  0  0  0
   -2.6637   -3.1487    0.0000 C   0  0  0  0  0  0  0  0  0  0  0  0
  1 12  1  0  0  0  0
  1 16  1  0  0  0  0
  2 13  2  0  0  0  0
  3  8  1  0  0  0  0
  4  8  2  0  0  0  0
  5 20  2  0  0  0  0
  6 11  1  0  0  0  0
  6 12  1  0  0  0  0
  6 13  1  0  0  0  0
  7  9  1  0  0  0  0
  7 12  2  3  0  0  0
  8 17  1  0  0  0  0
  9 20  1  0  0  0  0
 10 23  2  0  0  0  0
 10 26  1  0  0  0  0
 11 14  2  0  0  0  0
 11 15  1  0  0  0  0
 13 16  1  0  0  0  0
 14 18  1  0  0  0  0
 14 21  1  0  0  0  0
 15 17  2  0  0  0  0
 17 19  1  0  0  0  0
 18 19  2  0  0  0  0
 20 22  1  0  0  0  0
 22 23  1  0  0  0  0
 22 24  2  0  0  0  0
 24 25  1  0  0  0  0
 25 26  2  0  0  0  0
M  CHG  2   3  -1   8   1
M  END
> <PUBCHEM_COMPOUND_ID_TYPE>
0

> <PUBCHEM_TOTAL_CHARGE>
0

> <PUBCHEM_SUBSTANCE_ID>
310944936

> <PUBCHEM_SUBSTANCE_VERSION>
1

> <PUBCHEM_EXT_DATASOURCE_NAME>
4488

> <PUBCHEM_EXT_DATASOURCE_REGID>
SCHEMBL16123021

> <PUBCHEM_SUBSTANCE_COMMENT>
InChI=1S/C16H13N5O4S/c1-10-4-5-12(21(24)25)7-13(10)20-14(22)9-26-16(20)19-18-15(23)11-3-2-6-17-8-11/h2-8H,9H2,1H3,(H,18,23)/b19-16+
InChIKey=ANAWWQKWQAGLLT-KNTRCKAVSA-N

> <PUBCHEM_SUBSTANCE_SYNONYM>
SCHEMBL16123021

> <PUBCHEM_XREF_EXT_ID>
SCHEMBL16123021

> <PUBCHEM_EXT_DATASOURCE_URL>
https://www.surechembl.org/

> <PUBCHEM_EXT_SUBSTANCE_URL>
https://www.surechembl.org/chemical/SCHEMBL16123021

> <PUBCHEM_CID_ASSOCIATIONS>
3141144  1

> <PUBCHEM_COORDINATE_TYPE>
1
3

$$$$
