310940057
  -OEChem-07211613022D

 14 14  0     0  0  0  0  0  0999 V2000
   -2.2348   15.8670    0.0000 Br  0  0  0  0  0  0  0  0  0  0  0  0
   -2.2348   14.2170    0.0000 Cl  0  0  0  0  0  0  0  0  0  0  0  0
    0.6231   16.6920    0.0000 O   0  5  0  0  0  0  0  0  0  0  0  0
    1.3375   15.4545    0.0000 O   0  0  0  0  0  0  0  0  0  0  0  0
    1.3375   14.6295    0.0000 O   0  0  0  0  0  0  0  0  0  0  0  0
    0.6231   15.8670    0.0000 N   0  3  0  0  0  0  0  0  0  0  0  0
    0.6231   13.3920    0.0000 N   0  0  0  0  0  0  0  0  0  0  0  0
   -0.0914   15.4545    0.0000 C   0  0  0  0  0  0  0  0  0  0  0  0
   -0.0914   14.6295    0.0000 C   0  0  0  0  0  0  0  0  0  0  0  0
   -1.5204   15.4545    0.0000 C   0  0  0  0  0  0  0  0  0  0  0  0
   -1.5204   14.6295    0.0000 C   0  0  0  0  0  0  0  0  0  0  0  0
   -0.8059   15.8670    0.0000 C   0  0  0  0  0  0  0  0  0  0  0  0
   -0.8059   14.2170    0.0000 C   0  0  0  0  0  0  0  0  0  0  0  0
    0.6231   14.2170    0.0000 C   0  0  0  0  0  0  0  0  0  0  0  0
  1 10  1  0  0  0  0
  2 11  1  0  0  0  0
  3  6  1  0  0  0  0
  4  6  2  0  0  0  0
  5 14  2  0  0  0  0
  6  8  1  0  0  0  0
  7 14  1  0  0  0  0
  8  9  1  0  0  0  0
  8 12  2  0  0  0  0
  9 13  2  0  0  0  0
  9 14  1  0  0  0  0
 10 11  2  0  0  0  0
 10 12  1  0  0  0  0
 11 13  1  0  0  0  0
M  CHG  2   3  -1   6   1
M  END
> <PUBCHEM_COMPOUND_ID_TYPE>
0

> <PUBCHEM_TOTAL_CHARGE>
0

> <PUBCHEM_SUBSTANCE_ID>
310940057

> <PUBCHEM_SUBSTANCE_VERSION>
1

> <PUBCHEM_EXT_DATASOURCE_NAME>
4488

> <PUBCHEM_EXT_DATASOURCE_REGID>
SCHEMBL16117987

> <PUBCHEM_SUBSTANCE_COMMENT>
InChI=1S/C7H4BrClN2O3/c8-4-2-6(11(13)14)3(7(10)12)1-5(4)9/h1-2H,(H2,10,12)
InChIKey=QNIGUDSBSUKTTI-UHFFFAOYSA-N

> <PUBCHEM_SUBSTANCE_SYNONYM>
SCHEMBL16117987

> <PUBCHEM_XREF_EXT_ID>
SCHEMBL16117987

> <PUBCHEM_EXT_DATASOURCE_URL>
https://www.surechembl.org/

> <PUBCHEM_EXT_SUBSTANCE_URL>
https://www.surechembl.org/chemical/SCHEMBL16117987

> <PUBCHEM_CID_ASSOCIATIONS>
91659208  1

> <PUBCHEM_COORDINATE_TYPE>
1
3

$$$$
