310939008
  -OEChem-07211613022D

 28 32  0     0  0  0  0  0  0999 V2000
   -0.9761    7.5254    0.0000 F   0  0  0  0  0  0  0  0  0  0  0  0
    1.4989    8.9543    0.0000 F   0  0  0  0  0  0  0  0  0  0  0  0
   -1.0486   10.3362    0.0000 O   0  0  0  0  0  0  0  0  0  0  0  0
   -0.9761    8.9543    0.0000 N   0  0  0  0  0  0  0  0  0  0  0  0
    2.7364    5.3820    0.0000 N   0  0  0  0  0  0  0  0  0  0  0  0
   -2.9602    8.1293    0.0000 N   0  0  0  0  0  0  0  0  0  0  0  0
   -2.2457    9.3668    0.0000 C   0  0  0  0  0  0  0  0  0  0  0  0
   -1.4611    9.6218    0.0000 C   0  0  0  0  0  0  0  0  0  0  0  0
    0.2614    8.2399    0.0000 C   0  0  0  0  0  0  0  0  0  0  0  0
   -2.2457    8.5418    0.0000 C   0  0  0  0  0  0  0  0  0  0  0  0
    1.0864    6.8109    0.0000 C   0  0  0  0  0  0  0  0  0  0  0  0
   -0.1511    8.9543    0.0000 C   0  0  0  0  0  0  0  0  0  0  0  0
   -1.4611    8.2869    0.0000 C   0  0  0  0  0  0  0  0  0  0  0  0
   -0.1511    7.5254    0.0000 C   0  0  0  0  0  0  0  0  0  0  0  0
    1.0864    8.2399    0.0000 C   0  0  0  0  0  0  0  0  0  0  0  0
    1.4989    6.0964    0.0000 C   0  0  0  0  0  0  0  0  0  0  0  0
    0.2614    6.8109    0.0000 C   0  0  0  0  0  0  0  0  0  0  0  0
    1.4989    7.5254    0.0000 C   0  0  0  0  0  0  0  0  0  0  0  0
   -2.9602    9.7793    0.0000 C   0  0  0  0  0  0  0  0  0  0  0  0
    2.3239    6.0964    0.0000 C   0  0  0  0  0  0  0  0  0  0  0  0
    2.3239    4.6675    0.0000 C   0  0  0  0  0  0  0  0  0  0  0  0
    1.0864    5.3820    0.0000 C   0  0  0  0  0  0  0  0  0  0  0  0
    1.4989    4.6675    0.0000 C   0  0  0  0  0  0  0  0  0  0  0  0
   -3.6746    9.3668    0.0000 C   0  0  0  0  0  0  0  0  0  0  0  0
   -3.6746    8.5418    0.0000 C   0  0  0  0  0  0  0  0  0  0  0  0
    3.5433    5.2104    0.0000 C   0  0  0  0  0  0  0  0  0  0  0  0
    2.8759    4.0544    0.0000 C   0  0  0  0  0  0  0  0  0  0  0  0
    3.6296    4.3900    0.0000 C   0  0  0  0  0  0  0  0  0  0  0  0
  1 14  1  0  0  0  0
  2 15  1  0  0  0  0
  3  8  2  0  0  0  0
  4  8  1  0  0  0  0
  4 12  1  0  0  0  0
  4 13  1  0  0  0  0
  5 20  1  0  0  0  0
  5 21  1  0  0  0  0
  5 26  1  0  0  0  0
  6 10  2  0  0  0  0
  6 25  1  0  0  0  0
  7  8  1  0  0  0  0
  7 10  1  0  0  0  0
  7 19  2  0  0  0  0
  9 12  1  0  0  0  0
  9 14  2  0  0  0  0
  9 15  1  0  0  0  0
 10 13  1  0  0  0  0
 11 16  1  0  0  0  0
 11 17  2  0  0  0  0
 11 18  1  0  0  0  0
 14 17  1  0  0  0  0
 15 18  2  0  0  0  0
 16 20  2  0  0  0  0
 16 22  1  0  0  0  0
 19 24  1  0  0  0  0
 21 23  1  0  0  0  0
 21 27  2  0  0  0  0
 22 23  2  0  0  0  0
 24 25  2  0  0  0  0
 26 28  2  0  0  0  0
 27 28  1  0  0  0  0
M  END
> <PUBCHEM_COMPOUND_ID_TYPE>
0

> <PUBCHEM_TOTAL_CHARGE>
0

> <PUBCHEM_SUBSTANCE_ID>
310939008

> <PUBCHEM_SUBSTANCE_VERSION>
1

> <PUBCHEM_EXT_DATASOURCE_NAME>
4488

> <PUBCHEM_EXT_DATASOURCE_REGID>
SCHEMBL16116927

> <PUBCHEM_SUBSTANCE_COMMENT>
InChI=1S/C22H15F2N3O/c23-19-9-15(14-5-6-16-3-2-8-26(16)11-14)10-20(24)18(19)12-27-13-21-17(22(27)28)4-1-7-25-21/h1-11H,12-13H2
InChIKey=CNCLSIVYNIIODQ-UHFFFAOYSA-N

> <PUBCHEM_SUBSTANCE_SYNONYM>
SCHEMBL16116927

> <PUBCHEM_XREF_EXT_ID>
SCHEMBL16116927

> <PUBCHEM_EXT_DATASOURCE_URL>
https://www.surechembl.org/

> <PUBCHEM_EXT_SUBSTANCE_URL>
https://www.surechembl.org/chemical/SCHEMBL16116927

> <PUBCHEM_CID_ASSOCIATIONS>
117606392  1

> <PUBCHEM_COORDINATE_TYPE>
1
3

$$$$
