310945671
  -OEChem-07211613022D

 75 82  0     1  0  0  0  0  0999 V2000
   -0.7831   -0.5905    0.0000 O   0  0  0  0  0  0  0  0  0  0  0  0
    8.7015   -0.5905    0.0000 O   0  0  0  0  0  0  0  0  0  0  0  0
    1.8024    1.9703    0.0000 O   0  0  0  0  0  0  0  0  0  0  0  0
    6.1159    1.9703    0.0000 O   0  0  0  0  0  0  0  0  0  0  0  0
    1.8024    0.3170    0.0000 O   0  0  0  0  0  0  0  0  0  0  0  0
    6.1159    0.3170    0.0000 O   0  0  0  0  0  0  0  0  0  0  0  0
   14.2456   -0.6402    0.0000 O   0  0  0  0  0  0  0  0  0  0  0  0
   -7.6822   -1.6719    0.0000 O   0  0  0  0  0  0  0  0  0  0  0  0
   -9.8451    0.4040    0.0000 O   0  0  0  0  0  0  0  0  0  0  0  0
  -12.7166   -0.4288    0.0000 O   0  0  0  0  0  0  0  0  0  0  0  0
  -11.9956   -1.6719    0.0000 O   0  0  0  0  0  0  0  0  0  0  0  0
   -1.7776    0.4040    0.0000 N   0  0  0  0  0  0  0  0  0  0  0  0
    9.7456    0.4040    0.0000 N   0  0  0  0  0  0  0  0  0  0  0  0
   -0.9696    2.0821    0.0000 N   0  0  0  0  0  0  0  0  0  0  0  0
    8.9376    2.0821    0.0000 N   0  0  0  0  0  0  0  0  0  0  0  0
   -6.9611   -0.3915    0.0000 N   0  0  0  0  0  0  0  0  0  0  0  0
   -9.0992   -0.8390    0.0000 N   0  0  0  0  0  0  0  0  0  0  0  0
  -11.2622   -0.3915    0.0000 N   0  0  0  0  0  0  0  0  0  0  0  0
   -0.3356    0.7396    0.0000 C   0  0  0  0  0  0  0  0  0  0  0  0
    8.2664    0.7396    0.0000 C   0  0  0  0  0  0  0  0  0  0  0  0
   -0.9820    0.2176    0.0000 C   0  0  0  0  0  0  0  0  0  0  0  0
    8.9252    0.2299    0.0000 C   0  0  0  0  0  0  0  0  0  0  0  0
   -2.1505    1.1498    0.0000 C   0  0  3  0  0  0  0  0  0  0  0  0
   10.1061    1.1622    0.0000 C   0  0  3  0  0  0  0  0  0  0  0  0
   -0.3356    1.5601    0.0000 C   0  0  0  0  0  0  0  0  0  0  0  0
    8.2788    1.5724    0.0000 C   0  0  0  0  0  0  0  0  0  0  0  0
   -3.1325    0.2299    0.0000 C   0  0  0  0  0  0  0  0  0  0  0  0
   11.0508    0.2299    0.0000 C   0  0  0  0  0  0  0  0  0  0  0  0
   -2.3867   -0.1678    0.0000 C   0  0  0  0  0  0  0  0  0  0  0  0
   10.3299   -0.1678    0.0000 C   0  0  0  0  0  0  0  0  0  0  0  0
   -2.9585    1.0380    0.0000 C   0  0  0  0  0  0  0  0  0  0  0  0
   10.9141    1.0255    0.0000 C   0  0  0  0  0  0  0  0  0  0  0  0
    0.3853    0.3294    0.0000 C   0  0  0  0  0  0  0  0  0  0  0  0
    7.5702    0.3294    0.0000 C   0  0  0  0  0  0  0  0  0  0  0  0
   -1.7900    1.8956    0.0000 C   0  0  0  0  0  0  0  0  0  0  0  0
    9.7456    1.8832    0.0000 C   0  0  0  0  0  0  0  0  0  0  0  0
    1.0939    0.7396    0.0000 C   0  0  0  0  0  0  0  0  0  0  0  0
    6.8368    0.7396    0.0000 C   0  0  0  0  0  0  0  0  0  0  0  0
    1.1064    1.5724    0.0000 C   0  0  0  0  0  0  0  0  0  0  0  0
    6.8493    1.5601    0.0000 C   0  0  0  0  0  0  0  0  0  0  0  0
    0.3978    1.9703    0.0000 C   0  0  0  0  0  0  0  0  0  0  0  0
    7.5702    1.9703    0.0000 C   0  0  0  0  0  0  0  0  0  0  0  0
   -3.9281    0.0187    0.0000 C   0  0  0  0  0  0  0  0  0  0  0  0
   11.8713    0.0187    0.0000 C   0  0  0  0  0  0  0  0  0  0  0  0
   -4.4999    0.5905    0.0000 C   0  0  0  0  0  0  0  0  0  0  0  0
   -4.1394   -0.7894    0.0000 C   0  0  0  0  0  0  0  0  0  0  0  0
   12.0950   -0.7894    0.0000 C   0  0  0  0  0  0  0  0  0  0  0  0
   12.4555    0.5905    0.0000 C   0  0  0  0  0  0  0  0  0  0  0  0
   -5.5316   -0.4164    0.0000 C   0  0  0  0  0  0  0  0  0  0  0  0
   -5.2955    0.3667    0.0000 C   0  0  0  0  0  0  0  0  0  0  0  0
   -4.9101   -1.0006    0.0000 C   0  0  0  0  0  0  0  0  0  0  0  0
   12.8782   -1.0006    0.0000 C   0  0  0  0  0  0  0  0  0  0  0  0
   13.2510    0.3667    0.0000 C   0  0  0  0  0  0  0  0  0  0  0  0
   13.4624   -0.4040    0.0000 C   0  0  0  0  0  0  0  0  0  0  0  0
    2.5483    1.5724    0.0000 C   0  0  0  0  0  0  0  0  0  0  0  0
    5.4198    1.5724    0.0000 C   0  0  0  0  0  0  0  0  0  0  0  0
    2.5359    0.7396    0.0000 C   0  0  0  0  0  0  0  0  0  0  0  0
    5.4198    0.7147    0.0000 C   0  0  0  0  0  0  0  0  0  0  0  0
   -6.2153   -0.8266    0.0000 C   0  0  0  0  0  0  0  0  0  0  0  0
    3.2568    1.9827    0.0000 C   0  0  0  0  0  0  0  0  0  0  0  0
    4.6864    1.9703    0.0000 C   0  0  0  0  0  0  0  0  0  0  0  0
    3.9778    1.5601    0.0000 C   0  0  0  0  0  0  0  0  0  0  0  0
   -7.6697   -0.8142    0.0000 C   0  0  0  0  0  0  0  0  0  0  0  0
   14.8173   -0.0684    0.0000 C   0  0  0  0  0  0  0  0  0  0  0  0
   -8.4031   -0.4164    0.0000 C   0  0  3  0  0  0  0  0  0  0  0  0
   -9.8326   -0.4288    0.0000 C   0  0  0  0  0  0  0  0  0  0  0  0
  -10.5412   -0.8390    0.0000 C   0  0  3  0  0  0  0  0  0  0  0  0
   -8.3907    0.4040    0.0000 C   0  0  0  0  0  0  0  0  0  0  0  0
  -10.5412   -1.6595    0.0000 C   0  0  0  0  0  0  0  0  0  0  0  0
  -11.9707   -0.8142    0.0000 C   0  0  0  0  0  0  0  0  0  0  0  0
   -9.8326   -2.0697    0.0000 C   0  0  0  0  0  0  0  0  0  0  0  0
  -11.2498   -2.0821    0.0000 C   0  0  0  0  0  0  0  0  0  0  0  0
  -13.4127   -0.8390    0.0000 C   0  0  0  0  0  0  0  0  0  0  0  0
  -14.1337   -0.4288    0.0000 C   0  0  0  0  0  0  0  0  0  0  0  0
  -14.8173   -0.8764    0.0000 C   0  0  0  0  0  0  0  0  0  0  0  0
  1 21  2  0  0  0  0
  2 22  2  0  0  0  0
  3 39  1  0  0  0  0
  3 55  1  0  0  0  0
  4 40  1  0  0  0  0
  4 56  1  0  0  0  0
  5 37  1  0  0  0  0
  5 57  1  0  0  0  0
  6 38  1  0  0  0  0
  6 58  1  0  0  0  0
  7 54  1  0  0  0  0
  7 64  1  0  0  0  0
  8 63  2  0  0  0  0
  9 66  2  0  0  0  0
 10 70  1  0  0  0  0
 10 73  1  0  0  0  0
 11 70  2  0  0  0  0
 12 21  1  0  0  0  0
 23 12  1  1  0  0  0
 12 29  1  0  0  0  0
 13 22  1  0  0  0  0
 24 13  1  6  0  0  0
 13 30  1  0  0  0  0
 14 25  1  0  0  0  0
 14 35  2  0  0  0  0
 15 26  1  0  0  0  0
 15 36  2  0  0  0  0
 16 59  1  0  0  0  0
 16 63  1  0  0  0  0
 17 65  1  0  0  0  0
 17 66  1  0  0  0  0
 67 18  1  6  0  0  0
 18 70  1  0  0  0  0
 19 21  1  0  0  0  0
 19 25  1  0  0  0  0
 19 33  2  0  0  0  0
 20 22  1  0  0  0  0
 20 26  2  0  0  0  0
 20 34  1  0  0  0  0
 23 31  1  0  0  0  0
 23 35  1  0  0  0  0
 24 32  1  0  0  0  0
 24 36  1  0  0  0  0
 25 41  2  0  0  0  0
 26 42  1  0  0  0  0
 27 29  2  0  0  0  0
 27 31  1  0  0  0  0
 27 43  1  0  0  0  0
 28 30  2  0  0  0  0
 28 32  1  0  0  0  0
 28 44  1  0  0  0  0
 33 37  1  0  0  0  0
 34 38  2  0  0  0  0
 37 39  2  0  0  0  0
 38 40  1  0  0  0  0
 39 41  1  0  0  0  0
 40 42  2  0  0  0  0
 43 45  2  0  0  0  0
 43 46  1  0  0  0  0
 44 47  2  0  0  0  0
 44 48  1  0  0  0  0
 45 50  1  0  0  0  0
 46 51  2  0  0  0  0
 47 52  1  0  0  0  0
 48 53  2  0  0  0  0
 49 50  2  0  0  0  0
 49 51  1  0  0  0  0
 49 59  1  0  0  0  0
 52 54  2  0  0  0  0
 53 54  1  0  0  0  0
 55 60  1  0  0  0  0
 56 61  1  0  0  0  0
 60 62  1  0  0  0  0
 61 62  1  0  0  0  0
 63 65  1  0  0  0  0
 65 68  1  1  0  0  0
 66 67  1  0  0  0  0
 67 69  1  0  0  0  0
 69 71  1  0  0  0  0
 69 72  1  0  0  0  0
 73 74  1  0  0  0  0
 74 75  2  0  0  0  0
M  END
> <PUBCHEM_COMPOUND_ID_TYPE>
0

> <PUBCHEM_TOTAL_CHARGE>
0

> <PUBCHEM_SUBSTANCE_ID>
310945671

> <PUBCHEM_SUBSTANCE_VERSION>
1

> <PUBCHEM_EXT_DATASOURCE_NAME>
4488

> <PUBCHEM_EXT_DATASOURCE_REGID>
SCHEMBL16123772

> <PUBCHEM_SUBSTANCE_COMMENT>
InChI=1S/C57H63N7O11/c1-8-20-75-57(69)62-52(34(2)3)54(66)61-35(4)53(65)60-29-36-12-14-37(15-13-36)39-23-41-30-58-46-27-50(48(71-6)25-44(46)55(67)63(41)32-39)73-21-10-9-11-22-74-51-28-47-45(26-49(51)72-7)56(68)64-33-40(24-42(64)31-59-47)38-16-18-43(70-5)19-17-38/h8,12-19,25-28,30-35,41-42,52H,1,9-11,20-24,29H2,2-7H3,(H,60,65)(H,61,66)(H,62,69)/t35-,41-,42-,52-/m0/s1
InChIKey=HSCULMUSKCBWQD-WQNBAKSYSA-N

> <PUBCHEM_SUBSTANCE_SYNONYM>
SCHEMBL16123772

> <PUBCHEM_XREF_EXT_ID>
SCHEMBL16123772

> <PUBCHEM_EXT_DATASOURCE_URL>
https://www.surechembl.org/

> <PUBCHEM_EXT_SUBSTANCE_URL>
https://www.surechembl.org/chemical/SCHEMBL16123772

> <PUBCHEM_CID_ASSOCIATIONS>
117611672  1

> <PUBCHEM_COORDINATE_TYPE>
1
3

> <PUBCHEM_BONDANNOTATIONS>
23  12  5
24  13  6
67  18  6
65  68  5

$$$$
