310937120
  -OEChem-07211613022D

 23 24  0     1  0  0  0  0  0999 V2000
    1.4500   -4.1749    0.0000 Cl  0  0  0  0  0  0  0  0  0  0  0  0
    2.8749   -4.9999    0.0000 Cl  0  0  0  0  0  0  0  0  0  0  0  0
    0.7249   -0.4250    0.0000 S   0  0  3  0  0  0  0  0  0  0  0  0
    2.1499   -0.4250    0.0000 O   0  0  0  0  0  0  0  0  0  0  0  0
    1.4249    0.0000    0.0000 O   0  0  0  0  0  0  0  0  0  0  0  0
    3.5999   -0.4250    0.0000 N   0  0  0  0  0  0  0  0  0  0  0  0
    2.8749   -1.6750    0.0000 C   0  0  3  0  0  0  0  0  0  0  0  0
    2.1499   -1.2500    0.0000 C   0  0  3  0  0  0  0  0  0  0  0  0
    1.4249   -1.6750    0.0000 C   0  0  0  0  0  0  0  0  0  0  0  0
    2.8749   -2.4999    0.0000 C   0  0  0  0  0  0  0  0  0  0  0  0
    0.7249   -1.2500    0.0000 C   0  0  0  0  0  0  0  0  0  0  0  0
    2.1749   -2.9249    0.0000 C   0  0  0  0  0  0  0  0  0  0  0  0
    2.1749   -3.7499    0.0000 C   0  0  0  0  0  0  0  0  0  0  0  0
    3.5999   -2.9249    0.0000 C   0  0  0  0  0  0  0  0  0  0  0  0
    1.4249   -2.4999    0.0000 C   0  0  0  0  0  0  0  0  0  0  0  0
    2.8749   -4.1749    0.0000 C   0  0  0  0  0  0  0  0  0  0  0  0
    3.5999   -1.2500    0.0000 C   0  0  0  0  0  0  0  0  0  0  0  0
    0.0000   -1.6750    0.0000 C   0  0  0  0  0  0  0  0  0  0  0  0
    3.5999   -3.7499    0.0000 C   0  0  0  0  0  0  0  0  0  0  0  0
    0.7249   -2.9249    0.0000 C   0  0  0  0  0  0  0  0  0  0  0  0
    0.0000   -2.4999    0.0000 C   0  0  0  0  0  0  0  0  0  0  0  0
    0.0000    0.0000    0.0000 C   0  0  0  0  0  0  0  0  0  0  0  0
    2.8749    0.0000    0.0000 C   0  0  0  0  0  0  0  0  0  0  0  0
  1 13  1  0  0  0  0
  2 16  1  0  0  0  0
  3  5  2  0  0  0  0
  3 11  1  0  0  0  0
  3 22  1  0  0  0  0
  8  4  1  1  0  0  0
  6 17  1  0  0  0  0
  6 23  1  0  0  0  0
  7  8  1  0  0  0  0
  7 10  1  0  0  0  0
  7 17  1  6  0  0  0
  8  9  1  0  0  0  0
  9 11  1  0  0  0  0
  9 15  2  0  0  0  0
 10 12  1  0  0  0  0
 10 14  2  0  0  0  0
 11 18  2  0  0  0  0
 12 13  2  0  0  0  0
 13 16  1  0  0  0  0
 14 19  1  0  0  0  0
 15 20  1  0  0  0  0
 16 19  2  0  0  0  0
 18 21  1  0  0  0  0
 20 21  2  0  0  0  0
M  END
> <PUBCHEM_COMPOUND_ID_TYPE>
0

> <PUBCHEM_TOTAL_CHARGE>
0

> <PUBCHEM_SUBSTANCE_ID>
310937120

> <PUBCHEM_SUBSTANCE_VERSION>
1

> <PUBCHEM_EXT_DATASOURCE_NAME>
4488

> <PUBCHEM_EXT_DATASOURCE_REGID>
SCHEMBL16114838

> <PUBCHEM_SUBSTANCE_COMMENT>
InChI=1S/C17H19Cl2NO2S/c1-20-10-13(11-7-8-14(18)15(19)9-11)17(21)12-5-3-4-6-16(12)23(2)22/h3-9,13,17,20-21H,10H2,1-2H3/t13-,17-,23?/m1/s1
InChIKey=UVLUOMWYQOZHOU-CPJWCZCYSA-N

> <PUBCHEM_SUBSTANCE_SYNONYM>
SCHEMBL16114838

> <PUBCHEM_XREF_EXT_ID>
SCHEMBL16114838

> <PUBCHEM_EXT_DATASOURCE_URL>
https://www.surechembl.org/

> <PUBCHEM_EXT_SUBSTANCE_URL>
https://www.surechembl.org/chemical/SCHEMBL16114838

> <PUBCHEM_CID_ASSOCIATIONS>
117604949  1

> <PUBCHEM_COORDINATE_TYPE>
1
3

> <PUBCHEM_BONDANNOTATIONS>
8  4  5
7  17  6

$$$$
