310929098
  -OEChem-07211613022D

 57 62  0     0  0  0  0  0  0999 V2000
    1.4053   -2.3241    0.0000 S   0  0  0  0  0  0  0  0  0  0  0  0
    7.0803   -2.2700    0.0000 O   0  0  0  0  0  0  0  0  0  0  0  0
    3.5672   -3.5672    0.0000 O   0  0  0  0  0  0  0  0  0  0  0  0
    4.9724   -5.1886    0.0000 O   0  0  0  0  0  0  0  0  0  0  0  0
    1.8376   -1.6214    0.0000 O   0  0  0  0  0  0  0  0  0  0  0  0
    1.0269   -3.0808    0.0000 O   0  0  0  0  0  0  0  0  0  0  0  0
   11.3501   -4.7022    0.0000 O   0  0  0  0  0  0  0  0  0  0  0  0
   12.8094   -1.4053    0.0000 O   0  0  0  0  0  0  0  0  0  0  0  0
    3.5672   -5.1886    0.0000 N   0  0  0  0  0  0  0  0  0  0  0  0
    4.2698   -3.9455    0.0000 N   0  0  0  0  0  0  0  0  0  0  0  0
    2.1079   -2.7565    0.0000 N   0  0  0  0  0  0  0  0  0  0  0  0
    9.9449   -2.2160    0.0000 N   0  0  0  0  0  0  0  0  0  0  0  0
    9.2423   -3.4591    0.0000 N   0  0  0  0  0  0  0  0  0  0  0  0
   13.5120   -2.6484    0.0000 N   0  0  0  0  0  0  0  0  0  0  0  0
   14.9173   -0.9729    0.0000 N   0  0  0  0  0  0  0  0  0  0  0  0
    2.8646   -4.8103    0.0000 C   0  0  0  0  0  0  0  0  0  0  0  0
    2.8646   -3.9996    0.0000 C   0  0  0  0  0  0  0  0  0  0  0  0
    4.9724   -2.7565    0.0000 C   0  0  0  0  0  0  0  0  0  0  0  0
    5.6751   -2.3241    0.0000 C   0  0  0  0  0  0  0  0  0  0  0  0
    2.1619   -3.5672    0.0000 C   0  0  0  0  0  0  0  0  0  0  0  0
    1.4593   -4.8103    0.0000 C   0  0  0  0  0  0  0  0  0  0  0  0
    4.9724   -3.5131    0.0000 C   0  0  0  0  0  0  0  0  0  0  0  0
    6.3777   -2.7024    0.0000 C   0  0  0  0  0  0  0  0  0  0  0  0
    2.1619   -5.1886    0.0000 C   0  0  0  0  0  0  0  0  0  0  0  0
    1.4053   -3.9996    0.0000 C   0  0  0  0  0  0  0  0  0  0  0  0
    0.7026   -5.2427    0.0000 C   0  0  0  0  0  0  0  0  0  0  0  0
    4.2698   -4.8103    0.0000 C   0  0  0  0  0  0  0  0  0  0  0  0
    5.7291   -3.9455    0.0000 C   0  0  0  0  0  0  0  0  0  0  0  0
    6.4317   -3.5131    0.0000 C   0  0  0  0  0  0  0  0  0  0  0  0
    4.2698   -2.3241    0.0000 C   0  0  0  0  0  0  0  0  0  0  0  0
    5.6751   -1.5134    0.0000 C   0  0  0  0  0  0  0  0  0  0  0  0
    7.8370   -2.6484    0.0000 C   0  0  0  0  0  0  0  0  0  0  0  0
    4.2158   -1.5134    0.0000 C   0  0  0  0  0  0  0  0  0  0  0  0
    4.9724   -1.0810    0.0000 C   0  0  0  0  0  0  0  0  0  0  0  0
    9.2423   -2.6484    0.0000 C   0  0  0  0  0  0  0  0  0  0  0  0
    8.5396   -2.2160    0.0000 C   0  0  0  0  0  0  0  0  0  0  0  0
    0.2702   -4.4860    0.0000 C   0  0  0  0  0  0  0  0  0  0  0  0
    0.0000   -5.6210    0.0000 C   0  0  0  0  0  0  0  0  0  0  0  0
    1.1350   -5.9453    0.0000 C   0  0  0  0  0  0  0  0  0  0  0  0
   10.6475   -2.6484    0.0000 C   0  0  0  0  0  0  0  0  0  0  0  0
    7.8370   -3.4591    0.0000 C   0  0  0  0  0  0  0  0  0  0  0  0
   12.0528   -2.6484    0.0000 C   0  0  0  0  0  0  0  0  0  0  0  0
   11.3501   -2.2160    0.0000 C   0  0  0  0  0  0  0  0  0  0  0  0
   11.3501   -3.8915    0.0000 C   0  0  0  0  0  0  0  0  0  0  0  0
   10.6475   -3.4591    0.0000 C   0  0  0  0  0  0  0  0  0  0  0  0
    8.5396   -3.8915    0.0000 C   0  0  0  0  0  0  0  0  0  0  0  0
    3.5672   -2.7024    0.0000 C   0  0  0  0  0  0  0  0  0  0  0  0
   12.0528   -3.4591    0.0000 C   0  0  0  0  0  0  0  0  0  0  0  0
    0.7026   -1.9457    0.0000 C   0  0  0  0  0  0  0  0  0  0  0  0
   12.8094   -2.2160    0.0000 C   0  0  0  0  0  0  0  0  0  0  0  0
   14.2147   -2.2160    0.0000 C   0  0  0  0  0  0  0  0  0  0  0  0
   12.1068   -5.1346    0.0000 C   0  0  0  0  0  0  0  0  0  0  0  0
   14.2147   -1.4053    0.0000 C   0  0  0  0  0  0  0  0  0  0  0  0
   15.0254   -0.1621    0.0000 C   0  0  0  0  0  0  0  0  0  0  0  0
   15.6740   -1.3512    0.0000 C   0  0  0  0  0  0  0  0  0  0  0  0
   15.8362    0.0000    0.0000 C   0  0  0  0  0  0  0  0  0  0  0  0
   16.2145   -0.7026    0.0000 C   0  0  0  0  0  0  0  0  0  0  0  0
  1  5  2  0  0  0  0
  1  6  2  0  0  0  0
  1 11  1  0  0  0  0
  1 49  1  0  0  0  0
  2 23  1  0  0  0  0
  2 32  1  0  0  0  0
  3 17  1  0  0  0  0
  3 47  1  0  0  0  0
  4 27  2  0  0  0  0
  7 44  1  0  0  0  0
  7 52  1  0  0  0  0
  8 50  2  0  0  0  0
  9 16  1  0  0  0  0
  9 27  1  0  0  0  0
 10 22  1  0  0  0  0
 10 27  1  0  0  0  0
 11 20  1  0  0  0  0
 12 35  1  0  0  0  0
 12 40  1  0  0  0  0
 13 35  1  0  0  0  0
 13 46  2  0  0  0  0
 14 50  1  0  0  0  0
 14 51  1  0  0  0  0
 15 53  1  0  0  0  0
 15 54  1  0  0  0  0
 15 55  1  0  0  0  0
 16 17  1  0  0  0  0
 16 24  2  0  0  0  0
 17 20  2  0  0  0  0
 18 19  2  0  0  0  0
 18 22  1  0  0  0  0
 18 30  1  0  0  0  0
 19 23  1  0  0  0  0
 19 31  1  0  0  0  0
 20 25  1  0  0  0  0
 21 24  1  0  0  0  0
 21 25  2  0  0  0  0
 21 26  1  0  0  0  0
 22 28  2  0  0  0  0
 23 29  2  0  0  0  0
 26 37  1  0  0  0  0
 26 38  1  0  0  0  0
 26 39  1  0  0  0  0
 28 29  1  0  0  0  0
 30 33  2  0  0  0  0
 31 34  2  0  0  0  0
 32 36  1  0  0  0  0
 32 41  2  0  0  0  0
 33 34  1  0  0  0  0
 35 36  2  0  0  0  0
 40 43  1  0  0  0  0
 40 45  2  0  0  0  0
 41 46  1  0  0  0  0
 42 43  2  0  0  0  0
 42 48  1  0  0  0  0
 42 50  1  0  0  0  0
 44 45  1  0  0  0  0
 44 48  2  0  0  0  0
 51 53  1  0  0  0  0
 54 56  1  0  0  0  0
 55 57  1  0  0  0  0
 56 57  1  0  0  0  0
M  END
> <PUBCHEM_COMPOUND_ID_TYPE>
0

> <PUBCHEM_TOTAL_CHARGE>
0

> <PUBCHEM_SUBSTANCE_ID>
310929098

> <PUBCHEM_SUBSTANCE_VERSION>
1

> <PUBCHEM_EXT_DATASOURCE_NAME>
4488

> <PUBCHEM_EXT_DATASOURCE_REGID>
SCHEMBL16106260

> <PUBCHEM_SUBSTANCE_COMMENT>
InChI=1S/C42H49N7O7S/c1-42(2,3)28-23-35(39(55-5)36(24-28)48-57(6,52)53)47-41(51)46-34-13-14-37(33-12-8-7-11-32(33)34)56-30-15-16-43-38(26-30)45-29-21-27(22-31(25-29)54-4)40(50)44-17-20-49-18-9-10-19-49/h7-8,11-16,21-26,48H,9-10,17-20H2,1-6H3,(H,43,45)(H,44,50)(H2,46,47,51)
InChIKey=RVTUFRDZYKZWHB-UHFFFAOYSA-N

> <PUBCHEM_SUBSTANCE_SYNONYM>
SCHEMBL16106260

> <PUBCHEM_XREF_EXT_ID>
SCHEMBL16106260

> <PUBCHEM_EXT_DATASOURCE_URL>
https://www.surechembl.org/

> <PUBCHEM_EXT_SUBSTANCE_URL>
https://www.surechembl.org/chemical/SCHEMBL16106260

> <PUBCHEM_CID_ASSOCIATIONS>
86273061  1

> <PUBCHEM_COORDINATE_TYPE>
1
3

$$$$
