310934925
  -OEChem-07211613022D

 35 40  0     0  0  0  0  0  0999 V2000
    7.6058   -2.8259    0.0000 O   0  0  0  0  0  0  0  0  0  0  0  0
   11.1781   -1.5884    0.0000 O   0  0  0  0  0  0  0  0  0  0  0  0
    3.3189   -1.1759    0.0000 N   0  0  0  0  0  0  0  0  0  0  0  0
    2.5343   -1.4308    0.0000 N   0  0  0  0  0  0  0  0  0  0  0  0
    4.0334    0.0616    0.0000 N   0  0  0  0  0  0  0  0  0  0  0  0
    0.4105    1.8163    0.0000 N   0  0  0  0  0  0  0  0  0  0  0  0
    6.1768   -1.1759    0.0000 N   0  0  0  0  0  0  0  0  0  0  0  0
    9.7492   -2.4134    0.0000 N   0  0  0  0  0  0  0  0  0  0  0  0
    2.5343   -0.0960    0.0000 C   0  0  0  0  0  0  0  0  0  0  0  0
    3.3189   -0.3509    0.0000 C   0  0  0  0  0  0  0  0  0  0  0  0
    2.2794    0.6887    0.0000 C   0  0  0  0  0  0  0  0  0  0  0  0
    1.4724    0.8602    0.0000 C   0  0  0  0  0  0  0  0  0  0  0  0
    2.0494   -0.7634    0.0000 C   0  0  0  0  0  0  0  0  0  0  0  0
    4.7479   -1.1759    0.0000 C   0  0  0  0  0  0  0  0  0  0  0  0
    1.2175    1.6448    0.0000 C   0  0  0  0  0  0  0  0  0  0  0  0
    4.0334   -1.5884    0.0000 C   0  0  0  0  0  0  0  0  0  0  0  0
    2.8314    1.3018    0.0000 C   0  0  0  0  0  0  0  0  0  0  0  0
    4.7479   -0.3509    0.0000 C   0  0  0  0  0  0  0  0  0  0  0  0
    5.4623   -1.5884    0.0000 C   0  0  0  0  0  0  0  0  0  0  0  0
    0.9204    0.2471    0.0000 C   0  0  0  0  0  0  0  0  0  0  0  0
    1.7695    2.2579    0.0000 C   0  0  0  0  0  0  0  0  0  0  0  0
    2.5765    2.0864    0.0000 C   0  0  0  0  0  0  0  0  0  0  0  0
   -0.1415    1.2032    0.0000 C   0  0  0  0  0  0  0  0  0  0  0  0
    0.1134    0.4186    0.0000 C   0  0  0  0  0  0  0  0  0  0  0  0
    5.4623   -2.4134    0.0000 C   0  0  0  0  0  0  0  0  0  0  0  0
    6.8913   -2.4134    0.0000 C   0  0  0  0  0  0  0  0  0  0  0  0
    6.8913   -1.5884    0.0000 C   0  0  0  0  0  0  0  0  0  0  0  0
    6.1768   -2.8259    0.0000 C   0  0  0  0  0  0  0  0  0  0  0  0
   -0.9485    1.3748    0.0000 C   0  0  0  0  0  0  0  0  0  0  0  0
    8.3202   -2.4134    0.0000 C   0  0  0  0  0  0  0  0  0  0  0  0
    9.0347   -2.8259    0.0000 C   0  0  0  0  0  0  0  0  0  0  0  0
   10.4636   -2.8259    0.0000 C   0  0  0  0  0  0  0  0  0  0  0  0
    9.7492   -1.5884    0.0000 C   0  0  0  0  0  0  0  0  0  0  0  0
   11.1781   -2.4134    0.0000 C   0  0  0  0  0  0  0  0  0  0  0  0
   10.4636   -1.1759    0.0000 C   0  0  0  0  0  0  0  0  0  0  0  0
  1 26  1  0  0  0  0
  1 30  1  0  0  0  0
  2 34  1  0  0  0  0
  2 35  1  0  0  0  0
  3  4  1  0  0  0  0
  3 10  1  0  0  0  0
  3 16  1  0  0  0  0
  4 13  2  0  0  0  0
  5 10  1  0  0  0  0
  5 18  2  0  0  0  0
  6 15  1  0  0  0  0
  6 23  2  0  0  0  0
  7 19  1  0  0  0  0
  7 27  2  0  0  0  0
  8 31  1  0  0  0  0
  8 32  1  0  0  0  0
  8 33  1  0  0  0  0
  9 10  2  0  0  0  0
  9 11  1  0  0  0  0
  9 13  1  0  0  0  0
 11 12  1  0  0  0  0
 11 17  2  0  0  0  0
 12 15  2  0  0  0  0
 12 20  1  0  0  0  0
 14 16  2  0  0  0  0
 14 18  1  0  0  0  0
 14 19  1  0  0  0  0
 15 21  1  0  0  0  0
 17 22  1  0  0  0  0
 19 25  2  0  0  0  0
 20 24  2  0  0  0  0
 21 22  2  0  0  0  0
 23 24  1  0  0  0  0
 23 29  1  0  0  0  0
 25 28  1  0  0  0  0
 26 27  1  0  0  0  0
 26 28  2  0  0  0  0
 30 31  1  0  0  0  0
 32 34  1  0  0  0  0
 33 35  1  0  0  0  0
M  END
> <PUBCHEM_COMPOUND_ID_TYPE>
0

> <PUBCHEM_TOTAL_CHARGE>
0

> <PUBCHEM_SUBSTANCE_ID>
310934925

> <PUBCHEM_SUBSTANCE_VERSION>
1

> <PUBCHEM_EXT_DATASOURCE_NAME>
4488

> <PUBCHEM_EXT_DATASOURCE_REGID>
SCHEMBL16112438

> <PUBCHEM_SUBSTANCE_COMMENT>
InChI=1S/C27H26N6O2/c1-19-5-7-23-22(3-2-4-26(23)31-19)24-17-30-33-18-20(15-29-27(24)33)25-8-6-21(16-28-25)35-14-11-32-9-12-34-13-10-32/h2-8,15-18H,9-14H2,1H3
InChIKey=DSDQKAJLESVGJN-UHFFFAOYSA-N

> <PUBCHEM_SUBSTANCE_SYNONYM>
SCHEMBL16112438

> <PUBCHEM_XREF_EXT_ID>
SCHEMBL16112438

> <PUBCHEM_EXT_DATASOURCE_URL>
https://www.surechembl.org/

> <PUBCHEM_EXT_SUBSTANCE_URL>
https://www.surechembl.org/chemical/SCHEMBL16112438

> <PUBCHEM_CID_ASSOCIATIONS>
117603048  1

> <PUBCHEM_COORDINATE_TYPE>
1
3

$$$$
