310935451
  -OEChem-07211613022D

 20 22  0     0  0  0  0  0  0999 V2000
    0.7186   -0.8107    0.0000 N   0  0  0  0  0  0  0  0  0  0  0  0
    0.0000   -2.0452    0.0000 N   0  0  0  0  0  0  0  0  0  0  0  0
    0.7186   -3.2797    0.0000 N   0  0  0  0  0  0  0  0  0  0  0  0
    4.9747   -2.4690    0.0000 N   0  0  0  0  0  0  0  0  0  0  0  0
    1.4372   -2.0452    0.0000 C   0  0  0  0  0  0  0  0  0  0  0  0
    1.4372   -1.2345    0.0000 C   0  0  0  0  0  0  0  0  0  0  0  0
    0.7186   -2.4506    0.0000 C   0  0  0  0  0  0  0  0  0  0  0  0
    2.8375   -2.0452    0.0000 C   0  0  0  0  0  0  0  0  0  0  0  0
    2.1189   -0.8107    0.0000 C   0  0  0  0  0  0  0  0  0  0  0  0
    2.1189   -2.4506    0.0000 C   0  0  0  0  0  0  0  0  0  0  0  0
    2.8375   -1.2345    0.0000 C   0  0  0  0  0  0  0  0  0  0  0  0
    3.5376   -2.4506    0.0000 C   0  0  0  0  0  0  0  0  0  0  0  0
    0.0000   -1.2345    0.0000 C   0  0  0  0  0  0  0  0  0  0  0  0
    4.2746   -2.0636    0.0000 C   0  0  0  0  0  0  0  0  0  0  0  0
    2.1189    0.0000    0.0000 C   0  0  0  0  0  0  0  0  0  0  0  0
    3.5744   -3.2797    0.0000 C   0  0  0  0  0  0  0  0  0  0  0  0
    0.0000   -3.6850    0.0000 C   0  0  0  0  0  0  0  0  0  0  0  0
    1.4372   -3.6850    0.0000 C   0  0  0  0  0  0  0  0  0  0  0  0
    4.2562   -3.6850    0.0000 C   0  0  0  0  0  0  0  0  0  0  0  0
    4.9932   -3.2981    0.0000 C   0  0  0  0  0  0  0  0  0  0  0  0
  1  6  2  0  0  0  0
  1 13  1  0  0  0  0
  2  7  1  0  0  0  0
  2 13  2  0  0  0  0
  3  7  1  0  0  0  0
  3 17  1  0  0  0  0
  3 18  1  0  0  0  0
  4 14  1  0  0  0  0
  4 20  2  0  0  0  0
  5  6  1  0  0  0  0
  5  7  2  0  0  0  0
  5 10  1  0  0  0  0
  6  9  1  0  0  0  0
  8 10  2  0  0  0  0
  8 11  1  0  0  0  0
  8 12  1  0  0  0  0
  9 11  2  0  0  0  0
  9 15  1  0  0  0  0
 12 14  2  0  0  0  0
 12 16  1  0  0  0  0
 16 19  2  0  0  0  0
 19 20  1  0  0  0  0
M  END
> <PUBCHEM_COMPOUND_ID_TYPE>
0

> <PUBCHEM_TOTAL_CHARGE>
0

> <PUBCHEM_SUBSTANCE_ID>
310935451

> <PUBCHEM_SUBSTANCE_VERSION>
1

> <PUBCHEM_EXT_DATASOURCE_NAME>
4488

> <PUBCHEM_EXT_DATASOURCE_REGID>
SCHEMBL16112995

> <PUBCHEM_SUBSTANCE_COMMENT>
InChI=1S/C16H16N4/c1-11-7-13(12-5-4-6-17-9-12)8-14-15(11)18-10-19-16(14)20(2)3/h4-10H,1-3H3
InChIKey=YYMIHPLPDLJJIW-UHFFFAOYSA-N

> <PUBCHEM_SUBSTANCE_SYNONYM>
SCHEMBL16112995

> <PUBCHEM_XREF_EXT_ID>
SCHEMBL16112995

> <PUBCHEM_EXT_DATASOURCE_URL>
https://www.surechembl.org/

> <PUBCHEM_EXT_SUBSTANCE_URL>
https://www.surechembl.org/chemical/SCHEMBL16112995

> <PUBCHEM_CID_ASSOCIATIONS>
117603491  1

> <PUBCHEM_COORDINATE_TYPE>
1
3

$$$$
