310929001
  -OEChem-07211613022D

 16 18  0     0  0  0  0  0  0999 V2000
    1.1333   -1.3210    0.0000 O   0  0  0  0  0  0  0  0  0  0  0  0
    1.2196    1.1495    0.0000 N   0  0  0  0  0  0  0  0  0  0  0  0
    1.8870   -0.0066    0.0000 N   0  0  0  0  0  0  0  0  0  0  0  0
    0.4189   -0.0835    0.0000 C   0  0  0  0  0  0  0  0  0  0  0  0
    1.1333    0.3290    0.0000 C   0  0  0  0  0  0  0  0  0  0  0  0
    0.4189   -0.9085    0.0000 C   0  0  0  0  0  0  0  0  0  0  0  0
   -1.0101   -0.0835    0.0000 C   0  0  0  0  0  0  0  0  0  0  0  0
   -1.0101   -0.9085    0.0000 C   0  0  0  0  0  0  0  0  0  0  0  0
   -0.2956    0.3290    0.0000 C   0  0  0  0  0  0  0  0  0  0  0  0
   -0.2956   -1.3210    0.0000 C   0  0  0  0  0  0  0  0  0  0  0  0
   -1.7246    0.3290    0.0000 C   0  0  0  0  0  0  0  0  0  0  0  0
   -1.7246   -1.3210    0.0000 C   0  0  0  0  0  0  0  0  0  0  0  0
    2.0265    1.3210    0.0000 C   0  0  0  0  0  0  0  0  0  0  0  0
    2.4390    0.6065    0.0000 C   0  0  0  0  0  0  0  0  0  0  0  0
   -2.4390   -0.0835    0.0000 C   0  0  0  0  0  0  0  0  0  0  0  0
   -2.4390   -0.9085    0.0000 C   0  0  0  0  0  0  0  0  0  0  0  0
  1  6  1  0  0  0  0
  2  5  2  0  0  0  0
  2 13  1  0  0  0  0
  3  5  1  0  0  0  0
  3 14  1  0  0  0  0
  4  5  1  0  0  0  0
  4  6  2  0  0  0  0
  4  9  1  0  0  0  0
  6 10  1  0  0  0  0
  7  8  1  0  0  0  0
  7  9  2  0  0  0  0
  7 11  1  0  0  0  0
  8 10  2  0  0  0  0
  8 12  1  0  0  0  0
 11 15  2  0  0  0  0
 12 16  2  0  0  0  0
 13 14  2  0  0  0  0
 15 16  1  0  0  0  0
M  END
> <PUBCHEM_COMPOUND_ID_TYPE>
0

> <PUBCHEM_TOTAL_CHARGE>
0

> <PUBCHEM_SUBSTANCE_ID>
310929001

> <PUBCHEM_SUBSTANCE_VERSION>
1

> <PUBCHEM_EXT_DATASOURCE_NAME>
11752

> <PUBCHEM_EXT_DATASOURCE_REGID>
BD328138

> <PUBCHEM_SUBSTANCE_SYNONYM>
3-(1H-Imidazol-2-yl)naphthalen-2-ol
32339-68-7

> <PUBCHEM_GENERIC_REGISTRY_NAME>
32339-68-7

> <PUBCHEM_XREF_EXT_ID>
BD328138

> <PUBCHEM_EXT_DATASOURCE_URL>
http://www.bidepharmatech.com/en/index.html

> <PUBCHEM_EXT_SUBSTANCE_URL>
http://www.bidepharmatech.com/en/goodsview_goodscode_BD328138.html

> <PUBCHEM_CID_ASSOCIATIONS>
18388357  1

> <PUBCHEM_COORDINATE_TYPE>
1
3

$$$$
