310937046
  -OEChem-07211613022D

 23 25  0     1  0  0  0  0  0999 V2000
   -0.5955   -2.2201    0.0000 S   0  0  0  0  0  0  0  0  0  0  0  0
    1.1270   -3.6020    0.0000 O   0  0  0  0  0  0  0  0  0  0  0  0
    3.6020   -2.1730    0.0000 O   0  0  0  0  0  0  0  0  0  0  0  0
    3.6020   -3.6020    0.0000 O   0  0  0  0  0  0  0  0  0  0  0  0
    2.3645   -2.8875    0.0000 N   0  0  0  0  0  0  0  0  0  0  0  0
    1.1270   -2.1730    0.0000 C   0  0  3  0  0  0  0  0  0  0  0  0
    0.7145   -1.4586    0.0000 C   0  0  0  0  0  0  0  0  0  0  0  0
    0.7145   -2.8875    0.0000 C   0  0  3  0  0  0  0  0  0  0  0  0
   -0.5230   -0.7441    0.0000 C   0  0  0  0  0  0  0  0  0  0  0  0
   -0.1105   -2.8875    0.0000 C   0  0  0  0  0  0  0  0  0  0  0  0
   -0.1105   -1.4586    0.0000 C   0  0  0  0  0  0  0  0  0  0  0  0
   -0.1105   -0.0296    0.0000 C   0  0  0  0  0  0  0  0  0  0  0  0
    1.1270   -0.7441    0.0000 C   0  0  0  0  0  0  0  0  0  0  0  0
    1.9520   -2.1730    0.0000 C   0  0  0  0  0  0  0  0  0  0  0  0
    0.7145   -0.0296    0.0000 C   0  0  0  0  0  0  0  0  0  0  0  0
   -0.5955   -3.5549    0.0000 C   0  0  0  0  0  0  0  0  0  0  0  0
   -1.3480   -0.7441    0.0000 C   0  0  0  0  0  0  0  0  0  0  0  0
   -0.5230    0.6849    0.0000 C   0  0  0  0  0  0  0  0  0  0  0  0
   -1.3801   -2.4750    0.0000 C   0  0  0  0  0  0  0  0  0  0  0  0
   -1.3801   -3.3000    0.0000 C   0  0  0  0  0  0  0  0  0  0  0  0
   -1.7605   -0.0296    0.0000 C   0  0  0  0  0  0  0  0  0  0  0  0
   -1.3480    0.6849    0.0000 C   0  0  0  0  0  0  0  0  0  0  0  0
    3.1895   -2.8875    0.0000 C   0  0  0  0  0  0  0  0  0  0  0  0
  1 10  1  0  0  0  0
  1 19  1  0  0  0  0
  8  2  1  6  0  0  0
  3 23  2  0  0  0  0
  4 23  1  0  0  0  0
  5 14  1  0  0  0  0
  5 23  1  0  0  0  0
  6  7  1  0  0  0  0
  6  8  1  0  0  0  0
  6 14  1  6  0  0  0
  7 11  2  0  0  0  0
  7 13  1  0  0  0  0
  8 10  1  0  0  0  0
  9 11  1  0  0  0  0
  9 12  1  0  0  0  0
  9 17  2  0  0  0  0
 10 16  2  0  0  0  0
 12 15  1  0  0  0  0
 12 18  2  0  0  0  0
 13 15  2  0  0  0  0
 16 20  1  0  0  0  0
 17 21  1  0  0  0  0
 18 22  1  0  0  0  0
 19 20  2  0  0  0  0
 21 22  2  0  0  0  0
M  END
> <PUBCHEM_COMPOUND_ID_TYPE>
0

> <PUBCHEM_TOTAL_CHARGE>
0

> <PUBCHEM_SUBSTANCE_ID>
310937046

> <PUBCHEM_SUBSTANCE_VERSION>
1

> <PUBCHEM_EXT_DATASOURCE_NAME>
4488

> <PUBCHEM_EXT_DATASOURCE_REGID>
SCHEMBL16114756

> <PUBCHEM_SUBSTANCE_COMMENT>
InChI=1S/C18H17NO3S/c20-17(16-6-3-9-23-16)15(11-19-18(21)22)14-8-7-12-4-1-2-5-13(12)10-14/h1-10,15,17,19-20H,11H2,(H,21,22)/t15-,17-/m0/s1
InChIKey=CPQSVWUEOIHCLV-RDJZCZTQSA-N

> <PUBCHEM_SUBSTANCE_SYNONYM>
SCHEMBL16114756

> <PUBCHEM_XREF_EXT_ID>
SCHEMBL16114756

> <PUBCHEM_EXT_DATASOURCE_URL>
https://www.surechembl.org/

> <PUBCHEM_EXT_SUBSTANCE_URL>
https://www.surechembl.org/chemical/SCHEMBL16114756

> <PUBCHEM_CID_ASSOCIATIONS>
117604892  1

> <PUBCHEM_COORDINATE_TYPE>
1
3

> <PUBCHEM_BONDANNOTATIONS>
8  2  6
6  14  6

$$$$
