310944680
  -OEChem-07211613022D

 23 24  0     0  0  0  0  0  0999 V2000
   -3.8325   -0.6429    0.0000 I   0  0  0  0  0  0  0  0  0  0  0  0
   -4.0056    1.0014    0.0000 Cl  0  0  0  0  0  0  0  0  0  0  0  0
   -0.9890   -0.6429    0.0000 O   0  0  0  0  0  0  0  0  0  0  0  0
    0.4327    1.8297    0.0000 O   0  0  0  0  0  0  0  0  0  0  0  0
    4.0056   -0.2349    0.0000 O   0  0  0  0  0  0  0  0  0  0  0  0
    1.1621    0.5934    0.0000 N   0  0  0  0  0  0  0  0  0  0  0  0
    2.6086   -0.2225    0.0000 N   0  0  0  0  0  0  0  0  0  0  0  0
   -0.9767    1.0137    0.0000 N   0  0  0  0  0  0  0  0  0  0  0  0
   -1.6938    0.6058    0.0000 C   0  0  0  0  0  0  0  0  0  0  0  0
   -1.7061   -0.2225    0.0000 C   0  0  0  0  0  0  0  0  0  0  0  0
   -3.1155    0.5934    0.0000 C   0  0  0  0  0  0  0  0  0  0  0  0
    0.4327    1.0014    0.0000 C   0  0  0  0  0  0  0  0  0  0  0  0
   -3.1278   -0.2225    0.0000 C   0  0  0  0  0  0  0  0  0  0  0  0
   -2.3984    1.0014    0.0000 C   0  0  0  0  0  0  0  0  0  0  0  0
   -2.3984   -0.6305    0.0000 C   0  0  0  0  0  0  0  0  0  0  0  0
   -0.2596    0.5934    0.0000 C   0  0  0  0  0  0  0  0  0  0  0  0
    1.1745   -0.2349    0.0000 C   0  0  0  0  0  0  0  0  0  0  0  0
    1.8916    1.0137    0.0000 C   0  0  0  0  0  0  0  0  0  0  0  0
    1.9039   -0.6305    0.0000 C   0  0  0  0  0  0  0  0  0  0  0  0
    2.5962    0.6058    0.0000 C   0  0  0  0  0  0  0  0  0  0  0  0
    3.3010   -0.6429    0.0000 C   0  0  0  0  0  0  0  0  0  0  0  0
    3.3133   -1.4712    0.0000 C   0  0  0  0  0  0  0  0  0  0  0  0
    2.5715   -1.8297    0.0000 C   0  0  0  0  0  0  0  0  0  0  0  0
  1 13  1  0  0  0  0
  2 11  1  0  0  0  0
  3 10  1  0  0  0  0
  4 12  2  0  0  0  0
  5 21  2  0  0  0  0
  6 12  1  0  0  0  0
  6 17  1  0  0  0  0
  6 18  1  0  0  0  0
  7 19  1  0  0  0  0
  7 20  1  0  0  0  0
  7 21  1  0  0  0  0
  8  9  1  0  0  0  0
  8 16  1  0  0  0  0
  9 10  1  0  0  0  0
  9 14  2  0  0  0  0
 10 15  2  0  0  0  0
 11 13  2  0  0  0  0
 11 14  1  0  0  0  0
 12 16  1  0  0  0  0
 13 15  1  0  0  0  0
 17 19  1  0  0  0  0
 18 20  1  0  0  0  0
 21 22  1  0  0  0  0
 22 23  2  0  0  0  0
M  END
> <PUBCHEM_COMPOUND_ID_TYPE>
0

> <PUBCHEM_TOTAL_CHARGE>
0

> <PUBCHEM_SUBSTANCE_ID>
310944680

> <PUBCHEM_SUBSTANCE_VERSION>
1

> <PUBCHEM_EXT_DATASOURCE_NAME>
4488

> <PUBCHEM_EXT_DATASOURCE_REGID>
SCHEMBL16122759

> <PUBCHEM_SUBSTANCE_COMMENT>
InChI=1S/C15H17ClIN3O3/c1-2-14(22)19-3-5-20(6-4-19)15(23)9-18-12-7-10(16)11(17)8-13(12)21/h2,7-8,18,21H,1,3-6,9H2
InChIKey=OLQZOUYWKQIMJR-UHFFFAOYSA-N

> <PUBCHEM_SUBSTANCE_SYNONYM>
SCHEMBL16122759

> <PUBCHEM_XREF_EXT_ID>
SCHEMBL16122759

> <PUBCHEM_EXT_DATASOURCE_URL>
https://www.surechembl.org/

> <PUBCHEM_EXT_SUBSTANCE_URL>
https://www.surechembl.org/chemical/SCHEMBL16122759

> <PUBCHEM_CID_ASSOCIATIONS>
117610906  1

> <PUBCHEM_COORDINATE_TYPE>
1
3

$$$$
