310939926
  -OEChem-07211613022D

 28 31  0     0  0  0  0  0  0999 V2000
    1.7454    3.4491    0.0000 Cl  0  0  0  0  0  0  0  0  0  0  0  0
    1.2769    5.0306    0.0000 Cl  0  0  0  0  0  0  0  0  0  0  0  0
    0.3510    1.9111    0.0000 O   0  0  0  0  0  0  0  0  0  0  0  0
    0.3510   -4.2056    0.0000 O   0  0  0  0  0  0  0  0  0  0  0  0
   -1.0779    2.7361    0.0000 N   0  0  0  0  0  0  0  0  0  0  0  0
   -0.3635   -0.9764    0.0000 N   0  0  0  0  0  0  0  0  0  0  0  0
   -0.3635   -2.9681    0.0000 N   0  0  0  0  0  0  0  0  0  0  0  0
   -0.3635    0.6736    0.0000 N   0  0  0  0  0  0  0  0  0  0  0  0
   -0.4105    3.2210    0.0000 C   0  0  0  0  0  0  0  0  0  0  0  0
   -0.6654    4.0057    0.0000 C   0  0  0  0  0  0  0  0  0  0  0  0
   -0.3635   -1.8014    0.0000 C   0  0  0  0  0  0  0  0  0  0  0  0
    0.3965    3.0495    0.0000 C   0  0  0  0  0  0  0  0  0  0  0  0
   -0.9468   -2.3847    0.0000 C   0  0  0  0  0  0  0  0  0  0  0  0
    0.2199   -2.3847    0.0000 C   0  0  0  0  0  0  0  0  0  0  0  0
   -1.7454    3.2210    0.0000 C   0  0  0  0  0  0  0  0  0  0  0  0
   -1.4904    4.0057    0.0000 C   0  0  0  0  0  0  0  0  0  0  0  0
   -1.0779    1.9111    0.0000 C   0  0  0  0  0  0  0  0  0  0  0  0
   -0.3635    1.4986    0.0000 C   0  0  0  0  0  0  0  0  0  0  0  0
   -0.1134    4.6188    0.0000 C   0  0  0  0  0  0  0  0  0  0  0  0
    0.9485    3.6626    0.0000 C   0  0  0  0  0  0  0  0  0  0  0  0
    0.6936    4.4472    0.0000 C   0  0  0  0  0  0  0  0  0  0  0  0
   -1.0779   -0.5639    0.0000 C   0  0  0  0  0  0  0  0  0  0  0  0
    0.3510   -0.5639    0.0000 C   0  0  0  0  0  0  0  0  0  0  0  0
   -0.3635   -3.7931    0.0000 C   0  0  0  0  0  0  0  0  0  0  0  0
   -1.0779    0.2611    0.0000 C   0  0  0  0  0  0  0  0  0  0  0  0
    0.3510    0.2611    0.0000 C   0  0  0  0  0  0  0  0  0  0  0  0
   -1.0779   -4.2056    0.0000 C   0  0  0  0  0  0  0  0  0  0  0  0
   -1.0779   -5.0306    0.0000 C   0  0  0  0  0  0  0  0  0  0  0  0
  1 20  1  0  0  0  0
  2 21  1  0  0  0  0
  3 18  2  0  0  0  0
  4 24  2  0  0  0  0
  5  9  1  0  0  0  0
  5 15  1  0  0  0  0
  5 17  1  0  0  0  0
  6 11  1  0  0  0  0
  6 22  1  0  0  0  0
  6 23  1  0  0  0  0
  7 13  1  0  0  0  0
  7 14  1  0  0  0  0
  7 24  1  0  0  0  0
  8 18  1  0  0  0  0
  8 25  1  0  0  0  0
  8 26  1  0  0  0  0
  9 10  2  0  0  0  0
  9 12  1  0  0  0  0
 10 16  1  0  0  0  0
 10 19  1  0  0  0  0
 11 13  1  0  0  0  0
 11 14  1  0  0  0  0
 12 20  2  0  0  0  0
 15 16  2  0  0  0  0
 17 18  1  0  0  0  0
 19 21  2  0  0  0  0
 20 21  1  0  0  0  0
 22 25  1  0  0  0  0
 23 26  1  0  0  0  0
 24 27  1  0  0  0  0
 27 28  2  0  0  0  0
M  END
> <PUBCHEM_COMPOUND_ID_TYPE>
0

> <PUBCHEM_TOTAL_CHARGE>
0

> <PUBCHEM_SUBSTANCE_ID>
310939926

> <PUBCHEM_SUBSTANCE_VERSION>
1

> <PUBCHEM_EXT_DATASOURCE_NAME>
4488

> <PUBCHEM_EXT_DATASOURCE_REGID>
SCHEMBL16117856

> <PUBCHEM_SUBSTANCE_COMMENT>
InChI=1S/C20H22Cl2N4O2/c1-2-19(27)26-11-15(12-26)23-5-7-24(8-6-23)20(28)13-25-4-3-14-9-16(21)17(22)10-18(14)25/h2-4,9-10,15H,1,5-8,11-13H2
InChIKey=LSBTYNYURFGNLR-UHFFFAOYSA-N

> <PUBCHEM_SUBSTANCE_SYNONYM>
SCHEMBL16117856

> <PUBCHEM_XREF_EXT_ID>
SCHEMBL16117856

> <PUBCHEM_EXT_DATASOURCE_URL>
https://www.surechembl.org/

> <PUBCHEM_EXT_SUBSTANCE_URL>
https://www.surechembl.org/chemical/SCHEMBL16117856

> <PUBCHEM_CID_ASSOCIATIONS>
86279883  1

> <PUBCHEM_COORDINATE_TYPE>
1
3

$$$$
