310949071
  -OEChem-07211613022D

 23 24  0     0  0  0  0  0  0999 V2000
    1.8597    0.7361    0.0000 Br  0  0  0  0  0  0  0  0  0  0  0  0
    1.7822   -0.3022    0.0000 F   0  0  0  0  0  0  0  0  0  0  0  0
   -1.1003   -0.3487    0.0000 F   0  0  0  0  0  0  0  0  0  0  0  0
   -1.1003   -2.0224    0.0000 F   0  0  0  0  0  0  0  0  0  0  0  0
    1.7977   -1.9759    0.0000 F   0  0  0  0  0  0  0  0  0  0  0  0
    0.3409   -2.8438    0.0000 F   0  0  0  0  0  0  0  0  0  0  0  0
   -1.4722    1.3870    0.0000 F   0  0  0  0  0  0  0  0  0  0  0  0
   -1.8597    2.4563    0.0000 F   0  0  0  0  0  0  0  0  0  0  0  0
   -0.7903    2.8438    0.0000 F   0  0  0  0  0  0  0  0  0  0  0  0
    0.3100   -0.3177    0.0000 C   0  0  0  0  0  0  0  0  0  0  0  0
    0.3409    0.5347    0.0000 C   0  0  0  0  0  0  0  0  0  0  0  0
    1.0538   -0.6897    0.0000 C   0  0  0  0  0  0  0  0  0  0  0  0
   -0.3875   -0.7206    0.0000 C   0  0  0  0  0  0  0  0  0  0  0  0
   -0.4030   -1.5420    0.0000 C   0  0  0  0  0  0  0  0  0  0  0  0
    1.0383   -1.5420    0.0000 C   0  0  0  0  0  0  0  0  0  0  0  0
    1.0228    0.9686    0.0000 C   0  0  0  0  0  0  0  0  0  0  0  0
    0.3409   -1.9759    0.0000 C   0  0  0  0  0  0  0  0  0  0  0  0
   -0.4030    1.7589    0.0000 C   0  0  0  0  0  0  0  0  0  0  0  0
   -0.3875    0.9376    0.0000 C   0  0  0  0  0  0  0  0  0  0  0  0
    1.0383    1.7899    0.0000 C   0  0  0  0  0  0  0  0  0  0  0  0
   -1.1313    2.1309    0.0000 C   0  0  0  0  0  0  0  0  0  0  0  0
    0.3100    2.1774    0.0000 C   0  0  0  0  0  0  0  0  0  0  0  0
    1.7822    2.2083    0.0000 C   0  0  0  0  0  0  0  0  0  0  0  0
  1 16  1  0  0  0  0
  2 12  1  0  0  0  0
  3 13  1  0  0  0  0
  4 14  1  0  0  0  0
  5 15  1  0  0  0  0
  6 17  1  0  0  0  0
  7 21  1  0  0  0  0
  8 21  1  0  0  0  0
  9 21  1  0  0  0  0
 10 11  1  0  0  0  0
 10 12  2  0  0  0  0
 10 13  1  0  0  0  0
 11 16  2  0  0  0  0
 11 19  1  0  0  0  0
 12 15  1  0  0  0  0
 13 14  2  0  0  0  0
 14 17  1  0  0  0  0
 15 17  2  0  0  0  0
 16 20  1  0  0  0  0
 18 19  2  0  0  0  0
 18 21  1  0  0  0  0
 18 22  1  0  0  0  0
 20 22  2  0  0  0  0
 20 23  1  0  0  0  0
M  END
> <PUBCHEM_COMPOUND_ID_TYPE>
0

> <PUBCHEM_TOTAL_CHARGE>
0

> <PUBCHEM_SUBSTANCE_ID>
310949071

> <PUBCHEM_SUBSTANCE_VERSION>
1

> <PUBCHEM_EXT_DATASOURCE_NAME>
4488

> <PUBCHEM_EXT_DATASOURCE_REGID>
SCHEMBL16127261

> <PUBCHEM_SUBSTANCE_COMMENT>
InChI=1S/C14H5BrF8/c1-4-2-5(14(21,22)23)3-6(8(4)15)7-9(16)11(18)13(20)12(19)10(7)17/h2-3H,1H3
InChIKey=RZIZMGVSFNYIOR-UHFFFAOYSA-N

> <PUBCHEM_SUBSTANCE_SYNONYM>
SCHEMBL16127261

> <PUBCHEM_XREF_EXT_ID>
SCHEMBL16127261

> <PUBCHEM_EXT_DATASOURCE_URL>
https://www.surechembl.org/

> <PUBCHEM_EXT_SUBSTANCE_URL>
https://www.surechembl.org/chemical/SCHEMBL16127261

> <PUBCHEM_CID_ASSOCIATIONS>
117614576  1

> <PUBCHEM_COORDINATE_TYPE>
1
3

$$$$
