310931857
  -OEChem-07211613022D

 32 35  0     0  0  0  0  0  0999 V2000
    2.8476   -2.1357    0.0000 O   0  0  0  0  0  0  0  0  0  0  0  0
    0.1294   -2.3622    0.0000 O   0  0  0  0  0  0  0  0  0  0  0  0
    7.3455   -2.2004    0.0000 O   0  0  0  0  0  0  0  0  0  0  0  0
    9.3519   -4.0773    0.0000 O   0  0  0  0  0  0  0  0  0  0  0  0
    3.7537   -0.9708    0.0000 N   0  0  0  0  0  0  0  0  0  0  0  0
    3.6566   -0.1618    0.0000 N   0  0  0  0  0  0  0  0  0  0  0  0
    5.1775   -0.9708    0.0000 N   0  0  0  0  0  0  0  0  0  0  0  0
    6.6336   -3.4624    0.0000 N   0  0  0  0  0  0  0  0  0  0  0  0
    0.0000   -0.9708    0.0000 N   0  0  0  0  0  0  0  0  0  0  0  0
    2.4270   -0.7119    0.0000 C   0  0  0  0  0  0  0  0  0  0  0  0
    3.0094   -1.3267    0.0000 C   0  0  0  0  0  0  0  0  0  0  0  0
    4.4656   -1.3914    0.0000 C   0  0  0  0  0  0  0  0  0  0  0  0
    1.6180   -0.8090    0.0000 C   0  0  0  0  0  0  0  0  0  0  0  0
    2.8476    0.0000    0.0000 C   0  0  0  0  0  0  0  0  0  0  0  0
    4.4656   -2.2004    0.0000 C   0  0  0  0  0  0  0  0  0  0  0  0
    5.8894   -2.2004    0.0000 C   0  0  0  0  0  0  0  0  0  0  0  0
    1.2944   -1.5856    0.0000 C   0  0  0  0  0  0  0  0  0  0  0  0
    8.0575   -3.4624    0.0000 C   0  0  0  0  0  0  0  0  0  0  0  0
    1.1649   -0.1618    0.0000 C   0  0  0  0  0  0  0  0  0  0  0  0
    5.8894   -1.3914    0.0000 C   0  0  0  0  0  0  0  0  0  0  0  0
    5.1775   -2.6211    0.0000 C   0  0  0  0  0  0  0  0  0  0  0  0
    6.6336   -2.6211    0.0000 C   0  0  0  0  0  0  0  0  0  0  0  0
    0.4854   -1.6180    0.0000 C   0  0  0  0  0  0  0  0  0  0  0  0
    7.3455   -3.8508    0.0000 C   0  0  0  0  0  0  0  0  0  0  0  0
    0.3236   -0.1942    0.0000 C   0  0  0  0  0  0  0  0  0  0  0  0
    7.7015   -2.7182    0.0000 C   0  0  0  0  0  0  0  0  0  0  0  0
    8.8664   -3.3654    0.0000 C   0  0  0  0  0  0  0  0  0  0  0  0
    8.5105   -4.1420    0.0000 C   0  0  0  0  0  0  0  0  0  0  0  0
    8.2840   -2.1357    0.0000 C   0  0  0  0  0  0  0  0  0  0  0  0
    9.0282   -2.5240    0.0000 C   0  0  0  0  0  0  0  0  0  0  0  0
    0.6148   -3.0418    0.0000 C   0  0  0  0  0  0  0  0  0  0  0  0
    9.7078   -3.3330    0.0000 C   0  0  0  0  0  0  0  0  0  0  0  0
  1 11  1  0  0  0  0
  2 23  1  0  0  0  0
  2 31  1  0  0  0  0
  3 22  2  0  0  0  0
  4 28  1  0  0  0  0
  4 32  1  0  0  0  0
  5  6  1  0  0  0  0
  5 11  1  0  0  0  0
  5 12  1  0  0  0  0
  6 14  2  0  0  0  0
  7 12  2  0  0  0  0
  7 20  1  0  0  0  0
  8 22  1  0  0  0  0
  8 24  1  0  0  0  0
  9 23  1  0  0  0  0
  9 25  2  0  0  0  0
 10 11  2  0  0  0  0
 10 13  1  0  0  0  0
 10 14  1  0  0  0  0
 12 15  1  0  0  0  0
 13 17  1  0  0  0  0
 13 19  2  0  0  0  0
 15 21  2  0  0  0  0
 16 20  2  0  0  0  0
 16 21  1  0  0  0  0
 16 22  1  0  0  0  0
 17 23  2  0  0  0  0
 18 24  1  0  0  0  0
 18 26  1  0  0  0  0
 18 27  1  0  0  0  0
 18 28  1  0  0  0  0
 19 25  1  0  0  0  0
 26 29  1  0  0  0  0
 27 30  1  0  0  0  0
 29 30  1  0  0  0  0
M  END
> <PUBCHEM_COMPOUND_ID_TYPE>
0

> <PUBCHEM_TOTAL_CHARGE>
0

> <PUBCHEM_SUBSTANCE_ID>
310931857

> <PUBCHEM_SUBSTANCE_VERSION>
1

> <PUBCHEM_EXT_DATASOURCE_NAME>
4488

> <PUBCHEM_EXT_DATASOURCE_REGID>
SCHEMBL16109191

> <PUBCHEM_SUBSTANCE_COMMENT>
InChI=1S/C23H27N5O4/c1-31-15-23(8-3-4-9-23)14-26-21(29)17-5-6-19(25-12-17)28-22(30)18(13-27-28)16-7-10-24-20(11-16)32-2/h5-7,10-13,30H,3-4,8-9,14-15H2,1-2H3,(H,26,29)
InChIKey=PCQLSNCSPUWJET-UHFFFAOYSA-N

> <PUBCHEM_SUBSTANCE_SYNONYM>
SCHEMBL16109191

> <PUBCHEM_XREF_EXT_ID>
SCHEMBL16109191

> <PUBCHEM_EXT_DATASOURCE_URL>
https://www.surechembl.org/

> <PUBCHEM_EXT_SUBSTANCE_URL>
https://www.surechembl.org/chemical/SCHEMBL16109191

> <PUBCHEM_CID_ASSOCIATIONS>
117600524  1

> <PUBCHEM_COORDINATE_TYPE>
1
3

$$$$
