310944960
  -OEChem-07211613022D

 19 20  0     0  0  0  0  0  0999 V2000
    0.7967    0.9491    0.0000 O   0  0  0  0  0  0  0  0  0  0  0  0
   -0.5057   -1.1570    0.0000 N   0  0  0  0  0  0  0  0  0  0  0  0
   -1.7943   -1.5449    0.0000 N   0  0  0  0  0  0  0  0  0  0  0  0
    2.0298    0.2286    0.0000 N   0  0  0  0  0  0  0  0  0  0  0  0
    0.3395   -1.1708    0.0000 C   0  0  0  0  0  0  0  0  0  0  0  0
    1.6003   -0.4780    0.0000 C   0  0  0  0  0  0  0  0  0  0  0  0
    0.7690   -0.4780    0.0000 C   0  0  0  0  0  0  0  0  0  0  0  0
   -0.9907   -0.5057    0.0000 C   0  0  0  0  0  0  0  0  0  0  0  0
   -1.7665   -0.7136    0.0000 C   0  0  0  0  0  0  0  0  0  0  0  0
   -1.0046   -1.8081    0.0000 C   0  0  0  0  0  0  0  0  0  0  0  0
    0.7413   -1.8913    0.0000 C   0  0  0  0  0  0  0  0  0  0  0  0
    2.0021   -1.2124    0.0000 C   0  0  0  0  0  0  0  0  0  0  0  0
    1.5726   -1.8913    0.0000 C   0  0  0  0  0  0  0  0  0  0  0  0
    1.6419    0.9491    0.0000 C   0  0  0  0  0  0  0  0  0  0  0  0
   -2.4454   -0.2425    0.0000 C   0  0  0  0  0  0  0  0  0  0  0  0
    2.0298    1.6280    0.0000 C   0  0  0  0  0  0  0  0  0  0  0  0
   -2.2930    0.5888    0.0000 C   0  0  0  0  0  0  0  0  0  0  0  0
    2.4454    1.3925    0.0000 C   0  0  0  0  0  0  0  0  0  0  0  0
    1.6003    1.8913    0.0000 C   0  0  0  0  0  0  0  0  0  0  0  0
  1 14  2  0  0  0  0
  2  5  1  0  0  0  0
  2  8  1  0  0  0  0
  2 10  1  0  0  0  0
  3  9  1  0  0  0  0
  3 10  2  0  0  0  0
  4  6  1  0  0  0  0
  4 14  1  0  0  0  0
  5  7  1  0  0  0  0
  5 11  2  0  0  0  0
  6  7  2  0  0  0  0
  6 12  1  0  0  0  0
  8  9  2  0  0  0  0
  9 15  1  0  0  0  0
 11 13  1  0  0  0  0
 12 13  2  0  0  0  0
 14 16  1  0  0  0  0
 15 17  2  0  0  0  0
 16 18  1  0  0  0  0
 16 19  1  0  0  0  0
M  END
> <PUBCHEM_COMPOUND_ID_TYPE>
0

> <PUBCHEM_TOTAL_CHARGE>
0

> <PUBCHEM_SUBSTANCE_ID>
310944960

> <PUBCHEM_SUBSTANCE_VERSION>
1

> <PUBCHEM_EXT_DATASOURCE_NAME>
4488

> <PUBCHEM_EXT_DATASOURCE_REGID>
SCHEMBL16123047

> <PUBCHEM_SUBSTANCE_COMMENT>
InChI=1S/C15H17N3O/c1-4-12-9-18(10-16-12)14-7-5-6-13(8-14)17-15(19)11(2)3/h4-11H,1H2,2-3H3,(H,17,19)
InChIKey=ZWUVGGKMBSORJE-UHFFFAOYSA-N

> <PUBCHEM_SUBSTANCE_SYNONYM>
SCHEMBL16123047

> <PUBCHEM_XREF_EXT_ID>
SCHEMBL16123047

> <PUBCHEM_EXT_DATASOURCE_URL>
https://www.surechembl.org/

> <PUBCHEM_EXT_SUBSTANCE_URL>
https://www.surechembl.org/chemical/SCHEMBL16123047

> <PUBCHEM_CID_ASSOCIATIONS>
117611111  1

> <PUBCHEM_COORDINATE_TYPE>
1
3

$$$$
