310929705
  -OEChem-07211613022D

 64 70  0     1  0  0  0  0  0999 V2000
   -2.7889   -3.0516    0.0000 O   0  0  0  0  0  0  0  0  0  0  0  0
   -1.9158   -1.9204    0.0000 O   0  0  0  0  0  0  0  0  0  0  0  0
   -0.0094    0.8240    0.0000 O   0  0  0  0  0  0  0  0  0  0  0  0
    0.2392   -2.8897    0.0000 O   0  0  0  0  0  0  0  0  0  0  0  0
    0.9529   -2.3128    0.0000 O   0  0  0  0  0  0  0  0  0  0  0  0
    4.2917   -1.6259    0.0000 O   0  0  0  0  0  0  0  0  0  0  0  0
    2.8484    0.8407    0.0000 O   0  0  0  0  0  0  0  0  0  0  0  0
    3.5701   -0.3926    0.0000 O   0  0  0  0  0  0  0  0  0  0  0  0
   -0.2584    1.0701    0.0000 O   0  0  0  0  0  0  0  0  0  0  0  0
   -1.1224   -2.4561    0.0000 N   0  0  0  0  0  0  0  0  0  0  0  0
    0.7170   -1.2343    0.0000 N   0  0  0  0  0  0  0  0  0  0  0  0
    2.8628   -1.6343    0.0000 N   0  0  0  0  0  0  0  0  0  0  0  0
    0.6978    2.0657    0.0000 N   0  0  0  0  0  0  0  0  0  0  0  0
    1.4243    0.0074    0.0000 N   0  0  0  0  0  0  0  0  0  0  0  0
   -1.3728   -3.2422    0.0000 C   0  0  3  0  0  0  0  0  0  0  0  0
   -1.5537   -4.0471    0.0000 C   0  0  3  0  0  0  0  0  0  0  0  0
   -0.7661   -3.8013    0.0000 C   0  0  0  0  0  0  0  0  0  0  0  0
   -2.0258   -2.7381    0.0000 C   0  0  0  0  0  0  0  0  0  0  0  0
   -0.0661   -1.4938    0.0000 C   0  0  3  0  0  0  0  0  0  0  0  0
   -0.3164   -2.2799    0.0000 C   0  0  0  0  0  0  0  0  0  0  0  0
   -1.4483   -4.8654    0.0000 C   0  0  0  0  0  0  0  0  0  0  0  0
   -2.3778   -4.0087    0.0000 C   0  0  0  0  0  0  0  0  0  0  0  0
   -0.0046   -0.0010    0.0000 C   0  0  3  0  0  0  0  0  0  0  0  0
   -0.5549   -0.8292    0.0000 C   0  0  0  0  0  0  0  0  0  0  0  0
    1.4339   -1.6426    0.0000 C   0  0  0  0  0  0  0  0  0  0  0  0
    0.7122   -0.4093    0.0000 C   0  0  0  0  0  0  0  0  0  0  0  0
    2.1460   -1.2259    0.0000 C   0  0  3  0  0  0  0  0  0  0  0  0
    2.1508   -2.0509    0.0000 C   0  0  0  0  0  0  0  0  0  0  0  0
   -0.6871   -5.1833    0.0000 C   0  0  0  0  0  0  0  0  0  0  0  0
   -2.8231   -4.7032    0.0000 C   0  0  0  0  0  0  0  0  0  0  0  0
    0.9516    0.9946    0.0000 C   0  0  0  0  0  0  0  0  0  0  0  0
    1.6684    0.5863    0.0000 C   0  0  0  0  0  0  0  0  0  0  0  0
    3.5749   -1.2176    0.0000 C   0  0  0  0  0  0  0  0  0  0  0  0
    5.0038   -1.2093    0.0000 C   0  0  3  0  0  0  0  0  0  0  0  0
    2.1315    1.2490    0.0000 C   0  0  0  0  0  0  0  0  0  0  0  0
    1.4099    2.4823    0.0000 C   0  0  0  0  0  0  0  0  0  0  0  0
    2.1556   -2.8759    0.0000 C   0  0  0  0  0  0  0  0  0  0  0  0
    2.9758   -2.0461    0.0000 C   0  0  0  0  0  0  0  0  0  0  0  0
    1.3677   -2.3104    0.0000 C   0  0  0  0  0  0  0  0  0  0  0  0
    2.1267    2.0740    0.0000 C   0  0  0  0  0  0  0  0  0  0  0  0
    4.9990   -0.3843    0.0000 C   0  0  3  0  0  0  0  0  0  0  0  0
    1.8826    1.4951    0.0000 C   0  0  0  0  0  0  0  0  0  0  0  0
    5.7899   -1.4597    0.0000 C   0  0  0  0  0  0  0  0  0  0  0  0
    5.7821   -0.1248    0.0000 C   0  0  0  0  0  0  0  0  0  0  0  0
    1.4051    3.3073    0.0000 C   0  0  0  0  0  0  0  0  0  0  0  0
    2.8388    2.4907    0.0000 C   0  0  0  0  0  0  0  0  0  0  0  0
    4.2821    0.0240    0.0000 C   0  0  0  0  0  0  0  0  0  0  0  0
    6.2709   -0.7894    0.0000 C   0  0  0  0  0  0  0  0  0  0  0  0
    2.5995    1.0867    0.0000 C   0  0  0  0  0  0  0  0  0  0  0  0
    2.1171    3.7240    0.0000 C   0  0  0  0  0  0  0  0  0  0  0  0
    2.8340    3.3156    0.0000 C   0  0  0  0  0  0  0  0  0  0  0  0
    4.2773    0.8490    0.0000 C   0  0  0  0  0  0  0  0  0  0  0  0
    2.8532    0.0157    0.0000 C   0  0  0  0  0  0  0  0  0  0  0  0
    3.5605    1.2573    0.0000 C   0  0  0  0  0  0  0  0  0  0  0  0
    2.1412   -0.4010    0.0000 C   0  0  0  0  0  0  0  0  0  0  0  0
    1.4195    0.8324    0.0000 C   0  0  0  0  0  0  0  0  0  0  0  0
    0.4633   -0.1632    0.0000 C   0  0  0  0  0  0  0  0  0  0  0  0
    0.7026    1.2407    0.0000 C   0  0  0  0  0  0  0  0  0  0  0  0
   -0.2536    0.2451    0.0000 C   0  0  0  0  0  0  0  0  0  0  0  0
   -0.8802   -1.6276    0.0000 H   0  0  0  0  0  0  0  0  0  0  0  0
   -0.7951    0.2352    0.0000 H   0  0  0  0  0  0  0  0  0  0  0  0
    1.7376   -1.9428    0.0000 H   0  0  0  0  0  0  0  0  0  0  0  0
    5.0948   -2.0293    0.0000 H   0  0  0  0  0  0  0  0  0  0  0  0
    5.0804    0.4367    0.0000 H   0  0  0  0  0  0  0  0  0  0  0  0
  1 18  2  0  0  0  0
  2 18  1  0  0  0  0
  3 23  1  0  0  0  0
  3 31  1  0  0  0  0
  4 20  2  0  0  0  0
  5 25  2  0  0  0  0
  6 33  1  0  0  0  0
  6 34  1  0  0  0  0
  7 35  1  0  0  0  0
  7 53  1  0  0  0  0
  8 33  2  0  0  0  0
  9 58  1  0  0  0  0
  9 59  1  0  0  0  0
 15 10  1  6  0  0  0
 10 20  1  0  0  0  0
 11 19  1  0  0  0  0
 11 25  1  0  0  0  0
 11 26  1  0  0  0  0
 12 27  1  0  0  0  0
 12 33  1  0  0  0  0
 13 31  2  0  0  0  0
 13 36  1  0  0  0  0
 14 55  1  0  0  0  0
 14 56  1  0  0  0  0
 14 57  1  0  0  0  0
 15 16  1  0  0  0  0
 15 17  1  0  0  0  0
 15 18  1  1  0  0  0
 16 17  1  0  0  0  0
 16 21  1  1  0  0  0
 16 22  1  6  0  0  0
 19 20  1  0  0  0  0
 19 24  1  0  0  0  0
 19 60  1  1  0  0  0
 21 29  2  0  0  0  0
 22 30  1  0  0  0  0
 23 24  1  0  0  0  0
 23 26  1  0  0  0  0
 23 61  1  6  0  0  0
 25 27  1  0  0  0  0
 27 28  1  0  0  0  0
 27 62  1  6  0  0  0
 28 37  1  0  0  0  0
 28 38  1  0  0  0  0
 28 39  1  0  0  0  0
 31 32  1  0  0  0  0
 32 35  2  0  0  0  0
 32 42  1  0  0  0  0
 34 41  1  0  0  0  0
 34 43  1  0  0  0  0
 34 63  1  6  0  0  0
 35 40  1  0  0  0  0
 36 40  2  0  0  0  0
 36 45  1  0  0  0  0
 40 46  1  0  0  0  0
 41 44  1  0  0  0  0
 41 47  1  0  0  0  0
 41 64  1  1  0  0  0
 42 49  1  0  0  0  0
 43 48  1  0  0  0  0
 44 48  1  0  0  0  0
 45 50  2  0  0  0  0
 46 51  2  0  0  0  0
 47 52  1  0  0  0  0
 49 54  1  0  0  0  0
 50 51  1  0  0  0  0
 52 54  1  0  0  0  0
 53 55  1  0  0  0  0
 56 58  1  0  0  0  0
 57 59  1  0  0  0  0
M  END
> <PUBCHEM_COMPOUND_ID_TYPE>
0

> <PUBCHEM_TOTAL_CHARGE>
0

> <PUBCHEM_SUBSTANCE_ID>
310929705

> <PUBCHEM_SUBSTANCE_VERSION>
1

> <PUBCHEM_EXT_DATASOURCE_NAME>
4488

> <PUBCHEM_EXT_DATASOURCE_REGID>
SCHEMBL16106897

> <PUBCHEM_SUBSTANCE_COMMENT>
InChI=1S/C45H63N5O9/c1-6-44(7-2)28-45(44,41(53)54)48-38(51)34-26-30-27-50(34)40(52)37(43(3,4)5)47-42(55)59-35-19-13-15-29(35)14-9-8-10-17-32-36(57-25-22-49-20-23-56-24-21-49)31-16-11-12-18-33(31)46-39(32)58-30/h6,11-12,16,18,29-30,34-35,37H,1,7-10,13-15,17,19-28H2,2-5H3,(H,47,55)(H,48,51)(H,53,54)/t29-,30-,34+,35-,37-,44+,45+/m1/s1
InChIKey=NQMYUVDJURNRLS-JHINLHQXSA-N

> <PUBCHEM_SUBSTANCE_SYNONYM>
SCHEMBL16106897

> <PUBCHEM_XREF_EXT_ID>
SCHEMBL16106897

> <PUBCHEM_EXT_DATASOURCE_URL>
https://www.surechembl.org/

> <PUBCHEM_EXT_SUBSTANCE_URL>
https://www.surechembl.org/chemical/SCHEMBL16106897

> <PUBCHEM_CID_ASSOCIATIONS>
117599003  1

> <PUBCHEM_COORDINATE_TYPE>
1
3

> <PUBCHEM_BONDANNOTATIONS>
15  10  6
15  18  5
16  21  5
16  22  6
19  60  5
23  61  6
27  62  6
34  63  6
41  64  5

$$$$
