310944862
  -OEChem-07211613022D

 15 17  0     0  0  0  0  0  0999 V2000
   -2.9471    0.6471    0.0000 S   0  0  0  0  0  0  0  0  0  0  0  0
   -3.7342   -0.4373    0.0000 N   0  0  0  0  0  0  0  0  0  0  0  0
   -1.6179   -0.0175    0.0000 C   0  0  0  0  0  0  0  0  0  0  0  0
   -2.4574   -0.0350    0.0000 C   0  0  0  0  0  0  0  0  0  0  0  0
    0.0612    0.0175    0.0000 C   0  0  0  0  0  0  0  0  0  0  0  0
    2.5623    0.0350    0.0000 C   0  0  0  0  0  0  0  0  0  0  0  0
   -1.1981    0.6996    0.0000 C   0  0  0  0  0  0  0  0  0  0  0  0
   -1.1806   -0.7170    0.0000 C   0  0  0  0  0  0  0  0  0  0  0  0
   -0.3585    0.7170    0.0000 C   0  0  0  0  0  0  0  0  0  0  0  0
   -0.3585   -0.7170    0.0000 C   0  0  0  0  0  0  0  0  0  0  0  0
   -2.9296   -0.6996    0.0000 C   0  0  0  0  0  0  0  0  0  0  0  0
   -3.7342    0.3848    0.0000 C   0  0  0  0  0  0  0  0  0  0  0  0
    3.1394    0.6121    0.0000 C   0  0  0  0  0  0  0  0  0  0  0  0
    3.1744   -0.5246    0.0000 C   0  0  0  0  0  0  0  0  0  0  0  0
    3.7342    0.0699    0.0000 C   0  0  0  0  0  0  0  0  0  0  0  0
  1  4  1  0  0  0  0
  1 12  1  0  0  0  0
  2 11  1  0  0  0  0
  2 12  2  0  0  0  0
  3  4  1  0  0  0  0
  3  7  2  0  0  0  0
  3  8  1  0  0  0  0
  4 11  2  0  0  0  0
  5  6  1  0  0  0  0
  5  9  2  0  0  0  0
  5 10  1  0  0  0  0
  6 13  1  0  0  0  0
  6 14  1  0  0  0  0
  7  9  1  0  0  0  0
  8 10  2  0  0  0  0
 13 15  1  0  0  0  0
 14 15  1  0  0  0  0
M  END
> <PUBCHEM_COMPOUND_ID_TYPE>
0

> <PUBCHEM_TOTAL_CHARGE>
0

> <PUBCHEM_SUBSTANCE_ID>
310944862

> <PUBCHEM_SUBSTANCE_VERSION>
1

> <PUBCHEM_EXT_DATASOURCE_NAME>
4488

> <PUBCHEM_EXT_DATASOURCE_REGID>
SCHEMBL16122944

> <PUBCHEM_SUBSTANCE_COMMENT>
InChI=1S/C13H13NS/c1-2-10(3-1)11-4-6-12(7-5-11)13-8-14-9-15-13/h4-10H,1-3H2
InChIKey=RFRZURKRVNTBII-UHFFFAOYSA-N

> <PUBCHEM_SUBSTANCE_SYNONYM>
SCHEMBL16122944

> <PUBCHEM_XREF_EXT_ID>
SCHEMBL16122944

> <PUBCHEM_EXT_DATASOURCE_URL>
https://www.surechembl.org/

> <PUBCHEM_EXT_SUBSTANCE_URL>
https://www.surechembl.org/chemical/SCHEMBL16122944

> <PUBCHEM_CID_ASSOCIATIONS>
117611058  1

> <PUBCHEM_COORDINATE_TYPE>
1
3

$$$$
