310933816
  -OEChem-07211613022D

 43 48  0     1  0  0  0  0  0999 V2000
    0.0000   -3.0670    0.0000 Cl  0  0  0  0  0  0  0  0  0  0  0  0
    1.6465   -2.9378    0.0000 F   0  0  0  0  0  0  0  0  0  0  0  0
    4.0032   -3.9064    0.0000 O   0  0  0  0  0  0  0  0  0  0  0  0
    4.6166   -5.8111    0.0000 O   0  0  0  0  0  0  0  0  0  0  0  0
    3.9064   -3.7449    0.0000 O   0  0  0  0  0  0  0  0  0  0  0  0
    7.5222    0.0000    0.0000 O   0  0  0  0  0  0  0  0  0  0  0  0
    8.2324   -1.2268    0.0000 O   0  0  0  0  0  0  0  0  0  0  0  0
    5.3268   -4.5843    0.0000 N   0  0  0  0  0  0  0  0  0  0  0  0
    4.6489   -2.4859    0.0000 N   0  0  0  0  0  0  0  0  0  0  0  0
    3.0024   -3.5512    0.0000 N   0  0  0  0  0  0  0  0  0  0  0  0
    8.9104   -5.0363    0.0000 N   0  0  0  0  0  0  0  0  0  0  0  0
    9.6529   -3.8095    0.0000 N   0  0  0  0  0  0  0  0  0  0  0  0
    5.3592   -3.7449    0.0000 C   0  0  3  0  0  0  0  0  0  0  0  0
    6.0694   -3.3252    0.0000 C   0  0  0  0  0  0  0  0  0  0  0  0
    6.7796   -3.7449    0.0000 C   0  0  0  0  0  0  0  0  0  0  0  0
    4.6166   -4.9717    0.0000 C   0  0  0  0  0  0  0  0  0  0  0  0
    7.4899   -3.3576    0.0000 C   0  0  0  0  0  0  0  0  0  0  0  0
    4.6489   -3.3252    0.0000 C   0  0  0  0  0  0  0  0  0  0  0  0
    3.9064   -4.5520    0.0000 C   0  0  3  0  0  0  0  0  0  0  0  0
    6.0371   -4.9717    0.0000 C   0  0  0  0  0  0  0  0  0  0  0  0
    6.7796   -4.5843    0.0000 C   0  0  0  0  0  0  0  0  0  0  0  0
    6.2308   -2.6796    0.0000 C   0  0  0  0  0  0  0  0  0  0  0  0
    2.5827   -4.2938    0.0000 C   0  0  0  0  0  0  0  0  0  0  0  0
    8.2001   -3.7772    0.0000 C   0  0  0  0  0  0  0  0  0  0  0  0
    3.1315   -4.9072    0.0000 C   0  0  0  0  0  0  0  0  0  0  0  0
    7.4899   -2.5181    0.0000 C   0  0  0  0  0  0  0  0  0  0  0  0
    1.7756   -4.3584    0.0000 C   0  0  0  0  0  0  0  0  0  0  0  0
    6.9410   -2.2599    0.0000 C   0  0  0  0  0  0  0  0  0  0  0  0
    1.2914   -3.6804    0.0000 C   0  0  0  0  0  0  0  0  0  0  0  0
    5.3592   -2.0662    0.0000 C   0  0  0  0  0  0  0  0  0  0  0  0
    8.2324   -4.6166    0.0000 C   0  0  0  0  0  0  0  0  0  0  0  0
    8.9426   -3.3898    0.0000 C   0  0  0  0  0  0  0  0  0  0  0  0
    1.4205   -5.1331    0.0000 C   0  0  0  0  0  0  0  0  0  0  0  0
    0.4520   -3.7772    0.0000 C   0  0  0  0  0  0  0  0  0  0  0  0
    0.6134   -5.1977    0.0000 C   0  0  0  0  0  0  0  0  0  0  0  0
    0.0969   -4.5197    0.0000 C   0  0  0  0  0  0  0  0  0  0  0  0
    5.3592   -1.2268    0.0000 C   0  0  0  0  0  0  0  0  0  0  0  0
    6.0694   -2.4859    0.0000 C   0  0  0  0  0  0  0  0  0  0  0  0
    9.6852   -4.6489    0.0000 C   0  0  0  0  0  0  0  0  0  0  0  0
    6.7796   -1.2268    0.0000 C   0  0  0  0  0  0  0  0  0  0  0  0
    6.0694   -0.8394    0.0000 C   0  0  0  0  0  0  0  0  0  0  0  0
    6.7796   -2.0662    0.0000 C   0  0  0  0  0  0  0  0  0  0  0  0
    7.5222   -0.8394    0.0000 C   0  0  0  0  0  0  0  0  0  0  0  0
  1 34  1  0  0  0  0
  2 29  1  0  0  0  0
  3 10  1  0  0  0  0
  3 19  1  0  0  0  0
  4 16  2  0  0  0  0
  5 18  2  0  0  0  0
  6 43  2  0  0  0  0
  7 43  1  0  0  0  0
  8 13  1  0  0  0  0
  8 16  1  0  0  0  0
  8 20  1  0  0  0  0
  9 18  1  0  0  0  0
  9 30  1  0  0  0  0
 10 23  2  0  0  0  0
 11 31  2  0  0  0  0
 11 39  1  0  0  0  0
 12 32  1  0  0  0  0
 12 39  2  0  0  0  0
 13 14  1  0  0  0  0
 13 18  1  1  0  0  0
 14 15  2  0  0  0  0
 14 22  1  0  0  0  0
 15 17  1  0  0  0  0
 15 21  1  0  0  0  0
 19 16  1  1  0  0  0
 17 24  1  0  0  0  0
 17 26  2  0  0  0  0
 19 25  1  0  0  0  0
 20 21  1  0  0  0  0
 22 28  2  0  0  0  0
 23 25  1  0  0  0  0
 23 27  1  0  0  0  0
 24 31  1  0  0  0  0
 24 32  2  0  0  0  0
 26 28  1  0  0  0  0
 27 29  1  0  0  0  0
 27 33  2  0  0  0  0
 29 34  2  0  0  0  0
 30 37  2  0  0  0  0
 30 38  1  0  0  0  0
 33 35  1  0  0  0  0
 34 36  1  0  0  0  0
 35 36  2  0  0  0  0
 37 41  1  0  0  0  0
 38 42  2  0  0  0  0
 40 41  2  0  0  0  0
 40 42  1  0  0  0  0
 40 43  1  0  0  0  0
M  END
> <PUBCHEM_COMPOUND_ID_TYPE>
0

> <PUBCHEM_TOTAL_CHARGE>
0

> <PUBCHEM_SUBSTANCE_ID>
310933816

> <PUBCHEM_SUBSTANCE_VERSION>
1

> <PUBCHEM_EXT_DATASOURCE_NAME>
4488

> <PUBCHEM_EXT_DATASOURCE_REGID>
SCHEMBL16111254

> <PUBCHEM_SUBSTANCE_COMMENT>
InChI=1S/C31H23ClFN5O5/c32-24-6-2-5-23(27(24)33)25-13-26(43-37-25)30(40)38-12-11-21-20(18-14-34-16-35-15-18)3-1-4-22(21)28(38)29(39)36-19-9-7-17(8-10-19)31(41)42/h1-10,14-16,26,28H,11-13H2,(H,36,39)(H,41,42)/t26-,28-/m1/s1
InChIKey=DZCHJSRSEJTLGM-IXCJQBJRSA-N

> <PUBCHEM_SUBSTANCE_SYNONYM>
SCHEMBL16111254

> <PUBCHEM_XREF_EXT_ID>
SCHEMBL16111254

> <PUBCHEM_EXT_DATASOURCE_URL>
https://www.surechembl.org/

> <PUBCHEM_EXT_SUBSTANCE_URL>
https://www.surechembl.org/chemical/SCHEMBL16111254

> <PUBCHEM_CID_ASSOCIATIONS>
117602165  1

> <PUBCHEM_COORDINATE_TYPE>
1
3

> <PUBCHEM_BONDANNOTATIONS>
13  18  5
19  16  5

$$$$
