310947403
  -OEChem-07211613022D

 22 25  0     1  0  0  0  0  0999 V2000
    2.7058    1.5882    0.0000 O   0  0  0  0  0  0  0  0  0  0  0  0
    1.5086    0.6187    0.0000 C   0  0  3  0  0  0  0  0  0  0  0  0
    1.5086   -0.2062    0.0000 C   0  0  3  0  0  0  0  0  0  0  0  0
    0.0797   -0.2062    0.0000 C   0  0  3  0  0  0  0  0  0  0  0  0
   -0.6348   -0.6187    0.0000 C   0  0  3  0  0  0  0  0  0  0  0  0
    0.7942   -0.6187    0.0000 C   0  0  3  0  0  0  0  0  0  0  0  0
   -0.6348   -1.4437    0.0000 C   0  0  0  0  0  0  0  0  0  0  0  0
    2.2933    0.8737    0.0000 C   0  0  0  0  0  0  0  0  0  0  0  0
    0.7942    1.0313    0.0000 C   0  0  0  0  0  0  0  0  0  0  0  0
    0.0797    0.6187    0.0000 C   0  0  0  0  0  0  0  0  0  0  0  0
    2.2933   -0.4612    0.0000 C   0  0  0  0  0  0  0  0  0  0  0  0
    0.7942   -1.4437    0.0000 C   0  0  0  0  0  0  0  0  0  0  0  0
   -1.3492   -0.2062    0.0000 C   0  0  0  0  0  0  0  0  0  0  0  0
    1.5086    1.4437    0.0000 C   0  0  0  0  0  0  0  0  0  0  0  0
    2.7782    0.2062    0.0000 C   0  0  0  0  0  0  0  0  0  0  0  0
    0.0797   -1.8563    0.0000 C   0  0  0  0  0  0  0  0  0  0  0  0
   -1.3492   -1.8563    0.0000 C   0  0  0  0  0  0  0  0  0  0  0  0
   -0.6348    0.2062    0.0000 C   0  0  0  0  0  0  0  0  0  0  0  0
   -2.0637   -1.4437    0.0000 C   0  0  0  0  0  0  0  0  0  0  0  0
   -2.0637   -0.6187    0.0000 C   0  0  0  0  0  0  0  0  0  0  0  0
    0.7942    1.8563    0.0000 C   0  0  0  0  0  0  0  0  0  0  0  0
   -2.7782   -1.8563    0.0000 C   0  0  0  0  0  0  0  0  0  0  0  0
  1  8  2  0  0  0  0
  2  3  1  0  0  0  0
  2  8  1  0  0  0  0
  2  9  1  0  0  0  0
  2 14  1  1  0  0  0
  3  6  1  0  0  0  0
  3 11  1  0  0  0  0
  4  5  1  0  0  0  0
  4  6  1  0  0  0  0
  4 10  1  0  0  0  0
  5  7  1  0  0  0  0
  5 13  1  0  0  0  0
  5 18  1  1  0  0  0
  6 12  1  6  0  0  0
  7 16  2  0  0  0  0
  7 17  1  0  0  0  0
  8 15  1  0  0  0  0
  9 10  1  0  0  0  0
 11 15  1  0  0  0  0
 12 16  1  0  0  0  0
 13 20  1  0  0  0  0
 14 21  1  0  0  0  0
 17 19  2  0  0  0  0
 19 20  1  0  0  0  0
 19 22  1  0  0  0  0
M  END
> <PUBCHEM_COMPOUND_ID_TYPE>
0

> <PUBCHEM_TOTAL_CHARGE>
0

> <PUBCHEM_SUBSTANCE_ID>
310947403

> <PUBCHEM_SUBSTANCE_VERSION>
1

> <PUBCHEM_EXT_DATASOURCE_NAME>
4488

> <PUBCHEM_EXT_DATASOURCE_REGID>
SCHEMBL16125559

> <PUBCHEM_SUBSTANCE_COMMENT>
InChI=1S/C21H30O/c1-4-21-12-10-17-16(18(21)7-8-19(21)22)6-5-15-13-14(2)9-11-20(15,17)3/h5,13,16-18H,4,6-12H2,1-3H3/t16-,17?,18?,20+,21+/m1/s1
InChIKey=YVOARRJHBYQJRV-VWHSNLPJSA-N

> <PUBCHEM_SUBSTANCE_SYNONYM>
SCHEMBL16125559

> <PUBCHEM_XREF_EXT_ID>
SCHEMBL16125559

> <PUBCHEM_EXT_DATASOURCE_URL>
https://www.surechembl.org/

> <PUBCHEM_EXT_SUBSTANCE_URL>
https://www.surechembl.org/chemical/SCHEMBL16125559

> <PUBCHEM_CID_ASSOCIATIONS>
117613144  1

> <PUBCHEM_COORDINATE_TYPE>
1
3

> <PUBCHEM_BONDANNOTATIONS>
2  14  5
5  18  5
6  12  6

$$$$
