310931565
  -OEChem-07211613022D

 34 38  0     0  0  0  0  0  0999 V2000
    4.0344   -2.7280    0.0000 O   0  0  0  0  0  0  0  0  0  0  0  0
    8.5683   -2.8433    0.0000 O   0  0  0  0  0  0  0  0  0  0  0  0
    4.9565   -1.5753    0.0000 N   0  0  0  0  0  0  0  0  0  0  0  0
    4.8797   -0.7684    0.0000 N   0  0  0  0  0  0  0  0  0  0  0  0
    6.4166   -1.5753    0.0000 N   0  0  0  0  0  0  0  0  0  0  0  0
    7.8383   -4.0728    0.0000 N   0  0  0  0  0  0  0  0  0  0  0  0
    9.9900   -5.3024    0.0000 N   0  0  0  0  0  0  0  0  0  0  0  0
    0.0000   -2.4590    0.0000 N   0  0  0  0  0  0  0  0  0  0  0  0
    3.6502   -1.3448    0.0000 C   0  0  0  0  0  0  0  0  0  0  0  0
    4.2265   -1.9211    0.0000 C   0  0  0  0  0  0  0  0  0  0  0  0
    2.8049   -1.4216    0.0000 C   0  0  0  0  0  0  0  0  0  0  0  0
    5.6866   -1.9980    0.0000 C   0  0  0  0  0  0  0  0  0  0  0  0
    4.0344   -0.6147    0.0000 C   0  0  0  0  0  0  0  0  0  0  0  0
    2.3054   -0.7684    0.0000 C   0  0  0  0  0  0  0  0  0  0  0  0
    7.1082   -2.8433    0.0000 C   0  0  0  0  0  0  0  0  0  0  0  0
    5.6866   -2.8433    0.0000 C   0  0  0  0  0  0  0  0  0  0  0  0
    7.8383   -3.2275    0.0000 C   0  0  0  0  0  0  0  0  0  0  0  0
    2.4975   -2.1901    0.0000 C   0  0  0  0  0  0  0  0  0  0  0  0
    8.5683   -4.4955    0.0000 C   0  0  0  0  0  0  0  0  0  0  0  0
    7.1082   -1.9980    0.0000 C   0  0  0  0  0  0  0  0  0  0  0  0
    6.4166   -3.2275    0.0000 C   0  0  0  0  0  0  0  0  0  0  0  0
   10.7200   -5.7250    0.0000 C   0  0  0  0  0  0  0  0  0  0  0  0
    1.4985   -0.8453    0.0000 C   0  0  0  0  0  0  0  0  0  0  0  0
    1.1527   -1.6137    0.0000 C   0  0  0  0  0  0  0  0  0  0  0  0
    1.6522   -2.2669    0.0000 C   0  0  0  0  0  0  0  0  0  0  0  0
    8.5683   -5.3408    0.0000 C   0  0  0  0  0  0  0  0  0  0  0  0
    9.2599   -4.0728    0.0000 C   0  0  0  0  0  0  0  0  0  0  0  0
    9.2599   -5.7634    0.0000 C   0  0  0  0  0  0  0  0  0  0  0  0
    9.9900   -4.4955    0.0000 C   0  0  0  0  0  0  0  0  0  0  0  0
   11.5269   -5.7250    0.0000 C   0  0  0  0  0  0  0  0  0  0  0  0
   11.1427   -6.4550    0.0000 C   0  0  0  0  0  0  0  0  0  0  0  0
    2.6512    0.0000    0.0000 C   0  0  0  0  0  0  0  0  0  0  0  0
    7.1082   -4.4955    0.0000 C   0  0  0  0  0  0  0  0  0  0  0  0
    0.3458   -1.6906    0.0000 C   0  0  0  0  0  0  0  0  0  0  0  0
  1 10  1  0  0  0  0
  2 17  2  0  0  0  0
  3  4  1  0  0  0  0
  3 10  1  0  0  0  0
  3 12  1  0  0  0  0
  4 13  2  0  0  0  0
  5 12  2  0  0  0  0
  5 20  1  0  0  0  0
  6 17  1  0  0  0  0
  6 19  1  0  0  0  0
  6 33  1  0  0  0  0
  7 22  1  0  0  0  0
  7 28  1  0  0  0  0
  7 29  1  0  0  0  0
  8 34  3  0  0  0  0
  9 10  2  0  0  0  0
  9 11  1  0  0  0  0
  9 13  1  0  0  0  0
 11 14  1  0  0  0  0
 11 18  2  0  0  0  0
 12 16  1  0  0  0  0
 14 23  2  0  0  0  0
 14 32  1  0  0  0  0
 15 17  1  0  0  0  0
 15 20  2  0  0  0  0
 15 21  1  0  0  0  0
 16 21  2  0  0  0  0
 18 25  1  0  0  0  0
 19 26  1  0  0  0  0
 19 27  1  0  0  0  0
 22 30  1  0  0  0  0
 22 31  1  0  0  0  0
 23 24  1  0  0  0  0
 24 25  2  0  0  0  0
 24 34  1  0  0  0  0
 26 28  1  0  0  0  0
 27 29  1  0  0  0  0
 30 31  1  0  0  0  0
M  END
> <PUBCHEM_COMPOUND_ID_TYPE>
0

> <PUBCHEM_TOTAL_CHARGE>
0

> <PUBCHEM_SUBSTANCE_ID>
310931565

> <PUBCHEM_SUBSTANCE_VERSION>
1

> <PUBCHEM_EXT_DATASOURCE_NAME>
4488

> <PUBCHEM_EXT_DATASOURCE_REGID>
SCHEMBL16108891

> <PUBCHEM_SUBSTANCE_COMMENT>
InChI=1S/C26H28N6O2/c1-17-13-18(14-27)3-7-22(17)23-16-29-32(26(23)34)24-8-4-19(15-28-24)25(33)30(2)20-9-11-31(12-10-20)21-5-6-21/h3-4,7-8,13,15-16,20-21,34H,5-6,9-12H2,1-2H3
InChIKey=BYEFSCFQRSNPJK-UHFFFAOYSA-N

> <PUBCHEM_SUBSTANCE_SYNONYM>
SCHEMBL16108891

> <PUBCHEM_XREF_EXT_ID>
SCHEMBL16108891

> <PUBCHEM_EXT_DATASOURCE_URL>
https://www.surechembl.org/

> <PUBCHEM_EXT_SUBSTANCE_URL>
https://www.surechembl.org/chemical/SCHEMBL16108891

> <PUBCHEM_CID_ASSOCIATIONS>
117600309  1

> <PUBCHEM_COORDINATE_TYPE>
1
3

$$$$
