310937143
  -OEChem-07211613022D

 18 18  0     1  0  0  0  0  0999 V2000
    1.4197   -2.0673    0.0000 O   0  0  0  0  0  0  0  0  0  0  0  0
    3.5368   -0.0249    0.0000 O   0  0  0  0  0  0  0  0  0  0  0  0
    4.2093   -1.1956    0.0000 O   0  0  0  0  0  0  0  0  0  0  0  0
    2.8644   -2.0424    0.0000 N   0  0  0  0  0  0  0  0  0  0  0  0
    2.8394   -1.1956    0.0000 C   0  0  3  0  0  0  0  0  0  0  0  0
    2.1420   -0.8219    0.0000 C   0  0  3  0  0  0  0  0  0  0  0  0
    2.1669   -2.4658    0.0000 C   0  0  0  0  0  0  0  0  0  0  0  0
    3.5368   -0.8219    0.0000 C   0  0  0  0  0  0  0  0  0  0  0  0
    1.4446   -3.7112    0.0000 C   0  0  0  0  0  0  0  0  0  0  0  0
    2.1669   -3.2878    0.0000 C   0  0  0  0  0  0  0  0  0  0  0  0
    1.3948   -1.3201    0.0000 C   0  0  0  0  0  0  0  0  0  0  0  0
    1.4197   -4.5581    0.0000 C   0  0  0  0  0  0  0  0  0  0  0  0
    0.7223   -3.3127    0.0000 C   0  0  0  0  0  0  0  0  0  0  0  0
    2.0922    0.0000    0.0000 C   0  0  0  0  0  0  0  0  0  0  0  0
    0.7223   -4.9815    0.0000 C   0  0  0  0  0  0  0  0  0  0  0  0
    0.0000   -3.7361    0.0000 C   0  0  0  0  0  0  0  0  0  0  0  0
    0.0000   -4.5581    0.0000 C   0  0  0  0  0  0  0  0  0  0  0  0
    0.6227   -0.7472    0.0000 C   0  0  0  0  0  0  0  0  0  0  0  0
  1  7  2  0  0  0  0
  2  8  2  0  0  0  0
  3  8  1  0  0  0  0
  5  4  1  1  0  0  0
  4  7  1  0  0  0  0
  5  6  1  0  0  0  0
  5  8  1  0  0  0  0
  6 11  1  0  0  0  0
  6 14  1  1  0  0  0
  7 10  1  0  0  0  0
  9 10  1  0  0  0  0
  9 12  2  0  0  0  0
  9 13  1  0  0  0  0
 11 18  1  0  0  0  0
 12 15  1  0  0  0  0
 13 16  2  0  0  0  0
 15 17  2  0  0  0  0
 16 17  1  0  0  0  0
M  END
> <PUBCHEM_COMPOUND_ID_TYPE>
0

> <PUBCHEM_TOTAL_CHARGE>
0

> <PUBCHEM_SUBSTANCE_ID>
310937143

> <PUBCHEM_SUBSTANCE_VERSION>
1

> <PUBCHEM_EXT_DATASOURCE_NAME>
4488

> <PUBCHEM_EXT_DATASOURCE_REGID>
SCHEMBL16114864

> <PUBCHEM_SUBSTANCE_COMMENT>
InChI=1S/C14H19NO3/c1-3-10(2)13(14(17)18)15-12(16)9-11-7-5-4-6-8-11/h4-8,10,13H,3,9H2,1-2H3,(H,15,16)(H,17,18)/t10-,13+/m1/s1
InChIKey=ZULOUGGNZOVTOV-MFKMUULPSA-N

> <PUBCHEM_SUBSTANCE_SYNONYM>
SCHEMBL16114864

> <PUBCHEM_XREF_EXT_ID>
SCHEMBL16114864

> <PUBCHEM_EXT_DATASOURCE_URL>
https://www.surechembl.org/

> <PUBCHEM_EXT_SUBSTANCE_URL>
https://www.surechembl.org/chemical/SCHEMBL16114864

> <PUBCHEM_CID_ASSOCIATIONS>
14626411  1

> <PUBCHEM_COORDINATE_TYPE>
1
3

> <PUBCHEM_BONDANNOTATIONS>
5  4  5
6  14  5

$$$$
