310948247
  -OEChem-07211613022D

 34 39  0     1  0  0  0  0  0999 V2000
   -1.3685   -2.6084    0.0000 S   0  0  0  0  0  0  0  0  0  0  0  0
   -1.9380   -3.1963    0.0000 O   0  0  0  0  0  0  0  0  0  0  0  0
   -2.1584   -2.4064    0.0000 O   0  0  0  0  0  0  0  0  0  0  0  0
   -2.5809    2.1125    0.0000 O   0  0  0  0  0  0  0  0  0  0  0  0
   -0.5419   -2.7003    0.0000 N   0  0  3  0  0  0  0  0  0  0  0  0
    0.1745    1.9839    0.0000 N   0  0  0  0  0  0  0  0  0  0  0  0
   -0.1561    1.2124    0.0000 N   0  0  0  0  0  0  0  0  0  0  0  0
   -1.5338    0.6980    0.0000 N   0  0  0  0  0  0  0  0  0  0  0  0
   -1.8645    3.3615    0.0000 N   0  0  0  0  0  0  0  0  0  0  0  0
    1.0195   -0.0368    0.0000 N   0  0  0  0  0  0  0  0  0  0  0  0
   -1.5338   -1.7818    0.0000 C   0  0  0  0  0  0  0  0  0  0  0  0
   -0.8358   -1.3593    0.0000 C   0  0  0  0  0  0  0  0  0  0  0  0
   -1.1297    2.1309    0.0000 C   0  0  0  0  0  0  0  0  0  0  0  0
   -0.4500    2.5350    0.0000 C   0  0  0  0  0  0  0  0  0  0  0  0
   -0.9828    1.3226    0.0000 C   0  0  0  0  0  0  0  0  0  0  0  0
   -0.2112   -1.9288    0.0000 C   0  0  0  0  0  0  0  0  0  0  0  0
   -1.5338   -0.1286    0.0000 C   0  0  0  0  0  0  0  0  0  0  0  0
   -0.8174   -0.5694    0.0000 C   0  0  0  0  0  0  0  0  0  0  0  0
    0.9644    2.1492    0.0000 C   0  0  3  0  0  0  0  0  0  0  0  0
   -1.8645    2.5350    0.0000 C   0  0  0  0  0  0  0  0  0  0  0  0
   -2.2319   -1.3777    0.0000 C   0  0  0  0  0  0  0  0  0  0  0  0
   -0.1378   -3.3799    0.0000 C   0  0  0  0  0  0  0  0  0  0  0  0
   -2.2319   -0.5511    0.0000 C   0  0  0  0  0  0  0  0  0  0  0  0
   -0.4317    3.3615    0.0000 C   0  0  0  0  0  0  0  0  0  0  0  0
    1.5154    1.5614    0.0000 C   0  0  3  0  0  0  0  0  0  0  0  0
    0.7256   -3.3983    0.0000 C   0  0  0  0  0  0  0  0  0  0  0  0
   -1.1481    3.7841    0.0000 C   0  0  0  0  0  0  0  0  0  0  0  0
    1.2399    2.9391    0.0000 C   0  0  0  0  0  0  0  0  0  0  0  0
    1.4052   -3.0126    0.0000 C   0  0  0  0  0  0  0  0  0  0  0  0
    1.4052   -3.7841    0.0000 C   0  0  0  0  0  0  0  0  0  0  0  0
    2.3237    1.7267    0.0000 C   0  0  0  0  0  0  0  0  0  0  0  0
    1.2583    0.7715    0.0000 C   0  0  0  0  0  0  0  0  0  0  0  0
    2.0298    3.1044    0.0000 C   0  0  0  0  0  0  0  0  0  0  0  0
    2.5809    2.5166    0.0000 C   0  0  0  0  0  0  0  0  0  0  0  0
  1  2  2  0  0  0  0
  1  3  2  0  0  0  0
  1  5  1  0  0  0  0
  1 11  1  0  0  0  0
  4 20  2  0  0  0  0
  5 16  1  0  0  0  0
  5 22  1  0  0  0  0
  6  7  1  0  0  0  0
  6 14  1  0  0  0  0
 19  6  1  1  0  0  0
  7 15  2  0  0  0  0
  8 15  1  0  0  0  0
  8 17  1  0  0  0  0
  9 20  1  0  0  0  0
  9 27  1  0  0  0  0
 10 32  3  0  0  0  0
 11 12  1  0  0  0  0
 11 21  2  0  0  0  0
 12 16  1  0  0  0  0
 12 18  2  0  0  0  0
 13 14  2  0  0  0  0
 13 15  1  0  0  0  0
 13 20  1  0  0  0  0
 14 24  1  0  0  0  0
 17 18  1  0  0  0  0
 17 23  2  0  0  0  0
 19 25  1  0  0  0  0
 19 28  1  0  0  0  0
 21 23  1  0  0  0  0
 22 26  1  0  0  0  0
 24 27  2  0  0  0  0
 25 31  1  0  0  0  0
 25 32  1  6  0  0  0
 26 29  1  0  0  0  0
 26 30  1  0  0  0  0
 28 33  1  0  0  0  0
 29 30  1  0  0  0  0
 31 34  1  0  0  0  0
 33 34  1  0  0  0  0
M  END
> <PUBCHEM_COMPOUND_ID_TYPE>
0

> <PUBCHEM_TOTAL_CHARGE>
0

> <PUBCHEM_SUBSTANCE_ID>
310948247

> <PUBCHEM_SUBSTANCE_VERSION>
1

> <PUBCHEM_EXT_DATASOURCE_NAME>
4488

> <PUBCHEM_EXT_DATASOURCE_REGID>
SCHEMBL16126424

> <PUBCHEM_SUBSTANCE_COMMENT>
InChI=1S/C24H26N6O3S/c25-12-16-3-1-2-4-19(16)30-20-9-10-26-24(31)22(20)23(28-30)27-18-7-8-21-17(11-18)14-29(34(21,32)33)13-15-5-6-15/h7-11,15-16,19H,1-6,13-14H2,(H,26,31)(H,27,28)/t16-,19+/m1/s1
InChIKey=VCAQQFWBABEEPQ-APWZRJJASA-N

> <PUBCHEM_SUBSTANCE_SYNONYM>
SCHEMBL16126424

> <PUBCHEM_XREF_EXT_ID>
SCHEMBL16126424

> <PUBCHEM_EXT_DATASOURCE_URL>
https://www.surechembl.org/

> <PUBCHEM_EXT_SUBSTANCE_URL>
https://www.surechembl.org/chemical/SCHEMBL16126424

> <PUBCHEM_CID_ASSOCIATIONS>
117613827  1

> <PUBCHEM_COORDINATE_TYPE>
1
3

> <PUBCHEM_BONDANNOTATIONS>
25  32  6
19  6  5

$$$$
