310935677
  -OEChem-07211613022D

 26 29  0     1  0  0  0  0  0999 V2000
    6.9527    1.2314    0.0000 O   0  0  0  0  0  0  0  0  0  0  0  0
    4.7098   -1.5795    0.0000 O   0  0  0  0  0  0  0  0  0  0  0  0
    0.9694    1.1971    0.0000 N   0  0  0  0  0  0  0  0  0  0  0  0
    3.1113   -1.7698    0.0000 N   0  0  0  0  0  0  0  0  0  0  0  0
    2.3464    0.5840    0.0000 C   0  0  3  0  0  0  0  0  0  0  0  0
    2.6014   -0.2006    0.0000 C   0  0  3  0  0  0  0  0  0  0  0  0
    1.5214    0.5840    0.0000 C   0  0  0  0  0  0  0  0  0  0  0  0
    3.4084   -0.3721    0.0000 C   0  0  3  0  0  0  0  0  0  0  0  0
    3.9604    0.2410    0.0000 C   0  0  3  0  0  0  0  0  0  0  0  0
    4.7674    0.0694    0.0000 C   0  0  3  0  0  0  0  0  0  0  0  0
    1.2665   -0.2006    0.0000 C   0  0  0  0  0  0  0  0  0  0  0  0
    1.9339   -0.6855    0.0000 C   0  0  0  0  0  0  0  0  0  0  0  0
    2.8985    1.1971    0.0000 C   0  0  0  0  0  0  0  0  0  0  0  0
    3.7054    1.0256    0.0000 C   0  0  0  0  0  0  0  0  0  0  0  0
    5.4670   -0.3677    0.0000 C   0  0  3  0  0  0  0  0  0  0  0  0
    2.0109    1.3377    0.0000 C   0  0  0  0  0  0  0  0  0  0  0  0
    4.7962    0.8939    0.0000 C   0  0  0  0  0  0  0  0  0  0  0  0
    3.6633   -1.1567    0.0000 C   0  0  0  0  0  0  0  0  0  0  0  0
    0.4595   -0.3721    0.0000 C   0  0  0  0  0  0  0  0  0  0  0  0
    4.4583   -0.6955    0.0000 C   0  0  0  0  0  0  0  0  0  0  0  0
    6.1954    0.0196    0.0000 C   0  0  0  0  0  0  0  0  0  0  0  0
    5.5246    1.2813    0.0000 C   0  0  0  0  0  0  0  0  0  0  0  0
    0.1624    1.0256    0.0000 C   0  0  0  0  0  0  0  0  0  0  0  0
    6.2242    0.8441    0.0000 C   0  0  3  0  0  0  0  0  0  0  0  0
   -0.0925    0.2410    0.0000 C   0  0  0  0  0  0  0  0  0  0  0  0
    5.4382   -1.1922    0.0000 C   0  0  0  0  0  0  0  0  0  0  0  0
 24  1  1  6  0  0  0
  2 26  1  0  0  0  0
  3  7  2  0  0  0  0
  3 23  1  0  0  0  0
  4 18  1  0  0  0  0
  5  6  1  0  0  0  0
  5  7  1  0  0  0  0
  5 13  1  0  0  0  0
  5 16  1  6  0  0  0
  6  8  1  0  0  0  0
  6 12  1  6  0  0  0
  7 11  1  0  0  0  0
  8  9  1  0  0  0  0
  8 18  1  1  0  0  0
  9 10  1  0  0  0  0
  9 14  1  6  0  0  0
 10 15  1  0  0  0  0
 10 17  1  0  0  0  0
 10 20  1  6  0  0  0
 11 12  1  0  0  0  0
 11 19  2  0  0  0  0
 13 14  1  0  0  0  0
 15 21  1  0  0  0  0
 15 26  1  6  0  0  0
 17 22  1  0  0  0  0
 19 25  1  0  0  0  0
 21 24  1  0  0  0  0
 22 24  1  0  0  0  0
 23 25  2  0  0  0  0
M  END
> <PUBCHEM_COMPOUND_ID_TYPE>
0

> <PUBCHEM_TOTAL_CHARGE>
0

> <PUBCHEM_SUBSTANCE_ID>
310935677

> <PUBCHEM_SUBSTANCE_VERSION>
1

> <PUBCHEM_EXT_DATASOURCE_NAME>
4488

> <PUBCHEM_EXT_DATASOURCE_REGID>
SCHEMBL16113259

> <PUBCHEM_SUBSTANCE_COMMENT>
InChI=1S/C22H34N2O2/c1-21(7-5-16(26)11-15(21)13-25)18-6-8-22(2)19(17(18)12-23)10-14-4-3-9-24-20(14)22/h3-4,9,15-19,25-26H,5-8,10-13,23H2,1-2H3/t15-,16+,17-,18+,19+,21+,22+/m1/s1
InChIKey=DLIFRCJYYQVNNY-WRKHRYLDSA-N

> <PUBCHEM_SUBSTANCE_SYNONYM>
SCHEMBL16113259

> <PUBCHEM_XREF_EXT_ID>
SCHEMBL16113259

> <PUBCHEM_EXT_DATASOURCE_URL>
https://www.surechembl.org/

> <PUBCHEM_EXT_SUBSTANCE_URL>
https://www.surechembl.org/chemical/SCHEMBL16113259

> <PUBCHEM_CID_ASSOCIATIONS>
117603687  1

> <PUBCHEM_COORDINATE_TYPE>
1
3

> <PUBCHEM_BONDANNOTATIONS>
24  1  6
10  20  6
15  26  6
5  16  6
6  12  6
8  18  5
9  14  6

$$$$
