310937079
  -OEChem-07211613022D

 27 29  0     1  0  0  0  0  0999 V2000
    4.9498    0.0000    0.0000 O   0  0  0  0  0  0  0  0  0  0  0  0
    6.1748   -0.7249    0.0000 O   0  0  0  0  0  0  0  0  0  0  0  0
    4.9498   -2.8499    0.0000 N   0  0  0  0  0  0  0  0  0  0  0  0
    4.9498   -1.4250    0.0000 N   0  0  0  0  0  0  0  0  0  0  0  0
    5.3498   -2.1499    0.0000 N   0  3  0  0  0  0  0  0  0  0  0  0
    5.7748   -1.4250    0.0000 N   0  5  0  0  0  0  0  0  0  0  0  0
    3.6999   -2.1499    0.0000 C   0  0  3  0  0  0  0  0  0  0  0  0
    2.8749   -2.1499    0.0000 C   0  0  0  0  0  0  0  0  0  0  0  0
    4.1249   -2.8499    0.0000 C   0  0  3  0  0  0  0  0  0  0  0  0
    1.6499   -1.4500    0.0000 C   0  0  0  0  0  0  0  0  0  0  0  0
    2.4499   -1.4250    0.0000 C   0  0  0  0  0  0  0  0  0  0  0  0
    3.6999   -3.5749    0.0000 C   0  0  0  0  0  0  0  0  0  0  0  0
    1.2500   -2.1499    0.0000 C   0  0  0  0  0  0  0  0  0  0  0  0
    2.4749   -2.8499    0.0000 C   0  0  0  0  0  0  0  0  0  0  0  0
    4.1249   -1.4250    0.0000 C   0  0  0  0  0  0  0  0  0  0  0  0
    1.6499   -2.8499    0.0000 C   0  0  0  0  0  0  0  0  0  0  0  0
    1.2500   -0.7249    0.0000 C   0  0  0  0  0  0  0  0  0  0  0  0
    0.4250   -2.1499    0.0000 C   0  0  0  0  0  0  0  0  0  0  0  0
    4.1249   -4.2999    0.0000 C   0  0  0  0  0  0  0  0  0  0  0  0
    2.8749   -3.5749    0.0000 C   0  0  0  0  0  0  0  0  0  0  0  0
    5.3498   -0.7249    0.0000 C   0  0  0  0  0  0  0  0  0  0  0  0
    0.4000   -0.7249    0.0000 C   0  0  0  0  0  0  0  0  0  0  0  0
    0.0000   -1.4250    0.0000 C   0  0  0  0  0  0  0  0  0  0  0  0
    3.6999   -4.9998    0.0000 C   0  0  0  0  0  0  0  0  0  0  0  0
    2.4749   -4.2749    0.0000 C   0  0  0  0  0  0  0  0  0  0  0  0
    2.8749   -4.9998    0.0000 C   0  0  0  0  0  0  0  0  0  0  0  0
    5.5248   -2.3000    0.0000 C   0  0  0  0  0  0  0  0  0  0  0  0
  1 21  2  0  0  0  0
  2 21  1  0  0  0  0
  3  5  2  0  0  0  0
  9  3  1  6  0  0  0
  4 15  1  0  0  0  0
  4 21  1  0  0  0  0
  4 27  1  0  0  0  0
  5  6  2  0  0  0  0
  7  8  1  0  0  0  0
  7  9  1  0  0  0  0
  7 15  1  1  0  0  0
  8 11  2  0  0  0  0
  8 14  1  0  0  0  0
  9 12  1  0  0  0  0
 10 11  1  0  0  0  0
 10 13  2  0  0  0  0
 10 17  1  0  0  0  0
 12 19  2  0  0  0  0
 12 20  1  0  0  0  0
 13 16  1  0  0  0  0
 13 18  1  0  0  0  0
 14 16  2  0  0  0  0
 17 22  2  0  0  0  0
 18 23  2  0  0  0  0
 19 24  1  0  0  0  0
 20 25  2  0  0  0  0
 22 23  1  0  0  0  0
 24 26  2  0  0  0  0
 25 26  1  0  0  0  0
M  CHG  2   5   1   6  -1
M  END
> <PUBCHEM_COMPOUND_ID_TYPE>
0

> <PUBCHEM_TOTAL_CHARGE>
0

> <PUBCHEM_SUBSTANCE_ID>
310937079

> <PUBCHEM_SUBSTANCE_VERSION>
1

> <PUBCHEM_EXT_DATASOURCE_NAME>
4488

> <PUBCHEM_EXT_DATASOURCE_REGID>
SCHEMBL16114792

> <PUBCHEM_SUBSTANCE_COMMENT>
InChI=1S/C21H20N4O2/c1-25(21(26)27)14-19(20(23-24-22)16-8-3-2-4-9-16)18-12-11-15-7-5-6-10-17(15)13-18/h2-13,19-20H,14H2,1H3,(H,26,27)/t19-,20-/m1/s1
InChIKey=ROHCPWKIXAGPGK-WOJBJXKFSA-N

> <PUBCHEM_SUBSTANCE_SYNONYM>
SCHEMBL16114792

> <PUBCHEM_XREF_EXT_ID>
SCHEMBL16114792

> <PUBCHEM_EXT_DATASOURCE_URL>
https://www.surechembl.org/

> <PUBCHEM_EXT_SUBSTANCE_URL>
https://www.surechembl.org/chemical/SCHEMBL16114792

> <PUBCHEM_CID_ASSOCIATIONS>
117604916  1

> <PUBCHEM_COORDINATE_TYPE>
1
3

> <PUBCHEM_BONDANNOTATIONS>
9  3  6
7  15  5

$$$$
