310933319
  -OEChem-07211613022D

 30 34  0     0  0  0  0  0  0999 V2000
    0.0000   -5.6537    0.0000 O   0  0  0  0  0  0  0  0  0  0  0  0
    4.0719   -0.4038    0.0000 O   0  0  0  0  0  0  0  0  0  0  0  0
    5.5190   -4.5095    0.0000 O   0  0  0  0  0  0  0  0  0  0  0  0
    4.2066   -3.8700    0.0000 N   0  0  0  0  0  0  0  0  0  0  0  0
    4.2066   -5.1825    0.0000 N   0  0  0  0  0  0  0  0  0  0  0  0
    2.6586   -1.2451    0.0000 N   0  0  0  0  0  0  0  0  0  0  0  0
    0.4038   -6.3604    0.0000 N   0  0  0  0  0  0  0  0  0  0  0  0
    2.6922   -3.7018    0.0000 C   0  0  0  0  0  0  0  0  0  0  0  0
    2.6922   -2.8941    0.0000 C   0  0  0  0  0  0  0  0  0  0  0  0
    3.4326   -4.1056    0.0000 C   0  0  0  0  0  0  0  0  0  0  0  0
    3.4326   -4.9469    0.0000 C   0  0  0  0  0  0  0  0  0  0  0  0
    3.3989   -2.4567    0.0000 C   0  0  0  0  0  0  0  0  0  0  0  0
    2.0191   -4.9469    0.0000 C   0  0  0  0  0  0  0  0  0  0  0  0
    2.0191   -4.1056    0.0000 C   0  0  0  0  0  0  0  0  0  0  0  0
    1.3125   -5.3507    0.0000 C   0  0  0  0  0  0  0  0  0  0  0  0
    3.3989   -1.6490    0.0000 C   0  0  0  0  0  0  0  0  0  0  0  0
    1.9519   -2.4903    0.0000 C   0  0  0  0  0  0  0  0  0  0  0  0
    2.6922   -5.3507    0.0000 C   0  0  0  0  0  0  0  0  0  0  0  0
    4.7114   -4.5095    0.0000 C   0  0  0  0  0  0  0  0  0  0  0  0
    4.0719   -1.2115    0.0000 C   0  0  0  0  0  0  0  0  0  0  0  0
    0.5384   -5.0479    0.0000 C   0  0  0  0  0  0  0  0  0  0  0  0
    1.2115   -6.1921    0.0000 C   0  0  0  0  0  0  0  0  0  0  0  0
    4.1056   -2.8605    0.0000 C   0  0  0  0  0  0  0  0  0  0  0  0
    1.9519   -1.6490    0.0000 C   0  0  0  0  0  0  0  0  0  0  0  0
    4.8123   -1.6153    0.0000 C   0  0  0  0  0  0  0  0  0  0  0  0
    4.8123   -2.4567    0.0000 C   0  0  0  0  0  0  0  0  0  0  0  0
    1.2451   -2.8941    0.0000 C   0  0  0  0  0  0  0  0  0  0  0  0
    0.3702   -4.2402    0.0000 C   0  0  0  0  0  0  0  0  0  0  0  0
    1.8172   -6.7305    0.0000 C   0  0  0  0  0  0  0  0  0  0  0  0
    3.3653    0.0000    0.0000 C   0  0  0  0  0  0  0  0  0  0  0  0
  1  7  1  0  0  0  0
  1 21  1  0  0  0  0
  2 20  1  0  0  0  0
  2 30  1  0  0  0  0
  3 19  2  0  0  0  0
  4 10  1  0  0  0  0
  4 19  1  0  0  0  0
  5 11  1  0  0  0  0
  5 19  1  0  0  0  0
  6 16  2  0  0  0  0
  6 24  1  0  0  0  0
  7 22  2  0  0  0  0
  8  9  1  0  0  0  0
  8 10  1  0  0  0  0
  8 14  2  0  0  0  0
  9 12  2  0  0  0  0
  9 17  1  0  0  0  0
 10 11  2  0  0  0  0
 11 18  1  0  0  0  0
 12 16  1  0  0  0  0
 12 23  1  0  0  0  0
 13 14  1  0  0  0  0
 13 15  1  0  0  0  0
 13 18  2  0  0  0  0
 15 21  2  0  0  0  0
 15 22  1  0  0  0  0
 16 20  1  0  0  0  0
 17 24  2  0  0  0  0
 17 27  1  0  0  0  0
 20 25  2  0  0  0  0
 21 28  1  0  0  0  0
 22 29  1  0  0  0  0
 23 26  2  0  0  0  0
 25 26  1  0  0  0  0
M  END
> <PUBCHEM_COMPOUND_ID_TYPE>
0

> <PUBCHEM_TOTAL_CHARGE>
0

> <PUBCHEM_SUBSTANCE_ID>
310933319

> <PUBCHEM_SUBSTANCE_VERSION>
1

> <PUBCHEM_EXT_DATASOURCE_NAME>
4488

> <PUBCHEM_EXT_DATASOURCE_REGID>
SCHEMBL16110730

> <PUBCHEM_SUBSTANCE_COMMENT>
InChI=1S/C23H20N4O3/c1-11-10-24-22-15(6-5-7-18(22)29-4)19(11)16-8-14(20-12(2)27-30-13(20)3)9-17-21(16)26-23(28)25-17/h5-10H,1-4H3,(H2,25,26,28)
InChIKey=HUHPFAYKAXEYPN-UHFFFAOYSA-N

> <PUBCHEM_SUBSTANCE_SYNONYM>
SCHEMBL16110730

> <PUBCHEM_XREF_EXT_ID>
SCHEMBL16110730

> <PUBCHEM_EXT_DATASOURCE_URL>
https://www.surechembl.org/

> <PUBCHEM_EXT_SUBSTANCE_URL>
https://www.surechembl.org/chemical/SCHEMBL16110730

> <PUBCHEM_CID_ASSOCIATIONS>
117601733  1

> <PUBCHEM_COORDINATE_TYPE>
1
3

$$$$
