310948372
  -OEChem-07211613022D

 35 39  0     1  0  0  0  0  0999 V2000
   -0.6272   -2.2876    0.0000 S   0  0  0  0  0  0  0  0  0  0  0  0
   -2.6196    2.3245    0.0000 O   0  0  0  0  0  0  0  0  0  0  0  0
   -0.4059   -3.0808    0.0000 O   0  0  0  0  0  0  0  0  0  0  0  0
   -1.4205   -2.5089    0.0000 O   0  0  0  0  0  0  0  0  0  0  0  0
    0.1660    2.1400    0.0000 N   0  0  0  0  0  0  0  0  0  0  0  0
   -0.1845    1.3836    0.0000 N   0  0  0  0  0  0  0  0  0  0  0  0
   -1.5865    0.8855    0.0000 N   0  0  0  0  0  0  0  0  0  0  0  0
   -1.8633    3.5604    0.0000 N   0  0  0  0  0  0  0  0  0  0  0  0
    0.1660   -2.0477    0.0000 N   0  0  0  0  0  0  0  0  0  0  0  0
    1.0515    0.0922    0.0000 N   0  0  0  0  0  0  0  0  0  0  0  0
   -1.1438    2.3060    0.0000 C   0  0  0  0  0  0  0  0  0  0  0  0
   -0.4427    2.7118    0.0000 C   0  0  0  0  0  0  0  0  0  0  0  0
   -1.0147    1.5312    0.0000 C   0  0  0  0  0  0  0  0  0  0  0  0
    0.9777    2.2876    0.0000 C   0  0  3  0  0  0  0  0  0  0  0  0
   -1.8817    2.7487    0.0000 C   0  0  0  0  0  0  0  0  0  0  0  0
   -0.4243    3.5420    0.0000 C   0  0  0  0  0  0  0  0  0  0  0  0
    1.5312    1.6972    0.0000 C   0  0  3  0  0  0  0  0  0  0  0  0
   -1.3467    0.1107    0.0000 C   0  0  0  0  0  0  0  0  0  0  0  0
   -1.1438    3.9663    0.0000 C   0  0  0  0  0  0  0  0  0  0  0  0
    1.2729    3.0623    0.0000 C   0  0  0  0  0  0  0  0  0  0  0  0
   -0.8671   -1.4943    0.0000 C   0  0  0  0  0  0  0  0  0  0  0  0
   -1.8817   -0.4796    0.0000 C   0  0  0  0  0  0  0  0  0  0  0  0
   -0.5166   -0.1107    0.0000 C   0  0  0  0  0  0  0  0  0  0  0  0
    2.3429    1.8448    0.0000 C   0  0  0  0  0  0  0  0  0  0  0  0
   -1.6603   -1.2729    0.0000 C   0  0  0  0  0  0  0  0  0  0  0  0
   -0.2951   -0.8855    0.0000 C   0  0  0  0  0  0  0  0  0  0  0  0
    1.2729    0.8671    0.0000 C   0  0  0  0  0  0  0  0  0  0  0  0
    2.1031    3.2099    0.0000 C   0  0  0  0  0  0  0  0  0  0  0  0
    2.6196    2.6196    0.0000 C   0  0  0  0  0  0  0  0  0  0  0  0
    0.7748   -2.6196    0.0000 C   0  0  0  0  0  0  0  0  0  0  0  0
    0.5903   -3.3944    0.0000 C   0  0  0  0  0  0  0  0  0  0  0  0
    1.5680   -2.3797    0.0000 C   0  0  0  0  0  0  0  0  0  0  0  0
    1.1992   -3.9663    0.0000 C   0  0  0  0  0  0  0  0  0  0  0  0
    2.1584   -2.9332    0.0000 C   0  0  0  0  0  0  0  0  0  0  0  0
    1.9739   -3.7449    0.0000 C   0  0  0  0  0  0  0  0  0  0  0  0
  1  3  2  0  0  0  0
  1  4  2  0  0  0  0
  1  9  1  0  0  0  0
  1 21  1  0  0  0  0
  2 15  2  0  0  0  0
  5  6  1  0  0  0  0
  5 12  1  0  0  0  0
 14  5  1  1  0  0  0
  6 13  2  0  0  0  0
  7 13  1  0  0  0  0
  7 18  1  0  0  0  0
  8 15  1  0  0  0  0
  8 19  1  0  0  0  0
  9 30  1  0  0  0  0
 10 27  3  0  0  0  0
 11 12  2  0  0  0  0
 11 13  1  0  0  0  0
 11 15  1  0  0  0  0
 12 16  1  0  0  0  0
 14 17  1  0  0  0  0
 14 20  1  0  0  0  0
 16 19  2  0  0  0  0
 17 24  1  0  0  0  0
 17 27  1  6  0  0  0
 18 22  2  0  0  0  0
 18 23  1  0  0  0  0
 20 28  1  0  0  0  0
 21 25  2  0  0  0  0
 21 26  1  0  0  0  0
 22 25  1  0  0  0  0
 23 26  2  0  0  0  0
 24 29  1  0  0  0  0
 28 29  1  0  0  0  0
 30 31  1  0  0  0  0
 30 32  1  0  0  0  0
 31 33  1  0  0  0  0
 32 34  1  0  0  0  0
 33 35  1  0  0  0  0
 34 35  1  0  0  0  0
M  END
> <PUBCHEM_COMPOUND_ID_TYPE>
0

> <PUBCHEM_TOTAL_CHARGE>
0

> <PUBCHEM_SUBSTANCE_ID>
310948372

> <PUBCHEM_SUBSTANCE_VERSION>
1

> <PUBCHEM_EXT_DATASOURCE_NAME>
4488

> <PUBCHEM_EXT_DATASOURCE_REGID>
SCHEMBL16126553

> <PUBCHEM_SUBSTANCE_COMMENT>
InChI=1S/C25H30N6O3S/c26-16-17-6-4-5-9-21(17)31-22-14-15-27-25(32)23(22)24(29-31)28-18-10-12-20(13-11-18)35(33,34)30-19-7-2-1-3-8-19/h10-15,17,19,21,30H,1-9H2,(H,27,32)(H,28,29)/t17-,21+/m1/s1
InChIKey=SGMUYZXTGALHOH-UTKZUKDTSA-N

> <PUBCHEM_SUBSTANCE_SYNONYM>
SCHEMBL16126553

> <PUBCHEM_XREF_EXT_ID>
SCHEMBL16126553

> <PUBCHEM_EXT_DATASOURCE_URL>
https://www.surechembl.org/

> <PUBCHEM_EXT_SUBSTANCE_URL>
https://www.surechembl.org/chemical/SCHEMBL16126553

> <PUBCHEM_CID_ASSOCIATIONS>
117613935  1

> <PUBCHEM_COORDINATE_TYPE>
1
3

> <PUBCHEM_BONDANNOTATIONS>
17  27  6
14  5  5

$$$$
