310941991
  -OEChem-07211613022D

 24 27  0     0  0  0  0  0  0999 V2000
    2.3364    0.5137    0.0000 O   0  0  0  0  0  0  0  0  0  0  0  0
   -1.1212   -0.8269    0.0000 N   0  0  0  0  0  0  0  0  0  0  0  0
   -0.6828    0.4510    0.0000 C   0  0  0  0  0  0  0  0  0  0  0  0
   -0.4448   -0.3132    0.0000 C   0  0  0  0  0  0  0  0  0  0  0  0
   -1.5221    0.4761    0.0000 C   0  0  0  0  0  0  0  0  0  0  0  0
   -1.8103   -0.3132    0.0000 C   0  0  0  0  0  0  0  0  0  0  0  0
   -0.1316    1.0523    0.0000 C   0  0  0  0  0  0  0  0  0  0  0  0
    0.6953    0.8769    0.0000 C   0  0  0  0  0  0  0  0  0  0  0  0
    0.3821   -0.5137    0.0000 C   0  0  0  0  0  0  0  0  0  0  0  0
    1.2590    1.5158    0.0000 C   0  0  0  0  0  0  0  0  0  0  0  0
   -2.0733    1.0899    0.0000 C   0  0  0  0  0  0  0  0  0  0  0  0
    0.9333    0.0877    0.0000 C   0  0  0  0  0  0  0  0  0  0  0  0
   -2.6120   -0.4635    0.0000 C   0  0  0  0  0  0  0  0  0  0  0  0
   -1.1463   -1.6536    0.0000 C   0  0  0  0  0  0  0  0  0  0  0  0
    2.0733    1.3154    0.0000 C   0  0  0  0  0  0  0  0  0  0  0  0
   -2.8877    0.9271    0.0000 C   0  0  0  0  0  0  0  0  0  0  0  0
   -3.1507    0.1378    0.0000 C   0  0  0  0  0  0  0  0  0  0  0  0
    1.0085    2.2926    0.0000 C   0  0  0  0  0  0  0  0  0  0  0  0
   -1.8603   -2.0546    0.0000 C   0  0  0  0  0  0  0  0  0  0  0  0
    2.6245    1.9292    0.0000 C   0  0  0  0  0  0  0  0  0  0  0  0
    1.5722    2.8939    0.0000 C   0  0  0  0  0  0  0  0  0  0  0  0
    2.3865    2.7185    0.0000 C   0  0  0  0  0  0  0  0  0  0  0  0
   -1.8854   -2.8939    0.0000 C   0  0  0  0  0  0  0  0  0  0  0  0
    3.1507    0.3383    0.0000 C   0  0  0  0  0  0  0  0  0  0  0  0
  1 15  1  0  0  0  0
  1 24  1  0  0  0  0
  2  4  1  0  0  0  0
  2  6  1  0  0  0  0
  2 14  1  0  0  0  0
  3  4  2  0  0  0  0
  3  5  1  0  0  0  0
  3  7  1  0  0  0  0
  4  9  1  0  0  0  0
  5  6  2  0  0  0  0
  5 11  1  0  0  0  0
  6 13  1  0  0  0  0
  7  8  2  0  0  0  0
  8 10  1  0  0  0  0
  8 12  1  0  0  0  0
  9 12  2  0  0  0  0
 10 15  2  0  0  0  0
 10 18  1  0  0  0  0
 11 16  2  0  0  0  0
 13 17  2  0  0  0  0
 14 19  1  0  0  0  0
 15 20  1  0  0  0  0
 16 17  1  0  0  0  0
 18 21  2  0  0  0  0
 19 23  1  0  0  0  0
 20 22  2  0  0  0  0
 21 22  1  0  0  0  0
M  END
> <PUBCHEM_COMPOUND_ID_TYPE>
0

> <PUBCHEM_TOTAL_CHARGE>
0

> <PUBCHEM_SUBSTANCE_ID>
310941991

> <PUBCHEM_SUBSTANCE_VERSION>
1

> <PUBCHEM_EXT_DATASOURCE_NAME>
4488

> <PUBCHEM_EXT_DATASOURCE_REGID>
SCHEMBL16120025

> <PUBCHEM_SUBSTANCE_COMMENT>
InChI=1S/C22H21NO/c1-3-14-23-20-10-6-4-9-18(20)19-15-16(12-13-21(19)23)17-8-5-7-11-22(17)24-2/h4-13,15H,3,14H2,1-2H3
InChIKey=QBGXTHCDLSGXAP-UHFFFAOYSA-N

> <PUBCHEM_SUBSTANCE_SYNONYM>
SCHEMBL16120025

> <PUBCHEM_XREF_EXT_ID>
SCHEMBL16120025

> <PUBCHEM_EXT_DATASOURCE_URL>
https://www.surechembl.org/

> <PUBCHEM_EXT_SUBSTANCE_URL>
https://www.surechembl.org/chemical/SCHEMBL16120025

> <PUBCHEM_CID_ASSOCIATIONS>
117608689  1

> <PUBCHEM_COORDINATE_TYPE>
1
3

$$$$
