310931454
  -OEChem-07211613022D

 13 13  0     0  0  0  0  0  0999 V2000
    3.1275   -2.7317    0.0000 O   0  0  0  0  0  0  0  0  0  0  0  0
    2.4149   -3.9589    0.0000 O   0  0  0  0  0  0  0  0  0  0  0  0
    1.7023   -1.9201    0.0000 N   0  0  0  0  0  0  0  0  0  0  0  0
    2.3753   -1.4252    0.0000 N   0  0  0  0  0  0  0  0  0  0  0  0
    0.0000   -0.0990    0.0000 N   0  0  0  0  0  0  0  0  0  0  0  0
    1.2867   -0.6532    0.0000 C   0  0  0  0  0  0  0  0  0  0  0  0
    1.0491   -1.4450    0.0000 C   0  0  0  0  0  0  0  0  0  0  0  0
    1.7023   -2.7317    0.0000 C   0  0  0  0  0  0  0  0  0  0  0  0
    2.0982   -0.6532    0.0000 C   0  0  0  0  0  0  0  0  0  0  0  0
    2.4149   -3.1474    0.0000 C   0  0  0  0  0  0  0  0  0  0  0  0
    0.8116    0.0000    0.0000 C   0  0  0  0  0  0  0  0  0  0  0  0
    3.8402   -3.1474    0.0000 C   0  0  0  0  0  0  0  0  0  0  0  0
    4.5528   -2.7317    0.0000 C   0  0  0  0  0  0  0  0  0  0  0  0
  1 10  1  0  0  0  0
  1 12  1  0  0  0  0
  2 10  2  0  0  0  0
  3  4  1  0  0  0  0
  3  7  1  0  0  0  0
  3  8  1  0  0  0  0
  4  9  2  0  0  0  0
  5 11  3  0  0  0  0
  6  7  2  0  0  0  0
  6  9  1  0  0  0  0
  6 11  1  0  0  0  0
  8 10  1  0  0  0  0
 12 13  1  0  0  0  0
M  END
> <PUBCHEM_COMPOUND_ID_TYPE>
0

> <PUBCHEM_TOTAL_CHARGE>
0

> <PUBCHEM_SUBSTANCE_ID>
310931454

> <PUBCHEM_SUBSTANCE_VERSION>
1

> <PUBCHEM_EXT_DATASOURCE_NAME>
4488

> <PUBCHEM_EXT_DATASOURCE_REGID>
SCHEMBL16108779

> <PUBCHEM_SUBSTANCE_COMMENT>
InChI=1S/C8H9N3O2/c1-2-13-8(12)6-11-5-7(3-9)4-10-11/h4-5H,2,6H2,1H3
InChIKey=MAKPHKPETBYACB-UHFFFAOYSA-N

> <PUBCHEM_SUBSTANCE_SYNONYM>
SCHEMBL16108779

> <PUBCHEM_XREF_EXT_ID>
SCHEMBL16108779

> <PUBCHEM_EXT_DATASOURCE_URL>
https://www.surechembl.org/

> <PUBCHEM_EXT_SUBSTANCE_URL>
https://www.surechembl.org/chemical/SCHEMBL16108779

> <PUBCHEM_CID_ASSOCIATIONS>
117600226  1

> <PUBCHEM_COORDINATE_TYPE>
1
3

$$$$
