310947276
  -OEChem-07211613022D

 39 44  0     1  0  0  0  0  0999 V2000
   -1.4608    2.1322    0.0000 O   0  0  0  0  0  0  0  0  0  0  0  0
    1.4672   -0.1853    0.0000 N   0  0  0  0  0  0  0  0  0  0  0  0
    1.9522    0.4822    0.0000 N   0  0  0  0  0  0  0  0  0  0  0  0
   -2.1753    0.8947    0.0000 N   0  0  0  0  0  0  0  0  0  0  0  0
    0.6826    0.0697    0.0000 C   0  0  0  0  0  0  0  0  0  0  0  0
    0.6826    0.8947    0.0000 C   0  0  0  0  0  0  0  0  0  0  0  0
    1.4672    1.1496    0.0000 C   0  0  0  0  0  0  0  0  0  0  0  0
   -0.7463    0.8947    0.0000 C   0  0  0  0  0  0  0  0  0  0  0  0
   -0.0319    1.3072    0.0000 C   0  0  0  0  0  0  0  0  0  0  0  0
   -0.0319   -0.3428    0.0000 C   0  0  0  0  0  0  0  0  0  0  0  0
   -2.8897    1.3072    0.0000 C   0  0  3  0  0  0  0  0  0  0  0  0
   -1.4608    1.3072    0.0000 C   0  0  0  0  0  0  0  0  0  0  0  0
   -0.7463    0.0697    0.0000 C   0  0  0  0  0  0  0  0  0  0  0  0
   -2.8897    2.1322    0.0000 C   0  0  0  0  0  0  0  0  0  0  0  0
    1.6808   -0.9821    0.0000 C   0  0  0  0  0  0  0  0  0  0  0  0
   -3.6042    0.8947    0.0000 C   0  0  0  0  0  0  0  0  0  0  0  0
    2.4777   -1.1957    0.0000 C   0  0  0  0  0  0  0  0  0  0  0  0
   -2.4772    2.8467    0.0000 C   0  0  0  0  0  0  0  0  0  0  0  0
   -3.3022    2.8467    0.0000 C   0  0  0  0  0  0  0  0  0  0  0  0
    1.8797    1.8641    0.0000 C   0  0  0  0  0  0  0  0  0  0  0  0
   -4.3187    1.3072    0.0000 C   0  0  0  0  0  0  0  0  0  0  0  0
   -3.6042    0.0697    0.0000 C   0  0  0  0  0  0  0  0  0  0  0  0
   -5.0332    0.8947    0.0000 C   0  0  0  0  0  0  0  0  0  0  0  0
    2.6912   -1.9926    0.0000 C   0  0  0  0  0  0  0  0  0  0  0  0
    3.0610   -0.6123    0.0000 C   0  0  0  0  0  0  0  0  0  0  0  0
    4.0714   -1.6227    0.0000 C   0  0  0  0  0  0  0  0  0  0  0  0
    3.4881   -2.2061    0.0000 C   0  0  0  0  0  0  0  0  0  0  0  0
    3.8579   -0.8258    0.0000 C   0  0  0  0  0  0  0  0  0  0  0  0
   -4.3187   -0.3428    0.0000 C   0  0  0  0  0  0  0  0  0  0  0  0
   -5.0332    0.0697    0.0000 C   0  0  0  0  0  0  0  0  0  0  0  0
    4.8683   -1.8362    0.0000 C   0  0  0  0  0  0  0  0  0  0  0  0
   -5.7476    1.3072    0.0000 C   0  0  0  0  0  0  0  0  0  0  0  0
    5.0818   -2.6331    0.0000 C   0  0  0  0  0  0  0  0  0  0  0  0
    5.4517   -1.2529    0.0000 C   0  0  0  0  0  0  0  0  0  0  0  0
   -6.4621    0.8947    0.0000 C   0  0  0  0  0  0  0  0  0  0  0  0
   -5.7476    2.1322    0.0000 C   0  0  0  0  0  0  0  0  0  0  0  0
    5.8787   -2.8467    0.0000 C   0  0  0  0  0  0  0  0  0  0  0  0
    6.2486   -1.4664    0.0000 C   0  0  0  0  0  0  0  0  0  0  0  0
    6.4621   -2.2633    0.0000 C   0  0  0  0  0  0  0  0  0  0  0  0
  1 12  2  0  0  0  0
  2  3  1  0  0  0  0
  2  5  1  0  0  0  0
  2 15  1  0  0  0  0
  3  7  2  0  0  0  0
 11  4  1  6  0  0  0
  4 12  1  0  0  0  0
  5  6  1  0  0  0  0
  5 10  2  0  0  0  0
  6  7  1  0  0  0  0
  6  9  2  0  0  0  0
  7 20  1  0  0  0  0
  8  9  1  0  0  0  0
  8 12  1  0  0  0  0
  8 13  2  0  0  0  0
 10 13  1  0  0  0  0
 11 14  1  0  0  0  0
 11 16  1  0  0  0  0
 14 18  1  0  0  0  0
 14 19  1  0  0  0  0
 15 17  1  0  0  0  0
 16 21  2  0  0  0  0
 16 22  1  0  0  0  0
 17 24  2  0  0  0  0
 17 25  1  0  0  0  0
 18 19  1  0  0  0  0
 21 23  1  0  0  0  0
 22 29  2  0  0  0  0
 23 30  2  0  0  0  0
 23 32  1  0  0  0  0
 24 27  1  0  0  0  0
 25 28  2  0  0  0  0
 26 27  2  0  0  0  0
 26 28  1  0  0  0  0
 26 31  1  0  0  0  0
 29 30  1  0  0  0  0
 31 33  2  0  0  0  0
 31 34  1  0  0  0  0
 32 35  1  0  0  0  0
 32 36  1  0  0  0  0
 33 37  1  0  0  0  0
 34 38  2  0  0  0  0
 37 39  2  0  0  0  0
 38 39  1  0  0  0  0
M  END
> <PUBCHEM_COMPOUND_ID_TYPE>
0

> <PUBCHEM_TOTAL_CHARGE>
0

> <PUBCHEM_SUBSTANCE_ID>
310947276

> <PUBCHEM_SUBSTANCE_VERSION>
1

> <PUBCHEM_EXT_DATASOURCE_NAME>
4488

> <PUBCHEM_EXT_DATASOURCE_REGID>
SCHEMBL16125431

> <PUBCHEM_SUBSTANCE_COMMENT>
InChI=1S/C35H35N3O/c1-23(2)29-10-7-11-30(20-29)34(28-16-17-28)36-35(39)31-18-19-33-32(21-31)24(3)37-38(33)22-25-12-14-27(15-13-25)26-8-5-4-6-9-26/h4-15,18-21,23,28,34H,16-17,22H2,1-3H3,(H,36,39)/t34-/m0/s1
InChIKey=RHQBWKFVZRPSQV-UMSFTDKQSA-N

> <PUBCHEM_SUBSTANCE_SYNONYM>
SCHEMBL16125431

> <PUBCHEM_XREF_EXT_ID>
SCHEMBL16125431

> <PUBCHEM_EXT_DATASOURCE_URL>
https://www.surechembl.org/

> <PUBCHEM_EXT_SUBSTANCE_URL>
https://www.surechembl.org/chemical/SCHEMBL16125431

> <PUBCHEM_CID_ASSOCIATIONS>
117613077  1

> <PUBCHEM_COORDINATE_TYPE>
1
3

> <PUBCHEM_BONDANNOTATIONS>
11  4  6

$$$$
