310949455
  -OEChem-07211613022D

 13 14  0     1  0  0  0  0  0999 V2000
   -1.4261   -1.4851    0.0000 O   0  0  0  0  0  0  0  0  0  0  0  0
   -0.7072   -0.2357    0.0000 N   0  0  0  0  0  0  0  0  0  0  0  0
   -0.6954    1.4261    0.0000 N   0  0  3  0  0  0  0  0  0  0  0  0
   -1.4144    0.2122    0.0000 C   0  0  3  0  0  0  0  0  0  0  0  0
   -0.0118    1.0254    0.0000 C   0  0  3  0  0  0  0  0  0  0  0  0
   -0.6483    0.4125    0.0000 C   0  0  0  0  0  0  0  0  0  0  0  0
    0.0000    0.2003    0.0000 C   0  0  0  0  0  0  0  0  0  0  0  0
   -1.4144    1.0372    0.0000 C   0  0  0  0  0  0  0  0  0  0  0  0
   -0.6954   -1.0372    0.0000 C   0  0  0  0  0  0  0  0  0  0  0  0
   -0.0236   -1.4851    0.0000 C   0  0  0  0  0  0  0  0  0  0  0  0
   -0.7072    2.2983    0.0000 C   0  0  0  0  0  0  0  0  0  0  0  0
    0.7190   -1.9094    0.0000 C   0  0  0  0  0  0  0  0  0  0  0  0
    1.4261   -2.2983    0.0000 C   0  0  0  0  0  0  0  0  0  0  0  0
  1  9  2  0  0  0  0
  2  4  1  0  0  0  0
  2  7  1  0  0  0  0
  2  9  1  0  0  0  0
  3  5  1  0  0  0  0
  3  8  1  0  0  0  0
  3 11  1  0  0  0  0
  4  6  1  1  0  0  0
  4  8  1  0  0  0  0
  5  6  1  1  0  0  0
  5  7  1  0  0  0  0
  9 10  1  0  0  0  0
 10 12  3  0  0  0  0
 12 13  1  0  0  0  0
M  END
> <PUBCHEM_COMPOUND_ID_TYPE>
0

> <PUBCHEM_TOTAL_CHARGE>
0

> <PUBCHEM_SUBSTANCE_ID>
310949455

> <PUBCHEM_SUBSTANCE_VERSION>
1

> <PUBCHEM_EXT_DATASOURCE_NAME>
4488

> <PUBCHEM_EXT_DATASOURCE_REGID>
SCHEMBL16127649

> <PUBCHEM_SUBSTANCE_COMMENT>
InChI=1S/C10H14N2O/c1-3-4-10(13)12-7-8-5-9(12)6-11(8)2/h8-9H,5-7H2,1-2H3/t8-,9-/m0/s1
InChIKey=AXARSJTYQFFWNK-IUCAKERBSA-N

> <PUBCHEM_SUBSTANCE_SYNONYM>
SCHEMBL16127649

> <PUBCHEM_XREF_EXT_ID>
SCHEMBL16127649

> <PUBCHEM_EXT_DATASOURCE_URL>
https://www.surechembl.org/

> <PUBCHEM_EXT_SUBSTANCE_URL>
https://www.surechembl.org/chemical/SCHEMBL16127649

> <PUBCHEM_CID_ASSOCIATIONS>
117614901  1

> <PUBCHEM_COORDINATE_TYPE>
1
3

> <PUBCHEM_BONDANNOTATIONS>
4  6  5
5  6  5

$$$$
