310947178
  -OEChem-07211613022D

 25 26  0     0  0  0  0  0  0999 V2000
    0.6770   -3.5721    0.0000 S   0  0  0  0  0  0  0  0  0  0  0  0
   -2.1809   -1.9221    0.0000 O   0  0  0  0  0  0  0  0  0  0  0  0
    3.5349   -1.0971    0.0000 O   0  0  0  0  0  0  0  0  0  0  0  0
   -2.8953   -3.1596    0.0000 O   0  0  0  0  0  0  0  0  0  0  0  0
    4.9639   -3.5721    0.0000 O   0  0  0  0  0  0  0  0  0  0  0  0
    4.2494   -3.1596    0.0000 N   0  0  0  0  0  0  0  0  0  0  0  0
    2.8204   -2.3346    0.0000 C   0  0  0  0  0  0  0  0  0  0  0  0
    1.3915   -3.1596    0.0000 C   0  0  0  0  0  0  0  0  0  0  0  0
   -0.0374   -3.1596    0.0000 C   0  0  0  0  0  0  0  0  0  0  0  0
    3.5349   -1.9221    0.0000 C   0  0  0  0  0  0  0  0  0  0  0  0
   -1.4664   -2.3346    0.0000 C   0  0  0  0  0  0  0  0  0  0  0  0
    2.1060   -1.9221    0.0000 C   0  0  0  0  0  0  0  0  0  0  0  0
    2.8204   -3.1596    0.0000 C   0  0  0  0  0  0  0  0  0  0  0  0
    1.3915   -2.3346    0.0000 C   0  0  0  0  0  0  0  0  0  0  0  0
    2.1060   -3.5721    0.0000 C   0  0  0  0  0  0  0  0  0  0  0  0
   -0.0374   -2.3346    0.0000 C   0  0  0  0  0  0  0  0  0  0  0  0
   -0.7519   -3.5721    0.0000 C   0  0  0  0  0  0  0  0  0  0  0  0
    4.2494   -2.3346    0.0000 C   0  0  0  0  0  0  0  0  0  0  0  0
   -0.7519   -1.9221    0.0000 C   0  0  0  0  0  0  0  0  0  0  0  0
   -1.4664   -3.1596    0.0000 C   0  0  0  0  0  0  0  0  0  0  0  0
   -2.8953   -2.3346    0.0000 C   0  0  0  0  0  0  0  0  0  0  0  0
   -3.6098   -1.9221    0.0000 C   0  0  0  0  0  0  0  0  0  0  0  0
    4.9639   -1.9221    0.0000 C   0  0  0  0  0  0  0  0  0  0  0  0
   -4.3243   -2.3346    0.0000 C   0  0  0  0  0  0  0  0  0  0  0  0
   -3.6098   -1.0971    0.0000 C   0  0  0  0  0  0  0  0  0  0  0  0
  1  8  1  0  0  0  0
  1  9  1  0  0  0  0
  2 11  1  0  0  0  0
  2 21  1  0  0  0  0
  3 10  2  0  0  0  0
  4 21  2  0  0  0  0
  5  6  1  0  0  0  0
  6 18  2  0  0  0  0
  7 10  1  0  0  0  0
  7 12  2  0  0  0  0
  7 13  1  0  0  0  0
  8 14  2  0  0  0  0
  8 15  1  0  0  0  0
  9 16  2  0  0  0  0
  9 17  1  0  0  0  0
 10 18  1  0  0  0  0
 11 19  2  0  0  0  0
 11 20  1  0  0  0  0
 12 14  1  0  0  0  0
 13 15  2  0  0  0  0
 16 19  1  0  0  0  0
 17 20  2  0  0  0  0
 18 23  1  0  0  0  0
 21 22  1  0  0  0  0
 22 24  2  0  0  0  0
 22 25  1  0  0  0  0
M  END
> <PUBCHEM_COMPOUND_ID_TYPE>
0

> <PUBCHEM_TOTAL_CHARGE>
0

> <PUBCHEM_SUBSTANCE_ID>
310947178

> <PUBCHEM_SUBSTANCE_VERSION>
1

> <PUBCHEM_EXT_DATASOURCE_NAME>
4488

> <PUBCHEM_EXT_DATASOURCE_REGID>
SCHEMBL16125332

> <PUBCHEM_SUBSTANCE_COMMENT>
InChI=1S/C19H17NO4S/c1-12(2)19(22)24-15-6-10-17(11-7-15)25-16-8-4-14(5-9-16)18(21)13(3)20-23/h4-11,23H,1H2,2-3H3/b20-13+
InChIKey=BOXJBRYOXGFEFB-DEDYPNTBSA-N

> <PUBCHEM_SUBSTANCE_SYNONYM>
SCHEMBL16125332

> <PUBCHEM_XREF_EXT_ID>
SCHEMBL16125332

> <PUBCHEM_EXT_DATASOURCE_URL>
https://www.surechembl.org/

> <PUBCHEM_EXT_SUBSTANCE_URL>
https://www.surechembl.org/chemical/SCHEMBL16125332

> <PUBCHEM_CID_ASSOCIATIONS>
117613003  1

> <PUBCHEM_COORDINATE_TYPE>
1
3

$$$$
