310932952
  -OEChem-07211613022D

 27 30  0     1  0  0  0  0  0999 V2000
    6.2333    4.6404    0.0000 F   0  0  0  0  0  0  0  0  0  0  0  0
    3.3523    3.5854    0.0000 O   0  0  0  0  0  0  0  0  0  0  0  0
    0.6538    1.5229    0.0000 N   0  0  0  0  0  0  0  0  0  0  0  0
    1.1387    2.1904    0.0000 N   0  0  0  0  0  0  0  0  0  0  0  0
    3.3523    1.1104    0.0000 N   0  0  0  0  0  0  0  0  0  0  0  0
    4.0668    2.3479    0.0000 N   0  0  0  0  0  0  0  0  0  0  0  0
    4.7812    3.5854    0.0000 N   0  0  0  0  0  0  0  0  0  0  0  0
    4.3687    5.6800    0.0000 N   0  0  3  0  0  0  0  0  0  0  0  0
    0.3739   -1.4984    0.0000 N   0  0  0  0  0  0  0  0  0  0  0  0
    1.9233    1.1104    0.0000 C   0  0  0  0  0  0  0  0  0  0  0  0
    1.1387    0.8555    0.0000 C   0  0  0  0  0  0  0  0  0  0  0  0
    1.9233    1.9354    0.0000 C   0  0  0  0  0  0  0  0  0  0  0  0
    0.8838    0.0709    0.0000 C   0  0  0  0  0  0  0  0  0  0  0  0
    3.3523    1.9354    0.0000 C   0  0  0  0  0  0  0  0  0  0  0  0
    2.6378    2.3479    0.0000 C   0  0  0  0  0  0  0  0  0  0  0  0
    2.6378    0.6979    0.0000 C   0  0  0  0  0  0  0  0  0  0  0  0
    4.7812    4.4104    0.0000 C   0  0  3  0  0  0  0  0  0  0  0  0
    1.4358   -0.5422    0.0000 C   0  0  0  0  0  0  0  0  0  0  0  0
    5.4487    4.8954    0.0000 C   0  0  3  0  0  0  0  0  0  0  0  0
    4.0668    3.1729    0.0000 C   0  0  0  0  0  0  0  0  0  0  0  0
    0.0768   -0.1006    0.0000 C   0  0  0  0  0  0  0  0  0  0  0  0
    4.1138    4.8954    0.0000 C   0  0  0  0  0  0  0  0  0  0  0  0
    1.1809   -1.3268    0.0000 C   0  0  0  0  0  0  0  0  0  0  0  0
    5.1937    5.6800    0.0000 C   0  0  0  0  0  0  0  0  0  0  0  0
   -0.1781   -0.8853    0.0000 C   0  0  0  0  0  0  0  0  0  0  0  0
    3.8838    6.3474    0.0000 C   0  0  0  0  0  0  0  0  0  0  0  0
    1.7329   -1.9399    0.0000 C   0  0  0  0  0  0  0  0  0  0  0  0
 19  1  1  1  0  0  0
  2 20  2  0  0  0  0
  3  4  1  0  0  0  0
  3 11  2  0  0  0  0
  4 12  1  0  0  0  0
  5 14  2  0  0  0  0
  5 16  1  0  0  0  0
  6 14  1  0  0  0  0
  6 20  1  0  0  0  0
 17  7  1  1  0  0  0
  7 20  1  0  0  0  0
  8 22  1  0  0  0  0
  8 24  1  0  0  0  0
  8 26  1  0  0  0  0
  9 23  2  0  0  0  0
  9 25  1  0  0  0  0
 10 11  1  0  0  0  0
 10 12  1  0  0  0  0
 10 16  2  0  0  0  0
 11 13  1  0  0  0  0
 12 15  2  0  0  0  0
 13 18  2  0  0  0  0
 13 21  1  0  0  0  0
 14 15  1  0  0  0  0
 17 19  1  0  0  0  0
 17 22  1  0  0  0  0
 18 23  1  0  0  0  0
 19 24  1  0  0  0  0
 21 25  2  0  0  0  0
 23 27  1  0  0  0  0
M  END
> <PUBCHEM_COMPOUND_ID_TYPE>
0

> <PUBCHEM_TOTAL_CHARGE>
0

> <PUBCHEM_SUBSTANCE_ID>
310932952

> <PUBCHEM_SUBSTANCE_VERSION>
1

> <PUBCHEM_EXT_DATASOURCE_NAME>
4488

> <PUBCHEM_EXT_DATASOURCE_REGID>
SCHEMBL16110348

> <PUBCHEM_SUBSTANCE_COMMENT>
InChI=1S/C18H20FN7O/c1-10-5-11(3-4-20-10)17-12-7-21-16(6-14(12)24-25-17)23-18(27)22-15-9-26(2)8-13(15)19/h3-7,13,15H,8-9H2,1-2H3,(H,24,25)(H2,21,22,23,27)/t13-,15+/m1/s1
InChIKey=IAMXJUXWTFPCBR-HIFRSBDPSA-N

> <PUBCHEM_SUBSTANCE_SYNONYM>
SCHEMBL16110348

> <PUBCHEM_XREF_EXT_ID>
SCHEMBL16110348

> <PUBCHEM_EXT_DATASOURCE_URL>
https://www.surechembl.org/

> <PUBCHEM_EXT_SUBSTANCE_URL>
https://www.surechembl.org/chemical/SCHEMBL16110348

> <PUBCHEM_CID_ASSOCIATIONS>
117601429  1

> <PUBCHEM_COORDINATE_TYPE>
1
3

> <PUBCHEM_BONDANNOTATIONS>
19  1  5
17  7  5

$$$$
