310935521
  -OEChem-07211613022D

 33 36  0     1  0  0  0  0  0999 V2000
    1.3845   -1.6709    0.0000 S   0  0  0  0  0  0  0  0  0  0  0  0
    1.1726   -0.8134    0.0000 O   0  0  0  0  0  0  0  0  0  0  0  0
    7.1453    0.8077    0.0000 O   0  0  0  0  0  0  0  0  0  0  0  0
    4.7419   -0.9450    0.0000 O   0  0  0  0  0  0  0  0  0  0  0  0
    2.6930   -1.4071    0.0000 N   0  0  0  0  0  0  0  0  0  0  0  0
    2.5645    2.4750    0.0000 N   0  0  0  0  0  0  0  0  0  0  0  0
    2.5645    0.8250    0.0000 C   0  0  3  0  0  0  0  0  0  0  0  0
    3.2789    1.2375    0.0000 C   0  0  3  0  0  0  0  0  0  0  0  0
    2.5645    0.0000    0.0000 C   0  0  3  0  0  0  0  0  0  0  0  0
    3.9934    0.8250    0.0000 C   0  0  3  0  0  0  0  0  0  0  0  0
    1.7798   -0.2549    0.0000 C   0  0  3  0  0  0  0  0  0  0  0  0
    4.7079    1.2375    0.0000 C   0  0  3  0  0  0  0  0  0  0  0  0
    1.7798    1.0799    0.0000 C   0  0  0  0  0  0  0  0  0  0  0  0
    3.2789   -0.4125    0.0000 C   0  0  0  0  0  0  0  0  0  0  0  0
    3.9934    0.0000    0.0000 C   0  0  0  0  0  0  0  0  0  0  0  0
    4.9900    0.4623    0.0000 C   0  0  3  0  0  0  0  0  0  0  0  0
    1.2949    0.4125    0.0000 C   0  0  0  0  0  0  0  0  0  0  0  0
    1.9429   -1.0637    0.0000 C   0  0  0  0  0  0  0  0  0  0  0  0
    3.2789    2.0625    0.0000 C   0  0  0  0  0  0  0  0  0  0  0  0
    2.4782   -0.8205    0.0000 C   0  0  0  0  0  0  0  0  0  0  0  0
    5.2382    1.8695    0.0000 C   0  0  0  0  0  0  0  0  0  0  0  0
    5.8025    0.3190    0.0000 C   0  0  0  0  0  0  0  0  0  0  0  0
    4.1776    1.8695    0.0000 C   0  0  0  0  0  0  0  0  0  0  0  0
    6.3328    0.9510    0.0000 C   0  0  3  0  0  0  0  0  0  0  0  0
    4.4597   -0.1697    0.0000 C   0  0  0  0  0  0  0  0  0  0  0  0
    6.0506    1.7262    0.0000 C   0  0  0  0  0  0  0  0  0  0  0  0
    1.7895   -2.3897    0.0000 C   0  0  0  0  0  0  0  0  0  0  0  0
    2.5982   -2.2266    0.0000 C   0  0  0  0  0  0  0  0  0  0  0  0
    2.4782    1.6455    0.0000 H   0  0  0  0  0  0  0  0  0  0  0  0
    3.8092    1.8695    0.0000 H   0  0  0  0  0  0  0  0  0  0  0  0
    4.2756    1.6002    0.0000 H   0  0  0  0  0  0  0  0  0  0  0  0
    4.1776    0.6055    0.0000 H   0  0  0  0  0  0  0  0  0  0  0  0
    6.6150    0.1757    0.0000 H   0  0  0  0  0  0  0  0  0  0  0  0
  1 18  1  0  0  0  0
  1 27  1  0  0  0  0
 11  2  1  1  0  0  0
 24  3  1  6  0  0  0
  4 25  1  0  0  0  0
  5 18  2  0  0  0  0
  5 28  1  0  0  0  0
  6 19  1  0  0  0  0
  7  8  1  0  0  0  0
  7  9  1  0  0  0  0
  7 13  1  0  0  0  0
  7 29  1  6  0  0  0
  8 10  1  0  0  0  0
  8 19  1  0  0  0  0
  8 30  1  1  0  0  0
  9 11  1  0  0  0  0
  9 14  1  0  0  0  0
  9 20  1  1  0  0  0
 10 12  1  0  0  0  0
 10 15  1  0  0  0  0
 10 31  1  6  0  0  0
 11 17  1  0  0  0  0
 11 18  1  0  0  0  0
 12 16  1  0  0  0  0
 12 21  1  0  0  0  0
 12 23  1  6  0  0  0
 13 17  1  0  0  0  0
 14 15  1  0  0  0  0
 16 22  1  0  0  0  0
 16 25  1  0  0  0  0
 16 32  1  1  0  0  0
 21 26  1  0  0  0  0
 22 24  1  0  0  0  0
 24 26  1  0  0  0  0
 24 33  1  1  0  0  0
 27 28  2  0  0  0  0
M  END
> <PUBCHEM_COMPOUND_ID_TYPE>
0

> <PUBCHEM_TOTAL_CHARGE>
0

> <PUBCHEM_SUBSTANCE_ID>
310935521

> <PUBCHEM_SUBSTANCE_VERSION>
1

> <PUBCHEM_EXT_DATASOURCE_NAME>
4488

> <PUBCHEM_EXT_DATASOURCE_REGID>
SCHEMBL16113089

> <PUBCHEM_SUBSTANCE_COMMENT>
InChI=1S/C22H36N2O3S/c1-20(6-3-15(26)11-14(20)13-25)17-4-7-21(2)18(16(17)12-23)5-8-22(21,27)19-24-9-10-28-19/h9-10,14-18,25-27H,3-8,11-13,23H2,1-2H3/t14-,15+,16-,17+,18+,20+,21+,22-/m1/s1
InChIKey=YINCFVSYZHJXLQ-SBWFFBJQSA-N

> <PUBCHEM_SUBSTANCE_SYNONYM>
SCHEMBL16113089

> <PUBCHEM_XREF_EXT_ID>
SCHEMBL16113089

> <PUBCHEM_EXT_DATASOURCE_URL>
https://www.surechembl.org/

> <PUBCHEM_EXT_SUBSTANCE_URL>
https://www.surechembl.org/chemical/SCHEMBL16113089

> <PUBCHEM_CID_ASSOCIATIONS>
117603550  1

> <PUBCHEM_COORDINATE_TYPE>
1
3

> <PUBCHEM_BONDANNOTATIONS>
10  31  6
12  23  6
16  32  5
11  2  5
24  33  5
24  3  6
7  29  6
8  30  5
9  20  5

$$$$
