310942174
  -OEChem-07211613022D

 25 26  0     1  0  0  0  0  0999 V2000
    2.1559    1.4560    0.0000 Cl  0  0  0  0  0  0  0  0  0  0  0  0
    0.7187   -1.0311    0.0000 F   0  0  0  0  0  0  0  0  0  0  0  0
    2.1434   -0.2062    0.0000 O   0  0  0  0  0  0  0  0  0  0  0  0
   -1.4435    0.2187    0.0000 N   0  0  0  0  0  0  0  0  0  0  0  0
   -4.3307   -0.6187    0.0000 N   0  0  0  0  0  0  0  0  0  0  0  0
   -0.0063    0.2187    0.0000 C   0  0  0  0  0  0  0  0  0  0  0  0
    1.4310    0.2187    0.0000 C   0  0  0  0  0  0  0  0  0  0  0  0
    0.7187   -0.1937    0.0000 C   0  0  0  0  0  0  0  0  0  0  0  0
    1.4435    1.0561    0.0000 C   0  0  0  0  0  0  0  0  0  0  0  0
   -0.7187   -0.1937    0.0000 C   0  0  3  0  0  0  0  0  0  0  0  0
    0.0063    1.0436    0.0000 C   0  0  0  0  0  0  0  0  0  0  0  0
    0.7312    1.4560    0.0000 C   0  0  0  0  0  0  0  0  0  0  0  0
    2.8808    0.2187    0.0000 C   0  0  0  0  0  0  0  0  0  0  0  0
   -0.7312   -1.0436    0.0000 C   0  0  0  0  0  0  0  0  0  0  0  0
   -2.1935   -0.1937    0.0000 C   0  0  3  0  0  0  0  0  0  0  0  0
    2.8933    1.0436    0.0000 C   0  0  0  0  0  0  0  0  0  0  0  0
    3.6182   -0.1937    0.0000 C   0  0  0  0  0  0  0  0  0  0  0  0
   -2.8808    0.2187    0.0000 C   0  0  0  0  0  0  0  0  0  0  0  0
    3.6057    1.4560    0.0000 C   0  0  0  0  0  0  0  0  0  0  0  0
    4.3307    0.2187    0.0000 C   0  0  0  0  0  0  0  0  0  0  0  0
   -2.1184   -0.9936    0.0000 C   0  0  0  0  0  0  0  0  0  0  0  0
   -1.4310   -1.4435    0.0000 C   0  0  0  0  0  0  0  0  0  0  0  0
    4.3307    1.0436    0.0000 C   0  0  0  0  0  0  0  0  0  0  0  0
   -3.6057   -0.2062    0.0000 C   0  0  0  0  0  0  0  0  0  0  0  0
   -2.8684   -1.4560    0.0000 C   0  0  0  0  0  0  0  0  0  0  0  0
  1  9  1  0  0  0  0
  2  8  1  0  0  0  0
  3  7  1  0  0  0  0
  3 13  1  0  0  0  0
 10  4  1  1  0  0  0
  4 15  1  0  0  0  0
  5 24  3  0  0  0  0
  6  8  2  0  0  0  0
  6 10  1  0  0  0  0
  6 11  1  0  0  0  0
  7  8  1  0  0  0  0
  7  9  2  0  0  0  0
  9 12  1  0  0  0  0
 10 14  1  0  0  0  0
 11 12  2  0  0  0  0
 13 16  2  0  0  0  0
 13 17  1  0  0  0  0
 14 22  1  0  0  0  0
 15 18  1  0  0  0  0
 15 21  1  0  0  0  0
 16 19  1  0  0  0  0
 17 20  2  0  0  0  0
 18 24  1  0  0  0  0
 19 23  2  0  0  0  0
 20 23  1  0  0  0  0
 21 25  1  0  0  0  0
M  END
> <PUBCHEM_COMPOUND_ID_TYPE>
0

> <PUBCHEM_TOTAL_CHARGE>
0

> <PUBCHEM_SUBSTANCE_ID>
310942174

> <PUBCHEM_SUBSTANCE_VERSION>
1

> <PUBCHEM_EXT_DATASOURCE_NAME>
4488

> <PUBCHEM_EXT_DATASOURCE_REGID>
SCHEMBL16120209

> <PUBCHEM_SUBSTANCE_COMMENT>
InChI=1S/C20H22ClFN2O/c1-3-14(12-13-23)24-18(4-2)16-10-11-17(21)20(19(16)22)25-15-8-6-5-7-9-15/h5-11,14,18,24H,3-4,12H2,1-2H3/t14?,18-/m1/s1
InChIKey=FDXPNKWZKHYFBP-XPKAQORNSA-N

> <PUBCHEM_SUBSTANCE_SYNONYM>
SCHEMBL16120209

> <PUBCHEM_XREF_EXT_ID>
SCHEMBL16120209

> <PUBCHEM_EXT_DATASOURCE_URL>
https://www.surechembl.org/

> <PUBCHEM_EXT_SUBSTANCE_URL>
https://www.surechembl.org/chemical/SCHEMBL16120209

> <PUBCHEM_CID_ASSOCIATIONS>
89544277  1

> <PUBCHEM_COORDINATE_TYPE>
1
3

> <PUBCHEM_BONDANNOTATIONS>
15  21  3
10  4  5

$$$$
