310933144
  -OEChem-07211613022D

 28 32  0     0  0  0  0  0  0999 V2000
    4.2073   -2.8599    0.0000 O   0  0  0  0  0  0  0  0  0  0  0  0
    0.4125   -0.3850    0.0000 O   0  0  0  0  0  0  0  0  0  0  0  0
    5.5272   -2.2274    0.0000 O   0  0  0  0  0  0  0  0  0  0  0  0
    4.2073   -1.5674    0.0000 N   0  0  0  0  0  0  0  0  0  0  0  0
    0.0000   -1.1000    0.0000 N   0  0  0  0  0  0  0  0  0  0  0  0
    4.0973   -5.4998    0.0000 N   0  0  0  0  0  0  0  0  0  0  0  0
    2.6949   -3.0249    0.0000 C   0  0  0  0  0  0  0  0  0  0  0  0
    3.4098   -2.6399    0.0000 C   0  0  0  0  0  0  0  0  0  0  0  0
    2.6949   -3.8499    0.0000 C   0  0  0  0  0  0  0  0  0  0  0  0
    3.4098   -1.7874    0.0000 C   0  0  0  0  0  0  0  0  0  0  0  0
    2.0074   -1.7874    0.0000 C   0  0  0  0  0  0  0  0  0  0  0  0
    2.0074   -2.6399    0.0000 C   0  0  0  0  0  0  0  0  0  0  0  0
    3.3823   -4.2623    0.0000 C   0  0  0  0  0  0  0  0  0  0  0  0
    1.2925   -1.3749    0.0000 C   0  0  0  0  0  0  0  0  0  0  0  0
    2.6949   -1.4024    0.0000 C   0  0  0  0  0  0  0  0  0  0  0  0
    1.9799   -4.2623    0.0000 C   0  0  0  0  0  0  0  0  0  0  0  0
    4.7023   -2.2274    0.0000 C   0  0  0  0  0  0  0  0  0  0  0  0
    3.3823   -5.0873    0.0000 C   0  0  0  0  0  0  0  0  0  0  0  0
    1.2099   -0.5500    0.0000 C   0  0  0  0  0  0  0  0  0  0  0  0
    0.5500   -1.7050    0.0000 C   0  0  0  0  0  0  0  0  0  0  0  0
    1.9799   -5.0873    0.0000 C   0  0  0  0  0  0  0  0  0  0  0  0
    4.0973   -3.8499    0.0000 C   0  0  0  0  0  0  0  0  0  0  0  0
    2.6949   -5.4998    0.0000 C   0  0  0  0  0  0  0  0  0  0  0  0
    1.2649   -3.8499    0.0000 C   0  0  0  0  0  0  0  0  0  0  0  0
    4.8123   -4.2623    0.0000 C   0  0  0  0  0  0  0  0  0  0  0  0
    4.8123   -5.0873    0.0000 C   0  0  0  0  0  0  0  0  0  0  0  0
    1.8149    0.0000    0.0000 C   0  0  0  0  0  0  0  0  0  0  0  0
    0.3850   -2.5024    0.0000 C   0  0  0  0  0  0  0  0  0  0  0  0
  1  8  1  0  0  0  0
  1 17  1  0  0  0  0
  2  5  1  0  0  0  0
  2 19  1  0  0  0  0
  3 17  2  0  0  0  0
  4 10  1  0  0  0  0
  4 17  1  0  0  0  0
  5 20  2  0  0  0  0
  6 18  2  0  0  0  0
  6 26  1  0  0  0  0
  7  8  1  0  0  0  0
  7  9  1  0  0  0  0
  7 12  2  0  0  0  0
  8 10  2  0  0  0  0
  9 13  1  0  0  0  0
  9 16  2  0  0  0  0
 10 15  1  0  0  0  0
 11 12  1  0  0  0  0
 11 14  1  0  0  0  0
 11 15  2  0  0  0  0
 13 18  1  0  0  0  0
 13 22  2  0  0  0  0
 14 19  2  0  0  0  0
 14 20  1  0  0  0  0
 16 21  1  0  0  0  0
 16 24  1  0  0  0  0
 18 23  1  0  0  0  0
 19 27  1  0  0  0  0
 20 28  1  0  0  0  0
 21 23  2  0  0  0  0
 22 25  1  0  0  0  0
 25 26  2  0  0  0  0
M  END
> <PUBCHEM_COMPOUND_ID_TYPE>
0

> <PUBCHEM_TOTAL_CHARGE>
0

> <PUBCHEM_SUBSTANCE_ID>
310933144

> <PUBCHEM_SUBSTANCE_VERSION>
1

> <PUBCHEM_EXT_DATASOURCE_NAME>
4488

> <PUBCHEM_EXT_DATASOURCE_REGID>
SCHEMBL16110552

> <PUBCHEM_SUBSTANCE_COMMENT>
InChI=1S/C22H17N3O3/c1-11-6-7-17-15(5-4-8-23-17)19(11)16-9-14(20-12(2)25-28-13(20)3)10-18-21(16)27-22(26)24-18/h4-10H,1-3H3,(H,24,26)
InChIKey=GMXSJDCLHSOVEP-UHFFFAOYSA-N

> <PUBCHEM_SUBSTANCE_SYNONYM>
SCHEMBL16110552

> <PUBCHEM_XREF_EXT_ID>
SCHEMBL16110552

> <PUBCHEM_EXT_DATASOURCE_URL>
https://www.surechembl.org/

> <PUBCHEM_EXT_SUBSTANCE_URL>
https://www.surechembl.org/chemical/SCHEMBL16110552

> <PUBCHEM_CID_ASSOCIATIONS>
86296578  1

> <PUBCHEM_COORDINATE_TYPE>
1
3

$$$$
