310929455
  -OEChem-07211613022D

 52 56  0     1  0  0  0  0  0999 V2000
    6.9822   -3.8201    0.0000 S   0  0  0  0  0  0  0  0  0  0  0  0
    8.6266   -3.9557    0.0000 F   0  0  0  0  0  0  0  0  0  0  0  0
    7.8722   -3.0657    0.0000 F   0  0  0  0  0  0  0  0  0  0  0  0
    7.7365   -4.7101    0.0000 F   0  0  0  0  0  0  0  0  0  0  0  0
    1.4616   -0.4972    0.0000 O   0  0  0  0  0  0  0  0  0  0  0  0
    5.1028   -1.5144    0.0000 O   0  0  0  0  0  0  0  0  0  0  0  0
    0.2870    0.3166    0.0000 O   0  0  0  0  0  0  0  0  0  0  0  0
    2.2838   -0.5650    0.0000 O   0  0  0  0  0  0  0  0  0  0  0  0
    6.1599   -3.7523    0.0000 O   0  0  0  0  0  0  0  0  0  0  0  0
    3.4902    1.7663    0.0000 O   0  0  0  0  0  0  0  0  0  0  0  0
    4.9188    1.7983    0.0000 O   0  0  0  0  0  0  0  0  0  0  0  0
    7.0500   -2.9979    0.0000 O   0  0  0  0  0  0  0  0  0  0  0  0
    6.9143   -4.6423    0.0000 O   0  0  0  0  0  0  0  0  0  0  0  0
    3.5759    0.0454    0.0000 N   0  0  0  0  0  0  0  0  0  0  0  0
    1.5791    0.9270    0.0000 N   0  0  0  0  0  0  0  0  0  0  0  0
    5.0403   -1.1700    0.0000 N   0  0  0  0  0  0  0  0  0  0  0  0
    0.9918   -1.1753    0.0000 C   0  0  3  0  0  0  0  0  0  0  0  0
    1.3442   -1.9213    0.0000 C   0  0  3  0  0  0  0  0  0  0  0  0
    0.5219   -1.8534    0.0000 C   0  0  3  0  0  0  0  0  0  0  0  0
    2.1664   -1.9891    0.0000 C   0  0  0  0  0  0  0  0  0  0  0  0
    2.4013    0.8591    0.0000 C   0  0  3  0  0  0  0  0  0  0  0  0
    4.2323    0.5451    0.0000 C   0  0  3  0  0  0  0  0  0  0  0  0
    1.1092    0.2488    0.0000 C   0  0  0  0  0  0  0  0  0  0  0  0
   -0.2240   -2.2058    0.0000 C   0  0  0  0  0  0  0  0  0  0  0  0
    2.7537    0.1132    0.0000 C   0  0  0  0  0  0  0  0  0  0  0  0
    4.7504   -0.7684    0.0000 C   0  0  3  0  0  0  0  0  0  0  0  0
    4.9104    0.0753    0.0000 C   0  0  0  0  0  0  0  0  0  0  0  0
    3.9282   -0.7006    0.0000 C   0  0  0  0  0  0  0  0  0  0  0  0
    2.8711    1.5373    0.0000 C   0  0  0  0  0  0  0  0  0  0  0  0
    2.5187   -2.7350    0.0000 C   0  0  0  0  0  0  0  0  0  0  0  0
    4.2138    1.3699    0.0000 C   0  0  0  0  0  0  0  0  0  0  0  0
    4.6330   -2.1925    0.0000 C   0  0  0  0  0  0  0  0  0  0  0  0
    4.9854   -2.9385    0.0000 C   0  0  0  0  0  0  0  0  0  0  0  0
    5.8076   -3.0063    0.0000 C   0  0  0  0  0  0  0  0  0  0  0  0
    6.2774   -2.3281    0.0000 C   0  0  0  0  0  0  0  0  0  0  0  0
    5.9250   -1.5822    0.0000 C   0  0  0  0  0  0  0  0  0  0  0  0
    3.3409   -2.8028    0.0000 C   0  0  0  0  0  0  0  0  0  0  0  0
    3.3409    2.2154    0.0000 C   0  0  0  0  0  0  0  0  0  0  0  0
    2.1930    2.0071    0.0000 C   0  0  0  0  0  0  0  0  0  0  0  0
    3.5493    1.0675    0.0000 C   0  0  0  0  0  0  0  0  0  0  0  0
    4.5155   -3.6166    0.0000 C   0  0  0  0  0  0  0  0  0  0  0  0
    3.6933   -3.5488    0.0000 C   0  0  0  0  0  0  0  0  0  0  0  0
    7.0996   -2.3960    0.0000 C   0  0  0  0  0  0  0  0  0  0  0  0
    7.8044   -3.8879    0.0000 C   0  0  0  0  0  0  0  0  0  0  0  0
    6.3949   -0.9040    0.0000 C   0  0  0  0  0  0  0  0  0  0  0  0
    7.5694   -1.7178    0.0000 C   0  0  0  0  0  0  0  0  0  0  0  0
    7.2171   -0.9719    0.0000 C   0  0  0  0  0  0  0  0  0  0  0  0
    0.3136   -0.7055    0.0000 H   0  0  0  0  0  0  0  0  0  0  0  0
    1.2763   -2.7435    0.0000 H   0  0  0  0  0  0  0  0  0  0  0  0
    4.9588    0.9361    0.0000 H   0  0  0  0  0  0  0  0  0  0  0  0
    3.2235    0.7913    0.0000 H   0  0  0  0  0  0  0  0  0  0  0  0
    5.5688   -0.6639    0.0000 H   0  0  0  0  0  0  0  0  0  0  0  0
  1  9  1  0  0  0  0
  1 12  2  0  0  0  0
  1 13  2  0  0  0  0
  1 44  1  0  0  0  0
  2 44  1  0  0  0  0
  3 44  1  0  0  0  0
  4 44  1  0  0  0  0
  5 17  1  0  0  0  0
  5 23  1  0  0  0  0
  6 26  1  0  0  0  0
  6 32  1  0  0  0  0
  7 23  2  0  0  0  0
  8 25  2  0  0  0  0
  9 34  1  0  0  0  0
 10 31  2  0  0  0  0
 11 31  1  0  0  0  0
 14 22  1  0  0  0  0
 14 25  1  0  0  0  0
 14 28  1  0  0  0  0
 15 21  1  0  0  0  0
 15 23  1  0  0  0  0
 16 32  2  0  0  0  0
 16 36  1  0  0  0  0
 17 18  1  0  0  0  0
 17 19  1  0  0  0  0
 17 48  1  6  0  0  0
 18 19  1  0  0  0  0
 18 20  1  0  0  0  0
 18 49  1  1  0  0  0
 19 24  1  0  0  0  0
 20 30  1  0  0  0  0
 21 25  1  0  0  0  0
 21 29  1  0  0  0  0
 21 51  1  6  0  0  0
 22 27  1  0  0  0  0
 22 31  1  0  0  0  0
 22 50  1  1  0  0  0
 26 27  1  0  0  0  0
 26 28  1  0  0  0  0
 26 52  1  6  0  0  0
 29 38  1  0  0  0  0
 29 39  1  0  0  0  0
 29 40  1  0  0  0  0
 30 37  1  0  0  0  0
 32 33  1  0  0  0  0
 33 34  2  0  0  0  0
 33 41  1  0  0  0  0
 34 35  1  0  0  0  0
 35 36  2  0  0  0  0
 35 43  1  0  0  0  0
 36 45  1  0  0  0  0
 37 42  1  0  0  0  0
 41 42  1  0  0  0  0
 43 46  2  0  0  0  0
 45 47  2  0  0  0  0
 46 47  1  0  0  0  0
M  END
> <PUBCHEM_COMPOUND_ID_TYPE>
0

> <PUBCHEM_TOTAL_CHARGE>
0

> <PUBCHEM_SUBSTANCE_ID>
310929455

> <PUBCHEM_SUBSTANCE_VERSION>
1

> <PUBCHEM_EXT_DATASOURCE_NAME>
4488

> <PUBCHEM_EXT_DATASOURCE_REGID>
SCHEMBL16106629

> <PUBCHEM_SUBSTANCE_COMMENT>
InChI=1S/C31H38F3N3O9S/c1-16-18-10-6-5-7-12-20-24(46-47(42,43)31(32,33)34)19-11-8-9-13-21(19)35-26(20)44-17-14-22(28(39)40)37(15-17)27(38)25(30(2,3)4)36-29(41)45-23(16)18/h8-9,11,13,16-18,22-23,25H,5-7,10,12,14-15H2,1-4H3,(H,36,41)(H,39,40)/t16?,17-,18-,22+,23-,25-/m1/s1
InChIKey=IPLYVPIJZFGJMR-MSDCWZQWSA-N

> <PUBCHEM_SUBSTANCE_SYNONYM>
SCHEMBL16106629

> <PUBCHEM_XREF_EXT_ID>
SCHEMBL16106629

> <PUBCHEM_EXT_DATASOURCE_URL>
https://www.surechembl.org/

> <PUBCHEM_EXT_SUBSTANCE_URL>
https://www.surechembl.org/chemical/SCHEMBL16106629

> <PUBCHEM_CID_ASSOCIATIONS>
117598800  1

> <PUBCHEM_COORDINATE_TYPE>
1
3

> <PUBCHEM_BONDANNOTATIONS>
17  48  6
18  49  5
21  51  6
22  50  5
26  52  6

$$$$
