310939664
  -OEChem-07211613022D

 53 63  0     0  0  0  0  0  0999 V2000
   -4.2030   -1.9236    0.0000 N   0  0  0  0  0  0  0  0  0  0  0  0
   -2.7741   -6.0487    0.0000 N   0  0  0  0  0  0  0  0  0  0  0  0
    3.4184   -2.1338    0.0000 N   0  0  0  0  0  0  0  0  0  0  0  0
    3.4184   -3.4687    0.0000 N   0  0  0  0  0  0  0  0  0  0  0  0
   -2.7741   -3.5736    0.0000 C   0  0  0  0  0  0  0  0  0  0  0  0
   -2.7741   -4.3986    0.0000 C   0  0  0  0  0  0  0  0  0  0  0  0
   -1.5046   -3.9862    0.0000 C   0  0  0  0  0  0  0  0  0  0  0  0
   -1.9894   -3.3187    0.0000 C   0  0  0  0  0  0  0  0  0  0  0  0
   -1.9894   -4.6536    0.0000 C   0  0  0  0  0  0  0  0  0  0  0  0
   -3.4885   -3.1611    0.0000 C   0  0  0  0  0  0  0  0  0  0  0  0
   -3.4885   -4.8111    0.0000 C   0  0  0  0  0  0  0  0  0  0  0  0
   -4.2030   -3.5736    0.0000 C   0  0  0  0  0  0  0  0  0  0  0  0
   -4.2030   -4.3986    0.0000 C   0  0  0  0  0  0  0  0  0  0  0  0
   -0.6840   -3.8999    0.0000 C   0  0  0  0  0  0  0  0  0  0  0  0
   -0.3485   -3.1462    0.0000 C   0  0  0  0  0  0  0  0  0  0  0  0
   -1.6539   -2.5650    0.0000 C   0  0  0  0  0  0  0  0  0  0  0  0
   -3.4885   -2.3362    0.0000 C   0  0  0  0  0  0  0  0  0  0  0  0
   -3.4885   -5.6362    0.0000 C   0  0  0  0  0  0  0  0  0  0  0  0
   -1.3552   -5.4072    0.0000 C   0  0  0  0  0  0  0  0  0  0  0  0
   -0.8334   -2.4788    0.0000 C   0  0  0  0  0  0  0  0  0  0  0  0
   -0.1992   -4.5674    0.0000 C   0  0  0  0  0  0  0  0  0  0  0  0
   -4.9175   -3.1611    0.0000 C   0  0  0  0  0  0  0  0  0  0  0  0
   -4.9175   -4.8111    0.0000 C   0  0  0  0  0  0  0  0  0  0  0  0
    0.4720   -3.0600    0.0000 C   0  0  0  0  0  0  0  0  0  0  0  0
   -0.5347   -5.3211    0.0000 C   0  0  0  0  0  0  0  0  0  0  0  0
   -2.7741   -1.9236    0.0000 C   0  0  0  0  0  0  0  0  0  0  0  0
   -4.2030   -6.0487    0.0000 C   0  0  0  0  0  0  0  0  0  0  0  0
   -5.6319   -3.5736    0.0000 C   0  0  0  0  0  0  0  0  0  0  0  0
   -5.6319   -4.3986    0.0000 C   0  0  0  0  0  0  0  0  0  0  0  0
    0.9570   -3.7274    0.0000 C   0  0  0  0  0  0  0  0  0  0  0  0
    0.8076   -2.3064    0.0000 C   0  0  0  0  0  0  0  0  0  0  0  0
    2.9334   -2.8013    0.0000 C   0  0  0  0  0  0  0  0  0  0  0  0
    2.1130   -2.8875    0.0000 C   0  0  0  0  0  0  0  0  0  0  0  0
    4.2030   -2.3888    0.0000 C   0  0  0  0  0  0  0  0  0  0  0  0
    1.7774   -3.6411    0.0000 C   0  0  0  0  0  0  0  0  0  0  0  0
    1.6280   -2.2201    0.0000 C   0  0  0  0  0  0  0  0  0  0  0  0
    4.2030   -3.2138    0.0000 C   0  0  0  0  0  0  0  0  0  0  0  0
   -4.2030   -1.0986    0.0000 C   0  0  0  0  0  0  0  0  0  0  0  0
   -2.7741   -1.0986    0.0000 C   0  0  0  0  0  0  0  0  0  0  0  0
   -2.7741   -6.8736    0.0000 C   0  0  0  0  0  0  0  0  0  0  0  0
   -4.2030   -6.8736    0.0000 C   0  0  0  0  0  0  0  0  0  0  0  0
    3.0059   -1.4194    0.0000 C   0  0  0  0  0  0  0  0  0  0  0  0
   -3.4885   -0.6862    0.0000 C   0  0  0  0  0  0  0  0  0  0  0  0
   -3.4885   -7.2862    0.0000 C   0  0  0  0  0  0  0  0  0  0  0  0
    4.9175   -1.9762    0.0000 C   0  0  0  0  0  0  0  0  0  0  0  0
    4.9175   -3.6262    0.0000 C   0  0  0  0  0  0  0  0  0  0  0  0
    3.4184   -0.7049    0.0000 C   0  0  0  0  0  0  0  0  0  0  0  0
    2.1809   -1.4194    0.0000 C   0  0  0  0  0  0  0  0  0  0  0  0
    5.6319   -2.3888    0.0000 C   0  0  0  0  0  0  0  0  0  0  0  0
    5.6319   -3.2138    0.0000 C   0  0  0  0  0  0  0  0  0  0  0  0
    3.0059    0.0096    0.0000 C   0  0  0  0  0  0  0  0  0  0  0  0
    1.7684   -0.7049    0.0000 C   0  0  0  0  0  0  0  0  0  0  0  0
    2.1809    0.0096    0.0000 C   0  0  0  0  0  0  0  0  0  0  0  0
  1 17  1  0  0  0  0
  1 38  2  0  0  0  0
  2 18  1  0  0  0  0
  2 40  2  0  0  0  0
  3 32  1  0  0  0  0
  3 34  1  0  0  0  0
  3 42  1  0  0  0  0
  4 32  2  0  0  0  0
  4 37  1  0  0  0  0
  5  6  1  0  0  0  0
  5  8  1  0  0  0  0
  5 10  2  0  0  0  0
  6  9  1  0  0  0  0
  6 11  2  0  0  0  0
  7  8  1  0  0  0  0
  7  9  2  0  0  0  0
  7 14  1  0  0  0  0
  8 16  2  0  0  0  0
  9 19  1  0  0  0  0
 10 12  1  0  0  0  0
 10 17  1  0  0  0  0
 11 13  1  0  0  0  0
 11 18  1  0  0  0  0
 12 13  2  0  0  0  0
 12 22  1  0  0  0  0
 13 23  1  0  0  0  0
 14 15  1  0  0  0  0
 14 21  2  0  0  0  0
 15 20  2  0  0  0  0
 15 24  1  0  0  0  0
 16 20  1  0  0  0  0
 17 26  2  0  0  0  0
 18 27  2  0  0  0  0
 19 25  2  0  0  0  0
 21 25  1  0  0  0  0
 22 28  2  0  0  0  0
 23 29  2  0  0  0  0
 24 30  2  0  0  0  0
 24 31  1  0  0  0  0
 26 39  1  0  0  0  0
 27 41  1  0  0  0  0
 28 29  1  0  0  0  0
 30 35  1  0  0  0  0
 31 36  2  0  0  0  0
 32 33  1  0  0  0  0
 33 35  2  0  0  0  0
 33 36  1  0  0  0  0
 34 37  2  0  0  0  0
 34 45  1  0  0  0  0
 37 46  1  0  0  0  0
 38 43  1  0  0  0  0
 39 43  2  0  0  0  0
 40 44  1  0  0  0  0
 41 44  2  0  0  0  0
 42 47  2  0  0  0  0
 42 48  1  0  0  0  0
 45 49  2  0  0  0  0
 46 50  2  0  0  0  0
 47 51  1  0  0  0  0
 48 52  2  0  0  0  0
 49 50  1  0  0  0  0
 51 53  2  0  0  0  0
 52 53  1  0  0  0  0
M  END
> <PUBCHEM_COMPOUND_ID_TYPE>
0

> <PUBCHEM_TOTAL_CHARGE>
0

> <PUBCHEM_SUBSTANCE_ID>
310939664

> <PUBCHEM_SUBSTANCE_VERSION>
1

> <PUBCHEM_EXT_DATASOURCE_NAME>
4488

> <PUBCHEM_EXT_DATASOURCE_REGID>
SCHEMBL16117594

> <PUBCHEM_SUBSTANCE_COMMENT>
InChI=1S/C49H30N4/c1-2-13-33(14-3-1)53-43-22-7-6-19-40(43)52-49(53)32-25-23-31(24-26-32)34-27-28-39-44-35(34)17-12-18-38(44)47-45(41-20-8-10-29-50-41)36-15-4-5-16-37(36)46(48(39)47)42-21-9-11-30-51-42/h1-30H
InChIKey=RFTMUYBVQYHICQ-UHFFFAOYSA-N

> <PUBCHEM_SUBSTANCE_SYNONYM>
SCHEMBL16117594

> <PUBCHEM_XREF_EXT_ID>
SCHEMBL16117594

> <PUBCHEM_EXT_DATASOURCE_URL>
https://www.surechembl.org/

> <PUBCHEM_EXT_SUBSTANCE_URL>
https://www.surechembl.org/chemical/SCHEMBL16117594

> <PUBCHEM_CID_ASSOCIATIONS>
117606898  1

> <PUBCHEM_COORDINATE_TYPE>
1
3

$$$$
