310942184
  -OEChem-07211613022D

 29 31  0     1  0  0  0  0  0999 V2000
    1.7186    0.5500    0.0000 Cl  0  0  0  0  0  0  0  0  0  0  0  0
    0.2812   -1.9498    0.0000 F   0  0  0  0  0  0  0  0  0  0  0  0
    1.7186   -1.1249    0.0000 O   0  0  0  0  0  0  0  0  0  0  0  0
   -0.4562    1.7998    0.0000 O   0  0  0  0  0  0  0  0  0  0  0  0
   -1.8811   -0.7000    0.0000 N   0  0  0  0  0  0  0  0  0  0  0  0
   -1.8811    1.7998    0.0000 N   0  0  0  0  0  0  0  0  0  0  0  0
   -3.8934    1.7998    0.0000 N   0  0  0  0  0  0  0  0  0  0  0  0
   -0.4437   -0.7000    0.0000 C   0  0  0  0  0  0  0  0  0  0  0  0
    0.2812   -1.1124    0.0000 C   0  0  0  0  0  0  0  0  0  0  0  0
    0.9936   -0.6874    0.0000 C   0  0  0  0  0  0  0  0  0  0  0  0
    1.0061    0.1375    0.0000 C   0  0  0  0  0  0  0  0  0  0  0  0
   -1.1561   -1.1124    0.0000 C   0  0  3  0  0  0  0  0  0  0  0  0
   -0.4312    0.1250    0.0000 C   0  0  0  0  0  0  0  0  0  0  0  0
    0.2812    0.5375    0.0000 C   0  0  0  0  0  0  0  0  0  0  0  0
    2.4435   -0.7000    0.0000 C   0  0  0  0  0  0  0  0  0  0  0  0
   -1.1686   -1.9623    0.0000 C   0  0  0  0  0  0  0  0  0  0  0  0
   -1.8811    0.1375    0.0000 C   0  0  3  0  0  0  0  0  0  0  0  0
    2.4560    0.1250    0.0000 C   0  0  0  0  0  0  0  0  0  0  0  0
    3.1809   -1.1124    0.0000 C   0  0  0  0  0  0  0  0  0  0  0  0
   -1.1561    0.5500    0.0000 C   0  0  0  0  0  0  0  0  0  0  0  0
   -1.1686    1.3749    0.0000 C   0  0  0  0  0  0  0  0  0  0  0  0
   -2.7309    1.7998    0.0000 C   0  0  0  0  0  0  0  0  0  0  0  0
   -3.2934    1.2124    0.0000 C   0  0  0  0  0  0  0  0  0  0  0  0
   -3.3059    2.3747    0.0000 C   0  0  0  0  0  0  0  0  0  0  0  0
    3.1684    0.5375    0.0000 C   0  0  0  0  0  0  0  0  0  0  0  0
    3.8934   -0.7000    0.0000 C   0  0  0  0  0  0  0  0  0  0  0  0
   -1.8686   -2.3747    0.0000 C   0  0  0  0  0  0  0  0  0  0  0  0
   -2.5935    0.5500    0.0000 C   0  0  0  0  0  0  0  0  0  0  0  0
    3.8934    0.1250    0.0000 C   0  0  0  0  0  0  0  0  0  0  0  0
  1 11  1  0  0  0  0
  2  9  1  0  0  0  0
  3 10  1  0  0  0  0
  3 15  1  0  0  0  0
  4 21  2  0  0  0  0
 12  5  1  1  0  0  0
  5 17  1  0  0  0  0
  6 21  1  0  0  0  0
  6 22  1  0  0  0  0
  7 23  1  0  0  0  0
  7 24  1  0  0  0  0
  8  9  2  0  0  0  0
  8 12  1  0  0  0  0
  8 13  1  0  0  0  0
  9 10  1  0  0  0  0
 10 11  2  0  0  0  0
 11 14  1  0  0  0  0
 12 16  1  0  0  0  0
 13 14  2  0  0  0  0
 15 18  2  0  0  0  0
 15 19  1  0  0  0  0
 16 27  1  0  0  0  0
 17 20  1  0  0  0  0
 17 28  1  1  0  0  0
 18 25  1  0  0  0  0
 19 26  2  0  0  0  0
 20 21  1  0  0  0  0
 22 23  1  0  0  0  0
 22 24  1  0  0  0  0
 25 29  2  0  0  0  0
 26 29  1  0  0  0  0
M  END
> <PUBCHEM_COMPOUND_ID_TYPE>
0

> <PUBCHEM_TOTAL_CHARGE>
0

> <PUBCHEM_SUBSTANCE_ID>
310942184

> <PUBCHEM_SUBSTANCE_VERSION>
1

> <PUBCHEM_EXT_DATASOURCE_NAME>
4488

> <PUBCHEM_EXT_DATASOURCE_REGID>
SCHEMBL16120219

> <PUBCHEM_SUBSTANCE_COMMENT>
InChI=1S/C22H27ClFN3O2/c1-3-19(26-14(2)11-20(28)27-15-12-25-13-15)17-9-10-18(23)22(21(17)24)29-16-7-5-4-6-8-16/h4-10,14-15,19,25-26H,3,11-13H2,1-2H3,(H,27,28)/t14-,19+/m0/s1
InChIKey=VQPYXPLZYXRXJD-IFXJQAMLSA-N

> <PUBCHEM_SUBSTANCE_SYNONYM>
SCHEMBL16120219

> <PUBCHEM_XREF_EXT_ID>
SCHEMBL16120219

> <PUBCHEM_EXT_DATASOURCE_URL>
https://www.surechembl.org/

> <PUBCHEM_EXT_SUBSTANCE_URL>
https://www.surechembl.org/chemical/SCHEMBL16120219

> <PUBCHEM_CID_ASSOCIATIONS>
117608835  1

> <PUBCHEM_COORDINATE_TYPE>
1
3

> <PUBCHEM_BONDANNOTATIONS>
17  28  5
12  5  5

$$$$
