310931537
  -OEChem-07211613022D

 23 26  0     1  0  0  0  0  0999 V2000
    4.1533   -2.8448    0.0000 S   0  0  0  0  0  0  0  0  0  0  0  0
    0.0000   -1.3655    0.0000 F   0  0  0  0  0  0  0  0  0  0  0  0
    0.8250   -2.8448    0.0000 O   0  0  0  0  0  0  0  0  0  0  0  0
    2.4465    0.0000    0.0000 O   0  0  0  0  0  0  0  0  0  0  0  0
    2.9301   -3.5559    0.0000 N   0  0  0  0  0  0  0  0  0  0  0  0
    4.1249   -4.2671    0.0000 N   0  0  0  0  0  0  0  0  0  0  0  0
    2.4749   -5.6895    0.0000 N   0  0  0  0  0  0  0  0  0  0  0  0
    2.4749   -2.8448    0.0000 C   0  0  3  0  0  0  0  0  0  0  0  0
    2.0767   -2.1336    0.0000 C   0  0  0  0  0  0  0  0  0  0  0  0
    2.0767   -3.5843    0.0000 C   0  0  0  0  0  0  0  0  0  0  0  0
    1.2517   -2.1336    0.0000 C   0  0  0  0  0  0  0  0  0  0  0  0
    1.2517   -3.5843    0.0000 C   0  0  0  0  0  0  0  0  0  0  0  0
    2.9301   -2.1336    0.0000 C   0  0  0  0  0  0  0  0  0  0  0  0
    2.4749   -1.3939    0.0000 C   0  0  0  0  0  0  0  0  0  0  0  0
    0.8250   -1.3939    0.0000 C   0  0  0  0  0  0  0  0  0  0  0  0
    2.4749   -4.2955    0.0000 C   0  0  0  0  0  0  0  0  0  0  0  0
    3.7266   -3.5559    0.0000 C   0  0  0  0  0  0  0  0  0  0  0  0
    2.0767   -0.7396    0.0000 C   0  0  0  0  0  0  0  0  0  0  0  0
    0.8250   -4.2955    0.0000 C   0  0  0  0  0  0  0  0  0  0  0  0
    1.2517   -0.7396    0.0000 C   0  0  0  0  0  0  0  0  0  0  0  0
    2.0767   -4.9783    0.0000 C   0  0  0  0  0  0  0  0  0  0  0  0
    3.7266   -2.1336    0.0000 C   0  0  0  0  0  0  0  0  0  0  0  0
    1.2517   -4.9783    0.0000 C   0  0  0  0  0  0  0  0  0  0  0  0
  1 17  1  0  0  0  0
  1 22  1  0  0  0  0
  2 15  1  0  0  0  0
  3 11  1  0  0  0  0
  3 12  1  0  0  0  0
  4 18  1  0  0  0  0
  8  5  1  1  0  0  0
  5 17  2  0  0  0  0
  6 17  1  0  0  0  0
  7 21  1  0  0  0  0
  8  9  1  0  0  0  0
  8 10  1  0  0  0  0
  8 13  1  0  0  0  0
  9 11  2  0  0  0  0
  9 14  1  0  0  0  0
 10 12  2  0  0  0  0
 10 16  1  0  0  0  0
 11 15  1  0  0  0  0
 12 19  1  0  0  0  0
 13 22  1  0  0  0  0
 14 18  2  0  0  0  0
 15 20  2  0  0  0  0
 16 21  2  0  0  0  0
 18 20  1  0  0  0  0
 19 23  2  0  0  0  0
 21 23  1  0  0  0  0
M  END
> <PUBCHEM_COMPOUND_ID_TYPE>
0

> <PUBCHEM_TOTAL_CHARGE>
0

> <PUBCHEM_SUBSTANCE_ID>
310931537

> <PUBCHEM_SUBSTANCE_VERSION>
1

> <PUBCHEM_EXT_DATASOURCE_NAME>
4488

> <PUBCHEM_EXT_DATASOURCE_REGID>
SCHEMBL16108863

> <PUBCHEM_SUBSTANCE_COMMENT>
InChI=1S/C16H14FN3O2S/c17-12-7-9(21)6-11-14(12)22-13-2-1-8(18)5-10(13)16(11)3-4-23-15(19)20-16/h1-2,5-7,21H,3-4,18H2,(H2,19,20)/t16-/m0/s1
InChIKey=MRGCSQOSFQOLEX-INIZCTEOSA-N

> <PUBCHEM_SUBSTANCE_SYNONYM>
SCHEMBL16108863

> <PUBCHEM_XREF_EXT_ID>
SCHEMBL16108863

> <PUBCHEM_EXT_DATASOURCE_URL>
https://www.surechembl.org/

> <PUBCHEM_EXT_SUBSTANCE_URL>
https://www.surechembl.org/chemical/SCHEMBL16108863

> <PUBCHEM_CID_ASSOCIATIONS>
117600290  1

> <PUBCHEM_COORDINATE_TYPE>
1
3

> <PUBCHEM_BONDANNOTATIONS>
8  5  5

$$$$
