310939458
  -OEChem-07211613022D

 31 33  0     1  0  0  0  0  0999 V2000
    2.4917    1.4437    0.0000 Cl  0  0  0  0  0  0  0  0  0  0  0  0
   -1.0806    0.2062    0.0000 O   0  0  0  0  0  0  0  0  0  0  0  0
    6.7786   -1.8563    0.0000 O   0  0  0  0  0  0  0  0  0  0  0  0
    6.0641   -3.0938    0.0000 O   0  0  0  0  0  0  0  0  0  0  0  0
    0.3483   -0.6187    0.0000 C   0  0  3  0  0  0  0  0  0  0  0  0
   -0.3661   -1.0313    0.0000 C   0  0  0  0  0  0  0  0  0  0  0  0
    1.0628    0.6187    0.0000 C   0  0  3  0  0  0  0  0  0  0  0  0
    1.0628   -1.0313    0.0000 C   0  0  3  0  0  0  0  0  0  0  0  0
    0.3483    0.2062    0.0000 C   0  0  0  0  0  0  0  0  0  0  0  0
    1.0628    1.4437    0.0000 C   0  0  0  0  0  0  0  0  0  0  0  0
   -1.0806   -0.6187    0.0000 C   0  0  0  0  0  0  0  0  0  0  0  0
    1.7773    0.2062    0.0000 C   0  0  0  0  0  0  0  0  0  0  0  0
    1.7773   -0.6187    0.0000 C   0  0  0  0  0  0  0  0  0  0  0  0
    1.7773    1.8563    0.0000 C   0  0  0  0  0  0  0  0  0  0  0  0
   -0.3661   -1.8563    0.0000 C   0  0  0  0  0  0  0  0  0  0  0  0
    1.0628   -1.8563    0.0000 C   0  0  0  0  0  0  0  0  0  0  0  0
    0.3483    1.8563    0.0000 C   0  0  0  0  0  0  0  0  0  0  0  0
   -1.7951   -1.0313    0.0000 C   0  0  0  0  0  0  0  0  0  0  0  0
   -1.0806   -2.2687    0.0000 C   0  0  0  0  0  0  0  0  0  0  0  0
    1.7773    2.6812    0.0000 C   0  0  0  0  0  0  0  0  0  0  0  0
   -1.7951   -1.8563    0.0000 C   0  0  0  0  0  0  0  0  0  0  0  0
    0.3483    2.6812    0.0000 C   0  0  0  0  0  0  0  0  0  0  0  0
    1.0628    3.0938    0.0000 C   0  0  0  0  0  0  0  0  0  0  0  0
    1.7773   -2.2687    0.0000 C   0  0  0  0  0  0  0  0  0  0  0  0
   -1.7951    0.6187    0.0000 C   0  0  0  0  0  0  0  0  0  0  0  0
    2.4917   -1.8563    0.0000 C   0  0  0  0  0  0  0  0  0  0  0  0
    3.2062   -2.2687    0.0000 C   0  0  0  0  0  0  0  0  0  0  0  0
    3.9207   -1.8563    0.0000 C   0  0  0  0  0  0  0  0  0  0  0  0
    4.6352   -2.2687    0.0000 C   0  0  0  0  0  0  0  0  0  0  0  0
    5.3496   -1.8563    0.0000 C   0  0  0  0  0  0  0  0  0  0  0  0
    6.0641   -2.2687    0.0000 C   0  0  0  0  0  0  0  0  0  0  0  0
  1 14  1  0  0  0  0
  2 11  1  0  0  0  0
  2 25  1  0  0  0  0
  3 31  2  0  0  0  0
  4 31  1  0  0  0  0
  5  6  1  0  0  0  0
  5  8  1  0  0  0  0
  5  9  1  1  0  0  0
  6 11  2  0  0  0  0
  6 15  1  0  0  0  0
  7  9  1  1  0  0  0
  7 10  1  0  0  0  0
  7 12  1  0  0  0  0
  8 13  1  0  0  0  0
  8 16  1  1  0  0  0
 10 14  2  0  0  0  0
 10 17  1  0  0  0  0
 11 18  1  0  0  0  0
 12 13  1  0  0  0  0
 14 20  1  0  0  0  0
 15 19  2  0  0  0  0
 16 24  1  0  0  0  0
 17 22  2  0  0  0  0
 18 21  2  0  0  0  0
 19 21  1  0  0  0  0
 20 23  2  0  0  0  0
 22 23  1  0  0  0  0
 24 26  1  0  0  0  0
 26 27  1  0  0  0  0
 27 28  1  0  0  0  0
 28 29  1  0  0  0  0
 29 30  1  0  0  0  0
 30 31  1  0  0  0  0
M  END
> <PUBCHEM_COMPOUND_ID_TYPE>
0

> <PUBCHEM_TOTAL_CHARGE>
0

> <PUBCHEM_SUBSTANCE_ID>
310939458

> <PUBCHEM_SUBSTANCE_VERSION>
1

> <PUBCHEM_EXT_DATASOURCE_NAME>
4488

> <PUBCHEM_EXT_DATASOURCE_REGID>
SCHEMBL16117382

> <PUBCHEM_SUBSTANCE_COMMENT>
InChI=1S/C27H35ClO3/c1-31-26-15-10-8-13-23(26)24-19-21(22-12-7-9-14-25(22)28)18-17-20(24)11-5-3-2-4-6-16-27(29)30/h7-10,12-15,20-21,24H,2-6,11,16-19H2,1H3,(H,29,30)/t20-,21+,24+/m1/s1
InChIKey=AFBYRKWPLXPWSK-DPLHUUCSSA-N

> <PUBCHEM_SUBSTANCE_SYNONYM>
SCHEMBL16117382

> <PUBCHEM_XREF_EXT_ID>
SCHEMBL16117382

> <PUBCHEM_EXT_DATASOURCE_URL>
https://www.surechembl.org/

> <PUBCHEM_EXT_SUBSTANCE_URL>
https://www.surechembl.org/chemical/SCHEMBL16117382

> <PUBCHEM_CID_ASSOCIATIONS>
117606773  1

> <PUBCHEM_COORDINATE_TYPE>
1
3

> <PUBCHEM_BONDANNOTATIONS>
5  9  5
7  9  5
8  16  5

$$$$
