310935165
  -OEChem-07211613022D

 29 33  0     1  0  0  0  0  0999 V2000
   -5.0924   -3.7013    0.0000 F   0  0  0  0  0  0  0  0  0  0  0  0
    1.0396    1.4521    0.0000 O   0  0  0  0  0  0  0  0  0  0  0  0
   -3.7948    0.2840    0.0000 O   0  0  0  0  0  0  0  0  0  0  0  0
   -4.8227   -0.7087    0.0000 O   0  0  0  0  0  0  0  0  0  0  0  0
    1.2696    0.0000    0.0000 N   0  0  0  0  0  0  0  0  0  0  0  0
   -3.4491   -1.1026    0.0000 C   0  0  3  0  0  0  0  0  0  0  0  0
   -4.3779   -1.6388    0.0000 C   0  0  0  0  0  0  0  0  0  0  0  0
   -2.1434   -0.8250    0.0000 C   0  0  3  0  0  0  0  0  0  0  0  0
   -2.8971   -0.4895    0.0000 C   0  0  0  0  0  0  0  0  0  0  0  0
    0.0000    0.4125    0.0000 C   0  0  0  0  0  0  0  0  0  0  0  0
    0.0000   -0.4125    0.0000 C   0  0  0  0  0  0  0  0  0  0  0  0
   -1.4290   -0.4125    0.0000 C   0  0  0  0  0  0  0  0  0  0  0  0
   -3.0366   -1.8170    0.0000 C   0  0  0  0  0  0  0  0  0  0  0  0
    0.7846    0.6674    0.0000 C   0  0  0  0  0  0  0  0  0  0  0  0
   -4.0222   -0.5091    0.0000 C   0  0  0  0  0  0  0  0  0  0  0  0
   -2.2296   -1.6455    0.0000 C   0  0  0  0  0  0  0  0  0  0  0  0
    2.0946    0.0000    0.0000 C   0  0  0  0  0  0  0  0  0  0  0  0
   -4.3779   -2.4638    0.0000 C   0  0  0  0  0  0  0  0  0  0  0  0
   -0.7144   -0.8250    0.0000 C   0  0  0  0  0  0  0  0  0  0  0  0
    0.7846   -0.6674    0.0000 C   0  0  0  0  0  0  0  0  0  0  0  0
   -0.7144    0.8250    0.0000 C   0  0  0  0  0  0  0  0  0  0  0  0
   -1.4290    0.4125    0.0000 C   0  0  0  0  0  0  0  0  0  0  0  0
   -5.0924   -1.2263    0.0000 C   0  0  0  0  0  0  0  0  0  0  0  0
   -5.0924   -2.8763    0.0000 C   0  0  0  0  0  0  0  0  0  0  0  0
    2.8090    0.4125    0.0000 C   0  0  0  0  0  0  0  0  0  0  0  0
    2.8090   -0.4125    0.0000 C   0  0  0  0  0  0  0  0  0  0  0  0
   -5.8069   -1.6388    0.0000 C   0  0  0  0  0  0  0  0  0  0  0  0
   -5.8069   -2.4638    0.0000 C   0  0  0  0  0  0  0  0  0  0  0  0
   -3.6635   -2.8763    0.0000 C   0  0  0  0  0  0  0  0  0  0  0  0
  1 24  1  0  0  0  0
  2 14  2  0  0  0  0
  3 15  2  0  0  0  0
  4 15  1  0  0  0  0
  5 14  1  0  0  0  0
  5 17  1  0  0  0  0
  5 20  1  0  0  0  0
  6  7  1  0  0  0  0
  6  9  1  0  0  0  0
  6 13  1  0  0  0  0
  6 15  1  6  0  0  0
  7 18  1  0  0  0  0
  7 23  2  0  0  0  0
  8  9  1  0  0  0  0
  8 12  1  0  0  0  0
  8 16  1  0  0  0  0
 10 11  2  0  0  0  0
 10 14  1  0  0  0  0
 10 21  1  0  0  0  0
 11 19  1  0  0  0  0
 11 20  1  0  0  0  0
 12 19  2  0  0  0  0
 12 22  1  0  0  0  0
 13 16  1  0  0  0  0
 17 25  1  0  0  0  0
 17 26  1  0  0  0  0
 18 24  2  0  0  0  0
 18 29  1  0  0  0  0
 21 22  2  0  0  0  0
 23 27  1  0  0  0  0
 24 28  1  0  0  0  0
 25 26  1  0  0  0  0
 27 28  2  0  0  0  0
M  END
> <PUBCHEM_COMPOUND_ID_TYPE>
0

> <PUBCHEM_TOTAL_CHARGE>
0

> <PUBCHEM_SUBSTANCE_ID>
310935165

> <PUBCHEM_SUBSTANCE_VERSION>
1

> <PUBCHEM_EXT_DATASOURCE_NAME>
4488

> <PUBCHEM_EXT_DATASOURCE_REGID>
SCHEMBL16112693

> <PUBCHEM_SUBSTANCE_COMMENT>
InChI=1S/C24H24FNO3/c1-14-20(3-2-4-21(14)25)24(23(28)29)10-9-16(12-24)15-5-8-19-17(11-15)13-26(22(19)27)18-6-7-18/h2-5,8,11,16,18H,6-7,9-10,12-13H2,1H3,(H,28,29)/t16?,24-/m0/s1
InChIKey=GTSJXWBYSSMEHJ-ODOSRFNGSA-N

> <PUBCHEM_SUBSTANCE_SYNONYM>
SCHEMBL16112693

> <PUBCHEM_XREF_EXT_ID>
SCHEMBL16112693

> <PUBCHEM_EXT_DATASOURCE_URL>
https://www.surechembl.org/

> <PUBCHEM_EXT_SUBSTANCE_URL>
https://www.surechembl.org/chemical/SCHEMBL16112693

> <PUBCHEM_CID_ASSOCIATIONS>
117603250  1

> <PUBCHEM_COORDINATE_TYPE>
1
3

> <PUBCHEM_BONDANNOTATIONS>
6  15  6

$$$$
