310946440
  -OEChem-07211613022D

 28 28  0     1  0  0  0  0  0999 V2000
   -2.8719    5.1402    0.0000 O   0  0  0  0  0  0  0  0  0  0  0  0
   -0.9200    6.2672    0.0000 O   0  0  0  0  0  0  0  0  0  0  0  0
   -4.0813    6.0682    0.0000 O   0  0  0  0  0  0  0  0  0  0  0  0
   -2.0469    5.1402    0.0000 O   0  0  0  0  0  0  0  0  0  0  0  0
   -2.4594    8.6637    0.0000 O   0  0  0  0  0  0  0  0  0  0  0  0
    1.2234    5.0297    0.0000 O   0  0  0  0  0  0  0  0  0  0  0  0
    2.6524    5.8547    0.0000 O   0  0  0  0  0  0  0  0  0  0  0  0
    1.9379    3.7922    0.0000 O   0  5  0  0  0  0  0  0  0  0  0  0
    2.6524    5.0297    0.0000 O   0  0  0  0  0  0  0  0  0  0  0  0
    4.0813    5.8547    0.0000 O   0  5  0  0  0  0  0  0  0  0  0  0
    3.3669    7.0922    0.0000 O   0  0  0  0  0  0  0  0  0  0  0  0
   -2.8719    6.5692    0.0000 N   0  0  0  0  0  0  0  0  0  0  0  0
    1.9379    4.6172    0.0000 N   0  3  0  0  0  0  0  0  0  0  0  0
    3.3669    6.2672    0.0000 N   0  3  0  0  0  0  0  0  0  0  0  0
   -2.0469    6.5692    0.0000 C   0  0  3  0  0  0  0  0  0  0  0  0
   -3.2844    5.8547    0.0000 C   0  0  0  0  0  0  0  0  0  0  0  0
   -3.1269    7.3538    0.0000 C   0  0  0  0  0  0  0  0  0  0  0  0
   -1.7920    7.3538    0.0000 C   0  0  0  0  0  0  0  0  0  0  0  0
   -2.4594    7.8387    0.0000 C   0  0  3  0  0  0  0  0  0  0  0  0
   -1.6344    5.8547    0.0000 C   0  0  0  0  0  0  0  0  0  0  0  0
   -3.2844    4.4258    0.0000 C   0  0  0  0  0  0  0  0  0  0  0  0
   -0.2055    5.8547    0.0000 C   0  0  0  0  0  0  0  0  0  0  0  0
    1.2234    5.8547    0.0000 C   0  0  3  0  0  0  0  0  0  0  0  0
    0.5090    6.2672    0.0000 C   0  0  0  0  0  0  0  0  0  0  0  0
   -3.6969    3.7113    0.0000 C   0  0  0  0  0  0  0  0  0  0  0  0
   -2.5700    4.0133    0.0000 C   0  0  0  0  0  0  0  0  0  0  0  0
   -3.9989    4.8383    0.0000 C   0  0  0  0  0  0  0  0  0  0  0  0
    1.9379    6.2672    0.0000 C   0  0  0  0  0  0  0  0  0  0  0  0
  1 16  1  0  0  0  0
  1 21  1  0  0  0  0
  2 20  1  0  0  0  0
  2 22  1  0  0  0  0
  3 16  2  0  0  0  0
  4 20  2  0  0  0  0
 19  5  1  6  0  0  0
  6 13  1  0  0  0  0
  6 23  1  0  0  0  0
  7 14  1  0  0  0  0
  7 28  1  0  0  0  0
  8 13  1  0  0  0  0
  9 13  2  0  0  0  0
 10 14  1  0  0  0  0
 11 14  2  0  0  0  0
 12 15  1  0  0  0  0
 12 16  1  0  0  0  0
 12 17  1  0  0  0  0
 15 18  1  0  0  0  0
 15 20  1  1  0  0  0
 17 19  1  0  0  0  0
 18 19  1  0  0  0  0
 21 25  1  0  0  0  0
 21 26  1  0  0  0  0
 21 27  1  0  0  0  0
 22 24  1  0  0  0  0
 23 24  1  0  0  0  0
 23 28  1  0  0  0  0
M  CHG  4   8  -1  10  -1  13   1  14   1
M  END
> <PUBCHEM_COMPOUND_ID_TYPE>
0

> <PUBCHEM_TOTAL_CHARGE>
0

> <PUBCHEM_SUBSTANCE_ID>
310946440

> <PUBCHEM_SUBSTANCE_VERSION>
1

> <PUBCHEM_EXT_DATASOURCE_NAME>
4488

> <PUBCHEM_EXT_DATASOURCE_REGID>
SCHEMBL16124561

> <PUBCHEM_SUBSTANCE_COMMENT>
InChI=1S/C14H23N3O11/c1-14(2,3)27-13(20)15-7-9(18)6-11(15)12(19)25-5-4-10(28-17(23)24)8-26-16(21)22/h9-11,18H,4-8H2,1-3H3/t9-,10?,11+/m1/s1
InChIKey=PKSKCMSCNINBHN-FBKFWFMHSA-N

> <PUBCHEM_SUBSTANCE_SYNONYM>
SCHEMBL16124561

> <PUBCHEM_XREF_EXT_ID>
SCHEMBL16124561

> <PUBCHEM_EXT_DATASOURCE_URL>
https://www.surechembl.org/

> <PUBCHEM_EXT_SUBSTANCE_URL>
https://www.surechembl.org/chemical/SCHEMBL16124561

> <PUBCHEM_CID_ASSOCIATIONS>
117612352  1

> <PUBCHEM_COORDINATE_TYPE>
1
3

> <PUBCHEM_BONDANNOTATIONS>
15  20  5
19  5  6

$$$$
