310936307
  -OEChem-07211613022D

 32 35  0     1  0  0  0  0  0999 V2000
    1.4743   -2.1191    0.0000 O   0  0  0  0  0  0  0  0  0  0  0  0
    0.1824   -2.9580    0.0000 O   0  0  0  0  0  0  0  0  0  0  0  0
    6.5042   -0.3027    0.0000 O   0  0  0  0  0  0  0  0  0  0  0  0
    4.8452    2.1663    0.0000 O   0  0  0  0  0  0  0  0  0  0  0  0
    1.9233    1.3646    0.0000 N   0  0  0  0  0  0  0  0  0  0  0  0
    1.9233   -1.1104    0.0000 C   0  0  3  0  0  0  0  0  0  0  0  0
    1.1387   -1.3654    0.0000 C   0  0  3  0  0  0  0  0  0  0  0  0
    1.9233   -0.2854    0.0000 C   0  0  3  0  0  0  0  0  0  0  0  0
    2.6378    0.1271    0.0000 C   0  0  3  0  0  0  0  0  0  0  0  0
    3.3523   -0.2854    0.0000 C   0  0  3  0  0  0  0  0  0  0  0  0
    0.4243   -1.7779    0.0000 C   0  0  0  0  0  0  0  0  0  0  0  0
    0.6538   -0.6979    0.0000 C   0  0  0  0  0  0  0  0  0  0  0  0
    2.6378   -1.5229    0.0000 C   0  0  0  0  0  0  0  0  0  0  0  0
    1.1387   -0.0305    0.0000 C   0  0  0  0  0  0  0  0  0  0  0  0
    4.0668    0.1271    0.0000 C   0  0  3  0  0  0  0  0  0  0  0  0
    3.3523   -1.1104    0.0000 C   0  0  0  0  0  0  0  0  0  0  0  0
    1.8371   -1.9309    0.0000 C   0  0  0  0  0  0  0  0  0  0  0  0
    4.5971    0.7590    0.0000 C   0  0  3  0  0  0  0  0  0  0  0  0
    2.6378    0.9521    0.0000 C   0  0  0  0  0  0  0  0  0  0  0  0
    0.4243   -2.6029    0.0000 C   0  0  0  0  0  0  0  0  0  0  0  0
   -0.2902   -1.3654    0.0000 C   0  0  0  0  0  0  0  0  0  0  0  0
    4.3489   -0.6482    0.0000 C   0  0  0  0  0  0  0  0  0  0  0  0
    0.9894   -2.7865    0.0000 C   0  0  0  0  0  0  0  0  0  0  0  0
    3.5365    0.7590    0.0000 C   0  0  0  0  0  0  0  0  0  0  0  0
    5.4095    0.6158    0.0000 C   0  0  0  0  0  0  0  0  0  0  0  0
    5.1614   -0.7914    0.0000 C   0  0  0  0  0  0  0  0  0  0  0  0
    5.6917   -0.1595    0.0000 C   0  0  3  0  0  0  0  0  0  0  0  0
    4.3149    1.5343    0.0000 C   0  0  0  0  0  0  0  0  0  0  0  0
   -0.2902   -3.0154    0.0000 C   0  0  0  0  0  0  0  0  0  0  0  0
   -1.0047   -1.7779    0.0000 C   0  0  0  0  0  0  0  0  0  0  0  0
   -1.0047   -2.6029    0.0000 C   0  0  0  0  0  0  0  0  0  0  0  0
    1.3249   -3.5402    0.0000 C   0  0  0  0  0  0  0  0  0  0  0  0
  7  1  1  1  0  0  0
  1 23  1  0  0  0  0
  2 23  2  0  0  0  0
 27  3  1  1  0  0  0
  4 28  1  0  0  0  0
  5 19  1  0  0  0  0
  6  7  1  0  0  0  0
  6  8  1  0  0  0  0
  6 13  1  0  0  0  0
  6 17  1  1  0  0  0
  7 11  1  0  0  0  0
  7 12  1  0  0  0  0
  8  9  1  0  0  0  0
  8 14  1  1  0  0  0
  9 10  1  0  0  0  0
  9 19  1  6  0  0  0
 10 15  1  0  0  0  0
 10 16  1  1  0  0  0
 11 20  2  0  0  0  0
 11 21  1  0  0  0  0
 12 14  1  0  0  0  0
 13 16  1  0  0  0  0
 15 18  1  0  0  0  0
 15 22  1  0  0  0  0
 15 24  1  6  0  0  0
 18 25  1  0  0  0  0
 18 28  1  1  0  0  0
 20 29  1  0  0  0  0
 21 30  2  0  0  0  0
 22 26  1  0  0  0  0
 23 32  1  0  0  0  0
 25 27  1  0  0  0  0
 26 27  1  0  0  0  0
 29 31  2  0  0  0  0
 30 31  1  0  0  0  0
M  END
> <PUBCHEM_COMPOUND_ID_TYPE>
0

> <PUBCHEM_TOTAL_CHARGE>
0

> <PUBCHEM_SUBSTANCE_ID>
310936307

> <PUBCHEM_SUBSTANCE_VERSION>
1

> <PUBCHEM_EXT_DATASOURCE_NAME>
4488

> <PUBCHEM_EXT_DATASOURCE_REGID>
SCHEMBL16113933

> <PUBCHEM_SUBSTANCE_COMMENT>
InChI=1S/C27H41NO4/c1-18(30)32-27(19-7-5-4-6-8-19)14-11-24-22(16-28)23(10-13-26(24,27)3)25(2)12-9-21(31)15-20(25)17-29/h4-8,20-24,29,31H,9-17,28H2,1-3H3/t20-,21+,22-,23+,24+,25-,26+,27-/m1/s1
InChIKey=XIYKITICJCEYBD-DRVCQQSXSA-N

> <PUBCHEM_SUBSTANCE_SYNONYM>
SCHEMBL16113933

> <PUBCHEM_XREF_EXT_ID>
SCHEMBL16113933

> <PUBCHEM_EXT_DATASOURCE_URL>
https://www.surechembl.org/

> <PUBCHEM_EXT_SUBSTANCE_URL>
https://www.surechembl.org/chemical/SCHEMBL16113933

> <PUBCHEM_CID_ASSOCIATIONS>
117604250  1

> <PUBCHEM_COORDINATE_TYPE>
1
3

> <PUBCHEM_BONDANNOTATIONS>
7  1  5
10  16  5
15  24  6
18  28  5
27  3  5
6  17  5
8  14  5
9  19  6

$$$$
