310934484
  -OEChem-07211613022D

 27 30  0     0  0  0  0  0  0999 V2000
    6.7226   -7.2286    0.0000 Br  0  0  0  0  0  0  0  0  0  0  0  0
    1.4096   -3.7227    0.0000 O   0  0  0  0  0  0  0  0  0  0  0  0
    5.6745   -5.3491    0.0000 N   0  0  0  0  0  0  0  0  0  0  0  0
    4.9516   -6.6141    0.0000 N   0  0  0  0  0  0  0  0  0  0  0  0
    6.4696   -5.1323    0.0000 N   0  0  0  0  0  0  0  0  0  0  0  0
    0.6867   -1.6626    0.0000 N   0  0  0  0  0  0  0  0  0  0  0  0
    5.6745   -6.2166    0.0000 C   0  0  0  0  0  0  0  0  0  0  0  0
    4.2649   -5.3491    0.0000 C   0  0  0  0  0  0  0  0  0  0  0  0
    6.4696   -6.4334    0.0000 C   0  0  0  0  0  0  0  0  0  0  0  0
    4.9516   -4.9516    0.0000 C   0  0  0  0  0  0  0  0  0  0  0  0
    3.5420   -4.9516    0.0000 C   0  0  0  0  0  0  0  0  0  0  0  0
    4.2649   -6.2166    0.0000 C   0  0  0  0  0  0  0  0  0  0  0  0
    6.9395   -5.7829    0.0000 C   0  0  0  0  0  0  0  0  0  0  0  0
    2.1324   -4.1203    0.0000 C   0  0  0  0  0  0  0  0  0  0  0  0
    2.8191   -5.3491    0.0000 C   0  0  0  0  0  0  0  0  0  0  0  0
    3.5420   -4.1203    0.0000 C   0  0  0  0  0  0  0  0  0  0  0  0
    1.4096   -2.8553    0.0000 C   0  0  0  0  0  0  0  0  0  0  0  0
    2.1324   -4.9516    0.0000 C   0  0  0  0  0  0  0  0  0  0  0  0
    2.8553   -3.7227    0.0000 C   0  0  0  0  0  0  0  0  0  0  0  0
    0.6867   -2.4577    0.0000 C   0  0  0  0  0  0  0  0  0  0  0  0
    2.1324   -2.4577    0.0000 C   0  0  0  0  0  0  0  0  0  0  0  0
    0.6867   -3.2890    0.0000 C   0  0  0  0  0  0  0  0  0  0  0  0
    0.0000   -1.2289    0.0000 C   0  0  0  0  0  0  0  0  0  0  0  0
    1.4096   -1.2289    0.0000 C   0  0  0  0  0  0  0  0  0  0  0  0
    0.0000   -0.3976    0.0000 C   0  0  0  0  0  0  0  0  0  0  0  0
    1.4096   -0.3976    0.0000 C   0  0  0  0  0  0  0  0  0  0  0  0
    0.7229    0.0000    0.0000 C   0  0  0  0  0  0  0  0  0  0  0  0
  1  9  1  0  0  0  0
  2 14  1  0  0  0  0
  2 17  1  0  0  0  0
  3  5  1  0  0  0  0
  3  7  1  0  0  0  0
  3 10  1  0  0  0  0
  4  7  1  0  0  0  0
  4 12  2  0  0  0  0
  5 13  2  0  0  0  0
  6 20  1  0  0  0  0
  6 23  1  0  0  0  0
  6 24  1  0  0  0  0
  7  9  2  0  0  0  0
  8 10  2  0  0  0  0
  8 11  1  0  0  0  0
  8 12  1  0  0  0  0
  9 13  1  0  0  0  0
 11 15  2  0  0  0  0
 11 16  1  0  0  0  0
 14 18  2  0  0  0  0
 14 19  1  0  0  0  0
 15 18  1  0  0  0  0
 16 19  2  0  0  0  0
 17 20  1  0  0  0  0
 17 21  1  0  0  0  0
 17 22  1  0  0  0  0
 23 25  1  0  0  0  0
 24 26  1  0  0  0  0
 25 27  1  0  0  0  0
 26 27  1  0  0  0  0
M  END
> <PUBCHEM_COMPOUND_ID_TYPE>
0

> <PUBCHEM_TOTAL_CHARGE>
0

> <PUBCHEM_SUBSTANCE_ID>
310934484

> <PUBCHEM_SUBSTANCE_VERSION>
1

> <PUBCHEM_EXT_DATASOURCE_NAME>
4488

> <PUBCHEM_EXT_DATASOURCE_REGID>
SCHEMBL16111965

> <PUBCHEM_SUBSTANCE_COMMENT>
InChI=1S/C21H25BrN4O/c1-21(2,15-25-10-4-3-5-11-25)27-18-8-6-16(7-9-18)17-12-23-20-19(22)13-24-26(20)14-17/h6-9,12-14H,3-5,10-11,15H2,1-2H3
InChIKey=OUYUNHXAUALHAD-UHFFFAOYSA-N

> <PUBCHEM_SUBSTANCE_SYNONYM>
SCHEMBL16111965

> <PUBCHEM_XREF_EXT_ID>
SCHEMBL16111965

> <PUBCHEM_EXT_DATASOURCE_URL>
https://www.surechembl.org/

> <PUBCHEM_EXT_SUBSTANCE_URL>
https://www.surechembl.org/chemical/SCHEMBL16111965

> <PUBCHEM_CID_ASSOCIATIONS>
117602686  1

> <PUBCHEM_COORDINATE_TYPE>
1
3

$$$$
