310937061
  -OEChem-07211613022D

 14 14  0     0  0  0  0  0  0999 V2000
    1.4408   -3.3171    0.0000 F   0  0  0  0  0  0  0  0  0  0  0  0
    0.0000   -2.4795    0.0000 O   0  0  0  0  0  0  0  0  0  0  0  0
    4.3056    0.0000    0.0000 O   0  0  0  0  0  0  0  0  0  0  0  0
    5.0260   -1.2398    0.0000 O   0  0  0  0  0  0  0  0  0  0  0  0
    2.1612   -1.2398    0.0000 C   0  0  0  0  0  0  0  0  0  0  0  0
    1.4408   -0.8377    0.0000 C   0  0  0  0  0  0  0  0  0  0  0  0
    1.4408   -2.4962    0.0000 C   0  0  0  0  0  0  0  0  0  0  0  0
    0.7204   -2.0774    0.0000 C   0  0  0  0  0  0  0  0  0  0  0  0
    2.1444   -2.0774    0.0000 C   0  0  0  0  0  0  0  0  0  0  0  0
    0.7204   -1.2398    0.0000 C   0  0  0  0  0  0  0  0  0  0  0  0
    2.8816   -0.8377    0.0000 C   0  0  0  0  0  0  0  0  0  0  0  0
    3.5852   -1.2398    0.0000 C   0  0  0  0  0  0  0  0  0  0  0  0
    1.4408   -0.0168    0.0000 C   0  0  0  0  0  0  0  0  0  0  0  0
    4.3056   -0.8377    0.0000 C   0  0  0  0  0  0  0  0  0  0  0  0
  1  7  1  0  0  0  0
  2  8  1  0  0  0  0
  3 14  2  0  0  0  0
  4 14  1  0  0  0  0
  5  6  1  0  0  0  0
  5  9  2  0  0  0  0
  5 11  1  0  0  0  0
  6 10  2  0  0  0  0
  6 13  1  0  0  0  0
  7  8  2  0  0  0  0
  7  9  1  0  0  0  0
  8 10  1  0  0  0  0
 11 12  1  0  0  0  0
 12 14  1  0  0  0  0
M  END
> <PUBCHEM_COMPOUND_ID_TYPE>
0

> <PUBCHEM_TOTAL_CHARGE>
0

> <PUBCHEM_SUBSTANCE_ID>
310937061

> <PUBCHEM_SUBSTANCE_VERSION>
1

> <PUBCHEM_EXT_DATASOURCE_NAME>
4488

> <PUBCHEM_EXT_DATASOURCE_REGID>
SCHEMBL16114771

> <PUBCHEM_SUBSTANCE_COMMENT>
InChI=1S/C10H11FO3/c1-6-4-9(12)8(11)5-7(6)2-3-10(13)14/h4-5,12H,2-3H2,1H3,(H,13,14)
InChIKey=DWUZHQGLKGESKS-UHFFFAOYSA-N

> <PUBCHEM_SUBSTANCE_SYNONYM>
SCHEMBL16114771

> <PUBCHEM_XREF_EXT_ID>
SCHEMBL16114771

> <PUBCHEM_EXT_DATASOURCE_URL>
https://www.surechembl.org/

> <PUBCHEM_EXT_SUBSTANCE_URL>
https://www.surechembl.org/chemical/SCHEMBL16114771

> <PUBCHEM_CID_ASSOCIATIONS>
84774779  1

> <PUBCHEM_COORDINATE_TYPE>
1
3

$$$$
