310937576
  -OEChem-07211613022D

 44 48  0     1  0  0  0  0  0999 V2000
   -0.7145   -2.0625    0.0000 F   0  0  0  0  0  0  0  0  0  0  0  0
    0.0000   -1.6500    0.0000 F   0  0  0  0  0  0  0  0  0  0  0  0
   -1.4290   -1.6500    0.0000 F   0  0  0  0  0  0  0  0  0  0  0  0
   -2.1434    2.0625    0.0000 F   0  0  0  0  0  0  0  0  0  0  0  0
   -2.8579    1.6500    0.0000 F   0  0  0  0  0  0  0  0  0  0  0  0
   -2.8579    0.8250    0.0000 F   0  0  0  0  0  0  0  0  0  0  0  0
    0.8007    2.0580    0.0000 O   0  0  0  0  0  0  0  0  0  0  0  0
    1.9433    2.9832    0.0000 O   0  0  0  0  0  0  0  0  0  0  0  0
    3.4750    3.5174    0.0000 O   0  0  0  0  0  0  0  0  0  0  0  0
    2.0202    1.5151    0.0000 N   0  0  0  0  0  0  0  0  0  0  0  0
    4.3323   -0.1648    0.0000 N   0  0  0  0  0  0  0  0  0  0  0  0
    4.4817    1.2564    0.0000 N   0  0  0  0  0  0  0  0  0  0  0  0
    0.7145    1.2375    0.0000 C   0  0  3  0  0  0  0  0  0  0  0  0
    0.0000    0.8250    0.0000 C   0  0  0  0  0  0  0  0  0  0  0  0
    1.4682    0.9020    0.0000 C   0  0  3  0  0  0  0  0  0  0  0  0
    1.6077    2.2295    0.0000 C   0  0  0  0  0  0  0  0  0  0  0  0
   -0.7145   -0.4125    0.0000 C   0  0  0  0  0  0  0  0  0  0  0  0
   -1.4290    0.8250    0.0000 C   0  0  0  0  0  0  0  0  0  0  0  0
   -0.7145    1.2375    0.0000 C   0  0  0  0  0  0  0  0  0  0  0  0
    0.0000    0.0000    0.0000 C   0  0  0  0  0  0  0  0  0  0  0  0
    2.8407    1.4288    0.0000 C   0  0  0  0  0  0  0  0  0  0  0  0
    3.1762    0.6752    0.0000 C   0  0  0  0  0  0  0  0  0  0  0  0
   -1.4290    0.0000    0.0000 C   0  0  0  0  0  0  0  0  0  0  0  0
   -0.7145   -1.2375    0.0000 C   0  0  0  0  0  0  0  0  0  0  0  0
   -2.1434    1.2375    0.0000 C   0  0  0  0  0  0  0  0  0  0  0  0
    3.9968    0.5889    0.0000 C   0  0  0  0  0  0  0  0  0  0  0  0
    2.6913    0.0077    0.0000 C   0  0  0  0  0  0  0  0  0  0  0  0
    1.6397    0.0950    0.0000 C   0  0  0  0  0  0  0  0  0  0  0  0
    3.0269   -0.7460    0.0000 C   0  0  0  0  0  0  0  0  0  0  0  0
    2.5420   -1.4134    0.0000 C   0  0  0  0  0  0  0  0  0  0  0  0
    3.8474   -0.8323    0.0000 C   0  0  0  0  0  0  0  0  0  0  0  0
    4.1461    2.0100    0.0000 C   0  0  3  0  0  0  0  0  0  0  0  0
    1.7214   -1.3272    0.0000 C   0  0  0  0  0  0  0  0  0  0  0  0
    2.8775   -2.1671    0.0000 C   0  0  0  0  0  0  0  0  0  0  0  0
    4.6310    2.6775    0.0000 C   0  0  0  0  0  0  0  0  0  0  0  0
    1.2365   -1.9946    0.0000 C   0  0  0  0  0  0  0  0  0  0  0  0
    3.3256    2.0963    0.0000 C   0  0  0  0  0  0  0  0  0  0  0  0
    4.2955    3.4312    0.0000 C   0  0  3  0  0  0  0  0  0  0  0  0
    2.3926   -2.8346    0.0000 C   0  0  0  0  0  0  0  0  0  0  0  0
    1.5721   -2.7483    0.0000 C   0  0  0  0  0  0  0  0  0  0  0  0
    2.9901    2.8499    0.0000 C   0  0  0  0  0  0  0  0  0  0  0  0
    4.7804    4.0986    0.0000 C   0  0  0  0  0  0  0  0  0  0  0  0
    0.4160   -1.9084    0.0000 C   0  0  0  0  0  0  0  0  0  0  0  0
    4.4449    4.8523    0.0000 C   0  0  0  0  0  0  0  0  0  0  0  0
  1 24  1  0  0  0  0
  2 24  1  0  0  0  0
  3 24  1  0  0  0  0
  4 25  1  0  0  0  0
  5 25  1  0  0  0  0
  6 25  1  0  0  0  0
 13  7  1  1  0  0  0
  7 16  1  0  0  0  0
  8 16  2  0  0  0  0
  9 38  1  0  0  0  0
  9 41  1  0  0  0  0
 10 15  1  0  0  0  0
 10 16  1  0  0  0  0
 10 21  1  0  0  0  0
 11 26  2  0  0  0  0
 11 31  1  0  0  0  0
 12 26  1  0  0  0  0
 12 32  1  0  0  0  0
 13 14  1  0  0  0  0
 13 15  1  0  0  0  0
 14 19  2  0  0  0  0
 14 20  1  0  0  0  0
 15 28  1  1  0  0  0
 17 20  2  0  0  0  0
 17 23  1  0  0  0  0
 17 24  1  0  0  0  0
 18 19  1  0  0  0  0
 18 23  2  0  0  0  0
 18 25  1  0  0  0  0
 21 22  1  0  0  0  0
 22 26  1  0  0  0  0
 22 27  2  0  0  0  0
 27 29  1  0  0  0  0
 29 30  1  0  0  0  0
 29 31  2  0  0  0  0
 30 33  1  0  0  0  0
 30 34  2  0  0  0  0
 32 35  1  0  0  0  0
 32 37  1  0  0  0  0
 33 36  2  0  0  0  0
 34 39  1  0  0  0  0
 35 38  1  0  0  0  0
 36 40  1  0  0  0  0
 36 43  1  0  0  0  0
 37 41  1  0  0  0  0
 38 42  1  0  0  0  0
 39 40  2  0  0  0  0
 42 44  1  0  0  0  0
M  END
> <PUBCHEM_COMPOUND_ID_TYPE>
0

> <PUBCHEM_TOTAL_CHARGE>
0

> <PUBCHEM_SUBSTANCE_ID>
310937576

> <PUBCHEM_SUBSTANCE_VERSION>
1

> <PUBCHEM_EXT_DATASOURCE_NAME>
4488

> <PUBCHEM_EXT_DATASOURCE_REGID>
SCHEMBL16115356

> <PUBCHEM_SUBSTANCE_COMMENT>
InChI=1S/C32H33F6N3O3/c1-4-27-15-26(8-9-43-27)40-29-23(11-22(16-39-29)20-7-5-6-18(2)10-20)17-41-19(3)28(44-30(41)42)21-12-24(31(33,34)35)14-25(13-21)32(36,37)38/h5-7,10-14,16,19,26-28H,4,8-9,15,17H2,1-3H3,(H,39,40)/t19-,26?,27?,28-/m0/s1
InChIKey=PPQHRQFDAASIKV-CRKXQSFDSA-N

> <PUBCHEM_SUBSTANCE_SYNONYM>
SCHEMBL16115356

> <PUBCHEM_XREF_EXT_ID>
SCHEMBL16115356

> <PUBCHEM_EXT_DATASOURCE_URL>
https://www.surechembl.org/

> <PUBCHEM_EXT_SUBSTANCE_URL>
https://www.surechembl.org/chemical/SCHEMBL16115356

> <PUBCHEM_CID_ASSOCIATIONS>
117605286  1

> <PUBCHEM_COORDINATE_TYPE>
1
3

> <PUBCHEM_BONDANNOTATIONS>
15  28  5
13  7  5

$$$$
