310946006
  -OEChem-07211613022D

 40 43  0     1  0  0  0  0  0999 V2000
    5.2020    0.9849    0.0000 O   0  0  0  0  0  0  0  0  0  0  0  0
    4.0645   -0.9849    0.0000 O   0  0  0  0  0  0  0  0  0  0  0  0
    1.6924    0.9710    0.0000 O   0  0  0  0  0  0  0  0  0  0  0  0
   -3.4402   -1.0959    0.0000 O   0  0  0  0  0  0  0  0  0  0  0  0
   -0.4717   -1.1098    0.0000 O   0  0  0  0  0  0  0  0  0  0  0  0
   -2.6357    0.9710    0.0000 O   0  0  0  0  0  0  0  0  0  0  0  0
    3.8425   -2.7606    0.0000 O   0  0  0  0  0  0  0  0  0  0  0  0
    2.4137   -0.2636    0.0000 N   0  0  0  0  0  0  0  0  0  0  0  0
    0.2497    0.1387    0.0000 N   0  0  0  0  0  0  0  0  0  0  0  0
   -1.9143   -0.2636    0.0000 N   0  0  0  0  0  0  0  0  0  0  0  0
   -4.2449   -1.2624    0.0000 N   0  0  0  0  0  0  0  0  0  0  0  0
    4.7720    0.3191    0.0000 C   0  0  3  0  0  0  0  0  0  0  0  0
    4.0645   -0.1110    0.0000 C   0  0  0  0  0  0  0  0  0  0  0  0
    4.3973    0.9988    0.0000 C   0  0  0  0  0  0  0  0  0  0  0  0
    3.3293    0.2913    0.0000 C   0  0  3  0  0  0  0  0  0  0  0  0
    5.4933   -0.1110    0.0000 C   0  0  0  0  0  0  0  0  0  0  0  0
    3.3431    1.3734    0.0000 C   0  0  0  0  0  0  0  0  0  0  0  0
    1.6786    0.1526    0.0000 C   0  0  0  0  0  0  0  0  0  0  0  0
    0.9710   -0.2359    0.0000 C   0  0  3  0  0  0  0  0  0  0  0  0
    2.6079    1.7896    0.0000 C   0  0  0  0  0  0  0  0  0  0  0  0
    0.9572   -1.0959    0.0000 C   0  0  0  0  0  0  0  0  0  0  0  0
   -0.4578   -0.2220    0.0000 C   0  0  0  0  0  0  0  0  0  0  0  0
    1.7063   -1.4843    0.0000 C   0  0  0  0  0  0  0  0  0  0  0  0
   -1.1930    0.1665    0.0000 C   0  0  3  0  0  0  0  0  0  0  0  0
   -3.3431   -0.2497    0.0000 C   0  0  0  0  0  0  0  0  0  0  0  0
    1.8588    1.4704    0.0000 C   0  0  0  0  0  0  0  0  0  0  0  0
    2.5386    2.5940    0.0000 C   0  0  0  0  0  0  0  0  0  0  0  0
   -2.6357    0.1526    0.0000 C   0  0  0  0  0  0  0  0  0  0  0  0
   -4.1061    0.0833    0.0000 C   0  0  0  0  0  0  0  0  0  0  0  0
   -4.6610   -0.5272    0.0000 C   0  0  0  0  0  0  0  0  0  0  0  0
    1.3317    2.0530    0.0000 C   0  0  0  0  0  0  0  0  0  0  0  0
    1.7340    2.7606    0.0000 C   0  0  0  0  0  0  0  0  0  0  0  0
    1.7063   -2.3166    0.0000 C   0  0  0  0  0  0  0  0  0  0  0  0
    2.3998   -1.0959    0.0000 C   0  0  0  0  0  0  0  0  0  0  0  0
    3.1211   -2.3166    0.0000 C   0  0  0  0  0  0  0  0  0  0  0  0
    2.4137   -2.7328    0.0000 C   0  0  0  0  0  0  0  0  0  0  0  0
    3.1350   -1.4982    0.0000 C   0  0  0  0  0  0  0  0  0  0  0  0
   -1.1930    0.9849    0.0000 C   0  0  0  0  0  0  0  0  0  0  0  0
   -5.4933   -0.4578    0.0000 C   0  0  0  0  0  0  0  0  0  0  0  0
    4.5916   -2.3166    0.0000 C   0  0  0  0  0  0  0  0  0  0  0  0
  1 12  1  0  0  0  0
  1 14  1  0  0  0  0
  2 13  2  0  0  0  0
  3 18  2  0  0  0  0
  4 11  1  0  0  0  0
  4 25  1  0  0  0  0
  5 22  2  0  0  0  0
  6 28  2  0  0  0  0
  7 35  1  0  0  0  0
  7 40  1  0  0  0  0
 15  8  1  1  0  0  0
  8 18  1  0  0  0  0
 19  9  1  6  0  0  0
  9 22  1  0  0  0  0
 10 24  1  0  0  0  0
 10 28  1  0  0  0  0
 11 30  2  0  0  0  0
 12 13  1  1  0  0  0
 12 14  1  0  0  0  0
 12 16  1  6  0  0  0
 13 15  1  0  0  0  0
 15 17  1  0  0  0  0
 17 20  1  0  0  0  0
 18 19  1  0  0  0  0
 19 21  1  0  0  0  0
 20 26  1  0  0  0  0
 20 27  1  0  0  0  0
 21 23  1  0  0  0  0
 22 24  1  0  0  0  0
 23 33  2  0  0  0  0
 23 34  1  0  0  0  0
 24 38  1  6  0  0  0
 25 28  1  0  0  0  0
 25 29  2  0  0  0  0
 26 31  1  0  0  0  0
 27 32  1  0  0  0  0
 29 30  1  0  0  0  0
 30 39  1  0  0  0  0
 31 32  1  0  0  0  0
 33 36  1  0  0  0  0
 34 37  2  0  0  0  0
 35 36  2  0  0  0  0
 35 37  1  0  0  0  0
M  END
> <PUBCHEM_COMPOUND_ID_TYPE>
0

> <PUBCHEM_TOTAL_CHARGE>
0

> <PUBCHEM_SUBSTANCE_ID>
310946006

> <PUBCHEM_SUBSTANCE_VERSION>
1

> <PUBCHEM_EXT_DATASOURCE_NAME>
4488

> <PUBCHEM_EXT_DATASOURCE_REGID>
SCHEMBL16124112

> <PUBCHEM_SUBSTANCE_COMMENT>
InChI=1S/C29H38N4O7/c1-17-13-24(40-33-17)28(37)30-18(2)26(35)32-23(15-20-9-11-21(38-4)12-10-20)27(36)31-22(14-19-7-5-6-8-19)25(34)29(3)16-39-29/h9-13,18-19,22-23H,5-8,14-16H2,1-4H3,(H,30,37)(H,31,36)(H,32,35)/t18-,22+,23+,29-/m1/s1
InChIKey=DPAGPIAHKZXUDM-KBSQQMHRSA-N

> <PUBCHEM_SUBSTANCE_SYNONYM>
SCHEMBL16124112

> <PUBCHEM_XREF_EXT_ID>
SCHEMBL16124112

> <PUBCHEM_EXT_DATASOURCE_URL>
https://www.surechembl.org/

> <PUBCHEM_EXT_SUBSTANCE_URL>
https://www.surechembl.org/chemical/SCHEMBL16124112

> <PUBCHEM_CID_ASSOCIATIONS>
117611977  1

> <PUBCHEM_COORDINATE_TYPE>
1
3

> <PUBCHEM_BONDANNOTATIONS>
12  13  5
12  16  6
24  38  6
15  8  5
19  9  6

$$$$
