310941139
  -OEChem-07211613022D

 42 45  0     1  0  0  0  0  0999 V2000
    0.6831   -2.0136    0.0000 F   0  0  0  0  0  0  0  0  0  0  0  0
    1.0957   -2.7394    0.0000 F   0  0  0  0  0  0  0  0  0  0  0  0
    5.0660   -0.8894    0.0000 O   0  0  0  0  0  0  0  0  0  0  0  0
    3.9418    1.0744    0.0000 O   0  0  0  0  0  0  0  0  0  0  0  0
    1.7930   -0.8040    0.0000 O   0  0  0  0  0  0  0  0  0  0  0  0
   -0.3558    1.0744    0.0000 O   0  0  0  0  0  0  0  0  0  0  0  0
    3.9418    2.7394    0.0000 O   0  0  0  0  0  0  0  0  0  0  0  0
   -2.5046   -1.0033    0.0000 O   0  0  0  0  0  0  0  0  0  0  0  0
   -5.3790   -1.0033    0.0000 O   0  0  0  0  0  0  0  0  0  0  0  0
    2.5046    0.2348    0.0000 N   0  0  0  0  0  0  0  0  0  0  0  0
    0.3558   -0.1779    0.0000 N   0  0  0  0  0  0  0  0  0  0  0  0
   -1.7930    0.2348    0.0000 N   0  0  0  0  0  0  0  0  0  0  0  0
   -3.9418   -0.1779    0.0000 N   0  0  0  0  0  0  0  0  0  0  0  0
    4.6675   -0.1636    0.0000 C   0  0  3  0  0  0  0  0  0  0  0  0
    3.8849    0.2490    0.0000 C   0  0  0  0  0  0  0  0  0  0  0  0
    4.2691   -0.8752    0.0000 C   0  0  0  0  0  0  0  0  0  0  0  0
    3.2445   -0.1494    0.0000 C   0  0  3  0  0  0  0  0  0  0  0  0
    2.5046   -1.4017    0.0000 C   0  0  0  0  0  0  0  0  0  0  0  0
    3.2303   -0.9747    0.0000 C   0  0  0  0  0  0  0  0  0  0  0  0
    1.4942   -1.9993    0.0000 C   0  0  0  0  0  0  0  0  0  0  0  0
    5.3790    0.2632    0.0000 C   0  0  0  0  0  0  0  0  0  0  0  0
    1.7219   -1.2024    0.0000 C   0  0  0  0  0  0  0  0  0  0  0  0
    2.2911   -2.1986    0.0000 C   0  0  0  0  0  0  0  0  0  0  0  0
    1.8073   -0.1494    0.0000 C   0  0  0  0  0  0  0  0  0  0  0  0
    1.0815    0.2632    0.0000 C   0  0  3  0  0  0  0  0  0  0  0  0
    1.0957    1.0886    0.0000 C   0  0  0  0  0  0  0  0  0  0  0  0
    1.7788    1.5155    0.0000 C   0  0  0  0  0  0  0  0  0  0  0  0
   -0.3700    0.2348    0.0000 C   0  0  0  0  0  0  0  0  0  0  0  0
   -1.0673   -0.1494    0.0000 C   0  0  3  0  0  0  0  0  0  0  0  0
    2.5188    1.1029    0.0000 C   0  0  0  0  0  0  0  0  0  0  0  0
    1.8073    2.3409    0.0000 C   0  0  0  0  0  0  0  0  0  0  0  0
    3.2303    2.3409    0.0000 C   0  0  0  0  0  0  0  0  0  0  0  0
    3.2303    1.5155    0.0000 C   0  0  0  0  0  0  0  0  0  0  0  0
    2.5046    2.7394    0.0000 C   0  0  0  0  0  0  0  0  0  0  0  0
   -2.5046   -0.1352    0.0000 C   0  0  0  0  0  0  0  0  0  0  0  0
   -1.0673   -0.9605    0.0000 C   0  0  0  0  0  0  0  0  0  0  0  0
   -3.2303    0.2490    0.0000 C   0  0  0  0  0  0  0  0  0  0  0  0
   -3.9418   -0.9890    0.0000 C   0  0  0  0  0  0  0  0  0  0  0  0
   -4.6675    0.2490    0.0000 C   0  0  0  0  0  0  0  0  0  0  0  0
   -4.6391   -1.3875    0.0000 C   0  0  0  0  0  0  0  0  0  0  0  0
   -5.3506   -0.1494    0.0000 C   0  0  0  0  0  0  0  0  0  0  0  0
    4.6817    2.3124    0.0000 C   0  0  0  0  0  0  0  0  0  0  0  0
  1 20  1  0  0  0  0
  2 20  1  0  0  0  0
  3 14  1  0  0  0  0
  3 16  1  0  0  0  0
  4 15  2  0  0  0  0
  5 24  2  0  0  0  0
  6 28  2  0  0  0  0
  7 32  1  0  0  0  0
  7 42  1  0  0  0  0
  8 35  2  0  0  0  0
  9 40  1  0  0  0  0
  9 41  1  0  0  0  0
 17 10  1  6  0  0  0
 10 24  1  0  0  0  0
 25 11  1  1  0  0  0
 11 28  1  0  0  0  0
 12 29  1  0  0  0  0
 12 35  1  0  0  0  0
 13 37  1  0  0  0  0
 13 38  1  0  0  0  0
 13 39  1  0  0  0  0
 14 15  1  6  0  0  0
 14 16  1  0  0  0  0
 14 21  1  1  0  0  0
 15 17  1  0  0  0  0
 17 19  1  0  0  0  0
 18 19  1  0  0  0  0
 18 22  1  0  0  0  0
 18 23  1  0  0  0  0
 20 22  1  0  0  0  0
 20 23  1  0  0  0  0
 24 25  1  0  0  0  0
 25 26  1  0  0  0  0
 26 27  1  0  0  0  0
 27 30  2  0  0  0  0
 27 31  1  0  0  0  0
 28 29  1  0  0  0  0
 29 36  1  6  0  0  0
 30 33  1  0  0  0  0
 31 34  2  0  0  0  0
 32 33  2  0  0  0  0
 32 34  1  0  0  0  0
 35 37  1  0  0  0  0
 38 40  1  0  0  0  0
 39 41  1  0  0  0  0
M  END
> <PUBCHEM_COMPOUND_ID_TYPE>
0

> <PUBCHEM_TOTAL_CHARGE>
0

> <PUBCHEM_SUBSTANCE_ID>
310941139

> <PUBCHEM_SUBSTANCE_VERSION>
1

> <PUBCHEM_EXT_DATASOURCE_NAME>
4488

> <PUBCHEM_EXT_DATASOURCE_REGID>
SCHEMBL16119099

> <PUBCHEM_SUBSTANCE_COMMENT>
InChI=1S/C29H40F2N4O7/c1-18(32-24(36)16-35-8-10-41-11-9-35)26(38)34-23(12-19-4-6-21(40-3)7-5-19)27(39)33-22(25(37)28(2)17-42-28)13-20-14-29(30,31)15-20/h4-7,18,20,22-23H,8-17H2,1-3H3,(H,32,36)(H,33,39)(H,34,38)/t18-,22-,23-,28+/m0/s1
InChIKey=GMPMSJMODPMTLJ-IFSSTPPCSA-N

> <PUBCHEM_SUBSTANCE_SYNONYM>
SCHEMBL16119099

> <PUBCHEM_XREF_EXT_ID>
SCHEMBL16119099

> <PUBCHEM_EXT_DATASOURCE_URL>
https://www.surechembl.org/

> <PUBCHEM_EXT_SUBSTANCE_URL>
https://www.surechembl.org/chemical/SCHEMBL16119099

> <PUBCHEM_CID_ASSOCIATIONS>
117608021  1

> <PUBCHEM_COORDINATE_TYPE>
1
3

> <PUBCHEM_BONDANNOTATIONS>
17  10  6
25  11  5
14  15  6
14  21  5
29  36  6

$$$$
