310937567
  -OEChem-07211613022D

 42 46  0     1  0  0  0  0  0999 V2000
    5.4719   -6.1927    0.0000 F   0  0  0  0  0  0  0  0  0  0  0  0
    6.9136   -6.0617    0.0000 F   0  0  0  0  0  0  0  0  0  0  0  0
    5.3736   -5.3736    0.0000 F   0  0  0  0  0  0  0  0  0  0  0  0
    9.2072   -4.3906    0.0000 F   0  0  0  0  0  0  0  0  0  0  0  0
    8.3552   -3.2110    0.0000 F   0  0  0  0  0  0  0  0  0  0  0  0
    8.5518   -4.8493    0.0000 F   0  0  0  0  0  0  0  0  0  0  0  0
    6.0944   -2.0970    0.0000 O   0  0  0  0  0  0  0  0  0  0  0  0
    4.2595   -5.1770    0.0000 O   0  0  0  0  0  0  0  0  0  0  0  0
    5.4391   -0.7864    0.0000 O   0  0  0  0  0  0  0  0  0  0  0  0
    4.7510   -2.0970    0.0000 N   0  0  0  0  0  0  0  0  0  0  0  0
    3.5387   -3.1783    0.0000 N   0  0  0  0  0  0  0  0  0  0  0  0
    3.9319   -4.4561    0.0000 N   0  0  0  0  0  0  0  0  0  0  0  0
    1.9660   -2.6868    0.0000 N   0  0  0  0  0  0  0  0  0  0  0  0
    2.3919   -1.3106    0.0000 N   0  0  0  0  0  0  0  0  0  0  0  0
    5.8323   -2.8834    0.0000 C   0  0  3  0  0  0  0  0  0  0  0  0
    5.0131   -2.8834    0.0000 C   0  0  3  0  0  0  0  0  0  0  0  0
    6.3238   -3.5387    0.0000 C   0  0  0  0  0  0  0  0  0  0  0  0
    5.4391   -1.6055    0.0000 C   0  0  0  0  0  0  0  0  0  0  0  0
    3.1127   -4.5544    0.0000 C   0  0  3  0  0  0  0  0  0  0  0  0
    3.3421   -2.3919    0.0000 C   0  0  0  0  0  0  0  0  0  0  0  0
    2.9162   -3.7680    0.0000 C   0  0  0  0  0  0  0  0  0  0  0  0
    3.9646   -1.8349    0.0000 C   0  0  0  0  0  0  0  0  0  0  0  0
    6.4876   -4.9804    0.0000 C   0  0  0  0  0  0  0  0  0  0  0  0
    7.6344   -4.1285    0.0000 C   0  0  0  0  0  0  0  0  0  0  0  0
    7.1429   -3.4732    0.0000 C   0  0  0  0  0  0  0  0  0  0  0  0
    5.9961   -4.2923    0.0000 C   0  0  0  0  0  0  0  0  0  0  0  0
    2.5885   -2.1298    0.0000 C   0  0  0  0  0  0  0  0  0  0  0  0
    7.3068   -4.8821    0.0000 C   0  0  0  0  0  0  0  0  0  0  0  0
    6.1272   -5.7340    0.0000 C   0  0  0  0  0  0  0  0  0  0  0  0
    8.4535   -4.0302    0.0000 C   0  0  0  0  0  0  0  0  0  0  0  0
    2.9489   -5.3736    0.0000 C   0  0  0  0  0  0  0  0  0  0  0  0
    2.1298   -3.4732    0.0000 C   0  0  0  0  0  0  0  0  0  0  0  0
    3.7025   -5.7340    0.0000 C   0  0  0  0  0  0  0  0  0  0  0  0
    4.5217   -3.5387    0.0000 C   0  0  0  0  0  0  0  0  0  0  0  0
    2.3264   -4.8166    0.0000 C   0  0  0  0  0  0  0  0  0  0  0  0
    1.6055   -1.0813    0.0000 C   0  0  0  0  0  0  0  0  0  0  0  0
    3.8008   -6.5531    0.0000 C   0  0  0  0  0  0  0  0  0  0  0  0
    0.9830   -1.6055    0.0000 C   0  0  0  0  0  0  0  0  0  0  0  0
    1.4089   -0.2621    0.0000 C   0  0  0  0  0  0  0  0  0  0  0  0
    0.1966   -1.3434    0.0000 C   0  0  0  0  0  0  0  0  0  0  0  0
    0.6553    0.0000    0.0000 C   0  0  0  0  0  0  0  0  0  0  0  0
    0.0000   -0.5570    0.0000 C   0  0  0  0  0  0  0  0  0  0  0  0
  1 29  1  0  0  0  0
  2 29  1  0  0  0  0
  3 29  1  0  0  0  0
  4 30  1  0  0  0  0
  5 30  1  0  0  0  0
  6 30  1  0  0  0  0
 15  7  1  6  0  0  0
  7 18  1  0  0  0  0
  8 12  1  0  0  0  0
  8 33  1  0  0  0  0
  9 18  2  0  0  0  0
 10 16  1  0  0  0  0
 10 18  1  0  0  0  0
 10 22  1  0  0  0  0
 11 20  2  0  0  0  0
 11 21  1  0  0  0  0
 12 19  1  0  0  0  0
 13 27  2  0  0  0  0
 13 32  1  0  0  0  0
 14 27  1  0  0  0  0
 14 36  1  0  0  0  0
 15 16  1  0  0  0  0
 15 17  1  0  0  0  0
 16 34  1  6  0  0  0
 17 25  2  0  0  0  0
 17 26  1  0  0  0  0
 19 21  1  0  0  0  0
 19 31  1  0  0  0  0
 19 35  1  0  0  0  0
 20 22  1  0  0  0  0
 20 27  1  0  0  0  0
 21 32  2  0  0  0  0
 23 26  2  0  0  0  0
 23 28  1  0  0  0  0
 23 29  1  0  0  0  0
 24 25  1  0  0  0  0
 24 28  2  0  0  0  0
 24 30  1  0  0  0  0
 31 33  2  0  0  0  0
 33 37  1  0  0  0  0
 36 38  1  0  0  0  0
 36 39  1  0  0  0  0
 38 40  1  0  0  0  0
 39 41  1  0  0  0  0
 40 42  1  0  0  0  0
 41 42  1  0  0  0  0
M  END
> <PUBCHEM_COMPOUND_ID_TYPE>
0

> <PUBCHEM_TOTAL_CHARGE>
0

> <PUBCHEM_SUBSTANCE_ID>
310937567

> <PUBCHEM_SUBSTANCE_VERSION>
1

> <PUBCHEM_EXT_DATASOURCE_NAME>
4488

> <PUBCHEM_EXT_DATASOURCE_REGID>
SCHEMBL16115346

> <PUBCHEM_SUBSTANCE_COMMENT>
InChI=1S/C28H31F6N5O3/c1-15-12-26(3,38-42-15)22-13-35-24(36-20-7-5-4-6-8-20)21(37-22)14-39-16(2)23(41-25(39)40)17-9-18(27(29,30)31)11-19(10-17)28(32,33)34/h9-13,16,20,23,38H,4-8,14H2,1-3H3,(H,35,36)/t16-,23-,26?/m0/s1
InChIKey=RNSRRXBCINNCAC-YPUAEZPCSA-N

> <PUBCHEM_SUBSTANCE_SYNONYM>
SCHEMBL16115346

> <PUBCHEM_XREF_EXT_ID>
SCHEMBL16115346

> <PUBCHEM_EXT_DATASOURCE_URL>
https://www.surechembl.org/

> <PUBCHEM_EXT_SUBSTANCE_URL>
https://www.surechembl.org/chemical/SCHEMBL16115346

> <PUBCHEM_CID_ASSOCIATIONS>
117605281  1

> <PUBCHEM_COORDINATE_TYPE>
1
3

> <PUBCHEM_BONDANNOTATIONS>
16  34  6
15  7  6

$$$$
