310940955
  -OEChem-07211613022D

 42 45  0     1  0  0  0  0  0999 V2000
    5.1795    0.7823    0.0000 O   0  0  0  0  0  0  0  0  0  0  0  0
    4.0494   -1.1591    0.0000 O   0  0  0  0  0  0  0  0  0  0  0  0
    1.6879    0.7823    0.0000 O   0  0  0  0  0  0  0  0  0  0  0  0
    3.1367    2.9411    0.0000 O   0  0  0  0  0  0  0  0  0  0  0  0
   -0.4709   -1.2895    0.0000 O   0  0  0  0  0  0  0  0  0  0  0  0
    3.8321   -2.9411    0.0000 O   0  0  0  0  0  0  0  0  0  0  0  0
   -2.6152    0.7823    0.0000 O   0  0  0  0  0  0  0  0  0  0  0  0
   -5.4693    0.7823    0.0000 O   0  0  0  0  0  0  0  0  0  0  0  0
    2.3978   -0.4637    0.0000 N   0  0  0  0  0  0  0  0  0  0  0  0
    2.6152    1.5648    0.0000 N   0  0  0  0  0  0  0  0  0  0  0  0
    0.2536   -0.0435    0.0000 N   0  0  0  0  0  0  0  0  0  0  0  0
   -1.8906   -0.4637    0.0000 N   0  0  0  0  0  0  0  0  0  0  0  0
   -4.0349   -0.0435    0.0000 N   0  0  0  0  0  0  0  0  0  0  0  0
    4.7594    0.1160    0.0000 C   0  0  3  0  0  0  0  0  0  0  0  0
    4.0349   -0.2898    0.0000 C   0  0  0  0  0  0  0  0  0  0  0  0
    4.3827    0.8114    0.0000 C   0  0  0  0  0  0  0  0  0  0  0  0
    3.3396    0.1014    0.0000 C   0  0  3  0  0  0  0  0  0  0  0  0
    5.4693   -0.3043    0.0000 C   0  0  0  0  0  0  0  0  0  0  0  0
    3.3396    1.1736    0.0000 C   0  0  0  0  0  0  0  0  0  0  0  0
    1.6733   -0.0435    0.0000 C   0  0  0  0  0  0  0  0  0  0  0  0
    0.9925   -0.4202    0.0000 C   0  0  3  0  0  0  0  0  0  0  0  0
    2.5138    2.3906    0.0000 C   0  0  0  0  0  0  0  0  0  0  0  0
    1.8762    1.2605    0.0000 C   0  0  0  0  0  0  0  0  0  0  0  0
    0.9634   -1.2750    0.0000 C   0  0  0  0  0  0  0  0  0  0  0  0
    1.7313    2.5789    0.0000 C   0  0  0  0  0  0  0  0  0  0  0  0
    1.7023   -1.6661    0.0000 C   0  0  0  0  0  0  0  0  0  0  0  0
    1.3257    1.8545    0.0000 C   0  0  0  0  0  0  0  0  0  0  0  0
   -0.4419   -0.4057    0.0000 C   0  0  0  0  0  0  0  0  0  0  0  0
   -1.1808   -0.0145    0.0000 C   0  0  3  0  0  0  0  0  0  0  0  0
    2.3978   -1.2750    0.0000 C   0  0  0  0  0  0  0  0  0  0  0  0
    1.7023   -2.4920    0.0000 C   0  0  0  0  0  0  0  0  0  0  0  0
    3.1077   -2.4920    0.0000 C   0  0  0  0  0  0  0  0  0  0  0  0
    3.1222   -1.6806    0.0000 C   0  0  0  0  0  0  0  0  0  0  0  0
    2.4123   -2.8976    0.0000 C   0  0  0  0  0  0  0  0  0  0  0  0
   -2.6152   -0.0435    0.0000 C   0  0  0  0  0  0  0  0  0  0  0  0
   -1.1663    0.7968    0.0000 C   0  0  0  0  0  0  0  0  0  0  0  0
   -3.2961   -0.4202    0.0000 C   0  0  0  0  0  0  0  0  0  0  0  0
   -4.0349    0.7968    0.0000 C   0  0  0  0  0  0  0  0  0  0  0  0
   -4.7304   -0.4202    0.0000 C   0  0  0  0  0  0  0  0  0  0  0  0
   -4.7449    1.2170    0.0000 C   0  0  0  0  0  0  0  0  0  0  0  0
   -5.4548   -0.0145    0.0000 C   0  0  0  0  0  0  0  0  0  0  0  0
    4.5420   -2.4920    0.0000 C   0  0  0  0  0  0  0  0  0  0  0  0
  1 14  1  0  0  0  0
  1 16  1  0  0  0  0
  2 15  2  0  0  0  0
  3 20  2  0  0  0  0
  4 22  2  0  0  0  0
  5 28  2  0  0  0  0
  6 32  1  0  0  0  0
  6 42  1  0  0  0  0
  7 35  2  0  0  0  0
  8 40  1  0  0  0  0
  8 41  1  0  0  0  0
 17  9  1  1  0  0  0
  9 20  1  0  0  0  0
 10 19  1  0  0  0  0
 10 22  1  0  0  0  0
 10 23  1  0  0  0  0
 21 11  1  6  0  0  0
 11 28  1  0  0  0  0
 12 29  1  0  0  0  0
 12 35  1  0  0  0  0
 13 37  1  0  0  0  0
 13 38  1  0  0  0  0
 13 39  1  0  0  0  0
 14 15  1  1  0  0  0
 14 16  1  0  0  0  0
 14 18  1  6  0  0  0
 15 17  1  0  0  0  0
 17 19  1  0  0  0  0
 20 21  1  0  0  0  0
 21 24  1  0  0  0  0
 22 25  1  0  0  0  0
 23 27  1  0  0  0  0
 24 26  1  0  0  0  0
 25 27  1  0  0  0  0
 26 30  2  0  0  0  0
 26 31  1  0  0  0  0
 28 29  1  0  0  0  0
 29 36  1  1  0  0  0
 30 33  1  0  0  0  0
 31 34  2  0  0  0  0
 32 33  2  0  0  0  0
 32 34  1  0  0  0  0
 35 37  1  0  0  0  0
 38 40  1  0  0  0  0
 39 41  1  0  0  0  0
M  END
> <PUBCHEM_COMPOUND_ID_TYPE>
0

> <PUBCHEM_TOTAL_CHARGE>
0

> <PUBCHEM_SUBSTANCE_ID>
310940955

> <PUBCHEM_SUBSTANCE_VERSION>
1

> <PUBCHEM_EXT_DATASOURCE_NAME>
4488

> <PUBCHEM_EXT_DATASOURCE_REGID>
SCHEMBL16118914

> <PUBCHEM_SUBSTANCE_COMMENT>
InChI=1S/C29H41N5O8/c1-19(30-24(35)17-33-11-13-41-14-12-33)27(38)31-22(15-20-6-8-21(40-3)9-7-20)28(39)32-23(26(37)29(2)18-42-29)16-34-10-4-5-25(34)36/h6-9,19,22-23H,4-5,10-18H2,1-3H3,(H,30,35)(H,31,38)(H,32,39)/t19-,22-,23-,29+/m0/s1
InChIKey=XNKUTIIFFXIMDA-GCNCJWNFSA-N

> <PUBCHEM_SUBSTANCE_SYNONYM>
SCHEMBL16118914

> <PUBCHEM_XREF_EXT_ID>
SCHEMBL16118914

> <PUBCHEM_EXT_DATASOURCE_URL>
https://www.surechembl.org/

> <PUBCHEM_EXT_SUBSTANCE_URL>
https://www.surechembl.org/chemical/SCHEMBL16118914

> <PUBCHEM_CID_ASSOCIATIONS>
117607863  1

> <PUBCHEM_COORDINATE_TYPE>
1
3

> <PUBCHEM_BONDANNOTATIONS>
21  11  6
14  15  5
14  18  6
29  36  5
17  9  5

$$$$
