310946805
  -OEChem-07211613022D

 34 38  0     1  0  0  0  0  0999 V2000
    1.9469   -1.9297    0.0000 S   0  0  0  0  0  0  0  0  0  0  0  0
    1.8779   -2.7566    0.0000 O   0  0  0  0  0  0  0  0  0  0  0  0
    2.7738   -2.1019    0.0000 O   0  0  0  0  0  0  0  0  0  0  0  0
   -1.4989    2.7566    0.0000 O   0  0  0  0  0  0  0  0  0  0  0  0
   -3.0667   -1.7057    0.0000 O   0  0  0  0  0  0  0  0  0  0  0  0
   -1.5850    0.6375    0.0000 N   0  0  0  0  0  0  0  0  0  0  0  0
    2.1880   -1.1543    0.0000 N   0  0  3  0  0  0  0  0  0  0  0  0
   -1.0854   -0.0172    0.0000 N   0  0  0  0  0  0  0  0  0  0  0  0
   -1.3094   -1.4817    0.0000 N   0  0  0  0  0  0  0  0  0  0  0  0
   -3.7904   -0.4652    0.0000 N   0  0  0  0  0  0  0  0  0  0  0  0
    0.7236    2.0847    0.0000 N   0  0  0  0  0  0  0  0  0  0  0  0
   -2.3603    0.3962    0.0000 C   0  0  0  0  0  0  0  0  0  0  0  0
   -1.3439    1.4472    0.0000 C   0  0  3  0  0  0  0  0  0  0  0  0
    1.1027   -1.9469    0.0000 C   0  0  0  0  0  0  0  0  0  0  0  0
   -2.3776   -0.4307    0.0000 C   0  0  0  0  0  0  0  0  0  0  0  0
   -1.5678   -0.6891    0.0000 C   0  0  0  0  0  0  0  0  0  0  0  0
    0.8614   -1.1716    0.0000 C   0  0  0  0  0  0  0  0  0  0  0  0
    1.5161   -0.6719    0.0000 C   0  0  0  0  0  0  0  0  0  0  0  0
    2.9978   -0.8787    0.0000 C   0  0  0  0  0  0  0  0  0  0  0  0
   -0.4997   -1.6195    0.0000 C   0  0  0  0  0  0  0  0  0  0  0  0
   -3.0667   -0.8442    0.0000 C   0  0  0  0  0  0  0  0  0  0  0  0
    0.0517   -1.0165    0.0000 C   0  0  0  0  0  0  0  0  0  0  0  0
    0.5858   -2.5499    0.0000 C   0  0  0  0  0  0  0  0  0  0  0  0
   -3.1011    0.7753    0.0000 C   0  0  0  0  0  0  0  0  0  0  0  0
   -0.9476    2.1708    0.0000 C   0  0  0  0  0  0  0  0  0  0  0  0
   -2.1536    1.6022    0.0000 C   0  0  0  0  0  0  0  0  0  0  0  0
   -0.2068   -2.3948    0.0000 C   0  0  0  0  0  0  0  0  0  0  0  0
   -0.5686    1.0854    0.0000 C   0  0  0  0  0  0  0  0  0  0  0  0
   -3.7731    0.3790    0.0000 C   0  0  0  0  0  0  0  0  0  0  0  0
   -2.2398    2.4292    0.0000 C   0  0  0  0  0  0  0  0  0  0  0  0
    2.7394   -0.0861    0.0000 C   0  0  0  0  0  0  0  0  0  0  0  0
    3.7904   -0.6547    0.0000 C   0  0  0  0  0  0  0  0  0  0  0  0
    3.2218   -1.6884    0.0000 C   0  0  0  0  0  0  0  0  0  0  0  0
    0.0861    1.6022    0.0000 C   0  0  0  0  0  0  0  0  0  0  0  0
  1  2  2  0  0  0  0
  1  3  2  0  0  0  0
  1  7  1  0  0  0  0
  1 14  1  0  0  0  0
  4 25  1  0  0  0  0
  4 30  1  0  0  0  0
  5 21  2  0  0  0  0
  6  8  1  0  0  0  0
  6 12  1  0  0  0  0
  6 13  1  0  0  0  0
  7 18  1  0  0  0  0
  7 19  1  0  0  0  0
  8 16  2  0  0  0  0
  9 16  1  0  0  0  0
  9 20  1  0  0  0  0
 10 21  1  0  0  0  0
 10 29  1  0  0  0  0
 11 34  3  0  0  0  0
 12 15  2  0  0  0  0
 12 24  1  0  0  0  0
 13 25  1  0  0  0  0
 13 26  1  0  0  0  0
 13 28  1  6  0  0  0
 14 17  1  0  0  0  0
 14 23  2  0  0  0  0
 15 16  1  0  0  0  0
 15 21  1  0  0  0  0
 17 18  1  0  0  0  0
 17 22  2  0  0  0  0
 19 31  1  0  0  0  0
 19 32  1  0  0  0  0
 19 33  1  0  0  0  0
 20 22  1  0  0  0  0
 20 27  2  0  0  0  0
 23 27  1  0  0  0  0
 24 29  2  0  0  0  0
 26 30  1  0  0  0  0
 28 34  1  0  0  0  0
M  END
> <PUBCHEM_COMPOUND_ID_TYPE>
0

> <PUBCHEM_TOTAL_CHARGE>
0

> <PUBCHEM_SUBSTANCE_ID>
310946805

> <PUBCHEM_SUBSTANCE_VERSION>
1

> <PUBCHEM_EXT_DATASOURCE_NAME>
4488

> <PUBCHEM_EXT_DATASOURCE_REGID>
SCHEMBL16124929

> <PUBCHEM_SUBSTANCE_COMMENT>
InChI=1S/C23H26N6O4S/c1-22(2,3)28-13-15-12-16(4-5-18(15)34(28,31)32)26-20-19-17(6-10-25-21(19)30)29(27-20)23(7-9-24)8-11-33-14-23/h4-6,10,12H,7-8,11,13-14H2,1-3H3,(H,25,30)(H,26,27)/t23-/m0/s1
InChIKey=HSHNFLXETCFKET-QHCPKHFHSA-N

> <PUBCHEM_SUBSTANCE_SYNONYM>
SCHEMBL16124929

> <PUBCHEM_XREF_EXT_ID>
SCHEMBL16124929

> <PUBCHEM_EXT_DATASOURCE_URL>
https://www.surechembl.org/

> <PUBCHEM_EXT_SUBSTANCE_URL>
https://www.surechembl.org/chemical/SCHEMBL16124929

> <PUBCHEM_CID_ASSOCIATIONS>
117612666  1

> <PUBCHEM_COORDINATE_TYPE>
1
3

> <PUBCHEM_BONDANNOTATIONS>
13  28  6

$$$$
