310929989
  -OEChem-07211613022D

 48 48  0     0  0  0  0  0  0999 V2000
   -3.7150   -0.5880    0.0000 O   0  0  0  0  0  0  0  0  0  0  0  0
   -5.1439   -0.5880    0.0000 O   0  0  0  0  0  0  0  0  0  0  0  0
   -4.4295   -1.8255    0.0000 N   0  0  0  0  0  0  0  0  0  0  0  0
   -2.2860    1.8870    0.0000 N   0  0  0  0  0  0  0  0  0  0  0  0
   -4.4295   -1.0005    0.0000 C   0  0  0  0  0  0  0  0  0  0  0  0
   -5.1439   -2.2380    0.0000 C   0  0  0  0  0  0  0  0  0  0  0  0
   -3.7150   -2.2380    0.0000 C   0  0  0  0  0  0  0  0  0  0  0  0
   -3.0005    1.4745    0.0000 C   0  0  0  0  0  0  0  0  0  0  0  0
   -3.7150    0.2370    0.0000 C   0  0  0  0  0  0  0  0  0  0  0  0
   -2.1998    2.7075    0.0000 C   0  0  0  0  0  0  0  0  0  0  0  0
   -1.5324    1.5515    0.0000 C   0  0  0  0  0  0  0  0  0  0  0  0
   -3.0005    0.6495    0.0000 C   0  0  0  0  0  0  0  0  0  0  0  0
   -1.3928    2.8790    0.0000 C   0  0  0  0  0  0  0  0  0  0  0  0
   -0.9803    2.1646    0.0000 C   0  0  0  0  0  0  0  0  0  0  0  0
   -5.8584   -1.8255    0.0000 C   0  0  0  0  0  0  0  0  0  0  0  0
   -3.0005   -1.8255    0.0000 C   0  0  0  0  0  0  0  0  0  0  0  0
   -5.8584   -1.0005    0.0000 C   0  0  0  0  0  0  0  0  0  0  0  0
   -2.2860   -2.2380    0.0000 C   0  0  0  0  0  0  0  0  0  0  0  0
   -6.5729   -0.5880    0.0000 C   0  0  0  0  0  0  0  0  0  0  0  0
   -1.5716   -1.8255    0.0000 C   0  0  0  0  0  0  0  0  0  0  0  0
   -7.2873   -1.0005    0.0000 C   0  0  0  0  0  0  0  0  0  0  0  0
   -1.5716   -1.0005    0.0000 C   0  0  0  0  0  0  0  0  0  0  0  0
   -7.2873   -1.8255    0.0000 C   0  0  0  0  0  0  0  0  0  0  0  0
   -0.8571   -0.5880    0.0000 C   0  0  0  0  0  0  0  0  0  0  0  0
   -8.0018   -2.2380    0.0000 C   0  0  0  0  0  0  0  0  0  0  0  0
   -0.8571    0.2370    0.0000 C   0  0  0  0  0  0  0  0  0  0  0  0
   -8.0018   -3.0630    0.0000 C   0  0  0  0  0  0  0  0  0  0  0  0
   -0.1426    0.6495    0.0000 C   0  0  0  0  0  0  0  0  0  0  0  0
   -8.7163   -3.4755    0.0000 C   0  0  0  0  0  0  0  0  0  0  0  0
   -0.1426    1.4745    0.0000 C   0  0  0  0  0  0  0  0  0  0  0  0
   -9.4308   -3.0630    0.0000 C   0  0  0  0  0  0  0  0  0  0  0  0
    0.5718    1.8870    0.0000 C   0  0  0  0  0  0  0  0  0  0  0  0
  -10.1452   -3.4755    0.0000 C   0  0  0  0  0  0  0  0  0  0  0  0
    0.5718    2.7120    0.0000 C   0  0  0  0  0  0  0  0  0  0  0  0
  -10.8597   -3.0630    0.0000 C   0  0  0  0  0  0  0  0  0  0  0  0
    1.2863    3.1245    0.0000 C   0  0  0  0  0  0  0  0  0  0  0  0
  -11.5742   -3.4755    0.0000 C   0  0  0  0  0  0  0  0  0  0  0  0
    2.0008    2.7120    0.0000 C   0  0  0  0  0  0  0  0  0  0  0  0
  -12.2886   -3.0630    0.0000 C   0  0  0  0  0  0  0  0  0  0  0  0
    2.7153    3.1245    0.0000 C   0  0  0  0  0  0  0  0  0  0  0  0
  -13.0031   -3.4755    0.0000 C   0  0  0  0  0  0  0  0  0  0  0  0
    3.4297    2.7120    0.0000 C   0  0  0  0  0  0  0  0  0  0  0  0
  -13.7176   -3.0630    0.0000 C   0  0  0  0  0  0  0  0  0  0  0  0
    4.1442    3.1245    0.0000 C   0  0  0  0  0  0  0  0  0  0  0  0
  -14.4321   -3.4755    0.0000 C   0  0  0  0  0  0  0  0  0  0  0  0
    4.8587    2.7120    0.0000 C   0  0  0  0  0  0  0  0  0  0  0  0
  -15.1465   -3.0630    0.0000 C   0  0  0  0  0  0  0  0  0  0  0  0
    5.5731    3.1245    0.0000 C   0  0  0  0  0  0  0  0  0  0  0  0
  1  5  1  0  0  0  0
  1  9  1  0  0  0  0
  2  5  2  0  0  0  0
  3  5  1  0  0  0  0
  3  6  1  0  0  0  0
  3  7  1  0  0  0  0
  4  8  1  0  0  0  0
  4 10  1  0  0  0  0
  4 11  1  0  0  0  0
  6 15  1  0  0  0  0
  7 16  1  0  0  0  0
  8 12  1  0  0  0  0
  9 12  1  0  0  0  0
 10 13  1  0  0  0  0
 11 14  1  0  0  0  0
 13 14  1  0  0  0  0
 15 17  2  0  0  0  0
 16 18  2  0  0  0  0
 17 19  1  0  0  0  0
 18 20  1  0  0  0  0
 19 21  1  0  0  0  0
 20 22  1  0  0  0  0
 21 23  1  0  0  0  0
 22 24  1  0  0  0  0
 23 25  1  0  0  0  0
 24 26  1  0  0  0  0
 25 27  1  0  0  0  0
 26 28  1  0  0  0  0
 27 29  1  0  0  0  0
 28 30  1  0  0  0  0
 29 31  2  0  0  0  0
 30 32  2  0  0  0  0
 31 33  1  0  0  0  0
 32 34  1  0  0  0  0
 33 35  1  0  0  0  0
 34 36  1  0  0  0  0
 35 37  1  0  0  0  0
 36 38  1  0  0  0  0
 37 39  1  0  0  0  0
 38 40  1  0  0  0  0
 39 41  1  0  0  0  0
 40 42  1  0  0  0  0
 41 43  1  0  0  0  0
 42 44  1  0  0  0  0
 43 45  1  0  0  0  0
 44 46  1  0  0  0  0
 45 47  1  0  0  0  0
 46 48  1  0  0  0  0
M  END
> <PUBCHEM_COMPOUND_ID_TYPE>
0

> <PUBCHEM_TOTAL_CHARGE>
0

> <PUBCHEM_SUBSTANCE_ID>
310929989

> <PUBCHEM_SUBSTANCE_VERSION>
1

> <PUBCHEM_EXT_DATASOURCE_NAME>
4488

> <PUBCHEM_EXT_DATASOURCE_REGID>
SCHEMBL16107226

> <PUBCHEM_SUBSTANCE_COMMENT>
InChI=1S/C44H80N2O2/c1-3-5-7-9-11-13-15-17-19-21-23-25-27-29-31-33-41-46(44(47)48-43-37-40-45-38-35-36-39-45)42-34-32-30-28-26-24-22-20-18-16-14-12-10-8-6-4-2/h17-20,31-34H,3-16,21-30,35-43H2,1-2H3
InChIKey=PPGOEAQEZXMBOX-UHFFFAOYSA-N

> <PUBCHEM_SUBSTANCE_SYNONYM>
SCHEMBL16107226

> <PUBCHEM_XREF_EXT_ID>
SCHEMBL16107226

> <PUBCHEM_EXT_DATASOURCE_URL>
https://www.surechembl.org/

> <PUBCHEM_EXT_SUBSTANCE_URL>
https://www.surechembl.org/chemical/SCHEMBL16107226

> <PUBCHEM_CID_ASSOCIATIONS>
117599246  1

> <PUBCHEM_COORDINATE_TYPE>
1
3

> <PUBCHEM_BONDANNOTATIONS>
29  27  3
30  28  3
15  6  3
16  7  3

$$$$
