310948098
  -OEChem-07211613022D

 16 16  0     0  0  0  0  0  0999 V2000
   -0.2433   -2.5068    0.0000 O   0  0  0  0  0  0  0  0  0  0  0  0
   -1.4702   -2.3164    0.0000 O   0  0  0  0  0  0  0  0  0  0  0  0
    0.5817   -1.8722    0.0000 O   0  0  0  0  0  0  0  0  0  0  0  0
    1.4702    1.8087    0.0000 O   0  0  0  0  0  0  0  0  0  0  0  0
   -0.0740    2.5068    0.0000 O   0  0  0  0  0  0  0  0  0  0  0  0
    0.6029   -1.0260    0.0000 N   0  0  0  0  0  0  0  0  0  0  0  0
   -0.1164   -0.5606    0.0000 C   0  0  0  0  0  0  0  0  0  0  0  0
   -0.1164    0.3279    0.0000 C   0  0  0  0  0  0  0  0  0  0  0  0
   -0.7721   -1.0048    0.0000 C   0  0  0  0  0  0  0  0  0  0  0  0
    0.2645    1.0683    0.0000 C   0  0  0  0  0  0  0  0  0  0  0  0
   -0.7933    0.7087    0.0000 C   0  0  0  0  0  0  0  0  0  0  0  0
   -0.8145   -1.8510    0.0000 C   0  0  0  0  0  0  0  0  0  0  0  0
   -1.4491   -0.5606    0.0000 C   0  0  0  0  0  0  0  0  0  0  0  0
   -1.4491    0.3067    0.0000 C   0  0  0  0  0  0  0  0  0  0  0  0
    1.0895    1.0683    0.0000 C   0  0  0  0  0  0  0  0  0  0  0  0
   -0.2645    1.6818    0.0000 C   0  0  0  0  0  0  0  0  0  0  0  0
  1 12  2  0  0  0  0
  2 12  1  0  0  0  0
  3  6  2  0  0  0  0
  4 15  2  0  0  0  0
  5 16  2  0  0  0  0
  6  7  1  0  0  0  0
  7  8  2  0  0  0  0
  7  9  1  0  0  0  0
  8 10  1  0  0  0  0
  8 11  1  0  0  0  0
  9 12  1  0  0  0  0
  9 13  2  0  0  0  0
 10 15  1  0  0  0  0
 10 16  1  0  0  0  0
 11 14  2  0  0  0  0
 13 14  1  0  0  0  0
M  END
> <PUBCHEM_COMPOUND_ID_TYPE>
0

> <PUBCHEM_TOTAL_CHARGE>
0

> <PUBCHEM_SUBSTANCE_ID>
310948098

> <PUBCHEM_SUBSTANCE_VERSION>
1

> <PUBCHEM_EXT_DATASOURCE_NAME>
4488

> <PUBCHEM_EXT_DATASOURCE_REGID>
SCHEMBL16126274

> <PUBCHEM_SUBSTANCE_COMMENT>
InChI=1S/C10H7NO5/c12-4-6(5-13)7-2-1-3-8(10(14)15)9(7)11-16/h1-6H,(H,14,15)
InChIKey=RCSXRYOQRFLWSJ-UHFFFAOYSA-N

> <PUBCHEM_SUBSTANCE_SYNONYM>
SCHEMBL16126274

> <PUBCHEM_XREF_EXT_ID>
SCHEMBL16126274

> <PUBCHEM_EXT_DATASOURCE_URL>
https://www.surechembl.org/

> <PUBCHEM_EXT_SUBSTANCE_URL>
https://www.surechembl.org/chemical/SCHEMBL16126274

> <PUBCHEM_CID_ASSOCIATIONS>
117613716  1

> <PUBCHEM_COORDINATE_TYPE>
1
3

$$$$
