310948452
  -OEChem-07211613022D

 33 36  0     1  0  0  0  0  0999 V2000
   -0.7108   -2.3186    0.0000 S   0  0  0  0  0  0  0  0  0  0  0  0
    1.9391    3.7954    0.0000 F   0  0  0  0  0  0  0  0  0  0  0  0
    2.7672    3.0501    0.0000 F   0  0  0  0  0  0  0  0  0  0  0  0
   -2.7672    2.2634    0.0000 O   0  0  0  0  0  0  0  0  0  0  0  0
    0.0759   -2.0564    0.0000 O   0  0  0  0  0  0  0  0  0  0  0  0
   -1.4836   -2.5670    0.0000 O   0  0  0  0  0  0  0  0  0  0  0  0
   -0.0207    2.1254    0.0000 N   0  0  0  0  0  0  0  0  0  0  0  0
   -0.3519    1.3664    0.0000 N   0  0  0  0  0  0  0  0  0  0  0  0
   -1.7183    0.8419    0.0000 N   0  0  0  0  0  0  0  0  0  0  0  0
   -2.0633    3.5194    0.0000 N   0  0  0  0  0  0  0  0  0  0  0  0
    1.2214    0.0966    0.0000 N   0  0  0  0  0  0  0  0  0  0  0  0
   -0.6417    2.6913    0.0000 C   0  0  0  0  0  0  0  0  0  0  0  0
   -1.3318    2.2773    0.0000 C   0  0  0  0  0  0  0  0  0  0  0  0
    0.7798    2.3048    0.0000 C   0  0  3  0  0  0  0  0  0  0  0  0
   -1.1800    1.4906    0.0000 C   0  0  0  0  0  0  0  0  0  0  0  0
    1.4008    1.7666    0.0000 C   0  0  3  0  0  0  0  0  0  0  0  0
    1.9391    2.9811    0.0000 C   0  0  0  0  0  0  0  0  0  0  0  0
   -2.0495    2.6913    0.0000 C   0  0  0  0  0  0  0  0  0  0  0  0
    1.1248    3.0501    0.0000 C   0  0  0  0  0  0  0  0  0  0  0  0
   -0.6280    3.5194    0.0000 C   0  0  0  0  0  0  0  0  0  0  0  0
    2.1047    2.1668    0.0000 C   0  0  0  0  0  0  0  0  0  0  0  0
   -1.4836    0.0828    0.0000 C   0  0  0  0  0  0  0  0  0  0  0  0
   -0.9730   -1.5182    0.0000 C   0  0  0  0  0  0  0  0  0  0  0  0
   -0.4623   -3.0915    0.0000 C   0  0  0  0  0  0  0  0  0  0  0  0
   -1.3456    3.9334    0.0000 C   0  0  0  0  0  0  0  0  0  0  0  0
    1.3042    0.9109    0.0000 C   0  0  0  0  0  0  0  0  0  0  0  0
   -2.0081   -0.5521    0.0000 C   0  0  0  0  0  0  0  0  0  0  0  0
   -0.6832   -0.1104    0.0000 C   0  0  0  0  0  0  0  0  0  0  0  0
   -1.7596   -1.3388    0.0000 C   0  0  0  0  0  0  0  0  0  0  0  0
   -0.4210   -0.9109    0.0000 C   0  0  0  0  0  0  0  0  0  0  0  0
   -1.2766   -3.2295    0.0000 C   0  0  0  0  0  0  0  0  0  0  0  0
    0.3795   -3.2295    0.0000 C   0  0  0  0  0  0  0  0  0  0  0  0
   -0.4347   -3.9334    0.0000 C   0  0  0  0  0  0  0  0  0  0  0  0
  1  5  2  0  0  0  0
  1  6  2  0  0  0  0
  1 23  1  0  0  0  0
  1 24  1  0  0  0  0
  2 17  1  0  0  0  0
  3 17  1  0  0  0  0
  4 18  2  0  0  0  0
  7  8  1  0  0  0  0
  7 12  1  0  0  0  0
 14  7  1  1  0  0  0
  8 15  2  0  0  0  0
  9 15  1  0  0  0  0
  9 22  1  0  0  0  0
 10 18  1  0  0  0  0
 10 25  1  0  0  0  0
 11 26  3  0  0  0  0
 12 13  2  0  0  0  0
 12 20  1  0  0  0  0
 13 15  1  0  0  0  0
 13 18  1  0  0  0  0
 14 16  1  0  0  0  0
 14 19  1  0  0  0  0
 16 21  1  0  0  0  0
 16 26  1  1  0  0  0
 17 19  1  0  0  0  0
 17 21  1  0  0  0  0
 20 25  2  0  0  0  0
 22 27  2  0  0  0  0
 22 28  1  0  0  0  0
 23 29  2  0  0  0  0
 23 30  1  0  0  0  0
 24 31  1  0  0  0  0
 24 32  1  0  0  0  0
 24 33  1  0  0  0  0
 27 29  1  0  0  0  0
 28 30  2  0  0  0  0
M  END
> <PUBCHEM_COMPOUND_ID_TYPE>
0

> <PUBCHEM_TOTAL_CHARGE>
0

> <PUBCHEM_SUBSTANCE_ID>
310948452

> <PUBCHEM_SUBSTANCE_VERSION>
1

> <PUBCHEM_EXT_DATASOURCE_NAME>
4488

> <PUBCHEM_EXT_DATASOURCE_REGID>
SCHEMBL16126633

> <PUBCHEM_SUBSTANCE_COMMENT>
InChI=1S/C22H23F2N5O3S/c1-21(2,3)33(31,32)15-6-4-14(5-7-15)27-19-18-16(8-9-26-20(18)30)29(28-19)17-11-22(23,24)10-13(17)12-25/h4-9,13,17H,10-11H2,1-3H3,(H,26,30)(H,27,28)/t13-,17-/m0/s1
InChIKey=OKKSQYGPSXAHSK-GUYCJALGSA-N

> <PUBCHEM_SUBSTANCE_SYNONYM>
SCHEMBL16126633

> <PUBCHEM_XREF_EXT_ID>
SCHEMBL16126633

> <PUBCHEM_EXT_DATASOURCE_URL>
https://www.surechembl.org/

> <PUBCHEM_EXT_SUBSTANCE_URL>
https://www.surechembl.org/chemical/SCHEMBL16126633

> <PUBCHEM_CID_ASSOCIATIONS>
117614010  1

> <PUBCHEM_COORDINATE_TYPE>
1
3

> <PUBCHEM_BONDANNOTATIONS>
16  26  5
14  7  5

$$$$
