310929837
  -OEChem-07211613022D

 59 66  0     1  0  0  0  0  0999 V2000
    4.6595   -0.8922    0.0000 S   0  0  0  0  0  0  0  0  0  0  0  0
    4.3125   -2.5281    0.0000 O   0  0  0  0  0  0  0  0  0  0  0  0
    4.9074   -1.6854    0.0000 O   0  0  0  0  0  0  0  0  0  0  0  0
    4.4613   -0.1487    0.0000 O   0  0  0  0  0  0  0  0  0  0  0  0
    4.2630   -3.1229    0.0000 O   0  0  0  0  0  0  0  0  0  0  0  0
    5.3535   -5.4527    0.0000 O   0  0  0  0  0  0  0  0  0  0  0  0
    1.4871   -3.9656    0.0000 O   0  0  0  0  0  0  0  0  0  0  0  0
    0.9418   -7.4850    0.0000 O   0  0  0  0  0  0  0  0  0  0  0  0
    0.0000   -6.6424    0.0000 O   0  0  0  0  0  0  0  0  0  0  0  0
    2.8751   -2.9742    0.0000 N   0  0  0  0  0  0  0  0  0  0  0  0
    3.9160   -1.1401    0.0000 N   0  0  0  0  0  0  0  0  0  0  0  0
    2.6768   -4.2630    0.0000 N   0  0  0  0  0  0  0  0  0  0  0  0
    6.3449   -5.8492    0.0000 N   0  0  0  0  0  0  0  0  0  0  0  0
    0.9418   -5.8492    0.0000 N   0  0  0  0  0  0  0  0  0  0  0  0
    7.0885   -8.6747    0.0000 N   0  0  0  0  0  0  0  0  0  0  0  0
    2.9246   -2.1811    0.0000 C   0  0  3  0  0  0  0  0  0  0  0  0
    2.2306   -1.7845    0.0000 C   0  0  3  0  0  0  0  0  0  0  0  0
    2.8751   -1.3384    0.0000 C   0  0  0  0  0  0  0  0  0  0  0  0
    3.7177   -1.9332    0.0000 C   0  0  0  0  0  0  0  0  0  0  0  0
    5.4527   -0.6940    0.0000 C   0  0  0  0  0  0  0  0  0  0  0  0
    3.5195   -3.4699    0.0000 C   0  0  0  0  0  0  0  0  0  0  0  0
    1.4375   -1.8341    0.0000 C   0  0  0  0  0  0  0  0  0  0  0  0
    3.4203   -4.2630    0.0000 C   0  0  3  0  0  0  0  0  0  0  0  0
    5.9979   -0.0992    0.0000 C   0  0  0  0  0  0  0  0  0  0  0  0
    6.2458   -0.8922    0.0000 C   0  0  0  0  0  0  0  0  0  0  0  0
    4.2630   -4.4613    0.0000 C   0  0  0  0  0  0  0  0  0  0  0  0
    4.9074   -4.8083    0.0000 C   0  0  3  0  0  0  0  0  0  0  0  0
    5.0065    0.0000    0.0000 C   0  0  0  0  0  0  0  0  0  0  0  0
    1.9332   -4.6595    0.0000 C   0  0  0  0  0  0  0  0  0  0  0  0
    3.9656   -3.9160    0.0000 C   0  0  0  0  0  0  0  0  0  0  0  0
    5.6014   -6.2954    0.0000 C   0  0  0  0  0  0  0  0  0  0  0  0
    1.2888   -5.2048    0.0000 C   0  0  3  0  0  0  0  0  0  0  0  0
    6.3449   -7.4850    0.0000 C   0  0  0  0  0  0  0  0  0  0  0  0
    5.6014   -7.0389    0.0000 C   0  0  0  0  0  0  0  0  0  0  0  0
    1.0410   -2.5281    0.0000 C   0  0  0  0  0  0  0  0  0  0  0  0
    6.9893   -7.0389    0.0000 C   0  0  0  0  0  0  0  0  0  0  0  0
    6.9893   -6.2954    0.0000 C   0  0  0  0  0  0  0  0  0  0  0  0
    0.6940   -4.6595    0.0000 C   0  0  0  0  0  0  0  0  0  0  0  0
    6.3945   -8.3277    0.0000 C   0  0  0  0  0  0  0  0  0  0  0  0
    5.3535   -7.8816    0.0000 C   0  0  0  0  0  0  0  0  0  0  0  0
    7.7329   -7.4850    0.0000 C   0  0  0  0  0  0  0  0  0  0  0  0
    7.7329   -5.8492    0.0000 C   0  0  0  0  0  0  0  0  0  0  0  0
    0.8427   -6.6424    0.0000 C   0  0  0  0  0  0  0  0  0  0  0  0
    5.6509   -8.7242    0.0000 C   0  0  0  0  0  0  0  0  0  0  0  0
    1.2888   -8.1294    0.0000 C   0  0  3  0  0  0  0  0  0  0  0  0
    1.9332   -8.6747    0.0000 C   0  0  3  0  0  0  0  0  0  0  0  0
    8.4764   -7.0389    0.0000 C   0  0  0  0  0  0  0  0  0  0  0  0
    8.4764   -6.2954    0.0000 C   0  0  0  0  0  0  0  0  0  0  0  0
    1.1897   -4.0151    0.0000 C   0  0  0  0  0  0  0  0  0  0  0  0
    0.0496   -4.1639    0.0000 C   0  0  0  0  0  0  0  0  0  0  0  0
    0.1487   -5.3039    0.0000 C   0  0  0  0  0  0  0  0  0  0  0  0
    1.1401   -8.9721    0.0000 C   0  0  0  0  0  0  0  0  0  0  0  0
    4.9074   -8.5260    0.0000 C   0  0  0  0  0  0  0  0  0  0  0  0
    7.1380   -9.4678    0.0000 C   0  0  0  0  0  0  0  0  0  0  0  0
    5.7501   -9.5174    0.0000 C   0  0  0  0  0  0  0  0  0  0  0  0
    2.6768   -9.0712    0.0000 C   0  0  0  0  0  0  0  0  0  0  0  0
    4.2630   -8.8730    0.0000 C   0  0  0  0  0  0  0  0  0  0  0  0
    6.4441   -9.9139    0.0000 C   0  0  0  0  0  0  0  0  0  0  0  0
    3.4203   -9.0712    0.0000 C   0  0  0  0  0  0  0  0  0  0  0  0
  1  3  2  0  0  0  0
  1  4  2  0  0  0  0
  1 11  1  0  0  0  0
  1 20  1  0  0  0  0
  2 19  2  0  0  0  0
  5 21  2  0  0  0  0
  6 27  1  0  0  0  0
  6 31  1  0  0  0  0
  7 29  2  0  0  0  0
  8 43  1  0  0  0  0
  8 45  1  0  0  0  0
  9 43  2  0  0  0  0
 16 10  1  1  0  0  0
 10 21  1  0  0  0  0
 11 19  1  0  0  0  0
 12 23  1  0  0  0  0
 12 29  1  0  0  0  0
 12 30  1  0  0  0  0
 13 31  1  0  0  0  0
 13 37  2  0  0  0  0
 14 32  1  0  0  0  0
 14 43  1  0  0  0  0
 15 39  1  0  0  0  0
 15 54  2  0  0  0  0
 16 17  1  0  0  0  0
 16 18  1  0  0  0  0
 16 19  1  6  0  0  0
 17 18  1  0  0  0  0
 17 22  1  6  0  0  0
 20 24  1  0  0  0  0
 20 25  1  0  0  0  0
 20 28  1  0  0  0  0
 23 21  1  6  0  0  0
 22 35  2  0  0  0  0
 23 26  1  0  0  0  0
 24 25  1  0  0  0  0
 27 26  1  1  0  0  0
 27 30  1  0  0  0  0
 29 32  1  0  0  0  0
 31 34  2  0  0  0  0
 32 38  1  1  0  0  0
 33 34  1  0  0  0  0
 33 36  2  0  0  0  0
 33 39  1  0  0  0  0
 34 40  1  0  0  0  0
 36 37  1  0  0  0  0
 36 41  1  0  0  0  0
 37 42  1  0  0  0  0
 38 49  1  0  0  0  0
 38 50  1  0  0  0  0
 38 51  1  0  0  0  0
 39 44  2  0  0  0  0
 40 53  1  0  0  0  0
 41 47  2  0  0  0  0
 42 48  2  0  0  0  0
 44 55  1  0  0  0  0
 45 46  1  0  0  0  0
 45 52  1  1  0  0  0
 46 52  1  6  0  0  0
 46 56  1  0  0  0  0
 47 48  1  0  0  0  0
 53 57  1  0  0  0  0
 54 58  1  0  0  0  0
 55 58  2  0  0  0  0
 56 59  1  0  0  0  0
 57 59  1  0  0  0  0
M  END
> <PUBCHEM_COMPOUND_ID_TYPE>
0

> <PUBCHEM_TOTAL_CHARGE>
0

> <PUBCHEM_SUBSTANCE_ID>
310929837

> <PUBCHEM_SUBSTANCE_VERSION>
1

> <PUBCHEM_EXT_DATASOURCE_NAME>
4488

> <PUBCHEM_EXT_DATASOURCE_REGID>
SCHEMBL16107047

> <PUBCHEM_SUBSTANCE_COMMENT>
InChI=1S/C44H54N6O8S/c1-6-27-24-44(27,40(53)49-59(55,56)43(5)19-20-43)48-37(51)33-23-28-25-50(33)39(52)36(42(2,3)4)47-41(54)58-34-22-26(34)14-8-7-9-16-30-35(32-18-12-13-21-45-32)29-15-10-11-17-31(29)46-38(30)57-28/h6,10-13,15,17-18,21,26-28,33-34,36H,1,7-9,14,16,19-20,22-25H2,2-5H3,(H,47,54)(H,48,51)(H,49,53)/t26-,27-,28-,33+,34-,36-,44-/m1/s1
InChIKey=FDOJOKSMFAAUPL-JPUAGCQHSA-N

> <PUBCHEM_SUBSTANCE_SYNONYM>
SCHEMBL16107047

> <PUBCHEM_XREF_EXT_ID>
SCHEMBL16107047

> <PUBCHEM_EXT_DATASOURCE_URL>
https://www.surechembl.org/

> <PUBCHEM_EXT_SUBSTANCE_URL>
https://www.surechembl.org/chemical/SCHEMBL16107047

> <PUBCHEM_CID_ASSOCIATIONS>
117599110  1

> <PUBCHEM_COORDINATE_TYPE>
1
3

> <PUBCHEM_BONDANNOTATIONS>
16  10  5
16  19  6
17  22  6
23  21  6
27  26  5
32  38  5
45  52  5
46  52  6

$$$$
