310947117
  -OEChem-07211613022D

 24 24  0     1  0  0  0  0  0999 V2000
    0.3572    1.1270    0.0000 O   0  0  0  0  0  0  0  0  0  0  0  0
    1.0717   -0.9355    0.0000 O   0  0  0  0  0  0  0  0  0  0  0  0
    1.7862    1.1270    0.0000 O   0  0  0  0  0  0  0  0  0  0  0  0
   -1.5947   -1.6500    0.0000 O   0  0  0  0  0  0  0  0  0  0  0  0
   -0.3572   -0.9355    0.0000 N   0  0  0  0  0  0  0  0  0  0  0  0
   -1.7862   -0.1105    0.0000 N   0  0  0  0  0  0  0  0  0  0  0  0
   -2.5006    1.1270    0.0000 N   0  0  0  0  0  0  0  0  0  0  0  0
   -3.2151   -0.1105    0.0000 N   0  0  0  0  0  0  0  0  0  0  0  0
    0.3572    0.3020    0.0000 C   0  0  3  0  0  0  0  0  0  0  0  0
   -0.3572   -0.1105    0.0000 C   0  0  3  0  0  0  0  0  0  0  0  0
   -1.0717    0.3020    0.0000 C   0  0  3  0  0  0  0  0  0  0  0  0
    1.0717   -0.1105    0.0000 C   0  0  3  0  0  0  0  0  0  0  0  0
   -0.3572    1.5395    0.0000 C   0  0  0  0  0  0  0  0  0  0  0  0
   -1.0717    1.1270    0.0000 C   0  0  0  0  0  0  0  0  0  0  0  0
    1.7862    0.3020    0.0000 C   0  0  3  0  0  0  0  0  0  0  0  0
   -0.3572    2.3645    0.0000 C   0  0  0  0  0  0  0  0  0  0  0  0
   -0.7697   -1.6500    0.0000 C   0  0  0  0  0  0  0  0  0  0  0  0
   -2.5006    0.3020    0.0000 C   0  0  0  0  0  0  0  0  0  0  0  0
    2.5006   -0.1105    0.0000 C   0  0  0  0  0  0  0  0  0  0  0  0
   -1.1822    2.3645    0.0000 C   0  0  0  0  0  0  0  0  0  0  0  0
    0.4678    2.3645    0.0000 C   0  0  0  0  0  0  0  0  0  0  0  0
    1.7862   -1.3480    0.0000 C   0  0  0  0  0  0  0  0  0  0  0  0
   -0.3572   -2.3645    0.0000 C   0  0  0  0  0  0  0  0  0  0  0  0
    3.2151    0.3020    0.0000 C   0  0  0  0  0  0  0  0  0  0  0  0
  1  9  1  0  0  0  0
  1 13  1  0  0  0  0
 12  2  1  1  0  0  0
  2 22  1  0  0  0  0
 15  3  1  6  0  0  0
  4 17  2  0  0  0  0
 10  5  1  6  0  0  0
  5 17  1  0  0  0  0
 11  6  1  1  0  0  0
  6 18  1  0  0  0  0
  7 18  2  3  0  0  0
  8 18  1  0  0  0  0
  9 10  1  0  0  0  0
  9 12  1  1  0  0  0
 10 11  1  0  0  0  0
 11 14  1  0  0  0  0
 12 15  1  0  0  0  0
 13 14  2  0  0  0  0
 13 16  1  0  0  0  0
 15 19  1  0  0  0  0
 16 20  1  0  0  0  0
 16 21  1  0  0  0  0
 17 23  1  0  0  0  0
 19 24  1  0  0  0  0
M  END
> <PUBCHEM_COMPOUND_ID_TYPE>
0

> <PUBCHEM_TOTAL_CHARGE>
0

> <PUBCHEM_SUBSTANCE_ID>
310947117

> <PUBCHEM_SUBSTANCE_VERSION>
1

> <PUBCHEM_EXT_DATASOURCE_NAME>
4488

> <PUBCHEM_EXT_DATASOURCE_REGID>
SCHEMBL16125271

> <PUBCHEM_SUBSTANCE_COMMENT>
InChI=1S/C16H30N4O4/c1-6-11(22)14(23-5)15-13(19-9(4)21)10(20-16(17)18)7-12(24-15)8(2)3/h7-8,10-11,13-15,22H,6H2,1-5H3,(H,19,21)(H4,17,18,20)/t10-,11+,13+,14+,15+/m0/s1
InChIKey=FNUQHTNNAYLFQX-PWRGDLIESA-N

> <PUBCHEM_SUBSTANCE_SYNONYM>
SCHEMBL16125271

> <PUBCHEM_XREF_EXT_ID>
SCHEMBL16125271

> <PUBCHEM_EXT_DATASOURCE_URL>
https://www.surechembl.org/

> <PUBCHEM_EXT_SUBSTANCE_URL>
https://www.surechembl.org/chemical/SCHEMBL16125271

> <PUBCHEM_CID_ASSOCIATIONS>
117612966  1

> <PUBCHEM_COORDINATE_TYPE>
1
3

> <PUBCHEM_BONDANNOTATIONS>
16  20  3
16  21  3
12  2  5
15  3  6
10  5  6
11  6  5
9  12  5

$$$$
