310947405
  -OEChem-07211613022D

 24 27  0     1  0  0  0  0  0999 V2000
    1.7388    1.6987    0.0000 O   0  0  0  0  0  0  0  0  0  0  0  0
   -3.3326   -1.8563    0.0000 O   0  0  0  0  0  0  0  0  0  0  0  0
    0.9542    0.6187    0.0000 C   0  0  3  0  0  0  0  0  0  0  0  0
    0.9542   -0.2062    0.0000 C   0  0  3  0  0  0  0  0  0  0  0  0
    1.7388    0.8737    0.0000 C   0  0  3  0  0  0  0  0  0  0  0  0
    0.2397   -0.6187    0.0000 C   0  0  3  0  0  0  0  0  0  0  0  0
   -0.4747   -0.2062    0.0000 C   0  0  3  0  0  0  0  0  0  0  0  0
   -1.1892   -0.6187    0.0000 C   0  0  3  0  0  0  0  0  0  0  0  0
    0.2397    1.0313    0.0000 C   0  0  0  0  0  0  0  0  0  0  0  0
    1.7388   -0.4612    0.0000 C   0  0  0  0  0  0  0  0  0  0  0  0
    2.2238    0.2062    0.0000 C   0  0  0  0  0  0  0  0  0  0  0  0
   -1.1892   -1.4437    0.0000 C   0  0  0  0  0  0  0  0  0  0  0  0
   -0.4747    0.6187    0.0000 C   0  0  0  0  0  0  0  0  0  0  0  0
    0.9542    1.4437    0.0000 C   0  0  0  0  0  0  0  0  0  0  0  0
    0.2397   -1.4437    0.0000 C   0  0  0  0  0  0  0  0  0  0  0  0
    2.5357    1.0872    0.0000 C   0  0  0  0  0  0  0  0  0  0  0  0
   -0.4747   -1.8563    0.0000 C   0  0  0  0  0  0  0  0  0  0  0  0
   -1.9037   -0.2062    0.0000 C   0  0  0  0  0  0  0  0  0  0  0  0
   -1.9037   -1.8563    0.0000 C   0  0  0  0  0  0  0  0  0  0  0  0
   -1.1892    0.2062    0.0000 C   0  0  0  0  0  0  0  0  0  0  0  0
   -2.6181   -1.4437    0.0000 C   0  0  0  0  0  0  0  0  0  0  0  0
   -2.6181   -0.6187    0.0000 C   0  0  0  0  0  0  0  0  0  0  0  0
    0.2397    1.8563    0.0000 C   0  0  0  0  0  0  0  0  0  0  0  0
    3.3326    1.3007    0.0000 C   0  0  0  0  0  0  0  0  0  0  0  0
  5  1  1  1  0  0  0
  2 21  2  0  0  0  0
  3  4  1  0  0  0  0
  3  5  1  0  0  0  0
  3  9  1  0  0  0  0
  3 14  1  1  0  0  0
  4  6  1  0  0  0  0
  4 10  1  1  0  0  0
  5 11  1  0  0  0  0
  5 16  1  6  0  0  0
  6  7  1  0  0  0  0
  6 15  1  6  0  0  0
  7  8  1  0  0  0  0
  7 13  1  1  0  0  0
  8 12  1  0  0  0  0
  8 18  1  0  0  0  0
  8 20  1  1  0  0  0
  9 13  1  0  0  0  0
 10 11  1  0  0  0  0
 12 17  1  0  0  0  0
 12 19  2  0  0  0  0
 14 23  1  0  0  0  0
 15 17  1  0  0  0  0
 16 24  3  0  0  0  0
 18 22  1  0  0  0  0
 19 21  1  0  0  0  0
 21 22  1  0  0  0  0
M  END
> <PUBCHEM_COMPOUND_ID_TYPE>
0

> <PUBCHEM_TOTAL_CHARGE>
0

> <PUBCHEM_SUBSTANCE_ID>
310947405

> <PUBCHEM_SUBSTANCE_VERSION>
1

> <PUBCHEM_EXT_DATASOURCE_NAME>
4488

> <PUBCHEM_EXT_DATASOURCE_REGID>
SCHEMBL16125561

> <PUBCHEM_SUBSTANCE_COMMENT>
InChI=1S/C22H30O2/c1-4-21-12-9-18-17(19(21)10-13-22(21,24)5-2)7-6-15-14-16(23)8-11-20(15,18)3/h2,14,17-19,24H,4,6-13H2,1,3H3/t17-,18+,19+,20+,21+,22+/m1/s1
InChIKey=WPXQWCWJVRPGDE-GUCLMQHLSA-N

> <PUBCHEM_SUBSTANCE_SYNONYM>
SCHEMBL16125561

> <PUBCHEM_XREF_EXT_ID>
SCHEMBL16125561

> <PUBCHEM_EXT_DATASOURCE_URL>
https://www.surechembl.org/

> <PUBCHEM_EXT_SUBSTANCE_URL>
https://www.surechembl.org/chemical/SCHEMBL16125561

> <PUBCHEM_CID_ASSOCIATIONS>
101608932  1

> <PUBCHEM_COORDINATE_TYPE>
1
3

> <PUBCHEM_BONDANNOTATIONS>
5  1  5
3  14  5
4  10  5
5  16  6
6  15  6
7  13  5
8  20  5

$$$$
