310946075
  -OEChem-07211613022D

 26 29  0     1  0  0  0  0  0999 V2000
    1.3793    2.7773    0.0000 F   0  0  0  0  0  0  0  0  0  0  0  0
    1.6983    1.7264    0.0000 F   0  0  0  0  0  0  0  0  0  0  0  0
    0.6098    1.4074    0.0000 F   0  0  0  0  0  0  0  0  0  0  0  0
   -1.2104   -2.5146    0.0000 O   0  0  0  0  0  0  0  0  0  0  0  0
   -0.4410    1.2948    0.0000 N   0  0  0  0  0  0  0  0  0  0  0  0
   -0.4785   -1.2573    0.0000 N   0  0  0  0  0  0  0  0  0  0  0  0
    0.2346   -3.3215    0.0000 N   0  0  0  0  0  0  0  0  0  0  0  0
    0.9289   -3.7531    0.0000 N   0  0  0  0  0  0  0  0  0  0  0  0
   -0.0844    0.0375    0.0000 C   0  0  3  0  0  0  0  0  0  0  0  0
   -0.9101    0.0563    0.0000 C   0  0  3  0  0  0  0  0  0  0  0  0
   -0.4410    2.1393    0.0000 C   0  0  0  0  0  0  0  0  0  0  0  0
   -1.1166    0.8069    0.0000 C   0  0  0  0  0  0  0  0  0  0  0  0
    0.2158    0.8069    0.0000 C   0  0  0  0  0  0  0  0  0  0  0  0
    0.2346    2.5521    0.0000 C   0  0  0  0  0  0  0  0  0  0  0  0
    0.1595   -0.7506    0.0000 C   0  0  0  0  0  0  0  0  0  0  0  0
   -1.1541   -0.7506    0.0000 C   0  0  0  0  0  0  0  0  0  0  0  0
    0.9852    2.1018    0.0000 C   0  0  0  0  0  0  0  0  0  0  0  0
   -0.4973   -2.0642    0.0000 C   0  0  0  0  0  0  0  0  0  0  0  0
   -1.1728    2.5521    0.0000 C   0  0  0  0  0  0  0  0  0  0  0  0
    0.2346   -2.4770    0.0000 C   0  0  0  0  0  0  0  0  0  0  0  0
    0.2346    3.3403    0.0000 C   0  0  0  0  0  0  0  0  0  0  0  0
   -1.1728    3.3403    0.0000 C   0  0  0  0  0  0  0  0  0  0  0  0
   -0.4410    3.7531    0.0000 C   0  0  0  0  0  0  0  0  0  0  0  0
    0.9477   -2.0829    0.0000 C   0  0  0  0  0  0  0  0  0  0  0  0
    1.6420   -2.4770    0.0000 C   0  0  0  0  0  0  0  0  0  0  0  0
    1.6232   -3.3590    0.0000 C   0  0  0  0  0  0  0  0  0  0  0  0
  1 17  1  0  0  0  0
  2 17  1  0  0  0  0
  3 17  1  0  0  0  0
  4 18  2  0  0  0  0
  5 11  1  0  0  0  0
  5 12  1  0  0  0  0
  5 13  1  0  0  0  0
  6 15  1  0  0  0  0
  6 16  1  0  0  0  0
  6 18  1  0  0  0  0
  7  8  1  0  0  0  0
  7 20  2  0  0  0  0
  8 26  2  0  0  0  0
  9 10  1  0  0  0  0
  9 13  1  0  0  0  0
  9 15  1  1  0  0  0
 10 12  1  0  0  0  0
 10 16  1  1  0  0  0
 11 14  2  0  0  0  0
 11 19  1  0  0  0  0
 14 17  1  0  0  0  0
 14 21  1  0  0  0  0
 18 20  1  0  0  0  0
 19 22  2  0  0  0  0
 20 24  1  0  0  0  0
 21 23  2  0  0  0  0
 22 23  1  0  0  0  0
 24 25  2  0  0  0  0
 25 26  1  0  0  0  0
M  END
> <PUBCHEM_COMPOUND_ID_TYPE>
0

> <PUBCHEM_TOTAL_CHARGE>
0

> <PUBCHEM_SUBSTANCE_ID>
310946075

> <PUBCHEM_SUBSTANCE_VERSION>
1

> <PUBCHEM_EXT_DATASOURCE_NAME>
4488

> <PUBCHEM_EXT_DATASOURCE_REGID>
SCHEMBL16124182

> <PUBCHEM_SUBSTANCE_COMMENT>
InChI=1S/C18H17F3N4O/c19-18(20,21)14-4-1-2-6-16(14)24-8-12-10-25(11-13(12)9-24)17(26)15-5-3-7-22-23-15/h1-7,12-13H,8-11H2/t12-,13+
InChIKey=VJZVGRTVHUMRNA-BETUJISGSA-N

> <PUBCHEM_SUBSTANCE_SYNONYM>
SCHEMBL16124182

> <PUBCHEM_XREF_EXT_ID>
SCHEMBL16124182

> <PUBCHEM_EXT_DATASOURCE_URL>
https://www.surechembl.org/

> <PUBCHEM_EXT_SUBSTANCE_URL>
https://www.surechembl.org/chemical/SCHEMBL16124182

> <PUBCHEM_CID_ASSOCIATIONS>
86297620  1

> <PUBCHEM_COORDINATE_TYPE>
1
3

> <PUBCHEM_BONDANNOTATIONS>
10  16  5
9  15  5

$$$$
