310935864
  -OEChem-07211613022D

 18 19  0     0  0  0  0  0  0999 V2000
    2.5504   -5.4848    0.0000 Br  0  0  0  0  0  0  0  0  0  0  0  0
    4.0862   -4.8540    0.0000 O   0  0  0  0  0  0  0  0  0  0  0  0
    0.0000    0.0000    0.0000 O   0  0  0  0  0  0  0  0  0  0  0  0
    1.5083   -2.0294    0.0000 N   0  0  0  0  0  0  0  0  0  0  0  0
    2.0568   -0.7953    0.0000 N   0  0  0  0  0  0  0  0  0  0  0  0
    3.5103   -3.5377    0.0000 N   0  0  0  0  0  0  0  0  0  0  0  0
    2.0842   -3.3457    0.0000 C   0  0  0  0  0  0  0  0  0  0  0  0
    2.2213   -1.6180    0.0000 C   0  0  0  0  0  0  0  0  0  0  0  0
    1.4260   -2.8521    0.0000 C   0  0  0  0  0  0  0  0  0  0  0  0
    1.2615   -0.7130    0.0000 C   0  0  0  0  0  0  0  0  0  0  0  0
    0.9050   -1.4809    0.0000 C   0  0  0  0  0  0  0  0  0  0  0  0
    2.6601   -4.6620    0.0000 C   0  0  0  0  0  0  0  0  0  0  0  0
    3.4280   -4.3604    0.0000 C   0  0  0  0  0  0  0  0  0  0  0  0
    2.0020   -4.1685    0.0000 C   0  0  0  0  0  0  0  0  0  0  0  0
    2.8521   -3.0441    0.0000 C   0  0  0  0  0  0  0  0  0  0  0  0
    0.8227    0.0000    0.0000 C   0  0  0  0  0  0  0  0  0  0  0  0
    2.9892   -1.9745    0.0000 C   0  0  0  0  0  0  0  0  0  0  0  0
    4.8540   -4.5250    0.0000 C   0  0  0  0  0  0  0  0  0  0  0  0
  1 12  1  0  0  0  0
  2 13  1  0  0  0  0
  2 18  1  0  0  0  0
  3 16  1  0  0  0  0
  4  8  1  0  0  0  0
  4  9  1  0  0  0  0
  4 11  1  0  0  0  0
  5  8  2  0  0  0  0
  5 10  1  0  0  0  0
  6 13  2  0  0  0  0
  6 15  1  0  0  0  0
  7  9  1  0  0  0  0
  7 14  1  0  0  0  0
  7 15  2  0  0  0  0
  8 17  1  0  0  0  0
 10 11  2  0  0  0  0
 10 16  1  0  0  0  0
 12 13  1  0  0  0  0
 12 14  2  0  0  0  0
M  END
> <PUBCHEM_COMPOUND_ID_TYPE>
0

> <PUBCHEM_TOTAL_CHARGE>
0

> <PUBCHEM_SUBSTANCE_ID>
310935864

> <PUBCHEM_SUBSTANCE_VERSION>
1

> <PUBCHEM_EXT_DATASOURCE_NAME>
4488

> <PUBCHEM_EXT_DATASOURCE_REGID>
SCHEMBL16113457

> <PUBCHEM_SUBSTANCE_COMMENT>
InChI=1S/C12H14BrN3O2/c1-8-15-10(7-17)6-16(8)5-9-3-11(13)12(18-2)14-4-9/h3-4,6,17H,5,7H2,1-2H3
InChIKey=KUECTNOAVUDPIW-UHFFFAOYSA-N

> <PUBCHEM_SUBSTANCE_SYNONYM>
SCHEMBL16113457

> <PUBCHEM_XREF_EXT_ID>
SCHEMBL16113457

> <PUBCHEM_EXT_DATASOURCE_URL>
https://www.surechembl.org/

> <PUBCHEM_EXT_SUBSTANCE_URL>
https://www.surechembl.org/chemical/SCHEMBL16113457

> <PUBCHEM_CID_ASSOCIATIONS>
117603853  1

> <PUBCHEM_COORDINATE_TYPE>
1
3

$$$$
