310933618
  -OEChem-07211613022D

 19 21  0     0  0  0  0  0  0999 V2000
    3.7786   -2.8963    0.0000 I   0  0  0  0  0  0  0  0  0  0  0  0
    0.0192   -1.0358    0.0000 O   0  0  0  0  0  0  0  0  0  0  0  0
    4.6417   -1.4578    0.0000 N   0  0  0  0  0  0  0  0  0  0  0  0
    0.0000   -1.8797    0.0000 N   0  0  0  0  0  0  0  0  0  0  0  0
    3.7786   -0.0192    0.0000 N   0  0  0  0  0  0  0  0  0  0  0  0
    1.2851   -1.4578    0.0000 C   0  0  0  0  0  0  0  0  0  0  0  0
    2.1099   -1.4578    0.0000 C   0  0  0  0  0  0  0  0  0  0  0  0
    3.7978   -1.4578    0.0000 C   0  0  0  0  0  0  0  0  0  0  0  0
    3.3758   -2.1674    0.0000 C   0  0  0  0  0  0  0  0  0  0  0  0
    3.3758   -0.7481    0.0000 C   0  0  0  0  0  0  0  0  0  0  0  0
    0.7864   -0.7864    0.0000 C   0  0  0  0  0  0  0  0  0  0  0  0
    0.8056   -2.1291    0.0000 C   0  0  0  0  0  0  0  0  0  0  0  0
    2.5510   -2.1674    0.0000 C   0  0  0  0  0  0  0  0  0  0  0  0
    2.5510   -0.7481    0.0000 C   0  0  0  0  0  0  0  0  0  0  0  0
    5.0637   -2.1866    0.0000 C   0  0  0  0  0  0  0  0  0  0  0  0
    5.7542   -2.5894    0.0000 C   0  0  0  0  0  0  0  0  0  0  0  0
    5.0637   -3.0306    0.0000 C   0  0  0  0  0  0  0  0  0  0  0  0
    1.0358    0.0000    0.0000 C   0  0  0  0  0  0  0  0  0  0  0  0
    1.0549   -2.9155    0.0000 C   0  0  0  0  0  0  0  0  0  0  0  0
  1  9  1  0  0  0  0
  2  4  1  0  0  0  0
  2 11  1  0  0  0  0
  3  8  1  0  0  0  0
  3 15  1  0  0  0  0
  4 12  2  0  0  0  0
  5 10  1  0  0  0  0
  6  7  1  0  0  0  0
  6 11  2  0  0  0  0
  6 12  1  0  0  0  0
  7 13  2  0  0  0  0
  7 14  1  0  0  0  0
  8  9  2  0  0  0  0
  8 10  1  0  0  0  0
  9 13  1  0  0  0  0
 10 14  2  0  0  0  0
 11 18  1  0  0  0  0
 12 19  1  0  0  0  0
 15 16  1  0  0  0  0
 15 17  1  0  0  0  0
 16 17  1  0  0  0  0
M  END
> <PUBCHEM_COMPOUND_ID_TYPE>
0

> <PUBCHEM_TOTAL_CHARGE>
0

> <PUBCHEM_SUBSTANCE_ID>
310933618

> <PUBCHEM_SUBSTANCE_VERSION>
1

> <PUBCHEM_EXT_DATASOURCE_NAME>
4488

> <PUBCHEM_EXT_DATASOURCE_REGID>
SCHEMBL16111048

> <PUBCHEM_SUBSTANCE_COMMENT>
InChI=1S/C14H16IN3O/c1-7-13(8(2)19-18-7)9-5-11(15)14(12(16)6-9)17-10-3-4-10/h5-6,10,17H,3-4,16H2,1-2H3
InChIKey=UBTJQGGUOFTVTA-UHFFFAOYSA-N

> <PUBCHEM_SUBSTANCE_SYNONYM>
SCHEMBL16111048

> <PUBCHEM_XREF_EXT_ID>
SCHEMBL16111048

> <PUBCHEM_EXT_DATASOURCE_URL>
https://www.surechembl.org/

> <PUBCHEM_EXT_SUBSTANCE_URL>
https://www.surechembl.org/chemical/SCHEMBL16111048

> <PUBCHEM_CID_ASSOCIATIONS>
117601992  1

> <PUBCHEM_COORDINATE_TYPE>
1
3

$$$$
