310948821
  -OEChem-07211613022D

 36 38  0     1  0  0  0  0  0999 V2000
   -3.0105   -1.4388    0.0000 S   0  0  0  0  0  0  0  0  0  0  0  0
   -4.2538    0.0279    0.0000 O   0  0  0  0  0  0  0  0  0  0  0  0
   -2.1583   -1.4388    0.0000 O   0  0  0  0  0  0  0  0  0  0  0  0
   -3.8486   -1.4388    0.0000 O   0  0  0  0  0  0  0  0  0  0  0  0
   -0.1048    2.4866    0.0000 O   0  0  0  0  0  0  0  0  0  0  0  0
    0.6216   -0.4051    0.0000 N   0  0  0  0  0  0  0  0  0  0  0  0
   -3.0105   -0.6007    0.0000 N   0  0  0  0  0  0  0  0  0  0  0  0
    0.6216    1.2433    0.0000 N   0  0  0  0  0  0  0  0  0  0  0  0
    1.3341    2.5005    0.0000 N   0  0  0  0  0  0  0  0  0  0  0  0
   -2.3259    1.2572    0.0000 C   0  0  3  0  0  0  0  0  0  0  0  0
   -3.0105    0.8522    0.0000 C   0  0  3  0  0  0  0  0  0  0  0  0
   -1.5297    0.8102    0.0000 C   0  0  0  0  0  0  0  0  0  0  0  0
   -2.9965    1.6484    0.0000 C   0  0  0  0  0  0  0  0  0  0  0  0
   -3.4435    0.0978    0.0000 C   0  0  0  0  0  0  0  0  0  0  0  0
   -0.1048    0.8381    0.0000 C   0  0  0  0  0  0  0  0  0  0  0  0
   -0.8312    1.2293    0.0000 C   0  0  0  0  0  0  0  0  0  0  0  0
   -0.1188    0.0140    0.0000 C   0  0  0  0  0  0  0  0  0  0  0  0
   -1.5576    0.0140    0.0000 C   0  0  0  0  0  0  0  0  0  0  0  0
   -0.8172   -0.4051    0.0000 C   0  0  0  0  0  0  0  0  0  0  0  0
    0.6356    2.0675    0.0000 C   0  0  0  0  0  0  0  0  0  0  0  0
    0.6077   -1.2433    0.0000 C   0  0  0  0  0  0  0  0  0  0  0  0
    1.3202    0.0000    0.0000 C   0  0  0  0  0  0  0  0  0  0  0  0
   -0.1048   -1.6484    0.0000 C   0  0  0  0  0  0  0  0  0  0  0  0
    2.0745   -0.4051    0.0000 C   0  0  0  0  0  0  0  0  0  0  0  0
   -3.0244   -2.2771    0.0000 C   0  0  0  0  0  0  0  0  0  0  0  0
    2.0745    2.0815    0.0000 C   0  0  0  0  0  0  0  0  0  0  0  0
    2.0745    1.2572    0.0000 C   0  0  0  0  0  0  0  0  0  0  0  0
    2.8009    2.4866    0.0000 C   0  0  0  0  0  0  0  0  0  0  0  0
    3.4994    1.2572    0.0000 C   0  0  0  0  0  0  0  0  0  0  0  0
   -0.8452   -1.2572    0.0000 C   0  0  0  0  0  0  0  0  0  0  0  0
   -0.0908   -2.5005    0.0000 C   0  0  0  0  0  0  0  0  0  0  0  0
    2.8148    0.0140    0.0000 C   0  0  0  0  0  0  0  0  0  0  0  0
    2.0885   -1.2572    0.0000 C   0  0  0  0  0  0  0  0  0  0  0  0
    2.8009    0.8381    0.0000 C   0  0  0  0  0  0  0  0  0  0  0  0
    3.5134    2.0815    0.0000 C   0  0  0  0  0  0  0  0  0  0  0  0
    4.2538    0.8102    0.0000 C   0  0  0  0  0  0  0  0  0  0  0  0
  1  3  2  0  0  0  0
  1  4  2  0  0  0  0
  1  7  1  0  0  0  0
  1 25  1  0  0  0  0
  2 14  2  0  0  0  0
  5 20  2  0  0  0  0
  6 17  1  0  0  0  0
  6 21  1  0  0  0  0
  6 22  1  0  0  0  0
  7 14  1  0  0  0  0
  8 15  1  0  0  0  0
  8 20  1  0  0  0  0
  9 20  1  0  0  0  0
  9 26  1  0  0  0  0
 10 11  1  0  0  0  0
 10 12  1  0  0  0  0
 10 13  1  1  0  0  0
 11 13  1  0  0  0  0
 11 14  1  1  0  0  0
 12 16  1  0  0  0  0
 12 18  2  0  0  0  0
 15 16  2  0  0  0  0
 15 17  1  0  0  0  0
 17 19  2  0  0  0  0
 18 19  1  0  0  0  0
 21 23  1  0  0  0  0
 22 24  1  0  0  0  0
 23 30  1  0  0  0  0
 23 31  1  0  0  0  0
 24 32  1  0  0  0  0
 24 33  1  0  0  0  0
 26 27  2  0  0  0  0
 26 28  1  0  0  0  0
 27 34  1  0  0  0  0
 28 35  2  0  0  0  0
 29 34  2  0  0  0  0
 29 35  1  0  0  0  0
 29 36  1  0  0  0  0
M  END
> <PUBCHEM_COMPOUND_ID_TYPE>
0

> <PUBCHEM_TOTAL_CHARGE>
0

> <PUBCHEM_SUBSTANCE_ID>
310948821

> <PUBCHEM_SUBSTANCE_VERSION>
1

> <PUBCHEM_EXT_DATASOURCE_NAME>
4488

> <PUBCHEM_EXT_DATASOURCE_REGID>
SCHEMBL16127005

> <PUBCHEM_SUBSTANCE_COMMENT>
InChI=1S/C27H38N4O4S/c1-17(2)15-31(16-18(3)4)25-12-9-20(22-14-23(22)26(32)30-36(6,34)35)13-24(25)29-27(33)28-21-10-7-19(5)8-11-21/h7-13,17-18,22-23H,14-16H2,1-6H3,(H,30,32)(H2,28,29,33)/t22-,23-/m0/s1
InChIKey=IGJVNNVOGRUACS-GOTSBHOMSA-N

> <PUBCHEM_SUBSTANCE_SYNONYM>
SCHEMBL16127005

> <PUBCHEM_XREF_EXT_ID>
SCHEMBL16127005

> <PUBCHEM_EXT_DATASOURCE_URL>
https://www.surechembl.org/

> <PUBCHEM_EXT_SUBSTANCE_URL>
https://www.surechembl.org/chemical/SCHEMBL16127005

> <PUBCHEM_CID_ASSOCIATIONS>
117614360  1

> <PUBCHEM_COORDINATE_TYPE>
1
3

> <PUBCHEM_BONDANNOTATIONS>
10  13  5
11  14  5

$$$$
