310935178
  -OEChem-07211613022D

 29 32  0     0  0  0  0  0  0999 V2000
    1.1448  -10.9029    0.0000 Br  0  0  0  0  0  0  0  0  0  0  0  0
    0.8177   -1.6355    0.0000 O   0  0  0  0  0  0  0  0  0  0  0  0
    2.2896   -1.6355    0.0000 O   0  0  0  0  0  0  0  0  0  0  0  0
    2.2351   -9.0494    0.0000 N   0  0  0  0  0  0  0  0  0  0  0  0
    0.8177   -9.0494    0.0000 N   0  0  0  0  0  0  0  0  0  0  0  0
    2.8348   -9.6491    0.0000 N   0  0  0  0  0  0  0  0  0  0  0  0
    1.5264   -2.8893    0.0000 N   0  0  0  0  0  0  0  0  0  0  0  0
    1.5264   -9.4855    0.0000 C   0  0  0  0  0  0  0  0  0  0  0  0
    1.5264   -7.8501    0.0000 C   0  0  0  0  0  0  0  0  0  0  0  0
    1.6899  -10.3032    0.0000 C   0  0  0  0  0  0  0  0  0  0  0  0
    1.5264   -7.0324    0.0000 C   0  0  0  0  0  0  0  0  0  0  0  0
    2.2351   -8.2317    0.0000 C   0  0  0  0  0  0  0  0  0  0  0  0
    0.8177   -8.2862    0.0000 C   0  0  0  0  0  0  0  0  0  0  0  0
    1.5264   -5.3424    0.0000 C   0  0  0  0  0  0  0  0  0  0  0  0
    2.5077  -10.4123    0.0000 C   0  0  0  0  0  0  0  0  0  0  0  0
    1.5264   -4.5247    0.0000 C   0  0  0  0  0  0  0  0  0  0  0  0
    2.2896   -6.5962    0.0000 C   0  0  0  0  0  0  0  0  0  0  0  0
    0.8177   -6.5962    0.0000 C   0  0  0  0  0  0  0  0  0  0  0  0
    2.2896   -5.7785    0.0000 C   0  0  0  0  0  0  0  0  0  0  0  0
    0.8177   -5.7785    0.0000 C   0  0  0  0  0  0  0  0  0  0  0  0
    2.2896   -4.0886    0.0000 C   0  0  0  0  0  0  0  0  0  0  0  0
    0.8177   -4.0886    0.0000 C   0  0  0  0  0  0  0  0  0  0  0  0
    1.5264   -2.0715    0.0000 C   0  0  0  0  0  0  0  0  0  0  0  0
    2.2896   -3.2709    0.0000 C   0  0  0  0  0  0  0  0  0  0  0  0
    0.8177   -3.2709    0.0000 C   0  0  0  0  0  0  0  0  0  0  0  0
    0.8177   -0.8177    0.0000 C   0  0  0  0  0  0  0  0  0  0  0  0
    1.6899   -0.8177    0.0000 C   0  0  0  0  0  0  0  0  0  0  0  0
    0.8177    0.0000    0.0000 C   0  0  0  0  0  0  0  0  0  0  0  0
    0.0000   -0.8177    0.0000 C   0  0  0  0  0  0  0  0  0  0  0  0
  1 10  1  0  0  0  0
  2 23  1  0  0  0  0
  2 26  1  0  0  0  0
  3 23  2  0  0  0  0
  4  6  1  0  0  0  0
  4  8  1  0  0  0  0
  4 12  1  0  0  0  0
  5  8  1  0  0  0  0
  5 13  2  0  0  0  0
  6 15  2  0  0  0  0
  7 23  1  0  0  0  0
  7 24  1  0  0  0  0
  7 25  1  0  0  0  0
  8 10  2  0  0  0  0
  9 11  1  0  0  0  0
  9 12  2  0  0  0  0
  9 13  1  0  0  0  0
 10 15  1  0  0  0  0
 11 17  2  0  0  0  0
 11 18  1  0  0  0  0
 14 16  1  0  0  0  0
 14 19  2  0  0  0  0
 14 20  1  0  0  0  0
 16 21  1  0  0  0  0
 16 22  1  0  0  0  0
 17 19  1  0  0  0  0
 18 20  2  0  0  0  0
 21 24  1  0  0  0  0
 22 25  1  0  0  0  0
 26 27  1  0  0  0  0
 26 28  1  0  0  0  0
 26 29  1  0  0  0  0
M  END
> <PUBCHEM_COMPOUND_ID_TYPE>
0

> <PUBCHEM_TOTAL_CHARGE>
0

> <PUBCHEM_SUBSTANCE_ID>
310935178

> <PUBCHEM_SUBSTANCE_VERSION>
1

> <PUBCHEM_EXT_DATASOURCE_NAME>
4488

> <PUBCHEM_EXT_DATASOURCE_REGID>
SCHEMBL16112706

> <PUBCHEM_SUBSTANCE_COMMENT>
InChI=1S/C22H25BrN4O2/c1-22(2,3)29-21(28)26-10-8-17(9-11-26)15-4-6-16(7-5-15)18-12-24-20-19(23)13-25-27(20)14-18/h4-7,12-14,17H,8-11H2,1-3H3
InChIKey=YFTNNIMIDDCISJ-UHFFFAOYSA-N

> <PUBCHEM_SUBSTANCE_SYNONYM>
SCHEMBL16112706

> <PUBCHEM_XREF_EXT_ID>
SCHEMBL16112706

> <PUBCHEM_EXT_DATASOURCE_URL>
https://www.surechembl.org/

> <PUBCHEM_EXT_SUBSTANCE_URL>
https://www.surechembl.org/chemical/SCHEMBL16112706

> <PUBCHEM_CID_ASSOCIATIONS>
117603261  1

> <PUBCHEM_COORDINATE_TYPE>
1
3

$$$$
