310941335
  -OEChem-07211613022D

 20 20  0     1  0  0  0  0  0999 V2000
    2.4959   -1.7559    0.0000 O   0  0  0  0  0  0  0  0  0  0  0  0
    0.4349    2.5823    0.0000 O   0  0  0  0  0  0  0  0  0  0  0  0
    1.9933   -2.5823    0.0000 O   0  0  0  0  0  0  0  0  0  0  0  0
    1.8844    1.7468    0.0000 O   0  0  0  0  0  0  0  0  0  0  0  0
    0.4520    0.0756    0.0000 N   0  0  0  0  0  0  0  0  0  0  0  0
    1.1683    1.3205    0.0000 N   0  0  0  0  0  0  0  0  0  0  0  0
   -0.2641    1.3376    0.0000 C   0  0  3  0  0  0  0  0  0  0  0  0
    0.4349    1.7298    0.0000 C   0  0  0  0  0  0  0  0  0  0  0  0
   -1.0315    1.7298    0.0000 C   0  0  0  0  0  0  0  0  0  0  0  0
    1.9933   -2.0463    0.0000 C   0  0  0  0  0  0  0  0  0  0  0  0
   -1.7306    1.3205    0.0000 C   0  0  0  0  0  0  0  0  0  0  0  0
    2.5070   -1.1975    0.0000 C   0  0  0  0  0  0  0  0  0  0  0  0
   -1.7306    0.4849    0.0000 C   0  0  0  0  0  0  0  0  0  0  0  0
   -2.5321    1.5762    0.0000 C   0  0  0  0  0  0  0  0  0  0  0  0
   -2.5150    0.2292    0.0000 C   0  0  0  0  0  0  0  0  0  0  0  0
   -3.0096    0.8942    0.0000 C   0  0  0  0  0  0  0  0  0  0  0  0
    3.0096   -1.1751    0.0000 C   0  0  0  0  0  0  0  0  0  0  0  0
    1.9933   -1.1975    0.0000 C   0  0  0  0  0  0  0  0  0  0  0  0
    2.4959   -0.6503    0.0000 C   0  0  0  0  0  0  0  0  0  0  0  0
    2.6518    1.3034    0.0000 C   0  0  0  0  0  0  0  0  0  0  0  0
  1 10  1  0  0  0  0
  1 12  1  0  0  0  0
  2  8  2  0  0  0  0
  3 10  2  0  0  0  0
  4  6  1  0  0  0  0
  4 20  1  0  0  0  0
  7  5  1  1  0  0  0
  5 10  1  0  0  0  0
  6  8  1  0  0  0  0
  7  8  1  0  0  0  0
  7  9  1  0  0  0  0
  9 11  1  0  0  0  0
 11 13  2  0  0  0  0
 11 14  1  0  0  0  0
 12 17  1  0  0  0  0
 12 18  1  0  0  0  0
 12 19  1  0  0  0  0
 13 15  1  0  0  0  0
 14 16  1  0  0  0  0
 15 16  1  0  0  0  0
M  END
> <PUBCHEM_COMPOUND_ID_TYPE>
0

> <PUBCHEM_TOTAL_CHARGE>
0

> <PUBCHEM_SUBSTANCE_ID>
310941335

> <PUBCHEM_SUBSTANCE_VERSION>
1

> <PUBCHEM_EXT_DATASOURCE_NAME>
4488

> <PUBCHEM_EXT_DATASOURCE_REGID>
SCHEMBL16119295

> <PUBCHEM_SUBSTANCE_COMMENT>
InChI=1S/C14H24N2O4/c1-14(2,3)20-13(18)15-11(12(17)16-19-4)9-10-7-5-6-8-10/h7,11H,5-6,8-9H2,1-4H3,(H,15,18)(H,16,17)/t11-/m0/s1
InChIKey=JAWGITINKSGRAQ-NSHDSACASA-N

> <PUBCHEM_SUBSTANCE_SYNONYM>
SCHEMBL16119295

> <PUBCHEM_XREF_EXT_ID>
SCHEMBL16119295

> <PUBCHEM_EXT_DATASOURCE_URL>
https://www.surechembl.org/

> <PUBCHEM_EXT_SUBSTANCE_URL>
https://www.surechembl.org/chemical/SCHEMBL16119295

> <PUBCHEM_CID_ASSOCIATIONS>
117608178  1

> <PUBCHEM_COORDINATE_TYPE>
1
3

> <PUBCHEM_BONDANNOTATIONS>
7  5  5

$$$$
