310947444
  -OEChem-07211613022D

 24 25  0     0  0  0  0  0  0999 V2000
   -0.5463   15.3979    0.0000 O   0  0  0  0  0  0  0  0  0  0  0  0
    2.3116   16.2229    0.0000 O   0  0  0  0  0  0  0  0  0  0  0  0
   -1.2608   17.4604    0.0000 O   0  0  0  0  0  0  0  0  0  0  0  0
   -1.9753   15.3979    0.0000 N   0  0  0  0  0  0  0  0  0  0  0  0
   -0.5463   13.7479    0.0000 N   0  0  0  0  0  0  0  0  0  0  0  0
    3.0260   14.9854    0.0000 N   0  0  0  0  0  0  0  0  0  0  0  0
   -2.6897   14.9854    0.0000 C   0  0  0  0  0  0  0  0  0  0  0  0
   -1.2608   14.9854    0.0000 C   0  0  0  0  0  0  0  0  0  0  0  0
    0.1681   14.1604    0.0000 C   0  0  0  0  0  0  0  0  0  0  0  0
    1.5971   14.9854    0.0000 C   0  0  0  0  0  0  0  0  0  0  0  0
   -1.2608   14.1604    0.0000 C   0  0  0  0  0  0  0  0  0  0  0  0
   -1.9753   16.2229    0.0000 C   0  0  0  0  0  0  0  0  0  0  0  0
    0.8826   13.7479    0.0000 C   0  0  0  0  0  0  0  0  0  0  0  0
    0.1681   14.9854    0.0000 C   0  0  0  0  0  0  0  0  0  0  0  0
    1.5971   14.1604    0.0000 C   0  0  0  0  0  0  0  0  0  0  0  0
    0.8826   15.3979    0.0000 C   0  0  0  0  0  0  0  0  0  0  0  0
   -3.4042   15.3979    0.0000 C   0  0  0  0  0  0  0  0  0  0  0  0
   -2.6897   14.1604    0.0000 C   0  0  0  0  0  0  0  0  0  0  0  0
    2.3116   15.3979    0.0000 C   0  0  0  0  0  0  0  0  0  0  0  0
   -4.1187   14.9854    0.0000 C   0  0  0  0  0  0  0  0  0  0  0  0
   -3.4042   13.7479    0.0000 C   0  0  0  0  0  0  0  0  0  0  0  0
   -4.1187   14.1604    0.0000 C   0  0  0  0  0  0  0  0  0  0  0  0
   -1.2608   16.6354    0.0000 C   0  0  0  0  0  0  0  0  0  0  0  0
    3.7405   15.3979    0.0000 C   0  0  0  0  0  0  0  0  0  0  0  0
  1  8  2  0  0  0  0
  2 19  2  0  0  0  0
  3 23  1  0  0  0  0
  4  7  1  0  0  0  0
  4  8  1  0  0  0  0
  4 12  1  0  0  0  0
  5  9  1  0  0  0  0
  5 11  1  0  0  0  0
  6 19  1  0  0  0  0
  6 24  1  0  0  0  0
  7 17  2  0  0  0  0
  7 18  1  0  0  0  0
  8 11  1  0  0  0  0
  9 13  2  0  0  0  0
  9 14  1  0  0  0  0
 10 15  2  0  0  0  0
 10 16  1  0  0  0  0
 10 19  1  0  0  0  0
 12 23  1  0  0  0  0
 13 15  1  0  0  0  0
 14 16  2  0  0  0  0
 17 20  1  0  0  0  0
 18 21  2  0  0  0  0
 20 22  2  0  0  0  0
 21 22  1  0  0  0  0
M  END
> <PUBCHEM_COMPOUND_ID_TYPE>
0

> <PUBCHEM_TOTAL_CHARGE>
0

> <PUBCHEM_SUBSTANCE_ID>
310947444

> <PUBCHEM_SUBSTANCE_VERSION>
1

> <PUBCHEM_EXT_DATASOURCE_NAME>
4488

> <PUBCHEM_EXT_DATASOURCE_REGID>
SCHEMBL16125605

> <PUBCHEM_SUBSTANCE_COMMENT>
InChI=1S/C18H21N3O3/c1-19-18(24)14-7-9-15(10-8-14)20-13-17(23)21(11-12-22)16-5-3-2-4-6-16/h2-10,20,22H,11-13H2,1H3,(H,19,24)
InChIKey=XWKNLYXITLNBPA-UHFFFAOYSA-N

> <PUBCHEM_SUBSTANCE_SYNONYM>
SCHEMBL16125605

> <PUBCHEM_XREF_EXT_ID>
SCHEMBL16125605

> <PUBCHEM_EXT_DATASOURCE_URL>
https://www.surechembl.org/

> <PUBCHEM_EXT_SUBSTANCE_URL>
https://www.surechembl.org/chemical/SCHEMBL16125605

> <PUBCHEM_CID_ASSOCIATIONS>
117613176  1

> <PUBCHEM_COORDINATE_TYPE>
1
3

$$$$
