310930822
  -OEChem-07211613022D

 15 16  0     1  0  0  0  0  0999 V2000
    1.4285    0.0000    0.0000 O   0  0  0  0  0  0  0  0  0  0  0  0
    0.0000    0.0000    0.0000 O   0  0  0  0  0  0  0  0  0  0  0  0
    3.2686   -4.8182    0.0000 O   0  0  0  0  0  0  0  0  0  0  0  0
    0.7021   -1.2348    0.0000 N   0  0  0  0  0  0  0  0  0  0  0  0
    0.7021   -3.7287    0.0000 C   0  0  3  0  0  0  0  0  0  0  0  0
    1.1138   -4.4308    0.0000 C   0  0  3  0  0  0  0  0  0  0  0  0
    0.7021   -2.8812    0.0000 C   0  0  0  0  0  0  0  0  0  0  0  0
    0.2906   -4.4550    0.0000 C   0  0  0  0  0  0  0  0  0  0  0  0
    1.4285   -2.4696    0.0000 C   0  0  0  0  0  0  0  0  0  0  0  0
    0.0000   -2.4696    0.0000 C   0  0  0  0  0  0  0  0  0  0  0  0
    1.4285   -1.6464    0.0000 C   0  0  0  0  0  0  0  0  0  0  0  0
    0.0000   -1.6464    0.0000 C   0  0  0  0  0  0  0  0  0  0  0  0
    1.8401   -4.8424    0.0000 C   0  0  0  0  0  0  0  0  0  0  0  0
    0.7021   -0.4116    0.0000 C   0  0  0  0  0  0  0  0  0  0  0  0
    2.5423   -4.4066    0.0000 C   0  0  0  0  0  0  0  0  0  0  0  0
  1 14  2  0  0  0  0
  2 14  1  0  0  0  0
  3 15  1  0  0  0  0
  4 11  1  0  0  0  0
  4 12  1  0  0  0  0
  4 14  1  0  0  0  0
  5  6  1  0  0  0  0
  5  7  1  0  0  0  0
  5  8  1  6  0  0  0
  6  8  1  0  0  0  0
  6 13  1  6  0  0  0
  7  9  1  0  0  0  0
  7 10  1  0  0  0  0
  9 11  1  0  0  0  0
 10 12  1  0  0  0  0
 13 15  1  0  0  0  0
M  END
> <PUBCHEM_COMPOUND_ID_TYPE>
0

> <PUBCHEM_TOTAL_CHARGE>
0

> <PUBCHEM_SUBSTANCE_ID>
310930822

> <PUBCHEM_SUBSTANCE_VERSION>
1

> <PUBCHEM_EXT_DATASOURCE_NAME>
4488

> <PUBCHEM_EXT_DATASOURCE_REGID>
SCHEMBL16108119

> <PUBCHEM_SUBSTANCE_COMMENT>
InChI=1S/C11H19NO3/c13-6-3-9-7-10(9)8-1-4-12(5-2-8)11(14)15/h8-10,13H,1-7H2,(H,14,15)/t9-,10-/m1/s1
InChIKey=LYYJHEPIZSZSSE-NXEZZACHSA-N

> <PUBCHEM_SUBSTANCE_SYNONYM>
SCHEMBL16108119

> <PUBCHEM_XREF_EXT_ID>
SCHEMBL16108119

> <PUBCHEM_EXT_DATASOURCE_URL>
https://www.surechembl.org/

> <PUBCHEM_EXT_SUBSTANCE_URL>
https://www.surechembl.org/chemical/SCHEMBL16108119

> <PUBCHEM_CID_ASSOCIATIONS>
117599822  1

> <PUBCHEM_COORDINATE_TYPE>
1
3

> <PUBCHEM_BONDANNOTATIONS>
5  8  6
6  13  6

$$$$
