310948292
  -OEChem-07211613022D

 42 47  0     0  0  0  0  0  0999 V2000
    3.4163    2.9135    0.0000 F   0  0  0  0  0  0  0  0  0  0  0  0
    4.1601    2.0870    0.0000 F   0  0  0  0  0  0  0  0  0  0  0  0
   -3.5265   -0.3651    0.0000 F   0  0  0  0  0  0  0  0  0  0  0  0
   -2.3693   -0.1860    0.0000 F   0  0  0  0  0  0  0  0  0  0  0  0
    4.0499   -0.3100    0.0000 F   0  0  0  0  0  0  0  0  0  0  0  0
   -0.9229   -0.2273    0.0000 O   0  0  0  0  0  0  0  0  0  0  0  0
    2.5346    2.2661    0.0000 O   0  0  0  0  0  0  0  0  0  0  0  0
    3.4163    1.2742    0.0000 O   0  0  0  0  0  0  0  0  0  0  0  0
   -3.0030   -2.2798    0.0000 O   0  0  0  0  0  0  0  0  0  0  0  0
   -0.3719    0.9849    0.0000 N   0  0  0  0  0  0  0  0  0  0  0  0
   -1.3913   -2.4176    0.0000 N   0  0  0  0  0  0  0  0  0  0  0  0
   -2.1765   -2.1696    0.0000 N   0  0  0  0  0  0  0  0  0  0  0  0
   -4.1601   -1.4395    0.0000 N   0  0  0  0  0  0  0  0  0  0  0  0
   -0.0964   -0.3238    0.0000 C   0  0  0  0  0  0  0  0  0  0  0  0
    0.3168   -1.0400    0.0000 C   0  0  0  0  0  0  0  0  0  0  0  0
    0.2479    0.4202    0.0000 C   0  0  0  0  0  0  0  0  0  0  0  0
   -0.0826   -1.7563    0.0000 C   0  0  0  0  0  0  0  0  0  0  0  0
    1.0607    0.5992    0.0000 C   0  0  0  0  0  0  0  0  0  0  0  0
   -0.9229   -1.7425    0.0000 C   0  0  0  0  0  0  0  0  0  0  0  0
    2.1076    1.5359    0.0000 C   0  0  0  0  0  0  0  0  0  0  0  0
    2.6586    0.9436    0.0000 C   0  0  0  0  0  0  0  0  0  0  0  0
    1.1572   -1.0538    0.0000 C   0  0  0  0  0  0  0  0  0  0  0  0
    1.3087    1.3706    0.0000 C   0  0  0  0  0  0  0  0  0  0  0  0
    3.3336    2.0870    0.0000 C   0  0  0  0  0  0  0  0  0  0  0  0
    1.5566   -1.7425    0.0000 C   0  0  0  0  0  0  0  0  0  0  0  0
   -2.1627   -1.3293    0.0000 C   0  0  0  0  0  0  0  0  0  0  0  0
   -1.0883    0.5579    0.0000 C   0  0  0  0  0  0  0  0  0  0  0  0
    0.3306   -2.4589    0.0000 C   0  0  0  0  0  0  0  0  0  0  0  0
   -1.4051   -1.0951    0.0000 C   0  0  0  0  0  0  0  0  0  0  0  0
   -2.8515   -0.8472    0.0000 C   0  0  0  0  0  0  0  0  0  0  0  0
    1.5842   -0.0069    0.0000 C   0  0  0  0  0  0  0  0  0  0  0  0
    2.4107    0.1447    0.0000 C   0  0  0  0  0  0  0  0  0  0  0  0
    1.1572   -2.4589    0.0000 C   0  0  0  0  0  0  0  0  0  0  0  0
    2.3969   -1.7563    0.0000 C   0  0  0  0  0  0  0  0  0  0  0  0
   -3.3474   -1.5084    0.0000 C   0  0  0  0  0  0  0  0  0  0  0  0
    2.8239   -1.0400    0.0000 C   0  0  0  0  0  0  0  0  0  0  0  0
    2.8101   -2.4589    0.0000 C   0  0  0  0  0  0  0  0  0  0  0  0
   -1.8597    0.9161    0.0000 C   0  0  0  0  0  0  0  0  0  0  0  0
    3.6229   -1.0400    0.0000 C   0  0  0  0  0  0  0  0  0  0  0  0
    3.6367   -2.4589    0.0000 C   0  0  0  0  0  0  0  0  0  0  0  0
    4.0362   -1.7288    0.0000 C   0  0  0  0  0  0  0  0  0  0  0  0
    3.9122   -2.9135    0.0000 C   0  0  0  0  0  0  0  0  0  0  0  0
  1 24  1  0  0  0  0
  2 24  1  0  0  0  0
  3 30  1  0  0  0  0
  4 30  1  0  0  0  0
  5 39  1  0  0  0  0
  6 14  1  0  0  0  0
  6 27  1  0  0  0  0
  7 20  1  0  0  0  0
  7 24  1  0  0  0  0
  8 21  1  0  0  0  0
  8 24  1  0  0  0  0
  9 35  2  0  0  0  0
 10 16  1  0  0  0  0
 10 27  2  0  0  0  0
 11 12  1  0  0  0  0
 11 19  1  0  0  0  0
 12 26  2  0  0  0  0
 13 35  1  0  0  0  0
 14 15  1  0  0  0  0
 14 16  2  0  0  0  0
 15 17  1  0  0  0  0
 15 22  2  0  0  0  0
 16 18  1  0  0  0  0
 17 19  1  0  0  0  0
 17 28  2  0  0  0  0
 18 23  1  0  0  0  0
 18 31  2  0  0  0  0
 19 29  2  0  0  0  0
 20 21  1  0  0  0  0
 20 23  2  0  0  0  0
 21 32  2  0  0  0  0
 22 25  1  0  0  0  0
 25 33  2  0  0  0  0
 25 34  1  0  0  0  0
 26 29  1  0  0  0  0
 26 30  1  0  0  0  0
 27 38  1  0  0  0  0
 28 33  1  0  0  0  0
 30 35  1  0  0  0  0
 31 32  1  0  0  0  0
 34 36  1  0  0  0  0
 34 37  2  0  0  0  0
 36 39  2  0  0  0  0
 37 40  1  0  0  0  0
 39 41  1  0  0  0  0
 40 41  2  0  0  0  0
 40 42  1  0  0  0  0
M  END
> <PUBCHEM_COMPOUND_ID_TYPE>
0

> <PUBCHEM_TOTAL_CHARGE>
0

> <PUBCHEM_SUBSTANCE_ID>
310948292

> <PUBCHEM_SUBSTANCE_VERSION>
1

> <PUBCHEM_EXT_DATASOURCE_NAME>
4488

> <PUBCHEM_EXT_DATASOURCE_REGID>
SCHEMBL16126469

> <PUBCHEM_SUBSTANCE_COMMENT>
InChI=1S/C29H19F5N4O4/c1-13-7-17(9-18(30)8-13)15-3-5-19(21-12-24(38-37-21)28(31,32)27(35)39)20(10-15)26-25(36-14(2)40-26)16-4-6-22-23(11-16)42-29(33,34)41-22/h3-12H,1-2H3,(H2,35,39)(H,37,38)
InChIKey=PSGGJPXMYPMMOU-UHFFFAOYSA-N

> <PUBCHEM_SUBSTANCE_SYNONYM>
SCHEMBL16126469

> <PUBCHEM_XREF_EXT_ID>
SCHEMBL16126469

> <PUBCHEM_EXT_DATASOURCE_URL>
https://www.surechembl.org/

> <PUBCHEM_EXT_SUBSTANCE_URL>
https://www.surechembl.org/chemical/SCHEMBL16126469

> <PUBCHEM_CID_ASSOCIATIONS>
117613864  1

> <PUBCHEM_COORDINATE_TYPE>
1
3

$$$$
