310946028
  -OEChem-07211613022D

 35 38  0     1  0  0  0  0  0999 V2000
    3.6578    1.5726    0.0000 O   0  0  0  0  0  0  0  0  0  0  0  0
    1.3856    1.5726    0.0000 O   0  0  0  0  0  0  0  0  0  0  0  0
    0.6651    1.1570    0.0000 O   0  0  0  0  0  0  0  0  0  0  0  0
   -0.0554    1.5726    0.0000 O   0  0  0  0  0  0  0  0  0  0  0  0
   -2.8127    1.8497    0.0000 O   0  0  0  0  0  0  0  0  0  0  0  0
   -2.9373   -2.5841    0.0000 O   0  0  0  0  0  0  0  0  0  0  0  0
    1.3856   -0.0762    0.0000 N   0  0  0  0  0  0  0  0  0  0  0  0
   -0.7759    0.3395    0.0000 N   0  0  0  0  0  0  0  0  0  0  0  0
    2.8404    1.5726    0.0000 C   0  0  3  0  0  0  0  0  0  0  0  0
    2.1061    1.1570    0.0000 C   0  0  0  0  0  0  0  0  0  0  0  0
    3.2422    0.8937    0.0000 C   0  0  0  0  0  0  0  0  0  0  0  0
    2.1061    0.3533    0.0000 C   0  0  3  0  0  0  0  0  0  0  0  0
    2.8265    2.3762    0.0000 C   0  0  0  0  0  0  0  0  0  0  0  0
    2.8265   -0.0762    0.0000 C   0  0  0  0  0  0  0  0  0  0  0  0
    0.6512    0.3256    0.0000 C   0  0  0  0  0  0  0  0  0  0  0  0
   -0.0416   -0.0762    0.0000 C   0  0  3  0  0  0  0  0  0  0  0  0
    2.8127   -0.9075    0.0000 C   0  0  0  0  0  0  0  0  0  0  0  0
   -0.0554   -0.9075    0.0000 C   0  0  0  0  0  0  0  0  0  0  0  0
   -0.7482    1.1154    0.0000 C   0  0  0  0  0  0  0  0  0  0  0  0
   -0.7621   -1.3232    0.0000 C   0  0  0  0  0  0  0  0  0  0  0  0
   -1.4964    1.5864    0.0000 C   0  0  3  0  0  0  0  0  0  0  0  0
    3.5470   -1.3371    0.0000 C   0  0  0  0  0  0  0  0  0  0  0  0
    2.1199   -1.3232    0.0000 C   0  0  0  0  0  0  0  0  0  0  0  0
   -1.4964   -0.9214    0.0000 C   0  0  0  0  0  0  0  0  0  0  0  0
   -0.7759   -2.1407    0.0000 C   0  0  0  0  0  0  0  0  0  0  0  0
   -2.2308    1.2539    0.0000 C   0  0  0  0  0  0  0  0  0  0  0  0
   -1.5795    2.4178    0.0000 C   0  0  0  0  0  0  0  0  0  0  0  0
   -2.2169   -2.1545    0.0000 C   0  0  0  0  0  0  0  0  0  0  0  0
   -2.2030   -1.3232    0.0000 C   0  0  0  0  0  0  0  0  0  0  0  0
   -1.4964   -2.5564    0.0000 C   0  0  0  0  0  0  0  0  0  0  0  0
    3.5470   -2.1545    0.0000 C   0  0  0  0  0  0  0  0  0  0  0  0
    2.1199   -2.1545    0.0000 C   0  0  0  0  0  0  0  0  0  0  0  0
   -2.3832    2.5841    0.0000 C   0  0  0  0  0  0  0  0  0  0  0  0
    2.8404   -2.5564    0.0000 C   0  0  0  0  0  0  0  0  0  0  0  0
   -3.6578   -2.1684    0.0000 C   0  0  0  0  0  0  0  0  0  0  0  0
  1  9  1  0  0  0  0
  1 11  1  0  0  0  0
  2 10  2  0  0  0  0
  3 15  2  0  0  0  0
  4 19  2  0  0  0  0
  5 26  1  0  0  0  0
  5 33  1  0  0  0  0
  6 28  1  0  0  0  0
  6 35  1  0  0  0  0
 12  7  1  1  0  0  0
  7 15  1  0  0  0  0
  8 16  1  0  0  0  0
  8 19  1  0  0  0  0
  9 10  1  1  0  0  0
  9 11  1  0  0  0  0
  9 13  1  6  0  0  0
 10 12  1  0  0  0  0
 12 14  1  0  0  0  0
 14 17  1  0  0  0  0
 15 16  1  0  0  0  0
 16 18  1  0  0  0  0
 17 22  2  0  0  0  0
 17 23  1  0  0  0  0
 18 20  1  0  0  0  0
 21 19  1  6  0  0  0
 20 24  2  0  0  0  0
 20 25  1  0  0  0  0
 21 26  1  0  0  0  0
 21 27  1  0  0  0  0
 22 31  1  0  0  0  0
 23 32  2  0  0  0  0
 24 29  1  0  0  0  0
 25 30  2  0  0  0  0
 27 33  1  0  0  0  0
 28 29  2  0  0  0  0
 28 30  1  0  0  0  0
 31 34  2  0  0  0  0
 32 34  1  0  0  0  0
M  END
> <PUBCHEM_COMPOUND_ID_TYPE>
0

> <PUBCHEM_TOTAL_CHARGE>
0

> <PUBCHEM_SUBSTANCE_ID>
310946028

> <PUBCHEM_SUBSTANCE_VERSION>
1

> <PUBCHEM_EXT_DATASOURCE_NAME>
4488

> <PUBCHEM_EXT_DATASOURCE_REGID>
SCHEMBL16124134

> <PUBCHEM_SUBSTANCE_COMMENT>
InChI=1S/C27H32N2O6/c1-27(17-35-27)24(30)22(14-18-6-4-3-5-7-18)28-26(32)23(29-25(31)20-12-13-34-16-20)15-19-8-10-21(33-2)11-9-19/h3-11,20,22-23H,12-17H2,1-2H3,(H,28,32)(H,29,31)/t20-,22+,23?,27-/m0/s1
InChIKey=CTMYWXHFJJIIQU-LRHSSPJNSA-N

> <PUBCHEM_SUBSTANCE_SYNONYM>
SCHEMBL16124134

> <PUBCHEM_XREF_EXT_ID>
SCHEMBL16124134

> <PUBCHEM_EXT_DATASOURCE_URL>
https://www.surechembl.org/

> <PUBCHEM_EXT_SUBSTANCE_URL>
https://www.surechembl.org/chemical/SCHEMBL16124134

> <PUBCHEM_CID_ASSOCIATIONS>
117611999  1

> <PUBCHEM_COORDINATE_TYPE>
1
3

> <PUBCHEM_BONDANNOTATIONS>
21  19  6
12  7  5
9  10  5
9  13  6

$$$$
