310944431
  -OEChem-07211613022D

 15 16  0     1  0  0  0  0  0999 V2000
    2.6427   -1.5112    0.0000 Br  0  0  0  0  0  0  0  0  0  0  0  0
   -2.6427   -0.1472    0.0000 F   0  0  0  0  0  0  0  0  0  0  0  0
    0.3177    0.0077    0.0000 N   0  0  0  0  0  0  0  0  0  0  0  0
    0.7982    0.6898    0.0000 N   0  0  0  0  0  0  0  0  0  0  0  0
   -0.4882    0.2868    0.0000 C   0  0  0  0  0  0  0  0  0  0  0  0
   -0.4727    1.1083    0.0000 C   0  0  0  0  0  0  0  0  0  0  0  0
   -1.2167   -0.1317    0.0000 C   0  0  0  0  0  0  0  0  0  0  0  0
    0.3022    1.3562    0.0000 C   0  0  0  0  0  0  0  0  0  0  0  0
   -1.2167    1.5112    0.0000 C   0  0  0  0  0  0  0  0  0  0  0  0
   -1.9298    0.2712    0.0000 C   0  0  0  0  0  0  0  0  0  0  0  0
    0.5658   -0.7673    0.0000 C   0  0  0  0  0  0  0  0  0  0  0  0
   -1.9142    1.1083    0.0000 C   0  0  0  0  0  0  0  0  0  0  0  0
    1.4182   -0.7982    0.0000 C   0  0  3  0  0  0  0  0  0  0  0  0
    1.8213   -1.4957    0.0000 C   0  0  0  0  0  0  0  0  0  0  0  0
    1.8057   -0.0698    0.0000 C   0  0  0  0  0  0  0  0  0  0  0  0
  1 14  1  0  0  0  0
  2 10  1  0  0  0  0
  3  4  1  0  0  0  0
  3  5  1  0  0  0  0
  3 11  1  0  0  0  0
  4  8  2  0  0  0  0
  5  6  1  0  0  0  0
  5  7  2  0  0  0  0
  6  8  1  0  0  0  0
  6  9  2  0  0  0  0
  7 10  1  0  0  0  0
  9 12  1  0  0  0  0
 10 12  2  0  0  0  0
 11 13  1  0  0  0  0
 13 14  1  0  0  0  0
 13 15  1  6  0  0  0
M  END
> <PUBCHEM_COMPOUND_ID_TYPE>
0

> <PUBCHEM_TOTAL_CHARGE>
0

> <PUBCHEM_SUBSTANCE_ID>
310944431

> <PUBCHEM_SUBSTANCE_VERSION>
1

> <PUBCHEM_EXT_DATASOURCE_NAME>
4488

> <PUBCHEM_EXT_DATASOURCE_REGID>
SCHEMBL16122506

> <PUBCHEM_SUBSTANCE_COMMENT>
InChI=1S/C11H12BrFN2/c1-8(5-12)7-15-11-4-10(13)3-2-9(11)6-14-15/h2-4,6,8H,5,7H2,1H3/t8-/m1/s1
InChIKey=NWMJWCDTMSYKHX-MRVPVSSYSA-N

> <PUBCHEM_SUBSTANCE_SYNONYM>
SCHEMBL16122506

> <PUBCHEM_XREF_EXT_ID>
SCHEMBL16122506

> <PUBCHEM_EXT_DATASOURCE_URL>
https://www.surechembl.org/

> <PUBCHEM_EXT_SUBSTANCE_URL>
https://www.surechembl.org/chemical/SCHEMBL16122506

> <PUBCHEM_CID_ASSOCIATIONS>
117610685  1

> <PUBCHEM_COORDINATE_TYPE>
1
3

> <PUBCHEM_BONDANNOTATIONS>
13  15  6

$$$$
