310942256
  -OEChem-07211613022D

 26 27  0     1  0  0  0  0  0999 V2000
    2.5112    1.4555    0.0000 Cl  0  0  0  0  0  0  0  0  0  0  0  0
    1.0620   -1.0307    0.0000 F   0  0  0  0  0  0  0  0  0  0  0  0
    2.4987   -0.2061    0.0000 O   0  0  0  0  0  0  0  0  0  0  0  0
   -3.2733   -1.0432    0.0000 O   0  0  0  0  0  0  0  0  0  0  0  0
   -1.0995    0.2186    0.0000 N   0  0  0  0  0  0  0  0  0  0  0  0
   -3.9855    0.2186    0.0000 N   0  0  0  0  0  0  0  0  0  0  0  0
    0.3373    0.2186    0.0000 C   0  0  0  0  0  0  0  0  0  0  0  0
    1.7741    0.2186    0.0000 C   0  0  0  0  0  0  0  0  0  0  0  0
    1.0620   -0.1937    0.0000 C   0  0  0  0  0  0  0  0  0  0  0  0
    1.7866    1.0557    0.0000 C   0  0  0  0  0  0  0  0  0  0  0  0
   -0.3623   -0.1937    0.0000 C   0  0  3  0  0  0  0  0  0  0  0  0
    0.3623    1.0432    0.0000 C   0  0  0  0  0  0  0  0  0  0  0  0
    1.0744    1.4555    0.0000 C   0  0  0  0  0  0  0  0  0  0  0  0
    3.2233    0.2186    0.0000 C   0  0  0  0  0  0  0  0  0  0  0  0
   -0.3748   -1.0432    0.0000 C   0  0  0  0  0  0  0  0  0  0  0  0
   -1.8115   -0.1937    0.0000 C   0  0  3  0  0  0  0  0  0  0  0  0
    3.9479   -0.1937    0.0000 C   0  0  0  0  0  0  0  0  0  0  0  0
    3.2483    1.0432    0.0000 C   0  0  0  0  0  0  0  0  0  0  0  0
   -2.5487    0.2061    0.0000 C   0  0  0  0  0  0  0  0  0  0  0  0
    4.6726    0.2186    0.0000 C   0  0  0  0  0  0  0  0  0  0  0  0
    3.9605    1.4555    0.0000 C   0  0  0  0  0  0  0  0  0  0  0  0
   -1.0744   -1.4555    0.0000 C   0  0  0  0  0  0  0  0  0  0  0  0
    4.6726    1.0432    0.0000 C   0  0  0  0  0  0  0  0  0  0  0  0
   -3.2608   -0.1812    0.0000 C   0  0  0  0  0  0  0  0  0  0  0  0
   -1.8115   -1.0307    0.0000 C   0  0  0  0  0  0  0  0  0  0  0  0
   -4.6726   -0.2061    0.0000 C   0  0  0  0  0  0  0  0  0  0  0  0
  1 10  1  0  0  0  0
  2  9  1  0  0  0  0
  3  8  1  0  0  0  0
  3 14  1  0  0  0  0
  4 24  2  0  0  0  0
 11  5  1  1  0  0  0
  5 16  1  0  0  0  0
  6 24  1  0  0  0  0
  6 26  1  0  0  0  0
  7  9  2  0  0  0  0
  7 11  1  0  0  0  0
  7 12  1  0  0  0  0
  8  9  1  0  0  0  0
  8 10  2  0  0  0  0
 10 13  1  0  0  0  0
 11 15  1  0  0  0  0
 12 13  2  0  0  0  0
 14 17  2  0  0  0  0
 14 18  1  0  0  0  0
 15 22  1  0  0  0  0
 16 19  1  0  0  0  0
 16 25  1  1  0  0  0
 17 20  1  0  0  0  0
 18 21  2  0  0  0  0
 19 24  1  0  0  0  0
 20 23  2  0  0  0  0
 21 23  1  0  0  0  0
M  END
> <PUBCHEM_COMPOUND_ID_TYPE>
0

> <PUBCHEM_TOTAL_CHARGE>
0

> <PUBCHEM_SUBSTANCE_ID>
310942256

> <PUBCHEM_SUBSTANCE_VERSION>
1

> <PUBCHEM_EXT_DATASOURCE_NAME>
4488

> <PUBCHEM_EXT_DATASOURCE_REGID>
SCHEMBL16120291

> <PUBCHEM_SUBSTANCE_COMMENT>
InChI=1S/C20H24ClFN2O2/c1-4-17(24-13(2)12-18(25)23-3)15-10-11-16(21)20(19(15)22)26-14-8-6-5-7-9-14/h5-11,13,17,24H,4,12H2,1-3H3,(H,23,25)/t13-,17+/m0/s1
InChIKey=YHYFVGVJAHXXIS-SUMWQHHRSA-N

> <PUBCHEM_SUBSTANCE_SYNONYM>
SCHEMBL16120291

> <PUBCHEM_XREF_EXT_ID>
SCHEMBL16120291

> <PUBCHEM_EXT_DATASOURCE_URL>
https://www.surechembl.org/

> <PUBCHEM_EXT_SUBSTANCE_URL>
https://www.surechembl.org/chemical/SCHEMBL16120291

> <PUBCHEM_CID_ASSOCIATIONS>
117608906  1

> <PUBCHEM_COORDINATE_TYPE>
1
3

> <PUBCHEM_BONDANNOTATIONS>
16  25  5
11  5  5

$$$$
