310929547
  -OEChem-07211613022D

 64 71  0     1  0  0  0  0  0999 V2000
    7.0627    2.3261    0.0000 S   0  0  0  0  0  0  0  0  0  0  0  0
    7.6869   -0.2937    0.0000 F   0  0  0  0  0  0  0  0  0  0  0  0
    5.9741    3.5660    0.0000 O   0  0  0  0  0  0  0  0  0  0  0  0
    7.2242    1.5170    0.0000 O   0  0  0  0  0  0  0  0  0  0  0  0
    6.9013    3.1351    0.0000 O   0  0  0  0  0  0  0  0  0  0  0  0
    3.4902    1.7663    0.0000 O   0  0  0  0  0  0  0  0  0  0  0  0
    5.1028   -1.5144    0.0000 O   0  0  0  0  0  0  0  0  0  0  0  0
    2.2838   -0.5650    0.0000 O   0  0  0  0  0  0  0  0  0  0  0  0
    1.4616   -0.4972    0.0000 O   0  0  0  0  0  0  0  0  0  0  0  0
    6.1599   -3.7523    0.0000 O   0  0  0  0  0  0  0  0  0  0  0  0
    0.2870    0.3166    0.0000 O   0  0  0  0  0  0  0  0  0  0  0  0
    4.9188    1.7983    0.0000 N   0  0  0  0  0  0  0  0  0  0  0  0
    6.2537    2.1646    0.0000 N   0  0  0  0  0  0  0  0  0  0  0  0
    3.5759    0.0454    0.0000 N   0  0  0  0  0  0  0  0  0  0  0  0
    5.0403   -1.1700    0.0000 N   0  0  0  0  0  0  0  0  0  0  0  0
    1.5791    0.9270    0.0000 N   0  0  0  0  0  0  0  0  0  0  0  0
    8.6266   -3.9557    0.0000 N   0  0  0  0  0  0  0  0  0  0  0  0
    4.9003    2.6231    0.0000 C   0  0  3  0  0  0  0  0  0  0  0  0
    4.0848    2.7481    0.0000 C   0  0  3  0  0  0  0  0  0  0  0  0
    4.6008    3.3919    0.0000 C   0  0  0  0  0  0  0  0  0  0  0  0
    5.7093    2.7846    0.0000 C   0  0  0  0  0  0  0  0  0  0  0  0
    3.3161    2.4487    0.0000 C   0  0  0  0  0  0  0  0  0  0  0  0
    7.8718    2.4875    0.0000 C   0  0  0  0  0  0  0  0  0  0  0  0
    4.2138    1.3699    0.0000 C   0  0  0  0  0  0  0  0  0  0  0  0
    4.2323    0.5451    0.0000 C   0  0  3  0  0  0  0  0  0  0  0  0
    8.1713    1.7188    0.0000 C   0  0  0  0  0  0  0  0  0  0  0  0
    8.6873    2.3625    0.0000 C   0  0  0  0  0  0  0  0  0  0  0  0
    2.6724    2.9647    0.0000 C   0  0  0  0  0  0  0  0  0  0  0  0
    4.9104    0.0753    0.0000 C   0  0  0  0  0  0  0  0  0  0  0  0
    7.8533    3.3123    0.0000 C   0  0  0  0  0  0  0  0  0  0  0  0
    4.7504   -0.7684    0.0000 C   0  0  3  0  0  0  0  0  0  0  0  0
    3.9282   -0.7006    0.0000 C   0  0  0  0  0  0  0  0  0  0  0  0
    2.7537    0.1132    0.0000 C   0  0  0  0  0  0  0  0  0  0  0  0
    4.6330   -2.1925    0.0000 C   0  0  0  0  0  0  0  0  0  0  0  0
    4.9854   -2.9385    0.0000 C   0  0  0  0  0  0  0  0  0  0  0  0
    2.4013    0.8591    0.0000 C   0  0  0  0  0  0  0  0  0  0  0  0
    0.9918   -1.1753    0.0000 C   0  0  3  0  0  0  0  0  0  0  0  0
    5.8076   -3.0063    0.0000 C   0  0  0  0  0  0  0  0  0  0  0  0
    1.3442   -1.9213    0.0000 C   0  0  3  0  0  0  0  0  0  0  0  0
    0.5219   -1.8534    0.0000 C   0  0  3  0  0  0  0  0  0  0  0  0
    6.2774   -2.3281    0.0000 C   0  0  0  0  0  0  0  0  0  0  0  0
    5.9250   -1.5822    0.0000 C   0  0  0  0  0  0  0  0  0  0  0  0
    4.5155   -3.6166    0.0000 C   0  0  0  0  0  0  0  0  0  0  0  0
    1.1092    0.2488    0.0000 C   0  0  0  0  0  0  0  0  0  0  0  0
    6.3949   -0.9040    0.0000 C   0  0  0  0  0  0  0  0  0  0  0  0
    7.0996   -2.3960    0.0000 C   0  0  0  0  0  0  0  0  0  0  0  0
    2.1664   -1.9891    0.0000 C   0  0  0  0  0  0  0  0  0  0  0  0
   -0.2240   -2.2058    0.0000 C   0  0  0  0  0  0  0  0  0  0  0  0
    7.2171   -0.9719    0.0000 C   0  0  0  0  0  0  0  0  0  0  0  0
    7.5694   -1.7178    0.0000 C   0  0  0  0  0  0  0  0  0  0  0  0
    3.6933   -3.5488    0.0000 C   0  0  0  0  0  0  0  0  0  0  0  0
    2.5187   -2.7350    0.0000 C   0  0  0  0  0  0  0  0  0  0  0  0
    3.3409   -2.8028    0.0000 C   0  0  0  0  0  0  0  0  0  0  0  0
    6.9822   -3.8201    0.0000 C   0  0  0  0  0  0  0  0  0  0  0  0
   -0.9022   -1.7360    0.0000 C   0  0  0  0  0  0  0  0  0  0  0  0
    7.3345   -4.5660    0.0000 C   0  0  0  0  0  0  0  0  0  0  0  0
   -1.6481   -2.0884    0.0000 C   0  0  0  0  0  0  0  0  0  0  0  0
    8.1567   -4.6338    0.0000 C   0  0  0  0  0  0  0  0  0  0  0  0
   -2.3263   -1.6185    0.0000 C   0  0  0  0  0  0  0  0  0  0  0  0
    9.4514   -3.9372    0.0000 C   0  0  0  0  0  0  0  0  0  0  0  0
    8.3541   -3.1770    0.0000 C   0  0  0  0  0  0  0  0  0  0  0  0
    9.6886   -3.1471    0.0000 C   0  0  0  0  0  0  0  0  0  0  0  0
    9.0105   -2.6772    0.0000 C   0  0  0  0  0  0  0  0  0  0  0  0
    4.1751    1.9281    0.0000 H   0  0  0  0  0  0  0  0  0  0  0  0
  1  4  2  0  0  0  0
  1  5  2  0  0  0  0
  1 13  1  0  0  0  0
  1 23  1  0  0  0  0
  2 49  1  0  0  0  0
  3 21  2  0  0  0  0
  6 24  2  0  0  0  0
  7 31  1  0  0  0  0
  7 34  1  0  0  0  0
  8 33  2  0  0  0  0
  9 37  1  0  0  0  0
  9 44  1  0  0  0  0
 10 38  1  0  0  0  0
 10 54  1  0  0  0  0
 11 44  2  0  0  0  0
 18 12  1  1  0  0  0
 12 24  1  0  0  0  0
 13 21  1  0  0  0  0
 14 25  1  0  0  0  0
 14 32  1  0  0  0  0
 14 33  1  0  0  0  0
 15 34  2  0  0  0  0
 15 42  1  0  0  0  0
 16 36  1  0  0  0  0
 16 44  1  0  0  0  0
 17 58  1  0  0  0  0
 17 60  1  0  0  0  0
 17 61  1  0  0  0  0
 18 19  1  0  0  0  0
 18 20  1  0  0  0  0
 18 21  1  6  0  0  0
 19 20  1  0  0  0  0
 19 22  1  6  0  0  0
 19 64  1  1  0  0  0
 22 28  2  0  0  0  0
 23 26  1  0  0  0  0
 23 27  1  0  0  0  0
 23 30  1  0  0  0  0
 24 25  1  0  0  0  0
 25 29  1  0  0  0  0
 26 27  1  0  0  0  0
 29 31  1  0  0  0  0
 31 32  1  0  0  0  0
 33 36  1  0  0  0  0
 34 35  1  0  0  0  0
 35 38  2  0  0  0  0
 35 43  1  0  0  0  0
 37 39  1  0  0  0  0
 37 40  1  0  0  0  0
 38 41  1  0  0  0  0
 39 40  1  0  0  0  0
 39 47  1  0  0  0  0
 40 48  1  0  0  0  0
 41 42  2  0  0  0  0
 41 46  1  0  0  0  0
 42 45  1  0  0  0  0
 43 51  1  0  0  0  0
 45 49  2  0  0  0  0
 46 50  2  0  0  0  0
 47 52  1  0  0  0  0
 48 55  1  0  0  0  0
 49 50  1  0  0  0  0
 51 53  1  0  0  0  0
 52 53  1  0  0  0  0
 54 56  1  0  0  0  0
 55 57  1  0  0  0  0
 56 58  1  0  0  0  0
 57 59  1  0  0  0  0
 60 62  1  0  0  0  0
 61 63  1  0  0  0  0
 62 63  1  0  0  0  0
M  END
> <PUBCHEM_COMPOUND_ID_TYPE>
0

> <PUBCHEM_TOTAL_CHARGE>
0

> <PUBCHEM_SUBSTANCE_ID>
310929547

> <PUBCHEM_SUBSTANCE_VERSION>
1

> <PUBCHEM_EXT_DATASOURCE_NAME>
4488

> <PUBCHEM_EXT_DATASOURCE_REGID>
SCHEMBL16106728

> <PUBCHEM_SUBSTANCE_COMMENT>
InChI=1S/C46H63FN6O9S/c1-4-6-13-32-33-14-8-7-9-15-35-39(60-23-12-22-52-20-10-11-21-52)34-17-16-30(47)24-36(34)49-42(35)61-31-25-37(53(28-31)38(54)27-48-44(57)62-40(32)33)41(55)50-46(26-29(46)5-2)43(56)51-63(58,59)45(3)18-19-45/h5,16-17,24,29,31-33,37,40H,2,4,6-15,18-23,25-28H2,1,3H3,(H,48,57)(H,50,55)(H,51,56)/t29-,31?,32?,33?,37?,40?,46-/m1/s1
InChIKey=ZNUVMXUONUFUAB-DVWOCCQQSA-N

> <PUBCHEM_SUBSTANCE_SYNONYM>
SCHEMBL16106728

> <PUBCHEM_XREF_EXT_ID>
SCHEMBL16106728

> <PUBCHEM_EXT_DATASOURCE_URL>
https://www.surechembl.org/

> <PUBCHEM_EXT_SUBSTANCE_URL>
https://www.surechembl.org/chemical/SCHEMBL16106728

> <PUBCHEM_CID_ASSOCIATIONS>
117598865  1

> <PUBCHEM_COORDINATE_TYPE>
1
3

> <PUBCHEM_BONDANNOTATIONS>
18  12  5
18  21  6
19  22  6
19  64  5

$$$$
