310945350
  -OEChem-07211613022D

 14 14  0     0  0  0  0  0  0999 V2000
   -1.0655    1.2511    0.0000 F   0  0  0  0  0  0  0  0  0  0  0  0
   -0.3369    1.6636    0.0000 F   0  0  0  0  0  0  0  0  0  0  0  0
    0.3781    1.2373    0.0000 F   0  0  0  0  0  0  0  0  0  0  0  0
    1.0655   -1.6636    0.0000 O   0  0  0  0  0  0  0  0  0  0  0  0
    0.3643   -0.4124    0.0000 N   0  0  0  0  0  0  0  0  0  0  0  0
   -0.3506   -1.6498    0.0000 N   0  0  0  0  0  0  0  0  0  0  0  0
   -1.7804    0.0000    0.0000 N   0  0  0  0  0  0  0  0  0  0  0  0
   -1.7942   -1.6498    0.0000 N   0  0  0  0  0  0  0  0  0  0  0  0
   -0.3643    0.0137    0.0000 C   0  0  0  0  0  0  0  0  0  0  0  0
   -0.3506    0.8386    0.0000 C   0  0  0  0  0  0  0  0  0  0  0  0
   -1.0655   -0.4124    0.0000 C   0  0  0  0  0  0  0  0  0  0  0  0
   -1.0930   -1.2236    0.0000 C   0  0  0  0  0  0  0  0  0  0  0  0
    0.3506   -1.2373    0.0000 C   0  0  0  0  0  0  0  0  0  0  0  0
    1.7942   -1.2373    0.0000 C   0  0  0  0  0  0  0  0  0  0  0  0
  1 10  1  0  0  0  0
  2 10  1  0  0  0  0
  3 10  1  0  0  0  0
  4 13  1  0  0  0  0
  4 14  1  0  0  0  0
  5  9  2  0  0  0  0
  5 13  1  0  0  0  0
  6 12  1  0  0  0  0
  6 13  2  0  0  0  0
  7 11  1  0  0  0  0
  8 12  1  0  0  0  0
  9 10  1  0  0  0  0
  9 11  1  0  0  0  0
 11 12  2  0  0  0  0
M  END
> <PUBCHEM_COMPOUND_ID_TYPE>
0

> <PUBCHEM_TOTAL_CHARGE>
0

> <PUBCHEM_SUBSTANCE_ID>
310945350

> <PUBCHEM_SUBSTANCE_VERSION>
1

> <PUBCHEM_EXT_DATASOURCE_NAME>
4488

> <PUBCHEM_EXT_DATASOURCE_REGID>
SCHEMBL16123448

> <PUBCHEM_SUBSTANCE_COMMENT>
InChI=1S/C6H7F3N4O/c1-14-5-12-3(6(7,8)9)2(10)4(11)13-5/h10H2,1H3,(H2,11,12,13)
InChIKey=QJYPOSIBCUPKCG-UHFFFAOYSA-N

> <PUBCHEM_SUBSTANCE_SYNONYM>
SCHEMBL16123448

> <PUBCHEM_XREF_EXT_ID>
SCHEMBL16123448

> <PUBCHEM_EXT_DATASOURCE_URL>
https://www.surechembl.org/

> <PUBCHEM_EXT_SUBSTANCE_URL>
https://www.surechembl.org/chemical/SCHEMBL16123448

> <PUBCHEM_CID_ASSOCIATIONS>
117611409  1

> <PUBCHEM_COORDINATE_TYPE>
1
3

$$$$
