310938498
  -OEChem-07211613022D

 39 41  0     1  0  0  0  0  0999 V2000
   -4.8584   -4.2764    0.0000 O   0  0  0  0  0  0  0  0  0  0  0  0
   -3.5704   -1.9732    0.0000 O   0  0  0  0  0  0  0  0  0  0  0  0
   -6.2873   -5.9264    0.0000 O   0  0  0  0  0  0  0  0  0  0  0  0
   -5.5729   -4.6889    0.0000 O   0  0  0  0  0  0  0  0  0  0  0  0
    0.0714   -6.2977    0.0000 O   0  0  0  0  0  0  0  0  0  0  0  0
   -0.6430   -5.2664    0.0000 O   0  0  0  0  0  0  0  0  0  0  0  0
   -3.2151   -4.1527    0.0000 N   0  0  0  0  0  0  0  0  0  0  0  0
   -4.5266   -3.0352    0.0000 N   0  0  0  0  0  0  0  0  0  0  0  0
   -4.8584   -5.9264    0.0000 N   0  0  0  0  0  0  0  0  0  0  0  0
   -6.5480   -2.1461    0.0000 N   0  0  0  0  0  0  0  0  0  0  0  0
   -6.2025   -3.4355    0.0000 N   0  0  0  0  0  0  0  0  0  0  0  0
   -7.2399   -2.5955    0.0000 N   0  0  0  0  0  0  0  0  0  0  0  0
   -7.0263   -3.3923    0.0000 N   0  0  0  0  0  0  0  0  0  0  0  0
   -2.4614   -4.4883    0.0000 C   0  0  0  0  0  0  0  0  0  0  0  0
   -3.1289   -3.3322    0.0000 C   0  0  3  0  0  0  0  0  0  0  0  0
   -1.9094   -3.8752    0.0000 C   0  0  0  0  0  0  0  0  0  0  0  0
   -4.1439   -4.6889    0.0000 C   0  0  0  0  0  0  0  0  0  0  0  0
   -2.3219   -3.1607    0.0000 C   0  0  0  0  0  0  0  0  0  0  0  0
   -3.7420   -2.7802    0.0000 C   0  0  0  0  0  0  0  0  0  0  0  0
   -4.1439   -5.5139    0.0000 C   0  0  3  0  0  0  0  0  0  0  0  0
   -2.2065   -5.2729    0.0000 C   0  0  0  0  0  0  0  0  0  0  0  0
   -1.1024   -4.0467    0.0000 C   0  0  0  0  0  0  0  0  0  0  0  0
   -1.3996   -5.4444    0.0000 C   0  0  0  0  0  0  0  0  0  0  0  0
   -0.8475   -4.8313    0.0000 C   0  0  0  0  0  0  0  0  0  0  0  0
   -3.2151   -6.0502    0.0000 C   0  0  0  0  0  0  0  0  0  0  0  0
   -5.5729   -5.5139    0.0000 C   0  0  0  0  0  0  0  0  0  0  0  0
   -5.1100   -2.4518    0.0000 C   0  0  0  0  0  0  0  0  0  0  0  0
   -2.5006   -5.6377    0.0000 C   0  0  0  0  0  0  0  0  0  0  0  0
   -5.9068   -2.6653    0.0000 C   0  0  0  0  0  0  0  0  0  0  0  0
   -7.0018   -5.5139    0.0000 C   0  0  0  0  0  0  0  0  0  0  0  0
   -1.3575   -6.2977    0.0000 C   0  0  0  0  0  0  0  0  0  0  0  0
   -0.6430   -5.8852    0.0000 C   0  0  0  0  0  0  0  0  0  0  0  0
    0.7859   -5.8852    0.0000 C   0  0  0  0  0  0  0  0  0  0  0  0
   -7.7163   -5.9264    0.0000 C   0  0  0  0  0  0  0  0  0  0  0  0
   -7.7163   -5.1014    0.0000 C   0  0  0  0  0  0  0  0  0  0  0  0
   -7.0018   -4.6889    0.0000 C   0  0  0  0  0  0  0  0  0  0  0  0
    0.7859   -5.0602    0.0000 C   0  0  0  0  0  0  0  0  0  0  0  0
    1.5004   -5.4727    0.0000 C   0  0  0  0  0  0  0  0  0  0  0  0
    1.5004   -6.2977    0.0000 C   0  0  0  0  0  0  0  0  0  0  0  0
  1 17  2  0  0  0  0
  2 19  2  0  0  0  0
  3 26  1  0  0  0  0
  3 30  1  0  0  0  0
  4 26  2  0  0  0  0
  5 32  1  0  0  0  0
  5 33  1  0  0  0  0
  6 32  2  0  0  0  0
  7 14  1  0  0  0  0
  7 15  1  0  0  0  0
  7 17  1  0  0  0  0
  8 19  1  0  0  0  0
  8 27  1  0  0  0  0
  9 20  1  0  0  0  0
  9 26  1  0  0  0  0
 10 12  2  0  0  0  0
 10 29  1  0  0  0  0
 11 13  1  0  0  0  0
 11 29  2  0  0  0  0
 12 13  1  0  0  0  0
 14 16  2  0  0  0  0
 14 21  1  0  0  0  0
 15 18  1  0  0  0  0
 15 19  1  6  0  0  0
 16 18  1  0  0  0  0
 16 22  1  0  0  0  0
 17 20  1  0  0  0  0
 20 25  1  0  0  0  0
 21 23  2  0  0  0  0
 22 24  2  0  0  0  0
 23 24  1  0  0  0  0
 25 28  1  0  0  0  0
 27 29  1  0  0  0  0
 28 31  1  0  0  0  0
 30 34  1  0  0  0  0
 30 35  1  0  0  0  0
 30 36  1  0  0  0  0
 31 32  1  0  0  0  0
 33 37  1  0  0  0  0
 33 38  1  0  0  0  0
 33 39  1  0  0  0  0
M  END
> <PUBCHEM_COMPOUND_ID_TYPE>
0

> <PUBCHEM_TOTAL_CHARGE>
0

> <PUBCHEM_SUBSTANCE_ID>
310938498

> <PUBCHEM_SUBSTANCE_VERSION>
1

> <PUBCHEM_EXT_DATASOURCE_NAME>
4488

> <PUBCHEM_EXT_DATASOURCE_REGID>
SCHEMBL16116404

> <PUBCHEM_SUBSTANCE_COMMENT>
InChI=1S/C26H37N7O6/c1-25(2,3)38-21(34)13-9-11-17(28-24(37)39-26(4,5)6)23(36)33-18-12-8-7-10-16(18)14-19(33)22(35)27-15-20-29-31-32-30-20/h7-8,10,12,17,19H,9,11,13-15H2,1-6H3,(H,27,35)(H,28,37)(H,29,30,31,32)/t17?,19-/m0/s1
InChIKey=MIACKEROAYZPFJ-NNBQYGFHSA-N

> <PUBCHEM_SUBSTANCE_SYNONYM>
SCHEMBL16116404

> <PUBCHEM_XREF_EXT_ID>
SCHEMBL16116404

> <PUBCHEM_EXT_DATASOURCE_URL>
https://www.surechembl.org/

> <PUBCHEM_EXT_SUBSTANCE_URL>
https://www.surechembl.org/chemical/SCHEMBL16116404

> <PUBCHEM_CID_ASSOCIATIONS>
117605954  1

> <PUBCHEM_COORDINATE_TYPE>
1
3

> <PUBCHEM_BONDANNOTATIONS>
15  19  6

$$$$
