310947519
  -OEChem-07211613022D

 20 21  0     1  0  0  0  0  0999 V2000
   -0.4512   -5.1226    0.0000 F   0  0  0  0  0  0  0  0  0  0  0  0
    1.1988   -5.1226    0.0000 O   0  0  0  0  0  0  0  0  0  0  0  0
    0.3738   -3.1386    0.0000 O   0  0  0  0  0  0  0  0  0  0  0  0
    1.7557   -3.2110    0.0000 O   0  0  0  0  0  0  0  0  0  0  0  0
   -0.0387   -5.8371    0.0000 O   0  0  0  0  0  0  0  0  0  0  0  0
    0.7863   -4.4081    0.0000 C   0  0  3  0  0  0  0  0  0  0  0  0
   -0.0387   -4.4081    0.0000 C   0  0  3  0  0  0  0  0  0  0  0  0
    1.0412   -3.6235    0.0000 C   0  0  3  0  0  0  0  0  0  0  0  0
   -0.2937   -3.6235    0.0000 C   0  0  3  0  0  0  0  0  0  0  0  0
    0.7863   -5.8371    0.0000 C   0  0  0  0  0  0  0  0  0  0  0  0
    1.5007   -3.9956    0.0000 C   0  0  0  0  0  0  0  0  0  0  0  0
   -0.7062   -2.9090    0.0000 C   0  0  0  0  0  0  0  0  0  0  0  0
    1.1988   -6.5515    0.0000 C   0  0  0  0  0  0  0  0  0  0  0  0
    0.7863   -7.2660    0.0000 C   0  0  0  0  0  0  0  0  0  0  0  0
    2.0238   -6.5515    0.0000 C   0  0  0  0  0  0  0  0  0  0  0  0
    2.4701   -3.6235    0.0000 C   0  0  0  0  0  0  0  0  0  0  0  0
   -1.5312   -2.9090    0.0000 C   0  0  0  0  0  0  0  0  0  0  0  0
    1.1988   -7.9805    0.0000 C   0  0  0  0  0  0  0  0  0  0  0  0
    2.4363   -7.2660    0.0000 C   0  0  0  0  0  0  0  0  0  0  0  0
    2.0238   -7.9805    0.0000 C   0  0  0  0  0  0  0  0  0  0  0  0
  7  1  1  6  0  0  0
  6  2  1  6  0  0  0
  2 10  1  0  0  0  0
  3  8  1  0  0  0  0
  3  9  1  0  0  0  0
  8  4  1  6  0  0  0
  4 16  1  0  0  0  0
  5 10  2  0  0  0  0
  6  7  1  0  0  0  0
  6  8  1  0  0  0  0
  6 11  1  1  0  0  0
  7  9  1  0  0  0  0
  9 12  1  1  0  0  0
 10 13  1  0  0  0  0
 12 17  1  0  0  0  0
 13 14  2  0  0  0  0
 13 15  1  0  0  0  0
 14 18  1  0  0  0  0
 15 19  2  0  0  0  0
 18 20  2  0  0  0  0
 19 20  1  0  0  0  0
M  END
> <PUBCHEM_COMPOUND_ID_TYPE>
0

> <PUBCHEM_TOTAL_CHARGE>
0

> <PUBCHEM_SUBSTANCE_ID>
310947519

> <PUBCHEM_SUBSTANCE_VERSION>
1

> <PUBCHEM_EXT_DATASOURCE_NAME>
4488

> <PUBCHEM_EXT_DATASOURCE_REGID>
SCHEMBL16125681

> <PUBCHEM_SUBSTANCE_COMMENT>
InChI=1S/C15H19FO4/c1-4-11-12(16)15(2,14(18-3)19-11)20-13(17)10-8-6-5-7-9-10/h5-9,11-12,14H,4H2,1-3H3/t11-,12-,14+,15-/m1/s1
InChIKey=YFSUEHBAKGNMFA-RJZRQDKASA-N

> <PUBCHEM_SUBSTANCE_SYNONYM>
SCHEMBL16125681

> <PUBCHEM_XREF_EXT_ID>
SCHEMBL16125681

> <PUBCHEM_EXT_DATASOURCE_URL>
https://www.surechembl.org/

> <PUBCHEM_EXT_SUBSTANCE_URL>
https://www.surechembl.org/chemical/SCHEMBL16125681

> <PUBCHEM_CID_ASSOCIATIONS>
117613241  1

> <PUBCHEM_COORDINATE_TYPE>
1
3

> <PUBCHEM_BONDANNOTATIONS>
7  1  6
6  2  6
8  4  6
6  11  5
9  12  5

$$$$
