310941558
  -OEChem-07211613022D

 26 29  0     0  0  0  0  0  0999 V2000
   -3.3112   -1.6447    0.0000 Cl  0  0  0  0  0  0  0  0  0  0  0  0
    0.3290    0.5043    0.0000 S   0  0  0  0  0  0  0  0  0  0  0  0
   -1.8785   -0.8114    0.0000 O   0  0  0  0  0  0  0  0  0  0  0  0
   -0.4312   -0.8114    0.0000 O   0  0  0  0  0  0  0  0  0  0  0  0
    0.4605    1.8347    0.0000 N   0  0  0  0  0  0  0  0  0  0  0  0
    1.7031    1.0307    0.0000 N   0  0  0  0  0  0  0  0  0  0  0  0
   -1.1476    0.4312    0.0000 C   0  0  0  0  0  0  0  0  0  0  0  0
   -0.4459    0.8406    0.0000 C   0  0  0  0  0  0  0  0  0  0  0  0
   -2.6095   -0.3874    0.0000 C   0  0  0  0  0  0  0  0  0  0  0  0
   -2.5949    0.4312    0.0000 C   0  0  0  0  0  0  0  0  0  0  0  0
   -1.1768   -0.3874    0.0000 C   0  0  0  0  0  0  0  0  0  0  0  0
   -1.8931    0.8406    0.0000 C   0  0  0  0  0  0  0  0  0  0  0  0
    0.8698    1.1183    0.0000 C   0  0  0  0  0  0  0  0  0  0  0  0
   -3.3112   -0.8114    0.0000 C   0  0  0  0  0  0  0  0  0  0  0  0
   -0.3436    1.6593    0.0000 C   0  0  0  0  0  0  0  0  0  0  0  0
   -3.3258    0.8260    0.0000 C   0  0  0  0  0  0  0  0  0  0  0  0
   -4.0275   -0.4021    0.0000 C   0  0  0  0  0  0  0  0  0  0  0  0
    2.0393    0.2850    0.0000 C   0  0  0  0  0  0  0  0  0  0  0  0
   -4.0275    0.4312    0.0000 C   0  0  0  0  0  0  0  0  0  0  0  0
    1.5716   -0.3874    0.0000 C   0  0  0  0  0  0  0  0  0  0  0  0
    2.8580    0.1974    0.0000 C   0  0  0  0  0  0  0  0  0  0  0  0
    1.8931   -1.1476    0.0000 C   0  0  0  0  0  0  0  0  0  0  0  0
    3.1942   -0.5628    0.0000 C   0  0  0  0  0  0  0  0  0  0  0  0
    2.7264   -1.2353    0.0000 C   0  0  0  0  0  0  0  0  0  0  0  0
    1.4107   -1.8347    0.0000 C   0  0  0  0  0  0  0  0  0  0  0  0
    4.0275   -0.6652    0.0000 C   0  0  0  0  0  0  0  0  0  0  0  0
  1 14  1  0  0  0  0
  2  8  1  0  0  0  0
  2 13  1  0  0  0  0
  3  9  1  0  0  0  0
  3 11  1  0  0  0  0
  4 11  2  0  0  0  0
  5 13  2  0  0  0  0
  5 15  1  0  0  0  0
  6 13  1  0  0  0  0
  6 18  1  0  0  0  0
  7  8  1  0  0  0  0
  7 11  1  0  0  0  0
  7 12  2  0  0  0  0
  8 15  2  0  0  0  0
  9 10  1  0  0  0  0
  9 14  2  0  0  0  0
 10 12  1  0  0  0  0
 10 16  2  0  0  0  0
 14 17  1  0  0  0  0
 16 19  1  0  0  0  0
 17 19  2  0  0  0  0
 18 20  2  0  0  0  0
 18 21  1  0  0  0  0
 20 22  1  0  0  0  0
 21 23  2  0  0  0  0
 22 24  2  0  0  0  0
 22 25  1  0  0  0  0
 23 24  1  0  0  0  0
 23 26  1  0  0  0  0
M  END
> <PUBCHEM_COMPOUND_ID_TYPE>
0

> <PUBCHEM_TOTAL_CHARGE>
0

> <PUBCHEM_SUBSTANCE_ID>
310941558

> <PUBCHEM_SUBSTANCE_VERSION>
1

> <PUBCHEM_EXT_DATASOURCE_NAME>
4488

> <PUBCHEM_EXT_DATASOURCE_REGID>
SCHEMBL16119589

> <PUBCHEM_SUBSTANCE_COMMENT>
InChI=1S/C20H15ClN2O2S/c1-11-6-12(2)8-14(7-11)23-20-22-10-17(26-20)15-9-13-4-3-5-16(21)18(13)25-19(15)24/h3-10H,1-2H3,(H,22,23)
InChIKey=XITHSTDUAHDEQL-UHFFFAOYSA-N

> <PUBCHEM_SUBSTANCE_SYNONYM>
SCHEMBL16119589

> <PUBCHEM_XREF_EXT_ID>
SCHEMBL16119589

> <PUBCHEM_EXT_DATASOURCE_URL>
https://www.surechembl.org/

> <PUBCHEM_EXT_SUBSTANCE_URL>
https://www.surechembl.org/chemical/SCHEMBL16119589

> <PUBCHEM_CID_ASSOCIATIONS>
117608364  1

> <PUBCHEM_COORDINATE_TYPE>
1
3

$$$$
