310945098
  -OEChem-07211613022D

 28 32  0     1  0  0  0  0  0999 V2000
    2.3997    1.2257    0.0000 S   0  0  0  0  0  0  0  0  0  0  0  0
    4.0094    1.0485    0.0000 O   0  0  0  0  0  0  0  0  0  0  0  0
    2.2078   -0.9008    0.0000 N   0  0  0  0  0  0  0  0  0  0  0  0
   -0.8048    0.5907    0.0000 N   0  0  0  0  0  0  0  0  0  0  0  0
    3.9947   -0.3840    0.0000 N   0  0  0  0  0  0  0  0  0  0  0  0
   -2.1782    0.9747    0.0000 N   0  0  0  0  0  0  0  0  0  0  0  0
    1.3955    0.3396    0.0000 C   0  0  0  0  0  0  0  0  0  0  0  0
    2.1339   -0.0739    0.0000 C   0  0  0  0  0  0  0  0  0  0  0  0
    0.5833    0.1920    0.0000 C   0  0  0  0  0  0  0  0  0  0  0  0
    1.5727    1.1519    0.0000 C   0  0  0  0  0  0  0  0  0  0  0  0
    2.7394    0.4874    0.0000 C   0  0  0  0  0  0  0  0  0  0  0  0
   -0.0074    0.7827    0.0000 C   0  0  0  0  0  0  0  0  0  0  0  0
    3.5812    0.3249    0.0000 C   0  0  0  0  0  0  0  0  0  0  0  0
    1.0264    1.7426    0.0000 C   0  0  0  0  0  0  0  0  0  0  0  0
    0.3470   -0.6055    0.0000 C   0  0  0  0  0  0  0  0  0  0  0  0
    0.2289    1.5654    0.0000 C   0  0  0  0  0  0  0  0  0  0  0  0
   -1.0264   -0.2215    0.0000 C   0  0  0  0  0  0  0  0  0  0  0  0
   -0.4357   -0.7975    0.0000 C   0  0  0  0  0  0  0  0  0  0  0  0
   -1.8238   -0.4135    0.0000 C   0  0  0  0  0  0  0  0  0  0  0  0
    2.9314   -1.3734    0.0000 C   0  0  0  0  0  0  0  0  0  0  0  0
    3.6845   -1.1519    0.0000 C   0  0  3  0  0  0  0  0  0  0  0  0
   -2.3997    0.1772    0.0000 C   0  0  0  0  0  0  0  0  0  0  0  0
   -2.0600   -1.1962    0.0000 C   0  0  0  0  0  0  0  0  0  0  0  0
   -3.1972   -0.0443    0.0000 C   0  0  0  0  0  0  0  0  0  0  0  0
   -3.4334   -0.8270    0.0000 C   0  0  0  0  0  0  0  0  0  0  0  0
   -2.8575   -1.4029    0.0000 C   0  0  0  0  0  0  0  0  0  0  0  0
    4.2309   -1.7426    0.0000 C   0  0  0  0  0  0  0  0  0  0  0  0
   -4.2309   -1.0485    0.0000 C   0  0  0  0  0  0  0  0  0  0  0  0
  1 10  1  0  0  0  0
  1 11  1  0  0  0  0
  2 13  2  0  0  0  0
  3  8  1  0  0  0  0
  3 20  1  0  0  0  0
  4 12  1  0  0  0  0
  4 17  2  0  0  0  0
  5 13  1  0  0  0  0
  5 21  1  0  0  0  0
  6 22  1  0  0  0  0
  7  8  1  0  0  0  0
  7  9  1  0  0  0  0
  7 10  2  0  0  0  0
  8 11  2  0  0  0  0
  9 12  2  0  0  0  0
  9 15  1  0  0  0  0
 10 14  1  0  0  0  0
 11 13  1  0  0  0  0
 12 16  1  0  0  0  0
 14 16  2  0  0  0  0
 15 18  2  0  0  0  0
 17 18  1  0  0  0  0
 17 19  1  0  0  0  0
 19 22  2  0  0  0  0
 19 23  1  0  0  0  0
 20 21  1  0  0  0  0
 21 27  1  6  0  0  0
 22 24  1  0  0  0  0
 23 26  2  0  0  0  0
 24 25  2  0  0  0  0
 25 26  1  0  0  0  0
 25 28  1  0  0  0  0
M  END
> <PUBCHEM_COMPOUND_ID_TYPE>
0

> <PUBCHEM_TOTAL_CHARGE>
0

> <PUBCHEM_SUBSTANCE_ID>
310945098

> <PUBCHEM_SUBSTANCE_VERSION>
1

> <PUBCHEM_EXT_DATASOURCE_NAME>
4488

> <PUBCHEM_EXT_DATASOURCE_REGID>
SCHEMBL16123188

> <PUBCHEM_SUBSTANCE_COMMENT>
InChI=1S/C22H20N4OS/c1-11-3-4-13(15(23)9-11)16-6-5-14-17(26-16)7-8-18-19(14)20-21(28-18)22(27)25-12(2)10-24-20/h3-9,12,24H,10,23H2,1-2H3,(H,25,27)/t12-/m1/s1
InChIKey=CMWHBBFEOUCMCL-GFCCVEGCSA-N

> <PUBCHEM_SUBSTANCE_SYNONYM>
SCHEMBL16123188

> <PUBCHEM_XREF_EXT_ID>
SCHEMBL16123188

> <PUBCHEM_EXT_DATASOURCE_URL>
https://www.surechembl.org/

> <PUBCHEM_EXT_SUBSTANCE_URL>
https://www.surechembl.org/chemical/SCHEMBL16123188

> <PUBCHEM_CID_ASSOCIATIONS>
117611194  1

> <PUBCHEM_COORDINATE_TYPE>
1
3

> <PUBCHEM_BONDANNOTATIONS>
21  27  6

$$$$
