310933330
  -OEChem-07211613022D

 28 30  0     0  0  0  0  0  0999 V2000
    5.5458   -3.6403    0.0000 O   0  0  0  0  0  0  0  0  0  0  0  0
    3.9247   -1.5927    0.0000 O   0  0  0  0  0  0  0  0  0  0  0  0
    0.4266   -1.7917    0.0000 O   0  0  0  0  0  0  0  0  0  0  0  0
    5.2898   -2.0192    0.0000 O   0  0  0  0  0  0  0  0  0  0  0  0
    3.4128   -5.6880    0.0000 O   0  0  0  0  0  0  0  0  0  0  0  0
    4.2376   -2.9578    0.0000 N   0  0  0  0  0  0  0  0  0  0  0  0
    0.0000   -2.5027    0.0000 N   0  0  0  0  0  0  0  0  0  0  0  0
    3.4412   -3.1853    0.0000 C   0  0  0  0  0  0  0  0  0  0  0  0
    3.4412   -4.0670    0.0000 C   0  0  0  0  0  0  0  0  0  0  0  0
    4.7210   -3.6403    0.0000 C   0  0  0  0  0  0  0  0  0  0  0  0
    2.0192   -3.1853    0.0000 C   0  0  0  0  0  0  0  0  0  0  0  0
    2.7303   -4.4651    0.0000 C   0  0  0  0  0  0  0  0  0  0  0  0
    2.7303   -2.8155    0.0000 C   0  0  0  0  0  0  0  0  0  0  0  0
    4.2376   -4.2945    0.0000 C   0  0  0  0  0  0  0  0  0  0  0  0
    1.3083   -2.7871    0.0000 C   0  0  0  0  0  0  0  0  0  0  0  0
    4.4935   -2.1899    0.0000 C   0  0  0  0  0  0  0  0  0  0  0  0
    2.0192   -4.0670    0.0000 C   0  0  0  0  0  0  0  0  0  0  0  0
    1.2229   -1.9624    0.0000 C   0  0  0  0  0  0  0  0  0  0  0  0
    0.5688   -3.1284    0.0000 C   0  0  0  0  0  0  0  0  0  0  0  0
    2.7018   -5.2898    0.0000 C   0  0  0  0  0  0  0  0  0  0  0  0
    4.1807   -0.7963    0.0000 C   0  0  0  0  0  0  0  0  0  0  0  0
    5.9724   -2.9293    0.0000 C   0  0  0  0  0  0  0  0  0  0  0  0
    1.8202   -1.3936    0.0000 C   0  0  0  0  0  0  0  0  0  0  0  0
    0.3982   -3.9247    0.0000 C   0  0  0  0  0  0  0  0  0  0  0  0
    4.9770   -1.0239    0.0000 C   0  0  0  0  0  0  0  0  0  0  0  0
    4.4082    0.0000    0.0000 C   0  0  0  0  0  0  0  0  0  0  0  0
    3.3843   -0.5404    0.0000 C   0  0  0  0  0  0  0  0  0  0  0  0
    5.5458   -2.1899    0.0000 C   0  0  0  0  0  0  0  0  0  0  0  0
  1 10  1  0  0  0  0
  1 22  1  0  0  0  0
  2 16  1  0  0  0  0
  2 21  1  0  0  0  0
  3  7  1  0  0  0  0
  3 18  1  0  0  0  0
  4 16  2  0  0  0  0
  5 20  2  0  0  0  0
  6  8  1  0  0  0  0
  6 10  1  0  0  0  0
  6 16  1  0  0  0  0
  7 19  2  0  0  0  0
  8  9  2  0  0  0  0
  8 13  1  0  0  0  0
  9 12  1  0  0  0  0
  9 14  1  0  0  0  0
 10 14  2  0  0  0  0
 11 13  2  0  0  0  0
 11 15  1  0  0  0  0
 11 17  1  0  0  0  0
 12 17  2  0  0  0  0
 12 20  1  0  0  0  0
 15 18  2  0  0  0  0
 15 19  1  0  0  0  0
 18 23  1  0  0  0  0
 19 24  1  0  0  0  0
 21 25  1  0  0  0  0
 21 26  1  0  0  0  0
 21 27  1  0  0  0  0
 22 28  1  0  0  0  0
M  END
> <PUBCHEM_COMPOUND_ID_TYPE>
0

> <PUBCHEM_TOTAL_CHARGE>
0

> <PUBCHEM_SUBSTANCE_ID>
310933330

> <PUBCHEM_SUBSTANCE_VERSION>
1

> <PUBCHEM_EXT_DATASOURCE_NAME>
4488

> <PUBCHEM_EXT_DATASOURCE_REGID>
SCHEMBL16110742

> <PUBCHEM_SUBSTANCE_COMMENT>
InChI=1S/C21H24N2O5/c1-7-26-18-10-16-15(11-24)8-14(19-12(2)22-28-13(19)3)9-17(16)23(18)20(25)27-21(4,5)6/h8-11H,7H2,1-6H3
InChIKey=CEVPFDIRLBBGJV-UHFFFAOYSA-N

> <PUBCHEM_SUBSTANCE_SYNONYM>
SCHEMBL16110742

> <PUBCHEM_XREF_EXT_ID>
SCHEMBL16110742

> <PUBCHEM_EXT_DATASOURCE_URL>
https://www.surechembl.org/

> <PUBCHEM_EXT_SUBSTANCE_URL>
https://www.surechembl.org/chemical/SCHEMBL16110742

> <PUBCHEM_CID_ASSOCIATIONS>
117601744  1

> <PUBCHEM_COORDINATE_TYPE>
1
3

$$$$
