310942275
  -OEChem-07211613022D

 26 27  0     1  0  0  0  0  0999 V2000
    1.3623    1.4498    0.0000 Cl  0  0  0  0  0  0  0  0  0  0  0  0
   -0.0750   -1.0498    0.0000 F   0  0  0  0  0  0  0  0  0  0  0  0
    1.3623   -0.2124    0.0000 O   0  0  0  0  0  0  0  0  0  0  0  0
   -3.6494    0.2250    0.0000 O   0  0  0  0  0  0  0  0  0  0  0  0
   -2.2371    0.2000    0.0000 N   0  0  0  0  0  0  0  0  0  0  0  0
    3.5369    1.0373    0.0000 N   0  0  0  0  0  0  0  0  0  0  0  0
    4.3868   -0.2124    0.0000 N   0  0  0  0  0  0  0  0  0  0  0  0
   -4.3868    1.4623    0.0000 N   0  0  0  0  0  0  0  0  0  0  0  0
    0.6374    0.2124    0.0000 C   0  0  0  0  0  0  0  0  0  0  0  0
   -0.0875   -0.2000    0.0000 C   0  0  0  0  0  0  0  0  0  0  0  0
   -0.7999    0.2124    0.0000 C   0  0  0  0  0  0  0  0  0  0  0  0
    0.6499    1.0498    0.0000 C   0  0  0  0  0  0  0  0  0  0  0  0
   -1.5123   -0.2000    0.0000 C   0  0  3  0  0  0  0  0  0  0  0  0
   -0.7874    1.0373    0.0000 C   0  0  0  0  0  0  0  0  0  0  0  0
   -0.0875    1.4373    0.0000 C   0  0  0  0  0  0  0  0  0  0  0  0
    2.0747    0.2124    0.0000 C   0  0  0  0  0  0  0  0  0  0  0  0
    2.8245   -0.2124    0.0000 C   0  0  0  0  0  0  0  0  0  0  0  0
   -1.5123   -1.0498    0.0000 C   0  0  0  0  0  0  0  0  0  0  0  0
    2.0997    1.0498    0.0000 C   0  0  0  0  0  0  0  0  0  0  0  0
    3.5244    0.2000    0.0000 C   0  0  0  0  0  0  0  0  0  0  0  0
   -2.2247    1.0248    0.0000 C   0  0  3  0  0  0  0  0  0  0  0  0
    2.7995    1.4498    0.0000 C   0  0  0  0  0  0  0  0  0  0  0  0
   -2.9620    1.4498    0.0000 C   0  0  0  0  0  0  0  0  0  0  0  0
   -0.7999   -1.4623    0.0000 C   0  0  0  0  0  0  0  0  0  0  0  0
   -1.5623    1.4373    0.0000 C   0  0  0  0  0  0  0  0  0  0  0  0
   -3.6744    1.0373    0.0000 C   0  0  0  0  0  0  0  0  0  0  0  0
  1 12  1  0  0  0  0
  2 10  1  0  0  0  0
  3  9  1  0  0  0  0
  3 16  1  0  0  0  0
  4 26  2  0  0  0  0
 13  5  1  1  0  0  0
  5 21  1  0  0  0  0
  6 20  2  0  0  0  0
  6 22  1  0  0  0  0
  7 20  1  0  0  0  0
  8 26  1  0  0  0  0
  9 10  2  0  0  0  0
  9 12  1  0  0  0  0
 10 11  1  0  0  0  0
 11 13  1  0  0  0  0
 11 14  2  0  0  0  0
 12 15  2  0  0  0  0
 13 18  1  0  0  0  0
 14 15  1  0  0  0  0
 16 17  2  0  0  0  0
 16 19  1  0  0  0  0
 17 20  1  0  0  0  0
 18 24  1  0  0  0  0
 19 22  2  0  0  0  0
 21 23  1  0  0  0  0
 21 25  1  0  0  0  0
 23 26  1  0  0  0  0
M  END
> <PUBCHEM_COMPOUND_ID_TYPE>
0

> <PUBCHEM_TOTAL_CHARGE>
0

> <PUBCHEM_SUBSTANCE_ID>
310942275

> <PUBCHEM_SUBSTANCE_VERSION>
1

> <PUBCHEM_EXT_DATASOURCE_NAME>
4488

> <PUBCHEM_EXT_DATASOURCE_REGID>
SCHEMBL16120310

> <PUBCHEM_SUBSTANCE_COMMENT>
InChI=1S/C18H22ClFN4O2/c1-3-14(24-10(2)8-16(22)25)12-4-5-13(19)18(17(12)20)26-11-6-7-23-15(21)9-11/h4-7,9-10,14,24H,3,8H2,1-2H3,(H2,21,23)(H2,22,25)/t10?,14-/m1/s1
InChIKey=KZVVXFAUHVASMA-LNUXAPHWSA-N

> <PUBCHEM_SUBSTANCE_SYNONYM>
SCHEMBL16120310

> <PUBCHEM_XREF_EXT_ID>
SCHEMBL16120310

> <PUBCHEM_EXT_DATASOURCE_URL>
https://www.surechembl.org/

> <PUBCHEM_EXT_SUBSTANCE_URL>
https://www.surechembl.org/chemical/SCHEMBL16120310

> <PUBCHEM_CID_ASSOCIATIONS>
117608924  1

> <PUBCHEM_COORDINATE_TYPE>
1
3

> <PUBCHEM_BONDANNOTATIONS>
21  25  3
13  5  5

$$$$
