310943510
  -OEChem-07211613022D

 38 42  0     0  0  0  0  0  0999 V2000
   -4.1943   -1.1672    0.0000 S   0  0  0  0  0  0  0  0  0  0  0  0
   -4.5989   -0.4513    0.0000 O   0  0  0  0  0  0  0  0  0  0  0  0
   -4.9102   -1.5718    0.0000 O   0  0  0  0  0  0  0  0  0  0  0  0
   -5.7195    1.4629    0.0000 O   0  0  0  0  0  0  0  0  0  0  0  0
    1.4240    1.4629    0.0000 O   0  0  0  0  0  0  0  0  0  0  0  0
   -2.1399   -0.6070    0.0000 N   0  0  0  0  0  0  0  0  0  0  0  0
   -2.8558    0.6380    0.0000 N   0  0  0  0  0  0  0  0  0  0  0  0
   -4.2876    0.6380    0.0000 N   0  0  0  0  0  0  0  0  0  0  0  0
    0.7081    0.2179    0.0000 N   0  0  0  0  0  0  0  0  0  0  0  0
    3.5717   -0.6070    0.0000 N   0  0  0  0  0  0  0  0  0  0  0  0
    5.7195   -0.1867    0.0000 N   0  0  0  0  0  0  0  0  0  0  0  0
   -3.5873   -0.6070    0.0000 C   0  0  0  0  0  0  0  0  0  0  0  0
   -2.8558   -1.0116    0.0000 C   0  0  0  0  0  0  0  0  0  0  0  0
   -3.5717    0.2334    0.0000 C   0  0  0  0  0  0  0  0  0  0  0  0
   -2.1399    0.2334    0.0000 C   0  0  0  0  0  0  0  0  0  0  0  0
   -3.8675   -1.8987    0.0000 C   0  0  0  0  0  0  0  0  0  0  0  0
   -3.0426   -1.8364    0.0000 C   0  0  0  0  0  0  0  0  0  0  0  0
   -1.4396    0.6380    0.0000 C   0  0  0  0  0  0  0  0  0  0  0  0
   -1.4240    1.4629    0.0000 C   0  0  0  0  0  0  0  0  0  0  0  0
   -0.7081    0.2334    0.0000 C   0  0  0  0  0  0  0  0  0  0  0  0
   -4.2876    1.4629    0.0000 C   0  0  0  0  0  0  0  0  0  0  0  0
   -4.9880    0.2334    0.0000 C   0  0  0  0  0  0  0  0  0  0  0  0
   -0.0078    0.6536    0.0000 C   0  0  0  0  0  0  0  0  0  0  0  0
   -0.7237    1.8676    0.0000 C   0  0  0  0  0  0  0  0  0  0  0  0
   -0.0078    1.4629    0.0000 C   0  0  0  0  0  0  0  0  0  0  0  0
   -5.0035    1.8832    0.0000 C   0  0  0  0  0  0  0  0  0  0  0  0
   -5.7195    0.6380    0.0000 C   0  0  0  0  0  0  0  0  0  0  0  0
    1.4085    0.6226    0.0000 C   0  0  0  0  0  0  0  0  0  0  0  0
    2.1399    0.2334    0.0000 C   0  0  0  0  0  0  0  0  0  0  0  0
   -2.1399    1.8987    0.0000 C   0  0  0  0  0  0  0  0  0  0  0  0
    3.5717    0.2334    0.0000 C   0  0  0  0  0  0  0  0  0  0  0  0
    4.2721    0.6536    0.0000 C   0  0  0  0  0  0  0  0  0  0  0  0
    2.8402    0.6380    0.0000 C   0  0  0  0  0  0  0  0  0  0  0  0
    2.1399   -0.6070    0.0000 C   0  0  0  0  0  0  0  0  0  0  0  0
    2.8714   -1.0116    0.0000 C   0  0  0  0  0  0  0  0  0  0  0  0
    4.9724    0.2179    0.0000 C   0  0  0  0  0  0  0  0  0  0  0  0
    4.0542    1.4473    0.0000 C   0  0  0  0  0  0  0  0  0  0  0  0
    4.8790    1.1984    0.0000 C   0  0  0  0  0  0  0  0  0  0  0  0
  1  2  2  0  0  0  0
  1  3  2  0  0  0  0
  1 12  1  0  0  0  0
  1 16  1  0  0  0  0
  4 26  1  0  0  0  0
  4 27  1  0  0  0  0
  5 28  2  0  0  0  0
  6 13  1  0  0  0  0
  6 15  2  0  0  0  0
  7 14  2  0  0  0  0
  7 15  1  0  0  0  0
  8 14  1  0  0  0  0
  8 21  1  0  0  0  0
  8 22  1  0  0  0  0
  9 23  1  0  0  0  0
  9 28  1  0  0  0  0
 10 31  1  0  0  0  0
 10 35  2  0  0  0  0
 11 36  3  0  0  0  0
 12 13  2  0  0  0  0
 12 14  1  0  0  0  0
 13 17  1  0  0  0  0
 15 18  1  0  0  0  0
 16 17  1  0  0  0  0
 18 19  2  0  0  0  0
 18 20  1  0  0  0  0
 19 24  1  0  0  0  0
 19 30  1  0  0  0  0
 20 23  2  0  0  0  0
 21 26  1  0  0  0  0
 22 27  1  0  0  0  0
 23 25  1  0  0  0  0
 24 25  2  0  0  0  0
 28 29  1  0  0  0  0
 29 33  1  0  0  0  0
 29 34  2  0  0  0  0
 31 32  1  0  0  0  0
 31 33  2  0  0  0  0
 32 36  1  0  0  0  0
 32 37  1  0  0  0  0
 32 38  1  0  0  0  0
 34 35  1  0  0  0  0
M  END
> <PUBCHEM_COMPOUND_ID_TYPE>
0

> <PUBCHEM_TOTAL_CHARGE>
0

> <PUBCHEM_SUBSTANCE_ID>
310943510

> <PUBCHEM_SUBSTANCE_VERSION>
1

> <PUBCHEM_EXT_DATASOURCE_NAME>
4488

> <PUBCHEM_EXT_DATASOURCE_REGID>
SCHEMBL16121576

> <PUBCHEM_SUBSTANCE_COMMENT>
InChI=1S/C27H28N6O4S/c1-17-4-5-19(30-26(34)18-6-8-29-22(14-18)27(2,3)16-28)15-20(17)24-31-21-7-13-38(35,36)23(21)25(32-24)33-9-11-37-12-10-33/h4-6,8,14-15H,7,9-13H2,1-3H3,(H,30,34)
InChIKey=QKINODCXLKEKAE-UHFFFAOYSA-N

> <PUBCHEM_SUBSTANCE_SYNONYM>
SCHEMBL16121576

> <PUBCHEM_XREF_EXT_ID>
SCHEMBL16121576

> <PUBCHEM_EXT_DATASOURCE_URL>
https://www.surechembl.org/

> <PUBCHEM_EXT_SUBSTANCE_URL>
https://www.surechembl.org/chemical/SCHEMBL16121576

> <PUBCHEM_CID_ASSOCIATIONS>
117609928  1

> <PUBCHEM_COORDINATE_TYPE>
1
3

$$$$
