310936390
  -OEChem-07211613022D

 29 31  0     0  0  0  0  0  0999 V2000
    8.3021   -3.9236    0.0000 Cl  0  0  0  0  0  0  0  0  0  0  0  0
    8.3021   -2.4736    0.0000 Cl  0  0  0  0  0  0  0  0  0  0  0  0
    7.4776   -3.9236    0.0000 Cl  0  0  0  0  0  0  0  0  0  0  0  0
    6.8521    0.0000    0.0000 Cl  0  0  0  0  0  0  0  0  0  0  0  0
    5.6295   -0.7108    0.0000 Cl  0  0  0  0  0  0  0  0  0  0  0  0
    7.2786   -0.7108    0.0000 Cl  0  0  0  0  0  0  0  0  0  0  0  0
    2.8716   -4.4354    0.0000 O   0  0  0  0  0  0  0  0  0  0  0  0
    2.1608   -3.2128    0.0000 O   0  0  0  0  0  0  0  0  0  0  0  0
    7.1648   -1.9902    0.0000 N   0  0  0  0  0  0  0  0  0  0  0  0
    5.7433   -1.9902    0.0000 N   0  0  0  0  0  0  0  0  0  0  0  0
    6.4540   -3.2412    0.0000 N   0  0  0  0  0  0  0  0  0  0  0  0
    7.1648   -2.7863    0.0000 C   0  0  0  0  0  0  0  0  0  0  0  0
    6.4540   -1.5353    0.0000 C   0  0  0  0  0  0  0  0  0  0  0  0
    5.7433   -2.7863    0.0000 C   0  0  0  0  0  0  0  0  0  0  0  0
    7.8756   -3.2128    0.0000 C   0  0  0  0  0  0  0  0  0  0  0  0
    6.4540   -0.7108    0.0000 C   0  0  0  0  0  0  0  0  0  0  0  0
    5.0325   -3.2128    0.0000 C   0  0  0  0  0  0  0  0  0  0  0  0
    4.3216   -2.7863    0.0000 C   0  0  0  0  0  0  0  0  0  0  0  0
    5.0325   -4.0373    0.0000 C   0  0  0  0  0  0  0  0  0  0  0  0
    3.5824   -4.0373    0.0000 C   0  0  0  0  0  0  0  0  0  0  0  0
    3.6108   -3.2128    0.0000 C   0  0  0  0  0  0  0  0  0  0  0  0
    4.3216   -4.4354    0.0000 C   0  0  0  0  0  0  0  0  0  0  0  0
    2.1608   -4.0373    0.0000 C   0  0  0  0  0  0  0  0  0  0  0  0
    1.4216   -4.4354    0.0000 C   0  0  0  0  0  0  0  0  0  0  0  0
    0.7108   -4.0373    0.0000 C   0  0  0  0  0  0  0  0  0  0  0  0
    1.4216   -5.2599    0.0000 C   0  0  0  0  0  0  0  0  0  0  0  0
    0.0000   -4.4354    0.0000 C   0  0  0  0  0  0  0  0  0  0  0  0
    0.7108   -5.6864    0.0000 C   0  0  0  0  0  0  0  0  0  0  0  0
    0.0000   -5.2599    0.0000 C   0  0  0  0  0  0  0  0  0  0  0  0
  1 15  1  0  0  0  0
  2 15  1  0  0  0  0
  3 15  1  0  0  0  0
  4 16  1  0  0  0  0
  5 16  1  0  0  0  0
  6 16  1  0  0  0  0
  7 20  1  0  0  0  0
  7 23  1  0  0  0  0
  8 23  2  0  0  0  0
  9 12  2  0  0  0  0
  9 13  1  0  0  0  0
 10 13  2  0  0  0  0
 10 14  1  0  0  0  0
 11 12  1  0  0  0  0
 11 14  2  0  0  0  0
 12 15  1  0  0  0  0
 13 16  1  0  0  0  0
 14 17  1  0  0  0  0
 17 18  2  0  0  0  0
 17 19  1  0  0  0  0
 18 21  1  0  0  0  0
 19 22  2  0  0  0  0
 20 21  2  0  0  0  0
 20 22  1  0  0  0  0
 23 24  1  0  0  0  0
 24 25  2  0  0  0  0
 24 26  1  0  0  0  0
 25 27  1  0  0  0  0
 26 28  2  0  0  0  0
 27 29  2  0  0  0  0
 28 29  1  0  0  0  0
M  END
> <PUBCHEM_COMPOUND_ID_TYPE>
0

> <PUBCHEM_TOTAL_CHARGE>
0

> <PUBCHEM_SUBSTANCE_ID>
310936390

> <PUBCHEM_SUBSTANCE_VERSION>
1

> <PUBCHEM_EXT_DATASOURCE_NAME>
4488

> <PUBCHEM_EXT_DATASOURCE_REGID>
SCHEMBL16114028

> <PUBCHEM_SUBSTANCE_COMMENT>
InChI=1S/C18H9Cl6N3O2/c19-17(20,21)15-25-13(26-16(27-15)18(22,23)24)10-6-8-12(9-7-10)29-14(28)11-4-2-1-3-5-11/h1-9H
InChIKey=QWDKORAPVZNROZ-UHFFFAOYSA-N

> <PUBCHEM_SUBSTANCE_SYNONYM>
SCHEMBL16114028

> <PUBCHEM_XREF_EXT_ID>
SCHEMBL16114028

> <PUBCHEM_EXT_DATASOURCE_URL>
https://www.surechembl.org/

> <PUBCHEM_EXT_SUBSTANCE_URL>
https://www.surechembl.org/chemical/SCHEMBL16114028

> <PUBCHEM_CID_ASSOCIATIONS>
117604330  1

> <PUBCHEM_COORDINATE_TYPE>
1
3

$$$$
