310935653
  -OEChem-07211613022D

 25 27  0     1  0  0  0  0  0999 V2000
    0.5314    0.5279    0.0000 O   0  0  0  0  0  0  0  0  0  0  0  0
    1.9233   -2.7604    0.0000 O   0  0  0  0  0  0  0  0  0  0  0  0
    6.5042   -1.0932    0.0000 O   0  0  0  0  0  0  0  0  0  0  0  0
    3.5024   -3.0734    0.0000 O   0  0  0  0  0  0  0  0  0  0  0  0
    1.9233   -0.2854    0.0000 C   0  0  3  0  0  0  0  0  0  0  0  0
    1.9233   -1.1104    0.0000 C   0  0  3  0  0  0  0  0  0  0  0  0
    1.1387   -0.0305    0.0000 C   0  0  3  0  0  0  0  0  0  0  0  0
    2.6378   -1.5229    0.0000 C   0  0  3  0  0  0  0  0  0  0  0  0
    3.3523   -1.1104    0.0000 C   0  0  3  0  0  0  0  0  0  0  0  0
    4.0668   -1.5229    0.0000 C   0  0  3  0  0  0  0  0  0  0  0  0
    2.6378    0.1271    0.0000 C   0  0  0  0  0  0  0  0  0  0  0  0
    1.1387   -1.3654    0.0000 C   0  0  0  0  0  0  0  0  0  0  0  0
    0.6538   -0.6979    0.0000 C   0  0  0  0  0  0  0  0  0  0  0  0
    3.3523   -0.2854    0.0000 C   0  0  0  0  0  0  0  0  0  0  0  0
    4.5971   -2.1549    0.0000 C   0  0  3  0  0  0  0  0  0  0  0  0
    1.8371    0.5350    0.0000 C   0  0  0  0  0  0  0  0  0  0  0  0
    1.3018    0.7782    0.0000 C   0  0  0  0  0  0  0  0  0  0  0  0
    4.3489   -0.7477    0.0000 C   0  0  0  0  0  0  0  0  0  0  0  0
    2.6378   -2.3479    0.0000 C   0  0  0  0  0  0  0  0  0  0  0  0
    3.5365   -2.1549    0.0000 C   0  0  0  0  0  0  0  0  0  0  0  0
    5.4095   -2.0117    0.0000 C   0  0  0  0  0  0  0  0  0  0  0  0
    5.1614   -0.6044    0.0000 C   0  0  0  0  0  0  0  0  0  0  0  0
    5.6917   -1.2364    0.0000 C   0  0  3  0  0  0  0  0  0  0  0  0
    4.3149   -2.9302    0.0000 C   0  0  0  0  0  0  0  0  0  0  0  0
    1.4649    1.5869    0.0000 C   0  0  0  0  0  0  0  0  0  0  0  0
  7  1  1  6  0  0  0
  2 19  1  0  0  0  0
 23  3  1  6  0  0  0
  4 24  1  0  0  0  0
  5  6  1  0  0  0  0
  5  7  1  0  0  0  0
  5 11  1  0  0  0  0
  5 16  1  6  0  0  0
  6  8  1  0  0  0  0
  6 12  1  6  0  0  0
  7 13  1  0  0  0  0
  7 17  1  1  0  0  0
  8  9  1  0  0  0  0
  8 19  1  1  0  0  0
  9 10  1  0  0  0  0
  9 14  1  6  0  0  0
 10 15  1  0  0  0  0
 10 18  1  0  0  0  0
 10 20  1  1  0  0  0
 11 14  1  0  0  0  0
 12 13  1  0  0  0  0
 15 21  1  0  0  0  0
 15 24  1  6  0  0  0
 17 25  3  0  0  0  0
 18 22  1  0  0  0  0
 21 23  1  0  0  0  0
 22 23  1  0  0  0  0
M  END
> <PUBCHEM_COMPOUND_ID_TYPE>
0

> <PUBCHEM_TOTAL_CHARGE>
0

> <PUBCHEM_SUBSTANCE_ID>
310935653

> <PUBCHEM_SUBSTANCE_VERSION>
1

> <PUBCHEM_EXT_DATASOURCE_NAME>
4488

> <PUBCHEM_EXT_DATASOURCE_REGID>
SCHEMBL16113232

> <PUBCHEM_SUBSTANCE_COMMENT>
InChI=1S/C21H34O4/c1-4-21(25)10-7-18-16(13-23)17(6-9-20(18,21)3)19(2)8-5-15(24)11-14(19)12-22/h1,14-18,22-25H,5-13H2,2-3H3/t14-,15+,16-,17+,18+,19-,20+,21+/m1/s1
InChIKey=CSLQODJDWOYBAT-GLPDANAZSA-N

> <PUBCHEM_SUBSTANCE_SYNONYM>
SCHEMBL16113232

> <PUBCHEM_XREF_EXT_ID>
SCHEMBL16113232

> <PUBCHEM_EXT_DATASOURCE_URL>
https://www.surechembl.org/

> <PUBCHEM_EXT_SUBSTANCE_URL>
https://www.surechembl.org/chemical/SCHEMBL16113232

> <PUBCHEM_CID_ASSOCIATIONS>
117603664  1

> <PUBCHEM_COORDINATE_TYPE>
1
3

> <PUBCHEM_BONDANNOTATIONS>
7  1  6
10  20  5
15  24  6
23  3  6
5  16  6
6  12  6
7  17  5
8  19  5
9  14  6

$$$$
