310945976
  -OEChem-07211613022D

 24 25  0     1  0  0  0  0  0999 V2000
   -1.2994    0.3163    0.0000 O   0  0  0  0  0  0  0  0  0  0  0  0
    1.2444    1.4301    0.0000 O   0  0  0  0  0  0  0  0  0  0  0  0
    1.9594    1.0038    0.0000 O   0  0  0  0  0  0  0  0  0  0  0  0
   -1.6431   -2.6813    0.0000 O   0  0  0  0  0  0  0  0  0  0  0  0
   -0.1719    2.2688    0.0000 N   0  0  0  0  0  0  0  0  0  0  0  0
    0.5294    0.2062    0.0000 N   0  0  0  0  0  0  0  0  0  0  0  0
   -0.8732    1.0450    0.0000 C   0  0  3  0  0  0  0  0  0  0  0  0
   -0.1857    1.4301    0.0000 C   0  0  3  0  0  0  0  0  0  0  0  0
    0.5569    0.9763    0.0000 C   0  0  0  0  0  0  0  0  0  0  0  0
   -1.6019    1.4576    0.0000 C   0  0  0  0  0  0  0  0  0  0  0  0
    1.2444   -0.2200    0.0000 C   0  0  3  0  0  0  0  0  0  0  0  0
    1.2444   -1.0450    0.0000 C   0  0  0  0  0  0  0  0  0  0  0  0
    0.5294   -1.4438    0.0000 C   0  0  0  0  0  0  0  0  0  0  0  0
   -1.5744    2.2826    0.0000 C   0  0  0  0  0  0  0  0  0  0  0  0
   -0.8869    2.6813    0.0000 C   0  0  0  0  0  0  0  0  0  0  0  0
   -0.4744    0.3163    0.0000 C   0  0  0  0  0  0  0  0  0  0  0  0
    1.9457    0.1650    0.0000 C   0  0  0  0  0  0  0  0  0  0  0  0
   -0.1857   -1.0450    0.0000 C   0  0  0  0  0  0  0  0  0  0  0  0
    0.5019   -2.2688    0.0000 C   0  0  0  0  0  0  0  0  0  0  0  0
   -0.9144   -2.2551    0.0000 C   0  0  0  0  0  0  0  0  0  0  0  0
   -0.9007   -1.4301    0.0000 C   0  0  0  0  0  0  0  0  0  0  0  0
   -0.1994   -2.6813    0.0000 C   0  0  0  0  0  0  0  0  0  0  0  0
    2.3582   -0.0412    0.0000 C   0  0  0  0  0  0  0  0  0  0  0  0
   -2.3582   -2.2551    0.0000 C   0  0  0  0  0  0  0  0  0  0  0  0
  7  1  1  6  0  0  0
  2  9  2  0  0  0  0
  3 17  2  0  0  0  0
  4 20  1  0  0  0  0
  4 24  1  0  0  0  0
  5  8  1  0  0  0  0
  5 15  1  0  0  0  0
  6  9  1  0  0  0  0
 11  6  1  6  0  0  0
  7  8  1  0  0  0  0
  7 10  1  0  0  0  0
  7 16  1  1  0  0  0
  8  9  1  6  0  0  0
 10 14  1  0  0  0  0
 11 12  1  0  0  0  0
 11 17  1  0  0  0  0
 12 13  1  0  0  0  0
 13 18  2  0  0  0  0
 13 19  1  0  0  0  0
 14 15  1  0  0  0  0
 17 23  1  0  0  0  0
 18 21  1  0  0  0  0
 19 22  2  0  0  0  0
 20 21  2  0  0  0  0
 20 22  1  0  0  0  0
M  END
> <PUBCHEM_COMPOUND_ID_TYPE>
0

> <PUBCHEM_TOTAL_CHARGE>
0

> <PUBCHEM_SUBSTANCE_ID>
310945976

> <PUBCHEM_SUBSTANCE_VERSION>
1

> <PUBCHEM_EXT_DATASOURCE_NAME>
4488

> <PUBCHEM_EXT_DATASOURCE_REGID>
SCHEMBL16124081

> <PUBCHEM_SUBSTANCE_COMMENT>
InChI=1S/C18H26N2O4/c1-12(21)15(11-13-5-7-14(24-3)8-6-13)20-17(22)16-18(2,23)9-4-10-19-16/h5-8,15-16,19,23H,4,9-11H2,1-3H3,(H,20,22)/t15-,16+,18+/m0/s1
InChIKey=GIJPFHODGHBOAW-LZLYRXPVSA-N

> <PUBCHEM_SUBSTANCE_SYNONYM>
SCHEMBL16124081

> <PUBCHEM_XREF_EXT_ID>
SCHEMBL16124081

> <PUBCHEM_EXT_DATASOURCE_URL>
https://www.surechembl.org/

> <PUBCHEM_EXT_SUBSTANCE_URL>
https://www.surechembl.org/chemical/SCHEMBL16124081

> <PUBCHEM_CID_ASSOCIATIONS>
117611952  1

> <PUBCHEM_COORDINATE_TYPE>
1
3

> <PUBCHEM_BONDANNOTATIONS>
7  1  6
11  6  6
7  16  5
8  9  6

$$$$
