310943342
  -OEChem-07211613022D

 24 26  0     0  0  0  0  0  0999 V2000
    2.8711    1.5545    0.0000 Cl  0  0  0  0  0  0  0  0  0  0  0  0
    2.8869    0.5076    0.0000 F   0  0  0  0  0  0  0  0  0  0  0  0
    3.5214   -0.0158    0.0000 F   0  0  0  0  0  0  0  0  0  0  0  0
    2.8869   -1.5545    0.0000 F   0  0  0  0  0  0  0  0  0  0  0  0
   -3.5214   -0.3648    0.0000 F   0  0  0  0  0  0  0  0  0  0  0  0
   -3.5214    1.4117    0.0000 F   0  0  0  0  0  0  0  0  0  0  0  0
   -2.7759    1.4117    0.0000 F   0  0  0  0  0  0  0  0  0  0  0  0
    0.2379   -0.3172    0.0000 N   0  0  0  0  0  0  0  0  0  0  0  0
    0.2538    1.3483    0.0000 N   0  0  0  0  0  0  0  0  0  0  0  0
   -2.0462   -0.3807    0.0000 N   0  0  0  0  0  0  0  0  0  0  0  0
    0.9359   -0.0317    0.0000 C   0  0  0  0  0  0  0  0  0  0  0  0
    0.9517    0.9993    0.0000 C   0  0  0  0  0  0  0  0  0  0  0  0
    2.2207   -0.0317    0.0000 C   0  0  0  0  0  0  0  0  0  0  0  0
   -0.1904    0.4918    0.0000 C   0  0  0  0  0  0  0  0  0  0  0  0
    2.2207    0.9993    0.0000 C   0  0  0  0  0  0  0  0  0  0  0  0
    1.5862   -0.5393    0.0000 C   0  0  0  0  0  0  0  0  0  0  0  0
    2.8711   -0.5393    0.0000 C   0  0  0  0  0  0  0  0  0  0  0  0
   -0.9359    0.4918    0.0000 C   0  0  0  0  0  0  0  0  0  0  0  0
    1.5862    1.5069    0.0000 C   0  0  0  0  0  0  0  0  0  0  0  0
   -2.4270    0.4758    0.0000 C   0  0  0  0  0  0  0  0  0  0  0  0
   -1.3165   -0.4124    0.0000 C   0  0  0  0  0  0  0  0  0  0  0  0
   -1.3007    1.3642    0.0000 C   0  0  0  0  0  0  0  0  0  0  0  0
   -3.1724    0.5076    0.0000 C   0  0  0  0  0  0  0  0  0  0  0  0
   -2.0304    1.3800    0.0000 C   0  0  0  0  0  0  0  0  0  0  0  0
  1 15  1  0  0  0  0
  2 17  1  0  0  0  0
  3 17  1  0  0  0  0
  4 17  1  0  0  0  0
  5 23  1  0  0  0  0
  6 23  1  0  0  0  0
  7 23  1  0  0  0  0
  8 11  1  0  0  0  0
  8 14  2  0  0  0  0
  9 12  1  0  0  0  0
  9 14  1  0  0  0  0
 10 20  1  0  0  0  0
 10 21  2  0  0  0  0
 11 12  2  0  0  0  0
 11 16  1  0  0  0  0
 12 19  1  0  0  0  0
 13 15  1  0  0  0  0
 13 16  2  0  0  0  0
 13 17  1  0  0  0  0
 14 18  1  0  0  0  0
 15 19  2  0  0  0  0
 18 21  1  0  0  0  0
 18 22  2  0  0  0  0
 20 23  1  0  0  0  0
 20 24  2  0  0  0  0
 22 24  1  0  0  0  0
M  END
> <PUBCHEM_COMPOUND_ID_TYPE>
0

> <PUBCHEM_TOTAL_CHARGE>
0

> <PUBCHEM_SUBSTANCE_ID>
310943342

> <PUBCHEM_SUBSTANCE_VERSION>
1

> <PUBCHEM_EXT_DATASOURCE_NAME>
4488

> <PUBCHEM_EXT_DATASOURCE_REGID>
SCHEMBL16121405

> <PUBCHEM_SUBSTANCE_COMMENT>
InChI=1S/C14H6ClF6N3/c15-8-4-10-9(3-7(8)13(16,17)18)23-12(24-10)6-1-2-11(22-5-6)14(19,20)21/h1-5H,(H,23,24)
InChIKey=YIWJABLOWSTRFZ-UHFFFAOYSA-N

> <PUBCHEM_SUBSTANCE_SYNONYM>
SCHEMBL16121405

> <PUBCHEM_XREF_EXT_ID>
SCHEMBL16121405

> <PUBCHEM_EXT_DATASOURCE_URL>
https://www.surechembl.org/

> <PUBCHEM_EXT_SUBSTANCE_URL>
https://www.surechembl.org/chemical/SCHEMBL16121405

> <PUBCHEM_CID_ASSOCIATIONS>
117609766  1

> <PUBCHEM_COORDINATE_TYPE>
1
3

$$$$
