310929756
  -OEChem-07211613022D

 69 76  0     1  0  0  0  0  0999 V2000
   -2.4082   -3.8161    0.0000 S   0  0  0  0  0  0  0  0  0  0  0  0
   -1.2795   -2.6126    0.0000 O   0  0  0  0  0  0  0  0  0  0  0  0
   -1.2265   -2.2695    0.0000 O   0  0  0  0  0  0  0  0  0  0  0  0
   -0.0231    0.8224    0.0000 O   0  0  0  0  0  0  0  0  0  0  0  0
    4.2996   -1.5896    0.0000 O   0  0  0  0  0  0  0  0  0  0  0  0
   -2.2203   -3.0128    0.0000 O   0  0  0  0  0  0  0  0  0  0  0  0
   -2.5960   -4.6195    0.0000 O   0  0  0  0  0  0  0  0  0  0  0  0
    1.4541   -2.4563    0.0000 O   0  0  0  0  0  0  0  0  0  0  0  0
    3.5670   -0.3627    0.0000 O   0  0  0  0  0  0  0  0  0  0  0  0
    2.5907    0.6131    0.0000 O   0  0  0  0  0  0  0  0  0  0  0  0
    0.0873   -2.8315    0.0000 N   0  0  0  0  0  0  0  0  0  0  0  0
    0.7215   -1.2294    0.0000 N   0  0  0  0  0  0  0  0  0  0  0  0
   -1.6048   -4.0040    0.0000 N   0  0  0  0  0  0  0  0  0  0  0  0
    2.8708   -1.6105    0.0000 N   0  0  0  0  0  0  0  0  0  0  0  0
    0.6732    2.0702    0.0000 N   0  0  0  0  0  0  0  0  0  0  0  0
    1.4057    0.8433    0.0000 N   0  0  3  0  0  0  0  0  0  0  0  0
   -0.2372   -3.5900    0.0000 C   0  0  3  0  0  0  0  0  0  0  0  0
    0.4535   -4.0413    0.0000 C   0  0  3  0  0  0  0  0  0  0  0  0
   -0.2827   -4.4138    0.0000 C   0  0  0  0  0  0  0  0  0  0  0  0
   -1.0405   -3.4022    0.0000 C   0  0  0  0  0  0  0  0  0  0  0  0
   -0.0828   -1.4127    0.0000 C   0  0  3  0  0  0  0  0  0  0  0  0
   -0.4073   -2.1713    0.0000 C   0  0  0  0  0  0  0  0  0  0  0  0
    1.2772   -4.0868    0.0000 C   0  0  0  0  0  0  0  0  0  0  0  0
   -0.0110   -0.0025    0.0000 C   0  0  3  0  0  0  0  0  0  0  0  0
   -0.5058   -0.7044    0.0000 C   0  0  0  0  0  0  0  0  0  0  0  0
    1.4420   -1.6314    0.0000 C   0  0  0  0  0  0  0  0  0  0  0  0
   -3.2115   -3.6283    0.0000 C   0  0  0  0  0  0  0  0  0  0  0  0
    0.7095   -0.4045    0.0000 C   0  0  0  0  0  0  0  0  0  0  0  0
    2.1503   -1.2085    0.0000 C   0  0  3  0  0  0  0  0  0  0  0  0
    5.0079   -1.1667    0.0000 C   0  0  3  0  0  0  0  0  0  0  0  0
    4.9958   -0.3417    0.0000 C   0  0  3  0  0  0  0  0  0  0  0  0
    5.7163   -0.7437    0.0000 C   0  0  0  0  0  0  0  0  0  0  0  0
    2.1624   -2.0334    0.0000 C   0  0  0  0  0  0  0  0  0  0  0  0
   -3.1660   -2.8045    0.0000 C   0  0  0  0  0  0  0  0  0  0  0  0
   -3.9021   -3.1770    0.0000 C   0  0  0  0  0  0  0  0  0  0  0  0
    1.6497   -4.8229    0.0000 C   0  0  0  0  0  0  0  0  0  0  0  0
    3.5791   -1.1876    0.0000 C   0  0  0  0  0  0  0  0  0  0  0  0
    0.6853    1.2453    0.0000 C   0  0  0  0  0  0  0  0  0  0  0  0
    4.2754    0.0602    0.0000 C   0  0  0  0  0  0  0  0  0  0  0  0
   -3.5360   -4.3868    0.0000 C   0  0  0  0  0  0  0  0  0  0  0  0
    1.1619    0.5922    0.0000 C   0  0  0  0  0  0  0  0  0  0  0  0
    2.3579    1.5173    0.0000 C   0  0  0  0  0  0  0  0  0  0  0  0
    2.1745   -2.8583    0.0000 C   0  0  0  0  0  0  0  0  0  0  0  0
    2.9873   -2.0213    0.0000 C   0  0  0  0  0  0  0  0  0  0  0  0
    1.3375   -2.0455    0.0000 C   0  0  0  0  0  0  0  0  0  0  0  0
    1.3816    2.4931    0.0000 C   0  0  0  0  0  0  0  0  0  0  0  0
    2.1020    2.0911    0.0000 C   0  0  0  0  0  0  0  0  0  0  0  0
    4.2633    0.8852    0.0000 C   0  0  0  0  0  0  0  0  0  0  0  0
    1.8630    1.5101    0.0000 C   0  0  0  0  0  0  0  0  0  0  0  0
    3.5429    1.2872    0.0000 C   0  0  0  0  0  0  0  0  0  0  0  0
    2.5834    1.1081    0.0000 C   0  0  0  0  0  0  0  0  0  0  0  0
    1.3695    3.3181    0.0000 C   0  0  0  0  0  0  0  0  0  0  0  0
    2.8104    2.5141    0.0000 C   0  0  0  0  0  0  0  0  0  0  0  0
    2.0779    3.7410    0.0000 C   0  0  0  0  0  0  0  0  0  0  0  0
    2.7983    3.3390    0.0000 C   0  0  0  0  0  0  0  0  0  0  0  0
    2.6028   -0.2118    0.0000 C   0  0  0  0  0  0  0  0  0  0  0  0
    2.1382   -0.3836    0.0000 C   0  0  3  0  0  0  0  0  0  0  0  0
    1.6617    0.2695    0.0000 C   0  0  0  0  0  0  0  0  0  0  0  0
    2.8466    0.0393    0.0000 C   0  0  0  0  0  0  0  0  0  0  0  0
    2.8345    0.8642    0.0000 C   0  0  0  0  0  0  0  0  0  0  0  0
    2.1141    1.2662    0.0000 C   0  0  0  0  0  0  0  0  0  0  0  0
    1.4178    0.0184    0.0000 C   0  0  0  0  0  0  0  0  0  0  0  0
    0.4584   -0.1607    0.0000 C   0  0  0  0  0  0  0  0  0  0  0  0
    0.7106   -3.2574    0.0000 H   0  0  0  0  0  0  0  0  0  0  0  0
   -0.9060   -1.4680    0.0000 H   0  0  0  0  0  0  0  0  0  0  0  0
   -0.7992    0.2410    0.0000 H   0  0  0  0  0  0  0  0  0  0  0  0
    1.7483   -1.9289    0.0000 H   0  0  0  0  0  0  0  0  0  0  0  0
    5.4308   -1.8750    0.0000 H   0  0  0  0  0  0  0  0  0  0  0  0
    5.3978    0.3787    0.0000 H   0  0  0  0  0  0  0  0  0  0  0  0
  1  6  2  0  0  0  0
  1  7  2  0  0  0  0
  1 13  1  0  0  0  0
  1 27  1  0  0  0  0
  2 20  2  0  0  0  0
  3 22  2  0  0  0  0
  4 24  1  0  0  0  0
  4 38  1  0  0  0  0
  5 30  1  0  0  0  0
  5 37  1  0  0  0  0
  8 26  2  0  0  0  0
  9 37  2  0  0  0  0
 10 42  1  0  0  0  0
 10 56  1  0  0  0  0
 17 11  1  1  0  0  0
 11 22  1  0  0  0  0
 12 21  1  0  0  0  0
 12 26  1  0  0  0  0
 12 28  1  0  0  0  0
 13 20  1  0  0  0  0
 14 29  1  0  0  0  0
 14 37  1  0  0  0  0
 15 38  2  0  0  0  0
 15 46  1  0  0  0  0
 16 58  1  0  0  0  0
 16 61  1  0  0  0  0
 16 62  1  0  0  0  0
 17 18  1  0  0  0  0
 17 19  1  0  0  0  0
 17 20  1  6  0  0  0
 18 19  1  0  0  0  0
 18 23  1  6  0  0  0
 18 64  1  1  0  0  0
 21 22  1  0  0  0  0
 21 25  1  0  0  0  0
 21 65  1  1  0  0  0
 23 36  2  0  0  0  0
 24 25  1  0  0  0  0
 24 28  1  0  0  0  0
 24 66  1  6  0  0  0
 26 29  1  0  0  0  0
 27 34  1  0  0  0  0
 27 35  1  0  0  0  0
 27 40  1  0  0  0  0
 29 33  1  0  0  0  0
 29 67  1  6  0  0  0
 30 31  1  0  0  0  0
 30 32  1  0  0  0  0
 30 68  1  6  0  0  0
 31 32  1  0  0  0  0
 31 39  1  0  0  0  0
 31 69  1  1  0  0  0
 33 43  1  0  0  0  0
 33 44  1  0  0  0  0
 33 45  1  0  0  0  0
 34 35  1  0  0  0  0
 38 41  1  0  0  0  0
 39 48  1  0  0  0  0
 41 42  2  0  0  0  0
 41 49  1  0  0  0  0
 42 47  1  0  0  0  0
 46 47  2  0  0  0  0
 46 52  1  0  0  0  0
 47 53  1  0  0  0  0
 48 50  1  0  0  0  0
 49 51  1  0  0  0  0
 50 51  1  0  0  0  0
 52 54  2  0  0  0  0
 53 55  2  0  0  0  0
 54 55  1  0  0  0  0
 56 57  1  0  0  0  0
 57 58  1  0  0  0  0
 57 59  1  0  0  0  0
 59 60  1  0  0  0  0
 60 61  1  0  0  0  0
 62 63  1  0  0  0  0
M  END
> <PUBCHEM_COMPOUND_ID_TYPE>
0

> <PUBCHEM_TOTAL_CHARGE>
0

> <PUBCHEM_SUBSTANCE_ID>
310929756

> <PUBCHEM_SUBSTANCE_VERSION>
1

> <PUBCHEM_EXT_DATASOURCE_NAME>
4488

> <PUBCHEM_EXT_DATASOURCE_REGID>
SCHEMBL16106954

> <PUBCHEM_SUBSTANCE_COMMENT>
InChI=1S/C47H66N6O9S/c1-7-31-25-47(31,43(56)51-63(58,59)46(6)20-21-46)50-40(54)36-24-32-27-53(36)42(55)39(45(3,4)5)49-44(57)62-37-23-30(37)16-10-9-11-18-34-38(60-28-29-15-14-22-52(8-2)26-29)33-17-12-13-19-35(33)48-41(34)61-32/h7,12-13,17,19,29-32,36-37,39H,1,8-11,14-16,18,20-28H2,2-6H3,(H,49,57)(H,50,54)(H,51,56)/t29?,30-,31-,32-,36+,37-,39-,47-/m1/s1
InChIKey=MVQWKOICMBKQJS-LTJWYDRISA-N

> <PUBCHEM_SUBSTANCE_SYNONYM>
SCHEMBL16106954

> <PUBCHEM_XREF_EXT_ID>
SCHEMBL16106954

> <PUBCHEM_EXT_DATASOURCE_URL>
https://www.surechembl.org/

> <PUBCHEM_EXT_SUBSTANCE_URL>
https://www.surechembl.org/chemical/SCHEMBL16106954

> <PUBCHEM_CID_ASSOCIATIONS>
117599046  1

> <PUBCHEM_COORDINATE_TYPE>
1
3

> <PUBCHEM_BONDANNOTATIONS>
17  11  5
17  20  6
18  23  6
18  64  5
21  65  5
24  66  6
29  67  6
30  68  6
31  69  5

$$$$
