310936201
  -OEChem-07211613022D

 23 24  0     0  0  0  0  0  0999 V2000
    2.1281   -1.6848    0.0000 Cl  0  0  0  0  0  0  0  0  0  0  0  0
    0.0000   -2.9262    0.0000 O   0  0  0  0  0  0  0  0  0  0  0  0
    5.4090   -2.6380    0.0000 O   0  0  0  0  0  0  0  0  0  0  0  0
    1.4409   -1.2636    0.0000 O   0  0  0  0  0  0  0  0  0  0  0  0
    5.4090   -4.0789    0.0000 O   0  0  0  0  0  0  0  0  0  0  0  0
    0.0000   -1.2414    0.0000 O   0  0  0  0  0  0  0  0  0  0  0  0
    2.8818   -2.9262    0.0000 N   0  0  0  0  0  0  0  0  0  0  0  0
    3.6577   -2.6823    0.0000 N   0  0  0  0  0  0  0  0  0  0  0  0
    2.1503   -4.1897    0.0000 N   0  0  0  0  0  0  0  0  0  0  0  0
    2.8818   -3.7907    0.0000 C   0  0  0  0  0  0  0  0  0  0  0  0
    1.4409   -2.9262    0.0000 C   0  0  0  0  0  0  0  0  0  0  0  0
    2.1503   -2.5272    0.0000 C   0  0  0  0  0  0  0  0  0  0  0  0
    1.4409   -3.7907    0.0000 C   0  0  0  0  0  0  0  0  0  0  0  0
    4.1676   -3.3474    0.0000 C   0  0  0  0  0  0  0  0  0  0  0  0
    3.6577   -4.0124    0.0000 C   0  0  0  0  0  0  0  0  0  0  0  0
    0.7315   -2.5050    0.0000 C   0  0  0  0  0  0  0  0  0  0  0  0
    4.9878   -3.3474    0.0000 C   0  0  0  0  0  0  0  0  0  0  0  0
    0.7315   -1.6626    0.0000 C   0  0  0  0  0  0  0  0  0  0  0  0
    0.7315   -4.2119    0.0000 C   0  0  0  0  0  0  0  0  0  0  0  0
    6.2292   -2.6380    0.0000 C   0  0  0  0  0  0  0  0  0  0  0  0
    1.4409   -0.4212    0.0000 C   0  0  0  0  0  0  0  0  0  0  0  0
    6.6504   -1.9064    0.0000 C   0  0  0  0  0  0  0  0  0  0  0  0
    0.7315    0.0000    0.0000 C   0  0  0  0  0  0  0  0  0  0  0  0
  1 12  1  0  0  0  0
  2 16  2  0  0  0  0
  3 17  1  0  0  0  0
  3 20  1  0  0  0  0
  4 18  1  0  0  0  0
  4 21  1  0  0  0  0
  5 17  2  0  0  0  0
  6 18  2  0  0  0  0
  7  8  1  0  0  0  0
  7 10  1  0  0  0  0
  7 12  1  0  0  0  0
  8 14  2  0  0  0  0
  9 10  1  0  0  0  0
  9 13  2  0  0  0  0
 10 15  2  0  0  0  0
 11 12  2  0  0  0  0
 11 13  1  0  0  0  0
 11 16  1  0  0  0  0
 13 19  1  0  0  0  0
 14 15  1  0  0  0  0
 14 17  1  0  0  0  0
 16 18  1  0  0  0  0
 20 22  1  0  0  0  0
 21 23  1  0  0  0  0
M  END
> <PUBCHEM_COMPOUND_ID_TYPE>
0

> <PUBCHEM_TOTAL_CHARGE>
0

> <PUBCHEM_SUBSTANCE_ID>
310936201

> <PUBCHEM_SUBSTANCE_VERSION>
1

> <PUBCHEM_EXT_DATASOURCE_NAME>
4488

> <PUBCHEM_EXT_DATASOURCE_REGID>
SCHEMBL16113813

> <PUBCHEM_SUBSTANCE_COMMENT>
InChI=1S/C14H14ClN3O5/c1-4-22-13(20)8-6-9-16-7(3)10(12(15)18(9)17-8)11(19)14(21)23-5-2/h6H,4-5H2,1-3H3
InChIKey=BEMRNFYGLKVWRG-UHFFFAOYSA-N

> <PUBCHEM_SUBSTANCE_SYNONYM>
SCHEMBL16113813

> <PUBCHEM_XREF_EXT_ID>
SCHEMBL16113813

> <PUBCHEM_EXT_DATASOURCE_URL>
https://www.surechembl.org/

> <PUBCHEM_EXT_SUBSTANCE_URL>
https://www.surechembl.org/chemical/SCHEMBL16113813

> <PUBCHEM_CID_ASSOCIATIONS>
117604155  1

> <PUBCHEM_COORDINATE_TYPE>
1
3

$$$$
