310936574
  -OEChem-07211613022D

 15 16  0     0  0  0  0  0  0999 V2000
    0.0000   -2.0813    0.0000 F   0  0  0  0  0  0  0  0  0  0  0  0
    0.7687   -0.7875    0.0000 O   0  0  0  0  0  0  0  0  0  0  0  0
    2.8875   -1.2563    0.0000 O   0  0  0  0  0  0  0  0  0  0  0  0
    3.6000   -2.5125    0.0000 O   0  0  0  0  0  0  0  0  0  0  0  0
    2.1188   -0.7875    0.0000 N   0  0  0  0  0  0  0  0  0  0  0  0
    1.4438   -2.0813    0.0000 C   0  0  0  0  0  0  0  0  0  0  0  0
    2.1562   -2.5125    0.0000 C   0  0  0  0  0  0  0  0  0  0  0  0
    1.4438   -1.2563    0.0000 C   0  0  0  0  0  0  0  0  0  0  0  0
    0.7313   -2.5125    0.0000 C   0  0  0  0  0  0  0  0  0  0  0  0
    2.8875   -2.0813    0.0000 C   0  0  0  0  0  0  0  0  0  0  0  0
    2.1562   -3.3375    0.0000 C   0  0  0  0  0  0  0  0  0  0  0  0
    0.7313   -3.3375    0.0000 C   0  0  0  0  0  0  0  0  0  0  0  0
    1.4438   -3.7500    0.0000 C   0  0  0  0  0  0  0  0  0  0  0  0
    1.0313    0.0000    0.0000 C   0  0  0  0  0  0  0  0  0  0  0  0
    1.8563    0.0000    0.0000 C   0  0  0  0  0  0  0  0  0  0  0  0
  1  9  1  0  0  0  0
  2  8  1  0  0  0  0
  2 14  1  0  0  0  0
  3 10  2  0  0  0  0
  4 10  1  0  0  0  0
  5  8  2  0  0  0  0
  5 15  1  0  0  0  0
  6  7  2  0  0  0  0
  6  8  1  0  0  0  0
  6  9  1  0  0  0  0
  7 10  1  0  0  0  0
  7 11  1  0  0  0  0
  9 12  2  0  0  0  0
 11 13  2  0  0  0  0
 12 13  1  0  0  0  0
 14 15  2  0  0  0  0
M  END
> <PUBCHEM_COMPOUND_ID_TYPE>
0

> <PUBCHEM_TOTAL_CHARGE>
0

> <PUBCHEM_SUBSTANCE_ID>
310936574

> <PUBCHEM_SUBSTANCE_VERSION>
1

> <PUBCHEM_EXT_DATASOURCE_NAME>
4488

> <PUBCHEM_EXT_DATASOURCE_REGID>
SCHEMBL16114230

> <PUBCHEM_SUBSTANCE_COMMENT>
InChI=1S/C10H6FNO3/c11-7-3-1-2-6(10(13)14)8(7)9-12-4-5-15-9/h1-5H,(H,13,14)
InChIKey=DSPARGRXZADGGO-UHFFFAOYSA-N

> <PUBCHEM_SUBSTANCE_SYNONYM>
SCHEMBL16114230

> <PUBCHEM_XREF_EXT_ID>
SCHEMBL16114230

> <PUBCHEM_EXT_DATASOURCE_URL>
https://www.surechembl.org/

> <PUBCHEM_EXT_SUBSTANCE_URL>
https://www.surechembl.org/chemical/SCHEMBL16114230

> <PUBCHEM_CID_ASSOCIATIONS>
117604494  1

> <PUBCHEM_COORDINATE_TYPE>
1
3

$$$$
