310948604
  -OEChem-07211613022D

 32 34  0     1  0  0  0  0  0999 V2000
   -4.2453    0.0279    0.0000 O   0  0  0  0  0  0  0  0  0  0  0  0
   -3.0045   -0.6135    0.0000 O   0  0  0  0  0  0  0  0  0  0  0  0
   -0.1045    2.4677    0.0000 O   0  0  0  0  0  0  0  0  0  0  0  0
    0.6205   -0.4044    0.0000 N   0  0  0  0  0  0  0  0  0  0  0  0
    0.6205    1.2408    0.0000 N   0  0  0  0  0  0  0  0  0  0  0  0
   -2.3213    1.2548    0.0000 C   0  0  3  0  0  0  0  0  0  0  0  0
   -3.0045    0.8504    0.0000 C   0  0  3  0  0  0  0  0  0  0  0  0
   -1.5267    0.8086    0.0000 C   0  0  0  0  0  0  0  0  0  0  0  0
   -2.9905    1.6452    0.0000 C   0  0  0  0  0  0  0  0  0  0  0  0
   -0.1045    0.8365    0.0000 C   0  0  0  0  0  0  0  0  0  0  0  0
   -0.1185    0.0140    0.0000 C   0  0  0  0  0  0  0  0  0  0  0  0
   -0.8295    1.2269    0.0000 C   0  0  0  0  0  0  0  0  0  0  0  0
   -3.4368    0.0976    0.0000 C   0  0  0  0  0  0  0  0  0  0  0  0
   -1.5545    0.0140    0.0000 C   0  0  0  0  0  0  0  0  0  0  0  0
   -0.8295   -0.4044    0.0000 C   0  0  0  0  0  0  0  0  0  0  0  0
    0.6344    2.0634    0.0000 C   0  0  0  0  0  0  0  0  0  0  0  0
    0.6065   -1.2408    0.0000 C   0  0  0  0  0  0  0  0  0  0  0  0
    1.3175    0.0000    0.0000 C   0  0  0  0  0  0  0  0  0  0  0  0
    1.3175    2.4816    0.0000 C   0  0  0  0  0  0  0  0  0  0  0  0
   -0.1045   -1.6312    0.0000 C   0  0  0  0  0  0  0  0  0  0  0  0
    2.0704   -0.4044    0.0000 C   0  0  0  0  0  0  0  0  0  0  0  0
    2.0704    2.0774    0.0000 C   0  0  0  0  0  0  0  0  0  0  0  0
    2.0704    1.2548    0.0000 C   0  0  0  0  0  0  0  0  0  0  0  0
    2.7814    2.4677    0.0000 C   0  0  0  0  0  0  0  0  0  0  0  0
    3.4925    1.2548    0.0000 C   0  0  0  0  0  0  0  0  0  0  0  0
    2.7953    0.8365    0.0000 C   0  0  0  0  0  0  0  0  0  0  0  0
    3.5065    2.0634    0.0000 C   0  0  0  0  0  0  0  0  0  0  0  0
   -0.8435   -1.2548    0.0000 C   0  0  0  0  0  0  0  0  0  0  0  0
   -0.0906   -2.4816    0.0000 C   0  0  0  0  0  0  0  0  0  0  0  0
    2.8093    0.0140    0.0000 C   0  0  0  0  0  0  0  0  0  0  0  0
    2.0844   -1.2548    0.0000 C   0  0  0  0  0  0  0  0  0  0  0  0
    4.2453    0.8086    0.0000 C   0  0  0  0  0  0  0  0  0  0  0  0
  1 13  2  0  0  0  0
  2 13  1  0  0  0  0
  3 16  2  0  0  0  0
  4 11  1  0  0  0  0
  4 17  1  0  0  0  0
  4 18  1  0  0  0  0
  5 10  1  0  0  0  0
  5 16  1  0  0  0  0
  6  7  1  0  0  0  0
  6  8  1  0  0  0  0
  6  9  1  1  0  0  0
  7  9  1  0  0  0  0
  7 13  1  1  0  0  0
  8 12  1  0  0  0  0
  8 14  2  0  0  0  0
 10 11  1  0  0  0  0
 10 12  2  0  0  0  0
 11 15  2  0  0  0  0
 14 15  1  0  0  0  0
 16 19  1  0  0  0  0
 17 20  1  0  0  0  0
 18 21  1  0  0  0  0
 19 22  1  0  0  0  0
 20 28  1  0  0  0  0
 20 29  1  0  0  0  0
 21 30  1  0  0  0  0
 21 31  1  0  0  0  0
 22 23  2  0  0  0  0
 22 24  1  0  0  0  0
 23 26  1  0  0  0  0
 24 27  2  0  0  0  0
 25 26  2  0  0  0  0
 25 27  1  0  0  0  0
 25 32  1  0  0  0  0
M  END
> <PUBCHEM_COMPOUND_ID_TYPE>
0

> <PUBCHEM_TOTAL_CHARGE>
0

> <PUBCHEM_SUBSTANCE_ID>
310948604

> <PUBCHEM_SUBSTANCE_VERSION>
1

> <PUBCHEM_EXT_DATASOURCE_NAME>
4488

> <PUBCHEM_EXT_DATASOURCE_REGID>
SCHEMBL16126787

> <PUBCHEM_SUBSTANCE_COMMENT>
InChI=1S/C27H36N2O3/c1-17(2)15-29(16-18(3)4)25-11-10-21(22-14-23(22)27(31)32)13-24(25)28-26(30)12-20-8-6-19(5)7-9-20/h6-11,13,17-18,22-23H,12,14-16H2,1-5H3,(H,28,30)(H,31,32)/t22-,23-/m0/s1
InChIKey=HDBBJVKQLBZQER-GOTSBHOMSA-N

> <PUBCHEM_SUBSTANCE_SYNONYM>
SCHEMBL16126787

> <PUBCHEM_XREF_EXT_ID>
SCHEMBL16126787

> <PUBCHEM_EXT_DATASOURCE_URL>
https://www.surechembl.org/

> <PUBCHEM_EXT_SUBSTANCE_URL>
https://www.surechembl.org/chemical/SCHEMBL16126787

> <PUBCHEM_CID_ASSOCIATIONS>
117614149  1

> <PUBCHEM_COORDINATE_TYPE>
1
3

> <PUBCHEM_BONDANNOTATIONS>
6  9  5
7  13  5

$$$$
