310940004
  -OEChem-07211613022D

 29 32  0     0  0  0  0  0  0999 V2000
   -3.6105   -1.7398    0.0000 I   0  0  0  0  0  0  0  0  0  0  0  0
   -6.4684   -3.3897    0.0000 Cl  0  0  0  0  0  0  0  0  0  0  0  0
   -6.4684   -1.7398    0.0000 Cl  0  0  0  0  0  0  0  0  0  0  0  0
    1.2951   -1.7099    0.0000 O   0  0  0  0  0  0  0  0  0  0  0  0
    0.4701   -4.5191    0.0000 O   0  0  0  0  0  0  0  0  0  0  0  0
   -1.4670   -2.9772    0.0000 O   0  0  0  0  0  0  0  0  0  0  0  0
    0.6277   -3.0199    0.0000 N   0  0  0  0  0  0  0  0  0  0  0  0
    1.7076   -3.8046    0.0000 C   0  0  0  0  0  0  0  0  0  0  0  0
    1.9626   -3.0199    0.0000 C   0  0  0  0  0  0  0  0  0  0  0  0
    0.8827   -3.8046    0.0000 C   0  0  0  0  0  0  0  0  0  0  0  0
    1.2951   -2.5349    0.0000 C   0  0  0  0  0  0  0  0  0  0  0  0
   -4.3250   -2.9772    0.0000 C   0  0  0  0  0  0  0  0  0  0  0  0
    2.2597   -4.4176    0.0000 C   0  0  0  0  0  0  0  0  0  0  0  0
    2.7697   -2.8483    0.0000 C   0  0  0  0  0  0  0  0  0  0  0  0
   -3.6105   -3.3897    0.0000 C   0  0  0  0  0  0  0  0  0  0  0  0
   -0.1692   -2.8065    0.0000 C   0  0  0  0  0  0  0  0  0  0  0  0
   -4.3250   -2.1523    0.0000 C   0  0  0  0  0  0  0  0  0  0  0  0
   -5.0396   -3.3897    0.0000 C   0  0  0  0  0  0  0  0  0  0  0  0
   -5.7539   -2.9772    0.0000 C   0  0  0  0  0  0  0  0  0  0  0  0
   -5.7539   -2.1523    0.0000 C   0  0  0  0  0  0  0  0  0  0  0  0
   -2.1816   -3.3897    0.0000 C   0  0  0  0  0  0  0  0  0  0  0  0
   -2.8960   -2.9772    0.0000 C   0  0  0  0  0  0  0  0  0  0  0  0
    3.0668   -4.2461    0.0000 C   0  0  0  0  0  0  0  0  0  0  0  0
    3.3216   -3.4614    0.0000 C   0  0  0  0  0  0  0  0  0  0  0  0
   -5.0396   -1.7398    0.0000 C   0  0  0  0  0  0  0  0  0  0  0  0
   -0.7525   -3.3897    0.0000 C   0  0  0  0  0  0  0  0  0  0  0  0
   -3.6105   -4.2147    0.0000 C   0  0  0  0  0  0  0  0  0  0  0  0
   -2.1816   -4.2147    0.0000 C   0  0  0  0  0  0  0  0  0  0  0  0
   -2.8960   -4.6273    0.0000 C   0  0  0  0  0  0  0  0  0  0  0  0
  1 17  1  0  0  0  0
  2 19  1  0  0  0  0
  3 20  1  0  0  0  0
  4 11  2  0  0  0  0
  5 10  2  0  0  0  0
  6 21  1  0  0  0  0
  6 26  1  0  0  0  0
  7 10  1  0  0  0  0
  7 11  1  0  0  0  0
  7 16  1  0  0  0  0
  8  9  2  0  0  0  0
  8 10  1  0  0  0  0
  8 13  1  0  0  0  0
  9 11  1  0  0  0  0
  9 14  1  0  0  0  0
 12 15  1  0  0  0  0
 12 17  1  0  0  0  0
 12 18  2  0  0  0  0
 13 23  2  0  0  0  0
 14 24  2  0  0  0  0
 15 22  2  0  0  0  0
 15 27  1  0  0  0  0
 16 26  1  0  0  0  0
 17 25  2  0  0  0  0
 18 19  1  0  0  0  0
 19 20  2  0  0  0  0
 20 25  1  0  0  0  0
 21 22  1  0  0  0  0
 21 28  2  0  0  0  0
 23 24  1  0  0  0  0
 27 29  2  0  0  0  0
 28 29  1  0  0  0  0
M  END
> <PUBCHEM_COMPOUND_ID_TYPE>
0

> <PUBCHEM_TOTAL_CHARGE>
0

> <PUBCHEM_SUBSTANCE_ID>
310940004

> <PUBCHEM_SUBSTANCE_VERSION>
1

> <PUBCHEM_EXT_DATASOURCE_NAME>
4488

> <PUBCHEM_EXT_DATASOURCE_REGID>
SCHEMBL16117934

> <PUBCHEM_SUBSTANCE_COMMENT>
InChI=1S/C22H14Cl2INO3/c23-18-11-17(20(25)12-19(18)24)13-4-3-5-14(10-13)29-9-8-26-21(27)15-6-1-2-7-16(15)22(26)28/h1-7,10-12H,8-9H2
InChIKey=WSOJSROIGQXVDM-UHFFFAOYSA-N

> <PUBCHEM_SUBSTANCE_SYNONYM>
SCHEMBL16117934

> <PUBCHEM_XREF_EXT_ID>
SCHEMBL16117934

> <PUBCHEM_EXT_DATASOURCE_URL>
https://www.surechembl.org/

> <PUBCHEM_EXT_SUBSTANCE_URL>
https://www.surechembl.org/chemical/SCHEMBL16117934

> <PUBCHEM_CID_ASSOCIATIONS>
117607166  1

> <PUBCHEM_COORDINATE_TYPE>
1
3

$$$$
