310930329
  -OEChem-07211613022D

 36 41  0     0  0  0  0  0  0999 V2000
    6.4378   -2.1577    0.0000 S   0  0  0  0  0  0  0  0  0  0  0  0
    8.9493   -0.7074    0.0000 S   0  0  0  0  0  0  0  0  0  0  0  0
    8.1357   -2.1577    0.0000 O   0  0  0  0  0  0  0  0  0  0  0  0
    5.6597   -1.6979    0.0000 O   0  0  0  0  0  0  0  0  0  0  0  0
    7.1099   -2.5822    0.0000 O   0  0  0  0  0  0  0  0  0  0  0  0
    2.1931   -6.4024    0.0000 O   0  0  0  0  0  0  0  0  0  0  0  0
    3.9264   -6.4732    0.0000 O   0  0  0  0  0  0  0  0  0  0  0  0
    3.9264   -5.0229    0.0000 N   0  0  0  0  0  0  0  0  0  0  0  0
    0.0000   -6.1902    0.0000 N   0  0  0  0  0  0  0  0  0  0  0  0
    6.8623   -1.4503    0.0000 C   0  0  0  0  0  0  0  0  0  0  0  0
    7.7112   -1.4503    0.0000 C   0  0  0  0  0  0  0  0  0  0  0  0
    8.1004   -0.7428    0.0000 C   0  0  0  0  0  0  0  0  0  0  0  0
    6.0134   -2.9006    0.0000 C   0  0  0  0  0  0  0  0  0  0  0  0
    8.9493   -2.1577    0.0000 C   0  0  0  0  0  0  0  0  0  0  0  0
    9.3738   -1.4503    0.0000 C   0  0  0  0  0  0  0  0  0  0  0  0
    6.4732   -0.7782    0.0000 C   0  0  0  0  0  0  0  0  0  0  0  0
    7.6759    0.0000    0.0000 C   0  0  0  0  0  0  0  0  0  0  0  0
    6.8977   -0.0353    0.0000 C   0  0  0  0  0  0  0  0  0  0  0  0
    5.1998   -2.8652    0.0000 C   0  0  0  0  0  0  0  0  0  0  0  0
    6.4378   -3.6080    0.0000 C   0  0  0  0  0  0  0  0  0  0  0  0
    9.4091   -2.9006    0.0000 C   0  0  0  0  0  0  0  0  0  0  0  0
   10.2227   -1.4503    0.0000 C   0  0  0  0  0  0  0  0  0  0  0  0
    5.1998   -4.3155    0.0000 C   0  0  0  0  0  0  0  0  0  0  0  0
    2.7237   -5.7304    0.0000 C   0  0  0  0  0  0  0  0  0  0  0  0
    1.4149   -6.1902    0.0000 C   0  0  0  0  0  0  0  0  0  0  0  0
    1.4149   -5.3059    0.0000 C   0  0  0  0  0  0  0  0  0  0  0  0
    4.7753   -3.5727    0.0000 C   0  0  0  0  0  0  0  0  0  0  0  0
    6.0134   -4.3155    0.0000 C   0  0  0  0  0  0  0  0  0  0  0  0
    2.1931   -5.0937    0.0000 C   0  0  0  0  0  0  0  0  0  0  0  0
    3.5373   -5.7304    0.0000 C   0  0  0  0  0  0  0  0  0  0  0  0
   10.1874   -2.8652    0.0000 C   0  0  0  0  0  0  0  0  0  0  0  0
   10.6118   -2.1223    0.0000 C   0  0  0  0  0  0  0  0  0  0  0  0
    4.7753   -5.0229    0.0000 C   0  0  0  0  0  0  0  0  0  0  0  0
    0.7074   -6.5794    0.0000 C   0  0  0  0  0  0  0  0  0  0  0  0
    0.7074   -4.9168    0.0000 C   0  0  0  0  0  0  0  0  0  0  0  0
    0.0000   -5.3059    0.0000 C   0  0  0  0  0  0  0  0  0  0  0  0
  1  4  2  0  0  0  0
  1  5  2  0  0  0  0
  1 10  1  0  0  0  0
  1 13  1  0  0  0  0
  2 12  1  0  0  0  0
  2 15  1  0  0  0  0
  3 11  1  0  0  0  0
  3 14  1  0  0  0  0
  6 24  1  0  0  0  0
  6 25  1  0  0  0  0
  7 30  2  0  0  0  0
  8 30  1  0  0  0  0
  8 33  1  0  0  0  0
  9 34  1  0  0  0  0
  9 36  2  0  0  0  0
 10 11  1  0  0  0  0
 10 16  2  0  0  0  0
 11 12  2  0  0  0  0
 12 17  1  0  0  0  0
 13 19  2  0  0  0  0
 13 20  1  0  0  0  0
 14 15  2  0  0  0  0
 14 21  1  0  0  0  0
 15 22  1  0  0  0  0
 16 18  1  0  0  0  0
 17 18  2  0  0  0  0
 19 27  1  0  0  0  0
 20 28  2  0  0  0  0
 21 31  2  0  0  0  0
 22 32  2  0  0  0  0
 23 27  2  0  0  0  0
 23 28  1  0  0  0  0
 23 33  1  0  0  0  0
 24 29  2  0  0  0  0
 24 30  1  0  0  0  0
 25 26  1  0  0  0  0
 25 34  2  0  0  0  0
 26 29  1  0  0  0  0
 26 35  2  0  0  0  0
 31 32  1  0  0  0  0
 35 36  1  0  0  0  0
M  END
> <PUBCHEM_COMPOUND_ID_TYPE>
0

> <PUBCHEM_TOTAL_CHARGE>
0

> <PUBCHEM_SUBSTANCE_ID>
310930329

> <PUBCHEM_SUBSTANCE_VERSION>
1

> <PUBCHEM_EXT_DATASOURCE_NAME>
4488

> <PUBCHEM_EXT_DATASOURCE_REGID>
SCHEMBL16107613

> <PUBCHEM_SUBSTANCE_COMMENT>
InChI=1S/C27H18N2O5S2/c30-27(21-14-18-12-13-28-16-22(18)33-21)29-15-17-8-10-19(11-9-17)36(31,32)25-7-3-6-24-26(25)34-20-4-1-2-5-23(20)35-24/h1-14,16H,15H2,(H,29,30)
InChIKey=OECXIAYDMJRJQI-UHFFFAOYSA-N

> <PUBCHEM_SUBSTANCE_SYNONYM>
SCHEMBL16107613

> <PUBCHEM_XREF_EXT_ID>
SCHEMBL16107613

> <PUBCHEM_EXT_DATASOURCE_URL>
https://www.surechembl.org/

> <PUBCHEM_EXT_SUBSTANCE_URL>
https://www.surechembl.org/chemical/SCHEMBL16107613

> <PUBCHEM_CID_ASSOCIATIONS>
87074577  1

> <PUBCHEM_COORDINATE_TYPE>
1
3

$$$$
