310940238
  -OEChem-07211613022D

 12 12  0     0  0  0  0  0  0999 V2000
    0.0553    0.8250    0.0000 O   0  0  0  0  0  0  0  0  0  0  0  0
   -0.2467   -1.1270    0.0000 O   0  0  0  0  0  0  0  0  0  0  0  0
    1.1822   -1.1270    0.0000 O   0  0  0  0  0  0  0  0  0  0  0  0
   -1.1822    0.1105    0.0000 O   0  0  0  0  0  0  0  0  0  0  0  0
    0.4678    0.1105    0.0000 C   0  0  0  0  0  0  0  0  0  0  0  0
   -0.2467   -0.3020    0.0000 C   0  0  0  0  0  0  0  0  0  0  0  0
    1.1822   -0.3020    0.0000 C   0  0  0  0  0  0  0  0  0  0  0  0
    0.8803    0.8250    0.0000 C   0  0  0  0  0  0  0  0  0  0  0  0
   -0.7697    0.8250    0.0000 C   0  0  0  0  0  0  0  0  0  0  0  0
    0.4678   -1.5395    0.0000 C   0  0  0  0  0  0  0  0  0  0  0  0
    0.4678    1.5395    0.0000 C   0  0  0  0  0  0  0  0  0  0  0  0
   -1.1822    1.5395    0.0000 C   0  0  0  0  0  0  0  0  0  0  0  0
  1  5  1  0  0  0  0
  1  9  1  0  0  0  0
  2  6  1  0  0  0  0
  2 10  1  0  0  0  0
  3  7  1  0  0  0  0
  3 10  1  0  0  0  0
  4  9  1  0  0  0  0
  5  6  1  0  0  0  0
  5  7  1  0  0  0  0
  5  8  1  0  0  0  0
  8 11  1  0  0  0  0
  9 12  2  0  0  0  0
M  END
> <PUBCHEM_COMPOUND_ID_TYPE>
0

> <PUBCHEM_TOTAL_CHARGE>
0

> <PUBCHEM_SUBSTANCE_ID>
310940238

> <PUBCHEM_SUBSTANCE_VERSION>
1

> <PUBCHEM_EXT_DATASOURCE_NAME>
4488

> <PUBCHEM_EXT_DATASOURCE_REGID>
SCHEMBL16118172

> <PUBCHEM_SUBSTANCE_COMMENT>
InChI=1S/C8H14O4/c1-3-8(12-7(2)9)4-10-6-11-5-8/h9H,2-6H2,1H3
InChIKey=UGYYOCJWUICDJV-UHFFFAOYSA-N

> <PUBCHEM_SUBSTANCE_SYNONYM>
SCHEMBL16118172

> <PUBCHEM_XREF_EXT_ID>
SCHEMBL16118172

> <PUBCHEM_EXT_DATASOURCE_URL>
https://www.surechembl.org/

> <PUBCHEM_EXT_SUBSTANCE_URL>
https://www.surechembl.org/chemical/SCHEMBL16118172

> <PUBCHEM_CID_ASSOCIATIONS>
117607329  1

> <PUBCHEM_COORDINATE_TYPE>
1
3

$$$$
