310939241
  -OEChem-07211613022D

 29 30  0     1  0  0  0  0  0999 V2000
    0.3572    0.8250    0.0000 Cl  0  0  0  0  0  0  0  0  0  0  0  0
   -1.0717   -1.6500    0.0000 F   0  0  0  0  0  0  0  0  0  0  0  0
    0.3572   -0.8250    0.0000 O   0  0  0  0  0  0  0  0  0  0  0  0
    1.7862    1.6500    0.0000 O   0  0  0  0  0  0  0  0  0  0  0  0
   -1.7862    2.0625    0.0000 O   0  0  0  0  0  0  0  0  0  0  0  0
   -3.2151   -0.4125    0.0000 N   0  0  0  0  0  0  0  0  0  0  0  0
    3.9296    1.2375    0.0000 N   0  0  0  0  0  0  0  0  0  0  0  0
   -3.2151    2.0625    0.0000 N   0  0  0  0  0  0  0  0  0  0  0  0
   -0.3572   -0.4125    0.0000 C   0  0  0  0  0  0  0  0  0  0  0  0
   -1.0717   -0.8250    0.0000 C   0  0  0  0  0  0  0  0  0  0  0  0
   -1.7862   -0.4125    0.0000 C   0  0  0  0  0  0  0  0  0  0  0  0
   -0.3572    0.4125    0.0000 C   0  0  0  0  0  0  0  0  0  0  0  0
   -2.5006   -0.8250    0.0000 C   0  0  3  0  0  0  0  0  0  0  0  0
    1.0717   -0.4125    0.0000 C   0  0  0  0  0  0  0  0  0  0  0  0
   -1.7862    0.4125    0.0000 C   0  0  0  0  0  0  0  0  0  0  0  0
   -1.0717    0.8250    0.0000 C   0  0  0  0  0  0  0  0  0  0  0  0
    1.7862    0.8250    0.0000 C   0  0  0  0  0  0  0  0  0  0  0  0
    1.0717    0.4125    0.0000 C   0  0  0  0  0  0  0  0  0  0  0  0
    2.5006    0.4125    0.0000 C   0  0  0  0  0  0  0  0  0  0  0  0
    1.7862   -0.8250    0.0000 C   0  0  0  0  0  0  0  0  0  0  0  0
    2.5006   -0.4125    0.0000 C   0  0  0  0  0  0  0  0  0  0  0  0
   -2.5006   -1.6500    0.0000 C   0  0  0  0  0  0  0  0  0  0  0  0
   -3.2151    0.4125    0.0000 C   0  0  3  0  0  0  0  0  0  0  0  0
    3.2151    0.8250    0.0000 C   0  0  0  0  0  0  0  0  0  0  0  0
   -2.5006    0.8250    0.0000 C   0  0  0  0  0  0  0  0  0  0  0  0
   -3.2151   -2.0625    0.0000 C   0  0  0  0  0  0  0  0  0  0  0  0
   -3.9296    0.8250    0.0000 C   0  0  0  0  0  0  0  0  0  0  0  0
   -2.5006    1.6500    0.0000 C   0  0  0  0  0  0  0  0  0  0  0  0
    2.5006    2.0625    0.0000 C   0  0  0  0  0  0  0  0  0  0  0  0
  1 12  1  0  0  0  0
  2 10  1  0  0  0  0
  3  9  1  0  0  0  0
  3 14  1  0  0  0  0
  4 17  1  0  0  0  0
  4 29  1  0  0  0  0
  5 28  2  0  0  0  0
 13  6  1  1  0  0  0
  6 23  1  0  0  0  0
  7 24  3  0  0  0  0
  8 28  1  0  0  0  0
  9 10  1  0  0  0  0
  9 12  2  0  0  0  0
 10 11  2  0  0  0  0
 11 13  1  0  0  0  0
 11 15  1  0  0  0  0
 12 16  1  0  0  0  0
 13 22  1  0  0  0  0
 14 18  2  0  0  0  0
 14 20  1  0  0  0  0
 15 16  2  0  0  0  0
 17 18  1  0  0  0  0
 17 19  2  0  0  0  0
 19 21  1  0  0  0  0
 19 24  1  0  0  0  0
 20 21  2  0  0  0  0
 22 26  1  0  0  0  0
 23 25  1  0  0  0  0
 23 27  1  1  0  0  0
 25 28  1  0  0  0  0
M  END
> <PUBCHEM_COMPOUND_ID_TYPE>
0

> <PUBCHEM_TOTAL_CHARGE>
0

> <PUBCHEM_SUBSTANCE_ID>
310939241

> <PUBCHEM_SUBSTANCE_VERSION>
1

> <PUBCHEM_EXT_DATASOURCE_NAME>
4488

> <PUBCHEM_EXT_DATASOURCE_REGID>
SCHEMBL16117162

> <PUBCHEM_SUBSTANCE_COMMENT>
InChI=1S/C21H23ClFN3O3/c1-4-17(26-12(2)9-19(25)27)15-7-8-16(22)21(20(15)23)29-14-6-5-13(11-24)18(10-14)28-3/h5-8,10,12,17,26H,4,9H2,1-3H3,(H2,25,27)/t12-,17+/m0/s1
InChIKey=LEJLVMZJNPANSH-YVEFUNNKSA-N

> <PUBCHEM_SUBSTANCE_SYNONYM>
SCHEMBL16117162

> <PUBCHEM_XREF_EXT_ID>
SCHEMBL16117162

> <PUBCHEM_EXT_DATASOURCE_URL>
https://www.surechembl.org/

> <PUBCHEM_EXT_SUBSTANCE_URL>
https://www.surechembl.org/chemical/SCHEMBL16117162

> <PUBCHEM_CID_ASSOCIATIONS>
117606589  1

> <PUBCHEM_COORDINATE_TYPE>
1
3

> <PUBCHEM_BONDANNOTATIONS>
23  27  5
13  6  5

$$$$
