310942185
  -OEChem-07211613022D

 27 28  0     1  0  0  0  0  0999 V2000
    1.0812    0.8312    0.0000 Cl  0  0  0  0  0  0  0  0  0  0  0  0
    3.9685   -0.8312    0.0000 Cl  0  0  0  0  0  0  0  0  0  0  0  0
   -0.3687   -1.6561    0.0000 F   0  0  0  0  0  0  0  0  0  0  0  0
    1.0686   -0.8312    0.0000 O   0  0  0  0  0  0  0  0  0  0  0  0
   -2.5436    2.0811    0.0000 O   0  0  0  0  0  0  0  0  0  0  0  0
   -2.5186   -0.4062    0.0000 N   0  0  0  0  0  0  0  0  0  0  0  0
   -3.9685    2.0811    0.0000 N   0  0  0  0  0  0  0  0  0  0  0  0
    0.3562   -0.4062    0.0000 C   0  0  0  0  0  0  0  0  0  0  0  0
   -0.3687   -0.8187    0.0000 C   0  0  0  0  0  0  0  0  0  0  0  0
   -1.0812   -0.4062    0.0000 C   0  0  0  0  0  0  0  0  0  0  0  0
    0.3562    0.4312    0.0000 C   0  0  0  0  0  0  0  0  0  0  0  0
   -1.8061   -0.8187    0.0000 C   0  0  3  0  0  0  0  0  0  0  0  0
   -1.0686    0.4187    0.0000 C   0  0  0  0  0  0  0  0  0  0  0  0
    1.8061   -0.4062    0.0000 C   0  0  0  0  0  0  0  0  0  0  0  0
   -0.3562    0.8312    0.0000 C   0  0  0  0  0  0  0  0  0  0  0  0
    2.5186   -0.8187    0.0000 C   0  0  0  0  0  0  0  0  0  0  0  0
    3.2435   -0.4062    0.0000 C   0  0  0  0  0  0  0  0  0  0  0  0
    1.8187    0.4187    0.0000 C   0  0  0  0  0  0  0  0  0  0  0  0
    3.2435    0.4312    0.0000 C   0  0  0  0  0  0  0  0  0  0  0  0
   -1.8061   -1.6687    0.0000 C   0  0  0  0  0  0  0  0  0  0  0  0
    2.5311    0.8312    0.0000 C   0  0  0  0  0  0  0  0  0  0  0  0
   -2.5186    0.4187    0.0000 C   0  0  3  0  0  0  0  0  0  0  0  0
   -3.2435    0.8437    0.0000 C   0  0  0  0  0  0  0  0  0  0  0  0
    3.7810    0.7312    0.0000 C   0  0  0  0  0  0  0  0  0  0  0  0
   -2.5061   -2.0811    0.0000 C   0  0  0  0  0  0  0  0  0  0  0  0
   -1.8812    0.8187    0.0000 C   0  0  0  0  0  0  0  0  0  0  0  0
   -3.2560    1.6687    0.0000 C   0  0  0  0  0  0  0  0  0  0  0  0
  1 11  1  0  0  0  0
  2 17  1  0  0  0  0
  3  9  1  0  0  0  0
  4  8  1  0  0  0  0
  4 14  1  0  0  0  0
  5 27  2  0  0  0  0
 12  6  1  1  0  0  0
  6 22  1  0  0  0  0
  7 27  1  0  0  0  0
  8  9  1  0  0  0  0
  8 11  2  0  0  0  0
  9 10  2  0  0  0  0
 10 12  1  0  0  0  0
 10 13  1  0  0  0  0
 11 15  1  0  0  0  0
 12 20  1  0  0  0  0
 13 15  2  0  0  0  0
 14 16  1  0  0  0  0
 14 18  2  0  0  0  0
 16 17  2  0  0  0  0
 17 19  1  0  0  0  0
 18 21  1  0  0  0  0
 19 21  2  0  0  0  0
 19 24  1  0  0  0  0
 20 25  1  0  0  0  0
 22 23  1  0  0  0  0
 22 26  1  0  0  0  0
 23 27  1  0  0  0  0
M  END
> <PUBCHEM_COMPOUND_ID_TYPE>
0

> <PUBCHEM_TOTAL_CHARGE>
0

> <PUBCHEM_SUBSTANCE_ID>
310942185

> <PUBCHEM_SUBSTANCE_VERSION>
1

> <PUBCHEM_EXT_DATASOURCE_NAME>
4488

> <PUBCHEM_EXT_DATASOURCE_REGID>
SCHEMBL16120220

> <PUBCHEM_SUBSTANCE_COMMENT>
InChI=1S/C20H23Cl2FN2O2/c1-4-17(25-12(3)9-18(24)26)14-7-8-15(21)20(19(14)23)27-13-6-5-11(2)16(22)10-13/h5-8,10,12,17,25H,4,9H2,1-3H3,(H2,24,26)/t12?,17-/m1/s1
InChIKey=DOGDCXLKBIFYIE-RGUGMKFQSA-N

> <PUBCHEM_SUBSTANCE_SYNONYM>
SCHEMBL16120220

> <PUBCHEM_XREF_EXT_ID>
SCHEMBL16120220

> <PUBCHEM_EXT_DATASOURCE_URL>
https://www.surechembl.org/

> <PUBCHEM_EXT_SUBSTANCE_URL>
https://www.surechembl.org/chemical/SCHEMBL16120220

> <PUBCHEM_CID_ASSOCIATIONS>
117608836  1

> <PUBCHEM_COORDINATE_TYPE>
1
3

> <PUBCHEM_BONDANNOTATIONS>
22  26  3
12  6  5

$$$$
