310940627
  -OEChem-07211613022D

 10 10  0     0  0  0  0  0  0999 V2000
    1.2031   -0.7719    0.0000 O   0  0  0  0  0  0  0  0  0  0  0  0
    1.3144    0.7024    0.0000 O   0  0  0  0  0  0  0  0  0  0  0  0
    0.0626   -0.0765    0.0000 N   0  0  0  0  0  0  0  0  0  0  0  0
   -0.5216    0.5216    0.0000 C   0  0  0  0  0  0  0  0  0  0  0  0
    0.8693   -0.0487    0.0000 C   0  0  0  0  0  0  0  0  0  0  0  0
   -0.1183   -0.8971    0.0000 C   0  0  0  0  0  0  0  0  0  0  0  0
    0.5911   -1.3144    0.0000 C   0  0  0  0  0  0  0  0  0  0  0  0
   -1.3144    0.3129    0.0000 C   0  0  0  0  0  0  0  0  0  0  0  0
   -1.0779    1.1336    0.0000 C   0  0  0  0  0  0  0  0  0  0  0  0
   -0.2712    1.3144    0.0000 C   0  0  0  0  0  0  0  0  0  0  0  0
  1  5  1  0  0  0  0
  1  7  1  0  0  0  0
  2  5  2  0  0  0  0
  3  4  1  0  0  0  0
  3  5  1  0  0  0  0
  3  6  1  0  0  0  0
  4  8  1  0  0  0  0
  4  9  1  0  0  0  0
  4 10  1  0  0  0  0
  6  7  2  0  0  0  0
M  END
> <PUBCHEM_COMPOUND_ID_TYPE>
0

> <PUBCHEM_TOTAL_CHARGE>
0

> <PUBCHEM_SUBSTANCE_ID>
310940627

> <PUBCHEM_SUBSTANCE_VERSION>
1

> <PUBCHEM_EXT_DATASOURCE_NAME>
4488

> <PUBCHEM_EXT_DATASOURCE_REGID>
SCHEMBL16118582

> <PUBCHEM_SUBSTANCE_COMMENT>
InChI=1S/C7H11NO2/c1-7(2,3)8-4-5-10-6(8)9/h4-5H,1-3H3
InChIKey=OPEUCKDXJPJGJH-UHFFFAOYSA-N

> <PUBCHEM_SUBSTANCE_SYNONYM>
SCHEMBL16118582

> <PUBCHEM_XREF_EXT_ID>
SCHEMBL16118582

> <PUBCHEM_EXT_DATASOURCE_URL>
https://www.surechembl.org/

> <PUBCHEM_EXT_SUBSTANCE_URL>
https://www.surechembl.org/chemical/SCHEMBL16118582

> <PUBCHEM_CID_ASSOCIATIONS>
117607609  1

> <PUBCHEM_COORDINATE_TYPE>
1
3

$$$$
