310949696
  -OEChem-07211613022D

 27 28  0     0  0  0  0  0  0999 V2000
   -0.2129    2.0959    0.0000 F   0  0  0  0  0  0  0  0  0  0  0  0
    0.6255    2.0959    0.0000 F   0  0  0  0  0  0  0  0  0  0  0  0
    1.0380    1.4040    0.0000 F   0  0  0  0  0  0  0  0  0  0  0  0
   -0.2262    0.7119    0.0000 O   0  0  0  0  0  0  0  0  0  0  0  0
   -1.0380   -2.0959    0.0000 O   0  0  0  0  0  0  0  0  0  0  0  0
   -2.7280    0.7119    0.0000 O   0  0  0  0  0  0  0  0  0  0  0  0
   -1.4771    0.0066    0.0000 O   0  0  0  0  0  0  0  0  0  0  0  0
    3.9523    0.7253    0.0000 O   0  0  0  0  0  0  0  0  0  0  0  0
   -1.0513   -0.6987    0.0000 N   0  0  0  0  0  0  0  0  0  0  0  0
   -0.1996   -0.6853    0.0000 C   0  0  0  0  0  0  0  0  0  0  0  0
    0.1863    0.0066    0.0000 C   0  0  0  0  0  0  0  0  0  0  0  0
   -2.3021   -1.3906    0.0000 C   0  0  0  0  0  0  0  0  0  0  0  0
   -1.4771   -1.3906    0.0000 C   0  0  0  0  0  0  0  0  0  0  0  0
   -2.7147   -0.6987    0.0000 C   0  0  0  0  0  0  0  0  0  0  0  0
    1.0247   -0.0066    0.0000 C   0  0  0  0  0  0  0  0  0  0  0  0
    1.4372   -0.6987    0.0000 C   0  0  0  0  0  0  0  0  0  0  0  0
    0.1996   -1.3906    0.0000 C   0  0  0  0  0  0  0  0  0  0  0  0
    0.1996    1.4306    0.0000 C   0  0  0  0  0  0  0  0  0  0  0  0
    1.0380   -1.3906    0.0000 C   0  0  0  0  0  0  0  0  0  0  0  0
   -2.7147   -2.0826    0.0000 C   0  0  0  0  0  0  0  0  0  0  0  0
   -2.3155    0.0066    0.0000 C   0  0  0  0  0  0  0  0  0  0  0  0
   -3.5397   -0.7119    0.0000 C   0  0  0  0  0  0  0  0  0  0  0  0
   -3.5531   -2.0959    0.0000 C   0  0  0  0  0  0  0  0  0  0  0  0
    2.2889   -0.6987    0.0000 C   0  0  0  0  0  0  0  0  0  0  0  0
   -3.9523   -1.4306    0.0000 C   0  0  0  0  0  0  0  0  0  0  0  0
    2.7147    0.0200    0.0000 C   0  0  0  0  0  0  0  0  0  0  0  0
    3.5397    0.0200    0.0000 C   0  0  0  0  0  0  0  0  0  0  0  0
  1 18  1  0  0  0  0
  2 18  1  0  0  0  0
  3 18  1  0  0  0  0
  4 11  1  0  0  0  0
  4 18  1  0  0  0  0
  5 13  2  0  0  0  0
  6 21  2  0  0  0  0
  7 21  1  0  0  0  0
  8 27  1  0  0  0  0
  9 10  1  0  0  0  0
  9 13  1  0  0  0  0
 10 11  1  0  0  0  0
 10 17  2  0  0  0  0
 11 15  2  0  0  0  0
 12 13  1  0  0  0  0
 12 14  1  0  0  0  0
 12 20  2  0  0  0  0
 14 21  1  0  0  0  0
 14 22  2  0  0  0  0
 15 16  1  0  0  0  0
 16 19  2  0  0  0  0
 16 24  1  0  0  0  0
 17 19  1  0  0  0  0
 20 23  1  0  0  0  0
 22 25  1  0  0  0  0
 23 25  2  0  0  0  0
 24 26  1  0  0  0  0
 26 27  1  0  0  0  0
M  END
> <PUBCHEM_COMPOUND_ID_TYPE>
0

> <PUBCHEM_TOTAL_CHARGE>
0

> <PUBCHEM_SUBSTANCE_ID>
310949696

> <PUBCHEM_SUBSTANCE_VERSION>
1

> <PUBCHEM_EXT_DATASOURCE_NAME>
4488

> <PUBCHEM_EXT_DATASOURCE_REGID>
SCHEMBL16127894

> <PUBCHEM_SUBSTANCE_COMMENT>
InChI=1S/C18H16F3NO5/c19-18(20,21)27-15-10-11(4-3-9-23)7-8-14(15)22-16(24)12-5-1-2-6-13(12)17(25)26/h1-2,5-8,10,23H,3-4,9H2,(H,22,24)(H,25,26)
InChIKey=LWJPZKIXNFQRMC-UHFFFAOYSA-N

> <PUBCHEM_SUBSTANCE_SYNONYM>
SCHEMBL16127894

> <PUBCHEM_XREF_EXT_ID>
SCHEMBL16127894

> <PUBCHEM_EXT_DATASOURCE_URL>
https://www.surechembl.org/

> <PUBCHEM_EXT_SUBSTANCE_URL>
https://www.surechembl.org/chemical/SCHEMBL16127894

> <PUBCHEM_CID_ASSOCIATIONS>
85471535  1

> <PUBCHEM_COORDINATE_TYPE>
1
3

$$$$
