310941564
  -OEChem-07211613022D

 29 32  0     0  0  0  0  0  0999 V2000
    0.7470    1.9833    0.0000 S   0  0  0  0  0  0  0  0  0  0  0  0
   -1.6055   -0.6783    0.0000 O   0  0  0  0  0  0  0  0  0  0  0  0
   -0.1460   -0.6783    0.0000 O   0  0  0  0  0  0  0  0  0  0  0  0
   -3.7176   -1.9833    0.0000 O   0  5  0  0  0  0  0  0  0  0  0  0
   -2.3096   -1.9146    0.0000 O   0  0  0  0  0  0  0  0  0  0  0  0
    3.6661    1.0045    0.0000 O   0  0  0  0  0  0  0  0  0  0  0  0
    0.6095    0.6439    0.0000 N   0  0  0  0  0  0  0  0  0  0  0  0
   -3.0307   -1.5196    0.0000 N   0  3  0  0  0  0  0  0  0  0  0  0
    2.0005    1.1763    0.0000 N   0  0  0  0  0  0  0  0  0  0  0  0
   -4.4903   -0.6783    0.0000 N   0  0  0  0  0  0  0  0  0  0  0  0
   -2.3267   -0.2490    0.0000 C   0  0  0  0  0  0  0  0  0  0  0  0
   -2.3096    0.5753    0.0000 C   0  0  0  0  0  0  0  0  0  0  0  0
   -0.8672    0.5753    0.0000 C   0  0  0  0  0  0  0  0  0  0  0  0
   -3.0307   -0.6783    0.0000 C   0  0  0  0  0  0  0  0  0  0  0  0
   -0.9015   -0.2490    0.0000 C   0  0  0  0  0  0  0  0  0  0  0  0
   -0.1631    0.9873    0.0000 C   0  0  0  0  0  0  0  0  0  0  0  0
   -1.6055    0.9873    0.0000 C   0  0  0  0  0  0  0  0  0  0  0  0
   -3.7863   -0.2662    0.0000 C   0  0  0  0  0  0  0  0  0  0  0  0
   -3.0135    0.9702    0.0000 C   0  0  0  0  0  0  0  0  0  0  0  0
    1.1591    1.2793    0.0000 C   0  0  0  0  0  0  0  0  0  0  0  0
   -3.7520    0.5753    0.0000 C   0  0  0  0  0  0  0  0  0  0  0  0
   -0.0429    1.8287    0.0000 C   0  0  0  0  0  0  0  0  0  0  0  0
    2.3439    0.4379    0.0000 C   0  0  0  0  0  0  0  0  0  0  0  0
    3.1510    0.3348    0.0000 C   0  0  0  0  0  0  0  0  0  0  0  0
    1.8631   -0.2490    0.0000 C   0  0  0  0  0  0  0  0  0  0  0  0
    3.4944   -0.4207    0.0000 C   0  0  0  0  0  0  0  0  0  0  0  0
    2.2065   -1.0217    0.0000 C   0  0  0  0  0  0  0  0  0  0  0  0
    3.0135   -1.0904    0.0000 C   0  0  0  0  0  0  0  0  0  0  0  0
    4.4903    0.9015    0.0000 C   0  0  0  0  0  0  0  0  0  0  0  0
  1 20  1  0  0  0  0
  1 22  1  0  0  0  0
  2 11  1  0  0  0  0
  2 15  1  0  0  0  0
  3 15  2  0  0  0  0
  4  8  1  0  0  0  0
  5  8  2  0  0  0  0
  6 24  1  0  0  0  0
  6 29  1  0  0  0  0
  7 16  1  0  0  0  0
  7 20  2  0  0  0  0
  8 14  1  0  0  0  0
  9 20  1  0  0  0  0
  9 23  1  0  0  0  0
 10 18  1  0  0  0  0
 11 12  1  0  0  0  0
 11 14  2  0  0  0  0
 12 17  1  0  0  0  0
 12 19  2  0  0  0  0
 13 15  1  0  0  0  0
 13 16  1  0  0  0  0
 13 17  2  0  0  0  0
 14 18  1  0  0  0  0
 16 22  2  0  0  0  0
 18 21  2  0  0  0  0
 19 21  1  0  0  0  0
 23 24  1  0  0  0  0
 23 25  2  0  0  0  0
 24 26  2  0  0  0  0
 25 27  1  0  0  0  0
 26 28  1  0  0  0  0
 27 28  2  0  0  0  0
M  CHG  2   4  -1   8   1
M  END
> <PUBCHEM_COMPOUND_ID_TYPE>
0

> <PUBCHEM_TOTAL_CHARGE>
0

> <PUBCHEM_SUBSTANCE_ID>
310941564

> <PUBCHEM_SUBSTANCE_VERSION>
1

> <PUBCHEM_EXT_DATASOURCE_NAME>
4488

> <PUBCHEM_EXT_DATASOURCE_REGID>
SCHEMBL16119595

> <PUBCHEM_SUBSTANCE_COMMENT>
InChI=1S/C19H14N4O5S/c1-27-15-5-3-2-4-13(15)21-19-22-14(9-29-19)11-8-10-6-7-12(20)16(23(25)26)17(10)28-18(11)24/h2-9H,20H2,1H3,(H,21,22)
InChIKey=INTLDJYXFJKOKR-UHFFFAOYSA-N

> <PUBCHEM_SUBSTANCE_SYNONYM>
SCHEMBL16119595

> <PUBCHEM_XREF_EXT_ID>
SCHEMBL16119595

> <PUBCHEM_EXT_DATASOURCE_URL>
https://www.surechembl.org/

> <PUBCHEM_EXT_SUBSTANCE_URL>
https://www.surechembl.org/chemical/SCHEMBL16119595

> <PUBCHEM_CID_ASSOCIATIONS>
117608368  1

> <PUBCHEM_COORDINATE_TYPE>
1
3

$$$$
