310938042
  -OEChem-07211613022D

 34 38  0     0  0  0  0  0  0999 V2000
    2.0629   -3.1195    0.0000 F   0  0  0  0  0  0  0  0  0  0  0  0
    2.3296   -1.9836    0.0000 F   0  0  0  0  0  0  0  0  0  0  0  0
    0.9271   -2.8528    0.0000 F   0  0  0  0  0  0  0  0  0  0  0  0
    2.8429   -1.6655    0.0000 O   0  0  0  0  0  0  0  0  0  0  0  0
   -3.8431    0.9849    0.0000 O   0  0  0  0  0  0  0  0  0  0  0  0
    1.5837   -0.9900    0.0000 N   0  0  0  0  0  0  0  0  0  0  0  0
    2.8963    1.0941    0.0000 N   0  0  0  0  0  0  0  0  0  0  0  0
    0.2799    1.1137    0.0000 N   0  0  0  0  0  0  0  0  0  0  0  0
    3.6601    0.7822    0.0000 N   0  0  0  0  0  0  0  0  0  0  0  0
   -3.7985   -0.4433    0.0000 N   0  0  0  0  0  0  0  0  0  0  0  0
    1.1491   -0.2887    0.0000 C   0  0  0  0  0  0  0  0  0  0  0  0
    1.5391    0.4383    0.0000 C   0  0  0  0  0  0  0  0  0  0  0  0
    2.3637    0.4640    0.0000 C   0  0  0  0  0  0  0  0  0  0  0  0
    2.7983   -0.2372    0.0000 C   0  0  0  0  0  0  0  0  0  0  0  0
    2.4083   -0.9642    0.0000 C   0  0  0  0  0  0  0  0  0  0  0  0
    0.3245   -0.3145    0.0000 C   0  0  0  0  0  0  0  0  0  0  0  0
   -0.1101    0.3867    0.0000 C   0  0  0  0  0  0  0  0  0  0  0  0
    1.1045    1.1395    0.0000 C   0  0  0  0  0  0  0  0  0  0  0  0
    3.5995   -0.0406    0.0000 C   0  0  0  0  0  0  0  0  0  0  0  0
    1.1937   -1.7170    0.0000 C   0  0  0  0  0  0  0  0  0  0  0  0
   -0.9347    0.3610    0.0000 C   0  0  0  0  0  0  0  0  0  0  0  0
    1.6283   -2.4182    0.0000 C   0  0  0  0  0  0  0  0  0  0  0  0
   -1.3247   -0.3660    0.0000 C   0  0  0  0  0  0  0  0  0  0  0  0
   -1.3693    1.0622    0.0000 C   0  0  0  0  0  0  0  0  0  0  0  0
   -2.5839    0.3094    0.0000 C   0  0  0  0  0  0  0  0  0  0  0  0
   -2.1493   -0.3918    0.0000 C   0  0  0  0  0  0  0  0  0  0  0  0
   -2.1939    1.0365    0.0000 C   0  0  0  0  0  0  0  0  0  0  0  0
   -3.4085    0.2837    0.0000 C   0  0  0  0  0  0  0  0  0  0  0  0
   -4.6231   -0.4691    0.0000 C   0  0  0  0  0  0  0  0  0  0  0  0
   -5.0131   -1.1961    0.0000 C   0  0  0  0  0  0  0  0  0  0  0  0
   -5.0577    0.2322    0.0000 C   0  0  0  0  0  0  0  0  0  0  0  0
   -5.8377   -1.2218    0.0000 C   0  0  0  0  0  0  0  0  0  0  0  0
   -5.8823    0.2064    0.0000 C   0  0  0  0  0  0  0  0  0  0  0  0
   -6.2723   -0.5206    0.0000 C   0  0  0  0  0  0  0  0  0  0  0  0
  1 22  1  0  0  0  0
  2 22  1  0  0  0  0
  3 22  1  0  0  0  0
  4 15  2  0  0  0  0
  5 28  2  0  0  0  0
  6 11  1  0  0  0  0
  6 15  1  0  0  0  0
  6 20  1  0  0  0  0
  7  9  1  0  0  0  0
  7 13  1  0  0  0  0
  8 17  1  0  0  0  0
  8 18  2  0  0  0  0
  9 19  2  0  0  0  0
 10 28  1  0  0  0  0
 10 29  1  0  0  0  0
 11 12  2  0  0  0  0
 11 16  1  0  0  0  0
 12 13  1  0  0  0  0
 12 18  1  0  0  0  0
 13 14  2  0  0  0  0
 14 15  1  0  0  0  0
 14 19  1  0  0  0  0
 16 17  2  0  0  0  0
 17 21  1  0  0  0  0
 20 22  1  0  0  0  0
 21 23  2  0  0  0  0
 21 24  1  0  0  0  0
 23 26  1  0  0  0  0
 24 27  2  0  0  0  0
 25 26  2  0  0  0  0
 25 27  1  0  0  0  0
 25 28  1  0  0  0  0
 29 30  2  0  0  0  0
 29 31  1  0  0  0  0
 30 32  1  0  0  0  0
 31 33  2  0  0  0  0
 32 34  2  0  0  0  0
 33 34  1  0  0  0  0
M  END
> <PUBCHEM_COMPOUND_ID_TYPE>
0

> <PUBCHEM_TOTAL_CHARGE>
0

> <PUBCHEM_SUBSTANCE_ID>
310938042

> <PUBCHEM_SUBSTANCE_VERSION>
1

> <PUBCHEM_EXT_DATASOURCE_NAME>
4488

> <PUBCHEM_EXT_DATASOURCE_REGID>
SCHEMBL16115883

> <PUBCHEM_SUBSTANCE_COMMENT>
InChI=1S/C24H16F3N5O2/c25-24(26,27)13-32-20-10-19(28-11-17(20)21-18(23(32)34)12-29-31-21)14-6-8-15(9-7-14)22(33)30-16-4-2-1-3-5-16/h1-12H,13H2,(H,29,31)(H,30,33)
InChIKey=MPGYEVXPBIKEQX-UHFFFAOYSA-N

> <PUBCHEM_SUBSTANCE_SYNONYM>
SCHEMBL16115883

> <PUBCHEM_XREF_EXT_ID>
SCHEMBL16115883

> <PUBCHEM_EXT_DATASOURCE_URL>
https://www.surechembl.org/

> <PUBCHEM_EXT_SUBSTANCE_URL>
https://www.surechembl.org/chemical/SCHEMBL16115883

> <PUBCHEM_CID_ASSOCIATIONS>
86298886  1

> <PUBCHEM_COORDINATE_TYPE>
1
3

$$$$
