310948985
  -OEChem-07211613022D

 21 22  0     0  0  0  0  0  0999 V2000
   -2.8663   -1.8696    0.0000 Br  0  0  0  0  0  0  0  0  0  0  0  0
    0.3231   -1.8696    0.0000 F   0  0  0  0  0  0  0  0  0  0  0  0
   -2.6188   -0.1512    0.0000 F   0  0  0  0  0  0  0  0  0  0  0  0
    2.4814    1.0723    0.0000 O   0  0  0  0  0  0  0  0  0  0  0  0
    2.4814   -1.4572    0.0000 O   0  0  0  0  0  0  0  0  0  0  0  0
    1.0104   -0.6324    0.0000 N   0  0  0  0  0  0  0  0  0  0  0  0
    0.3093    0.6736    0.0000 N   0  0  0  0  0  0  0  0  0  0  0  0
    1.0104    1.8971    0.0000 N   0  0  0  0  0  0  0  0  0  0  0  0
    0.2818   -0.1925    0.0000 C   0  0  0  0  0  0  0  0  0  0  0  0
   -0.4606   -0.6598    0.0000 C   0  0  0  0  0  0  0  0  0  0  0  0
    1.6978   -0.1787    0.0000 C   0  0  0  0  0  0  0  0  0  0  0  0
    1.7116    0.6461    0.0000 C   0  0  0  0  0  0  0  0  0  0  0  0
    0.9966    1.0448    0.0000 C   0  0  0  0  0  0  0  0  0  0  0  0
   -0.4743   -1.4709    0.0000 C   0  0  0  0  0  0  0  0  0  0  0  0
   -1.1891   -0.2062    0.0000 C   0  0  0  0  0  0  0  0  0  0  0  0
   -1.9452   -0.6598    0.0000 C   0  0  0  0  0  0  0  0  0  0  0  0
   -1.9590   -1.4847    0.0000 C   0  0  0  0  0  0  0  0  0  0  0  0
   -1.1754   -1.8971    0.0000 C   0  0  0  0  0  0  0  0  0  0  0  0
    2.4676   -0.6324    0.0000 C   0  0  0  0  0  0  0  0  0  0  0  0
    2.8388   -0.4124    0.0000 C   0  0  0  0  0  0  0  0  0  0  0  0
    2.8663    0.7974    0.0000 C   0  0  0  0  0  0  0  0  0  0  0  0
  1 17  1  0  0  0  0
  2 14  1  0  0  0  0
  3 16  1  0  0  0  0
  4 12  1  0  0  0  0
  4 21  1  0  0  0  0
  5 19  2  0  0  0  0
  6  9  1  0  0  0  0
  6 11  2  0  0  0  0
  7  9  2  0  0  0  0
  7 13  1  0  0  0  0
  8 13  1  0  0  0  0
  9 10  1  0  0  0  0
 10 14  1  0  0  0  0
 10 15  2  0  0  0  0
 11 12  1  0  0  0  0
 11 19  1  0  0  0  0
 12 13  2  0  0  0  0
 14 18  2  0  0  0  0
 15 16  1  0  0  0  0
 16 17  2  0  0  0  0
 17 18  1  0  0  0  0
 19 20  1  0  0  0  0
M  END
> <PUBCHEM_COMPOUND_ID_TYPE>
0

> <PUBCHEM_TOTAL_CHARGE>
0

> <PUBCHEM_SUBSTANCE_ID>
310948985

> <PUBCHEM_SUBSTANCE_VERSION>
1

> <PUBCHEM_EXT_DATASOURCE_NAME>
4488

> <PUBCHEM_EXT_DATASOURCE_REGID>
SCHEMBL16127173

> <PUBCHEM_SUBSTANCE_COMMENT>
InChI=1S/C13H10BrF2N3O2/c1-5(20)10-11(21-2)12(17)19-13(18-10)6-3-9(16)7(14)4-8(6)15/h3-4H,1-2H3,(H2,17,18,19)
InChIKey=ORRSRXPFUXGCND-UHFFFAOYSA-N

> <PUBCHEM_SUBSTANCE_SYNONYM>
SCHEMBL16127173

> <PUBCHEM_XREF_EXT_ID>
SCHEMBL16127173

> <PUBCHEM_EXT_DATASOURCE_URL>
https://www.surechembl.org/

> <PUBCHEM_EXT_SUBSTANCE_URL>
https://www.surechembl.org/chemical/SCHEMBL16127173

> <PUBCHEM_CID_ASSOCIATIONS>
117614494  1

> <PUBCHEM_COORDINATE_TYPE>
1
3

$$$$
