310944061
  -OEChem-07211613022D

 10 10  0     0  0  0  0  0  0999 V2000
    0.3419    1.6282    0.0000 Br  0  0  0  0  0  0  0  0  0  0  0  0
    1.0583    0.4233    0.0000 N   0  0  0  0  0  0  0  0  0  0  0  0
    1.0800   -0.3908    0.0000 N   0  0  0  0  0  0  0  0  0  0  0  0
    0.3962   -1.6282    0.0000 N   0  0  0  0  0  0  0  0  0  0  0  0
   -0.3528    0.4016    0.0000 C   0  0  0  0  0  0  0  0  0  0  0  0
   -0.3419   -0.4233    0.0000 C   0  0  0  0  0  0  0  0  0  0  0  0
    0.3310    0.8249    0.0000 C   0  0  0  0  0  0  0  0  0  0  0  0
    0.3853   -0.8141    0.0000 C   0  0  0  0  0  0  0  0  0  0  0  0
   -1.0800    0.8141    0.0000 C   0  0  0  0  0  0  0  0  0  0  0  0
   -1.0583   -0.8249    0.0000 C   0  0  0  0  0  0  0  0  0  0  0  0
  1  7  1  0  0  0  0
  2  3  2  0  0  0  0
  2  7  1  0  0  0  0
  3  8  1  0  0  0  0
  4  8  1  0  0  0  0
  5  6  1  0  0  0  0
  5  7  2  0  0  0  0
  5  9  1  0  0  0  0
  6  8  2  0  0  0  0
  6 10  1  0  0  0  0
M  END
> <PUBCHEM_COMPOUND_ID_TYPE>
0

> <PUBCHEM_TOTAL_CHARGE>
0

> <PUBCHEM_SUBSTANCE_ID>
310944061

> <PUBCHEM_SUBSTANCE_VERSION>
1

> <PUBCHEM_EXT_DATASOURCE_NAME>
4488

> <PUBCHEM_EXT_DATASOURCE_REGID>
SCHEMBL16122136

> <PUBCHEM_SUBSTANCE_COMMENT>
InChI=1S/C6H8BrN3/c1-3-4(2)6(8)10-9-5(3)7/h1-2H3,(H2,8,10)
InChIKey=NLEZALKDGTXOLU-UHFFFAOYSA-N

> <PUBCHEM_SUBSTANCE_SYNONYM>
SCHEMBL16122136

> <PUBCHEM_XREF_EXT_ID>
SCHEMBL16122136

> <PUBCHEM_EXT_DATASOURCE_URL>
https://www.surechembl.org/

> <PUBCHEM_EXT_SUBSTANCE_URL>
https://www.surechembl.org/chemical/SCHEMBL16122136

> <PUBCHEM_CID_ASSOCIATIONS>
117610357  1

> <PUBCHEM_COORDINATE_TYPE>
1
3

$$$$
