310946419
  -OEChem-07211613022D

 16 15  0     0  0  0  0  0  0999 V2000
    1.3885   -8.2822    0.0000 O   0  0  0  0  0  0  0  0  0  0  0  0
    2.1030   -9.5197    0.0000 O   0  5  0  0  0  0  0  0  0  0  0  0
    2.8174   -8.2822    0.0000 O   0  0  0  0  0  0  0  0  0  0  0  0
    2.1030   -8.6947    0.0000 N   0  3  0  0  0  0  0  0  0  0  0  0
   -2.1839   -7.0447    0.0000 C   0  0  0  0  0  0  0  0  0  0  0  0
   -1.4694   -7.4572    0.0000 C   0  0  0  0  0  0  0  0  0  0  0  0
   -3.0089   -7.0447    0.0000 C   0  0  0  0  0  0  0  0  0  0  0  0
   -1.7714   -6.3303    0.0000 C   0  0  0  0  0  0  0  0  0  0  0  0
   -0.7549   -7.0447    0.0000 C   0  0  0  0  0  0  0  0  0  0  0  0
   -0.0405   -7.4572    0.0000 C   0  0  0  0  0  0  0  0  0  0  0  0
    1.3885   -7.4572    0.0000 C   0  0  0  0  0  0  0  0  0  0  0  0
    0.6740   -7.0447    0.0000 C   0  0  0  0  0  0  0  0  0  0  0  0
   -3.4214   -7.7592    0.0000 C   0  0  0  0  0  0  0  0  0  0  0  0
   -0.9464   -6.3303    0.0000 C   0  0  0  0  0  0  0  0  0  0  0  0
   -4.2464   -7.7592    0.0000 C   0  0  0  0  0  0  0  0  0  0  0  0
   -0.5339   -5.6158    0.0000 C   0  0  0  0  0  0  0  0  0  0  0  0
  1  4  1  0  0  0  0
  1 11  1  0  0  0  0
  2  4  1  0  0  0  0
  3  4  2  0  0  0  0
  5  6  1  0  0  0  0
  5  7  1  0  0  0  0
  5  8  1  0  0  0  0
  6  9  1  0  0  0  0
  7 13  1  0  0  0  0
  8 14  1  0  0  0  0
  9 10  1  0  0  0  0
 10 12  1  0  0  0  0
 11 12  1  0  0  0  0
 13 15  1  0  0  0  0
 14 16  1  0  0  0  0
M  CHG  2   2  -1   4   1
M  END
> <PUBCHEM_COMPOUND_ID_TYPE>
0

> <PUBCHEM_TOTAL_CHARGE>
0

> <PUBCHEM_SUBSTANCE_ID>
310946419

> <PUBCHEM_SUBSTANCE_VERSION>
1

> <PUBCHEM_EXT_DATASOURCE_NAME>
4488

> <PUBCHEM_EXT_DATASOURCE_REGID>
SCHEMBL16124540

> <PUBCHEM_SUBSTANCE_COMMENT>
InChI=1S/C12H25NO3/c1-3-8-12(9-4-2)10-6-5-7-11-16-13(14)15/h12H,3-11H2,1-2H3
InChIKey=YFINUARFGPFCSJ-UHFFFAOYSA-N

> <PUBCHEM_SUBSTANCE_SYNONYM>
SCHEMBL16124540

> <PUBCHEM_XREF_EXT_ID>
SCHEMBL16124540

> <PUBCHEM_EXT_DATASOURCE_URL>
https://www.surechembl.org/

> <PUBCHEM_EXT_SUBSTANCE_URL>
https://www.surechembl.org/chemical/SCHEMBL16124540

> <PUBCHEM_CID_ASSOCIATIONS>
117612332  1

> <PUBCHEM_COORDINATE_TYPE>
1
3

$$$$
