310946916
  -OEChem-07211613022D

 37 41  0     0  0  0  0  0  0999 V2000
   -0.0512    1.6880    0.0000 S   0  0  0  0  0  0  0  0  0  0  0  0
    2.9497   -2.3699    0.0000 O   0  0  0  0  0  0  0  0  0  0  0  0
    0.6821    2.0972    0.0000 O   0  0  0  0  0  0  0  0  0  0  0  0
   -0.7672    1.2787    0.0000 O   0  0  0  0  0  0  0  0  0  0  0  0
    0.2046   -2.7962    0.0000 N   0  0  0  0  0  0  0  0  0  0  0  0
    0.3751   -1.9778    0.0000 N   0  0  0  0  0  0  0  0  0  0  0  0
    1.6198   -1.1765    0.0000 N   0  0  0  0  0  0  0  0  0  0  0  0
    2.5064   -3.7339    0.0000 N   0  0  0  0  0  0  0  0  0  0  0  0
   -1.5345   -4.4842    0.0000 N   0  0  0  0  0  0  0  0  0  0  0  0
   -0.4604    2.4210    0.0000 N   0  0  0  0  0  0  0  0  0  0  0  0
   -1.7902   -1.3640    0.0000 N   0  0  0  0  0  0  0  0  0  0  0  0
    0.9207   -3.2225    0.0000 C   0  0  0  0  0  0  0  0  0  0  0  0
   -0.5627   -3.1372    0.0000 C   0  0  0  0  0  0  0  0  0  0  0  0
    1.5345   -2.6428    0.0000 C   0  0  0  0  0  0  0  0  0  0  0  0
    1.2105   -1.9096    0.0000 C   0  0  0  0  0  0  0  0  0  0  0  0
    2.3188   -2.9326    0.0000 C   0  0  0  0  0  0  0  0  0  0  0  0
    1.1082   -4.0238    0.0000 C   0  0  0  0  0  0  0  0  0  0  0  0
   -0.2217   -3.8873    0.0000 C   0  0  0  0  0  0  0  0  0  0  0  0
   -1.3811   -3.0519    0.0000 C   0  0  0  0  0  0  0  0  0  0  0  0
   -0.4604   -2.3188    0.0000 C   0  0  0  0  0  0  0  0  0  0  0  0
    1.8926   -4.2796    0.0000 C   0  0  0  0  0  0  0  0  0  0  0  0
    1.2105   -0.4604    0.0000 C   0  0  0  0  0  0  0  0  0  0  0  0
   -0.6991   -4.5694    0.0000 C   0  0  0  0  0  0  0  0  0  0  0  0
   -1.8756   -3.7169    0.0000 C   0  0  0  0  0  0  0  0  0  0  0  0
    0.3581    0.9718    0.0000 C   0  0  0  0  0  0  0  0  0  0  0  0
   -1.1423   -1.8244    0.0000 C   0  0  0  0  0  0  0  0  0  0  0  0
    0.3751   -0.4433    0.0000 C   0  0  0  0  0  0  0  0  0  0  0  0
    1.6027    0.2728    0.0000 C   0  0  0  0  0  0  0  0  0  0  0  0
   -0.0341    0.2387    0.0000 C   0  0  0  0  0  0  0  0  0  0  0  0
    1.2105    0.9548    0.0000 C   0  0  0  0  0  0  0  0  0  0  0  0
   -1.2958    2.4210    0.0000 C   0  0  0  0  0  0  0  0  0  0  0  0
   -1.7050    3.1372    0.0000 C   0  0  0  0  0  0  0  0  0  0  0  0
   -1.2958    3.8533    0.0000 C   0  0  0  0  0  0  0  0  0  0  0  0
   -2.5404    3.1543    0.0000 C   0  0  0  0  0  0  0  0  0  0  0  0
   -1.7050    4.5694    0.0000 C   0  0  0  0  0  0  0  0  0  0  0  0
   -2.9497    3.8363    0.0000 C   0  0  0  0  0  0  0  0  0  0  0  0
   -2.5404    4.5524    0.0000 C   0  0  0  0  0  0  0  0  0  0  0  0
  1  3  2  0  0  0  0
  1  4  2  0  0  0  0
  1 10  1  0  0  0  0
  1 25  1  0  0  0  0
  2 16  2  0  0  0  0
  5  6  1  0  0  0  0
  5 12  1  0  0  0  0
  5 13  1  0  0  0  0
  6 15  2  0  0  0  0
  7 15  1  0  0  0  0
  7 22  1  0  0  0  0
  8 16  1  0  0  0  0
  8 21  1  0  0  0  0
  9 23  1  0  0  0  0
  9 24  1  0  0  0  0
 10 31  1  0  0  0  0
 11 26  3  0  0  0  0
 12 14  2  0  0  0  0
 12 17  1  0  0  0  0
 13 18  1  0  0  0  0
 13 19  1  0  0  0  0
 13 20  1  0  0  0  0
 14 15  1  0  0  0  0
 14 16  1  0  0  0  0
 17 21  2  0  0  0  0
 18 23  1  0  0  0  0
 19 24  1  0  0  0  0
 20 26  1  0  0  0  0
 22 27  2  0  0  0  0
 22 28  1  0  0  0  0
 25 29  2  0  0  0  0
 25 30  1  0  0  0  0
 27 29  1  0  0  0  0
 28 30  2  0  0  0  0
 31 32  1  0  0  0  0
 32 33  2  0  0  0  0
 32 34  1  0  0  0  0
 33 35  1  0  0  0  0
 34 36  2  0  0  0  0
 35 37  2  0  0  0  0
 36 37  1  0  0  0  0
M  END
> <PUBCHEM_COMPOUND_ID_TYPE>
0

> <PUBCHEM_TOTAL_CHARGE>
0

> <PUBCHEM_SUBSTANCE_ID>
310946916

> <PUBCHEM_SUBSTANCE_VERSION>
1

> <PUBCHEM_EXT_DATASOURCE_NAME>
4488

> <PUBCHEM_EXT_DATASOURCE_REGID>
SCHEMBL16125040

> <PUBCHEM_SUBSTANCE_COMMENT>
InChI=1S/C26H27N7O3S/c27-14-11-26(12-16-28-17-13-26)33-22-10-15-29-25(34)23(22)24(32-33)31-20-6-8-21(9-7-20)37(35,36)30-18-19-4-2-1-3-5-19/h1-10,15,28,30H,11-13,16-18H2,(H,29,34)(H,31,32)
InChIKey=RHBCYVCLLKDIGR-UHFFFAOYSA-N

> <PUBCHEM_SUBSTANCE_SYNONYM>
SCHEMBL16125040

> <PUBCHEM_XREF_EXT_ID>
SCHEMBL16125040

> <PUBCHEM_EXT_DATASOURCE_URL>
https://www.surechembl.org/

> <PUBCHEM_EXT_SUBSTANCE_URL>
https://www.surechembl.org/chemical/SCHEMBL16125040

> <PUBCHEM_CID_ASSOCIATIONS>
117612773  1

> <PUBCHEM_COORDINATE_TYPE>
1
3

$$$$
