310942974
  -OEChem-07211613022D

 30 33  0     1  0  0  0  0  0999 V2000
   -1.4168   -0.4400    0.0000 O   0  0  0  0  0  0  0  0  0  0  0  0
   -0.0088    4.0130    0.0000 O   0  0  0  0  0  0  0  0  0  0  0  0
   -1.8921   -2.8161    0.0000 O   0  0  0  0  0  0  0  0  0  0  0  0
    0.6248   -3.1681    0.0000 O   0  0  0  0  0  0  0  0  0  0  0  0
    0.0440    1.9185    0.0000 N   0  0  0  0  0  0  0  0  0  0  0  0
    0.5544    1.2673    0.0000 N   0  0  0  0  0  0  0  0  0  0  0  0
    0.3432   -0.2112    0.0000 N   0  0  0  0  0  0  0  0  0  0  0  0
   -2.1737    0.7920    0.0000 N   0  0  0  0  0  0  0  0  0  0  0  0
    2.1737    1.6721    0.0000 N   0  0  0  0  0  0  0  0  0  0  0  0
   -0.6424   -3.7138    0.0000 N   0  0  0  0  0  0  0  0  0  0  0  0
   -0.7304    0.8273    0.0000 C   0  0  0  0  0  0  0  0  0  0  0  0
   -0.7304    1.6545    0.0000 C   0  0  0  0  0  0  0  0  0  0  0  0
    0.0616    0.5808    0.0000 C   0  0  0  0  0  0  0  0  0  0  0  0
    0.3256    2.7985    0.0000 C   0  0  3  0  0  0  0  0  0  0  0  0
   -1.4521    0.4048    0.0000 C   0  0  0  0  0  0  0  0  0  0  0  0
   -1.4697    2.0593    0.0000 C   0  0  0  0  0  0  0  0  0  0  0  0
    1.0297    2.8865    0.0000 C   0  0  3  0  0  0  0  0  0  0  0  0
   -0.2200   -0.8624    0.0000 C   0  0  0  0  0  0  0  0  0  0  0  0
   -2.1561    1.6368    0.0000 C   0  0  0  0  0  0  0  0  0  0  0  0
   -0.2200    3.2738    0.0000 C   0  0  0  0  0  0  0  0  0  0  0  0
   -0.5016   -2.2705    0.0000 C   0  0  0  0  0  0  0  0  0  0  0  0
    0.0440   -1.6368    0.0000 C   0  0  0  0  0  0  0  0  0  0  0  0
    1.2584    3.6258    0.0000 C   0  0  0  0  0  0  0  0  0  0  0  0
   -1.0297   -0.7040    0.0000 C   0  0  0  0  0  0  0  0  0  0  0  0
   -1.3113   -2.0945    0.0000 C   0  0  0  0  0  0  0  0  0  0  0  0
    1.5928    2.2881    0.0000 C   0  0  0  0  0  0  0  0  0  0  0  0
   -1.5753   -1.3377    0.0000 C   0  0  0  0  0  0  0  0  0  0  0  0
    0.7480    4.1890    0.0000 C   0  0  0  0  0  0  0  0  0  0  0  0
   -0.2376   -3.0273    0.0000 C   0  0  0  0  0  0  0  0  0  0  0  0
    0.9768   -4.1890    0.0000 C   0  0  0  0  0  0  0  0  0  0  0  0
  1 15  2  0  0  0  0
  2 20  1  0  0  0  0
  2 28  1  0  0  0  0
  3 25  1  0  0  0  0
  4 29  1  0  0  0  0
  4 30  1  0  0  0  0
  5  6  1  0  0  0  0
  5 12  1  0  0  0  0
  5 14  1  0  0  0  0
  6 13  2  0  0  0  0
  7 13  1  0  0  0  0
  7 18  1  0  0  0  0
  8 15  1  0  0  0  0
  8 19  1  0  0  0  0
  9 26  3  0  0  0  0
 10 29  2  3  0  0  0
 11 12  2  0  0  0  0
 11 13  1  0  0  0  0
 11 15  1  0  0  0  0
 12 16  1  0  0  0  0
 14 17  1  0  0  0  0
 14 20  1  0  0  0  0
 16 19  2  0  0  0  0
 17 23  1  0  0  0  0
 17 26  1  6  0  0  0
 18 22  2  0  0  0  0
 18 24  1  0  0  0  0
 21 22  1  0  0  0  0
 21 25  2  0  0  0  0
 21 29  1  0  0  0  0
 23 28  1  0  0  0  0
 24 27  2  0  0  0  0
 25 27  1  0  0  0  0
M  END
> <PUBCHEM_COMPOUND_ID_TYPE>
0

> <PUBCHEM_TOTAL_CHARGE>
0

> <PUBCHEM_SUBSTANCE_ID>
310942974

> <PUBCHEM_SUBSTANCE_VERSION>
1

> <PUBCHEM_EXT_DATASOURCE_NAME>
4488

> <PUBCHEM_EXT_DATASOURCE_REGID>
SCHEMBL16121033

> <PUBCHEM_SUBSTANCE_COMMENT>
InChI=1S/C20H20N6O4/c1-29-18(22)13-8-12(2-3-16(13)27)24-19-17-14(4-6-23-20(17)28)26(25-19)15-10-30-7-5-11(15)9-21/h2-4,6,8,11,15,22,27H,5,7,10H2,1H3,(H,23,28)(H,24,25)/t11-,15?/m1/s1
InChIKey=NNLOPPLOFZWSTN-ZRKZCGFPSA-N

> <PUBCHEM_SUBSTANCE_SYNONYM>
SCHEMBL16121033

> <PUBCHEM_XREF_EXT_ID>
SCHEMBL16121033

> <PUBCHEM_EXT_DATASOURCE_URL>
https://www.surechembl.org/

> <PUBCHEM_EXT_SUBSTANCE_URL>
https://www.surechembl.org/chemical/SCHEMBL16121033

> <PUBCHEM_CID_ASSOCIATIONS>
117609436  1

> <PUBCHEM_COORDINATE_TYPE>
1
3

> <PUBCHEM_BONDANNOTATIONS>
17  26  6

$$$$
