310949635
  -OEChem-07211613022D

 25 27  0     0  0  0  0  0  0999 V2000
   -2.0894   -0.0068    0.0000 S   0  0  0  0  0  0  0  0  0  0  0  0
    2.9090    0.4098    0.0000 F   0  0  0  0  0  0  0  0  0  0  0  0
   -1.2698   -0.0068    0.0000 O   0  0  0  0  0  0  0  0  0  0  0  0
   -2.9090   -0.0068    0.0000 O   0  0  0  0  0  0  0  0  0  0  0  0
   -2.0894    2.4924    0.0000 O   0  0  0  0  0  0  0  0  0  0  0  0
    0.0470   -2.0759    0.0000 O   0  0  0  0  0  0  0  0  0  0  0  0
   -2.0894    0.8263    0.0000 N   0  0  0  0  0  0  0  0  0  0  0  0
   -0.6651   -0.8398    0.0000 N   0  0  0  0  0  0  0  0  0  0  0  0
   -2.0894   -0.8398    0.0000 C   0  0  0  0  0  0  0  0  0  0  0  0
   -1.3772   -1.2563    0.0000 C   0  0  0  0  0  0  0  0  0  0  0  0
   -2.8015   -1.2698    0.0000 C   0  0  0  0  0  0  0  0  0  0  0  0
   -1.3772   -2.0894    0.0000 C   0  0  0  0  0  0  0  0  0  0  0  0
   -1.3772    1.2428    0.0000 C   0  0  0  0  0  0  0  0  0  0  0  0
   -2.8015    1.2563    0.0000 C   0  0  0  0  0  0  0  0  0  0  0  0
    0.0605   -1.2294    0.0000 C   0  0  0  0  0  0  0  0  0  0  0  0
   -2.8015   -2.0759    0.0000 C   0  0  0  0  0  0  0  0  0  0  0  0
    0.7592   -0.8263    0.0000 C   0  0  0  0  0  0  0  0  0  0  0  0
   -2.1028   -2.4924    0.0000 C   0  0  0  0  0  0  0  0  0  0  0  0
   -1.3772    2.0759    0.0000 C   0  0  0  0  0  0  0  0  0  0  0  0
   -2.8015    2.0759    0.0000 C   0  0  0  0  0  0  0  0  0  0  0  0
    1.4578   -1.2428    0.0000 C   0  0  0  0  0  0  0  0  0  0  0  0
    0.7592   -0.0202    0.0000 C   0  0  0  0  0  0  0  0  0  0  0  0
    2.1834   -0.0068    0.0000 C   0  0  0  0  0  0  0  0  0  0  0  0
    2.1834   -0.8263    0.0000 C   0  0  0  0  0  0  0  0  0  0  0  0
    1.4578    0.3964    0.0000 C   0  0  0  0  0  0  0  0  0  0  0  0
  1  3  2  0  0  0  0
  1  4  2  0  0  0  0
  1  7  1  0  0  0  0
  1  9  1  0  0  0  0
  2 23  1  0  0  0  0
  5 19  1  0  0  0  0
  5 20  1  0  0  0  0
  6 15  2  0  0  0  0
  7 13  1  0  0  0  0
  7 14  1  0  0  0  0
  8 10  1  0  0  0  0
  8 15  1  0  0  0  0
  9 10  1  0  0  0  0
  9 11  2  0  0  0  0
 10 12  2  0  0  0  0
 11 16  1  0  0  0  0
 12 18  1  0  0  0  0
 13 19  1  0  0  0  0
 14 20  1  0  0  0  0
 15 17  1  0  0  0  0
 16 18  2  0  0  0  0
 17 21  2  0  0  0  0
 17 22  1  0  0  0  0
 21 24  1  0  0  0  0
 22 25  2  0  0  0  0
 23 24  2  0  0  0  0
 23 25  1  0  0  0  0
M  END
> <PUBCHEM_COMPOUND_ID_TYPE>
0

> <PUBCHEM_TOTAL_CHARGE>
0

> <PUBCHEM_SUBSTANCE_ID>
310949635

> <PUBCHEM_SUBSTANCE_VERSION>
1

> <PUBCHEM_EXT_DATASOURCE_NAME>
4488

> <PUBCHEM_EXT_DATASOURCE_REGID>
SCHEMBL16127833

> <PUBCHEM_SUBSTANCE_COMMENT>
InChI=1S/C17H17FN2O4S/c18-14-7-5-13(6-8-14)17(21)19-15-3-1-2-4-16(15)25(22,23)20-9-11-24-12-10-20/h1-8H,9-12H2,(H,19,21)
InChIKey=IEFRFXIVMMNIBS-UHFFFAOYSA-N

> <PUBCHEM_SUBSTANCE_SYNONYM>
SCHEMBL16127833

> <PUBCHEM_XREF_EXT_ID>
SCHEMBL16127833

> <PUBCHEM_EXT_DATASOURCE_URL>
https://www.surechembl.org/

> <PUBCHEM_EXT_SUBSTANCE_URL>
https://www.surechembl.org/chemical/SCHEMBL16127833

> <PUBCHEM_CID_ASSOCIATIONS>
117615019  1

> <PUBCHEM_COORDINATE_TYPE>
1
3

$$$$
