310935944
  -OEChem-07211613022D

 29 31  0     0  0  0  0  0  0999 V2000
    4.2988    0.0000    0.0000 Cl  0  0  0  0  0  0  0  0  0  0  0  0
    0.6948   -0.3908    0.0000 F   0  0  0  0  0  0  0  0  0  0  0  0
    0.0000   -1.6066    0.0000 F   0  0  0  0  0  0  0  0  0  0  0  0
    1.4329   -2.4316    0.0000 O   0  0  0  0  0  0  0  0  0  0  0  0
    4.9936   -8.6844    0.0000 O   0  0  0  0  0  0  0  0  0  0  0  0
    2.1277   -3.6909    0.0000 N   0  0  0  0  0  0  0  0  0  0  0  0
    4.9936   -6.1659    0.0000 N   0  0  0  0  0  0  0  0  0  0  0  0
    3.6040   -6.1659    0.0000 N   0  0  0  0  0  0  0  0  0  0  0  0
    5.7317   -7.4252    0.0000 N   0  0  0  0  0  0  0  0  0  0  0  0
    2.8659   -2.4751    0.0000 C   0  0  0  0  0  0  0  0  0  0  0  0
    2.1277   -2.8659    0.0000 C   0  0  0  0  0  0  0  0  0  0  0  0
    2.8659   -1.6501    0.0000 C   0  0  0  0  0  0  0  0  0  0  0  0
    3.5606   -3.6909    0.0000 C   0  0  0  0  0  0  0  0  0  0  0  0
    3.5606   -2.8659    0.0000 C   0  0  0  0  0  0  0  0  0  0  0  0
    2.8659   -4.0817    0.0000 C   0  0  0  0  0  0  0  0  0  0  0  0
    4.2988   -4.1251    0.0000 C   0  0  0  0  0  0  0  0  0  0  0  0
    3.6040   -1.2592    0.0000 C   0  0  0  0  0  0  0  0  0  0  0  0
    4.2988   -4.9501    0.0000 C   0  0  0  0  0  0  0  0  0  0  0  0
    2.1711   -1.2158    0.0000 C   0  0  0  0  0  0  0  0  0  0  0  0
    3.6040   -0.4342    0.0000 C   0  0  0  0  0  0  0  0  0  0  0  0
    4.9936   -5.3843    0.0000 C   0  0  0  0  0  0  0  0  0  0  0  0
    3.6040   -5.3843    0.0000 C   0  0  0  0  0  0  0  0  0  0  0  0
    2.1711   -0.3908    0.0000 C   0  0  0  0  0  0  0  0  0  0  0  0
    4.2988   -6.6436    0.0000 C   0  0  0  0  0  0  0  0  0  0  0  0
    2.9093    0.0000    0.0000 C   0  0  0  0  0  0  0  0  0  0  0  0
    1.4329   -1.6066    0.0000 C   0  0  0  0  0  0  0  0  0  0  0  0
    4.2988   -7.4252    0.0000 C   0  0  0  0  0  0  0  0  0  0  0  0
    0.6948   -1.2158    0.0000 C   0  0  0  0  0  0  0  0  0  0  0  0
    4.9936   -7.8594    0.0000 C   0  0  0  0  0  0  0  0  0  0  0  0
  1 20  1  0  0  0  0
  2 28  1  0  0  0  0
  3 28  1  0  0  0  0
  4 11  1  0  0  0  0
  4 26  1  0  0  0  0
  5 29  2  0  0  0  0
  6 11  2  0  0  0  0
  6 15  1  0  0  0  0
  7 21  1  0  0  0  0
  7 24  2  0  0  0  0
  8 22  2  0  0  0  0
  8 24  1  0  0  0  0
  9 29  1  0  0  0  0
 10 11  1  0  0  0  0
 10 12  1  0  0  0  0
 10 14  2  0  0  0  0
 12 17  1  0  0  0  0
 12 19  2  0  0  0  0
 13 14  1  0  0  0  0
 13 15  2  0  0  0  0
 13 16  1  0  0  0  0
 16 18  1  0  0  0  0
 17 20  2  0  0  0  0
 18 21  2  0  0  0  0
 18 22  1  0  0  0  0
 19 23  1  0  0  0  0
 20 25  1  0  0  0  0
 23 25  2  0  0  0  0
 24 27  1  0  0  0  0
 26 28  1  0  0  0  0
 27 29  1  0  0  0  0
M  END
> <PUBCHEM_COMPOUND_ID_TYPE>
0

> <PUBCHEM_TOTAL_CHARGE>
0

> <PUBCHEM_SUBSTANCE_ID>
310935944

> <PUBCHEM_SUBSTANCE_VERSION>
1

> <PUBCHEM_EXT_DATASOURCE_NAME>
4488

> <PUBCHEM_EXT_DATASOURCE_REGID>
SCHEMBL16113541

> <PUBCHEM_SUBSTANCE_COMMENT>
InChI=1S/C20H17ClF2N4O2/c21-15-3-1-2-14(6-15)16-5-12(8-27-20(16)29-11-17(22)23)4-13-9-25-19(26-10-13)7-18(24)28/h1-3,5-6,8-10,17H,4,7,11H2,(H2,24,28)
InChIKey=PEOZQRAOPUPUOX-UHFFFAOYSA-N

> <PUBCHEM_SUBSTANCE_SYNONYM>
SCHEMBL16113541

> <PUBCHEM_XREF_EXT_ID>
SCHEMBL16113541

> <PUBCHEM_EXT_DATASOURCE_URL>
https://www.surechembl.org/

> <PUBCHEM_EXT_SUBSTANCE_URL>
https://www.surechembl.org/chemical/SCHEMBL16113541

> <PUBCHEM_CID_ASSOCIATIONS>
117603924  1

> <PUBCHEM_COORDINATE_TYPE>
1
3

$$$$
