310945310
  -OEChem-07211613022D

 19 21  0     1  0  0  0  0  0999 V2000
    0.6338   -1.2205    0.0000 S   0  0  0  0  0  0  0  0  0  0  0  0
    2.2995   -1.3043    0.0000 O   0  0  0  0  0  0  0  0  0  0  0  0
   -2.2995    1.1052    0.0000 O   0  0  0  0  0  0  0  0  0  0  0  0
    0.8643    0.9585    0.0000 N   0  0  0  0  0  0  0  0  0  0  0  0
    2.4986    0.0786    0.0000 N   0  0  0  0  0  0  0  0  0  0  0  0
   -3.0119   -0.1310    0.0000 N   0  0  0  0  0  0  0  0  0  0  0  0
   -0.1519   -0.1310    0.0000 C   0  0  0  0  0  0  0  0  0  0  0  0
    0.6338    0.1205    0.0000 C   0  0  0  0  0  0  0  0  0  0  0  0
    1.1157   -0.5395    0.0000 C   0  0  0  0  0  0  0  0  0  0  0  0
   -0.1624   -0.9585    0.0000 C   0  0  0  0  0  0  0  0  0  0  0  0
    1.9433   -0.5500    0.0000 C   0  0  0  0  0  0  0  0  0  0  0  0
   -0.8747    0.2672    0.0000 C   0  0  0  0  0  0  0  0  0  0  0  0
   -1.5871   -0.1415    0.0000 C   0  0  0  0  0  0  0  0  0  0  0  0
   -0.8643   -1.3672    0.0000 C   0  0  0  0  0  0  0  0  0  0  0  0
   -1.5767   -0.9585    0.0000 C   0  0  0  0  0  0  0  0  0  0  0  0
    2.3519    0.8957    0.0000 C   0  0  3  0  0  0  0  0  0  0  0  0
    1.6081    1.2729    0.0000 C   0  0  0  0  0  0  0  0  0  0  0  0
   -2.3100    0.2672    0.0000 C   0  0  0  0  0  0  0  0  0  0  0  0
    3.0119    1.3672    0.0000 C   0  0  0  0  0  0  0  0  0  0  0  0
  1  9  1  0  0  0  0
  1 10  1  0  0  0  0
  2 11  2  0  0  0  0
  3 18  2  0  0  0  0
  4  8  1  0  0  0  0
  4 17  1  0  0  0  0
  5 11  1  0  0  0  0
  5 16  1  0  0  0  0
  6 18  1  0  0  0  0
  7  8  1  0  0  0  0
  7 10  1  0  0  0  0
  7 12  2  0  0  0  0
  8  9  2  0  0  0  0
  9 11  1  0  0  0  0
 10 14  2  0  0  0  0
 12 13  1  0  0  0  0
 13 15  2  0  0  0  0
 13 18  1  0  0  0  0
 14 15  1  0  0  0  0
 16 17  1  0  0  0  0
 16 19  1  1  0  0  0
M  END
> <PUBCHEM_COMPOUND_ID_TYPE>
0

> <PUBCHEM_TOTAL_CHARGE>
0

> <PUBCHEM_SUBSTANCE_ID>
310945310

> <PUBCHEM_SUBSTANCE_VERSION>
1

> <PUBCHEM_EXT_DATASOURCE_NAME>
4488

> <PUBCHEM_EXT_DATASOURCE_REGID>
SCHEMBL16123408

> <PUBCHEM_SUBSTANCE_COMMENT>
InChI=1S/C13H13N3O2S/c1-6-5-15-10-8-4-7(12(14)17)2-3-9(8)19-11(10)13(18)16-6/h2-4,6,15H,5H2,1H3,(H2,14,17)(H,16,18)/t6-/m1/s1
InChIKey=FCFMFFAUJRDSQZ-ZCFIWIBFSA-N

> <PUBCHEM_SUBSTANCE_SYNONYM>
SCHEMBL16123408

> <PUBCHEM_XREF_EXT_ID>
SCHEMBL16123408

> <PUBCHEM_EXT_DATASOURCE_URL>
https://www.surechembl.org/

> <PUBCHEM_EXT_SUBSTANCE_URL>
https://www.surechembl.org/chemical/SCHEMBL16123408

> <PUBCHEM_CID_ASSOCIATIONS>
117611368  1

> <PUBCHEM_COORDINATE_TYPE>
1
3

> <PUBCHEM_BONDANNOTATIONS>
16  19  5

$$$$
