310929008
  -OEChem-07211613022D

 21 23  0     0  0  0  0  0  0999 V2000
    2.5482   -2.5823    0.0000 Cl  0  0  0  0  0  0  0  0  0  0  0  0
    0.0797    0.9323    0.0000 S   0  0  0  0  0  0  0  0  0  0  0  0
    0.4922    1.6468    0.0000 O   0  0  0  0  0  0  0  0  0  0  0  0
   -0.3328    0.2178    0.0000 O   0  0  0  0  0  0  0  0  0  0  0  0
    0.7942    0.5198    0.0000 N   0  0  0  0  0  0  0  0  0  0  0  0
    2.2933   -0.4628    0.0000 N   0  0  0  0  0  0  0  0  0  0  0  0
   -1.3492    2.5823    0.0000 N   0  0  0  0  0  0  0  0  0  0  0  0
   -2.7782    2.5823    0.0000 N   0  0  0  0  0  0  0  0  0  0  0  0
    1.5086   -0.7177    0.0000 C   0  0  0  0  0  0  0  0  0  0  0  0
    0.7942   -0.3052    0.0000 C   0  0  0  0  0  0  0  0  0  0  0  0
    1.5086   -1.5427    0.0000 C   0  0  0  0  0  0  0  0  0  0  0  0
   -0.6348    1.3448    0.0000 C   0  0  0  0  0  0  0  0  0  0  0  0
    2.2933   -1.7977    0.0000 C   0  0  0  0  0  0  0  0  0  0  0  0
    0.0797   -0.7177    0.0000 C   0  0  0  0  0  0  0  0  0  0  0  0
    0.7942   -1.9552    0.0000 C   0  0  0  0  0  0  0  0  0  0  0  0
    2.7782   -1.1302    0.0000 C   0  0  0  0  0  0  0  0  0  0  0  0
   -0.6348    2.1698    0.0000 C   0  0  0  0  0  0  0  0  0  0  0  0
   -1.3492    0.9323    0.0000 C   0  0  0  0  0  0  0  0  0  0  0  0
    0.0797   -1.5427    0.0000 C   0  0  0  0  0  0  0  0  0  0  0  0
   -2.0637    2.1698    0.0000 C   0  0  0  0  0  0  0  0  0  0  0  0
   -2.0637    1.3448    0.0000 C   0  0  0  0  0  0  0  0  0  0  0  0
  1 13  1  0  0  0  0
  2  3  2  0  0  0  0
  2  4  2  0  0  0  0
  2  5  1  0  0  0  0
  2 12  1  0  0  0  0
  5 10  1  0  0  0  0
  6  9  1  0  0  0  0
  6 16  1  0  0  0  0
  7 17  2  0  0  0  0
  7 20  1  0  0  0  0
  8 20  1  0  0  0  0
  9 10  1  0  0  0  0
  9 11  2  0  0  0  0
 10 14  2  0  0  0  0
 11 13  1  0  0  0  0
 11 15  1  0  0  0  0
 12 17  1  0  0  0  0
 12 18  2  0  0  0  0
 13 16  2  0  0  0  0
 14 19  1  0  0  0  0
 15 19  2  0  0  0  0
 18 21  1  0  0  0  0
 20 21  2  0  0  0  0
M  END
> <PUBCHEM_COMPOUND_ID_TYPE>
0

> <PUBCHEM_TOTAL_CHARGE>
0

> <PUBCHEM_SUBSTANCE_ID>
310929008

> <PUBCHEM_SUBSTANCE_VERSION>
1

> <PUBCHEM_EXT_DATASOURCE_NAME>
11752

> <PUBCHEM_EXT_DATASOURCE_REGID>
BD328145

> <PUBCHEM_SUBSTANCE_SYNONYM>
165668-55-3
6-Amino-N-(3-chloro-1H-indol-7-yl)pyridine-3-sulfonamide

> <PUBCHEM_GENERIC_REGISTRY_NAME>
165668-55-3

> <PUBCHEM_XREF_EXT_ID>
BD328145

> <PUBCHEM_EXT_DATASOURCE_URL>
http://www.bidepharmatech.com/en/index.html

> <PUBCHEM_EXT_SUBSTANCE_URL>
http://www.bidepharmatech.com/en/goodsview_goodscode_BD328145.html

> <PUBCHEM_CID_ASSOCIATIONS>
9818618  1

> <PUBCHEM_COORDINATE_TYPE>
1
3

$$$$
