310939103
  -OEChem-07211613022D

 23 24  0     1  0  0  0  0  0999 V2000
    2.8653   -8.4785    0.0000 Cl  0  0  0  0  0  0  0  0  0  0  0  0
   -1.4215  -10.1285    0.0000 S   0  0  3  0  0  0  0  0  0  0  0  0
    1.4364  -10.9535    0.0000 F   0  0  0  0  0  0  0  0  0  0  0  0
    2.8653  -10.1285    0.0000 O   0  0  0  0  0  0  0  0  0  0  0  0
   -1.4215  -10.9535    0.0000 O   0  0  0  0  0  0  0  0  0  0  0  0
   -0.7071   -9.7160    0.0000 N   0  0  0  0  0  0  0  0  0  0  0  0
    2.1508   -9.7160    0.0000 C   0  0  0  0  0  0  0  0  0  0  0  0
    1.4364  -10.1285    0.0000 C   0  0  0  0  0  0  0  0  0  0  0  0
    0.7219   -9.7160    0.0000 C   0  0  0  0  0  0  0  0  0  0  0  0
    2.1508   -8.8910    0.0000 C   0  0  0  0  0  0  0  0  0  0  0  0
    0.7219   -8.8910    0.0000 C   0  0  0  0  0  0  0  0  0  0  0  0
    1.4364   -8.4785    0.0000 C   0  0  0  0  0  0  0  0  0  0  0  0
    0.0074  -10.1285    0.0000 C   0  0  0  0  0  0  0  0  0  0  0  0
    2.8653  -10.9535    0.0000 C   0  0  0  0  0  0  0  0  0  0  0  0
   -2.1360   -9.7160    0.0000 C   0  0  0  0  0  0  0  0  0  0  0  0
    2.1508  -11.3660    0.0000 C   0  0  0  0  0  0  0  0  0  0  0  0
    3.5798  -11.3660    0.0000 C   0  0  0  0  0  0  0  0  0  0  0  0
    2.1508  -12.1910    0.0000 C   0  0  0  0  0  0  0  0  0  0  0  0
    3.5798  -12.1910    0.0000 C   0  0  0  0  0  0  0  0  0  0  0  0
   -2.8505  -10.1285    0.0000 C   0  0  0  0  0  0  0  0  0  0  0  0
   -2.1360   -8.8910    0.0000 C   0  0  0  0  0  0  0  0  0  0  0  0
   -2.9329   -9.5025    0.0000 C   0  0  0  0  0  0  0  0  0  0  0  0
    2.8653  -12.6035    0.0000 C   0  0  0  0  0  0  0  0  0  0  0  0
  1 10  1  0  0  0  0
  2  5  2  0  0  0  0
  2  6  1  1  0  0  0
  2 15  1  0  0  0  0
  3  8  1  0  0  0  0
  4  7  1  0  0  0  0
  4 14  1  0  0  0  0
  6 13  2  0  0  0  0
  7  8  1  0  0  0  0
  7 10  2  0  0  0  0
  8  9  2  0  0  0  0
  9 11  1  0  0  0  0
  9 13  1  0  0  0  0
 10 12  1  0  0  0  0
 11 12  2  0  0  0  0
 14 16  2  0  0  0  0
 14 17  1  0  0  0  0
 15 20  1  0  0  0  0
 15 21  1  0  0  0  0
 15 22  1  0  0  0  0
 16 18  1  0  0  0  0
 17 19  2  0  0  0  0
 18 23  2  0  0  0  0
 19 23  1  0  0  0  0
M  END
> <PUBCHEM_COMPOUND_ID_TYPE>
0

> <PUBCHEM_TOTAL_CHARGE>
0

> <PUBCHEM_SUBSTANCE_ID>
310939103

> <PUBCHEM_SUBSTANCE_VERSION>
1

> <PUBCHEM_EXT_DATASOURCE_NAME>
4488

> <PUBCHEM_EXT_DATASOURCE_REGID>
SCHEMBL16117024

> <PUBCHEM_SUBSTANCE_COMMENT>
InChI=1S/C17H17ClFNO2S/c1-17(2,3)23(21)20-11-12-9-10-14(18)16(15(12)19)22-13-7-5-4-6-8-13/h4-11H,1-3H3/b20-11+/t23-/m0/s1
InChIKey=MLXZIZCWZPNHRZ-ZVANETARSA-N

> <PUBCHEM_SUBSTANCE_SYNONYM>
SCHEMBL16117024

> <PUBCHEM_XREF_EXT_ID>
SCHEMBL16117024

> <PUBCHEM_EXT_DATASOURCE_URL>
https://www.surechembl.org/

> <PUBCHEM_EXT_SUBSTANCE_URL>
https://www.surechembl.org/chemical/SCHEMBL16117024

> <PUBCHEM_CID_ASSOCIATIONS>
117606462  1

> <PUBCHEM_COORDINATE_TYPE>
1
3

> <PUBCHEM_BONDANNOTATIONS>
2  6  5

$$$$
