310949036
  -OEChem-07211613022D

 34 39  0     0  0  0  0  0  0999 V2000
    1.5492    0.8502    0.0000 O   0  0  0  0  0  0  0  0  0  0  0  0
   -1.3042    0.0865    0.0000 N   0  0  0  0  0  0  0  0  0  0  0  0
    0.8429   -0.3603    0.0000 N   0  0  0  0  0  0  0  0  0  0  0  0
   -3.4658   -0.3891    0.0000 N   0  0  0  0  0  0  0  0  0  0  0  0
   -0.6414    0.6197    0.0000 C   0  0  0  0  0  0  0  0  0  0  0  0
   -0.8862    1.3690    0.0000 C   0  0  0  0  0  0  0  0  0  0  0  0
   -2.0103    0.6053    0.0000 C   0  0  0  0  0  0  0  0  0  0  0  0
    0.4683    1.8302    0.0000 C   0  0  0  0  0  0  0  0  0  0  0  0
   -1.7365    1.3835    0.0000 C   0  0  0  0  0  0  0  0  0  0  0  0
    1.0447    2.4354    0.0000 C   0  0  0  0  0  0  0  0  0  0  0  0
    0.7134    1.0375    0.0000 C   0  0  0  0  0  0  0  0  0  0  0  0
   -1.3042   -0.7206    0.0000 C   0  0  0  0  0  0  0  0  0  0  0  0
   -0.3242    1.9743    0.0000 C   0  0  0  0  0  0  0  0  0  0  0  0
    0.1369    0.4324    0.0000 C   0  0  0  0  0  0  0  0  0  0  0  0
    1.8230    2.2625    0.0000 C   0  0  0  0  0  0  0  0  0  0  0  0
    2.1112    1.4987    0.0000 C   0  0  0  0  0  0  0  0  0  0  0  0
   -0.5837   -1.1529    0.0000 C   0  0  0  0  0  0  0  0  0  0  0  0
   -2.0103   -1.1240    0.0000 C   0  0  0  0  0  0  0  0  0  0  0  0
   -2.8029    0.4468    0.0000 C   0  0  0  0  0  0  0  0  0  0  0  0
   -2.2841    1.9455    0.0000 C   0  0  0  0  0  0  0  0  0  0  0  0
    2.3849    2.8389    0.0000 C   0  0  0  0  0  0  0  0  0  0  0  0
    0.7565    3.2136    0.0000 C   0  0  0  0  0  0  0  0  0  0  0  0
    1.6500    2.9974    0.0000 C   0  0  0  0  0  0  0  0  0  0  0  0
    2.8894    1.3258    0.0000 C   0  0  0  0  0  0  0  0  0  0  0  0
   -0.5981   -1.9455    0.0000 C   0  0  0  0  0  0  0  0  0  0  0  0
   -2.0247   -1.9455    0.0000 C   0  0  0  0  0  0  0  0  0  0  0  0
   -3.3649    1.0232    0.0000 C   0  0  0  0  0  0  0  0  0  0  0  0
   -3.1055    1.8013    0.0000 C   0  0  0  0  0  0  0  0  0  0  0  0
   -1.3042   -2.3489    0.0000 C   0  0  0  0  0  0  0  0  0  0  0  0
    0.1369   -0.7350    0.0000 C   0  0  0  0  0  0  0  0  0  0  0  0
   -2.7596   -0.7350    0.0000 C   0  0  0  0  0  0  0  0  0  0  0  0
    3.1920    2.7092    0.0000 C   0  0  0  0  0  0  0  0  0  0  0  0
    3.4658    1.9167    0.0000 C   0  0  0  0  0  0  0  0  0  0  0  0
   -1.3042   -3.2136    0.0000 C   0  0  0  0  0  0  0  0  0  0  0  0
  1 11  1  0  0  0  0
  1 16  1  0  0  0  0
  2  5  1  0  0  0  0
  2  7  1  0  0  0  0
  2 12  1  0  0  0  0
  3 30  3  0  0  0  0
  4 31  3  0  0  0  0
  5  6  2  0  0  0  0
  5 14  1  0  0  0  0
  6  9  1  0  0  0  0
  6 13  1  0  0  0  0
  7  9  2  0  0  0  0
  7 19  1  0  0  0  0
  8 10  1  0  0  0  0
  8 11  1  0  0  0  0
  8 13  2  0  0  0  0
  9 20  1  0  0  0  0
 10 15  1  0  0  0  0
 10 22  1  0  0  0  0
 10 23  1  0  0  0  0
 11 14  2  0  0  0  0
 12 17  2  0  0  0  0
 12 18  1  0  0  0  0
 15 16  2  0  0  0  0
 15 21  1  0  0  0  0
 16 24  1  0  0  0  0
 17 25  1  0  0  0  0
 17 30  1  0  0  0  0
 18 26  2  0  0  0  0
 18 31  1  0  0  0  0
 19 27  2  0  0  0  0
 20 28  2  0  0  0  0
 21 32  2  0  0  0  0
 24 33  2  0  0  0  0
 25 29  2  0  0  0  0
 26 29  1  0  0  0  0
 27 28  1  0  0  0  0
 29 34  1  0  0  0  0
 32 33  1  0  0  0  0
M  END
> <PUBCHEM_COMPOUND_ID_TYPE>
0

> <PUBCHEM_TOTAL_CHARGE>
0

> <PUBCHEM_SUBSTANCE_ID>
310949036

> <PUBCHEM_SUBSTANCE_VERSION>
1

> <PUBCHEM_EXT_DATASOURCE_NAME>
4488

> <PUBCHEM_EXT_DATASOURCE_REGID>
SCHEMBL16127226

> <PUBCHEM_SUBSTANCE_COMMENT>
InChI=1S/C30H21N3O/c1-18-12-19(16-31)29(20(13-18)17-32)33-25-10-6-4-8-21(25)22-14-24-28(15-26(22)33)34-27-11-7-5-9-23(27)30(24,2)3/h4-15H,1-3H3
InChIKey=QWEBVCJBSJWDTD-UHFFFAOYSA-N

> <PUBCHEM_SUBSTANCE_SYNONYM>
SCHEMBL16127226

> <PUBCHEM_XREF_EXT_ID>
SCHEMBL16127226

> <PUBCHEM_EXT_DATASOURCE_URL>
https://www.surechembl.org/

> <PUBCHEM_EXT_SUBSTANCE_URL>
https://www.surechembl.org/chemical/SCHEMBL16127226

> <PUBCHEM_CID_ASSOCIATIONS>
117614541  1

> <PUBCHEM_COORDINATE_TYPE>
1
3

$$$$
