310949725
  -OEChem-07211613022D

 20 21  0     0  0  0  0  0  0999 V2000
    0.3506   -1.2374    0.0000 O   0  0  0  0  0  0  0  0  0  0  0  0
    1.7943    1.2374    0.0000 O   0  0  0  0  0  0  0  0  0  0  0  0
    3.2379    1.2374    0.0000 O   0  0  0  0  0  0  0  0  0  0  0  0
    1.0793    0.0000    0.0000 N   0  0  0  0  0  0  0  0  0  0  0  0
    2.5230   -1.6499    0.0000 N   0  0  0  0  0  0  0  0  0  0  0  0
   -3.2379    1.6499    0.0000 N   0  0  0  0  0  0  0  0  0  0  0  0
    1.8080   -0.4263    0.0000 C   0  0  0  0  0  0  0  0  0  0  0  0
    2.5092    0.0000    0.0000 C   0  0  0  0  0  0  0  0  0  0  0  0
    0.3644   -0.3987    0.0000 C   0  0  0  0  0  0  0  0  0  0  0  0
   -0.3644    0.0000    0.0000 C   0  0  0  0  0  0  0  0  0  0  0  0
    2.5367    0.8112    0.0000 C   0  0  0  0  0  0  0  0  0  0  0  0
    1.7943   -1.2374    0.0000 C   0  0  0  0  0  0  0  0  0  0  0  0
    3.2379   -0.4263    0.0000 C   0  0  0  0  0  0  0  0  0  0  0  0
   -1.0931   -0.4125    0.0000 C   0  0  0  0  0  0  0  0  0  0  0  0
   -0.3644    0.8112    0.0000 C   0  0  0  0  0  0  0  0  0  0  0  0
    3.2242   -1.2512    0.0000 C   0  0  0  0  0  0  0  0  0  0  0  0
   -1.7943    0.7975    0.0000 C   0  0  0  0  0  0  0  0  0  0  0  0
   -1.7943   -0.0138    0.0000 C   0  0  0  0  0  0  0  0  0  0  0  0
   -1.0793    1.2237    0.0000 C   0  0  0  0  0  0  0  0  0  0  0  0
   -2.4955    1.2374    0.0000 C   0  0  0  0  0  0  0  0  0  0  0  0
  1  9  2  0  0  0  0
  2 11  2  0  0  0  0
  3 11  1  0  0  0  0
  4  7  1  0  0  0  0
  4  9  1  0  0  0  0
  5 12  1  0  0  0  0
  5 16  2  0  0  0  0
  6 20  3  0  0  0  0
  7  8  1  0  0  0  0
  7 12  2  0  0  0  0
  8 11  1  0  0  0  0
  8 13  2  0  0  0  0
  9 10  1  0  0  0  0
 10 14  2  0  0  0  0
 10 15  1  0  0  0  0
 13 16  1  0  0  0  0
 14 18  1  0  0  0  0
 15 19  2  0  0  0  0
 17 18  2  0  0  0  0
 17 19  1  0  0  0  0
 17 20  1  0  0  0  0
M  END
> <PUBCHEM_COMPOUND_ID_TYPE>
0

> <PUBCHEM_TOTAL_CHARGE>
0

> <PUBCHEM_SUBSTANCE_ID>
310949725

> <PUBCHEM_SUBSTANCE_VERSION>
1

> <PUBCHEM_EXT_DATASOURCE_NAME>
4488

> <PUBCHEM_EXT_DATASOURCE_REGID>
SCHEMBL16127923

> <PUBCHEM_SUBSTANCE_COMMENT>
InChI=1S/C14H9N3O3/c15-7-9-1-3-10(4-2-9)13(18)17-12-8-16-6-5-11(12)14(19)20/h1-6,8H,(H,17,18)(H,19,20)
InChIKey=OUNJZZYYZBEOPI-UHFFFAOYSA-N

> <PUBCHEM_SUBSTANCE_SYNONYM>
SCHEMBL16127923

> <PUBCHEM_XREF_EXT_ID>
SCHEMBL16127923

> <PUBCHEM_EXT_DATASOURCE_URL>
https://www.surechembl.org/

> <PUBCHEM_EXT_SUBSTANCE_URL>
https://www.surechembl.org/chemical/SCHEMBL16127923

> <PUBCHEM_CID_ASSOCIATIONS>
64392998  1

> <PUBCHEM_COORDINATE_TYPE>
1
3

$$$$
