310929541
  -OEChem-07211613022D

 26 27  0     1  0  0  0  0  0999 V2000
    6.7023   -1.8718    0.0000 Br  0  0  0  0  0  0  0  0  0  0  0  0
    3.4744   -1.1857    0.0000 S   0  0  0  0  0  0  0  0  0  0  0  0
    2.6674   -1.0142    0.0000 O   0  0  0  0  0  0  0  0  0  0  0  0
    1.8183   -0.2296    0.0000 O   0  0  0  0  0  0  0  0  0  0  0  0
    3.6459   -0.3788    0.0000 O   0  0  0  0  0  0  0  0  0  0  0  0
    3.3029   -1.9927    0.0000 O   0  0  0  0  0  0  0  0  0  0  0  0
    0.7564   -1.1857    0.0000 O   0  0  0  0  0  0  0  0  0  0  0  0
    1.5212    1.1681    0.0000 O   0  0  0  0  0  0  0  0  0  0  0  0
    0.4593    0.2120    0.0000 O   0  0  0  0  0  0  0  0  0  0  0  0
    1.4480   -2.1122    0.0000 N   0  0  0  0  0  0  0  0  0  0  0  0
    2.1154   -1.6273    0.0000 C   0  0  3  0  0  0  0  0  0  0  0  0
    1.5634   -1.0142    0.0000 C   0  0  0  0  0  0  0  0  0  0  0  0
    4.2814   -1.3573    0.0000 C   0  0  0  0  0  0  0  0  0  0  0  0
    2.7828   -2.1122    0.0000 C   0  0  0  0  0  0  0  0  0  0  0  0
    1.7029   -2.8968    0.0000 C   0  0  0  0  0  0  0  0  0  0  0  0
    2.5279   -2.8968    0.0000 C   0  0  0  0  0  0  0  0  0  0  0  0
    4.8334   -0.7442    0.0000 C   0  0  0  0  0  0  0  0  0  0  0  0
    4.5363   -2.1419    0.0000 C   0  0  0  0  0  0  0  0  0  0  0  0
    1.2663    0.3835    0.0000 C   0  0  0  0  0  0  0  0  0  0  0  0
    5.6404   -0.9157    0.0000 C   0  0  0  0  0  0  0  0  0  0  0  0
    5.3433   -2.3134    0.0000 C   0  0  0  0  0  0  0  0  0  0  0  0
    5.8953   -1.7003    0.0000 C   0  0  0  0  0  0  0  0  0  0  0  0
    0.9692    1.7812    0.0000 C   0  0  0  0  0  0  0  0  0  0  0  0
    0.4171    2.3943    0.0000 C   0  0  0  0  0  0  0  0  0  0  0  0
    1.5823    2.3333    0.0000 C   0  0  0  0  0  0  0  0  0  0  0  0
    0.3561    1.2292    0.0000 C   0  0  0  0  0  0  0  0  0  0  0  0
  1 22  1  0  0  0  0
  2  3  1  0  0  0  0
  2  5  2  0  0  0  0
  2  6  2  0  0  0  0
  2 13  1  0  0  0  0
 11  3  1  6  0  0  0
  4 12  1  0  0  0  0
  4 19  1  0  0  0  0
  7 12  2  0  0  0  0
  8 19  1  0  0  0  0
  8 23  1  0  0  0  0
  9 19  2  0  0  0  0
 10 11  1  0  0  0  0
 10 15  1  0  0  0  0
 11 12  1  1  0  0  0
 11 14  1  0  0  0  0
 13 17  2  0  0  0  0
 13 18  1  0  0  0  0
 14 16  1  0  0  0  0
 15 16  1  0  0  0  0
 17 20  1  0  0  0  0
 18 21  2  0  0  0  0
 20 22  2  0  0  0  0
 21 22  1  0  0  0  0
 23 24  1  0  0  0  0
 23 25  1  0  0  0  0
 23 26  1  0  0  0  0
M  END
> <PUBCHEM_COMPOUND_ID_TYPE>
0

> <PUBCHEM_TOTAL_CHARGE>
0

> <PUBCHEM_SUBSTANCE_ID>
310929541

> <PUBCHEM_SUBSTANCE_VERSION>
1

> <PUBCHEM_EXT_DATASOURCE_NAME>
4488

> <PUBCHEM_EXT_DATASOURCE_REGID>
SCHEMBL16106722

> <PUBCHEM_SUBSTANCE_COMMENT>
InChI=1S/C16H20BrNO7S/c1-15(2,3)24-14(20)23-13(19)16(9-4-10-18-16)25-26(21,22)12-7-5-11(17)6-8-12/h5-8,18H,4,9-10H2,1-3H3/t16-/m0/s1
InChIKey=MDWJMVHPQYDPIH-INIZCTEOSA-N

> <PUBCHEM_SUBSTANCE_SYNONYM>
SCHEMBL16106722

> <PUBCHEM_XREF_EXT_ID>
SCHEMBL16106722

> <PUBCHEM_EXT_DATASOURCE_URL>
https://www.surechembl.org/

> <PUBCHEM_EXT_SUBSTANCE_URL>
https://www.surechembl.org/chemical/SCHEMBL16106722

> <PUBCHEM_CID_ASSOCIATIONS>
117598860  1

> <PUBCHEM_COORDINATE_TYPE>
1
3

> <PUBCHEM_BONDANNOTATIONS>
11  12  5
11  3  6

$$$$
