310945162
  -OEChem-07211613022D

 19 20  0     0  0  0  0  0  0999 V2000
    0.8659    1.0737    0.0000 O   0  0  0  0  0  0  0  0  0  0  0  0
   -0.7551   -0.8105    0.0000 N   0  0  0  0  0  0  0  0  0  0  0  0
   -1.1153   -0.0623    0.0000 N   0  0  0  0  0  0  0  0  0  0  0  0
   -2.0852   -0.9906    0.0000 N   0  0  0  0  0  0  0  0  0  0  0  0
    1.9604    0.1593    0.0000 N   0  0  0  0  0  0  0  0  0  0  0  0
    0.0623   -0.9629    0.0000 C   0  0  0  0  0  0  0  0  0  0  0  0
    1.4063   -0.4780    0.0000 C   0  0  0  0  0  0  0  0  0  0  0  0
    0.6026   -0.3395    0.0000 C   0  0  0  0  0  0  0  0  0  0  0  0
   -1.9328   -0.1732    0.0000 C   0  0  0  0  0  0  0  0  0  0  0  0
   -1.3647   -1.3786    0.0000 C   0  0  0  0  0  0  0  0  0  0  0  0
    0.3533   -1.7388    0.0000 C   0  0  0  0  0  0  0  0  0  0  0  0
    1.6972   -1.2539    0.0000 C   0  0  0  0  0  0  0  0  0  0  0  0
    1.1707   -1.8773    0.0000 C   0  0  0  0  0  0  0  0  0  0  0  0
    1.6972    0.9075    0.0000 C   0  0  0  0  0  0  0  0  0  0  0  0
   -2.5146    0.4088    0.0000 C   0  0  0  0  0  0  0  0  0  0  0  0
    2.1960    1.5309    0.0000 C   0  0  0  0  0  0  0  0  0  0  0  0
   -2.2238    1.2123    0.0000 C   0  0  0  0  0  0  0  0  0  0  0  0
    1.8080    1.8773    0.0000 C   0  0  0  0  0  0  0  0  0  0  0  0
    2.5146    1.2400    0.0000 C   0  0  0  0  0  0  0  0  0  0  0  0
  1 14  2  0  0  0  0
  2  3  1  0  0  0  0
  2  6  1  0  0  0  0
  2 10  1  0  0  0  0
  3  9  2  0  0  0  0
  4  9  1  0  0  0  0
  4 10  2  0  0  0  0
  5  7  1  0  0  0  0
  5 14  1  0  0  0  0
  6  8  1  0  0  0  0
  6 11  2  0  0  0  0
  7  8  2  0  0  0  0
  7 12  1  0  0  0  0
  9 15  1  0  0  0  0
 11 13  1  0  0  0  0
 12 13  2  0  0  0  0
 14 16  1  0  0  0  0
 15 17  2  0  0  0  0
 16 18  1  0  0  0  0
 16 19  1  0  0  0  0
M  END
> <PUBCHEM_COMPOUND_ID_TYPE>
0

> <PUBCHEM_TOTAL_CHARGE>
0

> <PUBCHEM_SUBSTANCE_ID>
310945162

> <PUBCHEM_SUBSTANCE_VERSION>
1

> <PUBCHEM_EXT_DATASOURCE_NAME>
4488

> <PUBCHEM_EXT_DATASOURCE_REGID>
SCHEMBL16123252

> <PUBCHEM_SUBSTANCE_COMMENT>
InChI=1S/C14H16N4O/c1-4-13-15-9-18(17-13)12-7-5-6-11(8-12)16-14(19)10(2)3/h4-10H,1H2,2-3H3,(H,16,19)
InChIKey=UTXSKTBOOGQIFZ-UHFFFAOYSA-N

> <PUBCHEM_SUBSTANCE_SYNONYM>
SCHEMBL16123252

> <PUBCHEM_XREF_EXT_ID>
SCHEMBL16123252

> <PUBCHEM_EXT_DATASOURCE_URL>
https://www.surechembl.org/

> <PUBCHEM_EXT_SUBSTANCE_URL>
https://www.surechembl.org/chemical/SCHEMBL16123252

> <PUBCHEM_CID_ASSOCIATIONS>
117611248  1

> <PUBCHEM_COORDINATE_TYPE>
1
3

$$$$
