310948926
  -OEChem-07211613022D

 16 17  0     1  0  0  0  0  0999 V2000
   -0.2917    2.3087    0.0000 S   0  0  0  0  0  0  0  0  0  0  0  0
    0.4903    1.2288    0.0000 O   0  0  0  0  0  0  0  0  0  0  0  0
   -1.8929    0.5337    0.0000 O   0  0  0  0  0  0  0  0  0  0  0  0
    1.9177    2.0480    0.0000 O   0  0  0  0  0  0  0  0  0  0  0  0
   -0.4903    0.1737    0.0000 N   0  0  0  0  0  0  0  0  0  0  0  0
   -1.5080   -0.8440    0.0000 N   0  0  0  0  0  0  0  0  0  0  0  0
   -1.0116   -2.2218    0.0000 N   0  0  0  0  0  0  0  0  0  0  0  0
   -0.2917    0.9806    0.0000 C   0  0  3  0  0  0  0  0  0  0  0  0
   -1.2846   -0.0497    0.0000 C   0  0  0  0  0  0  0  0  0  0  0  0
    0.5027    2.0480    0.0000 C   0  0  3  0  0  0  0  0  0  0  0  0
   -0.7633    1.6384    0.0000 C   0  0  0  0  0  0  0  0  0  0  0  0
    0.0807   -0.4096    0.0000 C   0  0  0  0  0  0  0  0  0  0  0  0
   -0.9247   -1.4274    0.0000 C   0  0  0  0  0  0  0  0  0  0  0  0
   -0.1303   -1.2164    0.0000 C   0  0  0  0  0  0  0  0  0  0  0  0
    1.2226    2.4576    0.0000 C   0  0  0  0  0  0  0  0  0  0  0  0
   -1.9177   -2.4576    0.0000 C   0  0  0  0  0  0  0  0  0  0  0  0
  1 10  1  0  0  0  0
  1 11  1  0  0  0  0
  8  2  1  6  0  0  0
  2 10  1  0  0  0  0
  3  9  2  0  0  0  0
  4 15  1  0  0  0  0
  5  8  1  0  0  0  0
  5  9  1  0  0  0  0
  5 12  1  0  0  0  0
  6  9  1  0  0  0  0
  6 13  2  0  0  0  0
  7 13  1  0  0  0  0
  7 16  1  0  0  0  0
  8 11  1  0  0  0  0
 10 15  1  6  0  0  0
 12 14  2  0  0  0  0
 13 14  1  0  0  0  0
M  END
> <PUBCHEM_COMPOUND_ID_TYPE>
0

> <PUBCHEM_TOTAL_CHARGE>
0

> <PUBCHEM_SUBSTANCE_ID>
310948926

> <PUBCHEM_SUBSTANCE_VERSION>
1

> <PUBCHEM_EXT_DATASOURCE_NAME>
4488

> <PUBCHEM_EXT_DATASOURCE_REGID>
SCHEMBL16127112

> <PUBCHEM_SUBSTANCE_COMMENT>
InChI=1S/C9H13N3O3S/c1-10-6-2-3-12(9(14)11-6)7-5-16-8(4-13)15-7/h2-3,7-8,13H,4-5H2,1H3,(H,10,11,14)/t7-,8+/m0/s1
InChIKey=BBLOWEFEJDFEEB-JGVFFNPUSA-N

> <PUBCHEM_SUBSTANCE_SYNONYM>
SCHEMBL16127112

> <PUBCHEM_XREF_EXT_ID>
SCHEMBL16127112

> <PUBCHEM_EXT_DATASOURCE_URL>
https://www.surechembl.org/

> <PUBCHEM_EXT_SUBSTANCE_URL>
https://www.surechembl.org/chemical/SCHEMBL16127112

> <PUBCHEM_CID_ASSOCIATIONS>
117614440  1

> <PUBCHEM_COORDINATE_TYPE>
1
3

> <PUBCHEM_BONDANNOTATIONS>
10  15  6
8  2  6

$$$$
