310944922
  -OEChem-07211613022D

 38 42  0     0  0  0  0  0  0999 V2000
    4.7911   -0.9828    0.0000 O   0  0  0  0  0  0  0  0  0  0  0  0
    4.0715   -2.2113    0.0000 O   0  0  0  0  0  0  0  0  0  0  0  0
   -3.2817   -1.3864    0.0000 N   0  0  0  0  0  0  0  0  0  0  0  0
   -0.3510    0.2282    0.0000 C   0  0  0  0  0  0  0  0  0  0  0  0
   -0.3334    1.0530    0.0000 C   0  0  0  0  0  0  0  0  0  0  0  0
   -1.0705   -0.1755    0.0000 C   0  0  0  0  0  0  0  0  0  0  0  0
   -1.1056    1.4741    0.0000 C   0  0  0  0  0  0  0  0  0  0  0  0
    0.4037   -0.1755    0.0000 C   0  0  0  0  0  0  0  0  0  0  0  0
    0.3861    1.4566    0.0000 C   0  0  0  0  0  0  0  0  0  0  0  0
   -1.7901    0.2106    0.0000 C   0  0  0  0  0  0  0  0  0  0  0  0
   -1.0881   -1.0003    0.0000 C   0  0  0  0  0  0  0  0  0  0  0  0
   -1.8778    1.2460    0.0000 C   0  0  0  0  0  0  0  0  0  0  0  0
   -1.2986    2.2288    0.0000 C   0  0  0  0  0  0  0  0  0  0  0  0
   -2.5447   -1.0003    0.0000 C   0  0  0  0  0  0  0  0  0  0  0  0
    0.4212   -1.0003    0.0000 C   0  0  0  0  0  0  0  0  0  0  0  0
    1.1232    0.2106    0.0000 C   0  0  0  0  0  0  0  0  0  0  0  0
    1.1056    1.0530    0.0000 C   0  0  0  0  0  0  0  0  0  0  0  0
    0.4212    2.2815    0.0000 C   0  0  0  0  0  0  0  0  0  0  0  0
   -2.1060    2.0182    0.0000 C   0  0  0  0  0  0  0  0  0  0  0  0
   -2.5271   -0.1755    0.0000 C   0  0  0  0  0  0  0  0  0  0  0  0
   -1.7901   -1.4040    0.0000 C   0  0  0  0  0  0  0  0  0  0  0  0
    1.8602   -1.0003    0.0000 C   0  0  0  0  0  0  0  0  0  0  0  0
    1.1232   -1.4040    0.0000 C   0  0  0  0  0  0  0  0  0  0  0  0
    1.8427   -0.1930    0.0000 C   0  0  0  0  0  0  0  0  0  0  0  0
    1.8427    1.4566    0.0000 C   0  0  0  0  0  0  0  0  0  0  0  0
    1.1232    2.6676    0.0000 C   0  0  0  0  0  0  0  0  0  0  0  0
   -4.0189   -1.0003    0.0000 C   0  0  0  0  0  0  0  0  0  0  0  0
   -3.2993   -2.2463    0.0000 C   0  0  0  0  0  0  0  0  0  0  0  0
    1.8602    2.2639    0.0000 C   0  0  0  0  0  0  0  0  0  0  0  0
    2.5974   -1.4040    0.0000 C   0  0  0  0  0  0  0  0  0  0  0  0
   -4.0013   -2.6324    0.0000 C   0  0  0  0  0  0  0  0  0  0  0  0
   -4.7208   -1.4040    0.0000 C   0  0  0  0  0  0  0  0  0  0  0  0
   -4.7560   -2.2288    0.0000 C   0  0  0  0  0  0  0  0  0  0  0  0
    3.3169   -1.0003    0.0000 C   0  0  0  0  0  0  0  0  0  0  0  0
    4.0715   -1.3864    0.0000 C   0  0  0  0  0  0  0  0  0  0  0  0
   -5.4930   -2.6676    0.0000 C   0  0  0  0  0  0  0  0  0  0  0  0
    5.4930   -1.3864    0.0000 C   0  0  0  0  0  0  0  0  0  0  0  0
    5.4755   -2.2113    0.0000 C   0  0  0  0  0  0  0  0  0  0  0  0
  1 35  1  0  0  0  0
  1 37  1  0  0  0  0
  2 35  2  0  0  0  0
  3 14  1  0  0  0  0
  3 27  1  0  0  0  0
  3 28  1  0  0  0  0
  4  5  2  0  0  0  0
  4  6  1  0  0  0  0
  4  8  1  0  0  0  0
  5  7  1  0  0  0  0
  5  9  1  0  0  0  0
  6 10  2  0  0  0  0
  6 11  1  0  0  0  0
  7 12  1  0  0  0  0
  7 13  1  0  0  0  0
  8 15  2  0  0  0  0
  8 16  1  0  0  0  0
  9 17  2  0  0  0  0
  9 18  1  0  0  0  0
 10 20  1  0  0  0  0
 11 21  2  0  0  0  0
 12 19  1  0  0  0  0
 13 19  1  0  0  0  0
 14 20  2  0  0  0  0
 14 21  1  0  0  0  0
 15 23  1  0  0  0  0
 16 24  2  0  0  0  0
 17 25  1  0  0  0  0
 18 26  2  0  0  0  0
 22 23  2  0  0  0  0
 22 24  1  0  0  0  0
 22 30  1  0  0  0  0
 25 29  2  0  0  0  0
 26 29  1  0  0  0  0
 27 32  1  0  0  0  0
 28 31  1  0  0  0  0
 30 34  2  0  0  0  0
 31 33  1  0  0  0  0
 32 33  1  0  0  0  0
 33 36  1  0  0  0  0
 34 35  1  0  0  0  0
 37 38  1  0  0  0  0
M  END
> <PUBCHEM_COMPOUND_ID_TYPE>
0

> <PUBCHEM_TOTAL_CHARGE>
0

> <PUBCHEM_SUBSTANCE_ID>
310944922

> <PUBCHEM_SUBSTANCE_VERSION>
1

> <PUBCHEM_EXT_DATASOURCE_NAME>
4488

> <PUBCHEM_EXT_DATASOURCE_REGID>
SCHEMBL16123007

> <PUBCHEM_SUBSTANCE_COMMENT>
InChI=1S/C35H39NO2/c1-3-38-33(37)21-14-27-12-15-30(16-13-27)35(34(29-10-7-11-29)28-8-5-4-6-9-28)31-17-19-32(20-18-31)36-24-22-26(2)23-25-36/h4-6,8-9,12-21,26,29H,3,7,10-11,22-25H2,1-2H3/b21-14+,35-34-
InChIKey=BCLFMHOTNJPYOO-ZPCIVTGNSA-N

> <PUBCHEM_SUBSTANCE_SYNONYM>
SCHEMBL16123007

> <PUBCHEM_XREF_EXT_ID>
SCHEMBL16123007

> <PUBCHEM_EXT_DATASOURCE_URL>
https://www.surechembl.org/

> <PUBCHEM_EXT_SUBSTANCE_URL>
https://www.surechembl.org/chemical/SCHEMBL16123007

> <PUBCHEM_CID_ASSOCIATIONS>
117611091  1

> <PUBCHEM_COORDINATE_TYPE>
1
3

$$$$
