310945975
  -OEChem-07211613022D

 38 41  0     1  0  0  0  0  0999 V2000
    3.6435    1.4024    0.0000 O   0  0  0  0  0  0  0  0  0  0  0  0
    1.3886    1.4162    0.0000 O   0  0  0  0  0  0  0  0  0  0  0  0
   -2.5986    0.3163    0.0000 O   0  0  0  0  0  0  0  0  0  0  0  0
    0.6737    1.0037    0.0000 O   0  0  0  0  0  0  0  0  0  0  0  0
   -0.0412    1.4299    0.0000 O   0  0  0  0  0  0  0  0  0  0  0  0
   -2.9285   -2.6811    0.0000 O   0  0  0  0  0  0  0  0  0  0  0  0
    1.3749   -0.2200    0.0000 N   0  0  0  0  0  0  0  0  0  0  0  0
   -0.7562    0.2062    0.0000 N   0  0  0  0  0  0  0  0  0  0  0  0
   -1.4574    2.2686    0.0000 N   0  0  0  0  0  0  0  0  0  0  0  0
    2.8323    1.4162    0.0000 C   0  0  3  0  0  0  0  0  0  0  0  0
    2.0898    0.9624    0.0000 C   0  0  0  0  0  0  0  0  0  0  0  0
    3.2448    0.7150    0.0000 C   0  0  0  0  0  0  0  0  0  0  0  0
    2.0898    0.1787    0.0000 C   0  0  3  0  0  0  0  0  0  0  0  0
    2.8186    2.2273    0.0000 C   0  0  0  0  0  0  0  0  0  0  0  0
   -1.4849    1.4574    0.0000 C   0  0  3  0  0  0  0  0  0  0  0  0
   -2.1861    1.0449    0.0000 C   0  0  3  0  0  0  0  0  0  0  0  0
    0.6462    0.1787    0.0000 C   0  0  0  0  0  0  0  0  0  0  0  0
   -0.0275   -0.2062    0.0000 C   0  0  3  0  0  0  0  0  0  0  0  0
    2.8048   -0.2200    0.0000 C   0  0  0  0  0  0  0  0  0  0  0  0
   -0.7424    1.0175    0.0000 C   0  0  0  0  0  0  0  0  0  0  0  0
    2.8048   -1.0587    0.0000 C   0  0  0  0  0  0  0  0  0  0  0  0
   -0.0412   -1.0312    0.0000 C   0  0  0  0  0  0  0  0  0  0  0  0
   -2.8873    1.4574    0.0000 C   0  0  0  0  0  0  0  0  0  0  0  0
   -0.7562   -1.4436    0.0000 C   0  0  0  0  0  0  0  0  0  0  0  0
   -2.1586    2.6948    0.0000 C   0  0  0  0  0  0  0  0  0  0  0  0
   -1.7874    0.3575    0.0000 C   0  0  0  0  0  0  0  0  0  0  0  0
   -2.8873    2.2824    0.0000 C   0  0  0  0  0  0  0  0  0  0  0  0
    3.5198   -1.4849    0.0000 C   0  0  0  0  0  0  0  0  0  0  0  0
    2.1036   -1.4574    0.0000 C   0  0  0  0  0  0  0  0  0  0  0  0
   -1.4849   -1.0312    0.0000 C   0  0  0  0  0  0  0  0  0  0  0  0
   -0.7837   -2.2686    0.0000 C   0  0  0  0  0  0  0  0  0  0  0  0
   -2.2136   -2.2548    0.0000 C   0  0  0  0  0  0  0  0  0  0  0  0
   -2.1861   -1.4299    0.0000 C   0  0  0  0  0  0  0  0  0  0  0  0
   -1.4849   -2.6673    0.0000 C   0  0  0  0  0  0  0  0  0  0  0  0
    3.5060   -2.2961    0.0000 C   0  0  0  0  0  0  0  0  0  0  0  0
    2.0898   -2.2824    0.0000 C   0  0  0  0  0  0  0  0  0  0  0  0
    2.8048   -2.6948    0.0000 C   0  0  0  0  0  0  0  0  0  0  0  0
   -3.6435   -2.2548    0.0000 C   0  0  0  0  0  0  0  0  0  0  0  0
  1 10  1  0  0  0  0
  1 12  1  0  0  0  0
  2 11  2  0  0  0  0
 16  3  1  1  0  0  0
  4 17  2  0  0  0  0
  5 20  2  0  0  0  0
  6 32  1  0  0  0  0
  6 38  1  0  0  0  0
 13  7  1  6  0  0  0
  7 17  1  0  0  0  0
 18  8  1  6  0  0  0
  8 20  1  0  0  0  0
  9 15  1  0  0  0  0
  9 25  1  0  0  0  0
 10 11  1  6  0  0  0
 10 12  1  0  0  0  0
 10 14  1  1  0  0  0
 11 13  1  0  0  0  0
 13 19  1  0  0  0  0
 15 16  1  0  0  0  0
 15 20  1  1  0  0  0
 16 23  1  0  0  0  0
 16 26  1  6  0  0  0
 17 18  1  0  0  0  0
 18 22  1  0  0  0  0
 19 21  1  0  0  0  0
 21 28  2  0  0  0  0
 21 29  1  0  0  0  0
 22 24  1  0  0  0  0
 23 27  1  0  0  0  0
 24 30  2  0  0  0  0
 24 31  1  0  0  0  0
 25 27  1  0  0  0  0
 28 35  1  0  0  0  0
 29 36  2  0  0  0  0
 30 33  1  0  0  0  0
 31 34  2  0  0  0  0
 32 33  2  0  0  0  0
 32 34  1  0  0  0  0
 35 37  2  0  0  0  0
 36 37  1  0  0  0  0
M  END
> <PUBCHEM_COMPOUND_ID_TYPE>
0

> <PUBCHEM_TOTAL_CHARGE>
0

> <PUBCHEM_SUBSTANCE_ID>
310945975

> <PUBCHEM_SUBSTANCE_VERSION>
1

> <PUBCHEM_EXT_DATASOURCE_NAME>
4488

> <PUBCHEM_EXT_DATASOURCE_REGID>
SCHEMBL16124080

> <PUBCHEM_SUBSTANCE_COMMENT>
InChI=1S/C29H37N3O6/c1-28(36)14-7-15-30-24(28)27(35)32-23(17-20-10-12-21(37-3)13-11-20)26(34)31-22(25(33)29(2)18-38-29)16-19-8-5-4-6-9-19/h4-6,8-13,22-24,30,36H,7,14-18H2,1-3H3,(H,31,34)(H,32,35)/t22-,23-,24-,28-,29+/m0/s1
InChIKey=DVHXUPQSYAIDCE-LWFUOOIRSA-N

> <PUBCHEM_SUBSTANCE_SYNONYM>
SCHEMBL16124080

> <PUBCHEM_XREF_EXT_ID>
SCHEMBL16124080

> <PUBCHEM_EXT_DATASOURCE_URL>
https://www.surechembl.org/

> <PUBCHEM_EXT_SUBSTANCE_URL>
https://www.surechembl.org/chemical/SCHEMBL16124080

> <PUBCHEM_CID_ASSOCIATIONS>
117611951  1

> <PUBCHEM_COORDINATE_TYPE>
1
3

> <PUBCHEM_BONDANNOTATIONS>
10  11  6
10  14  5
15  20  5
16  26  6
16  3  5
13  7  6
18  8  6

$$$$
