310940327
  -OEChem-07211613022D

 24 26  0     0  0  0  0  0  0999 V2000
    3.9321    1.7645    0.0000 Cl  0  0  0  0  0  0  0  0  0  0  0  0
   -0.4488    1.5972    0.0000 O   0  0  0  0  0  0  0  0  0  0  0  0
    2.5783   -1.2930    0.0000 O   0  0  0  0  0  0  0  0  0  0  0  0
    1.5896    0.0609    0.0000 N   0  0  0  0  0  0  0  0  0  0  0  0
    1.1789   -0.6541    0.0000 N   0  0  0  0  0  0  0  0  0  0  0  0
    0.3575   -0.4868    0.0000 N   0  0  0  0  0  0  0  0  0  0  0  0
    2.4262    0.1369    0.0000 C   0  0  0  0  0  0  0  0  0  0  0  0
    0.2815    0.3347    0.0000 C   0  0  0  0  0  0  0  0  0  0  0  0
    1.0268    0.6845    0.0000 C   0  0  0  0  0  0  0  0  0  0  0  0
   -0.4640    0.7453    0.0000 C   0  0  0  0  0  0  0  0  0  0  0  0
    2.9129   -0.5172    0.0000 C   0  0  0  0  0  0  0  0  0  0  0  0
   -1.1637    0.3499    0.0000 C   0  0  0  0  0  0  0  0  0  0  0  0
    2.7761    0.9126    0.0000 C   0  0  0  0  0  0  0  0  0  0  0  0
    3.5823    0.9887    0.0000 C   0  0  0  0  0  0  0  0  0  0  0  0
    3.7496   -0.4260    0.0000 C   0  0  0  0  0  0  0  0  0  0  0  0
   -1.8937    0.7453    0.0000 C   0  0  0  0  0  0  0  0  0  0  0  0
   -1.1789   -0.4868    0.0000 C   0  0  0  0  0  0  0  0  0  0  0  0
    4.0690    0.3347    0.0000 C   0  0  0  0  0  0  0  0  0  0  0  0
   -2.6240   -0.4868    0.0000 C   0  0  0  0  0  0  0  0  0  0  0  0
   -2.5936    0.3499    0.0000 C   0  0  0  0  0  0  0  0  0  0  0  0
   -1.8786   -0.8974    0.0000 C   0  0  0  0  0  0  0  0  0  0  0  0
   -3.3388   -0.8974    0.0000 C   0  0  0  0  0  0  0  0  0  0  0  0
   -4.0690   -0.5172    0.0000 C   0  0  0  0  0  0  0  0  0  0  0  0
   -3.3236   -1.7645    0.0000 C   0  0  0  0  0  0  0  0  0  0  0  0
  1 14  1  0  0  0  0
  2 10  2  0  0  0  0
  3 11  1  0  0  0  0
  4  5  1  0  0  0  0
  4  7  1  0  0  0  0
  4  9  1  0  0  0  0
  5  6  2  0  0  0  0
  6  8  1  0  0  0  0
  7 11  2  0  0  0  0
  7 13  1  0  0  0  0
  8  9  2  0  0  0  0
  8 10  1  0  0  0  0
 10 12  1  0  0  0  0
 11 15  1  0  0  0  0
 12 16  2  0  0  0  0
 12 17  1  0  0  0  0
 13 14  2  0  0  0  0
 14 18  1  0  0  0  0
 15 18  2  0  0  0  0
 16 20  1  0  0  0  0
 17 21  2  0  0  0  0
 19 20  2  0  0  0  0
 19 21  1  0  0  0  0
 19 22  1  0  0  0  0
 22 23  1  0  0  0  0
 22 24  1  0  0  0  0
M  END
> <PUBCHEM_COMPOUND_ID_TYPE>
0

> <PUBCHEM_TOTAL_CHARGE>
0

> <PUBCHEM_SUBSTANCE_ID>
310940327

> <PUBCHEM_SUBSTANCE_VERSION>
1

> <PUBCHEM_EXT_DATASOURCE_NAME>
4488

> <PUBCHEM_EXT_DATASOURCE_REGID>
SCHEMBL16118271

> <PUBCHEM_SUBSTANCE_COMMENT>
InChI=1S/C18H16ClN3O2/c1-11(2)12-3-5-13(6-4-12)18(24)15-10-22(21-20-15)16-9-14(19)7-8-17(16)23/h3-11,23H,1-2H3
InChIKey=JJWZACPHEQDBJI-UHFFFAOYSA-N

> <PUBCHEM_SUBSTANCE_SYNONYM>
SCHEMBL16118271

> <PUBCHEM_XREF_EXT_ID>
SCHEMBL16118271

> <PUBCHEM_EXT_DATASOURCE_URL>
https://www.surechembl.org/

> <PUBCHEM_EXT_SUBSTANCE_URL>
https://www.surechembl.org/chemical/SCHEMBL16118271

> <PUBCHEM_CID_ASSOCIATIONS>
86296493  1

> <PUBCHEM_COORDINATE_TYPE>
1
3

$$$$
