310938940
  -OEChem-07211613022D

 22 23  0     1  0  0  0  0  0999 V2000
    0.7791  -11.7736    0.0000 N   0  0  0  0  0  0  0  0  0  0  0  0
   -0.3479   -9.8216    0.0000 N   0  0  0  0  0  0  0  0  0  0  0  0
    0.0646  -11.3611    0.0000 C   0  0  0  0  0  0  0  0  0  0  0  0
   -0.3479  -10.6466    0.0000 C   0  0  0  0  0  0  0  0  0  0  0  0
   -0.7604  -11.3611    0.0000 C   0  0  0  0  0  0  0  0  0  0  0  0
    0.7791  -12.5986    0.0000 C   0  0  0  0  0  0  0  0  0  0  0  0
    1.4936  -11.3611    0.0000 C   0  0  0  0  0  0  0  0  0  0  0  0
   -1.4748  -11.7736    0.0000 C   0  0  0  0  0  0  0  0  0  0  0  0
    0.3666   -9.4091    0.0000 C   0  0  3  0  0  0  0  0  0  0  0  0
    0.3666   -8.5841    0.0000 C   0  0  0  0  0  0  0  0  0  0  0  0
    1.0811   -9.8216    0.0000 C   0  0  0  0  0  0  0  0  0  0  0  0
    1.0811   -8.1716    0.0000 C   0  0  0  0  0  0  0  0  0  0  0  0
    1.4936  -13.0111    0.0000 C   0  0  0  0  0  0  0  0  0  0  0  0
    0.0646  -13.0111    0.0000 C   0  0  0  0  0  0  0  0  0  0  0  0
    1.4936  -10.5361    0.0000 C   0  0  0  0  0  0  0  0  0  0  0  0
    2.2080  -11.7736    0.0000 C   0  0  0  0  0  0  0  0  0  0  0  0
    1.7955   -8.5841    0.0000 C   0  0  0  0  0  0  0  0  0  0  0  0
    1.0811   -7.3466    0.0000 C   0  0  0  0  0  0  0  0  0  0  0  0
    1.7955   -9.4091    0.0000 C   0  0  0  0  0  0  0  0  0  0  0  0
    2.5100   -8.1716    0.0000 C   0  0  0  0  0  0  0  0  0  0  0  0
    1.7955   -6.9341    0.0000 C   0  0  0  0  0  0  0  0  0  0  0  0
    2.5100   -7.3466    0.0000 C   0  0  0  0  0  0  0  0  0  0  0  0
  1  3  1  0  0  0  0
  1  6  1  0  0  0  0
  1  7  1  0  0  0  0
  2  4  2  0  0  0  0
  9  2  1  1  0  0  0
  3  4  1  0  0  0  0
  3  5  2  0  0  0  0
  4  5  1  0  0  0  0
  5  8  1  0  0  0  0
  6 13  1  0  0  0  0
  6 14  1  0  0  0  0
  7 15  1  0  0  0  0
  7 16  1  0  0  0  0
  9 10  1  0  0  0  0
  9 11  1  0  0  0  0
 10 12  1  0  0  0  0
 11 19  1  0  0  0  0
 12 17  2  0  0  0  0
 12 18  1  0  0  0  0
 17 20  1  0  0  0  0
 18 21  2  0  0  0  0
 20 22  2  0  0  0  0
 21 22  1  0  0  0  0
M  END
> <PUBCHEM_COMPOUND_ID_TYPE>
0

> <PUBCHEM_TOTAL_CHARGE>
0

> <PUBCHEM_SUBSTANCE_ID>
310938940

> <PUBCHEM_SUBSTANCE_VERSION>
1

> <PUBCHEM_EXT_DATASOURCE_NAME>
4488

> <PUBCHEM_EXT_DATASOURCE_REGID>
SCHEMBL16116859

> <PUBCHEM_SUBSTANCE_COMMENT>
InChI=1S/C20H30N2/c1-7-18(13-17-11-9-8-10-12-17)21-19-16(6)20(19)22(14(2)3)15(4)5/h8-12,14-15,18H,7,13H2,1-6H3/b21-19-/t18-/m1/s1
InChIKey=CFDNCQXBKMBMCK-IDYLYPCZSA-N

> <PUBCHEM_SUBSTANCE_SYNONYM>
SCHEMBL16116859

> <PUBCHEM_XREF_EXT_ID>
SCHEMBL16116859

> <PUBCHEM_EXT_DATASOURCE_URL>
https://www.surechembl.org/

> <PUBCHEM_EXT_SUBSTANCE_URL>
https://www.surechembl.org/chemical/SCHEMBL16116859

> <PUBCHEM_CID_ASSOCIATIONS>
117606335  1

> <PUBCHEM_COORDINATE_TYPE>
1
3

> <PUBCHEM_BONDANNOTATIONS>
9  2  5

$$$$
