310932689
  -OEChem-07211613022D

 13 14  0     0  0  0  0  0  0999 V2000
    2.8380   -3.3001    0.0000 Br  0  0  0  0  0  0  0  0  0  0  0  0
    0.0000   -0.8250    0.0000 O   0  0  0  0  0  0  0  0  0  0  0  0
    1.4355   -0.8250    0.0000 N   0  0  0  0  0  0  0  0  0  0  0  0
    2.1615   -1.2376    0.0000 C   0  0  0  0  0  0  0  0  0  0  0  0
    2.1615   -2.0626    0.0000 C   0  0  0  0  0  0  0  0  0  0  0  0
    2.8546   -2.4751    0.0000 C   0  0  0  0  0  0  0  0  0  0  0  0
    0.7095   -1.2376    0.0000 C   0  0  0  0  0  0  0  0  0  0  0  0
    1.4355   -2.4751    0.0000 C   0  0  0  0  0  0  0  0  0  0  0  0
    2.8546   -0.8250    0.0000 C   0  0  0  0  0  0  0  0  0  0  0  0
    0.7095   -2.0626    0.0000 C   0  0  0  0  0  0  0  0  0  0  0  0
    3.5806   -2.0626    0.0000 C   0  0  0  0  0  0  0  0  0  0  0  0
    3.5806   -1.2376    0.0000 C   0  0  0  0  0  0  0  0  0  0  0  0
    1.4355    0.0000    0.0000 C   0  0  0  0  0  0  0  0  0  0  0  0
  1  6  1  0  0  0  0
  2  7  2  0  0  0  0
  3  4  1  0  0  0  0
  3  7  1  0  0  0  0
  3 13  1  0  0  0  0
  4  5  2  0  0  0  0
  4  9  1  0  0  0  0
  5  6  1  0  0  0  0
  5  8  1  0  0  0  0
  6 11  2  0  0  0  0
  7 10  1  0  0  0  0
  8 10  1  0  0  0  0
  9 12  2  0  0  0  0
 11 12  1  0  0  0  0
M  END
> <PUBCHEM_COMPOUND_ID_TYPE>
0

> <PUBCHEM_TOTAL_CHARGE>
0

> <PUBCHEM_SUBSTANCE_ID>
310932689

> <PUBCHEM_SUBSTANCE_VERSION>
1

> <PUBCHEM_EXT_DATASOURCE_NAME>
4488

> <PUBCHEM_EXT_DATASOURCE_REGID>
SCHEMBL16110071

> <PUBCHEM_SUBSTANCE_COMMENT>
InChI=1S/C10H10BrNO/c1-12-9-4-2-3-8(11)7(9)5-6-10(12)13/h2-4H,5-6H2,1H3
InChIKey=CRGXIJDBSHMTOC-UHFFFAOYSA-N

> <PUBCHEM_SUBSTANCE_SYNONYM>
SCHEMBL16110071

> <PUBCHEM_XREF_EXT_ID>
SCHEMBL16110071

> <PUBCHEM_EXT_DATASOURCE_URL>
https://www.surechembl.org/

> <PUBCHEM_EXT_SUBSTANCE_URL>
https://www.surechembl.org/chemical/SCHEMBL16110071

> <PUBCHEM_CID_ASSOCIATIONS>
117601201  1

> <PUBCHEM_COORDINATE_TYPE>
1
3

$$$$
