310938880
  -OEChem-07211613022D

 12 12  0     0  0  0  0  0  0999 V2000
   -0.5385    0.8615    0.0000 O   0  0  0  0  0  0  0  0  0  0  0  0
    0.1939   -0.5600    0.0000 N   0  0  0  0  0  0  0  0  0  0  0  0
   -1.3139   -0.5600    0.0000 C   0  0  0  0  0  0  0  0  0  0  0  0
   -0.5385   -0.1149    0.0000 C   0  0  0  0  0  0  0  0  0  0  0  0
   -2.0749   -0.8615    0.0000 C   0  0  0  0  0  0  0  0  0  0  0  0
   -1.5867   -0.1005    0.0000 C   0  0  0  0  0  0  0  0  0  0  0  0
   -2.9078   -0.5600    0.0000 C   0  0  0  0  0  0  0  0  0  0  0  0
   -2.6062   -0.0862    0.0000 C   0  0  0  0  0  0  0  0  0  0  0  0
    0.8400   -0.1580    0.0000 C   0  0  0  0  0  0  0  0  0  0  0  0
    1.5436   -0.5888    0.0000 C   0  0  0  0  0  0  0  0  0  0  0  0
    2.1468   -0.2154    0.0000 C   0  0  0  0  0  0  0  0  0  0  0  0
    2.9078    0.2728    0.0000 C   0  0  0  0  0  0  0  0  0  0  0  0
  1  4  2  0  0  0  0
  2  4  1  0  0  0  0
  2  9  1  0  0  0  0
  3  4  1  0  0  0  0
  3  5  2  0  0  0  0
  3  6  1  0  0  0  0
  5  7  1  0  0  0  0
  6  8  1  0  0  0  0
  7  8  2  0  0  0  0
  9 10  1  0  0  0  0
 10 11  1  0  0  0  0
 11 12  3  0  0  0  0
M  END
> <PUBCHEM_COMPOUND_ID_TYPE>
0

> <PUBCHEM_TOTAL_CHARGE>
0

> <PUBCHEM_SUBSTANCE_ID>
310938880

> <PUBCHEM_SUBSTANCE_VERSION>
1

> <PUBCHEM_EXT_DATASOURCE_NAME>
4488

> <PUBCHEM_EXT_DATASOURCE_REGID>
SCHEMBL16116799

> <PUBCHEM_SUBSTANCE_COMMENT>
InChI=1S/C10H11NO/c1-2-3-8-11-10(12)9-6-4-5-7-9/h1,4-6H,3,7-8H2,(H,11,12)
InChIKey=MCUGWXKGHMOADB-UHFFFAOYSA-N

> <PUBCHEM_SUBSTANCE_SYNONYM>
SCHEMBL16116799

> <PUBCHEM_XREF_EXT_ID>
SCHEMBL16116799

> <PUBCHEM_EXT_DATASOURCE_URL>
https://www.surechembl.org/

> <PUBCHEM_EXT_SUBSTANCE_URL>
https://www.surechembl.org/chemical/SCHEMBL16116799

> <PUBCHEM_CID_ASSOCIATIONS>
117606278  1

> <PUBCHEM_COORDINATE_TYPE>
1
3

$$$$
