310929876
  -OEChem-07211613022D

 24 24  0     1  0  0  0  0  0999 V2000
    2.2540    0.0000    0.0000 O   0  0  0  0  0  0  0  0  0  0  0  0
    2.9685    1.2375    0.0000 O   0  0  0  0  0  0  0  0  0  0  0  0
    5.1119   -0.8250    0.0000 O   0  0  0  0  0  0  0  0  0  0  0  0
    5.8264    0.4125    0.0000 O   0  0  0  0  0  0  0  0  0  0  0  0
    3.6829    0.0000    0.0000 N   0  0  0  0  0  0  0  0  0  0  0  0
    1.5395    0.4125    0.0000 C   0  0  3  0  0  0  0  0  0  0  0  0
    0.7145    0.4125    0.0000 C   0  0  3  0  0  0  0  0  0  0  0  0
    1.1270    1.1270    0.0000 C   0  0  0  0  0  0  0  0  0  0  0  0
    4.3975    0.4125    0.0000 C   0  0  3  0  0  0  0  0  0  0  0  0
    4.3975    1.2375    0.0000 C   0  0  0  0  0  0  0  0  0  0  0  0
    2.9685    0.4125    0.0000 C   0  0  0  0  0  0  0  0  0  0  0  0
    0.0000    0.0000    0.0000 C   0  0  0  0  0  0  0  0  0  0  0  0
    5.1119    0.0000    0.0000 C   0  0  0  0  0  0  0  0  0  0  0  0
   -0.7145    0.4125    0.0000 C   0  0  0  0  0  0  0  0  0  0  0  0
    5.1119    1.6500    0.0000 C   0  0  0  0  0  0  0  0  0  0  0  0
    3.6829    1.6500    0.0000 C   0  0  0  0  0  0  0  0  0  0  0  0
    4.3975    2.0625    0.0000 C   0  0  0  0  0  0  0  0  0  0  0  0
   -1.4290    0.0000    0.0000 C   0  0  0  0  0  0  0  0  0  0  0  0
   -3.5724    1.2375    0.0000 C   0  0  0  0  0  0  0  0  0  0  0  0
   -2.1435    0.4125    0.0000 C   0  0  0  0  0  0  0  0  0  0  0  0
   -2.8579    0.8250    0.0000 C   0  0  0  0  0  0  0  0  0  0  0  0
   -4.2869    0.8250    0.0000 C   0  0  0  0  0  0  0  0  0  0  0  0
   -4.2869    1.6500    0.0000 C   0  0  0  0  0  0  0  0  0  0  0  0
   -3.5724    2.0625    0.0000 C   0  0  0  0  0  0  0  0  0  0  0  0
  6  1  1  1  0  0  0
  1 11  1  0  0  0  0
  2 11  2  0  0  0  0
  3 13  2  0  0  0  0
  4 13  1  0  0  0  0
  5  9  1  0  0  0  0
  5 11  1  0  0  0  0
  6  7  1  0  0  0  0
  6  8  1  0  0  0  0
  7  8  1  0  0  0  0
  7 12  1  6  0  0  0
  9 10  1  0  0  0  0
  9 13  1  0  0  0  0
 10 15  1  0  0  0  0
 10 16  1  0  0  0  0
 10 17  1  0  0  0  0
 12 14  1  0  0  0  0
 14 18  1  0  0  0  0
 18 20  1  0  0  0  0
 19 21  1  0  0  0  0
 19 22  1  0  0  0  0
 19 23  1  0  0  0  0
 19 24  1  0  0  0  0
 20 21  3  0  0  0  0
M  END
> <PUBCHEM_COMPOUND_ID_TYPE>
0

> <PUBCHEM_TOTAL_CHARGE>
0

> <PUBCHEM_SUBSTANCE_ID>
310929876

> <PUBCHEM_SUBSTANCE_VERSION>
1

> <PUBCHEM_EXT_DATASOURCE_NAME>
4488

> <PUBCHEM_EXT_DATASOURCE_REGID>
SCHEMBL16107092

> <PUBCHEM_SUBSTANCE_COMMENT>
InChI=1S/C19H31NO4/c1-18(2,3)11-9-7-8-10-13-12-14(13)24-17(23)20-15(16(21)22)19(4,5)6/h13-15H,7-8,10,12H2,1-6H3,(H,20,23)(H,21,22)/t13-,14-,15?/m1/s1
InChIKey=MFOIWDIPHJEECA-GRKKQISMSA-N

> <PUBCHEM_SUBSTANCE_SYNONYM>
SCHEMBL16107092

> <PUBCHEM_XREF_EXT_ID>
SCHEMBL16107092

> <PUBCHEM_EXT_DATASOURCE_URL>
https://www.surechembl.org/

> <PUBCHEM_EXT_SUBSTANCE_URL>
https://www.surechembl.org/chemical/SCHEMBL16107092

> <PUBCHEM_CID_ASSOCIATIONS>
117599144  1

> <PUBCHEM_COORDINATE_TYPE>
1
3

> <PUBCHEM_BONDANNOTATIONS>
6  1  5
7  12  6

$$$$
