310933869
  -OEChem-07211613022D

 24 26  0     0  0  0  0  0  0999 V2000
    6.5539   -0.7333    0.0000 S   0  0  0  0  0  0  0  0  0  0  0  0
    0.8937   -2.1311    0.0000 F   0  0  0  0  0  0  0  0  0  0  0  0
    2.9561   -3.4832    0.0000 O   0  0  0  0  0  0  0  0  0  0  0  0
    3.6207    0.0000    0.0000 O   0  0  0  0  0  0  0  0  0  0  0  0
    2.7957   -1.4437    0.0000 O   0  0  0  0  0  0  0  0  0  0  0  0
    4.4457   -1.4437    0.0000 N   0  0  0  0  0  0  0  0  0  0  0  0
    3.5748   -2.9103    0.0000 N   0  0  0  0  0  0  0  0  0  0  0  0
    3.6207   -1.4437    0.0000 N   0  0  0  0  0  0  0  0  0  0  0  0
    4.8582   -0.7333    0.0000 C   0  0  0  0  0  0  0  0  0  0  0  0
    4.0332   -0.7333    0.0000 C   0  0  0  0  0  0  0  0  0  0  0  0
    2.2457   -3.0707    0.0000 C   0  0  0  0  0  0  0  0  0  0  0  0
    3.2311   -2.1770    0.0000 C   0  0  0  0  0  0  0  0  0  0  0  0
    1.4895   -3.4145    0.0000 C   0  0  0  0  0  0  0  0  0  0  0  0
    5.2935   -1.4437    0.0000 C   0  0  0  0  0  0  0  0  0  0  0  0
    5.2935   -0.0229    0.0000 C   0  0  0  0  0  0  0  0  0  0  0  0
    2.4062   -2.2687    0.0000 C   0  0  0  0  0  0  0  0  0  0  0  0
    3.8040   -1.6041    0.0000 C   0  0  0  0  0  0  0  0  0  0  0  0
    0.8249   -2.9561    0.0000 C   0  0  0  0  0  0  0  0  0  0  0  0
    6.1185   -1.4437    0.0000 C   0  0  0  0  0  0  0  0  0  0  0  0
    6.1185   -0.0229    0.0000 C   0  0  0  0  0  0  0  0  0  0  0  0
    1.4208   -4.2394    0.0000 C   0  0  0  0  0  0  0  0  0  0  0  0
    0.0917   -3.2999    0.0000 C   0  0  0  0  0  0  0  0  0  0  0  0
    0.6875   -4.5831    0.0000 C   0  0  0  0  0  0  0  0  0  0  0  0
    0.0000   -4.1019    0.0000 C   0  0  0  0  0  0  0  0  0  0  0  0
  1 19  1  0  0  0  0
  1 20  1  0  0  0  0
  2 18  1  0  0  0  0
  3  7  1  0  0  0  0
  3 11  1  0  0  0  0
  4 10  2  0  0  0  0
  5  8  1  0  0  0  0
  6  9  1  0  0  0  0
  6 17  1  0  0  0  0
  7 12  2  0  0  0  0
  8 10  1  0  0  0  0
  9 10  1  0  0  0  0
  9 14  1  0  0  0  0
  9 15  1  0  0  0  0
 11 13  1  0  0  0  0
 11 16  2  0  0  0  0
 12 16  1  0  0  0  0
 12 17  1  0  0  0  0
 13 18  1  0  0  0  0
 13 21  2  0  0  0  0
 14 19  1  0  0  0  0
 15 20  1  0  0  0  0
 18 22  2  0  0  0  0
 21 23  1  0  0  0  0
 22 24  1  0  0  0  0
 23 24  2  0  0  0  0
M  END
> <PUBCHEM_COMPOUND_ID_TYPE>
0

> <PUBCHEM_TOTAL_CHARGE>
0

> <PUBCHEM_SUBSTANCE_ID>
310933869

> <PUBCHEM_SUBSTANCE_VERSION>
1

> <PUBCHEM_EXT_DATASOURCE_NAME>
4488

> <PUBCHEM_EXT_DATASOURCE_REGID>
SCHEMBL16111308

> <PUBCHEM_SUBSTANCE_COMMENT>
InChI=1S/C16H18FN3O3S/c17-13-4-2-1-3-12(13)14-9-11(20-23-14)10-18-16(15(21)19-22)5-7-24-8-6-16/h1-4,9,18,22H,5-8,10H2,(H,19,21)
InChIKey=MRJLNAKNFUWXAC-UHFFFAOYSA-N

> <PUBCHEM_SUBSTANCE_SYNONYM>
SCHEMBL16111308

> <PUBCHEM_XREF_EXT_ID>
SCHEMBL16111308

> <PUBCHEM_EXT_DATASOURCE_URL>
https://www.surechembl.org/

> <PUBCHEM_EXT_SUBSTANCE_URL>
https://www.surechembl.org/chemical/SCHEMBL16111308

> <PUBCHEM_CID_ASSOCIATIONS>
117602206  1

> <PUBCHEM_COORDINATE_TYPE>
1
3

$$$$
