310932155
  -OEChem-07211613022D

 21 22  0     0  0  0  0  0  0999 V2000
    1.4234   -2.8715    0.0000 O   0  0  0  0  0  0  0  0  0  0  0  0
    2.1598   -4.9085    0.0000 O   0  0  0  0  0  0  0  0  0  0  0  0
    2.8469   -3.6813    0.0000 N   0  0  0  0  0  0  0  0  0  0  0  0
    2.1352   -1.6443    0.0000 N   0  0  0  0  0  0  0  0  0  0  0  0
    2.8469   -2.8715    0.0000 C   0  0  0  0  0  0  0  0  0  0  0  0
    3.5586   -4.0986    0.0000 C   0  0  0  0  0  0  0  0  0  0  0  0
    4.2704   -3.6813    0.0000 C   0  0  0  0  0  0  0  0  0  0  0  0
    2.1352   -2.4542    0.0000 C   0  0  0  0  0  0  0  0  0  0  0  0
    2.1598   -4.0986    0.0000 C   0  0  0  0  0  0  0  0  0  0  0  0
    1.4480   -1.2271    0.0000 C   0  0  0  0  0  0  0  0  0  0  0  0
    4.9821   -4.0986    0.0000 C   0  0  0  0  0  0  0  0  0  0  0  0
    4.2704   -2.8715    0.0000 C   0  0  0  0  0  0  0  0  0  0  0  0
    0.7117   -1.6198    0.0000 C   0  0  0  0  0  0  0  0  0  0  0  0
    1.4234   -0.3927    0.0000 C   0  0  0  0  0  0  0  0  0  0  0  0
    5.6939   -3.6813    0.0000 C   0  0  0  0  0  0  0  0  0  0  0  0
    4.9821   -2.4542    0.0000 C   0  0  0  0  0  0  0  0  0  0  0  0
    1.4480   -3.6813    0.0000 C   0  0  0  0  0  0  0  0  0  0  0  0
    5.6939   -2.8715    0.0000 C   0  0  0  0  0  0  0  0  0  0  0  0
    0.0246   -1.2271    0.0000 C   0  0  0  0  0  0  0  0  0  0  0  0
    0.7117    0.0000    0.0000 C   0  0  0  0  0  0  0  0  0  0  0  0
    0.0000   -0.3927    0.0000 C   0  0  0  0  0  0  0  0  0  0  0  0
  1  8  2  0  0  0  0
  2  9  2  0  0  0  0
  3  5  1  0  0  0  0
  3  6  1  0  0  0  0
  3  9  1  0  0  0  0
  4  8  1  0  0  0  0
  4 10  1  0  0  0  0
  5  8  1  0  0  0  0
  6  7  1  0  0  0  0
  7 11  2  0  0  0  0
  7 12  1  0  0  0  0
  9 17  1  0  0  0  0
 10 13  1  0  0  0  0
 10 14  1  0  0  0  0
 11 15  1  0  0  0  0
 12 16  2  0  0  0  0
 13 19  1  0  0  0  0
 14 20  1  0  0  0  0
 15 18  2  0  0  0  0
 16 18  1  0  0  0  0
 19 21  1  0  0  0  0
 20 21  1  0  0  0  0
M  END
> <PUBCHEM_COMPOUND_ID_TYPE>
0

> <PUBCHEM_TOTAL_CHARGE>
0

> <PUBCHEM_SUBSTANCE_ID>
310932155

> <PUBCHEM_SUBSTANCE_VERSION>
1

> <PUBCHEM_EXT_DATASOURCE_NAME>
4488

> <PUBCHEM_EXT_DATASOURCE_REGID>
SCHEMBL16109508

> <PUBCHEM_SUBSTANCE_COMMENT>
InChI=1S/C17H24N2O2/c1-14(20)19(12-15-8-4-2-5-9-15)13-17(21)18-16-10-6-3-7-11-16/h2,4-5,8-9,16H,3,6-7,10-13H2,1H3,(H,18,21)
InChIKey=YNEGCTACHKAGTP-UHFFFAOYSA-N

> <PUBCHEM_SUBSTANCE_SYNONYM>
SCHEMBL16109508

> <PUBCHEM_XREF_EXT_ID>
SCHEMBL16109508

> <PUBCHEM_EXT_DATASOURCE_URL>
https://www.surechembl.org/

> <PUBCHEM_EXT_SUBSTANCE_URL>
https://www.surechembl.org/chemical/SCHEMBL16109508

> <PUBCHEM_CID_ASSOCIATIONS>
113161166  1

> <PUBCHEM_COORDINATE_TYPE>
1
3

$$$$
