310948286
  -OEChem-07211613022D

 46 50  0     0  0  0  0  0  0999 V2000
    1.3804   -3.1094    0.0000 S   0  0  0  0  0  0  0  0  0  0  0  0
   -4.6571    2.8026    0.0000 F   0  0  0  0  0  0  0  0  0  0  0  0
   -4.2248    3.5137    0.0000 F   0  0  0  0  0  0  0  0  0  0  0  0
    2.8305   -0.6135    0.0000 F   0  0  0  0  0  0  0  0  0  0  0  0
    4.6571    1.1852    0.0000 F   0  0  0  0  0  0  0  0  0  0  0  0
    3.4998    1.5059    0.0000 F   0  0  0  0  0  0  0  0  0  0  0  0
    4.2945    0.0697    0.0000 F   0  0  0  0  0  0  0  0  0  0  0  0
    0.6693   -3.5137    0.0000 O   0  0  0  0  0  0  0  0  0  0  0  0
    2.1054   -2.6911    0.0000 O   0  0  0  0  0  0  0  0  0  0  0  0
    3.1791    0.3904    0.0000 O   0  0  0  0  0  0  0  0  0  0  0  0
    2.8305   -3.0954    0.0000 O   0  0  0  0  0  0  0  0  0  0  0  0
   -0.4601    1.7289    0.0000 N   0  0  0  0  0  0  0  0  0  0  0  0
   -3.0536    0.7948    0.0000 N   0  0  0  0  0  0  0  0  0  0  0  0
   -3.6950    1.3246    0.0000 N   0  0  0  0  0  0  0  0  0  0  0  0
   -1.0179    2.3425    0.0000 N   0  0  0  0  0  0  0  0  0  0  0  0
   -0.5996    3.0536    0.0000 N   0  0  0  0  0  0  0  0  0  0  0  0
   -2.3704    1.2131    0.0000 C   0  0  0  0  0  0  0  0  0  0  0  0
   -1.4083    0.6693    0.0000 C   0  0  0  0  0  0  0  0  0  0  0  0
   -0.6414    0.9063    0.0000 C   0  0  0  0  0  0  0  0  0  0  0  0
   -2.5516    2.0218    0.0000 C   0  0  0  0  0  0  0  0  0  0  0  0
   -3.3883    2.0915    0.0000 C   0  0  0  0  0  0  0  0  0  0  0  0
   -0.1952   -0.4462    0.0000 C   0  0  0  0  0  0  0  0  0  0  0  0
   -0.0279    0.3625    0.0000 C   0  0  0  0  0  0  0  0  0  0  0  0
    0.2789    2.0496    0.0000 C   0  0  0  0  0  0  0  0  0  0  0  0
   -1.5895   -0.1533    0.0000 C   0  0  0  0  0  0  0  0  0  0  0  0
    0.6693   -1.0318    0.0000 C   0  0  0  0  0  0  0  0  0  0  0  0
   -3.8205    2.8165    0.0000 C   0  0  0  0  0  0  0  0  0  0  0  0
   -0.9760   -0.6972    0.0000 C   0  0  0  0  0  0  0  0  0  0  0  0
    1.3944   -2.2588    0.0000 C   0  0  0  0  0  0  0  0  0  0  0  0
    1.0318    1.6592    0.0000 C   0  0  0  0  0  0  0  0  0  0  0  0
    0.6693   -1.8405    0.0000 C   0  0  0  0  0  0  0  0  0  0  0  0
    2.1054   -1.8405    0.0000 C   0  0  0  0  0  0  0  0  0  0  0  0
    0.2231    2.8723    0.0000 C   0  0  0  0  0  0  0  0  0  0  0  0
    1.3804   -0.6275    0.0000 C   0  0  0  0  0  0  0  0  0  0  0  0
    2.1194   -1.0179    0.0000 C   0  0  0  0  0  0  0  0  0  0  0  0
   -2.1333    2.7468    0.0000 C   0  0  0  0  0  0  0  0  0  0  0  0
   -3.5137   -0.0279    0.0000 C   0  0  0  0  0  0  0  0  0  0  0  0
    1.0318    0.8226    0.0000 C   0  0  0  0  0  0  0  0  0  0  0  0
    1.7569    2.0496    0.0000 C   0  0  0  0  0  0  0  0  0  0  0  0
   -3.3883    3.5137    0.0000 C   0  0  0  0  0  0  0  0  0  0  0  0
    2.8444   -2.2728    0.0000 C   0  0  0  0  0  0  0  0  0  0  0  0
    2.4540    0.8366    0.0000 C   0  0  0  0  0  0  0  0  0  0  0  0
    1.7429    0.4183    0.0000 C   0  0  0  0  0  0  0  0  0  0  0  0
    2.4540    1.6453    0.0000 C   0  0  0  0  0  0  0  0  0  0  0  0
    2.1054   -3.4998    0.0000 C   0  0  0  0  0  0  0  0  0  0  0  0
    3.9320    0.7808    0.0000 C   0  0  0  0  0  0  0  0  0  0  0  0
  1  8  2  0  0  0  0
  1  9  2  0  0  0  0
  1 29  1  0  0  0  0
  1 45  1  0  0  0  0
  2 27  1  0  0  0  0
  3 27  1  0  0  0  0
  4 35  1  0  0  0  0
  5 46  1  0  0  0  0
  6 46  1  0  0  0  0
  7 46  1  0  0  0  0
 10 42  1  0  0  0  0
 10 46  1  0  0  0  0
 11 41  1  0  0  0  0
 12 15  1  0  0  0  0
 12 19  1  0  0  0  0
 12 24  1  0  0  0  0
 13 14  1  0  0  0  0
 13 17  1  0  0  0  0
 13 37  1  0  0  0  0
 14 21  2  0  0  0  0
 15 16  2  0  0  0  0
 16 33  1  0  0  0  0
 17 18  1  0  0  0  0
 17 20  2  0  0  0  0
 18 19  2  0  0  0  0
 18 25  1  0  0  0  0
 19 23  1  0  0  0  0
 20 21  1  0  0  0  0
 20 36  1  0  0  0  0
 21 27  1  0  0  0  0
 22 23  2  0  0  0  0
 22 26  1  0  0  0  0
 22 28  1  0  0  0  0
 24 30  1  0  0  0  0
 24 33  2  0  0  0  0
 25 28  2  0  0  0  0
 26 31  2  0  0  0  0
 26 34  1  0  0  0  0
 27 40  1  0  0  0  0
 29 31  1  0  0  0  0
 29 32  2  0  0  0  0
 30 38  2  0  0  0  0
 30 39  1  0  0  0  0
 32 35  1  0  0  0  0
 32 41  1  0  0  0  0
 34 35  2  0  0  0  0
 38 43  1  0  0  0  0
 39 44  2  0  0  0  0
 42 43  2  0  0  0  0
 42 44  1  0  0  0  0
M  END
> <PUBCHEM_COMPOUND_ID_TYPE>
0

> <PUBCHEM_TOTAL_CHARGE>
0

> <PUBCHEM_SUBSTANCE_ID>
310948286

> <PUBCHEM_SUBSTANCE_VERSION>
1

> <PUBCHEM_EXT_DATASOURCE_NAME>
4488

> <PUBCHEM_EXT_DATASOURCE_REGID>
SCHEMBL16126463

> <PUBCHEM_SUBSTANCE_COMMENT>
InChI=1S/C30H25F6N5O4S/c1-16-27(40(3)38-28(16)29(2,32)33)21-10-7-18(19-11-23(31)22(15-42)26(13-19)46(4,43)44)12-24(21)41-25(14-37-39-41)17-5-8-20(9-6-17)45-30(34,35)36/h5-14,42H,15H2,1-4H3
InChIKey=IUWXAMLFOIALGB-UHFFFAOYSA-N

> <PUBCHEM_SUBSTANCE_SYNONYM>
SCHEMBL16126463

> <PUBCHEM_XREF_EXT_ID>
SCHEMBL16126463

> <PUBCHEM_EXT_DATASOURCE_URL>
https://www.surechembl.org/

> <PUBCHEM_EXT_SUBSTANCE_URL>
https://www.surechembl.org/chemical/SCHEMBL16126463

> <PUBCHEM_CID_ASSOCIATIONS>
117613862  1

> <PUBCHEM_COORDINATE_TYPE>
1
3

$$$$
