310949977
  -OEChem-07211613022D

128135  0     1  0  0  0  0  0999 V2000
   -6.9009   -1.1255    0.0000 S   0  0  0  0  0  0  0  0  0  0  0  0
   -1.0680    4.0831    0.0000 O   0  0  0  0  0  0  0  0  0  0  0  0
   -3.4669    2.0456    0.0000 O   0  0  0  0  0  0  0  0  0  0  0  0
    1.1008    2.4564    0.0000 O   0  0  0  0  0  0  0  0  0  0  0  0
    9.7927    0.1725    0.0000 O   0  0  0  0  0  0  0  0  0  0  0  0
    0.1150   -4.9045    0.0000 O   0  0  0  0  0  0  0  0  0  0  0  0
    6.5066   -1.8813    0.0000 O   0  0  0  0  0  0  0  0  0  0  0  0
    4.4527   -4.9045    0.0000 O   0  0  0  0  0  0  0  0  0  0  0  0
    2.2839   -3.2780    0.0000 O   0  0  0  0  0  0  0  0  0  0  0  0
    5.8658    1.8320    0.0000 O   0  0  0  0  0  0  0  0  0  0  0  0
   -2.3167   -2.5386    0.0000 O   0  0  0  0  0  0  0  0  0  0  0  0
    3.2697    4.0831    0.0000 O   0  0  0  0  0  0  0  0  0  0  0  0
   -5.0770    0.5669    0.0000 O   0  0  0  0  0  0  0  0  0  0  0  0
   -5.0770   -3.8694    0.0000 O   0  0  0  0  0  0  0  0  0  0  0  0
    4.3213    4.3952    0.0000 O   0  0  0  0  0  0  0  0  0  0  0  0
    5.3235    5.4632    0.0000 O   0  0  0  0  0  0  0  0  0  0  0  0
    2.0374   -1.5198    0.0000 O   0  0  0  0  0  0  0  0  0  0  0  0
   -7.2623   -3.6229    0.0000 O   0  0  0  0  0  0  0  0  0  0  0  0
   -4.8964   -6.0382    0.0000 O   0  0  0  0  0  0  0  0  0  0  0  0
   -9.5791   -2.4400    0.0000 O   0  0  0  0  0  0  0  0  0  0  0  0
   -0.2465    3.2451    0.0000 N   0  0  0  0  0  0  0  0  0  0  0  0
   -2.8590    3.0479    0.0000 N   0  0  0  0  0  0  0  0  0  0  0  0
   -1.1994   -2.0949    0.0000 N   0  0  0  0  0  0  0  0  0  0  0  0
    8.1332   -1.3884    0.0000 N   0  0  0  0  0  0  0  0  0  0  0  0
    1.4788   -4.1159    0.0000 N   0  0  0  0  0  0  0  0  0  0  0  0
    1.9224    3.2780    0.0000 N   0  0  0  0  0  0  0  0  0  0  0  0
    5.7178   -3.7708    0.0000 N   0  0  0  0  0  0  0  0  0  0  0  0
   -0.6900   -4.0831    0.0000 N   0  0  0  0  0  0  0  0  0  0  0  0
    3.6476   -4.0831    0.0000 N   0  0  0  0  0  0  0  0  0  0  0  0
    7.3774    2.4071    0.0000 N   0  0  0  0  0  0  0  0  0  0  0  0
   -5.8986    2.2757    0.0000 N   0  0  0  0  0  0  0  0  0  0  0  0
    4.0913    3.2451    0.0000 N   0  0  0  0  0  0  0  0  0  0  0  0
    7.2295   -4.0994    0.0000 N   0  0  0  0  0  0  0  0  0  0  0  0
   -3.4997   -3.3929    0.0000 N   0  0  0  0  0  0  0  0  0  0  0  0
    7.9196   -5.2331    0.0000 N   0  0  0  0  0  0  0  0  0  0  0  0
   -5.7836   -3.0479    0.0000 N   0  0  0  0  0  0  0  0  0  0  0  0
   -7.9360   -2.6864    0.0000 N   0  0  0  0  0  0  0  0  0  0  0  0
   -9.7927   -3.8530    0.0000 N   0  0  0  0  0  0  0  0  0  0  0  0
    0.0164   -1.5527    0.0000 C   0  0  0  0  0  0  0  0  0  0  0  0
    0.0822   -2.3743    0.0000 C   0  0  0  0  0  0  0  0  0  0  0  0
   -0.7886   -1.3720    0.0000 C   0  0  0  0  0  0  0  0  0  0  0  0
   -1.7252    2.8014    0.0000 C   0  0  3  0  0  0  0  0  0  0  0  0
   -1.0845    3.2451    0.0000 C   0  0  0  0  0  0  0  0  0  0  0  0
    0.4108    3.7544    0.0000 C   0  0  3  0  0  0  0  0  0  0  0  0
    0.8380   -2.7850    0.0000 C   0  0  0  0  0  0  0  0  0  0  0  0
   -0.6408   -2.7029    0.0000 C   0  0  0  0  0  0  0  0  0  0  0  0
    0.8051   -3.6229    0.0000 C   0  0  3  0  0  0  0  0  0  0  0  0
   -3.6476    2.8672    0.0000 C   0  0  0  0  0  0  0  0  0  0  0  0
    7.8374   -2.4728    0.0000 C   0  0  3  0  0  0  0  0  0  0  0  0
    0.5586   -0.9447    0.0000 C   0  0  0  0  0  0  0  0  0  0  0  0
    1.1008    3.2943    0.0000 C   0  0  0  0  0  0  0  0  0  0  0  0
   -1.0187   -0.5833    0.0000 C   0  0  0  0  0  0  0  0  0  0  0  0
    8.9548    0.2053    0.0000 C   0  0  0  0  0  0  0  0  0  0  0  0
   -1.7581    1.9470    0.0000 C   0  0  0  0  0  0  0  0  0  0  0  0
   -4.4363    3.1465    0.0000 C   0  0  3  0  0  0  0  0  0  0  0  0
    0.1314   -4.0666    0.0000 C   0  0  0  0  0  0  0  0  0  0  0  0
    7.0159   -2.5386    0.0000 C   0  0  0  0  0  0  0  0  0  0  0  0
    8.5440    1.7827    0.0000 C   0  0  3  0  0  0  0  0  0  0  0  0
    5.1264   -3.7215    0.0000 C   0  0  3  0  0  0  0  0  0  0  0  0
    0.3122   -0.1561    0.0000 C   0  0  0  0  0  0  0  0  0  0  0  0
   -1.0351    1.5527    0.0000 C   0  0  0  0  0  0  0  0  0  0  0  0
   -0.4929    0.0082    0.0000 C   0  0  0  0  0  0  0  0  0  0  0  0
    4.4856   -4.2309    0.0000 C   0  0  0  0  0  0  0  0  0  0  0  0
    8.3468   -3.1300    0.0000 C   0  0  0  0  0  0  0  0  0  0  0  0
    0.4108    4.5760    0.0000 C   0  0  0  0  0  0  0  0  0  0  0  0
    2.3003   -4.1159    0.0000 C   0  0  0  0  0  0  0  0  0  0  0  0
   -1.7745   -3.9023    0.0000 C   0  0  3  0  0  0  0  0  0  0  0  0
    6.0793    2.6535    0.0000 C   0  0  0  0  0  0  0  0  0  0  0  0
   -4.6335    3.9351    0.0000 C   0  0  0  0  0  0  0  0  0  0  0  0
    8.9383    2.5549    0.0000 C   0  0  0  0  0  0  0  0  0  0  0  0
    8.0182   -3.9023    0.0000 C   0  0  0  0  0  0  0  0  0  0  0  0
    0.0164    2.4400    0.0000 C   0  0  0  0  0  0  0  0  0  0  0  0
   -2.8754    3.8858    0.0000 C   0  0  0  0  0  0  0  0  0  0  0  0
    5.5207    3.2451    0.0000 C   0  0  3  0  0  0  0  0  0  0  0  0
    2.9904   -4.5595    0.0000 C   0  0  0  0  0  0  0  0  0  0  0  0
    2.6125    2.8014    0.0000 C   0  0  0  0  0  0  0  0  0  0  0  0
    5.0607   -2.8835    0.0000 C   0  0  0  0  0  0  0  0  0  0  0  0
   -2.6289   -3.1136    0.0000 C   0  0  0  0  0  0  0  0  0  0  0  0
    3.2533    3.2451    0.0000 C   0  0  0  0  0  0  0  0  0  0  0  0
   -4.0419    4.5266    0.0000 C   0  0  0  0  0  0  0  0  0  0  0  0
    8.9711   -1.2734    0.0000 C   0  0  0  0  0  0  0  0  0  0  0  0
   -0.8215    0.7476    0.0000 C   0  0  0  0  0  0  0  0  0  0  0  0
   -0.4600    2.1113    0.0000 C   0  0  0  0  0  0  0  0  0  0  0  0
    4.2884   -2.5221    0.0000 C   0  0  0  0  0  0  0  0  0  0  0  0
   -5.9150    0.7969    0.0000 C   0  0  0  0  0  0  0  0  0  0  0  0
   -1.8731   -4.7238    0.0000 C   0  0  0  0  0  0  0  0  0  0  0  0
   -0.2794    4.9703    0.0000 C   0  0  0  0  0  0  0  0  0  0  0  0
    8.4454   -4.5760    0.0000 C   0  0  0  0  0  0  0  0  0  0  0  0
    2.1688    4.0666    0.0000 C   0  0  0  0  0  0  0  0  0  0  0  0
   -2.6125   -5.0360    0.0000 C   0  0  0  0  0  0  0  0  0  0  0  0
   -4.0913   -2.8343    0.0000 C   0  0  3  0  0  0  0  0  0  0  0  0
    5.7178    4.0502    0.0000 C   0  0  0  0  0  0  0  0  0  0  0  0
   -0.0164    0.5504    0.0000 C   0  0  0  0  0  0  0  0  0  0  0  0
    0.3286    1.9141    0.0000 C   0  0  0  0  0  0  0  0  0  0  0  0
    3.4833   -3.2615    0.0000 C   0  0  0  0  0  0  0  0  0  0  0  0
   -4.2391    5.3153    0.0000 C   0  0  0  0  0  0  0  0  0  0  0  0
   -3.2368    4.2966    0.0000 C   0  0  0  0  0  0  0  0  0  0  0  0
   -4.8799   -3.0643    0.0000 C   0  0  0  0  0  0  0  0  0  0  0  0
    4.2062   -1.7335    0.0000 C   0  0  0  0  0  0  0  0  0  0  0  0
    3.6147   -3.0150    0.0000 C   0  0  0  0  0  0  0  0  0  0  0  0
    8.5275    3.2286    0.0000 C   0  0  0  0  0  0  0  0  0  0  0  0
    9.7762    2.5549    0.0000 C   0  0  0  0  0  0  0  0  0  0  0  0
    7.1802   -4.9210    0.0000 C   0  0  0  0  0  0  0  0  0  0  0  0
   -6.6872    0.3697    0.0000 C   0  0  0  0  0  0  0  0  0  0  0  0
    0.5422    1.1255    0.0000 C   0  0  0  0  0  0  0  0  0  0  0  0
    5.1264    4.6252    0.0000 C   0  0  0  0  0  0  0  0  0  0  0  0
   -6.3751   -2.4564    0.0000 C   0  0  3  0  0  0  0  0  0  0  0  0
   -3.2697   -4.5760    0.0000 C   0  0  0  0  0  0  0  0  0  0  0  0
   -2.7111   -5.8576    0.0000 C   0  0  0  0  0  0  0  0  0  0  0  0
   -3.9105   -2.0127    0.0000 C   0  0  0  0  0  0  0  0  0  0  0  0
   -0.3122    5.8082    0.0000 C   0  0  0  0  0  0  0  0  0  0  0  0
    2.8096   -1.8649    0.0000 C   0  0  0  0  0  0  0  0  0  0  0  0
    3.4669   -1.3884    0.0000 C   0  0  0  0  0  0  0  0  0  0  0  0
    2.8754   -2.6700    0.0000 C   0  0  0  0  0  0  0  0  0  0  0  0
   -3.6476    5.8904    0.0000 C   0  0  0  0  0  0  0  0  0  0  0  0
   -2.6618    4.8717    0.0000 C   0  0  0  0  0  0  0  0  0  0  0  0
   -6.2272   -1.6513    0.0000 C   0  0  0  0  0  0  0  0  0  0  0  0
   -7.1309   -2.8014    0.0000 C   0  0  0  0  0  0  0  0  0  0  0  0
   -2.8590    5.6604    0.0000 C   0  0  0  0  0  0  0  0  0  0  0  0
   -4.1405   -5.7097    0.0000 C   0  0  0  0  0  0  0  0  0  0  0  0
   -4.0255   -4.8881    0.0000 C   0  0  0  0  0  0  0  0  0  0  0  0
   -3.4504   -6.1862    0.0000 C   0  0  0  0  0  0  0  0  0  0  0  0
   -4.5349   -1.4541    0.0000 C   0  0  0  0  0  0  0  0  0  0  0  0
   -1.0187    6.1862    0.0000 C   0  0  0  0  0  0  0  0  0  0  0  0
   -4.3541   -0.6490    0.0000 C   0  0  0  0  0  0  0  0  0  0  0  0
   -5.3235   -1.7170    0.0000 C   0  0  0  0  0  0  0  0  0  0  0  0
   -8.4454   -3.3272    0.0000 C   0  0  0  0  0  0  0  0  0  0  0  0
   -9.2669   -3.1958    0.0000 C   0  0  0  0  0  0  0  0  0  0  0  0
  1104  1  0  0  0  0
  1117  1  0  0  0  0
  2 43  2  0  0  0  0
  3 48  2  0  0  0  0
  4 51  2  0  0  0  0
  5 53  2  0  0  0  0
  6 56  2  0  0  0  0
  7 57  2  0  0  0  0
  8 63  2  0  0  0  0
  9 66  2  0  0  0  0
 10 68  2  0  0  0  0
 11 78  2  0  0  0  0
 12 79  2  0  0  0  0
 13 85  2  0  0  0  0
 14 98  2  0  0  0  0
 15106  2  0  0  0  0
 16106  1  0  0  0  0
 17112  1  0  0  0  0
 18118  2  0  0  0  0
 19120  1  0  0  0  0
 20128  2  0  0  0  0
 21 43  1  0  0  0  0
 21 44  1  0  0  0  0
 21 72  1  0  0  0  0
 22 42  1  0  0  0  0
 22 48  1  0  0  0  0
 22 73  1  0  0  0  0
 23 41  1  0  0  0  0
 23 46  1  0  0  0  0
 24 49  1  0  0  0  0
 24 53  1  0  0  0  0
 24 81  1  0  0  0  0
 25 47  1  0  0  0  0
 25 66  1  0  0  0  0
 26 51  1  0  0  0  0
 26 76  1  0  0  0  0
 26 89  1  0  0  0  0
 27 57  1  0  0  0  0
 27 59  1  0  0  0  0
 28 56  1  0  0  0  0
 28 67  1  0  0  0  0
 29 63  1  0  0  0  0
 29 75  1  0  0  0  0
 29 95  1  0  0  0  0
 30 58  1  0  0  0  0
 30 68  1  0  0  0  0
 31 55  1  0  0  0  0
 31 85  1  0  0  0  0
 32 74  1  0  0  0  0
 32 79  1  0  0  0  0
 33 71  1  0  0  0  0
 33103  1  0  0  0  0
 34 78  1  0  0  0  0
 34 91  1  0  0  0  0
 35 88  1  0  0  0  0
 35103  2  0  0  0  0
 36 98  1  0  0  0  0
 36107  1  0  0  0  0
 37118  1  0  0  0  0
 37127  1  0  0  0  0
 38128  1  0  0  0  0
 39 40  1  0  0  0  0
 39 41  2  0  0  0  0
 39 50  1  0  0  0  0
 40 45  1  0  0  0  0
 40 46  2  0  0  0  0
 41 52  1  0  0  0  0
 42 43  1  0  0  0  0
 42 54  1  6  0  0  0
 44 51  1  0  0  0  0
 44 65  1  1  0  0  0
 47 45  1  6  0  0  0
 47 56  1  0  0  0  0
 48 55  1  0  0  0  0
 49 57  1  0  0  0  0
 49 64  1  1  0  0  0
 50 60  2  0  0  0  0
 52 62  2  0  0  0  0
 53 58  1  0  0  0  0
 54 61  1  0  0  0  0
 55 69  1  1  0  0  0
 58 70  1  1  0  0  0
 59 63  1  0  0  0  0
 59 77  1  6  0  0  0
 60 62  1  0  0  0  0
 61 82  2  0  0  0  0
 61 83  1  0  0  0  0
 64 71  1  0  0  0  0
 65 87  1  0  0  0  0
 66 75  1  0  0  0  0
 67 78  1  0  0  0  0
 67 86  1  1  0  0  0
 68 74  1  0  0  0  0
 69 80  1  0  0  0  0
 70101  1  0  0  0  0
 70102  1  0  0  0  0
 71 88  2  0  0  0  0
 74 92  1  1  0  0  0
 76 79  1  0  0  0  0
 77 84  1  0  0  0  0
 80 96  2  0  0  0  0
 80 97  1  0  0  0  0
 82 93  1  0  0  0  0
 83 94  2  0  0  0  0
 84 99  2  0  0  0  0
 84100  1  0  0  0  0
 85104  1  0  0  0  0
 86 90  1  0  0  0  0
 87111  1  0  0  0  0
 90108  2  0  0  0  0
 90109  1  0  0  0  0
 91 98  1  0  0  0  0
 91110  1  6  0  0  0
 92106  1  0  0  0  0
 93105  2  0  0  0  0
 94105  1  0  0  0  0
 96115  1  0  0  0  0
 97116  2  0  0  0  0
 99113  1  0  0  0  0
100114  2  0  0  0  0
107117  1  0  0  0  0
107118  1  6  0  0  0
108121  1  0  0  0  0
109122  2  0  0  0  0
110123  1  0  0  0  0
111124  1  0  0  0  0
112113  2  0  0  0  0
112114  1  0  0  0  0
115119  2  0  0  0  0
116119  1  0  0  0  0
120121  2  0  0  0  0
120122  1  0  0  0  0
123125  1  0  0  0  0
123126  1  0  0  0  0
127128  1  0  0  0  0
M  END
> <PUBCHEM_COMPOUND_ID_TYPE>
0

> <PUBCHEM_TOTAL_CHARGE>
0

> <PUBCHEM_SUBSTANCE_ID>
310949977

> <PUBCHEM_SUBSTANCE_VERSION>
1

> <PUBCHEM_EXT_DATASOURCE_NAME>
4488

> <PUBCHEM_EXT_DATASOURCE_REGID>
SCHEMBL16128206

> <PUBCHEM_SUBSTANCE_COMMENT>
InChI=1S/C90H116N18O19S/c1-11-12-27-71-88(125)105(7)48-76(113)97-67(43-78(115)116)84(121)103-79(53(4)5)90(127)107(9)72(42-59-45-92-51-95-59)85(122)101-68(39-57-30-34-61(110)35-31-57)86(123)104(6)47-75(112)96-66(41-58-44-93-63-26-20-19-25-62(58)63)83(120)100-65(37-56-28-32-60(109)33-29-56)82(119)99-64(36-52(2)3)81(118)102-70(80(117)94-46-74(91)111)49-128-50-77(114)98-69(38-54-21-15-13-16-22-54)87(124)108(10)73(89(126)106(71)8)40-55-23-17-14-18-24-55/h13-26,28-35,44-45,51-53,64-73,79,93,109-110H,11-12,27,36-43,46-50H2,1-10H3,(H2,91,111)(H,92,95)(H,94,117)(H,96,112)(H,97,113)(H,98,114)(H,99,119)(H,100,120)(H,101,122)(H,102,118)(H,103,121)(H,115,116)/t64-,65-,66-,67-,68-,69-,70-,71-,72-,73-,79-/m0/s1
InChIKey=MYHQYMWMJLWCSO-BGAJETDQSA-N

> <PUBCHEM_SUBSTANCE_SYNONYM>
SCHEMBL16128206

> <PUBCHEM_XREF_EXT_ID>
SCHEMBL16128206

> <PUBCHEM_EXT_DATASOURCE_URL>
https://www.surechembl.org/

> <PUBCHEM_EXT_SUBSTANCE_URL>
https://www.surechembl.org/chemical/SCHEMBL16128206

> <PUBCHEM_CID_ASSOCIATIONS>
117615217  1

> <PUBCHEM_COORDINATE_TYPE>
1
3

> <PUBCHEM_BONDANNOTATIONS>
107  118  6
42  54  6
44  65  5
47  45  6
49  64  5
55  69  5
58  70  5
59  77  6
67  86  5
74  92  5
91  110  6

$$$$
