310942523
  -OEChem-07211613022D

 42 47  0     1  0  0  0  0  0999 V2000
    1.8370    1.0409    0.0000 O   0  0  0  0  0  0  0  0  0  0  0  0
    2.3574   -1.0563    0.0000 O   0  0  0  0  0  0  0  0  0  0  0  0
    1.0869   -0.9491    0.0000 O   0  0  0  0  0  0  0  0  0  0  0  0
    3.2759    0.6888    0.0000 N   0  0  0  0  0  0  0  0  0  0  0  0
    3.9801   -0.6276    0.0000 N   0  0  0  0  0  0  0  0  0  0  0  0
   -0.3368    0.5817    0.0000 N   0  0  3  0  0  0  0  0  0  0  0  0
    5.4190   -0.5357    0.0000 N   0  0  0  0  0  0  0  0  0  0  0  0
    4.9139    2.0819    0.0000 N   0  0  0  0  0  0  0  0  0  0  0  0
    6.0620    0.7348    0.0000 N   0  0  0  0  0  0  0  0  0  0  0  0
   -2.7248   -0.8878    0.0000 N   0  0  0  0  0  0  0  0  0  0  0  0
   -3.4137   -2.0513    0.0000 N   0  0  0  0  0  0  0  0  0  0  0  0
    2.4952    0.4899    0.0000 C   0  0  3  0  0  0  0  0  0  0  0  0
    3.9495    0.1990    0.0000 C   0  0  0  0  0  0  0  0  0  0  0  0
    4.6230    0.6430    0.0000 C   0  0  0  0  0  0  0  0  0  0  0  0
    2.1278   -0.2602    0.0000 C   0  0  3  0  0  0  0  0  0  0  0  0
    4.4087    1.4237    0.0000 C   0  0  0  0  0  0  0  0  0  0  0  0
    1.1328    0.6276    0.0000 C   0  0  3  0  0  0  0  0  0  0  0  0
    3.5974    1.4696    0.0000 C   0  0  0  0  0  0  0  0  0  0  0  0
    1.2859   -0.1837    0.0000 C   0  0  3  0  0  0  0  0  0  0  0  0
    5.3884    0.2909    0.0000 C   0  0  0  0  0  0  0  0  0  0  0  0
    0.3827    0.9950    0.0000 C   0  0  0  0  0  0  0  0  0  0  0  0
   -0.5511   -0.1990    0.0000 C   0  0  0  0  0  0  0  0  0  0  0  0
    4.7455   -0.9950    0.0000 C   0  0  0  0  0  0  0  0  0  0  0  0
   -0.8419   -1.2859    0.0000 C   0  0  0  0  0  0  0  0  0  0  0  0
   -1.2552   -0.6123    0.0000 C   0  0  0  0  0  0  0  0  0  0  0  0
   -0.1531   -0.8878    0.0000 C   0  0  0  0  0  0  0  0  0  0  0  0
   -1.0716    1.0104    0.0000 C   0  0  0  0  0  0  0  0  0  0  0  0
   -3.5515   -0.7348    0.0000 C   0  0  0  0  0  0  0  0  0  0  0  0
   -3.9648   -1.4390    0.0000 C   0  0  0  0  0  0  0  0  0  0  0  0
   -2.6636   -1.6992    0.0000 C   0  0  0  0  0  0  0  0  0  0  0  0
   -4.8067   -0.0306    0.0000 C   0  0  0  0  0  0  0  0  0  0  0  0
   -1.0563   -2.0819    0.0000 C   0  0  0  0  0  0  0  0  0  0  0  0
   -3.9648   -0.0459    0.0000 C   0  0  0  0  0  0  0  0  0  0  0  0
   -1.9288   -2.0819    0.0000 C   0  0  0  0  0  0  0  0  0  0  0  0
   -5.2354    0.6888    0.0000 C   0  0  0  0  0  0  0  0  0  0  0  0
   -4.8067   -1.4390    0.0000 C   0  0  0  0  0  0  0  0  0  0  0  0
   -5.2047   -0.7654    0.0000 C   0  0  0  0  0  0  0  0  0  0  0  0
   -1.0869    1.8063    0.0000 C   0  0  0  0  0  0  0  0  0  0  0  0
   -1.7758    0.5664    0.0000 C   0  0  0  0  0  0  0  0  0  0  0  0
   -6.0620    0.6583    0.0000 C   0  0  0  0  0  0  0  0  0  0  0  0
   -5.6487    1.3777    0.0000 C   0  0  0  0  0  0  0  0  0  0  0  0
   -4.8067    1.3624    0.0000 C   0  0  0  0  0  0  0  0  0  0  0  0
 12  1  1  1  0  0  0
  1 17  1  0  0  0  0
 15  2  1  6  0  0  0
 19  3  1  6  0  0  0
  4 12  1  0  0  0  0
  4 13  1  0  0  0  0
  4 18  1  0  0  0  0
  5 13  1  0  0  0  0
  5 23  2  0  0  0  0
  6 21  1  0  0  0  0
 22  6  1  1  0  0  0
  6 27  1  0  0  0  0
  7 20  2  0  0  0  0
  7 23  1  0  0  0  0
  8 16  1  0  0  0  0
  9 20  1  0  0  0  0
 10 28  1  0  0  0  0
 10 30  2  0  0  0  0
 11 29  1  0  0  0  0
 11 30  1  0  0  0  0
 12 15  1  0  0  0  0
 13 14  2  0  0  0  0
 14 16  1  0  0  0  0
 14 20  1  0  0  0  0
 15 19  1  0  0  0  0
 16 18  2  0  0  0  0
 17 19  1  0  0  0  0
 17 21  1  1  0  0  0
 22 25  1  0  0  0  0
 22 26  1  0  0  0  0
 24 25  1  0  0  0  0
 24 26  1  0  0  0  0
 24 32  1  6  0  0  0
 27 38  1  0  0  0  0
 27 39  1  0  0  0  0
 28 29  2  0  0  0  0
 28 33  1  0  0  0  0
 29 36  1  0  0  0  0
 30 34  1  0  0  0  0
 31 33  2  0  0  0  0
 31 35  1  0  0  0  0
 31 37  1  0  0  0  0
 32 34  1  0  0  0  0
 35 40  1  0  0  0  0
 35 41  1  0  0  0  0
 35 42  1  0  0  0  0
 36 37  2  0  0  0  0
M  END
> <PUBCHEM_COMPOUND_ID_TYPE>
0

> <PUBCHEM_TOTAL_CHARGE>
0

> <PUBCHEM_SUBSTANCE_ID>
310942523

> <PUBCHEM_SUBSTANCE_VERSION>
1

> <PUBCHEM_EXT_DATASOURCE_NAME>
4488

> <PUBCHEM_EXT_DATASOURCE_REGID>
SCHEMBL16120559

> <PUBCHEM_SUBSTANCE_COMMENT>
InChI=1S/C31H44N8O3/c1-16(2)38(14-23-26(40)27(41)30(42-23)39-13-20(32)25-28(33)34-15-35-29(25)39)19-10-17(11-19)6-9-24-36-21-8-7-18(31(3,4)5)12-22(21)37-24/h7-8,12-13,15-17,19,23,26-27,30,40-41H,6,9-11,14,32H2,1-5H3,(H,36,37)(H2,33,34,35)/t17-,19-,23-,26-,27-,30-/m1/s1
InChIKey=BIKQBOPCKMWRFX-XENOUKJNSA-N

> <PUBCHEM_SUBSTANCE_SYNONYM>
SCHEMBL16120559

> <PUBCHEM_XREF_EXT_ID>
SCHEMBL16120559

> <PUBCHEM_EXT_DATASOURCE_URL>
https://www.surechembl.org/

> <PUBCHEM_EXT_SUBSTANCE_URL>
https://www.surechembl.org/chemical/SCHEMBL16120559

> <PUBCHEM_CID_ASSOCIATIONS>
86272809  1

> <PUBCHEM_COORDINATE_TYPE>
1
3

> <PUBCHEM_BONDANNOTATIONS>
12  1  5
17  21  5
15  2  6
24  32  6
19  3  6
22  6  5

$$$$
