310949474
  -OEChem-07211613022D

 33 36  0     1  0  0  0  0  0999 V2000
   -1.4289    2.9021    0.0000 Cl  0  0  0  0  0  0  0  0  0  0  0  0
   -2.8726    1.2522    0.0000 F   0  0  0  0  0  0  0  0  0  0  0  0
   -3.5944    1.6646    0.0000 F   0  0  0  0  0  0  0  0  0  0  0  0
   -2.8726    2.9021    0.0000 F   0  0  0  0  0  0  0  0  0  0  0  0
    1.4437   -2.9021    0.0000 F   0  0  0  0  0  0  0  0  0  0  0  0
    1.4437   -1.2375    0.0000 F   0  0  0  0  0  0  0  0  0  0  0  0
    0.7218   -1.6499    0.0000 F   0  0  0  0  0  0  0  0  0  0  0  0
    0.0147    2.9021    0.0000 O   0  0  0  0  0  0  0  0  0  0  0  0
    2.8726    0.4272    0.0000 N   0  0  0  0  0  0  0  0  0  0  0  0
    0.7218    1.6646    0.0000 N   0  0  0  0  0  0  0  0  0  0  0  0
    3.0052    1.7972    0.0000 N   0  0  0  0  0  0  0  0  0  0  0  0
    3.4176    1.0901    0.0000 N   0  0  0  0  0  0  0  0  0  0  0  0
    2.1508   -0.8250    0.0000 N   0  0  0  0  0  0  0  0  0  0  0  0
    2.1066    0.8102    0.0000 C   0  0  0  0  0  0  0  0  0  0  0  0
    2.2097    1.6351    0.0000 C   0  0  0  0  0  0  0  0  0  0  0  0
    1.4437    2.0771    0.0000 C   0  0  3  0  0  0  0  0  0  0  0  0
    0.0000    2.0624    0.0000 C   0  0  0  0  0  0  0  0  0  0  0  0
    2.8726   -0.3978    0.0000 C   0  0  0  0  0  0  0  0  0  0  0  0
   -0.7071    1.6646    0.0000 C   0  0  0  0  0  0  0  0  0  0  0  0
    1.4584    0.4272    0.0000 C   0  0  0  0  0  0  0  0  0  0  0  0
    0.7366    0.8250    0.0000 C   0  0  0  0  0  0  0  0  0  0  0  0
   -1.4437    2.0771    0.0000 C   0  0  0  0  0  0  0  0  0  0  0  0
   -2.1508    1.6646    0.0000 C   0  0  0  0  0  0  0  0  0  0  0  0
    2.1508   -1.6499    0.0000 C   0  0  0  0  0  0  0  0  0  0  0  0
   -2.8873    2.0624    0.0000 C   0  0  0  0  0  0  0  0  0  0  0  0
   -0.7218    0.8397    0.0000 C   0  0  0  0  0  0  0  0  0  0  0  0
    3.5944   -0.8250    0.0000 C   0  0  0  0  0  0  0  0  0  0  0  0
    1.4437    2.9021    0.0000 C   0  0  0  0  0  0  0  0  0  0  0  0
    1.4437   -2.0476    0.0000 C   0  0  0  0  0  0  0  0  0  0  0  0
   -2.1508    0.8397    0.0000 C   0  0  0  0  0  0  0  0  0  0  0  0
   -1.4289    0.4272    0.0000 C   0  0  0  0  0  0  0  0  0  0  0  0
    2.9021   -2.0476    0.0000 C   0  0  0  0  0  0  0  0  0  0  0  0
    3.5797   -1.6499    0.0000 C   0  0  0  0  0  0  0  0  0  0  0  0
  1 22  1  0  0  0  0
  2 25  1  0  0  0  0
  3 25  1  0  0  0  0
  4 25  1  0  0  0  0
  5 29  1  0  0  0  0
  6 29  1  0  0  0  0
  7 29  1  0  0  0  0
  8 17  2  0  0  0  0
  9 12  1  0  0  0  0
  9 14  1  0  0  0  0
  9 18  1  0  0  0  0
 10 16  1  0  0  0  0
 10 17  1  0  0  0  0
 10 21  1  0  0  0  0
 11 12  2  0  0  0  0
 11 15  1  0  0  0  0
 13 18  1  0  0  0  0
 13 24  2  0  0  0  0
 14 15  2  0  0  0  0
 14 20  1  0  0  0  0
 15 16  1  0  0  0  0
 16 28  1  1  0  0  0
 17 19  1  0  0  0  0
 18 27  2  0  0  0  0
 19 22  2  0  0  0  0
 19 26  1  0  0  0  0
 20 21  1  0  0  0  0
 22 23  1  0  0  0  0
 23 25  1  0  0  0  0
 23 30  2  0  0  0  0
 24 29  1  0  0  0  0
 24 32  1  0  0  0  0
 26 31  2  0  0  0  0
 27 33  1  0  0  0  0
 30 31  1  0  0  0  0
 32 33  2  0  0  0  0
M  END
> <PUBCHEM_COMPOUND_ID_TYPE>
0

> <PUBCHEM_TOTAL_CHARGE>
0

> <PUBCHEM_SUBSTANCE_ID>
310949474

> <PUBCHEM_SUBSTANCE_VERSION>
1

> <PUBCHEM_EXT_DATASOURCE_NAME>
4488

> <PUBCHEM_EXT_DATASOURCE_REGID>
SCHEMBL16127668

> <PUBCHEM_SUBSTANCE_COMMENT>
InChI=1S/C20H14ClF6N5O/c1-10-17-13(32(30-29-17)15-7-3-6-14(28-15)20(25,26)27)8-9-31(10)18(33)11-4-2-5-12(16(11)21)19(22,23)24/h2-7,10H,8-9H2,1H3/t10-/m0/s1
InChIKey=GDVPPHPIEZIHPL-JTQLQIEISA-N

> <PUBCHEM_SUBSTANCE_SYNONYM>
SCHEMBL16127668

> <PUBCHEM_XREF_EXT_ID>
SCHEMBL16127668

> <PUBCHEM_EXT_DATASOURCE_URL>
https://www.surechembl.org/

> <PUBCHEM_EXT_SUBSTANCE_URL>
https://www.surechembl.org/chemical/SCHEMBL16127668

> <PUBCHEM_CID_ASSOCIATIONS>
117614917  1

> <PUBCHEM_COORDINATE_TYPE>
1
3

> <PUBCHEM_BONDANNOTATIONS>
16  28  5

$$$$
