310929062
  -OEChem-07211613022D

 59 63  0     0  0  0  0  0  0999 V2000
    2.6400   -9.9000    0.0000 O   0  0  0  0  0  0  0  0  0  0  0  0
    5.5275  -12.3749    0.0000 O   0  0  0  0  0  0  0  0  0  0  0  0
    6.9300  -12.3749    0.0000 O   0  0  0  0  0  0  0  0  0  0  0  0
    3.3825  -14.4375    0.0000 O   0  0  0  0  0  0  0  0  0  0  0  0
    2.8050   -4.9500    0.0000 O   0  0  0  0  0  0  0  0  0  0  0  0
    4.1250   -7.5075    0.0000 O   0  0  0  0  0  0  0  0  0  0  0  0
    9.0750  -11.9625    0.0000 O   0  0  0  0  0  0  0  0  0  0  0  0
    0.6600   -4.5375    0.0000 O   0  0  0  0  0  0  0  0  0  0  0  0
    0.0000   -2.4750    0.0000 O   0  0  0  0  0  0  0  0  0  0  0  0
    1.4850   -0.8250    0.0000 O   0  0  0  0  0  0  0  0  0  0  0  0
    4.0425  -13.1999    0.0000 N   0  0  0  0  0  0  0  0  0  0  0  0
    2.6400  -13.1999    0.0000 N   0  0  0  0  0  0  0  0  0  0  0  0
    7.6725  -13.6125    0.0000 N   0  0  0  0  0  0  0  0  0  0  0  0
    1.9800   -8.6625    0.0000 N   0  0  0  0  0  0  0  0  0  0  0  0
    1.3200   -7.4250    0.0000 N   0  0  0  0  0  0  0  0  0  0  0  0
    0.5775   -8.6625    0.0000 N   0  0  0  0  0  0  0  0  0  0  0  0
    5.5275  -13.1999    0.0000 C   0  0  0  0  0  0  0  0  0  0  0  0
    4.7850  -13.6125    0.0000 C   0  0  0  0  0  0  0  0  0  0  0  0
    6.1875  -13.6125    0.0000 C   0  0  0  0  0  0  0  0  0  0  0  0
    3.3000  -11.9625    0.0000 C   0  0  0  0  0  0  0  0  0  0  0  0
    3.3825  -11.1375    0.0000 C   0  0  0  0  0  0  0  0  0  0  0  0
    5.5275  -14.8499    0.0000 C   0  0  0  0  0  0  0  0  0  0  0  0
    2.6400  -12.3749    0.0000 C   0  0  0  0  0  0  0  0  0  0  0  0
    2.6400  -10.7249    0.0000 C   0  0  0  0  0  0  0  0  0  0  0  0
    4.7850  -14.4375    0.0000 C   0  0  0  0  0  0  0  0  0  0  0  0
    6.1875  -14.4375    0.0000 C   0  0  0  0  0  0  0  0  0  0  0  0
    5.5275  -15.6749    0.0000 C   0  0  0  0  0  0  0  0  0  0  0  0
    6.9300  -13.1999    0.0000 C   0  0  0  0  0  0  0  0  0  0  0  0
    3.3825  -13.6125    0.0000 C   0  0  0  0  0  0  0  0  0  0  0  0
    1.8975  -11.9625    0.0000 C   0  0  0  0  0  0  0  0  0  0  0  0
    1.9800  -11.1375    0.0000 C   0  0  0  0  0  0  0  0  0  0  0  0
    4.0425  -12.3749    0.0000 C   0  0  0  0  0  0  0  0  0  0  0  0
    4.0425  -10.8075    0.0000 C   0  0  0  0  0  0  0  0  0  0  0  0
    1.9800   -9.4875    0.0000 C   0  0  0  0  0  0  0  0  0  0  0  0
    4.9500  -12.2100    0.0000 C   0  0  0  0  0  0  0  0  0  0  0  0
    4.7850  -11.2200    0.0000 C   0  0  0  0  0  0  0  0  0  0  0  0
    4.6200  -15.6749    0.0000 C   0  0  0  0  0  0  0  0  0  0  0  0
    5.5275  -16.4999    0.0000 C   0  0  0  0  0  0  0  0  0  0  0  0
    6.3525  -15.6749    0.0000 C   0  0  0  0  0  0  0  0  0  0  0  0
    1.3200   -8.2500    0.0000 C   0  0  0  0  0  0  0  0  0  0  0  0
    1.2375   -9.9000    0.0000 C   0  0  0  0  0  0  0  0  0  0  0  0
    2.0625   -7.0125    0.0000 C   0  0  0  0  0  0  0  0  0  0  0  0
    4.7850  -11.9625    0.0000 C   0  0  0  0  0  0  0  0  0  0  0  0
    0.5775   -9.4875    0.0000 C   0  0  0  0  0  0  0  0  0  0  0  0
    8.3325  -13.1999    0.0000 C   0  0  0  0  0  0  0  0  0  0  0  0
    2.0625   -6.1875    0.0000 C   0  0  0  0  0  0  0  0  0  0  0  0
    2.8050   -5.7750    0.0000 C   0  0  0  0  0  0  0  0  0  0  0  0
    2.7225   -7.4250    0.0000 C   0  0  0  0  0  0  0  0  0  0  0  0
    3.4650   -7.0950    0.0000 C   0  0  0  0  0  0  0  0  0  0  0  0
    3.4650   -6.2700    0.0000 C   0  0  0  0  0  0  0  0  0  0  0  0
    8.3325  -12.3749    0.0000 C   0  0  0  0  0  0  0  0  0  0  0  0
    2.1450   -4.5375    0.0000 C   0  0  0  0  0  0  0  0  0  0  0  0
    4.8675   -7.0950    0.0000 C   0  0  0  0  0  0  0  0  0  0  0  0
    1.4025   -4.9500    0.0000 C   0  0  0  0  0  0  0  0  0  0  0  0
    0.7425   -3.7125    0.0000 C   0  0  0  0  0  0  0  0  0  0  0  0
    0.0000   -3.3000    0.0000 C   0  0  0  0  0  0  0  0  0  0  0  0
    0.7425   -2.0625    0.0000 C   0  0  0  0  0  0  0  0  0  0  0  0
    0.7425   -1.2375    0.0000 C   0  0  0  0  0  0  0  0  0  0  0  0
    1.4850    0.0000    0.0000 C   0  0  0  0  0  0  0  0  0  0  0  0
  1 24  1  0  0  0  0
  1 34  1  0  0  0  0
  2 17  1  0  0  0  0
  2 43  1  0  0  0  0
  3 28  2  0  0  0  0
  4 29  2  0  0  0  0
  5 47  1  0  0  0  0
  5 52  1  0  0  0  0
  6 49  1  0  0  0  0
  6 53  1  0  0  0  0
  7 51  1  0  0  0  0
  8 54  1  0  0  0  0
  8 55  1  0  0  0  0
  9 56  1  0  0  0  0
  9 57  1  0  0  0  0
 10 58  1  0  0  0  0
 10 59  1  0  0  0  0
 11 18  1  0  0  0  0
 11 29  1  0  0  0  0
 12 23  1  0  0  0  0
 12 29  1  0  0  0  0
 13 28  1  0  0  0  0
 13 45  1  0  0  0  0
 14 34  2  0  0  0  0
 14 40  1  0  0  0  0
 15 40  1  0  0  0  0
 15 42  1  0  0  0  0
 16 40  2  0  0  0  0
 16 44  1  0  0  0  0
 17 18  1  0  0  0  0
 17 19  2  0  0  0  0
 18 25  2  0  0  0  0
 19 26  1  0  0  0  0
 19 28  1  0  0  0  0
 20 21  2  0  0  0  0
 20 23  1  0  0  0  0
 20 32  1  0  0  0  0
 21 24  1  0  0  0  0
 21 33  1  0  0  0  0
 22 25  1  0  0  0  0
 22 26  2  0  0  0  0
 22 27  1  0  0  0  0
 23 30  2  0  0  0  0
 24 31  2  0  0  0  0
 27 37  1  0  0  0  0
 27 38  1  0  0  0  0
 27 39  1  0  0  0  0
 30 31  1  0  0  0  0
 32 35  2  0  0  0  0
 33 36  2  0  0  0  0
 34 41  1  0  0  0  0
 35 36  1  0  0  0  0
 41 44  2  0  0  0  0
 42 46  2  0  0  0  0
 42 48  1  0  0  0  0
 45 51  1  0  0  0  0
 46 47  1  0  0  0  0
 47 50  2  0  0  0  0
 48 49  2  0  0  0  0
 49 50  1  0  0  0  0
 52 54  1  0  0  0  0
 55 56  1  0  0  0  0
 57 58  1  0  0  0  0
M  END
> <PUBCHEM_COMPOUND_ID_TYPE>
0

> <PUBCHEM_TOTAL_CHARGE>
0

> <PUBCHEM_SUBSTANCE_ID>
310929062

> <PUBCHEM_SUBSTANCE_VERSION>
1

> <PUBCHEM_EXT_DATASOURCE_NAME>
4488

> <PUBCHEM_EXT_DATASOURCE_REGID>
SCHEMBL16106224

> <PUBCHEM_SUBSTANCE_COMMENT>
InChI=1S/C43H52N6O10/c1-43(2,3)28-23-34(40(51)44-15-16-50)39(55-6)36(24-28)48-42(52)47-35-11-12-37(33-10-8-7-9-32(33)35)59-38-13-14-45-41(49-38)46-29-25-30(54-5)27-31(26-29)58-22-21-57-20-19-56-18-17-53-4/h7-14,23-27,50H,15-22H2,1-6H3,(H,44,51)(H,45,46,49)(H2,47,48,52)
InChIKey=ZZUSFIPRLCGKQL-UHFFFAOYSA-N

> <PUBCHEM_SUBSTANCE_SYNONYM>
SCHEMBL16106224

> <PUBCHEM_XREF_EXT_ID>
SCHEMBL16106224

> <PUBCHEM_EXT_DATASOURCE_URL>
https://www.surechembl.org/

> <PUBCHEM_EXT_SUBSTANCE_URL>
https://www.surechembl.org/chemical/SCHEMBL16106224

> <PUBCHEM_CID_ASSOCIATIONS>
86272828  1

> <PUBCHEM_COORDINATE_TYPE>
1
3

$$$$
