310932818
  -OEChem-07211613022D

 13 14  0     0  0  0  0  0  0999 V2000
    2.1286   -3.3001    0.0000 Br  0  0  0  0  0  0  0  0  0  0  0  0
    2.1286    0.0000    0.0000 Cl  0  0  0  0  0  0  0  0  0  0  0  0
    0.7260   -0.8251    0.0000 N   0  0  0  0  0  0  0  0  0  0  0  0
    1.4520   -2.0626    0.0000 C   0  0  0  0  0  0  0  0  0  0  0  0
    1.4520   -1.2376    0.0000 C   0  0  0  0  0  0  0  0  0  0  0  0
    2.1451   -2.4751    0.0000 C   0  0  0  0  0  0  0  0  0  0  0  0
    2.1451   -0.8251    0.0000 C   0  0  0  0  0  0  0  0  0  0  0  0
    2.8546   -2.0626    0.0000 C   0  0  0  0  0  0  0  0  0  0  0  0
    2.8546   -1.2376    0.0000 C   0  0  0  0  0  0  0  0  0  0  0  0
    0.7260   -2.4751    0.0000 C   0  0  0  0  0  0  0  0  0  0  0  0
    0.0000   -2.0626    0.0000 C   0  0  0  0  0  0  0  0  0  0  0  0
    0.0000   -1.2376    0.0000 C   0  0  0  0  0  0  0  0  0  0  0  0
    3.5807   -2.4751    0.0000 C   0  0  0  0  0  0  0  0  0  0  0  0
  1  6  1  0  0  0  0
  2  7  1  0  0  0  0
  3  5  2  0  0  0  0
  3 12  1  0  0  0  0
  4  5  1  0  0  0  0
  4  6  1  0  0  0  0
  4 10  2  0  0  0  0
  5  7  1  0  0  0  0
  6  8  2  0  0  0  0
  7  9  2  0  0  0  0
  8  9  1  0  0  0  0
  8 13  1  0  0  0  0
 10 11  1  0  0  0  0
 11 12  2  0  0  0  0
M  END
> <PUBCHEM_COMPOUND_ID_TYPE>
0

> <PUBCHEM_TOTAL_CHARGE>
0

> <PUBCHEM_SUBSTANCE_ID>
310932818

> <PUBCHEM_SUBSTANCE_VERSION>
1

> <PUBCHEM_EXT_DATASOURCE_NAME>
4488

> <PUBCHEM_EXT_DATASOURCE_REGID>
SCHEMBL16110206

> <PUBCHEM_SUBSTANCE_COMMENT>
InChI=1S/C10H7BrClN/c1-6-5-8(12)10-7(9(6)11)3-2-4-13-10/h2-5H,1H3
InChIKey=BHAZBDKBTKDRNG-UHFFFAOYSA-N

> <PUBCHEM_SUBSTANCE_SYNONYM>
SCHEMBL16110206

> <PUBCHEM_XREF_EXT_ID>
SCHEMBL16110206

> <PUBCHEM_EXT_DATASOURCE_URL>
https://www.surechembl.org/

> <PUBCHEM_EXT_SUBSTANCE_URL>
https://www.surechembl.org/chemical/SCHEMBL16110206

> <PUBCHEM_CID_ASSOCIATIONS>
117601308  1

> <PUBCHEM_COORDINATE_TYPE>
1
3

$$$$
