310935926
  -OEChem-07211613022D

 24 26  0     0  0  0  0  0  0999 V2000
    7.6336   -3.6440    0.0000 Cl  0  0  0  0  0  0  0  0  0  0  0  0
    5.2133   -0.7181    0.0000 O   0  0  0  0  0  0  0  0  0  0  0  0
    0.0000   -4.1493    0.0000 O   0  0  0  0  0  0  0  0  0  0  0  0
    0.8245   -5.3196    0.0000 O   0  0  0  0  0  0  0  0  0  0  0  0
    2.6864   -3.6173    0.0000 N   0  0  0  0  0  0  0  0  0  0  0  0
    2.2076   -4.2823    0.0000 N   0  0  0  0  0  0  0  0  0  0  0  0
    3.9365   -1.4629    0.0000 N   0  0  0  0  0  0  0  0  0  0  0  0
    1.4097   -3.2184    0.0000 N   0  0  0  0  0  0  0  0  0  0  0  0
    5.1866   -2.1810    0.0000 C   0  0  0  0  0  0  0  0  0  0  0  0
    3.9365   -2.8992    0.0000 C   0  0  0  0  0  0  0  0  0  0  0  0
    4.7876   -1.4363    0.0000 C   0  0  0  0  0  0  0  0  0  0  0  0
    6.0112   -2.1810    0.0000 C   0  0  0  0  0  0  0  0  0  0  0  0
    4.7611   -2.8726    0.0000 C   0  0  0  0  0  0  0  0  0  0  0  0
    3.5109   -3.6173    0.0000 C   0  0  0  0  0  0  0  0  0  0  0  0
    1.4097   -4.0163    0.0000 C   0  0  0  0  0  0  0  0  0  0  0  0
    3.5376   -2.1544    0.0000 C   0  0  0  0  0  0  0  0  0  0  0  0
    2.2076   -2.9524    0.0000 C   0  0  0  0  0  0  0  0  0  0  0  0
    6.4102   -2.8992    0.0000 C   0  0  0  0  0  0  0  0  0  0  0  0
    6.4367   -1.4629    0.0000 C   0  0  0  0  0  0  0  0  0  0  0  0
    0.7447   -4.4951    0.0000 C   0  0  0  0  0  0  0  0  0  0  0  0
    7.2347   -2.9258    0.0000 C   0  0  0  0  0  0  0  0  0  0  0  0
    7.2613   -1.4895    0.0000 C   0  0  0  0  0  0  0  0  0  0  0  0
    7.6602   -2.2076    0.0000 C   0  0  0  0  0  0  0  0  0  0  0  0
    4.7876    0.0000    0.0000 C   0  0  0  0  0  0  0  0  0  0  0  0
  1 21  1  0  0  0  0
  2 11  1  0  0  0  0
  2 24  1  0  0  0  0
  3 20  2  0  0  0  0
  4 20  1  0  0  0  0
  5  6  1  0  0  0  0
  5 14  1  0  0  0  0
  5 17  1  0  0  0  0
  6 15  2  0  0  0  0
  7 11  2  0  0  0  0
  7 16  1  0  0  0  0
  8 15  1  0  0  0  0
  8 17  2  0  0  0  0
  9 11  1  0  0  0  0
  9 12  1  0  0  0  0
  9 13  2  0  0  0  0
 10 13  1  0  0  0  0
 10 14  1  0  0  0  0
 10 16  2  0  0  0  0
 12 18  1  0  0  0  0
 12 19  2  0  0  0  0
 15 20  1  0  0  0  0
 18 21  2  0  0  0  0
 19 22  1  0  0  0  0
 21 23  1  0  0  0  0
 22 23  2  0  0  0  0
M  END
> <PUBCHEM_COMPOUND_ID_TYPE>
0

> <PUBCHEM_TOTAL_CHARGE>
0

> <PUBCHEM_SUBSTANCE_ID>
310935926

> <PUBCHEM_SUBSTANCE_VERSION>
1

> <PUBCHEM_EXT_DATASOURCE_NAME>
4488

> <PUBCHEM_EXT_DATASOURCE_REGID>
SCHEMBL16113522

> <PUBCHEM_SUBSTANCE_COMMENT>
InChI=1S/C16H13ClN4O3/c1-24-15-13(11-3-2-4-12(17)6-11)5-10(7-18-15)8-21-9-19-14(20-21)16(22)23/h2-7,9H,8H2,1H3,(H,22,23)
InChIKey=LLNPXPSXTUNSDX-UHFFFAOYSA-N

> <PUBCHEM_SUBSTANCE_SYNONYM>
SCHEMBL16113522

> <PUBCHEM_XREF_EXT_ID>
SCHEMBL16113522

> <PUBCHEM_EXT_DATASOURCE_URL>
https://www.surechembl.org/

> <PUBCHEM_EXT_SUBSTANCE_URL>
https://www.surechembl.org/chemical/SCHEMBL16113522

> <PUBCHEM_CID_ASSOCIATIONS>
117603909  1

> <PUBCHEM_COORDINATE_TYPE>
1
3

$$$$
