310938324
  -OEChem-07211613022D

 26 29  0     0  0  0  0  0  0999 V2000
    0.7112   -0.8534    0.0000 F   0  0  0  0  0  0  0  0  0  0  0  0
    1.4224   -2.0767    0.0000 F   0  0  0  0  0  0  0  0  0  0  0  0
    1.4224   -0.4267    0.0000 F   0  0  0  0  0  0  0  0  0  0  0  0
    3.4707    0.0000    0.0000 O   0  0  0  0  0  0  0  0  0  0  0  0
    2.8164   -1.2233    0.0000 N   0  0  0  0  0  0  0  0  0  0  0  0
    3.4991   -3.2431    0.0000 N   0  0  0  0  0  0  0  0  0  0  0  0
    5.0069   -2.3044    0.0000 N   0  0  0  0  0  0  0  0  0  0  0  0
    5.4621   -1.6500    0.0000 N   0  0  0  0  0  0  0  0  0  0  0  0
    1.3940   -4.4380    0.0000 N   0  0  0  0  0  0  0  0  0  0  0  0
    0.7112   -5.6897    0.0000 N   0  0  0  0  0  0  0  0  0  0  0  0
    2.8164   -2.0483    0.0000 C   0  0  0  0  0  0  0  0  0  0  0  0
    3.4991   -2.4750    0.0000 C   0  0  0  0  0  0  0  0  0  0  0  0
    4.2104   -2.0483    0.0000 C   0  0  0  0  0  0  0  0  0  0  0  0
    4.2104   -1.2233    0.0000 C   0  0  0  0  0  0  0  0  0  0  0  0
    3.4991   -0.8250    0.0000 C   0  0  0  0  0  0  0  0  0  0  0  0
    2.1052   -2.4750    0.0000 C   0  0  0  0  0  0  0  0  0  0  0  0
    2.1052   -3.2431    0.0000 C   0  0  0  0  0  0  0  0  0  0  0  0
    2.1336   -0.8250    0.0000 C   0  0  0  0  0  0  0  0  0  0  0  0
    5.0069   -0.9673    0.0000 C   0  0  0  0  0  0  0  0  0  0  0  0
    2.8164   -3.6699    0.0000 C   0  0  0  0  0  0  0  0  0  0  0  0
    1.4224   -1.2517    0.0000 C   0  0  0  0  0  0  0  0  0  0  0  0
    1.3940   -3.6414    0.0000 C   0  0  0  0  0  0  0  0  0  0  0  0
    0.7112   -3.2147    0.0000 C   0  0  0  0  0  0  0  0  0  0  0  0
    0.7112   -4.8931    0.0000 C   0  0  0  0  0  0  0  0  0  0  0  0
    0.0000   -3.6699    0.0000 C   0  0  0  0  0  0  0  0  0  0  0  0
    0.0000   -4.4380    0.0000 C   0  0  0  0  0  0  0  0  0  0  0  0
  1 21  1  0  0  0  0
  2 21  1  0  0  0  0
  3 21  1  0  0  0  0
  4 15  2  0  0  0  0
  5 11  1  0  0  0  0
  5 15  1  0  0  0  0
  5 18  1  0  0  0  0
  6 12  2  0  0  0  0
  6 20  1  0  0  0  0
  7  8  1  0  0  0  0
  7 13  1  0  0  0  0
  8 19  2  0  0  0  0
  9 22  1  0  0  0  0
  9 24  2  0  0  0  0
 10 24  1  0  0  0  0
 11 12  1  0  0  0  0
 11 16  2  0  0  0  0
 12 13  1  0  0  0  0
 13 14  2  0  0  0  0
 14 15  1  0  0  0  0
 14 19  1  0  0  0  0
 16 17  1  0  0  0  0
 17 20  2  0  0  0  0
 17 22  1  0  0  0  0
 18 21  1  0  0  0  0
 22 23  2  0  0  0  0
 23 25  1  0  0  0  0
 24 26  1  0  0  0  0
 25 26  2  0  0  0  0
M  END
> <PUBCHEM_COMPOUND_ID_TYPE>
0

> <PUBCHEM_TOTAL_CHARGE>
0

> <PUBCHEM_SUBSTANCE_ID>
310938324

> <PUBCHEM_SUBSTANCE_VERSION>
1

> <PUBCHEM_EXT_DATASOURCE_NAME>
4488

> <PUBCHEM_EXT_DATASOURCE_REGID>
SCHEMBL16116203

> <PUBCHEM_SUBSTANCE_COMMENT>
InChI=1S/C16H11F3N6O/c17-16(18,19)7-25-11-4-8(10-2-1-3-12(20)23-10)5-21-14(11)13-9(15(25)26)6-22-24-13/h1-6H,7H2,(H2,20,23)(H,22,24)
InChIKey=PFFKTWDYXRJMCA-UHFFFAOYSA-N

> <PUBCHEM_SUBSTANCE_SYNONYM>
SCHEMBL16116203

> <PUBCHEM_XREF_EXT_ID>
SCHEMBL16116203

> <PUBCHEM_EXT_DATASOURCE_URL>
https://www.surechembl.org/

> <PUBCHEM_EXT_SUBSTANCE_URL>
https://www.surechembl.org/chemical/SCHEMBL16116203

> <PUBCHEM_CID_ASSOCIATIONS>
86298894  1

> <PUBCHEM_COORDINATE_TYPE>
1
3

$$$$
