310936507
  -OEChem-07211613022D

 33 36  0     1  0  0  0  0  0999 V2000
    0.1921    0.7232    0.0000 O   0  0  0  0  0  0  0  0  0  0  0  0
   -1.6117    0.0464    0.0000 O   0  0  0  0  0  0  0  0  0  0  0  0
    0.6411   -2.7604    0.0000 O   0  0  0  0  0  0  0  0  0  0  0  0
    5.2219   -1.0932    0.0000 O   0  0  0  0  0  0  0  0  0  0  0  0
    2.8186    0.6595    0.0000 O   0  0  0  0  0  0  0  0  0  0  0  0
    0.6411   -1.1104    0.0000 C   0  0  3  0  0  0  0  0  0  0  0  0
    1.3556   -1.5229    0.0000 C   0  0  3  0  0  0  0  0  0  0  0  0
    0.6411   -0.2854    0.0000 C   0  0  3  0  0  0  0  0  0  0  0  0
    2.0701   -1.1104    0.0000 C   0  0  3  0  0  0  0  0  0  0  0  0
   -0.1435   -0.0305    0.0000 C   0  0  3  0  0  0  0  0  0  0  0  0
    2.7845   -1.5229    0.0000 C   0  0  3  0  0  0  0  0  0  0  0  0
    1.3556    0.1271    0.0000 C   0  0  0  0  0  0  0  0  0  0  0  0
   -0.1435   -1.3654    0.0000 C   0  0  0  0  0  0  0  0  0  0  0  0
    2.0701   -0.2854    0.0000 C   0  0  0  0  0  0  0  0  0  0  0  0
    3.0667   -0.7477    0.0000 C   0  0  3  0  0  0  0  0  0  0  0  0
   -0.6284   -0.6979    0.0000 C   0  0  0  0  0  0  0  0  0  0  0  0
    1.3556   -2.3479    0.0000 C   0  0  0  0  0  0  0  0  0  0  0  0
   -0.8580    0.3820    0.0000 C   0  0  0  0  0  0  0  0  0  0  0  0
    3.3148   -2.1549    0.0000 C   0  0  0  0  0  0  0  0  0  0  0  0
    0.5549    0.5350    0.0000 C   0  0  0  0  0  0  0  0  0  0  0  0
    3.8792   -0.6044    0.0000 C   0  0  0  0  0  0  0  0  0  0  0  0
    2.2542   -2.1549    0.0000 C   0  0  0  0  0  0  0  0  0  0  0  0
    4.4095   -1.2364    0.0000 C   0  0  3  0  0  0  0  0  0  0  0  0
    2.5364   -0.1157    0.0000 C   0  0  0  0  0  0  0  0  0  0  0  0
    4.1273   -2.0117    0.0000 C   0  0  0  0  0  0  0  0  0  0  0  0
   -0.9442    1.2025    0.0000 C   0  0  0  0  0  0  0  0  0  0  0  0
   -2.1637    0.6595    0.0000 C   0  0  0  0  0  0  0  0  0  0  0  0
   -1.7512    1.3740    0.0000 C   0  0  0  0  0  0  0  0  0  0  0  0
    0.8407   -1.9109    0.0000 H   0  0  0  0  0  0  0  0  0  0  0  0
    1.0734   -2.2982    0.0000 H   0  0  0  0  0  0  0  0  0  0  0  0
    2.0701   -1.9354    0.0000 H   0  0  0  0  0  0  0  0  0  0  0  0
    2.2542   -0.8910    0.0000 H   0  0  0  0  0  0  0  0  0  0  0  0
    4.6916   -0.4612    0.0000 H   0  0  0  0  0  0  0  0  0  0  0  0
 10  1  1  6  0  0  0
  2 18  1  0  0  0  0
  2 27  1  0  0  0  0
  3 17  1  0  0  0  0
 23  4  1  1  0  0  0
  5 24  1  0  0  0  0
  6  7  1  0  0  0  0
  6  8  1  0  0  0  0
  6 13  1  0  0  0  0
  6 29  1  1  0  0  0
  7  9  1  0  0  0  0
  7 17  1  0  0  0  0
  7 30  1  6  0  0  0
  8 10  1  0  0  0  0
  8 12  1  0  0  0  0
  8 20  1  6  0  0  0
 11  9  1  6  0  0  0
  9 14  1  0  0  0  0
  9 31  1  1  0  0  0
 10 16  1  0  0  0  0
 10 18  1  0  0  0  0
 11 15  1  0  0  0  0
 11 19  1  0  0  0  0
 11 22  1  1  0  0  0
 12 14  1  0  0  0  0
 13 16  1  0  0  0  0
 15 21  1  0  0  0  0
 15 24  1  1  0  0  0
 15 32  1  6  0  0  0
 18 26  2  0  0  0  0
 19 25  1  0  0  0  0
 21 23  1  0  0  0  0
 23 25  1  0  0  0  0
 23 33  1  6  0  0  0
 26 28  1  0  0  0  0
 27 28  2  0  0  0  0
M  END
> <PUBCHEM_COMPOUND_ID_TYPE>
0

> <PUBCHEM_TOTAL_CHARGE>
0

> <PUBCHEM_SUBSTANCE_ID>
310936507

> <PUBCHEM_SUBSTANCE_VERSION>
1

> <PUBCHEM_EXT_DATASOURCE_NAME>
4488

> <PUBCHEM_EXT_DATASOURCE_REGID>
SCHEMBL16114158

> <PUBCHEM_SUBSTANCE_COMMENT>
InChI=1S/C23H36O5/c1-21(8-5-16(26)12-15(21)13-24)18-6-9-22(2)19(17(18)14-25)7-10-23(22,27)20-4-3-11-28-20/h3-4,11,15-19,24-27H,5-10,12-14H2,1-2H3/t15-,16+,17-,18+,19+,21+,22+,23-/m1/s1
InChIKey=CJCOQCOVBUWHFW-XLEAOOKDSA-N

> <PUBCHEM_SUBSTANCE_SYNONYM>
SCHEMBL16114158

> <PUBCHEM_XREF_EXT_ID>
SCHEMBL16114158

> <PUBCHEM_EXT_DATASOURCE_URL>
https://www.surechembl.org/

> <PUBCHEM_EXT_SUBSTANCE_URL>
https://www.surechembl.org/chemical/SCHEMBL16114158

> <PUBCHEM_CID_ASSOCIATIONS>
117604434  1

> <PUBCHEM_COORDINATE_TYPE>
1
3

> <PUBCHEM_BONDANNOTATIONS>
10  1  6
11  22  5
15  24  5
15  32  6
23  33  6
23  4  5
6  29  5
7  30  6
8  20  6
11  9  6
9  31  5

$$$$
