310942241
  -OEChem-07211613022D

 27 28  0     1  0  0  0  0  0999 V2000
   -2.3250    1.2838    0.0000 F   0  0  0  0  0  0  0  0  0  0  0  0
   -1.9814   -1.9915    0.0000 F   0  0  0  0  0  0  0  0  0  0  0  0
    1.6983   -1.1221    0.0000 O   0  0  0  0  0  0  0  0  0  0  0  0
    0.4650   -0.4145    0.0000 O   0  0  0  0  0  0  0  0  0  0  0  0
   -0.0404    0.3538    0.0000 N   0  0  0  0  0  0  0  0  0  0  0  0
   -0.0404    1.6882    0.0000 N   0  0  0  0  0  0  0  0  0  0  0  0
    1.6983    0.3134    0.0000 N   0  0  0  0  0  0  0  0  0  0  0  0
    1.2737    1.0210    0.0000 C   0  0  3  0  0  0  0  0  0  0  0  0
    0.4448    1.0210    0.0000 C   0  0  0  0  0  0  0  0  0  0  0  0
   -0.8289    0.6166    0.0000 C   0  0  0  0  0  0  0  0  0  0  0  0
    1.6781    1.7488    0.0000 C   0  0  0  0  0  0  0  0  0  0  0  0
   -1.4759    0.1315    0.0000 C   0  0  0  0  0  0  0  0  0  0  0  0
   -0.7885    1.4254    0.0000 C   0  0  0  0  0  0  0  0  0  0  0  0
   -2.2442    0.4549    0.0000 C   0  0  0  0  0  0  0  0  0  0  0  0
   -1.3951   -0.6773    0.0000 C   0  0  0  0  0  0  0  0  0  0  0  0
    1.2939   -0.3943    0.0000 C   0  0  0  0  0  0  0  0  0  0  0  0
    2.5272    1.7084    0.0000 C   0  0  0  0  0  0  0  0  0  0  0  0
   -2.0622   -1.1828    0.0000 C   0  0  0  0  0  0  0  0  0  0  0  0
   -2.8912   -0.0303    0.0000 C   0  0  0  0  0  0  0  0  0  0  0  0
    0.9705    2.1127    0.0000 C   0  0  0  0  0  0  0  0  0  0  0  0
    1.6781    2.5575    0.0000 C   0  0  0  0  0  0  0  0  0  0  0  0
   -2.8103   -0.8390    0.0000 C   0  0  0  0  0  0  0  0  0  0  0  0
    1.2737   -1.8499    0.0000 C   0  0  0  0  0  0  0  0  0  0  0  0
    2.8912    0.9604    0.0000 C   0  0  0  0  0  0  0  0  0  0  0  0
    0.8491   -2.5575    0.0000 C   0  0  0  0  0  0  0  0  0  0  0  0
    1.7185   -2.5373    0.0000 C   0  0  0  0  0  0  0  0  0  0  0  0
    0.4448   -1.8499    0.0000 C   0  0  0  0  0  0  0  0  0  0  0  0
  1 14  1  0  0  0  0
  2 18  1  0  0  0  0
  3 16  1  0  0  0  0
  3 23  1  0  0  0  0
  4 16  2  0  0  0  0
  5  9  2  0  0  0  0
  5 10  1  0  0  0  0
  6  9  1  0  0  0  0
  6 13  1  0  0  0  0
  8  7  1  1  0  0  0
  7 16  1  0  0  0  0
  8  9  1  0  0  0  0
  8 11  1  0  0  0  0
 10 12  1  0  0  0  0
 10 13  2  0  0  0  0
 11 17  1  0  0  0  0
 11 20  1  0  0  0  0
 11 21  1  0  0  0  0
 12 14  2  0  0  0  0
 12 15  1  0  0  0  0
 14 19  1  0  0  0  0
 15 18  2  0  0  0  0
 17 24  2  0  0  0  0
 18 22  1  0  0  0  0
 19 22  2  0  0  0  0
 23 25  1  0  0  0  0
 23 26  1  0  0  0  0
 23 27  1  0  0  0  0
M  END
> <PUBCHEM_COMPOUND_ID_TYPE>
0

> <PUBCHEM_TOTAL_CHARGE>
0

> <PUBCHEM_SUBSTANCE_ID>
310942241

> <PUBCHEM_SUBSTANCE_VERSION>
1

> <PUBCHEM_EXT_DATASOURCE_NAME>
4488

> <PUBCHEM_EXT_DATASOURCE_REGID>
SCHEMBL16120276

> <PUBCHEM_SUBSTANCE_COMMENT>
InChI=1S/C20H25F2N3O2/c1-7-20(5,6)16(25-18(26)27-19(2,3)4)17-23-11-15(24-17)13-10-12(21)8-9-14(13)22/h7-11,16H,1H2,2-6H3,(H,23,24)(H,25,26)/t16-/m0/s1
InChIKey=HNCSNQITVHVIAN-INIZCTEOSA-N

> <PUBCHEM_SUBSTANCE_SYNONYM>
SCHEMBL16120276

> <PUBCHEM_XREF_EXT_ID>
SCHEMBL16120276

> <PUBCHEM_EXT_DATASOURCE_URL>
https://www.surechembl.org/

> <PUBCHEM_EXT_SUBSTANCE_URL>
https://www.surechembl.org/chemical/SCHEMBL16120276

> <PUBCHEM_CID_ASSOCIATIONS>
117608892  1

> <PUBCHEM_COORDINATE_TYPE>
1
3

> <PUBCHEM_BONDANNOTATIONS>
8  7  5

$$$$
