310940191
  -OEChem-07211613022D

 35 38  0     0  0  0  0  0  0999 V2000
    2.4624   -3.2423    0.0000 S   0  0  0  0  0  0  0  0  0  0  0  0
    0.6397    2.4536    0.0000 O   0  0  0  0  0  0  0  0  0  0  0  0
   -2.5676   -2.7517    0.0000 O   0  0  0  0  0  0  0  0  0  0  0  0
   -0.7274    2.8919    0.0000 O   0  0  0  0  0  0  0  0  0  0  0  0
    2.2521   -4.0485    0.0000 O   0  0  0  0  0  0  0  0  0  0  0  0
    2.6903   -2.4361    0.0000 O   0  0  0  0  0  0  0  0  0  0  0  0
   -1.0603   -0.4206    0.0000 N   0  0  0  0  0  0  0  0  0  0  0  0
   -0.4294    1.4896    0.0000 N   0  0  0  0  0  0  0  0  0  0  0  0
   -0.5697   -1.0866    0.0000 N   0  0  0  0  0  0  0  0  0  0  0  0
   -0.7975   -2.5588    0.0000 N   0  0  0  0  0  0  0  0  0  0  0  0
   -3.3037   -1.5072    0.0000 N   0  0  0  0  0  0  0  0  0  0  0  0
    1.3758    0.7887    0.0000 N   0  0  0  0  0  0  0  0  0  0  0  0
   -0.7799    0.3856    0.0000 C   0  0  0  0  0  0  0  0  0  0  0  0
   -1.8315   -0.6660    0.0000 C   0  0  0  0  0  0  0  0  0  0  0  0
   -1.8665   -1.5072    0.0000 C   0  0  0  0  0  0  0  0  0  0  0  0
   -1.1655    1.1042    0.0000 C   0  0  0  0  0  0  0  0  0  0  0  0
   -0.0614    0.7537    0.0000 C   0  0  0  0  0  0  0  0  0  0  0  0
   -1.0603   -1.7527    0.0000 C   0  0  0  0  0  0  0  0  0  0  0  0
   -0.0438   -0.0350    0.0000 C   0  0  0  0  0  0  0  0  0  0  0  0
   -2.5676   -1.8929    0.0000 C   0  0  0  0  0  0  0  0  0  0  0  0
   -2.5851   -0.2628    0.0000 C   0  0  0  0  0  0  0  0  0  0  0  0
   -0.1490    2.2784    0.0000 C   0  0  0  0  0  0  0  0  0  0  0  0
   -3.2687   -0.6660    0.0000 C   0  0  0  0  0  0  0  0  0  0  0  0
    0.0263   -2.7166    0.0000 C   0  0  0  0  0  0  0  0  0  0  0  0
    0.6397    0.3505    0.0000 C   0  0  0  0  0  0  0  0  0  0  0  0
    0.9026    3.2599    0.0000 C   0  0  0  0  0  0  0  0  0  0  0  0
    0.2892   -3.5052    0.0000 C   0  0  0  0  0  0  0  0  0  0  0  0
    0.5872   -2.1207    0.0000 C   0  0  0  0  0  0  0  0  0  0  0  0
    1.6387   -3.0495    0.0000 C   0  0  0  0  0  0  0  0  0  0  0  0
    1.0954   -3.6805    0.0000 C   0  0  0  0  0  0  0  0  0  0  0  0
    1.3933   -2.2959    0.0000 C   0  0  0  0  0  0  0  0  0  0  0  0
    1.0954    4.0485    0.0000 C   0  0  0  0  0  0  0  0  0  0  0  0
    0.3592    3.8733    0.0000 C   0  0  0  0  0  0  0  0  0  0  0  0
    1.7263    3.4176    0.0000 C   0  0  0  0  0  0  0  0  0  0  0  0
    3.3037   -3.4701    0.0000 C   0  0  0  0  0  0  0  0  0  0  0  0
  1  5  2  0  0  0  0
  1  6  2  0  0  0  0
  1 29  1  0  0  0  0
  1 35  1  0  0  0  0
  2 22  1  0  0  0  0
  2 26  1  0  0  0  0
  3 20  2  0  0  0  0
  4 22  2  0  0  0  0
  7  9  1  0  0  0  0
  7 13  1  0  0  0  0
  7 14  1  0  0  0  0
  8 16  1  0  0  0  0
  8 17  1  0  0  0  0
  8 22  1  0  0  0  0
  9 18  2  0  0  0  0
 10 18  1  0  0  0  0
 10 24  1  0  0  0  0
 11 20  1  0  0  0  0
 11 23  1  0  0  0  0
 12 25  3  0  0  0  0
 13 16  1  0  0  0  0
 13 17  1  0  0  0  0
 13 19  1  0  0  0  0
 14 15  2  0  0  0  0
 14 21  1  0  0  0  0
 15 18  1  0  0  0  0
 15 20  1  0  0  0  0
 19 25  1  0  0  0  0
 21 23  2  0  0  0  0
 24 27  2  0  0  0  0
 24 28  1  0  0  0  0
 26 32  1  0  0  0  0
 26 33  1  0  0  0  0
 26 34  1  0  0  0  0
 27 30  1  0  0  0  0
 28 31  2  0  0  0  0
 29 30  2  0  0  0  0
 29 31  1  0  0  0  0
M  END
> <PUBCHEM_COMPOUND_ID_TYPE>
0

> <PUBCHEM_TOTAL_CHARGE>
0

> <PUBCHEM_SUBSTANCE_ID>
310940191

> <PUBCHEM_SUBSTANCE_VERSION>
1

> <PUBCHEM_EXT_DATASOURCE_NAME>
4488

> <PUBCHEM_EXT_DATASOURCE_REGID>
SCHEMBL16118125

> <PUBCHEM_SUBSTANCE_COMMENT>
InChI=1S/C23H26N6O5S/c1-22(2,3)34-21(31)28-13-23(14-28,10-11-24)29-17-9-12-25-20(30)18(17)19(27-29)26-15-5-7-16(8-6-15)35(4,32)33/h5-9,12H,10,13-14H2,1-4H3,(H,25,30)(H,26,27)
InChIKey=PXDSOAHOKJVJEP-UHFFFAOYSA-N

> <PUBCHEM_SUBSTANCE_SYNONYM>
SCHEMBL16118125

> <PUBCHEM_XREF_EXT_ID>
SCHEMBL16118125

> <PUBCHEM_EXT_DATASOURCE_URL>
https://www.surechembl.org/

> <PUBCHEM_EXT_SUBSTANCE_URL>
https://www.surechembl.org/chemical/SCHEMBL16118125

> <PUBCHEM_CID_ASSOCIATIONS>
86268256  1

> <PUBCHEM_COORDINATE_TYPE>
1
3

$$$$
