310947979
  -OEChem-07211613022D

 28 33  0     1  0  0  0  0  0999 V2000
   -0.4640    0.4934    0.0000 O   0  0  0  0  0  0  0  0  0  0  0  0
   -0.7733    2.6882    0.0000 O   0  0  0  0  0  0  0  0  0  0  0  0
    2.8208   -0.2577    0.0000 N   0  0  3  0  0  0  0  0  0  0  0  0
   -0.7733   -1.4656    0.0000 N   0  0  0  0  0  0  0  0  0  0  0  0
    0.6702    0.2283    0.0000 C   0  0  3  0  0  0  0  0  0  0  0  0
    0.6702    1.0532    0.0000 C   0  0  0  0  0  0  0  0  0  0  0  0
   -0.0515   -0.1988    0.0000 C   0  0  3  0  0  0  0  0  0  0  0  0
    1.3920   -0.1988    0.0000 C   0  0  3  0  0  0  0  0  0  0  0  0
   -0.0515    1.4509    0.0000 C   0  0  0  0  0  0  0  0  0  0  0  0
    1.3772    1.4803    0.0000 C   0  0  0  0  0  0  0  0  0  0  0  0
    2.0990    0.2136    0.0000 C   0  0  3  0  0  0  0  0  0  0  0  0
    1.2446    0.6702    0.0000 C   0  0  0  0  0  0  0  0  0  0  0  0
   -0.0515   -1.0384    0.0000 C   0  0  3  0  0  0  0  0  0  0  0  0
    2.1138    1.0384    0.0000 C   0  0  0  0  0  0  0  0  0  0  0  0
    1.3772   -1.0237    0.0000 C   0  0  0  0  0  0  0  0  0  0  0  0
   -0.0515    2.3052    0.0000 C   0  0  0  0  0  0  0  0  0  0  0  0
    2.5556    0.6702    0.0000 C   0  0  0  0  0  0  0  0  0  0  0  0
    0.6702   -1.4362    0.0000 C   0  0  0  0  0  0  0  0  0  0  0  0
    1.3772    2.2905    0.0000 C   0  0  0  0  0  0  0  0  0  0  0  0
    0.6407    2.6882    0.0000 C   0  0  0  0  0  0  0  0  0  0  0  0
    3.6456   -0.0221    0.0000 C   0  0  0  0  0  0  0  0  0  0  0  0
   -1.5098   -1.0384    0.0000 C   0  0  0  0  0  0  0  0  0  0  0  0
   -2.2021   -1.4509    0.0000 C   0  0  0  0  0  0  0  0  0  0  0  0
   -2.9385   -1.0532    0.0000 C   0  0  0  0  0  0  0  0  0  0  0  0
   -2.2169   -2.2758    0.0000 C   0  0  0  0  0  0  0  0  0  0  0  0
   -3.6456   -1.4509    0.0000 C   0  0  0  0  0  0  0  0  0  0  0  0
   -2.9239   -2.6882    0.0000 C   0  0  0  0  0  0  0  0  0  0  0  0
   -3.6456   -2.2758    0.0000 C   0  0  0  0  0  0  0  0  0  0  0  0
  7  1  1  6  0  0  0
  1  9  1  0  0  0  0
  2 16  1  0  0  0  0
 11  3  1  1  0  0  0
  3 17  1  0  0  0  0
  3 21  1  0  0  0  0
 13  4  1  6  0  0  0
  4 22  1  0  0  0  0
  5  6  1  6  0  0  0
  5  7  1  0  0  0  0
  5  8  1  0  0  0  0
  5 12  1  0  0  0  0
  6  9  1  0  0  0  0
  6 10  2  0  0  0  0
  7 13  1  0  0  0  0
  8 11  1  0  0  0  0
  8 15  1  0  0  0  0
  9 16  2  0  0  0  0
 10 14  1  0  0  0  0
 10 19  1  0  0  0  0
 11 14  1  0  0  0  0
 12 17  1  0  0  0  0
 13 18  1  0  0  0  0
 15 18  1  0  0  0  0
 16 20  1  0  0  0  0
 19 20  2  0  0  0  0
 22 23  1  0  0  0  0
 23 24  2  0  0  0  0
 23 25  1  0  0  0  0
 24 26  1  0  0  0  0
 25 27  2  0  0  0  0
 26 28  2  0  0  0  0
 27 28  1  0  0  0  0
M  END
> <PUBCHEM_COMPOUND_ID_TYPE>
0

> <PUBCHEM_TOTAL_CHARGE>
0

> <PUBCHEM_SUBSTANCE_ID>
310947979

> <PUBCHEM_SUBSTANCE_VERSION>
1

> <PUBCHEM_EXT_DATASOURCE_NAME>
4488

> <PUBCHEM_EXT_DATASOURCE_REGID>
SCHEMBL16126153

> <PUBCHEM_SUBSTANCE_COMMENT>
InChI=1S/C24H28N2O2/c1-26-12-11-24-17-8-9-18(25-14-15-5-3-2-4-6-15)23(24)28-22-20(27)10-7-16(21(22)24)13-19(17)26/h2-7,10,17-19,23,25,27H,8-9,11-14H2,1H3/t17?,18-,19+,23-,24-/m0/s1
InChIKey=XAYPZXILJKUGLN-UXGAFDOPSA-N

> <PUBCHEM_SUBSTANCE_SYNONYM>
SCHEMBL16126153

> <PUBCHEM_XREF_EXT_ID>
SCHEMBL16126153

> <PUBCHEM_EXT_DATASOURCE_URL>
https://www.surechembl.org/

> <PUBCHEM_EXT_SUBSTANCE_URL>
https://www.surechembl.org/chemical/SCHEMBL16126153

> <PUBCHEM_CID_ASSOCIATIONS>
117613626  1

> <PUBCHEM_COORDINATE_TYPE>
1
3

> <PUBCHEM_BONDANNOTATIONS>
7  1  6
11  3  5
13  4  6
5  6  6

$$$$
