310934716
  -OEChem-07211613022D

 23 25  0     0  0  0  0  0  0999 V2000
    4.4878   -0.7103    0.0000 O   0  0  0  0  0  0  0  0  0  0  0  0
    1.5820    0.0000    0.0000 O   0  0  0  0  0  0  0  0  0  0  0  0
    1.5820   -1.4206    0.0000 O   0  0  0  0  0  0  0  0  0  0  0  0
    2.8089   -0.7103    0.0000 C   0  0  0  0  0  0  0  0  0  0  0  0
    1.9694   -0.7103    0.0000 C   0  0  0  0  0  0  0  0  0  0  0  0
    2.3891   -1.4206    0.0000 C   0  0  0  0  0  0  0  0  0  0  0  0
    3.2286   -1.4206    0.0000 C   0  0  0  0  0  0  0  0  0  0  0  0
    3.2286    0.0000    0.0000 C   0  0  0  0  0  0  0  0  0  0  0  0
    2.4215   -2.8735    0.0000 C   0  0  0  0  0  0  0  0  0  0  0  0
    2.8089   -2.1309    0.0000 C   0  0  0  0  0  0  0  0  0  0  0  0
    1.6143   -4.2940    0.0000 C   0  0  0  0  0  0  0  0  0  0  0  0
    4.0358   -1.4206    0.0000 C   0  0  0  0  0  0  0  0  0  0  0  0
    4.0358    0.0000    0.0000 C   0  0  0  0  0  0  0  0  0  0  0  0
    1.2268   -5.0366    0.0000 C   0  0  0  0  0  0  0  0  0  0  0  0
    1.5820   -2.8735    0.0000 C   0  0  0  0  0  0  0  0  0  0  0  0
    2.8412   -3.5837    0.0000 C   0  0  0  0  0  0  0  0  0  0  0  0
    1.1946   -3.5837    0.0000 C   0  0  0  0  0  0  0  0  0  0  0  0
    2.4215   -4.2940    0.0000 C   0  0  0  0  0  0  0  0  0  0  0  0
    1.6466   -5.7146    0.0000 C   0  0  0  0  0  0  0  0  0  0  0  0
    0.3875   -5.0366    0.0000 C   0  0  0  0  0  0  0  0  0  0  0  0
    1.2268   -6.4572    0.0000 C   0  0  0  0  0  0  0  0  0  0  0  0
    0.0000   -5.7469    0.0000 C   0  0  0  0  0  0  0  0  0  0  0  0
    0.4197   -6.4572    0.0000 C   0  0  0  0  0  0  0  0  0  0  0  0
  1 12  1  0  0  0  0
  1 13  1  0  0  0  0
  2  5  2  0  0  0  0
  3  5  1  0  0  0  0
  4  5  1  0  0  0  0
  4  6  1  0  0  0  0
  4  7  1  0  0  0  0
  4  8  1  0  0  0  0
  6 10  1  0  0  0  0
  7 12  1  0  0  0  0
  8 13  1  0  0  0  0
  9 10  1  0  0  0  0
  9 15  2  0  0  0  0
  9 16  1  0  0  0  0
 11 14  1  0  0  0  0
 11 17  2  0  0  0  0
 11 18  1  0  0  0  0
 14 19  2  0  0  0  0
 14 20  1  0  0  0  0
 15 17  1  0  0  0  0
 16 18  2  0  0  0  0
 19 21  1  0  0  0  0
 20 22  2  0  0  0  0
 21 23  2  0  0  0  0
 22 23  1  0  0  0  0
M  END
> <PUBCHEM_COMPOUND_ID_TYPE>
0

> <PUBCHEM_TOTAL_CHARGE>
0

> <PUBCHEM_SUBSTANCE_ID>
310934716

> <PUBCHEM_SUBSTANCE_VERSION>
1

> <PUBCHEM_EXT_DATASOURCE_NAME>
4488

> <PUBCHEM_EXT_DATASOURCE_REGID>
SCHEMBL16112217

> <PUBCHEM_SUBSTANCE_COMMENT>
InChI=1S/C20H22O3/c21-19(22)20(12-14-23-15-13-20)11-10-16-6-8-18(9-7-16)17-4-2-1-3-5-17/h1-9H,10-15H2,(H,21,22)
InChIKey=UKBHEMCXCNHDHZ-UHFFFAOYSA-N

> <PUBCHEM_SUBSTANCE_SYNONYM>
SCHEMBL16112217

> <PUBCHEM_XREF_EXT_ID>
SCHEMBL16112217

> <PUBCHEM_EXT_DATASOURCE_URL>
https://www.surechembl.org/

> <PUBCHEM_EXT_SUBSTANCE_URL>
https://www.surechembl.org/chemical/SCHEMBL16112217

> <PUBCHEM_CID_ASSOCIATIONS>
117602875  1

> <PUBCHEM_COORDINATE_TYPE>
1
3

$$$$
