310949204
  -OEChem-07211613022D

 71 83  0     0  0  0  0  0  0999 V2000
    1.3589   -0.8110    0.0000 N   0  0  0  0  0  0  0  0  0  0  0  0
   -1.5782   -0.8110    0.0000 N   0  0  0  0  0  0  0  0  0  0  0  0
   -0.1096    1.6878    0.0000 N   0  0  0  0  0  0  0  0  0  0  0  0
   -2.2796    1.2055    0.0000 N   0  0  0  0  0  0  0  0  0  0  0  0
    2.0604    1.2275    0.0000 N   0  0  0  0  0  0  0  0  0  0  0  0
    0.5919   -0.3726    0.0000 C   0  0  0  0  0  0  0  0  0  0  0  0
   -0.8330   -0.3507    0.0000 C   0  0  0  0  0  0  0  0  0  0  0  0
   -0.1096    0.8768    0.0000 C   0  0  0  0  0  0  0  0  0  0  0  0
   -0.1096   -0.7672    0.0000 C   0  0  0  0  0  0  0  0  0  0  0  0
    0.5919    0.4822    0.0000 C   0  0  0  0  0  0  0  0  0  0  0  0
   -0.8330    0.4822    0.0000 C   0  0  0  0  0  0  0  0  0  0  0  0
    2.1043   -0.4603    0.0000 C   0  0  0  0  0  0  0  0  0  0  0  0
   -2.3453   -0.4383    0.0000 C   0  0  0  0  0  0  0  0  0  0  0  0
    1.4247   -1.6221    0.0000 C   0  0  0  0  0  0  0  0  0  0  0  0
   -1.6659   -1.6001    0.0000 C   0  0  0  0  0  0  0  0  0  0  0  0
    0.5261    2.2357    0.0000 C   0  0  0  0  0  0  0  0  0  0  0  0
   -0.8548    2.2357    0.0000 C   0  0  0  0  0  0  0  0  0  0  0  0
    2.6742   -1.0740    0.0000 C   0  0  0  0  0  0  0  0  0  0  0  0
   -2.9153   -1.0521    0.0000 C   0  0  0  0  0  0  0  0  0  0  0  0
    2.2577   -1.8193    0.0000 C   0  0  0  0  0  0  0  0  0  0  0  0
   -2.4768   -1.7755    0.0000 C   0  0  0  0  0  0  0  0  0  0  0  0
   -0.1534   -1.6221    0.0000 C   0  0  0  0  0  0  0  0  0  0  0  0
   -0.5481    3.0249    0.0000 C   0  0  0  0  0  0  0  0  0  0  0  0
    0.3069    2.9810    0.0000 C   0  0  0  0  0  0  0  0  0  0  0  0
   -1.5782    0.8548    0.0000 C   0  0  0  0  0  0  0  0  0  0  0  0
    1.3370    0.8768    0.0000 C   0  0  0  0  0  0  0  0  0  0  0  0
    2.3892    0.3069    0.0000 C   0  0  0  0  0  0  0  0  0  0  0  0
   -2.6303    0.3287    0.0000 C   0  0  0  0  0  0  0  0  0  0  0  0
    0.8768   -2.2577    0.0000 C   0  0  0  0  0  0  0  0  0  0  0  0
   -1.1179   -2.2795    0.0000 C   0  0  0  0  0  0  0  0  0  0  0  0
    3.5070   -0.9206    0.0000 C   0  0  0  0  0  0  0  0  0  0  0  0
   -3.6386   -0.8768    0.0000 C   0  0  0  0  0  0  0  0  0  0  0  0
    1.3809    2.0823    0.0000 C   0  0  0  0  0  0  0  0  0  0  0  0
   -1.6001    2.0604    0.0000 C   0  0  0  0  0  0  0  0  0  0  0  0
    2.5206   -2.6303    0.0000 C   0  0  0  0  0  0  0  0  0  0  0  0
   -2.7400   -2.5645    0.0000 C   0  0  0  0  0  0  0  0  0  0  0  0
   -1.0959    3.5948    0.0000 C   0  0  0  0  0  0  0  0  0  0  0  0
    0.8330    3.5948    0.0000 C   0  0  0  0  0  0  0  0  0  0  0  0
   -0.8110   -2.0385    0.0000 C   0  0  0  0  0  0  0  0  0  0  0  0
    0.5919   -2.0385    0.0000 C   0  0  0  0  0  0  0  0  0  0  0  0
    3.7701   -0.1096    0.0000 C   0  0  0  0  0  0  0  0  0  0  0  0
   -3.9235   -0.0876    0.0000 C   0  0  0  0  0  0  0  0  0  0  0  0
    3.2002    0.4822    0.0000 C   0  0  0  0  0  0  0  0  0  0  0  0
   -3.4194    0.5041    0.0000 C   0  0  0  0  0  0  0  0  0  0  0  0
    1.9508   -3.2221    0.0000 C   0  0  0  0  0  0  0  0  0  0  0  0
   -2.1919   -3.1783    0.0000 C   0  0  0  0  0  0  0  0  0  0  0  0
    1.1398   -3.0249    0.0000 C   0  0  0  0  0  0  0  0  0  0  0  0
   -1.4028   -3.0249    0.0000 C   0  0  0  0  0  0  0  0  0  0  0  0
   -1.9070    3.4632    0.0000 C   0  0  0  0  0  0  0  0  0  0  0  0
    1.6878    3.4851    0.0000 C   0  0  0  0  0  0  0  0  0  0  0  0
   -2.1699    2.6961    0.0000 C   0  0  0  0  0  0  0  0  0  0  0  0
    1.9508    2.6742    0.0000 C   0  0  0  0  0  0  0  0  0  0  0  0
    4.6250    0.0438    0.0000 C   0  0  0  0  0  0  0  0  0  0  0  0
   -4.7126    0.0658    0.0000 C   0  0  0  0  0  0  0  0  0  0  0  0
   -0.8110   -2.8495    0.0000 C   0  0  0  0  0  0  0  0  0  0  0  0
    0.6137   -2.8276    0.0000 C   0  0  0  0  0  0  0  0  0  0  0  0
   -0.1315   -3.2659    0.0000 C   0  0  0  0  0  0  0  0  0  0  0  0
    2.2577   -4.0331    0.0000 C   0  0  0  0  0  0  0  0  0  0  0  0
   -2.4330   -3.9673    0.0000 C   0  0  0  0  0  0  0  0  0  0  0  0
   -2.4988    4.0331    0.0000 C   0  0  0  0  0  0  0  0  0  0  0  0
    2.2795    4.0112    0.0000 C   0  0  0  0  0  0  0  0  0  0  0  0
    5.1729   -0.5481    0.0000 C   0  0  0  0  0  0  0  0  0  0  0  0
    4.8880    0.8110    0.0000 C   0  0  0  0  0  0  0  0  0  0  0  0
   -4.9537    0.8548    0.0000 C   0  0  0  0  0  0  0  0  0  0  0  0
   -5.2168   -0.5041    0.0000 C   0  0  0  0  0  0  0  0  0  0  0  0
    6.0278   -0.3945    0.0000 C   0  0  0  0  0  0  0  0  0  0  0  0
    5.6552    0.9864    0.0000 C   0  0  0  0  0  0  0  0  0  0  0  0
   -5.6771    1.0302    0.0000 C   0  0  0  0  0  0  0  0  0  0  0  0
   -6.0058   -0.3507    0.0000 C   0  0  0  0  0  0  0  0  0  0  0  0
    6.2688    0.3945    0.0000 C   0  0  0  0  0  0  0  0  0  0  0  0
   -6.2688    0.4383    0.0000 C   0  0  0  0  0  0  0  0  0  0  0  0
  1  6  1  0  0  0  0
  1 12  1  0  0  0  0
  1 14  1  0  0  0  0
  2  7  1  0  0  0  0
  2 13  1  0  0  0  0
  2 15  1  0  0  0  0
  3  8  1  0  0  0  0
  3 16  1  0  0  0  0
  3 17  1  0  0  0  0
  4 25  3  0  0  0  0
  5 26  3  0  0  0  0
  6  9  2  0  0  0  0
  6 10  1  0  0  0  0
  7  9  1  0  0  0  0
  7 11  2  0  0  0  0
  8 10  2  0  0  0  0
  8 11  1  0  0  0  0
  9 22  1  0  0  0  0
 10 26  1  0  0  0  0
 11 25  1  0  0  0  0
 12 18  2  0  0  0  0
 12 27  1  0  0  0  0
 13 19  2  0  0  0  0
 13 28  1  0  0  0  0
 14 20  2  0  0  0  0
 14 29  1  0  0  0  0
 15 21  2  0  0  0  0
 15 30  1  0  0  0  0
 16 24  2  0  0  0  0
 16 33  1  0  0  0  0
 17 23  2  0  0  0  0
 17 34  1  0  0  0  0
 18 20  1  0  0  0  0
 18 31  1  0  0  0  0
 19 21  1  0  0  0  0
 19 32  1  0  0  0  0
 20 35  1  0  0  0  0
 21 36  1  0  0  0  0
 22 39  2  0  0  0  0
 22 40  1  0  0  0  0
 23 24  1  0  0  0  0
 23 37  1  0  0  0  0
 24 38  1  0  0  0  0
 27 43  2  0  0  0  0
 28 44  2  0  0  0  0
 29 47  2  0  0  0  0
 30 48  2  0  0  0  0
 31 41  2  0  0  0  0
 32 42  2  0  0  0  0
 33 52  2  0  0  0  0
 34 51  2  0  0  0  0
 35 45  2  0  0  0  0
 36 46  2  0  0  0  0
 37 49  2  0  0  0  0
 38 50  2  0  0  0  0
 39 55  1  0  0  0  0
 40 56  2  0  0  0  0
 41 43  1  0  0  0  0
 41 53  1  0  0  0  0
 42 44  1  0  0  0  0
 42 54  1  0  0  0  0
 45 47  1  0  0  0  0
 45 58  1  0  0  0  0
 46 48  1  0  0  0  0
 46 59  1  0  0  0  0
 49 51  1  0  0  0  0
 49 60  1  0  0  0  0
 50 52  1  0  0  0  0
 50 61  1  0  0  0  0
 53 62  2  0  0  0  0
 53 63  1  0  0  0  0
 54 64  2  0  0  0  0
 54 65  1  0  0  0  0
 55 57  2  0  0  0  0
 56 57  1  0  0  0  0
 62 66  1  0  0  0  0
 63 67  2  0  0  0  0
 64 68  1  0  0  0  0
 65 69  2  0  0  0  0
 66 70  2  0  0  0  0
 67 70  1  0  0  0  0
 68 71  2  0  0  0  0
 69 71  1  0  0  0  0
M  END
> <PUBCHEM_COMPOUND_ID_TYPE>
0

> <PUBCHEM_TOTAL_CHARGE>
0

> <PUBCHEM_SUBSTANCE_ID>
310949204

> <PUBCHEM_SUBSTANCE_VERSION>
1

> <PUBCHEM_EXT_DATASOURCE_NAME>
4488

> <PUBCHEM_EXT_DATASOURCE_REGID>
SCHEMBL16127394

> <PUBCHEM_SUBSTANCE_COMMENT>
InChI=1S/C66H45N5/c1-40-20-26-57-49(32-40)50-33-41(2)21-27-58(50)69(57)64-55(38-67)65(70-59-28-22-42(3)34-51(59)53-36-47(24-30-61(53)70)44-14-8-5-9-15-44)63(46-18-12-7-13-19-46)66(56(64)39-68)71-60-29-23-43(4)35-52(60)54-37-48(25-31-62(54)71)45-16-10-6-11-17-45/h5-37H,1-4H3
InChIKey=LPERDSRZSNSDQU-UHFFFAOYSA-N

> <PUBCHEM_SUBSTANCE_SYNONYM>
SCHEMBL16127394

> <PUBCHEM_XREF_EXT_ID>
SCHEMBL16127394

> <PUBCHEM_EXT_DATASOURCE_URL>
https://www.surechembl.org/

> <PUBCHEM_EXT_SUBSTANCE_URL>
https://www.surechembl.org/chemical/SCHEMBL16127394

> <PUBCHEM_CID_ASSOCIATIONS>
117614692  1

> <PUBCHEM_COORDINATE_TYPE>
1
3

$$$$
