310933813
  -OEChem-07211613022D

 44 49  0     1  0  0  0  0  0999 V2000
    0.0000   -3.0487    0.0000 Cl  0  0  0  0  0  0  0  0  0  0  0  0
    1.6442   -2.8774    0.0000 F   0  0  0  0  0  0  0  0  0  0  0  0
    4.5901   -5.7548    0.0000 O   0  0  0  0  0  0  0  0  0  0  0  0
    3.8708   -3.6995    0.0000 O   0  0  0  0  0  0  0  0  0  0  0  0
    9.0775   -2.6034    0.0000 O   0  0  0  0  0  0  0  0  0  0  0  0
   10.2764   -3.9393    0.0000 O   0  0  0  0  0  0  0  0  0  0  0  0
    7.4675    0.0000    0.0000 O   0  0  0  0  0  0  0  0  0  0  0  0
    8.1869   -1.2332    0.0000 O   0  0  0  0  0  0  0  0  0  0  0  0
    5.3095   -4.5216    0.0000 N   0  0  0  0  0  0  0  0  0  0  0  0
    8.1526   -3.7337    0.0000 N   0  0  0  0  0  0  0  0  0  0  0  0
    2.6034   -4.2476    0.0000 N   0  0  0  0  0  0  0  0  0  0  0  0
    3.9735   -3.8708    0.0000 N   0  0  0  0  0  0  0  0  0  0  0  0
    4.5901   -2.4663    0.0000 N   0  0  0  0  0  0  0  0  0  0  0  0
    2.9802   -3.5282    0.0000 N   0  0  0  0  0  0  0  0  0  0  0  0
    5.3095   -3.6995    0.0000 C   0  0  3  0  0  0  0  0  0  0  0  0
    6.0288   -3.2884    0.0000 C   0  0  0  0  0  0  0  0  0  0  0  0
    6.7482   -3.6995    0.0000 C   0  0  0  0  0  0  0  0  0  0  0  0
    7.4332   -3.3227    0.0000 C   0  0  0  0  0  0  0  0  0  0  0  0
    4.5901   -4.9327    0.0000 C   0  0  0  0  0  0  0  0  0  0  0  0
    4.5901   -3.2884    0.0000 C   0  0  0  0  0  0  0  0  0  0  0  0
    6.7482   -4.5216    0.0000 C   0  0  0  0  0  0  0  0  0  0  0  0
    5.9945   -4.9327    0.0000 C   0  0  0  0  0  0  0  0  0  0  0  0
    3.8708   -4.5216    0.0000 C   0  0  0  0  0  0  0  0  0  0  0  0
    6.2001   -2.6376    0.0000 C   0  0  0  0  0  0  0  0  0  0  0  0
    7.4332   -2.4663    0.0000 C   0  0  0  0  0  0  0  0  0  0  0  0
    8.9062   -3.3912    0.0000 C   0  0  0  0  0  0  0  0  0  0  0  0
    6.8852   -2.2265    0.0000 C   0  0  0  0  0  0  0  0  0  0  0  0
    3.1515   -4.8641    0.0000 C   0  0  0  0  0  0  0  0  0  0  0  0
    8.2211   -4.5559    0.0000 C   0  0  0  0  0  0  0  0  0  0  0  0
    1.7813   -4.3161    0.0000 C   0  0  0  0  0  0  0  0  0  0  0  0
    9.4543   -4.0421    0.0000 C   0  0  3  0  0  0  0  0  0  0  0  0
    9.0090   -4.7271    0.0000 C   0  0  0  0  0  0  0  0  0  0  0  0
    1.3017   -3.6652    0.0000 C   0  0  0  0  0  0  0  0  0  0  0  0
    5.3095   -2.0553    0.0000 C   0  0  0  0  0  0  0  0  0  0  0  0
    1.4044   -5.0697    0.0000 C   0  0  0  0  0  0  0  0  0  0  0  0
    0.4796   -3.7337    0.0000 C   0  0  0  0  0  0  0  0  0  0  0  0
    0.6166   -5.1382    0.0000 C   0  0  0  0  0  0  0  0  0  0  0  0
    5.3095   -1.2332    0.0000 C   0  0  0  0  0  0  0  0  0  0  0  0
    6.0288   -2.4663    0.0000 C   0  0  0  0  0  0  0  0  0  0  0  0
    0.1028   -4.4531    0.0000 C   0  0  0  0  0  0  0  0  0  0  0  0
    6.7482   -1.2332    0.0000 C   0  0  0  0  0  0  0  0  0  0  0  0
    6.0288   -0.8221    0.0000 C   0  0  0  0  0  0  0  0  0  0  0  0
    6.7482   -2.0553    0.0000 C   0  0  0  0  0  0  0  0  0  0  0  0
    7.4675   -0.8221    0.0000 C   0  0  0  0  0  0  0  0  0  0  0  0
  1 36  1  0  0  0  0
  2 33  1  0  0  0  0
  3 19  2  0  0  0  0
  4 20  2  0  0  0  0
  5 26  2  0  0  0  0
 31  6  1  1  0  0  0
  7 44  2  0  0  0  0
  8 44  1  0  0  0  0
  9 15  1  0  0  0  0
  9 19  1  0  0  0  0
  9 22  1  0  0  0  0
 10 18  1  0  0  0  0
 10 26  1  0  0  0  0
 10 29  1  0  0  0  0
 11 14  1  0  0  0  0
 11 28  1  0  0  0  0
 11 30  1  0  0  0  0
 12 14  2  0  0  0  0
 12 23  1  0  0  0  0
 13 20  1  0  0  0  0
 13 34  1  0  0  0  0
 15 16  1  0  0  0  0
 15 20  1  0  0  0  0
 16 17  2  0  0  0  0
 16 24  1  0  0  0  0
 17 18  1  0  0  0  0
 17 21  1  0  0  0  0
 18 25  2  0  0  0  0
 19 23  1  0  0  0  0
 21 22  1  0  0  0  0
 23 28  2  0  0  0  0
 24 27  2  0  0  0  0
 25 27  1  0  0  0  0
 26 31  1  0  0  0  0
 29 32  1  0  0  0  0
 30 33  1  0  0  0  0
 30 35  2  0  0  0  0
 31 32  1  0  0  0  0
 33 36  2  0  0  0  0
 34 38  2  0  0  0  0
 34 39  1  0  0  0  0
 35 37  1  0  0  0  0
 36 40  1  0  0  0  0
 37 40  2  0  0  0  0
 38 42  1  0  0  0  0
 39 43  2  0  0  0  0
 41 42  2  0  0  0  0
 41 43  1  0  0  0  0
 41 44  1  0  0  0  0
M  END
> <PUBCHEM_COMPOUND_ID_TYPE>
0

> <PUBCHEM_TOTAL_CHARGE>
0

> <PUBCHEM_SUBSTANCE_ID>
310933813

> <PUBCHEM_SUBSTANCE_VERSION>
1

> <PUBCHEM_EXT_DATASOURCE_NAME>
4488

> <PUBCHEM_EXT_DATASOURCE_REGID>
SCHEMBL16111251

> <PUBCHEM_SUBSTANCE_COMMENT>
InChI=1S/C30H24ClFN6O6/c31-20-4-2-6-23(25(20)32)38-15-21(34-35-38)28(41)37-13-11-18-19(3-1-5-22(18)36-14-12-24(39)29(36)42)26(37)27(40)33-17-9-7-16(8-10-17)30(43)44/h1-10,15,24,26,39H,11-14H2,(H,33,40)(H,43,44)/t24-,26?/m0/s1
InChIKey=QEZNFQPAVIEUBG-QSAPEBAKSA-N

> <PUBCHEM_SUBSTANCE_SYNONYM>
SCHEMBL16111251

> <PUBCHEM_XREF_EXT_ID>
SCHEMBL16111251

> <PUBCHEM_EXT_DATASOURCE_URL>
https://www.surechembl.org/

> <PUBCHEM_EXT_SUBSTANCE_URL>
https://www.surechembl.org/chemical/SCHEMBL16111251

> <PUBCHEM_CID_ASSOCIATIONS>
117602162  1

> <PUBCHEM_COORDINATE_TYPE>
1
3

> <PUBCHEM_BONDANNOTATIONS>
31  6  5

$$$$
