310938556
  -OEChem-07211613022D

 28 31  0     0  0  0  0  0  0999 V2000
    2.8335   -2.5155    0.0000 F   0  0  0  0  0  0  0  0  0  0  0  0
    4.0710   -1.8010    0.0000 F   0  0  0  0  0  0  0  0  0  0  0  0
    3.6585   -2.5155    0.0000 F   0  0  0  0  0  0  0  0  0  0  0  0
   -1.9275    2.5155    0.0000 O   0  0  0  0  0  0  0  0  0  0  0  0
   -0.4986    0.0405    0.0000 N   0  0  0  0  0  0  0  0  0  0  0  0
    0.2860    0.2954    0.0000 N   0  0  0  0  0  0  0  0  0  0  0  0
   -1.2131   -1.1970    0.0000 N   0  0  0  0  0  0  0  0  0  0  0  0
   -1.2131    1.2780    0.0000 N   0  0  0  0  0  0  0  0  0  0  0  0
   -3.3565    1.6905    0.0000 N   0  0  0  0  0  0  0  0  0  0  0  0
   -2.6420    0.4530    0.0000 N   0  0  0  0  0  0  0  0  0  0  0  0
   -0.4986   -0.7845    0.0000 C   0  0  0  0  0  0  0  0  0  0  0  0
    0.7710   -0.3720    0.0000 C   0  0  0  0  0  0  0  0  0  0  0  0
   -1.2131    0.4530    0.0000 C   0  0  0  0  0  0  0  0  0  0  0  0
    1.5960   -0.3720    0.0000 C   0  0  0  0  0  0  0  0  0  0  0  0
    0.2860   -1.0395    0.0000 C   0  0  0  0  0  0  0  0  0  0  0  0
    2.8335   -1.0865    0.0000 C   0  0  0  0  0  0  0  0  0  0  0  0
    2.0085   -1.0865    0.0000 C   0  0  0  0  0  0  0  0  0  0  0  0
   -1.9275    0.0405    0.0000 C   0  0  0  0  0  0  0  0  0  0  0  0
    3.2460   -1.8010    0.0000 C   0  0  0  0  0  0  0  0  0  0  0  0
    2.0085    0.3424    0.0000 C   0  0  0  0  0  0  0  0  0  0  0  0
   -1.9275   -0.7845    0.0000 C   0  0  0  0  0  0  0  0  0  0  0  0
   -1.9275    1.6905    0.0000 C   0  0  0  0  0  0  0  0  0  0  0  0
    3.2460   -0.3720    0.0000 C   0  0  0  0  0  0  0  0  0  0  0  0
   -2.6420    1.2780    0.0000 C   0  0  0  0  0  0  0  0  0  0  0  0
    2.8335    0.3424    0.0000 C   0  0  0  0  0  0  0  0  0  0  0  0
   -4.0710    1.2780    0.0000 C   0  0  0  0  0  0  0  0  0  0  0  0
   -3.3565    0.0405    0.0000 C   0  0  0  0  0  0  0  0  0  0  0  0
   -4.0710    0.4530    0.0000 C   0  0  0  0  0  0  0  0  0  0  0  0
  1 19  1  0  0  0  0
  2 19  1  0  0  0  0
  3 19  1  0  0  0  0
  4 22  2  0  0  0  0
  5  6  1  0  0  0  0
  5 11  1  0  0  0  0
  5 13  1  0  0  0  0
  6 12  2  0  0  0  0
  7 11  1  0  0  0  0
  7 21  2  0  0  0  0
  8 13  1  0  0  0  0
  8 22  1  0  0  0  0
  9 24  1  0  0  0  0
  9 26  2  0  0  0  0
 10 24  2  0  0  0  0
 10 27  1  0  0  0  0
 11 15  2  0  0  0  0
 12 14  1  0  0  0  0
 12 15  1  0  0  0  0
 13 18  2  0  0  0  0
 14 17  1  0  0  0  0
 14 20  2  0  0  0  0
 16 17  2  0  0  0  0
 16 19  1  0  0  0  0
 16 23  1  0  0  0  0
 18 21  1  0  0  0  0
 20 25  1  0  0  0  0
 22 24  1  0  0  0  0
 23 25  2  0  0  0  0
 26 28  1  0  0  0  0
 27 28  2  0  0  0  0
M  END
> <PUBCHEM_COMPOUND_ID_TYPE>
0

> <PUBCHEM_TOTAL_CHARGE>
0

> <PUBCHEM_SUBSTANCE_ID>
310938556

> <PUBCHEM_SUBSTANCE_VERSION>
1

> <PUBCHEM_EXT_DATASOURCE_NAME>
4488

> <PUBCHEM_EXT_DATASOURCE_REGID>
SCHEMBL16116470

> <PUBCHEM_SUBSTANCE_COMMENT>
InChI=1S/C18H11F3N6O/c19-18(20,21)12-4-1-3-11(9-12)13-10-15-22-8-5-14(27(15)26-13)25-17(28)16-23-6-2-7-24-16/h1-10H,(H,25,28)
InChIKey=IFLOQBONLUOKJV-UHFFFAOYSA-N

> <PUBCHEM_SUBSTANCE_SYNONYM>
SCHEMBL16116470

> <PUBCHEM_XREF_EXT_ID>
SCHEMBL16116470

> <PUBCHEM_EXT_DATASOURCE_URL>
https://www.surechembl.org/

> <PUBCHEM_EXT_SUBSTANCE_URL>
https://www.surechembl.org/chemical/SCHEMBL16116470

> <PUBCHEM_CID_ASSOCIATIONS>
117605995  1

> <PUBCHEM_COORDINATE_TYPE>
1
3

$$$$
