310944725
  -OEChem-07211613022D

 30 32  0     0  0  0  0  0  0999 V2000
   -3.3875   -1.0262    0.0000 Cl  0  0  0  0  0  0  0  0  0  0  0  0
   -0.3709   -1.0262    0.0000 O   0  0  0  0  0  0  0  0  0  0  0  0
    1.0509    1.4465    0.0000 O   0  0  0  0  0  0  0  0  0  0  0  0
    4.6362   -0.6182    0.0000 O   0  0  0  0  0  0  0  0  0  0  0  0
   -0.3585    0.6182    0.0000 N   0  0  0  0  0  0  0  0  0  0  0  0
    1.7926    0.2102    0.0000 N   0  0  0  0  0  0  0  0  0  0  0  0
    3.2268   -0.6182    0.0000 N   0  0  0  0  0  0  0  0  0  0  0  0
   -1.7926    2.2254    0.0000 N   0  0  0  0  0  0  0  0  0  0  0  0
   -2.4974    0.2102    0.0000 C   0  0  0  0  0  0  0  0  0  0  0  0
   -3.2268    0.6305    0.0000 C   0  0  0  0  0  0  0  0  0  0  0  0
   -1.0756    0.2225    0.0000 C   0  0  0  0  0  0  0  0  0  0  0  0
   -2.5098   -0.6058    0.0000 C   0  0  0  0  0  0  0  0  0  0  0  0
   -1.7803    0.6182    0.0000 C   0  0  0  0  0  0  0  0  0  0  0  0
   -1.0879   -0.6058    0.0000 C   0  0  0  0  0  0  0  0  0  0  0  0
   -3.2145    1.4589    0.0000 C   0  0  0  0  0  0  0  0  0  0  0  0
   -1.7926   -1.0137    0.0000 C   0  0  0  0  0  0  0  0  0  0  0  0
   -3.9439    0.2225    0.0000 C   0  0  0  0  0  0  0  0  0  0  0  0
    1.0509    0.6182    0.0000 C   0  0  0  0  0  0  0  0  0  0  0  0
    0.3585    0.2102    0.0000 C   0  0  0  0  0  0  0  0  0  0  0  0
   -3.9192    1.8544    0.0000 C   0  0  0  0  0  0  0  0  0  0  0  0
    2.4974    0.6182    0.0000 C   0  0  0  0  0  0  0  0  0  0  0  0
    1.8051   -0.6182    0.0000 C   0  0  0  0  0  0  0  0  0  0  0  0
   -2.5098    1.8544    0.0000 C   0  0  0  0  0  0  0  0  0  0  0  0
   -4.6362    0.6305    0.0000 C   0  0  0  0  0  0  0  0  0  0  0  0
    3.2145    0.2102    0.0000 C   0  0  0  0  0  0  0  0  0  0  0  0
    2.5098   -1.0262    0.0000 C   0  0  0  0  0  0  0  0  0  0  0  0
   -4.6362    1.4465    0.0000 C   0  0  0  0  0  0  0  0  0  0  0  0
    3.9192   -1.0262    0.0000 C   0  0  0  0  0  0  0  0  0  0  0  0
    3.9315   -1.8544    0.0000 C   0  0  0  0  0  0  0  0  0  0  0  0
    3.1897   -2.2254    0.0000 C   0  0  0  0  0  0  0  0  0  0  0  0
  1 12  1  0  0  0  0
  2 14  1  0  0  0  0
  3 18  2  0  0  0  0
  4 28  2  0  0  0  0
  5 11  1  0  0  0  0
  5 19  1  0  0  0  0
  6 18  1  0  0  0  0
  6 21  1  0  0  0  0
  6 22  1  0  0  0  0
  7 25  1  0  0  0  0
  7 26  1  0  0  0  0
  7 28  1  0  0  0  0
  8 23  3  0  0  0  0
  9 10  1  0  0  0  0
  9 12  2  0  0  0  0
  9 13  1  0  0  0  0
 10 15  1  0  0  0  0
 10 17  2  0  0  0  0
 11 13  2  0  0  0  0
 11 14  1  0  0  0  0
 12 16  1  0  0  0  0
 14 16  2  0  0  0  0
 15 20  2  0  0  0  0
 15 23  1  0  0  0  0
 17 24  1  0  0  0  0
 18 19  1  0  0  0  0
 20 27  1  0  0  0  0
 21 25  1  0  0  0  0
 22 26  1  0  0  0  0
 24 27  2  0  0  0  0
 28 29  1  0  0  0  0
 29 30  2  0  0  0  0
M  END
> <PUBCHEM_COMPOUND_ID_TYPE>
0

> <PUBCHEM_TOTAL_CHARGE>
0

> <PUBCHEM_SUBSTANCE_ID>
310944725

> <PUBCHEM_SUBSTANCE_VERSION>
1

> <PUBCHEM_EXT_DATASOURCE_NAME>
4488

> <PUBCHEM_EXT_DATASOURCE_REGID>
SCHEMBL16122804

> <PUBCHEM_SUBSTANCE_COMMENT>
InChI=1S/C22H21ClN4O3/c1-2-21(29)26-7-9-27(10-8-26)22(30)14-25-19-11-17(18(23)12-20(19)28)16-6-4-3-5-15(16)13-24/h2-6,11-12,25,28H,1,7-10,14H2
InChIKey=QSTNZQNVDQBIOJ-UHFFFAOYSA-N

> <PUBCHEM_SUBSTANCE_SYNONYM>
SCHEMBL16122804

> <PUBCHEM_XREF_EXT_ID>
SCHEMBL16122804

> <PUBCHEM_EXT_DATASOURCE_URL>
https://www.surechembl.org/

> <PUBCHEM_EXT_SUBSTANCE_URL>
https://www.surechembl.org/chemical/SCHEMBL16122804

> <PUBCHEM_CID_ASSOCIATIONS>
117610944  1

> <PUBCHEM_COORDINATE_TYPE>
1
3

$$$$
