310949439
  -OEChem-07211613022D

 29 32  0     0  0  0  0  0  0999 V2000
    4.0021    0.4587    0.0000 O   0  0  0  0  0  0  0  0  0  0  0  0
   -0.8700    0.0474    0.0000 O   0  0  0  0  0  0  0  0  0  0  0  0
   -3.4960   -1.4079    0.0000 O   0  0  0  0  0  0  0  0  0  0  0  0
   -3.9389   -3.0214    0.0000 O   0  0  0  0  0  0  0  0  0  0  0  0
   -5.2993   -2.6417    0.0000 O   0  0  0  0  0  0  0  0  0  0  0  0
   -0.4587    1.7559    0.0000 N   0  0  0  0  0  0  0  0  0  0  0  0
   -1.3130    2.7999    0.0000 N   0  0  0  0  0  0  0  0  0  0  0  0
    3.9389    1.8192    0.0000 N   0  0  0  0  0  0  0  0  0  0  0  0
   -2.2621    0.4271    0.0000 N   0  0  0  0  0  0  0  0  0  0  0  0
    5.2993    1.2180    0.0000 N   0  0  0  0  0  0  0  0  0  0  0  0
   -0.4904    2.6101    0.0000 C   0  0  0  0  0  0  0  0  0  0  0  0
   -1.2180    1.4711    0.0000 C   0  0  0  0  0  0  0  0  0  0  0  0
    0.9649    1.8508    0.0000 C   0  0  0  0  0  0  0  0  0  0  0  0
    1.7242    1.4395    0.0000 C   0  0  0  0  0  0  0  0  0  0  0  0
    0.3005    1.3762    0.0000 C   0  0  0  0  0  0  0  0  0  0  0  0
    3.1796    1.5344    0.0000 C   0  0  0  0  0  0  0  0  0  0  0  0
    3.1796    0.7118    0.0000 C   0  0  0  0  0  0  0  0  0  0  0  0
    2.4203    1.8824    0.0000 C   0  0  0  0  0  0  0  0  0  0  0  0
    0.2056    3.0214    0.0000 C   0  0  0  0  0  0  0  0  0  0  0  0
   -1.7242    2.0723    0.0000 C   0  0  0  0  0  0  0  0  0  0  0  0
    0.9333    2.6734    0.0000 C   0  0  0  0  0  0  0  0  0  0  0  0
   -1.4711    0.6486    0.0000 C   0  0  0  0  0  0  0  0  0  0  0  0
    1.7875    0.6169    0.0000 C   0  0  0  0  0  0  0  0  0  0  0  0
    2.5468    0.2689    0.0000 C   0  0  0  0  0  0  0  0  0  0  0  0
    4.4451    1.1864    0.0000 C   0  0  0  0  0  0  0  0  0  0  0  0
   -2.4519   -0.3639    0.0000 C   0  0  0  0  0  0  0  0  0  0  0  0
   -3.2429   -0.5853    0.0000 C   0  0  0  0  0  0  0  0  0  0  0  0
   -4.2552   -1.5977    0.0000 C   0  0  0  0  0  0  0  0  0  0  0  0
   -4.5083   -2.3886    0.0000 C   0  0  0  0  0  0  0  0  0  0  0  0
  1 17  1  0  0  0  0
  1 25  1  0  0  0  0
  2 22  2  0  0  0  0
  3 27  1  0  0  0  0
  3 28  1  0  0  0  0
  4 29  2  0  0  0  0
  5 29  1  0  0  0  0
  6 11  1  0  0  0  0
  6 12  1  0  0  0  0
  6 15  1  0  0  0  0
  7 11  2  0  0  0  0
  7 20  1  0  0  0  0
  8 16  1  0  0  0  0
  8 25  2  0  0  0  0
  9 22  1  0  0  0  0
  9 26  1  0  0  0  0
 10 25  1  0  0  0  0
 11 19  1  0  0  0  0
 12 20  2  0  0  0  0
 12 22  1  0  0  0  0
 13 14  1  0  0  0  0
 13 15  2  0  0  0  0
 13 21  1  0  0  0  0
 14 18  2  0  0  0  0
 14 23  1  0  0  0  0
 16 17  2  0  0  0  0
 16 18  1  0  0  0  0
 17 24  1  0  0  0  0
 19 21  2  0  0  0  0
 23 24  2  0  0  0  0
 26 27  1  0  0  0  0
 28 29  1  0  0  0  0
M  END
> <PUBCHEM_COMPOUND_ID_TYPE>
0

> <PUBCHEM_TOTAL_CHARGE>
0

> <PUBCHEM_SUBSTANCE_ID>
310949439

> <PUBCHEM_SUBSTANCE_VERSION>
1

> <PUBCHEM_EXT_DATASOURCE_NAME>
4488

> <PUBCHEM_EXT_DATASOURCE_REGID>
SCHEMBL16127633

> <PUBCHEM_SUBSTANCE_COMMENT>
InChI=1S/C19H17N5O5/c20-19-23-13-7-11(1-3-15(13)29-19)12-2-4-16-22-8-14(24(16)9-12)18(27)21-5-6-28-10-17(25)26/h1-4,7-9H,5-6,10H2,(H2,20,23)(H,21,27)(H,25,26)
InChIKey=NLYGMPUYBUZSHE-UHFFFAOYSA-N

> <PUBCHEM_SUBSTANCE_SYNONYM>
SCHEMBL16127633

> <PUBCHEM_XREF_EXT_ID>
SCHEMBL16127633

> <PUBCHEM_EXT_DATASOURCE_URL>
https://www.surechembl.org/

> <PUBCHEM_EXT_SUBSTANCE_URL>
https://www.surechembl.org/chemical/SCHEMBL16127633

> <PUBCHEM_CID_ASSOCIATIONS>
60194518  1

> <PUBCHEM_COORDINATE_TYPE>
1
3

$$$$
