310930342
  -OEChem-07211613022D

 33 37  0     0  0  0  0  0  0999 V2000
    6.4979   -2.9002    0.0000 S   0  0  0  0  0  0  0  0  0  0  0  0
    7.1954   -3.3408    0.0000 O   0  0  0  0  0  0  0  0  0  0  0  0
    6.9018   -2.2027    0.0000 O   0  0  0  0  0  0  0  0  0  0  0  0
    3.9648   -7.2322    0.0000 O   0  0  0  0  0  0  0  0  0  0  0  0
    5.7637   -2.4964    0.0000 N   0  0  0  0  0  0  0  0  0  0  0  0
    2.2394   -5.8371    0.0000 N   0  0  0  0  0  0  0  0  0  0  0  0
    3.9648   -5.8004    0.0000 N   0  0  0  0  0  0  0  0  0  0  0  0
    0.0000   -6.9385    0.0000 N   0  0  0  0  0  0  0  0  0  0  0  0
    6.0574   -3.6344    0.0000 C   0  0  0  0  0  0  0  0  0  0  0  0
    5.8004   -1.6520    0.0000 C   0  0  0  0  0  0  0  0  0  0  0  0
    6.4979   -1.2849    0.0000 C   0  0  0  0  0  0  0  0  0  0  0  0
    2.7166   -6.4979    0.0000 C   0  0  0  0  0  0  0  0  0  0  0  0
    1.4318   -6.0574    0.0000 C   0  0  0  0  0  0  0  0  0  0  0  0
    1.4318   -6.9385    0.0000 C   0  0  0  0  0  0  0  0  0  0  0  0
    6.4979   -0.4405    0.0000 C   0  0  0  0  0  0  0  0  0  0  0  0
    2.2394   -7.1588    0.0000 C   0  0  0  0  0  0  0  0  0  0  0  0
    3.5610   -6.4979    0.0000 C   0  0  0  0  0  0  0  0  0  0  0  0
    5.2497   -3.6344    0.0000 C   0  0  0  0  0  0  0  0  0  0  0  0
    6.4979   -4.3687    0.0000 C   0  0  0  0  0  0  0  0  0  0  0  0
    5.2497   -5.0662    0.0000 C   0  0  0  0  0  0  0  0  0  0  0  0
    5.0662   -1.2115    0.0000 C   0  0  0  0  0  0  0  0  0  0  0  0
    0.6975   -5.6903    0.0000 C   0  0  0  0  0  0  0  0  0  0  0  0
    0.6975   -7.3423    0.0000 C   0  0  0  0  0  0  0  0  0  0  0  0
    7.1954   -1.6887    0.0000 C   0  0  0  0  0  0  0  0  0  0  0  0
    4.8092   -4.3319    0.0000 C   0  0  0  0  0  0  0  0  0  0  0  0
    6.0574   -5.0662    0.0000 C   0  0  0  0  0  0  0  0  0  0  0  0
    5.8371    0.0000    0.0000 C   0  0  0  0  0  0  0  0  0  0  0  0
    7.2689   -0.0367    0.0000 C   0  0  0  0  0  0  0  0  0  0  0  0
    5.1029   -0.3671    0.0000 C   0  0  0  0  0  0  0  0  0  0  0  0
    4.8092   -5.8004    0.0000 C   0  0  0  0  0  0  0  0  0  0  0  0
    0.0000   -6.0574    0.0000 C   0  0  0  0  0  0  0  0  0  0  0  0
    7.9297   -1.2849    0.0000 C   0  0  0  0  0  0  0  0  0  0  0  0
    7.9664   -0.4773    0.0000 C   0  0  0  0  0  0  0  0  0  0  0  0
  1  2  2  0  0  0  0
  1  3  2  0  0  0  0
  1  5  1  0  0  0  0
  1  9  1  0  0  0  0
  4 17  2  0  0  0  0
  5 10  1  0  0  0  0
  6 12  1  0  0  0  0
  6 13  1  0  0  0  0
  7 17  1  0  0  0  0
  7 30  1  0  0  0  0
  8 23  1  0  0  0  0
  8 31  2  0  0  0  0
  9 18  2  0  0  0  0
  9 19  1  0  0  0  0
 10 11  1  0  0  0  0
 10 21  2  0  0  0  0
 11 15  2  0  0  0  0
 11 24  1  0  0  0  0
 12 16  2  0  0  0  0
 12 17  1  0  0  0  0
 13 14  1  0  0  0  0
 13 22  2  0  0  0  0
 14 16  1  0  0  0  0
 14 23  2  0  0  0  0
 15 27  1  0  0  0  0
 15 28  1  0  0  0  0
 18 25  1  0  0  0  0
 19 26  2  0  0  0  0
 20 25  2  0  0  0  0
 20 26  1  0  0  0  0
 20 30  1  0  0  0  0
 21 29  1  0  0  0  0
 22 31  1  0  0  0  0
 24 32  1  0  0  0  0
 27 29  2  0  0  0  0
 28 33  1  0  0  0  0
 32 33  1  0  0  0  0
M  END
> <PUBCHEM_COMPOUND_ID_TYPE>
0

> <PUBCHEM_TOTAL_CHARGE>
0

> <PUBCHEM_SUBSTANCE_ID>
310930342

> <PUBCHEM_SUBSTANCE_VERSION>
1

> <PUBCHEM_EXT_DATASOURCE_NAME>
4488

> <PUBCHEM_EXT_DATASOURCE_REGID>
SCHEMBL16107626

> <PUBCHEM_SUBSTANCE_COMMENT>
InChI=1S/C25H24N4O3S/c30-25(24-14-19-16-26-13-12-22(19)28-24)27-15-17-8-10-20(11-9-17)33(31,32)29-23-7-3-5-18-4-1-2-6-21(18)23/h3,5,7-14,16,28-29H,1-2,4,6,15H2,(H,27,30)
InChIKey=HYIIDIJESWAABZ-UHFFFAOYSA-N

> <PUBCHEM_SUBSTANCE_SYNONYM>
SCHEMBL16107626

> <PUBCHEM_XREF_EXT_ID>
SCHEMBL16107626

> <PUBCHEM_EXT_DATASOURCE_URL>
https://www.surechembl.org/

> <PUBCHEM_EXT_SUBSTANCE_URL>
https://www.surechembl.org/chemical/SCHEMBL16107626

> <PUBCHEM_CID_ASSOCIATIONS>
117599509  1

> <PUBCHEM_COORDINATE_TYPE>
1
3

$$$$
