310933438
  -OEChem-07211613022D

 29 33  0     0  0  0  0  0  0999 V2000
    0.1649   -4.3975    0.0000 O   0  0  0  0  0  0  0  0  0  0  0  0
    5.6893   -3.2982    0.0000 O   0  0  0  0  0  0  0  0  0  0  0  0
    4.3701   -2.6385    0.0000 N   0  0  0  0  0  0  0  0  0  0  0  0
    4.3701   -3.9578    0.0000 N   0  0  0  0  0  0  0  0  0  0  0  0
    1.4292   -0.0275    0.0000 N   0  0  0  0  0  0  0  0  0  0  0  0
    0.5772   -5.1396    0.0000 N   0  0  0  0  0  0  0  0  0  0  0  0
    2.8859   -2.4736    0.0000 C   0  0  0  0  0  0  0  0  0  0  0  0
    3.6005   -2.8584    0.0000 C   0  0  0  0  0  0  0  0  0  0  0  0
    2.8584   -1.6491    0.0000 C   0  0  0  0  0  0  0  0  0  0  0  0
    3.6005   -3.7104    0.0000 C   0  0  0  0  0  0  0  0  0  0  0  0
    2.1988   -3.7104    0.0000 C   0  0  0  0  0  0  0  0  0  0  0  0
    2.1713   -1.2643    0.0000 C   0  0  0  0  0  0  0  0  0  0  0  0
    2.1988   -2.8584    0.0000 C   0  0  0  0  0  0  0  0  0  0  0  0
    1.4842   -4.1227    0.0000 C   0  0  0  0  0  0  0  0  0  0  0  0
    2.8859   -4.1227    0.0000 C   0  0  0  0  0  0  0  0  0  0  0  0
    3.5730   -1.2093    0.0000 C   0  0  0  0  0  0  0  0  0  0  0  0
    2.1438   -0.4398    0.0000 C   0  0  0  0  0  0  0  0  0  0  0  0
    4.8648   -3.2982    0.0000 C   0  0  0  0  0  0  0  0  0  0  0  0
    0.7146   -3.8204    0.0000 C   0  0  0  0  0  0  0  0  0  0  0  0
    1.3742   -4.9472    0.0000 C   0  0  0  0  0  0  0  0  0  0  0  0
    1.4567   -1.6766    0.0000 C   0  0  0  0  0  0  0  0  0  0  0  0
    3.5730   -0.3848    0.0000 C   0  0  0  0  0  0  0  0  0  0  0  0
    2.8309    0.0000    0.0000 C   0  0  0  0  0  0  0  0  0  0  0  0
    0.7146   -0.4398    0.0000 C   0  0  0  0  0  0  0  0  0  0  0  0
    0.7421   -1.2643    0.0000 C   0  0  0  0  0  0  0  0  0  0  0  0
    4.2876   -1.6216    0.0000 C   0  0  0  0  0  0  0  0  0  0  0  0
    0.5497   -2.9958    0.0000 C   0  0  0  0  0  0  0  0  0  0  0  0
    2.0064   -5.4970    0.0000 C   0  0  0  0  0  0  0  0  0  0  0  0
    0.0000   -0.0549    0.0000 C   0  0  0  0  0  0  0  0  0  0  0  0
  1  6  1  0  0  0  0
  1 19  1  0  0  0  0
  2 18  2  0  0  0  0
  3  8  1  0  0  0  0
  3 18  1  0  0  0  0
  4 10  1  0  0  0  0
  4 18  1  0  0  0  0
  5 17  2  0  0  0  0
  5 24  1  0  0  0  0
  6 20  2  0  0  0  0
  7  8  1  0  0  0  0
  7  9  1  0  0  0  0
  7 13  2  0  0  0  0
  8 10  2  0  0  0  0
  9 12  1  0  0  0  0
  9 16  2  0  0  0  0
 10 15  1  0  0  0  0
 11 13  1  0  0  0  0
 11 14  1  0  0  0  0
 11 15  2  0  0  0  0
 12 17  1  0  0  0  0
 12 21  2  0  0  0  0
 14 19  2  0  0  0  0
 14 20  1  0  0  0  0
 16 22  1  0  0  0  0
 16 26  1  0  0  0  0
 17 23  1  0  0  0  0
 19 27  1  0  0  0  0
 20 28  1  0  0  0  0
 21 25  1  0  0  0  0
 22 23  2  0  0  0  0
 24 25  2  0  0  0  0
 24 29  1  0  0  0  0
M  END
> <PUBCHEM_COMPOUND_ID_TYPE>
0

> <PUBCHEM_TOTAL_CHARGE>
0

> <PUBCHEM_SUBSTANCE_ID>
310933438

> <PUBCHEM_SUBSTANCE_VERSION>
1

> <PUBCHEM_EXT_DATASOURCE_NAME>
4488

> <PUBCHEM_EXT_DATASOURCE_REGID>
SCHEMBL16110856

> <PUBCHEM_SUBSTANCE_COMMENT>
InChI=1S/C23H20N4O2/c1-11-5-8-18-16(7-6-12(2)24-18)20(11)17-9-15(21-13(3)27-29-14(21)4)10-19-22(17)26-23(28)25-19/h5-10H,1-4H3,(H2,25,26,28)
InChIKey=LUBHDDLOGTVWQG-UHFFFAOYSA-N

> <PUBCHEM_SUBSTANCE_SYNONYM>
SCHEMBL16110856

> <PUBCHEM_XREF_EXT_ID>
SCHEMBL16110856

> <PUBCHEM_EXT_DATASOURCE_URL>
https://www.surechembl.org/

> <PUBCHEM_EXT_SUBSTANCE_URL>
https://www.surechembl.org/chemical/SCHEMBL16110856

> <PUBCHEM_CID_ASSOCIATIONS>
117601840  1

> <PUBCHEM_COORDINATE_TYPE>
1
3

$$$$
