310944407
  -OEChem-07211613022D

 28 31  0     0  0  0  0  0  0999 V2000
   -0.3696    2.4687    0.0000 F   0  0  0  0  0  0  0  0  0  0  0  0
   -0.3802   -0.8515    0.0000 N   0  0  0  0  0  0  0  0  0  0  0  0
    1.8048    2.0404    0.0000 N   0  0  0  0  0  0  0  0  0  0  0  0
   -2.5652    2.0082    0.0000 N   0  0  0  0  0  0  0  0  0  0  0  0
    0.3802   -1.2371    0.0000 C   0  0  0  0  0  0  0  0  0  0  0  0
   -0.3696   -0.0054    0.0000 C   0  0  0  0  0  0  0  0  0  0  0  0
    1.0978   -0.8194    0.0000 C   0  0  0  0  0  0  0  0  0  0  0  0
   -1.0978   -1.2371    0.0000 C   0  0  0  0  0  0  0  0  0  0  0  0
    1.8369   -1.2156    0.0000 C   0  0  0  0  0  0  0  0  0  0  0  0
    0.3588    0.4123    0.0000 C   0  0  0  0  0  0  0  0  0  0  0  0
   -1.0978    0.4123    0.0000 C   0  0  0  0  0  0  0  0  0  0  0  0
    0.3696    1.2371    0.0000 C   0  0  0  0  0  0  0  0  0  0  0  0
   -1.1086    1.2371    0.0000 C   0  0  0  0  0  0  0  0  0  0  0  0
   -0.3802    1.6548    0.0000 C   0  0  0  0  0  0  0  0  0  0  0  0
    0.3802   -2.0618    0.0000 C   0  0  0  0  0  0  0  0  0  0  0  0
    1.1086   -0.0054    0.0000 C   0  0  0  0  0  0  0  0  0  0  0  0
    1.8476   -2.0404    0.0000 C   0  0  0  0  0  0  0  0  0  0  0  0
   -1.8475   -0.8408    0.0000 C   0  0  0  0  0  0  0  0  0  0  0  0
   -1.1086   -2.0618    0.0000 C   0  0  0  0  0  0  0  0  0  0  0  0
    1.0978   -2.4581    0.0000 C   0  0  0  0  0  0  0  0  0  0  0  0
    2.5652   -0.8194    0.0000 C   0  0  0  0  0  0  0  0  0  0  0  0
    1.0872    1.6441    0.0000 C   0  0  0  0  0  0  0  0  0  0  0  0
   -1.8475    1.6333    0.0000 C   0  0  0  0  0  0  0  0  0  0  0  0
    1.8369    0.3909    0.0000 C   0  0  0  0  0  0  0  0  0  0  0  0
    2.5652    0.0054    0.0000 C   0  0  0  0  0  0  0  0  0  0  0  0
   -2.5545   -1.2478    0.0000 C   0  0  0  0  0  0  0  0  0  0  0  0
   -1.8262   -2.4687    0.0000 C   0  0  0  0  0  0  0  0  0  0  0  0
   -2.5652   -2.0618    0.0000 C   0  0  0  0  0  0  0  0  0  0  0  0
  1 14  1  0  0  0  0
  2  5  1  0  0  0  0
  2  6  1  0  0  0  0
  2  8  1  0  0  0  0
  3 22  3  0  0  0  0
  4 23  3  0  0  0  0
  5  7  1  0  0  0  0
  5 15  2  0  0  0  0
  6 10  2  0  0  0  0
  6 11  1  0  0  0  0
  7  9  1  0  0  0  0
  7 16  2  0  0  0  0
  8 18  2  0  0  0  0
  8 19  1  0  0  0  0
  9 17  1  0  0  0  0
  9 21  2  0  0  0  0
 10 12  1  0  0  0  0
 11 13  2  0  0  0  0
 12 14  2  0  0  0  0
 12 22  1  0  0  0  0
 13 14  1  0  0  0  0
 13 23  1  0  0  0  0
 15 20  1  0  0  0  0
 16 24  1  0  0  0  0
 17 20  2  0  0  0  0
 18 26  1  0  0  0  0
 19 27  2  0  0  0  0
 21 25  1  0  0  0  0
 24 25  2  0  0  0  0
 26 28  2  0  0  0  0
 27 28  1  0  0  0  0
M  END
> <PUBCHEM_COMPOUND_ID_TYPE>
0

> <PUBCHEM_TOTAL_CHARGE>
0

> <PUBCHEM_SUBSTANCE_ID>
310944407

> <PUBCHEM_SUBSTANCE_VERSION>
1

> <PUBCHEM_EXT_DATASOURCE_NAME>
4488

> <PUBCHEM_EXT_DATASOURCE_REGID>
SCHEMBL16122482

> <PUBCHEM_SUBSTANCE_COMMENT>
InChI=1S/C24H14FN3/c25-24-18(15-26)13-21(14-19(24)16-27)28(20-9-2-1-3-10-20)23-12-6-8-17-7-4-5-11-22(17)23/h1-14H
InChIKey=FMRBWGMARSLXSV-UHFFFAOYSA-N

> <PUBCHEM_SUBSTANCE_SYNONYM>
SCHEMBL16122482

> <PUBCHEM_XREF_EXT_ID>
SCHEMBL16122482

> <PUBCHEM_EXT_DATASOURCE_URL>
https://www.surechembl.org/

> <PUBCHEM_EXT_SUBSTANCE_URL>
https://www.surechembl.org/chemical/SCHEMBL16122482

> <PUBCHEM_CID_ASSOCIATIONS>
117610664  1

> <PUBCHEM_COORDINATE_TYPE>
1
3

$$$$
