310941892
  -OEChem-07211613022D

 24 26  0     0  0  0  0  0  0999 V2000
    1.1464    1.4400    0.0000 Br  0  0  0  0  0  0  0  0  0  0  0  0
    4.3479   -0.2377    0.0000 Cl  0  0  0  0  0  0  0  0  0  0  0  0
    1.4400   -0.2097    0.0000 O   0  0  0  0  0  0  0  0  0  0  0  0
   -1.4540   -1.0346    0.0000 N   0  0  0  0  0  0  0  0  0  0  0  0
    3.6349    1.0206    0.0000 N   0  0  0  0  0  0  0  0  0  0  0  0
    0.0000   -0.1817    0.0000 C   0  0  0  0  0  0  0  0  0  0  0  0
    2.1670    0.2097    0.0000 C   0  0  0  0  0  0  0  0  0  0  0  0
    0.6990    0.1957    0.0000 C   0  0  0  0  0  0  0  0  0  0  0  0
   -0.0140   -1.0346    0.0000 C   0  0  0  0  0  0  0  0  0  0  0  0
   -0.7410    0.1957    0.0000 C   0  0  0  0  0  0  0  0  0  0  0  0
    2.1810    1.0346    0.0000 C   0  0  0  0  0  0  0  0  0  0  0  0
   -0.7130   -1.4400    0.0000 C   0  0  0  0  0  0  0  0  0  0  0  0
   -1.4400   -0.2097    0.0000 C   0  0  0  0  0  0  0  0  0  0  0  0
    2.9079   -0.2237    0.0000 C   0  0  0  0  0  0  0  0  0  0  0  0
    3.6209    0.1817    0.0000 C   0  0  0  0  0  0  0  0  0  0  0  0
    2.8940    1.4260    0.0000 C   0  0  0  0  0  0  0  0  0  0  0  0
    0.0000    0.6291    0.0000 C   0  0  0  0  0  0  0  0  0  0  0  0
   -2.1530   -1.4400    0.0000 C   0  0  0  0  0  0  0  0  0  0  0  0
   -2.9079   -1.0206    0.0000 C   0  0  0  0  0  0  0  0  0  0  0  0
   -2.9079   -0.2097    0.0000 C   0  0  0  0  0  0  0  0  0  0  0  0
   -3.6488   -1.4120    0.0000 C   0  0  0  0  0  0  0  0  0  0  0  0
   -3.6209    0.2097    0.0000 C   0  0  0  0  0  0  0  0  0  0  0  0
   -4.3479   -1.0066    0.0000 C   0  0  0  0  0  0  0  0  0  0  0  0
   -4.3479   -0.1817    0.0000 C   0  0  0  0  0  0  0  0  0  0  0  0
  1 11  1  0  0  0  0
  2 15  1  0  0  0  0
  3  7  1  0  0  0  0
  3  8  1  0  0  0  0
  4 12  1  0  0  0  0
  4 13  1  0  0  0  0
  4 18  1  0  0  0  0
  5 15  2  0  0  0  0
  5 16  1  0  0  0  0
  6  8  1  0  0  0  0
  6  9  1  0  0  0  0
  6 10  1  0  0  0  0
  6 17  1  0  0  0  0
  7 11  1  0  0  0  0
  7 14  2  0  0  0  0
  9 12  1  0  0  0  0
 10 13  1  0  0  0  0
 11 16  2  0  0  0  0
 14 15  1  0  0  0  0
 18 19  1  0  0  0  0
 19 20  2  0  0  0  0
 19 21  1  0  0  0  0
 20 22  1  0  0  0  0
 21 23  2  0  0  0  0
 22 24  2  0  0  0  0
 23 24  1  0  0  0  0
M  END
> <PUBCHEM_COMPOUND_ID_TYPE>
0

> <PUBCHEM_TOTAL_CHARGE>
0

> <PUBCHEM_SUBSTANCE_ID>
310941892

> <PUBCHEM_SUBSTANCE_VERSION>
1

> <PUBCHEM_EXT_DATASOURCE_NAME>
4488

> <PUBCHEM_EXT_DATASOURCE_REGID>
SCHEMBL16119924

> <PUBCHEM_SUBSTANCE_COMMENT>
InChI=1S/C19H22BrClN2O/c1-19(14-24-17-11-18(21)22-12-16(17)20)7-9-23(10-8-19)13-15-5-3-2-4-6-15/h2-6,11-12H,7-10,13-14H2,1H3
InChIKey=RWUFBCUNCIONFU-UHFFFAOYSA-N

> <PUBCHEM_SUBSTANCE_SYNONYM>
SCHEMBL16119924

> <PUBCHEM_XREF_EXT_ID>
SCHEMBL16119924

> <PUBCHEM_EXT_DATASOURCE_URL>
https://www.surechembl.org/

> <PUBCHEM_EXT_SUBSTANCE_URL>
https://www.surechembl.org/chemical/SCHEMBL16119924

> <PUBCHEM_CID_ASSOCIATIONS>
117608626  1

> <PUBCHEM_COORDINATE_TYPE>
1
3

$$$$
