310944678
  -OEChem-07211613022D

 26 27  0     0  0  0  0  0  0999 V2000
   -0.9767   -1.2549    0.0000 Cl  0  0  0  0  0  0  0  0  0  0  0  0
   -4.0057   -1.2549    0.0000 Cl  0  0  0  0  0  0  0  0  0  0  0  0
   -3.8450    0.3895    0.0000 O   0  0  0  0  0  0  0  0  0  0  0  0
    0.4327    1.2178    0.0000 O   0  0  0  0  0  0  0  0  0  0  0  0
    4.0057   -0.8469    0.0000 O   0  0  0  0  0  0  0  0  0  0  0  0
   -3.1402    2.4541    0.0000 O   0  0  0  0  0  0  0  0  0  0  0  0
    1.1621   -0.0185    0.0000 N   0  0  0  0  0  0  0  0  0  0  0  0
   -0.9767    0.3895    0.0000 N   0  0  0  0  0  0  0  0  0  0  0  0
    2.6086   -0.8469    0.0000 N   0  0  0  0  0  0  0  0  0  0  0  0
   -1.6937   -0.0062    0.0000 C   0  0  0  0  0  0  0  0  0  0  0  0
   -3.1155   -0.0185    0.0000 C   0  0  0  0  0  0  0  0  0  0  0  0
   -1.7061   -0.8346    0.0000 C   0  0  0  0  0  0  0  0  0  0  0  0
   -3.1279   -0.8346    0.0000 C   0  0  0  0  0  0  0  0  0  0  0  0
   -2.4109    0.3895    0.0000 C   0  0  0  0  0  0  0  0  0  0  0  0
   -2.3985   -1.2425    0.0000 C   0  0  0  0  0  0  0  0  0  0  0  0
    0.4327    0.3771    0.0000 C   0  0  0  0  0  0  0  0  0  0  0  0
   -0.2596   -0.0185    0.0000 C   0  0  0  0  0  0  0  0  0  0  0  0
    1.1745   -0.8469    0.0000 C   0  0  0  0  0  0  0  0  0  0  0  0
    1.8792    0.3895    0.0000 C   0  0  0  0  0  0  0  0  0  0  0  0
    1.8916   -1.2549    0.0000 C   0  0  0  0  0  0  0  0  0  0  0  0
    2.5962   -0.0185    0.0000 C   0  0  0  0  0  0  0  0  0  0  0  0
    3.3010   -1.2549    0.0000 C   0  0  0  0  0  0  0  0  0  0  0  0
   -3.8203    1.2178    0.0000 C   0  0  0  0  0  0  0  0  0  0  0  0
    3.3134   -2.0832    0.0000 C   0  0  0  0  0  0  0  0  0  0  0  0
   -3.1279    1.6258    0.0000 C   0  0  0  0  0  0  0  0  0  0  0  0
    2.5715   -2.4541    0.0000 C   0  0  0  0  0  0  0  0  0  0  0  0
  1 12  1  0  0  0  0
  2 13  1  0  0  0  0
  3 11  1  0  0  0  0
  3 23  1  0  0  0  0
  4 16  2  0  0  0  0
  5 22  2  0  0  0  0
  6 25  1  0  0  0  0
  7 16  1  0  0  0  0
  7 18  1  0  0  0  0
  7 19  1  0  0  0  0
  8 10  1  0  0  0  0
  8 17  1  0  0  0  0
  9 20  1  0  0  0  0
  9 21  1  0  0  0  0
  9 22  1  0  0  0  0
 10 12  2  0  0  0  0
 10 14  1  0  0  0  0
 11 13  1  0  0  0  0
 11 14  2  0  0  0  0
 12 15  1  0  0  0  0
 13 15  2  0  0  0  0
 16 17  1  0  0  0  0
 18 20  1  0  0  0  0
 19 21  1  0  0  0  0
 22 24  1  0  0  0  0
 23 25  1  0  0  0  0
 24 26  2  0  0  0  0
M  END
> <PUBCHEM_COMPOUND_ID_TYPE>
0

> <PUBCHEM_TOTAL_CHARGE>
0

> <PUBCHEM_SUBSTANCE_ID>
310944678

> <PUBCHEM_SUBSTANCE_VERSION>
1

> <PUBCHEM_EXT_DATASOURCE_NAME>
4488

> <PUBCHEM_EXT_DATASOURCE_REGID>
SCHEMBL16122757

> <PUBCHEM_SUBSTANCE_COMMENT>
InChI=1S/C17H21Cl2N3O4/c1-2-16(24)21-3-5-22(6-4-21)17(25)11-20-14-10-15(26-8-7-23)13(19)9-12(14)18/h2,9-10,20,23H,1,3-8,11H2
InChIKey=CDECEBJPZUJVJD-UHFFFAOYSA-N

> <PUBCHEM_SUBSTANCE_SYNONYM>
SCHEMBL16122757

> <PUBCHEM_XREF_EXT_ID>
SCHEMBL16122757

> <PUBCHEM_EXT_DATASOURCE_URL>
https://www.surechembl.org/

> <PUBCHEM_EXT_SUBSTANCE_URL>
https://www.surechembl.org/chemical/SCHEMBL16122757

> <PUBCHEM_CID_ASSOCIATIONS>
117610904  1

> <PUBCHEM_COORDINATE_TYPE>
1
3

$$$$
