310947168
  -OEChem-07211613022D

 27 32  0     0  0  0  0  0  0999 V2000
   -2.2839   -1.7871    0.0000 O   0  0  0  0  0  0  0  0  0  0  0  0
   -3.4539   -1.1300    0.0000 O   0  0  0  0  0  0  0  0  0  0  0  0
    2.9731    0.4248    0.0000 O   0  0  0  0  0  0  0  0  0  0  0  0
    2.9731    1.7711    0.0000 O   0  0  0  0  0  0  0  0  0  0  0  0
    1.4986   -0.5850    0.0000 O   0  0  0  0  0  0  0  0  0  0  0  0
    0.0400   -0.5850    0.0000 N   0  3  0  0  0  0  0  0  0  0  0  0
    0.0400    0.2645    0.0000 C   0  0  0  0  0  0  0  0  0  0  0  0
   -0.6811    0.6652    0.0000 C   0  0  0  0  0  0  0  0  0  0  0  0
   -1.4024    0.2484    0.0000 C   0  0  0  0  0  0  0  0  0  0  0  0
    0.7293    0.6652    0.0000 C   0  0  0  0  0  0  0  0  0  0  0  0
   -1.4184   -0.5690    0.0000 C   0  0  0  0  0  0  0  0  0  0  0  0
    0.7453    1.4986    0.0000 C   0  0  0  0  0  0  0  0  0  0  0  0
   -2.1397   -0.9857    0.0000 C   0  0  0  0  0  0  0  0  0  0  0  0
   -0.6811   -0.9857    0.0000 C   0  0  0  0  0  0  0  0  0  0  0  0
   -2.8288   -0.5850    0.0000 C   0  0  0  0  0  0  0  0  0  0  0  0
   -0.6652    1.4986    0.0000 C   0  0  0  0  0  0  0  0  0  0  0  0
    1.4665    0.2645    0.0000 C   0  0  0  0  0  0  0  0  0  0  0  0
    2.1717    0.6811    0.0000 C   0  0  0  0  0  0  0  0  0  0  0  0
   -2.1397    0.6491    0.0000 C   0  0  0  0  0  0  0  0  0  0  0  0
    2.1877    1.4986    0.0000 C   0  0  0  0  0  0  0  0  0  0  0  0
    0.0400    1.8832    0.0000 C   0  0  0  0  0  0  0  0  0  0  0  0
    1.4505    1.8832    0.0000 C   0  0  0  0  0  0  0  0  0  0  0  0
   -2.8288    0.2484    0.0000 C   0  0  0  0  0  0  0  0  0  0  0  0
    0.7453   -0.9857    0.0000 C   0  0  0  0  0  0  0  0  0  0  0  0
   -3.1494   -1.8832    0.0000 C   0  0  0  0  0  0  0  0  0  0  0  0
    3.4539    1.0818    0.0000 C   0  0  0  0  0  0  0  0  0  0  0  0
    2.2037   -1.0177    0.0000 C   0  0  0  0  0  0  0  0  0  0  0  0
  1 13  1  0  0  0  0
  1 25  1  0  0  0  0
  2 15  1  0  0  0  0
  2 25  1  0  0  0  0
  3 18  1  0  0  0  0
  3 26  1  0  0  0  0
  4 20  1  0  0  0  0
  4 26  1  0  0  0  0
  5 24  1  0  0  0  0
  5 27  1  0  0  0  0
  6  7  1  0  0  0  0
  6 14  2  0  0  0  0
  6 24  1  0  0  0  0
  7  8  2  0  0  0  0
  7 10  1  0  0  0  0
  8  9  1  0  0  0  0
  8 16  1  0  0  0  0
  9 11  1  0  0  0  0
  9 19  2  0  0  0  0
 10 12  2  0  0  0  0
 10 17  1  0  0  0  0
 11 13  2  0  0  0  0
 11 14  1  0  0  0  0
 12 21  1  0  0  0  0
 12 22  1  0  0  0  0
 13 15  1  0  0  0  0
 15 23  2  0  0  0  0
 16 21  1  0  0  0  0
 17 18  2  0  0  0  0
 18 20  1  0  0  0  0
 19 23  1  0  0  0  0
 20 22  2  0  0  0  0
M  CHG  1   6   1
M  END
> <PUBCHEM_COMPOUND_ID_TYPE>
0

> <PUBCHEM_TOTAL_CHARGE>
1

> <PUBCHEM_SUBSTANCE_ID>
310947168

> <PUBCHEM_SUBSTANCE_VERSION>
1

> <PUBCHEM_EXT_DATASOURCE_NAME>
4488

> <PUBCHEM_EXT_DATASOURCE_REGID>
SCHEMBL16125322

> <PUBCHEM_SUBSTANCE_COMMENT>
InChI=1S/C21H18NO5/c1-23-9-22-8-16-13(4-5-17-21(16)27-11-24-17)14-3-2-12-6-18-19(26-10-25-18)7-15(12)20(14)22/h4-8H,2-3,9-11H2,1H3/q+1
InChIKey=NCLRKRLBWBMWQD-UHFFFAOYSA-N

> <PUBCHEM_SUBSTANCE_SYNONYM>
SCHEMBL16125322

> <PUBCHEM_XREF_EXT_ID>
SCHEMBL16125322

> <PUBCHEM_EXT_DATASOURCE_URL>
https://www.surechembl.org/

> <PUBCHEM_EXT_SUBSTANCE_URL>
https://www.surechembl.org/chemical/SCHEMBL16125322

> <PUBCHEM_CID_ASSOCIATIONS>
117612994  1

> <PUBCHEM_COORDINATE_TYPE>
1
3

$$$$
