310931425
  -OEChem-07211613022D

 31 34  0     0  0  0  0  0  0999 V2000
    6.3977   -2.8555    0.0000 S   0  0  0  0  0  0  0  0  0  0  0  0
    7.0844   -3.2892    0.0000 O   0  0  0  0  0  0  0  0  0  0  0  0
    6.7953   -2.1687    0.0000 O   0  0  0  0  0  0  0  0  0  0  0  0
    3.9037   -7.1205    0.0000 O   0  0  0  0  0  0  0  0  0  0  0  0
    7.8435   -1.2650    0.0000 O   0  0  0  0  0  0  0  0  0  0  0  0
    2.2049   -5.7470    0.0000 N   0  0  0  0  0  0  0  0  0  0  0  0
    5.6748   -2.4579    0.0000 N   0  0  0  0  0  0  0  0  0  0  0  0
    3.9037   -5.7109    0.0000 N   0  0  0  0  0  0  0  0  0  0  0  0
    0.0000   -6.8314    0.0000 N   0  0  0  0  0  0  0  0  0  0  0  0
    5.9639   -3.5783    0.0000 C   0  0  0  0  0  0  0  0  0  0  0  0
    2.6747   -6.3977    0.0000 C   0  0  0  0  0  0  0  0  0  0  0  0
    1.4096   -5.9639    0.0000 C   0  0  0  0  0  0  0  0  0  0  0  0
    1.4096   -6.8314    0.0000 C   0  0  0  0  0  0  0  0  0  0  0  0
    2.2049   -7.0482    0.0000 C   0  0  0  0  0  0  0  0  0  0  0  0
    5.7109   -1.6265    0.0000 C   0  0  0  0  0  0  0  0  0  0  0  0
    3.5060   -6.3977    0.0000 C   0  0  0  0  0  0  0  0  0  0  0  0
    5.1687   -3.5783    0.0000 C   0  0  0  0  0  0  0  0  0  0  0  0
    6.3977   -4.3013    0.0000 C   0  0  0  0  0  0  0  0  0  0  0  0
    5.1687   -4.9880    0.0000 C   0  0  0  0  0  0  0  0  0  0  0  0
    6.3977   -1.2289    0.0000 C   0  0  0  0  0  0  0  0  0  0  0  0
    0.6868   -5.6025    0.0000 C   0  0  0  0  0  0  0  0  0  0  0  0
    0.6868   -7.2290    0.0000 C   0  0  0  0  0  0  0  0  0  0  0  0
    4.7350   -4.2651    0.0000 C   0  0  0  0  0  0  0  0  0  0  0  0
    5.9639   -4.9880    0.0000 C   0  0  0  0  0  0  0  0  0  0  0  0
    4.7350   -5.7109    0.0000 C   0  0  0  0  0  0  0  0  0  0  0  0
    4.9880   -1.1928    0.0000 C   0  0  0  0  0  0  0  0  0  0  0  0
    0.0000   -5.9639    0.0000 C   0  0  0  0  0  0  0  0  0  0  0  0
    6.4338   -0.3976    0.0000 C   0  0  0  0  0  0  0  0  0  0  0  0
    7.1205   -1.6265    0.0000 C   0  0  0  0  0  0  0  0  0  0  0  0
    4.9880   -0.3976    0.0000 C   0  0  0  0  0  0  0  0  0  0  0  0
    5.7109    0.0000    0.0000 C   0  0  0  0  0  0  0  0  0  0  0  0
  1  2  2  0  0  0  0
  1  3  2  0  0  0  0
  1  7  1  0  0  0  0
  1 10  1  0  0  0  0
  4 16  2  0  0  0  0
  5 29  1  0  0  0  0
  6 11  1  0  0  0  0
  6 12  1  0  0  0  0
  7 15  1  0  0  0  0
  8 16  1  0  0  0  0
  8 25  1  0  0  0  0
  9 22  1  0  0  0  0
  9 27  2  0  0  0  0
 10 17  2  0  0  0  0
 10 18  1  0  0  0  0
 11 14  2  0  0  0  0
 11 16  1  0  0  0  0
 12 13  1  0  0  0  0
 12 21  2  0  0  0  0
 13 14  1  0  0  0  0
 13 22  2  0  0  0  0
 15 20  1  0  0  0  0
 15 26  2  0  0  0  0
 17 23  1  0  0  0  0
 18 24  2  0  0  0  0
 19 23  2  0  0  0  0
 19 24  1  0  0  0  0
 19 25  1  0  0  0  0
 20 28  2  0  0  0  0
 20 29  1  0  0  0  0
 21 27  1  0  0  0  0
 26 30  1  0  0  0  0
 28 31  1  0  0  0  0
 30 31  2  0  0  0  0
M  END
> <PUBCHEM_COMPOUND_ID_TYPE>
0

> <PUBCHEM_TOTAL_CHARGE>
0

> <PUBCHEM_SUBSTANCE_ID>
310931425

> <PUBCHEM_SUBSTANCE_VERSION>
1

> <PUBCHEM_EXT_DATASOURCE_NAME>
4488

> <PUBCHEM_EXT_DATASOURCE_REGID>
SCHEMBL16108750

> <PUBCHEM_SUBSTANCE_COMMENT>
InChI=1S/C22H20N4O4S/c27-14-16-3-1-2-4-20(16)26-31(29,30)18-7-5-15(6-8-18)12-24-22(28)21-11-17-13-23-10-9-19(17)25-21/h1-11,13,25-27H,12,14H2,(H,24,28)
InChIKey=STHHFZIQEQDKBI-UHFFFAOYSA-N

> <PUBCHEM_SUBSTANCE_SYNONYM>
SCHEMBL16108750

> <PUBCHEM_XREF_EXT_ID>
SCHEMBL16108750

> <PUBCHEM_EXT_DATASOURCE_URL>
https://www.surechembl.org/

> <PUBCHEM_EXT_SUBSTANCE_URL>
https://www.surechembl.org/chemical/SCHEMBL16108750

> <PUBCHEM_CID_ASSOCIATIONS>
88920031  1

> <PUBCHEM_COORDINATE_TYPE>
1
3

$$$$
