310940023
  -OEChem-07211613022D

 12 12  0     0  0  0  0  0  0999 V2000
   -4.3712    1.8556    0.0000 Cl  0  0  0  0  0  0  0  0  0  0  0  0
   -1.5133    1.8556    0.0000 O   0  0  0  0  0  0  0  0  0  0  0  0
   -1.5133    3.5056    0.0000 N   0  0  0  0  0  0  0  0  0  0  0  0
   -2.2278    2.2681    0.0000 C   0  0  0  0  0  0  0  0  0  0  0  0
   -3.6567    3.0931    0.0000 C   0  0  0  0  0  0  0  0  0  0  0  0
   -2.2278    3.0931    0.0000 C   0  0  0  0  0  0  0  0  0  0  0  0
   -3.6567    2.2681    0.0000 C   0  0  0  0  0  0  0  0  0  0  0  0
   -2.9422    1.8556    0.0000 C   0  0  0  0  0  0  0  0  0  0  0  0
   -2.9422    3.5056    0.0000 C   0  0  0  0  0  0  0  0  0  0  0  0
   -4.3712    3.5056    0.0000 C   0  0  0  0  0  0  0  0  0  0  0  0
   -0.7988    2.2681    0.0000 C   0  0  0  0  0  0  0  0  0  0  0  0
   -5.0857    3.0931    0.0000 C   0  0  0  0  0  0  0  0  0  0  0  0
  1  7  1  0  0  0  0
  2  4  1  0  0  0  0
  2 11  1  0  0  0  0
  3  6  1  0  0  0  0
  4  6  1  0  0  0  0
  4  8  2  0  0  0  0
  5  7  2  0  0  0  0
  5  9  1  0  0  0  0
  5 10  1  0  0  0  0
  6  9  2  0  0  0  0
  7  8  1  0  0  0  0
 10 12  1  0  0  0  0
M  END
> <PUBCHEM_COMPOUND_ID_TYPE>
0

> <PUBCHEM_TOTAL_CHARGE>
0

> <PUBCHEM_SUBSTANCE_ID>
310940023

> <PUBCHEM_SUBSTANCE_VERSION>
1

> <PUBCHEM_EXT_DATASOURCE_NAME>
4488

> <PUBCHEM_EXT_DATASOURCE_REGID>
SCHEMBL16117953

> <PUBCHEM_SUBSTANCE_COMMENT>
InChI=1S/C9H12ClNO/c1-3-6-4-8(11)9(12-2)5-7(6)10/h4-5H,3,11H2,1-2H3
InChIKey=BTGMSEYHOOYIPB-UHFFFAOYSA-N

> <PUBCHEM_SUBSTANCE_SYNONYM>
SCHEMBL16117953

> <PUBCHEM_XREF_EXT_ID>
SCHEMBL16117953

> <PUBCHEM_EXT_DATASOURCE_URL>
https://www.surechembl.org/

> <PUBCHEM_EXT_SUBSTANCE_URL>
https://www.surechembl.org/chemical/SCHEMBL16117953

> <PUBCHEM_CID_ASSOCIATIONS>
117607179  1

> <PUBCHEM_COORDINATE_TYPE>
1
3

$$$$
