310944052
  -OEChem-07211613022D

 15 16  0     0  0  0  0  0  0999 V2000
   -1.1203   -0.9510    0.0000 N   0  0  0  0  0  0  0  0  0  0  0  0
   -0.4099    0.2842    0.0000 N   0  0  0  0  0  0  0  0  0  0  0  0
   -1.8746   -0.6121    0.0000 N   0  0  0  0  0  0  0  0  0  0  0  0
    1.0220   -0.5357    0.0000 N   0  0  0  0  0  0  0  0  0  0  0  0
   -2.4320   -1.2242    0.0000 N   0  0  0  0  0  0  0  0  0  0  0  0
   -2.0166   -1.9346    0.0000 N   0  0  0  0  0  0  0  0  0  0  0  0
   -0.4099   -0.5247    0.0000 C   0  0  0  0  0  0  0  0  0  0  0  0
    0.3006    0.6995    0.0000 C   0  0  0  0  0  0  0  0  0  0  0  0
    1.0329    0.2951    0.0000 C   0  0  0  0  0  0  0  0  0  0  0  0
    0.3225   -0.9400    0.0000 C   0  0  0  0  0  0  0  0  0  0  0  0
   -1.2078   -1.7599    0.0000 C   0  0  0  0  0  0  0  0  0  0  0  0
    0.3115    1.5193    0.0000 C   0  0  0  0  0  0  0  0  0  0  0  0
    1.7325    0.6885    0.0000 C   0  0  0  0  0  0  0  0  0  0  0  0
    1.0220    1.9346    0.0000 C   0  0  0  0  0  0  0  0  0  0  0  0
    2.4320    0.2295    0.0000 C   0  0  0  0  0  0  0  0  0  0  0  0
  1  3  1  0  0  0  0
  1  7  1  0  0  0  0
  1 11  1  0  0  0  0
  2  7  2  0  0  0  0
  2  8  1  0  0  0  0
  3  5  2  0  0  0  0
  4  9  1  0  0  0  0
  4 10  2  0  0  0  0
  5  6  1  0  0  0  0
  6 11  2  0  0  0  0
  7 10  1  0  0  0  0
  8  9  2  0  0  0  0
  8 12  1  0  0  0  0
  9 13  1  0  0  0  0
 12 14  1  0  0  0  0
 13 15  2  0  0  0  0
M  END
> <PUBCHEM_COMPOUND_ID_TYPE>
0

> <PUBCHEM_TOTAL_CHARGE>
0

> <PUBCHEM_SUBSTANCE_ID>
310944052

> <PUBCHEM_SUBSTANCE_VERSION>
1

> <PUBCHEM_EXT_DATASOURCE_NAME>
4488

> <PUBCHEM_EXT_DATASOURCE_REGID>
SCHEMBL16122125

> <PUBCHEM_SUBSTANCE_COMMENT>
InChI=1S/C9H10N6/c1-3-7-8(4-2)12-9(5-10-7)15-6-11-13-14-15/h3,5-6H,1,4H2,2H3
InChIKey=RUBWORZGSGLKRY-UHFFFAOYSA-N

> <PUBCHEM_SUBSTANCE_SYNONYM>
SCHEMBL16122125

> <PUBCHEM_XREF_EXT_ID>
SCHEMBL16122125

> <PUBCHEM_EXT_DATASOURCE_URL>
https://www.surechembl.org/

> <PUBCHEM_EXT_SUBSTANCE_URL>
https://www.surechembl.org/chemical/SCHEMBL16122125

> <PUBCHEM_CID_ASSOCIATIONS>
117610348  1

> <PUBCHEM_COORDINATE_TYPE>
1
3

$$$$
