310930374
  -OEChem-07211613022D

 32 36  0     0  0  0  0  0  0999 V2000
    2.4574   -7.1052    0.0000 S   0  0  0  0  0  0  0  0  0  0  0  0
    3.2588   -6.6244    0.0000 O   0  0  0  0  0  0  0  0  0  0  0  0
    1.7630   -7.4791    0.0000 O   0  0  0  0  0  0  0  0  0  0  0  0
    0.0000   -2.7780    0.0000 O   0  0  0  0  0  0  0  0  0  0  0  0
    4.1135   -8.5476    0.0000 N   0  0  0  0  0  0  0  0  0  0  0  0
    2.4574   -1.3355    0.0000 N   0  0  0  0  0  0  0  0  0  0  0  0
    2.6177    0.0000    0.0000 N   0  0  0  0  0  0  0  0  0  0  0  0
    1.2287   -3.4725    0.0000 N   0  0  0  0  0  0  0  0  0  0  0  0
    2.8848   -7.7997    0.0000 C   0  0  0  0  0  0  0  0  0  0  0  0
    2.0834   -6.3573    0.0000 C   0  0  0  0  0  0  0  0  0  0  0  0
    2.8848   -9.2421    0.0000 C   0  0  0  0  0  0  0  0  0  0  0  0
    2.4574   -8.5476    0.0000 C   0  0  0  0  0  0  0  0  0  0  0  0
    3.6861   -9.2421    0.0000 C   0  0  0  0  0  0  0  0  0  0  0  0
    3.7395   -7.7997    0.0000 C   0  0  0  0  0  0  0  0  0  0  0  0
    2.5109   -5.6628    0.0000 C   0  0  0  0  0  0  0  0  0  0  0  0
    1.2287   -6.3573    0.0000 C   0  0  0  0  0  0  0  0  0  0  0  0
    2.0834   -0.6411    0.0000 C   0  0  0  0  0  0  0  0  0  0  0  0
    1.2287   -2.0834    0.0000 C   0  0  0  0  0  0  0  0  0  0  0  0
    1.2287   -4.9149    0.0000 C   0  0  0  0  0  0  0  0  0  0  0  0
    2.0834   -4.9683    0.0000 C   0  0  0  0  0  0  0  0  0  0  0  0
    0.8548   -5.6628    0.0000 C   0  0  0  0  0  0  0  0  0  0  0  0
    2.0834   -2.0834    0.0000 C   0  0  0  0  0  0  0  0  0  0  0  0
    2.4574   -9.9365    0.0000 C   0  0  0  0  0  0  0  0  0  0  0  0
    0.8013   -2.7780    0.0000 C   0  0  0  0  0  0  0  0  0  0  0  0
    4.1135   -9.9900    0.0000 C   0  0  0  0  0  0  0  0  0  0  0  0
    1.2287   -0.6411    0.0000 C   0  0  0  0  0  0  0  0  0  0  0  0
    0.8013   -1.3355    0.0000 C   0  0  0  0  0  0  0  0  0  0  0  0
    3.3122   -1.1753    0.0000 C   0  0  0  0  0  0  0  0  0  0  0  0
    0.8013   -4.2204    0.0000 C   0  0  0  0  0  0  0  0  0  0  0  0
    2.8848  -10.6844    0.0000 C   0  0  0  0  0  0  0  0  0  0  0  0
    3.3656   -0.3205    0.0000 C   0  0  0  0  0  0  0  0  0  0  0  0
    3.6861  -10.6844    0.0000 C   0  0  0  0  0  0  0  0  0  0  0  0
  1  2  2  0  0  0  0
  1  3  2  0  0  0  0
  1  9  1  0  0  0  0
  1 10  1  0  0  0  0
  4 24  2  0  0  0  0
  5 13  2  0  0  0  0
  5 14  1  0  0  0  0
  6 17  1  0  0  0  0
  6 22  1  0  0  0  0
  6 28  1  0  0  0  0
  7 17  2  0  0  0  0
  7 31  1  0  0  0  0
  8 24  1  0  0  0  0
  8 29  1  0  0  0  0
  9 12  1  0  0  0  0
  9 14  2  0  0  0  0
 10 15  2  0  0  0  0
 10 16  1  0  0  0  0
 11 12  2  0  0  0  0
 11 13  1  0  0  0  0
 11 23  1  0  0  0  0
 13 25  1  0  0  0  0
 15 20  1  0  0  0  0
 16 21  2  0  0  0  0
 17 26  1  0  0  0  0
 18 22  2  0  0  0  0
 18 24  1  0  0  0  0
 18 27  1  0  0  0  0
 19 20  2  0  0  0  0
 19 21  1  0  0  0  0
 19 29  1  0  0  0  0
 23 30  2  0  0  0  0
 25 32  2  0  0  0  0
 26 27  2  0  0  0  0
 28 31  2  0  0  0  0
 30 32  1  0  0  0  0
M  END
> <PUBCHEM_COMPOUND_ID_TYPE>
0

> <PUBCHEM_TOTAL_CHARGE>
0

> <PUBCHEM_SUBSTANCE_ID>
310930374

> <PUBCHEM_SUBSTANCE_VERSION>
1

> <PUBCHEM_EXT_DATASOURCE_NAME>
4488

> <PUBCHEM_EXT_DATASOURCE_REGID>
SCHEMBL16107659

> <PUBCHEM_SUBSTANCE_COMMENT>
InChI=1S/C24H18N4O3S/c29-24(19-7-10-23-25-11-12-28(23)16-19)27-14-17-5-8-20(9-6-17)32(30,31)21-13-18-3-1-2-4-22(18)26-15-21/h1-13,15-16H,14H2,(H,27,29)
InChIKey=YQXHWBTZKFCNMI-UHFFFAOYSA-N

> <PUBCHEM_SUBSTANCE_SYNONYM>
SCHEMBL16107659

> <PUBCHEM_XREF_EXT_ID>
SCHEMBL16107659

> <PUBCHEM_EXT_DATASOURCE_URL>
https://www.surechembl.org/

> <PUBCHEM_EXT_SUBSTANCE_URL>
https://www.surechembl.org/chemical/SCHEMBL16107659

> <PUBCHEM_CID_ASSOCIATIONS>
87074974  1

> <PUBCHEM_COORDINATE_TYPE>
1
3

$$$$
