310936349
  -OEChem-07211613022D

 34 38  0     0  0  0  0  0  0999 V2000
    9.4528    0.0000    0.0000 O   0  0  0  0  0  0  0  0  0  0  0  0
    4.3918   -4.6009    0.0000 N   0  0  0  0  0  0  0  0  0  0  0  0
    3.6389   -3.3461    0.0000 N   0  0  0  0  0  0  0  0  0  0  0  0
    4.3918   -2.0913    0.0000 N   0  0  0  0  0  0  0  0  0  0  0  0
    2.9278   -6.2740    0.0000 N   0  0  0  0  0  0  0  0  0  0  0  0
    8.6999   -1.2548    0.0000 N   0  0  0  0  0  0  0  0  0  0  0  0
    0.0000   -7.1105    0.0000 N   0  0  0  0  0  0  0  0  0  0  0  0
    5.1028   -3.3461    0.0000 C   0  0  0  0  0  0  0  0  0  0  0  0
    4.3918   -3.7644    0.0000 C   0  0  0  0  0  0  0  0  0  0  0  0
    5.1028   -2.5096    0.0000 C   0  0  0  0  0  0  0  0  0  0  0  0
    6.5249   -2.5096    0.0000 C   0  0  0  0  0  0  0  0  0  0  0  0
    3.6807   -5.0192    0.0000 C   0  0  0  0  0  0  0  0  0  0  0  0
    5.8139   -2.0913    0.0000 C   0  0  0  0  0  0  0  0  0  0  0  0
    5.8139   -3.7644    0.0000 C   0  0  0  0  0  0  0  0  0  0  0  0
    7.2778   -2.0913    0.0000 C   0  0  0  0  0  0  0  0  0  0  0  0
    6.5249   -3.3461    0.0000 C   0  0  0  0  0  0  0  0  0  0  0  0
    3.6389   -2.5096    0.0000 C   0  0  0  0  0  0  0  0  0  0  0  0
    2.1749   -5.8557    0.0000 C   0  0  0  0  0  0  0  0  0  0  0  0
    3.6389   -5.8557    0.0000 C   0  0  0  0  0  0  0  0  0  0  0  0
    2.9278   -4.6009    0.0000 C   0  0  0  0  0  0  0  0  0  0  0  0
    1.4639   -6.2740    0.0000 C   0  0  0  0  0  0  0  0  0  0  0  0
    2.2168   -5.0192    0.0000 C   0  0  0  0  0  0  0  0  0  0  0  0
    7.9889   -2.5096    0.0000 C   0  0  0  0  0  0  0  0  0  0  0  0
    7.2778   -1.2548    0.0000 C   0  0  0  0  0  0  0  0  0  0  0  0
    5.1028   -5.0192    0.0000 C   0  0  0  0  0  0  0  0  0  0  0  0
    8.6999   -2.0913    0.0000 C   0  0  0  0  0  0  0  0  0  0  0  0
    7.9889   -0.8365    0.0000 C   0  0  0  0  0  0  0  0  0  0  0  0
    1.4639   -7.1523    0.0000 C   0  0  0  0  0  0  0  0  0  0  0  0
    0.7529   -5.8975    0.0000 C   0  0  0  0  0  0  0  0  0  0  0  0
    0.7110   -7.5288    0.0000 C   0  0  0  0  0  0  0  0  0  0  0  0
    9.4528   -0.8365    0.0000 C   0  0  0  0  0  0  0  0  0  0  0  0
    0.0000   -6.2740    0.0000 C   0  0  0  0  0  0  0  0  0  0  0  0
    0.7110   -8.3653    0.0000 C   0  0  0  0  0  0  0  0  0  0  0  0
   10.1638   -1.2548    0.0000 C   0  0  0  0  0  0  0  0  0  0  0  0
  1 31  2  0  0  0  0
  2  9  1  0  0  0  0
  2 12  1  0  0  0  0
  2 25  1  0  0  0  0
  3  9  1  0  0  0  0
  3 17  2  0  0  0  0
  4 10  2  0  0  0  0
  4 17  1  0  0  0  0
  5 18  2  0  0  0  0
  5 19  1  0  0  0  0
  6 26  1  0  0  0  0
  6 27  1  0  0  0  0
  6 31  1  0  0  0  0
  7 30  1  0  0  0  0
  7 32  2  0  0  0  0
  8  9  2  0  0  0  0
  8 10  1  0  0  0  0
  8 14  1  0  0  0  0
 10 13  1  0  0  0  0
 11 13  2  0  0  0  0
 11 15  1  0  0  0  0
 11 16  1  0  0  0  0
 12 19  2  0  0  0  0
 12 20  1  0  0  0  0
 14 16  2  0  0  0  0
 15 23  1  0  0  0  0
 15 24  1  0  0  0  0
 18 21  1  0  0  0  0
 18 22  1  0  0  0  0
 20 22  2  0  0  0  0
 21 28  1  0  0  0  0
 21 29  2  0  0  0  0
 23 26  1  0  0  0  0
 24 27  1  0  0  0  0
 28 30  2  0  0  0  0
 29 32  1  0  0  0  0
 30 33  1  0  0  0  0
 31 34  1  0  0  0  0
M  END
> <PUBCHEM_COMPOUND_ID_TYPE>
0

> <PUBCHEM_TOTAL_CHARGE>
0

> <PUBCHEM_SUBSTANCE_ID>
310936349

> <PUBCHEM_SUBSTANCE_VERSION>
1

> <PUBCHEM_EXT_DATASOURCE_NAME>
4488

> <PUBCHEM_EXT_DATASOURCE_REGID>
SCHEMBL16113983

> <PUBCHEM_SUBSTANCE_COMMENT>
InChI=1S/C27H28N6O/c1-18-14-22(8-11-28-18)25-7-5-23(16-29-25)32(3)27-24-6-4-21(15-26(24)30-17-31-27)20-9-12-33(13-10-20)19(2)34/h4-8,11,14-17,20H,9-10,12-13H2,1-3H3
InChIKey=FFJXCZIREOYLRY-UHFFFAOYSA-N

> <PUBCHEM_SUBSTANCE_SYNONYM>
SCHEMBL16113983

> <PUBCHEM_XREF_EXT_ID>
SCHEMBL16113983

> <PUBCHEM_EXT_DATASOURCE_URL>
https://www.surechembl.org/

> <PUBCHEM_EXT_SUBSTANCE_URL>
https://www.surechembl.org/chemical/SCHEMBL16113983

> <PUBCHEM_CID_ASSOCIATIONS>
57414223  1

> <PUBCHEM_COORDINATE_TYPE>
1
3

$$$$
