310940918
  -OEChem-07211613022D

 12 12  0     0  0  0  0  0  0999 V2000
    2.1954    0.9579    0.0000 I   0  0  0  0  0  0  0  0  0  0  0  0
   -1.3704   -0.2307    0.0000 S   0  0  0  0  0  0  0  0  0  0  0  0
   -1.5802   -1.0418    0.0000 O   0  0  0  0  0  0  0  0  0  0  0  0
   -2.1954   -0.2307    0.0000 O   0  0  0  0  0  0  0  0  0  0  0  0
    1.5382   -0.2307    0.0000 O   0  0  0  0  0  0  0  0  0  0  0  0
    0.0979    0.6083    0.0000 N   0  0  0  0  0  0  0  0  0  0  0  0
   -0.6153   -0.6083    0.0000 C   0  0  0  0  0  0  0  0  0  0  0  0
   -1.3424    0.6362    0.0000 C   0  0  0  0  0  0  0  0  0  0  0  0
    0.0979   -0.2027    0.0000 C   0  0  0  0  0  0  0  0  0  0  0  0
   -0.6432    1.0418    0.0000 C   0  0  0  0  0  0  0  0  0  0  0  0
    0.8110    1.0418    0.0000 C   0  0  0  0  0  0  0  0  0  0  0  0
    1.5522    0.6503    0.0000 C   0  0  0  0  0  0  0  0  0  0  0  0
  1 12  1  0  0  0  0
  2  3  2  0  0  0  0
  2  4  2  0  0  0  0
  2  7  1  0  0  0  0
  2  8  1  0  0  0  0
  5 12  2  0  0  0  0
  6  9  1  0  0  0  0
  6 10  1  0  0  0  0
  6 11  1  0  0  0  0
  7  9  1  0  0  0  0
  8 10  1  0  0  0  0
 11 12  1  0  0  0  0
M  END
> <PUBCHEM_COMPOUND_ID_TYPE>
0

> <PUBCHEM_TOTAL_CHARGE>
0

> <PUBCHEM_SUBSTANCE_ID>
310940918

> <PUBCHEM_SUBSTANCE_VERSION>
1

> <PUBCHEM_EXT_DATASOURCE_NAME>
4488

> <PUBCHEM_EXT_DATASOURCE_REGID>
SCHEMBL16118877

> <PUBCHEM_SUBSTANCE_COMMENT>
InChI=1S/C6H10INO3S/c7-6(9)5-8-1-3-12(10,11)4-2-8/h1-5H2
InChIKey=UJWLMZMXSKYEDN-UHFFFAOYSA-N

> <PUBCHEM_SUBSTANCE_SYNONYM>
SCHEMBL16118877

> <PUBCHEM_XREF_EXT_ID>
SCHEMBL16118877

> <PUBCHEM_EXT_DATASOURCE_URL>
https://www.surechembl.org/

> <PUBCHEM_EXT_SUBSTANCE_URL>
https://www.surechembl.org/chemical/SCHEMBL16118877

> <PUBCHEM_CID_ASSOCIATIONS>
117607827  1

> <PUBCHEM_COORDINATE_TYPE>
1
3

$$$$
