310931818
  -OEChem-07211613022D

 34 37  0     0  0  0  0  0  0999 V2000
    3.3850   -1.9626    0.0000 F   0  0  0  0  0  0  0  0  0  0  0  0
    4.1957   -1.7529    0.0000 F   0  0  0  0  0  0  0  0  0  0  0  0
    2.8119   -1.3692    0.0000 F   0  0  0  0  0  0  0  0  0  0  0  0
    0.6637   -0.2184    0.0000 O   0  0  0  0  0  0  0  0  0  0  0  0
   -2.1434   -0.4125    0.0000 O   0  0  0  0  0  0  0  0  0  0  0  0
   -1.4067    3.7654    0.0000 O   0  0  0  0  0  0  0  0  0  0  0  0
    1.8931    0.6108    0.0000 N   0  0  0  0  0  0  0  0  0  0  0  0
    1.3079    1.8106    0.0000 N   0  0  0  0  0  0  0  0  0  0  0  0
    2.7509    1.8358    0.0000 N   0  0  0  0  0  0  0  0  0  0  0  0
    0.7145    1.2375    0.0000 C   0  0  0  0  0  0  0  0  0  0  0  0
    1.0762    0.4960    0.0000 C   0  0  0  0  0  0  0  0  0  0  0  0
    0.0000    0.8250    0.0000 C   0  0  0  0  0  0  0  0  0  0  0  0
    0.1842    1.8695    0.0000 C   0  0  0  0  0  0  0  0  0  0  0  0
    2.0363    1.4233    0.0000 C   0  0  0  0  0  0  0  0  0  0  0  0
    2.4662    0.0174    0.0000 C   0  0  0  0  0  0  0  0  0  0  0  0
   -0.7145    1.2375    0.0000 C   0  0  0  0  0  0  0  0  0  0  0  0
    0.4664    2.6447    0.0000 C   0  0  0  0  0  0  0  0  0  0  0  0
    0.0000    0.0000    0.0000 C   0  0  0  0  0  0  0  0  0  0  0  0
   -0.6283    1.7263    0.0000 C   0  0  0  0  0  0  0  0  0  0  0  0
    3.2667    0.2169    0.0000 C   0  0  0  0  0  0  0  0  0  0  0  0
    3.8398   -0.3765    0.0000 C   0  0  0  0  0  0  0  0  0  0  0  0
   -1.4290    0.8250    0.0000 C   0  0  0  0  0  0  0  0  0  0  0  0
   -0.0639    3.2767    0.0000 C   0  0  0  0  0  0  0  0  0  0  0  0
   -0.7145   -0.4125    0.0000 C   0  0  0  0  0  0  0  0  0  0  0  0
   -1.1586    2.3582    0.0000 C   0  0  0  0  0  0  0  0  0  0  0  0
   -1.4290    0.0000    0.0000 C   0  0  0  0  0  0  0  0  0  0  0  0
   -0.8764    3.1335    0.0000 C   0  0  0  0  0  0  0  0  0  0  0  0
    3.6124   -1.1696    0.0000 C   0  0  0  0  0  0  0  0  0  0  0  0
    3.4941    1.0100    0.0000 C   0  0  0  0  0  0  0  0  0  0  0  0
    4.6403   -0.1769    0.0000 C   0  0  0  0  0  0  0  0  0  0  0  0
    4.2946    1.2096    0.0000 C   0  0  0  0  0  0  0  0  0  0  0  0
    4.8677    0.6161    0.0000 C   0  0  0  0  0  0  0  0  0  0  0  0
   -2.8579    0.0000    0.0000 C   0  0  0  0  0  0  0  0  0  0  0  0
   -2.2192    3.6222    0.0000 C   0  0  0  0  0  0  0  0  0  0  0  0
  1 28  1  0  0  0  0
  2 28  1  0  0  0  0
  3 28  1  0  0  0  0
  4 11  2  0  0  0  0
  5 26  1  0  0  0  0
  5 33  1  0  0  0  0
  6 27  1  0  0  0  0
  6 34  1  0  0  0  0
  7 11  1  0  0  0  0
  7 14  1  0  0  0  0
  7 15  1  0  0  0  0
  8 10  1  0  0  0  0
  8 14  1  0  0  0  0
  9 14  2  3  0  0  0
 10 11  1  0  0  0  0
 10 12  1  0  0  0  0
 10 13  1  0  0  0  0
 12 16  2  0  0  0  0
 12 18  1  0  0  0  0
 13 17  2  0  0  0  0
 13 19  1  0  0  0  0
 15 20  1  0  0  0  0
 16 22  1  0  0  0  0
 17 23  1  0  0  0  0
 18 24  2  0  0  0  0
 19 25  2  0  0  0  0
 20 21  1  0  0  0  0
 20 29  2  0  0  0  0
 21 28  1  0  0  0  0
 21 30  2  0  0  0  0
 22 26  2  0  0  0  0
 23 27  2  0  0  0  0
 24 26  1  0  0  0  0
 25 27  1  0  0  0  0
 29 31  1  0  0  0  0
 30 32  1  0  0  0  0
 31 32  2  0  0  0  0
M  END
> <PUBCHEM_COMPOUND_ID_TYPE>
0

> <PUBCHEM_TOTAL_CHARGE>
0

> <PUBCHEM_SUBSTANCE_ID>
310931818

> <PUBCHEM_SUBSTANCE_VERSION>
1

> <PUBCHEM_EXT_DATASOURCE_NAME>
4488

> <PUBCHEM_EXT_DATASOURCE_REGID>
SCHEMBL16109151

> <PUBCHEM_SUBSTANCE_COMMENT>
InChI=1S/C25H22F3N3O3/c1-33-19-11-7-17(8-12-19)24(18-9-13-20(34-2)14-10-18)22(32)31(23(29)30-24)15-16-5-3-4-6-21(16)25(26,27)28/h3-14H,15H2,1-2H3,(H2,29,30)
InChIKey=QKNXBMHZKKVEFL-UHFFFAOYSA-N

> <PUBCHEM_SUBSTANCE_SYNONYM>
SCHEMBL16109151

> <PUBCHEM_XREF_EXT_ID>
SCHEMBL16109151

> <PUBCHEM_EXT_DATASOURCE_URL>
https://www.surechembl.org/

> <PUBCHEM_EXT_SUBSTANCE_URL>
https://www.surechembl.org/chemical/SCHEMBL16109151

> <PUBCHEM_CID_ASSOCIATIONS>
117600493  1

> <PUBCHEM_COORDINATE_TYPE>
1
3

$$$$
