310949091
  -OEChem-07211613022D

 16 16  0     0  0  0  0  0  0999 V2000
   -2.1074    2.1374    0.0000 O   0  0  0  0  0  0  0  0  0  0  0  0
   -1.3874   -1.8374    0.0000 N   0  0  0  0  0  0  0  0  0  0  0  0
   -0.2775    2.3624    0.0000 N   0  0  0  0  0  0  0  0  0  0  0  0
    2.4524    2.4374    0.0000 N   0  0  0  0  0  0  0  0  0  0  0  0
   -1.3574    1.0125    0.0000 C   0  0  0  0  0  0  0  0  0  0  0  0
   -1.3874   -0.6225    0.0000 C   0  0  0  0  0  0  0  0  0  0  0  0
   -1.2974    1.7475    0.0000 C   0  0  0  0  0  0  0  0  0  0  0  0
   -2.0924    0.5925    0.0000 C   0  0  0  0  0  0  0  0  0  0  0  0
   -0.6525    0.6075    0.0000 C   0  0  0  0  0  0  0  0  0  0  0  0
   -2.0924   -0.2325    0.0000 C   0  0  0  0  0  0  0  0  0  0  0  0
   -0.6675   -0.2175    0.0000 C   0  0  0  0  0  0  0  0  0  0  0  0
    0.4274    1.9874    0.0000 C   0  0  0  0  0  0  0  0  0  0  0  0
   -2.4524   -2.4374    0.0000 C   0  0  0  0  0  0  0  0  0  0  0  0
   -0.3375   -2.4374    0.0000 C   0  0  0  0  0  0  0  0  0  0  0  0
    1.0424    2.3474    0.0000 C   0  0  0  0  0  0  0  0  0  0  0  0
    1.7475    1.9874    0.0000 C   0  0  0  0  0  0  0  0  0  0  0  0
  1  7  2  0  0  0  0
  2  6  1  0  0  0  0
  2 13  1  0  0  0  0
  2 14  1  0  0  0  0
  3  7  1  0  0  0  0
  3 12  1  0  0  0  0
  4 16  1  0  0  0  0
  5  7  1  0  0  0  0
  5  8  2  0  0  0  0
  5  9  1  0  0  0  0
  6 10  2  0  0  0  0
  6 11  1  0  0  0  0
  8 10  1  0  0  0  0
  9 11  2  0  0  0  0
 12 15  1  0  0  0  0
 15 16  1  0  0  0  0
M  END
> <PUBCHEM_COMPOUND_ID_TYPE>
0

> <PUBCHEM_TOTAL_CHARGE>
0

> <PUBCHEM_SUBSTANCE_ID>
310949091

> <PUBCHEM_SUBSTANCE_VERSION>
1

> <PUBCHEM_EXT_DATASOURCE_NAME>
4488

> <PUBCHEM_EXT_DATASOURCE_REGID>
SCHEMBL16127281

> <PUBCHEM_SUBSTANCE_COMMENT>
InChI=1S/C12H19N3O/c1-15(2)11-6-4-10(5-7-11)12(16)14-9-3-8-13/h4-7H,3,8-9,13H2,1-2H3,(H,14,16)
InChIKey=PIFHNPXKGZMMIG-UHFFFAOYSA-N

> <PUBCHEM_SUBSTANCE_SYNONYM>
SCHEMBL16127281

> <PUBCHEM_XREF_EXT_ID>
SCHEMBL16127281

> <PUBCHEM_EXT_DATASOURCE_URL>
https://www.surechembl.org/

> <PUBCHEM_EXT_SUBSTANCE_URL>
https://www.surechembl.org/chemical/SCHEMBL16127281

> <PUBCHEM_CID_ASSOCIATIONS>
43146811  1

> <PUBCHEM_COORDINATE_TYPE>
1
3

$$$$
