310947258
  -OEChem-07211613022D

 37 41  0     1  0  0  0  0  0999 V2000
   -1.4608    2.4894    0.0000 O   0  0  0  0  0  0  0  0  0  0  0  0
    1.4672    0.1720    0.0000 N   0  0  0  0  0  0  0  0  0  0  0  0
    1.9522    0.8394    0.0000 N   0  0  0  0  0  0  0  0  0  0  0  0
   -2.1753    1.2519    0.0000 N   0  0  0  0  0  0  0  0  0  0  0  0
    0.6826    0.4269    0.0000 C   0  0  0  0  0  0  0  0  0  0  0  0
    0.6826    1.2519    0.0000 C   0  0  0  0  0  0  0  0  0  0  0  0
    1.4672    1.5069    0.0000 C   0  0  0  0  0  0  0  0  0  0  0  0
   -0.0319    1.6644    0.0000 C   0  0  0  0  0  0  0  0  0  0  0  0
   -0.7463    1.2519    0.0000 C   0  0  0  0  0  0  0  0  0  0  0  0
   -0.0319    0.0144    0.0000 C   0  0  0  0  0  0  0  0  0  0  0  0
    1.6808   -0.6249    0.0000 C   0  0  0  0  0  0  0  0  0  0  0  0
   -0.7463    0.4269    0.0000 C   0  0  0  0  0  0  0  0  0  0  0  0
   -1.4608    1.6644    0.0000 C   0  0  0  0  0  0  0  0  0  0  0  0
    2.4777   -0.8384    0.0000 C   0  0  0  0  0  0  0  0  0  0  0  0
    1.8797    2.2213    0.0000 C   0  0  0  0  0  0  0  0  0  0  0  0
   -2.8897    1.6644    0.0000 C   0  0  3  0  0  0  0  0  0  0  0  0
    2.6912   -1.6353    0.0000 C   0  0  0  0  0  0  0  0  0  0  0  0
    3.0610   -0.2551    0.0000 C   0  0  0  0  0  0  0  0  0  0  0  0
    4.0714   -1.2655    0.0000 C   0  0  0  0  0  0  0  0  0  0  0  0
   -3.6042    1.2519    0.0000 C   0  0  0  0  0  0  0  0  0  0  0  0
    3.4881   -1.8488    0.0000 C   0  0  0  0  0  0  0  0  0  0  0  0
    3.8579   -0.4686    0.0000 C   0  0  0  0  0  0  0  0  0  0  0  0
    4.8683   -1.4790    0.0000 C   0  0  0  0  0  0  0  0  0  0  0  0
   -4.3187    1.6644    0.0000 C   0  0  0  0  0  0  0  0  0  0  0  0
   -5.0332    1.2519    0.0000 C   0  0  0  0  0  0  0  0  0  0  0  0
   -3.6042    0.4269    0.0000 C   0  0  0  0  0  0  0  0  0  0  0  0
   -5.0332    0.4269    0.0000 C   0  0  0  0  0  0  0  0  0  0  0  0
   -2.8897    2.4894    0.0000 C   0  0  0  0  0  0  0  0  0  0  0  0
   -4.3187    0.0144    0.0000 C   0  0  0  0  0  0  0  0  0  0  0  0
    5.0818   -2.2759    0.0000 C   0  0  0  0  0  0  0  0  0  0  0  0
    5.4517   -0.8956    0.0000 C   0  0  0  0  0  0  0  0  0  0  0  0
   -5.7476    1.6644    0.0000 C   0  0  0  0  0  0  0  0  0  0  0  0
    5.8787   -2.4894    0.0000 C   0  0  0  0  0  0  0  0  0  0  0  0
    6.2486   -1.1092    0.0000 C   0  0  0  0  0  0  0  0  0  0  0  0
    6.4621   -1.9061    0.0000 C   0  0  0  0  0  0  0  0  0  0  0  0
   -6.4621    1.2519    0.0000 C   0  0  0  0  0  0  0  0  0  0  0  0
   -5.7476    2.4894    0.0000 C   0  0  0  0  0  0  0  0  0  0  0  0
  1 13  2  0  0  0  0
  2  3  1  0  0  0  0
  2  5  1  0  0  0  0
  2 11  1  0  0  0  0
  3  7  2  0  0  0  0
  4 13  1  0  0  0  0
  4 16  1  0  0  0  0
  5  6  1  0  0  0  0
  5 10  2  0  0  0  0
  6  7  1  0  0  0  0
  6  8  2  0  0  0  0
  7 15  1  0  0  0  0
  8  9  1  0  0  0  0
  9 12  2  0  0  0  0
  9 13  1  0  0  0  0
 10 12  1  0  0  0  0
 11 14  1  0  0  0  0
 14 17  2  0  0  0  0
 14 18  1  0  0  0  0
 16 20  1  0  0  0  0
 16 28  1  6  0  0  0
 17 21  1  0  0  0  0
 18 22  2  0  0  0  0
 19 21  2  0  0  0  0
 19 22  1  0  0  0  0
 19 23  1  0  0  0  0
 20 24  2  0  0  0  0
 20 26  1  0  0  0  0
 23 30  2  0  0  0  0
 23 31  1  0  0  0  0
 24 25  1  0  0  0  0
 25 27  2  0  0  0  0
 25 32  1  0  0  0  0
 26 29  2  0  0  0  0
 27 29  1  0  0  0  0
 30 33  1  0  0  0  0
 31 34  2  0  0  0  0
 32 36  1  0  0  0  0
 32 37  1  0  0  0  0
 33 35  2  0  0  0  0
 34 35  1  0  0  0  0
M  END
> <PUBCHEM_COMPOUND_ID_TYPE>
0

> <PUBCHEM_TOTAL_CHARGE>
0

> <PUBCHEM_SUBSTANCE_ID>
310947258

> <PUBCHEM_SUBSTANCE_VERSION>
1

> <PUBCHEM_EXT_DATASOURCE_NAME>
4488

> <PUBCHEM_EXT_DATASOURCE_REGID>
SCHEMBL16125413

> <PUBCHEM_SUBSTANCE_COMMENT>
InChI=1S/C33H33N3O/c1-22(2)28-11-8-12-29(19-28)23(3)34-33(37)30-17-18-32-31(20-30)24(4)35-36(32)21-25-13-15-27(16-14-25)26-9-6-5-7-10-26/h5-20,22-23H,21H2,1-4H3,(H,34,37)/t23-/m0/s1
InChIKey=OOBAQNUCACYUTG-QHCPKHFHSA-N

> <PUBCHEM_SUBSTANCE_SYNONYM>
SCHEMBL16125413

> <PUBCHEM_XREF_EXT_ID>
SCHEMBL16125413

> <PUBCHEM_EXT_DATASOURCE_URL>
https://www.surechembl.org/

> <PUBCHEM_EXT_SUBSTANCE_URL>
https://www.surechembl.org/chemical/SCHEMBL16125413

> <PUBCHEM_CID_ASSOCIATIONS>
117613063  1

> <PUBCHEM_COORDINATE_TYPE>
1
3

> <PUBCHEM_BONDANNOTATIONS>
16  28  6

$$$$
