310934637
  -OEChem-07211613022D

 24 26  0     0  0  0  0  0  0999 V2000
    4.4874   -0.7102    0.0000 O   0  0  0  0  0  0  0  0  0  0  0  0
    1.5496    0.0000    0.0000 O   0  0  0  0  0  0  0  0  0  0  0  0
    0.7425   -1.4205    0.0000 O   0  0  0  0  0  0  0  0  0  0  0  0
    1.5496   -1.4205    0.0000 N   0  0  0  0  0  0  0  0  0  0  0  0
    2.8087   -0.7102    0.0000 C   0  0  0  0  0  0  0  0  0  0  0  0
    1.9693   -0.7102    0.0000 C   0  0  0  0  0  0  0  0  0  0  0  0
    2.3890   -1.4205    0.0000 C   0  0  0  0  0  0  0  0  0  0  0  0
    3.2284   -1.4205    0.0000 C   0  0  0  0  0  0  0  0  0  0  0  0
    3.2284    0.0000    0.0000 C   0  0  0  0  0  0  0  0  0  0  0  0
    2.8087   -2.1307    0.0000 C   0  0  0  0  0  0  0  0  0  0  0  0
    2.4213   -2.8733    0.0000 C   0  0  0  0  0  0  0  0  0  0  0  0
    1.6142   -4.2938    0.0000 C   0  0  0  0  0  0  0  0  0  0  0  0
    4.0355   -1.4205    0.0000 C   0  0  0  0  0  0  0  0  0  0  0  0
    4.0355    0.0000    0.0000 C   0  0  0  0  0  0  0  0  0  0  0  0
    1.2268   -5.0363    0.0000 C   0  0  0  0  0  0  0  0  0  0  0  0
    1.5819   -2.8733    0.0000 C   0  0  0  0  0  0  0  0  0  0  0  0
    2.8410   -3.5835    0.0000 C   0  0  0  0  0  0  0  0  0  0  0  0
    1.1945   -3.5835    0.0000 C   0  0  0  0  0  0  0  0  0  0  0  0
    2.4213   -4.2938    0.0000 C   0  0  0  0  0  0  0  0  0  0  0  0
    1.6464   -5.7142    0.0000 C   0  0  0  0  0  0  0  0  0  0  0  0
    0.3874   -5.0363    0.0000 C   0  0  0  0  0  0  0  0  0  0  0  0
    1.2268   -6.4567    0.0000 C   0  0  0  0  0  0  0  0  0  0  0  0
    0.0000   -5.7465    0.0000 C   0  0  0  0  0  0  0  0  0  0  0  0
    0.4197   -6.4567    0.0000 C   0  0  0  0  0  0  0  0  0  0  0  0
  1 13  1  0  0  0  0
  1 14  1  0  0  0  0
  2  6  2  0  0  0  0
  3  4  1  0  0  0  0
  4  6  1  0  0  0  0
  5  6  1  0  0  0  0
  5  7  1  0  0  0  0
  5  8  1  0  0  0  0
  5  9  1  0  0  0  0
  7 10  1  0  0  0  0
  8 13  1  0  0  0  0
  9 14  1  0  0  0  0
 10 11  1  0  0  0  0
 11 16  2  0  0  0  0
 11 17  1  0  0  0  0
 12 15  1  0  0  0  0
 12 18  2  0  0  0  0
 12 19  1  0  0  0  0
 15 20  2  0  0  0  0
 15 21  1  0  0  0  0
 16 18  1  0  0  0  0
 17 19  2  0  0  0  0
 20 22  1  0  0  0  0
 21 23  2  0  0  0  0
 22 24  2  0  0  0  0
 23 24  1  0  0  0  0
M  END
> <PUBCHEM_COMPOUND_ID_TYPE>
0

> <PUBCHEM_TOTAL_CHARGE>
0

> <PUBCHEM_SUBSTANCE_ID>
310934637

> <PUBCHEM_SUBSTANCE_VERSION>
1

> <PUBCHEM_EXT_DATASOURCE_NAME>
4488

> <PUBCHEM_EXT_DATASOURCE_REGID>
SCHEMBL16112134

> <PUBCHEM_SUBSTANCE_COMMENT>
InChI=1S/C20H23NO3/c22-19(21-23)20(12-14-24-15-13-20)11-10-16-6-8-18(9-7-16)17-4-2-1-3-5-17/h1-9,23H,10-15H2,(H,21,22)
InChIKey=WCFAVQBABCJCRE-UHFFFAOYSA-N

> <PUBCHEM_SUBSTANCE_SYNONYM>
SCHEMBL16112134

> <PUBCHEM_XREF_EXT_ID>
SCHEMBL16112134

> <PUBCHEM_EXT_DATASOURCE_URL>
https://www.surechembl.org/

> <PUBCHEM_EXT_SUBSTANCE_URL>
https://www.surechembl.org/chemical/SCHEMBL16112134

> <PUBCHEM_CID_ASSOCIATIONS>
117602806  1

> <PUBCHEM_COORDINATE_TYPE>
1
3

$$$$
