310945706
  -OEChem-07211613022D

 43 47  0     1  0  0  0  0  0999 V2000
    5.4803    0.9769    0.0000 O   0  0  0  0  0  0  0  0  0  0  0  0
    4.3440   -0.9769    0.0000 O   0  0  0  0  0  0  0  0  0  0  0  0
    1.9745    0.9630    0.0000 O   0  0  0  0  0  0  0  0  0  0  0  0
   -2.3487    0.9630    0.0000 O   0  0  0  0  0  0  0  0  0  0  0  0
   -0.1870   -1.1016    0.0000 O   0  0  0  0  0  0  0  0  0  0  0  0
    4.1362   -2.7644    0.0000 O   0  0  0  0  0  0  0  0  0  0  0  0
    2.6951   -0.2702    0.0000 N   0  0  0  0  0  0  0  0  0  0  0  0
    0.5335    0.1455    0.0000 N   0  0  0  0  0  0  0  0  0  0  0  0
   -5.3001   -0.0208    0.0000 N   0  0  0  0  0  0  0  0  0  0  0  0
   -5.3001   -1.3510    0.0000 N   0  0  0  0  0  0  0  0  0  0  0  0
   -1.6282   -0.2702    0.0000 N   0  0  0  0  0  0  0  0  0  0  0  0
    5.0646    0.2979    0.0000 C   0  0  3  0  0  0  0  0  0  0  0  0
    4.3440   -0.1178    0.0000 C   0  0  0  0  0  0  0  0  0  0  0  0
    4.6766    0.9907    0.0000 C   0  0  0  0  0  0  0  0  0  0  0  0
    3.6235    0.2840    0.0000 C   0  0  3  0  0  0  0  0  0  0  0  0
    5.7852   -0.1178    0.0000 C   0  0  0  0  0  0  0  0  0  0  0  0
    3.6374    1.3649    0.0000 C   0  0  0  0  0  0  0  0  0  0  0  0
    1.9745    0.1455    0.0000 C   0  0  0  0  0  0  0  0  0  0  0  0
    1.2679   -0.2425    0.0000 C   0  0  3  0  0  0  0  0  0  0  0  0
    2.9029    1.7944    0.0000 C   0  0  0  0  0  0  0  0  0  0  0  0
   -4.4965   -0.2425    0.0000 C   0  0  0  0  0  0  0  0  0  0  0  0
   -4.5103   -1.0738    0.0000 C   0  0  0  0  0  0  0  0  0  0  0  0
   -3.0693   -0.2425    0.0000 C   0  0  0  0  0  0  0  0  0  0  0  0
   -3.7897    0.1455    0.0000 C   0  0  0  0  0  0  0  0  0  0  0  0
   -2.3487    0.1455    0.0000 C   0  0  0  0  0  0  0  0  0  0  0  0
    1.2402   -1.0877    0.0000 C   0  0  0  0  0  0  0  0  0  0  0  0
   -0.1732   -0.2286    0.0000 C   0  0  0  0  0  0  0  0  0  0  0  0
   -3.7897   -1.4757    0.0000 C   0  0  0  0  0  0  0  0  0  0  0  0
   -3.0693   -1.0738    0.0000 C   0  0  0  0  0  0  0  0  0  0  0  0
   -0.9076    0.1594    0.0000 C   0  0  3  0  0  0  0  0  0  0  0  0
    1.9884   -1.4896    0.0000 C   0  0  0  0  0  0  0  0  0  0  0  0
    2.1547    1.4480    0.0000 C   0  0  0  0  0  0  0  0  0  0  0  0
    2.8198    2.5981    0.0000 C   0  0  0  0  0  0  0  0  0  0  0  0
   -5.7852   -0.6720    0.0000 C   0  0  0  0  0  0  0  0  0  0  0  0
    1.6143    2.0439    0.0000 C   0  0  0  0  0  0  0  0  0  0  0  0
    2.0161    2.7644    0.0000 C   0  0  0  0  0  0  0  0  0  0  0  0
    1.9884   -2.3209    0.0000 C   0  0  0  0  0  0  0  0  0  0  0  0
    2.6951   -1.1016    0.0000 C   0  0  0  0  0  0  0  0  0  0  0  0
    3.4157   -2.3072    0.0000 C   0  0  0  0  0  0  0  0  0  0  0  0
   -0.9076    0.9769    0.0000 C   0  0  0  0  0  0  0  0  0  0  0  0
    2.6951   -2.7228    0.0000 C   0  0  0  0  0  0  0  0  0  0  0  0
    3.4157   -1.5035    0.0000 C   0  0  0  0  0  0  0  0  0  0  0  0
    4.8845   -2.3348    0.0000 C   0  0  0  0  0  0  0  0  0  0  0  0
  1 12  1  0  0  0  0
  1 14  1  0  0  0  0
  2 13  2  0  0  0  0
  3 18  2  0  0  0  0
  4 25  2  0  0  0  0
  5 27  2  0  0  0  0
  6 39  1  0  0  0  0
  6 43  1  0  0  0  0
 15  7  1  1  0  0  0
  7 18  1  0  0  0  0
 19  8  1  6  0  0  0
  8 27  1  0  0  0  0
  9 21  1  0  0  0  0
  9 34  2  0  0  0  0
 10 22  1  0  0  0  0
 10 34  1  0  0  0  0
 11 25  1  0  0  0  0
 11 30  1  0  0  0  0
 12 13  1  1  0  0  0
 12 14  1  0  0  0  0
 12 16  1  6  0  0  0
 13 15  1  0  0  0  0
 15 17  1  0  0  0  0
 17 20  1  0  0  0  0
 18 19  1  0  0  0  0
 19 26  1  0  0  0  0
 20 32  1  0  0  0  0
 20 33  1  0  0  0  0
 21 22  1  0  0  0  0
 21 24  2  0  0  0  0
 22 28  2  0  0  0  0
 23 24  1  0  0  0  0
 23 25  1  0  0  0  0
 23 29  2  0  0  0  0
 26 31  1  0  0  0  0
 27 30  1  0  0  0  0
 28 29  1  0  0  0  0
 30 40  1  6  0  0  0
 31 37  2  0  0  0  0
 31 38  1  0  0  0  0
 32 35  1  0  0  0  0
 33 36  1  0  0  0  0
 35 36  1  0  0  0  0
 37 41  1  0  0  0  0
 38 42  2  0  0  0  0
 39 41  2  0  0  0  0
 39 42  1  0  0  0  0
M  END
> <PUBCHEM_COMPOUND_ID_TYPE>
0

> <PUBCHEM_TOTAL_CHARGE>
0

> <PUBCHEM_SUBSTANCE_ID>
310945706

> <PUBCHEM_SUBSTANCE_VERSION>
1

> <PUBCHEM_EXT_DATASOURCE_NAME>
4488

> <PUBCHEM_EXT_DATASOURCE_REGID>
SCHEMBL16123807

> <PUBCHEM_SUBSTANCE_COMMENT>
InChI=1S/C32H39N5O6/c1-19(35-30(40)22-10-13-24-25(16-22)34-18-33-24)29(39)37-27(15-21-8-11-23(42-3)12-9-21)31(41)36-26(14-20-6-4-5-7-20)28(38)32(2)17-43-32/h8-13,16,18-20,26-27H,4-7,14-15,17H2,1-3H3,(H,33,34)(H,35,40)(H,36,41)(H,37,39)/t19-,26+,27+,32-/m1/s1
InChIKey=JWZFDVWTEFYLGM-YRAFSUISSA-N

> <PUBCHEM_SUBSTANCE_SYNONYM>
SCHEMBL16123807

> <PUBCHEM_XREF_EXT_ID>
SCHEMBL16123807

> <PUBCHEM_EXT_DATASOURCE_URL>
https://www.surechembl.org/

> <PUBCHEM_EXT_SUBSTANCE_URL>
https://www.surechembl.org/chemical/SCHEMBL16123807

> <PUBCHEM_CID_ASSOCIATIONS>
117611703  1

> <PUBCHEM_COORDINATE_TYPE>
1
3

> <PUBCHEM_BONDANNOTATIONS>
12  13  5
12  16  6
30  40  6
15  7  5
19  8  6

$$$$
