310947459
  -OEChem-07211613022D

 22 23  0     0  0  0  0  0  0999 V2000
   -2.4032   -0.5043    0.0000 O   0  0  0  0  0  0  0  0  0  0  0  0
    1.1692   -2.5668    0.0000 O   0  0  0  0  0  0  0  0  0  0  0  0
    1.1692   -4.2168    0.0000 O   0  0  0  0  0  0  0  0  0  0  0  0
   -3.1177   -1.7418    0.0000 N   0  0  0  0  0  0  0  0  0  0  0  0
    0.4547   -3.8043    0.0000 N   0  0  0  0  0  0  0  0  0  0  0  0
   -2.4032   -1.3293    0.0000 C   0  0  0  0  0  0  0  0  0  0  0  0
   -1.6887   -1.7418    0.0000 C   0  0  0  0  0  0  0  0  0  0  0  0
   -3.1177   -2.5668    0.0000 C   0  0  0  0  0  0  0  0  0  0  0  0
   -0.2598   -2.5668    0.0000 C   0  0  0  0  0  0  0  0  0  0  0  0
   -1.6887   -2.5668    0.0000 C   0  0  0  0  0  0  0  0  0  0  0  0
   -0.9742   -1.3293    0.0000 C   0  0  0  0  0  0  0  0  0  0  0  0
   -0.9742   -2.9793    0.0000 C   0  0  0  0  0  0  0  0  0  0  0  0
   -0.2598   -1.7418    0.0000 C   0  0  0  0  0  0  0  0  0  0  0  0
   -3.8321   -1.3293    0.0000 C   0  0  0  0  0  0  0  0  0  0  0  0
    0.4547   -2.9793    0.0000 C   0  0  0  0  0  0  0  0  0  0  0  0
   -3.8321   -2.9793    0.0000 C   0  0  0  0  0  0  0  0  0  0  0  0
   -2.4032   -2.9793    0.0000 C   0  0  0  0  0  0  0  0  0  0  0  0
   -3.8321   -3.8043    0.0000 C   0  0  0  0  0  0  0  0  0  0  0  0
   -2.4032   -3.8043    0.0000 C   0  0  0  0  0  0  0  0  0  0  0  0
   -3.8321   -0.5043    0.0000 C   0  0  0  0  0  0  0  0  0  0  0  0
   -3.1177   -4.2168    0.0000 C   0  0  0  0  0  0  0  0  0  0  0  0
   -4.5466   -0.0918    0.0000 C   0  0  0  0  0  0  0  0  0  0  0  0
  1  6  2  0  0  0  0
  2 15  2  0  0  0  0
  3  5  1  0  0  0  0
  4  6  1  0  0  0  0
  4  8  1  0  0  0  0
  4 14  1  0  0  0  0
  5 15  1  0  0  0  0
  6  7  1  0  0  0  0
  7 10  2  0  0  0  0
  7 11  1  0  0  0  0
  8 16  2  0  0  0  0
  8 17  1  0  0  0  0
  9 12  2  0  0  0  0
  9 13  1  0  0  0  0
  9 15  1  0  0  0  0
 10 12  1  0  0  0  0
 11 13  2  0  0  0  0
 14 20  1  0  0  0  0
 16 18  1  0  0  0  0
 17 19  2  0  0  0  0
 18 21  2  0  0  0  0
 19 21  1  0  0  0  0
 20 22  1  0  0  0  0
M  END
> <PUBCHEM_COMPOUND_ID_TYPE>
0

> <PUBCHEM_TOTAL_CHARGE>
0

> <PUBCHEM_SUBSTANCE_ID>
310947459

> <PUBCHEM_SUBSTANCE_VERSION>
1

> <PUBCHEM_EXT_DATASOURCE_NAME>
4488

> <PUBCHEM_EXT_DATASOURCE_REGID>
SCHEMBL16125620

> <PUBCHEM_SUBSTANCE_COMMENT>
InChI=1S/C17H18N2O3/c1-2-12-19(15-6-4-3-5-7-15)17(21)14-10-8-13(9-11-14)16(20)18-22/h3-11,22H,2,12H2,1H3,(H,18,20)
InChIKey=LYWWKOVWHHVKGA-UHFFFAOYSA-N

> <PUBCHEM_SUBSTANCE_SYNONYM>
SCHEMBL16125620

> <PUBCHEM_XREF_EXT_ID>
SCHEMBL16125620

> <PUBCHEM_EXT_DATASOURCE_URL>
https://www.surechembl.org/

> <PUBCHEM_EXT_SUBSTANCE_URL>
https://www.surechembl.org/chemical/SCHEMBL16125620

> <PUBCHEM_CID_ASSOCIATIONS>
117613190  1

> <PUBCHEM_COORDINATE_TYPE>
1
3

$$$$
