310932547
  -OEChem-07211613022D

 37 42  0     1  0  0  0  0  0999 V2000
    0.0496    0.0000    0.0000 Cl  0  0  0  0  0  0  0  0  0  0  0  0
    0.7436   -5.6510    0.0000 S   0  0  0  0  0  0  0  0  0  0  0  0
    4.8578   -7.1380    0.0000 F   0  0  0  0  0  0  0  0  0  0  0  0
    4.0647   -5.6510    0.0000 O   0  0  0  0  0  0  0  0  0  0  0  0
    2.4289   -9.9139    0.0000 O   0  0  0  0  0  0  0  0  0  0  0  0
    1.2392   -3.5195    0.0000 O   0  0  0  0  0  0  0  0  0  0  0  0
    1.9828   -4.9570    0.0000 N   0  0  0  0  0  0  0  0  0  0  0  0
    3.6186   -7.7825    0.0000 N   0  0  0  0  0  0  0  0  0  0  0  0
    2.4289   -2.8255    0.0000 N   0  0  0  0  0  0  0  0  0  0  0  0
    0.7931   -4.2134    0.0000 N   0  0  0  0  0  0  0  0  0  0  0  0
    0.4461   -2.1315    0.0000 N   0  0  0  0  0  0  0  0  0  0  0  0
    2.4289   -5.6510    0.0000 C   0  0  3  0  0  0  0  0  0  0  0  0
    2.8255   -6.3945    0.0000 C   0  0  0  0  0  0  0  0  0  0  0  0
    2.8255   -4.9570    0.0000 C   0  0  0  0  0  0  0  0  0  0  0  0
    3.6186   -6.3945    0.0000 C   0  0  0  0  0  0  0  0  0  0  0  0
    3.6682   -4.9570    0.0000 C   0  0  0  0  0  0  0  0  0  0  0  0
    1.9828   -6.3449    0.0000 C   0  0  0  0  0  0  0  0  0  0  0  0
    2.3793   -7.0885    0.0000 C   0  0  0  0  0  0  0  0  0  0  0  0
    4.0647   -7.1380    0.0000 C   0  0  0  0  0  0  0  0  0  0  0  0
    2.4289   -4.2134    0.0000 C   0  0  0  0  0  0  0  0  0  0  0  0
    2.7759   -7.7825    0.0000 C   0  0  0  0  0  0  0  0  0  0  0  0
    4.0647   -4.2134    0.0000 C   0  0  0  0  0  0  0  0  0  0  0  0
    1.1897   -4.9570    0.0000 C   0  0  0  0  0  0  0  0  0  0  0  0
    2.8255   -3.5691    0.0000 C   0  0  0  0  0  0  0  0  0  0  0  0
    1.1401   -6.3449    0.0000 C   0  0  0  0  0  0  0  0  0  0  0  0
    3.6682   -3.5691    0.0000 C   0  0  0  0  0  0  0  0  0  0  0  0
    2.4289   -8.4764    0.0000 C   0  0  0  0  0  0  0  0  0  0  0  0
    2.8255   -9.1704    0.0000 C   0  0  0  0  0  0  0  0  0  0  0  0
    1.5863   -8.4764    0.0000 C   0  0  0  0  0  0  0  0  0  0  0  0
    1.6358   -2.8255    0.0000 C   0  0  0  0  0  0  0  0  0  0  0  0
    1.2392   -2.1315    0.0000 C   0  0  0  0  0  0  0  0  0  0  0  0
    1.1897   -9.2200    0.0000 C   0  0  0  0  0  0  0  0  0  0  0  0
    1.6358   -9.9139    0.0000 C   0  0  0  0  0  0  0  0  0  0  0  0
    1.6854   -1.4375    0.0000 C   0  0  0  0  0  0  0  0  0  0  0  0
    0.0000   -1.4375    0.0000 C   0  0  0  0  0  0  0  0  0  0  0  0
    1.2392   -0.6940    0.0000 C   0  0  0  0  0  0  0  0  0  0  0  0
    0.4461   -0.6940    0.0000 C   0  0  0  0  0  0  0  0  0  0  0  0
  1 37  1  0  0  0  0
  2 23  1  0  0  0  0
  2 25  1  0  0  0  0
  3 19  1  0  0  0  0
  4 15  1  0  0  0  0
  4 16  1  0  0  0  0
  5 28  1  0  0  0  0
  5 33  1  0  0  0  0
  6 30  2  0  0  0  0
 12  7  1  1  0  0  0
  7 23  2  0  0  0  0
  8 19  1  0  0  0  0
  8 21  2  0  0  0  0
  9 24  1  0  0  0  0
  9 30  1  0  0  0  0
 10 23  1  0  0  0  0
 11 31  1  0  0  0  0
 11 35  2  0  0  0  0
 12 13  1  0  0  0  0
 12 14  1  0  0  0  0
 12 17  1  0  0  0  0
 13 15  1  0  0  0  0
 13 18  2  0  0  0  0
 14 16  2  0  0  0  0
 14 20  1  0  0  0  0
 15 19  2  0  0  0  0
 16 22  1  0  0  0  0
 17 25  1  0  0  0  0
 18 21  1  0  0  0  0
 20 24  2  0  0  0  0
 21 27  1  0  0  0  0
 22 26  2  0  0  0  0
 24 26  1  0  0  0  0
 27 28  1  0  0  0  0
 27 29  2  0  0  0  0
 29 32  1  0  0  0  0
 30 31  1  0  0  0  0
 31 34  2  0  0  0  0
 32 33  1  0  0  0  0
 34 36  1  0  0  0  0
 35 37  1  0  0  0  0
 36 37  2  0  0  0  0
M  END
> <PUBCHEM_COMPOUND_ID_TYPE>
0

> <PUBCHEM_TOTAL_CHARGE>
0

> <PUBCHEM_SUBSTANCE_ID>
310932547

> <PUBCHEM_SUBSTANCE_VERSION>
1

> <PUBCHEM_EXT_DATASOURCE_NAME>
4488

> <PUBCHEM_EXT_DATASOURCE_REGID>
SCHEMBL16109924

> <PUBCHEM_SUBSTANCE_COMMENT>
InChI=1S/C26H21ClFN5O3S/c27-15-3-5-19(30-12-15)24(34)31-16-4-6-21-17(10-16)26(7-9-37-25(29)33-26)18-11-20(14-2-1-8-35-13-14)32-23(28)22(18)36-21/h2-6,10-12H,1,7-9,13H2,(H2,29,33)(H,31,34)/t26-/m0/s1
InChIKey=IAVGEYDFBMIOJJ-SANMLTNESA-N

> <PUBCHEM_SUBSTANCE_SYNONYM>
SCHEMBL16109924

> <PUBCHEM_XREF_EXT_ID>
SCHEMBL16109924

> <PUBCHEM_EXT_DATASOURCE_URL>
https://www.surechembl.org/

> <PUBCHEM_EXT_SUBSTANCE_URL>
https://www.surechembl.org/chemical/SCHEMBL16109924

> <PUBCHEM_CID_ASSOCIATIONS>
71542967  1

> <PUBCHEM_COORDINATE_TYPE>
1
3

> <PUBCHEM_BONDANNOTATIONS>
12  7  5

$$$$
