310943485
  -OEChem-07211613022D

 23 25  0     0  0  0  0  0  0999 V2000
   -3.2159    2.0710    0.0000 O   0  0  0  0  0  0  0  0  0  0  0  0
   -1.7848    1.2460    0.0000 N   0  0  0  0  0  0  0  0  0  0  0  0
    0.3536    0.0169    0.0000 N   0  0  0  0  0  0  0  0  0  0  0  0
   -1.0776    0.0169    0.0000 N   0  0  0  0  0  0  0  0  0  0  0  0
   -0.3536   -1.2291    0.0000 N   0  0  0  0  0  0  0  0  0  0  0  0
    3.2159    0.8419    0.0000 N   0  0  0  0  0  0  0  0  0  0  0  0
    0.3536    0.8419    0.0000 C   0  0  0  0  0  0  0  0  0  0  0  0
   -1.0776    0.8419    0.0000 C   0  0  0  0  0  0  0  0  0  0  0  0
    1.0608    1.2460    0.0000 C   0  0  0  0  0  0  0  0  0  0  0  0
   -0.3704    1.2460    0.0000 C   0  0  0  0  0  0  0  0  0  0  0  0
   -0.3536   -0.3873    0.0000 C   0  0  0  0  0  0  0  0  0  0  0  0
    1.0776    2.0710    0.0000 C   0  0  0  0  0  0  0  0  0  0  0  0
    1.7848    0.8419    0.0000 C   0  0  0  0  0  0  0  0  0  0  0  0
    2.4919    1.2628    0.0000 C   0  0  0  0  0  0  0  0  0  0  0  0
   -1.7848    2.0710    0.0000 C   0  0  0  0  0  0  0  0  0  0  0  0
   -2.4919    0.8419    0.0000 C   0  0  0  0  0  0  0  0  0  0  0  0
    1.7679    2.4751    0.0000 C   0  0  0  0  0  0  0  0  0  0  0  0
    2.4919    2.0710    0.0000 C   0  0  0  0  0  0  0  0  0  0  0  0
   -2.5088    2.4751    0.0000 C   0  0  0  0  0  0  0  0  0  0  0  0
   -3.2159    1.2460    0.0000 C   0  0  0  0  0  0  0  0  0  0  0  0
    0.3536    2.4583    0.0000 C   0  0  0  0  0  0  0  0  0  0  0  0
   -1.0608   -1.6164    0.0000 C   0  0  0  0  0  0  0  0  0  0  0  0
   -1.0439   -2.4751    0.0000 C   0  0  0  0  0  0  0  0  0  0  0  0
  1 19  1  0  0  0  0
  1 20  1  0  0  0  0
  2  8  1  0  0  0  0
  2 15  1  0  0  0  0
  2 16  1  0  0  0  0
  3  7  1  0  0  0  0
  3 11  2  0  0  0  0
  4  8  2  0  0  0  0
  4 11  1  0  0  0  0
  5 11  1  0  0  0  0
  5 22  1  0  0  0  0
  6 14  1  0  0  0  0
  7  9  1  0  0  0  0
  7 10  2  0  0  0  0
  8 10  1  0  0  0  0
  9 12  1  0  0  0  0
  9 13  2  0  0  0  0
 12 17  2  0  0  0  0
 12 21  1  0  0  0  0
 13 14  1  0  0  0  0
 14 18  2  0  0  0  0
 15 19  1  0  0  0  0
 16 20  1  0  0  0  0
 17 18  1  0  0  0  0
 22 23  1  0  0  0  0
M  END
> <PUBCHEM_COMPOUND_ID_TYPE>
0

> <PUBCHEM_TOTAL_CHARGE>
0

> <PUBCHEM_SUBSTANCE_ID>
310943485

> <PUBCHEM_SUBSTANCE_VERSION>
1

> <PUBCHEM_EXT_DATASOURCE_NAME>
4488

> <PUBCHEM_EXT_DATASOURCE_REGID>
SCHEMBL16121550

> <PUBCHEM_SUBSTANCE_COMMENT>
InChI=1S/C17H23N5O/c1-3-19-17-20-15(14-10-13(18)5-4-12(14)2)11-16(21-17)22-6-8-23-9-7-22/h4-5,10-11H,3,6-9,18H2,1-2H3,(H,19,20,21)
InChIKey=AABUPJIQGWGVJK-UHFFFAOYSA-N

> <PUBCHEM_SUBSTANCE_SYNONYM>
SCHEMBL16121550

> <PUBCHEM_XREF_EXT_ID>
SCHEMBL16121550

> <PUBCHEM_EXT_DATASOURCE_URL>
https://www.surechembl.org/

> <PUBCHEM_EXT_SUBSTANCE_URL>
https://www.surechembl.org/chemical/SCHEMBL16121550

> <PUBCHEM_CID_ASSOCIATIONS>
117609907  1

> <PUBCHEM_COORDINATE_TYPE>
1
3

$$$$
