310944384
  -OEChem-07211613022D

 41 46  0     0  0  0  0  0  0999 V2000
    1.0834    2.8742    0.0000 F   0  0  0  0  0  0  0  0  0  0  0  0
   -0.3850   -0.4387    0.0000 N   0  0  0  0  0  0  0  0  0  0  0  0
   -1.1193    0.7969    0.0000 N   0  0  0  0  0  0  0  0  0  0  0  0
    1.0834   -1.2625    0.0000 N   0  0  0  0  0  0  0  0  0  0  0  0
    3.3040    2.4266    0.0000 N   0  0  0  0  0  0  0  0  0  0  0  0
    0.3313    0.8327    0.0000 C   0  0  0  0  0  0  0  0  0  0  0  0
    0.3492    1.6744    0.0000 C   0  0  0  0  0  0  0  0  0  0  0  0
    1.1014    0.4209    0.0000 C   0  0  0  0  0  0  0  0  0  0  0  0
    1.8177    0.8507    0.0000 C   0  0  0  0  0  0  0  0  0  0  0  0
    1.0834    2.0684    0.0000 C   0  0  0  0  0  0  0  0  0  0  0  0
    1.8356    1.6744    0.0000 C   0  0  0  0  0  0  0  0  0  0  0  0
   -0.4029    0.4029    0.0000 C   0  0  0  0  0  0  0  0  0  0  0  0
   -0.4029    2.0684    0.0000 C   0  0  0  0  0  0  0  0  0  0  0  0
    2.5877    0.4209    0.0000 C   0  0  0  0  0  0  0  0  0  0  0  0
    1.0834   -0.4387    0.0000 C   0  0  0  0  0  0  0  0  0  0  0  0
   -1.1193   -0.8148    0.0000 C   0  0  0  0  0  0  0  0  0  0  0  0
   -1.8356    0.4209    0.0000 C   0  0  0  0  0  0  0  0  0  0  0  0
    2.5698    2.0684    0.0000 C   0  0  0  0  0  0  0  0  0  0  0  0
   -1.8356   -0.4209    0.0000 C   0  0  0  0  0  0  0  0  0  0  0  0
   -0.4029    2.8922    0.0000 C   0  0  0  0  0  0  0  0  0  0  0  0
   -1.1372    1.6744    0.0000 C   0  0  0  0  0  0  0  0  0  0  0  0
    2.5877   -0.4029    0.0000 C   0  0  0  0  0  0  0  0  0  0  0  0
    3.3040    0.8148    0.0000 C   0  0  0  0  0  0  0  0  0  0  0  0
   -1.1372   -1.6744    0.0000 C   0  0  0  0  0  0  0  0  0  0  0  0
   -2.5877    0.8148    0.0000 C   0  0  0  0  0  0  0  0  0  0  0  0
   -1.1551    3.2862    0.0000 C   0  0  0  0  0  0  0  0  0  0  0  0
   -1.8177    2.0505    0.0000 C   0  0  0  0  0  0  0  0  0  0  0  0
    3.3220   -0.8148    0.0000 C   0  0  0  0  0  0  0  0  0  0  0  0
    4.0383    0.4029    0.0000 C   0  0  0  0  0  0  0  0  0  0  0  0
   -1.8177   -2.0863    0.0000 C   0  0  0  0  0  0  0  0  0  0  0  0
   -0.3671   -2.0863    0.0000 C   0  0  0  0  0  0  0  0  0  0  0  0
   -2.6057    1.6386    0.0000 C   0  0  0  0  0  0  0  0  0  0  0  0
   -3.3220    0.4209    0.0000 C   0  0  0  0  0  0  0  0  0  0  0  0
   -1.8356    2.8742    0.0000 C   0  0  0  0  0  0  0  0  0  0  0  0
    4.0383   -0.4209    0.0000 C   0  0  0  0  0  0  0  0  0  0  0  0
   -1.7998   -2.9101    0.0000 C   0  0  0  0  0  0  0  0  0  0  0  0
   -0.3850   -2.8922    0.0000 C   0  0  0  0  0  0  0  0  0  0  0  0
   -3.3041    2.0326    0.0000 C   0  0  0  0  0  0  0  0  0  0  0  0
   -4.0383    0.8148    0.0000 C   0  0  0  0  0  0  0  0  0  0  0  0
   -1.0834   -3.2862    0.0000 C   0  0  0  0  0  0  0  0  0  0  0  0
   -4.0383    1.6386    0.0000 C   0  0  0  0  0  0  0  0  0  0  0  0
  1 10  1  0  0  0  0
  2 12  1  0  0  0  0
  2 16  2  0  0  0  0
  3 12  2  0  0  0  0
  3 17  1  0  0  0  0
  4 15  3  0  0  0  0
  5 18  3  0  0  0  0
  6  7  2  0  0  0  0
  6  8  1  0  0  0  0
  6 12  1  0  0  0  0
  7 10  1  0  0  0  0
  7 13  1  0  0  0  0
  8  9  2  0  0  0  0
  8 15  1  0  0  0  0
  9 11  1  0  0  0  0
  9 14  1  0  0  0  0
 10 11  2  0  0  0  0
 11 18  1  0  0  0  0
 13 20  2  0  0  0  0
 13 21  1  0  0  0  0
 14 22  2  0  0  0  0
 14 23  1  0  0  0  0
 16 19  1  0  0  0  0
 16 24  1  0  0  0  0
 17 19  2  0  0  0  0
 17 25  1  0  0  0  0
 20 26  1  0  0  0  0
 21 27  2  0  0  0  0
 22 28  1  0  0  0  0
 23 29  2  0  0  0  0
 24 30  2  0  0  0  0
 24 31  1  0  0  0  0
 25 32  2  0  0  0  0
 25 33  1  0  0  0  0
 26 34  2  0  0  0  0
 27 34  1  0  0  0  0
 28 35  2  0  0  0  0
 29 35  1  0  0  0  0
 30 36  1  0  0  0  0
 31 37  2  0  0  0  0
 32 38  1  0  0  0  0
 33 39  2  0  0  0  0
 36 40  2  0  0  0  0
 37 40  1  0  0  0  0
 38 41  2  0  0  0  0
 39 41  1  0  0  0  0
M  END
> <PUBCHEM_COMPOUND_ID_TYPE>
0

> <PUBCHEM_TOTAL_CHARGE>
0

> <PUBCHEM_SUBSTANCE_ID>
310944384

> <PUBCHEM_SUBSTANCE_VERSION>
1

> <PUBCHEM_EXT_DATASOURCE_NAME>
4488

> <PUBCHEM_EXT_DATASOURCE_REGID>
SCHEMBL16122459

> <PUBCHEM_SUBSTANCE_COMMENT>
InChI=1S/C36H21FN4/c37-35-29(23-39)32(26-17-9-3-10-18-26)28(22-38)34(33(35)27-19-11-4-12-20-27)36-40-30(24-13-5-1-6-14-24)21-31(41-36)25-15-7-2-8-16-25/h1-21H
InChIKey=NBKVHBFIAHGDPM-UHFFFAOYSA-N

> <PUBCHEM_SUBSTANCE_SYNONYM>
SCHEMBL16122459

> <PUBCHEM_XREF_EXT_ID>
SCHEMBL16122459

> <PUBCHEM_EXT_DATASOURCE_URL>
https://www.surechembl.org/

> <PUBCHEM_EXT_SUBSTANCE_URL>
https://www.surechembl.org/chemical/SCHEMBL16122459

> <PUBCHEM_CID_ASSOCIATIONS>
117610641  1

> <PUBCHEM_COORDINATE_TYPE>
1
3

$$$$
