310942923
  -OEChem-07211613022D

 32 35  0     0  0  0  0  0  0999 V2000
    2.9768    1.3475    0.0000 O   0  0  0  0  0  0  0  0  0  0  0  0
   -1.1206   -0.0825    0.0000 O   0  0  0  0  0  0  0  0  0  0  0  0
   -3.5956    1.3475    0.0000 O   0  0  0  0  0  0  0  0  0  0  0  0
    0.5156   -0.0825    0.0000 O   0  0  0  0  0  0  0  0  0  0  0  0
    1.7531   -0.7837    0.0000 N   0  0  0  0  0  0  0  0  0  0  0  0
   -3.5956   -0.0825    0.0000 N   0  0  0  0  0  0  0  0  0  0  0  0
    1.7393    0.6462    0.0000 N   0  0  0  0  0  0  0  0  0  0  0  0
   -2.3581    0.6325    0.0000 N   0  0  0  0  0  0  0  0  0  0  0  0
    3.7880   -0.2338    0.0000 N   0  0  0  0  0  0  0  0  0  0  0  0
   -2.0968   -1.5812    0.0000 N   0  0  0  0  0  0  0  0  0  0  0  0
    3.1281   -1.4025    0.0000 N   0  0  0  0  0  0  0  0  0  0  0  0
   -3.4168   -1.5812    0.0000 N   0  0  0  0  0  0  0  0  0  0  0  0
    2.9768   -0.0550    0.0000 C   0  0  0  0  0  0  0  0  0  0  0  0
   -2.3581   -0.7975    0.0000 C   0  0  0  0  0  0  0  0  0  0  0  0
    2.5780   -0.7975    0.0000 C   0  0  0  0  0  0  0  0  0  0  0  0
   -3.1830   -0.7975    0.0000 C   0  0  0  0  0  0  0  0  0  0  0  0
    2.5506    0.6325    0.0000 C   0  0  0  0  0  0  0  0  0  0  0  0
   -1.9731   -0.0688    0.0000 C   0  0  0  0  0  0  0  0  0  0  0  0
   -3.1830    0.6325    0.0000 C   0  0  0  0  0  0  0  0  0  0  0  0
    1.3544   -0.0688    0.0000 C   0  0  0  0  0  0  0  0  0  0  0  0
    3.8705   -1.0587    0.0000 C   0  0  0  0  0  0  0  0  0  0  0  0
   -2.7430   -2.0624    0.0000 C   0  0  0  0  0  0  0  0  0  0  0  0
    1.3268    1.3475    0.0000 C   0  0  0  0  0  0  0  0  0  0  0  0
   -1.9593    1.3475    0.0000 C   0  0  0  0  0  0  0  0  0  0  0  0
   -4.4205   -0.1100    0.0000 C   0  0  0  0  0  0  0  0  0  0  0  0
    1.3406   -1.5262    0.0000 C   0  0  0  0  0  0  0  0  0  0  0  0
    4.4205    0.3025    0.0000 C   0  0  0  0  0  0  0  0  0  0  0  0
   -1.2993   -1.8425    0.0000 C   0  0  0  0  0  0  0  0  0  0  0  0
    0.5019    1.3612    0.0000 C   0  0  0  0  0  0  0  0  0  0  0  0
   -1.1343    1.3475    0.0000 C   0  0  0  0  0  0  0  0  0  0  0  0
    0.1031    2.0624    0.0000 C   0  0  0  0  0  0  0  0  0  0  0  0
   -0.7219    2.0624    0.0000 C   0  0  0  0  0  0  0  0  0  0  0  0
  1 17  2  0  0  0  0
  2 18  2  0  0  0  0
  3 19  2  0  0  0  0
  4 20  2  0  0  0  0
  5 15  1  0  0  0  0
  5 20  1  0  0  0  0
  5 26  1  0  0  0  0
  6 16  1  0  0  0  0
  6 19  1  0  0  0  0
  6 25  1  0  0  0  0
  7 17  1  0  0  0  0
  7 20  1  0  0  0  0
  7 23  1  0  0  0  0
  8 18  1  0  0  0  0
  8 19  1  0  0  0  0
  8 24  1  0  0  0  0
  9 13  1  0  0  0  0
  9 21  1  0  0  0  0
  9 27  1  0  0  0  0
 10 14  1  0  0  0  0
 10 22  1  0  0  0  0
 10 28  1  0  0  0  0
 11 15  1  0  0  0  0
 11 21  2  0  0  0  0
 12 16  1  0  0  0  0
 12 22  2  0  0  0  0
 13 15  2  0  0  0  0
 13 17  1  0  0  0  0
 14 16  2  0  0  0  0
 14 18  1  0  0  0  0
 23 29  1  0  0  0  0
 24 30  1  0  0  0  0
 29 31  1  0  0  0  0
 30 32  1  0  0  0  0
 31 32  1  0  0  0  0
M  END
> <PUBCHEM_COMPOUND_ID_TYPE>
0

> <PUBCHEM_TOTAL_CHARGE>
0

> <PUBCHEM_SUBSTANCE_ID>
310942923

> <PUBCHEM_SUBSTANCE_VERSION>
1

> <PUBCHEM_EXT_DATASOURCE_NAME>
4488

> <PUBCHEM_EXT_DATASOURCE_REGID>
SCHEMBL16120981

> <PUBCHEM_SUBSTANCE_COMMENT>
InChI=1S/C20H26N8O4/c1-23-11-21-15-13(23)17(29)27(19(31)25(15)3)9-7-5-6-8-10-28-18(30)14-16(22-12-24(14)2)26(4)20(28)32/h11-12H,5-10H2,1-4H3
InChIKey=CUABWRHOZQULNL-UHFFFAOYSA-N

> <PUBCHEM_SUBSTANCE_SYNONYM>
SCHEMBL16120981

> <PUBCHEM_XREF_EXT_ID>
SCHEMBL16120981

> <PUBCHEM_EXT_DATASOURCE_URL>
https://www.surechembl.org/

> <PUBCHEM_EXT_SUBSTANCE_URL>
https://www.surechembl.org/chemical/SCHEMBL16120981

> <PUBCHEM_CID_ASSOCIATIONS>
117609396  1

> <PUBCHEM_COORDINATE_TYPE>
1
3

$$$$
