310947815
  -OEChem-07211613022D

 24 24  0     1  0  0  0  0  0999 V2000
    3.2082   -1.4959    0.0000 S   0  0  0  0  0  0  0  0  0  0  0  0
    2.3799   -1.4959    0.0000 O   0  0  0  0  0  0  0  0  0  0  0  0
   -0.4760   -1.4959    0.0000 O   0  0  0  0  0  0  0  0  0  0  0  0
   -0.4760    1.8050    0.0000 O   0  0  0  0  0  0  0  0  0  0  0  0
   -1.8977    0.9767    0.0000 O   0  0  0  0  0  0  0  0  0  0  0  0
    3.6161   -2.2130    0.0000 O   0  0  0  0  0  0  0  0  0  0  0  0
    3.6161   -0.7789    0.0000 O   0  0  0  0  0  0  0  0  0  0  0  0
    4.0242   -1.4959    0.0000 O   0  0  0  0  0  0  0  0  0  0  0  0
    0.2534   -0.2597    0.0000 N   0  0  0  0  0  0  0  0  0  0  0  0
    1.6875   -1.0756    0.0000 N   0  0  0  0  0  0  0  0  0  0  0  0
   -1.1683    0.5687    0.0000 N   0  0  0  0  0  0  0  0  0  0  0  0
   -4.0242    0.5687    0.0000 N   0  0  0  0  0  0  0  0  0  0  0  0
    0.2658    0.5687    0.0000 C   0  0  3  0  0  0  0  0  0  0  0  0
    0.2782   -1.0509    0.0000 C   0  0  0  0  0  0  0  0  0  0  0  0
   -0.5007    0.9519    0.0000 C   0  0  0  0  0  0  0  0  0  0  0  0
    0.9705   -0.6676    0.0000 C   0  0  0  0  0  0  0  0  0  0  0  0
    0.9581    0.9767    0.0000 C   0  0  0  0  0  0  0  0  0  0  0  0
    1.6628   -0.2720    0.0000 C   0  0  0  0  0  0  0  0  0  0  0  0
    1.6752    0.5687    0.0000 C   0  0  0  0  0  0  0  0  0  0  0  0
   -2.5900    0.5687    0.0000 C   0  0  0  0  0  0  0  0  0  0  0  0
   -3.3318    0.9890    0.0000 C   0  0  3  0  0  0  0  0  0  0  0  0
   -3.3071    1.8173    0.0000 C   0  0  0  0  0  0  0  0  0  0  0  0
   -4.0242    2.2130    0.0000 C   0  0  0  0  0  0  0  0  0  0  0  0
   -2.6024    2.2130    0.0000 C   0  0  0  0  0  0  0  0  0  0  0  0
  1  2  1  0  0  0  0
  1  6  2  0  0  0  0
  1  7  2  0  0  0  0
  1  8  1  0  0  0  0
  2 10  1  0  0  0  0
  3 14  2  0  0  0  0
  4 15  2  0  0  0  0
  5 11  1  0  0  0  0
  5 20  1  0  0  0  0
  9 13  1  0  0  0  0
  9 14  1  0  0  0  0
  9 16  1  0  0  0  0
 10 14  1  0  0  0  0
 11 15  1  0  0  0  0
 12 21  1  0  0  0  0
 13 15  1  6  0  0  0
 13 17  1  0  0  0  0
 16 18  1  0  0  0  0
 17 19  1  0  0  0  0
 18 19  1  0  0  0  0
 20 21  1  0  0  0  0
 21 22  1  0  0  0  0
 22 23  1  0  0  0  0
 22 24  1  0  0  0  0
M  END
> <PUBCHEM_COMPOUND_ID_TYPE>
0

> <PUBCHEM_TOTAL_CHARGE>
0

> <PUBCHEM_SUBSTANCE_ID>
310947815

> <PUBCHEM_SUBSTANCE_VERSION>
1

> <PUBCHEM_EXT_DATASOURCE_NAME>
4488

> <PUBCHEM_EXT_DATASOURCE_REGID>
SCHEMBL16125987

> <PUBCHEM_SUBSTANCE_COMMENT>
InChI=1S/C12H24N4O7S/c1-8(2)9(13)7-22-14-11(17)10-5-3-4-6-16(10)12(18)15-23-24(19,20)21/h8-10H,3-7,13H2,1-2H3,(H,14,17)(H,15,18)(H,19,20,21)/t9?,10-/m0/s1
InChIKey=HDVJGGPGAOCWHX-AXDSSHIGSA-N

> <PUBCHEM_SUBSTANCE_SYNONYM>
SCHEMBL16125987

> <PUBCHEM_XREF_EXT_ID>
SCHEMBL16125987

> <PUBCHEM_EXT_DATASOURCE_URL>
https://www.surechembl.org/

> <PUBCHEM_EXT_SUBSTANCE_URL>
https://www.surechembl.org/chemical/SCHEMBL16125987

> <PUBCHEM_CID_ASSOCIATIONS>
117613483  1

> <PUBCHEM_COORDINATE_TYPE>
1
3

> <PUBCHEM_BONDANNOTATIONS>
13  15  6

$$$$
