310947576
  -OEChem-07211613022D

 18 19  0     1  0  0  0  0  0999 V2000
    1.7060  -10.3962    0.0000 F   0  0  0  0  0  0  0  0  0  0  0  0
    2.5310   -8.4122    0.0000 O   0  0  0  0  0  0  0  0  0  0  0  0
    3.3560  -10.3962    0.0000 O   0  0  0  0  0  0  0  0  0  0  0  0
    0.4833   -8.5273    0.0000 O   0  0  0  0  0  0  0  0  0  0  0  0
    3.1984   -5.5971    0.0000 O   0  0  0  0  0  0  0  0  0  0  0  0
    3.1984   -8.0721    0.0000 N   0  0  0  0  0  0  0  0  0  0  0  0
    3.9129   -6.8346    0.0000 N   0  0  0  0  0  0  0  0  0  0  0  0
    2.9435   -9.6817    0.0000 C   0  0  3  0  0  0  0  0  0  0  0  0
    3.1984   -8.8971    0.0000 C   0  0  3  0  0  0  0  0  0  0  0  0
    2.1185   -9.6817    0.0000 C   0  0  3  0  0  0  0  0  0  0  0  0
    1.8636   -8.8971    0.0000 C   0  0  3  0  0  0  0  0  0  0  0  0
    3.9129   -7.6596    0.0000 C   0  0  0  0  0  0  0  0  0  0  0  0
    3.7404   -9.4682    0.0000 C   0  0  0  0  0  0  0  0  0  0  0  0
    2.4840   -7.6596    0.0000 C   0  0  0  0  0  0  0  0  0  0  0  0
    1.2802   -8.3137    0.0000 C   0  0  0  0  0  0  0  0  0  0  0  0
    3.1984   -6.4221    0.0000 C   0  0  0  0  0  0  0  0  0  0  0  0
    2.4840   -6.8346    0.0000 C   0  0  0  0  0  0  0  0  0  0  0  0
    4.6274   -8.0721    0.0000 C   0  0  0  0  0  0  0  0  0  0  0  0
 10  1  1  6  0  0  0
  9  2  1  6  0  0  0
  2 11  1  0  0  0  0
  8  3  1  6  0  0  0
  4 15  1  0  0  0  0
  5 16  2  0  0  0  0
  6  9  1  0  0  0  0
  6 12  1  0  0  0  0
  6 14  1  0  0  0  0
  7 12  1  0  0  0  0
  7 16  1  0  0  0  0
  8  9  1  0  0  0  0
  8 10  1  0  0  0  0
  8 13  1  1  0  0  0
 10 11  1  0  0  0  0
 11 15  1  1  0  0  0
 12 18  2  0  0  0  0
 14 17  2  0  0  0  0
 16 17  1  0  0  0  0
M  END
> <PUBCHEM_COMPOUND_ID_TYPE>
0

> <PUBCHEM_TOTAL_CHARGE>
0

> <PUBCHEM_SUBSTANCE_ID>
310947576

> <PUBCHEM_SUBSTANCE_VERSION>
1

> <PUBCHEM_EXT_DATASOURCE_NAME>
4488

> <PUBCHEM_EXT_DATASOURCE_REGID>
SCHEMBL16125739

> <PUBCHEM_SUBSTANCE_COMMENT>
InChI=1S/C11H15FN2O4/c1-6-13-8(16)3-4-14(6)10-11(2,17)9(12)7(5-15)18-10/h3-4,7,9-10,15,17H,1,5H2,2H3,(H,13,16)/t7-,9-,10-,11-/m1/s1
InChIKey=CWXDJNADZMRPJC-QCNRFFRDSA-N

> <PUBCHEM_SUBSTANCE_SYNONYM>
SCHEMBL16125739

> <PUBCHEM_XREF_EXT_ID>
SCHEMBL16125739

> <PUBCHEM_EXT_DATASOURCE_URL>
https://www.surechembl.org/

> <PUBCHEM_EXT_SUBSTANCE_URL>
https://www.surechembl.org/chemical/SCHEMBL16125739

> <PUBCHEM_CID_ASSOCIATIONS>
117613298  1

> <PUBCHEM_COORDINATE_TYPE>
1
3

> <PUBCHEM_BONDANNOTATIONS>
10  1  6
11  15  5
9  2  6
8  3  6
8  13  5

$$$$
