310948363
  -OEChem-07211613022D

 33 37  0     1  0  0  0  0  0999 V2000
    2.8750   -1.3925    0.0000 F   0  0  0  0  0  0  0  0  0  0  0  0
   -2.1546   -0.9076    0.0000 O   0  0  0  0  0  0  0  0  0  0  0  0
   -0.6305    1.4341    0.0000 N   0  0  0  0  0  0  0  0  0  0  0  0
   -0.1455    0.7552    0.0000 N   0  0  0  0  0  0  0  0  0  0  0  0
   -0.3810   -0.6997    0.0000 N   0  0  0  0  0  0  0  0  0  0  0  0
   -2.8750    0.3395    0.0000 N   0  0  0  0  0  0  0  0  0  0  0  0
    1.5449    1.1569    0.0000 N   0  0  0  0  0  0  0  0  0  0  0  0
   -1.4341    0.3533    0.0000 C   0  0  0  0  0  0  0  0  0  0  0  0
   -1.4202    1.1846    0.0000 C   0  0  0  0  0  0  0  0  0  0  0  0
   -0.6443    0.0762    0.0000 C   0  0  0  0  0  0  0  0  0  0  0  0
   -2.1407   -0.0623    0.0000 C   0  0  0  0  0  0  0  0  0  0  0  0
   -0.3672    2.2377    0.0000 C   0  0  3  0  0  0  0  0  0  0  0  0
   -2.1684    1.5865    0.0000 C   0  0  0  0  0  0  0  0  0  0  0  0
    0.4365    2.4040    0.0000 C   0  0  3  0  0  0  0  0  0  0  0  0
   -2.8612    1.1846    0.0000 C   0  0  0  0  0  0  0  0  0  0  0  0
   -0.9214    2.8335    0.0000 C   0  0  0  0  0  0  0  0  0  0  0  0
    0.4365   -0.8799    0.0000 C   0  0  0  0  0  0  0  0  0  0  0  0
    0.6859    3.1937    0.0000 C   0  0  0  0  0  0  0  0  0  0  0  0
    0.9768    1.7805    0.0000 C   0  0  0  0  0  0  0  0  0  0  0  0
   -0.6720    3.6233    0.0000 C   0  0  0  0  0  0  0  0  0  0  0  0
   -1.4202   -1.3094    0.0000 C   0  0  0  0  0  0  0  0  0  0  0  0
    0.1316    3.7895    0.0000 C   0  0  0  0  0  0  0  0  0  0  0  0
    0.6997   -1.6558    0.0000 C   0  0  0  0  0  0  0  0  0  0  0  0
    0.9907   -0.2702    0.0000 C   0  0  0  0  0  0  0  0  0  0  0  0
   -1.4341   -2.1407    0.0000 C   0  0  0  0  0  0  0  0  0  0  0  0
    1.5172   -1.8220    0.0000 C   0  0  0  0  0  0  0  0  0  0  0  0
    1.8082   -0.4365    0.0000 C   0  0  0  0  0  0  0  0  0  0  0  0
    2.0576   -1.2124    0.0000 C   0  0  0  0  0  0  0  0  0  0  0  0
   -2.1407   -2.5564    0.0000 C   0  0  0  0  0  0  0  0  0  0  0  0
   -0.7136   -2.5564    0.0000 C   0  0  0  0  0  0  0  0  0  0  0  0
   -2.1407   -3.3877    0.0000 C   0  0  0  0  0  0  0  0  0  0  0  0
   -0.7136   -3.3739    0.0000 C   0  0  0  0  0  0  0  0  0  0  0  0
   -1.4202   -3.7895    0.0000 C   0  0  0  0  0  0  0  0  0  0  0  0
  1 28  1  0  0  0  0
  2 11  1  0  0  0  0
  2 21  1  0  0  0  0
  3  4  1  0  0  0  0
  3  9  1  0  0  0  0
 12  3  1  1  0  0  0
  4 10  2  0  0  0  0
  5 10  1  0  0  0  0
  5 17  1  0  0  0  0
  6 11  2  0  0  0  0
  6 15  1  0  0  0  0
  7 19  3  0  0  0  0
  8  9  2  0  0  0  0
  8 10  1  0  0  0  0
  8 11  1  0  0  0  0
  9 13  1  0  0  0  0
 12 14  1  0  0  0  0
 12 16  1  0  0  0  0
 13 15  2  0  0  0  0
 14 18  1  0  0  0  0
 14 19  1  1  0  0  0
 16 20  1  0  0  0  0
 17 23  2  0  0  0  0
 17 24  1  0  0  0  0
 18 22  1  0  0  0  0
 20 22  1  0  0  0  0
 21 25  1  0  0  0  0
 23 26  1  0  0  0  0
 24 27  2  0  0  0  0
 25 29  2  0  0  0  0
 25 30  1  0  0  0  0
 26 28  2  0  0  0  0
 27 28  1  0  0  0  0
 29 31  1  0  0  0  0
 30 32  2  0  0  0  0
 31 33  2  0  0  0  0
 32 33  1  0  0  0  0
M  END
> <PUBCHEM_COMPOUND_ID_TYPE>
0

> <PUBCHEM_TOTAL_CHARGE>
0

> <PUBCHEM_SUBSTANCE_ID>
310948363

> <PUBCHEM_SUBSTANCE_VERSION>
1

> <PUBCHEM_EXT_DATASOURCE_NAME>
4488

> <PUBCHEM_EXT_DATASOURCE_REGID>
SCHEMBL16126543

> <PUBCHEM_SUBSTANCE_COMMENT>
InChI=1S/C26H24FN5O/c27-20-10-12-21(13-11-20)30-25-24-23(32(31-25)22-9-5-4-8-19(22)16-28)14-15-29-26(24)33-17-18-6-2-1-3-7-18/h1-3,6-7,10-15,19,22H,4-5,8-9,17H2,(H,30,31)/t19-,22-/m0/s1
InChIKey=RGZNUSLORJTJNH-UGKGYDQZSA-N

> <PUBCHEM_SUBSTANCE_SYNONYM>
SCHEMBL16126543

> <PUBCHEM_XREF_EXT_ID>
SCHEMBL16126543

> <PUBCHEM_EXT_DATASOURCE_URL>
https://www.surechembl.org/

> <PUBCHEM_EXT_SUBSTANCE_URL>
https://www.surechembl.org/chemical/SCHEMBL16126543

> <PUBCHEM_CID_ASSOCIATIONS>
117613927  1

> <PUBCHEM_COORDINATE_TYPE>
1
3

> <PUBCHEM_BONDANNOTATIONS>
14  19  5
12  3  5

$$$$
