310940635
  -OEChem-07211613022D

 17 18  0     1  0  0  0  0  0999 V2000
    1.4924   -2.0093    0.0000 O   0  0  0  0  0  0  0  0  0  0  0  0
    1.5758   -0.5419    0.0000 O   0  0  0  0  0  0  0  0  0  0  0  0
   -0.5586   -2.5596    0.0000 O   0  0  0  0  0  0  0  0  0  0  0  0
    0.3418   -1.3256    0.0000 N   0  0  0  0  0  0  0  0  0  0  0  0
   -1.5758    2.5763    0.0000 N   0  0  0  0  0  0  0  0  0  0  0  0
   -0.2418   -0.7587    0.0000 C   0  0  3  0  0  0  0  0  0  0  0  0
    1.1255   -1.2757    0.0000 C   0  0  0  0  0  0  0  0  0  0  0  0
    0.1584   -2.1427    0.0000 C   0  0  0  0  0  0  0  0  0  0  0  0
   -0.0417    0.0417    0.0000 C   0  0  0  0  0  0  0  0  0  0  0  0
    0.8587   -2.5763    0.0000 C   0  0  0  0  0  0  0  0  0  0  0  0
   -0.5919    0.5919    0.0000 C   0  0  0  0  0  0  0  0  0  0  0  0
    0.7587    0.2585    0.0000 C   0  0  0  0  0  0  0  0  0  0  0  0
   -0.3919    1.3923    0.0000 C   0  0  0  0  0  0  0  0  0  0  0  0
   -0.9421   -0.9588    0.0000 C   0  0  0  0  0  0  0  0  0  0  0  0
    0.9755    1.0422    0.0000 C   0  0  0  0  0  0  0  0  0  0  0  0
    0.4085    1.5925    0.0000 C   0  0  0  0  0  0  0  0  0  0  0  0
   -0.9755    1.9759    0.0000 C   0  0  0  0  0  0  0  0  0  0  0  0
  1  7  1  0  0  0  0
  1 10  1  0  0  0  0
  2  7  2  0  0  0  0
  3  8  2  0  0  0  0
  4  6  1  0  0  0  0
  4  7  1  0  0  0  0
  4  8  1  0  0  0  0
  5 17  3  0  0  0  0
  6  9  1  0  0  0  0
  6 14  1  6  0  0  0
  8 10  1  0  0  0  0
  9 11  2  0  0  0  0
  9 12  1  0  0  0  0
 11 13  1  0  0  0  0
 12 15  2  0  0  0  0
 13 16  2  0  0  0  0
 13 17  1  0  0  0  0
 15 16  1  0  0  0  0
M  END
> <PUBCHEM_COMPOUND_ID_TYPE>
0

> <PUBCHEM_TOTAL_CHARGE>
0

> <PUBCHEM_SUBSTANCE_ID>
310940635

> <PUBCHEM_SUBSTANCE_VERSION>
1

> <PUBCHEM_EXT_DATASOURCE_NAME>
4488

> <PUBCHEM_EXT_DATASOURCE_REGID>
SCHEMBL16118590

> <PUBCHEM_SUBSTANCE_COMMENT>
InChI=1S/C12H10N2O3/c1-8(14-11(15)7-17-12(14)16)10-4-2-3-9(5-10)6-13/h2-5,8H,7H2,1H3/t8-/m1/s1
InChIKey=QILHVIDAJOKFRR-MRVPVSSYSA-N

> <PUBCHEM_SUBSTANCE_SYNONYM>
SCHEMBL16118590

> <PUBCHEM_XREF_EXT_ID>
SCHEMBL16118590

> <PUBCHEM_EXT_DATASOURCE_URL>
https://www.surechembl.org/

> <PUBCHEM_EXT_SUBSTANCE_URL>
https://www.surechembl.org/chemical/SCHEMBL16118590

> <PUBCHEM_CID_ASSOCIATIONS>
117607615  1

> <PUBCHEM_COORDINATE_TYPE>
1
3

> <PUBCHEM_BONDANNOTATIONS>
6  14  6

$$$$
