310929007
  -OEChem-07211613022D

 29 31  0     0  0  0  0  0  0999 V2000
   -2.1434   -0.6187    0.0000 O   0  0  0  0  0  0  0  0  0  0  0  0
   -2.1434    1.8563    0.0000 O   0  0  0  0  0  0  0  0  0  0  0  0
   -0.7145    1.0313    0.0000 O   0  0  0  0  0  0  0  0  0  0  0  0
   -3.5724    1.8563    0.0000 O   0  0  0  0  0  0  0  0  0  0  0  0
    1.4289   -0.2062    0.0000 O   0  0  0  0  0  0  0  0  0  0  0  0
   -5.0013   -0.6188    0.0000 O   0  0  0  0  0  0  0  0  0  0  0  0
    1.4289   -1.8563    0.0000 O   0  0  0  0  0  0  0  0  0  0  0  0
    2.1434   -1.4438    0.0000 O   0  0  0  0  0  0  0  0  0  0  0  0
    4.2868    0.6187    0.0000 O   0  0  0  0  0  0  0  0  0  0  0  0
    5.0013   -0.6188    0.0000 O   0  0  0  0  0  0  0  0  0  0  0  0
    2.8579   -0.2062    0.0000 N   0  0  0  0  0  0  0  0  0  0  0  0
   -2.8579    0.6188    0.0000 C   0  0  0  0  0  0  0  0  0  0  0  0
   -1.4289   -0.2062    0.0000 C   0  0  0  0  0  0  0  0  0  0  0  0
   -2.8579   -0.2062    0.0000 C   0  0  0  0  0  0  0  0  0  0  0  0
   -2.1434    1.0313    0.0000 C   0  0  0  0  0  0  0  0  0  0  0  0
   -1.4289    0.6188    0.0000 C   0  0  0  0  0  0  0  0  0  0  0  0
   -0.7145   -0.6187    0.0000 C   0  0  0  0  0  0  0  0  0  0  0  0
   -3.5724    1.0313    0.0000 C   0  0  0  0  0  0  0  0  0  0  0  0
   -3.5724   -0.6188    0.0000 C   0  0  0  0  0  0  0  0  0  0  0  0
   -4.2868   -0.2062    0.0000 C   0  0  0  0  0  0  0  0  0  0  0  0
   -0.0000   -0.2062    0.0000 C   0  0  0  0  0  0  0  0  0  0  0  0
   -4.2868    0.6187    0.0000 C   0  0  0  0  0  0  0  0  0  0  0  0
    0.7145   -0.6188    0.0000 C   0  0  0  0  0  0  0  0  0  0  0  0
   -0.7145   -1.4438    0.0000 C   0  0  0  0  0  0  0  0  0  0  0  0
    0.7145   -1.4438    0.0000 C   0  0  0  0  0  0  0  0  0  0  0  0
   -0.0000   -1.8563    0.0000 C   0  0  0  0  0  0  0  0  0  0  0  0
    2.1434   -0.6188    0.0000 C   0  0  0  0  0  0  0  0  0  0  0  0
    3.5724   -0.6188    0.0000 C   0  0  0  0  0  0  0  0  0  0  0  0
    4.2868   -0.2062    0.0000 C   0  0  0  0  0  0  0  0  0  0  0  0
  1 13  1  0  0  0  0
  1 14  1  0  0  0  0
  2 15  2  0  0  0  0
  3 16  1  0  0  0  0
  4 18  1  0  0  0  0
  5 23  1  0  0  0  0
  5 27  1  0  0  0  0
  6 20  1  0  0  0  0
  7 25  1  0  0  0  0
  8 27  2  0  0  0  0
  9 29  2  0  0  0  0
 10 29  1  0  0  0  0
 11 27  1  0  0  0  0
 11 28  1  0  0  0  0
 12 14  2  0  0  0  0
 12 15  1  0  0  0  0
 12 18  1  0  0  0  0
 13 16  2  0  0  0  0
 13 17  1  0  0  0  0
 14 19  1  0  0  0  0
 15 16  1  0  0  0  0
 17 21  1  0  0  0  0
 17 24  2  0  0  0  0
 18 22  2  0  0  0  0
 19 20  2  0  0  0  0
 20 22  1  0  0  0  0
 21 23  2  0  0  0  0
 23 25  1  0  0  0  0
 24 26  1  0  0  0  0
 25 26  2  0  0  0  0
 28 29  1  0  0  0  0
M  END
> <PUBCHEM_COMPOUND_ID_TYPE>
0

> <PUBCHEM_TOTAL_CHARGE>
0

> <PUBCHEM_SUBSTANCE_ID>
310929007

> <PUBCHEM_SUBSTANCE_VERSION>
1

> <PUBCHEM_EXT_DATASOURCE_NAME>
11752

> <PUBCHEM_EXT_DATASOURCE_REGID>
BD328144

> <PUBCHEM_SUBSTANCE_SYNONYM>
2-(((2-Hydroxy-5-(3,5,7-trihydroxy-4-oxo-4H-chromen-2-yl)phenoxy)carbonyl)amino)acetic acid
201280-73-1

> <PUBCHEM_GENERIC_REGISTRY_NAME>
201280-73-1

> <PUBCHEM_XREF_EXT_ID>
BD328144

> <PUBCHEM_EXT_DATASOURCE_URL>
http://www.bidepharmatech.com/en/index.html

> <PUBCHEM_EXT_SUBSTANCE_URL>
http://www.bidepharmatech.com/en/goodsview_goodscode_BD328144.html

> <PUBCHEM_CID_ASSOCIATIONS>
9844095  1

> <PUBCHEM_COORDINATE_TYPE>
1
3

$$$$
