310940757
  -OEChem-07211613022D

 27 29  0     1  0  0  0  0  0999 V2000
    2.5102    1.1663    0.0000 O   0  0  0  0  0  0  0  0  0  0  0  0
    1.0738   -0.5120    0.0000 O   0  0  0  0  0  0  0  0  0  0  0  0
   -1.0738    1.5787    0.0000 O   0  0  0  0  0  0  0  0  0  0  0  0
    1.0738   -2.1760    0.0000 O   0  0  0  0  0  0  0  0  0  0  0  0
   -0.3626    0.3271    0.0000 N   0  0  0  0  0  0  0  0  0  0  0  0
   -2.5102    0.7396    0.0000 N   0  0  0  0  0  0  0  0  0  0  0  0
    1.7849    0.7396    0.0000 C   0  0  3  0  0  0  0  0  0  0  0  0
    1.0880    0.3556    0.0000 C   0  0  0  0  0  0  0  0  0  0  0  0
    2.5102    0.3414    0.0000 C   0  0  0  0  0  0  0  0  0  0  0  0
    0.3626    0.7538    0.0000 C   0  0  3  0  0  0  0  0  0  0  0  0
    1.2160    1.3227    0.0000 C   0  0  0  0  0  0  0  0  0  0  0  0
    0.3769    1.5787    0.0000 C   0  0  0  0  0  0  0  0  0  0  0  0
   -1.0880    0.7254    0.0000 C   0  0  0  0  0  0  0  0  0  0  0  0
    1.0738    1.9911    0.0000 C   0  0  0  0  0  0  0  0  0  0  0  0
   -1.7707    0.3271    0.0000 C   0  0  3  0  0  0  0  0  0  0  0  0
   -1.7991   -0.5262    0.0000 C   0  0  0  0  0  0  0  0  0  0  0  0
   -1.0738   -0.9245    0.0000 C   0  0  0  0  0  0  0  0  0  0  0  0
    1.1733    2.8303    0.0000 C   0  0  0  0  0  0  0  0  0  0  0  0
    1.8418    1.6640    0.0000 C   0  0  0  0  0  0  0  0  0  0  0  0
   -1.0738   -1.7493    0.0000 C   0  0  0  0  0  0  0  0  0  0  0  0
   -0.3626   -0.5262    0.0000 C   0  0  0  0  0  0  0  0  0  0  0  0
    0.3485   -1.7493    0.0000 C   0  0  0  0  0  0  0  0  0  0  0  0
    1.9840    2.9867    0.0000 C   0  0  0  0  0  0  0  0  0  0  0  0
    2.3823    2.2614    0.0000 C   0  0  0  0  0  0  0  0  0  0  0  0
   -0.3485   -2.1619    0.0000 C   0  0  0  0  0  0  0  0  0  0  0  0
    0.3485   -0.9245    0.0000 C   0  0  0  0  0  0  0  0  0  0  0  0
    1.0738   -2.9867    0.0000 C   0  0  0  0  0  0  0  0  0  0  0  0
  1  7  1  0  0  0  0
  1  9  1  0  0  0  0
  2  8  2  0  0  0  0
  3 13  2  0  0  0  0
  4 22  1  0  0  0  0
  4 27  1  0  0  0  0
 10  5  1  1  0  0  0
  5 13  1  0  0  0  0
 15  6  1  6  0  0  0
  7  8  1  6  0  0  0
  7  9  1  0  0  0  0
  7 11  1  1  0  0  0
  8 10  1  0  0  0  0
 10 12  1  0  0  0  0
 12 14  1  0  0  0  0
 13 15  1  0  0  0  0
 14 18  2  0  0  0  0
 14 19  1  0  0  0  0
 15 16  1  0  0  0  0
 16 17  1  0  0  0  0
 17 20  2  0  0  0  0
 17 21  1  0  0  0  0
 18 23  1  0  0  0  0
 19 24  1  0  0  0  0
 20 25  1  0  0  0  0
 21 26  2  0  0  0  0
 22 25  2  0  0  0  0
 22 26  1  0  0  0  0
 23 24  1  0  0  0  0
M  END
> <PUBCHEM_COMPOUND_ID_TYPE>
0

> <PUBCHEM_TOTAL_CHARGE>
0

> <PUBCHEM_SUBSTANCE_ID>
310940757

> <PUBCHEM_SUBSTANCE_VERSION>
1

> <PUBCHEM_EXT_DATASOURCE_NAME>
4488

> <PUBCHEM_EXT_DATASOURCE_REGID>
SCHEMBL16118716

> <PUBCHEM_SUBSTANCE_COMMENT>
InChI=1S/C21H28N2O4/c1-21(13-27-21)19(24)18(12-14-5-3-4-6-14)23-20(25)17(22)11-15-7-9-16(26-2)10-8-15/h5,7-10,17-18H,3-4,6,11-13,22H2,1-2H3,(H,23,25)/t17-,18-,21+/m0/s1
InChIKey=OXGWJFOKRZQBLD-BBTUJRGHSA-N

> <PUBCHEM_SUBSTANCE_SYNONYM>
SCHEMBL16118716

> <PUBCHEM_XREF_EXT_ID>
SCHEMBL16118716

> <PUBCHEM_EXT_DATASOURCE_URL>
https://www.surechembl.org/

> <PUBCHEM_EXT_SUBSTANCE_URL>
https://www.surechembl.org/chemical/SCHEMBL16118716

> <PUBCHEM_CID_ASSOCIATIONS>
117607712  1

> <PUBCHEM_COORDINATE_TYPE>
1
3

> <PUBCHEM_BONDANNOTATIONS>
10  5  5
15  6  6
7  11  5
7  8  6

$$$$
