310948658
  -OEChem-07211613022D

 19 19  0     1  0  0  0  0  0999 V2000
   -3.0749    0.0000    0.0000 Br  0  0  0  0  0  0  0  0  0  0  0  0
    1.6124    0.0000    0.0000 S   0  0  3  0  0  0  0  0  0  0  0  0
   -0.6750    0.8437    0.0000 F   0  0  0  0  0  0  0  0  0  0  0  0
    0.1500    1.6687    0.0000 F   0  0  0  0  0  0  0  0  0  0  0  0
    0.9750    0.8437    0.0000 F   0  0  0  0  0  0  0  0  0  0  0  0
    1.6124    0.8437    0.0000 O   0  0  0  0  0  0  0  0  0  0  0  0
    0.8812   -0.4125    0.0000 N   0  0  0  0  0  0  0  0  0  0  0  0
    0.1500    0.0000    0.0000 C   0  0  3  0  0  0  0  0  0  0  0  0
    0.1500    0.8437    0.0000 C   0  0  0  0  0  0  0  0  0  0  0  0
   -0.5624   -0.4125    0.0000 C   0  0  0  0  0  0  0  0  0  0  0  0
    2.3811   -0.4312    0.0000 C   0  0  0  0  0  0  0  0  0  0  0  0
   -1.3312    0.0000    0.0000 C   0  0  0  0  0  0  0  0  0  0  0  0
   -0.5812   -1.2562    0.0000 C   0  0  0  0  0  0  0  0  0  0  0  0
   -2.0250   -0.4125    0.0000 C   0  0  0  0  0  0  0  0  0  0  0  0
   -1.2937   -1.6687    0.0000 C   0  0  0  0  0  0  0  0  0  0  0  0
   -2.0062   -1.2562    0.0000 C   0  0  0  0  0  0  0  0  0  0  0  0
    3.0749    0.0000    0.0000 C   0  0  0  0  0  0  0  0  0  0  0  0
    3.0749   -0.8437    0.0000 C   0  0  0  0  0  0  0  0  0  0  0  0
    2.3436   -1.2750    0.0000 C   0  0  0  0  0  0  0  0  0  0  0  0
  1 14  1  0  0  0  0
  2  6  2  0  0  0  0
  2  7  1  1  0  0  0
  2 11  1  0  0  0  0
  3  9  1  0  0  0  0
  4  9  1  0  0  0  0
  5  9  1  0  0  0  0
  8  7  1  6  0  0  0
  8  9  1  0  0  0  0
  8 10  1  0  0  0  0
 10 12  2  0  0  0  0
 10 13  1  0  0  0  0
 11 17  1  0  0  0  0
 11 18  1  0  0  0  0
 11 19  1  0  0  0  0
 12 14  1  0  0  0  0
 13 15  2  0  0  0  0
 14 16  2  0  0  0  0
 15 16  1  0  0  0  0
M  END
> <PUBCHEM_COMPOUND_ID_TYPE>
0

> <PUBCHEM_TOTAL_CHARGE>
0

> <PUBCHEM_SUBSTANCE_ID>
310948658

> <PUBCHEM_SUBSTANCE_VERSION>
1

> <PUBCHEM_EXT_DATASOURCE_NAME>
4488

> <PUBCHEM_EXT_DATASOURCE_REGID>
SCHEMBL16126842

> <PUBCHEM_SUBSTANCE_COMMENT>
InChI=1S/C12H15BrF3NOS/c1-11(2,3)19(18)17-10(12(14,15)16)8-5-4-6-9(13)7-8/h4-7,10,17H,1-3H3/t10-,19+/m1/s1
InChIKey=UHAAKYKJYRORBT-DGIBIBHMSA-N

> <PUBCHEM_SUBSTANCE_SYNONYM>
SCHEMBL16126842

> <PUBCHEM_XREF_EXT_ID>
SCHEMBL16126842

> <PUBCHEM_EXT_DATASOURCE_URL>
https://www.surechembl.org/

> <PUBCHEM_EXT_SUBSTANCE_URL>
https://www.surechembl.org/chemical/SCHEMBL16126842

> <PUBCHEM_CID_ASSOCIATIONS>
117614200  1

> <PUBCHEM_COORDINATE_TYPE>
1
3

> <PUBCHEM_BONDANNOTATIONS>
2  7  5
8  7  6

$$$$
