310943318
  -OEChem-07211613022D

 37 40  0     0  0  0  0  0  0999 V2000
   -3.2039   -0.0087    0.0000 O   0  0  0  0  0  0  0  0  0  0  0  0
   -4.6453    2.4572    0.0000 O   0  0  0  0  0  0  0  0  0  0  0  0
    1.0853   -0.0087    0.0000 O   0  0  0  0  0  0  0  0  0  0  0  0
   -3.2039    1.6411    0.0000 N   0  0  0  0  0  0  0  0  0  0  0  0
   -1.7800   -0.0087    0.0000 N   0  0  0  0  0  0  0  0  0  0  0  0
    0.3560    2.8740    0.0000 N   0  0  0  0  0  0  0  0  0  0  0  0
    1.7973    1.2243    0.0000 N   0  0  0  0  0  0  0  0  0  0  0  0
    3.2213    0.4081    0.0000 N   0  0  0  0  0  0  0  0  0  0  0  0
    4.6453   -2.8914    0.0000 N   0  0  0  0  0  0  0  0  0  0  0  0
   -1.0506    1.2243    0.0000 C   0  0  0  0  0  0  0  0  0  0  0  0
   -0.3560    1.6411    0.0000 C   0  0  0  0  0  0  0  0  0  0  0  0
   -2.4919    1.2243    0.0000 C   0  0  0  0  0  0  0  0  0  0  0  0
   -2.5093    0.4081    0.0000 C   0  0  0  0  0  0  0  0  0  0  0  0
   -1.7973    1.6237    0.0000 C   0  0  0  0  0  0  0  0  0  0  0  0
   -0.3386    2.4746    0.0000 C   0  0  0  0  0  0  0  0  0  0  0  0
    0.3734    1.2243    0.0000 C   0  0  0  0  0  0  0  0  0  0  0  0
   -1.0680    0.3907    0.0000 C   0  0  0  0  0  0  0  0  0  0  0  0
    1.0853    1.6411    0.0000 C   0  0  0  0  0  0  0  0  0  0  0  0
    2.5093   -0.0087    0.0000 C   0  0  0  0  0  0  0  0  0  0  0  0
    3.2387   -1.2416    0.0000 C   0  0  0  0  0  0  0  0  0  0  0  0
    1.7973    0.4254    0.0000 C   0  0  0  0  0  0  0  0  0  0  0  0
    3.2039   -2.0751    0.0000 C   0  0  0  0  0  0  0  0  0  0  0  0
    1.0853    2.4572    0.0000 C   0  0  0  0  0  0  0  0  0  0  0  0
    2.5093   -0.8249    0.0000 C   0  0  0  0  0  0  0  0  0  0  0  0
   -3.2039    2.4572    0.0000 C   0  0  0  0  0  0  0  0  0  0  0  0
   -3.9159    1.2243    0.0000 C   0  0  0  0  0  0  0  0  0  0  0  0
    3.9333   -0.8249    0.0000 C   0  0  0  0  0  0  0  0  0  0  0  0
   -1.0506    2.8914    0.0000 C   0  0  0  0  0  0  0  0  0  0  0  0
   -3.2039   -0.8249    0.0000 C   0  0  0  0  0  0  0  0  0  0  0  0
    3.9507   -0.0087    0.0000 C   0  0  0  0  0  0  0  0  0  0  0  0
   -3.9507    2.8566    0.0000 C   0  0  0  0  0  0  0  0  0  0  0  0
   -4.6279    1.6237    0.0000 C   0  0  0  0  0  0  0  0  0  0  0  0
    3.9333   -2.4919    0.0000 C   0  0  0  0  0  0  0  0  0  0  0  0
    2.3877   -2.0751    0.0000 C   0  0  0  0  0  0  0  0  0  0  0  0
    2.8219   -2.8045    0.0000 C   0  0  0  0  0  0  0  0  0  0  0  0
   -3.9159   -1.2590    0.0000 C   0  0  0  0  0  0  0  0  0  0  0  0
   -2.4746   -1.2416    0.0000 C   0  0  0  0  0  0  0  0  0  0  0  0
  1 13  1  0  0  0  0
  1 29  1  0  0  0  0
  2 31  1  0  0  0  0
  2 32  1  0  0  0  0
  3 21  2  0  0  0  0
  4 12  1  0  0  0  0
  4 25  1  0  0  0  0
  4 26  1  0  0  0  0
  5 13  2  0  0  0  0
  5 17  1  0  0  0  0
  6 15  1  0  0  0  0
  6 23  2  0  0  0  0
  7 18  1  0  0  0  0
  7 21  1  0  0  0  0
  8 19  1  0  0  0  0
  8 30  2  0  0  0  0
  9 33  3  0  0  0  0
 10 11  1  0  0  0  0
 10 14  1  0  0  0  0
 10 17  2  0  0  0  0
 11 15  2  0  0  0  0
 11 16  1  0  0  0  0
 12 13  1  0  0  0  0
 12 14  2  0  0  0  0
 15 28  1  0  0  0  0
 16 18  2  0  0  0  0
 18 23  1  0  0  0  0
 19 21  1  0  0  0  0
 19 24  2  0  0  0  0
 20 22  1  0  0  0  0
 20 24  1  0  0  0  0
 20 27  2  0  0  0  0
 22 33  1  0  0  0  0
 22 34  1  0  0  0  0
 22 35  1  0  0  0  0
 25 31  1  0  0  0  0
 26 32  1  0  0  0  0
 27 30  1  0  0  0  0
 29 36  1  0  0  0  0
 29 37  1  0  0  0  0
M  END
> <PUBCHEM_COMPOUND_ID_TYPE>
0

> <PUBCHEM_TOTAL_CHARGE>
0

> <PUBCHEM_SUBSTANCE_ID>
310943318

> <PUBCHEM_SUBSTANCE_VERSION>
1

> <PUBCHEM_EXT_DATASOURCE_NAME>
4488

> <PUBCHEM_EXT_DATASOURCE_REGID>
SCHEMBL16121380

> <PUBCHEM_SUBSTANCE_COMMENT>
InChI=1S/C28H32N6O3/c1-18(2)37-27-25(34-8-10-36-11-9-34)12-20(15-32-27)23-14-22(16-31-19(23)3)33-26(35)24-13-21(6-7-30-24)28(4,5)17-29/h6-7,12-16,18H,8-11H2,1-5H3,(H,33,35)
InChIKey=CPMMCXWMKJDSBY-UHFFFAOYSA-N

> <PUBCHEM_SUBSTANCE_SYNONYM>
SCHEMBL16121380

> <PUBCHEM_XREF_EXT_ID>
SCHEMBL16121380

> <PUBCHEM_EXT_DATASOURCE_URL>
https://www.surechembl.org/

> <PUBCHEM_EXT_SUBSTANCE_URL>
https://www.surechembl.org/chemical/SCHEMBL16121380

> <PUBCHEM_CID_ASSOCIATIONS>
117609743  1

> <PUBCHEM_COORDINATE_TYPE>
1
3

$$$$
