310945363
  -OEChem-07211613022D

 31 34  0     1  0  0  0  0  0999 V2000
    2.0906   -2.4843    0.0000 S   0  0  0  0  0  0  0  0  0  0  0  0
   -4.5094    0.2343    0.0000 F   0  0  0  0  0  0  0  0  0  0  0  0
    3.7781   -2.5594    0.0000 O   0  0  0  0  0  0  0  0  0  0  0  0
   -0.8906   -0.1781    0.0000 O   0  0  0  0  0  0  0  0  0  0  0  0
   -1.6031    1.0593    0.0000 O   0  0  0  0  0  0  0  0  0  0  0  0
    2.3156   -0.3094    0.0000 N   0  0  0  0  0  0  0  0  0  0  0  0
    3.9844   -1.1906    0.0000 N   0  0  0  0  0  0  0  0  0  0  0  0
   -1.6031   -1.3968    0.0000 N   0  0  0  0  0  0  0  0  0  0  0  0
   -3.0656    1.0593    0.0000 N   0  0  0  0  0  0  0  0  0  0  0  0
    1.3031   -1.3968    0.0000 C   0  0  0  0  0  0  0  0  0  0  0  0
    2.0719   -1.1531    0.0000 C   0  0  0  0  0  0  0  0  0  0  0  0
    2.5781   -1.7906    0.0000 C   0  0  0  0  0  0  0  0  0  0  0  0
    1.2844   -2.2031    0.0000 C   0  0  0  0  0  0  0  0  0  0  0  0
    0.5531   -1.0031    0.0000 C   0  0  0  0  0  0  0  0  0  0  0  0
    3.4219   -1.8094    0.0000 C   0  0  0  0  0  0  0  0  0  0  0  0
   -0.1406   -1.3968    0.0000 C   0  0  0  0  0  0  0  0  0  0  0  0
    0.5719   -2.6344    0.0000 C   0  0  0  0  0  0  0  0  0  0  0  0
   -0.1406   -2.2218    0.0000 C   0  0  0  0  0  0  0  0  0  0  0  0
   -0.8906   -1.0031    0.0000 C   0  0  0  0  0  0  0  0  0  0  0  0
    3.1031   -0.0094    0.0000 C   0  0  0  0  0  0  0  0  0  0  0  0
    3.8343   -0.4031    0.0000 C   0  0  3  0  0  0  0  0  0  0  0  0
   -2.3531   -0.9844    0.0000 C   0  0  0  0  0  0  0  0  0  0  0  0
   -3.0656    0.2343    0.0000 C   0  0  0  0  0  0  0  0  0  0  0  0
   -2.3344   -0.1781    0.0000 C   0  0  0  0  0  0  0  0  0  0  0  0
   -3.7781   -0.1781    0.0000 C   0  0  0  0  0  0  0  0  0  0  0  0
   -3.0468   -1.3968    0.0000 C   0  0  0  0  0  0  0  0  0  0  0  0
   -3.7781   -1.0031    0.0000 C   0  0  0  0  0  0  0  0  0  0  0  0
    4.5094    0.0844    0.0000 C   0  0  0  0  0  0  0  0  0  0  0  0
   -2.3719    1.4906    0.0000 C   0  0  0  0  0  0  0  0  0  0  0  0
   -2.3156    2.2969    0.0000 C   0  0  0  0  0  0  0  0  0  0  0  0
   -1.5469    2.6344    0.0000 C   0  0  0  0  0  0  0  0  0  0  0  0
  1 12  1  0  0  0  0
  1 13  1  0  0  0  0
  2 25  1  0  0  0  0
  3 15  2  0  0  0  0
  4 19  2  0  0  0  0
  5 29  2  0  0  0  0
  6 11  1  0  0  0  0
  6 20  1  0  0  0  0
  7 15  1  0  0  0  0
  7 21  1  0  0  0  0
  8 19  1  0  0  0  0
  8 22  1  0  0  0  0
  9 23  1  0  0  0  0
  9 29  1  0  0  0  0
 10 11  1  0  0  0  0
 10 13  1  0  0  0  0
 10 14  2  0  0  0  0
 11 12  2  0  0  0  0
 12 15  1  0  0  0  0
 13 17  2  0  0  0  0
 14 16  1  0  0  0  0
 16 18  2  0  0  0  0
 16 19  1  0  0  0  0
 17 18  1  0  0  0  0
 20 21  1  0  0  0  0
 21 28  1  1  0  0  0
 22 24  2  0  0  0  0
 22 26  1  0  0  0  0
 23 24  1  0  0  0  0
 23 25  2  0  0  0  0
 25 27  1  0  0  0  0
 26 27  2  0  0  0  0
 29 30  1  0  0  0  0
 30 31  2  0  0  0  0
M  END
> <PUBCHEM_COMPOUND_ID_TYPE>
0

> <PUBCHEM_TOTAL_CHARGE>
0

> <PUBCHEM_SUBSTANCE_ID>
310945363

> <PUBCHEM_SUBSTANCE_VERSION>
1

> <PUBCHEM_EXT_DATASOURCE_NAME>
4488

> <PUBCHEM_EXT_DATASOURCE_REGID>
SCHEMBL16123461

> <PUBCHEM_SUBSTANCE_COMMENT>
InChI=1S/C22H19FN4O3S/c1-3-18(28)27-16-9-13(5-6-15(16)23)26-21(29)12-4-7-17-14(8-12)19-20(31-17)22(30)25-11(2)10-24-19/h3-9,11,24H,1,10H2,2H3,(H,25,30)(H,26,29)(H,27,28)/t11-/m1/s1
InChIKey=SEDJQCSMLKXSJV-LLVKDONJSA-N

> <PUBCHEM_SUBSTANCE_SYNONYM>
SCHEMBL16123461

> <PUBCHEM_XREF_EXT_ID>
SCHEMBL16123461

> <PUBCHEM_EXT_DATASOURCE_URL>
https://www.surechembl.org/

> <PUBCHEM_EXT_SUBSTANCE_URL>
https://www.surechembl.org/chemical/SCHEMBL16123461

> <PUBCHEM_CID_ASSOCIATIONS>
86301199  1

> <PUBCHEM_COORDINATE_TYPE>
1
3

> <PUBCHEM_BONDANNOTATIONS>
21  28  5

$$$$
