310943279
  -OEChem-07211613022D

 36 40  0     0  0  0  0  0  0999 V2000
   -4.6346    2.2566    0.0000 O   0  0  0  0  0  0  0  0  0  0  0  0
    1.0596   -0.2022    0.0000 O   0  0  0  0  0  0  0  0  0  0  0  0
   -2.4993    0.2022    0.0000 N   0  0  0  0  0  0  0  0  0  0  0  0
   -1.0757    0.2022    0.0000 N   0  0  0  0  0  0  0  0  0  0  0  0
   -3.2111    1.4316    0.0000 N   0  0  0  0  0  0  0  0  0  0  0  0
   -3.1140   -0.3478    0.0000 N   0  0  0  0  0  0  0  0  0  0  0  0
    0.3478    2.6772    0.0000 N   0  0  0  0  0  0  0  0  0  0  0  0
    1.7875    1.0272    0.0000 N   0  0  0  0  0  0  0  0  0  0  0  0
    3.9228   -1.0272    0.0000 N   0  0  0  0  0  0  0  0  0  0  0  0
    3.9228   -0.2022    0.0000 N   0  0  0  0  0  0  0  0  0  0  0  0
    4.6346   -1.4640    0.0000 N   0  0  0  0  0  0  0  0  0  0  0  0
   -2.4831    1.0434    0.0000 C   0  0  0  0  0  0  0  0  0  0  0  0
   -1.0596    1.0434    0.0000 C   0  0  0  0  0  0  0  0  0  0  0  0
   -1.7875   -0.2022    0.0000 C   0  0  0  0  0  0  0  0  0  0  0  0
   -0.3640    1.4478    0.0000 C   0  0  0  0  0  0  0  0  0  0  0  0
   -1.7875    1.4316    0.0000 C   0  0  0  0  0  0  0  0  0  0  0  0
   -0.3478    2.2566    0.0000 C   0  0  0  0  0  0  0  0  0  0  0  0
   -1.9655   -1.0110    0.0000 C   0  0  0  0  0  0  0  0  0  0  0  0
    0.3802    1.0272    0.0000 C   0  0  0  0  0  0  0  0  0  0  0  0
    1.0596    1.4478    0.0000 C   0  0  0  0  0  0  0  0  0  0  0  0
   -2.7581   -1.0919    0.0000 C   0  0  0  0  0  0  0  0  0  0  0  0
   -3.2111    2.2566    0.0000 C   0  0  0  0  0  0  0  0  0  0  0  0
   -3.8905    1.0434    0.0000 C   0  0  0  0  0  0  0  0  0  0  0  0
    1.0757    2.2566    0.0000 C   0  0  0  0  0  0  0  0  0  0  0  0
    2.4993   -0.1860    0.0000 C   0  0  0  0  0  0  0  0  0  0  0  0
    3.2111   -1.4316    0.0000 C   0  0  0  0  0  0  0  0  0  0  0  0
    1.7875    0.2346    0.0000 C   0  0  0  0  0  0  0  0  0  0  0  0
    3.2111   -2.2405    0.0000 C   0  0  0  0  0  0  0  0  0  0  0  0
    2.4993   -1.0110    0.0000 C   0  0  0  0  0  0  0  0  0  0  0  0
   -1.0757    2.6449    0.0000 C   0  0  0  0  0  0  0  0  0  0  0  0
   -3.9390    2.6611    0.0000 C   0  0  0  0  0  0  0  0  0  0  0  0
   -4.6346    1.4316    0.0000 C   0  0  0  0  0  0  0  0  0  0  0  0
    3.1949    0.2022    0.0000 C   0  0  0  0  0  0  0  0  0  0  0  0
    3.9228   -1.8361    0.0000 C   0  0  0  0  0  0  0  0  0  0  0  0
    2.4831   -2.6772    0.0000 C   0  0  0  0  0  0  0  0  0  0  0  0
    3.9390   -2.6611    0.0000 C   0  0  0  0  0  0  0  0  0  0  0  0
  1 31  1  0  0  0  0
  1 32  1  0  0  0  0
  2 27  2  0  0  0  0
  3  6  1  0  0  0  0
  3 12  1  0  0  0  0
  3 14  1  0  0  0  0
  4 13  2  0  0  0  0
  4 14  1  0  0  0  0
  5 12  1  0  0  0  0
  5 22  1  0  0  0  0
  5 23  1  0  0  0  0
  6 21  2  0  0  0  0
  7 17  2  0  0  0  0
  7 24  1  0  0  0  0
  8 20  1  0  0  0  0
  8 27  1  0  0  0  0
  9 10  1  0  0  0  0
  9 26  2  0  0  0  0
 10 33  2  0  0  0  0
 11 34  3  0  0  0  0
 12 16  2  0  0  0  0
 13 15  1  0  0  0  0
 13 16  1  0  0  0  0
 14 18  2  0  0  0  0
 15 17  1  0  0  0  0
 15 19  2  0  0  0  0
 17 30  1  0  0  0  0
 18 21  1  0  0  0  0
 19 20  1  0  0  0  0
 20 24  2  0  0  0  0
 22 31  1  0  0  0  0
 23 32  1  0  0  0  0
 25 27  1  0  0  0  0
 25 29  2  0  0  0  0
 25 33  1  0  0  0  0
 26 28  1  0  0  0  0
 26 29  1  0  0  0  0
 28 34  1  0  0  0  0
 28 35  1  0  0  0  0
 28 36  1  0  0  0  0
M  END
> <PUBCHEM_COMPOUND_ID_TYPE>
0

> <PUBCHEM_TOTAL_CHARGE>
0

> <PUBCHEM_SUBSTANCE_ID>
310943279

> <PUBCHEM_SUBSTANCE_VERSION>
1

> <PUBCHEM_EXT_DATASOURCE_NAME>
4488

> <PUBCHEM_EXT_DATASOURCE_REGID>
SCHEMBL16121341

> <PUBCHEM_SUBSTANCE_COMMENT>
InChI=1S/C25H25N9O2/c1-16-19(20-12-23(33-6-8-36-9-7-33)34-22(31-20)4-5-29-34)11-18(14-27-16)30-24(35)17-10-21(32-28-13-17)25(2,3)15-26/h4-5,10-14H,6-9H2,1-3H3,(H,30,35)
InChIKey=QHSLCXBYKOFJMJ-UHFFFAOYSA-N

> <PUBCHEM_SUBSTANCE_SYNONYM>
SCHEMBL16121341

> <PUBCHEM_XREF_EXT_ID>
SCHEMBL16121341

> <PUBCHEM_EXT_DATASOURCE_URL>
https://www.surechembl.org/

> <PUBCHEM_EXT_SUBSTANCE_URL>
https://www.surechembl.org/chemical/SCHEMBL16121341

> <PUBCHEM_CID_ASSOCIATIONS>
117609704  1

> <PUBCHEM_COORDINATE_TYPE>
1
3

$$$$
