310940623
  -OEChem-07211613022D

 30 34  0     0  0  0  0  0  0999 V2000
    2.7227   -0.1524    0.0000 O   0  0  0  0  0  0  0  0  0  0  0  0
   -1.4757   -0.3325    0.0000 O   0  0  0  0  0  0  0  0  0  0  0  0
   -2.7781   -2.2724    0.0000 O   0  0  0  0  0  0  0  0  0  0  0  0
    2.7781    1.3302    0.0000 O   0  0  0  0  0  0  0  0  0  0  0  0
    1.5588    0.4988    0.0000 N   0  0  0  0  0  0  0  0  0  0  0  0
    1.4064   -1.9953    0.0000 N   0  0  0  0  0  0  0  0  0  0  0  0
   -2.3763   -3.0067    0.0000 N   0  0  0  0  0  0  0  0  0  0  0  0
    1.3925   -0.3464    0.0000 C   0  0  0  0  0  0  0  0  0  0  0  0
    0.6858   -0.7621    0.0000 C   0  0  0  0  0  0  0  0  0  0  0  0
    2.1130   -0.7482    0.0000 C   0  0  0  0  0  0  0  0  0  0  0  0
    0.6720   -1.5935    0.0000 C   0  0  0  0  0  0  0  0  0  0  0  0
   -0.7551   -1.6073    0.0000 C   0  0  0  0  0  0  0  0  0  0  0  0
   -0.7413   -0.7760    0.0000 C   0  0  0  0  0  0  0  0  0  0  0  0
    2.3624    0.5542    0.0000 C   0  0  0  0  0  0  0  0  0  0  0  0
   -0.0346   -0.3741    0.0000 C   0  0  0  0  0  0  0  0  0  0  0  0
   -0.0346   -2.0091    0.0000 C   0  0  0  0  0  0  0  0  0  0  0  0
   -1.4757   -2.0229    0.0000 C   0  0  0  0  0  0  0  0  0  0  0  0
    2.1130   -1.5935    0.0000 C   0  0  0  0  0  0  0  0  0  0  0  0
    0.8799    0.9422    0.0000 C   0  0  0  0  0  0  0  0  0  0  0  0
   -2.2239   -1.6765    0.0000 C   0  0  0  0  0  0  0  0  0  0  0  0
   -1.5588   -2.8543    0.0000 C   0  0  0  0  0  0  0  0  0  0  0  0
    0.9353    1.7874    0.0000 C   0  0  0  0  0  0  0  0  0  0  0  0
   -2.3901   -0.8590    0.0000 C   0  0  0  0  0  0  0  0  0  0  0  0
   -0.9353   -3.4224    0.0000 C   0  0  0  0  0  0  0  0  0  0  0  0
    0.2702    2.2446    0.0000 C   0  0  0  0  0  0  0  0  0  0  0  0
    1.6696    2.1477    0.0000 C   0  0  0  0  0  0  0  0  0  0  0  0
   -1.4757    0.4850    0.0000 C   0  0  0  0  0  0  0  0  0  0  0  0
    0.3395    3.0760    0.0000 C   0  0  0  0  0  0  0  0  0  0  0  0
    1.7250    2.9652    0.0000 C   0  0  0  0  0  0  0  0  0  0  0  0
    1.0739    3.4224    0.0000 C   0  0  0  0  0  0  0  0  0  0  0  0
  1 10  1  0  0  0  0
  1 14  1  0  0  0  0
  2 13  1  0  0  0  0
  2 27  1  0  0  0  0
  3  7  1  0  0  0  0
  3 20  1  0  0  0  0
  4 14  2  0  0  0  0
  5  8  1  0  0  0  0
  5 14  1  0  0  0  0
  5 19  1  0  0  0  0
  6 11  1  0  0  0  0
  6 18  2  0  0  0  0
  7 21  2  0  0  0  0
  8  9  1  0  0  0  0
  8 10  2  0  0  0  0
  9 11  1  0  0  0  0
  9 15  2  0  0  0  0
 10 18  1  0  0  0  0
 11 16  2  0  0  0  0
 12 13  2  0  0  0  0
 12 16  1  0  0  0  0
 12 17  1  0  0  0  0
 13 15  1  0  0  0  0
 17 20  2  0  0  0  0
 17 21  1  0  0  0  0
 19 22  1  0  0  0  0
 20 23  1  0  0  0  0
 21 24  1  0  0  0  0
 22 25  1  0  0  0  0
 22 26  1  0  0  0  0
 25 28  1  0  0  0  0
 26 29  1  0  0  0  0
 28 30  1  0  0  0  0
 29 30  1  0  0  0  0
M  END
> <PUBCHEM_COMPOUND_ID_TYPE>
0

> <PUBCHEM_TOTAL_CHARGE>
0

> <PUBCHEM_SUBSTANCE_ID>
310940623

> <PUBCHEM_SUBSTANCE_VERSION>
1

> <PUBCHEM_EXT_DATASOURCE_NAME>
4488

> <PUBCHEM_EXT_DATASOURCE_REGID>
SCHEMBL16118578

> <PUBCHEM_SUBSTANCE_COMMENT>
InChI=1S/C23H25N3O4/c1-13-21(14(2)30-25-13)17-9-18-16(10-19(17)28-3)22-20(11-24-18)29-23(27)26(22)12-15-7-5-4-6-8-15/h9-11,15H,4-8,12H2,1-3H3
InChIKey=NWZIZWVVLFKBCE-UHFFFAOYSA-N

> <PUBCHEM_SUBSTANCE_SYNONYM>
SCHEMBL16118578

> <PUBCHEM_XREF_EXT_ID>
SCHEMBL16118578

> <PUBCHEM_EXT_DATASOURCE_URL>
https://www.surechembl.org/

> <PUBCHEM_EXT_SUBSTANCE_URL>
https://www.surechembl.org/chemical/SCHEMBL16118578

> <PUBCHEM_CID_ASSOCIATIONS>
86305173  1

> <PUBCHEM_COORDINATE_TYPE>
1
3

$$$$
