310945516
  -OEChem-07211613022D

 26 29  0     0  0  0  0  0  0999 V2000
    2.6800    0.6335    0.0000 F   0  0  0  0  0  0  0  0  0  0  0  0
    2.1993   -0.3860    0.0000 F   0  0  0  0  0  0  0  0  0  0  0  0
    1.1652    0.1092    0.0000 F   0  0  0  0  0  0  0  0  0  0  0  0
   -2.6800    1.6823    0.0000 O   0  0  0  0  0  0  0  0  0  0  0  0
   -0.6263   -2.8184    0.0000 O   0  0  0  0  0  0  0  0  0  0  0  0
    0.1311    0.9395    0.0000 N   0  0  0  0  0  0  0  0  0  0  0  0
    2.1556    1.8570    0.0000 N   0  0  0  0  0  0  0  0  0  0  0  0
   -0.6263   -1.1580    0.0000 N   0  0  0  0  0  0  0  0  0  0  0  0
    0.7865    1.4492    0.0000 C   0  0  0  0  0  0  0  0  0  0  0  0
    0.5389    2.2066    0.0000 C   0  0  0  0  0  0  0  0  0  0  0  0
   -0.2913    2.2212    0.0000 C   0  0  0  0  0  0  0  0  0  0  0  0
   -0.5534    1.4347    0.0000 C   0  0  0  0  0  0  0  0  0  0  0  0
    1.6022    1.2453    0.0000 C   0  0  0  0  0  0  0  0  0  0  0  0
    1.9080    0.3714    0.0000 C   0  0  0  0  0  0  0  0  0  0  0  0
    1.0924    2.8184    0.0000 C   0  0  0  0  0  0  0  0  0  0  0  0
   -1.3400    1.2598    0.0000 C   0  0  0  0  0  0  0  0  0  0  0  0
   -0.8302    2.8184    0.0000 C   0  0  0  0  0  0  0  0  0  0  0  0
    0.1165    0.0655    0.0000 C   0  0  0  0  0  0  0  0  0  0  0  0
    1.8935    2.6435    0.0000 C   0  0  0  0  0  0  0  0  0  0  0  0
   -1.8935    1.8716    0.0000 C   0  0  0  0  0  0  0  0  0  0  0  0
   -1.6167    2.6435    0.0000 C   0  0  0  0  0  0  0  0  0  0  0  0
   -0.6117   -0.3277    0.0000 C   0  0  0  0  0  0  0  0  0  0  0  0
    0.0874   -1.5658    0.0000 C   0  0  0  0  0  0  0  0  0  0  0  0
   -1.3254   -1.5658    0.0000 C   0  0  0  0  0  0  0  0  0  0  0  0
    0.0729   -2.4105    0.0000 C   0  0  0  0  0  0  0  0  0  0  0  0
   -1.3400   -2.3959    0.0000 C   0  0  0  0  0  0  0  0  0  0  0  0
  1 14  1  0  0  0  0
  2 14  1  0  0  0  0
  3 14  1  0  0  0  0
  4 20  1  0  0  0  0
  5 25  1  0  0  0  0
  5 26  1  0  0  0  0
  6  9  1  0  0  0  0
  6 12  1  0  0  0  0
  6 18  1  0  0  0  0
  7 13  2  0  0  0  0
  7 19  1  0  0  0  0
  8 22  1  0  0  0  0
  8 23  1  0  0  0  0
  8 24  1  0  0  0  0
  9 10  2  0  0  0  0
  9 13  1  0  0  0  0
 10 11  1  0  0  0  0
 10 15  1  0  0  0  0
 11 12  2  0  0  0  0
 11 17  1  0  0  0  0
 12 16  1  0  0  0  0
 13 14  1  0  0  0  0
 15 19  2  0  0  0  0
 16 20  2  0  0  0  0
 17 21  2  0  0  0  0
 18 22  1  0  0  0  0
 20 21  1  0  0  0  0
 23 25  1  0  0  0  0
 24 26  1  0  0  0  0
M  END
> <PUBCHEM_COMPOUND_ID_TYPE>
0

> <PUBCHEM_TOTAL_CHARGE>
0

> <PUBCHEM_SUBSTANCE_ID>
310945516

> <PUBCHEM_SUBSTANCE_VERSION>
1

> <PUBCHEM_EXT_DATASOURCE_NAME>
4488

> <PUBCHEM_EXT_DATASOURCE_REGID>
SCHEMBL16123614

> <PUBCHEM_SUBSTANCE_COMMENT>
InChI=1S/C18H18F3N3O2/c19-18(20,21)17-16-14(3-4-22-17)13-2-1-12(25)11-15(13)24(16)6-5-23-7-9-26-10-8-23/h1-4,11,25H,5-10H2
InChIKey=HDMZNZQXFVMHGN-UHFFFAOYSA-N

> <PUBCHEM_SUBSTANCE_SYNONYM>
SCHEMBL16123614

> <PUBCHEM_XREF_EXT_ID>
SCHEMBL16123614

> <PUBCHEM_EXT_DATASOURCE_URL>
https://www.surechembl.org/

> <PUBCHEM_EXT_SUBSTANCE_URL>
https://www.surechembl.org/chemical/SCHEMBL16123614

> <PUBCHEM_CID_ASSOCIATIONS>
117611557  1

> <PUBCHEM_COORDINATE_TYPE>
1
3

$$$$
