310938346
  -OEChem-07211613022D

 35 40  0     0  0  0  0  0  0999 V2000
    3.1508   -2.2428    0.0000 O   0  0  0  0  0  0  0  0  0  0  0  0
    0.5388   -0.9947    0.0000 O   0  0  0  0  0  0  0  0  0  0  0  0
    3.2950   -1.0573    0.0000 O   0  0  0  0  0  0  0  0  0  0  0  0
    1.4997    1.0076    0.0000 O   0  0  0  0  0  0  0  0  0  0  0  0
    1.9320   -1.4206    0.0000 N   0  0  0  0  0  0  0  0  0  0  0  0
    2.0820   -0.1433    0.0000 N   0  0  0  0  0  0  0  0  0  0  0  0
    1.2696    0.0000    0.0000 C   0  0  0  0  0  0  0  0  0  0  0  0
    0.7846    0.6674    0.0000 C   0  0  0  0  0  0  0  0  0  0  0  0
    0.0000    0.4125    0.0000 C   0  0  0  0  0  0  0  0  0  0  0  0
    0.7846   -0.6674    0.0000 C   0  0  0  0  0  0  0  0  0  0  0  0
    0.0000   -0.4125    0.0000 C   0  0  0  0  0  0  0  0  0  0  0  0
    0.1392    1.5240    0.0000 C   0  0  0  0  0  0  0  0  0  0  0  0
    1.3209    1.5963    0.0000 C   0  0  0  0  0  0  0  0  0  0  0  0
    2.3320   -2.1422    0.0000 C   0  0  0  0  0  0  0  0  0  0  0  0
    1.1222   -1.5780    0.0000 C   0  0  0  0  0  0  0  0  0  0  0  0
    2.8825   -0.3428    0.0000 C   0  0  0  0  0  0  0  0  0  0  0  0
    2.0245    0.6797    0.0000 C   0  0  0  0  0  0  0  0  0  0  0  0
   -0.7144    0.8250    0.0000 C   0  0  0  0  0  0  0  0  0  0  0  0
   -0.7144   -0.8250    0.0000 C   0  0  0  0  0  0  0  0  0  0  0  0
    0.4615    2.2834    0.0000 C   0  0  0  0  0  0  0  0  0  0  0  0
    2.1459    1.5963    0.0000 C   0  0  0  0  0  0  0  0  0  0  0  0
   -0.6797    1.4234    0.0000 C   0  0  0  0  0  0  0  0  0  0  0  0
    0.9084    2.3107    0.0000 C   0  0  0  0  0  0  0  0  0  0  0  0
    1.7693   -2.7455    0.0000 C   0  0  0  0  0  0  0  0  0  0  0  0
    1.0216   -2.3969    0.0000 C   0  0  0  0  0  0  0  0  0  0  0  0
    3.3197    0.3568    0.0000 C   0  0  0  0  0  0  0  0  0  0  0  0
    2.7894    0.9888    0.0000 C   0  0  0  0  0  0  0  0  0  0  0  0
   -1.4290    0.4125    0.0000 C   0  0  0  0  0  0  0  0  0  0  0  0
   -1.4290   -0.4125    0.0000 C   0  0  0  0  0  0  0  0  0  0  0  0
   -0.0349    2.9422    0.0000 C   0  0  0  0  0  0  0  0  0  0  0  0
    2.5584    2.3107    0.0000 C   0  0  0  0  0  0  0  0  0  0  0  0
   -1.1762    2.0823    0.0000 C   0  0  0  0  0  0  0  0  0  0  0  0
    1.3209    3.0252    0.0000 C   0  0  0  0  0  0  0  0  0  0  0  0
   -0.8538    2.8417    0.0000 C   0  0  0  0  0  0  0  0  0  0  0  0
    2.1459    3.0252    0.0000 C   0  0  0  0  0  0  0  0  0  0  0  0
  1 14  2  0  0  0  0
  2 15  2  0  0  0  0
  3 16  2  0  0  0  0
  4 17  2  0  0  0  0
  5  7  1  0  0  0  0
  5 14  1  0  0  0  0
  5 15  1  0  0  0  0
  6  7  1  0  0  0  0
  6 16  1  0  0  0  0
  6 17  1  0  0  0  0
  7  8  1  0  0  0  0
  7 10  1  0  0  0  0
  8  9  1  0  0  0  0
  8 12  1  0  0  0  0
  8 13  1  0  0  0  0
  9 11  2  0  0  0  0
  9 18  1  0  0  0  0
 10 11  1  0  0  0  0
 11 19  1  0  0  0  0
 12 20  2  0  0  0  0
 12 22  1  0  0  0  0
 13 21  2  0  0  0  0
 13 23  1  0  0  0  0
 14 24  1  0  0  0  0
 15 25  1  0  0  0  0
 16 26  1  0  0  0  0
 17 27  1  0  0  0  0
 18 28  2  0  0  0  0
 19 29  2  0  0  0  0
 20 30  1  0  0  0  0
 21 31  1  0  0  0  0
 22 32  2  0  0  0  0
 23 33  2  0  0  0  0
 24 25  2  0  0  0  0
 26 27  2  0  0  0  0
 28 29  1  0  0  0  0
 30 34  2  0  0  0  0
 31 35  2  0  0  0  0
 32 34  1  0  0  0  0
 33 35  1  0  0  0  0
M  END
> <PUBCHEM_COMPOUND_ID_TYPE>
0

> <PUBCHEM_TOTAL_CHARGE>
0

> <PUBCHEM_SUBSTANCE_ID>
310938346

> <PUBCHEM_SUBSTANCE_VERSION>
1

> <PUBCHEM_EXT_DATASOURCE_NAME>
4488

> <PUBCHEM_EXT_DATASOURCE_REGID>
SCHEMBL16116228

> <PUBCHEM_SUBSTANCE_COMMENT>
InChI=1S/C29H20N2O4/c32-24-15-16-25(33)30(24)28(31-26(34)17-18-27(31)35)19-20-9-7-8-14-23(20)29(28,21-10-3-1-4-11-21)22-12-5-2-6-13-22/h1-18H,19H2
InChIKey=USSREBMHCMKEON-UHFFFAOYSA-N

> <PUBCHEM_SUBSTANCE_SYNONYM>
SCHEMBL16116228

> <PUBCHEM_XREF_EXT_ID>
SCHEMBL16116228

> <PUBCHEM_EXT_DATASOURCE_URL>
https://www.surechembl.org/

> <PUBCHEM_EXT_SUBSTANCE_URL>
https://www.surechembl.org/chemical/SCHEMBL16116228

> <PUBCHEM_CID_ASSOCIATIONS>
117605832  1

> <PUBCHEM_COORDINATE_TYPE>
1
3

$$$$
