310930670
  -OEChem-07211613022D

 32 36  0     0  0  0  0  0  0999 V2000
    6.4066   -3.2414    0.0000 S   0  0  0  0  0  0  0  0  0  0  0  0
    2.2118   -7.4743    0.0000 S   0  0  0  0  0  0  0  0  0  0  0  0
    5.6438   -2.7838    0.0000 O   0  0  0  0  0  0  0  0  0  0  0  0
    7.0930   -3.6609    0.0000 O   0  0  0  0  0  0  0  0  0  0  0  0
    3.9278   -7.5124    0.0000 O   0  0  0  0  0  0  0  0  0  0  0  0
    7.6650   -2.4406    0.0000 N   0  0  0  0  0  0  0  0  0  0  0  0
    3.9278   -6.1015    0.0000 N   0  0  0  0  0  0  0  0  0  0  0  0
    0.0000   -7.2455    0.0000 N   0  0  0  0  0  0  0  0  0  0  0  0
    6.8260   -2.5169    0.0000 C   0  0  0  0  0  0  0  0  0  0  0  0
    7.8556   -1.6779    0.0000 C   0  0  0  0  0  0  0  0  0  0  0  0
    7.1311   -1.2203    0.0000 C   0  0  0  0  0  0  0  0  0  0  0  0
    5.9871   -3.9660    0.0000 C   0  0  0  0  0  0  0  0  0  0  0  0
    6.5210   -1.7923    0.0000 C   0  0  0  0  0  0  0  0  0  0  0  0
    8.5421   -1.2203    0.0000 C   0  0  0  0  0  0  0  0  0  0  0  0
    7.1311   -0.3813    0.0000 C   0  0  0  0  0  0  0  0  0  0  0  0
    5.1862   -3.9278    0.0000 C   0  0  0  0  0  0  0  0  0  0  0  0
    6.4066   -4.6524    0.0000 C   0  0  0  0  0  0  0  0  0  0  0  0
    2.7075   -6.7879    0.0000 C   0  0  0  0  0  0  0  0  0  0  0  0
    1.4110   -7.2455    0.0000 C   0  0  0  0  0  0  0  0  0  0  0  0
    1.4110   -6.3684    0.0000 C   0  0  0  0  0  0  0  0  0  0  0  0
    8.1989   -3.0507    0.0000 C   0  0  0  0  0  0  0  0  0  0  0  0
    5.1862   -5.3769    0.0000 C   0  0  0  0  0  0  0  0  0  0  0  0
    4.7668   -4.6524    0.0000 C   0  0  0  0  0  0  0  0  0  0  0  0
    5.9871   -5.3769    0.0000 C   0  0  0  0  0  0  0  0  0  0  0  0
    2.2118   -6.1396    0.0000 C   0  0  0  0  0  0  0  0  0  0  0  0
    8.5802   -0.4195    0.0000 C   0  0  0  0  0  0  0  0  0  0  0  0
    7.8175    0.0000    0.0000 C   0  0  0  0  0  0  0  0  0  0  0  0
    3.5084   -6.7879    0.0000 C   0  0  0  0  0  0  0  0  0  0  0  0
    4.7668   -6.1015    0.0000 C   0  0  0  0  0  0  0  0  0  0  0  0
    0.6864   -7.6268    0.0000 C   0  0  0  0  0  0  0  0  0  0  0  0
    0.6864   -5.9871    0.0000 C   0  0  0  0  0  0  0  0  0  0  0  0
    0.0000   -6.3684    0.0000 C   0  0  0  0  0  0  0  0  0  0  0  0
  1  3  2  0  0  0  0
  1  4  2  0  0  0  0
  1  9  1  0  0  0  0
  1 12  1  0  0  0  0
  2 18  1  0  0  0  0
  2 19  1  0  0  0  0
  5 28  2  0  0  0  0
  6  9  1  0  0  0  0
  6 10  1  0  0  0  0
  6 21  1  0  0  0  0
  7 28  1  0  0  0  0
  7 29  1  0  0  0  0
  8 30  1  0  0  0  0
  8 32  2  0  0  0  0
  9 13  2  0  0  0  0
 10 11  2  0  0  0  0
 10 14  1  0  0  0  0
 11 13  1  0  0  0  0
 11 15  1  0  0  0  0
 12 16  2  0  0  0  0
 12 17  1  0  0  0  0
 14 26  2  0  0  0  0
 15 27  2  0  0  0  0
 16 23  1  0  0  0  0
 17 24  2  0  0  0  0
 18 25  2  0  0  0  0
 18 28  1  0  0  0  0
 19 20  1  0  0  0  0
 19 30  2  0  0  0  0
 20 25  1  0  0  0  0
 20 31  2  0  0  0  0
 22 23  2  0  0  0  0
 22 24  1  0  0  0  0
 22 29  1  0  0  0  0
 26 27  1  0  0  0  0
 31 32  1  0  0  0  0
M  END
> <PUBCHEM_COMPOUND_ID_TYPE>
0

> <PUBCHEM_TOTAL_CHARGE>
0

> <PUBCHEM_SUBSTANCE_ID>
310930670

> <PUBCHEM_SUBSTANCE_VERSION>
1

> <PUBCHEM_EXT_DATASOURCE_NAME>
4488

> <PUBCHEM_EXT_DATASOURCE_REGID>
SCHEMBL16107967

> <PUBCHEM_SUBSTANCE_COMMENT>
InChI=1S/C24H19N3O3S2/c1-27-20-5-3-2-4-17(20)13-23(27)32(29,30)19-8-6-16(7-9-19)14-26-24(28)21-12-18-10-11-25-15-22(18)31-21/h2-13,15H,14H2,1H3,(H,26,28)
InChIKey=UCRBFQAXTPHNTG-UHFFFAOYSA-N

> <PUBCHEM_SUBSTANCE_SYNONYM>
SCHEMBL16107967

> <PUBCHEM_XREF_EXT_ID>
SCHEMBL16107967

> <PUBCHEM_EXT_DATASOURCE_URL>
https://www.surechembl.org/

> <PUBCHEM_EXT_SUBSTANCE_URL>
https://www.surechembl.org/chemical/SCHEMBL16107967

> <PUBCHEM_CID_ASSOCIATIONS>
87074551  1

> <PUBCHEM_COORDINATE_TYPE>
1
3

$$$$
