310941054
  -OEChem-07211613022D

 43 46  0     1  0  0  0  0  0999 V2000
    0.3711    1.2744    0.0000 F   0  0  0  0  0  0  0  0  0  0  0  0
    5.0624    0.6722    0.0000 O   0  0  0  0  0  0  0  0  0  0  0  0
    3.9421   -1.2744    0.0000 O   0  0  0  0  0  0  0  0  0  0  0  0
    1.7996    0.7842    0.0000 O   0  0  0  0  0  0  0  0  0  0  0  0
   -0.3570   -1.2744    0.0000 O   0  0  0  0  0  0  0  0  0  0  0  0
    3.9421   -2.9268    0.0000 O   0  0  0  0  0  0  0  0  0  0  0  0
   -2.4997    0.7842    0.0000 O   0  0  0  0  0  0  0  0  0  0  0  0
   -5.3565    0.7842    0.0000 O   0  0  0  0  0  0  0  0  0  0  0  0
    2.5137   -0.4621    0.0000 N   0  0  0  0  0  0  0  0  0  0  0  0
    0.3711   -0.0420    0.0000 N   0  0  0  0  0  0  0  0  0  0  0  0
   -1.7715   -0.4621    0.0000 N   0  0  0  0  0  0  0  0  0  0  0  0
   -3.9281   -0.0420    0.0000 N   0  0  0  0  0  0  0  0  0  0  0  0
    4.6423    0.0140    0.0000 C   0  0  3  0  0  0  0  0  0  0  0  0
    3.9421   -0.4201    0.0000 C   0  0  0  0  0  0  0  0  0  0  0  0
    4.2643    0.6863    0.0000 C   0  0  0  0  0  0  0  0  0  0  0  0
    3.2140   -0.0140    0.0000 C   0  0  3  0  0  0  0  0  0  0  0  0
    5.3565   -0.4201    0.0000 C   0  0  0  0  0  0  0  0  0  0  0  0
    3.2279    1.3024    0.0000 C   0  0  0  0  0  0  0  0  0  0  0  0
    1.7996   -0.0420    0.0000 C   0  0  0  0  0  0  0  0  0  0  0  0
    2.4997    1.7224    0.0000 C   0  0  0  0  0  0  0  0  0  0  0  0
    1.0853   -0.4201    0.0000 C   0  0  3  0  0  0  0  0  0  0  0  0
    1.0713   -1.2744    0.0000 C   0  0  0  0  0  0  0  0  0  0  0  0
    1.8136    1.3164    0.0000 C   0  0  0  0  0  0  0  0  0  0  0  0
    2.5137    2.5348    0.0000 C   0  0  0  0  0  0  0  0  0  0  0  0
    1.8136   -1.6664    0.0000 C   0  0  0  0  0  0  0  0  0  0  0  0
   -0.3290   -0.4061    0.0000 C   0  0  0  0  0  0  0  0  0  0  0  0
    1.0713    1.7224    0.0000 C   0  0  0  0  0  0  0  0  0  0  0  0
   -1.0713   -0.0140    0.0000 C   0  0  3  0  0  0  0  0  0  0  0  0
    1.7996    2.9268    0.0000 C   0  0  0  0  0  0  0  0  0  0  0  0
    1.0993    2.5348    0.0000 C   0  0  0  0  0  0  0  0  0  0  0  0
    2.4997   -1.2744    0.0000 C   0  0  0  0  0  0  0  0  0  0  0  0
    1.8136   -2.4927    0.0000 C   0  0  0  0  0  0  0  0  0  0  0  0
    3.2279   -2.4787    0.0000 C   0  0  0  0  0  0  0  0  0  0  0  0
    3.2279   -1.6805    0.0000 C   0  0  0  0  0  0  0  0  0  0  0  0
    2.5277   -2.8988    0.0000 C   0  0  0  0  0  0  0  0  0  0  0  0
   -2.4997   -0.0420    0.0000 C   0  0  0  0  0  0  0  0  0  0  0  0
   -1.0573    0.7983    0.0000 C   0  0  0  0  0  0  0  0  0  0  0  0
   -3.1860   -0.4201    0.0000 C   0  0  0  0  0  0  0  0  0  0  0  0
   -3.9141    0.7983    0.0000 C   0  0  0  0  0  0  0  0  0  0  0  0
   -4.6143   -0.4201    0.0000 C   0  0  0  0  0  0  0  0  0  0  0  0
   -4.6423    1.2183    0.0000 C   0  0  0  0  0  0  0  0  0  0  0  0
   -5.3425   -0.0280    0.0000 C   0  0  0  0  0  0  0  0  0  0  0  0
    4.6703   -2.4787    0.0000 C   0  0  0  0  0  0  0  0  0  0  0  0
  1 27  1  0  0  0  0
  2 13  1  0  0  0  0
  2 15  1  0  0  0  0
  3 14  2  0  0  0  0
  4 19  2  0  0  0  0
  5 26  2  0  0  0  0
  6 33  1  0  0  0  0
  6 43  1  0  0  0  0
  7 36  2  0  0  0  0
  8 41  1  0  0  0  0
  8 42  1  0  0  0  0
 16  9  1  1  0  0  0
  9 19  1  0  0  0  0
 21 10  1  6  0  0  0
 10 26  1  0  0  0  0
 11 28  1  0  0  0  0
 11 36  1  0  0  0  0
 12 38  1  0  0  0  0
 12 39  1  0  0  0  0
 12 40  1  0  0  0  0
 13 14  1  1  0  0  0
 13 15  1  0  0  0  0
 13 17  1  6  0  0  0
 14 16  1  0  0  0  0
 16 18  1  0  0  0  0
 18 20  1  0  0  0  0
 19 21  1  0  0  0  0
 20 23  1  0  0  0  0
 20 24  2  0  0  0  0
 21 22  1  0  0  0  0
 22 25  1  0  0  0  0
 23 27  2  0  0  0  0
 24 29  1  0  0  0  0
 25 31  2  0  0  0  0
 25 32  1  0  0  0  0
 26 28  1  0  0  0  0
 27 30  1  0  0  0  0
 28 37  1  1  0  0  0
 29 30  2  0  0  0  0
 31 34  1  0  0  0  0
 32 35  2  0  0  0  0
 33 34  2  0  0  0  0
 33 35  1  0  0  0  0
 36 38  1  0  0  0  0
 39 41  1  0  0  0  0
 40 42  1  0  0  0  0
M  END
> <PUBCHEM_COMPOUND_ID_TYPE>
0

> <PUBCHEM_TOTAL_CHARGE>
0

> <PUBCHEM_SUBSTANCE_ID>
310941054

> <PUBCHEM_SUBSTANCE_VERSION>
1

> <PUBCHEM_EXT_DATASOURCE_NAME>
4488

> <PUBCHEM_EXT_DATASOURCE_REGID>
SCHEMBL16119013

> <PUBCHEM_SUBSTANCE_COMMENT>
InChI=1S/C31H39FN4O7/c1-20(33-27(37)18-36-11-13-42-14-12-36)29(39)35-26(16-21-7-9-24(41-3)10-8-21)30(40)34-25(28(38)31(2)19-43-31)17-22-5-4-6-23(32)15-22/h4-10,15,20,25-26H,11-14,16-19H2,1-3H3,(H,33,37)(H,34,40)(H,35,39)/t20-,25-,26-,31+/m0/s1
InChIKey=FXZMRDOUSNGUIA-SGOONUSTSA-N

> <PUBCHEM_SUBSTANCE_SYNONYM>
SCHEMBL16119013

> <PUBCHEM_XREF_EXT_ID>
SCHEMBL16119013

> <PUBCHEM_EXT_DATASOURCE_URL>
https://www.surechembl.org/

> <PUBCHEM_EXT_SUBSTANCE_URL>
https://www.surechembl.org/chemical/SCHEMBL16119013

> <PUBCHEM_CID_ASSOCIATIONS>
117607946  1

> <PUBCHEM_COORDINATE_TYPE>
1
3

> <PUBCHEM_BONDANNOTATIONS>
21  10  6
13  14  5
13  17  6
28  37  5
16  9  5

$$$$
