310931446
  -OEChem-07211613022D

 38 42  0     0  0  0  0  0  0999 V2000
    0.0000   -1.6499    0.0000 Cl  0  0  0  0  0  0  0  0  0  0  0  0
    1.4073   -5.1926    0.0000 O   0  0  0  0  0  0  0  0  0  0  0  0
    0.4853   -8.9293    0.0000 O   0  0  0  0  0  0  0  0  0  0  0  0
    3.9793   -9.2204    0.0000 O   0  0  0  0  0  0  0  0  0  0  0  0
    2.8632    0.0000    0.0000 O   0  0  0  0  0  0  0  0  0  0  0  0
    2.8632   -4.9985    0.0000 N   0  0  0  0  0  0  0  0  0  0  0  0
    3.2999   -6.2602    0.0000 N   0  0  0  0  0  0  0  0  0  0  0  0
    4.3675   -5.1926    0.0000 N   0  0  0  0  0  0  0  0  0  0  0  0
    2.8632   -2.4750    0.0000 N   0  0  0  0  0  0  0  0  0  0  0  0
    2.4750   -6.2602    0.0000 C   0  0  0  0  0  0  0  0  0  0  0  0
    2.2323   -5.4352    0.0000 C   0  0  0  0  0  0  0  0  0  0  0  0
    1.9897   -6.9396    0.0000 C   0  0  0  0  0  0  0  0  0  0  0  0
    2.8632   -6.9881    0.0000 C   0  0  0  0  0  0  0  0  0  0  0  0
    3.5426   -5.4352    0.0000 C   0  0  0  0  0  0  0  0  0  0  0  0
    2.8632   -4.1249    0.0000 C   0  0  0  0  0  0  0  0  0  0  0  0
    2.3294   -7.7161    0.0000 C   0  0  0  0  0  0  0  0  0  0  0  0
    3.6882   -7.0366    0.0000 C   0  0  0  0  0  0  0  0  0  0  0  0
    1.1647   -6.8425    0.0000 C   0  0  0  0  0  0  0  0  0  0  0  0
    2.5720   -7.8616    0.0000 C   0  0  0  0  0  0  0  0  0  0  0  0
    3.5911   -3.7367    0.0000 C   0  0  0  0  0  0  0  0  0  0  0  0
    2.1838   -3.7367    0.0000 C   0  0  0  0  0  0  0  0  0  0  0  0
    1.8441   -8.3469    0.0000 C   0  0  0  0  0  0  0  0  0  0  0  0
    4.0764   -7.7646    0.0000 C   0  0  0  0  0  0  0  0  0  0  0  0
    0.6794   -7.5219    0.0000 C   0  0  0  0  0  0  0  0  0  0  0  0
    2.7661   -8.4439    0.0000 C   0  0  0  0  0  0  0  0  0  0  0  0
    1.0191   -8.2498    0.0000 C   0  0  0  0  0  0  0  0  0  0  0  0
    3.5911   -8.4925    0.0000 C   0  0  0  0  0  0  0  0  0  0  0  0
    3.5911   -2.9117    0.0000 C   0  0  0  0  0  0  0  0  0  0  0  0
    2.1838   -2.9117    0.0000 C   0  0  0  0  0  0  0  0  0  0  0  0
    2.8632   -1.6499    0.0000 C   0  0  0  0  0  0  0  0  0  0  0  0
    2.1838   -1.2617    0.0000 C   0  0  0  0  0  0  0  0  0  0  0  0
    2.1838   -0.4367    0.0000 C   0  0  0  0  0  0  0  0  0  0  0  0
    1.4558   -1.6499    0.0000 C   0  0  0  0  0  0  0  0  0  0  0  0
    0.7279   -1.2617    0.0000 C   0  0  0  0  0  0  0  0  0  0  0  0
    1.4558    0.0000    0.0000 C   0  0  0  0  0  0  0  0  0  0  0  0
    0.8250   -9.7057    0.0000 C   0  0  0  0  0  0  0  0  0  0  0  0
    4.8043   -9.2689    0.0000 C   0  0  0  0  0  0  0  0  0  0  0  0
    0.7279   -0.3882    0.0000 C   0  0  0  0  0  0  0  0  0  0  0  0
  1 34  1  0  0  0  0
  2 11  2  0  0  0  0
  3 26  1  0  0  0  0
  3 36  1  0  0  0  0
  4 27  1  0  0  0  0
  4 37  1  0  0  0  0
  5 32  1  0  0  0  0
  6 11  1  0  0  0  0
  6 14  1  0  0  0  0
  6 15  1  0  0  0  0
  7 10  1  0  0  0  0
  7 14  1  0  0  0  0
  8 14  2  3  0  0  0
  9 28  1  0  0  0  0
  9 29  1  0  0  0  0
  9 30  1  0  0  0  0
 10 11  1  0  0  0  0
 10 12  1  0  0  0  0
 10 13  1  0  0  0  0
 12 16  2  0  0  0  0
 12 18  1  0  0  0  0
 13 17  2  0  0  0  0
 13 19  1  0  0  0  0
 15 20  1  0  0  0  0
 15 21  1  0  0  0  0
 16 22  1  0  0  0  0
 17 23  1  0  0  0  0
 18 24  2  0  0  0  0
 19 25  2  0  0  0  0
 20 28  1  0  0  0  0
 21 29  1  0  0  0  0
 22 26  2  0  0  0  0
 23 27  2  0  0  0  0
 24 26  1  0  0  0  0
 25 27  1  0  0  0  0
 30 31  1  0  0  0  0
 31 32  2  0  0  0  0
 31 33  1  0  0  0  0
 32 35  1  0  0  0  0
 33 34  2  0  0  0  0
 34 38  1  0  0  0  0
 35 38  2  0  0  0  0
M  END
> <PUBCHEM_COMPOUND_ID_TYPE>
0

> <PUBCHEM_TOTAL_CHARGE>
0

> <PUBCHEM_SUBSTANCE_ID>
310931446

> <PUBCHEM_SUBSTANCE_VERSION>
1

> <PUBCHEM_EXT_DATASOURCE_NAME>
4488

> <PUBCHEM_EXT_DATASOURCE_REGID>
SCHEMBL16108771

> <PUBCHEM_SUBSTANCE_COMMENT>
InChI=1S/C29H31ClN4O4/c1-37-24-8-3-20(4-9-24)29(21-5-10-25(38-2)11-6-21)27(36)34(28(31)32-29)23-13-15-33(16-14-23)18-19-17-22(30)7-12-26(19)35/h3-12,17,23,35H,13-16,18H2,1-2H3,(H2,31,32)
InChIKey=SWWYUEXDUJSQHL-UHFFFAOYSA-N

> <PUBCHEM_SUBSTANCE_SYNONYM>
SCHEMBL16108771

> <PUBCHEM_XREF_EXT_ID>
SCHEMBL16108771

> <PUBCHEM_EXT_DATASOURCE_URL>
https://www.surechembl.org/

> <PUBCHEM_EXT_SUBSTANCE_URL>
https://www.surechembl.org/chemical/SCHEMBL16108771

> <PUBCHEM_CID_ASSOCIATIONS>
117600221  1

> <PUBCHEM_COORDINATE_TYPE>
1
3

$$$$
