310932545
  -OEChem-07211613022D

 25 27  0     0  0  0  0  0  0999 V2000
    3.9724   -2.1084    0.0000 O   0  0  0  0  0  0  0  0  0  0  0  0
    8.4337   -2.2001    0.0000 O   0  0  0  0  0  0  0  0  0  0  0  0
    4.8891   -0.9778    0.0000 N   0  0  0  0  0  0  0  0  0  0  0  0
    4.7974   -0.1528    0.0000 N   0  0  0  0  0  0  0  0  0  0  0  0
    6.2947   -0.9778    0.0000 N   0  0  0  0  0  0  0  0  0  0  0  0
    7.7308   -3.4224    0.0000 N   0  0  0  0  0  0  0  0  0  0  0  0
    0.0000   -1.8334    0.0000 N   0  0  0  0  0  0  0  0  0  0  0  0
    4.1557   -1.3139    0.0000 C   0  0  0  0  0  0  0  0  0  0  0  0
    3.5751   -0.7028    0.0000 C   0  0  0  0  0  0  0  0  0  0  0  0
    5.5919   -1.3751    0.0000 C   0  0  0  0  0  0  0  0  0  0  0  0
    2.7807   -0.7945    0.0000 C   0  0  0  0  0  0  0  0  0  0  0  0
    3.9724    0.0000    0.0000 C   0  0  0  0  0  0  0  0  0  0  0  0
    5.5919   -2.2001    0.0000 C   0  0  0  0  0  0  0  0  0  0  0  0
    6.9975   -2.2001    0.0000 C   0  0  0  0  0  0  0  0  0  0  0  0
    2.4445   -1.5584    0.0000 C   0  0  0  0  0  0  0  0  0  0  0  0
    2.2612   -0.1528    0.0000 C   0  0  0  0  0  0  0  0  0  0  0  0
    6.9975   -1.3751    0.0000 C   0  0  0  0  0  0  0  0  0  0  0  0
    6.2947   -2.5973    0.0000 C   0  0  0  0  0  0  0  0  0  0  0  0
    7.7308   -2.5973    0.0000 C   0  0  0  0  0  0  0  0  0  0  0  0
    1.1306   -0.9778    0.0000 C   0  0  0  0  0  0  0  0  0  0  0  0
    1.6195   -1.6501    0.0000 C   0  0  0  0  0  0  0  0  0  0  0  0
    1.4667   -0.2445    0.0000 C   0  0  0  0  0  0  0  0  0  0  0  0
    0.3056   -1.0695    0.0000 C   0  0  0  0  0  0  0  0  0  0  0  0
    8.4337   -3.8501    0.0000 C   0  0  0  0  0  0  0  0  0  0  0  0
    9.1670   -3.4224    0.0000 C   0  0  0  0  0  0  0  0  0  0  0  0
  1  8  1  0  0  0  0
  2 19  2  0  0  0  0
  3  4  1  0  0  0  0
  3  8  1  0  0  0  0
  3 10  1  0  0  0  0
  4 12  2  0  0  0  0
  5 10  2  0  0  0  0
  5 17  1  0  0  0  0
  6 19  1  0  0  0  0
  6 24  1  0  0  0  0
  7 23  3  0  0  0  0
  8  9  2  0  0  0  0
  9 11  1  0  0  0  0
  9 12  1  0  0  0  0
 10 13  1  0  0  0  0
 11 15  2  0  0  0  0
 11 16  1  0  0  0  0
 13 18  2  0  0  0  0
 14 17  2  0  0  0  0
 14 18  1  0  0  0  0
 14 19  1  0  0  0  0
 15 21  1  0  0  0  0
 16 22  2  0  0  0  0
 20 21  2  0  0  0  0
 20 22  1  0  0  0  0
 20 23  1  0  0  0  0
 24 25  1  0  0  0  0
M  END
> <PUBCHEM_COMPOUND_ID_TYPE>
0

> <PUBCHEM_TOTAL_CHARGE>
0

> <PUBCHEM_SUBSTANCE_ID>
310932545

> <PUBCHEM_SUBSTANCE_VERSION>
1

> <PUBCHEM_EXT_DATASOURCE_NAME>
4488

> <PUBCHEM_EXT_DATASOURCE_REGID>
SCHEMBL16109921

> <PUBCHEM_SUBSTANCE_COMMENT>
InChI=1S/C18H15N5O2/c1-2-20-17(24)14-7-8-16(21-10-14)23-18(25)15(11-22-23)13-5-3-12(9-19)4-6-13/h3-8,10-11,25H,2H2,1H3,(H,20,24)
InChIKey=BJPJAQKLPWUXMS-UHFFFAOYSA-N

> <PUBCHEM_SUBSTANCE_SYNONYM>
SCHEMBL16109921

> <PUBCHEM_XREF_EXT_ID>
SCHEMBL16109921

> <PUBCHEM_EXT_DATASOURCE_URL>
https://www.surechembl.org/

> <PUBCHEM_EXT_SUBSTANCE_URL>
https://www.surechembl.org/chemical/SCHEMBL16109921

> <PUBCHEM_CID_ASSOCIATIONS>
117601075  1

> <PUBCHEM_COORDINATE_TYPE>
1
3

$$$$
