310944206
  -OEChem-07211613022D

 33 37  0     1  0  0  0  0  0999 V2000
    2.4871   -0.0777    0.0000 O   0  0  0  0  0  0  0  0  0  0  0  0
    5.0186   -1.6988    0.0000 O   0  0  0  0  0  0  0  0  0  0  0  0
    5.5404   -0.3220    0.0000 O   0  0  0  0  0  0  0  0  0  0  0  0
    2.8757   -1.4767    0.0000 N   0  0  0  0  0  0  0  0  0  0  0  0
    0.1110   -0.3775    0.0000 N   0  0  0  0  0  0  0  0  0  0  0  0
   -4.2192    1.2768    0.0000 N   0  0  0  0  0  0  0  0  0  0  0  0
   -2.0541    0.8660    0.0000 N   0  0  0  0  0  0  0  0  0  0  0  0
   -2.7758    1.2768    0.0000 N   0  0  0  0  0  0  0  0  0  0  0  0
   -4.3080    2.0985    0.0000 N   0  0  0  0  0  0  0  0  0  0  0  0
   -5.1296    2.2651    0.0000 N   0  0  0  0  0  0  0  0  0  0  0  0
   -5.5404    1.5544    0.0000 N   0  0  0  0  0  0  0  0  0  0  0  0
    1.5434   -1.1991    0.0000 C   0  0  0  0  0  0  0  0  0  0  0  0
    2.2984   -0.8771    0.0000 C   0  0  0  0  0  0  0  0  0  0  0  0
    3.7085   -1.4101    0.0000 C   0  0  0  0  0  0  0  0  0  0  0  0
    1.5544   -2.0097    0.0000 C   0  0  0  0  0  0  0  0  0  0  0  0
    2.3539   -2.2651    0.0000 C   0  0  0  0  0  0  0  0  0  0  0  0
    0.8217   -1.5988    0.0000 C   0  0  0  0  0  0  0  0  0  0  0  0
    1.5544   -0.3775    0.0000 C   0  0  0  0  0  0  0  0  0  0  0  0
    4.1082   -0.6773    0.0000 C   0  0  0  0  0  0  0  0  0  0  0  0
    0.1110   -1.1991    0.0000 C   0  0  0  0  0  0  0  0  0  0  0  0
    0.8327    0.0444    0.0000 C   0  0  0  0  0  0  0  0  0  0  0  0
    4.2747   -2.0097    0.0000 C   0  0  0  0  0  0  0  0  0  0  0  0
    4.9076   -0.8660    0.0000 C   0  0  0  0  0  0  0  0  0  0  0  0
   -0.6107    0.0444    0.0000 C   0  0  3  0  0  0  0  0  0  0  0  0
   -2.0541    0.0444    0.0000 C   0  0  0  0  0  0  0  0  0  0  0  0
   -1.3213   -0.3664    0.0000 C   0  0  0  0  0  0  0  0  0  0  0  0
   -3.4975    0.8660    0.0000 C   0  0  0  0  0  0  0  0  0  0  0  0
   -2.7758   -0.3664    0.0000 C   0  0  0  0  0  0  0  0  0  0  0  0
    3.7639    0.0666    0.0000 C   0  0  0  0  0  0  0  0  0  0  0  0
   -3.4975    0.0444    0.0000 C   0  0  0  0  0  0  0  0  0  0  0  0
   -0.6107    0.8660    0.0000 C   0  0  0  0  0  0  0  0  0  0  0  0
   -4.9742    0.9438    0.0000 C   0  0  0  0  0  0  0  0  0  0  0  0
   -2.7646   -1.2102    0.0000 C   0  0  0  0  0  0  0  0  0  0  0  0
  1 13  2  0  0  0  0
  2 22  1  0  0  0  0
  2 23  1  0  0  0  0
  3 23  2  0  0  0  0
  4 13  1  0  0  0  0
  4 14  1  0  0  0  0
  4 16  1  0  0  0  0
  5 20  1  0  0  0  0
  5 21  1  0  0  0  0
  5 24  1  0  0  0  0
  6  9  1  0  0  0  0
  6 27  1  0  0  0  0
  6 32  1  0  0  0  0
  7  8  1  0  0  0  0
  7 25  2  0  0  0  0
  8 27  2  0  0  0  0
  9 10  2  0  0  0  0
 10 11  1  0  0  0  0
 11 32  2  0  0  0  0
 12 13  1  0  0  0  0
 12 15  1  0  0  0  0
 12 17  1  0  0  0  0
 12 18  1  0  0  0  0
 14 19  2  0  0  0  0
 14 22  1  0  0  0  0
 15 16  2  0  0  0  0
 17 20  1  0  0  0  0
 18 21  1  0  0  0  0
 19 23  1  0  0  0  0
 19 29  1  0  0  0  0
 24 26  1  0  0  0  0
 24 31  1  6  0  0  0
 25 26  1  0  0  0  0
 25 28  1  0  0  0  0
 27 30  1  0  0  0  0
 28 30  2  0  0  0  0
 28 33  1  0  0  0  0
M  END
> <PUBCHEM_COMPOUND_ID_TYPE>
0

> <PUBCHEM_TOTAL_CHARGE>
0

> <PUBCHEM_SUBSTANCE_ID>
310944206

> <PUBCHEM_SUBSTANCE_VERSION>
1

> <PUBCHEM_EXT_DATASOURCE_NAME>
4488

> <PUBCHEM_EXT_DATASOURCE_REGID>
SCHEMBL16122281

> <PUBCHEM_SUBSTANCE_COMMENT>
InChI=1S/C22H26N8O3/c1-14-10-19(30-13-23-26-27-30)25-24-17(14)11-15(2)28-7-4-22(5-8-28)6-9-29(21(22)32)18-12-33-20(31)16(18)3/h6,9-10,13,15H,4-5,7-8,11-12H2,1-3H3/t15-/m0/s1
InChIKey=HASYOWPWYRDOQJ-HNNXBMFYSA-N

> <PUBCHEM_SUBSTANCE_SYNONYM>
SCHEMBL16122281

> <PUBCHEM_XREF_EXT_ID>
SCHEMBL16122281

> <PUBCHEM_EXT_DATASOURCE_URL>
https://www.surechembl.org/

> <PUBCHEM_EXT_SUBSTANCE_URL>
https://www.surechembl.org/chemical/SCHEMBL16122281

> <PUBCHEM_CID_ASSOCIATIONS>
117610477  1

> <PUBCHEM_COORDINATE_TYPE>
1
3

> <PUBCHEM_BONDANNOTATIONS>
24  31  6

$$$$
