310943140
  -OEChem-07211613022D

 39 43  0     0  0  0  0  0  0999 V2000
    4.6429   -1.1162    0.0000 F   0  0  0  0  0  0  0  0  0  0  0  0
    3.8341   -1.9089    0.0000 F   0  0  0  0  0  0  0  0  0  0  0  0
    3.0576   -1.1001    0.0000 F   0  0  0  0  0  0  0  0  0  0  0  0
   -3.2516   -0.2751    0.0000 O   0  0  0  0  0  0  0  0  0  0  0  0
   -4.5297    2.4428    0.0000 O   0  0  0  0  0  0  0  0  0  0  0  0
    2.4266    2.1840    0.0000 O   0  0  0  0  0  0  0  0  0  0  0  0
   -3.2516   -2.7340    0.0000 O   0  0  0  0  0  0  0  0  0  0  0  0
   -3.2516    1.4236    0.0000 N   0  0  0  0  0  0  0  0  0  0  0  0
   -1.8280   -0.2751    0.0000 N   0  0  0  0  0  0  0  0  0  0  0  0
    0.2912    2.6046    0.0000 N   0  0  0  0  0  0  0  0  0  0  0  0
    1.7148    0.9706    0.0000 N   0  0  0  0  0  0  0  0  0  0  0  0
    4.5458    0.1456    0.0000 N   0  0  0  0  0  0  0  0  0  0  0  0
   -1.1162    0.9706    0.0000 C   0  0  0  0  0  0  0  0  0  0  0  0
   -2.5399    0.9706    0.0000 C   0  0  0  0  0  0  0  0  0  0  0  0
   -0.4206    1.3751    0.0000 C   0  0  0  0  0  0  0  0  0  0  0  0
   -2.5561    0.1456    0.0000 C   0  0  0  0  0  0  0  0  0  0  0  0
   -1.8442    1.3751    0.0000 C   0  0  0  0  0  0  0  0  0  0  0  0
   -0.4044    2.2001    0.0000 C   0  0  0  0  0  0  0  0  0  0  0  0
   -1.1324    0.1456    0.0000 C   0  0  0  0  0  0  0  0  0  0  0  0
    0.3074    0.9706    0.0000 C   0  0  0  0  0  0  0  0  0  0  0  0
    1.0030    1.3751    0.0000 C   0  0  0  0  0  0  0  0  0  0  0  0
    3.1384    0.9706    0.0000 C   0  0  0  0  0  0  0  0  0  0  0  0
    2.4266    1.3589    0.0000 C   0  0  0  0  0  0  0  0  0  0  0  0
    3.8503   -0.2589    0.0000 C   0  0  0  0  0  0  0  0  0  0  0  0
    1.0192    2.1840    0.0000 C   0  0  0  0  0  0  0  0  0  0  0  0
    3.8341   -1.1001    0.0000 C   0  0  0  0  0  0  0  0  0  0  0  0
    3.1384    0.1456    0.0000 C   0  0  0  0  0  0  0  0  0  0  0  0
   -3.9797    1.1324    0.0000 C   0  0  0  0  0  0  0  0  0  0  0  0
   -3.1222    2.2325    0.0000 C   0  0  0  0  0  0  0  0  0  0  0  0
   -3.2516   -1.0839    0.0000 C   0  0  0  0  0  0  0  0  0  0  0  0
    3.8341    1.3751    0.0000 C   0  0  0  0  0  0  0  0  0  0  0  0
   -1.1324    2.5884    0.0000 C   0  0  0  0  0  0  0  0  0  0  0  0
    4.5458    0.9706    0.0000 C   0  0  0  0  0  0  0  0  0  0  0  0
   -4.6429    1.6340    0.0000 C   0  0  0  0  0  0  0  0  0  0  0  0
   -3.7370    2.7340    0.0000 C   0  0  0  0  0  0  0  0  0  0  0  0
   -2.5399   -1.5045    0.0000 C   0  0  0  0  0  0  0  0  0  0  0  0
   -3.9635   -1.5045    0.0000 C   0  0  0  0  0  0  0  0  0  0  0  0
   -2.5561   -2.3295    0.0000 C   0  0  0  0  0  0  0  0  0  0  0  0
   -3.9635   -2.3134    0.0000 C   0  0  0  0  0  0  0  0  0  0  0  0
  1 26  1  0  0  0  0
  2 26  1  0  0  0  0
  3 26  1  0  0  0  0
  4 16  1  0  0  0  0
  4 30  1  0  0  0  0
  5 34  1  0  0  0  0
  5 35  1  0  0  0  0
  6 23  2  0  0  0  0
  7 38  1  0  0  0  0
  7 39  1  0  0  0  0
  8 14  1  0  0  0  0
  8 28  1  0  0  0  0
  8 29  1  0  0  0  0
  9 16  1  0  0  0  0
  9 19  2  0  0  0  0
 10 18  2  0  0  0  0
 10 25  1  0  0  0  0
 11 21  1  0  0  0  0
 11 23  1  0  0  0  0
 12 24  2  0  0  0  0
 12 33  1  0  0  0  0
 13 15  1  0  0  0  0
 13 17  2  0  0  0  0
 13 19  1  0  0  0  0
 14 16  2  0  0  0  0
 14 17  1  0  0  0  0
 15 18  1  0  0  0  0
 15 20  2  0  0  0  0
 18 32  1  0  0  0  0
 20 21  1  0  0  0  0
 21 25  2  0  0  0  0
 22 23  1  0  0  0  0
 22 27  2  0  0  0  0
 22 31  1  0  0  0  0
 24 26  1  0  0  0  0
 24 27  1  0  0  0  0
 28 34  1  0  0  0  0
 29 35  1  0  0  0  0
 30 36  1  0  0  0  0
 30 37  1  0  0  0  0
 31 33  2  0  0  0  0
 36 38  1  0  0  0  0
 37 39  1  0  0  0  0
M  END
> <PUBCHEM_COMPOUND_ID_TYPE>
0

> <PUBCHEM_TOTAL_CHARGE>
0

> <PUBCHEM_SUBSTANCE_ID>
310943140

> <PUBCHEM_SUBSTANCE_VERSION>
1

> <PUBCHEM_EXT_DATASOURCE_NAME>
4488

> <PUBCHEM_EXT_DATASOURCE_REGID>
SCHEMBL16121200

> <PUBCHEM_SUBSTANCE_COMMENT>
InChI=1S/C27H28F3N5O4/c1-17-22(14-20(16-32-17)34-25(36)18-2-5-31-24(13-18)27(28,29)30)19-12-23(35-6-10-38-11-7-35)26(33-15-19)39-21-3-8-37-9-4-21/h2,5,12-16,21H,3-4,6-11H2,1H3,(H,34,36)
InChIKey=QMDQSLNRBYVBCO-UHFFFAOYSA-N

> <PUBCHEM_SUBSTANCE_SYNONYM>
SCHEMBL16121200

> <PUBCHEM_XREF_EXT_ID>
SCHEMBL16121200

> <PUBCHEM_EXT_DATASOURCE_URL>
https://www.surechembl.org/

> <PUBCHEM_EXT_SUBSTANCE_URL>
https://www.surechembl.org/chemical/SCHEMBL16121200

> <PUBCHEM_CID_ASSOCIATIONS>
117609570  1

> <PUBCHEM_COORDINATE_TYPE>
1
3

$$$$
