310935937
  -OEChem-07211613022D

 27 29  0     0  0  0  0  0  0999 V2000
    3.6326   -0.8603    0.0000 F   0  0  0  0  0  0  0  0  0  0  0  0
    2.1987    0.0000    0.0000 F   0  0  0  0  0  0  0  0  0  0  0  0
    0.7170   -3.2981    0.0000 O   0  0  0  0  0  0  0  0  0  0  0  0
    4.3018   -9.5595    0.0000 O   0  0  0  0  0  0  0  0  0  0  0  0
    1.4339   -4.5408    0.0000 N   0  0  0  0  0  0  0  0  0  0  0  0
    4.3018   -7.0263    0.0000 N   0  0  0  0  0  0  0  0  0  0  0  0
    2.8679   -7.0263    0.0000 N   0  0  0  0  0  0  0  0  0  0  0  0
    5.0187   -8.3168    0.0000 N   0  0  0  0  0  0  0  0  0  0  0  0
    2.1509   -3.2981    0.0000 C   0  0  0  0  0  0  0  0  0  0  0  0
    2.1509   -2.4855    0.0000 C   0  0  0  0  0  0  0  0  0  0  0  0
    1.4339   -3.6804    0.0000 C   0  0  0  0  0  0  0  0  0  0  0  0
    2.8679   -4.5408    0.0000 C   0  0  0  0  0  0  0  0  0  0  0  0
    2.8679   -3.7282    0.0000 C   0  0  0  0  0  0  0  0  0  0  0  0
    2.8679   -2.0553    0.0000 C   0  0  0  0  0  0  0  0  0  0  0  0
    2.9156   -1.2428    0.0000 C   0  0  0  0  0  0  0  0  0  0  0  0
    1.4339   -2.0553    0.0000 C   0  0  0  0  0  0  0  0  0  0  0  0
    2.1509   -4.9232    0.0000 C   0  0  0  0  0  0  0  0  0  0  0  0
    3.5849   -4.9710    0.0000 C   0  0  0  0  0  0  0  0  0  0  0  0
    2.1987   -0.8126    0.0000 C   0  0  0  0  0  0  0  0  0  0  0  0
    3.5849   -5.7835    0.0000 C   0  0  0  0  0  0  0  0  0  0  0  0
    1.4818   -1.2428    0.0000 C   0  0  0  0  0  0  0  0  0  0  0  0
    4.3018   -6.2137    0.0000 C   0  0  0  0  0  0  0  0  0  0  0  0
    2.8679   -6.2137    0.0000 C   0  0  0  0  0  0  0  0  0  0  0  0
    3.5849   -7.5043    0.0000 C   0  0  0  0  0  0  0  0  0  0  0  0
    3.5849   -8.3168    0.0000 C   0  0  0  0  0  0  0  0  0  0  0  0
    0.0000   -3.6804    0.0000 C   0  0  0  0  0  0  0  0  0  0  0  0
    4.3018   -8.7470    0.0000 C   0  0  0  0  0  0  0  0  0  0  0  0
  1 15  1  0  0  0  0
  2 19  1  0  0  0  0
  3 11  1  0  0  0  0
  3 26  1  0  0  0  0
  4 27  2  0  0  0  0
  5 11  2  0  0  0  0
  5 17  1  0  0  0  0
  6 22  1  0  0  0  0
  6 24  2  0  0  0  0
  7 23  2  0  0  0  0
  7 24  1  0  0  0  0
  8 27  1  0  0  0  0
  9 10  1  0  0  0  0
  9 11  1  0  0  0  0
  9 13  2  0  0  0  0
 10 14  1  0  0  0  0
 10 16  2  0  0  0  0
 12 13  1  0  0  0  0
 12 17  2  0  0  0  0
 12 18  1  0  0  0  0
 14 15  2  0  0  0  0
 15 19  1  0  0  0  0
 16 21  1  0  0  0  0
 18 20  1  0  0  0  0
 19 21  2  0  0  0  0
 20 22  2  0  0  0  0
 20 23  1  0  0  0  0
 24 25  1  0  0  0  0
 25 27  1  0  0  0  0
M  END
> <PUBCHEM_COMPOUND_ID_TYPE>
0

> <PUBCHEM_TOTAL_CHARGE>
0

> <PUBCHEM_SUBSTANCE_ID>
310935937

> <PUBCHEM_SUBSTANCE_VERSION>
1

> <PUBCHEM_EXT_DATASOURCE_NAME>
4488

> <PUBCHEM_EXT_DATASOURCE_REGID>
SCHEMBL16113534

> <PUBCHEM_SUBSTANCE_COMMENT>
InChI=1S/C19H16F2N4O2/c1-27-19-14(13-2-3-15(20)16(21)6-13)5-11(8-25-19)4-12-9-23-18(24-10-12)7-17(22)26/h2-3,5-6,8-10H,4,7H2,1H3,(H2,22,26)
InChIKey=JZSVWUWCCAJQOM-UHFFFAOYSA-N

> <PUBCHEM_SUBSTANCE_SYNONYM>
SCHEMBL16113534

> <PUBCHEM_XREF_EXT_ID>
SCHEMBL16113534

> <PUBCHEM_EXT_DATASOURCE_URL>
https://www.surechembl.org/

> <PUBCHEM_EXT_SUBSTANCE_URL>
https://www.surechembl.org/chemical/SCHEMBL16113534

> <PUBCHEM_CID_ASSOCIATIONS>
117603918  1

> <PUBCHEM_COORDINATE_TYPE>
1
3

$$$$
