310943244
  -OEChem-07211613022D

 40 44  0     1  0  0  0  0  0999 V2000
    4.7199   -1.0631    0.0000 F   0  0  0  0  0  0  0  0  0  0  0  0
    3.9134   -1.8513    0.0000 F   0  0  0  0  0  0  0  0  0  0  0  0
    3.1435   -1.0448    0.0000 F   0  0  0  0  0  0  0  0  0  0  0  0
   -1.8422   -1.0265    0.0000 F   0  0  0  0  0  0  0  0  0  0  0  0
   -3.2902   -0.2016    0.0000 O   0  0  0  0  0  0  0  0  0  0  0  0
   -4.7199    2.2729    0.0000 O   0  0  0  0  0  0  0  0  0  0  0  0
    2.4837    2.2545    0.0000 O   0  0  0  0  0  0  0  0  0  0  0  0
   -3.2902   -2.6945    0.0000 O   0  0  0  0  0  0  0  0  0  0  0  0
   -3.2902    1.4480    0.0000 N   0  0  0  0  0  0  0  0  0  0  0  0
   -1.8422   -0.2016    0.0000 N   0  0  0  0  0  0  0  0  0  0  0  0
    0.3208    2.6761    0.0000 N   0  0  0  0  0  0  0  0  0  0  0  0
    1.7505    1.0265    0.0000 N   0  0  0  0  0  0  0  0  0  0  0  0
   -2.5570    1.0631    0.0000 C   0  0  0  0  0  0  0  0  0  0  0  0
   -1.1273    1.0448    0.0000 C   0  0  0  0  0  0  0  0  0  0  0  0
   -0.4124    1.4480    0.0000 C   0  0  0  0  0  0  0  0  0  0  0  0
   -2.5753    0.2200    0.0000 C   0  0  0  0  0  0  0  0  0  0  0  0
   -1.8788    1.4480    0.0000 C   0  0  0  0  0  0  0  0  0  0  0  0
   -0.3941    2.2729    0.0000 C   0  0  0  0  0  0  0  0  0  0  0  0
   -1.1456    0.2016    0.0000 C   0  0  0  0  0  0  0  0  0  0  0  0
    0.3391    1.0265    0.0000 C   0  0  0  0  0  0  0  0  0  0  0  0
    1.0539    1.4480    0.0000 C   0  0  0  0  0  0  0  0  0  0  0  0
   -3.2902   -1.0265    0.0000 C   0  0  3  0  0  0  0  0  0  0  0  0
    3.1985    1.0265    0.0000 C   0  0  0  0  0  0  0  0  0  0  0  0
    1.0539    2.2545    0.0000 C   0  0  0  0  0  0  0  0  0  0  0  0
    2.4654    1.4297    0.0000 C   0  0  0  0  0  0  0  0  0  0  0  0
   -3.2902    2.2912    0.0000 C   0  0  0  0  0  0  0  0  0  0  0  0
   -3.9867    1.0448    0.0000 C   0  0  0  0  0  0  0  0  0  0  0  0
    3.9317   -0.2016    0.0000 C   0  0  0  0  0  0  0  0  0  0  0  0
   -2.5570   -1.4480    0.0000 C   0  0  3  0  0  0  0  0  0  0  0  0
    3.9134   -1.0448    0.0000 C   0  0  0  0  0  0  0  0  0  0  0  0
    3.2169    0.2016    0.0000 C   0  0  0  0  0  0  0  0  0  0  0  0
   -3.9867   -1.4297    0.0000 C   0  0  0  0  0  0  0  0  0  0  0  0
   -1.0907    2.6945    0.0000 C   0  0  0  0  0  0  0  0  0  0  0  0
    3.8951    1.4297    0.0000 C   0  0  0  0  0  0  0  0  0  0  0  0
    4.6282    0.2016    0.0000 C   0  0  0  0  0  0  0  0  0  0  0  0
   -4.0050    2.6945    0.0000 C   0  0  0  0  0  0  0  0  0  0  0  0
   -4.7015    1.4480    0.0000 C   0  0  0  0  0  0  0  0  0  0  0  0
    4.6282    1.0265    0.0000 C   0  0  0  0  0  0  0  0  0  0  0  0
   -2.5753   -2.2545    0.0000 C   0  0  0  0  0  0  0  0  0  0  0  0
   -4.0050   -2.2545    0.0000 C   0  0  0  0  0  0  0  0  0  0  0  0
  1 30  1  0  0  0  0
  2 30  1  0  0  0  0
  3 30  1  0  0  0  0
 29  4  1  6  0  0  0
  5 16  1  0  0  0  0
 22  5  1  6  0  0  0
  6 36  1  0  0  0  0
  6 37  1  0  0  0  0
  7 25  2  0  0  0  0
  8 39  1  0  0  0  0
  8 40  1  0  0  0  0
  9 13  1  0  0  0  0
  9 26  1  0  0  0  0
  9 27  1  0  0  0  0
 10 16  1  0  0  0  0
 10 19  2  0  0  0  0
 11 18  1  0  0  0  0
 11 24  2  0  0  0  0
 12 21  1  0  0  0  0
 12 25  1  0  0  0  0
 13 16  2  0  0  0  0
 13 17  1  0  0  0  0
 14 15  1  0  0  0  0
 14 17  2  0  0  0  0
 14 19  1  0  0  0  0
 15 18  2  0  0  0  0
 15 20  1  0  0  0  0
 18 33  1  0  0  0  0
 20 21  2  0  0  0  0
 21 24  1  0  0  0  0
 22 29  1  0  0  0  0
 22 32  1  0  0  0  0
 23 25  1  0  0  0  0
 23 31  2  0  0  0  0
 23 34  1  0  0  0  0
 26 36  1  0  0  0  0
 27 37  1  0  0  0  0
 28 30  1  0  0  0  0
 28 31  1  0  0  0  0
 28 35  2  0  0  0  0
 29 39  1  0  0  0  0
 32 40  1  0  0  0  0
 34 38  2  0  0  0  0
 35 38  1  0  0  0  0
M  END
> <PUBCHEM_COMPOUND_ID_TYPE>
0

> <PUBCHEM_TOTAL_CHARGE>
0

> <PUBCHEM_SUBSTANCE_ID>
310943244

> <PUBCHEM_SUBSTANCE_VERSION>
1

> <PUBCHEM_EXT_DATASOURCE_NAME>
4488

> <PUBCHEM_EXT_DATASOURCE_REGID>
SCHEMBL16121306

> <PUBCHEM_SUBSTANCE_COMMENT>
InChI=1S/C28H28F4N4O4/c1-17-22(13-21(15-33-17)35-26(37)18-3-2-4-20(11-18)28(30,31)32)19-12-24(36-6-9-38-10-7-36)27(34-14-19)40-25-5-8-39-16-23(25)29/h2-4,11-15,23,25H,5-10,16H2,1H3,(H,35,37)/t23-,25+/m1/s1
InChIKey=HVTUZZBOLLPTQC-NOZRDPDXSA-N

> <PUBCHEM_SUBSTANCE_SYNONYM>
SCHEMBL16121306

> <PUBCHEM_XREF_EXT_ID>
SCHEMBL16121306

> <PUBCHEM_EXT_DATASOURCE_URL>
https://www.surechembl.org/

> <PUBCHEM_EXT_SUBSTANCE_URL>
https://www.surechembl.org/chemical/SCHEMBL16121306

> <PUBCHEM_CID_ASSOCIATIONS>
117609669  1

> <PUBCHEM_COORDINATE_TYPE>
1
3

> <PUBCHEM_BONDANNOTATIONS>
29  4  6
22  5  6

$$$$
