310940396
  -OEChem-07211613022D

 16 17  0     0  0  0  0  0  0999 V2000
   -1.7877   -0.0720    0.0000 O   0  0  0  0  0  0  0  0  0  0  0  0
    3.1824    0.4151    0.0000 O   0  0  0  0  0  0  0  0  0  0  0  0
    0.3155    0.4151    0.0000 N   0  0  0  0  0  0  0  0  0  0  0  0
   -1.1236    0.4372    0.0000 C   0  0  0  0  0  0  0  0  0  0  0  0
    1.0350    0.0055    0.0000 C   0  0  0  0  0  0  0  0  0  0  0  0
   -2.4629    0.4372    0.0000 C   0  0  0  0  0  0  0  0  0  0  0  0
   -0.4151    0.0166    0.0000 C   0  0  0  0  0  0  0  0  0  0  0  0
   -1.3781    1.2231    0.0000 C   0  0  0  0  0  0  0  0  0  0  0  0
    2.4519    0.0166    0.0000 C   0  0  0  0  0  0  0  0  0  0  0  0
    1.7323    0.4262    0.0000 C   0  0  0  0  0  0  0  0  0  0  0  0
   -2.1973    1.2231    0.0000 C   0  0  0  0  0  0  0  0  0  0  0  0
    1.0350   -0.8136    0.0000 C   0  0  0  0  0  0  0  0  0  0  0  0
    2.4519   -0.8136    0.0000 C   0  0  0  0  0  0  0  0  0  0  0  0
    1.7434   -1.2231    0.0000 C   0  0  0  0  0  0  0  0  0  0  0  0
   -3.2045   -0.0055    0.0000 C   0  0  0  0  0  0  0  0  0  0  0  0
    3.2045    1.2231    0.0000 C   0  0  0  0  0  0  0  0  0  0  0  0
  1  4  1  0  0  0  0
  1  6  1  0  0  0  0
  2  9  1  0  0  0  0
  2 16  1  0  0  0  0
  3  5  1  0  0  0  0
  3  7  2  0  0  0  0
  4  7  1  0  0  0  0
  4  8  2  0  0  0  0
  5 10  1  0  0  0  0
  5 12  2  0  0  0  0
  6 11  2  0  0  0  0
  6 15  1  0  0  0  0
  8 11  1  0  0  0  0
  9 10  2  0  0  0  0
  9 13  1  0  0  0  0
 12 14  1  0  0  0  0
 13 14  2  0  0  0  0
M  END
> <PUBCHEM_COMPOUND_ID_TYPE>
0

> <PUBCHEM_TOTAL_CHARGE>
0

> <PUBCHEM_SUBSTANCE_ID>
310940396

> <PUBCHEM_SUBSTANCE_VERSION>
1

> <PUBCHEM_EXT_DATASOURCE_NAME>
4488

> <PUBCHEM_EXT_DATASOURCE_REGID>
SCHEMBL16118342

> <PUBCHEM_SUBSTANCE_COMMENT>
InChI=1S/C13H13NO2/c1-10-6-7-13(16-10)9-14-11-4-3-5-12(8-11)15-2/h3-9H,1-2H3/b14-9+
InChIKey=VUJAXGZJGQPZRI-NTEUORMPSA-N

> <PUBCHEM_SUBSTANCE_SYNONYM>
SCHEMBL16118342

> <PUBCHEM_XREF_EXT_ID>
SCHEMBL16118342

> <PUBCHEM_EXT_DATASOURCE_URL>
https://www.surechembl.org/

> <PUBCHEM_EXT_SUBSTANCE_URL>
https://www.surechembl.org/chemical/SCHEMBL16118342

> <PUBCHEM_CID_ASSOCIATIONS>
21239972  1

> <PUBCHEM_COORDINATE_TYPE>
1
3

$$$$
