310943836
  -OEChem-07211613022D

 34 38  0     1  0  0  0  0  0999 V2000
    2.6390    1.0040    0.0000 O   0  0  0  0  0  0  0  0  0  0  0  0
    1.9477   -1.7063    0.0000 O   0  0  0  0  0  0  0  0  0  0  0  0
    5.6236    0.5431    0.0000 O   0  0  0  0  0  0  0  0  0  0  0  0
    5.5358    2.0245    0.0000 O   0  0  0  0  0  0  0  0  0  0  0  0
   -0.7845   -1.5746    0.0000 O   0  0  0  0  0  0  0  0  0  0  0  0
    3.6046   -0.0933    0.0000 N   0  0  0  0  0  0  0  0  0  0  0  0
    0.4225   -0.1591    0.0000 N   0  0  3  0  0  0  0  0  0  0  0  0
   -3.2754   -1.0479    0.0000 N   0  0  0  0  0  0  0  0  0  0  0  0
   -4.3069   -0.0603    0.0000 N   0  0  0  0  0  0  0  0  0  0  0  0
   -4.9323   -0.5980    0.0000 N   0  0  0  0  0  0  0  0  0  0  0  0
   -5.6236   -0.1701    0.0000 N   0  0  0  0  0  0  0  0  0  0  0  0
   -5.4371    0.6309    0.0000 N   0  0  0  0  0  0  0  0  0  0  0  0
    2.0574   -0.2689    0.0000 C   0  0  3  0  0  0  0  0  0  0  0  0
    2.7378    0.3127    0.0000 C   0  0  0  0  0  0  0  0  0  0  0  0
    1.5965   -0.9601    0.0000 C   0  0  3  0  0  0  0  0  0  0  0  0
    2.5073   -0.9272    0.0000 C   0  0  0  0  0  0  0  0  0  0  0  0
    4.3178    0.3127    0.0000 C   0  0  0  0  0  0  0  0  0  0  0  0
    1.7173    0.4554    0.0000 C   0  0  0  0  0  0  0  0  0  0  0  0
    3.2864   -0.8394    0.0000 C   0  0  0  0  0  0  0  0  0  0  0  0
    0.7736   -0.8833    0.0000 C   0  0  0  0  0  0  0  0  0  0  0  0
    4.4056    1.1247    0.0000 C   0  0  0  0  0  0  0  0  0  0  0  0
    0.8833    0.5322    0.0000 C   0  0  0  0  0  0  0  0  0  0  0  0
    5.0640   -0.0494    0.0000 C   0  0  0  0  0  0  0  0  0  0  0  0
    5.1847    1.2564    0.0000 C   0  0  0  0  0  0  0  0  0  0  0  0
   -0.5871   -0.0384    0.0000 C   0  0  0  0  0  0  0  0  0  0  0  0
   -1.1137   -0.8175    0.0000 C   0  0  3  0  0  0  0  0  0  0  0  0
   -1.9147   -0.6199    0.0000 C   0  0  0  0  0  0  0  0  0  0  0  0
   -2.4744   -1.2235    0.0000 C   0  0  0  0  0  0  0  0  0  0  0  0
    3.7912    1.6843    0.0000 C   0  0  0  0  0  0  0  0  0  0  0  0
   -3.5168   -0.2469    0.0000 C   0  0  0  0  0  0  0  0  0  0  0  0
   -2.1452    0.1591    0.0000 C   0  0  0  0  0  0  0  0  0  0  0  0
   -2.9462    0.3566    0.0000 C   0  0  0  0  0  0  0  0  0  0  0  0
   -4.6141    0.6968    0.0000 C   0  0  0  0  0  0  0  0  0  0  0  0
   -2.2330   -2.0245    0.0000 C   0  0  0  0  0  0  0  0  0  0  0  0
  1 14  2  0  0  0  0
  2 15  1  0  0  0  0
  3 23  1  0  0  0  0
  3 24  1  0  0  0  0
  4 24  2  0  0  0  0
 26  5  1  6  0  0  0
  6 14  1  0  0  0  0
  6 17  1  0  0  0  0
  6 19  1  0  0  0  0
  7 20  1  0  0  0  0
  7 22  1  0  0  0  0
  7 25  1  0  0  0  0
  8 28  1  0  0  0  0
  8 30  2  0  0  0  0
  9 10  1  0  0  0  0
  9 30  1  0  0  0  0
  9 33  1  0  0  0  0
 10 11  2  0  0  0  0
 11 12  1  0  0  0  0
 12 33  2  0  0  0  0
 13 14  1  0  0  0  0
 13 15  1  0  0  0  0
 13 16  1  0  0  0  0
 13 18  1  0  0  0  0
 15 20  1  0  0  0  0
 16 19  1  0  0  0  0
 17 21  2  0  0  0  0
 17 23  1  0  0  0  0
 18 22  1  0  0  0  0
 21 24  1  0  0  0  0
 21 29  1  0  0  0  0
 25 26  1  0  0  0  0
 26 27  1  0  0  0  0
 27 28  2  0  0  0  0
 27 31  1  0  0  0  0
 28 34  1  0  0  0  0
 30 32  1  0  0  0  0
 31 32  2  0  0  0  0
M  END
> <PUBCHEM_COMPOUND_ID_TYPE>
0

> <PUBCHEM_TOTAL_CHARGE>
0

> <PUBCHEM_SUBSTANCE_ID>
310943836

> <PUBCHEM_SUBSTANCE_VERSION>
1

> <PUBCHEM_EXT_DATASOURCE_NAME>
4488

> <PUBCHEM_EXT_DATASOURCE_REGID>
SCHEMBL16121907

> <PUBCHEM_SUBSTANCE_COMMENT>
InChI=1S/C22H27N7O5/c1-13-16(11-34-20(13)32)28-8-6-22(21(28)33)5-7-27(10-18(22)31)9-17(30)15-3-4-19(24-14(15)2)29-12-23-25-26-29/h3-4,12,17-18,30-31H,5-11H2,1-2H3/t17-,18?,22?/m0/s1
InChIKey=BMJOCZHUHUEDLK-LYGNXSNRSA-N

> <PUBCHEM_SUBSTANCE_SYNONYM>
SCHEMBL16121907

> <PUBCHEM_XREF_EXT_ID>
SCHEMBL16121907

> <PUBCHEM_EXT_DATASOURCE_URL>
https://www.surechembl.org/

> <PUBCHEM_EXT_SUBSTANCE_URL>
https://www.surechembl.org/chemical/SCHEMBL16121907

> <PUBCHEM_CID_ASSOCIATIONS>
117610174  1

> <PUBCHEM_COORDINATE_TYPE>
1
3

> <PUBCHEM_BONDANNOTATIONS>
26  5  6

$$$$
