310941860
  -OEChem-07211613022D

 34 39  0     0  0  0  0  0  0999 V2000
    3.5191    1.4035    0.0000 S   0  0  0  0  0  0  0  0  0  0  0  0
   -0.8781   -0.0346    0.0000 O   0  0  0  0  0  0  0  0  0  0  0  0
    1.9842   -0.8781    0.0000 O   0  0  0  0  0  0  0  0  0  0  0  0
    3.7126    2.2193    0.0000 O   0  0  0  0  0  0  0  0  0  0  0  0
    4.3211    1.6662    0.0000 O   0  0  0  0  0  0  0  0  0  0  0  0
    1.2791    1.2099    0.0000 N   0  0  0  0  0  0  0  0  0  0  0  0
    0.7398    2.4267    0.0000 N   0  0  0  0  0  0  0  0  0  0  0  0
    1.5694    2.5097    0.0000 N   0  0  0  0  0  0  0  0  0  0  0  0
    2.7171    1.5833    0.0000 N   0  0  0  0  0  0  0  0  0  0  0  0
    1.2791   -2.1087    0.0000 N   0  0  0  0  0  0  0  0  0  0  0  0
   -2.3438   -0.0069    0.0000 C   0  0  0  0  0  0  0  0  0  0  0  0
    0.5600   -0.0346    0.0000 C   0  0  0  0  0  0  0  0  0  0  0  0
   -0.1867    0.3802    0.0000 C   0  0  0  0  0  0  0  0  0  0  0  0
    0.5600    1.6385    0.0000 C   0  0  0  0  0  0  0  0  0  0  0  0
    1.8875    1.7768    0.0000 C   0  0  0  0  0  0  0  0  0  0  0  0
    1.2652    0.3802    0.0000 C   0  0  0  0  0  0  0  0  0  0  0  0
    0.5462   -0.8642    0.0000 C   0  0  0  0  0  0  0  0  0  0  0  0
   -0.1590    1.1961    0.0000 C   0  0  0  0  0  0  0  0  0  0  0  0
   -3.5467    0.4494    0.0000 C   0  0  0  0  0  0  0  0  0  0  0  0
   -3.9339   -0.0208    0.0000 C   0  0  0  0  0  0  0  0  0  0  0  0
   -3.1458   -1.0440    0.0000 C   0  0  0  0  0  0  0  0  0  0  0  0
   -2.7448    0.6707    0.0000 C   0  0  0  0  0  0  0  0  0  0  0  0
   -3.1042    0.2005    0.0000 C   0  0  0  0  0  0  0  0  0  0  0  0
   -2.3438   -0.8504    0.0000 C   0  0  0  0  0  0  0  0  0  0  0  0
   -1.6247    0.3802    0.0000 C   0  0  0  0  0  0  0  0  0  0  0  0
   -4.3211    0.6707    0.0000 C   0  0  0  0  0  0  0  0  0  0  0  0
   -3.5467   -0.3802    0.0000 C   0  0  0  0  0  0  0  0  0  0  0  0
   -3.9339   -0.8504    0.0000 C   0  0  0  0  0  0  0  0  0  0  0  0
    1.2791   -1.2791    0.0000 C   0  0  0  0  0  0  0  0  0  0  0  0
   -0.1590   -1.2652    0.0000 C   0  0  0  0  0  0  0  0  0  0  0  0
   -0.1590   -2.1087    0.0000 C   0  0  0  0  0  0  0  0  0  0  0  0
    0.5600   -2.5097    0.0000 C   0  0  0  0  0  0  0  0  0  0  0  0
    3.7818    0.6015    0.0000 C   0  0  0  0  0  0  0  0  0  0  0  0
    2.7309   -1.2929    0.0000 C   0  0  0  0  0  0  0  0  0  0  0  0
  1  4  2  0  0  0  0
  1  5  2  0  0  0  0
  1  9  1  0  0  0  0
  1 33  1  0  0  0  0
  2 13  1  0  0  0  0
  2 25  1  0  0  0  0
  3 29  1  0  0  0  0
  3 34  1  0  0  0  0
  6 14  1  0  0  0  0
  6 15  1  0  0  0  0
  6 16  1  0  0  0  0
  7  8  1  0  0  0  0
  7 14  2  0  0  0  0
  8 15  2  0  0  0  0
  9 15  1  0  0  0  0
 10 29  2  0  0  0  0
 10 32  1  0  0  0  0
 11 22  1  0  0  0  0
 11 23  1  0  0  0  0
 11 24  1  0  0  0  0
 11 25  1  0  0  0  0
 12 13  1  0  0  0  0
 12 16  2  0  0  0  0
 12 17  1  0  0  0  0
 13 18  2  0  0  0  0
 14 18  1  0  0  0  0
 17 29  1  0  0  0  0
 17 30  2  0  0  0  0
 19 22  1  0  0  0  0
 19 26  1  1  0  0  0
 19 27  1  0  0  0  0
 20 23  1  0  0  0  0
 20 26  1  0  0  0  0
 20 28  1  0  0  0  0
 21 24  1  0  0  0  0
 21 27  1  0  0  0  0
 21 28  1  0  0  0  0
 30 31  1  0  0  0  0
 31 32  2  0  0  0  0
M  END
> <PUBCHEM_COMPOUND_ID_TYPE>
0

> <PUBCHEM_TOTAL_CHARGE>
0

> <PUBCHEM_SUBSTANCE_ID>
310941860

> <PUBCHEM_SUBSTANCE_VERSION>
1

> <PUBCHEM_EXT_DATASOURCE_NAME>
4488

> <PUBCHEM_EXT_DATASOURCE_REGID>
SCHEMBL16119892

> <PUBCHEM_SUBSTANCE_COMMENT>
InChI=1S/C24H29N5O4S/c1-32-22-18(4-3-5-25-22)19-13-29-21(26-27-23(29)28-34(2,30)31)9-20(19)33-14-24-10-15-6-16(11-24)8-17(7-15)12-24/h3-5,9,13,15-17H,6-8,10-12,14H2,1-2H3,(H,27,28)/t15-,16?,17?,24?
InChIKey=RYEMTCRQJPHIDB-CRFYJIHUSA-N

> <PUBCHEM_SUBSTANCE_SYNONYM>
SCHEMBL16119892

> <PUBCHEM_XREF_EXT_ID>
SCHEMBL16119892

> <PUBCHEM_EXT_DATASOURCE_URL>
https://www.surechembl.org/

> <PUBCHEM_EXT_SUBSTANCE_URL>
https://www.surechembl.org/chemical/SCHEMBL16119892

> <PUBCHEM_CID_ASSOCIATIONS>
86270327  1

> <PUBCHEM_COORDINATE_TYPE>
1
3

> <PUBCHEM_BONDANNOTATIONS>
19  26  5

$$$$
