310947053
  -OEChem-07211613022D

 39 44  0     0  0  0  0  0  0999 V2000
   -0.9920   -1.8422    0.0000 F   0  0  0  0  0  0  0  0  0  0  0  0
   -2.4209   -2.6672    0.0000 O   0  0  0  0  0  0  0  0  0  0  0  0
   -3.8499   -0.1922    0.0000 O   0  0  0  0  0  0  0  0  0  0  0  0
    1.4473    2.8662    0.0000 O   0  0  0  0  0  0  0  0  0  0  0  0
   -2.0024    2.8662    0.0000 O   0  0  0  0  0  0  0  0  0  0  0  0
   -0.9920   -0.1922    0.0000 N   0  0  0  0  0  0  0  0  0  0  0  0
    0.4369   -0.1922    0.0000 N   0  0  0  0  0  0  0  0  0  0  0  0
   -0.2775    1.8703    0.0000 N   0  0  0  0  0  0  0  0  0  0  0  0
    1.8659   -0.1922    0.0000 N   0  0  0  0  0  0  0  0  0  0  0  0
    1.8659   -1.8422    0.0000 N   0  0  0  0  0  0  0  0  0  0  0  0
    4.0794    0.8877    0.0000 N   0  0  0  0  0  0  0  0  0  0  0  0
    4.5644    0.2203    0.0000 N   0  0  0  0  0  0  0  0  0  0  0  0
   -1.7065   -0.6047    0.0000 C   0  0  0  0  0  0  0  0  0  0  0  0
   -0.2775   -0.6047    0.0000 C   0  0  0  0  0  0  0  0  0  0  0  0
    1.1514   -0.6047    0.0000 C   0  0  0  0  0  0  0  0  0  0  0  0
   -1.7065   -1.4297    0.0000 C   0  0  0  0  0  0  0  0  0  0  0  0
    1.1514   -1.4297    0.0000 C   0  0  0  0  0  0  0  0  0  0  0  0
   -2.4209   -1.8422    0.0000 C   0  0  0  0  0  0  0  0  0  0  0  0
   -0.9920    0.6328    0.0000 C   0  0  0  0  0  0  0  0  0  0  0  0
   -2.4209   -0.1922    0.0000 C   0  0  0  0  0  0  0  0  0  0  0  0
   -0.2775   -1.4297    0.0000 C   0  0  0  0  0  0  0  0  0  0  0  0
    2.5803   -0.6047    0.0000 C   0  0  0  0  0  0  0  0  0  0  0  0
   -3.1354   -0.6047    0.0000 C   0  0  0  0  0  0  0  0  0  0  0  0
    0.4369   -1.8422    0.0000 C   0  0  0  0  0  0  0  0  0  0  0  0
    0.4369    2.2828    0.0000 C   0  0  0  0  0  0  0  0  0  0  0  0
   -0.9920    2.2828    0.0000 C   0  0  0  0  0  0  0  0  0  0  0  0
   -0.2775    1.0453    0.0000 C   0  0  0  0  0  0  0  0  0  0  0  0
   -3.1354   -1.4297    0.0000 C   0  0  0  0  0  0  0  0  0  0  0  0
    3.2948   -0.1922    0.0000 C   0  0  0  0  0  0  0  0  0  0  0  0
    2.5803   -1.4297    0.0000 C   0  0  0  0  0  0  0  0  0  0  0  0
    1.2338    2.0693    0.0000 C   0  0  0  0  0  0  0  0  0  0  0  0
    0.6505    3.0797    0.0000 C   0  0  0  0  0  0  0  0  0  0  0  0
   -1.2055    3.0797    0.0000 C   0  0  0  0  0  0  0  0  0  0  0  0
   -1.7889    2.0693    0.0000 C   0  0  0  0  0  0  0  0  0  0  0  0
    3.2948    0.6328    0.0000 C   0  0  0  0  0  0  0  0  0  0  0  0
    4.0794   -0.4471    0.0000 C   0  0  0  0  0  0  0  0  0  0  0  0
   -3.1354   -3.0797    0.0000 C   0  0  0  0  0  0  0  0  0  0  0  0
   -4.5644   -0.6047    0.0000 C   0  0  0  0  0  0  0  0  0  0  0  0
    4.4919    1.6022    0.0000 C   0  0  0  0  0  0  0  0  0  0  0  0
  1 16  1  0  0  0  0
  2 18  1  0  0  0  0
  2 37  1  0  0  0  0
  3 23  1  0  0  0  0
  3 38  1  0  0  0  0
  4 31  1  0  0  0  0
  4 32  1  0  0  0  0
  5 33  1  0  0  0  0
  5 34  1  0  0  0  0
  6 13  1  0  0  0  0
  6 14  1  0  0  0  0
  6 19  1  0  0  0  0
  7 14  1  0  0  0  0
  7 15  2  0  0  0  0
  8 25  1  0  0  0  0
  8 26  1  0  0  0  0
  8 27  1  0  0  0  0
  9 15  1  0  0  0  0
  9 22  2  0  0  0  0
 10 17  1  0  0  0  0
 10 30  2  0  0  0  0
 11 12  1  0  0  0  0
 11 35  1  0  0  0  0
 11 39  1  0  0  0  0
 12 36  2  0  0  0  0
 13 16  1  0  0  0  0
 13 20  2  0  0  0  0
 14 21  2  0  0  0  0
 15 17  1  0  0  0  0
 16 18  2  0  0  0  0
 17 24  2  0  0  0  0
 18 28  1  0  0  0  0
 19 27  1  0  0  0  0
 20 23  1  0  0  0  0
 21 24  1  0  0  0  0
 22 29  1  0  0  0  0
 22 30  1  0  0  0  0
 23 28  2  0  0  0  0
 25 31  1  0  0  0  0
 25 32  1  0  0  0  0
 26 33  1  0  0  0  0
 26 34  1  0  0  0  0
 29 35  2  0  0  0  0
 29 36  1  0  0  0  0
M  END
> <PUBCHEM_COMPOUND_ID_TYPE>
0

> <PUBCHEM_TOTAL_CHARGE>
0

> <PUBCHEM_SUBSTANCE_ID>
310947053

> <PUBCHEM_SUBSTANCE_VERSION>
1

> <PUBCHEM_EXT_DATASOURCE_NAME>
4488

> <PUBCHEM_EXT_DATASOURCE_REGID>
SCHEMBL16125206

> <PUBCHEM_SUBSTANCE_COMMENT>
InChI=1S/C27H30FN7O4/c1-33-12-17(10-30-33)22-11-29-21-4-5-25(32-27(21)31-22)35(23-8-20(36-2)9-24(37-3)26(23)28)7-6-34(18-13-38-14-18)19-15-39-16-19/h4-5,8-12,18-19H,6-7,13-16H2,1-3H3
InChIKey=UIFUBPXNIYZZMW-UHFFFAOYSA-N

> <PUBCHEM_SUBSTANCE_SYNONYM>
SCHEMBL16125206

> <PUBCHEM_XREF_EXT_ID>
SCHEMBL16125206

> <PUBCHEM_EXT_DATASOURCE_URL>
https://www.surechembl.org/

> <PUBCHEM_EXT_SUBSTANCE_URL>
https://www.surechembl.org/chemical/SCHEMBL16125206

> <PUBCHEM_CID_ASSOCIATIONS>
117612904  1

> <PUBCHEM_COORDINATE_TYPE>
1
3

$$$$
