310948780
  -OEChem-07211613022D

 33 37  0     1  0  0  0  0  0999 V2000
   -2.5847    1.8868    0.0000 O   0  0  0  0  0  0  0  0  0  0  0  0
   -0.6358   -3.3657    0.0000 O   0  0  0  0  0  0  0  0  0  0  0  0
    0.1797    1.7762    0.0000 N   0  0  0  0  0  0  0  0  0  0  0  0
   -0.1521    1.0159    0.0000 N   0  0  0  0  0  0  0  0  0  0  0  0
    0.4976   -2.4119    0.0000 N   0  0  0  0  0  0  0  0  0  0  0  0
   -1.5204    0.4769    0.0000 N   0  0  0  0  0  0  0  0  0  0  0  0
   -1.8799    3.1446    0.0000 N   0  0  0  0  0  0  0  0  0  0  0  0
    1.0504   -0.2281    0.0000 N   0  0  0  0  0  0  0  0  0  0  0  0
   -1.1472    1.9144    0.0000 C   0  0  0  0  0  0  0  0  0  0  0  0
   -0.4562    2.3290    0.0000 C   0  0  0  0  0  0  0  0  0  0  0  0
   -0.9813    1.1265    0.0000 C   0  0  0  0  0  0  0  0  0  0  0  0
    0.9813    1.9559    0.0000 C   0  0  3  0  0  0  0  0  0  0  0  0
   -0.7326   -1.8729    0.0000 C   0  0  0  0  0  0  0  0  0  0  0  0
   -0.1935   -1.2647    0.0000 C   0  0  0  0  0  0  0  0  0  0  0  0
   -1.8799    2.3152    0.0000 C   0  0  0  0  0  0  0  0  0  0  0  0
   -0.3041   -2.5778    0.0000 C   0  0  0  0  0  0  0  0  0  0  0  0
   -1.2578   -0.2972    0.0000 C   0  0  0  0  0  0  0  0  0  0  0  0
   -0.4562    3.1584    0.0000 C   0  0  0  0  0  0  0  0  0  0  0  0
    0.5806   -1.5827    0.0000 C   0  0  0  0  0  0  0  0  0  0  0  0
   -0.4562   -0.4769    0.0000 C   0  0  0  0  0  0  0  0  0  0  0  0
    1.1196   -2.9511    0.0000 C   0  0  0  0  0  0  0  0  0  0  0  0
    1.5481    1.3615    0.0000 C   0  0  3  0  0  0  0  0  0  0  0  0
   -1.5343   -1.7071    0.0000 C   0  0  0  0  0  0  0  0  0  0  0  0
   -1.7831   -0.9191    0.0000 C   0  0  0  0  0  0  0  0  0  0  0  0
   -1.1887    3.5592    0.0000 C   0  0  0  0  0  0  0  0  0  0  0  0
    1.2302    2.7437    0.0000 C   0  0  0  0  0  0  0  0  0  0  0  0
    2.3359    1.5412    0.0000 C   0  0  0  0  0  0  0  0  0  0  0  0
    1.2854    0.5736    0.0000 C   0  0  0  0  0  0  0  0  0  0  0  0
    2.0319    2.9234    0.0000 C   0  0  0  0  0  0  0  0  0  0  0  0
    0.5391   -3.5592    0.0000 C   0  0  0  0  0  0  0  0  0  0  0  0
    1.7140   -2.3843    0.0000 C   0  0  0  0  0  0  0  0  0  0  0  0
    1.7278   -3.5592    0.0000 C   0  0  0  0  0  0  0  0  0  0  0  0
    2.5847    2.3290    0.0000 C   0  0  0  0  0  0  0  0  0  0  0  0
  1 15  2  0  0  0  0
  2 16  2  0  0  0  0
  3  4  1  0  0  0  0
  3 10  1  0  0  0  0
 12  3  1  1  0  0  0
  4 11  2  0  0  0  0
  5 16  1  0  0  0  0
  5 19  1  0  0  0  0
  5 21  1  0  0  0  0
  6 11  1  0  0  0  0
  6 17  1  0  0  0  0
  7 15  1  0  0  0  0
  7 25  1  0  0  0  0
  8 28  3  0  0  0  0
  9 10  2  0  0  0  0
  9 11  1  0  0  0  0
  9 15  1  0  0  0  0
 10 18  1  0  0  0  0
 12 22  1  0  0  0  0
 12 26  1  0  0  0  0
 13 14  1  0  0  0  0
 13 16  1  0  0  0  0
 13 23  2  0  0  0  0
 14 19  1  0  0  0  0
 14 20  2  0  0  0  0
 17 20  1  0  0  0  0
 17 24  2  0  0  0  0
 18 25  2  0  0  0  0
 21 30  1  0  0  0  0
 21 31  1  0  0  0  0
 21 32  1  0  0  0  0
 22 27  1  0  0  0  0
 22 28  1  6  0  0  0
 23 24  1  0  0  0  0
 26 29  1  0  0  0  0
 27 33  1  0  0  0  0
 29 33  1  0  0  0  0
M  END
> <PUBCHEM_COMPOUND_ID_TYPE>
0

> <PUBCHEM_TOTAL_CHARGE>
0

> <PUBCHEM_SUBSTANCE_ID>
310948780

> <PUBCHEM_SUBSTANCE_VERSION>
1

> <PUBCHEM_EXT_DATASOURCE_NAME>
4488

> <PUBCHEM_EXT_DATASOURCE_REGID>
SCHEMBL16126964

> <PUBCHEM_SUBSTANCE_COMMENT>
InChI=1S/C25H28N6O2/c1-25(2,3)30-14-16-12-17(8-9-18(16)24(30)33)28-22-21-20(10-11-27-23(21)32)31(29-22)19-7-5-4-6-15(19)13-26/h8-12,15,19H,4-7,14H2,1-3H3,(H,27,32)(H,28,29)/t15-,19+/m1/s1
InChIKey=AMQXWQZKGXOBRL-BEFAXECRSA-N

> <PUBCHEM_SUBSTANCE_SYNONYM>
SCHEMBL16126964

> <PUBCHEM_XREF_EXT_ID>
SCHEMBL16126964

> <PUBCHEM_EXT_DATASOURCE_URL>
https://www.surechembl.org/

> <PUBCHEM_EXT_SUBSTANCE_URL>
https://www.surechembl.org/chemical/SCHEMBL16126964

> <PUBCHEM_CID_ASSOCIATIONS>
117614322  1

> <PUBCHEM_COORDINATE_TYPE>
1
3

> <PUBCHEM_BONDANNOTATIONS>
22  28  6
12  3  5

$$$$
