310947596
  -OEChem-07211613022D

 21 23  0     1  0  0  0  0  0999 V2000
    0.3013   16.3850    0.0000 Cl  0  0  0  0  0  0  0  0  0  0  0  0
   -3.4047   12.1560    0.0000 F   0  0  0  0  0  0  0  0  0  0  0  0
   -2.5797   14.1400    0.0000 O   0  0  0  0  0  0  0  0  0  0  0  0
   -1.3703   13.0840    0.0000 O   0  0  0  0  0  0  0  0  0  0  0  0
   -4.6274   14.0249    0.0000 O   0  0  0  0  0  0  0  0  0  0  0  0
   -1.1978   14.0676    0.0000 N   0  0  0  0  0  0  0  0  0  0  0  0
   -1.1978   15.4024    0.0000 N   0  0  0  0  0  0  0  0  0  0  0  0
    0.3013   13.9100    0.0000 N   0  0  0  0  0  0  0  0  0  0  0  0
    1.0158   15.1475    0.0000 N   0  0  0  0  0  0  0  0  0  0  0  0
   -1.9122   13.6551    0.0000 C   0  0  3  0  0  0  0  0  0  0  0  0
   -2.1672   12.8704    0.0000 C   0  0  3  0  0  0  0  0  0  0  0  0
   -0.4132   14.3225    0.0000 C   0  0  0  0  0  0  0  0  0  0  0  0
   -2.9922   12.8704    0.0000 C   0  0  3  0  0  0  0  0  0  0  0  0
   -0.4132   15.1475    0.0000 C   0  0  0  0  0  0  0  0  0  0  0  0
   -3.2471   13.6551    0.0000 C   0  0  3  0  0  0  0  0  0  0  0  0
   -1.6827   14.7350    0.0000 C   0  0  0  0  0  0  0  0  0  0  0  0
    0.3013   15.5600    0.0000 C   0  0  0  0  0  0  0  0  0  0  0  0
   -1.7547   12.1560    0.0000 C   0  0  0  0  0  0  0  0  0  0  0  0
    1.0158   14.3225    0.0000 C   0  0  0  0  0  0  0  0  0  0  0  0
   -3.8305   14.2384    0.0000 C   0  0  0  0  0  0  0  0  0  0  0  0
    1.7303   13.9100    0.0000 C   0  0  0  0  0  0  0  0  0  0  0  0
  1 17  1  0  0  0  0
 13  2  1  6  0  0  0
 10  3  1  6  0  0  0
  3 15  1  0  0  0  0
 11  4  1  1  0  0  0
  5 20  1  0  0  0  0
  6 10  1  0  0  0  0
  6 12  1  0  0  0  0
  6 16  1  0  0  0  0
  7 14  1  0  0  0  0
  7 16  2  0  0  0  0
  8 12  1  0  0  0  0
  8 19  2  0  0  0  0
  9 17  2  0  0  0  0
  9 19  1  0  0  0  0
 10 11  1  0  0  0  0
 11 13  1  0  0  0  0
 11 18  1  6  0  0  0
 12 14  2  0  0  0  0
 13 15  1  0  0  0  0
 14 17  1  0  0  0  0
 15 20  1  1  0  0  0
 19 21  1  0  0  0  0
M  END
> <PUBCHEM_COMPOUND_ID_TYPE>
0

> <PUBCHEM_TOTAL_CHARGE>
0

> <PUBCHEM_SUBSTANCE_ID>
310947596

> <PUBCHEM_SUBSTANCE_VERSION>
1

> <PUBCHEM_EXT_DATASOURCE_NAME>
4488

> <PUBCHEM_EXT_DATASOURCE_REGID>
SCHEMBL16125759

> <PUBCHEM_SUBSTANCE_COMMENT>
InChI=1S/C12H14ClFN4O3/c1-5-16-9(13)7-10(17-5)18(4-15-7)11-12(2,20)8(14)6(3-19)21-11/h4,6,8,11,19-20H,3H2,1-2H3/t6-,8-,11+,12+/m1/s1
InChIKey=YBSKNPCDJUZAMN-IDDGRHCESA-N

> <PUBCHEM_SUBSTANCE_SYNONYM>
SCHEMBL16125759

> <PUBCHEM_XREF_EXT_ID>
SCHEMBL16125759

> <PUBCHEM_EXT_DATASOURCE_URL>
https://www.surechembl.org/

> <PUBCHEM_EXT_SUBSTANCE_URL>
https://www.surechembl.org/chemical/SCHEMBL16125759

> <PUBCHEM_CID_ASSOCIATIONS>
117613318  1

> <PUBCHEM_COORDINATE_TYPE>
1
3

> <PUBCHEM_BONDANNOTATIONS>
11  18  6
15  20  5
13  2  6
10  3  6
11  4  5

$$$$
