310938238
  -OEChem-07211613022D

 22 24  0     0  0  0  0  0  0999 V2000
    0.0000   -5.2199    0.0000 F   0  0  0  0  0  0  0  0  0  0  0  0
    1.1054   -6.1411    0.0000 F   0  0  0  0  0  0  0  0  0  0  0  0
    0.2764   -5.9876    0.0000 F   0  0  0  0  0  0  0  0  0  0  0  0
    3.1934   -1.4432    0.0000 O   0  0  0  0  0  0  0  0  0  0  0  0
    2.1494   -4.9129    0.0000 O   0  0  0  0  0  0  0  0  0  0  0  0
    3.7461   -3.0398    0.0000 N   0  0  0  0  0  0  0  0  0  0  0  0
    1.9344   -1.8423    0.0000 N   0  0  0  0  0  0  0  0  0  0  0  0
    3.4697   -4.4523    0.0000 C   0  0  0  0  0  0  0  0  0  0  0  0
    2.9784   -2.8863    0.0000 C   0  0  0  0  0  0  0  0  0  0  0  0
    2.7021   -4.2988    0.0000 C   0  0  0  0  0  0  0  0  0  0  0  0
    2.7328   -2.1187    0.0000 C   0  0  0  0  0  0  0  0  0  0  0  0
    3.7461   -5.2199    0.0000 C   0  0  0  0  0  0  0  0  0  0  0  0
    2.7328   -0.7983    0.0000 C   0  0  0  0  0  0  0  0  0  0  0  0
    2.3950   -3.5004    0.0000 C   0  0  0  0  0  0  0  0  0  0  0  0
    4.0531   -3.8381    0.0000 C   0  0  0  0  0  0  0  0  0  0  0  0
    4.3295   -5.7726    0.0000 C   0  0  0  0  0  0  0  0  0  0  0  0
    3.5618   -6.0490    0.0000 C   0  0  0  0  0  0  0  0  0  0  0  0
    1.9344   -1.0440    0.0000 C   0  0  0  0  0  0  0  0  0  0  0  0
    1.3510   -4.7594    0.0000 C   0  0  0  0  0  0  0  0  0  0  0  0
    0.8291   -5.3735    0.0000 C   0  0  0  0  0  0  0  0  0  0  0  0
    2.9784    0.0000    0.0000 C   0  0  0  0  0  0  0  0  0  0  0  0
    2.1494   -0.2150    0.0000 C   0  0  0  0  0  0  0  0  0  0  0  0
  1 20  1  0  0  0  0
  2 20  1  0  0  0  0
  3 20  1  0  0  0  0
  4 11  1  0  0  0  0
  4 13  1  0  0  0  0
  5 10  1  0  0  0  0
  5 19  1  0  0  0  0
  6  9  1  0  0  0  0
  6 15  2  0  0  0  0
  7 11  2  0  0  0  0
  7 18  1  0  0  0  0
  8 10  2  0  0  0  0
  8 12  1  0  0  0  0
  8 15  1  0  0  0  0
  9 11  1  0  0  0  0
  9 14  2  0  0  0  0
 10 14  1  0  0  0  0
 12 16  1  0  0  0  0
 12 17  1  0  0  0  0
 13 18  1  0  0  0  0
 13 21  1  0  0  0  0
 13 22  1  0  0  0  0
 16 17  1  0  0  0  0
 19 20  1  0  0  0  0
M  END
> <PUBCHEM_COMPOUND_ID_TYPE>
0

> <PUBCHEM_TOTAL_CHARGE>
0

> <PUBCHEM_SUBSTANCE_ID>
310938238

> <PUBCHEM_SUBSTANCE_VERSION>
1

> <PUBCHEM_EXT_DATASOURCE_NAME>
4488

> <PUBCHEM_EXT_DATASOURCE_REGID>
SCHEMBL16116103

> <PUBCHEM_SUBSTANCE_COMMENT>
InChI=1S/C15H17F3N2O2/c1-14(2)7-20-13(22-14)11-5-12(21-8-15(16,17)18)10(6-19-11)9-3-4-9/h5-6,9H,3-4,7-8H2,1-2H3
InChIKey=OIJDLVWTTOVNHT-UHFFFAOYSA-N

> <PUBCHEM_SUBSTANCE_SYNONYM>
SCHEMBL16116103

> <PUBCHEM_XREF_EXT_ID>
SCHEMBL16116103

> <PUBCHEM_EXT_DATASOURCE_URL>
https://www.surechembl.org/

> <PUBCHEM_EXT_SUBSTANCE_URL>
https://www.surechembl.org/chemical/SCHEMBL16116103

> <PUBCHEM_CID_ASSOCIATIONS>
86275944  1

> <PUBCHEM_COORDINATE_TYPE>
1
3

$$$$
