310934221
  -OEChem-07211613022D

 28 30  0     0  0  0  0  0  0999 V2000
    4.4786   -0.7071    0.0000 S   0  0  0  0  0  0  0  0  0  0  0  0
    1.5714   -1.4143    0.0000 O   0  0  0  0  0  0  0  0  0  0  0  0
    1.5714    0.0000    0.0000 O   0  0  0  0  0  0  0  0  0  0  0  0
    5.3036   -0.7071    0.0000 O   0  0  0  0  0  0  0  0  0  0  0  0
    4.8714    0.0000    0.0000 O   0  0  0  0  0  0  0  0  0  0  0  0
    2.3964   -1.4143    0.0000 N   0  0  0  0  0  0  0  0  0  0  0  0
    2.7893   -0.7071    0.0000 C   0  0  0  0  0  0  0  0  0  0  0  0
    1.9643   -0.7071    0.0000 C   0  0  0  0  0  0  0  0  0  0  0  0
    3.2214   -1.4143    0.0000 C   0  0  0  0  0  0  0  0  0  0  0  0
    3.2214    0.0000    0.0000 C   0  0  0  0  0  0  0  0  0  0  0  0
    4.0464   -1.4143    0.0000 C   0  0  0  0  0  0  0  0  0  0  0  0
    4.0464    0.0000    0.0000 C   0  0  0  0  0  0  0  0  0  0  0  0
    2.8286   -2.1214    0.0000 C   0  0  0  0  0  0  0  0  0  0  0  0
    2.3964   -2.8679    0.0000 C   0  0  0  0  0  0  0  0  0  0  0  0
    1.6107   -2.8679    0.0000 C   0  0  0  0  0  0  0  0  0  0  0  0
    2.8286   -3.5750    0.0000 C   0  0  0  0  0  0  0  0  0  0  0  0
    1.6107   -4.2822    0.0000 C   0  0  0  0  0  0  0  0  0  0  0  0
    1.1786   -3.5750    0.0000 C   0  0  0  0  0  0  0  0  0  0  0  0
    2.4357   -4.2822    0.0000 C   0  0  0  0  0  0  0  0  0  0  0  0
    0.7464   -1.4143    0.0000 C   0  0  0  0  0  0  0  0  0  0  0  0
    1.2179   -5.0286    0.0000 C   0  0  0  0  0  0  0  0  0  0  0  0
    1.6107   -5.6964    0.0000 C   0  0  0  0  0  0  0  0  0  0  0  0
    1.2179   -6.4428    0.0000 C   0  0  0  0  0  0  0  0  0  0  0  0
    1.6107   -7.1500    0.0000 C   0  0  0  0  0  0  0  0  0  0  0  0
    0.3929   -6.4428    0.0000 C   0  0  0  0  0  0  0  0  0  0  0  0
    1.2179   -7.8571    0.0000 C   0  0  0  0  0  0  0  0  0  0  0  0
    0.0000   -7.1500    0.0000 C   0  0  0  0  0  0  0  0  0  0  0  0
    0.3929   -7.8571    0.0000 C   0  0  0  0  0  0  0  0  0  0  0  0
  1  4  2  0  0  0  0
  1  5  2  0  0  0  0
  1 11  1  0  0  0  0
  1 12  1  0  0  0  0
  2  8  1  0  0  0  0
  2 20  1  0  0  0  0
  3  8  2  0  0  0  0
  6  7  1  0  0  0  0
  6 13  1  0  0  0  0
  7  8  1  0  0  0  0
  7  9  1  0  0  0  0
  7 10  1  0  0  0  0
  9 11  1  0  0  0  0
 10 12  1  0  0  0  0
 13 14  1  0  0  0  0
 14 15  2  0  0  0  0
 14 16  1  0  0  0  0
 15 18  1  0  0  0  0
 16 19  2  0  0  0  0
 17 18  2  0  0  0  0
 17 19  1  0  0  0  0
 17 21  1  0  0  0  0
 21 22  3  0  0  0  0
 22 23  1  0  0  0  0
 23 24  2  0  0  0  0
 23 25  1  0  0  0  0
 24 26  1  0  0  0  0
 25 27  2  0  0  0  0
 26 28  2  0  0  0  0
 27 28  1  0  0  0  0
M  END
> <PUBCHEM_COMPOUND_ID_TYPE>
0

> <PUBCHEM_TOTAL_CHARGE>
0

> <PUBCHEM_SUBSTANCE_ID>
310934221

> <PUBCHEM_SUBSTANCE_VERSION>
1

> <PUBCHEM_EXT_DATASOURCE_NAME>
4488

> <PUBCHEM_EXT_DATASOURCE_REGID>
SCHEMBL16111677

> <PUBCHEM_SUBSTANCE_COMMENT>
InChI=1S/C22H23NO4S/c1-27-21(24)22(13-15-28(25,26)16-14-22)23-17-20-11-9-19(10-12-20)8-7-18-5-3-2-4-6-18/h2-6,9-12,23H,13-17H2,1H3
InChIKey=ATEZPJXGOJUIJG-UHFFFAOYSA-N

> <PUBCHEM_SUBSTANCE_SYNONYM>
SCHEMBL16111677

> <PUBCHEM_XREF_EXT_ID>
SCHEMBL16111677

> <PUBCHEM_EXT_DATASOURCE_URL>
https://www.surechembl.org/

> <PUBCHEM_EXT_SUBSTANCE_URL>
https://www.surechembl.org/chemical/SCHEMBL16111677

> <PUBCHEM_CID_ASSOCIATIONS>
117602484  1

> <PUBCHEM_COORDINATE_TYPE>
1
3

$$$$
