310941679
  -OEChem-07211613022D

 36 41  0     0  0  0  0  0  0999 V2000
   -3.1547    1.0271    0.0000 Br  0  0  0  0  0  0  0  0  0  0  0  0
   -2.6819   -3.4074    0.0000 O   0  0  0  0  0  0  0  0  0  0  0  0
   -0.5135    0.2446    0.0000 O   0  0  0  0  0  0  0  0  0  0  0  0
    1.2798    2.2825    0.0000 O   0  0  0  0  0  0  0  0  0  0  0  0
    3.4645    0.3261    0.0000 O   0  0  0  0  0  0  0  0  0  0  0  0
   -1.1331   -2.6086    0.0000 N   0  0  0  0  0  0  0  0  0  0  0  0
   -3.7254   -2.3640    0.0000 N   0  0  0  0  0  0  0  0  0  0  0  0
    2.2091    1.1412    0.0000 N   0  0  0  0  0  0  0  0  0  0  0  0
   -1.3777   -0.4891    0.0000 N   0  0  0  0  0  0  0  0  0  0  0  0
   -2.4537   -1.9402    0.0000 C   0  0  0  0  0  0  0  0  0  0  0  0
   -1.6059   -1.9564    0.0000 C   0  0  0  0  0  0  0  0  0  0  0  0
   -2.9428   -1.2717    0.0000 C   0  0  0  0  0  0  0  0  0  0  0  0
   -1.1331   -1.2554    0.0000 C   0  0  0  0  0  0  0  0  0  0  0  0
   -0.3342   -1.5325    0.0000 C   0  0  0  0  0  0  0  0  0  0  0  0
   -2.9428   -2.6086    0.0000 C   0  0  0  0  0  0  0  0  0  0  0  0
   -3.7254   -1.5162    0.0000 C   0  0  0  0  0  0  0  0  0  0  0  0
   -0.3506   -2.3640    0.0000 C   0  0  0  0  0  0  0  0  0  0  0  0
   -2.7634   -0.4728    0.0000 C   0  0  0  0  0  0  0  0  0  0  0  0
    2.7634    2.3640    0.0000 C   0  0  0  0  0  0  0  0  0  0  0  0
    3.3667    1.8097    0.0000 C   0  0  0  0  0  0  0  0  0  0  0  0
    3.0243    1.0761    0.0000 C   0  0  0  0  0  0  0  0  0  0  0  0
    2.0624    1.9402    0.0000 C   0  0  0  0  0  0  0  0  0  0  0  0
    0.3994   -1.1412    0.0000 C   0  0  0  0  0  0  0  0  0  0  0  0
   -4.3286   -0.9945    0.0000 C   0  0  0  0  0  0  0  0  0  0  0  0
    0.3832   -2.7716    0.0000 C   0  0  0  0  0  0  0  0  0  0  0  0
   -3.3830    0.0978    0.0000 C   0  0  0  0  0  0  0  0  0  0  0  0
   -4.1656   -0.1793    0.0000 C   0  0  0  0  0  0  0  0  0  0  0  0
    2.9428    3.1629    0.0000 C   0  0  0  0  0  0  0  0  0  0  0  0
    4.1656    2.0705    0.0000 C   0  0  0  0  0  0  0  0  0  0  0  0
    1.1005   -1.5489    0.0000 C   0  0  0  0  0  0  0  0  0  0  0  0
    1.1005   -2.3640    0.0000 C   0  0  0  0  0  0  0  0  0  0  0  0
    1.6711    0.5217    0.0000 C   0  0  0  0  0  0  0  0  0  0  0  0
    3.7254    3.4074    0.0000 C   0  0  0  0  0  0  0  0  0  0  0  0
    4.3286    2.8694    0.0000 C   0  0  0  0  0  0  0  0  0  0  0  0
    0.8396    0.6848    0.0000 C   0  0  0  0  0  0  0  0  0  0  0  0
    0.3016    0.0815    0.0000 C   0  0  0  0  0  0  0  0  0  0  0  0
  1 26  1  0  0  0  0
  2 15  2  0  0  0  0
  3  9  1  0  0  0  0
  3 36  1  0  0  0  0
  4 22  2  0  0  0  0
  5 21  2  0  0  0  0
  6 11  1  0  0  0  0
  6 17  1  0  0  0  0
  7 15  1  0  0  0  0
  7 16  1  0  0  0  0
  8 21  1  0  0  0  0
  8 22  1  0  0  0  0
  8 32  1  0  0  0  0
  9 13  2  0  0  0  0
 10 11  2  0  0  0  0
 10 12  1  0  0  0  0
 10 15  1  0  0  0  0
 11 13  1  0  0  0  0
 12 16  2  0  0  0  0
 12 18  1  0  0  0  0
 13 14  1  0  0  0  0
 14 17  2  0  0  0  0
 14 23  1  0  0  0  0
 16 24  1  0  0  0  0
 17 25  1  0  0  0  0
 18 26  2  0  0  0  0
 19 20  2  0  0  0  0
 19 22  1  0  0  0  0
 19 28  1  0  0  0  0
 20 21  1  0  0  0  0
 20 29  1  0  0  0  0
 23 30  2  0  0  0  0
 24 27  2  0  0  0  0
 25 31  2  0  0  0  0
 26 27  1  0  0  0  0
 28 33  2  0  0  0  0
 29 34  2  0  0  0  0
 30 31  1  0  0  0  0
 32 35  1  0  0  0  0
 33 34  1  0  0  0  0
 35 36  1  0  0  0  0
M  END
> <PUBCHEM_COMPOUND_ID_TYPE>
0

> <PUBCHEM_TOTAL_CHARGE>
0

> <PUBCHEM_SUBSTANCE_ID>
310941679

> <PUBCHEM_SUBSTANCE_VERSION>
1

> <PUBCHEM_EXT_DATASOURCE_NAME>
4488

> <PUBCHEM_EXT_DATASOURCE_REGID>
SCHEMBL16119710

> <PUBCHEM_SUBSTANCE_COMMENT>
InChI=1S/C27H19BrN4O4/c28-15-10-11-21-19(14-15)22(25(33)30-21)24-23(18-8-3-4-9-20(18)29-24)31-36-13-5-12-32-26(34)16-6-1-2-7-17(16)27(32)35/h1-4,6-11,14,29H,5,12-13H2,(H,30,33)/b24-22-,31-23+
InChIKey=GHYWPXBBKKPEHX-HBLARLPJSA-N

> <PUBCHEM_SUBSTANCE_SYNONYM>
SCHEMBL16119710

> <PUBCHEM_XREF_EXT_ID>
SCHEMBL16119710

> <PUBCHEM_EXT_DATASOURCE_URL>
https://www.surechembl.org/

> <PUBCHEM_EXT_SUBSTANCE_URL>
https://www.surechembl.org/chemical/SCHEMBL16119710

> <PUBCHEM_CID_ASSOCIATIONS>
86269701  1

> <PUBCHEM_COORDINATE_TYPE>
1
3

$$$$
