310938132
  -OEChem-07211613022D

 20 21  0     0  0  0  0  0  0999 V2000
    0.7505   -0.7227    0.0000 S   0  0  0  0  0  0  0  0  0  0  0  0
    2.6128   -4.8642    0.0000 O   0  0  0  0  0  0  0  0  0  0  0  0
    2.3626   -0.7227    0.0000 O   0  0  0  0  0  0  0  0  0  0  0  0
    1.4453   -0.3057    0.0000 O   0  0  0  0  0  0  0  0  0  0  0  0
    0.0000   -1.1118    0.0000 O   0  0  0  0  0  0  0  0  0  0  0  0
    3.1687   -3.6412    0.0000 N   0  0  0  0  0  0  0  0  0  0  0  0
    1.1396   -2.8351    0.0000 N   0  0  0  0  0  0  0  0  0  0  0  0
    2.0013   -4.3083    0.0000 N   0  0  0  0  0  0  0  0  0  0  0  0
    1.9457   -2.8351    0.0000 C   0  0  0  0  0  0  0  0  0  0  0  0
    1.1396   -1.4176    0.0000 C   0  0  0  0  0  0  0  0  0  0  0  0
    2.3626   -3.5578    0.0000 C   0  0  0  0  0  0  0  0  0  0  0  0
    1.9457   -1.4176    0.0000 C   0  0  0  0  0  0  0  0  0  0  0  0
    3.3355   -4.4472    0.0000 C   0  0  0  0  0  0  0  0  0  0  0  0
    2.3904   -2.1403    0.0000 C   0  0  0  0  0  0  0  0  0  0  0  0
    4.0859   -4.8086    0.0000 C   0  0  0  0  0  0  0  0  0  0  0  0
    0.6949   -2.1403    0.0000 C   0  0  0  0  0  0  0  0  0  0  0  0
    0.3335    0.0000    0.0000 C   0  0  0  0  0  0  0  0  0  0  0  0
    3.7524   -5.5591    0.0000 C   0  0  0  0  0  0  0  0  0  0  0  0
    4.8364   -5.1422    0.0000 C   0  0  0  0  0  0  0  0  0  0  0  0
    4.4195   -4.0581    0.0000 C   0  0  0  0  0  0  0  0  0  0  0  0
  1  4  2  0  0  0  0
  1  5  2  0  0  0  0
  1 10  1  0  0  0  0
  1 17  1  0  0  0  0
  2  8  1  0  0  0  0
  2 13  1  0  0  0  0
  3 12  1  0  0  0  0
  6 11  1  0  0  0  0
  6 13  2  0  0  0  0
  7  9  1  0  0  0  0
  7 16  2  0  0  0  0
  8 11  2  0  0  0  0
  9 11  1  0  0  0  0
  9 14  2  0  0  0  0
 10 12  2  0  0  0  0
 10 16  1  0  0  0  0
 12 14  1  0  0  0  0
 13 15  1  0  0  0  0
 15 18  1  0  0  0  0
 15 19  1  0  0  0  0
 15 20  1  0  0  0  0
M  END
> <PUBCHEM_COMPOUND_ID_TYPE>
0

> <PUBCHEM_TOTAL_CHARGE>
0

> <PUBCHEM_SUBSTANCE_ID>
310938132

> <PUBCHEM_SUBSTANCE_VERSION>
1

> <PUBCHEM_EXT_DATASOURCE_NAME>
4488

> <PUBCHEM_EXT_DATASOURCE_REGID>
SCHEMBL16115983

> <PUBCHEM_SUBSTANCE_COMMENT>
InChI=1S/C12H15N3O4S/c1-12(2,3)11-14-10(15-19-11)7-5-8(16)9(6-13-7)20(4,17)18/h5-6H,1-4H3,(H,13,16)
InChIKey=VXRHSHYNBDCQAT-UHFFFAOYSA-N

> <PUBCHEM_SUBSTANCE_SYNONYM>
SCHEMBL16115983

> <PUBCHEM_XREF_EXT_ID>
SCHEMBL16115983

> <PUBCHEM_EXT_DATASOURCE_URL>
https://www.surechembl.org/

> <PUBCHEM_EXT_SUBSTANCE_URL>
https://www.surechembl.org/chemical/SCHEMBL16115983

> <PUBCHEM_CID_ASSOCIATIONS>
117605687  1

> <PUBCHEM_COORDINATE_TYPE>
1
3

$$$$
