310944674
  -OEChem-07211613022D

 29 31  0     0  0  0  0  0  0999 V2000
   -3.3853   -0.8541    0.0000 Cl  0  0  0  0  0  0  0  0  0  0  0  0
   -2.5065    2.0424    0.0000 Cl  0  0  0  0  0  0  0  0  0  0  0  0
    1.0583    1.6339    0.0000 O   0  0  0  0  0  0  0  0  0  0  0  0
    4.6355   -0.4333    0.0000 O   0  0  0  0  0  0  0  0  0  0  0  0
   -0.3528    0.8045    0.0000 N   0  0  0  0  0  0  0  0  0  0  0  0
    1.8010    0.3961    0.0000 N   0  0  0  0  0  0  0  0  0  0  0  0
    3.2244   -0.4333    0.0000 N   0  0  0  0  0  0  0  0  0  0  0  0
   -2.4941    0.3961    0.0000 C   0  0  0  0  0  0  0  0  0  0  0  0
   -3.2244    0.8170    0.0000 C   0  0  0  0  0  0  0  0  0  0  0  0
   -1.0707    0.4084    0.0000 C   0  0  0  0  0  0  0  0  0  0  0  0
   -2.5065   -0.4333    0.0000 C   0  0  0  0  0  0  0  0  0  0  0  0
   -1.8010    0.7922    0.0000 C   0  0  0  0  0  0  0  0  0  0  0  0
   -1.0831   -0.4208    0.0000 C   0  0  0  0  0  0  0  0  0  0  0  0
   -1.7763   -0.8417    0.0000 C   0  0  0  0  0  0  0  0  0  0  0  0
   -3.2120    1.6339    0.0000 C   0  0  0  0  0  0  0  0  0  0  0  0
   -3.9424    0.4084    0.0000 C   0  0  0  0  0  0  0  0  0  0  0  0
    1.0583    0.7922    0.0000 C   0  0  0  0  0  0  0  0  0  0  0  0
    0.3651    0.3961    0.0000 C   0  0  0  0  0  0  0  0  0  0  0  0
   -3.9424    2.0299    0.0000 C   0  0  0  0  0  0  0  0  0  0  0  0
    2.4941    0.8045    0.0000 C   0  0  0  0  0  0  0  0  0  0  0  0
    1.8010   -0.4333    0.0000 C   0  0  0  0  0  0  0  0  0  0  0  0
    3.2120    0.3961    0.0000 C   0  0  0  0  0  0  0  0  0  0  0  0
    2.5065   -0.8417    0.0000 C   0  0  0  0  0  0  0  0  0  0  0  0
   -4.6355    0.8170    0.0000 C   0  0  0  0  0  0  0  0  0  0  0  0
   -0.3528   -0.8417    0.0000 C   0  0  0  0  0  0  0  0  0  0  0  0
    3.9300   -0.8417    0.0000 C   0  0  0  0  0  0  0  0  0  0  0  0
   -4.6355    1.6339    0.0000 C   0  0  0  0  0  0  0  0  0  0  0  0
    3.9300   -1.6710    0.0000 C   0  0  0  0  0  0  0  0  0  0  0  0
    3.1997   -2.0424    0.0000 C   0  0  0  0  0  0  0  0  0  0  0  0
  1 11  1  0  0  0  0
  2 15  1  0  0  0  0
  3 17  2  0  0  0  0
  4 26  2  0  0  0  0
  5 10  1  0  0  0  0
  5 18  1  0  0  0  0
  6 17  1  0  0  0  0
  6 20  1  0  0  0  0
  6 21  1  0  0  0  0
  7 22  1  0  0  0  0
  7 23  1  0  0  0  0
  7 26  1  0  0  0  0
  8  9  1  0  0  0  0
  8 11  1  0  0  0  0
  8 12  2  0  0  0  0
  9 15  1  0  0  0  0
  9 16  2  0  0  0  0
 10 12  1  0  0  0  0
 10 13  2  0  0  0  0
 11 14  2  0  0  0  0
 13 14  1  0  0  0  0
 13 25  1  0  0  0  0
 15 19  2  0  0  0  0
 16 24  1  0  0  0  0
 17 18  1  0  0  0  0
 19 27  1  0  0  0  0
 20 22  1  0  0  0  0
 21 23  1  0  0  0  0
 24 27  2  0  0  0  0
 26 28  1  0  0  0  0
 28 29  2  0  0  0  0
M  END
> <PUBCHEM_COMPOUND_ID_TYPE>
0

> <PUBCHEM_TOTAL_CHARGE>
0

> <PUBCHEM_SUBSTANCE_ID>
310944674

> <PUBCHEM_SUBSTANCE_VERSION>
1

> <PUBCHEM_EXT_DATASOURCE_NAME>
4488

> <PUBCHEM_EXT_DATASOURCE_REGID>
SCHEMBL16122753

> <PUBCHEM_SUBSTANCE_COMMENT>
InChI=1S/C22H23Cl2N3O2/c1-3-21(28)26-8-10-27(11-9-26)22(29)14-25-20-13-17(19(24)12-15(20)2)16-6-4-5-7-18(16)23/h3-7,12-13,25H,1,8-11,14H2,2H3
InChIKey=ZICKLNNLZFOLID-UHFFFAOYSA-N

> <PUBCHEM_SUBSTANCE_SYNONYM>
SCHEMBL16122753

> <PUBCHEM_XREF_EXT_ID>
SCHEMBL16122753

> <PUBCHEM_EXT_DATASOURCE_URL>
https://www.surechembl.org/

> <PUBCHEM_EXT_SUBSTANCE_URL>
https://www.surechembl.org/chemical/SCHEMBL16122753

> <PUBCHEM_CID_ASSOCIATIONS>
117610900  1

> <PUBCHEM_COORDINATE_TYPE>
1
3

$$$$
