310932405
  -OEChem-07211613022D

 17 19  0     0  0  0  0  0  0999 V2000
    2.5319   -0.1918    0.0000 Br  0  0  0  0  0  0  0  0  0  0  0  0
    0.2301   -3.8362    0.0000 F   0  0  0  0  0  0  0  0  0  0  0  0
    1.6495   -3.7019    0.0000 F   0  0  0  0  0  0  0  0  0  0  0  0
    0.1534   -3.0114    0.0000 F   0  0  0  0  0  0  0  0  0  0  0  0
    1.4769   -2.0524    0.0000 N   0  0  0  0  0  0  0  0  0  0  0  0
    2.2633   -2.3209    0.0000 N   0  0  0  0  0  0  0  0  0  0  0  0
    1.4769   -1.2467    0.0000 C   0  0  0  0  0  0  0  0  0  0  0  0
    2.7429   -1.6495    0.0000 C   0  0  0  0  0  0  0  0  0  0  0  0
    2.2633   -0.9782    0.0000 C   0  0  0  0  0  0  0  0  0  0  0  0
    0.8248   -0.7672    0.0000 C   0  0  0  0  0  0  0  0  0  0  0  0
    3.5676   -1.6495    0.0000 C   0  0  0  0  0  0  0  0  0  0  0  0
    0.8248   -2.5319    0.0000 C   0  0  0  0  0  0  0  0  0  0  0  0
    0.0000   -0.6714    0.0000 C   0  0  0  0  0  0  0  0  0  0  0  0
    0.4604    0.0000    0.0000 C   0  0  0  0  0  0  0  0  0  0  0  0
    0.9015   -3.3567    0.0000 C   0  0  0  0  0  0  0  0  0  0  0  0
    4.2773   -1.2467    0.0000 C   0  0  0  0  0  0  0  0  0  0  0  0
    4.3157   -2.0524    0.0000 C   0  0  0  0  0  0  0  0  0  0  0  0
  1  9  1  0  0  0  0
  2 15  1  0  0  0  0
  3 15  1  0  0  0  0
  4 15  1  0  0  0  0
  5  6  1  0  0  0  0
  5  7  1  0  0  0  0
  5 12  1  0  0  0  0
  6  8  2  0  0  0  0
  7  9  2  0  0  0  0
  7 10  1  0  0  0  0
  8  9  1  0  0  0  0
  8 11  1  0  0  0  0
 10 13  1  0  0  0  0
 10 14  1  0  0  0  0
 11 16  1  0  0  0  0
 11 17  1  0  0  0  0
 12 15  1  0  0  0  0
 13 14  1  0  0  0  0
 16 17  1  0  0  0  0
M  END
> <PUBCHEM_COMPOUND_ID_TYPE>
0

> <PUBCHEM_TOTAL_CHARGE>
0

> <PUBCHEM_SUBSTANCE_ID>
310932405

> <PUBCHEM_SUBSTANCE_VERSION>
1

> <PUBCHEM_EXT_DATASOURCE_NAME>
4488

> <PUBCHEM_EXT_DATASOURCE_REGID>
SCHEMBL16109773

> <PUBCHEM_SUBSTANCE_COMMENT>
InChI=1S/C11H12BrF3N2/c12-8-9(6-1-2-6)16-17(5-11(13,14)15)10(8)7-3-4-7/h6-7H,1-5H2
InChIKey=MKKOKICELBAHAQ-UHFFFAOYSA-N

> <PUBCHEM_SUBSTANCE_SYNONYM>
SCHEMBL16109773

> <PUBCHEM_XREF_EXT_ID>
SCHEMBL16109773

> <PUBCHEM_EXT_DATASOURCE_URL>
https://www.surechembl.org/

> <PUBCHEM_EXT_SUBSTANCE_URL>
https://www.surechembl.org/chemical/SCHEMBL16109773

> <PUBCHEM_CID_ASSOCIATIONS>
117600959  1

> <PUBCHEM_COORDINATE_TYPE>
1
3

$$$$
