310934059
  -OEChem-07211613022D

 29 32  0     0  0  0  0  0  0999 V2000
    0.7144   -0.4125    0.0000 F   0  0  0  0  0  0  0  0  0  0  0  0
   -3.3722   -2.1582    0.0000 O   0  0  0  0  0  0  0  0  0  0  0  0
   -7.0666    0.4086    0.0000 O   0  0  0  0  0  0  0  0  0  0  0  0
   -3.4491   -0.6901    0.0000 N   0  0  0  0  0  0  0  0  0  0  0  0
   -2.8971   -0.0770    0.0000 N   0  0  0  0  0  0  0  0  0  0  0  0
   -4.6052    0.1499    0.0000 N   0  0  0  0  0  0  0  0  0  0  0  0
   -7.2160   -1.0125    0.0000 N   0  0  0  0  0  0  0  0  0  0  0  0
    1.4290    1.6500    0.0000 N   0  0  0  0  0  0  0  0  0  0  0  0
   -2.1434   -0.4125    0.0000 C   0  0  0  0  0  0  0  0  0  0  0  0
   -1.4290    0.0000    0.0000 C   0  0  0  0  0  0  0  0  0  0  0  0
   -3.0366   -1.4045    0.0000 C   0  0  0  0  0  0  0  0  0  0  0  0
   -4.2696   -0.6038    0.0000 C   0  0  0  0  0  0  0  0  0  0  0  0
   -0.7144   -0.4125    0.0000 C   0  0  0  0  0  0  0  0  0  0  0  0
   -2.2296   -1.2330    0.0000 C   0  0  0  0  0  0  0  0  0  0  0  0
    0.0000    0.0000    0.0000 C   0  0  0  0  0  0  0  0  0  0  0  0
   -1.4290    0.8250    0.0000 C   0  0  0  0  0  0  0  0  0  0  0  0
    0.0000    0.8250    0.0000 C   0  0  0  0  0  0  0  0  0  0  0  0
   -5.9105   -0.4314    0.0000 C   0  0  0  0  0  0  0  0  0  0  0  0
   -4.7545   -1.2713    0.0000 C   0  0  0  0  0  0  0  0  0  0  0  0
   -0.7144    1.2375    0.0000 C   0  0  0  0  0  0  0  0  0  0  0  0
   -6.7311   -0.3451    0.0000 C   0  0  0  0  0  0  0  0  0  0  0  0
   -5.4256    0.2361    0.0000 C   0  0  0  0  0  0  0  0  0  0  0  0
   -5.5750   -1.1850    0.0000 C   0  0  0  0  0  0  0  0  0  0  0  0
   -0.7144   -1.2375    0.0000 C   0  0  0  0  0  0  0  0  0  0  0  0
    0.7144    1.2375    0.0000 C   0  0  0  0  0  0  0  0  0  0  0  0
   -6.9611   -1.7971    0.0000 C   0  0  0  0  0  0  0  0  0  0  0  0
   -8.0410   -1.0125    0.0000 C   0  0  0  0  0  0  0  0  0  0  0  0
   -7.6285   -2.2821    0.0000 C   0  0  0  0  0  0  0  0  0  0  0  0
   -8.2959   -1.7971    0.0000 C   0  0  0  0  0  0  0  0  0  0  0  0
  1 15  1  0  0  0  0
  2 11  1  0  0  0  0
  3 21  2  0  0  0  0
  4  5  1  0  0  0  0
  4 11  1  0  0  0  0
  4 12  1  0  0  0  0
  5  9  2  0  0  0  0
  6 12  2  0  0  0  0
  6 22  1  0  0  0  0
  7 21  1  0  0  0  0
  7 26  1  0  0  0  0
  7 27  1  0  0  0  0
  8 25  3  0  0  0  0
  9 10  1  0  0  0  0
  9 14  1  0  0  0  0
 10 13  1  0  0  0  0
 10 16  2  0  0  0  0
 11 14  2  0  0  0  0
 12 19  1  0  0  0  0
 13 15  2  0  0  0  0
 13 24  1  0  0  0  0
 15 17  1  0  0  0  0
 16 20  1  0  0  0  0
 17 20  2  0  0  0  0
 17 25  1  0  0  0  0
 18 21  1  0  0  0  0
 18 22  2  0  0  0  0
 18 23  1  0  0  0  0
 19 23  2  0  0  0  0
 26 28  1  0  0  0  0
 27 29  1  0  0  0  0
 28 29  1  0  0  0  0
M  END
> <PUBCHEM_COMPOUND_ID_TYPE>
0

> <PUBCHEM_TOTAL_CHARGE>
0

> <PUBCHEM_SUBSTANCE_ID>
310934059

> <PUBCHEM_SUBSTANCE_VERSION>
1

> <PUBCHEM_EXT_DATASOURCE_NAME>
4488

> <PUBCHEM_EXT_DATASOURCE_REGID>
SCHEMBL16111503

> <PUBCHEM_SUBSTANCE_COMMENT>
InChI=1S/C21H18FN5O2/c1-13-16(6-4-14(11-23)20(13)22)17-10-19(28)27(25-17)18-7-5-15(12-24-18)21(29)26-8-2-3-9-26/h4-7,10,12,28H,2-3,8-9H2,1H3
InChIKey=ZGTFYKTYCPPYBJ-UHFFFAOYSA-N

> <PUBCHEM_SUBSTANCE_SYNONYM>
SCHEMBL16111503

> <PUBCHEM_XREF_EXT_ID>
SCHEMBL16111503

> <PUBCHEM_EXT_DATASOURCE_URL>
https://www.surechembl.org/

> <PUBCHEM_EXT_SUBSTANCE_URL>
https://www.surechembl.org/chemical/SCHEMBL16111503

> <PUBCHEM_CID_ASSOCIATIONS>
117602351  1

> <PUBCHEM_COORDINATE_TYPE>
1
3

$$$$
