310944273
  -OEChem-07211613022D

 24 27  0     0  0  0  0  0  0999 V2000
    0.0851   -2.5139    0.0000 S   0  0  0  0  0  0  0  0  0  0  0  0
    0.2684    3.2471    0.0000 F   0  0  0  0  0  0  0  0  0  0  0  0
    2.4026    2.8019    0.0000 N   0  0  0  0  0  0  0  0  0  0  0  0
   -1.8919    2.7888    0.0000 N   0  0  0  0  0  0  0  0  0  0  0  0
   -0.4648   -1.2700    0.0000 C   0  0  0  0  0  0  0  0  0  0  0  0
   -1.0932   -1.8331    0.0000 C   0  0  0  0  0  0  0  0  0  0  0  0
    0.2553   -1.6628    0.0000 C   0  0  0  0  0  0  0  0  0  0  0  0
   -0.7528   -2.5662    0.0000 C   0  0  0  0  0  0  0  0  0  0  0  0
    0.2553   -0.0262    0.0000 C   0  0  0  0  0  0  0  0  0  0  0  0
   -0.4517   -0.4321    0.0000 C   0  0  0  0  0  0  0  0  0  0  0  0
    0.2684    0.8118    0.0000 C   0  0  0  0  0  0  0  0  0  0  0  0
    0.9623   -1.2570    0.0000 C   0  0  0  0  0  0  0  0  0  0  0  0
    0.9754   -0.4452    0.0000 C   0  0  0  0  0  0  0  0  0  0  0  0
   -1.9312   -1.7545    0.0000 C   0  0  0  0  0  0  0  0  0  0  0  0
    0.9885    2.0425    0.0000 C   0  0  0  0  0  0  0  0  0  0  0  0
   -0.4648    2.0425    0.0000 C   0  0  0  0  0  0  0  0  0  0  0  0
    0.9754    1.2176    0.0000 C   0  0  0  0  0  0  0  0  0  0  0  0
   -0.4517    1.2176    0.0000 C   0  0  0  0  0  0  0  0  0  0  0  0
    0.2553    2.4484    0.0000 C   0  0  0  0  0  0  0  0  0  0  0  0
   -1.2373   -3.2471    0.0000 C   0  0  0  0  0  0  0  0  0  0  0  0
   -2.4026   -2.4222    0.0000 C   0  0  0  0  0  0  0  0  0  0  0  0
   -2.0884   -3.1554    0.0000 C   0  0  0  0  0  0  0  0  0  0  0  0
    1.6824    2.4353    0.0000 C   0  0  0  0  0  0  0  0  0  0  0  0
   -1.1849    2.4222    0.0000 C   0  0  0  0  0  0  0  0  0  0  0  0
  1  7  1  0  0  0  0
  1  8  1  0  0  0  0
  2 19  1  0  0  0  0
  3 23  3  0  0  0  0
  4 24  3  0  0  0  0
  5  6  1  0  0  0  0
  5  7  2  0  0  0  0
  5 10  1  0  0  0  0
  6  8  2  0  0  0  0
  6 14  1  0  0  0  0
  7 12  1  0  0  0  0
  8 20  1  0  0  0  0
  9 10  2  0  0  0  0
  9 11  1  0  0  0  0
  9 13  1  0  0  0  0
 11 17  2  0  0  0  0
 11 18  1  0  0  0  0
 12 13  2  0  0  0  0
 14 21  2  0  0  0  0
 15 17  1  0  0  0  0
 15 19  2  0  0  0  0
 15 23  1  0  0  0  0
 16 18  2  0  0  0  0
 16 19  1  0  0  0  0
 16 24  1  0  0  0  0
 20 22  2  0  0  0  0
 21 22  1  0  0  0  0
M  END
> <PUBCHEM_COMPOUND_ID_TYPE>
0

> <PUBCHEM_TOTAL_CHARGE>
0

> <PUBCHEM_SUBSTANCE_ID>
310944273

> <PUBCHEM_SUBSTANCE_VERSION>
1

> <PUBCHEM_EXT_DATASOURCE_NAME>
4488

> <PUBCHEM_EXT_DATASOURCE_REGID>
SCHEMBL16122348

> <PUBCHEM_SUBSTANCE_COMMENT>
InChI=1S/C20H9FN2S/c21-20-14(10-22)7-13(8-15(20)11-23)12-5-6-19-17(9-12)16-3-1-2-4-18(16)24-19/h1-9H
InChIKey=KNCURMHIRRDRNB-UHFFFAOYSA-N

> <PUBCHEM_SUBSTANCE_SYNONYM>
SCHEMBL16122348

> <PUBCHEM_XREF_EXT_ID>
SCHEMBL16122348

> <PUBCHEM_EXT_DATASOURCE_URL>
https://www.surechembl.org/

> <PUBCHEM_EXT_SUBSTANCE_URL>
https://www.surechembl.org/chemical/SCHEMBL16122348

> <PUBCHEM_CID_ASSOCIATIONS>
117610542  1

> <PUBCHEM_COORDINATE_TYPE>
1
3

$$$$
