310941396
  -OEChem-07211613022D

 27 28  0     0  0  0  0  0  0999 V2000
   -0.0462    1.5256    0.0000 O   0  0  0  0  0  0  0  0  0  0  0  0
   -1.5024    0.5548    0.0000 N   0  0  0  0  0  0  0  0  0  0  0  0
    1.4100    0.5548    0.0000 N   0  0  0  0  0  0  0  0  0  0  0  0
   -1.9648   -0.0462    0.0000 C   0  0  0  0  0  0  0  0  0  0  0  0
    2.1266   -0.0462    0.0000 C   0  0  0  0  0  0  0  0  0  0  0  0
   -2.7970    0.1156    0.0000 C   0  0  0  0  0  0  0  0  0  0  0  0
    1.9417   -0.8321    0.0000 C   0  0  0  0  0  0  0  0  0  0  0  0
   -1.6874   -0.8091    0.0000 C   0  0  0  0  0  0  0  0  0  0  0  0
    2.9125    0.2081    0.0000 C   0  0  0  0  0  0  0  0  0  0  0  0
   -3.2823   -0.5316    0.0000 C   0  0  0  0  0  0  0  0  0  0  0  0
    2.5658   -1.3869    0.0000 C   0  0  0  0  0  0  0  0  0  0  0  0
   -2.1959   -1.4331    0.0000 C   0  0  0  0  0  0  0  0  0  0  0  0
    3.5135   -0.3236    0.0000 C   0  0  0  0  0  0  0  0  0  0  0  0
   -3.0050   -1.2945    0.0000 C   0  0  0  0  0  0  0  0  0  0  0  0
    3.3517   -1.1326    0.0000 C   0  0  0  0  0  0  0  0  0  0  0  0
   -3.0512    0.8784    0.0000 C   0  0  0  0  0  0  0  0  0  0  0  0
    1.1789   -1.1095    0.0000 C   0  0  0  0  0  0  0  0  0  0  0  0
   -0.8321   -0.9477    0.0000 C   0  0  0  0  0  0  0  0  0  0  0  0
    3.0974    1.0170    0.0000 C   0  0  0  0  0  0  0  0  0  0  0  0
    1.4331    1.5487    0.0000 C   0  0  0  0  0  0  0  0  0  0  0  0
   -1.4562    1.5487    0.0000 C   0  0  0  0  0  0  0  0  0  0  0  0
    0.7628    1.9417    0.0000 C   0  0  0  0  0  0  0  0  0  0  0  0
   -0.8553    1.9417    0.0000 C   0  0  0  0  0  0  0  0  0  0  0  0
   -3.9065    0.9940    0.0000 C   0  0  0  0  0  0  0  0  0  0  0  0
    1.0402   -1.9417    0.0000 C   0  0  0  0  0  0  0  0  0  0  0  0
   -0.5316   -1.7568    0.0000 C   0  0  0  0  0  0  0  0  0  0  0  0
    3.9065    1.2713    0.0000 C   0  0  0  0  0  0  0  0  0  0  0  0
  1 22  1  0  0  0  0
  1 23  1  0  0  0  0
  2  4  1  0  0  0  0
  2 21  1  0  0  0  0
  3  5  1  0  0  0  0
  3 20  1  0  0  0  0
  4  6  2  0  0  0  0
  4  8  1  0  0  0  0
  5  7  2  0  0  0  0
  5  9  1  0  0  0  0
  6 10  1  0  0  0  0
  6 16  1  0  0  0  0
  7 11  1  0  0  0  0
  7 17  1  0  0  0  0
  8 12  2  0  0  0  0
  8 18  1  0  0  0  0
  9 13  2  0  0  0  0
  9 19  1  0  0  0  0
 10 14  2  0  0  0  0
 11 15  2  0  0  0  0
 12 14  1  0  0  0  0
 13 15  1  0  0  0  0
 16 24  1  0  0  0  0
 17 25  1  0  0  0  0
 18 26  1  0  0  0  0
 19 27  1  0  0  0  0
 20 22  1  0  0  0  0
 21 23  1  0  0  0  0
M  END
> <PUBCHEM_COMPOUND_ID_TYPE>
0

> <PUBCHEM_TOTAL_CHARGE>
0

> <PUBCHEM_SUBSTANCE_ID>
310941396

> <PUBCHEM_SUBSTANCE_VERSION>
1

> <PUBCHEM_EXT_DATASOURCE_NAME>
4488

> <PUBCHEM_EXT_DATASOURCE_REGID>
SCHEMBL16119356

> <PUBCHEM_SUBSTANCE_COMMENT>
InChI=1S/C24H36N2O/c1-5-19-11-9-12-20(6-2)23(19)25-15-17-27-18-16-26-24-21(7-3)13-10-14-22(24)8-4/h9-14,25-26H,5-8,15-18H2,1-4H3
InChIKey=JIUKWNWUYDHSTE-UHFFFAOYSA-N

> <PUBCHEM_SUBSTANCE_SYNONYM>
SCHEMBL16119356

> <PUBCHEM_XREF_EXT_ID>
SCHEMBL16119356

> <PUBCHEM_EXT_DATASOURCE_URL>
https://www.surechembl.org/

> <PUBCHEM_EXT_SUBSTANCE_URL>
https://www.surechembl.org/chemical/SCHEMBL16119356

> <PUBCHEM_CID_ASSOCIATIONS>
100918961  1

> <PUBCHEM_COORDINATE_TYPE>
1
3

$$$$
