310939377
  -OEChem-07211613022D

 28 29  0     1  0  0  0  0  0999 V2000
    1.0717    1.0312    0.0000 Cl  0  0  0  0  0  0  0  0  0  0  0  0
   -0.3572   -1.4438    0.0000 F   0  0  0  0  0  0  0  0  0  0  0  0
    1.0717   -0.6188    0.0000 O   0  0  0  0  0  0  0  0  0  0  0  0
   -4.6441   -0.6188    0.0000 O   0  0  0  0  0  0  0  0  0  0  0  0
   -2.5006   -0.2063    0.0000 N   0  0  0  0  0  0  0  0  0  0  0  0
    2.5006    1.0312    0.0000 N   0  0  0  0  0  0  0  0  0  0  0  0
    3.9296    1.0313    0.0000 N   0  0  0  0  0  0  0  0  0  0  0  0
   -3.9296    0.6187    0.0000 N   0  0  0  0  0  0  0  0  0  0  0  0
    0.3572   -0.2063    0.0000 C   0  0  0  0  0  0  0  0  0  0  0  0
   -0.3572   -0.6188    0.0000 C   0  0  0  0  0  0  0  0  0  0  0  0
   -1.0717   -0.2063    0.0000 C   0  0  0  0  0  0  0  0  0  0  0  0
    0.3572    0.6187    0.0000 C   0  0  0  0  0  0  0  0  0  0  0  0
   -1.7862   -0.6188    0.0000 C   0  0  3  0  0  0  0  0  0  0  0  0
   -1.0717    0.6187    0.0000 C   0  0  0  0  0  0  0  0  0  0  0  0
   -0.3572    1.0313    0.0000 C   0  0  0  0  0  0  0  0  0  0  0  0
    1.7862   -0.2063    0.0000 C   0  0  0  0  0  0  0  0  0  0  0  0
    1.7862    0.6187    0.0000 C   0  0  0  0  0  0  0  0  0  0  0  0
    2.5006   -0.6187    0.0000 C   0  0  0  0  0  0  0  0  0  0  0  0
    3.2151    0.6187    0.0000 C   0  0  0  0  0  0  0  0  0  0  0  0
   -1.7862   -1.4438    0.0000 C   0  0  0  0  0  0  0  0  0  0  0  0
    3.2151   -0.2063    0.0000 C   0  0  0  0  0  0  0  0  0  0  0  0
   -2.5006    0.6187    0.0000 C   0  0  3  0  0  0  0  0  0  0  0  0
   -3.2151    1.0312    0.0000 C   0  0  0  0  0  0  0  0  0  0  0  0
   -1.0717   -1.8563    0.0000 C   0  0  0  0  0  0  0  0  0  0  0  0
   -1.7862    1.0312    0.0000 C   0  0  0  0  0  0  0  0  0  0  0  0
    4.6441    0.6188    0.0000 C   0  0  0  0  0  0  0  0  0  0  0  0
    3.9296    1.8563    0.0000 C   0  0  0  0  0  0  0  0  0  0  0  0
   -3.9296   -0.2063    0.0000 C   0  0  0  0  0  0  0  0  0  0  0  0
  1 12  1  0  0  0  0
  2 10  1  0  0  0  0
  3  9  1  0  0  0  0
  3 16  1  0  0  0  0
  4 28  2  0  0  0  0
 13  5  1  1  0  0  0
  5 22  1  0  0  0  0
  6 17  2  0  0  0  0
  6 19  1  0  0  0  0
  7 19  1  0  0  0  0
  7 26  1  0  0  0  0
  7 27  1  0  0  0  0
  8 23  1  0  0  0  0
  8 28  1  0  0  0  0
  9 10  2  0  0  0  0
  9 12  1  0  0  0  0
 10 11  1  0  0  0  0
 11 13  1  0  0  0  0
 11 14  2  0  0  0  0
 12 15  2  0  0  0  0
 13 20  1  0  0  0  0
 14 15  1  0  0  0  0
 16 17  1  0  0  0  0
 16 18  2  0  0  0  0
 18 21  1  0  0  0  0
 19 21  2  0  0  0  0
 20 24  1  0  0  0  0
 22 23  1  0  0  0  0
 22 25  1  1  0  0  0
M  END
> <PUBCHEM_COMPOUND_ID_TYPE>
0

> <PUBCHEM_TOTAL_CHARGE>
0

> <PUBCHEM_SUBSTANCE_ID>
310939377

> <PUBCHEM_SUBSTANCE_VERSION>
1

> <PUBCHEM_EXT_DATASOURCE_NAME>
4488

> <PUBCHEM_EXT_DATASOURCE_REGID>
SCHEMBL16117298

> <PUBCHEM_SUBSTANCE_COMMENT>
InChI=1S/C20H26ClFN4O2/c1-5-17(25-13(2)10-23-12-27)15-7-8-16(21)20(19(15)22)28-14-6-9-18(24-11-14)26(3)4/h6-9,11-13,17,25H,5,10H2,1-4H3,(H,23,27)/t13-,17-/m1/s1
InChIKey=FLMCBLBSCOYANK-CXAGYDPISA-N

> <PUBCHEM_SUBSTANCE_SYNONYM>
SCHEMBL16117298

> <PUBCHEM_XREF_EXT_ID>
SCHEMBL16117298

> <PUBCHEM_EXT_DATASOURCE_URL>
https://www.surechembl.org/

> <PUBCHEM_EXT_SUBSTANCE_URL>
https://www.surechembl.org/chemical/SCHEMBL16117298

> <PUBCHEM_CID_ASSOCIATIONS>
117606704  1

> <PUBCHEM_COORDINATE_TYPE>
1
3

> <PUBCHEM_BONDANNOTATIONS>
22  25  5
13  5  5

$$$$
