310933342
  -OEChem-07211613022D

 27 30  0     0  0  0  0  0  0999 V2000
    0.3805   -5.8975    0.0000 O   0  0  0  0  0  0  0  0  0  0  0  0
    4.6609   -2.2195    0.0000 O   0  0  0  0  0  0  0  0  0  0  0  0
    0.5390   -2.1561    0.0000 O   0  0  0  0  0  0  0  0  0  0  0  0
    3.2024   -2.2829    0.0000 N   0  0  0  0  0  0  0  0  0  0  0  0
    3.8365   -3.4243    0.0000 N   0  0  0  0  0  0  0  0  0  0  0  0
    1.0780   -6.3414    0.0000 N   0  0  0  0  0  0  0  0  0  0  0  0
    1.3634   -0.7609    0.0000 N   0  0  0  0  0  0  0  0  0  0  0  0
    2.6317   -2.8853    0.0000 C   0  0  0  0  0  0  0  0  0  0  0  0
    1.7756   -2.8853    0.0000 C   0  0  0  0  0  0  0  0  0  0  0  0
    3.0438   -3.6146    0.0000 C   0  0  0  0  0  0  0  0  0  0  0  0
    1.8073   -4.3122    0.0000 C   0  0  0  0  0  0  0  0  0  0  0  0
    1.3951   -5.0097    0.0000 C   0  0  0  0  0  0  0  0  0  0  0  0
    1.3634   -3.5829    0.0000 C   0  0  0  0  0  0  0  0  0  0  0  0
    2.6000   -4.3122    0.0000 C   0  0  0  0  0  0  0  0  0  0  0  0
    1.3634   -2.1561    0.0000 C   0  0  0  0  0  0  0  0  0  0  0  0
    3.9633   -2.6317    0.0000 C   0  0  0  0  0  0  0  0  0  0  0  0
    0.5707   -5.1048    0.0000 C   0  0  0  0  0  0  0  0  0  0  0  0
    1.7122   -5.7707    0.0000 C   0  0  0  0  0  0  0  0  0  0  0  0
    1.7756   -1.4585    0.0000 C   0  0  0  0  0  0  0  0  0  0  0  0
    2.6317   -1.4585    0.0000 C   0  0  0  0  0  0  0  0  0  0  0  0
    0.0000   -4.5024    0.0000 C   0  0  0  0  0  0  0  0  0  0  0  0
    2.5048   -5.9609    0.0000 C   0  0  0  0  0  0  0  0  0  0  0  0
    4.6926   -1.3951    0.0000 C   0  0  0  0  0  0  0  0  0  0  0  0
    1.7756    0.0000    0.0000 C   0  0  0  0  0  0  0  0  0  0  0  0
    3.0121   -0.7293    0.0000 C   0  0  0  0  0  0  0  0  0  0  0  0
    2.6000   -0.0317    0.0000 C   0  0  0  0  0  0  0  0  0  0  0  0
    3.9633   -0.9512    0.0000 C   0  0  0  0  0  0  0  0  0  0  0  0
  1  6  1  0  0  0  0
  1 17  1  0  0  0  0
  2 16  1  0  0  0  0
  2 23  1  0  0  0  0
  3 15  2  0  0  0  0
  4  8  1  0  0  0  0
  4 16  2  0  0  0  0
  5 10  1  0  0  0  0
  5 16  1  0  0  0  0
  6 18  2  0  0  0  0
  7 19  1  0  0  0  0
  7 24  2  0  0  0  0
  8  9  1  0  0  0  0
  8 10  2  0  0  0  0
  9 13  2  0  0  0  0
  9 15  1  0  0  0  0
 10 14  1  0  0  0  0
 11 12  1  0  0  0  0
 11 13  1  0  0  0  0
 11 14  2  0  0  0  0
 12 17  2  0  0  0  0
 12 18  1  0  0  0  0
 15 19  1  0  0  0  0
 17 21  1  0  0  0  0
 18 22  1  0  0  0  0
 19 20  2  0  0  0  0
 20 25  1  0  0  0  0
 23 27  1  0  0  0  0
 24 26  1  0  0  0  0
 25 26  2  0  0  0  0
M  END
> <PUBCHEM_COMPOUND_ID_TYPE>
0

> <PUBCHEM_TOTAL_CHARGE>
0

> <PUBCHEM_SUBSTANCE_ID>
310933342

> <PUBCHEM_SUBSTANCE_VERSION>
1

> <PUBCHEM_EXT_DATASOURCE_NAME>
4488

> <PUBCHEM_EXT_DATASOURCE_REGID>
SCHEMBL16110754

> <PUBCHEM_SUBSTANCE_COMMENT>
InChI=1S/C20H18N4O3/c1-4-26-20-22-16-10-13(17-11(2)24-27-12(17)3)9-14(18(16)23-20)19(25)15-7-5-6-8-21-15/h5-10H,4H2,1-3H3,(H,22,23)
InChIKey=YNMUSSIWYDKWBG-UHFFFAOYSA-N

> <PUBCHEM_SUBSTANCE_SYNONYM>
SCHEMBL16110754

> <PUBCHEM_XREF_EXT_ID>
SCHEMBL16110754

> <PUBCHEM_EXT_DATASOURCE_URL>
https://www.surechembl.org/

> <PUBCHEM_EXT_SUBSTANCE_URL>
https://www.surechembl.org/chemical/SCHEMBL16110754

> <PUBCHEM_CID_ASSOCIATIONS>
117601753  1

> <PUBCHEM_COORDINATE_TYPE>
1
3

$$$$
