310929440
  -OEChem-07211613022D

 12 11  0     1  0  0  0  0  0999 V2000
    0.0000   -1.6910    0.0000 O   0  0  0  0  0  0  0  0  0  0  0  0
    1.4280   -0.0188    0.0000 O   0  0  0  0  0  0  0  0  0  0  0  0
    3.5887   -0.4322    0.0000 O   0  0  0  0  0  0  0  0  0  0  0  0
    0.7140   -3.7578    0.0000 N   0  0  0  0  0  0  0  0  0  0  0  0
    0.7140   -2.9311    0.0000 C   0  0  3  0  0  0  0  0  0  0  0  0
    0.0000   -2.5177    0.0000 C   0  0  0  0  0  0  0  0  0  0  0  0
    0.7140   -1.2776    0.0000 C   0  0  0  0  0  0  0  0  0  0  0  0
    0.7140   -0.4509    0.0000 C   0  0  0  0  0  0  0  0  0  0  0  0
    2.1419   -0.4322    0.0000 C   0  0  0  0  0  0  0  0  0  0  0  0
    2.8559   -0.0188    0.0000 C   0  0  0  0  0  0  0  0  0  0  0  0
    1.4280   -2.5177    0.0000 C   0  0  0  0  0  0  0  0  0  0  0  0
    4.3026    0.0000    0.0000 C   0  0  0  0  0  0  0  0  0  0  0  0
  1  6  1  0  0  0  0
  1  7  1  0  0  0  0
  2  8  1  0  0  0  0
  2  9  1  0  0  0  0
  3 10  1  0  0  0  0
  3 12  1  0  0  0  0
  5  4  1  6  0  0  0
  5  6  1  0  0  0  0
  5 11  1  0  0  0  0
  7  8  1  0  0  0  0
  9 10  1  0  0  0  0
M  END
> <PUBCHEM_COMPOUND_ID_TYPE>
0

> <PUBCHEM_TOTAL_CHARGE>
0

> <PUBCHEM_SUBSTANCE_ID>
310929440

> <PUBCHEM_SUBSTANCE_VERSION>
1

> <PUBCHEM_EXT_DATASOURCE_NAME>
4488

> <PUBCHEM_EXT_DATASOURCE_REGID>
SCHEMBL16106614

> <PUBCHEM_SUBSTANCE_COMMENT>
InChI=1S/C8H19NO3/c1-8(9)7-12-6-5-11-4-3-10-2/h8H,3-7,9H2,1-2H3/t8-/m0/s1
InChIKey=IQPSDVKYSOSTPW-QMMMGPOBSA-N

> <PUBCHEM_SUBSTANCE_SYNONYM>
SCHEMBL16106614

> <PUBCHEM_XREF_EXT_ID>
SCHEMBL16106614

> <PUBCHEM_EXT_DATASOURCE_URL>
https://www.surechembl.org/

> <PUBCHEM_EXT_SUBSTANCE_URL>
https://www.surechembl.org/chemical/SCHEMBL16106614

> <PUBCHEM_CID_ASSOCIATIONS>
104560725  1

> <PUBCHEM_COORDINATE_TYPE>
1
3

> <PUBCHEM_BONDANNOTATIONS>
5  4  6

$$$$
