310944467
  -OEChem-07211613022D

 33 37  0     1  0  0  0  0  0999 V2000
   -3.2419   -1.1284    0.0000 F   0  0  0  0  0  0  0  0  0  0  0  0
    2.3613   -0.4348    0.0000 O   0  0  0  0  0  0  0  0  0  0  0  0
    5.3334   -0.2917    0.0000 O   0  0  0  0  0  0  0  0  0  0  0  0
    5.1023   -1.7448    0.0000 O   0  0  0  0  0  0  0  0  0  0  0  0
   -0.3467   -0.4128    0.0000 O   0  0  0  0  0  0  0  0  0  0  0  0
    3.3960    0.5999    0.0000 N   0  0  0  0  0  0  0  0  0  0  0  0
    0.4789    1.0182    0.0000 N   0  0  0  0  0  0  0  0  0  0  0  0
   -4.0565    0.3027    0.0000 N   0  0  0  0  0  0  0  0  0  0  0  0
   -2.8236    1.0182    0.0000 N   0  0  0  0  0  0  0  0  0  0  0  0
   -4.5409    0.9742    0.0000 N   0  0  0  0  0  0  0  0  0  0  0  0
   -5.3334    0.7100    0.0000 N   0  0  0  0  0  0  0  0  0  0  0  0
   -5.3334   -0.1046    0.0000 N   0  0  0  0  0  0  0  0  0  0  0  0
    2.1301    1.0292    0.0000 C   0  0  0  0  0  0  0  0  0  0  0  0
    2.6255    0.3908    0.0000 C   0  0  0  0  0  0  0  0  0  0  0  0
    4.0785    0.1376    0.0000 C   0  0  0  0  0  0  0  0  0  0  0  0
    2.6145    1.6898    0.0000 C   0  0  0  0  0  0  0  0  0  0  0  0
    3.3960    1.4366    0.0000 C   0  0  0  0  0  0  0  0  0  0  0  0
    1.7118    0.3137    0.0000 C   0  0  0  0  0  0  0  0  0  0  0  0
    1.7228    1.7338    0.0000 C   0  0  0  0  0  0  0  0  0  0  0  0
    4.0675   -0.6880    0.0000 C   0  0  0  0  0  0  0  0  0  0  0  0
    4.8601    0.3798    0.0000 C   0  0  0  0  0  0  0  0  0  0  0  0
    4.8491   -0.9302    0.0000 C   0  0  0  0  0  0  0  0  0  0  0  0
    0.8862    0.3137    0.0000 C   0  0  0  0  0  0  0  0  0  0  0  0
    0.8972    1.7448    0.0000 C   0  0  0  0  0  0  0  0  0  0  0  0
   -3.2419    0.3027    0.0000 C   0  0  0  0  0  0  0  0  0  0  0  0
   -1.5907    0.3137    0.0000 C   0  0  0  0  0  0  0  0  0  0  0  0
   -0.3467    1.0292    0.0000 C   0  0  0  0  0  0  0  0  0  0  0  0
   -0.7650    0.3137    0.0000 C   0  0  3  0  0  0  0  0  0  0  0  0
   -2.8236   -0.3908    0.0000 C   0  0  0  0  0  0  0  0  0  0  0  0
   -1.9980   -0.4018    0.0000 C   0  0  0  0  0  0  0  0  0  0  0  0
    3.3850   -1.1944    0.0000 C   0  0  0  0  0  0  0  0  0  0  0  0
   -1.9869    1.0182    0.0000 C   0  0  0  0  0  0  0  0  0  0  0  0
   -4.5409   -0.3467    0.0000 C   0  0  0  0  0  0  0  0  0  0  0  0
  1 29  1  0  0  0  0
  2 14  2  0  0  0  0
  3 21  1  0  0  0  0
  3 22  1  0  0  0  0
  4 22  2  0  0  0  0
 28  5  1  6  0  0  0
  6 14  1  0  0  0  0
  6 15  1  0  0  0  0
  6 17  1  0  0  0  0
  7 23  1  0  0  0  0
  7 24  1  0  0  0  0
  7 27  1  0  0  0  0
  8 10  1  0  0  0  0
  8 25  1  0  0  0  0
  8 33  1  0  0  0  0
  9 25  1  0  0  0  0
  9 32  2  0  0  0  0
 10 11  2  0  0  0  0
 11 12  1  0  0  0  0
 12 33  2  0  0  0  0
 13 14  1  0  0  0  0
 13 16  1  0  0  0  0
 13 18  1  0  0  0  0
 13 19  1  0  0  0  0
 15 20  2  0  0  0  0
 15 21  1  0  0  0  0
 16 17  1  0  0  0  0
 18 23  1  0  0  0  0
 19 24  1  0  0  0  0
 20 22  1  0  0  0  0
 20 31  1  0  0  0  0
 25 29  2  0  0  0  0
 26 28  1  0  0  0  0
 26 30  2  0  0  0  0
 26 32  1  0  0  0  0
 27 28  1  0  0  0  0
 29 30  1  0  0  0  0
M  END
> <PUBCHEM_COMPOUND_ID_TYPE>
0

> <PUBCHEM_TOTAL_CHARGE>
0

> <PUBCHEM_SUBSTANCE_ID>
310944467

> <PUBCHEM_SUBSTANCE_VERSION>
1

> <PUBCHEM_EXT_DATASOURCE_NAME>
4488

> <PUBCHEM_EXT_DATASOURCE_REGID>
SCHEMBL16122542

> <PUBCHEM_SUBSTANCE_COMMENT>
InChI=1S/C21H24FN7O4/c1-13-16(11-33-19(13)31)28-7-4-21(20(28)32)2-5-27(6-3-21)10-17(30)14-8-15(22)18(23-9-14)29-12-24-25-26-29/h8-9,12,17,30H,2-7,10-11H2,1H3/t17-/m0/s1
InChIKey=WCDYITWSMDFVJH-KRWDZBQOSA-N

> <PUBCHEM_SUBSTANCE_SYNONYM>
SCHEMBL16122542

> <PUBCHEM_XREF_EXT_ID>
SCHEMBL16122542

> <PUBCHEM_EXT_DATASOURCE_URL>
https://www.surechembl.org/

> <PUBCHEM_EXT_SUBSTANCE_URL>
https://www.surechembl.org/chemical/SCHEMBL16122542

> <PUBCHEM_CID_ASSOCIATIONS>
86271177  1

> <PUBCHEM_COORDINATE_TYPE>
1
3

> <PUBCHEM_BONDANNOTATIONS>
28  5  6

$$$$
