310947063
  -OEChem-07211613022D

 36 40  0     0  0  0  0  0  0999 V2000
   -2.7782    1.0313    0.0000 F   0  0  0  0  0  0  0  0  0  0  0  0
    1.5788    2.5237    0.0000 O   0  0  0  0  0  0  0  0  0  0  0  0
   -4.2071    0.2062    0.0000 O   0  0  0  0  0  0  0  0  0  0  0  0
   -2.7782   -2.2687    0.0000 O   0  0  0  0  0  0  0  0  0  0  0  0
    0.0797    0.2062    0.0000 N   0  0  0  0  0  0  0  0  0  0  0  0
    1.5086    0.2062    0.0000 N   0  0  0  0  0  0  0  0  0  0  0  0
   -1.3492    0.2062    0.0000 N   0  0  0  0  0  0  0  0  0  0  0  0
    1.5086   -1.4437    0.0000 N   0  0  0  0  0  0  0  0  0  0  0  0
    2.0637    1.8563    0.0000 N   0  0  0  0  0  0  0  0  0  0  0  0
    3.7222    1.2862    0.0000 N   0  0  0  0  0  0  0  0  0  0  0  0
    4.2071    0.6187    0.0000 N   0  0  0  0  0  0  0  0  0  0  0  0
    0.7942   -0.2062    0.0000 C   0  0  0  0  0  0  0  0  0  0  0  0
   -0.6348   -0.2062    0.0000 C   0  0  0  0  0  0  0  0  0  0  0  0
    0.7942   -1.0313    0.0000 C   0  0  0  0  0  0  0  0  0  0  0  0
    2.2231   -0.2062    0.0000 C   0  0  0  0  0  0  0  0  0  0  0  0
    0.0797    1.0313    0.0000 C   0  0  0  0  0  0  0  0  0  0  0  0
    0.7942    1.4437    0.0000 C   0  0  0  0  0  0  0  0  0  0  0  0
   -0.6348   -1.0313    0.0000 C   0  0  0  0  0  0  0  0  0  0  0  0
    0.0797   -1.4437    0.0000 C   0  0  0  0  0  0  0  0  0  0  0  0
   -2.0637   -0.2062    0.0000 C   0  0  0  0  0  0  0  0  0  0  0  0
    2.9376    0.2062    0.0000 C   0  0  0  0  0  0  0  0  0  0  0  0
    2.2231   -1.0313    0.0000 C   0  0  0  0  0  0  0  0  0  0  0  0
   -2.7782    0.2062    0.0000 C   0  0  0  0  0  0  0  0  0  0  0  0
    0.7942    2.2687    0.0000 C   0  0  0  0  0  0  0  0  0  0  0  0
    1.5788    1.1888    0.0000 C   0  0  0  0  0  0  0  0  0  0  0  0
   -3.4927   -0.2062    0.0000 C   0  0  0  0  0  0  0  0  0  0  0  0
   -2.0637   -1.0313    0.0000 C   0  0  0  0  0  0  0  0  0  0  0  0
   -2.7782   -1.4437    0.0000 C   0  0  0  0  0  0  0  0  0  0  0  0
    2.9376    1.0313    0.0000 C   0  0  0  0  0  0  0  0  0  0  0  0
   -3.4927   -1.0313    0.0000 C   0  0  0  0  0  0  0  0  0  0  0  0
    3.7222   -0.0487    0.0000 C   0  0  0  0  0  0  0  0  0  0  0  0
    0.0797    2.6812    0.0000 C   0  0  0  0  0  0  0  0  0  0  0  0
    1.9913    0.4743    0.0000 C   0  0  0  0  0  0  0  0  0  0  0  0
    4.1347    2.0007    0.0000 C   0  0  0  0  0  0  0  0  0  0  0  0
   -4.2071    1.0313    0.0000 C   0  0  0  0  0  0  0  0  0  0  0  0
   -2.0637   -2.6812    0.0000 C   0  0  0  0  0  0  0  0  0  0  0  0
  1 23  1  0  0  0  0
  2  9  1  0  0  0  0
  2 24  1  0  0  0  0
  3 26  1  0  0  0  0
  3 35  1  0  0  0  0
  4 28  1  0  0  0  0
  4 36  1  0  0  0  0
  5 12  1  0  0  0  0
  5 13  1  0  0  0  0
  5 16  1  0  0  0  0
  6 12  1  0  0  0  0
  6 15  2  0  0  0  0
  7 13  2  0  0  0  0
  7 20  1  0  0  0  0
  8 14  1  0  0  0  0
  8 22  2  0  0  0  0
  9 25  2  0  0  0  0
 10 11  1  0  0  0  0
 10 29  1  0  0  0  0
 10 34  1  0  0  0  0
 11 31  2  0  0  0  0
 12 14  2  0  0  0  0
 13 18  1  0  0  0  0
 14 19  1  0  0  0  0
 15 21  1  0  0  0  0
 15 22  1  0  0  0  0
 16 17  1  0  0  0  0
 17 24  2  0  0  0  0
 17 25  1  0  0  0  0
 18 19  2  0  0  0  0
 20 23  2  0  0  0  0
 20 27  1  0  0  0  0
 21 29  2  0  0  0  0
 21 31  1  0  0  0  0
 23 26  1  0  0  0  0
 24 32  1  0  0  0  0
 25 33  1  0  0  0  0
 26 30  2  0  0  0  0
 27 28  2  0  0  0  0
 28 30  1  0  0  0  0
M  END
> <PUBCHEM_COMPOUND_ID_TYPE>
0

> <PUBCHEM_TOTAL_CHARGE>
0

> <PUBCHEM_SUBSTANCE_ID>
310947063

> <PUBCHEM_SUBSTANCE_VERSION>
1

> <PUBCHEM_EXT_DATASOURCE_NAME>
4488

> <PUBCHEM_EXT_DATASOURCE_REGID>
SCHEMBL16125217

> <PUBCHEM_SUBSTANCE_COMMENT>
InChI=1S/C25H24FN7O3/c1-14-18(15(2)36-31-14)13-33-23(29-20-8-17(34-4)9-22(35-5)24(20)26)7-6-19-25(33)30-21(11-27-19)16-10-28-32(3)12-16/h6-12H,13H2,1-5H3/b29-23+
InChIKey=IIPWSAGIYHVFFM-BYNJWEBRSA-N

> <PUBCHEM_SUBSTANCE_SYNONYM>
SCHEMBL16125217

> <PUBCHEM_XREF_EXT_ID>
SCHEMBL16125217

> <PUBCHEM_EXT_DATASOURCE_URL>
https://www.surechembl.org/

> <PUBCHEM_EXT_SUBSTANCE_URL>
https://www.surechembl.org/chemical/SCHEMBL16125217

> <PUBCHEM_CID_ASSOCIATIONS>
117612916  1

> <PUBCHEM_COORDINATE_TYPE>
1
3

$$$$
