310946919
  -OEChem-07211613022D

 41 45  0     1  0  0  0  0  0999 V2000
    3.2716   -2.3318    0.0000 S   0  0  0  0  0  0  0  0  0  0  0  0
    3.5199   -3.1121    0.0000 O   0  0  0  0  0  0  0  0  0  0  0  0
    2.7220   -2.9347    0.0000 O   0  0  0  0  0  0  0  0  0  0  0  0
   -2.5446    0.7182    0.0000 O   0  0  0  0  0  0  0  0  0  0  0  0
    1.1438   -1.3210    0.0000 O   0  0  0  0  0  0  0  0  0  0  0  0
   -4.1582    0.8778    0.0000 O   0  0  0  0  0  0  0  0  0  0  0  0
   -4.0164    2.2785    0.0000 O   0  0  0  0  0  0  0  0  0  0  0  0
   -0.5763    0.8069    0.0000 N   0  0  0  0  0  0  0  0  0  0  0  0
    4.0341   -1.9949    0.0000 N   0  0  3  0  0  0  0  0  0  0  0  0
    0.2039    1.0551    0.0000 N   0  0  0  0  0  0  0  0  0  0  0  0
    1.4984    0.3989    0.0000 N   0  0  0  0  0  0  0  0  0  0  0  0
   -0.2393   -1.6049    0.0000 N   0  0  0  0  0  0  0  0  0  0  0  0
   -0.3103    3.2362    0.0000 N   0  0  0  0  0  0  0  0  0  0  0  0
   -1.2501    1.2856    0.0000 C   0  0  3  0  0  0  0  0  0  0  0  0
   -0.5941   -0.0089    0.0000 C   0  0  0  0  0  0  0  0  0  0  0  0
    0.2039   -0.2748    0.0000 C   0  0  0  0  0  0  0  0  0  0  0  0
    2.7396   -1.7290    0.0000 C   0  0  0  0  0  0  0  0  0  0  0  0
    0.6828    0.3989    0.0000 C   0  0  0  0  0  0  0  0  0  0  0  0
    3.1297   -1.0019    0.0000 C   0  0  0  0  0  0  0  0  0  0  0  0
    3.9455   -1.1969    0.0000 C   0  0  0  0  0  0  0  0  0  0  0  0
    4.7434   -2.4027    0.0000 C   0  0  0  0  0  0  0  0  0  0  0  0
    1.9062   -0.2926    0.0000 C   0  0  0  0  0  0  0  0  0  0  0  0
    0.3635   -1.0373    0.0000 C   0  0  0  0  0  0  0  0  0  0  0  0
    2.7396   -0.3280    0.0000 C   0  0  0  0  0  0  0  0  0  0  0  0
    1.9240   -1.7112    0.0000 C   0  0  0  0  0  0  0  0  0  0  0  0
   -1.7112    0.6295    0.0000 C   0  0  0  0  0  0  0  0  0  0  0  0
   -1.5693    2.0303    0.0000 C   0  0  0  0  0  0  0  0  0  0  0  0
   -1.1614   -0.5409    0.0000 C   0  0  0  0  0  0  0  0  0  0  0  0
   -0.4699    1.6049    0.0000 C   0  0  0  0  0  0  0  0  0  0  0  0
    1.5162   -1.0196    0.0000 C   0  0  0  0  0  0  0  0  0  0  0  0
   -1.0019   -1.3565    0.0000 C   0  0  0  0  0  0  0  0  0  0  0  0
   -2.8461    1.4274    0.0000 C   0  0  3  0  0  0  0  0  0  0  0  0
   -2.3672    2.1190    0.0000 C   0  0  0  0  0  0  0  0  0  0  0  0
    5.4527   -1.9772    0.0000 C   0  0  0  0  0  0  0  0  0  0  0  0
    5.4705   -2.7929    0.0000 C   0  0  0  0  0  0  0  0  0  0  0  0
    4.7612   -3.2362    0.0000 C   0  0  0  0  0  0  0  0  0  0  0  0
   -0.3812    2.4205    0.0000 C   0  0  0  0  0  0  0  0  0  0  0  0
   -3.6973    1.5516    0.0000 C   0  0  0  0  0  0  0  0  0  0  0  0
   -4.9739    0.9841    0.0000 C   0  0  0  0  0  0  0  0  0  0  0  0
   -5.3109    1.7290    0.0000 C   0  0  0  0  0  0  0  0  0  0  0  0
   -5.4705    0.2926    0.0000 C   0  0  0  0  0  0  0  0  0  0  0  0
  1  2  2  0  0  0  0
  1  3  2  0  0  0  0
  1  9  1  0  0  0  0
  1 17  1  0  0  0  0
  4 26  1  0  0  0  0
  4 32  1  0  0  0  0
  5 23  2  0  0  0  0
  6 38  1  0  0  0  0
  6 39  1  0  0  0  0
  7 38  2  0  0  0  0
  8 10  1  0  0  0  0
  8 14  1  0  0  0  0
  8 15  1  0  0  0  0
  9 20  1  0  0  0  0
  9 21  1  0  0  0  0
 10 18  2  0  0  0  0
 11 18  1  0  0  0  0
 11 22  1  0  0  0  0
 12 23  1  0  0  0  0
 12 31  1  0  0  0  0
 13 37  3  0  0  0  0
 14 26  1  0  0  0  0
 14 27  1  0  0  0  0
 14 29  1  6  0  0  0
 15 16  2  0  0  0  0
 15 28  1  0  0  0  0
 16 18  1  0  0  0  0
 16 23  1  0  0  0  0
 17 19  2  0  0  0  0
 17 25  1  0  0  0  0
 19 20  1  0  0  0  0
 19 24  1  0  0  0  0
 21 34  1  0  0  0  0
 21 35  1  0  0  0  0
 21 36  1  0  0  0  0
 22 24  2  0  0  0  0
 22 30  1  0  0  0  0
 25 30  2  0  0  0  0
 27 33  1  0  0  0  0
 28 31  2  0  0  0  0
 29 37  1  0  0  0  0
 32 33  1  0  0  0  0
 32 38  1  6  0  0  0
 39 40  1  0  0  0  0
 39 41  1  0  0  0  0
M  END
> <PUBCHEM_COMPOUND_ID_TYPE>
0

> <PUBCHEM_TOTAL_CHARGE>
0

> <PUBCHEM_SUBSTANCE_ID>
310946919

> <PUBCHEM_SUBSTANCE_VERSION>
1

> <PUBCHEM_EXT_DATASOURCE_NAME>
4488

> <PUBCHEM_EXT_DATASOURCE_REGID>
SCHEMBL16125043

> <PUBCHEM_SUBSTANCE_COMMENT>
InChI=1S/C28H34N6O6S/c1-17(2)40-26(36)21-8-10-28(11-12-29,16-39-21)34-20-9-13-30-25(35)23(20)24(32-34)31-19-6-7-22-18(14-19)15-33(27(3,4)5)41(22,37)38/h6-7,9,13-14,17,21H,8,10-11,15-16H2,1-5H3,(H,30,35)(H,31,32)/t21-,28-/m0/s1
InChIKey=OICGZDBPQBIFLV-KMRXNPHXSA-N

> <PUBCHEM_SUBSTANCE_SYNONYM>
SCHEMBL16125043

> <PUBCHEM_XREF_EXT_ID>
SCHEMBL16125043

> <PUBCHEM_EXT_DATASOURCE_URL>
https://www.surechembl.org/

> <PUBCHEM_EXT_SUBSTANCE_URL>
https://www.surechembl.org/chemical/SCHEMBL16125043

> <PUBCHEM_CID_ASSOCIATIONS>
117612776  1

> <PUBCHEM_COORDINATE_TYPE>
1
3

> <PUBCHEM_BONDANNOTATIONS>
14  29  6
32  38  6

$$$$
