310949973
  -OEChem-07211613022D

 28 31  0     0  0  0  0  0  0999 V2000
   -0.8591    1.5589    0.0000 N   0  0  0  0  0  0  0  0  0  0  0  0
   -0.8591    2.8891    0.0000 N   0  0  0  0  0  0  0  0  0  0  0  0
   -0.0970   -0.8106    0.0000 N   0  0  0  0  0  0  0  0  0  0  0  0
    2.0924    0.7968    0.0000 N   0  0  0  0  0  0  0  0  0  0  0  0
   -1.6490    1.8222    0.0000 C   0  0  0  0  0  0  0  0  0  0  0  0
   -0.3741    2.2379    0.0000 C   0  0  0  0  0  0  0  0  0  0  0  0
   -1.6490    2.6397    0.0000 C   0  0  0  0  0  0  0  0  0  0  0  0
   -0.6097    0.7829    0.0000 C   0  0  0  0  0  0  0  0  0  0  0  0
   -2.3418    1.4064    0.0000 C   0  0  0  0  0  0  0  0  0  0  0  0
   -2.3695    3.0416    0.0000 C   0  0  0  0  0  0  0  0  0  0  0  0
   -1.1363    0.1455    0.0000 C   0  0  0  0  0  0  0  0  0  0  0  0
    0.2078    0.5890    0.0000 C   0  0  0  0  0  0  0  0  0  0  0  0
    0.4572    2.2102    0.0000 C   0  0  0  0  0  0  0  0  0  0  0  0
   -3.0624    1.8083    0.0000 C   0  0  0  0  0  0  0  0  0  0  0  0
   -3.0624    2.6259    0.0000 C   0  0  0  0  0  0  0  0  0  0  0  0
   -0.9007   -0.6305    0.0000 C   0  0  0  0  0  0  0  0  0  0  0  0
    0.4434   -0.1871    0.0000 C   0  0  0  0  0  0  0  0  0  0  0  0
    0.8591    1.5174    0.0000 C   0  0  0  0  0  0  0  0  0  0  0  0
    0.1663   -1.5866    0.0000 C   0  0  0  0  0  0  0  0  0  0  0  0
    0.9561   -1.7668    0.0000 C   0  0  0  0  0  0  0  0  0  0  0  0
    1.6905    1.5035    0.0000 C   0  0  0  0  0  0  0  0  0  0  0  0
    1.1224   -2.5843    0.0000 C   0  0  0  0  0  0  0  0  0  0  0  0
    1.4272   -1.0878    0.0000 C   0  0  0  0  0  0  0  0  0  0  0  0
    1.7737   -3.0416    0.0000 C   0  0  0  0  0  0  0  0  0  0  0  0
    2.2448   -0.9354    0.0000 C   0  0  0  0  0  0  0  0  0  0  0  0
    2.9100   -1.4064    0.0000 C   0  0  0  0  0  0  0  0  0  0  0  0
    2.5912   -2.9030    0.0000 C   0  0  0  0  0  0  0  0  0  0  0  0
    3.0624   -2.2240    0.0000 C   0  0  0  0  0  0  0  0  0  0  0  0
  1  5  1  0  0  0  0
  1  6  1  0  0  0  0
  1  8  1  0  0  0  0
  2  6  2  0  0  0  0
  2  7  1  0  0  0  0
  3 16  1  0  0  0  0
  3 17  1  0  0  0  0
  3 19  1  0  0  0  0
  4 21  1  0  0  0  0
  5  7  1  0  0  0  0
  5  9  2  0  0  0  0
  6 13  1  0  0  0  0
  7 10  2  0  0  0  0
  8 11  1  0  0  0  0
  8 12  1  0  0  0  0
  9 14  1  0  0  0  0
 10 15  1  0  0  0  0
 11 16  1  0  0  0  0
 12 17  1  0  0  0  0
 13 18  1  0  0  0  0
 14 15  2  0  0  0  0
 18 21  1  0  0  0  0
 19 20  1  0  0  0  0
 20 22  1  0  0  0  0
 20 23  1  0  0  0  0
 22 24  1  0  0  0  0
 23 25  1  0  0  0  0
 24 27  1  0  0  0  0
 25 26  1  0  0  0  0
 26 28  1  0  0  0  0
 27 28  1  0  0  0  0
M  END
> <PUBCHEM_COMPOUND_ID_TYPE>
0

> <PUBCHEM_TOTAL_CHARGE>
0

> <PUBCHEM_SUBSTANCE_ID>
310949973

> <PUBCHEM_SUBSTANCE_VERSION>
1

> <PUBCHEM_EXT_DATASOURCE_NAME>
4488

> <PUBCHEM_EXT_DATASOURCE_REGID>
SCHEMBL16128202

> <PUBCHEM_SUBSTANCE_COMMENT>
InChI=1S/C24H38N4/c25-16-8-13-24-26-22-11-6-7-12-23(22)28(24)21-14-17-27(18-15-21)19-20-9-4-2-1-3-5-10-20/h6-7,11-12,20-21H,1-5,8-10,13-19,25H2
InChIKey=OJPFJMQNHJGCAU-UHFFFAOYSA-N

> <PUBCHEM_SUBSTANCE_SYNONYM>
SCHEMBL16128202

> <PUBCHEM_XREF_EXT_ID>
SCHEMBL16128202

> <PUBCHEM_EXT_DATASOURCE_URL>
https://www.surechembl.org/

> <PUBCHEM_EXT_SUBSTANCE_URL>
https://www.surechembl.org/chemical/SCHEMBL16128202

> <PUBCHEM_CID_ASSOCIATIONS>
86272618  1

> <PUBCHEM_COORDINATE_TYPE>
1
3

$$$$
