310933473
  -OEChem-07211613022D

 33 37  0     0  0  0  0  0  0999 V2000
    4.9105    0.0000    0.0000 F   0  0  0  0  0  0  0  0  0  0  0  0
    0.0000   -2.8728    0.0000 F   0  0  0  0  0  0  0  0  0  0  0  0
    4.1087   -2.8394    0.0000 O   0  0  0  0  0  0  0  0  0  0  0  0
    0.6013   -5.6120    0.0000 O   0  0  0  0  0  0  0  0  0  0  0  0
    6.0796   -4.4762    0.0000 O   0  0  0  0  0  0  0  0  0  0  0  0
    4.7768   -3.8081    0.0000 N   0  0  0  0  0  0  0  0  0  0  0  0
    4.7768   -5.1443    0.0000 N   0  0  0  0  0  0  0  0  0  0  0  0
    3.2736   -1.4364    0.0000 N   0  0  0  0  0  0  0  0  0  0  0  0
    2.0711   -3.5409    0.0000 N   0  0  0  0  0  0  0  0  0  0  0  0
    1.0021   -6.3134    0.0000 N   0  0  0  0  0  0  0  0  0  0  0  0
    3.2736   -2.8394    0.0000 C   0  0  0  0  0  0  0  0  0  0  0  0
    3.2736   -3.6745    0.0000 C   0  0  0  0  0  0  0  0  0  0  0  0
    4.0085   -4.0419    0.0000 C   0  0  0  0  0  0  0  0  0  0  0  0
    4.0085   -4.9105    0.0000 C   0  0  0  0  0  0  0  0  0  0  0  0
    3.6745   -2.1379    0.0000 C   0  0  0  0  0  0  0  0  0  0  0  0
    2.4719   -2.8394    0.0000 C   0  0  0  0  0  0  0  0  0  0  0  0
    2.6056   -4.9105    0.0000 C   0  0  0  0  0  0  0  0  0  0  0  0
    2.6056   -4.0419    0.0000 C   0  0  0  0  0  0  0  0  0  0  0  0
    3.2736   -5.3113    0.0000 C   0  0  0  0  0  0  0  0  0  0  0  0
    1.9041   -5.3113    0.0000 C   0  0  0  0  0  0  0  0  0  0  0  0
    5.2779   -4.4762    0.0000 C   0  0  0  0  0  0  0  0  0  0  0  0
    4.5096   -2.1379    0.0000 C   0  0  0  0  0  0  0  0  0  0  0  0
    2.0376   -2.1379    0.0000 C   0  0  0  0  0  0  0  0  0  0  0  0
    1.1357   -5.0107    0.0000 C   0  0  0  0  0  0  0  0  0  0  0  0
    1.8039   -6.1464    0.0000 C   0  0  0  0  0  0  0  0  0  0  0  0
    3.6411   -0.7015    0.0000 C   0  0  0  0  0  0  0  0  0  0  0  0
    1.2360   -3.6077    0.0000 C   0  0  0  0  0  0  0  0  0  0  0  0
    4.9105   -1.4030    0.0000 C   0  0  0  0  0  0  0  0  0  0  0  0
    1.2360   -2.1713    0.0000 C   0  0  0  0  0  0  0  0  0  0  0  0
    4.4762   -0.7015    0.0000 C   0  0  0  0  0  0  0  0  0  0  0  0
    0.8351   -2.8728    0.0000 C   0  0  0  0  0  0  0  0  0  0  0  0
    0.9688   -4.2089    0.0000 C   0  0  0  0  0  0  0  0  0  0  0  0
    2.4051   -6.6809    0.0000 C   0  0  0  0  0  0  0  0  0  0  0  0
  1 30  1  0  0  0  0
  2 31  1  0  0  0  0
  3 11  1  0  0  0  0
  4 10  1  0  0  0  0
  4 24  1  0  0  0  0
  5 21  2  0  0  0  0
  6 13  1  0  0  0  0
  6 21  1  0  0  0  0
  7 14  1  0  0  0  0
  7 21  1  0  0  0  0
  8 15  1  0  0  0  0
  8 26  2  0  0  0  0
  9 16  1  0  0  0  0
  9 27  2  0  0  0  0
 10 25  2  0  0  0  0
 11 12  1  0  0  0  0
 11 15  1  0  0  0  0
 11 16  1  0  0  0  0
 12 13  1  0  0  0  0
 12 18  2  0  0  0  0
 13 14  2  0  0  0  0
 14 19  1  0  0  0  0
 15 22  2  0  0  0  0
 16 23  2  0  0  0  0
 17 18  1  0  0  0  0
 17 19  2  0  0  0  0
 17 20  1  0  0  0  0
 20 24  2  0  0  0  0
 20 25  1  0  0  0  0
 22 28  1  0  0  0  0
 23 29  1  0  0  0  0
 24 32  1  0  0  0  0
 25 33  1  0  0  0  0
 26 30  1  0  0  0  0
 27 31  1  0  0  0  0
 28 30  2  0  0  0  0
 29 31  2  0  0  0  0
M  END
> <PUBCHEM_COMPOUND_ID_TYPE>
0

> <PUBCHEM_TOTAL_CHARGE>
0

> <PUBCHEM_SUBSTANCE_ID>
310933473

> <PUBCHEM_SUBSTANCE_VERSION>
1

> <PUBCHEM_EXT_DATASOURCE_NAME>
4488

> <PUBCHEM_EXT_DATASOURCE_REGID>
SCHEMBL16110891

> <PUBCHEM_SUBSTANCE_COMMENT>
InChI=1S/C23H17F2N5O3/c1-11-20(12(2)33-30-11)13-7-16(21-17(8-13)28-22(31)29-21)23(32,18-5-3-14(24)9-26-18)19-6-4-15(25)10-27-19/h3-10,32H,1-2H3,(H2,28,29,31)
InChIKey=HMGDWEMULHSXRY-UHFFFAOYSA-N

> <PUBCHEM_SUBSTANCE_SYNONYM>
SCHEMBL16110891

> <PUBCHEM_XREF_EXT_ID>
SCHEMBL16110891

> <PUBCHEM_EXT_DATASOURCE_URL>
https://www.surechembl.org/

> <PUBCHEM_EXT_SUBSTANCE_URL>
https://www.surechembl.org/chemical/SCHEMBL16110891

> <PUBCHEM_CID_ASSOCIATIONS>
86296961  1

> <PUBCHEM_COORDINATE_TYPE>
1
3

$$$$
