310933405
  -OEChem-07211613022D

 30 32  0     1  0  0  0  0  0999 V2000
    1.7798    1.0799    0.0000 S   0  0  0  0  0  0  0  0  0  0  0  0
    3.2789   -1.2375    0.0000 F   0  0  0  0  0  0  0  0  0  0  0  0
    5.8348    0.9355    0.0000 F   0  0  0  0  0  0  0  0  0  0  0  0
    5.0098    2.3645    0.0000 F   0  0  0  0  0  0  0  0  0  0  0  0
    6.1368    2.0625    0.0000 F   0  0  0  0  0  0  0  0  0  0  0  0
    3.2789    1.2375    0.0000 O   0  0  0  0  0  0  0  0  0  0  0  0
    4.7079   -0.4125    0.0000 O   0  0  0  0  0  0  0  0  0  0  0  0
    5.1204    0.5230    0.0000 O   0  0  0  0  0  0  0  0  0  0  0  0
    0.4699    1.8414    0.0000 O   0  0  0  0  0  0  0  0  0  0  0  0
   -0.7676    1.1270    0.0000 O   0  0  0  0  0  0  0  0  0  0  0  0
    1.7798   -0.2549    0.0000 N   0  0  0  0  0  0  0  0  0  0  0  0
    0.4699    0.4125    0.0000 N   0  0  0  0  0  0  0  0  0  0  0  0
    3.9934    0.8250    0.0000 C   0  0  3  0  0  0  0  0  0  0  0  0
    4.7079    1.2375    0.0000 C   0  0  3  0  0  0  0  0  0  0  0  0
    3.9934    0.0000    0.0000 C   0  0  3  0  0  0  0  0  0  0  0  0
    2.5645    0.0000    0.0000 C   0  0  3  0  0  0  0  0  0  0  0  0
    2.5645    0.8250    0.0000 C   0  0  3  0  0  0  0  0  0  0  0  0
    3.2789   -0.4125    0.0000 C   0  0  3  0  0  0  0  0  0  0  0  0
    5.4223    1.6500    0.0000 C   0  0  0  0  0  0  0  0  0  0  0  0
    1.2949    0.4125    0.0000 C   0  0  0  0  0  0  0  0  0  0  0  0
    4.2954    1.9520    0.0000 C   0  0  0  0  0  0  0  0  0  0  0  0
    5.4223   -0.0000    0.0000 C   0  0  0  0  0  0  0  0  0  0  0  0
    0.0574    1.1270    0.0000 C   0  0  0  0  0  0  0  0  0  0  0  0
    6.1368   -0.4125    0.0000 C   0  0  0  0  0  0  0  0  0  0  0  0
    0.0574   -0.3020    0.0000 C   0  0  0  0  0  0  0  0  0  0  0  0
    6.8513   -0.0000    0.0000 C   0  0  0  0  0  0  0  0  0  0  0  0
    6.1368   -1.2375    0.0000 C   0  0  0  0  0  0  0  0  0  0  0  0
    7.5658   -0.4125    0.0000 C   0  0  0  0  0  0  0  0  0  0  0  0
    6.8513   -1.6500    0.0000 C   0  0  0  0  0  0  0  0  0  0  0  0
    7.5658   -1.2375    0.0000 C   0  0  0  0  0  0  0  0  0  0  0  0
 17  1  1  1  0  0  0
  1 20  1  0  0  0  0
 18  2  1  1  0  0  0
  3 19  1  0  0  0  0
  4 19  1  0  0  0  0
  5 19  1  0  0  0  0
  6 13  1  0  0  0  0
  6 17  1  0  0  0  0
 15  7  1  1  0  0  0
  7 22  1  0  0  0  0
  8 14  1  0  0  0  0
  9 23  2  0  0  0  0
 10 23  1  0  0  0  0
 16 11  1  1  0  0  0
 11 20  2  0  0  0  0
 12 20  1  0  0  0  0
 12 23  1  0  0  0  0
 12 25  1  0  0  0  0
 13 14  1  6  0  0  0
 13 15  1  0  0  0  0
 14 19  1  0  0  0  0
 14 21  1  0  0  0  0
 15 18  1  0  0  0  0
 16 17  1  0  0  0  0
 16 18  1  0  0  0  0
 22 24  1  0  0  0  0
 24 26  2  0  0  0  0
 24 27  1  0  0  0  0
 26 28  1  0  0  0  0
 27 29  2  0  0  0  0
 28 30  2  0  0  0  0
 29 30  1  0  0  0  0
M  END
> <PUBCHEM_COMPOUND_ID_TYPE>
0

> <PUBCHEM_TOTAL_CHARGE>
0

> <PUBCHEM_SUBSTANCE_ID>
310933405

> <PUBCHEM_SUBSTANCE_VERSION>
1

> <PUBCHEM_EXT_DATASOURCE_NAME>
4488

> <PUBCHEM_EXT_DATASOURCE_REGID>
SCHEMBL16110821

> <PUBCHEM_SUBSTANCE_COMMENT>
InChI=1S/C18H20F4N2O5S/c1-17(27,18(20,21)22)13-12(28-8-9-6-4-3-5-7-9)10(19)11-14(29-13)30-15(23-11)24(2)16(25)26/h3-7,10-14,27H,8H2,1-2H3,(H,25,26)/t10-,11+,12-,13-,14+,17?/m0/s1
InChIKey=VQBJHBLNVIWBLE-GLTRCKJISA-N

> <PUBCHEM_SUBSTANCE_SYNONYM>
SCHEMBL16110821

> <PUBCHEM_XREF_EXT_ID>
SCHEMBL16110821

> <PUBCHEM_EXT_DATASOURCE_URL>
https://www.surechembl.org/

> <PUBCHEM_EXT_SUBSTANCE_URL>
https://www.surechembl.org/chemical/SCHEMBL16110821

> <PUBCHEM_CID_ASSOCIATIONS>
117601815  1

> <PUBCHEM_COORDINATE_TYPE>
1
3

> <PUBCHEM_BONDANNOTATIONS>
17  1  5
16  11  5
13  14  6
18  2  5
15  7  5

$$$$
