310930901
  -OEChem-07211613022D

 37 41  0     1  0  0  0  0  0999 V2000
    6.4018   -5.8396    0.0000 F   0  0  0  0  0  0  0  0  0  0  0  0
    4.2782   -0.9056    0.0000 F   0  0  0  0  0  0  0  0  0  0  0  0
    0.7182   -2.5607    0.0000 F   0  0  0  0  0  0  0  0  0  0  0  0
    0.0312   -3.8098    0.0000 F   0  0  0  0  0  0  0  0  0  0  0  0
    0.0000   -2.9667    0.0000 F   0  0  0  0  0  0  0  0  0  0  0  0
    4.9965   -5.8396    0.0000 O   0  0  0  0  0  0  0  0  0  0  0  0
    1.4365   -4.6217    0.0000 O   0  0  0  0  0  0  0  0  0  0  0  0
    4.2782   -4.5905    0.0000 N   0  0  0  0  0  0  0  0  0  0  0  0
    4.9965   -3.3726    0.0000 N   0  0  0  0  0  0  0  0  0  0  0  0
    3.5912   -2.5607    0.0000 N   0  0  0  0  0  0  0  0  0  0  0  0
    2.1860   -2.5607    0.0000 N   0  0  0  0  0  0  0  0  0  0  0  0
    2.3421   -0.0937    0.0000 N   0  0  0  0  0  0  0  0  0  0  0  0
    1.4677   -1.3116    0.0000 N   0  0  0  0  0  0  0  0  0  0  0  0
    4.2782   -3.7786    0.0000 C   0  0  0  0  0  0  0  0  0  0  0  0
    5.7147   -4.5905    0.0000 C   0  0  0  0  0  0  0  0  0  0  0  0
    4.9965   -4.9965    0.0000 C   0  0  0  0  0  0  0  0  0  0  0  0
    5.7147   -3.7786    0.0000 C   0  0  0  0  0  0  0  0  0  0  0  0
    3.5600   -4.9965    0.0000 C   0  0  0  0  0  0  0  0  0  0  0  0
    3.5600   -3.3726    0.0000 C   0  0  3  0  0  0  0  0  0  0  0  0
    6.4018   -4.9965    0.0000 C   0  0  0  0  0  0  0  0  0  0  0  0
    2.9042   -1.3116    0.0000 C   0  0  0  0  0  0  0  0  0  0  0  0
    2.8730   -2.1547    0.0000 C   0  0  0  0  0  0  0  0  0  0  0  0
    2.1547   -0.9056    0.0000 C   0  0  0  0  0  0  0  0  0  0  0  0
    6.4018   -3.3726    0.0000 C   0  0  0  0  0  0  0  0  0  0  0  0
    3.4975   -0.7495    0.0000 C   0  0  0  0  0  0  0  0  0  0  0  0
    2.8730   -4.6217    0.0000 C   0  0  0  0  0  0  0  0  0  0  0  0
    3.5600   -5.8396    0.0000 C   0  0  0  0  0  0  0  0  0  0  0  0
    7.1200   -4.5905    0.0000 C   0  0  0  0  0  0  0  0  0  0  0  0
    2.1547   -5.0277    0.0000 C   0  0  0  0  0  0  0  0  0  0  0  0
    7.1200   -3.7786    0.0000 C   0  0  0  0  0  0  0  0  0  0  0  0
    3.1540    0.0000    0.0000 C   0  0  0  0  0  0  0  0  0  0  0  0
    2.8730   -3.7786    0.0000 C   0  0  0  0  0  0  0  0  0  0  0  0
    1.4365   -2.1235    0.0000 C   0  0  0  0  0  0  0  0  0  0  0  0
    2.8730   -6.2456    0.0000 C   0  0  0  0  0  0  0  0  0  0  0  0
    2.1547   -5.8396    0.0000 C   0  0  0  0  0  0  0  0  0  0  0  0
    1.4365   -3.8098    0.0000 C   0  0  0  0  0  0  0  0  0  0  0  0
    0.7182   -3.3726    0.0000 C   0  0  0  0  0  0  0  0  0  0  0  0
  1 20  1  0  0  0  0
  2 25  1  0  0  0  0
  3 37  1  0  0  0  0
  4 37  1  0  0  0  0
  5 37  1  0  0  0  0
  6 16  2  0  0  0  0
  7 29  1  0  0  0  0
  7 36  1  0  0  0  0
  8 14  1  0  0  0  0
  8 16  1  0  0  0  0
  8 18  1  0  0  0  0
  9 14  2  0  0  0  0
  9 17  1  0  0  0  0
 10 19  1  0  0  0  0
 10 22  1  0  0  0  0
 11 22  1  0  0  0  0
 11 33  2  0  0  0  0
 12 23  1  0  0  0  0
 12 31  1  0  0  0  0
 13 23  2  0  0  0  0
 13 33  1  0  0  0  0
 14 19  1  0  0  0  0
 15 16  1  0  0  0  0
 15 17  2  0  0  0  0
 15 20  1  0  0  0  0
 17 24  1  0  0  0  0
 18 26  1  0  0  0  0
 18 27  2  0  0  0  0
 19 32  1  6  0  0  0
 20 28  2  0  0  0  0
 21 22  2  0  0  0  0
 21 23  1  0  0  0  0
 21 25  1  0  0  0  0
 24 30  2  0  0  0  0
 25 31  2  0  0  0  0
 26 29  2  0  0  0  0
 27 34  1  0  0  0  0
 28 30  1  0  0  0  0
 29 35  1  0  0  0  0
 34 35  2  0  0  0  0
 36 37  1  0  0  0  0
M  END
> <PUBCHEM_COMPOUND_ID_TYPE>
0

> <PUBCHEM_TOTAL_CHARGE>
0

> <PUBCHEM_SUBSTANCE_ID>
310930901

> <PUBCHEM_SUBSTANCE_VERSION>
1

> <PUBCHEM_EXT_DATASOURCE_NAME>
4488

> <PUBCHEM_EXT_DATASOURCE_REGID>
SCHEMBL16108199

> <PUBCHEM_SUBSTANCE_COMMENT>
InChI=1S/C24H17F5N6O2/c1-12(33-21-19-16(26)9-30-20(19)31-11-32-21)22-34-17-7-3-6-15(25)18(17)23(36)35(22)13-4-2-5-14(8-13)37-10-24(27,28)29/h2-9,11-12H,10H2,1H3,(H2,30,31,32,33)/t12-/m0/s1
InChIKey=JZZTVAFNHYJHPB-LBPRGKRZSA-N

> <PUBCHEM_SUBSTANCE_SYNONYM>
SCHEMBL16108199

> <PUBCHEM_XREF_EXT_ID>
SCHEMBL16108199

> <PUBCHEM_EXT_DATASOURCE_URL>
https://www.surechembl.org/

> <PUBCHEM_EXT_SUBSTANCE_URL>
https://www.surechembl.org/chemical/SCHEMBL16108199

> <PUBCHEM_CID_ASSOCIATIONS>
86272627  1

> <PUBCHEM_COORDINATE_TYPE>
1
3

> <PUBCHEM_BONDANNOTATIONS>
19  32  6

$$$$
