310945096
  -OEChem-07211613022D

 33 36  0     0  0  0  0  0  0999 V2000
   -4.6977   -2.2323    0.0000 O   0  0  0  0  0  0  0  0  0  0  0  0
    3.9805   -2.2323    0.0000 O   0  0  0  0  0  0  0  0  0  0  0  0
    4.6977   -0.9952    0.0000 O   0  0  0  0  0  0  0  0  0  0  0  0
   -3.2454   -1.4075    0.0000 N   0  0  0  0  0  0  0  0  0  0  0  0
   -0.3765    0.2241    0.0000 C   0  0  0  0  0  0  0  0  0  0  0  0
   -1.0758   -0.1883    0.0000 C   0  0  0  0  0  0  0  0  0  0  0  0
   -0.3586    1.0490    0.0000 C   0  0  0  0  0  0  0  0  0  0  0  0
    0.3586   -0.1883    0.0000 C   0  0  0  0  0  0  0  0  0  0  0  0
    0.3406    1.4434    0.0000 C   0  0  0  0  0  0  0  0  0  0  0  0
   -2.5282   -1.0131    0.0000 C   0  0  0  0  0  0  0  0  0  0  0  0
   -1.8289    0.2062    0.0000 C   0  0  0  0  0  0  0  0  0  0  0  0
   -1.0937   -1.0131    0.0000 C   0  0  0  0  0  0  0  0  0  0  0  0
    0.3765   -1.0131    0.0000 C   0  0  0  0  0  0  0  0  0  0  0  0
    1.0758    0.2062    0.0000 C   0  0  0  0  0  0  0  0  0  0  0  0
   -2.5103   -0.1883    0.0000 C   0  0  0  0  0  0  0  0  0  0  0  0
   -1.8289   -1.4075    0.0000 C   0  0  0  0  0  0  0  0  0  0  0  0
   -1.0758    1.4434    0.0000 C   0  0  0  0  0  0  0  0  0  0  0  0
    1.8110   -1.0131    0.0000 C   0  0  0  0  0  0  0  0  0  0  0  0
    1.1117   -1.4075    0.0000 C   0  0  0  0  0  0  0  0  0  0  0  0
    1.7930   -0.2062    0.0000 C   0  0  0  0  0  0  0  0  0  0  0  0
    1.0937    1.0490    0.0000 C   0  0  0  0  0  0  0  0  0  0  0  0
    0.3765    2.2682    0.0000 C   0  0  0  0  0  0  0  0  0  0  0  0
   -3.2634   -2.2503    0.0000 C   0  0  0  0  0  0  0  0  0  0  0  0
   -3.9984   -1.0310    0.0000 C   0  0  0  0  0  0  0  0  0  0  0  0
    1.7930    1.4434    0.0000 C   0  0  0  0  0  0  0  0  0  0  0  0
    1.0579    2.6626    0.0000 C   0  0  0  0  0  0  0  0  0  0  0  0
    2.5461   -1.4255    0.0000 C   0  0  0  0  0  0  0  0  0  0  0  0
   -1.0758    2.2861    0.0000 C   0  0  0  0  0  0  0  0  0  0  0  0
    1.7930    2.2682    0.0000 C   0  0  0  0  0  0  0  0  0  0  0  0
   -3.9626   -2.6626    0.0000 C   0  0  0  0  0  0  0  0  0  0  0  0
   -4.6798   -1.4255    0.0000 C   0  0  0  0  0  0  0  0  0  0  0  0
    3.2275   -1.0310    0.0000 C   0  0  0  0  0  0  0  0  0  0  0  0
    3.9805   -1.4075    0.0000 C   0  0  0  0  0  0  0  0  0  0  0  0
  1 30  1  0  0  0  0
  1 31  1  0  0  0  0
  2 33  2  0  0  0  0
  3 33  1  0  0  0  0
  4 10  1  0  0  0  0
  4 23  1  0  0  0  0
  4 24  1  0  0  0  0
  5  6  1  0  0  0  0
  5  7  2  0  0  0  0
  5  8  1  0  0  0  0
  6 11  2  0  0  0  0
  6 12  1  0  0  0  0
  7  9  1  0  0  0  0
  7 17  1  0  0  0  0
  8 13  2  0  0  0  0
  8 14  1  0  0  0  0
  9 21  2  0  0  0  0
  9 22  1  0  0  0  0
 10 15  2  0  0  0  0
 10 16  1  0  0  0  0
 11 15  1  0  0  0  0
 12 16  2  0  0  0  0
 13 19  1  0  0  0  0
 14 20  2  0  0  0  0
 17 28  1  0  0  0  0
 18 19  2  0  0  0  0
 18 20  1  0  0  0  0
 18 27  1  0  0  0  0
 21 25  1  0  0  0  0
 22 26  2  0  0  0  0
 23 30  1  0  0  0  0
 24 31  1  0  0  0  0
 25 29  2  0  0  0  0
 26 29  1  0  0  0  0
 27 32  2  0  0  0  0
 32 33  1  0  0  0  0
M  END
> <PUBCHEM_COMPOUND_ID_TYPE>
0

> <PUBCHEM_TOTAL_CHARGE>
0

> <PUBCHEM_SUBSTANCE_ID>
310945096

> <PUBCHEM_SUBSTANCE_VERSION>
1

> <PUBCHEM_EXT_DATASOURCE_NAME>
4488

> <PUBCHEM_EXT_DATASOURCE_REGID>
SCHEMBL16123186

> <PUBCHEM_SUBSTANCE_COMMENT>
InChI=1S/C29H29NO3/c1-2-27(23-6-4-3-5-7-23)29(24-11-8-22(9-12-24)10-17-28(31)32)25-13-15-26(16-14-25)30-18-20-33-21-19-30/h3-17H,2,18-21H2,1H3,(H,31,32)/b17-10+,29-27+
InChIKey=WEMHSPZIGQIFCC-CIBXRSJISA-N

> <PUBCHEM_SUBSTANCE_SYNONYM>
SCHEMBL16123186

> <PUBCHEM_XREF_EXT_ID>
SCHEMBL16123186

> <PUBCHEM_EXT_DATASOURCE_URL>
https://www.surechembl.org/

> <PUBCHEM_EXT_SUBSTANCE_URL>
https://www.surechembl.org/chemical/SCHEMBL16123186

> <PUBCHEM_CID_ASSOCIATIONS>
86271185  1

> <PUBCHEM_COORDINATE_TYPE>
1
3

$$$$
