310941722
  -OEChem-07211613022D

 38 41  0     0  0  0  0  0  0999 V2000
   -2.0595    1.4745    0.0000 S   0  0  0  0  0  0  0  0  0  0  0  0
   -1.5306   -2.3721    0.0000 F   0  0  0  0  0  0  0  0  0  0  0  0
   -0.8094   -2.7888    0.0000 F   0  0  0  0  0  0  0  0  0  0  0  0
   -1.5306   -1.5386    0.0000 F   0  0  0  0  0  0  0  0  0  0  0  0
   -5.6015    0.8815    0.0000 F   0  0  0  0  0  0  0  0  0  0  0  0
   -3.5821   -1.1379    0.0000 F   0  0  0  0  0  0  0  0  0  0  0  0
   -0.1042   -1.5386    0.0000 O   0  0  0  0  0  0  0  0  0  0  0  0
    0.6170    2.1957    0.0000 O   0  0  0  0  0  0  0  0  0  0  0  0
    2.0435    0.5289    0.0000 O   0  0  0  0  0  0  0  0  0  0  0  0
   -0.8415    2.1957    0.0000 N   0  0  0  0  0  0  0  0  0  0  0  0
   -2.9731    2.4522    0.0000 N   0  0  0  0  0  0  0  0  0  0  0  0
   -2.2198    2.7888    0.0000 N   0  0  0  0  0  0  0  0  0  0  0  0
    1.3063   -0.7212    0.0000 N   0  0  0  0  0  0  0  0  0  0  0  0
    3.4539   -0.2885    0.0000 N   0  0  0  0  0  0  0  0  0  0  0  0
    4.8643    0.5289    0.0000 N   0  0  0  0  0  0  0  0  0  0  0  0
    0.5850   -0.2725    0.0000 C   0  0  0  0  0  0  0  0  0  0  0  0
   -2.8769    1.6828    0.0000 C   0  0  0  0  0  0  0  0  0  0  0  0
   -0.1202    0.9616    0.0000 C   0  0  0  0  0  0  0  0  0  0  0  0
   -0.1042   -0.6891    0.0000 C   0  0  0  0  0  0  0  0  0  0  0  0
   -1.6748    2.2118    0.0000 C   0  0  0  0  0  0  0  0  0  0  0  0
   -3.4539    1.0578    0.0000 C   0  0  0  0  0  0  0  0  0  0  0  0
   -0.1202    1.7791    0.0000 C   0  0  0  0  0  0  0  0  0  0  0  0
    0.6010    0.5449    0.0000 C   0  0  0  0  0  0  0  0  0  0  0  0
   -0.8254    0.5449    0.0000 C   0  0  0  0  0  0  0  0  0  0  0  0
   -0.8254   -0.2885    0.0000 C   0  0  0  0  0  0  0  0  0  0  0  0
   -3.2616    0.2404    0.0000 C   0  0  0  0  0  0  0  0  0  0  0  0
   -4.2553    1.2662    0.0000 C   0  0  0  0  0  0  0  0  0  0  0  0
   -0.8575   -1.9393    0.0000 C   0  0  0  0  0  0  0  0  0  0  0  0
   -4.8323    0.6891    0.0000 C   0  0  0  0  0  0  0  0  0  0  0  0
   -3.8065   -0.3046    0.0000 C   0  0  0  0  0  0  0  0  0  0  0  0
    2.0114   -0.2885    0.0000 C   0  0  0  0  0  0  0  0  0  0  0  0
   -4.6078   -0.0961    0.0000 C   0  0  0  0  0  0  0  0  0  0  0  0
    2.7648   -0.7052    0.0000 C   0  0  0  0  0  0  0  0  0  0  0  0
    4.1912   -0.7052    0.0000 C   0  0  0  0  0  0  0  0  0  0  0  0
    3.4699    0.5449    0.0000 C   0  0  0  0  0  0  0  0  0  0  0  0
    4.8643   -0.2885    0.0000 C   0  0  0  0  0  0  0  0  0  0  0  0
    4.1430    0.9456    0.0000 C   0  0  0  0  0  0  0  0  0  0  0  0
    5.6015    0.9296    0.0000 C   0  0  0  0  0  0  0  0  0  0  0  0
  1 17  1  0  0  0  0
  1 20  1  0  0  0  0
  2 28  1  0  0  0  0
  3 28  1  0  0  0  0
  4 28  1  0  0  0  0
  5 29  1  0  0  0  0
  6 30  1  0  0  0  0
  7 19  1  0  0  0  0
  7 28  1  0  0  0  0
  8 22  2  0  0  0  0
  9 31  2  0  0  0  0
 10 20  1  0  0  0  0
 10 22  1  0  0  0  0
 11 12  1  0  0  0  0
 11 17  2  0  0  0  0
 12 20  2  0  0  0  0
 13 16  1  0  0  0  0
 13 31  1  0  0  0  0
 14 33  1  0  0  0  0
 14 34  1  0  0  0  0
 14 35  1  0  0  0  0
 15 36  1  0  0  0  0
 15 37  1  0  0  0  0
 15 38  1  0  0  0  0
 16 19  2  0  0  0  0
 16 23  1  0  0  0  0
 17 21  1  0  0  0  0
 18 22  1  0  0  0  0
 18 23  2  0  0  0  0
 18 24  1  0  0  0  0
 19 25  1  0  0  0  0
 21 26  2  0  0  0  0
 21 27  1  0  0  0  0
 24 25  2  0  0  0  0
 26 30  1  0  0  0  0
 27 29  2  0  0  0  0
 29 32  1  0  0  0  0
 30 32  2  0  0  0  0
 31 33  1  0  0  0  0
 34 36  1  0  0  0  0
 35 37  1  0  0  0  0
M  END
> <PUBCHEM_COMPOUND_ID_TYPE>
0

> <PUBCHEM_TOTAL_CHARGE>
0

> <PUBCHEM_SUBSTANCE_ID>
310941722

> <PUBCHEM_SUBSTANCE_VERSION>
1

> <PUBCHEM_EXT_DATASOURCE_NAME>
4488

> <PUBCHEM_EXT_DATASOURCE_REGID>
SCHEMBL16119753

> <PUBCHEM_SUBSTANCE_COMMENT>
InChI=1S/C23H21F5N6O3S/c1-33-4-6-34(7-5-33)12-19(35)29-17-10-13(2-3-18(17)37-23(26,27)28)20(36)30-22-32-31-21(38-22)14-8-15(24)11-16(25)9-14/h2-3,8-11H,4-7,12H2,1H3,(H,29,35)(H,30,32,36)
InChIKey=BUJKGGJCJHVRCQ-UHFFFAOYSA-N

> <PUBCHEM_SUBSTANCE_SYNONYM>
SCHEMBL16119753

> <PUBCHEM_XREF_EXT_ID>
SCHEMBL16119753

> <PUBCHEM_EXT_DATASOURCE_URL>
https://www.surechembl.org/

> <PUBCHEM_EXT_SUBSTANCE_URL>
https://www.surechembl.org/chemical/SCHEMBL16119753

> <PUBCHEM_CID_ASSOCIATIONS>
117608492  1

> <PUBCHEM_COORDINATE_TYPE>
1
3

$$$$
