310943843
  -OEChem-07211613022D

 33 37  0     1  0  0  0  0  0999 V2000
    2.4762   -0.0664    0.0000 O   0  0  0  0  0  0  0  0  0  0  0  0
    4.9966   -1.6803    0.0000 O   0  0  0  0  0  0  0  0  0  0  0  0
    5.5162   -0.3206    0.0000 O   0  0  0  0  0  0  0  0  0  0  0  0
    2.8631   -1.4702    0.0000 N   0  0  0  0  0  0  0  0  0  0  0  0
    0.1106   -0.3758    0.0000 N   0  0  0  0  0  0  0  0  0  0  0  0
   -4.2007    1.2713    0.0000 N   0  0  0  0  0  0  0  0  0  0  0  0
   -2.0451    0.8622    0.0000 N   0  0  0  0  0  0  0  0  0  0  0  0
   -2.7636    1.2713    0.0000 N   0  0  0  0  0  0  0  0  0  0  0  0
   -4.2891    2.0893    0.0000 N   0  0  0  0  0  0  0  0  0  0  0  0
   -5.1072    2.2551    0.0000 N   0  0  0  0  0  0  0  0  0  0  0  0
   -5.5162    1.5476    0.0000 N   0  0  0  0  0  0  0  0  0  0  0  0
    1.5366   -1.1828    0.0000 C   0  0  0  0  0  0  0  0  0  0  0  0
    2.2883   -0.8733    0.0000 C   0  0  0  0  0  0  0  0  0  0  0  0
    3.6811   -1.3929    0.0000 C   0  0  0  0  0  0  0  0  0  0  0  0
    1.5476   -2.0009    0.0000 C   0  0  0  0  0  0  0  0  0  0  0  0
    2.3325   -2.2551    0.0000 C   0  0  0  0  0  0  0  0  0  0  0  0
    0.8402   -1.5918    0.0000 C   0  0  0  0  0  0  0  0  0  0  0  0
    1.5476   -0.3648    0.0000 C   0  0  0  0  0  0  0  0  0  0  0  0
    4.0901   -0.6743    0.0000 C   0  0  0  0  0  0  0  0  0  0  0  0
    0.1106   -1.1939    0.0000 C   0  0  0  0  0  0  0  0  0  0  0  0
    0.8291    0.0442    0.0000 C   0  0  0  0  0  0  0  0  0  0  0  0
    4.2560   -2.0009    0.0000 C   0  0  0  0  0  0  0  0  0  0  0  0
    4.8860   -0.8622    0.0000 C   0  0  0  0  0  0  0  0  0  0  0  0
   -0.6080    0.0552    0.0000 C   0  0  3  0  0  0  0  0  0  0  0  0
   -2.0561    0.0442    0.0000 C   0  0  0  0  0  0  0  0  0  0  0  0
   -1.3265   -0.3648    0.0000 C   0  0  0  0  0  0  0  0  0  0  0  0
   -3.4821    0.8622    0.0000 C   0  0  0  0  0  0  0  0  0  0  0  0
   -2.7636   -0.3648    0.0000 C   0  0  0  0  0  0  0  0  0  0  0  0
    3.7474    0.0664    0.0000 C   0  0  0  0  0  0  0  0  0  0  0  0
   -3.4821    0.0442    0.0000 C   0  0  0  0  0  0  0  0  0  0  0  0
   -0.6080    0.8622    0.0000 C   0  0  0  0  0  0  0  0  0  0  0  0
   -4.9524    0.9396    0.0000 C   0  0  0  0  0  0  0  0  0  0  0  0
   -2.7525   -1.2049    0.0000 C   0  0  0  0  0  0  0  0  0  0  0  0
  1 13  2  0  0  0  0
  2 22  1  0  0  0  0
  2 23  1  0  0  0  0
  3 23  2  0  0  0  0
  4 13  1  0  0  0  0
  4 14  1  0  0  0  0
  4 16  1  0  0  0  0
  5 20  1  0  0  0  0
  5 21  1  0  0  0  0
  5 24  1  0  0  0  0
  6  9  1  0  0  0  0
  6 27  1  0  0  0  0
  6 32  1  0  0  0  0
  7  8  1  0  0  0  0
  7 25  2  0  0  0  0
  8 27  2  0  0  0  0
  9 10  2  0  0  0  0
 10 11  1  0  0  0  0
 11 32  2  0  0  0  0
 12 13  1  0  0  0  0
 12 15  1  0  0  0  0
 12 17  1  0  0  0  0
 12 18  1  0  0  0  0
 14 19  2  0  0  0  0
 14 22  1  0  0  0  0
 15 16  2  0  0  0  0
 17 20  1  0  0  0  0
 18 21  1  0  0  0  0
 19 23  1  0  0  0  0
 19 29  1  0  0  0  0
 24 26  1  0  0  0  0
 24 31  1  1  0  0  0
 25 26  1  0  0  0  0
 25 28  1  0  0  0  0
 27 30  1  0  0  0  0
 28 30  2  0  0  0  0
 28 33  1  0  0  0  0
M  END
> <PUBCHEM_COMPOUND_ID_TYPE>
0

> <PUBCHEM_TOTAL_CHARGE>
0

> <PUBCHEM_SUBSTANCE_ID>
310943843

> <PUBCHEM_SUBSTANCE_VERSION>
1

> <PUBCHEM_EXT_DATASOURCE_NAME>
4488

> <PUBCHEM_EXT_DATASOURCE_REGID>
SCHEMBL16121914

> <PUBCHEM_SUBSTANCE_COMMENT>
InChI=1S/C22H26N8O3/c1-14-10-19(30-13-23-26-27-30)25-24-17(14)11-15(2)28-7-4-22(5-8-28)6-9-29(21(22)32)18-12-33-20(31)16(18)3/h6,9-10,13,15H,4-5,7-8,11-12H2,1-3H3/t15-/m1/s1
InChIKey=HASYOWPWYRDOQJ-OAHLLOKOSA-N

> <PUBCHEM_SUBSTANCE_SYNONYM>
SCHEMBL16121914

> <PUBCHEM_XREF_EXT_ID>
SCHEMBL16121914

> <PUBCHEM_EXT_DATASOURCE_URL>
https://www.surechembl.org/

> <PUBCHEM_EXT_SUBSTANCE_URL>
https://www.surechembl.org/chemical/SCHEMBL16121914

> <PUBCHEM_CID_ASSOCIATIONS>
117610181  1

> <PUBCHEM_COORDINATE_TYPE>
1
3

> <PUBCHEM_BONDANNOTATIONS>
24  31  5

$$$$
