310929122
  -OEChem-07211613022D

 20 20  0     0  0  0  0  0  0999 V2000
    2.8862   -0.7055    0.0000 O   0  0  0  0  0  0  0  0  0  0  0  0
    1.6462    0.0000    0.0000 O   0  0  0  0  0  0  0  0  0  0  0  0
    3.6987   -0.7055    0.0000 O   0  0  0  0  0  0  0  0  0  0  0  0
    4.9387   -1.4324    0.0000 O   0  0  0  0  0  0  0  0  0  0  0  0
    3.6987   -2.1380    0.0000 N   0  0  0  0  0  0  0  0  0  0  0  0
    0.4062   -0.7055    0.0000 N   0  0  0  0  0  0  0  0  0  0  0  0
    1.6462   -1.4324    0.0000 C   0  0  0  0  0  0  0  0  0  0  0  0
    2.4586   -1.4324    0.0000 C   0  0  0  0  0  0  0  0  0  0  0  0
    1.6462   -2.8649    0.0000 C   0  0  0  0  0  0  0  0  0  0  0  0
    2.8862   -2.1380    0.0000 C   0  0  0  0  0  0  0  0  0  0  0  0
    1.2400   -2.1380    0.0000 C   0  0  0  0  0  0  0  0  0  0  0  0
    2.4586   -2.8649    0.0000 C   0  0  0  0  0  0  0  0  0  0  0  0
    1.2187   -3.5704    0.0000 C   0  0  0  0  0  0  0  0  0  0  0  0
    1.2400   -0.7055    0.0000 C   0  0  0  0  0  0  0  0  0  0  0  0
    4.1263   -1.4324    0.0000 C   0  0  0  0  0  0  0  0  0  0  0  0
    0.5131   -3.1428    0.0000 C   0  0  0  0  0  0  0  0  0  0  0  0
    0.8338   -4.2759    0.0000 C   0  0  0  0  0  0  0  0  0  0  0  0
    1.9456   -3.9766    0.0000 C   0  0  0  0  0  0  0  0  0  0  0  0
    2.4586    0.0000    0.0000 C   0  0  0  0  0  0  0  0  0  0  0  0
    0.0000    0.0000    0.0000 C   0  0  0  0  0  0  0  0  0  0  0  0
  1  8  1  0  0  0  0
  1 19  1  0  0  0  0
  2 14  2  0  0  0  0
  3 15  2  0  0  0  0
  4 15  1  0  0  0  0
  5 10  1  0  0  0  0
  5 15  1  0  0  0  0
  6 14  1  0  0  0  0
  6 20  1  0  0  0  0
  7  8  2  0  0  0  0
  7 11  1  0  0  0  0
  7 14  1  0  0  0  0
  8 10  1  0  0  0  0
  9 11  2  0  0  0  0
  9 12  1  0  0  0  0
  9 13  1  0  0  0  0
 10 12  2  0  0  0  0
 13 16  1  0  0  0  0
 13 17  1  0  0  0  0
 13 18  1  0  0  0  0
M  END
> <PUBCHEM_COMPOUND_ID_TYPE>
0

> <PUBCHEM_TOTAL_CHARGE>
0

> <PUBCHEM_SUBSTANCE_ID>
310929122

> <PUBCHEM_SUBSTANCE_VERSION>
1

> <PUBCHEM_EXT_DATASOURCE_NAME>
4488

> <PUBCHEM_EXT_DATASOURCE_REGID>
SCHEMBL16106285

> <PUBCHEM_SUBSTANCE_COMMENT>
InChI=1S/C14H20N2O4/c1-14(2,3)8-6-9(12(17)15-4)11(20-5)10(7-8)16-13(18)19/h6-7,16H,1-5H3,(H,15,17)(H,18,19)
InChIKey=YSOVHSMRIPKAAY-UHFFFAOYSA-N

> <PUBCHEM_SUBSTANCE_SYNONYM>
SCHEMBL16106285

> <PUBCHEM_XREF_EXT_ID>
SCHEMBL16106285

> <PUBCHEM_EXT_DATASOURCE_URL>
https://www.surechembl.org/

> <PUBCHEM_EXT_SUBSTANCE_URL>
https://www.surechembl.org/chemical/SCHEMBL16106285

> <PUBCHEM_CID_ASSOCIATIONS>
117598601  1

> <PUBCHEM_COORDINATE_TYPE>
1
3

$$$$
