310939542
  -OEChem-07211613022D

 33 36  0     1  0  0  0  0  0999 V2000
    3.8145   11.4953    0.0000 O   0  0  0  0  0  0  0  0  0  0  0  0
    8.0525   13.2226    0.0000 O   0  0  0  0  0  0  0  0  0  0  0  0
    3.8145    9.8453    0.0000 O   0  0  0  0  0  0  0  0  0  0  0  0
    8.5840   15.4295    0.0000 O   0  0  0  0  0  0  0  0  0  0  0  0
    5.9579   13.6351    0.0000 C   0  0  3  0  0  0  0  0  0  0  0  0
    5.9579   12.8101    0.0000 C   0  0  3  0  0  0  0  0  0  0  0  0
    4.5290   12.8101    0.0000 C   0  0  0  0  0  0  0  0  0  0  0  0
    6.7425   13.8900    0.0000 C   0  0  3  0  0  0  0  0  0  0  0  0
    4.5290   13.6351    0.0000 C   0  0  0  0  0  0  0  0  0  0  0  0
    5.2435   14.0476    0.0000 C   0  0  0  0  0  0  0  0  0  0  0  0
    5.2435   12.3976    0.0000 C   0  0  0  0  0  0  0  0  0  0  0  0
    7.2275   13.2226    0.0000 C   0  0  3  0  0  0  0  0  0  0  0  0
    6.7425   12.5552    0.0000 C   0  0  0  0  0  0  0  0  0  0  0  0
    3.8145   12.3976    0.0000 C   0  0  0  0  0  0  0  0  0  0  0  0
    3.8145   14.0476    0.0000 C   0  0  0  0  0  0  0  0  0  0  0  0
    7.1550   14.6045    0.0000 C   0  0  0  0  0  0  0  0  0  0  0  0
    3.1000   12.8101    0.0000 C   0  0  0  0  0  0  0  0  0  0  0  0
    3.1000   13.6351    0.0000 C   0  0  0  0  0  0  0  0  0  0  0  0
    7.8695   14.1920    0.0000 C   0  0  0  0  0  0  0  0  0  0  0  0
    3.1000   11.0828    0.0000 C   0  0  0  0  0  0  0  0  0  0  0  0
    3.1000   10.2578    0.0000 C   0  0  0  0  0  0  0  0  0  0  0  0
    8.5840   14.6045    0.0000 C   0  0  3  0  0  0  0  0  0  0  0  0
    2.3856    9.8453    0.0000 C   0  0  0  0  0  0  0  0  0  0  0  0
    1.6711   10.2578    0.0000 C   0  0  0  0  0  0  0  0  0  0  0  0
    2.3856    9.0203    0.0000 C   0  0  0  0  0  0  0  0  0  0  0  0
    9.2985   14.1920    0.0000 C   0  0  0  0  0  0  0  0  0  0  0  0
    0.9566    9.8453    0.0000 C   0  0  0  0  0  0  0  0  0  0  0  0
    1.6711    8.6078    0.0000 C   0  0  0  0  0  0  0  0  0  0  0  0
    0.9566    9.0203    0.0000 C   0  0  0  0  0  0  0  0  0  0  0  0
   10.0129   14.6045    0.0000 C   0  0  0  0  0  0  0  0  0  0  0  0
   10.7274   14.1920    0.0000 C   0  0  0  0  0  0  0  0  0  0  0  0
   11.4419   14.6045    0.0000 C   0  0  0  0  0  0  0  0  0  0  0  0
   12.1563   14.1920    0.0000 C   0  0  0  0  0  0  0  0  0  0  0  0
  1 14  1  0  0  0  0
  1 20  1  0  0  0  0
 12  2  1  6  0  0  0
  3 21  2  0  0  0  0
 22  4  1  1  0  0  0
  5  6  1  0  0  0  0
  5  8  1  0  0  0  0
  5 10  1  6  0  0  0
  6 11  1  0  0  0  0
  6 13  1  6  0  0  0
  7  9  2  0  0  0  0
  7 11  1  0  0  0  0
  7 14  1  0  0  0  0
  8 12  1  0  0  0  0
  8 16  1  1  0  0  0
  9 10  1  0  0  0  0
  9 15  1  0  0  0  0
 12 13  1  0  0  0  0
 14 17  2  0  0  0  0
 15 18  2  0  0  0  0
 16 19  1  0  0  0  0
 17 18  1  0  0  0  0
 19 22  1  0  0  0  0
 20 21  1  0  0  0  0
 21 23  1  0  0  0  0
 22 26  1  0  0  0  0
 23 24  2  0  0  0  0
 23 25  1  0  0  0  0
 24 27  1  0  0  0  0
 25 28  2  0  0  0  0
 26 30  1  0  0  0  0
 27 29  2  0  0  0  0
 28 29  1  0  0  0  0
 30 31  1  0  0  0  0
 31 32  1  0  0  0  0
 32 33  1  0  0  0  0
M  END
> <PUBCHEM_COMPOUND_ID_TYPE>
0

> <PUBCHEM_TOTAL_CHARGE>
0

> <PUBCHEM_SUBSTANCE_ID>
310939542

> <PUBCHEM_SUBSTANCE_VERSION>
1

> <PUBCHEM_EXT_DATASOURCE_NAME>
4488

> <PUBCHEM_EXT_DATASOURCE_REGID>
SCHEMBL16117471

> <PUBCHEM_SUBSTANCE_COMMENT>
InChI=1S/C29H38O4/c1-2-3-5-12-23(30)14-15-24-25-16-21-11-8-13-29(26(21)17-22(25)18-27(24)31)33-19-28(32)20-9-6-4-7-10-20/h4,6-11,13,22-25,27,30-31H,2-3,5,12,14-19H2,1H3/t22-,23-,24+,25-,27+/m0/s1
InChIKey=PUIWZFLHTPWPAJ-GAYSTUHSSA-N

> <PUBCHEM_SUBSTANCE_SYNONYM>
SCHEMBL16117471

> <PUBCHEM_XREF_EXT_ID>
SCHEMBL16117471

> <PUBCHEM_EXT_DATASOURCE_URL>
https://www.surechembl.org/

> <PUBCHEM_EXT_SUBSTANCE_URL>
https://www.surechembl.org/chemical/SCHEMBL16117471

> <PUBCHEM_CID_ASSOCIATIONS>
117606839  1

> <PUBCHEM_COORDINATE_TYPE>
1
3

> <PUBCHEM_BONDANNOTATIONS>
12  2  6
22  4  5
5  10  6
6  13  6
8  16  5

$$$$
