310941258
  -OEChem-07211613022D

 41 44  0     1  0  0  0  0  0999 V2000
    5.0533    0.6738    0.0000 O   0  0  0  0  0  0  0  0  0  0  0  0
    3.9257   -1.2788    0.0000 O   0  0  0  0  0  0  0  0  0  0  0  0
    1.7806    0.7838    0.0000 O   0  0  0  0  0  0  0  0  0  0  0  0
   -0.3506   -1.2788    0.0000 O   0  0  0  0  0  0  0  0  0  0  0  0
   -2.4957    0.7838    0.0000 O   0  0  0  0  0  0  0  0  0  0  0  0
    3.9257   -2.9289    0.0000 O   0  0  0  0  0  0  0  0  0  0  0  0
    2.4957   -0.4537    0.0000 N   0  0  0  0  0  0  0  0  0  0  0  0
    0.3644   -0.0412    0.0000 N   0  0  0  0  0  0  0  0  0  0  0  0
   -1.7806   -0.4537    0.0000 N   0  0  0  0  0  0  0  0  0  0  0  0
   -4.5032   -0.7288    0.0000 N   0  0  3  0  0  0  0  0  0  0  0  0
    4.6271    0.0000    0.0000 C   0  0  3  0  0  0  0  0  0  0  0  0
    3.9257   -0.4262    0.0000 C   0  0  0  0  0  0  0  0  0  0  0  0
    4.2557    0.6876    0.0000 C   0  0  0  0  0  0  0  0  0  0  0  0
    3.2107   -0.0137    0.0000 C   0  0  3  0  0  0  0  0  0  0  0  0
    5.3420   -0.4125    0.0000 C   0  0  0  0  0  0  0  0  0  0  0  0
    3.2244    1.2926    0.0000 C   0  0  0  0  0  0  0  0  0  0  0  0
    1.7806   -0.0412    0.0000 C   0  0  0  0  0  0  0  0  0  0  0  0
    1.0794   -0.4262    0.0000 C   0  0  3  0  0  0  0  0  0  0  0  0
    2.5095    1.7188    0.0000 C   0  0  0  0  0  0  0  0  0  0  0  0
    1.0657   -1.2650    0.0000 C   0  0  0  0  0  0  0  0  0  0  0  0
   -0.3369   -0.4125    0.0000 C   0  0  0  0  0  0  0  0  0  0  0  0
    1.8081   -1.6637    0.0000 C   0  0  0  0  0  0  0  0  0  0  0  0
   -1.0794   -0.0137    0.0000 C   0  0  3  0  0  0  0  0  0  0  0  0
    2.5095    2.5164    0.0000 C   0  0  0  0  0  0  0  0  0  0  0  0
    1.7944    1.3063    0.0000 C   0  0  0  0  0  0  0  0  0  0  0  0
   -3.1970   -0.4262    0.0000 C   0  0  3  0  0  0  0  0  0  0  0  0
   -2.4819   -0.0275    0.0000 C   0  0  0  0  0  0  0  0  0  0  0  0
    1.8081   -2.4888    0.0000 C   0  0  0  0  0  0  0  0  0  0  0  0
    2.4957   -1.2650    0.0000 C   0  0  0  0  0  0  0  0  0  0  0  0
   -3.9532   -0.0963    0.0000 C   0  0  0  0  0  0  0  0  0  0  0  0
   -3.2932   -1.2513    0.0000 C   0  0  0  0  0  0  0  0  0  0  0  0
    1.7806    2.9289    0.0000 C   0  0  0  0  0  0  0  0  0  0  0  0
    1.0932    1.7051    0.0000 C   0  0  0  0  0  0  0  0  0  0  0  0
    3.2244   -2.4751    0.0000 C   0  0  0  0  0  0  0  0  0  0  0  0
   -4.0907   -1.4163    0.0000 C   0  0  0  0  0  0  0  0  0  0  0  0
    2.5095   -2.8875    0.0000 C   0  0  0  0  0  0  0  0  0  0  0  0
    3.2244   -1.6775    0.0000 C   0  0  0  0  0  0  0  0  0  0  0  0
    1.0932    2.5301    0.0000 C   0  0  0  0  0  0  0  0  0  0  0  0
   -1.0520    0.7976    0.0000 C   0  0  0  0  0  0  0  0  0  0  0  0
   -5.3420   -0.6188    0.0000 C   0  0  0  0  0  0  0  0  0  0  0  0
    4.6683   -2.5026    0.0000 C   0  0  0  0  0  0  0  0  0  0  0  0
  1 11  1  0  0  0  0
  1 13  1  0  0  0  0
  2 12  2  0  0  0  0
  3 17  2  0  0  0  0
  4 21  2  0  0  0  0
  5 27  2  0  0  0  0
  6 34  1  0  0  0  0
  6 41  1  0  0  0  0
 14  7  1  1  0  0  0
  7 17  1  0  0  0  0
 18  8  1  6  0  0  0
  8 21  1  0  0  0  0
  9 23  1  0  0  0  0
  9 27  1  0  0  0  0
 10 30  1  0  0  0  0
 10 35  1  0  0  0  0
 10 40  1  0  0  0  0
 11 12  1  1  0  0  0
 11 13  1  0  0  0  0
 11 15  1  6  0  0  0
 12 14  1  0  0  0  0
 14 16  1  0  0  0  0
 16 19  1  0  0  0  0
 17 18  1  0  0  0  0
 18 20  1  0  0  0  0
 19 24  2  0  0  0  0
 19 25  1  0  0  0  0
 20 22  1  0  0  0  0
 21 23  1  0  0  0  0
 22 28  2  0  0  0  0
 22 29  1  0  0  0  0
 23 39  1  1  0  0  0
 24 32  1  0  0  0  0
 25 33  2  0  0  0  0
 26 27  1  1  0  0  0
 26 30  1  0  0  0  0
 26 31  1  0  0  0  0
 28 36  1  0  0  0  0
 29 37  2  0  0  0  0
 31 35  1  0  0  0  0
 32 38  2  0  0  0  0
 33 38  1  0  0  0  0
 34 36  2  0  0  0  0
 34 37  1  0  0  0  0
M  END
> <PUBCHEM_COMPOUND_ID_TYPE>
0

> <PUBCHEM_TOTAL_CHARGE>
0

> <PUBCHEM_SUBSTANCE_ID>
310941258

> <PUBCHEM_SUBSTANCE_VERSION>
1

> <PUBCHEM_EXT_DATASOURCE_NAME>
4488

> <PUBCHEM_EXT_DATASOURCE_REGID>
SCHEMBL16119218

> <PUBCHEM_SUBSTANCE_COMMENT>
InChI=1S/C31H40N4O6/c1-20(32-29(38)23-14-15-35(3)18-23)28(37)34-26(17-22-10-12-24(40-4)13-11-22)30(39)33-25(27(36)31(2)19-41-31)16-21-8-6-5-7-9-21/h5-13,20,23,25-26H,14-19H2,1-4H3,(H,32,38)(H,33,39)(H,34,37)/t20-,23-,25-,26-,31+/m0/s1
InChIKey=QOFKBMGJDTYSRB-PGLSUTRZSA-N

> <PUBCHEM_SUBSTANCE_SYNONYM>
SCHEMBL16119218

> <PUBCHEM_XREF_EXT_ID>
SCHEMBL16119218

> <PUBCHEM_EXT_DATASOURCE_URL>
https://www.surechembl.org/

> <PUBCHEM_EXT_SUBSTANCE_URL>
https://www.surechembl.org/chemical/SCHEMBL16119218

> <PUBCHEM_CID_ASSOCIATIONS>
117608117  1

> <PUBCHEM_COORDINATE_TYPE>
1
3

> <PUBCHEM_BONDANNOTATIONS>
11  12  5
11  15  6
23  39  5
26  27  5
14  7  5
18  8  6

$$$$
