310945989
  -OEChem-07211613022D

 26 27  0     1  0  0  0  0  0999 V2000
    1.4355    0.6264    0.0000 O   0  0  0  0  0  0  0  0  0  0  0  0
   -1.4182   -0.2088    0.0000 O   0  0  0  0  0  0  0  0  0  0  0  0
    0.7221    1.8619    0.0000 O   0  0  0  0  0  0  0  0  0  0  0  0
   -4.2893    0.7656    0.0000 O   0  0  0  0  0  0  0  0  0  0  0  0
    2.8798   -1.8619    0.0000 O   0  0  0  0  0  0  0  0  0  0  0  0
   -0.7048    1.0441    0.0000 N   0  0  0  0  0  0  0  0  0  0  0  0
   -2.8276    0.5569    0.0000 N   0  0  0  0  0  0  0  0  0  0  0  0
    0.0261    0.6264    0.0000 C   0  0  3  0  0  0  0  0  0  0  0  0
   -2.1664    1.0441    0.0000 C   0  0  3  0  0  0  0  0  0  0  0  0
   -1.3486    0.6438    0.0000 C   0  0  0  0  0  0  0  0  0  0  0  0
    0.0087   -0.2262    0.0000 C   0  0  0  0  0  0  0  0  0  0  0  0
    0.7395   -0.6091    0.0000 C   0  0  0  0  0  0  0  0  0  0  0  0
    0.7221    1.0267    0.0000 C   0  0  0  0  0  0  0  0  0  0  0  0
   -2.4100    1.8097    0.0000 C   0  0  0  0  0  0  0  0  0  0  0  0
   -3.4889    1.0614    0.0000 C   0  0  0  0  0  0  0  0  0  0  0  0
   -3.2453    1.8097    0.0000 C   0  0  0  0  0  0  0  0  0  0  0  0
    0.7395   -1.4443    0.0000 C   0  0  0  0  0  0  0  0  0  0  0  0
    1.4355   -0.2088    0.0000 C   0  0  0  0  0  0  0  0  0  0  0  0
    2.1490   -1.4269    0.0000 C   0  0  0  0  0  0  0  0  0  0  0  0
    1.4530   -1.8445    0.0000 C   0  0  0  0  0  0  0  0  0  0  0  0
    2.1490   -0.6264    0.0000 C   0  0  0  0  0  0  0  0  0  0  0  0
    2.1316    1.0267    0.0000 C   0  0  0  0  0  0  0  0  0  0  0  0
    2.8451    0.6264    0.0000 C   0  0  0  0  0  0  0  0  0  0  0  0
    3.6107   -1.4617    0.0000 C   0  0  0  0  0  0  0  0  0  0  0  0
    3.5585    1.0441    0.0000 C   0  0  0  0  0  0  0  0  0  0  0  0
    4.2893    0.6438    0.0000 C   0  0  0  0  0  0  0  0  0  0  0  0
  1 13  1  0  0  0  0
  1 22  1  0  0  0  0
  2 10  2  0  0  0  0
  3 13  2  0  0  0  0
  4 15  2  0  0  0  0
  5 19  1  0  0  0  0
  5 24  1  0  0  0  0
  8  6  1  6  0  0  0
  6 10  1  0  0  0  0
  7  9  1  0  0  0  0
  7 15  1  0  0  0  0
  8 11  1  0  0  0  0
  8 13  1  0  0  0  0
  9 10  1  6  0  0  0
  9 14  1  0  0  0  0
 11 12  1  0  0  0  0
 12 17  2  0  0  0  0
 12 18  1  0  0  0  0
 14 16  1  0  0  0  0
 15 16  1  0  0  0  0
 17 20  1  0  0  0  0
 18 21  2  0  0  0  0
 19 20  2  0  0  0  0
 19 21  1  0  0  0  0
 22 23  1  0  0  0  0
 23 25  1  0  0  0  0
 25 26  1  0  0  0  0
M  END
> <PUBCHEM_COMPOUND_ID_TYPE>
0

> <PUBCHEM_TOTAL_CHARGE>
0

> <PUBCHEM_SUBSTANCE_ID>
310945989

> <PUBCHEM_SUBSTANCE_VERSION>
1

> <PUBCHEM_EXT_DATASOURCE_NAME>
4488

> <PUBCHEM_EXT_DATASOURCE_REGID>
SCHEMBL16124094

> <PUBCHEM_SUBSTANCE_COMMENT>
InChI=1S/C19H26N2O5/c1-3-4-11-26-19(24)16(12-13-5-7-14(25-2)8-6-13)21-18(23)15-9-10-17(22)20-15/h5-8,15-16H,3-4,9-12H2,1-2H3,(H,20,22)(H,21,23)/t15-,16+/m1/s1
InChIKey=PZBWOBGLYZTFNX-CVEARBPZSA-N

> <PUBCHEM_SUBSTANCE_SYNONYM>
SCHEMBL16124094

> <PUBCHEM_XREF_EXT_ID>
SCHEMBL16124094

> <PUBCHEM_EXT_DATASOURCE_URL>
https://www.surechembl.org/

> <PUBCHEM_EXT_SUBSTANCE_URL>
https://www.surechembl.org/chemical/SCHEMBL16124094

> <PUBCHEM_CID_ASSOCIATIONS>
117611961  1

> <PUBCHEM_COORDINATE_TYPE>
1
3

> <PUBCHEM_BONDANNOTATIONS>
8  6  6
9  10  6

$$$$
