310946944
  -OEChem-07211613022D

 28 31  0     1  0  0  0  0  0999 V2000
   -2.6963    0.6619    0.0000 F   0  0  0  0  0  0  0  0  0  0  0  0
   -1.9160    3.0168    0.0000 O   0  0  0  0  0  0  0  0  0  0  0  0
    0.2020   -1.4841    0.0000 O   0  0  0  0  0  0  0  0  0  0  0  0
   -1.0660    1.0102    0.0000 N   0  0  0  0  0  0  0  0  0  0  0  0
   -0.2299    1.0939    0.0000 N   0  0  0  0  0  0  0  0  0  0  0  0
   -1.2332   -1.4701    0.0000 N   0  0  0  0  0  0  0  0  0  0  0  0
    0.9127    0.1603    0.0000 N   0  0  0  0  0  0  0  0  0  0  0  0
    0.0209    3.2398    0.0000 N   0  0  0  0  0  0  0  0  0  0  0  0
   -1.6234    1.6513    0.0000 C   0  0  3  0  0  0  0  0  0  0  0  0
   -1.2471    0.1882    0.0000 C   0  0  0  0  0  0  0  0  0  0  0  0
   -0.5086   -0.2299    0.0000 C   0  0  0  0  0  0  0  0  0  0  0  0
    0.0906    0.3414    0.0000 C   0  0  0  0  0  0  0  0  0  0  0  0
   -2.4176    1.4562    0.0000 C   0  0  3  0  0  0  0  0  0  0  0  0
   -0.5225   -1.0521    0.0000 C   0  0  0  0  0  0  0  0  0  0  0  0
   -1.3726    2.4316    0.0000 C   0  0  0  0  0  0  0  0  0  0  0  0
   -0.8151    1.8324    0.0000 C   0  0  0  0  0  0  0  0  0  0  0  0
   -1.9578   -0.2299    0.0000 C   0  0  0  0  0  0  0  0  0  0  0  0
   -2.9890    2.0554    0.0000 C   0  0  0  0  0  0  0  0  0  0  0  0
   -1.9578   -1.0521    0.0000 C   0  0  0  0  0  0  0  0  0  0  0  0
   -2.7242    2.8636    0.0000 C   0  0  0  0  0  0  0  0  0  0  0  0
   -0.3971    2.5431    0.0000 C   0  0  0  0  0  0  0  0  0  0  0  0
    0.9963   -1.2611    0.0000 C   0  0  0  0  0  0  0  0  0  0  0  0
    1.6094   -1.8463    0.0000 C   0  0  0  0  0  0  0  0  0  0  0  0
    1.4004   -2.6546    0.0000 C   0  0  0  0  0  0  0  0  0  0  0  0
    2.4176   -1.6513    0.0000 C   0  0  0  0  0  0  0  0  0  0  0  0
    1.9718   -3.2398    0.0000 C   0  0  0  0  0  0  0  0  0  0  0  0
    2.9890   -2.2225    0.0000 C   0  0  0  0  0  0  0  0  0  0  0  0
    2.7660   -3.0168    0.0000 C   0  0  0  0  0  0  0  0  0  0  0  0
 13  1  1  6  0  0  0
  2 15  1  0  0  0  0
  2 20  1  0  0  0  0
  3 14  1  0  0  0  0
  3 22  1  0  0  0  0
  4  5  1  0  0  0  0
  4  9  1  0  0  0  0
  4 10  1  0  0  0  0
  5 12  2  0  0  0  0
  6 14  2  0  0  0  0
  6 19  1  0  0  0  0
  7 12  1  0  0  0  0
  8 21  3  0  0  0  0
  9 13  1  0  0  0  0
  9 15  1  0  0  0  0
  9 16  1  1  0  0  0
 10 11  2  0  0  0  0
 10 17  1  0  0  0  0
 11 12  1  0  0  0  0
 11 14  1  0  0  0  0
 13 18  1  0  0  0  0
 16 21  1  0  0  0  0
 17 19  2  0  0  0  0
 18 20  1  0  0  0  0
 22 23  1  0  0  0  0
 23 24  2  0  0  0  0
 23 25  1  0  0  0  0
 24 26  1  0  0  0  0
 25 27  2  0  0  0  0
 26 28  2  0  0  0  0
 27 28  1  0  0  0  0
M  END
> <PUBCHEM_COMPOUND_ID_TYPE>
0

> <PUBCHEM_TOTAL_CHARGE>
0

> <PUBCHEM_SUBSTANCE_ID>
310946944

> <PUBCHEM_SUBSTANCE_VERSION>
1

> <PUBCHEM_EXT_DATASOURCE_NAME>
4488

> <PUBCHEM_EXT_DATASOURCE_REGID>
SCHEMBL16125069

> <PUBCHEM_SUBSTANCE_COMMENT>
InChI=1S/C20H20FN5O2/c21-16-7-11-27-13-20(16,8-9-22)26-15-6-10-24-19(17(15)18(23)25-26)28-12-14-4-2-1-3-5-14/h1-6,10,16H,7-8,11-13H2,(H2,23,25)/t16-,20+/m1/s1
InChIKey=OKLBIDPCRUTCRS-UZLBHIALSA-N

> <PUBCHEM_SUBSTANCE_SYNONYM>
SCHEMBL16125069

> <PUBCHEM_XREF_EXT_ID>
SCHEMBL16125069

> <PUBCHEM_EXT_DATASOURCE_URL>
https://www.surechembl.org/

> <PUBCHEM_EXT_SUBSTANCE_URL>
https://www.surechembl.org/chemical/SCHEMBL16125069

> <PUBCHEM_CID_ASSOCIATIONS>
117612800  1

> <PUBCHEM_COORDINATE_TYPE>
1
3

> <PUBCHEM_BONDANNOTATIONS>
13  1  6
9  16  5

$$$$
