310948801
  -OEChem-07211613022D

 33 36  0     1  0  0  0  0  0999 V2000
    0.6153   -0.2237    0.0000 O   0  0  0  0  0  0  0  0  0  0  0  0
   -4.2649    0.2237    0.0000 O   0  0  0  0  0  0  0  0  0  0  0  0
   -3.0204   -0.4195    0.0000 O   0  0  0  0  0  0  0  0  0  0  0  0
   -0.1119    2.6848    0.0000 O   0  0  0  0  0  0  0  0  0  0  0  0
    0.6153    1.4542    0.0000 N   0  0  0  0  0  0  0  0  0  0  0  0
    1.3424    2.6848    0.0000 N   0  0  0  0  0  0  0  0  0  0  0  0
   -2.3351    1.4542    0.0000 C   0  0  3  0  0  0  0  0  0  0  0  0
   -3.0204    1.0487    0.0000 C   0  0  3  0  0  0  0  0  0  0  0  0
   -1.5381    1.0208    0.0000 C   0  0  0  0  0  0  0  0  0  0  0  0
   -3.0064    1.8458    0.0000 C   0  0  0  0  0  0  0  0  0  0  0  0
   -0.1119    1.0347    0.0000 C   0  0  0  0  0  0  0  0  0  0  0  0
   -0.8390    1.4403    0.0000 C   0  0  0  0  0  0  0  0  0  0  0  0
   -0.1259    0.2237    0.0000 C   0  0  0  0  0  0  0  0  0  0  0  0
   -3.4538    0.2936    0.0000 C   0  0  0  0  0  0  0  0  0  0  0  0
   -1.5661    0.2097    0.0000 C   0  0  0  0  0  0  0  0  0  0  0  0
   -0.8530   -0.1958    0.0000 C   0  0  0  0  0  0  0  0  0  0  0  0
    0.6013   -1.0348    0.0000 C   0  0  3  0  0  0  0  0  0  0  0  0
    0.6292    2.2792    0.0000 C   0  0  0  0  0  0  0  0  0  0  0  0
    1.3424   -1.4403    0.0000 C   0  0  0  0  0  0  0  0  0  0  0  0
   -0.1119   -1.4403    0.0000 C   0  0  0  0  0  0  0  0  0  0  0  0
    2.0695    2.2932    0.0000 C   0  0  0  0  0  0  0  0  0  0  0  0
    1.3424   -2.2792    0.0000 C   0  0  0  0  0  0  0  0  0  0  0  0
    2.0555   -1.0487    0.0000 C   0  0  0  0  0  0  0  0  0  0  0  0
    2.0695    1.4542    0.0000 C   0  0  0  0  0  0  0  0  0  0  0  0
    2.7826    2.6848    0.0000 C   0  0  0  0  0  0  0  0  0  0  0  0
    2.0695   -2.6848    0.0000 C   0  0  0  0  0  0  0  0  0  0  0  0
    2.7826   -1.4542    0.0000 C   0  0  0  0  0  0  0  0  0  0  0  0
    3.4958    1.4542    0.0000 C   0  0  0  0  0  0  0  0  0  0  0  0
    2.7826    1.0487    0.0000 C   0  0  0  0  0  0  0  0  0  0  0  0
    3.5098    2.2792    0.0000 C   0  0  0  0  0  0  0  0  0  0  0  0
    2.7826   -2.2792    0.0000 C   0  0  0  0  0  0  0  0  0  0  0  0
   -0.0979   -2.2932    0.0000 C   0  0  0  0  0  0  0  0  0  0  0  0
    4.2649    1.0347    0.0000 C   0  0  0  0  0  0  0  0  0  0  0  0
  1 13  1  0  0  0  0
  1 17  1  0  0  0  0
  2 14  2  0  0  0  0
  3 14  1  0  0  0  0
  4 18  2  0  0  0  0
  5 11  1  0  0  0  0
  5 18  1  0  0  0  0
  6 18  1  0  0  0  0
  6 21  1  0  0  0  0
  7  8  1  0  0  0  0
  7  9  1  0  0  0  0
  7 10  1  1  0  0  0
  8 10  1  0  0  0  0
  8 14  1  1  0  0  0
  9 12  1  0  0  0  0
  9 15  2  0  0  0  0
 11 12  2  0  0  0  0
 11 13  1  0  0  0  0
 13 16  2  0  0  0  0
 15 16  1  0  0  0  0
 17 19  1  0  0  0  0
 17 20  1  0  0  0  0
 19 22  2  0  0  0  0
 19 23  1  0  0  0  0
 20 32  1  0  0  0  0
 21 24  2  0  0  0  0
 21 25  1  0  0  0  0
 22 26  1  0  0  0  0
 23 27  2  0  0  0  0
 24 29  1  0  0  0  0
 25 30  2  0  0  0  0
 26 31  2  0  0  0  0
 27 31  1  0  0  0  0
 28 29  2  0  0  0  0
 28 30  1  0  0  0  0
 28 33  1  0  0  0  0
M  END
> <PUBCHEM_COMPOUND_ID_TYPE>
0

> <PUBCHEM_TOTAL_CHARGE>
0

> <PUBCHEM_SUBSTANCE_ID>
310948801

> <PUBCHEM_SUBSTANCE_VERSION>
1

> <PUBCHEM_EXT_DATASOURCE_NAME>
4488

> <PUBCHEM_EXT_DATASOURCE_REGID>
SCHEMBL16126985

> <PUBCHEM_SUBSTANCE_COMMENT>
InChI=1S/C27H28N2O4/c1-3-24(18-7-5-4-6-8-18)33-25-14-11-19(21-16-22(21)26(30)31)15-23(25)29-27(32)28-20-12-9-17(2)10-13-20/h4-15,21-22,24H,3,16H2,1-2H3,(H,30,31)(H2,28,29,32)/t21-,22-,24?/m0/s1
InChIKey=ZOELCFDIUJQMQU-AJVCAZFQSA-N

> <PUBCHEM_SUBSTANCE_SYNONYM>
SCHEMBL16126985

> <PUBCHEM_XREF_EXT_ID>
SCHEMBL16126985

> <PUBCHEM_EXT_DATASOURCE_URL>
https://www.surechembl.org/

> <PUBCHEM_EXT_SUBSTANCE_URL>
https://www.surechembl.org/chemical/SCHEMBL16126985

> <PUBCHEM_CID_ASSOCIATIONS>
117614340  1

> <PUBCHEM_COORDINATE_TYPE>
1
3

> <PUBCHEM_BONDANNOTATIONS>
7  10  5
8  14  5

$$$$
