310949954
  -OEChem-07211613022D

 30 34  0     0  0  0  0  0  0999 V2000
   -0.8591    1.5588    0.0000 N   0  0  0  0  0  0  0  0  0  0  0  0
   -0.8591    2.9028    0.0000 N   0  0  0  0  0  0  0  0  0  0  0  0
   -0.0970   -0.7967    0.0000 N   0  0  0  0  0  0  0  0  0  0  0  0
    2.0922    2.2239    0.0000 N   0  0  0  0  0  0  0  0  0  0  0  0
   -0.3880    2.2377    0.0000 C   0  0  0  0  0  0  0  0  0  0  0  0
   -1.6489    1.8221    0.0000 C   0  0  0  0  0  0  0  0  0  0  0  0
   -1.6350    2.6535    0.0000 C   0  0  0  0  0  0  0  0  0  0  0  0
   -0.6096    0.7829    0.0000 C   0  0  0  0  0  0  0  0  0  0  0  0
    0.4434    2.2239    0.0000 C   0  0  0  0  0  0  0  0  0  0  0  0
   -2.3417    1.4203    0.0000 C   0  0  0  0  0  0  0  0  0  0  0  0
   -2.3694    3.0414    0.0000 C   0  0  0  0  0  0  0  0  0  0  0  0
   -1.1362    0.1455    0.0000 C   0  0  0  0  0  0  0  0  0  0  0  0
    0.2078    0.6027    0.0000 C   0  0  0  0  0  0  0  0  0  0  0  0
    0.8591    1.5173    0.0000 C   0  0  0  0  0  0  0  0  0  0  0  0
    0.8591    2.9444    0.0000 C   0  0  0  0  0  0  0  0  0  0  0  0
   -3.0622    1.8221    0.0000 C   0  0  0  0  0  0  0  0  0  0  0  0
   -3.0622    2.6396    0.0000 C   0  0  0  0  0  0  0  0  0  0  0  0
   -0.9007   -0.6166    0.0000 C   0  0  0  0  0  0  0  0  0  0  0  0
    0.4434   -0.1732    0.0000 C   0  0  0  0  0  0  0  0  0  0  0  0
    1.6904    2.9444    0.0000 C   0  0  0  0  0  0  0  0  0  0  0  0
    1.6766    1.5173    0.0000 C   0  0  0  0  0  0  0  0  0  0  0  0
    0.1524   -1.5726    0.0000 C   0  0  0  0  0  0  0  0  0  0  0  0
    0.9561   -1.7528    0.0000 C   0  0  0  0  0  0  0  0  0  0  0  0
    1.1223   -2.5703    0.0000 C   0  0  0  0  0  0  0  0  0  0  0  0
    1.4272   -1.0877    0.0000 C   0  0  0  0  0  0  0  0  0  0  0  0
    2.2447   -0.9352    0.0000 C   0  0  0  0  0  0  0  0  0  0  0  0
    1.8013   -3.0414    0.0000 C   0  0  0  0  0  0  0  0  0  0  0  0
    2.9098   -1.3925    0.0000 C   0  0  0  0  0  0  0  0  0  0  0  0
    2.5911   -2.8890    0.0000 C   0  0  0  0  0  0  0  0  0  0  0  0
    3.0622   -2.2100    0.0000 C   0  0  0  0  0  0  0  0  0  0  0  0
  1  5  1  0  0  0  0
  1  6  1  0  0  0  0
  1  8  1  0  0  0  0
  2  5  2  0  0  0  0
  2  7  1  0  0  0  0
  3 18  1  0  0  0  0
  3 19  1  0  0  0  0
  3 22  1  0  0  0  0
  4 20  1  0  0  0  0
  4 21  1  0  0  0  0
  5  9  1  0  0  0  0
  6  7  1  0  0  0  0
  6 10  2  0  0  0  0
  7 11  2  0  0  0  0
  8 12  1  0  0  0  0
  8 13  1  0  0  0  0
  9 14  1  0  0  0  0
  9 15  1  0  0  0  0
 10 16  1  0  0  0  0
 11 17  1  0  0  0  0
 12 18  1  0  0  0  0
 13 19  1  0  0  0  0
 14 21  1  0  0  0  0
 15 20  1  0  0  0  0
 16 17  2  0  0  0  0
 22 23  1  0  0  0  0
 23 24  1  0  0  0  0
 23 25  1  0  0  0  0
 24 27  1  0  0  0  0
 25 26  1  0  0  0  0
 26 28  1  0  0  0  0
 27 29  1  0  0  0  0
 28 30  1  0  0  0  0
 29 30  1  0  0  0  0
M  END
> <PUBCHEM_COMPOUND_ID_TYPE>
0

> <PUBCHEM_TOTAL_CHARGE>
0

> <PUBCHEM_SUBSTANCE_ID>
310949954

> <PUBCHEM_SUBSTANCE_VERSION>
1

> <PUBCHEM_EXT_DATASOURCE_NAME>
4488

> <PUBCHEM_EXT_DATASOURCE_REGID>
SCHEMBL16128183

> <PUBCHEM_SUBSTANCE_COMMENT>
InChI=1S/C26H40N4/c1-2-4-8-21(9-5-3-1)20-29-18-14-23(15-19-29)30-25-11-7-6-10-24(25)28-26(30)22-12-16-27-17-13-22/h6-7,10-11,21-23,27H,1-5,8-9,12-20H2
InChIKey=XZDGZDJSAXDQRY-UHFFFAOYSA-N

> <PUBCHEM_SUBSTANCE_SYNONYM>
SCHEMBL16128183

> <PUBCHEM_XREF_EXT_ID>
SCHEMBL16128183

> <PUBCHEM_EXT_DATASOURCE_URL>
https://www.surechembl.org/

> <PUBCHEM_EXT_SUBSTANCE_URL>
https://www.surechembl.org/chemical/SCHEMBL16128183

> <PUBCHEM_CID_ASSOCIATIONS>
86272381  1

> <PUBCHEM_COORDINATE_TYPE>
1
3

$$$$
