310944195
  -OEChem-07211613022D

 33 37  0     1  0  0  0  0  0999 V2000
    2.5963    1.0993    0.0000 O   0  0  0  0  0  0  0  0  0  0  0  0
    5.5793    0.1602    0.0000 O   0  0  0  0  0  0  0  0  0  0  0  0
    5.8224    1.6186    0.0000 O   0  0  0  0  0  0  0  0  0  0  0  0
   -0.7844   -1.0330    0.0000 O   0  0  0  0  0  0  0  0  0  0  0  0
    3.4249   -0.1270    0.0000 N   0  0  0  0  0  0  0  0  0  0  0  0
    0.5303    0.2707    0.0000 N   0  0  0  0  0  0  0  0  0  0  0  0
   -4.5077   -0.3149    0.0000 N   0  0  0  0  0  0  0  0  0  0  0  0
   -3.2702    0.4033    0.0000 N   0  0  0  0  0  0  0  0  0  0  0  0
   -4.9275    0.4033    0.0000 N   0  0  0  0  0  0  0  0  0  0  0  0
   -5.7340    0.2376    0.0000 N   0  0  0  0  0  0  0  0  0  0  0  0
   -5.8224   -0.5911    0.0000 N   0  0  0  0  0  0  0  0  0  0  0  0
    2.0991   -0.2817    0.0000 C   0  0  0  0  0  0  0  0  0  0  0  0
    2.6958    0.2486    0.0000 C   0  0  0  0  0  0  0  0  0  0  0  0
    3.2592   -0.9446    0.0000 C   0  0  3  0  0  0  0  0  0  0  0  0
    2.4527   -1.0441    0.0000 C   0  0  0  0  0  0  0  0  0  0  0  0
    4.2425    0.1823    0.0000 C   0  0  0  0  0  0  0  0  0  0  0  0
    1.4584   -0.8231    0.0000 C   0  0  0  0  0  0  0  0  0  0  0  0
    1.9555    0.5248    0.0000 C   0  0  0  0  0  0  0  0  0  0  0  0
    4.9164   -0.3149    0.0000 C   0  0  3  0  0  0  0  0  0  0  0  0
    4.5077    0.9557    0.0000 C   0  0  0  0  0  0  0  0  0  0  0  0
    0.6850   -0.5358    0.0000 C   0  0  0  0  0  0  0  0  0  0  0  0
    1.1822    0.8120    0.0000 C   0  0  0  0  0  0  0  0  0  0  0  0
    5.3031    0.9336    0.0000 C   0  0  0  0  0  0  0  0  0  0  0  0
    3.7343   -1.6186    0.0000 C   0  0  0  0  0  0  0  0  0  0  0  0
   -0.6187    0.2707    0.0000 C   0  0  0  0  0  0  0  0  0  0  0  0
    4.9275   -1.1655    0.0000 C   0  0  0  0  0  0  0  0  0  0  0  0
   -1.2043   -0.3149    0.0000 C   0  0  3  0  0  0  0  0  0  0  0  0
   -2.0218   -0.3038    0.0000 C   0  0  0  0  0  0  0  0  0  0  0  0
   -3.6900   -0.3149    0.0000 C   0  0  0  0  0  0  0  0  0  0  0  0
   -2.4306    0.4033    0.0000 C   0  0  0  0  0  0  0  0  0  0  0  0
   -2.4416   -1.0330    0.0000 C   0  0  0  0  0  0  0  0  0  0  0  0
   -3.2702   -1.0330    0.0000 C   0  0  0  0  0  0  0  0  0  0  0  0
   -5.0600   -0.9336    0.0000 C   0  0  0  0  0  0  0  0  0  0  0  0
  1 13  2  0  0  0  0
  2 19  1  0  0  0  0
  2 23  1  0  0  0  0
  3 23  2  0  0  0  0
 27  4  1  6  0  0  0
  5 13  1  0  0  0  0
  5 14  1  0  0  0  0
  5 16  1  0  0  0  0
  6 21  1  0  0  0  0
  6 22  1  0  0  0  0
  6 25  1  0  0  0  0
  7  9  1  0  0  0  0
  7 29  1  0  0  0  0
  7 33  1  0  0  0  0
  8 29  2  0  0  0  0
  8 30  1  0  0  0  0
  9 10  2  0  0  0  0
 10 11  1  0  0  0  0
 11 33  2  0  0  0  0
 12 13  1  0  0  0  0
 12 15  1  0  0  0  0
 12 17  1  0  0  0  0
 12 18  1  0  0  0  0
 14 15  1  0  0  0  0
 14 24  1  6  0  0  0
 16 19  1  0  0  0  0
 16 20  2  0  0  0  0
 17 21  1  0  0  0  0
 18 22  1  0  0  0  0
 19 26  1  0  0  0  0
 20 23  1  0  0  0  0
 25 27  1  0  0  0  0
 27 28  1  0  0  0  0
 28 30  2  0  0  0  0
 28 31  1  0  0  0  0
 29 32  1  0  0  0  0
 31 32  2  0  0  0  0
M  END
> <PUBCHEM_COMPOUND_ID_TYPE>
0

> <PUBCHEM_TOTAL_CHARGE>
0

> <PUBCHEM_SUBSTANCE_ID>
310944195

> <PUBCHEM_SUBSTANCE_VERSION>
1

> <PUBCHEM_EXT_DATASOURCE_NAME>
4488

> <PUBCHEM_EXT_DATASOURCE_REGID>
SCHEMBL16122270

> <PUBCHEM_SUBSTANCE_COMMENT>
InChI=1S/C22H27N7O4/c1-14-10-22(21(32)29(14)17-9-20(31)33-15(17)2)5-7-27(8-6-22)12-18(30)16-3-4-19(23-11-16)28-13-24-25-26-28/h3-4,9,11,13-15,18,30H,5-8,10,12H2,1-2H3/t14-,15?,18+/m1/s1
InChIKey=QUJNCJIZUJNNOS-STGLDUPZSA-N

> <PUBCHEM_SUBSTANCE_SYNONYM>
SCHEMBL16122270

> <PUBCHEM_XREF_EXT_ID>
SCHEMBL16122270

> <PUBCHEM_EXT_DATASOURCE_URL>
https://www.surechembl.org/

> <PUBCHEM_EXT_SUBSTANCE_URL>
https://www.surechembl.org/chemical/SCHEMBL16122270

> <PUBCHEM_CID_ASSOCIATIONS>
117610466  1

> <PUBCHEM_COORDINATE_TYPE>
1
3

> <PUBCHEM_BONDANNOTATIONS>
14  24  6
27  4  6

$$$$
