310946742
  -OEChem-07211613022D

 34 38  0     1  0  0  0  0  0999 V2000
    2.0517   -2.5132    0.0000 S   0  0  0  0  0  0  0  0  0  0  0  0
   -3.6416    0.6497    0.0000 O   0  0  0  0  0  0  0  0  0  0  0  0
    0.0513   -1.3848    0.0000 O   0  0  0  0  0  0  0  0  0  0  0  0
    2.4620   -3.2143    0.0000 O   0  0  0  0  0  0  0  0  0  0  0  0
    1.3506   -2.9236    0.0000 O   0  0  0  0  0  0  0  0  0  0  0  0
   -1.6754    0.7523    0.0000 N   0  0  0  0  0  0  0  0  0  0  0  0
   -0.8891    1.0088    0.0000 N   0  0  0  0  0  0  0  0  0  0  0  0
    0.4103    0.3419    0.0000 N   0  0  0  0  0  0  0  0  0  0  0  0
    2.7696   -2.0859    0.0000 N   0  0  3  0  0  0  0  0  0  0  0  0
   -1.3336   -1.6754    0.0000 N   0  0  0  0  0  0  0  0  0  0  0  0
   -1.4190    3.2143    0.0000 N   0  0  0  0  0  0  0  0  0  0  0  0
   -1.6754   -0.0684    0.0000 C   0  0  0  0  0  0  0  0  0  0  0  0
   -2.3594    1.2480    0.0000 C   0  0  3  0  0  0  0  0  0  0  0  0
   -0.9062   -0.3248    0.0000 C   0  0  0  0  0  0  0  0  0  0  0  0
   -0.4274    0.3590    0.0000 C   0  0  0  0  0  0  0  0  0  0  0  0
   -0.7352   -1.1113    0.0000 C   0  0  0  0  0  0  0  0  0  0  0  0
   -2.2739   -0.5983    0.0000 C   0  0  0  0  0  0  0  0  0  0  0  0
   -2.8210    0.5642    0.0000 C   0  0  0  0  0  0  0  0  0  0  0  0
   -2.6671    1.9833    0.0000 C   0  0  0  0  0  0  0  0  0  0  0  0
   -1.5729    1.5558    0.0000 C   0  0  0  0  0  0  0  0  0  0  0  0
    1.6412   -1.7951    0.0000 C   0  0  0  0  0  0  0  0  0  0  0  0
    0.8036   -0.3590    0.0000 C   0  0  0  0  0  0  0  0  0  0  0  0
    3.5562   -2.3081    0.0000 C   0  0  3  0  0  0  0  0  0  0  0  0
   -2.1200   -1.4190    0.0000 C   0  0  0  0  0  0  0  0  0  0  0  0
    2.9919   -1.2994    0.0000 C   0  0  0  0  0  0  0  0  0  0  0  0
    0.8207   -1.7780    0.0000 C   0  0  0  0  0  0  0  0  0  0  0  0
    2.0346   -1.0600    0.0000 C   0  0  0  0  0  0  0  0  0  0  0  0
    0.4274   -1.0771    0.0000 C   0  0  0  0  0  0  0  0  0  0  0  0
    1.6412   -0.3932    0.0000 C   0  0  0  0  0  0  0  0  0  0  0  0
   -3.4878    2.0859    0.0000 C   0  0  0  0  0  0  0  0  0  0  0  0
    3.7613   -1.5216    0.0000 C   0  0  0  0  0  0  0  0  0  0  0  0
   -1.4874    2.3765    0.0000 C   0  0  0  0  0  0  0  0  0  0  0  0
   -3.9836    1.4190    0.0000 C   0  0  0  0  0  0  0  0  0  0  0  0
    3.9836   -3.0432    0.0000 C   0  0  0  0  0  0  0  0  0  0  0  0
  1  4  2  0  0  0  0
  1  5  2  0  0  0  0
  1  9  1  0  0  0  0
  1 21  1  0  0  0  0
  2 18  1  0  0  0  0
  2 33  1  0  0  0  0
  3 16  2  0  0  0  0
  6  7  1  0  0  0  0
  6 12  1  0  0  0  0
  6 13  1  0  0  0  0
  7 15  2  0  0  0  0
  8 15  1  0  0  0  0
  8 22  1  0  0  0  0
  9 23  1  0  0  0  0
  9 25  1  0  0  0  0
 10 16  1  0  0  0  0
 10 24  1  0  0  0  0
 11 32  3  0  0  0  0
 12 14  2  0  0  0  0
 12 17  1  0  0  0  0
 13 18  1  0  0  0  0
 13 19  1  0  0  0  0
 13 20  1  6  0  0  0
 14 15  1  0  0  0  0
 14 16  1  0  0  0  0
 17 24  2  0  0  0  0
 19 30  1  0  0  0  0
 20 32  1  0  0  0  0
 21 26  2  0  0  0  0
 21 27  1  0  0  0  0
 22 28  2  0  0  0  0
 22 29  1  0  0  0  0
 23 31  1  0  0  0  0
 23 34  1  0  0  0  0
 25 31  1  0  0  0  0
 26 28  1  0  0  0  0
 27 29  2  0  0  0  0
 30 33  1  0  0  0  0
M  END
> <PUBCHEM_COMPOUND_ID_TYPE>
0

> <PUBCHEM_TOTAL_CHARGE>
0

> <PUBCHEM_SUBSTANCE_ID>
310946742

> <PUBCHEM_SUBSTANCE_VERSION>
1

> <PUBCHEM_EXT_DATASOURCE_NAME>
4488

> <PUBCHEM_EXT_DATASOURCE_REGID>
SCHEMBL16124866

> <PUBCHEM_SUBSTANCE_COMMENT>
InChI=1S/C23H26N6O4S/c1-16-8-13-28(16)34(31,32)18-5-3-17(4-6-18)26-21-20-19(7-12-25-22(20)30)29(27-21)23(10-11-24)9-2-14-33-15-23/h3-7,12,16H,2,8-10,13-15H2,1H3,(H,25,30)(H,26,27)/t16?,23-/m0/s1
InChIKey=UXEBFFZRNOOLRO-KESSSICBSA-N

> <PUBCHEM_SUBSTANCE_SYNONYM>
SCHEMBL16124866

> <PUBCHEM_XREF_EXT_ID>
SCHEMBL16124866

> <PUBCHEM_EXT_DATASOURCE_URL>
https://www.surechembl.org/

> <PUBCHEM_EXT_SUBSTANCE_URL>
https://www.surechembl.org/chemical/SCHEMBL16124866

> <PUBCHEM_CID_ASSOCIATIONS>
117612627  1

> <PUBCHEM_COORDINATE_TYPE>
1
3

> <PUBCHEM_BONDANNOTATIONS>
13  20  6

$$$$
