310941751
  -OEChem-07211613022D

 32 38  0     0  0  0  0  0  0999 V2000
    3.1222   -1.2822    0.0000 S   0  0  0  0  0  0  0  0  0  0  0  0
   -1.2098    0.5433    0.0000 O   0  0  0  0  0  0  0  0  0  0  0  0
    3.7017   -1.8907    0.0000 O   0  0  0  0  0  0  0  0  0  0  0  0
    2.7021   -2.0211    0.0000 O   0  0  0  0  0  0  0  0  0  0  0  0
    0.9345   -0.7172    0.0000 N   0  0  0  0  0  0  0  0  0  0  0  0
    2.4123   -0.8620    0.0000 N   0  0  0  0  0  0  0  0  0  0  0  0
    1.2967   -2.1225    0.0000 N   0  0  0  0  0  0  0  0  0  0  0  0
    0.2101   -1.9921    0.0000 N   0  0  0  0  0  0  0  0  0  0  0  0
    3.8466   -0.8331    0.0000 C   0  0  0  0  0  0  0  0  0  0  0  0
    1.6445   -1.1373    0.0000 C   0  0  0  0  0  0  0  0  0  0  0  0
    0.2246   -1.1518    0.0000 C   0  0  0  0  0  0  0  0  0  0  0  0
   -2.6441    0.5288    0.0000 C   0  0  0  0  0  0  0  0  0  0  0  0
    4.4117   -0.2825    0.0000 C   0  0  0  0  0  0  0  0  0  0  0  0
    4.6001   -1.0504    0.0000 C   0  0  0  0  0  0  0  0  0  0  0  0
    0.2101    0.5578    0.0000 C   0  0  0  0  0  0  0  0  0  0  0  0
   -0.4998    0.1376    0.0000 C   0  0  0  0  0  0  0  0  0  0  0  0
    0.9200    0.1376    0.0000 C   0  0  0  0  0  0  0  0  0  0  0  0
    0.2246    1.4126    0.0000 C   0  0  0  0  0  0  0  0  0  0  0  0
   -0.4998   -0.7172    0.0000 C   0  0  0  0  0  0  0  0  0  0  0  0
   -4.2089    0.5433    0.0000 C   0  0  0  0  0  0  0  0  0  0  0  0
   -3.5134    1.7893    0.0000 C   0  0  0  0  0  0  0  0  0  0  0  0
   -3.8611    0.0652    0.0000 C   0  0  0  0  0  0  0  0  0  0  0  0
   -2.6441    1.3982    0.0000 C   0  0  0  0  0  0  0  0  0  0  0  0
   -3.0353   -0.1666    0.0000 C   0  0  0  0  0  0  0  0  0  0  0  0
   -3.4554    0.3115    0.0000 C   0  0  0  0  0  0  0  0  0  0  0  0
   -1.8907    0.1376    0.0000 C   0  0  0  0  0  0  0  0  0  0  0  0
    3.8322    0.0072    0.0000 C   0  0  0  0  0  0  0  0  0  0  0  0
   -4.2089    1.3836    0.0000 C   0  0  0  0  0  0  0  0  0  0  0  0
   -4.6001   -0.1666    0.0000 C   0  0  0  0  0  0  0  0  0  0  0  0
   -3.8322    0.9200    0.0000 C   0  0  0  0  0  0  0  0  0  0  0  0
   -0.1666    2.1080    0.0000 C   0  0  0  0  0  0  0  0  0  0  0  0
    0.6157    2.1225    0.0000 C   0  0  0  0  0  0  0  0  0  0  0  0
  1  3  2  0  0  0  0
  1  4  2  0  0  0  0
  1  6  1  0  0  0  0
  1  9  1  0  0  0  0
  2 16  1  0  0  0  0
  2 26  1  0  0  0  0
  5 10  1  0  0  0  0
  5 11  1  0  0  0  0
  5 17  1  0  0  0  0
  6 10  1  0  0  0  0
  7  8  1  0  0  0  0
  7 10  2  0  0  0  0
  8 11  2  0  0  0  0
  9 13  1  0  0  0  0
  9 14  1  0  0  0  0
  9 27  1  0  0  0  0
 11 19  1  0  0  0  0
 12 23  1  0  0  0  0
 12 24  1  0  0  0  0
 12 25  1  0  0  0  0
 12 26  1  0  0  0  0
 13 14  1  0  0  0  0
 15 16  1  0  0  0  0
 15 17  2  0  0  0  0
 15 18  1  0  0  0  0
 16 19  2  0  0  0  0
 18 31  1  0  0  0  0
 18 32  1  0  0  0  0
 20 25  1  0  0  0  0
 20 28  1  0  0  0  0
 20 29  1  0  0  0  0
 21 23  1  0  0  0  0
 21 28  1  0  0  0  0
 21 30  1  0  0  0  0
 22 24  1  0  0  0  0
 22 29  1  0  0  0  0
 22 30  1  0  0  0  0
 31 32  1  0  0  0  0
M  END
> <PUBCHEM_COMPOUND_ID_TYPE>
0

> <PUBCHEM_TOTAL_CHARGE>
0

> <PUBCHEM_SUBSTANCE_ID>
310941751

> <PUBCHEM_SUBSTANCE_VERSION>
1

> <PUBCHEM_EXT_DATASOURCE_NAME>
4488

> <PUBCHEM_EXT_DATASOURCE_REGID>
SCHEMBL16119782

> <PUBCHEM_SUBSTANCE_COMMENT>
InChI=1S/C24H32N4O3S/c1-23(4-5-23)32(29,30)27-22-26-25-21-9-20(19(13-28(21)22)18-2-3-18)31-14-24-10-15-6-16(11-24)8-17(7-15)12-24/h9,13,15-18H,2-8,10-12,14H2,1H3,(H,26,27)
InChIKey=ISOHFNCZKWJNLE-UHFFFAOYSA-N

> <PUBCHEM_SUBSTANCE_SYNONYM>
SCHEMBL16119782

> <PUBCHEM_XREF_EXT_ID>
SCHEMBL16119782

> <PUBCHEM_EXT_DATASOURCE_URL>
https://www.surechembl.org/

> <PUBCHEM_EXT_SUBSTANCE_URL>
https://www.surechembl.org/chemical/SCHEMBL16119782

> <PUBCHEM_CID_ASSOCIATIONS>
86267491  1

> <PUBCHEM_COORDINATE_TYPE>
1
3

$$$$
