310932683
  -OEChem-07211613022D

 14 15  0     0  0  0  0  0  0999 V2000
    2.4800   -0.7055    0.0000 Br  0  0  0  0  0  0  0  0  0  0  0  0
    2.8435   -4.2759    0.0000 F   0  0  0  0  0  0  0  0  0  0  0  0
    0.4276   -1.4111    0.0000 N   0  0  0  0  0  0  0  0  0  0  0  0
    1.2400   -1.4111    0.0000 C   0  0  0  0  0  0  0  0  0  0  0  0
    1.6462   -2.1380    0.0000 C   0  0  0  0  0  0  0  0  0  0  0  0
    1.6676   -0.7055    0.0000 C   0  0  0  0  0  0  0  0  0  0  0  0
    2.4587   -2.1380    0.0000 C   0  0  0  0  0  0  0  0  0  0  0  0
    1.2186   -2.8435    0.0000 C   0  0  0  0  0  0  0  0  0  0  0  0
    1.2400    0.0000    0.0000 C   0  0  0  0  0  0  0  0  0  0  0  0
    2.4587   -3.5490    0.0000 C   0  0  0  0  0  0  0  0  0  0  0  0
    2.8649   -2.8435    0.0000 C   0  0  0  0  0  0  0  0  0  0  0  0
    1.6248   -3.5490    0.0000 C   0  0  0  0  0  0  0  0  0  0  0  0
    0.0000   -0.7055    0.0000 C   0  0  0  0  0  0  0  0  0  0  0  0
    0.4276    0.0000    0.0000 C   0  0  0  0  0  0  0  0  0  0  0  0
  1  6  1  0  0  0  0
  2 10  1  0  0  0  0
  3  4  1  0  0  0  0
  3 13  2  0  0  0  0
  4  5  1  0  0  0  0
  4  6  2  0  0  0  0
  5  7  2  0  0  0  0
  5  8  1  0  0  0  0
  6  9  1  0  0  0  0
  7 11  1  0  0  0  0
  8 12  2  0  0  0  0
  9 14  2  0  0  0  0
 10 11  2  0  0  0  0
 10 12  1  0  0  0  0
 13 14  1  0  0  0  0
M  END
> <PUBCHEM_COMPOUND_ID_TYPE>
0

> <PUBCHEM_TOTAL_CHARGE>
0

> <PUBCHEM_SUBSTANCE_ID>
310932683

> <PUBCHEM_SUBSTANCE_VERSION>
1

> <PUBCHEM_EXT_DATASOURCE_NAME>
4488

> <PUBCHEM_EXT_DATASOURCE_REGID>
SCHEMBL16110063

> <PUBCHEM_SUBSTANCE_COMMENT>
InChI=1S/C11H7BrFN/c12-10-2-1-7-14-11(10)8-3-5-9(13)6-4-8/h1-7H
InChIKey=IPSHOAWCCYABTN-UHFFFAOYSA-N

> <PUBCHEM_SUBSTANCE_SYNONYM>
SCHEMBL16110063

> <PUBCHEM_XREF_EXT_ID>
SCHEMBL16110063

> <PUBCHEM_EXT_DATASOURCE_URL>
https://www.surechembl.org/

> <PUBCHEM_EXT_SUBSTANCE_URL>
https://www.surechembl.org/chemical/SCHEMBL16110063

> <PUBCHEM_CID_ASSOCIATIONS>
83919807  1

> <PUBCHEM_COORDINATE_TYPE>
1
3

$$$$
