310943307
  -OEChem-07211613022D

 34 37  0     0  0  0  0  0  0999 V2000
    2.8549   -2.6865    0.0000 F   0  0  0  0  0  0  0  0  0  0  0  0
   -2.8695   -0.2123    0.0000 O   0  0  0  0  0  0  0  0  0  0  0  0
   -4.3043    2.2766    0.0000 O   0  0  0  0  0  0  0  0  0  0  0  0
    1.4348   -0.1977    0.0000 O   0  0  0  0  0  0  0  0  0  0  0  0
   -1.4494   -0.2123    0.0000 N   0  0  0  0  0  0  0  0  0  0  0  0
   -2.8841    1.4421    0.0000 N   0  0  0  0  0  0  0  0  0  0  0  0
    2.1375    1.0322    0.0000 N   0  0  0  0  0  0  0  0  0  0  0  0
    4.2750   -1.0322    0.0000 N   0  0  0  0  0  0  0  0  0  0  0  0
   -0.7173    1.0468    0.0000 C   0  0  0  0  0  0  0  0  0  0  0  0
   -2.1521    1.0468    0.0000 C   0  0  0  0  0  0  0  0  0  0  0  0
   -0.0293    1.4567    0.0000 C   0  0  0  0  0  0  0  0  0  0  0  0
   -2.1521    0.2269    0.0000 C   0  0  0  0  0  0  0  0  0  0  0  0
   -1.4348    1.4567    0.0000 C   0  0  0  0  0  0  0  0  0  0  0  0
   -0.7319    0.2123    0.0000 C   0  0  0  0  0  0  0  0  0  0  0  0
    0.0000    2.2912    0.0000 C   0  0  0  0  0  0  0  0  0  0  0  0
    0.7027    1.0468    0.0000 C   0  0  0  0  0  0  0  0  0  0  0  0
    1.4054    1.4567    0.0000 C   0  0  0  0  0  0  0  0  0  0  0  0
    2.8549   -0.1977    0.0000 C   0  0  0  0  0  0  0  0  0  0  0  0
    0.7027    2.6718    0.0000 C   0  0  0  0  0  0  0  0  0  0  0  0
    2.1521    0.2269    0.0000 C   0  0  0  0  0  0  0  0  0  0  0  0
    3.5722   -1.4421    0.0000 C   0  0  0  0  0  0  0  0  0  0  0  0
    1.4201    2.2766    0.0000 C   0  0  0  0  0  0  0  0  0  0  0  0
    3.5722   -2.2474    0.0000 C   0  0  0  0  0  0  0  0  0  0  0  0
   -2.8841    2.2766    0.0000 C   0  0  0  0  0  0  0  0  0  0  0  0
   -3.5868    1.0468    0.0000 C   0  0  0  0  0  0  0  0  0  0  0  0
    2.8549   -1.0175    0.0000 C   0  0  0  0  0  0  0  0  0  0  0  0
   -1.4201   -1.0468    0.0000 C   0  0  0  0  0  0  0  0  0  0  0  0
    3.5575    0.2123    0.0000 C   0  0  0  0  0  0  0  0  0  0  0  0
   -0.7319    2.6718    0.0000 C   0  0  0  0  0  0  0  0  0  0  0  0
    4.2750   -0.1977    0.0000 C   0  0  0  0  0  0  0  0  0  0  0  0
   -3.6015    2.6865    0.0000 C   0  0  0  0  0  0  0  0  0  0  0  0
   -4.3043    1.4421    0.0000 C   0  0  0  0  0  0  0  0  0  0  0  0
    4.3043   -1.8666    0.0000 C   0  0  0  0  0  0  0  0  0  0  0  0
    4.3043   -2.6865    0.0000 C   0  0  0  0  0  0  0  0  0  0  0  0
  1 23  1  0  0  0  0
  2 12  2  0  0  0  0
  3 31  1  0  0  0  0
  3 32  1  0  0  0  0
  4 20  2  0  0  0  0
  5 12  1  0  0  0  0
  5 14  1  0  0  0  0
  5 27  1  0  0  0  0
  6 10  1  0  0  0  0
  6 24  1  0  0  0  0
  6 25  1  0  0  0  0
  7 17  1  0  0  0  0
  7 20  1  0  0  0  0
  8 21  2  0  0  0  0
  8 30  1  0  0  0  0
  9 11  1  0  0  0  0
  9 13  1  0  0  0  0
  9 14  2  0  0  0  0
 10 12  1  0  0  0  0
 10 13  2  0  0  0  0
 11 15  1  0  0  0  0
 11 16  2  0  0  0  0
 15 19  2  0  0  0  0
 15 29  1  0  0  0  0
 16 17  1  0  0  0  0
 17 22  2  0  0  0  0
 18 20  1  0  0  0  0
 18 26  2  0  0  0  0
 18 28  1  0  0  0  0
 19 22  1  0  0  0  0
 21 23  1  0  0  0  0
 21 26  1  0  0  0  0
 23 33  1  0  0  0  0
 23 34  1  0  0  0  0
 24 31  1  0  0  0  0
 25 32  1  0  0  0  0
 28 30  2  0  0  0  0
M  END
> <PUBCHEM_COMPOUND_ID_TYPE>
0

> <PUBCHEM_TOTAL_CHARGE>
0

> <PUBCHEM_SUBSTANCE_ID>
310943307

> <PUBCHEM_SUBSTANCE_VERSION>
1

> <PUBCHEM_EXT_DATASOURCE_NAME>
4488

> <PUBCHEM_EXT_DATASOURCE_REGID>
SCHEMBL16121369

> <PUBCHEM_SUBSTANCE_COMMENT>
InChI=1S/C26H29FN4O3/c1-17-5-6-20(29-24(32)18-7-8-28-23(14-18)26(2,3)27)15-21(17)19-13-22(25(33)30(4)16-19)31-9-11-34-12-10-31/h5-8,13-16H,9-12H2,1-4H3,(H,29,32)
InChIKey=KARIECUMVMXLLT-UHFFFAOYSA-N

> <PUBCHEM_SUBSTANCE_SYNONYM>
SCHEMBL16121369

> <PUBCHEM_XREF_EXT_ID>
SCHEMBL16121369

> <PUBCHEM_EXT_DATASOURCE_URL>
https://www.surechembl.org/

> <PUBCHEM_EXT_SUBSTANCE_URL>
https://www.surechembl.org/chemical/SCHEMBL16121369

> <PUBCHEM_CID_ASSOCIATIONS>
117609732  1

> <PUBCHEM_COORDINATE_TYPE>
1
3

$$$$
