310930868
  -OEChem-07211613022D

 12 12  0     0  0  0  0  0  0999 V2000
    4.1395   -2.8948    0.0000 Cl  0  0  0  0  0  0  0  0  0  0  0  0
    0.0000    0.0000    0.0000 S   0  0  0  0  0  0  0  0  0  0  0  0
    1.2448   -0.7237    0.0000 N   0  0  0  0  0  0  0  0  0  0  0  0
    0.0000   -1.4329    0.0000 N   0  0  0  0  0  0  0  0  0  0  0  0
    2.4895   -1.4618    0.0000 C   0  0  0  0  0  0  0  0  0  0  0  0
    2.8948   -2.1711    0.0000 C   0  0  0  0  0  0  0  0  0  0  0  0
    3.7198   -2.1711    0.0000 C   0  0  0  0  0  0  0  0  0  0  0  0
    1.6500   -1.4474    0.0000 C   0  0  0  0  0  0  0  0  0  0  0  0
    2.9092   -0.7382    0.0000 C   0  0  0  0  0  0  0  0  0  0  0  0
    4.1395   -1.4618    0.0000 C   0  0  0  0  0  0  0  0  0  0  0  0
    3.7198   -0.7382    0.0000 C   0  0  0  0  0  0  0  0  0  0  0  0
    0.4052   -0.7237    0.0000 C   0  0  0  0  0  0  0  0  0  0  0  0
  1  7  1  0  0  0  0
  2 12  2  0  0  0  0
  3  8  1  0  0  0  0
  3 12  1  0  0  0  0
  4 12  1  0  0  0  0
  5  6  2  0  0  0  0
  5  8  1  0  0  0  0
  5  9  1  0  0  0  0
  6  7  1  0  0  0  0
  7 10  2  0  0  0  0
  9 11  2  0  0  0  0
 10 11  1  0  0  0  0
M  END
> <PUBCHEM_COMPOUND_ID_TYPE>
0

> <PUBCHEM_TOTAL_CHARGE>
0

> <PUBCHEM_SUBSTANCE_ID>
310930868

> <PUBCHEM_SUBSTANCE_VERSION>
1

> <PUBCHEM_EXT_DATASOURCE_NAME>
4488

> <PUBCHEM_EXT_DATASOURCE_REGID>
SCHEMBL16108166

> <PUBCHEM_SUBSTANCE_COMMENT>
InChI=1S/C8H9ClN2S/c9-7-3-1-2-6(4-7)5-11-8(10)12/h1-4H,5H2,(H3,10,11,12)
InChIKey=OVDYRNUSDSIRGX-UHFFFAOYSA-N

> <PUBCHEM_SUBSTANCE_SYNONYM>
SCHEMBL16108166

> <PUBCHEM_XREF_EXT_ID>
SCHEMBL16108166

> <PUBCHEM_EXT_DATASOURCE_URL>
https://www.surechembl.org/

> <PUBCHEM_EXT_SUBSTANCE_URL>
https://www.surechembl.org/chemical/SCHEMBL16108166

> <PUBCHEM_CID_ASSOCIATIONS>
12568902  1

> <PUBCHEM_COORDINATE_TYPE>
1
3

$$$$
