310928718
  -OEChem-07211613022D

 15 15  0     0  0  0  0  0  0999 V2000
    2.5006    0.2615    0.0000 Cl  0  0  0  0  0  0  0  0  0  0  0  0
    1.7862    0.6740    0.0000 S   0  0  0  0  0  0  0  0  0  0  0  0
   -2.5006   -0.9760    0.0000 F   0  0  0  0  0  0  0  0  0  0  0  0
   -1.7862   -1.3885    0.0000 F   0  0  0  0  0  0  0  0  0  0  0  0
   -2.5006   -0.1510    0.0000 F   0  0  0  0  0  0  0  0  0  0  0  0
    1.3737   -0.0405    0.0000 O   0  0  0  0  0  0  0  0  0  0  0  0
    2.1987    1.3885    0.0000 O   0  0  0  0  0  0  0  0  0  0  0  0
   -1.0717   -0.1510    0.0000 C   0  0  0  0  0  0  0  0  0  0  0  0
   -1.7862   -0.5635    0.0000 C   0  0  0  0  0  0  0  0  0  0  0  0
    0.3572    0.6740    0.0000 C   0  0  0  0  0  0  0  0  0  0  0  0
    1.0717    1.0865    0.0000 C   0  0  0  0  0  0  0  0  0  0  0  0
   -1.0717    0.6740    0.0000 C   0  0  0  0  0  0  0  0  0  0  0  0
   -0.3572   -0.5635    0.0000 C   0  0  0  0  0  0  0  0  0  0  0  0
   -0.3572    1.0865    0.0000 C   0  0  0  0  0  0  0  0  0  0  0  0
    0.3572   -0.1510    0.0000 C   0  0  0  0  0  0  0  0  0  0  0  0
  1  2  1  0  0  0  0
  2  6  2  0  0  0  0
  2  7  2  0  0  0  0
  2 11  1  0  0  0  0
  3  9  1  0  0  0  0
  4  9  1  0  0  0  0
  5  9  1  0  0  0  0
  8  9  1  0  0  0  0
  8 12  2  0  0  0  0
  8 13  1  0  0  0  0
 10 11  1  0  0  0  0
 10 14  2  0  0  0  0
 10 15  1  0  0  0  0
 12 14  1  0  0  0  0
 13 15  2  0  0  0  0
M  END
> <PUBCHEM_COMPOUND_ID_TYPE>
0

> <PUBCHEM_TOTAL_CHARGE>
0

> <PUBCHEM_SUBSTANCE_ID>
310928718

> <PUBCHEM_SUBSTANCE_VERSION>
1

> <PUBCHEM_EXT_DATASOURCE_NAME>
11752

> <PUBCHEM_EXT_DATASOURCE_REGID>
BD100477

> <PUBCHEM_SUBSTANCE_SYNONYM>
(4-(Trifluoromethyl)phenyl)methanesulfonyl chloride
163295-75-8

> <PUBCHEM_GENERIC_REGISTRY_NAME>
163295-75-8

> <PUBCHEM_XREF_EXT_ID>
BD100477

> <PUBCHEM_EXT_DATASOURCE_URL>
http://www.bidepharmatech.com/en/index.html

> <PUBCHEM_EXT_SUBSTANCE_URL>
http://www.bidepharmatech.com/en/goodsview_goodscode_BD100477.html

> <PUBCHEM_CID_ASSOCIATIONS>
594332  1

> <PUBCHEM_COORDINATE_TYPE>
1
3

$$$$
