310943094
  -OEChem-07211613022D

 28 30  0     0  0  0  0  0  0999 V2000
    1.1827    2.0451    0.0000 F   0  0  0  0  0  0  0  0  0  0  0  0
    2.4968    2.0451    0.0000 F   0  0  0  0  0  0  0  0  0  0  0  0
    2.5789    1.3552    0.0000 F   0  0  0  0  0  0  0  0  0  0  0  0
    2.6118   -1.7658    0.0000 F   0  0  0  0  0  0  0  0  0  0  0  0
    3.8274   -0.6817    0.0000 F   0  0  0  0  0  0  0  0  0  0  0  0
    3.1539   -2.0451    0.0000 F   0  0  0  0  0  0  0  0  0  0  0  0
   -0.7885   -1.7823    0.0000 F   0  0  0  0  0  0  0  0  0  0  0  0
   -3.0718   -1.1088    0.0000 F   0  0  0  0  0  0  0  0  0  0  0  0
   -3.8274   -0.2053    0.0000 F   0  0  0  0  0  0  0  0  0  0  0  0
   -3.0718    0.7145    0.0000 F   0  0  0  0  0  0  0  0  0  0  0  0
    0.4107    0.5174    0.0000 N   0  0  0  0  0  0  0  0  0  0  0  0
    0.4107   -0.9445    0.0000 N   0  0  0  0  0  0  0  0  0  0  0  0
    1.1499    0.2053    0.0000 C   0  0  0  0  0  0  0  0  0  0  0  0
    1.8233    0.6488    0.0000 C   0  0  0  0  0  0  0  0  0  0  0  0
    1.1334   -0.6817    0.0000 C   0  0  0  0  0  0  0  0  0  0  0  0
   -0.0329   -0.2546    0.0000 C   0  0  0  0  0  0  0  0  0  0  0  0
    2.4804   -0.6981    0.0000 C   0  0  0  0  0  0  0  0  0  0  0  0
    1.8398    1.5851    0.0000 C   0  0  0  0  0  0  0  0  0  0  0  0
    2.4804    0.2053    0.0000 C   0  0  0  0  0  0  0  0  0  0  0  0
    1.8233   -1.1417    0.0000 C   0  0  0  0  0  0  0  0  0  0  0  0
   -0.8213   -0.2382    0.0000 C   0  0  0  0  0  0  0  0  0  0  0  0
    3.1539   -1.1745    0.0000 C   0  0  0  0  0  0  0  0  0  0  0  0
   -1.1663   -1.0267    0.0000 C   0  0  0  0  0  0  0  0  0  0  0  0
   -1.1663    0.5338    0.0000 C   0  0  0  0  0  0  0  0  0  0  0  0
   -2.3162   -0.2218    0.0000 C   0  0  0  0  0  0  0  0  0  0  0  0
   -1.9383   -1.0102    0.0000 C   0  0  0  0  0  0  0  0  0  0  0  0
   -1.9383    0.5338    0.0000 C   0  0  0  0  0  0  0  0  0  0  0  0
   -3.0882   -0.2218    0.0000 C   0  0  0  0  0  0  0  0  0  0  0  0
  1 18  1  0  0  0  0
  2 18  1  0  0  0  0
  3 18  1  0  0  0  0
  4 22  1  0  0  0  0
  5 22  1  0  0  0  0
  6 22  1  0  0  0  0
  7 23  1  0  0  0  0
  8 28  1  0  0  0  0
  9 28  1  0  0  0  0
 10 28  1  0  0  0  0
 11 13  1  0  0  0  0
 11 16  2  0  0  0  0
 12 15  1  0  0  0  0
 12 16  1  0  0  0  0
 13 14  1  0  0  0  0
 13 15  2  0  0  0  0
 14 18  1  0  0  0  0
 14 19  2  0  0  0  0
 15 20  1  0  0  0  0
 16 21  1  0  0  0  0
 17 19  1  0  0  0  0
 17 20  2  0  0  0  0
 17 22  1  0  0  0  0
 21 23  1  0  0  0  0
 21 24  2  0  0  0  0
 23 26  2  0  0  0  0
 24 27  1  0  0  0  0
 25 26  1  0  0  0  0
 25 27  2  0  0  0  0
 25 28  1  0  0  0  0
M  END
> <PUBCHEM_COMPOUND_ID_TYPE>
0

> <PUBCHEM_TOTAL_CHARGE>
0

> <PUBCHEM_SUBSTANCE_ID>
310943094

> <PUBCHEM_SUBSTANCE_VERSION>
1

> <PUBCHEM_EXT_DATASOURCE_NAME>
4488

> <PUBCHEM_EXT_DATASOURCE_REGID>
SCHEMBL16121153

> <PUBCHEM_SUBSTANCE_COMMENT>
InChI=1S/C16H6F10N2/c17-10-4-6(14(18,19)20)1-2-8(10)13-27-11-5-7(15(21,22)23)3-9(12(11)28-13)16(24,25)26/h1-5H,(H,27,28)
InChIKey=GKUVEPGVURFJGR-UHFFFAOYSA-N

> <PUBCHEM_SUBSTANCE_SYNONYM>
SCHEMBL16121153

> <PUBCHEM_XREF_EXT_ID>
SCHEMBL16121153

> <PUBCHEM_EXT_DATASOURCE_URL>
https://www.surechembl.org/

> <PUBCHEM_EXT_SUBSTANCE_URL>
https://www.surechembl.org/chemical/SCHEMBL16121153

> <PUBCHEM_CID_ASSOCIATIONS>
117609525  1

> <PUBCHEM_COORDINATE_TYPE>
1
3

$$$$
