310944346
  -OEChem-07211613022D

 17 18  0     0  0  0  0  0  0999 V2000
    0.3601    1.8584    0.0000 F   0  0  0  0  0  0  0  0  0  0  0  0
   -1.8262    1.3825    0.0000 N   0  0  0  0  0  0  0  0  0  0  0  0
    2.5465    1.4468    0.0000 N   0  0  0  0  0  0  0  0  0  0  0  0
   -0.3859   -0.1994    0.0000 C   0  0  0  0  0  0  0  0  0  0  0  0
   -0.3601    0.6366    0.0000 C   0  0  0  0  0  0  0  0  0  0  0  0
    0.3473    1.0481    0.0000 C   0  0  0  0  0  0  0  0  0  0  0  0
    1.0932    0.6495    0.0000 C   0  0  0  0  0  0  0  0  0  0  0  0
   -1.1189   -0.6237    0.0000 C   0  0  0  0  0  0  0  0  0  0  0  0
    0.3729   -0.6109    0.0000 C   0  0  0  0  0  0  0  0  0  0  0  0
    1.0674   -0.1994    0.0000 C   0  0  0  0  0  0  0  0  0  0  0  0
   -1.1061    1.0224    0.0000 C   0  0  0  0  0  0  0  0  0  0  0  0
   -1.8391   -0.2250    0.0000 C   0  0  0  0  0  0  0  0  0  0  0  0
   -1.1189   -1.4468    0.0000 C   0  0  0  0  0  0  0  0  0  0  0  0
    1.8262    1.0611    0.0000 C   0  0  0  0  0  0  0  0  0  0  0  0
   -2.5465   -0.6495    0.0000 C   0  0  0  0  0  0  0  0  0  0  0  0
   -1.8262   -1.8584    0.0000 C   0  0  0  0  0  0  0  0  0  0  0  0
   -2.5336   -1.4597    0.0000 C   0  0  0  0  0  0  0  0  0  0  0  0
  1  6  1  0  0  0  0
  2 11  3  0  0  0  0
  3 14  3  0  0  0  0
  4  5  2  0  0  0  0
  4  8  1  0  0  0  0
  4  9  1  0  0  0  0
  5  6  1  0  0  0  0
  5 11  1  0  0  0  0
  6  7  2  0  0  0  0
  7 10  1  0  0  0  0
  7 14  1  0  0  0  0
  8 12  2  0  0  0  0
  8 13  1  0  0  0  0
  9 10  2  0  0  0  0
 12 15  1  0  0  0  0
 13 16  2  0  0  0  0
 15 17  2  0  0  0  0
 16 17  1  0  0  0  0
M  END
> <PUBCHEM_COMPOUND_ID_TYPE>
0

> <PUBCHEM_TOTAL_CHARGE>
0

> <PUBCHEM_SUBSTANCE_ID>
310944346

> <PUBCHEM_SUBSTANCE_VERSION>
1

> <PUBCHEM_EXT_DATASOURCE_NAME>
4488

> <PUBCHEM_EXT_DATASOURCE_REGID>
SCHEMBL16122421

> <PUBCHEM_SUBSTANCE_COMMENT>
InChI=1S/C14H7FN2/c15-14-11(8-16)6-7-12(13(14)9-17)10-4-2-1-3-5-10/h1-7H
InChIKey=SQSZREUTFFVDIP-UHFFFAOYSA-N

> <PUBCHEM_SUBSTANCE_SYNONYM>
SCHEMBL16122421

> <PUBCHEM_XREF_EXT_ID>
SCHEMBL16122421

> <PUBCHEM_EXT_DATASOURCE_URL>
https://www.surechembl.org/

> <PUBCHEM_EXT_SUBSTANCE_URL>
https://www.surechembl.org/chemical/SCHEMBL16122421

> <PUBCHEM_CID_ASSOCIATIONS>
117610603  1

> <PUBCHEM_COORDINATE_TYPE>
1
3

$$$$
