310947078
  -OEChem-07211613022D

 36 40  0     1  0  0  0  0  0999 V2000
   -2.7385    1.1033    0.0000 F   0  0  0  0  0  0  0  0  0  0  0  0
   -1.6748    3.0083    0.0000 O   0  0  0  0  0  0  0  0  0  0  0  0
   -3.1036   -1.7225    0.0000 O   0  0  0  0  0  0  0  0  0  0  0  0
    2.1669   -3.0083    0.0000 O   0  0  0  0  0  0  0  0  0  0  0  0
    3.5798   -0.3731    0.0000 O   0  0  0  0  0  0  0  0  0  0  0  0
   -1.5955    0.6112    0.0000 N   0  0  0  0  0  0  0  0  0  0  0  0
   -1.1033   -0.0556    0.0000 N   0  0  0  0  0  0  0  0  0  0  0  0
   -1.3414   -1.5161    0.0000 N   0  0  0  0  0  0  0  0  0  0  0  0
   -3.8180   -0.4683    0.0000 N   0  0  0  0  0  0  0  0  0  0  0  0
    2.4527   -1.5955    0.0000 N   0  0  0  0  0  0  0  0  0  0  0  0
    0.8175    1.0875    0.0000 N   0  0  0  0  0  0  0  0  0  0  0  0
   -1.3414    1.4050    0.0000 C   0  0  3  0  0  0  0  0  0  0  0  0
   -2.3733    0.3572    0.0000 C   0  0  0  0  0  0  0  0  0  0  0  0
   -2.3892   -0.4683    0.0000 C   0  0  0  0  0  0  0  0  0  0  0  0
   -1.5955   -0.7223    0.0000 C   0  0  0  0  0  0  0  0  0  0  0  0
   -2.1194    1.6589    0.0000 C   0  0  3  0  0  0  0  0  0  0  0  0
   -3.1036   -0.8652    0.0000 C   0  0  0  0  0  0  0  0  0  0  0  0
   -0.7223    1.9764    0.0000 C   0  0  0  0  0  0  0  0  0  0  0  0
   -0.7541    0.7858    0.0000 C   0  0  0  0  0  0  0  0  0  0  0  0
   -3.1194    0.7700    0.0000 C   0  0  0  0  0  0  0  0  0  0  0  0
   -2.2939    2.4686    0.0000 C   0  0  0  0  0  0  0  0  0  0  0  0
   -3.8180    0.3572    0.0000 C   0  0  0  0  0  0  0  0  0  0  0  0
   -0.5318   -1.6907    0.0000 C   0  0  0  0  0  0  0  0  0  0  0  0
   -0.8811    2.7544    0.0000 C   0  0  0  0  0  0  0  0  0  0  0  0
    0.0238    0.9446    0.0000 C   0  0  0  0  0  0  0  0  0  0  0  0
    0.0238   -1.0875    0.0000 C   0  0  0  0  0  0  0  0  0  0  0  0
    1.0875   -2.0241    0.0000 C   0  0  0  0  0  0  0  0  0  0  0  0
   -0.2619   -2.4686    0.0000 C   0  0  0  0  0  0  0  0  0  0  0  0
    0.8334   -1.2462    0.0000 C   0  0  0  0  0  0  0  0  0  0  0  0
    0.5477   -2.6432    0.0000 C   0  0  0  0  0  0  0  0  0  0  0  0
    1.8971   -2.1828    0.0000 C   0  0  0  0  0  0  0  0  0  0  0  0
    1.3891   -0.6112    0.0000 C   0  0  0  0  0  0  0  0  0  0  0  0
    3.2782   -1.7542    0.0000 C   0  0  0  0  0  0  0  0  0  0  0  0
    2.2146   -0.7858    0.0000 C   0  0  0  0  0  0  0  0  0  0  0  0
    3.8180   -1.1350    0.0000 C   0  0  0  0  0  0  0  0  0  0  0  0
    2.7702   -0.1825    0.0000 C   0  0  0  0  0  0  0  0  0  0  0  0
 16  1  1  6  0  0  0
  2 21  1  0  0  0  0
  2 24  1  0  0  0  0
  3 17  2  0  0  0  0
  4 31  2  0  0  0  0
  5 35  1  0  0  0  0
  5 36  1  0  0  0  0
  6  7  1  0  0  0  0
  6 12  1  0  0  0  0
  6 13  1  0  0  0  0
  7 15  2  0  0  0  0
  8 15  1  0  0  0  0
  8 23  1  0  0  0  0
  9 17  1  0  0  0  0
  9 22  1  0  0  0  0
 10 31  1  0  0  0  0
 10 33  1  0  0  0  0
 10 34  1  0  0  0  0
 11 25  3  0  0  0  0
 12 16  1  0  0  0  0
 12 18  1  0  0  0  0
 12 19  1  1  0  0  0
 13 14  2  0  0  0  0
 13 20  1  0  0  0  0
 14 15  1  0  0  0  0
 14 17  1  0  0  0  0
 16 21  1  0  0  0  0
 18 24  1  0  0  0  0
 19 25  1  0  0  0  0
 20 22  2  0  0  0  0
 23 26  1  0  0  0  0
 23 28  2  0  0  0  0
 26 29  2  0  0  0  0
 27 29  1  0  0  0  0
 27 30  2  0  0  0  0
 27 31  1  0  0  0  0
 28 30  1  0  0  0  0
 29 32  1  0  0  0  0
 33 35  1  0  0  0  0
 34 36  1  0  0  0  0
M  END
> <PUBCHEM_COMPOUND_ID_TYPE>
0

> <PUBCHEM_TOTAL_CHARGE>
0

> <PUBCHEM_SUBSTANCE_ID>
310947078

> <PUBCHEM_SUBSTANCE_VERSION>
1

> <PUBCHEM_EXT_DATASOURCE_NAME>
4488

> <PUBCHEM_EXT_DATASOURCE_REGID>
SCHEMBL16125232

> <PUBCHEM_SUBSTANCE_COMMENT>
InChI=1S/C25H27FN6O4/c1-16-14-17(2-3-18(16)24(34)31-9-12-35-13-10-31)29-22-21-19(4-8-28-23(21)33)32(30-22)25(5-7-27)6-11-36-15-20(25)26/h2-4,8,14,20H,5-6,9-13,15H2,1H3,(H,28,33)(H,29,30)/t20-,25+/m1/s1
InChIKey=VCCJOVKEVJPDTQ-NLFFAJNJSA-N

> <PUBCHEM_SUBSTANCE_SYNONYM>
SCHEMBL16125232

> <PUBCHEM_XREF_EXT_ID>
SCHEMBL16125232

> <PUBCHEM_EXT_DATASOURCE_URL>
https://www.surechembl.org/

> <PUBCHEM_EXT_SUBSTANCE_URL>
https://www.surechembl.org/chemical/SCHEMBL16125232

> <PUBCHEM_CID_ASSOCIATIONS>
117612930  1

> <PUBCHEM_COORDINATE_TYPE>
1
3

> <PUBCHEM_BONDANNOTATIONS>
16  1  6
12  19  5

$$$$
