310942242
  -OEChem-07211613022D

 14 15  0     0  0  0  0  0  0999 V2000
   -1.8571    0.0310    0.0000 O   0  0  0  0  0  0  0  0  0  0  0  0
   -1.0731    1.2897    0.0000 O   0  0  0  0  0  0  0  0  0  0  0  0
    0.3302    0.0516    0.0000 N   0  0  0  0  0  0  0  0  0  0  0  0
    0.5572    0.7944    0.0000 C   0  0  0  0  0  0  0  0  0  0  0  0
    1.0524    0.4643    0.0000 C   0  0  0  0  0  0  0  0  0  0  0  0
    1.0524    1.2897    0.0000 C   0  0  0  0  0  0  0  0  0  0  0  0
   -1.0731    0.4643    0.0000 C   0  0  0  0  0  0  0  0  0  0  0  0
    1.7540    1.7230    0.0000 C   0  0  0  0  0  0  0  0  0  0  0  0
    0.3095    1.7024    0.0000 C   0  0  0  0  0  0  0  0  0  0  0  0
   -1.8778   -0.8563    0.0000 C   0  0  0  0  0  0  0  0  0  0  0  0
    2.6619    1.6611    0.0000 C   0  0  0  0  0  0  0  0  0  0  0  0
   -2.6619   -0.8977    0.0000 C   0  0  0  0  0  0  0  0  0  0  0  0
   -1.0731   -0.8563    0.0000 C   0  0  0  0  0  0  0  0  0  0  0  0
   -1.8571   -1.7230    0.0000 C   0  0  0  0  0  0  0  0  0  0  0  0
  1  7  1  0  0  0  0
  1 10  1  0  0  0  0
  2  7  2  0  0  0  0
  3  4  1  0  0  0  0
  3  5  1  0  0  0  0
  3  7  1  0  0  0  0
  4  5  2  0  0  0  0
  4  6  1  0  0  0  0
  5  6  1  0  0  0  0
  6  8  1  0  0  0  0
  6  9  1  0  0  0  0
  8 11  2  0  0  0  0
 10 12  1  0  0  0  0
 10 13  1  0  0  0  0
 10 14  1  0  0  0  0
M  END
> <PUBCHEM_COMPOUND_ID_TYPE>
0

> <PUBCHEM_TOTAL_CHARGE>
0

> <PUBCHEM_SUBSTANCE_ID>
310942242

> <PUBCHEM_SUBSTANCE_VERSION>
1

> <PUBCHEM_EXT_DATASOURCE_NAME>
4488

> <PUBCHEM_EXT_DATASOURCE_REGID>
SCHEMBL16120277

> <PUBCHEM_SUBSTANCE_COMMENT>
InChI=1S/C11H15NO2/c1-6-11(5)7-8(11)12(7)9(13)14-10(2,3)4/h6H,1H2,2-5H3
InChIKey=GLODNFWTROYQKO-UHFFFAOYSA-N

> <PUBCHEM_SUBSTANCE_SYNONYM>
SCHEMBL16120277

> <PUBCHEM_XREF_EXT_ID>
SCHEMBL16120277

> <PUBCHEM_EXT_DATASOURCE_URL>
https://www.surechembl.org/

> <PUBCHEM_EXT_SUBSTANCE_URL>
https://www.surechembl.org/chemical/SCHEMBL16120277

> <PUBCHEM_CID_ASSOCIATIONS>
117608893  1

> <PUBCHEM_COORDINATE_TYPE>
1
3

$$$$
