310935445
  -OEChem-07211613022D

 11 12  0     0  0  0  0  0  0999 V2000
    2.5259   -1.4302    0.0000 Br  0  0  0  0  0  0  0  0  0  0  0  0
    0.0371    0.0000    0.0000 F   0  0  0  0  0  0  0  0  0  0  0  0
    0.4458   -2.1545    0.0000 N   0  0  0  0  0  0  0  0  0  0  0  0
    1.2630   -2.1545    0.0000 C   0  0  0  0  0  0  0  0  0  0  0  0
    1.6716   -2.8603    0.0000 C   0  0  0  0  0  0  0  0  0  0  0  0
    1.6902   -1.4302    0.0000 C   0  0  0  0  0  0  0  0  0  0  0  0
    1.2630   -0.7244    0.0000 C   0  0  0  0  0  0  0  0  0  0  0  0
    0.4458   -0.7244    0.0000 C   0  0  0  0  0  0  0  0  0  0  0  0
    2.3774   -3.2875    0.0000 C   0  0  0  0  0  0  0  0  0  0  0  0
    1.6716   -3.7147    0.0000 C   0  0  0  0  0  0  0  0  0  0  0  0
    0.0000   -1.4302    0.0000 C   0  0  0  0  0  0  0  0  0  0  0  0
  1  6  1  0  0  0  0
  2  8  1  0  0  0  0
  3  4  1  0  0  0  0
  3 11  2  0  0  0  0
  4  5  1  0  0  0  0
  4  6  2  0  0  0  0
  5  9  1  0  0  0  0
  5 10  1  0  0  0  0
  6  7  1  0  0  0  0
  7  8  2  0  0  0  0
  8 11  1  0  0  0  0
  9 10  1  0  0  0  0
M  END
> <PUBCHEM_COMPOUND_ID_TYPE>
0

> <PUBCHEM_TOTAL_CHARGE>
0

> <PUBCHEM_SUBSTANCE_ID>
310935445

> <PUBCHEM_SUBSTANCE_VERSION>
1

> <PUBCHEM_EXT_DATASOURCE_NAME>
4488

> <PUBCHEM_EXT_DATASOURCE_REGID>
SCHEMBL16112989

> <PUBCHEM_SUBSTANCE_COMMENT>
InChI=1S/C8H7BrFN/c9-7-3-6(10)4-11-8(7)5-1-2-5/h3-5H,1-2H2
InChIKey=OATYIXPYVDUXOD-UHFFFAOYSA-N

> <PUBCHEM_SUBSTANCE_SYNONYM>
SCHEMBL16112989

> <PUBCHEM_XREF_EXT_ID>
SCHEMBL16112989

> <PUBCHEM_EXT_DATASOURCE_URL>
https://www.surechembl.org/

> <PUBCHEM_EXT_SUBSTANCE_URL>
https://www.surechembl.org/chemical/SCHEMBL16112989

> <PUBCHEM_CID_ASSOCIATIONS>
117603486  1

> <PUBCHEM_COORDINATE_TYPE>
1
3

$$$$
