310941305
  -OEChem-07211613022D

 23 24  0     1  0  0  0  0  0999 V2000
    0.4758    3.0427    0.0000 F   0  0  0  0  0  0  0  0  0  0  0  0
    1.5726    2.5588    0.0000 F   0  0  0  0  0  0  0  0  0  0  0  0
    1.3307    0.4136    0.0000 O   0  0  0  0  0  0  0  0  0  0  0  0
   -0.1209   -1.2477    0.0000 O   0  0  0  0  0  0  0  0  0  0  0  0
    0.4524   -2.2238    0.0000 O   0  0  0  0  0  0  0  0  0  0  0  0
   -0.0455   -3.0427    0.0000 O   0  0  0  0  0  0  0  0  0  0  0  0
   -1.5726   -0.4090    0.0000 N   0  0  0  0  0  0  0  0  0  0  0  0
    0.6048    0.0103    0.0000 C   0  0  3  0  0  0  0  0  0  0  0  0
   -0.1209   -0.3929    0.0000 C   0  0  0  0  0  0  0  0  0  0  0  0
    1.3146   -0.3929    0.0000 C   0  0  0  0  0  0  0  0  0  0  0  0
   -0.8629    0.0103    0.0000 C   0  0  3  0  0  0  0  0  0  0  0  0
   -0.8307    0.8330    0.0000 C   0  0  0  0  0  0  0  0  0  0  0  0
   -0.1209    1.2684    0.0000 C   0  0  3  0  0  0  0  0  0  0  0  0
    0.0081    0.5910    0.0000 C   0  0  0  0  0  0  0  0  0  0  0  0
    0.7823    2.2523    0.0000 C   0  0  0  0  0  0  0  0  0  0  0  0
   -0.0242    2.0749    0.0000 C   0  0  0  0  0  0  0  0  0  0  0  0
    0.6371    0.9298    0.0000 C   0  0  0  0  0  0  0  0  0  0  0  0
    1.1855    1.5265    0.0000 C   0  0  0  0  0  0  0  0  0  0  0  0
   -0.0455   -2.5115    0.0000 C   0  0  0  0  0  0  0  0  0  0  0  0
    0.4636   -1.6705    0.0000 C   0  0  0  0  0  0  0  0  0  0  0  0
    0.9615   -1.6483    0.0000 C   0  0  0  0  0  0  0  0  0  0  0  0
   -0.0455   -1.6705    0.0000 C   0  0  0  0  0  0  0  0  0  0  0  0
    0.4524   -1.1283    0.0000 C   0  0  0  0  0  0  0  0  0  0  0  0
  1 15  1  0  0  0  0
  2 15  1  0  0  0  0
  3  8  1  0  0  0  0
  3 10  1  0  0  0  0
  4  9  2  0  0  0  0
  5 19  1  0  0  0  0
  5 20  1  0  0  0  0
  6 19  2  0  0  0  0
 11  7  1  1  0  0  0
  7 19  1  0  0  0  0
  8  9  1  6  0  0  0
  8 10  1  0  0  0  0
  8 14  1  1  0  0  0
  9 11  1  0  0  0  0
 11 12  1  0  0  0  0
 12 13  1  0  0  0  0
 13 16  1  0  0  0  0
 13 17  1  0  0  0  0
 15 16  1  0  0  0  0
 15 18  1  0  0  0  0
 17 18  1  0  0  0  0
 20 21  1  0  0  0  0
 20 22  1  0  0  0  0
 20 23  1  0  0  0  0
M  END
> <PUBCHEM_COMPOUND_ID_TYPE>
0

> <PUBCHEM_TOTAL_CHARGE>
0

> <PUBCHEM_SUBSTANCE_ID>
310941305

> <PUBCHEM_SUBSTANCE_VERSION>
1

> <PUBCHEM_EXT_DATASOURCE_NAME>
4488

> <PUBCHEM_EXT_DATASOURCE_REGID>
SCHEMBL16119265

> <PUBCHEM_SUBSTANCE_COMMENT>
InChI=1S/C16H25F2NO4/c1-14(2,3)23-13(21)19-11(12(20)15(4)9-22-15)7-10-5-6-16(17,18)8-10/h10-11H,5-9H2,1-4H3,(H,19,21)/t10?,11-,15+/m0/s1
InChIKey=LRFVYDVCRWBIAB-CUUPYZDQSA-N

> <PUBCHEM_SUBSTANCE_SYNONYM>
SCHEMBL16119265

> <PUBCHEM_XREF_EXT_ID>
SCHEMBL16119265

> <PUBCHEM_EXT_DATASOURCE_URL>
https://www.surechembl.org/

> <PUBCHEM_EXT_SUBSTANCE_URL>
https://www.surechembl.org/chemical/SCHEMBL16119265

> <PUBCHEM_CID_ASSOCIATIONS>
117608153  1

> <PUBCHEM_COORDINATE_TYPE>
1
3

> <PUBCHEM_BONDANNOTATIONS>
11  7  5
8  14  5
8  9  6

$$$$
