310929337
  -OEChem-07211613022D

 20 20  0     0  0  0  0  0  0999 V2000
    2.0750   -3.4501    0.0000 S   0  0  0  0  0  0  0  0  0  0  0  0
    1.3500   -3.8501    0.0000 O   0  0  0  0  0  0  0  0  0  0  0  0
    2.8001   -3.0501    0.0000 O   0  0  0  0  0  0  0  0  0  0  0  0
    2.8500   -2.7751    0.0000 O   0  0  0  0  0  0  0  0  0  0  0  0
    1.6501   -1.3000    0.0000 O   0  0  0  0  0  0  0  0  0  0  0  0
    2.9001   -2.0000    0.0000 O   0  0  0  0  0  0  0  0  0  0  0  0
    3.8251   -0.8000    0.0000 O   0  0  0  0  0  0  0  0  0  0  0  0
    1.6501   -2.7251    0.0000 N   0  0  0  0  0  0  0  0  0  0  0  0
    2.4751   -4.1501    0.0000 C   0  0  0  0  0  0  0  0  0  0  0  0
    3.1751   -4.5751    0.0000 C   0  0  0  0  0  0  0  0  0  0  0  0
    2.4751   -5.0001    0.0000 C   0  0  0  0  0  0  0  0  0  0  0  0
    0.8250   -2.7251    0.0000 C   0  0  0  0  0  0  0  0  0  0  0  0
    3.0501   -3.5751    0.0000 C   0  0  0  0  0  0  0  0  0  0  0  0
    2.0750   -2.0000    0.0000 C   0  0  0  0  0  0  0  0  0  0  0  0
    0.8250   -1.8750    0.0000 C   0  0  0  0  0  0  0  0  0  0  0  0
    0.0000   -2.7251    0.0000 C   0  0  0  0  0  0  0  0  0  0  0  0
    0.8250   -3.5501    0.0000 C   0  0  0  0  0  0  0  0  0  0  0  0
    3.4501   -2.2001    0.0000 C   0  0  0  0  0  0  0  0  0  0  0  0
    3.2251   -1.3750    0.0000 C   0  0  0  0  0  0  0  0  0  0  0  0
    3.6251    0.0000    0.0000 C   0  0  0  0  0  0  0  0  0  0  0  0
  1  2  2  0  0  0  0
  1  3  2  0  0  0  0
  1  8  1  0  0  0  0
  1  9  1  0  0  0  0
  4 13  1  0  0  0  0
  4 18  1  0  0  0  0
  5 14  2  0  0  0  0
  6 14  1  0  0  0  0
  7 19  1  0  0  0  0
  7 20  1  0  0  0  0
  8 12  1  0  0  0  0
  8 14  1  0  0  0  0
  9 10  1  0  0  0  0
  9 11  1  0  0  0  0
  9 13  1  0  0  0  0
 10 11  1  0  0  0  0
 12 15  1  0  0  0  0
 12 16  1  0  0  0  0
 12 17  1  0  0  0  0
 18 19  1  0  0  0  0
M  END
> <PUBCHEM_COMPOUND_ID_TYPE>
0

> <PUBCHEM_TOTAL_CHARGE>
0

> <PUBCHEM_SUBSTANCE_ID>
310929337

> <PUBCHEM_SUBSTANCE_VERSION>
1

> <PUBCHEM_EXT_DATASOURCE_NAME>
4488

> <PUBCHEM_EXT_DATASOURCE_REGID>
SCHEMBL16106503

> <PUBCHEM_SUBSTANCE_COMMENT>
InChI=1S/C12H23NO6S/c1-11(2,3)13(10(14)15)20(16,17)12(5-6-12)9-19-8-7-18-4/h5-9H2,1-4H3,(H,14,15)
InChIKey=ABGNGISFKKDLKU-UHFFFAOYSA-N

> <PUBCHEM_SUBSTANCE_SYNONYM>
SCHEMBL16106503

> <PUBCHEM_XREF_EXT_ID>
SCHEMBL16106503

> <PUBCHEM_EXT_DATASOURCE_URL>
https://www.surechembl.org/

> <PUBCHEM_EXT_SUBSTANCE_URL>
https://www.surechembl.org/chemical/SCHEMBL16106503

> <PUBCHEM_CID_ASSOCIATIONS>
117598725  1

> <PUBCHEM_COORDINATE_TYPE>
1
3

$$$$
