310939003
  -OEChem-07211613022D

 25 28  0     0  0  0  0  0  0999 V2000
   -0.5786   -6.2901    0.0000 F   0  0  0  0  0  0  0  0  0  0  0  0
   -0.6510   -3.4793    0.0000 O   0  0  0  0  0  0  0  0  0  0  0  0
   -0.5786   -4.8612    0.0000 N   0  0  0  0  0  0  0  0  0  0  0  0
   -2.5626   -5.6862    0.0000 N   0  0  0  0  0  0  0  0  0  0  0  0
    1.8964   -9.1480    0.0000 N   0  0  0  0  0  0  0  0  0  0  0  0
   -1.8481   -4.4487    0.0000 C   0  0  0  0  0  0  0  0  0  0  0  0
   -1.0635   -4.1938    0.0000 C   0  0  0  0  0  0  0  0  0  0  0  0
   -1.8481   -5.2737    0.0000 C   0  0  0  0  0  0  0  0  0  0  0  0
   -1.0635   -5.5286    0.0000 C   0  0  0  0  0  0  0  0  0  0  0  0
    0.6589   -5.5757    0.0000 C   0  0  0  0  0  0  0  0  0  0  0  0
    0.2464   -4.8612    0.0000 C   0  0  0  0  0  0  0  0  0  0  0  0
    0.2464   -6.2901    0.0000 C   0  0  0  0  0  0  0  0  0  0  0  0
   -2.5626   -4.0362    0.0000 C   0  0  0  0  0  0  0  0  0  0  0  0
    1.4839   -7.0046    0.0000 C   0  0  0  0  0  0  0  0  0  0  0  0
    0.6589   -7.0046    0.0000 C   0  0  0  0  0  0  0  0  0  0  0  0
    1.4839   -5.5757    0.0000 C   0  0  0  0  0  0  0  0  0  0  0  0
    1.8964   -7.7191    0.0000 C   0  0  0  0  0  0  0  0  0  0  0  0
    1.8964   -6.2901    0.0000 C   0  0  0  0  0  0  0  0  0  0  0  0
   -3.2770   -4.4487    0.0000 C   0  0  0  0  0  0  0  0  0  0  0  0
   -3.2770   -5.2737    0.0000 C   0  0  0  0  0  0  0  0  0  0  0  0
    1.4839   -8.4336    0.0000 C   0  0  0  0  0  0  0  0  0  0  0  0
    2.7214   -7.7191    0.0000 C   0  0  0  0  0  0  0  0  0  0  0  0
    2.7214   -9.1480    0.0000 C   0  0  0  0  0  0  0  0  0  0  0  0
    3.1339   -8.4336    0.0000 C   0  0  0  0  0  0  0  0  0  0  0  0
    3.1339   -9.8625    0.0000 C   0  0  0  0  0  0  0  0  0  0  0  0
  1 12  1  0  0  0  0
  2  7  2  0  0  0  0
  3  7  1  0  0  0  0
  3  9  1  0  0  0  0
  3 11  1  0  0  0  0
  4  8  2  0  0  0  0
  4 20  1  0  0  0  0
  5 21  2  0  0  0  0
  5 23  1  0  0  0  0
  6  7  1  0  0  0  0
  6  8  1  0  0  0  0
  6 13  2  0  0  0  0
  8  9  1  0  0  0  0
 10 11  1  0  0  0  0
 10 12  1  0  0  0  0
 10 16  2  0  0  0  0
 12 15  2  0  0  0  0
 13 19  1  0  0  0  0
 14 15  1  0  0  0  0
 14 17  1  0  0  0  0
 14 18  2  0  0  0  0
 16 18  1  0  0  0  0
 17 21  1  0  0  0  0
 17 22  2  0  0  0  0
 19 20  2  0  0  0  0
 22 24  1  0  0  0  0
 23 24  2  0  0  0  0
 23 25  1  0  0  0  0
M  END
> <PUBCHEM_COMPOUND_ID_TYPE>
0

> <PUBCHEM_TOTAL_CHARGE>
0

> <PUBCHEM_SUBSTANCE_ID>
310939003

> <PUBCHEM_SUBSTANCE_VERSION>
1

> <PUBCHEM_EXT_DATASOURCE_NAME>
4488

> <PUBCHEM_EXT_DATASOURCE_REGID>
SCHEMBL16116922

> <PUBCHEM_SUBSTANCE_COMMENT>
InChI=1S/C20H16FN3O/c1-13-4-5-15(10-23-13)14-6-7-16(18(21)9-14)11-24-12-19-17(20(24)25)3-2-8-22-19/h2-10H,11-12H2,1H3
InChIKey=NBPKVLYMTWSNSH-UHFFFAOYSA-N

> <PUBCHEM_SUBSTANCE_SYNONYM>
SCHEMBL16116922

> <PUBCHEM_XREF_EXT_ID>
SCHEMBL16116922

> <PUBCHEM_EXT_DATASOURCE_URL>
https://www.surechembl.org/

> <PUBCHEM_EXT_SUBSTANCE_URL>
https://www.surechembl.org/chemical/SCHEMBL16116922

> <PUBCHEM_CID_ASSOCIATIONS>
117606387  1

> <PUBCHEM_COORDINATE_TYPE>
1
3

$$$$
