310948412
  -OEChem-07211613022D

 33 37  0     1  0  0  0  0  0999 V2000
    2.6822   -2.4509    0.0000 F   0  0  0  0  0  0  0  0  0  0  0  0
    3.2555   -3.4128    0.0000 F   0  0  0  0  0  0  0  0  0  0  0  0
    2.2566   -3.9677    0.0000 F   0  0  0  0  0  0  0  0  0  0  0  0
   -2.5527   -2.6729    0.0000 O   0  0  0  0  0  0  0  0  0  0  0  0
   -1.0358   -0.3422    0.0000 N   0  0  0  0  0  0  0  0  0  0  0  0
   -0.5549   -1.0081    0.0000 N   0  0  0  0  0  0  0  0  0  0  0  0
   -0.7769   -2.4694    0.0000 N   0  0  0  0  0  0  0  0  0  0  0  0
   -3.2555   -1.4150    0.0000 N   0  0  0  0  0  0  0  0  0  0  0  0
   -0.0555    2.8209    0.0000 N   0  0  0  0  0  0  0  0  0  0  0  0
    1.1284   -0.6012    0.0000 N   0  0  0  0  0  0  0  0  0  0  0  0
   -1.8128   -0.5827    0.0000 C   0  0  0  0  0  0  0  0  0  0  0  0
   -1.8313   -1.4150    0.0000 C   0  0  0  0  0  0  0  0  0  0  0  0
   -1.0358   -1.6740    0.0000 C   0  0  0  0  0  0  0  0  0  0  0  0
   -0.7769    0.4717    0.0000 C   0  0  3  0  0  0  0  0  0  0  0  0
   -2.5341   -1.8035    0.0000 C   0  0  0  0  0  0  0  0  0  0  0  0
    0.0370    0.6381    0.0000 C   0  0  3  0  0  0  0  0  0  0  0  0
   -2.5527   -0.1758    0.0000 C   0  0  0  0  0  0  0  0  0  0  0  0
   -1.3133    1.0636    0.0000 C   0  0  0  0  0  0  0  0  0  0  0  0
   -0.2775    2.0254    0.0000 C   0  0  3  0  0  0  0  0  0  0  0  0
    0.2775    1.4150    0.0000 C   0  0  0  0  0  0  0  0  0  0  0  0
    0.0370   -2.6359    0.0000 C   0  0  0  0  0  0  0  0  0  0  0  0
   -3.2370   -0.5827    0.0000 C   0  0  0  0  0  0  0  0  0  0  0  0
   -1.0543    1.8590    0.0000 C   0  0  0  0  0  0  0  0  0  0  0  0
    0.5920    0.0093    0.0000 C   0  0  0  0  0  0  0  0  0  0  0  0
    1.6463   -2.9688    0.0000 C   0  0  0  0  0  0  0  0  0  0  0  0
    0.2960   -3.4128    0.0000 C   0  0  0  0  0  0  0  0  0  0  0  0
    0.5920   -2.0254    0.0000 C   0  0  0  0  0  0  0  0  0  0  0  0
    2.4602   -3.2092    0.0000 C   0  0  0  0  0  0  0  0  0  0  0  0
    1.1098   -3.5792    0.0000 C   0  0  0  0  0  0  0  0  0  0  0  0
    1.3873   -2.1919    0.0000 C   0  0  0  0  0  0  0  0  0  0  0  0
    0.6658    3.2648    0.0000 C   0  0  0  0  0  0  0  0  0  0  0  0
   -0.4625    3.5238    0.0000 C   0  0  0  0  0  0  0  0  0  0  0  0
    0.2590    3.9677    0.0000 C   0  0  0  0  0  0  0  0  0  0  0  0
  1 28  1  0  0  0  0
  2 28  1  0  0  0  0
  3 28  1  0  0  0  0
  4 15  2  0  0  0  0
  5  6  1  0  0  0  0
  5 11  1  0  0  0  0
 14  5  1  1  0  0  0
  6 13  2  0  0  0  0
  7 13  1  0  0  0  0
  7 21  1  0  0  0  0
  8 15  1  0  0  0  0
  8 22  1  0  0  0  0
  9 19  1  0  0  0  0
  9 31  1  0  0  0  0
  9 32  1  0  0  0  0
 10 24  3  0  0  0  0
 11 12  2  0  0  0  0
 11 17  1  0  0  0  0
 12 13  1  0  0  0  0
 12 15  1  0  0  0  0
 14 16  1  0  0  0  0
 14 18  1  0  0  0  0
 16 20  1  0  0  0  0
 16 24  1  6  0  0  0
 17 22  2  0  0  0  0
 18 23  1  0  0  0  0
 19 20  1  6  0  0  0
 19 23  1  0  0  0  0
 21 26  2  0  0  0  0
 21 27  1  0  0  0  0
 25 28  1  0  0  0  0
 25 29  2  0  0  0  0
 25 30  1  0  0  0  0
 26 29  1  0  0  0  0
 27 30  2  0  0  0  0
 31 33  1  0  0  0  0
 32 33  1  0  0  0  0
M  END
> <PUBCHEM_COMPOUND_ID_TYPE>
0

> <PUBCHEM_TOTAL_CHARGE>
0

> <PUBCHEM_SUBSTANCE_ID>
310948412

> <PUBCHEM_SUBSTANCE_VERSION>
1

> <PUBCHEM_EXT_DATASOURCE_NAME>
4488

> <PUBCHEM_EXT_DATASOURCE_REGID>
SCHEMBL16126593

> <PUBCHEM_SUBSTANCE_COMMENT>
InChI=1S/C23H23F3N6O/c24-23(25,26)15-2-4-16(5-3-15)29-21-20-19(8-9-28-22(20)33)32(30-21)18-7-6-17(12-14(18)13-27)31-10-1-11-31/h2-5,8-9,14,17-18H,1,6-7,10-12H2,(H,28,33)(H,29,30)/t14-,17+,18+/m1/s1
InChIKey=VCQNYQGTTSUEIM-JLSDUUJJSA-N

> <PUBCHEM_SUBSTANCE_SYNONYM>
SCHEMBL16126593

> <PUBCHEM_XREF_EXT_ID>
SCHEMBL16126593

> <PUBCHEM_EXT_DATASOURCE_URL>
https://www.surechembl.org/

> <PUBCHEM_EXT_SUBSTANCE_URL>
https://www.surechembl.org/chemical/SCHEMBL16126593

> <PUBCHEM_CID_ASSOCIATIONS>
117613973  1

> <PUBCHEM_COORDINATE_TYPE>
1
3

> <PUBCHEM_BONDANNOTATIONS>
16  24  6
19  20  6
14  5  5

$$$$
