310935259
  -OEChem-07211613022D

 37 40  0     0  0  0  0  0  0999 V2000
    0.8089   -8.9883    0.0000 F   0  0  0  0  0  0  0  0  0  0  0  0
    6.9659   -4.0896    0.0000 F   0  0  0  0  0  0  0  0  0  0  0  0
    6.2918   -2.8763    0.0000 F   0  0  0  0  0  0  0  0  0  0  0  0
    6.9659   -3.2807    0.0000 F   0  0  0  0  0  0  0  0  0  0  0  0
    3.2807   -6.0671    0.0000 O   0  0  0  0  0  0  0  0  0  0  0  0
    4.8537   -3.6852    0.0000 O   0  0  0  0  0  0  0  0  0  0  0  0
    1.0786   -4.4941    0.0000 O   0  0  0  0  0  0  0  0  0  0  0  0
    3.4155   -0.4044    0.0000 O   0  0  0  0  0  0  0  0  0  0  0  0
    4.8537   -0.4044    0.0000 O   0  0  0  0  0  0  0  0  0  0  0  0
    5.5278   -1.6179    0.0000 O   0  0  0  0  0  0  0  0  0  0  0  0
    0.8089   -5.8424    0.0000 N   0  0  0  0  0  0  0  0  0  0  0  0
    2.7414   -4.8986    0.0000 C   0  0  0  0  0  0  0  0  0  0  0  0
    2.1572   -5.4379    0.0000 C   0  0  0  0  0  0  0  0  0  0  0  0
    3.4605   -5.3031    0.0000 C   0  0  0  0  0  0  0  0  0  0  0  0
    2.4717   -6.1569    0.0000 C   0  0  0  0  0  0  0  0  0  0  0  0
    3.4155   -3.6852    0.0000 C   0  0  0  0  0  0  0  0  0  0  0  0
    2.7414   -4.0447    0.0000 C   0  0  0  0  0  0  0  0  0  0  0  0
    4.1795   -4.0896    0.0000 C   0  0  0  0  0  0  0  0  0  0  0  0
    4.1795   -4.8986    0.0000 C   0  0  0  0  0  0  0  0  0  0  0  0
    2.0673   -6.8760    0.0000 C   0  0  0  0  0  0  0  0  0  0  0  0
    1.3482   -5.2581    0.0000 C   0  0  0  0  0  0  0  0  0  0  0  0
    3.4155   -2.8313    0.0000 C   0  0  0  0  0  0  0  0  0  0  0  0
    4.1346   -2.4268    0.0000 C   0  0  0  0  0  0  0  0  0  0  0  0
    4.1346   -1.6179    0.0000 C   0  0  0  0  0  0  0  0  0  0  0  0
    2.7414   -2.4268    0.0000 C   0  0  0  0  0  0  0  0  0  0  0  0
    2.4717   -7.5951    0.0000 C   0  0  0  0  0  0  0  0  0  0  0  0
    1.2584   -6.8760    0.0000 C   0  0  0  0  0  0  0  0  0  0  0  0
    3.4155   -1.2134    0.0000 C   0  0  0  0  0  0  0  0  0  0  0  0
    2.7414   -1.6179    0.0000 C   0  0  0  0  0  0  0  0  0  0  0  0
    5.5727   -4.0896    0.0000 C   0  0  0  0  0  0  0  0  0  0  0  0
    2.0673   -8.3141    0.0000 C   0  0  0  0  0  0  0  0  0  0  0  0
    0.8539   -7.5951    0.0000 C   0  0  0  0  0  0  0  0  0  0  0  0
    4.8537   -1.2134    0.0000 C   0  0  0  0  0  0  0  0  0  0  0  0
    1.2584   -8.2692    0.0000 C   0  0  0  0  0  0  0  0  0  0  0  0
    6.2918   -3.6852    0.0000 C   0  0  0  0  0  0  0  0  0  0  0  0
    0.0000   -5.6626    0.0000 C   0  0  0  0  0  0  0  0  0  0  0  0
    2.7414    0.0000    0.0000 C   0  0  0  0  0  0  0  0  0  0  0  0
  1 34  1  0  0  0  0
  2 35  1  0  0  0  0
  3 35  1  0  0  0  0
  4 35  1  0  0  0  0
  5 14  1  0  0  0  0
  5 15  1  0  0  0  0
  6 18  1  0  0  0  0
  6 30  1  0  0  0  0
  7 21  2  0  0  0  0
  8 28  1  0  0  0  0
  8 37  1  0  0  0  0
  9 33  2  0  0  0  0
 10 33  1  0  0  0  0
 11 21  1  0  0  0  0
 11 36  1  0  0  0  0
 12 13  1  0  0  0  0
 12 14  2  0  0  0  0
 12 17  1  0  0  0  0
 13 15  2  0  0  0  0
 13 21  1  0  0  0  0
 14 19  1  0  0  0  0
 15 20  1  0  0  0  0
 16 17  2  0  0  0  0
 16 18  1  0  0  0  0
 16 22  1  0  0  0  0
 18 19  2  0  0  0  0
 20 26  2  0  0  0  0
 20 27  1  0  0  0  0
 22 23  2  0  0  0  0
 22 25  1  0  0  0  0
 23 24  1  0  0  0  0
 24 28  2  0  0  0  0
 24 33  1  0  0  0  0
 25 29  2  0  0  0  0
 26 31  1  0  0  0  0
 27 32  2  0  0  0  0
 28 29  1  0  0  0  0
 30 35  1  0  0  0  0
 31 34  2  0  0  0  0
 32 34  1  0  0  0  0
M  END
> <PUBCHEM_COMPOUND_ID_TYPE>
0

> <PUBCHEM_TOTAL_CHARGE>
0

> <PUBCHEM_SUBSTANCE_ID>
310935259

> <PUBCHEM_SUBSTANCE_VERSION>
1

> <PUBCHEM_EXT_DATASOURCE_NAME>
4488

> <PUBCHEM_EXT_DATASOURCE_REGID>
SCHEMBL16112789

> <PUBCHEM_SUBSTANCE_COMMENT>
InChI=1S/C26H19F4NO6/c1-31-24(32)22-17-10-16(14-5-8-19(35-2)18(9-14)25(33)34)20(36-12-26(28,29)30)11-21(17)37-23(22)13-3-6-15(27)7-4-13/h3-11H,12H2,1-2H3,(H,31,32)(H,33,34)
InChIKey=RSRGEZUMWGBDAW-UHFFFAOYSA-N

> <PUBCHEM_SUBSTANCE_SYNONYM>
SCHEMBL16112789

> <PUBCHEM_XREF_EXT_ID>
SCHEMBL16112789

> <PUBCHEM_EXT_DATASOURCE_URL>
https://www.surechembl.org/

> <PUBCHEM_EXT_SUBSTANCE_URL>
https://www.surechembl.org/chemical/SCHEMBL16112789

> <PUBCHEM_CID_ASSOCIATIONS>
117603332  1

> <PUBCHEM_COORDINATE_TYPE>
1
3

$$$$
