310934398
  -OEChem-07211613022D

 18 18  0     0  0  0  0  0  0999 V2000
    0.0000    0.0000    0.0000 Cl  0  0  0  0  0  0  0  0  0  0  0  0
    2.8520   -0.0429    0.0000 F   0  0  0  0  0  0  0  0  0  0  0  0
    2.8091   -2.5304    0.0000 O   0  0  0  0  0  0  0  0  0  0  0  0
    5.7255   -1.7155    0.0000 O   0  0  0  0  0  0  0  0  0  0  0  0
    4.3102   -2.5304    0.0000 O   0  0  0  0  0  0  0  0  0  0  0  0
    4.9964   -0.4718    0.0000 O   0  0  0  0  0  0  0  0  0  0  0  0
    2.1229   -1.2866    0.0000 C   0  0  0  0  0  0  0  0  0  0  0  0
    2.8306   -1.7155    0.0000 C   0  0  0  0  0  0  0  0  0  0  0  0
    2.1229   -0.4503    0.0000 C   0  0  0  0  0  0  0  0  0  0  0  0
    1.3938   -1.6726    0.0000 C   0  0  0  0  0  0  0  0  0  0  0  0
    3.5382   -1.3081    0.0000 C   0  0  0  0  0  0  0  0  0  0  0  0
    4.2888   -1.7155    0.0000 C   0  0  0  0  0  0  0  0  0  0  0  0
    1.4367   -0.0429    0.0000 C   0  0  0  0  0  0  0  0  0  0  0  0
    0.7076   -0.4289    0.0000 C   0  0  0  0  0  0  0  0  0  0  0  0
    0.6862   -1.2652    0.0000 C   0  0  0  0  0  0  0  0  0  0  0  0
    4.9964   -1.3081    0.0000 C   0  0  0  0  0  0  0  0  0  0  0  0
    6.4331   -1.3081    0.0000 C   0  0  0  0  0  0  0  0  0  0  0  0
    6.4331   -0.4718    0.0000 C   0  0  0  0  0  0  0  0  0  0  0  0
  1 14  1  0  0  0  0
  2  9  1  0  0  0  0
  3  8  2  0  0  0  0
  4 16  1  0  0  0  0
  4 17  1  0  0  0  0
  5 12  2  0  0  0  0
  6 16  2  0  0  0  0
  7  8  1  0  0  0  0
  7  9  1  0  0  0  0
  7 10  2  0  0  0  0
  8 11  1  0  0  0  0
  9 13  2  0  0  0  0
 10 15  1  0  0  0  0
 11 12  1  0  0  0  0
 12 16  1  0  0  0  0
 13 14  1  0  0  0  0
 14 15  2  0  0  0  0
 17 18  1  0  0  0  0
M  END
> <PUBCHEM_COMPOUND_ID_TYPE>
0

> <PUBCHEM_TOTAL_CHARGE>
0

> <PUBCHEM_SUBSTANCE_ID>
310934398

> <PUBCHEM_SUBSTANCE_VERSION>
1

> <PUBCHEM_EXT_DATASOURCE_NAME>
4488

> <PUBCHEM_EXT_DATASOURCE_REGID>
SCHEMBL16111871

> <PUBCHEM_SUBSTANCE_COMMENT>
InChI=1S/C12H10ClFO4/c1-2-18-12(17)11(16)6-10(15)8-4-3-7(13)5-9(8)14/h3-5H,2,6H2,1H3
InChIKey=JGRIYNGMKOXSKB-UHFFFAOYSA-N

> <PUBCHEM_SUBSTANCE_SYNONYM>
SCHEMBL16111871

> <PUBCHEM_XREF_EXT_ID>
SCHEMBL16111871

> <PUBCHEM_EXT_DATASOURCE_URL>
https://www.surechembl.org/

> <PUBCHEM_EXT_SUBSTANCE_URL>
https://www.surechembl.org/chemical/SCHEMBL16111871

> <PUBCHEM_CID_ASSOCIATIONS>
117602621  1

> <PUBCHEM_COORDINATE_TYPE>
1
3

$$$$
