310939488
  -OEChem-07211613022D

 25 28  0     0  0  0  0  0  0999 V2000
    3.0855   -0.0527    0.0000 O   0  0  0  0  0  0  0  0  0  0  0  0
   -3.6986    0.8416    0.0000 O   0  0  0  0  0  0  0  0  0  0  0  0
    1.3027    1.2541    0.0000 N   0  0  0  0  0  0  0  0  0  0  0  0
    0.5882    0.8416    0.0000 N   0  0  0  0  0  0  0  0  0  0  0  0
    2.0873    2.3340    0.0000 N   0  0  0  0  0  0  0  0  0  0  0  0
   -0.8407    0.8416    0.0000 N   0  0  0  0  0  0  0  0  0  0  0  0
    2.0873    0.9992    0.0000 C   0  0  0  0  0  0  0  0  0  0  0  0
    2.3009    0.2023    0.0000 C   0  0  0  0  0  0  0  0  0  0  0  0
    1.3027    2.0791    0.0000 C   0  0  0  0  0  0  0  0  0  0  0  0
    3.0855   -0.8777    0.0000 C   0  0  0  0  0  0  0  0  0  0  0  0
    2.3009   -1.1326    0.0000 C   0  0  0  0  0  0  0  0  0  0  0  0
    2.5723    1.6666    0.0000 C   0  0  0  0  0  0  0  0  0  0  0  0
    1.8159   -0.4652    0.0000 C   0  0  0  0  0  0  0  0  0  0  0  0
   -0.1262    1.2541    0.0000 C   0  0  0  0  0  0  0  0  0  0  0  0
    0.5882    2.4916    0.0000 C   0  0  0  0  0  0  0  0  0  0  0  0
   -0.1262    2.0791    0.0000 C   0  0  0  0  0  0  0  0  0  0  0  0
    3.6986   -1.4297    0.0000 C   0  0  0  0  0  0  0  0  0  0  0  0
    2.1293   -1.9396    0.0000 C   0  0  0  0  0  0  0  0  0  0  0  0
    3.5271   -2.2367    0.0000 C   0  0  0  0  0  0  0  0  0  0  0  0
    2.7424   -2.4916    0.0000 C   0  0  0  0  0  0  0  0  0  0  0  0
   -1.5552    1.2541    0.0000 C   0  0  0  0  0  0  0  0  0  0  0  0
   -2.2696    0.8416    0.0000 C   0  0  0  0  0  0  0  0  0  0  0  0
   -2.9841    1.2541    0.0000 C   0  0  0  0  0  0  0  0  0  0  0  0
   -2.6821    0.1271    0.0000 C   0  0  0  0  0  0  0  0  0  0  0  0
   -1.8571    0.1271    0.0000 C   0  0  0  0  0  0  0  0  0  0  0  0
  1  8  1  0  0  0  0
  1 10  1  0  0  0  0
  2 23  1  0  0  0  0
  3  4  1  0  0  0  0
  3  7  1  0  0  0  0
  3  9  1  0  0  0  0
  4 14  2  0  0  0  0
  5  9  2  0  0  0  0
  5 12  1  0  0  0  0
  6 14  1  0  0  0  0
  6 21  1  0  0  0  0
  7  8  1  0  0  0  0
  7 12  2  0  0  0  0
  8 13  2  0  0  0  0
  9 15  1  0  0  0  0
 10 11  2  0  0  0  0
 10 17  1  0  0  0  0
 11 13  1  0  0  0  0
 11 18  1  0  0  0  0
 14 16  1  0  0  0  0
 15 16  2  0  0  0  0
 17 19  2  0  0  0  0
 18 20  2  0  0  0  0
 19 20  1  0  0  0  0
 21 22  1  0  0  0  0
 22 23  1  0  0  0  0
 22 24  1  0  0  0  0
 22 25  1  0  0  0  0
M  END
> <PUBCHEM_COMPOUND_ID_TYPE>
0

> <PUBCHEM_TOTAL_CHARGE>
0

> <PUBCHEM_SUBSTANCE_ID>
310939488

> <PUBCHEM_SUBSTANCE_VERSION>
1

> <PUBCHEM_EXT_DATASOURCE_NAME>
4488

> <PUBCHEM_EXT_DATASOURCE_REGID>
SCHEMBL16117417

> <PUBCHEM_SUBSTANCE_COMMENT>
InChI=1S/C19H20N4O2/c1-19(2,12-24)11-21-17-7-8-18-20-10-14(23(18)22-17)16-9-13-5-3-4-6-15(13)25-16/h3-10,24H,11-12H2,1-2H3,(H,21,22)
InChIKey=KWMJEVFRHBAIFX-UHFFFAOYSA-N

> <PUBCHEM_SUBSTANCE_SYNONYM>
SCHEMBL16117417

> <PUBCHEM_XREF_EXT_ID>
SCHEMBL16117417

> <PUBCHEM_EXT_DATASOURCE_URL>
https://www.surechembl.org/

> <PUBCHEM_EXT_SUBSTANCE_URL>
https://www.surechembl.org/chemical/SCHEMBL16117417

> <PUBCHEM_CID_ASSOCIATIONS>
117606795  1

> <PUBCHEM_COORDINATE_TYPE>
1
3

$$$$
