310942905
  -OEChem-07211613022D

 17 18  0     0  0  0  0  0  0999 V2000
   -2.0824    0.9965    0.0000 F   0  0  0  0  0  0  0  0  0  0  0  0
    0.7734   -0.6693    0.0000 N   0  0  0  0  0  0  0  0  0  0  0  0
    0.8627   -1.4725    0.0000 N   0  0  0  0  0  0  0  0  0  0  0  0
   -2.0526   -0.6693    0.0000 N   0  0  0  0  0  0  0  0  0  0  0  0
    2.0824   -0.9371    0.0000 N   0  0  0  0  0  0  0  0  0  0  0  0
    1.6659   -1.6510    0.0000 N   0  0  0  0  0  0  0  0  0  0  0  0
    0.0893    0.6098    0.0000 C   0  0  0  0  0  0  0  0  0  0  0  0
    0.0595   -0.2231    0.0000 C   0  0  0  0  0  0  0  0  0  0  0  0
    0.8032    1.0263    0.0000 C   0  0  0  0  0  0  0  0  0  0  0  0
   -0.6247   -0.6396    0.0000 C   0  0  0  0  0  0  0  0  0  0  0  0
   -0.6545    0.9668    0.0000 C   0  0  0  0  0  0  0  0  0  0  0  0
   -1.3684   -0.2529    0.0000 C   0  0  0  0  0  0  0  0  0  0  0  0
   -1.3386    0.6098    0.0000 C   0  0  0  0  0  0  0  0  0  0  0  0
    1.1899    1.6510    0.0000 C   0  0  0  0  0  0  0  0  0  0  0  0
    1.5766    1.0263    0.0000 C   0  0  0  0  0  0  0  0  0  0  0  0
    1.4874   -0.3123    0.0000 C   0  0  0  0  0  0  0  0  0  0  0  0
    1.6956    0.5206    0.0000 C   0  0  0  0  0  0  0  0  0  0  0  0
  1 13  1  0  0  0  0
  2  3  1  0  0  0  0
  2  8  1  0  0  0  0
  2 16  1  0  0  0  0
  3  6  2  3  0  0  0
  4 12  1  0  0  0  0
  5 16  2  3  0  0  0
  7  8  2  0  0  0  0
  7  9  1  0  0  0  0
  7 11  1  0  0  0  0
  8 10  1  0  0  0  0
  9 14  1  0  0  0  0
  9 15  1  0  0  0  0
 10 12  2  0  0  0  0
 11 13  2  0  0  0  0
 12 13  1  0  0  0  0
 14 15  1  0  0  0  0
 16 17  1  0  0  0  0
M  END
> <PUBCHEM_COMPOUND_ID_TYPE>
0

> <PUBCHEM_TOTAL_CHARGE>
0

> <PUBCHEM_SUBSTANCE_ID>
310942905

> <PUBCHEM_SUBSTANCE_VERSION>
1

> <PUBCHEM_EXT_DATASOURCE_NAME>
4488

> <PUBCHEM_EXT_DATASOURCE_REGID>
SCHEMBL16120963

> <PUBCHEM_SUBSTANCE_COMMENT>
InChI=1S/C11H14FN5/c1-6(13)17(16-15)11-5-10(14)9(12)4-8(11)7-2-3-7/h4-5,7,13,15H,2-3,14H2,1H3
InChIKey=WYDNZYQVBQMPTK-UHFFFAOYSA-N

> <PUBCHEM_SUBSTANCE_SYNONYM>
SCHEMBL16120963

> <PUBCHEM_XREF_EXT_ID>
SCHEMBL16120963

> <PUBCHEM_EXT_DATASOURCE_URL>
https://www.surechembl.org/

> <PUBCHEM_EXT_SUBSTANCE_URL>
https://www.surechembl.org/chemical/SCHEMBL16120963

> <PUBCHEM_CID_ASSOCIATIONS>
117609381  1

> <PUBCHEM_COORDINATE_TYPE>
1
3

$$$$
