310942807
  -OEChem-07211613022D

 42 46  0     1  0  0  0  0  0999 V2000
    0.6845   -2.1565    0.0000 S   0  0  0  0  0  0  0  0  0  0  0  0
   -2.8773    1.2842    0.0000 F   0  0  0  0  0  0  0  0  0  0  0  0
   -2.8773   -2.0474    0.0000 F   0  0  0  0  0  0  0  0  0  0  0  0
    3.6042    0.1454    0.0000 F   0  0  0  0  0  0  0  0  0  0  0  0
   -0.1272   -0.7148    0.0000 O   0  0  0  0  0  0  0  0  0  0  0  0
    1.9445    2.8955    0.0000 O   0  0  0  0  0  0  0  0  0  0  0  0
   -0.5391    1.4538    0.0000 N   0  0  0  0  0  0  0  0  0  0  0  0
    1.1085    0.0000    0.0000 N   0  0  0  0  0  0  0  0  0  0  0  0
   -0.6845    0.1090    0.0000 N   0  0  0  0  0  0  0  0  0  0  0  0
    2.9622   -1.9142    0.0000 N   0  0  0  0  0  0  0  0  0  0  0  0
    1.1085   -4.3251    0.0000 N   0  0  0  0  0  0  0  0  0  0  0  0
   -0.1393    0.7269    0.0000 C   0  0  0  0  0  0  0  0  0  0  0  0
    0.6845    0.7148    0.0000 C   0  0  3  0  0  0  0  0  0  0  0  0
   -1.4599    0.4362    0.0000 C   0  0  0  0  0  0  0  0  0  0  0  0
    1.1085    1.4538    0.0000 C   0  0  0  0  0  0  0  0  0  0  0  0
   -1.3629    1.2600    0.0000 C   0  0  0  0  0  0  0  0  0  0  0  0
   -2.1625    0.0242    0.0000 C   0  0  0  0  0  0  0  0  0  0  0  0
    0.6966   -0.7390    0.0000 C   0  0  0  0  0  0  0  0  0  0  0  0
   -0.1272    2.1686    0.0000 C   0  0  0  0  0  0  0  0  0  0  0  0
    1.9324    0.0000    0.0000 C   0  0  0  0  0  0  0  0  0  0  0  0
   -2.8894    0.4362    0.0000 C   0  0  0  0  0  0  0  0  0  0  0  0
    2.3564   -0.7027    0.0000 C   0  0  3  0  0  0  0  0  0  0  0  0
   -2.1747   -0.7875    0.0000 C   0  0  0  0  0  0  0  0  0  0  0  0
    0.6966    2.1444    0.0000 C   0  0  0  0  0  0  0  0  0  0  0  0
    1.9324    1.4417    0.0000 C   0  0  0  0  0  0  0  0  0  0  0  0
   -0.5513    2.8955    0.0000 C   0  0  0  0  0  0  0  0  0  0  0  0
   -2.8773   -1.2115    0.0000 C   0  0  0  0  0  0  0  0  0  0  0  0
    3.1681   -0.5936    0.0000 C   0  0  3  0  0  0  0  0  0  0  0  0
   -3.6042    0.0242    0.0000 C   0  0  0  0  0  0  0  0  0  0  0  0
    1.1085   -1.4296    0.0000 C   0  0  0  0  0  0  0  0  0  0  0  0
   -3.6042   -0.8117    0.0000 C   0  0  0  0  0  0  0  0  0  0  0  0
    2.2231   -1.5386    0.0000 C   0  0  0  0  0  0  0  0  0  0  0  0
    1.1206    2.8955    0.0000 C   0  0  0  0  0  0  0  0  0  0  0  0
    2.3564    2.1686    0.0000 C   0  0  0  0  0  0  0  0  0  0  0  0
   -0.1393    3.6103    0.0000 C   0  0  0  0  0  0  0  0  0  0  0  0
   -1.3872    2.9076    0.0000 C   0  0  0  0  0  0  0  0  0  0  0  0
    3.5558   -1.3205    0.0000 C   0  0  0  0  0  0  0  0  0  0  0  0
   -0.5513    4.3251    0.0000 C   0  0  0  0  0  0  0  0  0  0  0  0
   -1.7991    3.6103    0.0000 C   0  0  0  0  0  0  0  0  0  0  0  0
   -1.3872    4.3251    0.0000 C   0  0  0  0  0  0  0  0  0  0  0  0
    1.1085   -2.8713    0.0000 C   0  0  0  0  0  0  0  0  0  0  0  0
    0.6966   -3.6224    0.0000 C   0  0  0  0  0  0  0  0  0  0  0  0
  1 30  1  0  0  0  0
  1 41  1  0  0  0  0
  2 21  1  0  0  0  0
  3 27  1  0  0  0  0
 28  4  1  1  0  0  0
  5 18  2  0  0  0  0
  6 33  1  0  0  0  0
  6 34  1  0  0  0  0
  7 12  1  0  0  0  0
  7 16  1  0  0  0  0
  7 19  1  0  0  0  0
 13  8  1  1  0  0  0
  8 18  1  0  0  0  0
  8 20  1  0  0  0  0
  9 12  2  0  0  0  0
  9 14  1  0  0  0  0
 10 32  1  0  0  0  0
 10 37  1  0  0  0  0
 11 42  1  0  0  0  0
 12 13  1  0  0  0  0
 13 15  1  0  0  0  0
 14 16  2  0  0  0  0
 14 17  1  0  0  0  0
 15 24  1  0  0  0  0
 15 25  1  0  0  0  0
 17 21  1  0  0  0  0
 17 23  2  0  0  0  0
 18 30  1  0  0  0  0
 19 26  1  0  0  0  0
 22 20  1  1  0  0  0
 21 29  2  0  0  0  0
 22 28  1  0  0  0  0
 22 32  1  0  0  0  0
 23 27  1  0  0  0  0
 24 33  1  0  0  0  0
 25 34  1  0  0  0  0
 26 35  2  0  0  0  0
 26 36  1  0  0  0  0
 27 31  2  0  0  0  0
 28 37  1  0  0  0  0
 29 31  1  0  0  0  0
 35 38  1  0  0  0  0
 36 39  2  0  0  0  0
 38 40  2  0  0  0  0
 39 40  1  0  0  0  0
 41 42  1  0  0  0  0
M  END
> <PUBCHEM_COMPOUND_ID_TYPE>
0

> <PUBCHEM_TOTAL_CHARGE>
0

> <PUBCHEM_SUBSTANCE_ID>
310942807

> <PUBCHEM_SUBSTANCE_VERSION>
1

> <PUBCHEM_EXT_DATASOURCE_NAME>
4488

> <PUBCHEM_EXT_DATASOURCE_REGID>
SCHEMBL16120861

> <PUBCHEM_SUBSTANCE_COMMENT>
InChI=1S/C31H38F3N5O2S/c32-24-6-7-26(33)25(14-24)28-19-38(17-21-4-2-1-3-5-21)31(37-28)30(22-8-11-41-12-9-22)39(29(40)20-42-13-10-35)18-23-15-36-16-27(23)34/h1-7,14,19,22-23,27,30,36H,8-13,15-18,20,35H2/t23-,27-,30+/m0/s1
InChIKey=VWOBVXUJEQUDMS-DCABOPQKSA-N

> <PUBCHEM_SUBSTANCE_SYNONYM>
SCHEMBL16120861

> <PUBCHEM_XREF_EXT_ID>
SCHEMBL16120861

> <PUBCHEM_EXT_DATASOURCE_URL>
https://www.surechembl.org/

> <PUBCHEM_EXT_SUBSTANCE_URL>
https://www.surechembl.org/chemical/SCHEMBL16120861

> <PUBCHEM_CID_ASSOCIATIONS>
117609310  1

> <PUBCHEM_COORDINATE_TYPE>
1
3

> <PUBCHEM_BONDANNOTATIONS>
22  20  5
28  4  5
13  8  5

$$$$
