310945499
  -OEChem-07211613022D

 31 35  0     0  0  0  0  0  0999 V2000
   -2.3173    1.8750    0.0000 O   0  0  0  0  0  0  0  0  0  0  0  0
    0.5606   -2.2737    0.0000 O   0  0  0  0  0  0  0  0  0  0  0  0
    4.8214   -0.6167    0.0000 O   0  0  0  0  0  0  0  0  0  0  0  0
   -3.7999    0.8908    0.0000 N   0  0  0  0  0  0  0  0  0  0  0  0
   -0.1371   -1.0279    0.0000 N   0  0  0  0  0  0  0  0  0  0  0  0
   -4.2982    0.2180    0.0000 N   0  0  0  0  0  0  0  0  0  0  0  0
    3.5257   -1.2770    0.0000 N   0  0  0  0  0  0  0  0  0  0  0  0
    3.5257    0.0685    0.0000 N   0  0  0  0  0  0  0  0  0  0  0  0
   -1.5822   -0.1806    0.0000 C   0  0  0  0  0  0  0  0  0  0  0  0
   -3.0274    0.6292    0.0000 C   0  0  0  0  0  0  0  0  0  0  0  0
   -3.0274   -0.1806    0.0000 C   0  0  0  0  0  0  0  0  0  0  0  0
   -2.3173    1.0402    0.0000 C   0  0  0  0  0  0  0  0  0  0  0  0
   -2.2924   -0.6042    0.0000 C   0  0  0  0  0  0  0  0  0  0  0  0
   -1.5822    0.6292    0.0000 C   0  0  0  0  0  0  0  0  0  0  0  0
   -0.8721    0.2180    0.0000 C   0  0  0  0  0  0  0  0  0  0  0  0
   -1.5822   -1.0279    0.0000 C   0  0  0  0  0  0  0  0  0  0  0  0
    2.7160   -1.0154    0.0000 C   0  0  0  0  0  0  0  0  0  0  0  0
   -3.7999   -0.4547    0.0000 C   0  0  0  0  0  0  0  0  0  0  0  0
    2.7284   -0.1931    0.0000 C   0  0  0  0  0  0  0  0  0  0  0  0
    1.2832   -1.0154    0.0000 C   0  0  0  0  0  0  0  0  0  0  0  0
    0.5731   -1.4141    0.0000 C   0  0  0  0  0  0  0  0  0  0  0  0
   -0.1495   -0.1931    0.0000 C   0  0  0  0  0  0  0  0  0  0  0  0
   -0.8596   -1.4389    0.0000 C   0  0  0  0  0  0  0  0  0  0  0  0
    2.0183   -1.4389    0.0000 C   0  0  0  0  0  0  0  0  0  0  0  0
   -4.0241    1.6881    0.0000 C   0  0  0  0  0  0  0  0  0  0  0  0
    3.9867   -0.5918    0.0000 C   0  0  0  0  0  0  0  0  0  0  0  0
    2.0183    0.2180    0.0000 C   0  0  0  0  0  0  0  0  0  0  0  0
    1.3082   -0.1931    0.0000 C   0  0  0  0  0  0  0  0  0  0  0  0
    3.9493   -1.9996    0.0000 C   0  0  0  0  0  0  0  0  0  0  0  0
   -3.4385    2.2737    0.0000 C   0  0  0  0  0  0  0  0  0  0  0  0
   -4.8214    1.8999    0.0000 C   0  0  0  0  0  0  0  0  0  0  0  0
  1 12  2  0  0  0  0
  2 21  2  0  0  0  0
  3 26  2  0  0  0  0
  4  6  1  0  0  0  0
  4 10  1  0  0  0  0
  4 25  1  0  0  0  0
  5 21  1  0  0  0  0
  5 22  1  0  0  0  0
  5 23  1  0  0  0  0
  6 18  2  0  0  0  0
  7 17  1  0  0  0  0
  7 26  1  0  0  0  0
  7 29  1  0  0  0  0
  8 19  1  0  0  0  0
  8 26  1  0  0  0  0
  9 13  1  0  0  0  0
  9 14  1  0  0  0  0
  9 15  1  0  0  0  0
  9 16  1  0  0  0  0
 10 11  2  0  0  0  0
 10 12  1  0  0  0  0
 11 13  1  0  0  0  0
 11 18  1  0  0  0  0
 12 14  1  0  0  0  0
 15 22  1  0  0  0  0
 16 23  1  0  0  0  0
 17 19  2  0  0  0  0
 17 24  1  0  0  0  0
 19 27  1  0  0  0  0
 20 21  1  0  0  0  0
 20 24  2  0  0  0  0
 20 28  1  0  0  0  0
 25 30  1  0  0  0  0
 25 31  1  0  0  0  0
 27 28  2  0  0  0  0
M  END
> <PUBCHEM_COMPOUND_ID_TYPE>
0

> <PUBCHEM_TOTAL_CHARGE>
0

> <PUBCHEM_SUBSTANCE_ID>
310945499

> <PUBCHEM_SUBSTANCE_VERSION>
1

> <PUBCHEM_EXT_DATASOURCE_NAME>
4488

> <PUBCHEM_EXT_DATASOURCE_REGID>
SCHEMBL16123597

> <PUBCHEM_SUBSTANCE_COMMENT>
InChI=1S/C23H27N5O3/c1-14(2)28-20-16(13-24-28)11-23(12-19(20)29)6-8-27(9-7-23)21(30)15-4-5-17-18(10-15)26(3)22(31)25-17/h4-5,10,13-14H,6-9,11-12H2,1-3H3,(H,25,31)
InChIKey=HGSPMLSMGBLCRR-UHFFFAOYSA-N

> <PUBCHEM_SUBSTANCE_SYNONYM>
SCHEMBL16123597

> <PUBCHEM_XREF_EXT_ID>
SCHEMBL16123597

> <PUBCHEM_EXT_DATASOURCE_URL>
https://www.surechembl.org/

> <PUBCHEM_EXT_SUBSTANCE_URL>
https://www.surechembl.org/chemical/SCHEMBL16123597

> <PUBCHEM_CID_ASSOCIATIONS>
86273287  1

> <PUBCHEM_COORDINATE_TYPE>
1
3

$$$$
