310934188
  -OEChem-07211613022D

 18 19  0     0  0  0  0  0  0999 V2000
    0.6619   -1.1486    0.0000 O   0  0  0  0  0  0  0  0  0  0  0  0
    1.4990    0.0000    0.0000 O   0  0  0  0  0  0  0  0  0  0  0  0
    4.5748   -0.9928    0.0000 O   0  5  0  0  0  0  0  0  0  0  0  0
    4.5748   -2.4139    0.0000 O   0  0  0  0  0  0  0  0  0  0  0  0
    2.0830   -2.1024    0.0000 N   0  0  0  0  0  0  0  0  0  0  0  0
    2.8617   -2.3750    0.0000 N   0  0  0  0  0  0  0  0  0  0  0  0
    4.1660   -1.6937    0.0000 N   0  3  0  0  0  0  0  0  0  0  0  0
    2.0830   -1.3043    0.0000 C   0  0  0  0  0  0  0  0  0  0  0  0
    3.3483   -1.6937    0.0000 C   0  0  0  0  0  0  0  0  0  0  0  0
    2.8617   -1.0318    0.0000 C   0  0  0  0  0  0  0  0  0  0  0  0
    1.4211   -2.5892    0.0000 C   0  0  0  0  0  0  0  0  0  0  0  0
    1.4211   -0.8176    0.0000 C   0  0  0  0  0  0  0  0  0  0  0  0
    1.4990   -3.4262    0.0000 C   0  0  0  0  0  0  0  0  0  0  0  0
    0.6619   -2.2582    0.0000 C   0  0  0  0  0  0  0  0  0  0  0  0
    0.8371   -3.8934    0.0000 C   0  0  0  0  0  0  0  0  0  0  0  0
    0.0000   -2.7254    0.0000 C   0  0  0  0  0  0  0  0  0  0  0  0
    0.0778   -3.5625    0.0000 C   0  0  0  0  0  0  0  0  0  0  0  0
    0.0000   -0.6619    0.0000 C   0  0  0  0  0  0  0  0  0  0  0  0
  1 12  1  0  0  0  0
  1 18  1  0  0  0  0
  2 12  2  0  0  0  0
  3  7  1  0  0  0  0
  4  7  2  0  0  0  0
  5  6  1  0  0  0  0
  5  8  1  0  0  0  0
  5 11  1  0  0  0  0
  6  9  2  0  0  0  0
  7  9  1  0  0  0  0
  8 10  2  0  0  0  0
  8 12  1  0  0  0  0
  9 10  1  0  0  0  0
 11 13  2  0  0  0  0
 11 14  1  0  0  0  0
 13 15  1  0  0  0  0
 14 16  2  0  0  0  0
 15 17  2  0  0  0  0
 16 17  1  0  0  0  0
M  CHG  2   3  -1   7   1
M  END
> <PUBCHEM_COMPOUND_ID_TYPE>
0

> <PUBCHEM_TOTAL_CHARGE>
0

> <PUBCHEM_SUBSTANCE_ID>
310934188

> <PUBCHEM_SUBSTANCE_VERSION>
1

> <PUBCHEM_EXT_DATASOURCE_NAME>
4488

> <PUBCHEM_EXT_DATASOURCE_REGID>
SCHEMBL16111643

> <PUBCHEM_SUBSTANCE_COMMENT>
InChI=1S/C11H9N3O4/c1-18-11(15)9-7-10(14(16)17)12-13(9)8-5-3-2-4-6-8/h2-7H,1H3
InChIKey=KCSIDDOKOXBUQT-UHFFFAOYSA-N

> <PUBCHEM_SUBSTANCE_SYNONYM>
SCHEMBL16111643

> <PUBCHEM_XREF_EXT_ID>
SCHEMBL16111643

> <PUBCHEM_EXT_DATASOURCE_URL>
https://www.surechembl.org/

> <PUBCHEM_EXT_SUBSTANCE_URL>
https://www.surechembl.org/chemical/SCHEMBL16111643

> <PUBCHEM_CID_ASSOCIATIONS>
117602460  1

> <PUBCHEM_COORDINATE_TYPE>
1
3

$$$$
