310945897
  -OEChem-07211613022D

 37 40  0     1  0  0  0  0  0999 V2000
    3.6368    1.3887    0.0000 O   0  0  0  0  0  0  0  0  0  0  0  0
    1.3819    1.3887    0.0000 O   0  0  0  0  0  0  0  0  0  0  0  0
   -0.0481    1.3887    0.0000 O   0  0  0  0  0  0  0  0  0  0  0  0
    0.6668    0.9762    0.0000 O   0  0  0  0  0  0  0  0  0  0  0  0
   -3.2244    2.6262    0.0000 O   0  0  0  0  0  0  0  0  0  0  0  0
   -2.9081   -2.7225    0.0000 O   0  0  0  0  0  0  0  0  0  0  0  0
    1.3819   -0.2475    0.0000 N   0  0  0  0  0  0  0  0  0  0  0  0
   -2.3031    1.4850    0.0000 N   0  0  0  0  0  0  0  0  0  0  0  0
   -0.7631    0.1650    0.0000 N   0  0  0  0  0  0  0  0  0  0  0  0
    2.8256    1.4162    0.0000 C   0  0  3  0  0  0  0  0  0  0  0  0
    2.0831    0.9487    0.0000 C   0  0  0  0  0  0  0  0  0  0  0  0
    3.2244    0.7287    0.0000 C   0  0  0  0  0  0  0  0  0  0  0  0
    2.0969    0.1787    0.0000 C   0  0  3  0  0  0  0  0  0  0  0  0
   -1.4781    1.4300    0.0000 C   0  0  3  0  0  0  0  0  0  0  0  0
   -0.7494    0.9900    0.0000 C   0  0  0  0  0  0  0  0  0  0  0  0
    2.8118    2.2412    0.0000 C   0  0  0  0  0  0  0  0  0  0  0  0
   -0.0481   -0.2200    0.0000 C   0  0  3  0  0  0  0  0  0  0  0  0
    0.6531    0.1650    0.0000 C   0  0  0  0  0  0  0  0  0  0  0  0
    2.8256   -0.2200    0.0000 C   0  0  0  0  0  0  0  0  0  0  0  0
   -1.1481    2.1724    0.0000 C   0  0  0  0  0  0  0  0  0  0  0  0
   -2.4406    2.2962    0.0000 C   0  0  0  0  0  0  0  0  0  0  0  0
   -1.7669    2.7225    0.0000 C   0  0  0  0  0  0  0  0  0  0  0  0
    2.8118   -1.0450    0.0000 C   0  0  0  0  0  0  0  0  0  0  0  0
   -0.0207   -1.0450    0.0000 C   0  0  0  0  0  0  0  0  0  0  0  0
   -1.4781    0.6187    0.0000 C   0  0  0  0  0  0  0  0  0  0  0  0
   -0.7631   -1.4575    0.0000 C   0  0  0  0  0  0  0  0  0  0  0  0
    3.5268   -1.4713    0.0000 C   0  0  0  0  0  0  0  0  0  0  0  0
    2.1106   -1.4713    0.0000 C   0  0  0  0  0  0  0  0  0  0  0  0
   -1.4781   -1.0725    0.0000 C   0  0  0  0  0  0  0  0  0  0  0  0
   -0.7631   -2.2825    0.0000 C   0  0  0  0  0  0  0  0  0  0  0  0
   -2.2069   -2.2825    0.0000 C   0  0  0  0  0  0  0  0  0  0  0  0
   -2.1793   -1.4575    0.0000 C   0  0  0  0  0  0  0  0  0  0  0  0
   -1.4644   -2.6950    0.0000 C   0  0  0  0  0  0  0  0  0  0  0  0
    3.5268   -2.2825    0.0000 C   0  0  0  0  0  0  0  0  0  0  0  0
    2.1106   -2.2825    0.0000 C   0  0  0  0  0  0  0  0  0  0  0  0
    2.8256   -2.6950    0.0000 C   0  0  0  0  0  0  0  0  0  0  0  0
   -3.6368   -2.2962    0.0000 C   0  0  0  0  0  0  0  0  0  0  0  0
  1 10  1  0  0  0  0
  1 12  1  0  0  0  0
  2 11  2  0  0  0  0
  3 15  2  0  0  0  0
  4 18  2  0  0  0  0
  5 21  2  0  0  0  0
  6 31  1  0  0  0  0
  6 37  1  0  0  0  0
 13  7  1  6  0  0  0
  7 18  1  0  0  0  0
  8 14  1  0  0  0  0
  8 21  1  0  0  0  0
  9 15  1  0  0  0  0
 17  9  1  6  0  0  0
 10 11  1  6  0  0  0
 10 12  1  0  0  0  0
 10 16  1  1  0  0  0
 11 13  1  0  0  0  0
 13 19  1  0  0  0  0
 14 15  1  1  0  0  0
 14 20  1  0  0  0  0
 14 25  1  6  0  0  0
 17 18  1  0  0  0  0
 17 24  1  0  0  0  0
 19 23  1  0  0  0  0
 20 22  1  0  0  0  0
 21 22  1  0  0  0  0
 23 27  2  0  0  0  0
 23 28  1  0  0  0  0
 24 26  1  0  0  0  0
 26 29  2  0  0  0  0
 26 30  1  0  0  0  0
 27 34  1  0  0  0  0
 28 35  2  0  0  0  0
 29 32  1  0  0  0  0
 30 33  2  0  0  0  0
 31 32  2  0  0  0  0
 31 33  1  0  0  0  0
 34 36  2  0  0  0  0
 35 36  1  0  0  0  0
M  END
> <PUBCHEM_COMPOUND_ID_TYPE>
0

> <PUBCHEM_TOTAL_CHARGE>
0

> <PUBCHEM_SUBSTANCE_ID>
310945897

> <PUBCHEM_SUBSTANCE_VERSION>
1

> <PUBCHEM_EXT_DATASOURCE_NAME>
4488

> <PUBCHEM_EXT_DATASOURCE_REGID>
SCHEMBL16124002

> <PUBCHEM_SUBSTANCE_COMMENT>
InChI=1S/C28H33N3O6/c1-27(14-13-23(32)31-27)26(35)30-22(16-19-9-11-20(36-3)12-10-19)25(34)29-21(24(33)28(2)17-37-28)15-18-7-5-4-6-8-18/h4-12,21-22H,13-17H2,1-3H3,(H,29,34)(H,30,35)(H,31,32)/t21-,22-,27-,28+/m0/s1
InChIKey=FDTHJNWPZPQEPA-TVCBXBRYSA-N

> <PUBCHEM_SUBSTANCE_SYNONYM>
SCHEMBL16124002

> <PUBCHEM_XREF_EXT_ID>
SCHEMBL16124002

> <PUBCHEM_EXT_DATASOURCE_URL>
https://www.surechembl.org/

> <PUBCHEM_EXT_SUBSTANCE_URL>
https://www.surechembl.org/chemical/SCHEMBL16124002

> <PUBCHEM_CID_ASSOCIATIONS>
117611881  1

> <PUBCHEM_COORDINATE_TYPE>
1
3

> <PUBCHEM_BONDANNOTATIONS>
10  11  6
10  16  5
14  15  5
14  25  6
13  7  6
17  9  6

$$$$
