310949562
  -OEChem-07211613022D

 42 46  0     1  0  0  0  0  0999 V2000
   -5.7757    0.5620    0.0000 F   0  0  0  0  0  0  0  0  0  0  0  0
   -6.8497    0.8367    0.0000 F   0  0  0  0  0  0  0  0  0  0  0  0
   -6.5749    1.9356    0.0000 F   0  0  0  0  0  0  0  0  0  0  0  0
   -1.1551    2.5101    0.0000 O   0  0  0  0  0  0  0  0  0  0  0  0
   -5.4885    1.6734    0.0000 O   0  0  0  0  0  0  0  0  0  0  0  0
    4.8516    0.0749    0.0000 O   0  0  0  0  0  0  0  0  0  0  0  0
    6.1878    0.4870    0.0000 O   0  0  0  0  0  0  0  0  0  0  0  0
    1.8170    0.1748    0.0000 N   0  0  0  0  0  0  0  0  0  0  0  0
    2.3040    0.8367    0.0000 N   0  0  0  0  0  0  0  0  0  0  0  0
   -1.8544    1.2613    0.0000 N   0  0  0  0  0  0  0  0  0  0  0  0
    1.0053    0.4371    0.0000 C   0  0  0  0  0  0  0  0  0  0  0  0
    1.0178    1.2613    0.0000 C   0  0  0  0  0  0  0  0  0  0  0  0
    1.8045    1.5110    0.0000 C   0  0  0  0  0  0  0  0  0  0  0  0
    0.2810    1.6609    0.0000 C   0  0  0  0  0  0  0  0  0  0  0  0
   -0.4183    1.2613    0.0000 C   0  0  0  0  0  0  0  0  0  0  0  0
    0.3060    0.0125    0.0000 C   0  0  0  0  0  0  0  0  0  0  0  0
    2.0293   -0.6244    0.0000 C   0  0  0  0  0  0  0  0  0  0  0  0
   -0.4183    0.4246    0.0000 C   0  0  0  0  0  0  0  0  0  0  0  0
   -1.1551    1.6609    0.0000 C   0  0  0  0  0  0  0  0  0  0  0  0
    2.8286   -0.8492    0.0000 C   0  0  0  0  0  0  0  0  0  0  0  0
    4.4270   -1.2738    0.0000 C   0  0  0  0  0  0  0  0  0  0  0  0
    5.2512   -1.4860    0.0000 C   0  0  0  0  0  0  0  0  0  0  0  0
    2.2166    2.2229    0.0000 C   0  0  0  0  0  0  0  0  0  0  0  0
    3.0534   -1.6484    0.0000 C   0  0  0  0  0  0  0  0  0  0  0  0
    3.4155   -0.2747    0.0000 C   0  0  0  0  0  0  0  0  0  0  0  0
    5.8257   -0.8991    0.0000 C   0  0  0  0  0  0  0  0  0  0  0  0
   -2.6038    1.6734    0.0000 C   0  0  3  0  0  0  0  0  0  0  0  0
    3.8526   -1.8607    0.0000 C   0  0  0  0  0  0  0  0  0  0  0  0
    4.2272   -0.4870    0.0000 C   0  0  0  0  0  0  0  0  0  0  0  0
   -3.3031    1.2613    0.0000 C   0  0  0  0  0  0  0  0  0  0  0  0
    5.4760   -2.2978    0.0000 C   0  0  0  0  0  0  0  0  0  0  0  0
   -4.0399    1.6609    0.0000 C   0  0  0  0  0  0  0  0  0  0  0  0
   -4.7517    1.2613    0.0000 C   0  0  0  0  0  0  0  0  0  0  0  0
    5.6134   -0.1124    0.0000 C   0  0  0  0  0  0  0  0  0  0  0  0
    6.6374   -1.1364    0.0000 C   0  0  0  0  0  0  0  0  0  0  0  0
   -3.3156    0.4246    0.0000 C   0  0  0  0  0  0  0  0  0  0  0  0
    6.2627   -2.5101    0.0000 C   0  0  0  0  0  0  0  0  0  0  0  0
   -4.7392    0.4246    0.0000 C   0  0  0  0  0  0  0  0  0  0  0  0
    6.8497   -1.9231    0.0000 C   0  0  0  0  0  0  0  0  0  0  0  0
   -4.0274    0.0125    0.0000 C   0  0  0  0  0  0  0  0  0  0  0  0
   -6.1878    1.2613    0.0000 C   0  0  0  0  0  0  0  0  0  0  0  0
   -2.5788    2.4976    0.0000 C   0  0  0  0  0  0  0  0  0  0  0  0
  1 41  1  0  0  0  0
  2 41  1  0  0  0  0
  3 41  1  0  0  0  0
  4 19  2  0  0  0  0
  5 33  1  0  0  0  0
  5 41  1  0  0  0  0
  6 34  2  0  0  0  0
  7 34  1  0  0  0  0
  8  9  1  0  0  0  0
  8 11  1  0  0  0  0
  8 17  1  0  0  0  0
  9 13  2  0  0  0  0
 10 19  1  0  0  0  0
 10 27  1  0  0  0  0
 11 12  1  0  0  0  0
 11 16  2  0  0  0  0
 12 13  1  0  0  0  0
 12 14  2  0  0  0  0
 13 23  1  0  0  0  0
 14 15  1  0  0  0  0
 15 18  2  0  0  0  0
 15 19  1  0  0  0  0
 16 18  1  0  0  0  0
 17 20  1  0  0  0  0
 20 24  2  0  0  0  0
 20 25  1  0  0  0  0
 21 22  1  0  0  0  0
 21 28  2  0  0  0  0
 21 29  1  0  0  0  0
 22 26  1  0  0  0  0
 22 31  2  0  0  0  0
 24 28  1  0  0  0  0
 25 29  2  0  0  0  0
 26 34  1  0  0  0  0
 26 35  2  0  0  0  0
 27 30  1  0  0  0  0
 27 42  1  6  0  0  0
 30 32  2  0  0  0  0
 30 36  1  0  0  0  0
 31 37  1  0  0  0  0
 32 33  1  0  0  0  0
 33 38  2  0  0  0  0
 35 39  1  0  0  0  0
 36 40  2  0  0  0  0
 37 39  2  0  0  0  0
 38 40  1  0  0  0  0
M  END
> <PUBCHEM_COMPOUND_ID_TYPE>
0

> <PUBCHEM_TOTAL_CHARGE>
0

> <PUBCHEM_SUBSTANCE_ID>
310949562

> <PUBCHEM_SUBSTANCE_VERSION>
1

> <PUBCHEM_EXT_DATASOURCE_NAME>
4488

> <PUBCHEM_EXT_DATASOURCE_REGID>
SCHEMBL16127757

> <PUBCHEM_SUBSTANCE_COMMENT>
InChI=1S/C32H26F3N3O4/c1-19(23-6-5-7-25(16-23)42-32(33,34)35)36-30(39)24-14-15-29-28(17-24)20(2)37-38(29)18-21-10-12-22(13-11-21)26-8-3-4-9-27(26)31(40)41/h3-17,19H,18H2,1-2H3,(H,36,39)(H,40,41)/t19-/m0/s1
InChIKey=LUFOKJALCSNRLQ-IBGZPJMESA-N

> <PUBCHEM_SUBSTANCE_SYNONYM>
SCHEMBL16127757

> <PUBCHEM_XREF_EXT_ID>
SCHEMBL16127757

> <PUBCHEM_EXT_DATASOURCE_URL>
https://www.surechembl.org/

> <PUBCHEM_EXT_SUBSTANCE_URL>
https://www.surechembl.org/chemical/SCHEMBL16127757

> <PUBCHEM_CID_ASSOCIATIONS>
71577900  1

> <PUBCHEM_COORDINATE_TYPE>
1
3

> <PUBCHEM_BONDANNOTATIONS>
27  42  6

$$$$
