310941579
  -OEChem-07211613022D

 29 32  0     0  0  0  0  0  0999 V2000
    1.4872    1.5300    0.0000 S   0  0  0  0  0  0  0  0  0  0  0  0
   -0.8547   -1.1368    0.0000 O   0  0  0  0  0  0  0  0  0  0  0  0
    0.5983   -1.1368    0.0000 O   0  0  0  0  0  0  0  0  0  0  0  0
   -3.7437   -1.1368    0.0000 O   0  0  0  0  0  0  0  0  0  0  0  0
    4.3761    0.5556    0.0000 O   0  0  0  0  0  0  0  0  0  0  0  0
    1.3504    0.1966    0.0000 N   0  0  0  0  0  0  0  0  0  0  0  0
    2.7180    0.7436    0.0000 N   0  0  0  0  0  0  0  0  0  0  0  0
   -0.1197    0.1282    0.0000 C   0  0  0  0  0  0  0  0  0  0  0  0
    0.5641    0.5556    0.0000 C   0  0  0  0  0  0  0  0  0  0  0  0
   -1.5727    0.1282    0.0000 C   0  0  0  0  0  0  0  0  0  0  0  0
   -1.5898   -0.6923    0.0000 C   0  0  0  0  0  0  0  0  0  0  0  0
   -0.1709   -0.6923    0.0000 C   0  0  0  0  0  0  0  0  0  0  0  0
   -0.8376    0.5385    0.0000 C   0  0  0  0  0  0  0  0  0  0  0  0
    1.8804    0.8462    0.0000 C   0  0  0  0  0  0  0  0  0  0  0  0
    0.6838    1.3590    0.0000 C   0  0  0  0  0  0  0  0  0  0  0  0
   -2.2736   -1.1026    0.0000 C   0  0  0  0  0  0  0  0  0  0  0  0
   -2.3077    0.5214    0.0000 C   0  0  0  0  0  0  0  0  0  0  0  0
   -3.0257   -0.6923    0.0000 C   0  0  0  0  0  0  0  0  0  0  0  0
   -3.0086    0.1282    0.0000 C   0  0  0  0  0  0  0  0  0  0  0  0
    3.0428   -0.0256    0.0000 C   0  0  0  0  0  0  0  0  0  0  0  0
    3.8634   -0.1111    0.0000 C   0  0  0  0  0  0  0  0  0  0  0  0
    2.5813   -0.7094    0.0000 C   0  0  0  0  0  0  0  0  0  0  0  0
    4.2052   -0.8974    0.0000 C   0  0  0  0  0  0  0  0  0  0  0  0
   -4.4787   -0.6923    0.0000 C   0  0  0  0  0  0  0  0  0  0  0  0
    2.9231   -1.4445    0.0000 C   0  0  0  0  0  0  0  0  0  0  0  0
    3.7437   -1.5300    0.0000 C   0  0  0  0  0  0  0  0  0  0  0  0
   -4.4617    0.1453    0.0000 C   0  0  0  0  0  0  0  0  0  0  0  0
   -5.1967   -1.1368    0.0000 C   0  0  0  0  0  0  0  0  0  0  0  0
    5.1967    0.4530    0.0000 C   0  0  0  0  0  0  0  0  0  0  0  0
  1 14  1  0  0  0  0
  1 15  1  0  0  0  0
  2 11  1  0  0  0  0
  2 12  1  0  0  0  0
  3 12  2  0  0  0  0
  4 18  1  0  0  0  0
  4 24  1  0  0  0  0
  5 21  1  0  0  0  0
  5 29  1  0  0  0  0
  6  9  1  0  0  0  0
  6 14  2  0  0  0  0
  7 14  1  0  0  0  0
  7 20  1  0  0  0  0
  8  9  1  0  0  0  0
  8 12  1  0  0  0  0
  8 13  2  0  0  0  0
  9 15  2  0  0  0  0
 10 11  1  0  0  0  0
 10 13  1  0  0  0  0
 10 17  2  0  0  0  0
 11 16  2  0  0  0  0
 16 18  1  0  0  0  0
 17 19  1  0  0  0  0
 18 19  2  0  0  0  0
 20 21  1  0  0  0  0
 20 22  2  0  0  0  0
 21 23  2  0  0  0  0
 22 25  1  0  0  0  0
 23 26  1  0  0  0  0
 24 27  1  0  0  0  0
 24 28  1  0  0  0  0
 25 26  2  0  0  0  0
M  END
> <PUBCHEM_COMPOUND_ID_TYPE>
0

> <PUBCHEM_TOTAL_CHARGE>
0

> <PUBCHEM_SUBSTANCE_ID>
310941579

> <PUBCHEM_SUBSTANCE_VERSION>
1

> <PUBCHEM_EXT_DATASOURCE_NAME>
4488

> <PUBCHEM_EXT_DATASOURCE_REGID>
SCHEMBL16119610

> <PUBCHEM_SUBSTANCE_COMMENT>
InChI=1S/C22H20N2O4S/c1-13(2)27-15-9-8-14-10-16(21(25)28-20(14)11-15)18-12-29-22(24-18)23-17-6-4-5-7-19(17)26-3/h4-13H,1-3H3,(H,23,24)
InChIKey=SENAAJNQJNAZBV-UHFFFAOYSA-N

> <PUBCHEM_SUBSTANCE_SYNONYM>
SCHEMBL16119610

> <PUBCHEM_XREF_EXT_ID>
SCHEMBL16119610

> <PUBCHEM_EXT_DATASOURCE_URL>
https://www.surechembl.org/

> <PUBCHEM_EXT_SUBSTANCE_URL>
https://www.surechembl.org/chemical/SCHEMBL16119610

> <PUBCHEM_CID_ASSOCIATIONS>
117608381  1

> <PUBCHEM_COORDINATE_TYPE>
1
3

$$$$
