310948667
  -OEChem-07211613022D

 23 25  0     1  0  0  0  0  0999 V2000
   -1.8080   -0.0970    0.0000 O   0  0  0  0  0  0  0  0  0  0  0  0
    3.4429    1.2746    0.0000 O   0  0  0  0  0  0  0  0  0  0  0  0
    0.9490   -0.2078    0.0000 N   0  0  0  0  0  0  0  0  0  0  0  0
    0.6165   -0.9698    0.0000 N   0  0  0  0  0  0  0  0  0  0  0  0
   -1.1153    1.1638    0.0000 N   0  0  0  0  0  0  0  0  0  0  0  0
   -0.7551   -1.5101    0.0000 N   0  0  0  0  0  0  0  0  0  0  0  0
    2.2236   -2.2167    0.0000 N   0  0  0  0  0  0  0  0  0  0  0  0
    0.3117    0.3464    0.0000 C   0  0  0  0  0  0  0  0  0  0  0  0
   -0.3949   -0.0693    0.0000 C   0  0  0  0  0  0  0  0  0  0  0  0
    1.7387   -0.0277    0.0000 C   0  0  3  0  0  0  0  0  0  0  0  0
   -0.2148   -0.8590    0.0000 C   0  0  0  0  0  0  0  0  0  0  0  0
   -1.1153    0.3325    0.0000 C   0  0  0  0  0  0  0  0  0  0  0  0
    2.3761   -0.5681    0.0000 C   0  0  3  0  0  0  0  0  0  0  0  0
    0.3256    1.1777    0.0000 C   0  0  0  0  0  0  0  0  0  0  0  0
    2.0851    0.7204    0.0000 C   0  0  0  0  0  0  0  0  0  0  0  0
    2.9026    0.6512    0.0000 C   0  0  3  0  0  0  0  0  0  0  0  0
    3.0688   -0.1524    0.0000 C   0  0  0  0  0  0  0  0  0  0  0  0
   -0.4226    1.5794    0.0000 C   0  0  0  0  0  0  0  0  0  0  0  0
    2.2929   -1.3993    0.0000 C   0  0  0  0  0  0  0  0  0  0  0  0
   -2.5146    0.2217    0.0000 C   0  0  0  0  0  0  0  0  0  0  0  0
   -2.5978    1.0530    0.0000 C   0  0  0  0  0  0  0  0  0  0  0  0
   -3.3597    1.3854    0.0000 C   0  0  0  0  0  0  0  0  0  0  0  0
   -3.4429    2.2167    0.0000 C   0  0  0  0  0  0  0  0  0  0  0  0
  1 12  1  0  0  0  0
  1 20  1  0  0  0  0
  2 16  1  0  0  0  0
  3  4  1  0  0  0  0
  3  8  1  0  0  0  0
  3 10  1  0  0  0  0
  4 11  2  0  0  0  0
  5 12  2  0  0  0  0
  5 18  1  0  0  0  0
  6 11  1  0  0  0  0
  7 19  3  0  0  0  0
  8  9  2  0  0  0  0
  8 14  1  0  0  0  0
  9 11  1  0  0  0  0
  9 12  1  0  0  0  0
 10 13  1  0  0  0  0
 10 15  1  1  0  0  0
 13 17  1  0  0  0  0
 13 19  1  1  0  0  0
 14 18  2  0  0  0  0
 15 16  1  0  0  0  0
 16 17  1  0  0  0  0
 20 21  1  0  0  0  0
 21 22  1  0  0  0  0
 22 23  1  0  0  0  0
M  END
> <PUBCHEM_COMPOUND_ID_TYPE>
0

> <PUBCHEM_TOTAL_CHARGE>
0

> <PUBCHEM_SUBSTANCE_ID>
310948667

> <PUBCHEM_SUBSTANCE_VERSION>
1

> <PUBCHEM_EXT_DATASOURCE_NAME>
4488

> <PUBCHEM_EXT_DATASOURCE_REGID>
SCHEMBL16126851

> <PUBCHEM_SUBSTANCE_COMMENT>
InChI=1S/C16H21N5O2/c1-2-3-6-23-16-14-12(4-5-19-16)21(20-15(14)18)13-8-11(22)7-10(13)9-17/h4-5,10-11,13,22H,2-3,6-8H2,1H3,(H2,18,20)/t10-,11?,13-/m0/s1
InChIKey=LINYQKLCXKPZLF-BJEKPXQXSA-N

> <PUBCHEM_SUBSTANCE_SYNONYM>
SCHEMBL16126851

> <PUBCHEM_XREF_EXT_ID>
SCHEMBL16126851

> <PUBCHEM_EXT_DATASOURCE_URL>
https://www.surechembl.org/

> <PUBCHEM_EXT_SUBSTANCE_URL>
https://www.surechembl.org/chemical/SCHEMBL16126851

> <PUBCHEM_CID_ASSOCIATIONS>
117614208  1

> <PUBCHEM_COORDINATE_TYPE>
1
3

> <PUBCHEM_BONDANNOTATIONS>
10  15  5
13  19  5

$$$$
