310949703
  -OEChem-07211613022D

 23 24  0     0  0  0  0  0  0999 V2000
   -1.0328   -0.7396    0.0000 O   0  0  0  0  0  0  0  0  0  0  0  0
   -2.6852   -2.1788    0.0000 O   0  0  0  0  0  0  0  0  0  0  0  0
   -1.4458   -1.4592    0.0000 O   0  0  0  0  0  0  0  0  0  0  0  0
    3.9112   -0.7263    0.0000 O   0  0  0  0  0  0  0  0  0  0  0  0
   -1.0461    0.7130    0.0000 N   0  0  0  0  0  0  0  0  0  0  0  0
   -2.2721   -0.0067    0.0000 C   0  0  0  0  0  0  0  0  0  0  0  0
   -2.6852   -0.7396    0.0000 C   0  0  0  0  0  0  0  0  0  0  0  0
   -1.4592   -0.0067    0.0000 C   0  0  0  0  0  0  0  0  0  0  0  0
   -0.2332    0.7130    0.0000 C   0  0  0  0  0  0  0  0  0  0  0  0
   -2.7118    0.6996    0.0000 C   0  0  0  0  0  0  0  0  0  0  0  0
   -2.2721   -1.4458    0.0000 C   0  0  0  0  0  0  0  0  0  0  0  0
    1.0061    1.4192    0.0000 C   0  0  0  0  0  0  0  0  0  0  0  0
   -3.4981   -0.7529    0.0000 C   0  0  0  0  0  0  0  0  0  0  0  0
    1.4059    0.7130    0.0000 C   0  0  0  0  0  0  0  0  0  0  0  0
    0.1932    1.4192    0.0000 C   0  0  0  0  0  0  0  0  0  0  0  0
    0.2066   -0.0200    0.0000 C   0  0  0  0  0  0  0  0  0  0  0  0
    1.0061   -0.0200    0.0000 C   0  0  0  0  0  0  0  0  0  0  0  0
   -3.5248    0.6863    0.0000 C   0  0  0  0  0  0  0  0  0  0  0  0
   -3.9112   -0.0333    0.0000 C   0  0  0  0  0  0  0  0  0  0  0  0
    2.2455    0.7130    0.0000 C   0  0  0  0  0  0  0  0  0  0  0  0
    1.4192    2.1788    0.0000 C   0  0  0  0  0  0  0  0  0  0  0  0
    2.6719    0.0067    0.0000 C   0  0  0  0  0  0  0  0  0  0  0  0
    3.5115   -0.0200    0.0000 C   0  0  0  0  0  0  0  0  0  0  0  0
  1  8  2  0  0  0  0
  2 11  2  0  0  0  0
  3 11  1  0  0  0  0
  4 23  1  0  0  0  0
  5  8  1  0  0  0  0
  5  9  1  0  0  0  0
  6  7  1  0  0  0  0
  6  8  1  0  0  0  0
  6 10  2  0  0  0  0
  7 11  1  0  0  0  0
  7 13  2  0  0  0  0
  9 15  1  0  0  0  0
  9 16  2  0  0  0  0
 10 18  1  0  0  0  0
 12 14  1  0  0  0  0
 12 15  2  0  0  0  0
 12 21  1  0  0  0  0
 13 19  1  0  0  0  0
 14 17  2  0  0  0  0
 14 20  1  0  0  0  0
 16 17  1  0  0  0  0
 18 19  2  0  0  0  0
 20 22  1  0  0  0  0
 22 23  1  0  0  0  0
M  END
> <PUBCHEM_COMPOUND_ID_TYPE>
0

> <PUBCHEM_TOTAL_CHARGE>
0

> <PUBCHEM_SUBSTANCE_ID>
310949703

> <PUBCHEM_SUBSTANCE_VERSION>
1

> <PUBCHEM_EXT_DATASOURCE_NAME>
4488

> <PUBCHEM_EXT_DATASOURCE_REGID>
SCHEMBL16127901

> <PUBCHEM_SUBSTANCE_COMMENT>
InChI=1S/C18H19NO4/c1-12-11-14(9-8-13(12)5-4-10-20)19-17(21)15-6-2-3-7-16(15)18(22)23/h2-3,6-9,11,20H,4-5,10H2,1H3,(H,19,21)(H,22,23)
InChIKey=ROKNZNURCUKQHI-UHFFFAOYSA-N

> <PUBCHEM_SUBSTANCE_SYNONYM>
SCHEMBL16127901

> <PUBCHEM_XREF_EXT_ID>
SCHEMBL16127901

> <PUBCHEM_EXT_DATASOURCE_URL>
https://www.surechembl.org/

> <PUBCHEM_EXT_SUBSTANCE_URL>
https://www.surechembl.org/chemical/SCHEMBL16127901

> <PUBCHEM_CID_ASSOCIATIONS>
85473336  1

> <PUBCHEM_COORDINATE_TYPE>
1
3

$$$$
