310943224
  -OEChem-07211613022D

 37 40  0     0  0  0  0  0  0999 V2000
    4.6415   -0.8186    0.0000 F   0  0  0  0  0  0  0  0  0  0  0  0
    4.6415   -1.6519    0.0000 F   0  0  0  0  0  0  0  0  0  0  0  0
   -3.2088   -0.4094    0.0000 O   0  0  0  0  0  0  0  0  0  0  0  0
    2.4925    2.0613    0.0000 O   0  0  0  0  0  0  0  0  0  0  0  0
   -4.6415    2.0613    0.0000 O   0  0  0  0  0  0  0  0  0  0  0  0
   -3.9252   -2.4852    0.0000 O   0  0  0  0  0  0  0  0  0  0  0  0
   -3.2234    1.2426    0.0000 N   0  0  0  0  0  0  0  0  0  0  0  0
   -1.0744    0.0000    0.0000 N   0  0  0  0  0  0  0  0  0  0  0  0
   -1.7908   -0.4094    0.0000 N   0  0  0  0  0  0  0  0  0  0  0  0
    1.7762    0.8333    0.0000 N   0  0  0  0  0  0  0  0  0  0  0  0
    4.6268    0.0000    0.0000 N   0  0  0  0  0  0  0  0  0  0  0  0
   -1.0744    0.8479    0.0000 C   0  0  0  0  0  0  0  0  0  0  0  0
   -0.3581    1.2426    0.0000 C   0  0  0  0  0  0  0  0  0  0  0  0
   -2.4925    0.8333    0.0000 C   0  0  0  0  0  0  0  0  0  0  0  0
   -2.5071    0.0146    0.0000 C   0  0  0  0  0  0  0  0  0  0  0  0
   -1.8054    1.2426    0.0000 C   0  0  0  0  0  0  0  0  0  0  0  0
   -0.3581    2.0759    0.0000 C   0  0  0  0  0  0  0  0  0  0  0  0
    0.3435    0.8333    0.0000 C   0  0  0  0  0  0  0  0  0  0  0  0
    1.0599    1.2572    0.0000 C   0  0  0  0  0  0  0  0  0  0  0  0
    3.9252   -0.4094    0.0000 C   0  0  0  0  0  0  0  0  0  0  0  0
    3.2088    0.8333    0.0000 C   0  0  0  0  0  0  0  0  0  0  0  0
    3.9252   -1.2134    0.0000 C   0  0  0  0  0  0  0  0  0  0  0  0
    2.4778    1.2280    0.0000 C   0  0  0  0  0  0  0  0  0  0  0  0
    0.3435    2.4705    0.0000 C   0  0  0  0  0  0  0  0  0  0  0  0
    1.0599    2.0613    0.0000 C   0  0  0  0  0  0  0  0  0  0  0  0
    3.2088    0.0000    0.0000 C   0  0  0  0  0  0  0  0  0  0  0  0
   -3.2234    2.0759    0.0000 C   0  0  0  0  0  0  0  0  0  0  0  0
   -3.9252    0.8333    0.0000 C   0  0  0  0  0  0  0  0  0  0  0  0
    3.8959    1.2426    0.0000 C   0  0  0  0  0  0  0  0  0  0  0  0
    4.6268    0.8333    0.0000 C   0  0  0  0  0  0  0  0  0  0  0  0
   -1.0891    2.4705    0.0000 C   0  0  0  0  0  0  0  0  0  0  0  0
    3.2234   -1.6373    0.0000 C   0  0  0  0  0  0  0  0  0  0  0  0
   -3.9397    2.4852    0.0000 C   0  0  0  0  0  0  0  0  0  0  0  0
   -4.6415    1.2426    0.0000 C   0  0  0  0  0  0  0  0  0  0  0  0
   -3.2234   -1.2426    0.0000 C   0  0  0  0  0  0  0  0  0  0  0  0
    2.4778   -1.2426    0.0000 C   0  0  0  0  0  0  0  0  0  0  0  0
   -3.9105   -1.6373    0.0000 C   0  0  0  0  0  0  0  0  0  0  0  0
  1 22  1  0  0  0  0
  2 22  1  0  0  0  0
  3 15  1  0  0  0  0
  3 35  1  0  0  0  0
  4 23  2  0  0  0  0
  5 33  1  0  0  0  0
  5 34  1  0  0  0  0
  6 37  1  0  0  0  0
  7 14  1  0  0  0  0
  7 27  1  0  0  0  0
  7 28  1  0  0  0  0
  8  9  1  0  0  0  0
  8 12  2  0  0  0  0
  9 15  2  0  0  0  0
 10 19  1  0  0  0  0
 10 23  1  0  0  0  0
 11 20  2  0  0  0  0
 11 30  1  0  0  0  0
 12 13  1  0  0  0  0
 12 16  1  0  0  0  0
 13 17  1  0  0  0  0
 13 18  2  0  0  0  0
 14 15  1  0  0  0  0
 14 16  2  0  0  0  0
 17 24  2  0  0  0  0
 17 31  1  0  0  0  0
 18 19  1  0  0  0  0
 19 25  2  0  0  0  0
 20 22  1  0  0  0  0
 20 26  1  0  0  0  0
 21 23  1  0  0  0  0
 21 26  2  0  0  0  0
 21 29  1  0  0  0  0
 22 32  1  0  0  0  0
 24 25  1  0  0  0  0
 27 33  1  0  0  0  0
 28 34  1  0  0  0  0
 29 30  2  0  0  0  0
 32 36  1  0  0  0  0
 35 37  1  0  0  0  0
M  END
> <PUBCHEM_COMPOUND_ID_TYPE>
0

> <PUBCHEM_TOTAL_CHARGE>
0

> <PUBCHEM_SUBSTANCE_ID>
310943224

> <PUBCHEM_SUBSTANCE_VERSION>
1

> <PUBCHEM_EXT_DATASOURCE_NAME>
4488

> <PUBCHEM_EXT_DATASOURCE_REGID>
SCHEMBL16121285

> <PUBCHEM_SUBSTANCE_COMMENT>
InChI=1S/C26H29F2N5O4/c1-3-26(27,28)23-14-18(6-7-29-23)24(35)30-19-5-4-17(2)20(15-19)21-16-22(33-8-11-36-12-9-33)25(32-31-21)37-13-10-34/h4-7,14-16,34H,3,8-13H2,1-2H3,(H,30,35)
InChIKey=IQDUYZHLQPWSGV-UHFFFAOYSA-N

> <PUBCHEM_SUBSTANCE_SYNONYM>
SCHEMBL16121285

> <PUBCHEM_XREF_EXT_ID>
SCHEMBL16121285

> <PUBCHEM_EXT_DATASOURCE_URL>
https://www.surechembl.org/

> <PUBCHEM_EXT_SUBSTANCE_URL>
https://www.surechembl.org/chemical/SCHEMBL16121285

> <PUBCHEM_CID_ASSOCIATIONS>
117609650  1

> <PUBCHEM_COORDINATE_TYPE>
1
3

$$$$
