310949753
  -OEChem-07211613022D

 22 23  0     0  0  0  0  0  0999 V2000
    0.0000    1.7764    0.0000 S   0  0  0  0  0  0  0  0  0  0  0  0
   -1.6633   -1.0845    0.0000 O   0  0  0  0  0  0  0  0  0  0  0  0
    0.7319    1.3640    0.0000 O   0  0  0  0  0  0  0  0  0  0  0  0
   -0.7185    2.1890    0.0000 O   0  0  0  0  0  0  0  0  0  0  0  0
   -0.4258    1.0579    0.0000 N   0  0  0  0  0  0  0  0  0  0  0  0
   -0.4258   -0.3659    0.0000 N   0  0  0  0  0  0  0  0  0  0  0  0
    2.9141   -1.7897    0.0000 N   0  0  0  0  0  0  0  0  0  0  0  0
   -1.6767    0.3394    0.0000 C   0  0  0  0  0  0  0  0  0  0  0  0
   -1.2641    1.0579    0.0000 C   0  0  0  0  0  0  0  0  0  0  0  0
   -1.2508   -0.3526    0.0000 C   0  0  0  0  0  0  0  0  0  0  0  0
   -2.5149    0.3526    0.0000 C   0  0  0  0  0  0  0  0  0  0  0  0
    0.0000   -1.0712    0.0000 C   0  0  0  0  0  0  0  0  0  0  0  0
   -1.6767    1.7631    0.0000 C   0  0  0  0  0  0  0  0  0  0  0  0
   -2.9141    1.0579    0.0000 C   0  0  0  0  0  0  0  0  0  0  0  0
   -2.5017    1.7631    0.0000 C   0  0  0  0  0  0  0  0  0  0  0  0
    0.8383   -1.0978    0.0000 C   0  0  0  0  0  0  0  0  0  0  0  0
    1.2375   -1.7897    0.0000 C   0  0  0  0  0  0  0  0  0  0  0  0
   -0.3992   -1.8163    0.0000 C   0  0  0  0  0  0  0  0  0  0  0  0
    0.8383   -2.5083    0.0000 C   0  0  0  0  0  0  0  0  0  0  0  0
    0.0000   -2.5083    0.0000 C   0  0  0  0  0  0  0  0  0  0  0  0
    0.4258    2.5083    0.0000 C   0  0  0  0  0  0  0  0  0  0  0  0
    2.0625   -1.8031    0.0000 C   0  0  0  0  0  0  0  0  0  0  0  0
  1  3  2  0  0  0  0
  1  4  2  0  0  0  0
  1  5  1  0  0  0  0
  1 21  1  0  0  0  0
  2 10  2  0  0  0  0
  5  9  1  0  0  0  0
  6 10  1  0  0  0  0
  6 12  1  0  0  0  0
  7 22  3  0  0  0  0
  8  9  2  0  0  0  0
  8 10  1  0  0  0  0
  8 11  1  0  0  0  0
  9 13  1  0  0  0  0
 11 14  2  0  0  0  0
 12 16  2  0  0  0  0
 12 18  1  0  0  0  0
 13 15  2  0  0  0  0
 14 15  1  0  0  0  0
 16 17  1  0  0  0  0
 17 19  2  0  0  0  0
 17 22  1  0  0  0  0
 18 20  2  0  0  0  0
 19 20  1  0  0  0  0
M  END
> <PUBCHEM_COMPOUND_ID_TYPE>
0

> <PUBCHEM_TOTAL_CHARGE>
0

> <PUBCHEM_SUBSTANCE_ID>
310949753

> <PUBCHEM_SUBSTANCE_VERSION>
1

> <PUBCHEM_EXT_DATASOURCE_NAME>
4488

> <PUBCHEM_EXT_DATASOURCE_REGID>
SCHEMBL16127951

> <PUBCHEM_SUBSTANCE_COMMENT>
InChI=1S/C15H13N3O3S/c1-22(20,21)18-14-8-3-2-7-13(14)15(19)17-12-6-4-5-11(9-12)10-16/h2-9,18H,1H3,(H,17,19)
InChIKey=ZFAVTHURPJPFFD-UHFFFAOYSA-N

> <PUBCHEM_SUBSTANCE_SYNONYM>
SCHEMBL16127951

> <PUBCHEM_XREF_EXT_ID>
SCHEMBL16127951

> <PUBCHEM_EXT_DATASOURCE_URL>
https://www.surechembl.org/

> <PUBCHEM_EXT_SUBSTANCE_URL>
https://www.surechembl.org/chemical/SCHEMBL16127951

> <PUBCHEM_CID_ASSOCIATIONS>
51164949  1

> <PUBCHEM_COORDINATE_TYPE>
1
3

$$$$
