310937201
  -OEChem-07211613022D

 41 46  0     1  0  0  0  0  0999 V2000
   -0.4309    3.9566    0.0000 F   0  0  0  0  0  0  0  0  0  0  0  0
   -1.1453    3.5441    0.0000 F   0  0  0  0  0  0  0  0  0  0  0  0
   -1.1453    2.7191    0.0000 F   0  0  0  0  0  0  0  0  0  0  0  0
   -3.2996   -2.0323    0.0000 F   0  0  0  0  0  0  0  0  0  0  0  0
   -2.7514   -2.6488    0.0000 F   0  0  0  0  0  0  0  0  0  0  0  0
   -3.0398   -1.2493    0.0000 F   0  0  0  0  0  0  0  0  0  0  0  0
   -0.0388   -3.5488    0.0000 F   0  0  0  0  0  0  0  0  0  0  0  0
    0.7691   -3.3823    0.0000 F   0  0  0  0  0  0  0  0  0  0  0  0
    1.0290   -2.5992    0.0000 F   0  0  0  0  0  0  0  0  0  0  0  0
    0.4146   -0.2019    0.0000 O   0  0  0  0  0  0  0  0  0  0  0  0
    1.7784    0.2031    0.0000 O   0  0  0  0  0  0  0  0  0  0  0  0
    0.7048    1.1366    0.0000 N   0  0  0  0  0  0  0  0  0  0  0  0
    1.0259    3.0791    0.0000 N   0  0  0  0  0  0  0  0  0  0  0  0
    1.5977    2.4844    0.0000 N   0  0  3  0  0  0  0  0  0  0  0  0
   -0.3559    2.2399    0.0000 N   0  0  0  0  0  0  0  0  0  0  0  0
    0.3966    1.9019    0.0000 C   0  0  3  0  0  0  0  0  0  0  0  0
    0.2836    2.7191    0.0000 C   0  0  3  0  0  0  0  0  0  0  0  0
    1.2088    1.7568    0.0000 C   0  0  0  0  0  0  0  0  0  0  0  0
    0.9840    2.4645    0.0000 C   0  0  0  0  0  0  0  0  0  0  0  0
   -0.4309    3.1316    0.0000 C   0  0  0  0  0  0  0  0  0  0  0  0
   -0.3559    0.0333    0.0000 C   0  0  3  0  0  0  0  0  0  0  0  0
    0.3966    0.3713    0.0000 C   0  0  3  0  0  0  0  0  0  0  0  0
    0.9721    0.3779    0.0000 C   0  0  0  0  0  0  0  0  0  0  0  0
   -1.1327    1.9619    0.0000 C   0  0  3  0  0  0  0  0  0  0  0  0
   -1.1327    0.3119    0.0000 C   0  0  3  0  0  0  0  0  0  0  0  0
   -0.6157   -0.7497    0.0000 C   0  0  0  0  0  0  0  0  0  0  0  0
   -1.8472    1.5494    0.0000 C   0  0  3  0  0  0  0  0  0  0  0  0
    2.4149    2.5975    0.0000 C   0  0  0  0  0  0  0  0  0  0  0  0
   -1.8472    0.7244    0.0000 C   0  0  0  0  0  0  0  0  0  0  0  0
    0.9914   -0.2005    0.0000 C   0  0  0  0  0  0  0  0  0  0  0  0
   -0.4183    1.5494    0.0000 C   0  0  0  0  0  0  0  0  0  0  0  0
   -0.4183    0.7244    0.0000 C   0  0  0  0  0  0  0  0  0  0  0  0
   -0.0675   -1.3662    0.0000 C   0  0  0  0  0  0  0  0  0  0  0  0
   -1.4238   -0.9163    0.0000 C   0  0  0  0  0  0  0  0  0  0  0  0
   -0.3273   -2.1492    0.0000 C   0  0  0  0  0  0  0  0  0  0  0  0
   -1.6835   -1.6993    0.0000 C   0  0  0  0  0  0  0  0  0  0  0  0
   -2.5617    1.9619    0.0000 C   0  0  0  0  0  0  0  0  0  0  0  0
   -1.1353   -2.3158    0.0000 C   0  0  0  0  0  0  0  0  0  0  0  0
   -2.4916   -1.8658    0.0000 C   0  0  0  0  0  0  0  0  0  0  0  0
    0.2209   -2.7658    0.0000 C   0  0  0  0  0  0  0  0  0  0  0  0
   -3.2761    1.5494    0.0000 C   0  0  0  0  0  0  0  0  0  0  0  0
  1 20  1  0  0  0  0
  2 20  1  0  0  0  0
  3 20  1  0  0  0  0
  4 39  1  0  0  0  0
  5 39  1  0  0  0  0
  6 39  1  0  0  0  0
  7 40  1  0  0  0  0
  8 40  1  0  0  0  0
  9 40  1  0  0  0  0
 21 10  1  1  0  0  0
 10 23  1  0  0  0  0
 11 23  2  0  0  0  0
 12 16  1  0  0  0  0
 12 22  1  0  0  0  0
 12 23  1  0  0  0  0
 13 14  1  0  0  0  0
 13 17  1  0  0  0  0
 14 18  1  0  0  0  0
 14 28  1  0  0  0  0
 15 16  1  0  0  0  0
 15 24  1  0  0  0  0
 16 17  1  0  0  0  0
 16 18  1  0  0  0  0
 17 19  1  0  0  0  0
 17 20  1  0  0  0  0
 18 19  2  0  0  0  0
 21 22  1  0  0  0  0
 21 25  1  0  0  0  0
 21 26  1  0  0  0  0
 22 30  1  1  0  0  0
 24 27  1  0  0  0  0
 24 31  1  0  0  0  0
 25 29  1  0  0  0  0
 25 32  1  0  0  0  0
 26 33  2  0  0  0  0
 26 34  1  0  0  0  0
 27 29  1  0  0  0  0
 27 37  1  0  0  0  0
 31 32  1  0  0  0  0
 33 35  1  0  0  0  0
 34 36  2  0  0  0  0
 35 38  2  0  0  0  0
 35 40  1  0  0  0  0
 36 38  1  0  0  0  0
 36 39  1  0  0  0  0
 37 41  1  0  0  0  0
M  END
> <PUBCHEM_COMPOUND_ID_TYPE>
0

> <PUBCHEM_TOTAL_CHARGE>
0

> <PUBCHEM_SUBSTANCE_ID>
310937201

> <PUBCHEM_SUBSTANCE_VERSION>
1

> <PUBCHEM_EXT_DATASOURCE_NAME>
4488

> <PUBCHEM_EXT_DATASOURCE_REGID>
SCHEMBL16114930

> <PUBCHEM_SUBSTANCE_COMMENT>
InChI=1S/C26H27F9N4O2/c1-4-13-7-14-5-6-18(13)36-23(19-11-21(23,26(33,34)35)37-38(19)3)39-12(2)22(14,41-20(39)40)15-8-16(24(27,28)29)10-17(9-15)25(30,31)32/h8-14,18,36-37H,4-7H2,1-3H3/t12-,13?,14?,18?,21?,22+,23?/m0/s1
InChIKey=GGCFPTYZLVTIHV-VECMAVEASA-N

> <PUBCHEM_SUBSTANCE_SYNONYM>
SCHEMBL16114930

> <PUBCHEM_XREF_EXT_ID>
SCHEMBL16114930

> <PUBCHEM_EXT_DATASOURCE_URL>
https://www.surechembl.org/

> <PUBCHEM_EXT_SUBSTANCE_URL>
https://www.surechembl.org/chemical/SCHEMBL16114930

> <PUBCHEM_CID_ASSOCIATIONS>
117605011  1

> <PUBCHEM_COORDINATE_TYPE>
1
3

> <PUBCHEM_BONDANNOTATIONS>
21  10  5
22  30  5

$$$$
