310934832
  -OEChem-07211613022D

 12 13  0     0  0  0  0  0  0999 V2000
    0.5890   -0.4166    0.0000 Br  0  0  0  0  0  0  0  0  0  0  0  0
    2.8876   -1.3504    0.0000 N   0  0  0  0  0  0  0  0  0  0  0  0
    2.0974   -0.2730    0.0000 N   0  0  0  0  0  0  0  0  0  0  0  0
    3.3616   -0.6752    0.0000 N   0  0  0  0  0  0  0  0  0  0  0  0
    1.4222   -1.5659    0.0000 C   0  0  0  0  0  0  0  0  0  0  0  0
    2.0974   -1.0918    0.0000 C   0  0  0  0  0  0  0  0  0  0  0  0
    0.6752   -1.2355    0.0000 C   0  0  0  0  0  0  0  0  0  0  0  0
    1.5084   -2.3991    0.0000 C   0  0  0  0  0  0  0  0  0  0  0  0
    2.8876    0.0000    0.0000 C   0  0  0  0  0  0  0  0  0  0  0  0
    0.0000   -1.7096    0.0000 C   0  0  0  0  0  0  0  0  0  0  0  0
    0.8333   -2.8732    0.0000 C   0  0  0  0  0  0  0  0  0  0  0  0
    0.0718   -2.5428    0.0000 C   0  0  0  0  0  0  0  0  0  0  0  0
  1  7  1  0  0  0  0
  2  4  1  0  0  0  0
  2  6  2  0  0  0  0
  3  6  1  0  0  0  0
  3  9  2  0  0  0  0
  4  9  1  0  0  0  0
  5  6  1  0  0  0  0
  5  7  1  0  0  0  0
  5  8  2  0  0  0  0
  7 10  2  0  0  0  0
  8 11  1  0  0  0  0
 10 12  1  0  0  0  0
 11 12  2  0  0  0  0
M  END
> <PUBCHEM_COMPOUND_ID_TYPE>
0

> <PUBCHEM_TOTAL_CHARGE>
0

> <PUBCHEM_SUBSTANCE_ID>
310934832

> <PUBCHEM_SUBSTANCE_VERSION>
1

> <PUBCHEM_EXT_DATASOURCE_NAME>
4488

> <PUBCHEM_EXT_DATASOURCE_REGID>
SCHEMBL16112339

> <PUBCHEM_SUBSTANCE_COMMENT>
InChI=1S/C8H6BrN3/c9-7-4-2-1-3-6(7)8-10-5-11-12-8/h1-5H,(H,10,11,12)
InChIKey=LSWFPACWJIHFDN-UHFFFAOYSA-N

> <PUBCHEM_SUBSTANCE_SYNONYM>
SCHEMBL16112339

> <PUBCHEM_XREF_EXT_ID>
SCHEMBL16112339

> <PUBCHEM_EXT_DATASOURCE_URL>
https://www.surechembl.org/

> <PUBCHEM_EXT_SUBSTANCE_URL>
https://www.surechembl.org/chemical/SCHEMBL16112339

> <PUBCHEM_CID_ASSOCIATIONS>
53216929  1

> <PUBCHEM_COORDINATE_TYPE>
1
3

$$$$
