310944123
  -OEChem-07211613022D

 32 36  0     1  0  0  0  0  0999 V2000
    2.4785   -0.0994    0.0000 O   0  0  0  0  0  0  0  0  0  0  0  0
    5.0066   -1.6560    0.0000 O   0  0  0  0  0  0  0  0  0  0  0  0
    5.4813   -0.2649    0.0000 O   0  0  0  0  0  0  0  0  0  0  0  0
   -1.3082   -1.2365    0.0000 O   0  0  0  0  0  0  0  0  0  0  0  0
    2.8648   -1.5124    0.0000 N   0  0  0  0  0  0  0  0  0  0  0  0
    0.1159   -0.4195    0.0000 N   0  0  0  0  0  0  0  0  0  0  0  0
   -4.1786    1.2254    0.0000 N   0  0  0  0  0  0  0  0  0  0  0  0
   -2.7434    1.2254    0.0000 N   0  0  0  0  0  0  0  0  0  0  0  0
   -4.2559    2.0424    0.0000 N   0  0  0  0  0  0  0  0  0  0  0  0
   -5.0728    2.2190    0.0000 N   0  0  0  0  0  0  0  0  0  0  0  0
   -5.4813    1.5014    0.0000 N   0  0  0  0  0  0  0  0  0  0  0  0
    1.5511   -1.2254    0.0000 C   0  0  0  0  0  0  0  0  0  0  0  0
    2.2908   -0.9274    0.0000 C   0  0  0  0  0  0  0  0  0  0  0  0
    3.6928   -1.4241    0.0000 C   0  0  0  0  0  0  0  0  0  0  0  0
    1.6394   -2.0424    0.0000 C   0  0  0  0  0  0  0  0  0  0  0  0
    2.4453   -2.2190    0.0000 C   0  0  0  0  0  0  0  0  0  0  0  0
    0.8335   -1.6449    0.0000 C   0  0  0  0  0  0  0  0  0  0  0  0
    1.5511   -0.4085    0.0000 C   0  0  0  0  0  0  0  0  0  0  0  0
    4.0682   -0.6955    0.0000 C   0  0  0  0  0  0  0  0  0  0  0  0
    4.2890   -2.0092    0.0000 C   0  0  0  0  0  0  0  0  0  0  0  0
    4.8741   -0.8501    0.0000 C   0  0  0  0  0  0  0  0  0  0  0  0
    0.1159   -1.2254    0.0000 C   0  0  0  0  0  0  0  0  0  0  0  0
    0.8335    0.0000    0.0000 C   0  0  0  0  0  0  0  0  0  0  0  0
   -0.6016    0.0000    0.0000 C   0  0  0  0  0  0  0  0  0  0  0  0
   -1.3082   -0.4085    0.0000 C   0  0  3  0  0  0  0  0  0  0  0  0
    3.7149    0.0552    0.0000 C   0  0  0  0  0  0  0  0  0  0  0  0
   -2.0259    0.0111    0.0000 C   0  0  0  0  0  0  0  0  0  0  0  0
   -3.4500    0.8280    0.0000 C   0  0  0  0  0  0  0  0  0  0  0  0
   -2.0259    0.8169    0.0000 C   0  0  0  0  0  0  0  0  0  0  0  0
   -2.7324   -0.4085    0.0000 C   0  0  0  0  0  0  0  0  0  0  0  0
   -3.4610    0.0000    0.0000 C   0  0  0  0  0  0  0  0  0  0  0  0
   -4.9183    0.9052    0.0000 C   0  0  0  0  0  0  0  0  0  0  0  0
  1 13  2  0  0  0  0
  2 20  1  0  0  0  0
  2 21  1  0  0  0  0
  3 21  2  0  0  0  0
 25  4  1  1  0  0  0
  5 13  1  0  0  0  0
  5 14  1  0  0  0  0
  5 16  1  0  0  0  0
  6 22  1  0  0  0  0
  6 23  1  0  0  0  0
  6 24  1  0  0  0  0
  7  9  1  0  0  0  0
  7 28  1  0  0  0  0
  7 32  1  0  0  0  0
  8 28  2  0  0  0  0
  8 29  1  0  0  0  0
  9 10  2  0  0  0  0
 10 11  1  0  0  0  0
 11 32  2  0  0  0  0
 12 13  1  0  0  0  0
 12 15  1  0  0  0  0
 12 17  1  0  0  0  0
 12 18  1  0  0  0  0
 14 19  2  0  0  0  0
 14 20  1  0  0  0  0
 15 16  2  0  0  0  0
 17 22  1  0  0  0  0
 18 23  1  0  0  0  0
 19 21  1  0  0  0  0
 19 26  1  0  0  0  0
 24 25  1  0  0  0  0
 25 27  1  0  0  0  0
 27 29  2  0  0  0  0
 27 30  1  0  0  0  0
 28 31  1  0  0  0  0
 30 31  2  0  0  0  0
M  END
> <PUBCHEM_COMPOUND_ID_TYPE>
0

> <PUBCHEM_TOTAL_CHARGE>
0

> <PUBCHEM_SUBSTANCE_ID>
310944123

> <PUBCHEM_SUBSTANCE_VERSION>
1

> <PUBCHEM_EXT_DATASOURCE_NAME>
4488

> <PUBCHEM_EXT_DATASOURCE_REGID>
SCHEMBL16122198

> <PUBCHEM_SUBSTANCE_COMMENT>
InChI=1S/C21H23N7O4/c1-14-16(12-32-19(14)30)27-9-6-21(20(27)31)4-7-26(8-5-21)11-17(29)15-2-3-18(22-10-15)28-13-23-24-25-28/h2-3,6,9-10,13,17,29H,4-5,7-8,11-12H2,1H3/t17-/m1/s1
InChIKey=MISZDVGWYBWDBE-QGZVFWFLSA-N

> <PUBCHEM_SUBSTANCE_SYNONYM>
SCHEMBL16122198

> <PUBCHEM_XREF_EXT_ID>
SCHEMBL16122198

> <PUBCHEM_EXT_DATASOURCE_URL>
https://www.surechembl.org/

> <PUBCHEM_EXT_SUBSTANCE_URL>
https://www.surechembl.org/chemical/SCHEMBL16122198

> <PUBCHEM_CID_ASSOCIATIONS>
86270692  1

> <PUBCHEM_COORDINATE_TYPE>
1
3

> <PUBCHEM_BONDANNOTATIONS>
25  4  5

$$$$
