310948597
  -OEChem-07211613022D

 34 38  0     1  0  0  0  0  0999 V2000
    5.6477   -1.1485    0.0000 O   0  0  0  0  0  0  0  0  0  0  0  0
    5.5846   -2.5367    0.0000 O   0  0  0  0  0  0  0  0  0  0  0  0
    2.2149    0.5048    0.0000 O   0  0  0  0  0  0  0  0  0  0  0  0
    0.0694    1.7543    0.0000 O   0  0  0  0  0  0  0  0  0  0  0  0
   -0.6374    0.5048    0.0000 N   0  0  0  0  0  0  0  0  0  0  0  0
   -2.0761    0.5048    0.0000 N   0  0  0  0  0  0  0  0  0  0  0  0
    0.8014   -0.3155    0.0000 N   0  0  3  0  0  0  0  0  0  0  0  0
   -5.6477    2.5367    0.0000 N   0  0  0  0  0  0  0  0  0  0  0  0
    4.3857   -0.7320    0.0000 C   0  0  0  0  0  0  0  0  0  0  0  0
    4.3731   -1.5523    0.0000 C   0  0  0  0  0  0  0  0  0  0  0  0
    3.6663   -0.3155    0.0000 C   0  0  0  0  0  0  0  0  0  0  0  0
    2.9469   -0.7320    0.0000 C   0  0  0  0  0  0  0  0  0  0  0  0
   -1.3694    0.9339    0.0000 C   0  0  0  0  0  0  0  0  0  0  0  0
    5.1681   -1.8047    0.0000 C   0  0  0  0  0  0  0  0  0  0  0  0
   -2.8081    0.9339    0.0000 C   0  0  0  0  0  0  0  0  0  0  0  0
    2.2402   -0.3155    0.0000 C   0  0  3  0  0  0  0  0  0  0  0  0
   -2.7955    1.7669    0.0000 C   0  0  0  0  0  0  0  0  0  0  0  0
    3.6663   -1.9688    0.0000 C   0  0  0  0  0  0  0  0  0  0  0  0
    5.1934   -0.4922    0.0000 C   0  0  0  0  0  0  0  0  0  0  0  0
    2.9596   -1.5523    0.0000 C   0  0  0  0  0  0  0  0  0  0  0  0
    0.0694    0.9087    0.0000 C   0  0  0  0  0  0  0  0  0  0  0  0
    1.5208   -0.7320    0.0000 C   0  0  0  0  0  0  0  0  0  0  0  0
   -1.3567    1.7543    0.0000 C   0  0  0  0  0  0  0  0  0  0  0  0
    0.8014    0.5048    0.0000 C   0  0  0  0  0  0  0  0  0  0  0  0
   -0.6247   -0.3282    0.0000 C   0  0  0  0  0  0  0  0  0  0  0  0
   -2.0761    2.1707    0.0000 C   0  0  0  0  0  0  0  0  0  0  0  0
   -3.5023    0.5174    0.0000 C   0  0  0  0  0  0  0  0  0  0  0  0
   -4.2217    1.7543    0.0000 C   0  0  0  0  0  0  0  0  0  0  0  0
   -3.5148    2.1581    0.0000 C   0  0  0  0  0  0  0  0  0  0  0  0
   -4.2342    0.9339    0.0000 C   0  0  0  0  0  0  0  0  0  0  0  0
    0.0820   -0.7320    0.0000 C   0  0  0  0  0  0  0  0  0  0  0  0
    3.6663    0.5048    0.0000 C   0  0  0  0  0  0  0  0  0  0  0  0
   -4.9536    2.1707    0.0000 C   0  0  0  0  0  0  0  0  0  0  0  0
   -4.9410    0.5048    0.0000 C   0  0  0  0  0  0  0  0  0  0  0  0
  1 14  1  0  0  0  0
  1 19  1  0  0  0  0
  2 14  2  0  0  0  0
 16  3  1  6  0  0  0
  4 21  2  0  0  0  0
  5 13  1  0  0  0  0
  5 21  1  0  0  0  0
  5 25  1  0  0  0  0
  6 13  1  0  0  0  0
  6 15  2  0  0  0  0
  7 22  1  0  0  0  0
  7 24  1  0  0  0  0
  7 31  1  0  0  0  0
  8 33  3  0  0  0  0
  9 10  1  0  0  0  0
  9 11  2  0  0  0  0
  9 19  1  0  0  0  0
 10 14  1  0  0  0  0
 10 18  2  0  0  0  0
 11 12  1  0  0  0  0
 11 32  1  0  0  0  0
 12 16  1  0  0  0  0
 12 20  2  0  0  0  0
 13 23  2  0  0  0  0
 15 17  1  0  0  0  0
 15 27  1  0  0  0  0
 16 22  1  0  0  0  0
 17 26  2  0  0  0  0
 17 29  1  0  0  0  0
 18 20  1  0  0  0  0
 21 24  1  0  0  0  0
 23 26  1  0  0  0  0
 25 31  1  0  0  0  0
 27 30  2  0  0  0  0
 28 29  2  0  0  0  0
 28 30  1  0  0  0  0
 28 33  1  0  0  0  0
 30 34  1  0  0  0  0
M  END
> <PUBCHEM_COMPOUND_ID_TYPE>
0

> <PUBCHEM_TOTAL_CHARGE>
0

> <PUBCHEM_SUBSTANCE_ID>
310948597

> <PUBCHEM_SUBSTANCE_VERSION>
1

> <PUBCHEM_EXT_DATASOURCE_NAME>
4488

> <PUBCHEM_EXT_DATASOURCE_REGID>
SCHEMBL16126780

> <PUBCHEM_SUBSTANCE_COMMENT>
InChI=1S/C26H24N4O4/c1-15-9-22-17(10-18(15)11-27)3-6-24(28-22)30-8-7-29(13-25(30)32)12-23(31)19-4-5-20-21(16(19)2)14-34-26(20)33/h3-6,9-10,23,31H,7-8,12-14H2,1-2H3/t23-/m0/s1
InChIKey=RMELKZVCFDERJK-QHCPKHFHSA-N

> <PUBCHEM_SUBSTANCE_SYNONYM>
SCHEMBL16126780

> <PUBCHEM_XREF_EXT_ID>
SCHEMBL16126780

> <PUBCHEM_EXT_DATASOURCE_URL>
https://www.surechembl.org/

> <PUBCHEM_EXT_SUBSTANCE_URL>
https://www.surechembl.org/chemical/SCHEMBL16126780

> <PUBCHEM_CID_ASSOCIATIONS>
71525780  1

> <PUBCHEM_COORDINATE_TYPE>
1
3

> <PUBCHEM_BONDANNOTATIONS>
16  3  6

$$$$
