310945517
  -OEChem-07211613022D

 27 30  0     0  0  0  0  0  0999 V2000
    2.9676    0.6448    0.0000 F   0  0  0  0  0  0  0  0  0  0  0  0
    2.4839   -0.3810    0.0000 F   0  0  0  0  0  0  0  0  0  0  0  0
    1.4435    0.1026    0.0000 F   0  0  0  0  0  0  0  0  0  0  0  0
   -2.3960    1.6999    0.0000 O   0  0  0  0  0  0  0  0  0  0  0  0
   -0.3297   -2.8430    0.0000 O   0  0  0  0  0  0  0  0  0  0  0  0
    0.4177    0.9525    0.0000 N   0  0  0  0  0  0  0  0  0  0  0  0
    2.4400    1.8758    0.0000 N   0  0  0  0  0  0  0  0  0  0  0  0
   -0.3444   -1.1577    0.0000 N   0  0  0  0  0  0  0  0  0  0  0  0
    1.0771    1.4654    0.0000 C   0  0  0  0  0  0  0  0  0  0  0  0
    0.8280    2.2274    0.0000 C   0  0  0  0  0  0  0  0  0  0  0  0
    0.0074    2.2421    0.0000 C   0  0  0  0  0  0  0  0  0  0  0  0
   -0.2711    1.4361    0.0000 C   0  0  0  0  0  0  0  0  0  0  0  0
    1.8831    1.2456    0.0000 C   0  0  0  0  0  0  0  0  0  0  0  0
    2.1908    0.3810    0.0000 C   0  0  0  0  0  0  0  0  0  0  0  0
    1.3848    2.8430    0.0000 C   0  0  0  0  0  0  0  0  0  0  0  0
   -1.0478    1.2749    0.0000 C   0  0  0  0  0  0  0  0  0  0  0  0
   -0.5349    2.8283    0.0000 C   0  0  0  0  0  0  0  0  0  0  0  0
    0.4030    0.0733    0.0000 C   0  0  0  0  0  0  0  0  0  0  0  0
   -1.6046    1.8904    0.0000 C   0  0  0  0  0  0  0  0  0  0  0  0
    2.1908    2.6671    0.0000 C   0  0  0  0  0  0  0  0  0  0  0  0
   -1.3409    2.6671    0.0000 C   0  0  0  0  0  0  0  0  0  0  0  0
   -0.3297   -0.3224    0.0000 C   0  0  0  0  0  0  0  0  0  0  0  0
   -1.0478   -1.5827    0.0000 C   0  0  0  0  0  0  0  0  0  0  0  0
    0.3737   -1.5827    0.0000 C   0  0  0  0  0  0  0  0  0  0  0  0
   -2.9676    2.3154    0.0000 C   0  0  0  0  0  0  0  0  0  0  0  0
   -1.0478   -2.4033    0.0000 C   0  0  0  0  0  0  0  0  0  0  0  0
    0.3737   -2.4033    0.0000 C   0  0  0  0  0  0  0  0  0  0  0  0
  1 14  1  0  0  0  0
  2 14  1  0  0  0  0
  3 14  1  0  0  0  0
  4 19  1  0  0  0  0
  4 25  1  0  0  0  0
  5 26  1  0  0  0  0
  5 27  1  0  0  0  0
  6  9  1  0  0  0  0
  6 12  1  0  0  0  0
  6 18  1  0  0  0  0
  7 13  2  0  0  0  0
  7 20  1  0  0  0  0
  8 22  1  0  0  0  0
  8 23  1  0  0  0  0
  8 24  1  0  0  0  0
  9 10  2  0  0  0  0
  9 13  1  0  0  0  0
 10 11  1  0  0  0  0
 10 15  1  0  0  0  0
 11 12  2  0  0  0  0
 11 17  1  0  0  0  0
 12 16  1  0  0  0  0
 13 14  1  0  0  0  0
 15 20  2  0  0  0  0
 16 19  2  0  0  0  0
 17 21  2  0  0  0  0
 18 22  1  0  0  0  0
 19 21  1  0  0  0  0
 23 26  1  0  0  0  0
 24 27  1  0  0  0  0
M  END
> <PUBCHEM_COMPOUND_ID_TYPE>
0

> <PUBCHEM_TOTAL_CHARGE>
0

> <PUBCHEM_SUBSTANCE_ID>
310945517

> <PUBCHEM_SUBSTANCE_VERSION>
1

> <PUBCHEM_EXT_DATASOURCE_NAME>
4488

> <PUBCHEM_EXT_DATASOURCE_REGID>
SCHEMBL16123615

> <PUBCHEM_SUBSTANCE_COMMENT>
InChI=1S/C19H20F3N3O2/c1-26-13-2-3-14-15-4-5-23-18(19(20,21)22)17(15)25(16(14)12-13)7-6-24-8-10-27-11-9-24/h2-5,12H,6-11H2,1H3
InChIKey=HQNUHDPVMZYMQK-UHFFFAOYSA-N

> <PUBCHEM_SUBSTANCE_SYNONYM>
SCHEMBL16123615

> <PUBCHEM_XREF_EXT_ID>
SCHEMBL16123615

> <PUBCHEM_EXT_DATASOURCE_URL>
https://www.surechembl.org/

> <PUBCHEM_EXT_SUBSTANCE_URL>
https://www.surechembl.org/chemical/SCHEMBL16123615

> <PUBCHEM_CID_ASSOCIATIONS>
117611558  1

> <PUBCHEM_COORDINATE_TYPE>
1
3

$$$$
