310929691
  -OEChem-07211613022D

 59 66  0     1  0  0  0  0  0999 V2000
    4.6765   -0.9034    0.0000 S   0  0  0  0  0  0  0  0  0  0  0  0
    4.3046   -2.4977    0.0000 O   0  0  0  0  0  0  0  0  0  0  0  0
    4.8891   -1.7006    0.0000 O   0  0  0  0  0  0  0  0  0  0  0  0
    4.4108   -0.1063    0.0000 O   0  0  0  0  0  0  0  0  0  0  0  0
    4.2514   -3.1355    0.0000 O   0  0  0  0  0  0  0  0  0  0  0  0
    5.3143   -5.4737    0.0000 O   0  0  0  0  0  0  0  0  0  0  0  0
    1.4880   -3.9325    0.0000 O   0  0  0  0  0  0  0  0  0  0  0  0
    6.3771   -8.2903    0.0000 O   0  0  0  0  0  0  0  0  0  0  0  0
    0.9034   -7.4931    0.0000 O   0  0  0  0  0  0  0  0  0  0  0  0
    0.0000   -6.6429    0.0000 O   0  0  0  0  0  0  0  0  0  0  0  0
    2.8166   -2.9760    0.0000 N   0  0  0  0  0  0  0  0  0  0  0  0
    3.8794   -1.1691    0.0000 N   0  0  0  0  0  0  0  0  0  0  0  0
    2.6572   -4.2514    0.0000 N   0  0  0  0  0  0  0  0  0  0  0  0
    6.3240   -5.8457    0.0000 N   0  0  0  0  0  0  0  0  0  0  0  0
    0.9034   -5.8457    0.0000 N   0  0  0  0  0  0  0  0  0  0  0  0
    7.1211  -10.6286    0.0000 N   0  0  0  0  0  0  0  0  0  0  0  0
    2.9229   -2.1789    0.0000 C   0  0  3  0  0  0  0  0  0  0  0  0
    2.2320   -1.7537    0.0000 C   0  0  3  0  0  0  0  0  0  0  0  0
    2.8697   -1.3285    0.0000 C   0  0  0  0  0  0  0  0  0  0  0  0
    3.6668   -1.9132    0.0000 C   0  0  0  0  0  0  0  0  0  0  0  0
    5.4206   -0.6908    0.0000 C   0  0  0  0  0  0  0  0  0  0  0  0
    3.5074   -3.4543    0.0000 C   0  0  0  0  0  0  0  0  0  0  0  0
    1.3817   -1.8068    0.0000 C   0  0  0  0  0  0  0  0  0  0  0  0
    3.4011   -4.2514    0.0000 C   0  0  3  0  0  0  0  0  0  0  0  0
    6.0051   -0.1063    0.0000 C   0  0  0  0  0  0  0  0  0  0  0  0
    6.2177   -0.9034    0.0000 C   0  0  0  0  0  0  0  0  0  0  0  0
    4.9954    0.0000    0.0000 C   0  0  0  0  0  0  0  0  0  0  0  0
    4.1983   -4.4640    0.0000 C   0  0  0  0  0  0  0  0  0  0  0  0
    4.8891   -4.7829    0.0000 C   0  0  3  0  0  0  0  0  0  0  0  0
    1.9132   -4.6234    0.0000 C   0  0  0  0  0  0  0  0  0  0  0  0
    3.9325   -3.8794    0.0000 C   0  0  0  0  0  0  0  0  0  0  0  0
    1.2754   -5.2080    0.0000 C   0  0  3  0  0  0  0  0  0  0  0  0
    1.0097   -2.5508    0.0000 C   0  0  0  0  0  0  0  0  0  0  0  0
    5.5800   -6.2708    0.0000 C   0  0  0  0  0  0  0  0  0  0  0  0
    5.5800   -7.0148    0.0000 C   0  0  0  0  0  0  0  0  0  0  0  0
    6.3240   -7.4931    0.0000 C   0  0  0  0  0  0  0  0  0  0  0  0
    0.6377   -4.6765    0.0000 C   0  0  0  0  0  0  0  0  0  0  0  0
    6.9617   -7.0148    0.0000 C   0  0  0  0  0  0  0  0  0  0  0  0
    6.9617   -6.2708    0.0000 C   0  0  0  0  0  0  0  0  0  0  0  0
    5.3143   -7.8652    0.0000 C   0  0  0  0  0  0  0  0  0  0  0  0
    0.7972   -6.6429    0.0000 C   0  0  0  0  0  0  0  0  0  0  0  0
    7.7057   -7.4931    0.0000 C   0  0  0  0  0  0  0  0  0  0  0  0
    7.7057   -5.8457    0.0000 C   0  0  0  0  0  0  0  0  0  0  0  0
    1.2754   -8.1308    0.0000 C   0  0  3  0  0  0  0  0  0  0  0  0
    1.9132   -8.6622    0.0000 C   0  0  3  0  0  0  0  0  0  0  0  0
    1.1691   -4.0389    0.0000 C   0  0  0  0  0  0  0  0  0  0  0  0
    0.0532   -4.1451    0.0000 C   0  0  0  0  0  0  0  0  0  0  0  0
    0.1594   -5.2612    0.0000 C   0  0  0  0  0  0  0  0  0  0  0  0
    1.1160   -8.9280    0.0000 C   0  0  0  0  0  0  0  0  0  0  0  0
    8.4497   -7.0148    0.0000 C   0  0  0  0  0  0  0  0  0  0  0  0
    8.4497   -6.2708    0.0000 C   0  0  0  0  0  0  0  0  0  0  0  0
    7.0680   -8.6622    0.0000 C   0  0  0  0  0  0  0  0  0  0  0  0
    4.8891   -8.5028    0.0000 C   0  0  0  0  0  0  0  0  0  0  0  0
    2.6572   -9.0343    0.0000 C   0  0  0  0  0  0  0  0  0  0  0  0
    7.0680   -9.5126    0.0000 C   0  0  0  0  0  0  0  0  0  0  0  0
    4.1983   -8.8748    0.0000 C   0  0  0  0  0  0  0  0  0  0  0  0
    3.4011   -9.0343    0.0000 C   0  0  0  0  0  0  0  0  0  0  0  0
    6.5365  -10.0971    0.0000 C   0  0  0  0  0  0  0  0  0  0  0  0
    7.7057  -10.0440    0.0000 C   0  0  0  0  0  0  0  0  0  0  0  0
  1  3  2  0  0  0  0
  1  4  2  0  0  0  0
  1 12  1  0  0  0  0
  1 21  1  0  0  0  0
  2 20  2  0  0  0  0
  5 22  2  0  0  0  0
  6 29  1  0  0  0  0
  6 34  1  0  0  0  0
  7 30  2  0  0  0  0
  8 36  1  0  0  0  0
  8 52  1  0  0  0  0
  9 41  1  0  0  0  0
  9 44  1  0  0  0  0
 10 41  2  0  0  0  0
 17 11  1  1  0  0  0
 11 22  1  0  0  0  0
 12 20  1  0  0  0  0
 13 24  1  0  0  0  0
 13 30  1  0  0  0  0
 13 31  1  0  0  0  0
 14 34  1  0  0  0  0
 14 39  2  0  0  0  0
 15 32  1  0  0  0  0
 15 41  1  0  0  0  0
 16 58  1  0  0  0  0
 16 59  1  0  0  0  0
 17 18  1  0  0  0  0
 17 19  1  0  0  0  0
 17 20  1  6  0  0  0
 18 19  1  0  0  0  0
 18 23  1  6  0  0  0
 21 25  1  0  0  0  0
 21 26  1  0  0  0  0
 21 27  1  0  0  0  0
 24 22  1  6  0  0  0
 23 33  2  0  0  0  0
 24 28  1  0  0  0  0
 25 26  1  0  0  0  0
 29 28  1  1  0  0  0
 29 31  1  0  0  0  0
 30 32  1  0  0  0  0
 32 37  1  1  0  0  0
 34 35  2  0  0  0  0
 35 36  1  0  0  0  0
 35 40  1  0  0  0  0
 36 38  2  0  0  0  0
 37 46  1  0  0  0  0
 37 47  1  0  0  0  0
 37 48  1  0  0  0  0
 38 39  1  0  0  0  0
 38 42  1  0  0  0  0
 39 43  1  0  0  0  0
 40 53  1  0  0  0  0
 42 50  2  0  0  0  0
 43 51  2  0  0  0  0
 44 45  1  0  0  0  0
 44 49  1  1  0  0  0
 45 49  1  6  0  0  0
 45 54  1  0  0  0  0
 50 51  1  0  0  0  0
 52 55  1  0  0  0  0
 53 56  1  0  0  0  0
 54 57  1  0  0  0  0
 55 58  1  0  0  0  0
 55 59  1  0  0  0  0
 56 57  1  0  0  0  0
M  END
> <PUBCHEM_COMPOUND_ID_TYPE>
0

> <PUBCHEM_TOTAL_CHARGE>
0

> <PUBCHEM_SUBSTANCE_ID>
310929691

> <PUBCHEM_SUBSTANCE_VERSION>
1

> <PUBCHEM_EXT_DATASOURCE_NAME>
4488

> <PUBCHEM_EXT_DATASOURCE_REGID>
SCHEMBL16106883

> <PUBCHEM_SUBSTANCE_COMMENT>
InChI=1S/C43H58N6O9S/c1-6-27-20-43(27,39(52)48-59(54,55)42(5)16-17-42)47-36(50)32-19-28-23-49(32)38(51)35(41(2,3)4)46-40(53)58-33-18-26(33)12-8-7-9-14-30-34(56-24-25-21-44-22-25)29-13-10-11-15-31(29)45-37(30)57-28/h6,10-11,13,15,25-28,32-33,35,44H,1,7-9,12,14,16-24H2,2-5H3,(H,46,53)(H,47,50)(H,48,52)/t26-,27-,28-,32+,33-,35-,43-/m1/s1
InChIKey=QQIIHWMTWHQOAJ-WTMCHKQBSA-N

> <PUBCHEM_SUBSTANCE_SYNONYM>
SCHEMBL16106883

> <PUBCHEM_XREF_EXT_ID>
SCHEMBL16106883

> <PUBCHEM_EXT_DATASOURCE_URL>
https://www.surechembl.org/

> <PUBCHEM_EXT_SUBSTANCE_URL>
https://www.surechembl.org/chemical/SCHEMBL16106883

> <PUBCHEM_CID_ASSOCIATIONS>
117598989  1

> <PUBCHEM_COORDINATE_TYPE>
1
3

> <PUBCHEM_BONDANNOTATIONS>
17  11  5
17  20  6
18  23  6
24  22  6
29  28  5
32  37  5
44  49  5
45  49  6

$$$$
