310944561
  -OEChem-07211613022D

 27 28  0     0  0  0  0  0  0999 V2000
   -4.7415    1.6552    0.0000 Cl  0  0  0  0  0  0  0  0  0  0  0  0
   -4.7415    0.0000    0.0000 Cl  0  0  0  0  0  0  0  0  0  0  0  0
   -1.7050    0.0000    0.0000 O   0  0  0  0  0  0  0  0  0  0  0  0
   -0.2738    2.4890    0.0000 O   0  0  0  0  0  0  0  0  0  0  0  0
    3.3227    0.4107    0.0000 O   0  0  0  0  0  0  0  0  0  0  0  0
    2.6010   -2.4890    0.0000 O   0  0  0  0  0  0  0  0  0  0  0  0
    0.4605    1.2445    0.0000 N   0  0  0  0  0  0  0  0  0  0  0  0
    1.9040    0.4232    0.0000 N   0  0  0  0  0  0  0  0  0  0  0  0
   -1.6925    1.6677    0.0000 N   0  0  0  0  0  0  0  0  0  0  0  0
    3.4596   -1.2445    0.0000 N   0  0  0  0  0  0  0  0  0  0  0  0
   -2.4143    1.2569    0.0000 C   0  0  0  0  0  0  0  0  0  0  0  0
   -2.4267    0.4232    0.0000 C   0  0  0  0  0  0  0  0  0  0  0  0
   -0.2738    1.6552    0.0000 C   0  0  0  0  0  0  0  0  0  0  0  0
   -3.8455    1.2445    0.0000 C   0  0  0  0  0  0  0  0  0  0  0  0
   -3.8580    0.4232    0.0000 C   0  0  0  0  0  0  0  0  0  0  0  0
   -3.1236    1.6552    0.0000 C   0  0  0  0  0  0  0  0  0  0  0  0
   -3.1361    0.0125    0.0000 C   0  0  0  0  0  0  0  0  0  0  0  0
    1.1823    1.6677    0.0000 C   0  0  0  0  0  0  0  0  0  0  0  0
    0.4729    0.4107    0.0000 C   0  0  0  0  0  0  0  0  0  0  0  0
    2.6010    0.0000    0.0000 C   0  0  0  0  0  0  0  0  0  0  0  0
   -0.9707    1.2445    0.0000 C   0  0  0  0  0  0  0  0  0  0  0  0
    1.8916    1.2569    0.0000 C   0  0  0  0  0  0  0  0  0  0  0  0
    1.1823    0.0000    0.0000 C   0  0  0  0  0  0  0  0  0  0  0  0
    2.6134   -0.8214    0.0000 C   0  0  0  0  0  0  0  0  0  0  0  0
    3.3352   -2.0658    0.0000 C   0  0  0  0  0  0  0  0  0  0  0  0
    4.0570   -2.4890    0.0000 C   0  0  0  0  0  0  0  0  0  0  0  0
    4.7415   -2.0285    0.0000 C   0  0  0  0  0  0  0  0  0  0  0  0
  1 14  1  0  0  0  0
  2 15  1  0  0  0  0
  3 12  1  0  0  0  0
  4 13  2  0  0  0  0
  5 20  2  0  0  0  0
  6 25  2  0  0  0  0
  7 13  1  0  0  0  0
  7 18  1  0  0  0  0
  7 19  1  0  0  0  0
  8 20  1  0  0  0  0
  8 22  1  0  0  0  0
  8 23  1  0  0  0  0
  9 11  1  0  0  0  0
  9 21  1  0  0  0  0
 10 24  1  0  0  0  0
 10 25  1  0  0  0  0
 11 12  1  0  0  0  0
 11 16  2  0  0  0  0
 12 17  2  0  0  0  0
 13 21  1  0  0  0  0
 14 15  2  0  0  0  0
 14 16  1  0  0  0  0
 15 17  1  0  0  0  0
 18 22  1  0  0  0  0
 19 23  1  0  0  0  0
 20 24  1  0  0  0  0
 25 26  1  0  0  0  0
 26 27  2  0  0  0  0
M  END
> <PUBCHEM_COMPOUND_ID_TYPE>
0

> <PUBCHEM_TOTAL_CHARGE>
0

> <PUBCHEM_SUBSTANCE_ID>
310944561

> <PUBCHEM_SUBSTANCE_VERSION>
1

> <PUBCHEM_EXT_DATASOURCE_NAME>
4488

> <PUBCHEM_EXT_DATASOURCE_REGID>
SCHEMBL16122638

> <PUBCHEM_SUBSTANCE_COMMENT>
InChI=1S/C17H20Cl2N4O4/c1-2-15(25)21-10-17(27)23-5-3-22(4-6-23)16(26)9-20-13-7-11(18)12(19)8-14(13)24/h2,7-8,20,24H,1,3-6,9-10H2,(H,21,25)
InChIKey=XTFIRYYJOYQPTB-UHFFFAOYSA-N

> <PUBCHEM_SUBSTANCE_SYNONYM>
SCHEMBL16122638

> <PUBCHEM_XREF_EXT_ID>
SCHEMBL16122638

> <PUBCHEM_EXT_DATASOURCE_URL>
https://www.surechembl.org/

> <PUBCHEM_EXT_SUBSTANCE_URL>
https://www.surechembl.org/chemical/SCHEMBL16122638

> <PUBCHEM_CID_ASSOCIATIONS>
117610796  1

> <PUBCHEM_COORDINATE_TYPE>
1
3

$$$$
