310938899
  -OEChem-07211613022D

 32 35  0     1  0  0  0  0  0999 V2000
   -1.8030   -1.8098    0.0000 Br  0  0  0  0  0  0  0  0  0  0  0  0
   -3.8076    3.1401    0.0000 F   0  0  0  0  0  0  0  0  0  0  0  0
   -4.6607    3.9932    0.0000 F   0  0  0  0  0  0  0  0  0  0  0  0
   -5.5139    3.1401    0.0000 F   0  0  0  0  0  0  0  0  0  0  0  0
   -3.2318    3.1401    0.0000 O   0  0  0  0  0  0  0  0  0  0  0  0
   -2.5173    1.9027    0.0000 N   0  0  0  0  0  0  0  0  0  0  0  0
   -1.8030   -0.1599    0.0000 N   0  0  0  0  0  0  0  0  0  0  0  0
   -0.3740   -0.1599    0.0000 N   0  0  0  0  0  0  0  0  0  0  0  0
    0.3404   -1.3973    0.0000 N   0  0  0  0  0  0  0  0  0  0  0  0
    1.0549   -0.1599    0.0000 N   0  0  0  0  0  0  0  0  0  0  0  0
   -3.9463    1.9027    0.0000 C   0  0  0  0  0  0  0  0  0  0  0  0
   -3.2318    2.3151    0.0000 C   0  0  0  0  0  0  0  0  0  0  0  0
   -2.5173    1.0776    0.0000 C   0  0  0  0  0  0  0  0  0  0  0  0
   -3.9463    1.0776    0.0000 C   0  0  0  0  0  0  0  0  0  0  0  0
   -4.6607    2.3151    0.0000 C   0  0  0  0  0  0  0  0  0  0  0  0
   -3.2318    0.6651    0.0000 C   0  0  0  0  0  0  0  0  0  0  0  0
   -1.8030    2.3151    0.0000 C   0  0  0  0  0  0  0  0  0  0  0  0
   -4.6607    3.1401    0.0000 C   0  0  0  0  0  0  0  0  0  0  0  0
   -1.8030    0.6651    0.0000 C   0  0  3  0  0  0  0  0  0  0  0  0
   -4.6607    0.6651    0.0000 C   0  0  0  0  0  0  0  0  0  0  0  0
   -5.3752    1.9027    0.0000 C   0  0  0  0  0  0  0  0  0  0  0  0
   -5.3752    1.0776    0.0000 C   0  0  0  0  0  0  0  0  0  0  0  0
   -1.0885    1.9027    0.0000 C   0  0  0  0  0  0  0  0  0  0  0  0
   -1.8030    3.1401    0.0000 C   0  0  0  0  0  0  0  0  0  0  0  0
   -1.0885   -0.5724    0.0000 C   0  0  0  0  0  0  0  0  0  0  0  0
   -1.0885    1.0776    0.0000 C   0  0  0  0  0  0  0  0  0  0  0  0
   -1.0885   -1.3973    0.0000 C   0  0  0  0  0  0  0  0  0  0  0  0
   -0.3740    2.3151    0.0000 C   0  0  0  0  0  0  0  0  0  0  0  0
   -1.0885    3.5526    0.0000 C   0  0  0  0  0  0  0  0  0  0  0  0
    0.3404   -0.5724    0.0000 C   0  0  0  0  0  0  0  0  0  0  0  0
   -0.3740    3.1401    0.0000 C   0  0  0  0  0  0  0  0  0  0  0  0
   -0.3740   -1.8098    0.0000 C   0  0  0  0  0  0  0  0  0  0  0  0
  1 27  1  0  0  0  0
  2 18  1  0  0  0  0
  3 18  1  0  0  0  0
  4 18  1  0  0  0  0
  5 12  2  0  0  0  0
  6 12  1  0  0  0  0
  6 13  1  0  0  0  0
  6 17  1  0  0  0  0
  7 19  1  0  0  0  0
  7 25  1  0  0  0  0
  8 25  1  0  0  0  0
  8 30  2  0  0  0  0
  9 30  1  0  0  0  0
  9 32  2  0  0  0  0
 10 30  1  0  0  0  0
 11 12  1  0  0  0  0
 11 14  1  0  0  0  0
 11 15  2  0  0  0  0
 13 16  2  0  0  0  0
 13 19  1  0  0  0  0
 14 16  1  0  0  0  0
 14 20  2  0  0  0  0
 15 18  1  0  0  0  0
 15 21  1  0  0  0  0
 17 23  2  0  0  0  0
 17 24  1  0  0  0  0
 19 26  1  6  0  0  0
 20 22  1  0  0  0  0
 21 22  2  0  0  0  0
 23 28  1  0  0  0  0
 24 29  2  0  0  0  0
 25 27  2  0  0  0  0
 27 32  1  0  0  0  0
 28 31  2  0  0  0  0
 29 31  1  0  0  0  0
M  END
> <PUBCHEM_COMPOUND_ID_TYPE>
0

> <PUBCHEM_TOTAL_CHARGE>
0

> <PUBCHEM_SUBSTANCE_ID>
310938899

> <PUBCHEM_SUBSTANCE_VERSION>
1

> <PUBCHEM_EXT_DATASOURCE_NAME>
4488

> <PUBCHEM_EXT_DATASOURCE_REGID>
SCHEMBL16116818

> <PUBCHEM_SUBSTANCE_COMMENT>
InChI=1S/C22H17BrF3N5O/c1-12(29-19-16(23)11-28-21(27)30-19)17-10-13-6-5-9-15(22(24,25)26)18(13)20(32)31(17)14-7-3-2-4-8-14/h2-12H,1H3,(H3,27,28,29,30)/t12-/m0/s1
InChIKey=LBRQAEPYUHUVEE-LBPRGKRZSA-N

> <PUBCHEM_SUBSTANCE_SYNONYM>
SCHEMBL16116818

> <PUBCHEM_XREF_EXT_ID>
SCHEMBL16116818

> <PUBCHEM_EXT_DATASOURCE_URL>
https://www.surechembl.org/

> <PUBCHEM_EXT_SUBSTANCE_URL>
https://www.surechembl.org/chemical/SCHEMBL16116818

> <PUBCHEM_CID_ASSOCIATIONS>
117606296  1

> <PUBCHEM_COORDINATE_TYPE>
1
3

> <PUBCHEM_BONDANNOTATIONS>
19  26  6

$$$$
