310946005
  -OEChem-07211613022D

 38 40  0     1  0  0  0  0  0999 V2000
    5.2309    0.9769    0.0000 O   0  0  0  0  0  0  0  0  0  0  0  0
    4.0946   -0.9769    0.0000 O   0  0  0  0  0  0  0  0  0  0  0  0
    1.7113    0.9630    0.0000 O   0  0  0  0  0  0  0  0  0  0  0  0
   -0.4642   -1.1016    0.0000 O   0  0  0  0  0  0  0  0  0  0  0  0
    3.8729   -2.7644    0.0000 O   0  0  0  0  0  0  0  0  0  0  0  0
   -2.6258    0.9630    0.0000 O   0  0  0  0  0  0  0  0  0  0  0  0
   -4.0669    0.1316    0.0000 O   0  0  0  0  0  0  0  0  0  0  0  0
    2.4318   -0.2702    0.0000 N   0  0  0  0  0  0  0  0  0  0  0  0
    0.2702    0.1455    0.0000 N   0  0  0  0  0  0  0  0  0  0  0  0
   -1.9053   -0.2702    0.0000 N   0  0  0  0  0  0  0  0  0  0  0  0
    4.8013    0.3118    0.0000 C   0  0  3  0  0  0  0  0  0  0  0  0
    4.0807   -0.1177    0.0000 C   0  0  0  0  0  0  0  0  0  0  0  0
    4.4272    0.9907    0.0000 C   0  0  0  0  0  0  0  0  0  0  0  0
    3.3602    0.2840    0.0000 C   0  0  3  0  0  0  0  0  0  0  0  0
    5.5219   -0.1177    0.0000 C   0  0  0  0  0  0  0  0  0  0  0  0
    3.3740    1.3649    0.0000 C   0  0  0  0  0  0  0  0  0  0  0  0
    1.7113    0.1455    0.0000 C   0  0  0  0  0  0  0  0  0  0  0  0
    1.0046   -0.2425    0.0000 C   0  0  3  0  0  0  0  0  0  0  0  0
    2.6397    1.7944    0.0000 C   0  0  0  0  0  0  0  0  0  0  0  0
    0.9769   -1.0739    0.0000 C   0  0  0  0  0  0  0  0  0  0  0  0
    1.7251   -1.4896    0.0000 C   0  0  0  0  0  0  0  0  0  0  0  0
   -0.4503   -0.2286    0.0000 C   0  0  0  0  0  0  0  0  0  0  0  0
    1.9053    1.4480    0.0000 C   0  0  0  0  0  0  0  0  0  0  0  0
    2.5565    2.5981    0.0000 C   0  0  0  0  0  0  0  0  0  0  0  0
   -1.1847    0.1593    0.0000 C   0  0  3  0  0  0  0  0  0  0  0  0
    1.3510    2.0439    0.0000 C   0  0  0  0  0  0  0  0  0  0  0  0
    1.7528    2.7644    0.0000 C   0  0  0  0  0  0  0  0  0  0  0  0
    1.7251   -2.3210    0.0000 C   0  0  0  0  0  0  0  0  0  0  0  0
    2.4318   -1.1016    0.0000 C   0  0  0  0  0  0  0  0  0  0  0  0
    3.1524   -2.3072    0.0000 C   0  0  0  0  0  0  0  0  0  0  0  0
    2.4318   -2.7228    0.0000 C   0  0  0  0  0  0  0  0  0  0  0  0
    3.1524   -1.5035    0.0000 C   0  0  0  0  0  0  0  0  0  0  0  0
   -2.6258    0.1455    0.0000 C   0  0  0  0  0  0  0  0  0  0  0  0
   -1.1709    0.9769    0.0000 C   0  0  0  0  0  0  0  0  0  0  0  0
   -3.3325   -0.2425    0.0000 C   0  0  0  0  0  0  0  0  0  0  0  0
    4.6212   -2.3349    0.0000 C   0  0  0  0  0  0  0  0  0  0  0  0
   -4.7736   -0.2425    0.0000 C   0  0  0  0  0  0  0  0  0  0  0  0
   -5.5219    0.1593    0.0000 C   0  0  0  0  0  0  0  0  0  0  0  0
  1 11  1  0  0  0  0
  1 13  1  0  0  0  0
  2 12  2  0  0  0  0
  3 17  2  0  0  0  0
  4 22  2  0  0  0  0
  5 30  1  0  0  0  0
  5 36  1  0  0  0  0
  6 33  2  0  0  0  0
  7 35  1  0  0  0  0
  7 37  1  0  0  0  0
 14  8  1  1  0  0  0
  8 17  1  0  0  0  0
 18  9  1  6  0  0  0
  9 22  1  0  0  0  0
 10 25  1  0  0  0  0
 10 33  1  0  0  0  0
 11 12  1  1  0  0  0
 11 13  1  0  0  0  0
 11 15  1  6  0  0  0
 12 14  1  0  0  0  0
 14 16  1  0  0  0  0
 16 19  1  0  0  0  0
 17 18  1  0  0  0  0
 18 20  1  0  0  0  0
 19 23  1  0  0  0  0
 19 24  1  0  0  0  0
 20 21  1  0  0  0  0
 21 28  2  0  0  0  0
 21 29  1  0  0  0  0
 22 25  1  0  0  0  0
 23 26  1  0  0  0  0
 24 27  1  0  0  0  0
 25 34  1  6  0  0  0
 26 27  1  0  0  0  0
 28 31  1  0  0  0  0
 29 32  2  0  0  0  0
 30 31  2  0  0  0  0
 30 32  1  0  0  0  0
 33 35  1  0  0  0  0
 37 38  1  0  0  0  0
M  END
> <PUBCHEM_COMPOUND_ID_TYPE>
0

> <PUBCHEM_TOTAL_CHARGE>
0

> <PUBCHEM_SUBSTANCE_ID>
310946005

> <PUBCHEM_SUBSTANCE_VERSION>
1

> <PUBCHEM_EXT_DATASOURCE_NAME>
4488

> <PUBCHEM_EXT_DATASOURCE_REGID>
SCHEMBL16124111

> <PUBCHEM_SUBSTANCE_COMMENT>
InChI=1S/C28H41N3O7/c1-5-37-16-24(32)29-18(2)26(34)31-23(15-20-10-12-21(36-4)13-11-20)27(35)30-22(14-19-8-6-7-9-19)25(33)28(3)17-38-28/h10-13,18-19,22-23H,5-9,14-17H2,1-4H3,(H,29,32)(H,30,35)(H,31,34)/t18-,22+,23+,28-/m1/s1
InChIKey=VJDQTUZHKCHFRE-UXRIKBPLSA-N

> <PUBCHEM_SUBSTANCE_SYNONYM>
SCHEMBL16124111

> <PUBCHEM_XREF_EXT_ID>
SCHEMBL16124111

> <PUBCHEM_EXT_DATASOURCE_URL>
https://www.surechembl.org/

> <PUBCHEM_EXT_SUBSTANCE_URL>
https://www.surechembl.org/chemical/SCHEMBL16124111

> <PUBCHEM_CID_ASSOCIATIONS>
117611976  1

> <PUBCHEM_COORDINATE_TYPE>
1
3

> <PUBCHEM_BONDANNOTATIONS>
11  12  5
11  15  6
25  34  6
14  8  5
18  9  6

$$$$
