310931470
  -OEChem-07211613022D

 37 41  0     1  0  0  0  0  0999 V2000
    7.1098   -5.8364    0.0000 F   0  0  0  0  0  0  0  0  0  0  0  0
    0.0000   -5.8364    0.0000 F   0  0  0  0  0  0  0  0  0  0  0  0
    0.7428   -7.0745    0.0000 F   0  0  0  0  0  0  0  0  0  0  0  0
    0.0000   -6.6500    0.0000 F   0  0  0  0  0  0  0  0  0  0  0  0
    5.6950   -5.8364    0.0000 O   0  0  0  0  0  0  0  0  0  0  0  0
    2.1577   -6.2609    0.0000 O   0  0  0  0  0  0  0  0  0  0  0  0
    4.9875   -4.5984    0.0000 N   0  0  0  0  0  0  0  0  0  0  0  0
    5.6950   -3.3603    0.0000 N   0  0  0  0  0  0  0  0  0  0  0  0
    4.2801   -2.5468    0.0000 N   0  0  0  0  0  0  0  0  0  0  0  0
    2.9005   -2.5468    0.0000 N   0  0  0  0  0  0  0  0  0  0  0  0
    2.1577   -1.3088    0.0000 N   0  0  0  0  0  0  0  0  0  0  0  0
    3.0420   -0.1061    0.0000 N   0  0  0  0  0  0  0  0  0  0  0  0
    4.9875   -3.7848    0.0000 C   0  0  0  0  0  0  0  0  0  0  0  0
    6.4377   -4.5984    0.0000 C   0  0  0  0  0  0  0  0  0  0  0  0
    5.6950   -5.0229    0.0000 C   0  0  0  0  0  0  0  0  0  0  0  0
    6.4377   -3.7848    0.0000 C   0  0  0  0  0  0  0  0  0  0  0  0
    4.2801   -5.0229    0.0000 C   0  0  0  0  0  0  0  0  0  0  0  0
    4.2801   -3.3603    0.0000 C   0  0  3  0  0  0  0  0  0  0  0  0
    7.1098   -5.0229    0.0000 C   0  0  0  0  0  0  0  0  0  0  0  0
    7.1098   -3.3603    0.0000 C   0  0  0  0  0  0  0  0  0  0  0  0
    3.5726   -2.1577    0.0000 C   0  0  0  0  0  0  0  0  0  0  0  0
    3.6080   -1.3088    0.0000 C   0  0  0  0  0  0  0  0  0  0  0  0
    4.2801   -5.8364    0.0000 C   0  0  0  0  0  0  0  0  0  0  0  0
    3.7495   -4.7752    0.0000 C   0  0  0  0  0  0  0  0  0  0  0  0
    7.8173   -4.5984    0.0000 C   0  0  0  0  0  0  0  0  0  0  0  0
    2.8652   -0.8843    0.0000 C   0  0  0  0  0  0  0  0  0  0  0  0
    3.5726   -3.7848    0.0000 C   0  0  0  0  0  0  0  0  0  0  0  0
    7.8173   -3.7848    0.0000 C   0  0  0  0  0  0  0  0  0  0  0  0
    2.8652   -5.8364    0.0000 C   0  0  0  0  0  0  0  0  0  0  0  0
    3.5726   -6.2609    0.0000 C   0  0  0  0  0  0  0  0  0  0  0  0
    2.8652   -5.0229    0.0000 C   0  0  0  0  0  0  0  0  0  0  0  0
    4.2093   -0.7428    0.0000 C   0  0  0  0  0  0  0  0  0  0  0  0
    2.1577   -2.1223    0.0000 C   0  0  0  0  0  0  0  0  0  0  0  0
    3.8556    0.0000    0.0000 C   0  0  0  0  0  0  0  0  0  0  0  0
    3.5726   -4.5984    0.0000 C   0  0  0  0  0  0  0  0  0  0  0  0
    1.4503   -5.8364    0.0000 C   0  0  0  0  0  0  0  0  0  0  0  0
    0.7428   -6.2609    0.0000 C   0  0  0  0  0  0  0  0  0  0  0  0
  1 19  1  0  0  0  0
  2 37  1  0  0  0  0
  3 37  1  0  0  0  0
  4 37  1  0  0  0  0
  5 15  2  0  0  0  0
  6 29  1  0  0  0  0
  6 36  1  0  0  0  0
  7 13  1  0  0  0  0
  7 15  1  0  0  0  0
  7 17  1  0  0  0  0
  8 13  2  0  0  0  0
  8 16  1  0  0  0  0
 18  9  1  6  0  0  0
  9 21  1  0  0  0  0
 10 21  1  0  0  0  0
 10 33  2  0  0  0  0
 11 26  2  0  0  0  0
 11 33  1  0  0  0  0
 12 26  1  0  0  0  0
 12 34  1  0  0  0  0
 13 18  1  0  0  0  0
 14 15  1  0  0  0  0
 14 16  2  0  0  0  0
 14 19  1  0  0  0  0
 16 20  1  0  0  0  0
 17 23  2  0  0  0  0
 17 24  1  0  0  0  0
 18 27  1  0  0  0  0
 19 25  2  0  0  0  0
 20 28  2  0  0  0  0
 21 22  2  0  0  0  0
 22 26  1  0  0  0  0
 22 32  1  0  0  0  0
 23 30  1  0  0  0  0
 24 31  2  0  0  0  0
 25 28  1  0  0  0  0
 27 35  1  0  0  0  0
 29 30  2  0  0  0  0
 29 31  1  0  0  0  0
 32 34  2  0  0  0  0
 36 37  1  0  0  0  0
M  END
> <PUBCHEM_COMPOUND_ID_TYPE>
0

> <PUBCHEM_TOTAL_CHARGE>
0

> <PUBCHEM_SUBSTANCE_ID>
310931470

> <PUBCHEM_SUBSTANCE_VERSION>
1

> <PUBCHEM_EXT_DATASOURCE_NAME>
4488

> <PUBCHEM_EXT_DATASOURCE_REGID>
SCHEMBL16108795

> <PUBCHEM_SUBSTANCE_COMMENT>
InChI=1S/C25H20F4N6O2/c1-2-18(33-22-16-10-11-30-21(16)31-13-32-22)23-34-19-5-3-4-17(26)20(19)24(36)35(23)14-6-8-15(9-7-14)37-12-25(27,28)29/h3-11,13,18H,2,12H2,1H3,(H2,30,31,32,33)/t18-/m0/s1
InChIKey=GZAHXGUAKPGUBK-SFHVURJKSA-N

> <PUBCHEM_SUBSTANCE_SYNONYM>
SCHEMBL16108795

> <PUBCHEM_XREF_EXT_ID>
SCHEMBL16108795

> <PUBCHEM_EXT_DATASOURCE_URL>
https://www.surechembl.org/

> <PUBCHEM_EXT_SUBSTANCE_URL>
https://www.surechembl.org/chemical/SCHEMBL16108795

> <PUBCHEM_CID_ASSOCIATIONS>
86272626  1

> <PUBCHEM_COORDINATE_TYPE>
1
3

> <PUBCHEM_BONDANNOTATIONS>
18  9  6

$$$$
