310930103
  -OEChem-07211613022D

 19 21  0     0  0  0  0  0  0999 V2000
    1.1597   -6.3102    0.0000 O   0  0  0  0  0  0  0  0  0  0  0  0
    2.5241   -6.8218    0.0000 O   0  0  0  0  0  0  0  0  0  0  0  0
    0.0000   -1.6713    0.0000 O   0  0  0  0  0  0  0  0  0  0  0  0
    1.4326   -1.6713    0.0000 N   0  0  0  0  0  0  0  0  0  0  0  0
    1.4326    0.0000    0.0000 N   0  0  0  0  0  0  0  0  0  0  0  0
    2.1489   -5.3892    0.0000 C   0  0  0  0  0  0  0  0  0  0  0  0
    1.4326   -4.9799    0.0000 C   0  0  0  0  0  0  0  0  0  0  0  0
    1.9783   -6.2079    0.0000 C   0  0  0  0  0  0  0  0  0  0  0  0
    2.1489   -3.7179    0.0000 C   0  0  0  0  0  0  0  0  0  0  0  0
    1.4326   -4.1272    0.0000 C   0  0  0  0  0  0  0  0  0  0  0  0
    0.8186   -5.5257    0.0000 C   0  0  0  0  0  0  0  0  0  0  0  0
    2.8651   -4.9799    0.0000 C   0  0  0  0  0  0  0  0  0  0  0  0
    2.8993   -4.1613    0.0000 C   0  0  0  0  0  0  0  0  0  0  0  0
    2.1489   -2.8993    0.0000 C   0  0  0  0  0  0  0  0  0  0  0  0
    0.7163   -1.2621    0.0000 C   0  0  0  0  0  0  0  0  0  0  0  0
    1.4326   -2.4900    0.0000 C   0  0  0  0  0  0  0  0  0  0  0  0
    2.1489   -1.2621    0.0000 C   0  0  0  0  0  0  0  0  0  0  0  0
    0.7163   -0.4093    0.0000 C   0  0  0  0  0  0  0  0  0  0  0  0
    2.1489   -0.4093    0.0000 C   0  0  0  0  0  0  0  0  0  0  0  0
  1  8  1  0  0  0  0
  1 11  1  0  0  0  0
  2  8  2  0  0  0  0
  3 15  2  0  0  0  0
  4 15  1  0  0  0  0
  4 16  1  0  0  0  0
  4 17  1  0  0  0  0
  5 18  1  0  0  0  0
  5 19  1  0  0  0  0
  6  7  2  0  0  0  0
  6  8  1  0  0  0  0
  6 12  1  0  0  0  0
  7 10  1  0  0  0  0
  7 11  1  0  0  0  0
  9 10  2  0  0  0  0
  9 13  1  0  0  0  0
  9 14  1  0  0  0  0
 12 13  2  0  0  0  0
 14 16  1  0  0  0  0
 15 18  1  0  0  0  0
 17 19  1  0  0  0  0
M  END
> <PUBCHEM_COMPOUND_ID_TYPE>
0

> <PUBCHEM_TOTAL_CHARGE>
0

> <PUBCHEM_SUBSTANCE_ID>
310930103

> <PUBCHEM_SUBSTANCE_VERSION>
1

> <PUBCHEM_EXT_DATASOURCE_NAME>
4488

> <PUBCHEM_EXT_DATASOURCE_REGID>
SCHEMBL16107350

> <PUBCHEM_SUBSTANCE_COMMENT>
InChI=1S/C14H16N2O3/c17-13-8-15-4-6-16(13)5-3-10-1-2-12-11(7-10)9-19-14(12)18/h1-2,7,15H,3-6,8-9H2
InChIKey=UJAFHNLSKGUQAH-UHFFFAOYSA-N

> <PUBCHEM_SUBSTANCE_SYNONYM>
SCHEMBL16107350

> <PUBCHEM_XREF_EXT_ID>
SCHEMBL16107350

> <PUBCHEM_EXT_DATASOURCE_URL>
https://www.surechembl.org/

> <PUBCHEM_EXT_SUBSTANCE_URL>
https://www.surechembl.org/chemical/SCHEMBL16107350

> <PUBCHEM_CID_ASSOCIATIONS>
117599333  1

> <PUBCHEM_COORDINATE_TYPE>
1
3

$$$$
