310948001
  -OEChem-07211613022D

 34 38  0     1  0  0  0  0  0999 V2000
   -3.1741   -2.2977    0.0000 P   0  0  0  0  0  0  0  0  0  0  0  0
   -2.1578    0.0737    0.0000 O   0  0  0  0  0  0  0  0  0  0  0  0
   -2.4524   -1.8854    0.0000 O   0  0  0  0  0  0  0  0  0  0  0  0
   -2.4671    2.2536    0.0000 O   0  0  0  0  0  0  0  0  0  0  0  0
   -3.1741   -3.1225    0.0000 O   0  0  0  0  0  0  0  0  0  0  0  0
    2.5702    1.8411    0.0000 O   0  0  0  0  0  0  0  0  0  0  0  0
    1.8485    3.0784    0.0000 O   0  0  0  0  0  0  0  0  0  0  0  0
    1.1268   -0.6923    0.0000 N   0  0  3  0  0  0  0  0  0  0  0  0
   -1.0237   -0.1914    0.0000 C   0  0  3  0  0  0  0  0  0  0  0  0
   -1.0237    0.6333    0.0000 C   0  0  0  0  0  0  0  0  0  0  0  0
   -1.7454   -0.6186    0.0000 C   0  0  3  0  0  0  0  0  0  0  0  0
   -0.3019   -0.6186    0.0000 C   0  0  3  0  0  0  0  0  0  0  0  0
   -1.7454    1.0311    0.0000 C   0  0  0  0  0  0  0  0  0  0  0  0
   -0.3314    1.0457    0.0000 C   0  0  0  0  0  0  0  0  0  0  0  0
    0.4050   -0.2062    0.0000 C   0  0  3  0  0  0  0  0  0  0  0  0
   -0.4493    0.2504    0.0000 C   0  0  0  0  0  0  0  0  0  0  0  0
   -1.7454   -1.4435    0.0000 C   0  0  3  0  0  0  0  0  0  0  0  0
    0.4050    0.6186    0.0000 C   0  0  0  0  0  0  0  0  0  0  0  0
   -0.3019    1.8559    0.0000 C   0  0  0  0  0  0  0  0  0  0  0  0
   -1.7454    1.8706    0.0000 C   0  0  0  0  0  0  0  0  0  0  0  0
   -0.3167   -1.4435    0.0000 C   0  0  0  0  0  0  0  0  0  0  0  0
    0.8617    0.2357    0.0000 C   0  0  0  0  0  0  0  0  0  0  0  0
   -1.0237   -1.8559    0.0000 C   0  0  0  0  0  0  0  0  0  0  0  0
   -1.0531    2.2536    0.0000 C   0  0  0  0  0  0  0  0  0  0  0  0
    0.3903    2.2682    0.0000 C   0  0  0  0  0  0  0  0  0  0  0  0
    1.9369   -0.4419    0.0000 C   0  0  0  0  0  0  0  0  0  0  0  0
    1.1415    1.8706    0.0000 C   0  0  0  0  0  0  0  0  0  0  0  0
   -3.6160   -1.5318    0.0000 C   0  0  0  0  0  0  0  0  0  0  0  0
   -4.0137   -2.0620    0.0000 C   0  0  0  0  0  0  0  0  0  0  0  0
    1.8338    2.2536    0.0000 C   0  0  0  0  0  0  0  0  0  0  0  0
    3.2772    2.2830    0.0000 C   0  0  0  0  0  0  0  0  0  0  0  0
    3.2625    3.1225    0.0000 C   0  0  0  0  0  0  0  0  0  0  0  0
    4.0137    2.6954    0.0000 C   0  0  0  0  0  0  0  0  0  0  0  0
    4.0137    1.8411    0.0000 C   0  0  0  0  0  0  0  0  0  0  0  0
  1  3  1  0  0  0  0
  1  5  2  0  0  0  0
  1 28  1  0  0  0  0
  1 29  1  0  0  0  0
 11  2  1  6  0  0  0
  2 13  1  0  0  0  0
 17  3  1  6  0  0  0
  4 20  1  0  0  0  0
  6 30  1  0  0  0  0
  6 31  1  0  0  0  0
  7 30  2  0  0  0  0
 15  8  1  1  0  0  0
  8 22  1  0  0  0  0
  8 26  1  0  0  0  0
  9 10  1  6  0  0  0
  9 11  1  0  0  0  0
  9 12  1  0  0  0  0
  9 16  1  0  0  0  0
 10 13  1  0  0  0  0
 10 14  2  0  0  0  0
 11 17  1  0  0  0  0
 12 15  1  0  0  0  0
 12 21  1  0  0  0  0
 13 20  2  0  0  0  0
 14 18  1  0  0  0  0
 14 19  1  0  0  0  0
 15 18  1  0  0  0  0
 16 22  1  0  0  0  0
 17 23  1  0  0  0  0
 19 24  2  0  0  0  0
 19 25  1  0  0  0  0
 20 24  1  0  0  0  0
 21 23  2  0  0  0  0
 25 27  1  0  0  0  0
 27 30  1  0  0  0  0
 31 32  1  0  0  0  0
 31 33  1  0  0  0  0
 31 34  1  0  0  0  0
M  END
> <PUBCHEM_COMPOUND_ID_TYPE>
0

> <PUBCHEM_TOTAL_CHARGE>
0

> <PUBCHEM_SUBSTANCE_ID>
310948001

> <PUBCHEM_SUBSTANCE_VERSION>
1

> <PUBCHEM_EXT_DATASOURCE_NAME>
4488

> <PUBCHEM_EXT_DATASOURCE_REGID>
SCHEMBL16126175

> <PUBCHEM_SUBSTANCE_COMMENT>
InChI=1S/C26H36NO6P/c1-25(2,3)32-21(29)10-7-15-13-19(28)23-22-16(15)14-18-17-8-9-20(33-34(5,6)30)24(31-23)26(17,22)11-12-27(18)4/h8-9,13,17-18,20,24,28H,7,10-12,14H2,1-6H3/t17?,18-,20+,24+,26+/m1/s1
InChIKey=NIOVJAUWUGZGAT-OUMAGKALSA-N

> <PUBCHEM_SUBSTANCE_SYNONYM>
SCHEMBL16126175

> <PUBCHEM_XREF_EXT_ID>
SCHEMBL16126175

> <PUBCHEM_EXT_DATASOURCE_URL>
https://www.surechembl.org/

> <PUBCHEM_EXT_SUBSTANCE_URL>
https://www.surechembl.org/chemical/SCHEMBL16126175

> <PUBCHEM_CID_ASSOCIATIONS>
117613646  1

> <PUBCHEM_COORDINATE_TYPE>
1
3

> <PUBCHEM_BONDANNOTATIONS>
11  2  6
17  3  6
15  8  5
9  10  6

$$$$
