310940066
  -OEChem-07211613022D

 26 28  0     0  0  0  0  0  0999 V2000
   -1.4437    0.0000    0.0000 O   0  0  0  0  0  0  0  0  0  0  0  0
   -1.4437    2.8579    0.0000 O   0  0  0  0  0  0  0  0  0  0  0  0
    3.0938   -0.7145    0.0000 O   0  0  0  0  0  0  0  0  0  0  0  0
    4.3312   -1.4289    0.0000 O   0  0  0  0  0  0  0  0  0  0  0  0
   -1.4437    1.4289    0.0000 N   0  0  0  0  0  0  0  0  0  0  0  0
   -3.0938    1.4289    0.0000 C   0  0  0  0  0  0  0  0  0  0  0  0
   -2.6812    0.7145    0.0000 C   0  0  0  0  0  0  0  0  0  0  0  0
   -2.6812    2.1434    0.0000 C   0  0  0  0  0  0  0  0  0  0  0  0
   -1.8563    0.7145    0.0000 C   0  0  0  0  0  0  0  0  0  0  0  0
   -1.8563    2.1434    0.0000 C   0  0  0  0  0  0  0  0  0  0  0  0
   -3.9187    1.4289    0.0000 C   0  0  0  0  0  0  0  0  0  0  0  0
   -3.0938    0.0000    0.0000 C   0  0  0  0  0  0  0  0  0  0  0  0
   -3.0938    2.8579    0.0000 C   0  0  0  0  0  0  0  0  0  0  0  0
   -4.3312    0.7145    0.0000 C   0  0  0  0  0  0  0  0  0  0  0  0
   -4.3312    2.1434    0.0000 C   0  0  0  0  0  0  0  0  0  0  0  0
   -0.6187    1.4289    0.0000 C   0  0  0  0  0  0  0  0  0  0  0  0
   -3.9187    0.0000    0.0000 C   0  0  0  0  0  0  0  0  0  0  0  0
   -3.9187    2.8579    0.0000 C   0  0  0  0  0  0  0  0  0  0  0  0
   -0.2062    0.7145    0.0000 C   0  0  0  0  0  0  0  0  0  0  0  0
    0.6187    0.7145    0.0000 C   0  0  0  0  0  0  0  0  0  0  0  0
    1.0313    0.0000    0.0000 C   0  0  0  0  0  0  0  0  0  0  0  0
    1.8563    0.0000    0.0000 C   0  0  0  0  0  0  0  0  0  0  0  0
    2.2687   -0.7145    0.0000 C   0  0  0  0  0  0  0  0  0  0  0  0
    3.5062   -1.4289    0.0000 C   0  0  0  0  0  0  0  0  0  0  0  0
    3.0938   -2.1434    0.0000 C   0  0  0  0  0  0  0  0  0  0  0  0
    3.5062   -2.8579    0.0000 C   0  0  0  0  0  0  0  0  0  0  0  0
  1  9  2  0  0  0  0
  2 10  2  0  0  0  0
  3 23  1  0  0  0  0
  3 24  1  0  0  0  0
  4 24  2  0  0  0  0
  5  9  1  0  0  0  0
  5 10  1  0  0  0  0
  5 16  1  0  0  0  0
  6  7  1  0  0  0  0
  6  8  2  0  0  0  0
  6 11  1  0  0  0  0
  7  9  1  0  0  0  0
  7 12  2  0  0  0  0
  8 10  1  0  0  0  0
  8 13  1  0  0  0  0
 11 14  1  0  0  0  0
 11 15  2  0  0  0  0
 12 17  1  0  0  0  0
 13 18  2  0  0  0  0
 14 17  2  0  0  0  0
 15 18  1  0  0  0  0
 16 19  1  0  0  0  0
 19 20  1  0  0  0  0
 20 21  1  0  0  0  0
 21 22  1  0  0  0  0
 22 23  1  0  0  0  0
 24 25  1  0  0  0  0
 25 26  2  0  0  0  0
M  END
> <PUBCHEM_COMPOUND_ID_TYPE>
0

> <PUBCHEM_TOTAL_CHARGE>
0

> <PUBCHEM_SUBSTANCE_ID>
310940066

> <PUBCHEM_SUBSTANCE_VERSION>
1

> <PUBCHEM_EXT_DATASOURCE_NAME>
4488

> <PUBCHEM_EXT_DATASOURCE_REGID>
SCHEMBL16117997

> <PUBCHEM_SUBSTANCE_COMMENT>
InChI=1S/C21H21NO4/c1-2-18(23)26-14-6-4-3-5-13-22-20(24)16-11-7-9-15-10-8-12-17(19(15)16)21(22)25/h2,7-12H,1,3-6,13-14H2
InChIKey=QOZYQLFJTMKUSG-UHFFFAOYSA-N

> <PUBCHEM_SUBSTANCE_SYNONYM>
SCHEMBL16117997

> <PUBCHEM_XREF_EXT_ID>
SCHEMBL16117997

> <PUBCHEM_EXT_DATASOURCE_URL>
https://www.surechembl.org/

> <PUBCHEM_EXT_SUBSTANCE_URL>
https://www.surechembl.org/chemical/SCHEMBL16117997

> <PUBCHEM_CID_ASSOCIATIONS>
117607209  1

> <PUBCHEM_COORDINATE_TYPE>
1
3

$$$$
