310939406
  -OEChem-07211613022D

 39 46  0     0  0  0  0  0  0999 V2000
   -3.1419   -2.0410    0.0000 O   0  0  0  0  0  0  0  0  0  0  0  0
   -3.1419   -2.8660    0.0000 C   0  0  0  0  0  0  0  0  0  0  0  0
   -3.3554   -3.6629    0.0000 C   0  0  0  0  0  0  0  0  0  0  0  0
   -3.7253   -2.2826    0.0000 C   0  0  0  0  0  0  0  0  0  0  0  0
   -4.1523   -3.8764    0.0000 C   0  0  0  0  0  0  0  0  0  0  0  0
   -4.5222   -2.4962    0.0000 C   0  0  0  0  0  0  0  0  0  0  0  0
   -2.4274   -2.4535    0.0000 C   0  0  0  0  0  0  0  0  0  0  0  0
   -3.5117   -1.4858    0.0000 C   0  0  0  0  0  0  0  0  0  0  0  0
   -2.7721   -4.2463    0.0000 C   0  0  0  0  0  0  0  0  0  0  0  0
    2.1897   -2.8660    0.0000 C   0  0  0  0  0  0  0  0  0  0  0  0
    2.4032   -3.6629    0.0000 C   0  0  0  0  0  0  0  0  0  0  0  0
    2.7730   -2.2826    0.0000 C   0  0  0  0  0  0  0  0  0  0  0  0
   -5.1055   -1.9128    0.0000 C   0  0  0  0  0  0  0  0  0  0  0  0
   -4.3659   -4.6733    0.0000 C   0  0  0  0  0  0  0  0  0  0  0  0
    3.2001   -3.8764    0.0000 C   0  0  0  0  0  0  0  0  0  0  0  0
    3.5699   -2.4962    0.0000 C   0  0  0  0  0  0  0  0  0  0  0  0
   -2.0149   -1.7390    0.0000 C   0  0  0  0  0  0  0  0  0  0  0  0
   -2.0149   -3.1680    0.0000 C   0  0  0  0  0  0  0  0  0  0  0  0
    1.4752   -2.4535    0.0000 C   0  0  0  0  0  0  0  0  0  0  0  0
   -0.7774   -2.4535    0.0000 C   0  0  0  0  0  0  0  0  0  0  0  0
   -4.0951   -0.9024    0.0000 C   0  0  0  0  0  0  0  0  0  0  0  0
   -2.9856   -5.0432    0.0000 C   0  0  0  0  0  0  0  0  0  0  0  0
   -4.8920   -1.1159    0.0000 C   0  0  0  0  0  0  0  0  0  0  0  0
   -3.7825   -5.2567    0.0000 C   0  0  0  0  0  0  0  0  0  0  0  0
   -1.1899   -1.7390    0.0000 C   0  0  0  0  0  0  0  0  0  0  0  0
   -1.1899   -3.1680    0.0000 C   0  0  0  0  0  0  0  0  0  0  0  0
   -0.1748   -2.4535    0.0000 C   0  0  0  0  0  0  0  0  0  0  0  0
    2.5595   -1.4858    0.0000 C   0  0  0  0  0  0  0  0  0  0  0  0
    1.8198   -4.2463    0.0000 C   0  0  0  0  0  0  0  0  0  0  0  0
    4.1533   -1.9128    0.0000 C   0  0  0  0  0  0  0  0  0  0  0  0
    3.4136   -4.6733    0.0000 C   0  0  0  0  0  0  0  0  0  0  0  0
    1.0627   -1.7390    0.0000 C   0  0  0  0  0  0  0  0  0  0  0  0
    1.0627   -3.1680    0.0000 C   0  0  0  0  0  0  0  0  0  0  0  0
    0.2377   -1.7390    0.0000 C   0  0  0  0  0  0  0  0  0  0  0  0
    0.2377   -3.1680    0.0000 C   0  0  0  0  0  0  0  0  0  0  0  0
    3.1429   -0.9024    0.0000 C   0  0  0  0  0  0  0  0  0  0  0  0
    2.0334   -5.0432    0.0000 C   0  0  0  0  0  0  0  0  0  0  0  0
    3.9398   -1.1159    0.0000 C   0  0  0  0  0  0  0  0  0  0  0  0
    2.8302   -5.2567    0.0000 C   0  0  0  0  0  0  0  0  0  0  0  0
  1  2  1  0  0  0  0
  2  3  1  0  0  0  0
  2  4  1  0  0  0  0
  2  7  1  0  0  0  0
  3  5  2  0  0  0  0
  3  9  1  0  0  0  0
  4  6  2  0  0  0  0
  4  8  1  0  0  0  0
  5  6  1  0  0  0  0
  5 14  1  0  0  0  0
  6 13  1  0  0  0  0
  7 17  2  0  0  0  0
  7 18  1  0  0  0  0
  8 21  2  0  0  0  0
  9 22  2  0  0  0  0
 10 11  1  0  0  0  0
 10 12  1  0  0  0  0
 10 19  1  0  0  0  0
 11 15  2  0  0  0  0
 11 29  1  0  0  0  0
 12 16  2  0  0  0  0
 12 28  1  0  0  0  0
 13 23  2  0  0  0  0
 14 24  2  0  0  0  0
 15 16  1  0  0  0  0
 15 31  1  0  0  0  0
 16 30  1  0  0  0  0
 17 25  1  0  0  0  0
 18 26  1  0  0  0  0
 19 32  2  0  0  0  0
 19 33  1  0  0  0  0
 20 25  2  0  0  0  0
 20 26  1  0  0  0  0
 20 27  1  0  0  0  0
 21 23  1  0  0  0  0
 22 24  1  0  0  0  0
 27 34  2  0  0  0  0
 27 35  1  0  0  0  0
 28 36  2  0  0  0  0
 29 37  2  0  0  0  0
 30 38  2  0  0  0  0
 31 39  2  0  0  0  0
 32 34  1  0  0  0  0
 33 35  1  0  0  0  0
 36 38  1  0  0  0  0
 37 39  1  0  0  0  0
M  END
> <PUBCHEM_COMPOUND_ID_TYPE>
0

> <PUBCHEM_TOTAL_CHARGE>
0

> <PUBCHEM_SUBSTANCE_ID>
310939406

> <PUBCHEM_SUBSTANCE_VERSION>
1

> <PUBCHEM_EXT_DATASOURCE_NAME>
4488

> <PUBCHEM_EXT_DATASOURCE_REGID>
SCHEMBL16117327

> <PUBCHEM_SUBSTANCE_COMMENT>
InChI=1S/C38H30O/c39-38(35-15-7-5-11-31(35)32-12-6-8-16-36(32)38)28-23-21-26(22-24-28)25-17-19-27(20-18-25)37-33-13-3-1-9-29(33)30-10-2-4-14-34(30)37/h1-17,19,21,23,37,39H,18,20,22,24H2
InChIKey=JNJIZSHBICBLFV-UHFFFAOYSA-N

> <PUBCHEM_SUBSTANCE_SYNONYM>
SCHEMBL16117327

> <PUBCHEM_XREF_EXT_ID>
SCHEMBL16117327

> <PUBCHEM_EXT_DATASOURCE_URL>
https://www.surechembl.org/

> <PUBCHEM_EXT_SUBSTANCE_URL>
https://www.surechembl.org/chemical/SCHEMBL16117327

> <PUBCHEM_CID_ASSOCIATIONS>
117606733  1

> <PUBCHEM_COORDINATE_TYPE>
1
3

$$$$
