310949714
  -OEChem-07211613022D

 25 26  0     0  0  0  0  0  0999 V2000
   -1.0795   -0.0145    0.0000 O   0  0  0  0  0  0  0  0  0  0  0  0
   -3.2385    0.4057    0.0000 O   0  0  0  0  0  0  0  0  0  0  0  0
   -1.8039    0.4057    0.0000 O   0  0  0  0  0  0  0  0  0  0  0  0
    2.5139   -2.0576    0.0000 O   0  0  0  0  0  0  0  0  0  0  0  0
    3.2240    2.4922    0.0000 O   0  0  0  0  0  0  0  0  0  0  0  0
   -0.3695   -1.2316    0.0000 N   0  0  0  0  0  0  0  0  0  0  0  0
    3.2385   -0.8259    0.0000 N   0  0  0  0  0  0  0  0  0  0  0  0
   -1.8039   -1.2461    0.0000 C   0  0  0  0  0  0  0  0  0  0  0  0
   -2.5285   -0.8404    0.0000 C   0  0  0  0  0  0  0  0  0  0  0  0
   -1.0940   -0.8549    0.0000 C   0  0  0  0  0  0  0  0  0  0  0  0
    1.7895   -0.8114    0.0000 C   0  0  0  0  0  0  0  0  0  0  0  0
    0.3550   -0.8114    0.0000 C   0  0  0  0  0  0  0  0  0  0  0  0
    1.7895    0.0000    0.0000 C   0  0  0  0  0  0  0  0  0  0  0  0
    1.0795   -1.2316    0.0000 C   0  0  0  0  0  0  0  0  0  0  0  0
    0.3695    0.0000    0.0000 C   0  0  0  0  0  0  0  0  0  0  0  0
   -1.8039   -2.0720    0.0000 C   0  0  0  0  0  0  0  0  0  0  0  0
    1.0795    0.4057    0.0000 C   0  0  0  0  0  0  0  0  0  0  0  0
   -2.4994   -0.0145    0.0000 C   0  0  0  0  0  0  0  0  0  0  0  0
    2.5285   -1.2171    0.0000 C   0  0  0  0  0  0  0  0  0  0  0  0
   -3.2385   -1.2606    0.0000 C   0  0  0  0  0  0  0  0  0  0  0  0
    2.4994    0.4057    0.0000 C   0  0  0  0  0  0  0  0  0  0  0  0
   -2.5139   -2.4922    0.0000 C   0  0  0  0  0  0  0  0  0  0  0  0
   -3.2385   -2.0720    0.0000 C   0  0  0  0  0  0  0  0  0  0  0  0
    2.5139    1.2461    0.0000 C   0  0  0  0  0  0  0  0  0  0  0  0
    3.2240    1.6518    0.0000 C   0  0  0  0  0  0  0  0  0  0  0  0
  1 10  2  0  0  0  0
  2 18  2  0  0  0  0
  3 18  1  0  0  0  0
  4 19  2  0  0  0  0
  5 25  1  0  0  0  0
  6 10  1  0  0  0  0
  6 12  1  0  0  0  0
  7 19  1  0  0  0  0
  8  9  1  0  0  0  0
  8 10  1  0  0  0  0
  8 16  2  0  0  0  0
  9 18  1  0  0  0  0
  9 20  2  0  0  0  0
 11 13  1  0  0  0  0
 11 14  2  0  0  0  0
 11 19  1  0  0  0  0
 12 14  1  0  0  0  0
 12 15  2  0  0  0  0
 13 17  2  0  0  0  0
 13 21  1  0  0  0  0
 15 17  1  0  0  0  0
 16 22  1  0  0  0  0
 20 23  1  0  0  0  0
 21 24  1  0  0  0  0
 22 23  2  0  0  0  0
 24 25  1  0  0  0  0
M  END
> <PUBCHEM_COMPOUND_ID_TYPE>
0

> <PUBCHEM_TOTAL_CHARGE>
0

> <PUBCHEM_SUBSTANCE_ID>
310949714

> <PUBCHEM_SUBSTANCE_VERSION>
1

> <PUBCHEM_EXT_DATASOURCE_NAME>
4488

> <PUBCHEM_EXT_DATASOURCE_REGID>
SCHEMBL16127912

> <PUBCHEM_SUBSTANCE_COMMENT>
InChI=1S/C18H18N2O5/c19-16(22)15-10-12(8-7-11(15)4-3-9-21)20-17(23)13-5-1-2-6-14(13)18(24)25/h1-2,5-8,10,21H,3-4,9H2,(H2,19,22)(H,20,23)(H,24,25)
InChIKey=OYFNLLLKVZTXCE-UHFFFAOYSA-N

> <PUBCHEM_SUBSTANCE_SYNONYM>
SCHEMBL16127912

> <PUBCHEM_XREF_EXT_ID>
SCHEMBL16127912

> <PUBCHEM_EXT_DATASOURCE_URL>
https://www.surechembl.org/

> <PUBCHEM_EXT_SUBSTANCE_URL>
https://www.surechembl.org/chemical/SCHEMBL16127912

> <PUBCHEM_CID_ASSOCIATIONS>
85473337  1

> <PUBCHEM_COORDINATE_TYPE>
1
3

$$$$
