310943799
  -OEChem-07211613022D

 33 37  0     1  0  0  0  0  0999 V2000
    2.5485    0.7547    0.0000 O   0  0  0  0  0  0  0  0  0  0  0  0
    5.3813   -0.1203    0.0000 O   0  0  0  0  0  0  0  0  0  0  0  0
    5.5234    1.3453    0.0000 O   0  0  0  0  0  0  0  0  0  0  0  0
   -0.7875   -1.3453    0.0000 O   0  0  0  0  0  0  0  0  0  0  0  0
    3.2922   -0.5141    0.0000 N   0  0  0  0  0  0  0  0  0  0  0  0
    0.3719   -0.1750    0.0000 N   0  0  0  0  0  0  0  0  0  0  0  0
   -4.1891    0.2843    0.0000 N   0  0  0  0  0  0  0  0  0  0  0  0
   -2.3844   -0.9407    0.0000 N   0  0  0  0  0  0  0  0  0  0  0  0
   -4.4953    1.0500    0.0000 N   0  0  0  0  0  0  0  0  0  0  0  0
   -5.3156    1.0063    0.0000 N   0  0  0  0  0  0  0  0  0  0  0  0
   -5.5234    0.2078    0.0000 N   0  0  0  0  0  0  0  0  0  0  0  0
    1.9687   -0.5688    0.0000 C   0  0  0  0  0  0  0  0  0  0  0  0
    2.5922   -0.0766    0.0000 C   0  0  0  0  0  0  0  0  0  0  0  0
    4.0469   -0.1860    0.0000 C   0  0  0  0  0  0  0  0  0  0  0  0
    2.2640   -1.3453    0.0000 C   0  0  0  0  0  0  0  0  0  0  0  0
    3.0843   -1.3016    0.0000 C   0  0  0  0  0  0  0  0  0  0  0  0
    1.3891   -1.1703    0.0000 C   0  0  0  0  0  0  0  0  0  0  0  0
    1.7500    0.2078    0.0000 C   0  0  0  0  0  0  0  0  0  0  0  0
    4.2656    0.6125    0.0000 C   0  0  0  0  0  0  0  0  0  0  0  0
    4.7687   -0.6344    0.0000 C   0  0  0  0  0  0  0  0  0  0  0  0
    5.0750    0.6344    0.0000 C   0  0  0  0  0  0  0  0  0  0  0  0
    0.5906   -0.9625    0.0000 C   0  0  0  0  0  0  0  0  0  0  0  0
    0.9516    0.4156    0.0000 C   0  0  0  0  0  0  0  0  0  0  0  0
   -0.4266    0.0328    0.0000 C   0  0  0  0  0  0  0  0  0  0  0  0
   -1.8047   -0.3281    0.0000 C   0  0  0  0  0  0  0  0  0  0  0  0
   -3.4016    0.0766    0.0000 C   0  0  0  0  0  0  0  0  0  0  0  0
   -1.0063   -0.5469    0.0000 C   0  0  3  0  0  0  0  0  0  0  0  0
   -3.1828   -0.7109    0.0000 C   0  0  0  0  0  0  0  0  0  0  0  0
    3.7406    1.2469    0.0000 C   0  0  0  0  0  0  0  0  0  0  0  0
   -2.0125    0.4594    0.0000 C   0  0  0  0  0  0  0  0  0  0  0  0
   -2.8109    0.6671    0.0000 C   0  0  0  0  0  0  0  0  0  0  0  0
   -4.8234   -0.2297    0.0000 C   0  0  0  0  0  0  0  0  0  0  0  0
   -3.7735   -1.3125    0.0000 C   0  0  0  0  0  0  0  0  0  0  0  0
  1 13  2  0  0  0  0
  2 20  1  0  0  0  0
  2 21  1  0  0  0  0
  3 21  2  0  0  0  0
 27  4  1  1  0  0  0
  5 13  1  0  0  0  0
  5 14  1  0  0  0  0
  5 16  1  0  0  0  0
  6 22  1  0  0  0  0
  6 23  1  0  0  0  0
  6 24  1  0  0  0  0
  7  9  1  0  0  0  0
  7 26  1  0  0  0  0
  7 32  1  0  0  0  0
  8 25  2  0  0  0  0
  8 28  1  0  0  0  0
  9 10  2  0  0  0  0
 10 11  1  0  0  0  0
 11 32  2  0  0  0  0
 12 13  1  0  0  0  0
 12 15  1  0  0  0  0
 12 17  1  0  0  0  0
 12 18  1  0  0  0  0
 14 19  2  0  0  0  0
 14 20  1  0  0  0  0
 15 16  1  0  0  0  0
 17 22  1  0  0  0  0
 18 23  1  0  0  0  0
 19 21  1  0  0  0  0
 19 29  1  0  0  0  0
 24 27  1  0  0  0  0
 25 27  1  0  0  0  0
 25 30  1  0  0  0  0
 26 28  2  0  0  0  0
 26 31  1  0  0  0  0
 28 33  1  0  0  0  0
 30 31  2  0  0  0  0
M  END
> <PUBCHEM_COMPOUND_ID_TYPE>
0

> <PUBCHEM_TOTAL_CHARGE>
0

> <PUBCHEM_SUBSTANCE_ID>
310943799

> <PUBCHEM_SUBSTANCE_VERSION>
1

> <PUBCHEM_EXT_DATASOURCE_NAME>
4488

> <PUBCHEM_EXT_DATASOURCE_REGID>
SCHEMBL16121870

> <PUBCHEM_SUBSTANCE_COMMENT>
InChI=1S/C22H27N7O4/c1-14-18(12-33-20(14)31)28-10-7-22(21(28)32)5-8-27(9-6-22)11-19(30)16-3-4-17(15(2)24-16)29-13-23-25-26-29/h3-4,13,19,30H,5-12H2,1-2H3/t19-/m1/s1
InChIKey=DPPUVWJYQJOLBU-LJQANCHMSA-N

> <PUBCHEM_SUBSTANCE_SYNONYM>
SCHEMBL16121870

> <PUBCHEM_XREF_EXT_ID>
SCHEMBL16121870

> <PUBCHEM_EXT_DATASOURCE_URL>
https://www.surechembl.org/

> <PUBCHEM_EXT_SUBSTANCE_URL>
https://www.surechembl.org/chemical/SCHEMBL16121870

> <PUBCHEM_CID_ASSOCIATIONS>
86271365  1

> <PUBCHEM_COORDINATE_TYPE>
1
3

> <PUBCHEM_BONDANNOTATIONS>
27  4  5

$$$$
