310947429
  -OEChem-07211613022D

 28 30  0     0  0  0  0  0  0999 V2000
   -1.1087   10.2250    0.0000 O   0  0  0  0  0  0  0  0  0  0  0  0
    3.6671   11.9275    0.0000 O   0  0  0  0  0  0  0  0  0  0  0  0
   -1.1087    6.9250    0.0000 O   0  0  0  0  0  0  0  0  0  0  0  0
    3.8234    9.7504    0.0000 O   0  0  0  0  0  0  0  0  0  0  0  0
    0.3203    9.4000    0.0000 N   0  0  0  0  0  0  0  0  0  0  0  0
   -1.8231    8.9875    0.0000 N   0  0  0  0  0  0  0  0  0  0  0  0
    0.3203   10.2250    0.0000 C   0  0  0  0  0  0  0  0  0  0  0  0
    1.1049   10.4800    0.0000 C   0  0  0  0  0  0  0  0  0  0  0  0
    1.2764   11.2869    0.0000 C   0  0  0  0  0  0  0  0  0  0  0  0
    1.5898    9.8125    0.0000 C   0  0  0  0  0  0  0  0  0  0  0  0
    1.1049    9.1451    0.0000 C   0  0  0  0  0  0  0  0  0  0  0  0
   -0.3942    8.9875    0.0000 C   0  0  0  0  0  0  0  0  0  0  0  0
   -0.2928   10.7771    0.0000 C   0  0  0  0  0  0  0  0  0  0  0  0
   -1.1087    9.4000    0.0000 C   0  0  0  0  0  0  0  0  0  0  0  0
    0.6633   11.8390    0.0000 C   0  0  0  0  0  0  0  0  0  0  0  0
   -0.1213   11.5840    0.0000 C   0  0  0  0  0  0  0  0  0  0  0  0
   -2.5376    9.4000    0.0000 C   0  0  0  0  0  0  0  0  0  0  0  0
    2.0733   11.5005    0.0000 C   0  0  0  0  0  0  0  0  0  0  0  0
   -1.8231    8.1625    0.0000 C   0  0  0  0  0  0  0  0  0  0  0  0
   -3.2521    8.9875    0.0000 C   0  0  0  0  0  0  0  0  0  0  0  0
   -2.5376   10.2250    0.0000 C   0  0  0  0  0  0  0  0  0  0  0  0
    2.6567   10.9171    0.0000 C   0  0  0  0  0  0  0  0  0  0  0  0
   -3.9666    9.4000    0.0000 C   0  0  0  0  0  0  0  0  0  0  0  0
   -3.2521   10.6375    0.0000 C   0  0  0  0  0  0  0  0  0  0  0  0
    3.4536   11.1306    0.0000 C   0  0  0  0  0  0  0  0  0  0  0  0
   -1.1087    7.7500    0.0000 C   0  0  0  0  0  0  0  0  0  0  0  0
   -3.9666   10.2250    0.0000 C   0  0  0  0  0  0  0  0  0  0  0  0
    4.0369   10.5473    0.0000 C   0  0  0  0  0  0  0  0  0  0  0  0
  1 14  2  0  0  0  0
  2 25  2  0  0  0  0
  3 26  1  0  0  0  0
  4 28  1  0  0  0  0
  5  7  1  0  0  0  0
  5 11  1  0  0  0  0
  5 12  1  0  0  0  0
  6 14  1  0  0  0  0
  6 17  1  0  0  0  0
  6 19  1  0  0  0  0
  7  8  2  0  0  0  0
  7 13  1  0  0  0  0
  8  9  1  0  0  0  0
  8 10  1  0  0  0  0
  9 15  2  0  0  0  0
  9 18  1  0  0  0  0
 10 11  2  0  0  0  0
 12 14  1  0  0  0  0
 13 16  2  0  0  0  0
 15 16  1  0  0  0  0
 17 20  2  0  0  0  0
 17 21  1  0  0  0  0
 18 22  1  0  0  0  0
 19 26  1  0  0  0  0
 20 23  1  0  0  0  0
 21 24  2  0  0  0  0
 22 25  1  0  0  0  0
 23 27  2  0  0  0  0
 24 27  1  0  0  0  0
 25 28  1  0  0  0  0
M  END
> <PUBCHEM_COMPOUND_ID_TYPE>
0

> <PUBCHEM_TOTAL_CHARGE>
0

> <PUBCHEM_SUBSTANCE_ID>
310947429

> <PUBCHEM_SUBSTANCE_VERSION>
1

> <PUBCHEM_EXT_DATASOURCE_NAME>
4488

> <PUBCHEM_EXT_DATASOURCE_REGID>
SCHEMBL16125590

> <PUBCHEM_SUBSTANCE_COMMENT>
InChI=1S/C22H24N2O4/c25-14-13-24(18-6-2-1-3-7-18)22(28)15-23-12-11-20-17(5-4-8-21(20)23)9-10-19(27)16-26/h1-8,11-12,25-26H,9-10,13-16H2
InChIKey=CTUJYNUUSHZBJC-UHFFFAOYSA-N

> <PUBCHEM_SUBSTANCE_SYNONYM>
SCHEMBL16125590

> <PUBCHEM_XREF_EXT_ID>
SCHEMBL16125590

> <PUBCHEM_EXT_DATASOURCE_URL>
https://www.surechembl.org/

> <PUBCHEM_EXT_SUBSTANCE_URL>
https://www.surechembl.org/chemical/SCHEMBL16125590

> <PUBCHEM_CID_ASSOCIATIONS>
117613161  1

> <PUBCHEM_COORDINATE_TYPE>
1
3

$$$$
