310935775
  -OEChem-07211613022D

 31 34  0     0  0  0  0  0  0999 V2000
    6.9397   -6.4337    0.0000 S   0  0  0  0  0  0  0  0  0  0  0  0
    3.6867   -0.6868    0.0000 O   0  0  0  0  0  0  0  0  0  0  0  0
    6.9397   -5.5301    0.0000 O   0  0  0  0  0  0  0  0  0  0  0  0
    6.9397   -7.2289    0.0000 O   0  0  0  0  0  0  0  0  0  0  0  0
    3.2530   -5.7108    0.0000 N   0  0  0  0  0  0  0  0  0  0  0  0
    0.7952   -5.7108    0.0000 N   0  0  0  0  0  0  0  0  0  0  0  0
    2.0241   -6.4337    0.0000 N   0  0  0  0  0  0  0  0  0  0  0  0
    3.2891   -2.8554    0.0000 N   0  0  0  0  0  0  0  0  0  0  0  0
    3.6867   -2.1325    0.0000 N   0  0  0  0  0  0  0  0  0  0  0  0
    6.1084   -6.4337    0.0000 N   0  0  0  0  0  0  0  0  0  0  0  0
    2.0241   -4.9880    0.0000 C   0  0  0  0  0  0  0  0  0  0  0  0
    1.1928   -4.9880    0.0000 C   0  0  0  0  0  0  0  0  0  0  0  0
    2.4217   -5.7108    0.0000 C   0  0  0  0  0  0  0  0  0  0  0  0
    2.0241   -3.5783    0.0000 C   0  0  0  0  0  0  0  0  0  0  0  0
    0.7952   -4.2651    0.0000 C   0  0  0  0  0  0  0  0  0  0  0  0
    2.4578   -4.3012    0.0000 C   0  0  0  0  0  0  0  0  0  0  0  0
    1.2289   -3.5783    0.0000 C   0  0  0  0  0  0  0  0  0  0  0  0
    2.4578   -2.8554    0.0000 C   0  0  0  0  0  0  0  0  0  0  0  0
    1.1928   -6.4337    0.0000 C   0  0  0  0  0  0  0  0  0  0  0  0
    3.6506   -4.9880    0.0000 C   0  0  0  0  0  0  0  0  0  0  0  0
    3.6506   -6.3975    0.0000 C   0  0  0  0  0  0  0  0  0  0  0  0
    2.0603   -2.1325    0.0000 C   0  0  0  0  0  0  0  0  0  0  0  0
    4.8795   -5.7108    0.0000 C   0  0  0  0  0  0  0  0  0  0  0  0
    0.0000   -4.3012    0.0000 C   0  0  0  0  0  0  0  0  0  0  0  0
    4.4819   -4.9880    0.0000 C   0  0  0  0  0  0  0  0  0  0  0  0
    4.4819   -6.4337    0.0000 C   0  0  0  0  0  0  0  0  0  0  0  0
    3.2891   -1.4096    0.0000 C   0  0  0  0  0  0  0  0  0  0  0  0
    2.4578   -1.4458    0.0000 C   0  0  0  0  0  0  0  0  0  0  0  0
    5.7108   -5.7108    0.0000 C   0  0  0  0  0  0  0  0  0  0  0  0
    7.7349   -6.4337    0.0000 C   0  0  0  0  0  0  0  0  0  0  0  0
    3.2891    0.0000    0.0000 C   0  0  0  0  0  0  0  0  0  0  0  0
  1  3  2  0  0  0  0
  1  4  2  0  0  0  0
  1 10  1  0  0  0  0
  1 30  1  0  0  0  0
  2 27  1  0  0  0  0
  2 31  1  0  0  0  0
  5 13  1  0  0  0  0
  5 20  1  0  0  0  0
  5 21  1  0  0  0  0
  6 12  2  0  0  0  0
  6 19  1  0  0  0  0
  7 13  1  0  0  0  0
  7 19  2  0  0  0  0
  8  9  2  0  0  0  0
  8 18  1  0  0  0  0
  9 27  1  0  0  0  0
 10 29  1  0  0  0  0
 11 12  1  0  0  0  0
 11 13  2  0  0  0  0
 11 16  1  0  0  0  0
 12 15  1  0  0  0  0
 14 16  2  0  0  0  0
 14 17  1  0  0  0  0
 14 18  1  0  0  0  0
 15 17  2  0  0  0  0
 15 24  1  0  0  0  0
 18 22  2  0  0  0  0
 20 25  1  0  0  0  0
 21 26  1  0  0  0  0
 22 28  1  0  0  0  0
 23 25  1  0  0  0  0
 23 26  1  0  0  0  0
 23 29  1  0  0  0  0
 27 28  2  0  0  0  0
M  END
> <PUBCHEM_COMPOUND_ID_TYPE>
0

> <PUBCHEM_TOTAL_CHARGE>
0

> <PUBCHEM_SUBSTANCE_ID>
310935775

> <PUBCHEM_SUBSTANCE_VERSION>
1

> <PUBCHEM_EXT_DATASOURCE_NAME>
4488

> <PUBCHEM_EXT_DATASOURCE_REGID>
SCHEMBL16113359

> <PUBCHEM_SUBSTANCE_COMMENT>
InChI=1S/C21H26N6O3S/c1-14-10-16(18-4-5-19(30-2)26-25-18)11-17-20(14)22-13-23-21(17)27-8-6-15(7-9-27)12-24-31(3,28)29/h4-5,10-11,13,15,24H,6-9,12H2,1-3H3
InChIKey=TUUTYCWMYZUEQH-UHFFFAOYSA-N

> <PUBCHEM_SUBSTANCE_SYNONYM>
SCHEMBL16113359

> <PUBCHEM_XREF_EXT_ID>
SCHEMBL16113359

> <PUBCHEM_EXT_DATASOURCE_URL>
https://www.surechembl.org/

> <PUBCHEM_EXT_SUBSTANCE_URL>
https://www.surechembl.org/chemical/SCHEMBL16113359

> <PUBCHEM_CID_ASSOCIATIONS>
117603770  1

> <PUBCHEM_COORDINATE_TYPE>
1
3

$$$$
