310931058
  -OEChem-07211613022D

 35 38  0     1  0  0  0  0  0999 V2000
   12.0393    1.1759    0.0000 O   0  0  0  0  0  0  0  0  0  0  0  0
   10.6104   -6.2491    0.0000 O   0  0  0  0  0  0  0  0  0  0  0  0
    9.8959   -2.5366    0.0000 O   0  0  0  0  0  0  0  0  0  0  0  0
   10.6104    1.1759    0.0000 O   0  0  0  0  0  0  0  0  0  0  0  0
   11.3248   -1.7116    0.0000 N   0  0  0  0  0  0  0  0  0  0  0  0
   11.3248   -0.0616    0.0000 N   0  0  0  0  0  0  0  0  0  0  0  0
    9.1814   -8.7241    0.0000 N   0  0  3  0  0  0  0  0  0  0  0  0
   10.6104   -3.7741    0.0000 C   0  0  0  0  0  0  0  0  0  0  0  0
   10.6104   -2.9491    0.0000 C   0  0  0  0  0  0  0  0  0  0  0  0
   11.3248   -2.5366    0.0000 C   0  0  0  0  0  0  0  0  0  0  0  0
   11.3248    0.7634    0.0000 C   0  0  0  0  0  0  0  0  0  0  0  0
   12.0393   -1.2991    0.0000 C   0  0  0  0  0  0  0  0  0  0  0  0
   10.6104   -1.2991    0.0000 C   0  0  0  0  0  0  0  0  0  0  0  0
   12.0393   -0.4741    0.0000 C   0  0  0  0  0  0  0  0  0  0  0  0
   10.6104   -0.4741    0.0000 C   0  0  0  0  0  0  0  0  0  0  0  0
   10.6104   -5.4241    0.0000 C   0  0  0  0  0  0  0  0  0  0  0  0
   11.3248   -4.1866    0.0000 C   0  0  0  0  0  0  0  0  0  0  0  0
    9.8959   -4.1866    0.0000 C   0  0  0  0  0  0  0  0  0  0  0  0
   11.3248   -5.0116    0.0000 C   0  0  0  0  0  0  0  0  0  0  0  0
    9.8959   -5.0116    0.0000 C   0  0  0  0  0  0  0  0  0  0  0  0
    9.8489   -9.2090    0.0000 C   0  0  3  0  0  0  0  0  0  0  0  0
   12.0393    2.0009    0.0000 C   0  0  0  0  0  0  0  0  0  0  0  0
   12.7538    2.4134    0.0000 C   0  0  0  0  0  0  0  0  0  0  0  0
    8.5140   -9.2090    0.0000 C   0  0  0  0  0  0  0  0  0  0  0  0
    9.1814   -7.8991    0.0000 C   0  0  0  0  0  0  0  0  0  0  0  0
    9.5939   -9.9937    0.0000 C   0  0  0  0  0  0  0  0  0  0  0  0
    9.8959   -6.6616    0.0000 C   0  0  0  0  0  0  0  0  0  0  0  0
    8.7689   -9.9937    0.0000 C   0  0  0  0  0  0  0  0  0  0  0  0
    9.8959   -7.4866    0.0000 C   0  0  0  0  0  0  0  0  0  0  0  0
   12.7538    3.2384    0.0000 C   0  0  0  0  0  0  0  0  0  0  0  0
   13.4682    2.0009    0.0000 C   0  0  0  0  0  0  0  0  0  0  0  0
   10.6335   -8.9541    0.0000 C   0  0  0  0  0  0  0  0  0  0  0  0
   13.4682    3.6509    0.0000 C   0  0  0  0  0  0  0  0  0  0  0  0
   14.1827    2.4134    0.0000 C   0  0  0  0  0  0  0  0  0  0  0  0
   14.1827    3.2384    0.0000 C   0  0  0  0  0  0  0  0  0  0  0  0
  1 11  1  0  0  0  0
  1 22  1  0  0  0  0
  2 16  1  0  0  0  0
  2 27  1  0  0  0  0
  3  9  2  0  0  0  0
  4 11  2  0  0  0  0
  5 10  1  0  0  0  0
  5 12  1  0  0  0  0
  5 13  1  0  0  0  0
  6 11  1  0  0  0  0
  6 14  1  0  0  0  0
  6 15  1  0  0  0  0
  7 21  1  0  0  0  0
  7 24  1  0  0  0  0
  7 25  1  6  0  0  0
  8  9  1  0  0  0  0
  8 17  2  0  0  0  0
  8 18  1  0  0  0  0
  9 10  1  0  0  0  0
 12 14  1  0  0  0  0
 13 15  1  0  0  0  0
 16 19  2  0  0  0  0
 16 20  1  0  0  0  0
 17 19  1  0  0  0  0
 18 20  2  0  0  0  0
 21 26  1  0  0  0  0
 21 32  1  0  0  0  0
 22 23  1  0  0  0  0
 23 30  2  0  0  0  0
 23 31  1  0  0  0  0
 24 28  1  0  0  0  0
 25 29  1  0  0  0  0
 26 28  1  0  0  0  0
 27 29  1  0  0  0  0
 30 33  1  0  0  0  0
 31 34  2  0  0  0  0
 33 35  2  0  0  0  0
 34 35  1  0  0  0  0
M  END
> <PUBCHEM_COMPOUND_ID_TYPE>
0

> <PUBCHEM_TOTAL_CHARGE>
0

> <PUBCHEM_SUBSTANCE_ID>
310931058

> <PUBCHEM_SUBSTANCE_VERSION>
1

> <PUBCHEM_EXT_DATASOURCE_NAME>
4488

> <PUBCHEM_EXT_DATASOURCE_REGID>
SCHEMBL16108360

> <PUBCHEM_SUBSTANCE_COMMENT>
InChI=1S/C28H37N3O4/c1-23-7-5-14-30(23)15-6-20-34-26-12-10-25(11-13-26)27(32)21-29-16-18-31(19-17-29)28(33)35-22-24-8-3-2-4-9-24/h2-4,8-13,23H,5-7,14-22H2,1H3
InChIKey=UFXZHZWTFQZOIR-UHFFFAOYSA-N

> <PUBCHEM_SUBSTANCE_SYNONYM>
SCHEMBL16108360

> <PUBCHEM_XREF_EXT_ID>
SCHEMBL16108360

> <PUBCHEM_EXT_DATASOURCE_URL>
https://www.surechembl.org/

> <PUBCHEM_EXT_SUBSTANCE_URL>
https://www.surechembl.org/chemical/SCHEMBL16108360

> <PUBCHEM_CID_ASSOCIATIONS>
77446956  1

> <PUBCHEM_COORDINATE_TYPE>
1
3

> <PUBCHEM_BONDANNOTATIONS>
7  25  6

$$$$
