310931142
  -OEChem-07211613022D

 29 31  0     1  0  0  0  0  0999 V2000
    3.5724    7.0125    0.0000 O   0  0  0  0  0  0  0  0  0  0  0  0
    6.4302    9.4875    0.0000 O   0  0  0  0  0  0  0  0  0  0  0  0
   10.7171    9.4875    0.0000 O   0  0  0  0  0  0  0  0  0  0  0  0
   10.0026   10.7250    0.0000 O   0  0  0  0  0  0  0  0  0  0  0  0
    7.8592    8.6625    0.0000 N   0  0  0  0  0  0  0  0  0  0  0  0
    9.2881    9.4875    0.0000 N   0  0  0  0  0  0  0  0  0  0  0  0
    0.7145    7.0125    0.0000 N   0  0  3  0  0  0  0  0  0  0  0  0
    5.7158    8.2500    0.0000 C   0  0  0  0  0  0  0  0  0  0  0  0
    6.4302    8.6625    0.0000 C   0  0  0  0  0  0  0  0  0  0  0  0
    7.1447    8.2500    0.0000 C   0  0  0  0  0  0  0  0  0  0  0  0
    8.5737    8.2500    0.0000 C   0  0  0  0  0  0  0  0  0  0  0  0
    7.8592    9.4875    0.0000 C   0  0  0  0  0  0  0  0  0  0  0  0
    9.2881    8.6625    0.0000 C   0  0  0  0  0  0  0  0  0  0  0  0
    8.5737    9.9000    0.0000 C   0  0  0  0  0  0  0  0  0  0  0  0
    4.2868    7.4250    0.0000 C   0  0  0  0  0  0  0  0  0  0  0  0
    5.7158    7.4250    0.0000 C   0  0  0  0  0  0  0  0  0  0  0  0
    5.0013    8.6625    0.0000 C   0  0  0  0  0  0  0  0  0  0  0  0
   10.0026    9.9000    0.0000 C   0  0  0  0  0  0  0  0  0  0  0  0
    5.0013    7.0125    0.0000 C   0  0  0  0  0  0  0  0  0  0  0  0
    4.2868    8.2500    0.0000 C   0  0  0  0  0  0  0  0  0  0  0  0
    0.6282    6.1920    0.0000 C   0  0  3  0  0  0  0  0  0  0  0  0
   -0.0392    7.3481    0.0000 C   0  0  0  0  0  0  0  0  0  0  0  0
    1.4289    7.4250    0.0000 C   0  0  0  0  0  0  0  0  0  0  0  0
   -0.1787    6.0205    0.0000 C   0  0  0  0  0  0  0  0  0  0  0  0
   -0.5912    6.7350    0.0000 C   0  0  0  0  0  0  0  0  0  0  0  0
    2.8579    7.4250    0.0000 C   0  0  0  0  0  0  0  0  0  0  0  0
    2.1434    7.0125    0.0000 C   0  0  0  0  0  0  0  0  0  0  0  0
    1.2413    5.6400    0.0000 C   0  0  0  0  0  0  0  0  0  0  0  0
   11.4315    9.9000    0.0000 C   0  0  0  0  0  0  0  0  0  0  0  0
  1 15  1  0  0  0  0
  1 26  1  0  0  0  0
  2  9  2  0  0  0  0
  3 18  1  0  0  0  0
  3 29  1  0  0  0  0
  4 18  2  0  0  0  0
  5 10  1  0  0  0  0
  5 11  1  0  0  0  0
  5 12  1  0  0  0  0
  6 13  1  0  0  0  0
  6 14  1  0  0  0  0
  6 18  1  0  0  0  0
  7 21  1  0  0  0  0
  7 22  1  0  0  0  0
  7 23  1  6  0  0  0
  8  9  1  0  0  0  0
  8 16  2  0  0  0  0
  8 17  1  0  0  0  0
  9 10  1  0  0  0  0
 11 13  1  0  0  0  0
 12 14  1  0  0  0  0
 15 19  2  0  0  0  0
 15 20  1  0  0  0  0
 16 19  1  0  0  0  0
 17 20  2  0  0  0  0
 21 24  1  0  0  0  0
 21 28  1  0  0  0  0
 22 25  1  0  0  0  0
 23 27  1  0  0  0  0
 24 25  1  0  0  0  0
 26 27  1  0  0  0  0
M  END
> <PUBCHEM_COMPOUND_ID_TYPE>
0

> <PUBCHEM_TOTAL_CHARGE>
0

> <PUBCHEM_SUBSTANCE_ID>
310931142

> <PUBCHEM_SUBSTANCE_VERSION>
1

> <PUBCHEM_EXT_DATASOURCE_NAME>
4488

> <PUBCHEM_EXT_DATASOURCE_REGID>
SCHEMBL16108447

> <PUBCHEM_SUBSTANCE_COMMENT>
InChI=1S/C22H33N3O4/c1-18-5-3-10-24(18)11-4-16-29-20-8-6-19(7-9-20)21(26)17-23-12-14-25(15-13-23)22(27)28-2/h6-9,18H,3-5,10-17H2,1-2H3
InChIKey=ZPGZREGNFRDDSM-UHFFFAOYSA-N

> <PUBCHEM_SUBSTANCE_SYNONYM>
SCHEMBL16108447

> <PUBCHEM_XREF_EXT_ID>
SCHEMBL16108447

> <PUBCHEM_EXT_DATASOURCE_URL>
https://www.surechembl.org/

> <PUBCHEM_EXT_SUBSTANCE_URL>
https://www.surechembl.org/chemical/SCHEMBL16108447

> <PUBCHEM_CID_ASSOCIATIONS>
75306644  1

> <PUBCHEM_COORDINATE_TYPE>
1
3

> <PUBCHEM_BONDANNOTATIONS>
7  23  6

$$$$
