310929592
  -OEChem-07211613022D

 59 63  0     1  0  0  0  0  0999 V2000
   -1.4289   -0.0000    0.0000 O   0  0  0  0  0  0  0  0  0  0  0  0
   -0.0000   -2.4750    0.0000 O   0  0  0  0  0  0  0  0  0  0  0  0
   -1.9908    3.5157    0.0000 O   0  0  0  0  0  0  0  0  0  0  0  0
    0.2890    2.6757    0.0000 O   0  0  0  0  0  0  0  0  0  0  0  0
   -6.5408   -1.6500    0.0000 O   0  0  0  0  0  0  0  0  0  0  0  0
   -3.1468    2.6757    0.0000 O   0  0  0  0  0  0  0  0  0  0  0  0
   -0.8671    3.5157    0.0000 O   0  0  0  0  0  0  0  0  0  0  0  0
  -10.1131   -1.2375    0.0000 O   0  0  0  0  0  0  0  0  0  0  0  0
   -7.2552   -0.4125    0.0000 O   0  0  0  0  0  0  0  0  0  0  0  0
   -9.3987   -2.4750    0.0000 O   0  0  0  0  0  0  0  0  0  0  0  0
    0.0000    0.0000    0.0000 N   0  0  0  0  0  0  0  0  0  0  0  0
   -1.8414    2.0945    0.0000 N   0  0  0  0  0  0  0  0  0  0  0  0
    2.1434   -1.2375    0.0000 N   0  0  0  0  0  0  0  0  0  0  0  0
   -7.9697   -1.6500    0.0000 N   0  0  0  0  0  0  0  0  0  0  0  0
   -0.7145   -1.2375    0.0000 C   0  0  0  0  0  0  0  0  0  0  0  0
    0.0000   -1.6500    0.0000 C   0  0  0  0  0  0  0  0  0  0  0  0
   -0.7145   -0.4125    0.0000 C   0  0  0  0  0  0  0  0  0  0  0  0
    0.7145   -1.2375    0.0000 C   0  0  0  0  0  0  0  0  0  0  0  0
    0.7145   -0.4125    0.0000 C   0  0  0  0  0  0  0  0  0  0  0  0
   -1.4289    0.8250    0.0000 C   0  0  3  0  0  0  0  0  0  0  0  0
   -1.0164    2.0945    0.0000 C   0  0  3  0  0  0  0  0  0  0  0  0
   -2.0964    1.3099    0.0000 C   0  0  0  0  0  0  0  0  0  0  0  0
   -0.7615    1.3099    0.0000 C   0  0  0  0  0  0  0  0  0  0  0  0
    1.4289   -1.6500    0.0000 C   0  0  0  0  0  0  0  0  0  0  0  0
   -1.4289   -1.6500    0.0000 C   0  0  0  0  0  0  0  0  0  0  0  0
   -2.3264    2.7620    0.0000 C   0  0  0  0  0  0  0  0  0  0  0  0
    1.4289    0.0000    0.0000 C   0  0  0  0  0  0  0  0  0  0  0  0
   -0.5315    2.7620    0.0000 C   0  0  0  0  0  0  0  0  0  0  0  0
   -5.8263   -1.2375    0.0000 C   0  0  3  0  0  0  0  0  0  0  0  0
   -5.0013   -1.2375    0.0000 C   0  0  3  0  0  0  0  0  0  0  0  0
    2.1434   -0.4125    0.0000 C   0  0  0  0  0  0  0  0  0  0  0  0
    0.7145   -2.8875    0.0000 C   0  0  0  0  0  0  0  0  0  0  0  0
   -5.4138   -0.5230    0.0000 C   0  0  0  0  0  0  0  0  0  0  0  0
   -2.1434   -1.2375    0.0000 C   0  0  0  0  0  0  0  0  0  0  0  0
   -2.4757    4.1831    0.0000 C   0  0  0  0  0  0  0  0  0  0  0  0
   -8.6842   -1.2375    0.0000 C   0  0  3  0  0  0  0  0  0  0  0  0
   -4.2868   -1.6500    0.0000 C   0  0  0  0  0  0  0  0  0  0  0  0
    0.7145   -3.7125    0.0000 C   0  0  0  0  0  0  0  0  0  0  0  0
   -7.2552   -1.2375    0.0000 C   0  0  0  0  0  0  0  0  0  0  0  0
   -8.6842   -0.4125    0.0000 C   0  0  0  0  0  0  0  0  0  0  0  0
   -2.8579   -1.6500    0.0000 C   0  0  0  0  0  0  0  0  0  0  0  0
   -9.3987   -1.6500    0.0000 C   0  0  0  0  0  0  0  0  0  0  0  0
   -3.5724   -1.2375    0.0000 C   0  0  0  0  0  0  0  0  0  0  0  0
    1.4289   -4.1250    0.0000 C   0  0  0  0  0  0  0  0  0  0  0  0
   -0.0000   -4.1250    0.0000 C   0  0  0  0  0  0  0  0  0  0  0  0
   -2.9607    4.8505    0.0000 C   0  0  0  0  0  0  0  0  0  0  0  0
   -3.1432    3.6982    0.0000 C   0  0  0  0  0  0  0  0  0  0  0  0
   -1.8083    4.6680    0.0000 C   0  0  0  0  0  0  0  0  0  0  0  0
    0.6245    1.9221    0.0000 C   0  0  0  0  0  0  0  0  0  0  0  0
  -10.8276   -1.6500    0.0000 C   0  0  0  0  0  0  0  0  0  0  0  0
   -9.5092   -0.4125    0.0000 C   0  0  0  0  0  0  0  0  0  0  0  0
   -7.8592   -0.4125    0.0000 C   0  0  0  0  0  0  0  0  0  0  0  0
   -8.6842    0.4125    0.0000 C   0  0  0  0  0  0  0  0  0  0  0  0
    1.4289   -4.9500    0.0000 C   0  0  0  0  0  0  0  0  0  0  0  0
   -0.0000   -4.9500    0.0000 C   0  0  0  0  0  0  0  0  0  0  0  0
    0.7145   -5.3625    0.0000 C   0  0  0  0  0  0  0  0  0  0  0  0
  -11.5421   -2.0625    0.0000 C   0  0  0  0  0  0  0  0  0  0  0  0
  -11.2401   -0.9355    0.0000 C   0  0  0  0  0  0  0  0  0  0  0  0
  -10.4151   -2.3645    0.0000 C   0  0  0  0  0  0  0  0  0  0  0  0
  1 17  1  0  0  0  0
 20  1  1  1  0  0  0
  2 16  1  0  0  0  0
  2 32  1  0  0  0  0
  3 26  1  0  0  0  0
  3 35  1  0  0  0  0
  4 28  1  0  0  0  0
  4 49  1  0  0  0  0
 29  5  1  6  0  0  0
  5 39  1  0  0  0  0
  6 26  2  0  0  0  0
  7 28  2  0  0  0  0
  8 42  1  0  0  0  0
  8 50  1  0  0  0  0
  9 39  2  0  0  0  0
 10 42  2  0  0  0  0
 11 17  2  0  0  0  0
 11 19  1  0  0  0  0
 12 21  1  0  0  0  0
 12 22  1  0  0  0  0
 12 26  1  0  0  0  0
 13 24  2  0  0  0  0
 13 31  1  0  0  0  0
 14 36  1  0  0  0  0
 14 39  1  0  0  0  0
 15 16  2  0  0  0  0
 15 17  1  0  0  0  0
 15 25  1  0  0  0  0
 16 18  1  0  0  0  0
 18 19  2  0  0  0  0
 18 24  1  0  0  0  0
 19 27  1  0  0  0  0
 20 22  1  0  0  0  0
 20 23  1  0  0  0  0
 21 23  1  0  0  0  0
 21 28  1  6  0  0  0
 25 34  2  0  0  0  0
 27 31  2  0  0  0  0
 29 30  1  0  0  0  0
 29 33  1  0  0  0  0
 30 33  1  0  0  0  0
 30 37  1  1  0  0  0
 32 38  1  0  0  0  0
 34 41  1  0  0  0  0
 35 46  1  0  0  0  0
 35 47  1  0  0  0  0
 35 48  1  0  0  0  0
 36 40  1  0  0  0  0
 42 36  1  1  0  0  0
 37 43  1  0  0  0  0
 38 44  2  0  0  0  0
 38 45  1  0  0  0  0
 40 51  1  0  0  0  0
 40 52  1  0  0  0  0
 40 53  1  0  0  0  0
 41 43  1  0  0  0  0
 44 54  1  0  0  0  0
 45 55  2  0  0  0  0
 50 57  1  0  0  0  0
 50 58  1  0  0  0  0
 50 59  1  0  0  0  0
 54 56  2  0  0  0  0
 55 56  1  0  0  0  0
M  END
> <PUBCHEM_COMPOUND_ID_TYPE>
0

> <PUBCHEM_TOTAL_CHARGE>
0

> <PUBCHEM_SUBSTANCE_ID>
310929592

> <PUBCHEM_SUBSTANCE_VERSION>
1

> <PUBCHEM_EXT_DATASOURCE_NAME>
4488

> <PUBCHEM_EXT_DATASOURCE_REGID>
SCHEMBL16106778

> <PUBCHEM_SUBSTANCE_COMMENT>
InChI=1S/C45H60N4O10/c1-43(2,3)37(40(51)58-44(4,5)6)48-41(52)57-35-23-29(35)19-15-12-16-20-31-36(55-27-28-17-13-11-14-18-28)32-25-46-22-21-33(32)47-38(31)56-30-24-34(39(50)54-10)49(26-30)42(53)59-45(7,8)9/h11,13-14,16-18,20-22,25,29-30,34-35,37H,12,15,19,23-24,26-27H2,1-10H3,(H,48,52)/t29-,30-,34+,35-,37?/m1/s1
InChIKey=PWJDVIIFPPHYSU-WFASTIJNSA-N

> <PUBCHEM_SUBSTANCE_SYNONYM>
SCHEMBL16106778

> <PUBCHEM_XREF_EXT_ID>
SCHEMBL16106778

> <PUBCHEM_EXT_DATASOURCE_URL>
https://www.surechembl.org/

> <PUBCHEM_EXT_SUBSTANCE_URL>
https://www.surechembl.org/chemical/SCHEMBL16106778

> <PUBCHEM_CID_ASSOCIATIONS>
117598902  1

> <PUBCHEM_COORDINATE_TYPE>
1
3

> <PUBCHEM_BONDANNOTATIONS>
20  1  5
25  15  3
21  28  6
30  37  5
42  36  5
29  5  6

$$$$
