310929806
  -OEChem-07211613022D

 27 27  0     1  0  0  0  0  0999 V2000
   -3.2236   -4.9598    0.0000 O   0  0  0  0  0  0  0  0  0  0  0  0
    0.8271   -3.5566    0.0000 O   0  0  0  0  0  0  0  0  0  0  0  0
   -2.1434   -5.8952    0.0000 O   0  0  0  0  0  0  0  0  0  0  0  0
   -1.8734   -4.4921    0.0000 N   0  0  0  0  0  0  0  0  0  0  0  0
   -0.7932   -3.2448    0.0000 N   0  0  0  0  0  0  0  0  0  0  0  0
   -1.6033   -3.0889    0.0000 N   0  3  0  0  0  0  0  0  0  0  0  0
   -2.4135   -2.9329    0.0000 N   0  5  0  0  0  0  0  0  0  0  0  0
   -0.5231   -4.0243    0.0000 C   0  0  3  0  0  0  0  0  0  0  0  0
    0.2870   -4.1802    0.0000 C   0  0  3  0  0  0  0  0  0  0  0  0
   -2.4135   -5.1157    0.0000 C   0  0  0  0  0  0  0  0  0  0  0  0
   -1.0632   -4.6480    0.0000 C   0  0  0  0  0  0  0  0  0  0  0  0
   -3.7637   -5.5834    0.0000 C   0  0  0  0  0  0  0  0  0  0  0  0
   -2.1434   -3.7125    0.0000 C   0  0  0  0  0  0  0  0  0  0  0  0
    0.5570   -4.9598    0.0000 C   0  0  0  0  0  0  0  0  0  0  0  0
    1.6372   -3.7125    0.0000 C   0  0  0  0  0  0  0  0  0  0  0  0
    2.1773   -3.0889    0.0000 C   0  0  0  0  0  0  0  0  0  0  0  0
   -2.9535   -3.5566    0.0000 C   0  0  0  0  0  0  0  0  0  0  0  0
   -4.3038   -6.2071    0.0000 C   0  0  0  0  0  0  0  0  0  0  0  0
   -4.3873   -5.0433    0.0000 C   0  0  0  0  0  0  0  0  0  0  0  0
   -3.1400   -6.1235    0.0000 C   0  0  0  0  0  0  0  0  0  0  0  0
    1.9073   -2.3093    0.0000 C   0  0  0  0  0  0  0  0  0  0  0  0
    2.9874   -3.2448    0.0000 C   0  0  0  0  0  0  0  0  0  0  0  0
    1.3672   -5.1157    0.0000 C   0  0  0  0  0  0  0  0  0  0  0  0
    2.4473   -1.6857    0.0000 C   0  0  0  0  0  0  0  0  0  0  0  0
    3.5275   -2.6211    0.0000 C   0  0  0  0  0  0  0  0  0  0  0  0
    3.2575   -1.8416    0.0000 C   0  0  0  0  0  0  0  0  0  0  0  0
   -3.2236   -2.7770    0.0000 C   0  0  0  0  0  0  0  0  0  0  0  0
  1 10  1  0  0  0  0
  1 12  1  0  0  0  0
  2  9  1  0  0  0  0
  2 15  1  0  0  0  0
  3 10  2  0  0  0  0
  4 10  1  6  0  0  0
  4 11  1  0  0  0  0
  4 13  1  0  0  0  0
  5  6  2  0  0  0  0
  5  8  1  0  0  0  0
  6  7  2  0  0  0  0
  8  9  1  0  0  0  0
  8 11  1  0  0  0  0
  9 14  1  0  0  0  0
 12 18  1  0  0  0  0
 12 19  1  0  0  0  0
 12 20  1  0  0  0  0
 13 17  1  0  0  0  0
 14 23  2  0  0  0  0
 15 16  1  0  0  0  0
 16 21  2  0  0  0  0
 16 22  1  0  0  0  0
 17 27  2  0  0  0  0
 21 24  1  0  0  0  0
 22 25  2  0  0  0  0
 24 26  2  0  0  0  0
 25 26  1  0  0  0  0
M  CHG  2   6   1   7  -1
M  END
> <PUBCHEM_COMPOUND_ID_TYPE>
0

> <PUBCHEM_TOTAL_CHARGE>
0

> <PUBCHEM_SUBSTANCE_ID>
310929806

> <PUBCHEM_SUBSTANCE_VERSION>
1

> <PUBCHEM_EXT_DATASOURCE_NAME>
4488

> <PUBCHEM_EXT_DATASOURCE_REGID>
SCHEMBL16107009

> <PUBCHEM_SUBSTANCE_COMMENT>
InChI=1S/C20H28N4O3/c1-6-13-24(19(25)27-20(3,4)5)14-17(22-23-21)18(7-2)26-15-16-11-9-8-10-12-16/h6-12,17-18H,1-2,13-15H2,3-5H3
InChIKey=AQASXZPTIQJLKM-UHFFFAOYSA-N

> <PUBCHEM_SUBSTANCE_SYNONYM>
SCHEMBL16107009

> <PUBCHEM_XREF_EXT_ID>
SCHEMBL16107009

> <PUBCHEM_EXT_DATASOURCE_URL>
https://www.surechembl.org/

> <PUBCHEM_EXT_SUBSTANCE_URL>
https://www.surechembl.org/chemical/SCHEMBL16107009

> <PUBCHEM_CID_ASSOCIATIONS>
85225280  1

> <PUBCHEM_COORDINATE_TYPE>
1
3

> <PUBCHEM_BONDANNOTATIONS>
4  10  6

$$$$
