310931886
  -OEChem-07211613022D

 11  9  0     1  0  0  0  0  0999 V2000
    3.5888    0.0000    0.0000 Cl  0  0  0  0  0  0  0  0  0  0  0  0
    0.0000   -2.7958    0.0000 Cl  0  0  0  0  0  0  0  0  0  0  0  0
   -0.0794    0.5042    0.0000 N   0  0  3  0  0  0  0  0  0  0  0  0
   -0.0794   -1.1458    0.0000 N   0  0  0  0  0  0  0  0  0  0  0  0
    0.6351   -0.7333    0.0000 C   0  0  3  0  0  0  0  0  0  0  0  0
    0.6351    0.0917    0.0000 C   0  0  0  0  0  0  0  0  0  0  0  0
   -0.7939    0.0917    0.0000 C   0  0  0  0  0  0  0  0  0  0  0  0
   -0.7939   -0.7333    0.0000 C   0  0  0  0  0  0  0  0  0  0  0  0
   -0.0794    1.3292    0.0000 C   0  0  0  0  0  0  0  0  0  0  0  0
    1.3496   -1.1458    0.0000 C   0  0  0  0  0  0  0  0  0  0  0  0
   -0.7939    1.7417    0.0000 C   0  0  0  0  0  0  0  0  0  0  0  0
  3  6  1  0  0  0  0
  3  7  1  0  0  0  0
  3  9  1  6  0  0  0
  4  5  1  0  0  0  0
  4  8  1  0  0  0  0
  5  6  1  0  0  0  0
  5 10  1  0  0  0  0
  7  8  1  0  0  0  0
  9 11  1  0  0  0  0
M  END
> <PUBCHEM_COMPOUND_ID_TYPE>
0

> <PUBCHEM_TOTAL_CHARGE>
0

> <PUBCHEM_SUBSTANCE_ID>
310931886

> <PUBCHEM_SUBSTANCE_VERSION>
1

> <PUBCHEM_EXT_DATASOURCE_NAME>
4488

> <PUBCHEM_EXT_DATASOURCE_REGID>
SCHEMBL16109221

> <PUBCHEM_SUBSTANCE_COMMENT>
InChI=1S/C7H16N2.2ClH/c1-3-9-5-4-8-7(2)6-9;;/h7-8H,3-6H2,1-2H3;2*1H
InChIKey=LZQXZFBVEYXZIP-UHFFFAOYSA-N

> <PUBCHEM_SUBSTANCE_SYNONYM>
SCHEMBL16109221

> <PUBCHEM_XREF_EXT_ID>
SCHEMBL16109221

> <PUBCHEM_EXT_DATASOURCE_URL>
https://www.surechembl.org/

> <PUBCHEM_EXT_SUBSTANCE_URL>
https://www.surechembl.org/chemical/SCHEMBL16109221

> <PUBCHEM_CID_ASSOCIATIONS>
86767562  1
313  2
21911958  2

> <PUBCHEM_COORDINATE_TYPE>
1
3

> <PUBCHEM_BONDANNOTATIONS>
3  9  6

$$$$
