310931814
  -OEChem-07211613022D

 28 30  0     1  0  0  0  0  0999 V2000
    2.7982   -1.9072    0.0000 S   0  0  0  0  0  0  0  0  0  0  0  0
    7.0380    0.6402    0.0000 O   0  0  0  0  0  0  0  0  0  0  0  0
    3.4656    1.0527    0.0000 O   0  0  0  0  0  0  0  0  0  0  0  0
    2.0367    1.0527    0.0000 O   0  0  0  0  0  0  0  0  0  0  0  0
    4.1331   -1.9072    0.0000 N   0  0  0  0  0  0  0  0  0  0  0  0
    6.3235   -0.5973    0.0000 C   0  0  0  0  0  0  0  0  0  0  0  0
    5.6091   -0.1848    0.0000 C   0  0  0  0  0  0  0  0  0  0  0  0
    4.1801   -0.1848    0.0000 C   0  0  0  0  0  0  0  0  0  0  0  0
    3.4656   -0.5973    0.0000 C   0  0  3  0  0  0  0  0  0  0  0  0
    7.0380   -0.1848    0.0000 C   0  0  0  0  0  0  0  0  0  0  0  0
    7.0380   -1.8348    0.0000 C   0  0  0  0  0  0  0  0  0  0  0  0
    4.8946   -0.5973    0.0000 C   0  0  0  0  0  0  0  0  0  0  0  0
    6.3235   -1.4223    0.0000 C   0  0  0  0  0  0  0  0  0  0  0  0
    3.4656   -1.4223    0.0000 C   0  0  0  0  0  0  0  0  0  0  0  0
    7.0380   -2.6598    0.0000 C   0  0  0  0  0  0  0  0  0  0  0  0
    5.6091    0.6402    0.0000 C   0  0  0  0  0  0  0  0  0  0  0  0
    4.1801    0.6402    0.0000 C   0  0  0  0  0  0  0  0  0  0  0  0
    7.7525   -0.5973    0.0000 C   0  0  0  0  0  0  0  0  0  0  0  0
    7.7525   -1.4223    0.0000 C   0  0  0  0  0  0  0  0  0  0  0  0
    2.7512   -0.1848    0.0000 C   0  0  0  0  0  0  0  0  0  0  0  0
    4.8946    1.0527    0.0000 C   0  0  0  0  0  0  0  0  0  0  0  0
    2.7512    0.6402    0.0000 C   0  0  0  0  0  0  0  0  0  0  0  0
    3.0531   -2.6919    0.0000 C   0  0  0  0  0  0  0  0  0  0  0  0
    3.8781   -2.6919    0.0000 C   0  0  0  0  0  0  0  0  0  0  0  0
    7.0380   -3.4848    0.0000 C   0  0  0  0  0  0  0  0  0  0  0  0
    7.8630   -2.6598    0.0000 C   0  0  0  0  0  0  0  0  0  0  0  0
    6.2130   -2.6598    0.0000 C   0  0  0  0  0  0  0  0  0  0  0  0
    7.7525    1.0527    0.0000 C   0  0  0  0  0  0  0  0  0  0  0  0
  1 14  1  0  0  0  0
  1 23  1  0  0  0  0
  2 10  1  0  0  0  0
  2 28  1  0  0  0  0
  3 22  2  0  0  0  0
 22  4  1  6  0  0  0
  5 14  2  0  0  0  0
  5 24  1  0  0  0  0
  6  7  1  0  0  0  0
  6 10  2  0  0  0  0
  6 13  1  0  0  0  0
  7 12  2  0  0  0  0
  7 16  1  0  0  0  0
  8  9  1  0  0  0  0
  8 12  1  0  0  0  0
  8 17  2  0  0  0  0
  9 14  1  0  0  0  0
  9 20  1  0  0  0  0
 10 18  1  0  0  0  0
 11 13  2  0  0  0  0
 11 15  1  0  0  0  0
 11 19  1  0  0  0  0
 15 25  1  0  0  0  0
 15 26  1  0  0  0  0
 15 27  1  0  0  0  0
 16 21  2  0  0  0  0
 17 21  1  0  0  0  0
 18 19  2  0  0  0  0
 20 22  1  0  0  0  0
 23 24  2  0  0  0  0
M  END
> <PUBCHEM_COMPOUND_ID_TYPE>
0

> <PUBCHEM_TOTAL_CHARGE>
0

> <PUBCHEM_SUBSTANCE_ID>
310931814

> <PUBCHEM_SUBSTANCE_VERSION>
1

> <PUBCHEM_EXT_DATASOURCE_NAME>
4488

> <PUBCHEM_EXT_DATASOURCE_REGID>
SCHEMBL16109147

> <PUBCHEM_SUBSTANCE_COMMENT>
InChI=1S/C23H25NO3S/c1-23(2,3)17-8-9-20(27-4)18(13-17)15-6-5-7-16(12-15)19(14-21(25)26)22-24-10-11-28-22/h5-13,19H,14H2,1-4H3,(H,25,26)
InChIKey=MQMSFGOOPJPNIL-UHFFFAOYSA-N

> <PUBCHEM_SUBSTANCE_SYNONYM>
SCHEMBL16109147

> <PUBCHEM_XREF_EXT_ID>
SCHEMBL16109147

> <PUBCHEM_EXT_DATASOURCE_URL>
https://www.surechembl.org/

> <PUBCHEM_EXT_SUBSTANCE_URL>
https://www.surechembl.org/chemical/SCHEMBL16109147

> <PUBCHEM_CID_ASSOCIATIONS>
117600490  1

> <PUBCHEM_COORDINATE_TYPE>
1
3

> <PUBCHEM_BONDANNOTATIONS>
22  4  6

$$$$
