310930577
  -OEChem-07211613022D

 29 31  0     1  0  0  0  0  0999 V2000
    3.5724    7.0125    0.0000 O   0  0  0  0  0  0  0  0  0  0  0  0
    6.4302    9.4875    0.0000 O   0  0  0  0  0  0  0  0  0  0  0  0
   10.0026   10.7250    0.0000 O   0  0  0  0  0  0  0  0  0  0  0  0
    7.8592    8.6625    0.0000 N   0  0  0  0  0  0  0  0  0  0  0  0
    9.2881    9.4875    0.0000 N   0  0  0  0  0  0  0  0  0  0  0  0
    0.7145    7.0125    0.0000 N   0  0  3  0  0  0  0  0  0  0  0  0
    5.7158    8.2500    0.0000 C   0  0  0  0  0  0  0  0  0  0  0  0
    6.4302    8.6625    0.0000 C   0  0  0  0  0  0  0  0  0  0  0  0
    7.1447    8.2500    0.0000 C   0  0  0  0  0  0  0  0  0  0  0  0
    4.2868    7.4250    0.0000 C   0  0  0  0  0  0  0  0  0  0  0  0
    8.5737    8.2500    0.0000 C   0  0  0  0  0  0  0  0  0  0  0  0
    7.8592    9.4875    0.0000 C   0  0  0  0  0  0  0  0  0  0  0  0
    5.7158    7.4250    0.0000 C   0  0  0  0  0  0  0  0  0  0  0  0
    5.0013    8.6625    0.0000 C   0  0  0  0  0  0  0  0  0  0  0  0
    9.2881    8.6625    0.0000 C   0  0  0  0  0  0  0  0  0  0  0  0
    8.5737    9.9000    0.0000 C   0  0  0  0  0  0  0  0  0  0  0  0
   10.0026    9.9000    0.0000 C   0  0  0  0  0  0  0  0  0  0  0  0
    5.0013    7.0125    0.0000 C   0  0  0  0  0  0  0  0  0  0  0  0
    4.2868    8.2500    0.0000 C   0  0  0  0  0  0  0  0  0  0  0  0
    0.6282    6.1920    0.0000 C   0  0  3  0  0  0  0  0  0  0  0  0
   -0.0392    7.3481    0.0000 C   0  0  0  0  0  0  0  0  0  0  0  0
    1.4289    7.4250    0.0000 C   0  0  0  0  0  0  0  0  0  0  0  0
   -0.1787    6.0205    0.0000 C   0  0  0  0  0  0  0  0  0  0  0  0
   10.7171    9.4875    0.0000 C   0  0  0  0  0  0  0  0  0  0  0  0
   -0.5912    6.7350    0.0000 C   0  0  0  0  0  0  0  0  0  0  0  0
    2.8579    7.4250    0.0000 C   0  0  0  0  0  0  0  0  0  0  0  0
    2.1434    7.0125    0.0000 C   0  0  0  0  0  0  0  0  0  0  0  0
    1.2413    5.6400    0.0000 C   0  0  0  0  0  0  0  0  0  0  0  0
   11.4315    9.9000    0.0000 C   0  0  0  0  0  0  0  0  0  0  0  0
  1 10  1  0  0  0  0
  1 26  1  0  0  0  0
  2  8  2  0  0  0  0
  3 17  2  0  0  0  0
  4  9  1  0  0  0  0
  4 11  1  0  0  0  0
  4 12  1  0  0  0  0
  5 15  1  0  0  0  0
  5 16  1  0  0  0  0
  5 17  1  0  0  0  0
  6 20  1  0  0  0  0
  6 21  1  0  0  0  0
  6 22  1  6  0  0  0
  7  8  1  0  0  0  0
  7 13  2  0  0  0  0
  7 14  1  0  0  0  0
  8  9  1  0  0  0  0
 10 18  2  0  0  0  0
 10 19  1  0  0  0  0
 11 15  1  0  0  0  0
 12 16  1  0  0  0  0
 13 18  1  0  0  0  0
 14 19  2  0  0  0  0
 17 24  1  0  0  0  0
 20 23  1  0  0  0  0
 20 28  1  0  0  0  0
 21 25  1  0  0  0  0
 22 27  1  0  0  0  0
 23 25  1  0  0  0  0
 24 29  1  0  0  0  0
 26 27  1  0  0  0  0
M  END
> <PUBCHEM_COMPOUND_ID_TYPE>
0

> <PUBCHEM_TOTAL_CHARGE>
0

> <PUBCHEM_SUBSTANCE_ID>
310930577

> <PUBCHEM_SUBSTANCE_VERSION>
1

> <PUBCHEM_EXT_DATASOURCE_NAME>
4488

> <PUBCHEM_EXT_DATASOURCE_REGID>
SCHEMBL16107872

> <PUBCHEM_SUBSTANCE_COMMENT>
InChI=1S/C23H35N3O3/c1-3-23(28)26-15-13-24(14-16-26)18-22(27)20-7-9-21(10-8-20)29-17-5-12-25-11-4-6-19(25)2/h7-10,19H,3-6,11-18H2,1-2H3
InChIKey=JUDSYWMZUURREM-UHFFFAOYSA-N

> <PUBCHEM_SUBSTANCE_SYNONYM>
SCHEMBL16107872

> <PUBCHEM_XREF_EXT_ID>
SCHEMBL16107872

> <PUBCHEM_EXT_DATASOURCE_URL>
https://www.surechembl.org/

> <PUBCHEM_EXT_SUBSTANCE_URL>
https://www.surechembl.org/chemical/SCHEMBL16107872

> <PUBCHEM_CID_ASSOCIATIONS>
77430751  1

> <PUBCHEM_COORDINATE_TYPE>
1
3

> <PUBCHEM_BONDANNOTATIONS>
6  22  6

$$$$
