310932317
  -OEChem-07211613022D

 54 61  0     1  0  0  0  0  0999 V2000
    0.9683   -2.2514    0.0000 F   0  0  0  0  0  0  0  0  0  0  0  0
    1.7429   -2.2514    0.0000 F   0  0  0  0  0  0  0  0  0  0  0  0
    0.9683    0.8555    0.0000 F   0  0  0  0  0  0  0  0  0  0  0  0
    1.7429    0.8555    0.0000 F   0  0  0  0  0  0  0  0  0  0  0  0
    0.1536   -2.7631    0.0000 F   0  0  0  0  0  0  0  0  0  0  0  0
   -1.2054   -2.3215    0.0000 F   0  0  0  0  0  0  0  0  0  0  0  0
   -4.9432    3.1810    0.0000 F   0  0  0  0  0  0  0  0  0  0  0  0
   -5.5374    0.3856    0.0000 F   0  0  0  0  0  0  0  0  0  0  0  0
   -1.4604    1.7103    0.0000 O   0  0  0  0  0  0  0  0  0  0  0  0
   -0.1435   -0.0305    0.0000 N   0  0  0  0  0  0  0  0  0  0  0  0
   -0.6284   -0.6979    0.0000 N   0  0  0  0  0  0  0  0  0  0  0  0
   -1.7575    0.3126    0.0000 N   0  0  0  0  0  0  0  0  0  0  0  0
   -2.8615   -0.9136    0.0000 N   0  0  0  0  0  0  0  0  0  0  0  0
   -3.9719    1.8868    0.0000 N   0  0  0  0  0  0  0  0  0  0  0  0
   -2.0967   -3.2675    0.0000 N   0  0  0  0  0  0  0  0  0  0  0  0
   -5.3261    3.1712    0.0000 N   0  0  0  0  0  0  0  0  0  0  0  0
   -2.5625   -4.7011    0.0000 N   0  0  0  0  0  0  0  0  0  0  0  0
    0.6411   -1.1104    0.0000 C   0  0  0  0  0  0  0  0  0  0  0  0
    0.6411   -0.2854    0.0000 C   0  0  0  0  0  0  0  0  0  0  0  0
    1.3556   -1.5229    0.0000 C   0  0  0  0  0  0  0  0  0  0  0  0
    1.3556    0.1271    0.0000 C   0  0  0  0  0  0  0  0  0  0  0  0
   -0.1435   -1.3654    0.0000 C   0  0  0  0  0  0  0  0  0  0  0  0
    2.0701   -1.1104    0.0000 C   0  0  0  0  0  0  0  0  0  0  0  0
    2.0701   -0.2854    0.0000 C   0  0  0  0  0  0  0  0  0  0  0  0
   -0.3984   -2.1500    0.0000 C   0  0  0  0  0  0  0  0  0  0  0  0
   -0.3984    0.7541    0.0000 C   0  0  0  0  0  0  0  0  0  0  0  0
   -1.2054    0.9256    0.0000 C   0  0  0  0  0  0  0  0  0  0  0  0
   -3.1165   -0.1290    0.0000 C   0  0  0  0  0  0  0  0  0  0  0  0
   -2.5644    0.4841    0.0000 C   0  0  3  0  0  0  0  0  0  0  0  0
   -3.9234    0.0425    0.0000 C   0  0  0  0  0  0  0  0  0  0  0  0
   -3.8403    0.7365    0.0000 C   0  0  0  0  0  0  0  0  0  0  0  0
   -3.4135   -1.5267    0.0000 C   0  0  0  0  0  0  0  0  0  0  0  0
   -4.4755   -0.5706    0.0000 C   0  0  0  0  0  0  0  0  0  0  0  0
   -3.1586   -2.3114    0.0000 C   0  0  0  0  0  0  0  0  0  0  0  0
   -2.8194    1.2687    0.0000 C   0  0  0  0  0  0  0  0  0  0  0  0
   -4.2205   -1.3552    0.0000 C   0  0  0  0  0  0  0  0  0  0  0  0
   -5.0759    0.6606    0.0000 C   0  0  0  0  0  0  0  0  0  0  0  0
   -5.3309    1.4452    0.0000 C   0  0  0  0  0  0  0  0  0  0  0  0
   -3.9644    1.5308    0.0000 C   0  0  0  0  0  0  0  0  0  0  0  0
   -4.7788    2.0583    0.0000 C   0  0  0  0  0  0  0  0  0  0  0  0
   -3.6263    1.4402    0.0000 C   0  0  0  0  0  0  0  0  0  0  0  0
   -3.4557   -3.7091    0.0000 C   0  0  0  0  0  0  0  0  0  0  0  0
   -3.7106   -2.9244    0.0000 C   0  0  0  0  0  0  0  0  0  0  0  0
   -2.6487   -3.8806    0.0000 C   0  0  0  0  0  0  0  0  0  0  0  0
   -2.3516   -2.4829    0.0000 C   0  0  0  0  0  0  0  0  0  0  0  0
   -5.9940    2.1188    0.0000 C   0  0  0  0  0  0  0  0  0  0  0  0
   -4.1784    0.8271    0.0000 C   0  0  0  0  0  0  0  0  0  0  0  0
   -3.8813    2.2248    0.0000 C   0  0  0  0  0  0  0  0  0  0  0  0
   -3.8682   -4.4235    0.0000 C   0  0  0  0  0  0  0  0  0  0  0  0
   -5.9077    2.9393    0.0000 C   0  0  0  0  0  0  0  0  0  0  0  0
   -3.3162   -5.0366    0.0000 C   0  0  0  0  0  0  0  0  0  0  0  0
   -4.6882    2.3964    0.0000 C   0  0  0  0  0  0  0  0  0  0  0  0
   -4.9853    0.9987    0.0000 C   0  0  0  0  0  0  0  0  0  0  0  0
   -5.2403    1.7833    0.0000 C   0  0  0  0  0  0  0  0  0  0  0  0
  1 20  1  0  0  0  0
  2 20  1  0  0  0  0
  3 21  1  0  0  0  0
  4 21  1  0  0  0  0
  5 25  1  0  0  0  0
  6 25  1  0  0  0  0
  7 52  1  0  0  0  0
  8 53  1  0  0  0  0
  9 27  2  0  0  0  0
 10 11  1  0  0  0  0
 10 19  1  0  0  0  0
 10 26  1  0  0  0  0
 11 22  2  0  0  0  0
 12 27  1  0  0  0  0
 12 29  1  0  0  0  0
 13 28  2  0  0  0  0
 13 32  1  0  0  0  0
 14 39  1  0  0  0  0
 14 40  2  0  0  0  0
 15 44  2  0  0  0  0
 15 45  1  0  0  0  0
 16 40  1  0  0  0  0
 16 50  1  0  0  0  0
 17 44  1  0  0  0  0
 17 51  1  0  0  0  0
 18 19  2  0  0  0  0
 18 20  1  0  0  0  0
 18 22  1  0  0  0  0
 19 21  1  0  0  0  0
 20 23  1  0  0  0  0
 21 24  1  0  0  0  0
 22 25  1  0  0  0  0
 23 24  1  0  0  0  0
 27 26  1  6  0  0  0
 28 29  1  0  0  0  0
 28 30  1  0  0  0  0
 29 35  1  0  0  0  0
 30 31  1  0  0  0  0
 30 33  2  0  0  0  0
 31 37  1  0  0  0  0
 31 39  2  0  0  0  0
 32 34  1  0  0  0  0
 32 36  2  0  0  0  0
 33 36  1  0  0  0  0
 34 43  1  0  0  0  0
 34 45  2  0  0  0  0
 35 41  1  0  0  0  0
 37 38  2  0  0  0  0
 38 40  1  0  0  0  0
 38 46  1  0  0  0  0
 41 47  2  0  0  0  0
 41 48  1  0  0  0  0
 42 43  2  0  0  0  0
 42 44  1  0  0  0  0
 42 49  1  0  0  0  0
 46 50  2  0  0  0  0
 47 53  1  0  0  0  0
 48 52  2  0  0  0  0
 49 51  2  0  0  0  0
 52 54  1  0  0  0  0
 53 54  2  0  0  0  0
M  END
> <PUBCHEM_COMPOUND_ID_TYPE>
0

> <PUBCHEM_TOTAL_CHARGE>
0

> <PUBCHEM_SUBSTANCE_ID>
310932317

> <PUBCHEM_SUBSTANCE_VERSION>
1

> <PUBCHEM_EXT_DATASOURCE_NAME>
4488

> <PUBCHEM_EXT_DATASOURCE_REGID>
SCHEMBL16109683

> <PUBCHEM_SUBSTANCE_COMMENT>
InChI=1S/C37H26F8N8O/c38-23-9-18(10-24(39)14-23)11-27(50-28(54)17-53-32-29(31(52-53)33(40)41)36(42,43)5-6-37(32,44)45)30-25(21-12-19-3-7-46-34(19)48-15-21)1-2-26(51-30)22-13-20-4-8-47-35(20)49-16-22/h1-4,7-10,12-16,27,33H,5-6,11,17H2,(H,46,48)(H,47,49)(H,50,54)
InChIKey=DKQZHDCXOGYPOP-UHFFFAOYSA-N

> <PUBCHEM_SUBSTANCE_SYNONYM>
SCHEMBL16109683

> <PUBCHEM_XREF_EXT_ID>
SCHEMBL16109683

> <PUBCHEM_EXT_DATASOURCE_URL>
https://www.surechembl.org/

> <PUBCHEM_EXT_SUBSTANCE_URL>
https://www.surechembl.org/chemical/SCHEMBL16109683

> <PUBCHEM_CID_ASSOCIATIONS>
117600875  1

> <PUBCHEM_COORDINATE_TYPE>
1
3

> <PUBCHEM_BONDANNOTATIONS>
27  26  6

$$$$
