310938091
  -OEChem-07211613022D

 33 35  0     1  0  0  0  0  0999 V2000
   -1.0530   -0.2494    0.0000 O   0  0  0  0  0  0  0  0  0  0  0  0
   -0.0265   -0.7064    0.0000 O   0  0  0  0  0  0  0  0  0  0  0  0
   -2.4820    3.0506    0.0000 O   0  0  0  0  0  0  0  0  0  0  0  0
   -3.1964    1.8131    0.0000 O   0  0  0  0  0  0  0  0  0  0  0  0
   -1.7675   -0.6619    0.0000 O   0  0  0  0  0  0  0  0  0  0  0  0
   -3.1964   -0.6619    0.0000 O   0  0  0  0  0  0  0  0  0  0  0  0
   -0.3386    0.9881    0.0000 N   0  0  0  0  0  0  0  0  0  0  0  0
    1.3713   -0.4093    0.0000 N   0  0  0  0  0  0  0  0  0  0  0  0
   -1.7675    1.8131    0.0000 N   0  0  0  0  0  0  0  0  0  0  0  0
    2.5823   -2.2559    0.0000 N   0  0  0  0  0  0  0  0  0  0  0  0
    2.9948   -0.9863    0.0000 N   0  0  0  0  0  0  0  0  0  0  0  0
    3.4073   -2.2559    0.0000 N   0  0  0  0  0  0  0  0  0  0  0  0
    3.6623   -1.4712    0.0000 N   0  0  0  0  0  0  0  0  0  0  0  0
   -0.2523    1.8086    0.0000 C   0  0  0  0  0  0  0  0  0  0  0  0
    0.4151    0.6526    0.0000 C   0  0  3  0  0  0  0  0  0  0  0  0
    0.5546    1.9802    0.0000 C   0  0  0  0  0  0  0  0  0  0  0  0
   -1.0530    0.5756    0.0000 C   0  0  0  0  0  0  0  0  0  0  0  0
    0.9671    1.2657    0.0000 C   0  0  0  0  0  0  0  0  0  0  0  0
    0.5866   -0.1544    0.0000 C   0  0  0  0  0  0  0  0  0  0  0  0
   -1.7675    0.9881    0.0000 C   0  0  3  0  0  0  0  0  0  0  0  0
   -0.8044    2.4217    0.0000 C   0  0  0  0  0  0  0  0  0  0  0  0
    0.8096    2.7648    0.0000 C   0  0  0  0  0  0  0  0  0  0  0  0
   -0.5494    3.2063    0.0000 C   0  0  0  0  0  0  0  0  0  0  0  0
    0.2575    3.3779    0.0000 C   0  0  0  0  0  0  0  0  0  0  0  0
   -2.4820    0.5756    0.0000 C   0  0  0  0  0  0  0  0  0  0  0  0
   -2.4820    2.2256    0.0000 C   0  0  0  0  0  0  0  0  0  0  0  0
    1.5428   -1.2163    0.0000 C   0  0  0  0  0  0  0  0  0  0  0  0
   -2.4820   -0.2494    0.0000 C   0  0  0  0  0  0  0  0  0  0  0  0
    2.3274   -1.4712    0.0000 C   0  0  0  0  0  0  0  0  0  0  0  0
   -3.1964    3.4631    0.0000 C   0  0  0  0  0  0  0  0  0  0  0  0
   -3.9109    3.8756    0.0000 C   0  0  0  0  0  0  0  0  0  0  0  0
   -2.7839    4.1776    0.0000 C   0  0  0  0  0  0  0  0  0  0  0  0
   -3.6089    2.7487    0.0000 C   0  0  0  0  0  0  0  0  0  0  0  0
  1 17  2  0  0  0  0
  2 19  2  0  0  0  0
  3 26  1  0  0  0  0
  3 30  1  0  0  0  0
  4 26  2  0  0  0  0
  5 28  2  0  0  0  0
  6 28  1  0  0  0  0
  7 14  1  0  0  0  0
  7 15  1  0  0  0  0
  7 17  1  6  0  0  0
  8 19  1  0  0  0  0
  8 27  1  0  0  0  0
  9 20  1  0  0  0  0
  9 26  1  0  0  0  0
 10 12  2  0  0  0  0
 10 29  1  0  0  0  0
 11 13  1  0  0  0  0
 11 29  2  0  0  0  0
 12 13  1  0  0  0  0
 14 16  2  0  0  0  0
 14 21  1  0  0  0  0
 15 18  1  0  0  0  0
 15 19  1  0  0  0  0
 16 18  1  0  0  0  0
 16 22  1  0  0  0  0
 17 20  1  0  0  0  0
 20 25  1  0  0  0  0
 21 23  2  0  0  0  0
 22 24  2  0  0  0  0
 23 24  1  0  0  0  0
 25 28  1  0  0  0  0
 27 29  1  0  0  0  0
 30 31  1  0  0  0  0
 30 32  1  0  0  0  0
 30 33  1  0  0  0  0
M  END
> <PUBCHEM_COMPOUND_ID_TYPE>
0

> <PUBCHEM_TOTAL_CHARGE>
0

> <PUBCHEM_SUBSTANCE_ID>
310938091

> <PUBCHEM_SUBSTANCE_VERSION>
1

> <PUBCHEM_EXT_DATASOURCE_NAME>
4488

> <PUBCHEM_EXT_DATASOURCE_REGID>
SCHEMBL16115936

> <PUBCHEM_SUBSTANCE_COMMENT>
InChI=1S/C20H25N7O6/c1-20(2,3)33-19(32)22-12(9-16(28)29)18(31)27-13-7-5-4-6-11(13)8-14(27)17(30)21-10-15-23-25-26-24-15/h4-7,12,14H,8-10H2,1-3H3,(H,21,30)(H,22,32)(H,28,29)(H,23,24,25,26)
InChIKey=FQKMVCNBAIOTCV-UHFFFAOYSA-N

> <PUBCHEM_SUBSTANCE_SYNONYM>
SCHEMBL16115936

> <PUBCHEM_XREF_EXT_ID>
SCHEMBL16115936

> <PUBCHEM_EXT_DATASOURCE_URL>
https://www.surechembl.org/

> <PUBCHEM_EXT_SUBSTANCE_URL>
https://www.surechembl.org/chemical/SCHEMBL16115936

> <PUBCHEM_CID_ASSOCIATIONS>
117605654  1

> <PUBCHEM_COORDINATE_TYPE>
1
3

> <PUBCHEM_BONDANNOTATIONS>
7  17  6

$$$$
