310937129
  -OEChem-07211613022D

 35 36  0     1  0  0  0  0  0999 V2000
    7.7916    0.0000    0.0000 Cl  0  0  0  0  0  0  0  0  0  0  0  0
    1.6632    0.8648    0.0000 O   0  0  0  0  0  0  0  0  0  0  0  0
    2.0224   -2.5522    0.0000 O   0  0  0  0  0  0  0  0  0  0  0  0
    1.0662   -1.4903    0.0000 O   0  0  0  0  0  0  0  0  0  0  0  0
   -0.4802   -1.1977    0.0000 O   0  0  0  0  0  0  0  0  0  0  0  0
   -2.6236    0.8648    0.0000 O   0  0  0  0  0  0  0  0  0  0  0  0
    2.3777   -0.3727    0.0000 N   0  0  0  0  0  0  0  0  0  0  0  0
    0.2343    0.0398    0.0000 N   0  0  0  0  0  0  0  0  0  0  0  0
    5.5523    0.4774    0.0000 N   0  0  0  0  0  0  0  0  0  0  0  0
   -1.9091   -0.3727    0.0000 N   0  0  0  0  0  0  0  0  0  0  0  0
    3.1314   -0.0372    0.0000 C   0  0  0  0  0  0  0  0  0  0  0  0
    2.4640   -1.1932    0.0000 C   0  0  3  0  0  0  0  0  0  0  0  0
    3.6834   -0.6503    0.0000 C   0  0  0  0  0  0  0  0  0  0  0  0
    3.2709   -1.3647    0.0000 C   0  0  0  0  0  0  0  0  0  0  0  0
    1.6632    0.0398    0.0000 C   0  0  0  0  0  0  0  0  0  0  0  0
    3.3863    0.7474    0.0000 C   0  0  0  0  0  0  0  0  0  0  0  0
    1.8509   -1.7453    0.0000 C   0  0  0  0  0  0  0  0  0  0  0  0
    4.4904   -0.4787    0.0000 C   0  0  0  0  0  0  0  0  0  0  0  0
    4.7453    0.3059    0.0000 C   0  0  0  0  0  0  0  0  0  0  0  0
    4.1933    0.9190    0.0000 C   0  0  0  0  0  0  0  0  0  0  0  0
    0.9488   -0.3727    0.0000 C   0  0  0  0  0  0  0  0  0  0  0  0
   -0.4802   -0.3727    0.0000 C   0  0  0  0  0  0  0  0  0  0  0  0
   -1.1946    0.0398    0.0000 C   0  0  3  0  0  0  0  0  0  0  0  0
   -1.1946    0.8648    0.0000 C   0  0  3  0  0  0  0  0  0  0  0  0
   -2.6236    0.0398    0.0000 C   0  0  0  0  0  0  0  0  0  0  0  0
   -3.3380   -0.3727    0.0000 C   0  0  0  0  0  0  0  0  0  0  0  0
   -1.9091    1.2773    0.0000 C   0  0  0  0  0  0  0  0  0  0  0  0
   -4.0525    0.0398    0.0000 C   0  0  0  0  0  0  0  0  0  0  0  0
   -0.4802    1.2773    0.0000 C   0  0  0  0  0  0  0  0  0  0  0  0
   -4.7670   -0.3727    0.0000 C   0  0  0  0  0  0  0  0  0  0  0  0
   -4.0525    0.8648    0.0000 C   0  0  0  0  0  0  0  0  0  0  0  0
   -1.9091    2.1023    0.0000 C   0  0  0  0  0  0  0  0  0  0  0  0
   -5.4815    0.0398    0.0000 C   0  0  0  0  0  0  0  0  0  0  0  0
   -4.7670    1.2773    0.0000 C   0  0  0  0  0  0  0  0  0  0  0  0
   -5.4815    0.8648    0.0000 C   0  0  0  0  0  0  0  0  0  0  0  0
  2 15  2  0  0  0  0
  3 17  2  0  0  0  0
  4 17  1  0  0  0  0
  5 22  2  0  0  0  0
  6 25  2  0  0  0  0
  7 11  1  0  0  0  0
  7 12  1  0  0  0  0
  7 15  1  6  0  0  0
  8 21  1  0  0  0  0
  8 22  1  0  0  0  0
  9 19  1  0  0  0  0
 10 23  1  0  0  0  0
 10 25  1  0  0  0  0
 11 13  2  0  0  0  0
 11 16  1  0  0  0  0
 12 14  1  0  0  0  0
 12 17  1  0  0  0  0
 13 14  1  0  0  0  0
 13 18  1  0  0  0  0
 15 21  1  0  0  0  0
 16 20  2  0  0  0  0
 18 19  2  0  0  0  0
 19 20  1  0  0  0  0
 23 22  1  1  0  0  0
 23 24  1  0  0  0  0
 24 27  1  0  0  0  0
 24 29  1  6  0  0  0
 25 26  1  0  0  0  0
 26 28  1  0  0  0  0
 27 32  1  0  0  0  0
 28 30  2  0  0  0  0
 28 31  1  0  0  0  0
 30 33  1  0  0  0  0
 31 34  2  0  0  0  0
 33 35  2  0  0  0  0
 34 35  1  0  0  0  0
M  END
> <PUBCHEM_COMPOUND_ID_TYPE>
0

> <PUBCHEM_TOTAL_CHARGE>
0

> <PUBCHEM_SUBSTANCE_ID>
310937129

> <PUBCHEM_SUBSTANCE_VERSION>
1

> <PUBCHEM_EXT_DATASOURCE_NAME>
4488

> <PUBCHEM_EXT_DATASOURCE_REGID>
SCHEMBL16114848

> <PUBCHEM_SUBSTANCE_COMMENT>
InChI=1S/C25H30N4O5.ClH/c1-3-15(2)23(28-21(30)11-16-7-5-4-6-8-16)24(32)27-14-22(31)29-19-10-9-18(26)12-17(19)13-20(29)25(33)34;/h4-10,12,15,20,23H,3,11,13-14,26H2,1-2H3,(H,27,32)(H,28,30)(H,33,34);1H/t15-,20?,23-;/m0./s1
InChIKey=IWNLMLBGKQJEKQ-INTZMCFBSA-N

> <PUBCHEM_SUBSTANCE_SYNONYM>
SCHEMBL16114848

> <PUBCHEM_XREF_EXT_ID>
SCHEMBL16114848

> <PUBCHEM_EXT_DATASOURCE_URL>
https://www.surechembl.org/

> <PUBCHEM_EXT_SUBSTANCE_URL>
https://www.surechembl.org/chemical/SCHEMBL16114848

> <PUBCHEM_CID_ASSOCIATIONS>
117604958  1
313  2
117604959  2

> <PUBCHEM_COORDINATE_TYPE>
1
3

> <PUBCHEM_BONDANNOTATIONS>
23  22  5
24  29  6
7  15  6

$$$$
