310939475
  -OEChem-07211613022D

 27 26  0     1  0  0  0  0  0999 V2000
    1.7910    1.2677    0.0000 *   0  0  0  0  0  0  0  0  0  0  0  0
   -1.0669    1.2677    0.0000 *   0  0  0  0  0  0  0  0  0  0  0  0
    2.5055    0.8552    0.0000 O   0  0  0  0  0  0  0  0  0  0  0  0
   -1.7813    0.8552    0.0000 O   0  0  0  0  0  0  0  0  0  0  0  0
   -3.2973    0.8842    0.0000 O   0  0  0  0  0  0  0  0  0  0  0  0
    4.7262    1.2387    0.0000 O   0  0  0  0  0  0  0  0  0  0  0  0
    4.0118    0.0012    0.0000 O   0  0  0  0  0  0  0  0  0  0  0  0
   -3.2973    2.5342    0.0000 O   0  0  0  0  0  0  0  0  0  0  0  0
    3.9359    3.3302    0.0000 O   0  0  0  0  0  0  0  0  0  0  0  0
    4.6503    2.0927    0.0000 O   0  0  0  0  0  0  0  0  0  0  0  0
    1.0765    3.3302    0.0000 O   0  0  0  0  0  0  0  0  0  0  0  0
    1.7910    2.0927    0.0000 O   0  0  0  0  0  0  0  0  0  0  0  0
   -4.0118   -0.3533    0.0000 O   0  0  0  0  0  0  0  0  0  0  0  0
   -4.7262    2.5342    0.0000 O   0  0  0  0  0  0  0  0  0  0  0  0
    0.3621    1.2677    0.0000 N   0  0  3  0  0  0  0  0  0  0  0  0
    3.2200    1.2677    0.0000 C   0  0  3  0  0  0  0  0  0  0  0  0
    4.0118    0.8262    0.0000 C   0  0  0  0  0  0  0  0  0  0  0  0
    1.0765    0.8552    0.0000 C   0  0  0  0  0  0  0  0  0  0  0  0
    3.2214    2.0927    0.0000 C   0  0  0  0  0  0  0  0  0  0  0  0
   -0.3524    0.8552    0.0000 C   0  0  0  0  0  0  0  0  0  0  0  0
    0.3621    2.0927    0.0000 C   0  0  0  0  0  0  0  0  0  0  0  0
   -2.5828    1.2967    0.0000 C   0  0  3  0  0  0  0  0  0  0  0  0
    3.9359    2.5052    0.0000 C   0  0  0  0  0  0  0  0  0  0  0  0
    1.0765    2.5052    0.0000 C   0  0  0  0  0  0  0  0  0  0  0  0
   -2.5828    2.1217    0.0000 C   0  0  0  0  0  0  0  0  0  0  0  0
   -3.2973    0.0592    0.0000 C   0  0  0  0  0  0  0  0  0  0  0  0
   -4.0118    2.1217    0.0000 C   0  0  0  0  0  0  0  0  0  0  0  0
  1  3  1  0  0  0  0
  1 18  1  0  0  0  0
  2  4  1  0  0  0  0
  2 20  1  0  0  0  0
  3 16  1  0  0  0  0
  4 22  1  0  0  0  0
  5 22  1  0  0  0  0
  5 26  1  0  0  0  0
  6 17  2  0  0  0  0
  7 17  1  0  0  0  0
  8 25  1  0  0  0  0
  8 27  1  0  0  0  0
  9 23  2  0  0  0  0
 10 23  1  0  0  0  0
 11 24  2  0  0  0  0
 12 24  1  0  0  0  0
 13 26  2  0  0  0  0
 14 27  2  0  0  0  0
 15 18  1  0  0  0  0
 15 20  1  0  0  0  0
 15 21  1  0  0  0  0
 16 17  1  0  0  0  0
 16 19  1  0  0  0  0
 19 23  1  0  0  0  0
 21 24  1  0  0  0  0
 22 25  1  0  0  0  0
A    1
H2
A    2
H2
M  END
> <PUBCHEM_COMPOUND_ID_TYPE>
0

> <PUBCHEM_TOTAL_CHARGE>
0

> <PUBCHEM_SUBSTANCE_ID>
310939475

> <PUBCHEM_SUBSTANCE_VERSION>
1

> <PUBCHEM_EXT_DATASOURCE_NAME>
4488

> <PUBCHEM_EXT_DATASOURCE_REGID>
SCHEMBL16117402

> <PUBCHEM_SUBSTANCE_COMMENT>
InChI=1S/C14H21NO12/c16-8-24-7-13(27-9-17)26-4-2-15(6-12(20)21)1-3-25-10(14(22)23)5-11(18)19/h8-10,13H,1-7H2,(H,18,19)(H,20,21)(H,22,23)
InChIKey=CSCSUQCQCZTDBE-UHFFFAOYSA-N

> <PUBCHEM_SUBSTANCE_SYNONYM>
SCHEMBL16117402

> <PUBCHEM_XREF_EXT_ID>
SCHEMBL16117402

> <PUBCHEM_EXT_DATASOURCE_URL>
https://www.surechembl.org/

> <PUBCHEM_EXT_SUBSTANCE_URL>
https://www.surechembl.org/chemical/SCHEMBL16117402

> <PUBCHEM_COORDINATE_TYPE>
1
3

$$$$
