310939515
  -OEChem-07211613022D

 16 18  0     1  0  0  0  0  0999 V2000
   -0.3328   -0.4465    0.0000 *   0  0  0  0  0  0  0  0  0  0  0  0
    1.7497    1.6293    0.0000 *   0  0  0  0  0  0  0  0  0  0  0  0
   -1.7617   -1.6293    0.0000 *   0  0  0  0  0  0  0  0  0  0  0  0
    2.4762    0.3785    0.0000 O   0  0  0  0  0  0  0  0  0  0  0  0
    0.3817    0.7910    0.0000 C   0  0  3  0  0  0  0  0  0  0  0  0
    0.3817   -0.0340    0.0000 C   0  0  3  0  0  0  0  0  0  0  0  0
   -1.0473   -0.0340    0.0000 C   0  0  0  0  0  0  0  0  0  0  0  0
   -1.0473    0.7910    0.0000 C   0  0  0  0  0  0  0  0  0  0  0  0
    1.1663    1.0459    0.0000 C   0  0  3  0  0  0  0  0  0  0  0  0
   -0.3328    1.2035    0.0000 C   0  0  0  0  0  0  0  0  0  0  0  0
    1.6512    0.3785    0.0000 C   0  0  3  0  0  0  0  0  0  0  0  0
    1.1663   -0.2890    0.0000 C   0  0  0  0  0  0  0  0  0  0  0  0
   -1.7617   -0.4465    0.0000 C   0  0  0  0  0  0  0  0  0  0  0  0
   -1.7617    1.2035    0.0000 C   0  0  0  0  0  0  0  0  0  0  0  0
   -2.4762   -0.0340    0.0000 C   0  0  0  0  0  0  0  0  0  0  0  0
   -2.4762    0.7910    0.0000 C   0  0  0  0  0  0  0  0  0  0  0  0
  1  6  1  0  0  0  0
  1  7  1  0  0  0  0
  9  2  1  1  0  0  0
  3 13  1  0  0  0  0
 11  4  1  6  0  0  0
  5  6  1  0  0  0  0
  5  9  1  0  0  0  0
  5 10  1  6  0  0  0
  6 12  1  6  0  0  0
  7  8  1  0  0  0  0
  7 13  2  0  0  0  0
  8 10  1  0  0  0  0
  8 14  2  0  0  0  0
  9 11  1  0  0  0  0
 11 12  1  0  0  0  0
 13 15  1  0  0  0  0
 14 16  1  0  0  0  0
 15 16  2  0  0  0  0
A    1
Z
A    2
L\S1
A    3
X(CH2)\sw\nCOOR\S1
M  END
> <PUBCHEM_COMPOUND_ID_TYPE>
0

> <PUBCHEM_TOTAL_CHARGE>
0

> <PUBCHEM_SUBSTANCE_ID>
310939515

> <PUBCHEM_SUBSTANCE_VERSION>
1

> <PUBCHEM_EXT_DATASOURCE_NAME>
4488

> <PUBCHEM_EXT_DATASOURCE_REGID>
SCHEMBL16117444

> <PUBCHEM_SUBSTANCE_COMMENT>
InChI=1S/C15H20O/c1-9-4-3-5-11-6-14-10(2)15(16)8-12(14)7-13(9)11/h3-5,10,12,14-16H,6-8H2,1-2H3/t10-,12+,14-,15-/m1/s1
InChIKey=IPTACQHBDBLFOC-DZGBDDFRSA-N

> <PUBCHEM_SUBSTANCE_SYNONYM>
SCHEMBL16117444

> <PUBCHEM_XREF_EXT_ID>
SCHEMBL16117444

> <PUBCHEM_EXT_DATASOURCE_URL>
https://www.surechembl.org/

> <PUBCHEM_EXT_SUBSTANCE_URL>
https://www.surechembl.org/chemical/SCHEMBL16117444

> <PUBCHEM_COORDINATE_TYPE>
1
3

> <PUBCHEM_BONDANNOTATIONS>
9  2  5
11  4  6
5  10  6
6  12  6

$$$$
