310947921
  -OEChem-07211613022D

 32 35  0     0  0  0  0  0  0999 V2000
    0.9476    3.4418    0.0000 *   0  0  0  0  0  0  0  0  0  0  0  0
    3.7041    3.5813    0.0000 S   0  0  0  0  0  0  0  0  0  0  0  0
    2.3765    0.9668    0.0000 F   0  0  0  0  0  0  0  0  0  0  0  0
   -4.8769    2.5352    0.0000 O   0  0  0  0  0  0  0  0  0  0  0  0
   -2.7335    5.4227    0.0000 O   0  0  0  0  0  0  0  0  0  0  0  0
    2.5480    4.2488    0.0000 N   0  0  0  0  0  0  0  0  0  0  0  0
   -3.4480    4.1852    0.0000 N   0  0  0  0  0  0  0  0  0  0  0  0
    0.1243    2.9477    0.0000 N   0  0  0  0  0  0  0  0  0  0  0  0
    3.7810    5.0495    0.0000 N   0  0  0  0  0  0  0  0  0  0  0  0
    2.3765    3.4418    0.0000 C   0  0  0  0  0  0  0  0  0  0  0  0
    3.0910    3.0293    0.0000 C   0  0  0  0  0  0  0  0  0  0  0  0
    1.6620    3.0293    0.0000 C   0  0  0  0  0  0  0  0  0  0  0  0
    3.3685    4.3350    0.0000 C   0  0  0  0  0  0  0  0  0  0  0  0
    3.0910    2.2043    0.0000 C   0  0  0  0  0  0  0  0  0  0  0  0
    2.3765    1.7918    0.0000 C   0  0  0  0  0  0  0  0  0  0  0  0
    1.6620    2.2043    0.0000 C   0  0  0  0  0  0  0  0  0  0  0  0
   -4.8769    3.3602    0.0000 C   0  0  0  0  0  0  0  0  0  0  0  0
   -2.7335    4.5977    0.0000 C   0  0  0  0  0  0  0  0  0  0  0  0
   -2.0191    4.1852    0.0000 C   0  0  0  0  0  0  0  0  0  0  0  0
   -0.5901    3.3602    0.0000 C   0  0  0  0  0  0  0  0  0  0  0  0
   -4.8769    4.1852    0.0000 C   0  0  0  0  0  0  0  0  0  0  0  0
   -4.1625    2.9477    0.0000 C   0  0  0  0  0  0  0  0  0  0  0  0
   -4.1625    4.5977    0.0000 C   0  0  0  0  0  0  0  0  0  0  0  0
   -3.4480    3.3602    0.0000 C   0  0  0  0  0  0  0  0  0  0  0  0
   -2.0191    3.3602    0.0000 C   0  0  0  0  0  0  0  0  0  0  0  0
   -1.3046    4.5977    0.0000 C   0  0  0  0  0  0  0  0  0  0  0  0
   -5.5914    3.7727    0.0000 C   0  0  0  0  0  0  0  0  0  0  0  0
   -1.3046    2.9477    0.0000 C   0  0  0  0  0  0  0  0  0  0  0  0
   -0.5901    4.1852    0.0000 C   0  0  0  0  0  0  0  0  0  0  0  0
   -6.3059    3.3602    0.0000 C   0  0  0  0  0  0  0  0  0  0  0  0
   -7.0204    3.7727    0.0000 C   0  0  0  0  0  0  0  0  0  0  0  0
   -6.3059    2.5352    0.0000 C   0  0  0  0  0  0  0  0  0  0  0  0
  1  8  1  0  0  0  0
  1 12  1  0  0  0  0
  2 11  1  0  0  0  0
  2 13  1  0  0  0  0
  3 15  1  0  0  0  0
  4 17  1  0  0  0  0
  5 18  2  0  0  0  0
  6 10  1  0  0  0  0
  6 13  2  0  0  0  0
  7 18  1  0  0  0  0
  7 23  1  0  0  0  0
  7 24  1  0  0  0  0
  8 20  1  0  0  0  0
  9 13  1  0  0  0  0
 10 11  2  0  0  0  0
 10 12  1  0  0  0  0
 11 14  1  0  0  0  0
 12 16  2  0  0  0  0
 14 15  2  0  0  0  0
 15 16  1  0  0  0  0
 17 21  1  0  0  0  0
 17 22  1  0  0  0  0
 17 27  1  0  0  0  0
 18 19  1  0  0  0  0
 19 25  2  0  0  0  0
 19 26  1  0  0  0  0
 20 28  2  0  0  0  0
 20 29  1  0  0  0  0
 21 23  1  0  0  0  0
 22 24  1  0  0  0  0
 25 28  1  0  0  0  0
 26 29  2  0  0  0  0
 27 30  1  0  0  0  0
 30 31  1  0  0  0  0
 30 32  1  0  0  0  0
A    1
O2
M  END
> <PUBCHEM_COMPOUND_ID_TYPE>
0

> <PUBCHEM_TOTAL_CHARGE>
0

> <PUBCHEM_SUBSTANCE_ID>
310947921

> <PUBCHEM_SUBSTANCE_VERSION>
1

> <PUBCHEM_EXT_DATASOURCE_NAME>
4488

> <PUBCHEM_EXT_DATASOURCE_REGID>
SCHEMBL16126095

> <PUBCHEM_SUBSTANCE_COMMENT>
InChI=1S/C24H29FN4O2S/c1-15(2)13-24(31)7-9-29(10-8-24)22(30)16-3-5-19(6-4-16)27-14-17-11-18(25)12-20-21(17)28-23(26)32-20/h3-6,11-12,15,27,31H,7-10,13-14H2,1-2H3,(H2,26,28)
InChIKey=HQUVRTBMYJHHOH-UHFFFAOYSA-N

> <PUBCHEM_SUBSTANCE_SYNONYM>
SCHEMBL16126095

> <PUBCHEM_XREF_EXT_ID>
SCHEMBL16126095

> <PUBCHEM_EXT_DATASOURCE_URL>
https://www.surechembl.org/

> <PUBCHEM_EXT_SUBSTANCE_URL>
https://www.surechembl.org/chemical/SCHEMBL16126095

> <PUBCHEM_COORDINATE_TYPE>
1
3

$$$$
