310931792
  -OEChem-07211613022D

 20 19  0     0  0  0  0  0  0999 V2000
   -9.2883    0.4125    0.0000 S   0  0  0  0  0  0  0  0  0  0  0  0
   -8.5738   -0.8250    0.0000 S   0  0  0  0  0  0  0  0  0  0  0  0
  -10.0028    0.8250    0.0000 F   0  0  0  0  0  0  0  0  0  0  0  0
   -8.5738   -1.6500    0.0000 F   0  0  0  0  0  0  0  0  0  0  0  0
   -9.7009   -0.3020    0.0000 O   0  0  0  0  0  0  0  0  0  0  0  0
   -8.8758    1.1270    0.0000 O   0  0  0  0  0  0  0  0  0  0  0  0
   -7.7488   -0.8250    0.0000 O   0  0  0  0  0  0  0  0  0  0  0  0
   -9.3988   -0.8250    0.0000 O   0  0  0  0  0  0  0  0  0  0  0  0
   -8.5738    0.0000    0.0000 N   0  3  0  0  0  0  0  0  0  0  0  0
   -7.1449    0.0000    0.0000 N   0  0  0  0  0  0  0  0  0  0  0  0
   -4.2869    0.0000    0.0000 N   0  3  0  0  0  0  0  0  0  0  0  0
   -7.8594    0.4125    0.0000 C   0  0  0  0  0  0  0  0  0  0  0  0
   -7.8594    1.2375    0.0000 C   0  0  0  0  0  0  0  0  0  0  0  0
   -6.4304    0.4125    0.0000 C   0  0  0  0  0  0  0  0  0  0  0  0
   -8.5738    1.6500    0.0000 C   0  0  0  0  0  0  0  0  0  0  0  0
   -5.7159    0.0000    0.0000 C   0  0  0  0  0  0  0  0  0  0  0  0
   -5.0014    0.4125    0.0000 C   0  0  0  0  0  0  0  0  0  0  0  0
   -3.5724   -0.4125    0.0000 C   0  0  0  0  0  0  0  0  0  0  0  0
   -4.2869   -0.8250    0.0000 C   0  0  0  0  0  0  0  0  0  0  0  0
   -3.5724    0.4125    0.0000 C   0  0  0  0  0  0  0  0  0  0  0  0
  1  3  1  0  0  0  0
  1  5  2  0  0  0  0
  1  6  2  0  0  0  0
  1  9  1  0  0  0  0
  2  4  1  0  0  0  0
  2  7  2  0  0  0  0
  2  8  2  0  0  0  0
  2  9  1  0  0  0  0
  9 12  2  0  0  0  0
 10 12  1  0  0  0  0
 10 14  1  0  0  0  0
 11 17  1  0  0  0  0
 11 18  1  0  0  0  0
 11 19  1  0  0  0  0
 11 20  1  0  0  0  0
 12 13  1  0  0  0  0
 13 15  2  0  0  0  0
 14 16  1  0  0  0  0
 16 17  1  0  0  0  0
M  CHG  2   9   1  11   1
M  END
> <PUBCHEM_COMPOUND_ID_TYPE>
0

> <PUBCHEM_TOTAL_CHARGE>
2

> <PUBCHEM_SUBSTANCE_ID>
310931792

> <PUBCHEM_SUBSTANCE_VERSION>
1

> <PUBCHEM_EXT_DATASOURCE_NAME>
4488

> <PUBCHEM_EXT_DATASOURCE_REGID>
SCHEMBL16109124

> <PUBCHEM_SUBSTANCE_COMMENT>
InChI=1S/C9H18F2N3O4S2/c1-5-9(12-7-6-8-14(2,3)4)13(19(10,15)16)20(11,17)18/h5H,1,6-8H2,2-4H3/q+1/p+1
InChIKey=KJPJKKDRDLCXLH-UHFFFAOYSA-O

> <PUBCHEM_SUBSTANCE_SYNONYM>
SCHEMBL16109124

> <PUBCHEM_XREF_EXT_ID>
SCHEMBL16109124

> <PUBCHEM_EXT_DATASOURCE_URL>
https://www.surechembl.org/

> <PUBCHEM_EXT_SUBSTANCE_URL>
https://www.surechembl.org/chemical/SCHEMBL16109124

> <PUBCHEM_CID_ASSOCIATIONS>
117600473  1

> <PUBCHEM_COORDINATE_TYPE>
1
3

$$$$
