310942916
  -OEChem-07211613022D

 31 33  0     1  0  0  0  0  0999 V2000
    2.6461    2.5474    0.0000 Cl  0  0  0  0  0  0  0  0  0  0  0  0
   -2.5416   -0.1915    0.0000 P   0  0  3  0  0  0  0  0  0  0  0  0
   -1.7060   -0.1915    0.0000 O   0  0  0  0  0  0  0  0  0  0  0  0
   -2.5300    0.6557    0.0000 O   0  0  0  0  0  0  0  0  0  0  0  0
   -3.3656   -0.1915    0.0000 O   0  0  0  0  0  0  0  0  0  0  0  0
    0.1973   -0.4352    0.0000 O   0  0  0  0  0  0  0  0  0  0  0  0
    0.8240   -2.5474    0.0000 O   0  0  0  0  0  0  0  0  0  0  0  0
   -0.4294   -2.5474    0.0000 O   0  0  0  0  0  0  0  0  0  0  0  0
    1.1490    0.1799    0.0000 N   0  0  0  0  0  0  0  0  0  0  0  0
    1.1490    1.5378    0.0000 N   0  0  0  0  0  0  0  0  0  0  0  0
    2.6461    0.0174    0.0000 N   0  0  0  0  0  0  0  0  0  0  0  0
    3.3656    1.2824    0.0000 N   0  0  0  0  0  0  0  0  0  0  0  0
   -2.9942   -0.1683    0.0000 C   0  0  3  0  0  0  0  0  0  0  0  0
   -2.9478    0.2959    0.0000 C   0  0  3  0  0  0  0  0  0  0  0  0
   -2.9362   -0.7137    0.0000 C   0  0  0  0  0  0  0  0  0  0  0  0
   -1.2418   -0.1683    0.0000 C   0  0  3  0  0  0  0  0  0  0  0  0
   -2.6577    1.0735    0.0000 C   0  0  0  0  0  0  0  0  0  0  0  0
   -0.8820   -0.1799    0.0000 C   0  0  0  0  0  0  0  0  0  0  0  0
   -1.2766   -0.6905    0.0000 C   0  0  0  0  0  0  0  0  0  0  0  0
   -2.6345   -1.5262    0.0000 C   0  0  0  0  0  0  0  0  0  0  0  0
   -1.5667    1.0852    0.0000 C   0  0  0  0  0  0  0  0  0  0  0  0
    1.9265    0.4700    0.0000 C   0  0  0  0  0  0  0  0  0  0  0  0
    1.9381    1.2940    0.0000 C   0  0  0  0  0  0  0  0  0  0  0  0
    0.8240   -0.8878    0.0000 C   0  0  3  0  0  0  0  0  0  0  0  0
   -0.4526   -0.9110    0.0000 C   0  0  0  0  0  0  0  0  0  0  0  0
    0.6615    0.8646    0.0000 C   0  0  0  0  0  0  0  0  0  0  0  0
    2.6345    1.7234    0.0000 C   0  0  0  0  0  0  0  0  0  0  0  0
    0.5919   -1.7002    0.0000 C   0  0  3  0  0  0  0  0  0  0  0  0
   -1.5667   -1.5029    0.0000 C   0  0  0  0  0  0  0  0  0  0  0  0
    3.3656    0.4584    0.0000 C   0  0  0  0  0  0  0  0  0  0  0  0
   -0.2205   -1.7002    0.0000 C   0  0  0  0  0  0  0  0  0  0  0  0
  1 27  1  0  0  0  0
  2  3  1  0  0  0  0
  2  4  1  0  0  0  0
  2 13  1  0  0  0  0
  2 14  1  0  0  0  0
 16  3  1  6  0  0  0
  5 13  1  0  0  0  0
  6 24  1  0  0  0  0
  6 25  1  0  0  0  0
 28  7  1  6  0  0  0
  8 31  1  0  0  0  0
  9 22  1  0  0  0  0
  9 24  1  0  0  0  0
  9 26  1  0  0  0  0
 10 23  1  0  0  0  0
 10 26  2  0  0  0  0
 11 22  1  0  0  0  0
 11 30  2  0  0  0  0
 12 27  2  0  0  0  0
 12 30  1  0  0  0  0
 13 14  1  0  0  0  0
 13 15  1  0  0  0  0
 14 17  1  0  0  0  0
 15 20  1  0  0  0  0
 16 18  1  0  0  0  0
 16 19  1  0  0  0  0
 16 21  1  1  0  0  0
 18 25  1  0  0  0  0
 19 29  1  0  0  0  0
 22 23  2  0  0  0  0
 23 27  1  0  0  0  0
 24 28  1  0  0  0  0
 28 31  1  0  0  0  0
M  END
> <PUBCHEM_COMPOUND_ID_TYPE>
0

> <PUBCHEM_TOTAL_CHARGE>
0

> <PUBCHEM_SUBSTANCE_ID>
310942916

> <PUBCHEM_SUBSTANCE_VERSION>
1

> <PUBCHEM_EXT_DATASOURCE_NAME>
4488

> <PUBCHEM_EXT_DATASOURCE_REGID>
SCHEMBL16120974

> <PUBCHEM_SUBSTANCE_COMMENT>
InChI=1S/C19H32ClN4O6P/c1-5-18(4,30-31(28)12(3)19(31,27)6-2)7-8-29-17(13(26)9-25)24-11-23-14-15(20)21-10-22-16(14)24/h10-13,17,25-28,31H,5-9H2,1-4H3/t12?,13-,17?,18+,19?/m1/s1
InChIKey=ASKRZCAEKGIVPL-NUXZUWMASA-N

> <PUBCHEM_SUBSTANCE_SYNONYM>
SCHEMBL16120974

> <PUBCHEM_XREF_EXT_ID>
SCHEMBL16120974

> <PUBCHEM_EXT_DATASOURCE_URL>
https://www.surechembl.org/

> <PUBCHEM_EXT_SUBSTANCE_URL>
https://www.surechembl.org/chemical/SCHEMBL16120974

> <PUBCHEM_CID_ASSOCIATIONS>
117609391  1

> <PUBCHEM_COORDINATE_TYPE>
1
3

> <PUBCHEM_BONDANNOTATIONS>
16  21  5
16  3  6
28  7  6

$$$$
