310938535
  -OEChem-07211613022D

  8  8  0     0  0  0  0  0  0999 V2000
   -0.5912    2.4492    0.0000 *   0  0  0  0  0  0  0  0  0  0  0  0
   -3.0306    3.0326    0.0000 Br  0  0  0  0  0  0  0  0  0  0  0  0
   -0.3922    3.9605    0.0000 O   0  0  0  0  0  0  0  0  0  0  0  0
   -1.8006    1.5212    0.0000 O   0  0  0  0  0  0  0  0  0  0  0  0
   -1.6016    3.0326    0.0000 N   0  0  0  0  0  0  0  0  0  0  0  0
   -1.3881    2.2357    0.0000 C   0  0  0  0  0  0  0  0  0  0  0  0
   -0.8047    3.2461    0.0000 C   0  0  0  0  0  0  0  0  0  0  0  0
   -2.3161    3.4451    0.0000 C   0  0  0  0  0  0  0  0  0  0  0  0
  1  6  1  0  0  0  0
  1  7  1  0  0  0  0
  2  8  1  0  0  0  0
  3  7  2  0  0  0  0
  4  6  2  0  0  0  0
  5  6  1  0  0  0  0
  5  7  1  0  0  0  0
  5  8  1  0  0  0  0
A    1
Z
M  END
> <PUBCHEM_COMPOUND_ID_TYPE>
0

> <PUBCHEM_TOTAL_CHARGE>
0

> <PUBCHEM_SUBSTANCE_ID>
310938535

> <PUBCHEM_SUBSTANCE_VERSION>
1

> <PUBCHEM_EXT_DATASOURCE_NAME>
4488

> <PUBCHEM_EXT_DATASOURCE_REGID>
SCHEMBL16116449

> <PUBCHEM_SUBSTANCE_COMMENT>
InChI=1S/C4H4BrNO2/c5-2-6-3(7)1-4(6)8/h1-2H2
InChIKey=VGZUHQNLXWIGQL-UHFFFAOYSA-N

> <PUBCHEM_SUBSTANCE_SYNONYM>
SCHEMBL16116449

> <PUBCHEM_XREF_EXT_ID>
SCHEMBL16116449

> <PUBCHEM_EXT_DATASOURCE_URL>
https://www.surechembl.org/

> <PUBCHEM_EXT_SUBSTANCE_URL>
https://www.surechembl.org/chemical/SCHEMBL16116449

> <PUBCHEM_COORDINATE_TYPE>
1
3

$$$$
