310939474
  -OEChem-07211613022D

 28 27  0     1  0  0  0  0  0999 V2000
    1.7958  -12.6627    0.0000 *   0  0  0  0  0  0  0  0  0  0  0  0
   -1.0620  -12.6627    0.0000 *   0  0  0  0  0  0  0  0  0  0  0  0
    2.5103  -13.0752    0.0000 O   0  0  0  0  0  0  0  0  0  0  0  0
   -1.7765  -13.0752    0.0000 O   0  0  0  0  0  0  0  0  0  0  0  0
    1.2173  -10.4844    0.0000 O   0  0  0  0  0  0  0  0  0  0  0  0
    1.9597  -11.7053    0.0000 O   0  0  0  0  0  0  0  0  0  0  0  0
   -3.2828  -13.0462    0.0000 O   0  0  0  0  0  0  0  0  0  0  0  0
    4.7117  -12.6723    0.0000 O   0  0  0  0  0  0  0  0  0  0  0  0
    3.9973  -13.9098    0.0000 O   0  0  0  0  0  0  0  0  0  0  0  0
   -3.2828  -11.3962    0.0000 O   0  0  0  0  0  0  0  0  0  0  0  0
    3.9407  -10.6002    0.0000 O   0  0  0  0  0  0  0  0  0  0  0  0
    4.6552  -11.8377    0.0000 O   0  0  0  0  0  0  0  0  0  0  0  0
   -3.9973  -14.2837    0.0000 O   0  0  0  0  0  0  0  0  0  0  0  0
   -4.7117  -11.3962    0.0000 O   0  0  0  0  0  0  0  0  0  0  0  0
    0.3669  -12.6627    0.0000 N   0  0  3  0  0  0  0  0  0  0  0  0
    0.3669  -11.8377    0.0000 C   0  0  3  0  0  0  0  0  0  0  0  0
    3.2248  -12.6627    0.0000 C   0  0  3  0  0  0  0  0  0  0  0  0
    1.0814  -13.0752    0.0000 C   0  0  0  0  0  0  0  0  0  0  0  0
   -0.3476  -13.0752    0.0000 C   0  0  0  0  0  0  0  0  0  0  0  0
    1.2361  -11.3091    0.0000 C   0  0  0  0  0  0  0  0  0  0  0  0
    3.9973  -13.0848    0.0000 C   0  0  0  0  0  0  0  0  0  0  0  0
    3.2262  -11.8377    0.0000 C   0  0  0  0  0  0  0  0  0  0  0  0
   -2.5683  -12.6337    0.0000 C   0  0  3  0  0  0  0  0  0  0  0  0
   -0.3476  -11.4252    0.0000 C   0  0  0  0  0  0  0  0  0  0  0  0
    3.9407  -11.4252    0.0000 C   0  0  0  0  0  0  0  0  0  0  0  0
   -2.5683  -11.8087    0.0000 C   0  0  0  0  0  0  0  0  0  0  0  0
   -3.2828  -13.8712    0.0000 C   0  0  0  0  0  0  0  0  0  0  0  0
   -3.9973  -11.8087    0.0000 C   0  0  0  0  0  0  0  0  0  0  0  0
  1  3  1  0  0  0  0
  1 18  1  0  0  0  0
  2  4  1  0  0  0  0
  2 19  1  0  0  0  0
  3 17  1  0  0  0  0
  4 23  1  0  0  0  0
  5 20  2  0  0  0  0
  6 20  1  0  0  0  0
  7 23  1  0  0  0  0
  7 27  1  0  0  0  0
  8 21  2  0  0  0  0
  9 21  1  0  0  0  0
 10 26  1  0  0  0  0
 10 28  1  0  0  0  0
 11 25  2  0  0  0  0
 12 25  1  0  0  0  0
 13 27  2  0  0  0  0
 14 28  2  0  0  0  0
 15 16  1  0  0  0  0
 15 18  1  0  0  0  0
 15 19  1  0  0  0  0
 16 20  1  0  0  0  0
 16 24  1  0  0  0  0
 17 21  1  0  0  0  0
 17 22  1  0  0  0  0
 22 25  1  0  0  0  0
 23 26  1  0  0  0  0
A    1
H2
A    2
H2
M  END
> <PUBCHEM_COMPOUND_ID_TYPE>
0

> <PUBCHEM_TOTAL_CHARGE>
0

> <PUBCHEM_SUBSTANCE_ID>
310939474

> <PUBCHEM_SUBSTANCE_VERSION>
1

> <PUBCHEM_EXT_DATASOURCE_NAME>
4488

> <PUBCHEM_EXT_DATASOURCE_REGID>
SCHEMBL16117401

> <PUBCHEM_SUBSTANCE_COMMENT>
InChI=1S/C15H23NO12/c1-10(14(21)22)16(2-4-26-11(15(23)24)6-12(19)20)3-5-27-13(28-9-18)7-25-8-17/h8-11,13H,2-7H2,1H3,(H,19,20)(H,21,22)(H,23,24)
InChIKey=GYJPSWJLHYSZSR-UHFFFAOYSA-N

> <PUBCHEM_SUBSTANCE_SYNONYM>
SCHEMBL16117401

> <PUBCHEM_XREF_EXT_ID>
SCHEMBL16117401

> <PUBCHEM_EXT_DATASOURCE_URL>
https://www.surechembl.org/

> <PUBCHEM_EXT_SUBSTANCE_URL>
https://www.surechembl.org/chemical/SCHEMBL16117401

> <PUBCHEM_COORDINATE_TYPE>
1
3

$$$$
