310947771
  -OEChem-07211613022D

 27 29  0     1  0  0  0  0  0999 V2000
   -4.9917    0.5156    0.0000 F   0  0  0  0  0  0  0  0  0  0  0  0
    3.7542   -0.3094    0.0000 O   0  0  0  0  0  0  0  0  0  0  0  0
   -2.1338    0.5156    0.0000 O   0  0  0  0  0  0  0  0  0  0  0  0
    1.2067    1.0725    0.0000 N   0  0  0  0  0  0  0  0  0  0  0  0
    1.2792   -0.3094    0.0000 C   0  0  0  0  0  0  0  0  0  0  0  0
    0.7942    0.3581    0.0000 C   0  0  3  0  0  0  0  0  0  0  0  0
    0.0096    0.1031    0.0000 C   0  0  0  0  0  0  0  0  0  0  0  0
    0.0096   -0.7219    0.0000 C   0  0  0  0  0  0  0  0  0  0  0  0
    0.7942   -0.9768    0.0000 C   0  0  0  0  0  0  0  0  0  0  0  0
    1.6917   -1.0238    0.0000 C   0  0  0  0  0  0  0  0  0  0  0  0
    1.6917    0.4051    0.0000 C   0  0  0  0  0  0  0  0  0  0  0  0
    0.2109    0.9414    0.0000 C   0  0  0  0  0  0  0  0  0  0  0  0
   -0.7048    0.5156    0.0000 C   0  0  0  0  0  0  0  0  0  0  0  0
   -0.7048   -1.1344    0.0000 C   0  0  0  0  0  0  0  0  0  0  0  0
   -1.4193    0.1031    0.0000 C   0  0  0  0  0  0  0  0  0  0  0  0
    2.5167   -1.0238    0.0000 C   0  0  0  0  0  0  0  0  0  0  0  0
    2.5167    0.4051    0.0000 C   0  0  0  0  0  0  0  0  0  0  0  0
    2.9292   -0.3094    0.0000 C   0  0  0  0  0  0  0  0  0  0  0  0
   -1.4193   -0.7219    0.0000 C   0  0  0  0  0  0  0  0  0  0  0  0
   -0.0026    1.7383    0.0000 C   0  0  0  0  0  0  0  0  0  0  0  0
    4.1667   -1.0238    0.0000 C   0  0  0  0  0  0  0  0  0  0  0  0
   -2.8483    0.1031    0.0000 C   0  0  0  0  0  0  0  0  0  0  0  0
   -3.5627    0.5156    0.0000 C   0  0  0  0  0  0  0  0  0  0  0  0
   -4.2772    0.1031    0.0000 C   0  0  0  0  0  0  0  0  0  0  0  0
    4.5792   -1.7383    0.0000 H   1  0  0  0  0  0  0  0  0  0  0  0
    4.9917   -1.0238    0.0000 H   1  0  0  0  0  0  0  0  0  0  0  0
    3.7542   -1.7383    0.0000 H   1  0  0  0  0  0  0  0  0  0  0  0
  1 24  1  0  0  0  0
 18  2  1  6  0  0  0
  2 21  1  0  0  0  0
  3 15  1  0  0  0  0
  3 22  1  0  0  0  0
  4  6  1  0  0  0  0
  5  6  1  0  0  0  0
  5  9  1  6  0  0  0
  5 10  1  0  0  0  0
  5 11  1  0  0  0  0
  6  7  1  0  0  0  0
  6 12  1  0  0  0  0
  7  8  1  0  0  0  0
  7 13  2  0  0  0  0
  8  9  1  0  0  0  0
  8 14  2  0  0  0  0
 10 16  1  0  0  0  0
 11 17  1  0  0  0  0
 12 20  2  0  0  0  0
 13 15  1  0  0  0  0
 14 19  1  0  0  0  0
 15 19  2  0  0  0  0
 16 18  1  0  0  0  0
 17 18  1  0  0  0  0
 21 25  1  0  0  0  0
 21 26  1  0  0  0  0
 21 27  1  0  0  0  0
 22 23  1  0  0  0  0
 23 24  1  0  0  0  0
M  ISO  3  25   2  26   2  27   2
M  END
> <PUBCHEM_COMPOUND_ID_TYPE>
0

> <PUBCHEM_TOTAL_CHARGE>
0

> <PUBCHEM_SUBSTANCE_ID>
310947771

> <PUBCHEM_SUBSTANCE_VERSION>
1

> <PUBCHEM_EXT_DATASOURCE_NAME>
4488

> <PUBCHEM_EXT_DATASOURCE_REGID>
SCHEMBL16125943

> <PUBCHEM_SUBSTANCE_COMMENT>
InChI=1S/C20H28FNO2/c1-3-20(22)18-13-17(24-12-4-11-21)6-5-15(18)14-19(20)9-7-16(23-2)8-10-19/h3,5-6,13,16H,1,4,7-12,14,22H2,2H3/t16-,19-,20?/i2D3
InChIKey=VPZAVPKROLVNCP-LQLVXUMYSA-N

> <PUBCHEM_SUBSTANCE_SYNONYM>
SCHEMBL16125943

> <PUBCHEM_XREF_EXT_ID>
SCHEMBL16125943

> <PUBCHEM_EXT_DATASOURCE_URL>
https://www.surechembl.org/

> <PUBCHEM_EXT_SUBSTANCE_URL>
https://www.surechembl.org/chemical/SCHEMBL16125943

> <PUBCHEM_CID_ASSOCIATIONS>
117613446  1

> <PUBCHEM_COORDINATE_TYPE>
1
3

> <PUBCHEM_BONDANNOTATIONS>
18  2  6
5  9  6

$$$$
