310932919
  -OEChem-07211613022D

 10  9  0     0  0  0  0  0  0999 V2000
    0.0000   -1.4289    0.0000 P   0  0  0  0  0  0  0  0  0  0  0  0
   -0.4125   -0.7145    0.0000 O   0  0  0  0  0  0  0  0  0  0  0  0
    0.4125   -2.1434    0.0000 O   0  5  0  0  0  0  0  0  0  0  0  0
   -0.7145   -1.8414    0.0000 O   0  5  0  0  0  0  0  0  0  0  0  0
    0.7145   -1.0164    0.0000 O   0  0  0  0  0  0  0  0  0  0  0  0
    0.8250    1.4289    0.0000 O   0  0  0  0  0  0  0  0  0  0  0  0
    2.0625    0.7145    0.0000 O   0  0  0  0  0  0  0  0  0  0  0  0
    1.2375    0.7145    0.0000 N   0  3  0  0  0  0  0  0  0  0  0  0
    0.0000    0.0000    0.0000 C   0  0  0  0  0  0  0  0  0  0  0  0
    0.8250    0.0000    0.0000 C   0  0  0  0  0  0  0  0  0  0  0  0
  1  2  1  0  0  0  0
  1  3  1  0  0  0  0
  1  4  1  0  0  0  0
  1  5  2  0  0  0  0
  2  9  1  0  0  0  0
  6  8  2  0  0  0  0
  7  8  1  0  0  0  0
  8 10  1  0  0  0  0
  9 10  2  0  0  0  0
M  CHG  3   3  -1   4  -1   8   1
M  END
> <PUBCHEM_COMPOUND_ID_TYPE>
0

> <PUBCHEM_TOTAL_CHARGE>
-1

> <PUBCHEM_SUBSTANCE_ID>
310932919

> <PUBCHEM_SUBSTANCE_VERSION>
1

> <PUBCHEM_EXT_DATASOURCE_NAME>
4488

> <PUBCHEM_EXT_DATASOURCE_REGID>
SCHEMBL16110313

> <PUBCHEM_SUBSTANCE_COMMENT>
InChI=1S/C2H4NO6P/c4-3(5)1-2-9-10(6,7)8/h1-2H,(H2-,4,5,6,7,8)/p-1/b2-1+
InChIKey=URONIBTWFBBWEE-OWOJBTEDSA-M

> <PUBCHEM_SUBSTANCE_SYNONYM>
SCHEMBL16110313

> <PUBCHEM_XREF_EXT_ID>
SCHEMBL16110313

> <PUBCHEM_EXT_DATASOURCE_URL>
https://www.surechembl.org/

> <PUBCHEM_EXT_SUBSTANCE_URL>
https://www.surechembl.org/chemical/SCHEMBL16110313

> <PUBCHEM_CID_ASSOCIATIONS>
117601400  1
117601401  2

> <PUBCHEM_COORDINATE_TYPE>
1
3

> <PUBCHEM_BONDANNOTATIONS>
10  8  3

$$$$
