310939473
  -OEChem-07211613022D

 34 33  0     1  0  0  0  0  0999 V2000
    1.7910    9.9968    0.0000 *   0  0  0  0  0  0  0  0  0  0  0  0
   -1.0669    9.9968    0.0000 *   0  0  0  0  0  0  0  0  0  0  0  0
    2.5055    9.5843    0.0000 O   0  0  0  0  0  0  0  0  0  0  0  0
    0.7746   12.1402    0.0000 O   0  0  0  0  0  0  0  0  0  0  0  0
   -1.7813    9.5843    0.0000 O   0  0  0  0  0  0  0  0  0  0  0  0
   -3.2780    9.6037    0.0000 O   0  0  0  0  0  0  0  0  0  0  0  0
    4.7051    9.9709    0.0000 O   0  0  0  0  0  0  0  0  0  0  0  0
    3.9960    8.7303    0.0000 O   0  0  0  0  0  0  0  0  0  0  0  0
   -0.8754   13.5692    0.0000 O   0  0  0  0  0  0  0  0  0  0  0  0
    0.3621   14.2837    0.0000 O   0  0  0  0  0  0  0  0  0  0  0  0
    1.5996   13.5692    0.0000 O   0  0  0  0  0  0  0  0  0  0  0  0
   -3.2780   11.2537    0.0000 O   0  0  0  0  0  0  0  0  0  0  0  0
    3.9359   12.0593    0.0000 O   0  0  0  0  0  0  0  0  0  0  0  0
    4.6503   10.8218    0.0000 O   0  0  0  0  0  0  0  0  0  0  0  0
   -3.9924    8.3662    0.0000 O   0  0  0  0  0  0  0  0  0  0  0  0
   -2.1129   14.2837    0.0000 O   0  0  0  0  0  0  0  0  0  0  0  0
   -4.7069   11.2537    0.0000 O   0  0  0  0  0  0  0  0  0  0  0  0
    0.3621    9.9968    0.0000 N   0  0  3  0  0  0  0  0  0  0  0  0
    3.2200    9.9968    0.0000 C   0  0  3  0  0  0  0  0  0  0  0  0
    0.3621   12.8547    0.0000 C   0  0  3  0  0  0  0  0  0  0  0  0
    3.9924    9.5553    0.0000 C   0  0  0  0  0  0  0  0  0  0  0  0
    1.0765    9.5843    0.0000 C   0  0  0  0  0  0  0  0  0  0  0  0
    0.7746   10.7113    0.0000 C   0  0  0  0  0  0  0  0  0  0  0  0
   -0.3524    9.5843    0.0000 C   0  0  0  0  0  0  0  0  0  0  0  0
    3.2214   10.8218    0.0000 C   0  0  0  0  0  0  0  0  0  0  0  0
    0.3621   11.4258    0.0000 C   0  0  0  0  0  0  0  0  0  0  0  0
    0.7746   13.5692    0.0000 C   0  0  0  0  0  0  0  0  0  0  0  0
   -2.5635   10.0162    0.0000 C   0  0  3  0  0  0  0  0  0  0  0  0
    3.9359   11.2343    0.0000 C   0  0  0  0  0  0  0  0  0  0  0  0
   -0.4629   12.8547    0.0000 C   0  0  0  0  0  0  0  0  0  0  0  0
   -2.5635   10.8412    0.0000 C   0  0  0  0  0  0  0  0  0  0  0  0
   -3.2780    8.7787    0.0000 C   0  0  0  0  0  0  0  0  0  0  0  0
   -1.7004   13.5692    0.0000 C   0  0  0  0  0  0  0  0  0  0  0  0
   -3.9924   10.8412    0.0000 C   0  0  0  0  0  0  0  0  0  0  0  0
  1  3  1  0  0  0  0
  1 22  1  0  0  0  0
  2  5  1  0  0  0  0
  2 24  1  0  0  0  0
  3 19  1  0  0  0  0
  4 20  1  0  0  0  0
  4 26  1  0  0  0  0
  5 28  1  0  0  0  0
  6 28  1  0  0  0  0
  6 32  1  0  0  0  0
  7 21  2  0  0  0  0
  8 21  1  0  0  0  0
  9 30  1  0  0  0  0
  9 33  1  0  0  0  0
 10 27  2  0  0  0  0
 11 27  1  0  0  0  0
 12 31  1  0  0  0  0
 12 34  1  0  0  0  0
 13 29  2  0  0  0  0
 14 29  1  0  0  0  0
 15 32  2  0  0  0  0
 16 33  2  0  0  0  0
 17 34  2  0  0  0  0
 18 22  1  0  0  0  0
 18 23  1  0  0  0  0
 18 24  1  0  0  0  0
 19 21  1  0  0  0  0
 19 25  1  0  0  0  0
 20 27  1  0  0  0  0
 20 30  1  0  0  0  0
 23 26  1  0  0  0  0
 25 29  1  0  0  0  0
 28 31  1  0  0  0  0
A    1
H2
A    2
H2
M  END
> <PUBCHEM_COMPOUND_ID_TYPE>
0

> <PUBCHEM_TOTAL_CHARGE>
0

> <PUBCHEM_SUBSTANCE_ID>
310939473

> <PUBCHEM_SUBSTANCE_VERSION>
1

> <PUBCHEM_EXT_DATASOURCE_NAME>
4488

> <PUBCHEM_EXT_DATASOURCE_REGID>
SCHEMBL16117400

> <PUBCHEM_SUBSTANCE_COMMENT>
InChI=1S/C18H27NO15/c20-10-29-8-14(18(27)28)32-5-2-19(1-4-31-13(17(25)26)7-15(23)24)3-6-33-16(34-12-22)9-30-11-21/h10-14,16H,1-9H2,(H,23,24)(H,25,26)(H,27,28)
InChIKey=SLJDHPVTNPUSDA-UHFFFAOYSA-N

> <PUBCHEM_SUBSTANCE_SYNONYM>
SCHEMBL16117400

> <PUBCHEM_XREF_EXT_ID>
SCHEMBL16117400

> <PUBCHEM_EXT_DATASOURCE_URL>
https://www.surechembl.org/

> <PUBCHEM_EXT_SUBSTANCE_URL>
https://www.surechembl.org/chemical/SCHEMBL16117400

> <PUBCHEM_COORDINATE_TYPE>
1
3

$$$$
