310939396
  -OEChem-07211613022D

 20 22  0     0  0  0  0  0  0999 V2000
    1.0717    1.5947    0.0000 Cl  0  0  0  0  0  0  0  0  0  0  0  0
   -0.3572   -0.8803    0.0000 F   0  0  0  0  0  0  0  0  0  0  0  0
    1.0717   -0.0553    0.0000 O   0  0  0  0  0  0  0  0  0  0  0  0
   -1.0717    0.3572    0.0000 C   0  0  0  0  0  0  0  0  0  0  0  0
   -0.3572   -0.0553    0.0000 C   0  0  0  0  0  0  0  0  0  0  0  0
    0.3572    0.3572    0.0000 C   0  0  0  0  0  0  0  0  0  0  0  0
   -1.7862   -0.0553    0.0000 C   0  0  0  0  0  0  0  0  0  0  0  0
    0.3572    1.1822    0.0000 C   0  0  0  0  0  0  0  0  0  0  0  0
   -1.7862   -0.8803    0.0000 C   0  0  0  0  0  0  0  0  0  0  0  0
   -1.0717    1.1822    0.0000 C   0  0  0  0  0  0  0  0  0  0  0  0
   -0.3572    1.5947    0.0000 C   0  0  0  0  0  0  0  0  0  0  0  0
   -2.1987   -1.5947    0.0000 C   0  0  0  0  0  0  0  0  0  0  0  0
   -1.3737   -1.5947    0.0000 C   0  0  0  0  0  0  0  0  0  0  0  0
    1.7862    0.3572    0.0000 C   0  0  0  0  0  0  0  0  0  0  0  0
    2.5006   -0.0553    0.0000 C   0  0  0  0  0  0  0  0  0  0  0  0
    1.7862    1.1822    0.0000 C   0  0  0  0  0  0  0  0  0  0  0  0
    3.2151    0.3572    0.0000 C   0  0  0  0  0  0  0  0  0  0  0  0
    2.5006    1.5947    0.0000 C   0  0  0  0  0  0  0  0  0  0  0  0
    3.2151    1.1822    0.0000 C   0  0  0  0  0  0  0  0  0  0  0  0
   -2.5006    0.3572    0.0000 H   0  0  0  0  0  0  0  0  0  0  0  0
  1  8  1  0  0  0  0
  2  5  1  0  0  0  0
  3  6  1  0  0  0  0
  3 14  1  0  0  0  0
  4  5  1  0  0  0  0
  4  7  1  0  0  0  0
  4 10  2  0  0  0  0
  5  6  2  0  0  0  0
  6  8  1  0  0  0  0
  7  9  1  0  0  0  0
  7 20  1  0  0  0  0
  8 11  2  0  0  0  0
  9 12  1  0  0  0  0
  9 13  1  0  0  0  0
 10 11  1  0  0  0  0
 12 13  1  0  0  0  0
 14 15  2  0  0  0  0
 14 16  1  0  0  0  0
 15 17  1  0  0  0  0
 16 18  2  0  0  0  0
 17 19  2  0  0  0  0
 18 19  1  0  0  0  0
M  END
> <PUBCHEM_COMPOUND_ID_TYPE>
0

> <PUBCHEM_TOTAL_CHARGE>
0

> <PUBCHEM_SUBSTANCE_ID>
310939396

> <PUBCHEM_SUBSTANCE_VERSION>
1

> <PUBCHEM_EXT_DATASOURCE_NAME>
4488

> <PUBCHEM_EXT_DATASOURCE_REGID>
SCHEMBL16117317

> <PUBCHEM_SUBSTANCE_COMMENT>
InChI=1S/C16H14ClFO/c17-14-9-8-12(10-11-6-7-11)15(18)16(14)19-13-4-2-1-3-5-13/h1-5,8-9,11H,6-7,10H2
InChIKey=YWTQVXZXJVUQGO-UHFFFAOYSA-N

> <PUBCHEM_SUBSTANCE_SYNONYM>
SCHEMBL16117317

> <PUBCHEM_XREF_EXT_ID>
SCHEMBL16117317

> <PUBCHEM_EXT_DATASOURCE_URL>
https://www.surechembl.org/

> <PUBCHEM_EXT_SUBSTANCE_URL>
https://www.surechembl.org/chemical/SCHEMBL16117317

> <PUBCHEM_CID_ASSOCIATIONS>
117606723  1

> <PUBCHEM_COORDINATE_TYPE>
1
3

$$$$
