310947770
  -OEChem-07211613022D

 31 33  0     1  0  0  0  0  0999 V2000
    2.0589    1.1550    0.0000 S   0  0  3  0  0  0  0  0  0  0  0  0
   -4.9364    0.3845    0.0000 F   0  0  0  0  0  0  0  0  0  0  0  0
    3.8094   -0.4405    0.0000 O   0  0  0  0  0  0  0  0  0  0  0  0
   -2.0785    0.3845    0.0000 O   0  0  0  0  0  0  0  0  0  0  0  0
    2.4714    1.8694    0.0000 O   0  0  0  0  0  0  0  0  0  0  0  0
    1.2620    0.9414    0.0000 N   0  0  0  0  0  0  0  0  0  0  0  0
    1.3344   -0.4405    0.0000 C   0  0  0  0  0  0  0  0  0  0  0  0
    0.8495    0.2270    0.0000 C   0  0  0  0  0  0  0  0  0  0  0  0
    0.0649   -0.0280    0.0000 C   0  0  0  0  0  0  0  0  0  0  0  0
    0.0649   -0.8530    0.0000 C   0  0  0  0  0  0  0  0  0  0  0  0
    0.8495   -1.1079    0.0000 C   0  0  0  0  0  0  0  0  0  0  0  0
    1.7469   -1.1550    0.0000 C   0  0  0  0  0  0  0  0  0  0  0  0
    1.7469    0.2740    0.0000 C   0  0  0  0  0  0  0  0  0  0  0  0
   -0.6496    0.3845    0.0000 C   0  0  0  0  0  0  0  0  0  0  0  0
   -0.6496   -1.2655    0.0000 C   0  0  0  0  0  0  0  0  0  0  0  0
   -1.3641   -0.0280    0.0000 C   0  0  0  0  0  0  0  0  0  0  0  0
    2.5719   -1.1550    0.0000 C   0  0  0  0  0  0  0  0  0  0  0  0
    2.5719    0.2740    0.0000 C   0  0  0  0  0  0  0  0  0  0  0  0
    2.9844   -0.4405    0.0000 C   0  0  0  0  0  0  0  0  0  0  0  0
   -1.3641   -0.8530    0.0000 C   0  0  0  0  0  0  0  0  0  0  0  0
    2.8839    1.1550    0.0000 C   0  0  0  0  0  0  0  0  0  0  0  0
    4.2219   -1.1550    0.0000 C   0  0  0  0  0  0  0  0  0  0  0  0
    3.2964    0.4405    0.0000 C   0  0  0  0  0  0  0  0  0  0  0  0
    3.2964    1.8694    0.0000 C   0  0  0  0  0  0  0  0  0  0  0  0
    3.7089    1.1550    0.0000 C   0  0  0  0  0  0  0  0  0  0  0  0
   -2.7930   -0.0280    0.0000 C   0  0  0  0  0  0  0  0  0  0  0  0
   -3.5075    0.3845    0.0000 C   0  0  0  0  0  0  0  0  0  0  0  0
   -4.2219   -0.0280    0.0000 C   0  0  0  0  0  0  0  0  0  0  0  0
    4.6344   -1.8694    0.0000 H   1  0  0  0  0  0  0  0  0  0  0  0
    4.9364   -0.7425    0.0000 H   1  0  0  0  0  0  0  0  0  0  0  0
    3.8094   -1.8694    0.0000 H   1  0  0  0  0  0  0  0  0  0  0  0
  1  5  2  0  0  0  0
  1  6  1  0  0  0  0
  1 21  1  0  0  0  0
  2 28  1  0  0  0  0
 19  3  1  6  0  0  0
  3 22  1  0  0  0  0
  4 16  1  0  0  0  0
  4 26  1  0  0  0  0
  6  8  2  3  0  0  0
  7  8  1  0  0  0  0
  7 11  1  6  0  0  0
  7 12  1  0  0  0  0
  7 13  1  0  0  0  0
  8  9  1  0  0  0  0
  9 10  1  0  0  0  0
  9 14  2  0  0  0  0
 10 11  1  0  0  0  0
 10 15  2  0  0  0  0
 12 17  1  0  0  0  0
 13 18  1  0  0  0  0
 14 16  1  0  0  0  0
 15 20  1  0  0  0  0
 16 20  2  0  0  0  0
 17 19  1  0  0  0  0
 18 19  1  0  0  0  0
 21 23  1  0  0  0  0
 21 24  1  0  0  0  0
 21 25  1  0  0  0  0
 22 29  1  0  0  0  0
 22 30  1  0  0  0  0
 22 31  1  0  0  0  0
 26 27  1  0  0  0  0
 27 28  1  0  0  0  0
M  ISO  3  29   2  30   2  31   2
M  END
> <PUBCHEM_COMPOUND_ID_TYPE>
0

> <PUBCHEM_TOTAL_CHARGE>
0

> <PUBCHEM_SUBSTANCE_ID>
310947770

> <PUBCHEM_SUBSTANCE_VERSION>
1

> <PUBCHEM_EXT_DATASOURCE_NAME>
4488

> <PUBCHEM_EXT_DATASOURCE_REGID>
SCHEMBL16125942

> <PUBCHEM_SUBSTANCE_COMMENT>
InChI=1S/C22H32FNO3S/c1-21(2,3)28(25)24-20-19-14-18(27-13-5-12-23)7-6-16(19)15-22(20)10-8-17(26-4)9-11-22/h6-7,14,17H,5,8-13,15H2,1-4H3/b24-20-/t17-,22-,28?/i4D3
InChIKey=KVCDMELDNPKMMN-VOINFAJSSA-N

> <PUBCHEM_SUBSTANCE_SYNONYM>
SCHEMBL16125942

> <PUBCHEM_XREF_EXT_ID>
SCHEMBL16125942

> <PUBCHEM_EXT_DATASOURCE_URL>
https://www.surechembl.org/

> <PUBCHEM_EXT_SUBSTANCE_URL>
https://www.surechembl.org/chemical/SCHEMBL16125942

> <PUBCHEM_CID_ASSOCIATIONS>
117613445  1

> <PUBCHEM_COORDINATE_TYPE>
1
3

> <PUBCHEM_BONDANNOTATIONS>
19  3  6
6  8  1
7  11  6

$$$$
