310938538
  -OEChem-07211613022D

  9  9  0     0  0  0  0  0  0999 V2000
   -1.8232    8.2420    0.0000 *   0  0  0  0  0  0  0  0  0  0  0  0
   -4.9769    9.2379    0.0000 Br  0  0  0  0  0  0  0  0  0  0  0  0
   -1.6242    9.7534    0.0000 O   0  0  0  0  0  0  0  0  0  0  0  0
   -3.0326    7.3141    0.0000 O   0  0  0  0  0  0  0  0  0  0  0  0
   -2.8335    8.8254    0.0000 N   0  0  0  0  0  0  0  0  0  0  0  0
   -2.6201    8.0285    0.0000 C   0  0  0  0  0  0  0  0  0  0  0  0
   -2.0367    9.0389    0.0000 C   0  0  0  0  0  0  0  0  0  0  0  0
   -3.5480    9.2379    0.0000 C   0  0  0  0  0  0  0  0  0  0  0  0
   -4.2625    8.8254    0.0000 C   0  0  0  0  0  0  0  0  0  0  0  0
  1  6  1  0  0  0  0
  1  7  1  0  0  0  0
  2  9  1  0  0  0  0
  3  7  2  0  0  0  0
  4  6  2  0  0  0  0
  5  6  1  0  0  0  0
  5  7  1  0  0  0  0
  5  8  1  0  0  0  0
  8  9  1  0  0  0  0
A    1
Z
M  END
> <PUBCHEM_COMPOUND_ID_TYPE>
0

> <PUBCHEM_TOTAL_CHARGE>
0

> <PUBCHEM_SUBSTANCE_ID>
310938538

> <PUBCHEM_SUBSTANCE_VERSION>
1

> <PUBCHEM_EXT_DATASOURCE_NAME>
4488

> <PUBCHEM_EXT_DATASOURCE_REGID>
SCHEMBL16116452

> <PUBCHEM_SUBSTANCE_COMMENT>
InChI=1S/C5H6BrNO2/c6-1-2-7-4(8)3-5(7)9/h1-3H2
InChIKey=IZZIJYUXKFSERR-UHFFFAOYSA-N

> <PUBCHEM_SUBSTANCE_SYNONYM>
SCHEMBL16116452

> <PUBCHEM_XREF_EXT_ID>
SCHEMBL16116452

> <PUBCHEM_EXT_DATASOURCE_URL>
https://www.surechembl.org/

> <PUBCHEM_EXT_SUBSTANCE_URL>
https://www.surechembl.org/chemical/SCHEMBL16116452

> <PUBCHEM_COORDINATE_TYPE>
1
3

$$$$
