310938740
  -OEChem-07211613022D

183194  0     1  0  0  0  0  0999 V2000
    5.2089    1.1744    0.0000 S   0  0  0  0  0  0  0  0  0  0  0  0
   -5.3736    3.3044    0.0000 S   0  0  0  0  0  0  0  0  0  0  0  0
   15.0845   -8.0336    0.0000 S   0  0  0  0  0  0  0  0  0  0  0  0
  -15.0845   -6.0957    0.0000 S   0  0  0  0  0  0  0  0  0  0  0  0
   -3.4217    2.0180    0.0000 O   0  0  0  0  0  0  0  0  0  0  0  0
    3.9820    3.1665    0.0000 O   0  0  0  0  0  0  0  0  0  0  0  0
    2.3134    0.2488    0.0000 O   0  0  0  0  0  0  0  0  0  0  0  0
   -3.1604    5.3316    0.0000 O   0  0  0  0  0  0  0  0  0  0  0  0
   -0.9767   -0.2257    0.0000 O   0  0  0  0  0  0  0  0  0  0  0  0
    2.7446    6.2706    0.0000 O   0  0  0  0  0  0  0  0  0  0  0  0
   -0.4313    7.2912    0.0000 O   0  0  0  0  0  0  0  0  0  0  0  0
    3.9050    0.5116    0.0000 O   0  0  0  0  0  0  0  0  0  0  0  0
   -4.4752    4.4531    0.0000 O   0  0  0  0  0  0  0  0  0  0  0  0
   -3.5424    0.4421    0.0000 O   0  0  0  0  0  0  0  0  0  0  0  0
    0.1822   -1.3304    0.0000 O   0  0  0  0  0  0  0  0  0  0  0  0
    4.7592    4.5434    0.0000 O   0  0  0  0  0  0  0  0  0  0  0  0
   -1.9290    7.6816    0.0000 O   0  0  0  0  0  0  0  0  0  0  0  0
    2.1782    7.7733    0.0000 O   0  0  0  0  0  0  0  0  0  0  0  0
    3.4809    2.5486    0.0000 O   0  0  0  0  0  0  0  0  0  0  0  0
   -3.2307    2.7902    0.0000 O   0  0  0  0  0  0  0  0  0  0  0  0
    1.5230    0.2597    0.0000 O   0  0  0  0  0  0  0  0  0  0  0  0
   -1.4656    0.4013    0.0000 O   0  0  0  0  0  0  0  0  0  0  0  0
    2.6910    0.6142    0.0000 O   0  0  0  0  0  0  0  0  0  0  0  0
   -3.3286    4.8748    0.0000 O   0  0  0  0  0  0  0  0  0  0  0  0
    2.9066    5.4941    0.0000 O   0  0  0  0  0  0  0  0  0  0  0  0
   -2.4343    5.6668    0.0000 O   0  0  0  0  0  0  0  0  0  0  0  0
   -3.1690    1.6035    0.0000 O   0  0  0  0  0  0  0  0  0  0  0  0
   -0.3648   -0.3073    0.0000 O   0  0  0  0  0  0  0  0  0  0  0  0
    0.2742    6.9437    0.0000 O   0  0  0  0  0  0  0  0  0  0  0  0
    3.9170    3.6654    0.0000 O   0  0  0  0  0  0  0  0  0  0  0  0
   -0.9353    7.0291    0.0000 O   0  0  0  0  0  0  0  0  0  0  0  0
    2.2199    6.5593    0.0000 O   0  0  0  0  0  0  0  0  0  0  0  0
    1.5026   -1.9457    0.0000 O   0  0  0  0  0  0  0  0  0  0  0  0
   -3.1920   -0.9733    0.0000 O   0  0  0  0  0  0  0  0  0  0  0  0
    5.0621    5.9703    0.0000 O   0  0  0  0  0  0  0  0  0  0  0  0
   -3.3885    7.6576    0.0000 O   0  0  0  0  0  0  0  0  0  0  0  0
    1.2600    8.9057    0.0000 O   0  0  0  0  0  0  0  0  0  0  0  0
    5.7855   -0.1331    0.0000 O   0  0  0  0  0  0  0  0  0  0  0  0
   -5.7434    1.9241    0.0000 O   0  0  0  0  0  0  0  0  0  0  0  0
    8.8051    1.1982    0.0000 O   0  0  0  0  0  0  0  0  0  0  0  0
    7.9609    0.0451    0.0000 O   0  0  0  0  0  0  0  0  0  0  0  0
   10.0130   -4.4785    0.0000 O   0  0  0  0  0  0  0  0  0  0  0  0
  -10.0130   -2.5407    0.0000 O   0  0  0  0  0  0  0  0  0  0  0  0
    8.5839   -4.4785    0.0000 O   0  0  0  0  0  0  0  0  0  0  0  0
   -8.5839   -2.5407    0.0000 O   0  0  0  0  0  0  0  0  0  0  0  0
   12.1564   -5.7161    0.0000 O   0  0  0  0  0  0  0  0  0  0  0  0
  -12.1564   -3.7781    0.0000 O   0  0  0  0  0  0  0  0  0  0  0  0
    7.1550   -6.9537    0.0000 O   0  0  0  0  0  0  0  0  0  0  0  0
   -7.1550   -5.0157    0.0000 O   0  0  0  0  0  0  0  0  0  0  0  0
   11.4420   -4.4785    0.0000 O   0  0  0  0  0  0  0  0  0  0  0  0
  -11.4420   -2.5407    0.0000 O   0  0  0  0  0  0  0  0  0  0  0  0
   10.3828   -3.0983    0.0000 O   0  0  0  0  0  0  0  0  0  0  0  0
  -10.3828   -1.1604    0.0000 O   0  0  0  0  0  0  0  0  0  0  0  0
   10.8913    0.5563    0.0000 O   0  0  0  0  0  0  0  0  0  0  0  0
   13.1561    1.5548    0.0000 O   0  0  0  0  0  0  0  0  0  0  0  0
    6.7681   -0.6504    0.0000 N   0  0  0  0  0  0  0  0  0  0  0  0
   -6.7681    1.2876    0.0000 N   0  0  0  0  0  0  0  0  0  0  0  0
   15.0845   -6.6988    0.0000 N   0  0  0  0  0  0  0  0  0  0  0  0
  -15.0845   -4.7608    0.0000 N   0  0  0  0  0  0  0  0  0  0  0  0
    4.0827    2.0969    0.0000 C   0  0  3  0  0  0  0  0  0  0  0  0
   -3.9665    2.9447    0.0000 C   0  0  3  0  0  0  0  0  0  0  0  0
    1.5373   -0.4913    0.0000 C   0  0  3  0  0  0  0  0  0  0  0  0
   -2.0419   -0.0860    0.0000 C   0  0  3  0  0  0  0  0  0  0  0  0
   -2.7818    6.3334    0.0000 C   0  0  3  0  0  0  0  0  0  0  0  0
    3.6413    5.6738    0.0000 C   0  0  3  0  0  0  0  0  0  0  0  0
    0.5944    7.6131    0.0000 C   0  0  3  0  0  0  0  0  0  0  0  0
    3.1528    0.1810    0.0000 C   0  0  3  0  0  0  0  0  0  0  0  0
   -3.9304    5.0719    0.0000 C   0  0  3  0  0  0  0  0  0  0  0  0
   -3.6971    1.2521    0.0000 C   0  0  3  0  0  0  0  0  0  0  0  0
    4.5448    3.7507    0.0000 C   0  0  3  0  0  0  0  0  0  0  0  0
   -0.5447   -0.9383    0.0000 C   0  0  3  0  0  0  0  0  0  0  0  0
   -1.1074    7.6481    0.0000 C   0  0  3  0  0  0  0  0  0  0  0  0
    2.6606    7.1019    0.0000 C   0  0  3  0  0  0  0  0  0  0  0  0
    3.3236    1.7656    0.0000 C   0  0  3  0  0  0  0  0  0  0  0  0
   -3.4180    3.5637    0.0000 C   0  0  3  0  0  0  0  0  0  0  0  0
    0.8069   -0.0998    0.0000 C   0  0  3  0  0  0  0  0  0  0  0  0
   -2.1969    0.7274    0.0000 C   0  0  3  0  0  0  0  0  0  0  0  0
    3.4466    0.9451    0.0000 C   0  0  3  0  0  0  0  0  0  0  0  0
   -3.8735    4.2560    0.0000 C   0  0  3  0  0  0  0  0  0  0  0  0
    3.4198    4.8769    0.0000 C   0  0  3  0  0  0  0  0  0  0  0  0
    3.7856    1.3322    0.0000 C   0  0  3  0  0  0  0  0  0  0  0  0
   -1.9530    6.3011    0.0000 C   0  0  3  0  0  0  0  0  0  0  0  0
   -4.0202    3.7648    0.0000 C   0  0  3  0  0  0  0  0  0  0  0  0
   -3.0180    0.7935    0.0000 C   0  0  3  0  0  0  0  0  0  0  0  0
    0.2382   -0.6991    0.0000 C   0  0  3  0  0  0  0  0  0  0  0  0
    1.0767    6.9418    0.0000 C   0  0  3  0  0  0  0  0  0  0  0  0
    4.1348    4.4584    0.0000 C   0  0  3  0  0  0  0  0  0  0  0  0
   -1.7051    7.0861    0.0000 C   0  0  3  0  0  0  0  0  0  0  0  0
    1.8475    7.2307    0.0000 C   0  0  3  0  0  0  0  0  0  0  0  0
    0.7502   -0.7275    0.0000 C   0  0  3  0  0  0  0  0  0  0  0  0
   -2.7176    0.3764    0.0000 C   0  0  3  0  0  0  0  0  0  0  0  0
    4.0472    4.9660    0.0000 C   0  0  3  0  0  0  0  0  0  0  0  0
   -2.1765    6.8929    0.0000 C   0  0  3  0  0  0  0  0  0  0  0  0
    1.4038    7.4839    0.0000 C   0  0  3  0  0  0  0  0  0  0  0  0
    4.5414    1.6632    0.0000 C   0  0  0  0  0  0  0  0  0  0  0  0
   -4.5646    3.1425    0.0000 C   0  0  0  0  0  0  0  0  0  0  0  0
    1.4807   -1.1190    0.0000 C   0  0  0  0  0  0  0  0  0  0  0  0
   -2.5667   -0.4336    0.0000 C   0  0  0  0  0  0  0  0  0  0  0  0
    4.2653    5.7588    0.0000 C   0  0  0  0  0  0  0  0  0  0  0  0
   -3.0014    6.9223    0.0000 C   0  0  0  0  0  0  0  0  0  0  0  0
    0.9217    8.1516    0.0000 C   0  0  0  0  0  0  0  0  0  0  0  0
    5.9638    1.5072    0.0000 C   0  0  0  0  0  0  0  0  0  0  0  0
   -6.1704    3.5180    0.0000 C   0  0  0  0  0  0  0  0  0  0  0  0
    6.6295    1.0199    0.0000 C   0  0  0  0  0  0  0  0  0  0  0  0
   -6.7538    2.9346    0.0000 C   0  0  0  0  0  0  0  0  0  0  0  0
    6.5404    0.1997    0.0000 C   0  0  0  0  0  0  0  0  0  0  0  0
   -6.5404    2.1377    0.0000 C   0  0  0  0  0  0  0  0  0  0  0  0
    8.0502    0.8653    0.0000 C   0  0  0  0  0  0  0  0  0  0  0  0
    9.2984   -5.7161    0.0000 C   0  0  0  0  0  0  0  0  0  0  0  0
   -9.2984   -3.7781    0.0000 C   0  0  0  0  0  0  0  0  0  0  0  0
   -8.1341    2.5648    0.0000 C   0  0  0  0  0  0  0  0  0  0  0  0
    8.5839   -5.3036    0.0000 C   0  0  0  0  0  0  0  0  0  0  0  0
   -8.5839   -3.3656    0.0000 C   0  0  0  0  0  0  0  0  0  0  0  0
   10.0130   -5.3036    0.0000 C   0  0  3  0  0  0  0  0  0  0  0  0
  -10.0130   -3.3656    0.0000 C   0  0  3  0  0  0  0  0  0  0  0  0
    6.9817   -1.4473    0.0000 C   0  0  0  0  0  0  0  0  0  0  0  0
   -6.9817    0.4907    0.0000 C   0  0  0  0  0  0  0  0  0  0  0  0
    7.8695   -5.7161    0.0000 C   0  0  3  0  0  0  0  0  0  0  0  0
   -7.8695   -3.7781    0.0000 C   0  0  3  0  0  0  0  0  0  0  0  0
    7.8695   -6.5411    0.0000 C   0  0  3  0  0  0  0  0  0  0  0  0
   -7.8695   -4.6032    0.0000 C   0  0  3  0  0  0  0  0  0  0  0  0
   10.7275   -5.7161    0.0000 C   0  0  0  0  0  0  0  0  0  0  0  0
  -10.7275   -3.7781    0.0000 C   0  0  0  0  0  0  0  0  0  0  0  0
    9.7110   -6.4306    0.0000 C   0  0  0  0  0  0  0  0  0  0  0  0
    8.8859   -6.4306    0.0000 C   0  0  0  0  0  0  0  0  0  0  0  0
   -9.7110   -4.4926    0.0000 C   0  0  0  0  0  0  0  0  0  0  0  0
   -8.8859   -4.4926    0.0000 C   0  0  0  0  0  0  0  0  0  0  0  0
    9.4708    0.7108    0.0000 C   0  0  0  0  0  0  0  0  0  0  0  0
    7.7786   -1.6607    0.0000 C   0  0  0  0  0  0  0  0  0  0  0  0
   -7.7786    0.2771    0.0000 C   0  0  0  0  0  0  0  0  0  0  0  0
   11.4420   -5.3036    0.0000 C   0  0  0  0  0  0  0  0  0  0  0  0
  -11.4420   -3.3656    0.0000 C   0  0  0  0  0  0  0  0  0  0  0  0
    9.7994   -3.6817    0.0000 C   0  0  0  0  0  0  0  0  0  0  0  0
   -9.7994   -1.7437    0.0000 C   0  0  0  0  0  0  0  0  0  0  0  0
    8.5839   -6.9537    0.0000 C   0  0  3  0  0  0  0  0  0  0  0  0
   -8.5839   -5.0157    0.0000 C   0  0  3  0  0  0  0  0  0  0  0  0
    7.1550   -5.3036    0.0000 C   0  0  0  0  0  0  0  0  0  0  0  0
   -7.1550   -3.3656    0.0000 C   0  0  0  0  0  0  0  0  0  0  0  0
    7.9920   -2.4577    0.0000 C   0  0  0  0  0  0  0  0  0  0  0  0
   -7.9920   -0.5197    0.0000 C   0  0  0  0  0  0  0  0  0  0  0  0
    9.0025   -3.4682    0.0000 C   0  0  0  0  0  0  0  0  0  0  0  0
   -9.0025   -1.5302    0.0000 C   0  0  0  0  0  0  0  0  0  0  0  0
   10.2257    1.0437    0.0000 C   0  0  0  0  0  0  0  0  0  0  0  0
   12.1564   -6.5411    0.0000 C   0  0  3  0  0  0  0  0  0  0  0  0
  -12.1564   -4.6032    0.0000 C   0  0  3  0  0  0  0  0  0  0  0  0
    8.7890   -2.6712    0.0000 C   0  0  0  0  0  0  0  0  0  0  0  0
    8.5839   -7.7787    0.0000 C   0  0  0  0  0  0  0  0  0  0  0  0
   -8.5839   -5.8407    0.0000 C   0  0  0  0  0  0  0  0  0  0  0  0
   -8.7890   -0.7332    0.0000 C   0  0  0  0  0  0  0  0  0  0  0  0
   12.8709   -6.9537    0.0000 C   0  0  0  0  0  0  0  0  0  0  0  0
  -12.8709   -5.0157    0.0000 C   0  0  0  0  0  0  0  0  0  0  0  0
    9.2984   -6.5411    0.0000 C   0  0  0  0  0  0  0  0  0  0  0  0
   -9.2984   -4.6032    0.0000 C   0  0  0  0  0  0  0  0  0  0  0  0
   11.4420   -6.9537    0.0000 C   0  0  0  0  0  0  0  0  0  0  0  0
  -11.4420   -5.0157    0.0000 C   0  0  0  0  0  0  0  0  0  0  0  0
    9.2984   -8.1912    0.0000 C   0  0  0  0  0  0  0  0  0  0  0  0
   -9.2984   -6.2532    0.0000 C   0  0  0  0  0  0  0  0  0  0  0  0
   13.5854   -6.5411    0.0000 C   0  0  0  0  0  0  0  0  0  0  0  0
  -13.5854   -4.6032    0.0000 C   0  0  0  0  0  0  0  0  0  0  0  0
   11.4420   -7.7787    0.0000 C   0  0  0  0  0  0  0  0  0  0  0  0
  -11.4420   -5.8407    0.0000 C   0  0  0  0  0  0  0  0  0  0  0  0
   14.3000   -6.9537    0.0000 C   0  0  0  0  0  0  0  0  0  0  0  0
  -14.3000   -5.0157    0.0000 C   0  0  0  0  0  0  0  0  0  0  0  0
   10.7275   -8.1912    0.0000 C   0  0  0  0  0  0  0  0  0  0  0  0
  -10.7275   -6.2532    0.0000 C   0  0  0  0  0  0  0  0  0  0  0  0
   10.0130   -7.7787    0.0000 C   0  0  0  0  0  0  0  0  0  0  0  0
  -10.0130   -5.8407    0.0000 C   0  0  0  0  0  0  0  0  0  0  0  0
   12.8709   -7.7787    0.0000 C   0  0  0  0  0  0  0  0  0  0  0  0
  -12.8709   -5.8407    0.0000 C   0  0  0  0  0  0  0  0  0  0  0  0
   11.6462    0.8891    0.0000 C   0  0  0  0  0  0  0  0  0  0  0  0
   14.3000   -7.7787    0.0000 C   0  0  0  0  0  0  0  0  0  0  0  0
  -14.3000   -5.8407    0.0000 C   0  0  0  0  0  0  0  0  0  0  0  0
   15.5695   -7.3662    0.0000 C   0  0  0  0  0  0  0  0  0  0  0  0
  -15.5695   -5.4282    0.0000 C   0  0  0  0  0  0  0  0  0  0  0  0
   10.3150   -8.9057    0.0000 C   0  0  0  0  0  0  0  0  0  0  0  0
  -10.3150   -6.9678    0.0000 C   0  0  0  0  0  0  0  0  0  0  0  0
   12.3120    0.4017    0.0000 C   0  0  0  0  0  0  0  0  0  0  0  0
   16.3945   -7.3662    0.0000 C   0  0  0  0  0  0  0  0  0  0  0  0
  -16.3945   -5.4282    0.0000 C   0  0  0  0  0  0  0  0  0  0  0  0
   13.0669    0.7346    0.0000 C   0  0  0  0  0  0  0  0  0  0  0  0
   13.7326    0.2473    0.0000 C   0  0  0  0  0  0  0  0  0  0  0  0
    7.3844    1.3527    0.0000 H   0  0  0  0  0  0  0  0  0  0  0  0
   -7.5507    3.1481    0.0000 H   0  0  0  0  0  0  0  0  0  0  0  0
  1 95  1  0  0  0  0
  1102  1  0  0  0  0
  2 96  1  0  0  0  0
  2103  1  0  0  0  0
  3171  1  0  0  0  0
  3173  1  0  0  0  0
  4172  1  0  0  0  0
  4174  1  0  0  0  0
 61  5  1  6  0  0  0
  5 69  1  0  0  0  0
 60  6  1  6  0  0  0
  6 70  1  0  0  0  0
 62  7  1  6  0  0  0
  7 67  1  0  0  0  0
 64  8  1  6  0  0  0
  8 68  1  0  0  0  0
 63  9  1  6  0  0  0
  9 71  1  0  0  0  0
 65 10  1  6  0  0  0
 10 73  1  0  0  0  0
 66 11  1  6  0  0  0
 72 11  1  6  0  0  0
 67 12  1  6  0  0  0
 12 81  1  0  0  0  0
 68 13  1  6  0  0  0
 13 83  1  0  0  0  0
 69 14  1  6  0  0  0
 14 91  1  0  0  0  0
 71 15  1  6  0  0  0
 15 90  1  0  0  0  0
 70 16  1  6  0  0  0
 16 92  1  0  0  0  0
 17 72  1  0  0  0  0
 17 93  1  0  0  0  0
 73 18  1  6  0  0  0
 18 94  1  0  0  0  0
 74 19  1  1  0  0  0
 75 20  1  1  0  0  0
 76 21  1  1  0  0  0
 77 22  1  1  0  0  0
 23 78  1  0  0  0  0
 24 79  1  0  0  0  0
 80 25  1  1  0  0  0
 82 26  1  1  0  0  0
 27 84  1  0  0  0  0
 28 85  1  0  0  0  0
 86 29  1  1  0  0  0
 30 87  1  0  0  0  0
 31 88  1  0  0  0  0
 32 89  1  0  0  0  0
 33 97  1  0  0  0  0
 34 98  1  0  0  0  0
 35 99  1  0  0  0  0
 36100  1  0  0  0  0
 37101  1  0  0  0  0
 38106  2  0  0  0  0
 39107  2  0  0  0  0
 40108  1  0  0  0  0
 40128  1  0  0  0  0
 41108  2  0  0  0  0
114 42  1  1  0  0  0
 42133  1  0  0  0  0
115 43  1  1  0  0  0
 43134  1  0  0  0  0
 44112  2  0  0  0  0
 45113  2  0  0  0  0
 46131  1  0  0  0  0
 46144  1  0  0  0  0
 47132  1  0  0  0  0
 47145  1  0  0  0  0
120 48  1  6  0  0  0
121 49  1  6  0  0  0
 50131  2  0  0  0  0
 51132  2  0  0  0  0
 52133  2  0  0  0  0
 53134  2  0  0  0  0
 54143  1  0  0  0  0
 54170  1  0  0  0  0
 55180  2  0  0  0  0
 56106  1  0  0  0  0
 56116  1  0  0  0  0
 57107  1  0  0  0  0
 57117  1  0  0  0  0
 58162  1  0  0  0  0
 58173  2  0  0  0  0
 59163  1  0  0  0  0
 59174  2  0  0  0  0
 60 74  1  0  0  0  0
 60 81  1  0  0  0  0
 61 75  1  0  0  0  0
 61 83  1  0  0  0  0
 62 76  1  0  0  0  0
 62 90  1  0  0  0  0
 63 77  1  0  0  0  0
 63 91  1  0  0  0  0
 64 82  1  0  0  0  0
 64 93  1  0  0  0  0
 65 80  1  0  0  0  0
 65 92  1  0  0  0  0
 66 86  1  0  0  0  0
 66 94  1  0  0  0  0
 67 78  1  0  0  0  0
 68 79  1  0  0  0  0
 69 84  1  0  0  0  0
 70 87  1  0  0  0  0
 71 85  1  0  0  0  0
 72 88  1  0  0  0  0
 73 89  1  0  0  0  0
 74 78  1  0  0  0  0
 75 79  1  0  0  0  0
 76 85  1  0  0  0  0
 77 84  1  0  0  0  0
 80 87  1  0  0  0  0
 81 95  1  0  0  0  0
 82 88  1  0  0  0  0
 83 96  1  0  0  0  0
 86 89  1  0  0  0  0
 90 97  1  0  0  0  0
 91 98  1  0  0  0  0
 92 99  1  0  0  0  0
 93100  1  0  0  0  0
 94101  1  0  0  0  0
102104  1  0  0  0  0
103105  1  0  0  0  0
104106  1  0  0  0  0
104182  1  0  0  0  0
105107  1  0  0  0  0
105183  1  0  0  0  0
108182  1  0  0  0  0
109112  1  0  0  0  0
109114  1  0  0  0  0
109124  1  0  0  0  0
109125  1  0  0  0  0
110113  1  0  0  0  0
110115  1  0  0  0  0
110126  1  0  0  0  0
110127  1  0  0  0  0
111183  1  0  0  0  0
112118  1  0  0  0  0
113119  1  0  0  0  0
114122  1  0  0  0  0
115123  1  0  0  0  0
116129  1  0  0  0  0
117130  1  0  0  0  0
118120  1  0  0  0  0
118137  1  1  0  0  0
119121  1  0  0  0  0
119138  1  1  0  0  0
120135  1  0  0  0  0
121136  1  0  0  0  0
122131  1  0  0  0  0
123132  1  0  0  0  0
128143  1  0  0  0  0
129139  1  0  0  0  0
130140  1  0  0  0  0
133141  1  0  0  0  0
134142  1  0  0  0  0
135147  1  0  0  0  0
135152  1  1  0  0  0
136148  1  0  0  0  0
136153  1  1  0  0  0
139146  1  0  0  0  0
140149  1  0  0  0  0
141146  1  0  0  0  0
142149  1  0  0  0  0
144150  1  6  0  0  0
144154  1  0  0  0  0
145151  1  6  0  0  0
145155  1  0  0  0  0
147156  2  0  0  0  0
148157  2  0  0  0  0
150158  2  0  0  0  0
150168  1  0  0  0  0
151159  2  0  0  0  0
151169  1  0  0  0  0
154160  1  0  0  0  0
155161  1  0  0  0  0
156166  1  0  0  0  0
157167  1  0  0  0  0
158162  1  0  0  0  0
159163  1  0  0  0  0
160164  2  0  0  0  0
161165  2  0  0  0  0
162171  2  0  0  0  0
163172  2  0  0  0  0
164166  1  0  0  0  0
164175  1  0  0  0  0
165167  1  0  0  0  0
165176  1  0  0  0  0
170177  1  0  0  0  0
173178  1  0  0  0  0
174179  1  0  0  0  0
177180  1  0  0  0  0
180181  1  0  0  0  0
M  END
> <PUBCHEM_COMPOUND_ID_TYPE>
0

> <PUBCHEM_TOTAL_CHARGE>
0

> <PUBCHEM_SUBSTANCE_ID>
310938740

> <PUBCHEM_SUBSTANCE_VERSION>
1

> <PUBCHEM_EXT_DATASOURCE_NAME>
4488

> <PUBCHEM_EXT_DATASOURCE_REGID>
SCHEMBL16116656

> <PUBCHEM_SUBSTANCE_COMMENT>
InChI=1S/C122H192N4O51S4/c1-56-25-23-27-58(3)86(137)63(8)109(153)121(12,13)80(43-84(135)160-69(33-31-56)60(5)41-67-50-180-65(10)125-67)169-82(133)29-19-17-21-36-123-111(155)78(182-16)54-178-52-76-107-93(144)100(151)118(167-76)174-105-74(48-130)163-114(96(147)89(105)140)171-102-71(45-127)162-113(95(146)88(102)139)172-103-73(47-129)166-117(99(150)92(103)143)177-108-77(168-119(101(152)94(108)145)175-106-75(49-131)164-115(97(148)90(106)141)173-104-72(46-128)165-116(176-107)98(149)91(104)142)53-179-55-79(183-120(157)159-40-39-158-38-35-62(7)132)112(156)124-37-22-18-20-30-83(134)170-81-44-85(136)161-70(61(6)42-68-51-181-66(11)126-68)34-32-57(2)26-24-28-59(4)87(138)64(9)110(154)122(81,14)15/h23-24,27-28,31-32,41-42,50-51,58-59,63-64,69-81,86-108,113-119,127-131,137-152H,17-22,25-26,29-30,33-40,43-49,52-55,182-183H2,1-16H3,(H,123,155)(H,124,156)/b27-23-,28-24-,56-31-,57-32-,60-41+,61-42+/t58-,59+,63+,64-,69-,70+,71?,72?,73?,74?,75?,76?,77?,78?,79?,80-,81+,86-,87+,88-,89-,90-,91-,92-,93-,94-,95?,96?,97?,98?,99?,100?,101?,102-,103-,104-,105-,106-,107-,108-,113-,114-,115-,116-,117-,118-,119-/m1/s1
InChIKey=BLLPURRZONHWPD-HUSQMDOISA-N

> <PUBCHEM_SUBSTANCE_SYNONYM>
SCHEMBL16116656

> <PUBCHEM_XREF_EXT_ID>
SCHEMBL16116656

> <PUBCHEM_EXT_DATASOURCE_URL>
https://www.surechembl.org/

> <PUBCHEM_EXT_SUBSTANCE_URL>
https://www.surechembl.org/chemical/SCHEMBL16116656

> <PUBCHEM_COORDINATE_TYPE>
1
3

> <PUBCHEM_BONDANNOTATIONS>
65  10  6
66  11  6
72  11  6
118  137  5
119  138  5
67  12  6
68  13  6
135  152  5
136  153  5
69  14  6
144  150  6
145  151  6
71  15  6
70  16  6
73  18  6
74  19  5
75  20  5
76  21  5
77  22  5
80  25  5
82  26  5
86  29  5
114  42  5
115  43  5
120  48  6
121  49  6
61  5  6
60  6  6
62  7  6
64  8  6
63  9  6

$$$$
