310947922
  -OEChem-07211613022D

 31 34  0     0  0  0  0  0  0999 V2000
    4.2639   -2.9477    0.0000 *   0  0  0  0  0  0  0  0  0  0  0  0
    7.0204   -2.8082    0.0000 S   0  0  0  0  0  0  0  0  0  0  0  0
    5.6928   -5.4227    0.0000 F   0  0  0  0  0  0  0  0  0  0  0  0
   -1.4519   -3.7727    0.0000 O   0  0  0  0  0  0  0  0  0  0  0  0
    0.6915   -0.8852    0.0000 O   0  0  0  0  0  0  0  0  0  0  0  0
    5.8643   -2.1408    0.0000 N   0  0  0  0  0  0  0  0  0  0  0  0
   -0.0230   -2.1227    0.0000 N   0  0  0  0  0  0  0  0  0  0  0  0
    3.5494   -3.3602    0.0000 N   0  0  0  0  0  0  0  0  0  0  0  0
    5.6928   -2.9477    0.0000 C   0  0  0  0  0  0  0  0  0  0  0  0
    6.4073   -3.3602    0.0000 C   0  0  0  0  0  0  0  0  0  0  0  0
    4.9783   -3.3602    0.0000 C   0  0  0  0  0  0  0  0  0  0  0  0
   -1.4519   -2.9477    0.0000 C   0  0  0  0  0  0  0  0  0  0  0  0
    6.4073   -4.1852    0.0000 C   0  0  0  0  0  0  0  0  0  0  0  0
    5.6928   -4.5977    0.0000 C   0  0  0  0  0  0  0  0  0  0  0  0
    4.9783   -4.1852    0.0000 C   0  0  0  0  0  0  0  0  0  0  0  0
    0.6915   -1.7102    0.0000 C   0  0  0  0  0  0  0  0  0  0  0  0
    1.4060   -2.1227    0.0000 C   0  0  0  0  0  0  0  0  0  0  0  0
    6.6848   -2.0545    0.0000 C   0  0  0  0  0  0  0  0  0  0  0  0
   -1.4519   -2.1227    0.0000 C   0  0  0  0  0  0  0  0  0  0  0  0
   -0.7374   -3.3602    0.0000 C   0  0  0  0  0  0  0  0  0  0  0  0
    2.8349   -2.9477    0.0000 C   0  0  0  0  0  0  0  0  0  0  0  0
   -0.7374   -1.7102    0.0000 C   0  0  0  0  0  0  0  0  0  0  0  0
   -0.0230   -2.9477    0.0000 C   0  0  0  0  0  0  0  0  0  0  0  0
    1.4060   -2.9477    0.0000 C   0  0  0  0  0  0  0  0  0  0  0  0
    2.1204   -1.7102    0.0000 C   0  0  0  0  0  0  0  0  0  0  0  0
   -2.1664   -2.5352    0.0000 C   0  0  0  0  0  0  0  0  0  0  0  0
    2.1204   -3.3602    0.0000 C   0  0  0  0  0  0  0  0  0  0  0  0
    2.8349   -2.1227    0.0000 C   0  0  0  0  0  0  0  0  0  0  0  0
   -2.8809   -2.9477    0.0000 C   0  0  0  0  0  0  0  0  0  0  0  0
   -3.5953   -2.5352    0.0000 C   0  0  0  0  0  0  0  0  0  0  0  0
   -2.8809   -3.7727    0.0000 C   0  0  0  0  0  0  0  0  0  0  0  0
  1  8  1  0  0  0  0
  1 11  1  0  0  0  0
  2 10  1  0  0  0  0
  2 18  1  0  0  0  0
  3 14  1  0  0  0  0
  4 12  1  0  0  0  0
  5 16  2  0  0  0  0
  6  9  1  0  0  0  0
  6 18  2  0  0  0  0
  7 16  1  0  0  0  0
  7 22  1  0  0  0  0
  7 23  1  0  0  0  0
  8 21  1  0  0  0  0
  9 10  2  0  0  0  0
  9 11  1  0  0  0  0
 10 13  1  0  0  0  0
 11 15  2  0  0  0  0
 12 19  1  0  0  0  0
 12 20  1  0  0  0  0
 12 26  1  0  0  0  0
 13 14  2  0  0  0  0
 14 15  1  0  0  0  0
 16 17  1  0  0  0  0
 17 24  2  0  0  0  0
 17 25  1  0  0  0  0
 19 22  1  0  0  0  0
 20 23  1  0  0  0  0
 21 27  2  0  0  0  0
 21 28  1  0  0  0  0
 24 27  1  0  0  0  0
 25 28  2  0  0  0  0
 26 29  1  0  0  0  0
 29 30  1  0  0  0  0
 29 31  1  0  0  0  0
A    1
O2
M  END
> <PUBCHEM_COMPOUND_ID_TYPE>
0

> <PUBCHEM_TOTAL_CHARGE>
0

> <PUBCHEM_SUBSTANCE_ID>
310947922

> <PUBCHEM_SUBSTANCE_VERSION>
1

> <PUBCHEM_EXT_DATASOURCE_NAME>
4488

> <PUBCHEM_EXT_DATASOURCE_REGID>
SCHEMBL16126096

> <PUBCHEM_SUBSTANCE_COMMENT>
InChI=1S/C24H28FN3O2S/c1-16(2)13-24(30)7-9-28(10-8-24)23(29)17-3-5-20(6-4-17)26-14-18-11-19(25)12-21-22(18)27-15-31-21/h3-6,11-12,15-16,26,30H,7-10,13-14H2,1-2H3
InChIKey=DKVWMKBVMGIKAX-UHFFFAOYSA-N

> <PUBCHEM_SUBSTANCE_SYNONYM>
SCHEMBL16126096

> <PUBCHEM_XREF_EXT_ID>
SCHEMBL16126096

> <PUBCHEM_EXT_DATASOURCE_URL>
https://www.surechembl.org/

> <PUBCHEM_EXT_SUBSTANCE_URL>
https://www.surechembl.org/chemical/SCHEMBL16126096

> <PUBCHEM_COORDINATE_TYPE>
1
3

$$$$
