310947929
  -OEChem-07211613022D

 19 20  0     0  0  0  0  0  0999 V2000
    0.7145   -0.2062    0.0000 *   0  0  0  0  0  0  0  0  0  0  0  0
    3.5724   -0.2062    0.0000 S   0  0  0  0  0  0  0  0  0  0  0  0
   -2.8579    1.8563    0.0000 O   0  0  0  0  0  0  0  0  0  0  0  0
   -3.5724    0.6187    0.0000 O   0  0  0  0  0  0  0  0  0  0  0  0
    0.0000   -0.6187    0.0000 N   0  0  0  0  0  0  0  0  0  0  0  0
    2.1434    0.6187    0.0000 N   0  0  0  0  0  0  0  0  0  0  0  0
    1.4289   -0.6187    0.0000 C   0  0  0  0  0  0  0  0  0  0  0  0
    2.1434   -0.2062    0.0000 C   0  0  0  0  0  0  0  0  0  0  0  0
    2.8579   -0.6187    0.0000 C   0  0  0  0  0  0  0  0  0  0  0  0
   -0.7145   -0.2062    0.0000 C   0  0  0  0  0  0  0  0  0  0  0  0
   -2.1434    0.6187    0.0000 C   0  0  0  0  0  0  0  0  0  0  0  0
    1.4289   -1.4437    0.0000 C   0  0  0  0  0  0  0  0  0  0  0  0
    2.8579   -1.4437    0.0000 C   0  0  0  0  0  0  0  0  0  0  0  0
   -0.7145    0.6187    0.0000 C   0  0  0  0  0  0  0  0  0  0  0  0
   -1.4289   -0.6187    0.0000 C   0  0  0  0  0  0  0  0  0  0  0  0
   -1.4289    1.0313    0.0000 C   0  0  0  0  0  0  0  0  0  0  0  0
   -2.1434   -0.2062    0.0000 C   0  0  0  0  0  0  0  0  0  0  0  0
    2.1434   -1.8563    0.0000 C   0  0  0  0  0  0  0  0  0  0  0  0
   -2.8579    1.0313    0.0000 C   0  0  0  0  0  0  0  0  0  0  0  0
  1  5  1  0  0  0  0
  1  7  1  0  0  0  0
  2  9  1  0  0  0  0
  3 19  2  0  0  0  0
  4 19  1  0  0  0  0
  5 10  1  0  0  0  0
  6  8  1  0  0  0  0
  7  8  1  0  0  0  0
  7 12  2  0  0  0  0
  8  9  2  0  0  0  0
  9 13  1  0  0  0  0
 10 14  2  0  0  0  0
 10 15  1  0  0  0  0
 11 16  2  0  0  0  0
 11 17  1  0  0  0  0
 11 19  1  0  0  0  0
 12 18  1  0  0  0  0
 13 18  2  0  0  0  0
 14 16  1  0  0  0  0
 15 17  2  0  0  0  0
A    1
O2
M  END
> <PUBCHEM_COMPOUND_ID_TYPE>
0

> <PUBCHEM_TOTAL_CHARGE>
0

> <PUBCHEM_SUBSTANCE_ID>
310947929

> <PUBCHEM_SUBSTANCE_VERSION>
1

> <PUBCHEM_EXT_DATASOURCE_NAME>
4488

> <PUBCHEM_EXT_DATASOURCE_REGID>
SCHEMBL16126103

> <PUBCHEM_SUBSTANCE_COMMENT>
InChI=1S/C14H14N2O2S/c15-13-10(2-1-3-12(13)19)8-16-11-6-4-9(5-7-11)14(17)18/h1-7,16,19H,8,15H2,(H,17,18)
InChIKey=JWIILWNSUARNMU-UHFFFAOYSA-N

> <PUBCHEM_SUBSTANCE_SYNONYM>
SCHEMBL16126103

> <PUBCHEM_XREF_EXT_ID>
SCHEMBL16126103

> <PUBCHEM_EXT_DATASOURCE_URL>
https://www.surechembl.org/

> <PUBCHEM_EXT_SUBSTANCE_URL>
https://www.surechembl.org/chemical/SCHEMBL16126103

> <PUBCHEM_COORDINATE_TYPE>
1
3

$$$$
