310943740
  -OEChem-07211613022D

 12 11  0     0  0  0  0  0  0999 V2000
    2.1446    0.1953    0.0000 P   0  0  0  0  0  0  0  0  0  0  0  0
   -0.7120    0.1953    0.0000 O   0  0  0  0  0  0  0  0  0  0  0  0
   -1.4240    0.6121    0.0000 N   0  0  0  0  0  0  0  0  0  0  0  0
    1.4240    0.6034    0.0000 C   0  0  0  0  0  0  0  0  0  0  0  0
    0.7033    0.1953    0.0000 C   0  0  0  0  0  0  0  0  0  0  0  0
    0.0000    0.6034    0.0000 C   0  0  0  0  0  0  0  0  0  0  0  0
    2.8740    0.5948    0.0000 C   0  0  0  0  0  0  0  0  0  0  0  0
    2.8740   -0.1953    0.0000 C   0  0  0  0  0  0  0  0  0  0  0  0
    2.1534   -0.6121    0.0000 C   0  0  0  0  0  0  0  0  0  0  0  0
   -2.1359    0.2040    0.0000 C   0  0  0  0  0  0  0  0  0  0  0  0
   -2.8740    0.5948    0.0000 C   0  0  0  0  0  0  0  0  0  0  0  0
   -2.1272   -0.6121    0.0000 C   0  0  0  0  0  0  0  0  0  0  0  0
  1  4  1  0  0  0  0
  1  7  1  0  0  0  0
  1  8  1  0  0  0  0
  1  9  1  0  0  0  0
  2  3  1  0  0  0  0
  2  6  1  0  0  0  0
  3 10  2  0  0  0  0
  4  5  1  0  0  0  0
  5  6  1  0  0  0  0
 10 11  1  0  0  0  0
 10 12  1  0  0  0  0
M  END
> <PUBCHEM_COMPOUND_ID_TYPE>
0

> <PUBCHEM_TOTAL_CHARGE>
0

> <PUBCHEM_SUBSTANCE_ID>
310943740

> <PUBCHEM_SUBSTANCE_VERSION>
1

> <PUBCHEM_EXT_DATASOURCE_NAME>
4488

> <PUBCHEM_EXT_DATASOURCE_REGID>
SCHEMBL16121808

> <PUBCHEM_SUBSTANCE_COMMENT>
InChI=1S/C9H22NOP/c1-9(2)10-11-7-6-8-12(3,4)5/h12H,6-8H2,1-5H3
InChIKey=ISNPANIAHQKLNI-UHFFFAOYSA-N

> <PUBCHEM_SUBSTANCE_SYNONYM>
SCHEMBL16121808

> <PUBCHEM_XREF_EXT_ID>
SCHEMBL16121808

> <PUBCHEM_EXT_DATASOURCE_URL>
https://www.surechembl.org/

> <PUBCHEM_EXT_SUBSTANCE_URL>
https://www.surechembl.org/chemical/SCHEMBL16121808

> <PUBCHEM_CID_ASSOCIATIONS>
117610104  1

> <PUBCHEM_COORDINATE_TYPE>
1
3

$$$$
