310947612
  -OEChem-07211613022D

  8  8  0     1  0  0  0  0  0999 V2000
    0.3650    0.1921    0.0000 S   0  0  3  0  0  0  0  0  0  0  0  0
    0.3650    0.1921    0.0000 S   0  0  0  0  0  0  0  0  0  0  0  0
    0.3650    0.1921    0.0000 S   0  0  0  0  0  0  0  0  0  0  0  0
    0.3650    0.1921    0.0000 S   0  0  0  0  0  0  0  0  0  0  0  0
    0.3650    0.1921    0.0000 S   0  0  0  0  0  0  0  0  0  0  0  0
    0.3650    0.1921    0.0000 P   0  0  0  0  0  0  0  0  0  0  0  0
    0.3650    0.1921    0.0000 P   0  0  0  0  0  0  0  0  0  0  0  0
   -0.3650   -0.1921    0.0000 C   0  0  0  0  0  0  0  0  0  0  0  0
  1  2  2  0  0  0  0
  1  4  2  0  0  0  0
  1  6  2  0  0  0  0
  2  3  2  0  0  0  0
  3  5  2  0  0  0  0
  6  7  2  0  0  0  0
  6  8  1  0  0  0  0
  7  8  1  0  0  0  0
M  END
> <PUBCHEM_COMPOUND_ID_TYPE>
0

> <PUBCHEM_TOTAL_CHARGE>
0

> <PUBCHEM_SUBSTANCE_ID>
310947612

> <PUBCHEM_SUBSTANCE_VERSION>
1

> <PUBCHEM_EXT_DATASOURCE_NAME>
4488

> <PUBCHEM_EXT_DATASOURCE_REGID>
SCHEMBL16125775

> <PUBCHEM_SUBSTANCE_COMMENT>
InChI=1S/CH2P2S5/c4-6-7-8(5)3-1-2-3/h1H2
InChIKey=HYFJRDZVUZTXDL-UHFFFAOYSA-N

> <PUBCHEM_SUBSTANCE_SYNONYM>
SCHEMBL16125775

> <PUBCHEM_XREF_EXT_ID>
SCHEMBL16125775

> <PUBCHEM_EXT_DATASOURCE_URL>
https://www.surechembl.org/

> <PUBCHEM_EXT_SUBSTANCE_URL>
https://www.surechembl.org/chemical/SCHEMBL16125775

> <PUBCHEM_CID_ASSOCIATIONS>
117613332  1

> <PUBCHEM_COORDINATE_TYPE>
1
3

$$$$
