310946168
  -OEChem-07211613022D

 11 11  0     1  0  0  0  0  0999 V2000
    2.1787   10.9196    0.0000 S   0  0  0  0  0  0  0  0  0  0  0  0
    2.8931   11.3321    0.0000 S   0  0  0  0  0  0  0  0  0  0  0  0
    2.3922   10.1228    0.0000 S   0  0  0  0  0  0  0  0  0  0  0  0
    1.9237   11.7043    0.0000 N   0  0  3  0  0  0  0  0  0  0  0  0
    2.6382   12.1168    0.0000 C   0  0  0  0  0  0  0  0  0  0  0  0
    1.5112   10.4347    0.0000 C   0  0  0  0  0  0  0  0  0  0  0  0
    1.0987   11.7043    0.0000 C   0  0  0  0  0  0  0  0  0  0  0  0
    0.8438   10.9196    0.0000 C   0  0  0  0  0  0  0  0  0  0  0  0
    3.0507   11.4023    0.0000 C   0  0  0  0  0  0  0  0  0  0  0  0
    2.2257   12.8312    0.0000 C   0  0  0  0  0  0  0  0  0  0  0  0
    3.3527   12.5293    0.0000 C   0  0  0  0  0  0  0  0  0  0  0  0
  1  2  2  0  0  0  0
  1  3  2  0  0  0  0
  1  4  1  0  0  0  0
  1  6  1  0  0  0  0
  4  5  1  0  0  0  0
  4  7  1  0  0  0  0
  5  9  1  0  0  0  0
  5 10  1  0  0  0  0
  5 11  1  0  0  0  0
  6  8  1  0  0  0  0
  7  8  1  0  0  0  0
M  END
> <PUBCHEM_COMPOUND_ID_TYPE>
0

> <PUBCHEM_TOTAL_CHARGE>
0

> <PUBCHEM_SUBSTANCE_ID>
310946168

> <PUBCHEM_SUBSTANCE_VERSION>
1

> <PUBCHEM_EXT_DATASOURCE_NAME>
4488

> <PUBCHEM_EXT_DATASOURCE_REGID>
SCHEMBL16124277

> <PUBCHEM_SUBSTANCE_COMMENT>
InChI=1S/C7H15NS3/c1-7(2,3)8-5-4-6-11(8,9)10/h4-6H2,1-3H3
InChIKey=ICBJPBQFFXWFQC-UHFFFAOYSA-N

> <PUBCHEM_SUBSTANCE_SYNONYM>
SCHEMBL16124277

> <PUBCHEM_XREF_EXT_ID>
SCHEMBL16124277

> <PUBCHEM_EXT_DATASOURCE_URL>
https://www.surechembl.org/

> <PUBCHEM_EXT_SUBSTANCE_URL>
https://www.surechembl.org/chemical/SCHEMBL16124277

> <PUBCHEM_CID_ASSOCIATIONS>
117612125  1

> <PUBCHEM_COORDINATE_TYPE>
1
3

> <PUBCHEM_BONDANNOTATIONS>
5  10  3
5  9  3

$$$$
