310948018
  -OEChem-07211613022D

150159  0     1  0  0  0  0  0999 V2000
   10.4401   -2.6885    0.0000 S   0  0  3  0  0  0  0  0  0  0  0  0
   -9.7200    3.9294    0.0000 S   0  0  3  0  0  0  0  0  0  0  0  0
   -6.9626    3.7302    0.0000 P   0  0  0  0  0  0  0  0  0  0  0  0
   -1.7847   -3.9294    0.0000 O   0  0  0  0  0  0  0  0  0  0  0  0
   -3.9294   -3.5158    0.0000 O   0  0  0  0  0  0  0  0  0  0  0  0
   -1.7847   -2.2749    0.0000 O   0  0  0  0  0  0  0  0  0  0  0  0
   -3.2093   -2.2749    0.0000 O   0  0  0  0  0  0  0  0  0  0  0  0
   -1.0647   -2.6885    0.0000 O   0  0  0  0  0  0  0  0  0  0  0  0
   -4.6647   -4.7566    0.0000 O   0  0  0  0  0  0  0  0  0  0  0  0
    6.8554   -3.9294    0.0000 O   0  0  0  0  0  0  0  0  0  0  0  0
    6.1354   -2.6885    0.0000 O   0  0  0  0  0  0  0  0  0  0  0  0
  -11.1447   -1.0494    0.0000 O   0  0  0  0  0  0  0  0  0  0  0  0
  -10.4401   -2.2749    0.0000 O   0  0  0  0  0  0  0  0  0  0  0  0
    9.7200    0.1915    0.0000 O   0  0  0  0  0  0  0  0  0  0  0  0
    4.6800    3.9294    0.0000 O   0  0  0  0  0  0  0  0  0  0  0  0
    1.8153    3.9294    0.0000 O   0  0  0  0  0  0  0  0  0  0  0  0
   -6.1200    2.7038    0.0000 O   0  0  0  0  0  0  0  0  0  0  0  0
   -8.2647   -0.2068    0.0000 O   0  0  0  0  0  0  0  0  0  0  0  0
    0.3906   -0.2068    0.0000 O   0  0  0  0  0  0  0  0  0  0  0  0
    8.9847    1.4477    0.0000 O   0  0  0  0  0  0  0  0  0  0  0  0
    5.4000    2.6885    0.0000 O   0  0  0  0  0  0  0  0  0  0  0  0
    1.0954    2.7038    0.0000 O   0  0  0  0  0  0  0  0  0  0  0  0
   -7.5447    1.0341    0.0000 O   0  0  0  0  0  0  0  0  0  0  0  0
   -0.3293    1.0341    0.0000 O   0  0  0  0  0  0  0  0  0  0  0  0
    8.2954   -4.7566    0.0000 O   0  0  0  0  0  0  0  0  0  0  0  0
    9.0000   -1.0494    0.0000 O   0  0  0  0  0  0  0  0  0  0  0  0
   -7.5601    3.5158    0.0000 O   0  0  0  0  0  0  0  0  0  0  0  0
    9.7200   -2.2749    0.0000 O   0  0  0  0  0  0  0  0  0  0  0  0
    2.5507    0.2068    0.0000 O   0  0  0  0  0  0  0  0  0  0  0  0
   -9.0000    3.5158    0.0000 O   0  0  0  0  0  0  0  0  0  0  0  0
    4.6953   -0.2221    0.0000 O   0  0  0  0  0  0  0  0  0  0  0  0
   10.4247   -3.5158    0.0000 O   0  0  0  0  0  0  0  0  0  0  0  0
   11.1447   -2.2749    0.0000 O   0  0  0  0  0  0  0  0  0  0  0  0
    5.4153    1.0341    0.0000 O   0  0  0  0  0  0  0  0  0  0  0  0
  -10.4553    3.5158    0.0000 O   0  0  0  0  0  0  0  0  0  0  0  0
   -9.7200    4.7566    0.0000 O   0  0  0  0  0  0  0  0  0  0  0  0
   -0.3293   -3.9141    0.0000 N   0  0  0  0  0  0  0  0  0  0  0  0
   -5.3847   -3.5158    0.0000 N   0  0  0  0  0  0  0  0  0  0  0  0
    5.4307   -3.9294    0.0000 N   0  0  0  0  0  0  0  0  0  0  0  0
   -9.7047   -1.0341    0.0000 N   0  0  0  0  0  0  0  0  0  0  0  0
   10.4247    1.4323    0.0000 N   0  0  0  0  0  0  0  0  0  0  0  0
    6.1354    3.9294    0.0000 N   0  0  0  0  0  0  0  0  0  0  0  0
    0.3753    3.9447    0.0000 N   0  0  0  0  0  0  0  0  0  0  0  0
   -5.4000    3.9447    0.0000 N   0  0  0  0  0  0  0  0  0  0  0  0
   -6.8247   -0.2068    0.0000 N   0  0  0  0  0  0  0  0  0  0  0  0
   -1.0494   -0.2068    0.0000 N   0  0  0  0  0  0  0  0  0  0  0  0
    9.0154   -2.6885    0.0000 N   0  0  0  0  0  0  0  0  0  0  0  0
   -9.0000    2.7038    0.0000 N   0  0  0  0  0  0  0  0  0  0  0  0
   -2.4894   -3.5158    0.0000 C   0  0  3  0  0  0  0  0  0  0  0  0
   -2.4894   -2.6885    0.0000 C   0  0  0  0  0  0  0  0  0  0  0  0
   -3.2093   -3.9141    0.0000 C   0  0  0  0  0  0  0  0  0  0  0  0
   -1.0647   -3.5158    0.0000 C   0  0  0  0  0  0  0  0  0  0  0  0
    0.3906   -3.4851    0.0000 C   0  0  0  0  0  0  0  0  0  0  0  0
   -2.4740   -4.3430    0.0000 C   0  0  0  0  0  0  0  0  0  0  0  0
    1.8153   -3.5005    0.0000 C   0  0  0  0  0  0  0  0  0  0  0  0
    1.1106   -3.9141    0.0000 C   0  0  0  0  0  0  0  0  0  0  0  0
   -4.6647   -3.9294    0.0000 C   0  0  0  0  0  0  0  0  0  0  0  0
   -5.3694   -2.6732    0.0000 C   0  0  0  0  0  0  0  0  0  0  0  0
    0.4060   -2.6885    0.0000 C   0  0  0  0  0  0  0  0  0  0  0  0
    3.2554   -3.5005    0.0000 C   0  0  0  0  0  0  0  0  0  0  0  0
    2.5660   -3.9141    0.0000 C   0  0  0  0  0  0  0  0  0  0  0  0
    1.8153   -2.6885    0.0000 C   0  0  0  0  0  0  0  0  0  0  0  0
   -6.0894   -1.4323    0.0000 C   0  0  0  0  0  0  0  0  0  0  0  0
    1.1260   -2.2749    0.0000 C   0  0  0  0  0  0  0  0  0  0  0  0
   -6.0741   -2.2749    0.0000 C   0  0  0  0  0  0  0  0  0  0  0  0
    3.9754   -3.9141    0.0000 C   0  0  0  0  0  0  0  0  0  0  0  0
    4.6953   -3.5005    0.0000 C   0  0  0  0  0  0  0  0  0  0  0  0
   -7.5447   -1.4323    0.0000 C   0  0  0  0  0  0  0  0  0  0  0  0
   -6.8247   -1.0341    0.0000 C   0  0  0  0  0  0  0  0  0  0  0  0
   -4.6647   -2.2595    0.0000 C   0  0  0  0  0  0  0  0  0  0  0  0
    3.2860   -2.6732    0.0000 C   0  0  0  0  0  0  0  0  0  0  0  0
   -5.3847   -1.0341    0.0000 C   0  0  0  0  0  0  0  0  0  0  0  0
   -4.6800   -1.4323    0.0000 C   0  0  0  0  0  0  0  0  0  0  0  0
   -8.2647   -1.0341    0.0000 C   0  0  0  0  0  0  0  0  0  0  0  0
   -8.9847   -1.4323    0.0000 C   0  0  0  0  0  0  0  0  0  0  0  0
    4.6953   -2.6885    0.0000 C   0  0  0  0  0  0  0  0  0  0  0  0
    3.9906   -2.2749    0.0000 C   0  0  0  0  0  0  0  0  0  0  0  0
   -7.5447   -2.2595    0.0000 C   0  0  0  0  0  0  0  0  0  0  0  0
   -8.9694   -2.2749    0.0000 C   0  0  0  0  0  0  0  0  0  0  0  0
   -8.2494   -2.6732    0.0000 C   0  0  0  0  0  0  0  0  0  0  0  0
    6.1506   -3.5158    0.0000 C   0  0  0  0  0  0  0  0  0  0  0  0
    9.7200    3.5311    0.0000 C   0  0  0  0  0  0  0  0  0  0  0  0
    8.2954    3.5311    0.0000 C   0  0  0  0  0  0  0  0  0  0  0  0
   -1.7847    3.5311    0.0000 C   0  0  0  0  0  0  0  0  0  0  0  0
   -3.2400    3.5464    0.0000 C   0  0  0  0  0  0  0  0  0  0  0  0
   -4.6800    0.2221    0.0000 C   0  0  0  0  0  0  0  0  0  0  0  0
   -3.2247    0.2221    0.0000 C   0  0  0  0  0  0  0  0  0  0  0  0
    9.0000    3.9294    0.0000 C   0  0  0  0  0  0  0  0  0  0  0  0
   10.4094    2.3056    0.0000 C   0  0  0  0  0  0  0  0  0  0  0  0
   -2.5200    3.9447    0.0000 C   0  0  0  0  0  0  0  0  0  0  0  0
    6.8554    3.5311    0.0000 C   0  0  0  0  0  0  0  0  0  0  0  0
   -0.3293    3.5311    0.0000 C   0  0  0  0  0  0  0  0  0  0  0  0
    9.7200    2.7038    0.0000 C   0  0  0  0  0  0  0  0  0  0  0  0
   -4.6647    3.5311    0.0000 C   0  0  0  0  0  0  0  0  0  0  0  0
    7.5601    3.9294    0.0000 C   0  0  0  0  0  0  0  0  0  0  0  0
   -3.9447   -0.1915    0.0000 C   0  0  0  0  0  0  0  0  0  0  0  0
   -1.0800    3.9294    0.0000 C   0  0  0  0  0  0  0  0  0  0  0  0
   -3.9600    3.9294    0.0000 C   0  0  0  0  0  0  0  0  0  0  0  0
   -6.1200    0.2221    0.0000 C   0  0  0  0  0  0  0  0  0  0  0  0
   -1.7847    0.2221    0.0000 C   0  0  0  0  0  0  0  0  0  0  0  0
  -10.4401   -1.4630    0.0000 C   0  0  0  0  0  0  0  0  0  0  0  0
   -5.3847   -0.1915    0.0000 C   0  0  0  0  0  0  0  0  0  0  0  0
   -2.4894   -0.1915    0.0000 C   0  0  0  0  0  0  0  0  0  0  0  0
   10.4094    3.9294    0.0000 C   0  0  0  0  0  0  0  0  0  0  0  0
    8.2800    2.7192    0.0000 C   0  0  0  0  0  0  0  0  0  0  0  0
   -1.7847    2.7192    0.0000 C   0  0  0  0  0  0  0  0  0  0  0  0
   -3.2400    2.7192    0.0000 C   0  0  0  0  0  0  0  0  0  0  0  0
   -4.6647    1.0341    0.0000 C   0  0  0  0  0  0  0  0  0  0  0  0
   -3.1941    1.0494    0.0000 C   0  0  0  0  0  0  0  0  0  0  0  0
   11.1294    2.7038    0.0000 C   0  0  0  0  0  0  0  0  0  0  0  0
    6.8707    2.7038    0.0000 C   0  0  0  0  0  0  0  0  0  0  0  0
   -0.3600    2.7038    0.0000 C   0  0  0  0  0  0  0  0  0  0  0  0
   -4.6494    2.7038    0.0000 C   0  0  0  0  0  0  0  0  0  0  0  0
   11.1294    3.5005    0.0000 C   0  0  0  0  0  0  0  0  0  0  0  0
   -6.0894    1.0494    0.0000 C   0  0  0  0  0  0  0  0  0  0  0  0
    7.5753    2.2902    0.0000 C   0  0  0  0  0  0  0  0  0  0  0  0
   -1.7847    1.0494    0.0000 C   0  0  0  0  0  0  0  0  0  0  0  0
   -1.0647    2.3056    0.0000 C   0  0  0  0  0  0  0  0  0  0  0  0
   -3.9600    2.3056    0.0000 C   0  0  0  0  0  0  0  0  0  0  0  0
   -5.4000    1.4477    0.0000 C   0  0  0  0  0  0  0  0  0  0  0  0
   -2.4740    1.4477    0.0000 C   0  0  0  0  0  0  0  0  0  0  0  0
    9.7200    1.0187    0.0000 C   0  0  0  0  0  0  0  0  0  0  0  0
    5.4000    3.5158    0.0000 C   0  0  0  0  0  0  0  0  0  0  0  0
    1.0954    3.5158    0.0000 C   0  0  0  0  0  0  0  0  0  0  0  0
   -6.0894    3.5311    0.0000 C   0  0  0  0  0  0  0  0  0  0  0  0
   -7.5447    0.2068    0.0000 C   0  0  0  0  0  0  0  0  0  0  0  0
   -0.3447    0.2068    0.0000 C   0  0  0  0  0  0  0  0  0  0  0  0
    7.5601   -3.5158    0.0000 C   0  0  0  0  0  0  0  0  0  0  0  0
    8.3107   -3.9141    0.0000 C   0  0  3  0  0  0  0  0  0  0  0  0
  -11.1294   -0.2068    0.0000 C   0  0  0  0  0  0  0  0  0  0  0  0
    9.0000   -0.2221    0.0000 C   0  0  0  0  0  0  0  0  0  0  0  0
    3.9906    3.5311    0.0000 C   0  0  0  0  0  0  0  0  0  0  0  0
    2.5507    3.5311    0.0000 C   0  0  0  0  0  0  0  0  0  0  0  0
  -10.4401    0.2068    0.0000 C   0  0  0  0  0  0  0  0  0  0  0  0
   -9.0000    0.2068    0.0000 C   0  0  0  0  0  0  0  0  0  0  0  0
   -6.8247    2.2902    0.0000 C   0  0  0  0  0  0  0  0  0  0  0  0
    3.2400    3.9447    0.0000 C   0  0  0  0  0  0  0  0  0  0  0  0
    9.0000   -3.5005    0.0000 C   0  0  0  0  0  0  0  0  0  0  0  0
   -9.7047   -0.2068    0.0000 C   0  0  0  0  0  0  0  0  0  0  0  0
    8.2800    0.2068    0.0000 C   0  0  0  0  0  0  0  0  0  0  0  0
    1.0954    0.2068    0.0000 C   0  0  0  0  0  0  0  0  0  0  0  0
   -7.5601    2.7038    0.0000 C   0  0  3  0  0  0  0  0  0  0  0  0
    7.5907   -0.2068    0.0000 C   0  0  0  0  0  0  0  0  0  0  0  0
    1.8459   -0.2068    0.0000 C   0  0  0  0  0  0  0  0  0  0  0  0
   -8.2800    2.2902    0.0000 C   0  0  0  0  0  0  0  0  0  0  0  0
    6.8400    0.2068    0.0000 C   0  0  0  0  0  0  0  0  0  0  0  0
    6.1506   -0.2068    0.0000 C   0  0  0  0  0  0  0  0  0  0  0  0
    5.4153    0.1915    0.0000 C   0  0  0  0  0  0  0  0  0  0  0  0
    3.2706   -0.2068    0.0000 C   0  0  0  0  0  0  0  0  0  0  0  0
    3.9600    0.2068    0.0000 C   0  0  0  0  0  0  0  0  0  0  0  0
  1 28  1  0  0  0  0
  1 32  2  0  0  0  0
  1 33  1  0  0  0  0
  2 30  1  0  0  0  0
  2 35  2  0  0  0  0
  2 36  1  0  0  0  0
  3125  2  3  0  0  0
  4 49  1  0  0  0  0
  4 52  1  0  0  0  0
  5 51  1  0  0  0  0
  5 57  1  0  0  0  0
  6 50  2  0  0  0  0
  7 50  1  0  0  0  0
  8 52  2  0  0  0  0
  9 57  2  0  0  0  0
 10 81  1  0  0  0  0
 10128  1  0  0  0  0
 11 81  2  0  0  0  0
 12101  1  0  0  0  0
 12130  1  0  0  0  0
 13101  2  0  0  0  0
 14122  1  0  0  0  0
 14131  1  0  0  0  0
 15123  1  0  0  0  0
 15132  1  0  0  0  0
 16124  1  0  0  0  0
 16133  1  0  0  0  0
 17125  1  0  0  0  0
 17136  1  0  0  0  0
 18126  1  0  0  0  0
 18135  1  0  0  0  0
 19127  1  0  0  0  0
 19141  1  0  0  0  0
 20122  2  0  0  0  0
 21123  2  0  0  0  0
 22124  2  0  0  0  0
 23126  2  0  0  0  0
 24127  2  0  0  0  0
 25129  1  0  0  0  0
 26131  2  0  0  0  0
 27142  1  0  0  0  0
 28 47  1  0  0  0  0
 29144  1  0  0  0  0
 29149  1  0  0  0  0
 30 48  1  0  0  0  0
 31148  1  0  0  0  0
 31150  1  0  0  0  0
 34148  2  0  0  0  0
 37 52  1  0  0  0  0
 37 53  1  0  0  0  0
 38 57  1  0  0  0  0
 38 58  1  0  0  0  0
 39 67  1  0  0  0  0
 39 81  1  0  0  0  0
 40 75  1  0  0  0  0
 40101  1  0  0  0  0
 41 89  1  0  0  0  0
 41122  1  0  0  0  0
 42 91  1  0  0  0  0
 42123  1  0  0  0  0
 43 92  1  0  0  0  0
 43124  1  0  0  0  0
 44 94  1  0  0  0  0
 44125  1  0  0  0  0
 45 99  1  0  0  0  0
 45126  1  0  0  0  0
 46100  1  0  0  0  0
 46127  1  0  0  0  0
 47138  1  0  0  0  0
 48145  1  0  0  0  0
 49 50  1  0  0  0  0
 49 51  1  0  0  0  0
 49 54  1  0  0  0  0
 53 56  2  0  0  0  0
 53 59  1  0  0  0  0
 55 56  1  0  0  0  0
 55 61  1  0  0  0  0
 55 62  2  0  0  0  0
 58 65  1  0  0  0  0
 58 70  2  0  0  0  0
 59 64  2  0  0  0  0
 60 61  1  0  0  0  0
 60 66  2  0  0  0  0
 60 71  1  0  0  0  0
 62 64  1  0  0  0  0
 63 65  2  0  0  0  0
 63 69  1  0  0  0  0
 63 72  1  0  0  0  0
 66 67  1  0  0  0  0
 67 76  2  0  0  0  0
 68 69  1  0  0  0  0
 68 74  1  0  0  0  0
 68 78  2  0  0  0  0
 70 73  1  0  0  0  0
 71 77  2  0  0  0  0
 72 73  2  0  0  0  0
 74 75  2  0  0  0  0
 75 79  1  0  0  0  0
 76 77  1  0  0  0  0
 78 80  1  0  0  0  0
 79 80  2  0  0  0  0
 82 88  1  0  0  0  0
 82 93  2  0  0  0  0
 82104  1  0  0  0  0
 83 88  1  0  0  0  0
 83 95  1  0  0  0  0
 83105  2  0  0  0  0
 84 90  1  0  0  0  0
 84 97  1  0  0  0  0
 84106  2  0  0  0  0
 85 90  1  0  0  0  0
 85 98  2  0  0  0  0
 85107  1  0  0  0  0
 86 96  1  0  0  0  0
 86102  2  0  0  0  0
 86108  1  0  0  0  0
 87 96  1  0  0  0  0
 87103  1  0  0  0  0
 87109  2  0  0  0  0
 89 93  1  0  0  0  0
 89110  2  0  0  0  0
 91 95  2  0  0  0  0
 91111  1  0  0  0  0
 92 97  2  0  0  0  0
 92112  1  0  0  0  0
 94 98  1  0  0  0  0
 94113  2  0  0  0  0
 99102  1  0  0  0  0
 99115  2  0  0  0  0
100103  2  0  0  0  0
100117  1  0  0  0  0
104114  2  0  0  0  0
105116  1  0  0  0  0
106118  1  0  0  0  0
107119  2  0  0  0  0
108120  2  0  0  0  0
109121  1  0  0  0  0
110114  1  0  0  0  0
111116  2  0  0  0  0
112118  2  0  0  0  0
113119  1  0  0  0  0
115120  1  0  0  0  0
117121  2  0  0  0  0
128129  1  0  0  0  0
129138  1  0  0  0  0
130134  1  0  0  0  0
131140  1  0  0  0  0
132137  1  0  0  0  0
133137  1  0  0  0  0
134139  1  0  0  0  0
135139  1  0  0  0  0
136142  1  0  0  0  0
140143  1  0  0  0  0
141144  1  0  0  0  0
142145  1  0  0  0  0
143146  1  0  0  0  0
146147  1  0  0  0  0
147148  1  0  0  0  0
149150  1  0  0  0  0
M  END
> <PUBCHEM_COMPOUND_ID_TYPE>
0

> <PUBCHEM_TOTAL_CHARGE>
0

> <PUBCHEM_SUBSTANCE_ID>
310948018

> <PUBCHEM_SUBSTANCE_VERSION>
1

> <PUBCHEM_EXT_DATASOURCE_NAME>
4488

> <PUBCHEM_EXT_DATASOURCE_REGID>
SCHEMBL16126192

> <PUBCHEM_SUBSTANCE_COMMENT>
InChI=1S/C102H113N12O33PS2/c1-102(91(119)120,145-100(129)113-85-35-14-25-75(60-85)50-71-22-11-32-82(57-71)110-97(126)141-64-87(115)62-103-146-149(130)131)66-143-98(127)111-83-33-12-23-72(58-83)48-68-18-7-28-78(53-68)106-93(122)137-40-5-4-39-136-92(121)105-77-27-6-17-67(52-77)47-69-20-10-31-81(56-69)109-96(125)140-46-44-134-43-45-135-89(117)37-2-3-38-90(118)144-99(128)112-84-34-13-24-74(59-84)49-70-19-8-29-79(54-70)107-94(123)138-41-16-42-139-95(124)108-80-30-9-21-73(55-80)51-76-26-15-36-86(61-76)114-101(148)142-65-88(116)63-104-147-150(132)133/h6-15,17-36,52-61,87-88,103-104,114-116,148H,2-5,16,37-51,62-66H2,1H3,(H,105,121)(H,106,122)(H,107,123)(H,108,124)(H,109,125)(H,110,126)(H,111,127)(H,112,128)(H,113,129)(H,119,120)(H,130,131)(H,132,133)
InChIKey=VKUKSTGGUZQLMT-UHFFFAOYSA-N

> <PUBCHEM_SUBSTANCE_SYNONYM>
SCHEMBL16126192

> <PUBCHEM_XREF_EXT_ID>
SCHEMBL16126192

> <PUBCHEM_EXT_DATASOURCE_URL>
https://www.surechembl.org/

> <PUBCHEM_EXT_SUBSTANCE_URL>
https://www.surechembl.org/chemical/SCHEMBL16126192

> <PUBCHEM_CID_ASSOCIATIONS>
117613657  1

> <PUBCHEM_COORDINATE_TYPE>
1
3

$$$$
