310948692
  -OEChem-07211613022D

 45 46  0     1  0  0  0  0  0999 V2000
    0.3316    2.4099    0.0000 P   0  0  0  0  0  0  0  0  0  0  0  0
    0.3316    0.7441    0.0000 O   0  0  0  0  0  0  0  0  0  0  0  0
    0.2183   -0.7602    0.0000 O   0  0  0  0  0  0  0  0  0  0  0  0
   -1.1079    2.4099    0.0000 O   0  0  0  0  0  0  0  0  0  0  0  0
    1.8681    0.6955    0.0000 O   0  0  0  0  0  0  0  0  0  0  0  0
   -1.1079   -0.0971    0.0000 O   0  0  0  0  0  0  0  0  0  0  0  0
    2.7091   -0.7441    0.0000 O   0  0  0  0  0  0  0  0  0  0  0  0
    1.9004   -2.1997    0.0000 O   0  0  0  0  0  0  0  0  0  0  0  0
   -2.5473    0.7441    0.0000 O   0  0  0  0  0  0  0  0  0  0  0  0
    0.3316    2.4099    0.0000 O   0  0  0  0  0  0  0  0  0  0  0  0
    0.6551   -2.9437    0.0000 O   0  0  0  0  0  0  0  0  0  0  0  0
   -2.5473    3.2510    0.0000 O   0  0  0  0  0  0  0  0  0  0  0  0
    3.0811    0.0323    0.0000 O   0  0  0  0  0  0  0  0  0  0  0  0
   -2.4827   -0.1456    0.0000 O   0  0  0  0  0  0  0  0  0  0  0  0
    3.9222   -0.0971    0.0000 O   0  0  0  0  0  0  0  0  0  0  0  0
    3.1782   -2.7981    0.0000 O   0  0  0  0  0  0  0  0  0  0  0  0
   -3.2752    1.9086    0.0000 O   0  0  0  0  0  0  0  0  0  0  0  0
   -0.4933   -3.7362    0.0000 O   0  0  0  0  0  0  0  0  0  0  0  0
   -3.2914    4.3831    0.0000 O   0  0  0  0  0  0  0  0  0  0  0  0
   -0.3963    1.1807    0.0000 C   0  0  3  0  0  0  0  0  0  0  0  0
    0.6227   -0.0323    0.0000 C   0  0  3  0  0  0  0  0  0  0  0  0
    1.4476   -0.0162    0.0000 C   0  0  3  0  0  0  0  0  0  0  0  0
   -1.1079    0.7602    0.0000 C   0  0  3  0  0  0  0  0  0  0  0  0
    1.8681   -0.7279    0.0000 C   0  0  3  0  0  0  0  0  0  0  0  0
    1.4638   -1.4718    0.0000 C   0  0  3  0  0  0  0  0  0  0  0  0
   -1.8358    1.1807    0.0000 C   0  0  3  0  0  0  0  0  0  0  0  0
   -0.3963    2.0056    0.0000 C   0  0  3  0  0  0  0  0  0  0  0  0
    0.6389   -1.4556    0.0000 C   0  0  3  0  0  0  0  0  0  0  0  0
   -1.8358    2.0218    0.0000 C   0  0  3  0  0  0  0  0  0  0  0  0
    0.2345   -2.1997    0.0000 C   0  0  0  0  0  0  0  0  0  0  0  0
   -2.5312    2.4099    0.0000 C   0  0  0  0  0  0  0  0  0  0  0  0
    2.7091    0.6793    0.0000 C   0  0  0  0  0  0  0  0  0  0  0  0
   -1.8196   -0.5176    0.0000 C   0  0  0  0  0  0  0  0  0  0  0  0
    3.1620   -0.0485    0.0000 C   0  0  0  0  0  0  0  0  0  0  0  0
    2.7576   -2.1674    0.0000 C   0  0  0  0  0  0  0  0  0  0  0  0
   -3.2590    1.1483    0.0000 C   0  0  0  0  0  0  0  0  0  0  0  0
    0.2831   -3.7038    0.0000 C   0  0  0  0  0  0  0  0  0  0  0  0
    3.0973    1.3748    0.0000 C   0  0  0  0  0  0  0  0  0  0  0  0
   -1.7872   -1.3262    0.0000 C   0  0  0  0  0  0  0  0  0  0  0  0
   -3.2752    3.6392    0.0000 C   0  0  0  0  0  0  0  0  0  0  0  0
    2.7900    0.6470    0.0000 C   0  0  0  0  0  0  0  0  0  0  0  0
    3.1134   -1.4233    0.0000 C   0  0  0  0  0  0  0  0  0  0  0  0
   -3.9222    0.7279    0.0000 C   0  0  0  0  0  0  0  0  0  0  0  0
    0.7036   -4.3831    0.0000 C   0  0  0  0  0  0  0  0  0  0  0  0
   -3.9222    3.2025    0.0000 C   0  0  0  0  0  0  0  0  0  0  0  0
  1 10  1  0  0  0  0
 20  2  1  1  0  0  0
 21  2  1  6  0  0  0
  3 21  1  0  0  0  0
  3 28  1  0  0  0  0
  4 27  1  0  0  0  0
  4 29  1  0  0  0  0
 22  5  1  1  0  0  0
  5 32  1  0  0  0  0
 23  6  1  1  0  0  0
  6 33  1  0  0  0  0
 24  7  1  1  0  0  0
  7 34  1  0  0  0  0
 25  8  1  6  0  0  0
  8 35  1  0  0  0  0
 26  9  1  6  0  0  0
  9 36  1  0  0  0  0
 27 10  1  6  0  0  0
 11 30  1  0  0  0  0
 11 37  1  0  0  0  0
 12 31  1  0  0  0  0
 12 40  1  0  0  0  0
 13 32  2  0  0  0  0
 14 33  2  0  0  0  0
 15 34  2  0  0  0  0
 16 35  2  0  0  0  0
 17 36  2  0  0  0  0
 18 37  2  0  0  0  0
 19 40  2  0  0  0  0
 20 23  1  0  0  0  0
 20 27  1  0  0  0  0
 21 22  1  0  0  0  0
 22 24  1  0  0  0  0
 23 26  1  0  0  0  0
 24 25  1  0  0  0  0
 25 28  1  0  0  0  0
 26 29  1  0  0  0  0
 28 30  1  1  0  0  0
 29 31  1  6  0  0  0
 32 38  1  0  0  0  0
 33 39  1  0  0  0  0
 34 41  1  0  0  0  0
 35 42  1  0  0  0  0
 36 43  1  0  0  0  0
 37 44  1  0  0  0  0
 40 45  1  0  0  0  0
M  END
> <PUBCHEM_COMPOUND_ID_TYPE>
0

> <PUBCHEM_TOTAL_CHARGE>
0

> <PUBCHEM_SUBSTANCE_ID>
310948692

> <PUBCHEM_SUBSTANCE_VERSION>
1

> <PUBCHEM_EXT_DATASOURCE_NAME>
4488

> <PUBCHEM_EXT_DATASOURCE_REGID>
SCHEMBL16126876

> <PUBCHEM_SUBSTANCE_COMMENT>
InChI=1S/C26H37O18P/c1-10(27)34-8-17-19(36-12(3)29)21(38-14(5)31)23(40-16(7)33)25(41-17)43-24-22(39-15(6)32)20(37-13(4)30)18(9-35-11(2)28)42-26(24)44-45/h17-26H,8-9,45H2,1-7H3/t17-,18+,19-,20-,21+,22+,23+,24+,25-,26-/m1/s1
InChIKey=PAAXZASSDFHBMP-OHTBHWGDSA-N

> <PUBCHEM_SUBSTANCE_SYNONYM>
SCHEMBL16126876

> <PUBCHEM_XREF_EXT_ID>
SCHEMBL16126876

> <PUBCHEM_EXT_DATASOURCE_URL>
https://www.surechembl.org/

> <PUBCHEM_EXT_SUBSTANCE_URL>
https://www.surechembl.org/chemical/SCHEMBL16126876

> <PUBCHEM_CID_ASSOCIATIONS>
117614233  1

> <PUBCHEM_COORDINATE_TYPE>
1
3

> <PUBCHEM_BONDANNOTATIONS>
27  10  6
20  2  5
21  2  6
28  30  5
29  31  6
22  5  5
23  6  5
24  7  5
25  8  6
26  9  6

$$$$
