310939393
  -OEChem-07211613022D

 24 25  0     0  0  0  0  0  0999 V2000
    1.7862    0.6187    0.0000 Cl  0  0  0  0  0  0  0  0  0  0  0  0
   -1.0717    0.6187    0.0000 F   0  0  0  0  0  0  0  0  0  0  0  0
    0.3572    1.4437    0.0000 O   0  0  0  0  0  0  0  0  0  0  0  0
   -1.0717   -1.8563    0.0000 C   0  0  0  0  0  0  0  0  0  0  0  0
   -0.3572   -0.6187    0.0000 C   0  0  0  0  0  0  0  0  0  0  0  0
   -1.0717   -1.0313    0.0000 C   0  0  0  0  0  0  0  0  0  0  0  0
   -0.3572    0.2062    0.0000 C   0  0  0  0  0  0  0  0  0  0  0  0
    0.3572    0.6187    0.0000 C   0  0  0  0  0  0  0  0  0  0  0  0
   -1.7862   -2.2687    0.0000 C   0  0  0  0  0  0  0  0  0  0  0  0
    1.0717    0.2062    0.0000 C   0  0  0  0  0  0  0  0  0  0  0  0
    0.3572   -1.0313    0.0000 C   0  0  0  0  0  0  0  0  0  0  0  0
    1.0717   -0.6187    0.0000 C   0  0  0  0  0  0  0  0  0  0  0  0
    1.0717    1.8563    0.0000 C   0  0  0  0  0  0  0  0  0  0  0  0
    1.0717    2.6812    0.0000 C   0  0  0  0  0  0  0  0  0  0  0  0
    1.7862    1.4437    0.0000 C   0  0  0  0  0  0  0  0  0  0  0  0
    1.7862    3.0938    0.0000 C   0  0  0  0  0  0  0  0  0  0  0  0
    2.5006    1.8563    0.0000 C   0  0  0  0  0  0  0  0  0  0  0  0
    2.5006    2.6812    0.0000 C   0  0  0  0  0  0  0  0  0  0  0  0
   -0.3572   -2.2687    0.0000 H   1  0  0  0  0  0  0  0  0  0  0  0
   -0.8582   -2.6531    0.0000 H   1  0  0  0  0  0  0  0  0  0  0  0
   -1.7862   -0.6187    0.0000 H   0  0  0  0  0  0  0  0  0  0  0  0
   -1.7862   -3.0938    0.0000 H   1  0  0  0  0  0  0  0  0  0  0  0
   -2.5006   -1.8563    0.0000 H   1  0  0  0  0  0  0  0  0  0  0  0
   -2.5006   -2.6812    0.0000 H   1  0  0  0  0  0  0  0  0  0  0  0
  1 10  1  0  0  0  0
  2  7  1  0  0  0  0
  3  8  1  0  0  0  0
  3 13  1  0  0  0  0
  4  6  1  0  0  0  0
  4  9  1  0  0  0  0
  4 19  1  0  0  0  0
  4 20  1  0  0  0  0
  5  6  1  0  0  0  0
  5  7  2  0  0  0  0
  5 11  1  0  0  0  0
  6 21  1  0  0  0  0
  7  8  1  0  0  0  0
  8 10  2  0  0  0  0
  9 22  1  0  0  0  0
  9 23  1  0  0  0  0
  9 24  1  0  0  0  0
 10 12  1  0  0  0  0
 11 12  2  0  0  0  0
 13 14  2  0  0  0  0
 13 15  1  0  0  0  0
 14 16  1  0  0  0  0
 15 17  2  0  0  0  0
 16 18  2  0  0  0  0
 17 18  1  0  0  0  0
M  ISO  5  19   2  20   2  22   2  23   2  24   2
M  END
> <PUBCHEM_COMPOUND_ID_TYPE>
0

> <PUBCHEM_TOTAL_CHARGE>
0

> <PUBCHEM_SUBSTANCE_ID>
310939393

> <PUBCHEM_SUBSTANCE_VERSION>
1

> <PUBCHEM_EXT_DATASOURCE_NAME>
4488

> <PUBCHEM_EXT_DATASOURCE_REGID>
SCHEMBL16117314

> <PUBCHEM_SUBSTANCE_COMMENT>
InChI=1S/C15H14ClFO/c1-2-6-11-9-10-13(16)15(14(11)17)18-12-7-4-3-5-8-12/h3-5,7-10H,2,6H2,1H3/i1D3,2D2
InChIKey=DWGSPQDBRACBDT-ZBJDZAJPSA-N

> <PUBCHEM_SUBSTANCE_SYNONYM>
SCHEMBL16117314

> <PUBCHEM_XREF_EXT_ID>
SCHEMBL16117314

> <PUBCHEM_EXT_DATASOURCE_URL>
https://www.surechembl.org/

> <PUBCHEM_EXT_SUBSTANCE_URL>
https://www.surechembl.org/chemical/SCHEMBL16117314

> <PUBCHEM_CID_ASSOCIATIONS>
117606720  1

> <PUBCHEM_COORDINATE_TYPE>
1
3

$$$$
