310947345
  -OEChem-07211613022D

 15 15  0     1  0  0  0  0  0999 V2000
   -0.6704    3.2648    0.0000 S   0  0  3  0  0  0  0  0  0  0  0  0
   -1.0829    3.9792    0.0000 O   0  0  0  0  0  0  0  0  0  0  0  0
   -1.3849    2.8523    0.0000 N   0  0  0  0  0  0  0  0  0  0  0  0
    0.0441    2.8523    0.0000 C   0  0  0  0  0  0  0  0  0  0  0  0
   -2.8138    2.8523    0.0000 C   0  0  0  0  0  0  0  0  0  0  0  0
   -2.0993    3.2648    0.0000 C   0  0  0  0  0  0  0  0  0  0  0  0
   -0.2579    3.9792    0.0000 C   0  0  0  0  0  0  0  0  0  0  0  0
    0.4566    3.5667    0.0000 C   0  0  0  0  0  0  0  0  0  0  0  0
    0.7586    2.4398    0.0000 C   0  0  0  0  0  0  0  0  0  0  0  0
   -0.3684    2.1378    0.0000 C   0  0  0  0  0  0  0  0  0  0  0  0
   -3.5283    3.2648    0.0000 C   0  0  0  0  0  0  0  0  0  0  0  0
   -2.8138    2.0273    0.0000 C   0  0  0  0  0  0  0  0  0  0  0  0
   -4.2430    2.8528    0.0000 C   0  0  0  0  0  0  0  0  0  0  0  0
   -3.5283    1.6148    0.0000 C   0  0  0  0  0  0  0  0  0  0  0  0
   -4.2427    2.0273    0.0000 C   0  0  0  0  0  0  0  0  0  0  0  0
  1  2  2  0  0  0  0
  1  3  1  0  0  0  0
  1  4  1  0  0  0  0
  1  7  1  0  0  0  0
  3  6  2  0  0  0  0
  4  8  1  0  0  0  0
  4  9  1  0  0  0  0
  4 10  1  0  0  0  0
  5  6  1  0  0  0  0
  5 11  2  0  0  0  0
  5 12  1  0  0  0  0
 11 13  1  0  0  0  0
 12 14  2  0  0  0  0
 13 15  2  0  0  0  0
 14 15  1  0  0  0  0
M  END
> <PUBCHEM_COMPOUND_ID_TYPE>
0

> <PUBCHEM_TOTAL_CHARGE>
0

> <PUBCHEM_SUBSTANCE_ID>
310947345

> <PUBCHEM_SUBSTANCE_VERSION>
1

> <PUBCHEM_EXT_DATASOURCE_NAME>
4488

> <PUBCHEM_EXT_DATASOURCE_REGID>
SCHEMBL16125500

> <PUBCHEM_SUBSTANCE_COMMENT>
InChI=1S/C12H19NOS/c1-12(2,3)15(4,14)13-10-11-8-6-5-7-9-11/h5-10,15H,1-4H3/b13-10+
InChIKey=BCUGHLLUGORKLK-JLHYYAGUSA-N

> <PUBCHEM_SUBSTANCE_SYNONYM>
SCHEMBL16125500

> <PUBCHEM_XREF_EXT_ID>
SCHEMBL16125500

> <PUBCHEM_EXT_DATASOURCE_URL>
https://www.surechembl.org/

> <PUBCHEM_EXT_SUBSTANCE_URL>
https://www.surechembl.org/chemical/SCHEMBL16125500

> <PUBCHEM_COORDINATE_TYPE>
1
3

$$$$
