310939477
  -OEChem-07211613022D

 31 30  0     1  0  0  0  0  0999 V2000
    1.7958   -3.6715    0.0000 *   0  0  0  0  0  0  0  0  0  0  0  0
   -1.0620   -3.6715    0.0000 *   0  0  0  0  0  0  0  0  0  0  0  0
    2.5103   -4.0840    0.0000 O   0  0  0  0  0  0  0  0  0  0  0  0
   -1.7765   -4.0840    0.0000 O   0  0  0  0  0  0  0  0  0  0  0  0
    1.2173   -1.4932    0.0000 O   0  0  0  0  0  0  0  0  0  0  0  0
    1.9597   -2.7141    0.0000 O   0  0  0  0  0  0  0  0  0  0  0  0
   -3.2828   -4.0550    0.0000 O   0  0  0  0  0  0  0  0  0  0  0  0
   -1.0620   -1.1965    0.0000 O   0  0  0  0  0  0  0  0  0  0  0  0
    0.3669   -1.1965    0.0000 O   0  0  0  0  0  0  0  0  0  0  0  0
    4.7117   -3.6811    0.0000 O   0  0  0  0  0  0  0  0  0  0  0  0
    3.9973   -4.9186    0.0000 O   0  0  0  0  0  0  0  0  0  0  0  0
   -3.2828   -2.4050    0.0000 O   0  0  0  0  0  0  0  0  0  0  0  0
    3.9407   -1.6090    0.0000 O   0  0  0  0  0  0  0  0  0  0  0  0
    4.6552   -2.8465    0.0000 O   0  0  0  0  0  0  0  0  0  0  0  0
   -3.9973   -5.2925    0.0000 O   0  0  0  0  0  0  0  0  0  0  0  0
   -4.7117   -2.4050    0.0000 O   0  0  0  0  0  0  0  0  0  0  0  0
    0.3669   -3.6715    0.0000 N   0  0  3  0  0  0  0  0  0  0  0  0
    0.3669   -2.8465    0.0000 C   0  0  3  0  0  0  0  0  0  0  0  0
    1.2361   -2.3179    0.0000 C   0  0  0  0  0  0  0  0  0  0  0  0
    1.0814   -4.0840    0.0000 C   0  0  0  0  0  0  0  0  0  0  0  0
   -0.3476   -2.4340    0.0000 C   0  0  0  0  0  0  0  0  0  0  0  0
   -0.3476   -4.0840    0.0000 C   0  0  0  0  0  0  0  0  0  0  0  0
    3.2248   -3.6715    0.0000 C   0  0  3  0  0  0  0  0  0  0  0  0
   -0.3476   -1.6090    0.0000 C   0  0  0  0  0  0  0  0  0  0  0  0
    3.9973   -4.0936    0.0000 C   0  0  0  0  0  0  0  0  0  0  0  0
    3.2262   -2.8465    0.0000 C   0  0  0  0  0  0  0  0  0  0  0  0
   -2.5683   -3.6425    0.0000 C   0  0  3  0  0  0  0  0  0  0  0  0
    3.9407   -2.4340    0.0000 C   0  0  0  0  0  0  0  0  0  0  0  0
   -2.5683   -2.8175    0.0000 C   0  0  0  0  0  0  0  0  0  0  0  0
   -3.2828   -4.8800    0.0000 C   0  0  0  0  0  0  0  0  0  0  0  0
   -3.9973   -2.8175    0.0000 C   0  0  0  0  0  0  0  0  0  0  0  0
  1  3  1  0  0  0  0
  1 20  1  0  0  0  0
  2  4  1  0  0  0  0
  2 22  1  0  0  0  0
  3 23  1  0  0  0  0
  4 27  1  0  0  0  0
  5 19  2  0  0  0  0
  6 19  1  0  0  0  0
  7 27  1  0  0  0  0
  7 30  1  0  0  0  0
  8 24  2  0  0  0  0
  9 24  1  0  0  0  0
 10 25  2  0  0  0  0
 11 25  1  0  0  0  0
 12 29  1  0  0  0  0
 12 31  1  0  0  0  0
 13 28  2  0  0  0  0
 14 28  1  0  0  0  0
 15 30  2  0  0  0  0
 16 31  2  0  0  0  0
 17 18  1  0  0  0  0
 17 20  1  0  0  0  0
 17 22  1  0  0  0  0
 18 19  1  0  0  0  0
 18 21  1  0  0  0  0
 21 24  1  0  0  0  0
 23 25  1  0  0  0  0
 23 26  1  0  0  0  0
 26 28  1  0  0  0  0
 27 29  1  0  0  0  0
A    1
H2
A    2
H2
M  END
> <PUBCHEM_COMPOUND_ID_TYPE>
0

> <PUBCHEM_TOTAL_CHARGE>
0

> <PUBCHEM_SUBSTANCE_ID>
310939477

> <PUBCHEM_SUBSTANCE_VERSION>
1

> <PUBCHEM_EXT_DATASOURCE_NAME>
4488

> <PUBCHEM_EXT_DATASOURCE_REGID>
SCHEMBL16117404

> <PUBCHEM_SUBSTANCE_COMMENT>
InChI=1S/C16H23NO14/c18-8-28-7-14(31-9-19)30-4-2-17(10(15(24)25)5-12(20)21)1-3-29-11(16(26)27)6-13(22)23/h8-11,14H,1-7H2,(H,20,21)(H,22,23)(H,24,25)(H,26,27)
InChIKey=ATNBJRUZKWNKDK-UHFFFAOYSA-N

> <PUBCHEM_SUBSTANCE_SYNONYM>
SCHEMBL16117404

> <PUBCHEM_XREF_EXT_ID>
SCHEMBL16117404

> <PUBCHEM_EXT_DATASOURCE_URL>
https://www.surechembl.org/

> <PUBCHEM_EXT_SUBSTANCE_URL>
https://www.surechembl.org/chemical/SCHEMBL16117404

> <PUBCHEM_COORDINATE_TYPE>
1
3

$$$$
