310948765
  -OEChem-07211613022D

 25 25  0     1  0  0  0  0  0999 V2000
    1.9614    1.1675    0.0000 P   0  0  0  0  0  0  0  0  0  0  0  0
    0.3736    1.4788    0.0000 O   0  0  0  0  0  0  0  0  0  0  0  0
    0.3736   -1.0430    0.0000 O   0  0  0  0  0  0  0  0  0  0  0  0
   -1.0896   -0.2024    0.0000 O   0  0  0  0  0  0  0  0  0  0  0  0
    1.8213   -0.2024    0.0000 O   0  0  0  0  0  0  0  0  0  0  0  0
    1.9614    1.1675    0.0000 O   0  0  0  0  0  0  0  0  0  0  0  0
   -1.8213    1.0585    0.0000 O   0  0  0  0  0  0  0  0  0  0  0  0
    1.1052   -2.2260    0.0000 O   0  0  0  0  0  0  0  0  0  0  0  0
   -1.7434   -1.4477    0.0000 O   0  0  0  0  0  0  0  0  0  0  0  0
    3.2378   -0.1712    0.0000 O   0  0  0  0  0  0  0  0  0  0  0  0
   -2.5373    2.2260    0.0000 O   0  0  0  0  0  0  0  0  0  0  0  0
    0.3736   -0.1868    0.0000 C   0  0  3  0  0  0  0  0  0  0  0  0
   -0.3580    0.2335    0.0000 C   0  0  3  0  0  0  0  0  0  0  0  0
    1.0741    0.2335    0.0000 C   0  0  3  0  0  0  0  0  0  0  0  0
   -0.3580    1.0585    0.0000 C   0  0  3  0  0  0  0  0  0  0  0  0
    1.0896    1.0585    0.0000 C   0  0  3  0  0  0  0  0  0  0  0  0
   -1.1052    1.4788    0.0000 C   0  0  0  0  0  0  0  0  0  0  0  0
    1.1052   -1.4632    0.0000 C   0  0  0  0  0  0  0  0  0  0  0  0
   -1.0896   -1.0585    0.0000 C   0  0  0  0  0  0  0  0  0  0  0  0
    2.5529    0.2180    0.0000 C   0  0  0  0  0  0  0  0  0  0  0  0
   -2.5529    1.4632    0.0000 C   0  0  0  0  0  0  0  0  0  0  0  0
    1.7902   -1.0430    0.0000 C   0  0  0  0  0  0  0  0  0  0  0  0
   -0.3736   -1.4632    0.0000 C   0  0  0  0  0  0  0  0  0  0  0  0
    2.5529    1.0430    0.0000 C   0  0  0  0  0  0  0  0  0  0  0  0
   -3.2378    1.0585    0.0000 C   0  0  0  0  0  0  0  0  0  0  0  0
  1  6  1  0  0  0  0
  2 15  1  0  0  0  0
  2 16  1  0  0  0  0
 12  3  1  1  0  0  0
  3 18  1  0  0  0  0
 13  4  1  6  0  0  0
  4 19  1  0  0  0  0
 14  5  1  1  0  0  0
  5 20  1  0  0  0  0
 16  6  1  6  0  0  0
  7 17  1  0  0  0  0
  7 21  1  0  0  0  0
  8 18  2  0  0  0  0
  9 19  2  0  0  0  0
 10 20  2  0  0  0  0
 11 21  2  0  0  0  0
 12 13  1  0  0  0  0
 12 14  1  0  0  0  0
 13 15  1  0  0  0  0
 14 16  1  0  0  0  0
 15 17  1  1  0  0  0
 18 22  1  0  0  0  0
 19 23  1  0  0  0  0
 20 24  1  0  0  0  0
 21 25  1  0  0  0  0
M  END
> <PUBCHEM_COMPOUND_ID_TYPE>
0

> <PUBCHEM_TOTAL_CHARGE>
0

> <PUBCHEM_SUBSTANCE_ID>
310948765

> <PUBCHEM_SUBSTANCE_VERSION>
1

> <PUBCHEM_EXT_DATASOURCE_NAME>
4488

> <PUBCHEM_EXT_DATASOURCE_REGID>
SCHEMBL16126949

> <PUBCHEM_SUBSTANCE_COMMENT>
InChI=1S/C14H21O10P/c1-6(15)19-5-10-11(20-7(2)16)12(21-8(3)17)13(22-9(4)18)14(23-10)24-25/h10-14H,5,25H2,1-4H3/t10-,11-,12+,13+,14-/m1/s1
InChIKey=NRIGENYQTAKDOX-PEBLQZBPSA-N

> <PUBCHEM_SUBSTANCE_SYNONYM>
SCHEMBL16126949

> <PUBCHEM_XREF_EXT_ID>
SCHEMBL16126949

> <PUBCHEM_EXT_DATASOURCE_URL>
https://www.surechembl.org/

> <PUBCHEM_EXT_SUBSTANCE_URL>
https://www.surechembl.org/chemical/SCHEMBL16126949

> <PUBCHEM_CID_ASSOCIATIONS>
117614307  1

> <PUBCHEM_COORDINATE_TYPE>
1
3

> <PUBCHEM_BONDANNOTATIONS>
15  17  5
12  3  5
13  4  6
14  5  5
16  6  6

$$$$
