310930565
  -OEChem-07211613022D

 31 29  0     0  0  0  0  0  0999 V2000
    0.7820   -0.4750    0.0000 P   0  3  0  0  0  0  0  0  0  0  0  0
    9.4442    0.4287    0.0000 O   0  0  0  0  0  0  0  0  0  0  0  0
    8.2067   -0.2858    0.0000 O   0  5  0  0  0  0  0  0  0  0  0  0
    9.4442   -1.0003    0.0000 O   0  0  0  0  0  0  0  0  0  0  0  0
    0.3695    0.2394    0.0000 C   0  0  0  0  0  0  0  0  0  0  0  0
   -0.0430    0.9539    0.0000 C   0  0  0  0  0  0  0  0  0  0  0  0
   -0.3450   -0.1731    0.0000 C   0  0  0  0  0  0  0  0  0  0  0  0
    1.0839    0.6519    0.0000 C   0  0  0  0  0  0  0  0  0  0  0  0
   -0.8680    0.9539    0.0000 C   0  0  0  0  0  0  0  0  0  0  0  0
   -0.3450   -0.9981    0.0000 C   0  0  0  0  0  0  0  0  0  0  0  0
    1.7984    0.2394    0.0000 C   0  0  0  0  0  0  0  0  0  0  0  0
   -1.2805    1.6684    0.0000 C   0  0  0  0  0  0  0  0  0  0  0  0
   -1.0595   -1.4106    0.0000 C   0  0  0  0  0  0  0  0  0  0  0  0
    2.5129    0.6519    0.0000 C   0  0  0  0  0  0  0  0  0  0  0  0
   -2.1055    1.6684    0.0000 C   0  0  0  0  0  0  0  0  0  0  0  0
   -1.0595   -2.2356    0.0000 C   0  0  0  0  0  0  0  0  0  0  0  0
    3.2273    0.2394    0.0000 C   0  0  0  0  0  0  0  0  0  0  0  0
   -2.5180    2.3828    0.0000 C   0  0  0  0  0  0  0  0  0  0  0  0
   -1.7740   -2.6481    0.0000 C   0  0  0  0  0  0  0  0  0  0  0  0
    3.9418    0.6519    0.0000 C   0  0  0  0  0  0  0  0  0  0  0  0
   -3.3430    2.3828    0.0000 C   0  0  0  0  0  0  0  0  0  0  0  0
   -1.7740   -3.4731    0.0000 C   0  0  0  0  0  0  0  0  0  0  0  0
    4.6563    0.2394    0.0000 C   0  0  0  0  0  0  0  0  0  0  0  0
   -3.7555    3.0973    0.0000 C   0  0  0  0  0  0  0  0  0  0  0  0
   -2.4884   -3.8856    0.0000 C   0  0  0  0  0  0  0  0  0  0  0  0
    5.3708    0.6519    0.0000 C   0  0  0  0  0  0  0  0  0  0  0  0
   -4.5805    3.0973    0.0000 C   0  0  0  0  0  0  0  0  0  0  0  0
   -2.4884   -4.7106    0.0000 C   0  0  0  0  0  0  0  0  0  0  0  0
    6.0852    0.2394    0.0000 C   0  0  0  0  0  0  0  0  0  0  0  0
    9.0317   -0.2858    0.0000 C   0  0  0  0  0  0  0  0  0  0  0  0
    9.0317    1.1432    0.0000 C   0  0  0  0  0  0  0  0  0  0  0  0
  1  5  1  0  0  0  0
  2 30  1  0  0  0  0
  2 31  1  0  0  0  0
  3 30  1  0  0  0  0
  4 30  2  0  0  0  0
  5  6  1  0  0  0  0
  5  7  1  0  0  0  0
  5  8  1  0  0  0  0
  6  9  1  0  0  0  0
  7 10  1  0  0  0  0
  8 11  1  0  0  0  0
  9 12  1  0  0  0  0
 10 13  1  0  0  0  0
 11 14  1  0  0  0  0
 12 15  1  0  0  0  0
 13 16  1  0  0  0  0
 14 17  1  0  0  0  0
 15 18  1  0  0  0  0
 16 19  1  0  0  0  0
 17 20  1  0  0  0  0
 18 21  1  0  0  0  0
 19 22  1  0  0  0  0
 20 23  1  0  0  0  0
 21 24  1  0  0  0  0
 22 25  1  0  0  0  0
 23 26  1  0  0  0  0
 24 27  1  0  0  0  0
 25 28  1  0  0  0  0
 26 29  1  0  0  0  0
M  CHG  2   1   1   3  -1
M  END
> <PUBCHEM_COMPOUND_ID_TYPE>
0

> <PUBCHEM_TOTAL_CHARGE>
0

> <PUBCHEM_SUBSTANCE_ID>
310930565

> <PUBCHEM_SUBSTANCE_VERSION>
1

> <PUBCHEM_EXT_DATASOURCE_NAME>
4488

> <PUBCHEM_EXT_DATASOURCE_REGID>
SCHEMBL16107860

> <PUBCHEM_SUBSTANCE_COMMENT>
InChI=1S/C25H53P.C2H4O3/c1-4-7-10-13-16-19-22-25(26,23-20-17-14-11-8-5-2)24-21-18-15-12-9-6-3;1-5-2(3)4/h4-24,26H2,1-3H3;1H3,(H,3,4)
InChIKey=RKWBUGIAOFICEH-UHFFFAOYSA-N

> <PUBCHEM_SUBSTANCE_SYNONYM>
SCHEMBL16107860

> <PUBCHEM_XREF_EXT_ID>
SCHEMBL16107860

> <PUBCHEM_EXT_DATASOURCE_URL>
https://www.surechembl.org/

> <PUBCHEM_EXT_SUBSTANCE_URL>
https://www.surechembl.org/chemical/SCHEMBL16107860

> <PUBCHEM_CID_ASSOCIATIONS>
117599653  1
78579  2
18617878  2

> <PUBCHEM_COORDINATE_TYPE>
1
3

$$$$
