310948590
  -OEChem-07211613022D

 45 46  0     1  0  0  0  0  0999 V2000
    0.7206    2.3600    0.0000 P   0  0  0  0  0  0  0  0  0  0  0  0
    0.7206    0.7026    0.0000 O   0  0  0  0  0  0  0  0  0  0  0  0
    0.6125   -0.7926    0.0000 O   0  0  0  0  0  0  0  0  0  0  0  0
   -0.7386    2.3600    0.0000 O   0  0  0  0  0  0  0  0  0  0  0  0
    2.2699    0.6665    0.0000 O   0  0  0  0  0  0  0  0  0  0  0  0
   -0.7386   -0.1261    0.0000 O   0  0  0  0  0  0  0  0  0  0  0  0
    3.1166   -0.7747    0.0000 O   0  0  0  0  0  0  0  0  0  0  0  0
    2.2879   -2.2158    0.0000 O   0  0  0  0  0  0  0  0  0  0  0  0
   -2.1798    0.7026    0.0000 O   0  0  0  0  0  0  0  0  0  0  0  0
    0.7206    2.3600    0.0000 O   0  0  0  0  0  0  0  0  0  0  0  0
    1.0449   -2.9544    0.0000 O   0  0  0  0  0  0  0  0  0  0  0  0
   -2.1798    3.2067    0.0000 O   0  0  0  0  0  0  0  0  0  0  0  0
    3.4949    0.0000    0.0000 O   0  0  0  0  0  0  0  0  0  0  0  0
   -2.1258   -0.1622    0.0000 O   0  0  0  0  0  0  0  0  0  0  0  0
    3.1166   -0.7747    0.0000 O   0  0  0  0  0  0  0  0  0  0  0  0
    3.5490   -2.8104    0.0000 O   0  0  0  0  0  0  0  0  0  0  0  0
   -2.9184    1.8735    0.0000 O   0  0  0  0  0  0  0  0  0  0  0  0
   -0.0721   -3.7831    0.0000 O   0  0  0  0  0  0  0  0  0  0  0  0
   -2.9365    4.3597    0.0000 O   0  0  0  0  0  0  0  0  0  0  0  0
    3.1166   -0.7747    0.0000 N   0  0  0  0  0  0  0  0  0  0  0  0
   -0.0360    1.1349    0.0000 C   0  0  3  0  0  0  0  0  0  0  0  0
    1.0088   -0.0721    0.0000 C   0  0  3  0  0  0  0  0  0  0  0  0
    1.8375   -0.0540    0.0000 C   0  0  3  0  0  0  0  0  0  0  0  0
   -0.7206    0.7206    0.0000 C   0  0  3  0  0  0  0  0  0  0  0  0
    2.2699   -0.7566    0.0000 C   0  0  3  0  0  0  0  0  0  0  0  0
    1.8556   -1.4772    0.0000 C   0  0  3  0  0  0  0  0  0  0  0  0
   -1.4592    1.1349    0.0000 C   0  0  3  0  0  0  0  0  0  0  0  0
   -0.0180    1.9636    0.0000 C   0  0  3  0  0  0  0  0  0  0  0  0
    1.0088   -1.4953    0.0000 C   0  0  3  0  0  0  0  0  0  0  0  0
   -1.4412    1.9636    0.0000 C   0  0  3  0  0  0  0  0  0  0  0  0
    0.6125   -2.2339    0.0000 C   0  0  0  0  0  0  0  0  0  0  0  0
   -2.1618    2.3600    0.0000 C   0  0  0  0  0  0  0  0  0  0  0  0
    3.1346    0.6485    0.0000 C   0  0  0  0  0  0  0  0  0  0  0  0
   -1.4592   -0.5404    0.0000 C   0  0  0  0  0  0  0  0  0  0  0  0
    3.1166   -0.7747    0.0000 C   0  0  0  0  0  0  0  0  0  0  0  0
    3.1346   -2.1979    0.0000 C   0  0  0  0  0  0  0  0  0  0  0  0
   -2.9004    1.1170    0.0000 C   0  0  0  0  0  0  0  0  0  0  0  0
    0.6846   -3.7291    0.0000 C   0  0  0  0  0  0  0  0  0  0  0  0
    3.4949    1.3331    0.0000 C   0  0  0  0  0  0  0  0  0  0  0  0
   -1.4412   -1.3331    0.0000 C   0  0  0  0  0  0  0  0  0  0  0  0
   -2.9184    3.6030    0.0000 C   0  0  0  0  0  0  0  0  0  0  0  0
    3.4589   -1.4772    0.0000 C   0  0  0  0  0  0  0  0  0  0  0  0
   -3.5490    0.6846    0.0000 C   0  0  0  0  0  0  0  0  0  0  0  0
    1.1530   -4.3597    0.0000 C   0  0  0  0  0  0  0  0  0  0  0  0
   -3.5490    3.1526    0.0000 C   0  0  0  0  0  0  0  0  0  0  0  0
  1 10  1  0  0  0  0
 21  2  1  1  0  0  0
 22  2  1  6  0  0  0
  3 22  1  0  0  0  0
  3 29  1  0  0  0  0
  4 28  1  0  0  0  0
  4 30  1  0  0  0  0
 23  5  1  1  0  0  0
  5 33  1  0  0  0  0
 24  6  1  1  0  0  0
  6 34  1  0  0  0  0
 25  7  1  1  0  0  0
  7 35  1  0  0  0  0
 26  8  1  6  0  0  0
  8 36  1  0  0  0  0
 27  9  1  6  0  0  0
  9 37  1  0  0  0  0
 28 10  1  6  0  0  0
 11 31  1  0  0  0  0
 11 38  1  0  0  0  0
 12 32  1  0  0  0  0
 12 41  1  0  0  0  0
 13 33  2  0  0  0  0
 14 34  2  0  0  0  0
 15 35  2  0  0  0  0
 16 36  2  0  0  0  0
 17 37  2  0  0  0  0
 18 38  2  0  0  0  0
 19 41  2  0  0  0  0
 20 35  1  0  0  0  0
 21 24  1  0  0  0  0
 21 28  1  0  0  0  0
 22 23  1  0  0  0  0
 23 25  1  0  0  0  0
 24 27  1  0  0  0  0
 25 26  1  0  0  0  0
 26 29  1  0  0  0  0
 27 30  1  0  0  0  0
 29 31  1  1  0  0  0
 30 32  1  6  0  0  0
 33 39  1  0  0  0  0
 34 40  1  0  0  0  0
 36 42  1  0  0  0  0
 37 43  1  0  0  0  0
 38 44  1  0  0  0  0
 41 45  1  0  0  0  0
M  END
> <PUBCHEM_COMPOUND_ID_TYPE>
0

> <PUBCHEM_TOTAL_CHARGE>
0

> <PUBCHEM_SUBSTANCE_ID>
310948590

> <PUBCHEM_SUBSTANCE_VERSION>
1

> <PUBCHEM_EXT_DATASOURCE_NAME>
4488

> <PUBCHEM_EXT_DATASOURCE_REGID>
SCHEMBL16126773

> <PUBCHEM_SUBSTANCE_COMMENT>
InChI=1S/C25H36NO18P/c1-9(27)34-7-15-18(37-12(4)30)20(43-25(26)33)21(39-14(6)32)23(40-15)42-22-19(38-13(5)31)17(36-11(3)29)16(8-35-10(2)28)41-24(22)44-45/h15-24H,7-8,45H2,1-6H3,(H2,26,33)/t15-,16+,17-,18-,19+,20+,21+,22+,23-,24-/m1/s1
InChIKey=IIVNVLUJKYSDFG-WWVXCQBDSA-N

> <PUBCHEM_SUBSTANCE_SYNONYM>
SCHEMBL16126773

> <PUBCHEM_XREF_EXT_ID>
SCHEMBL16126773

> <PUBCHEM_EXT_DATASOURCE_URL>
https://www.surechembl.org/

> <PUBCHEM_EXT_SUBSTANCE_URL>
https://www.surechembl.org/chemical/SCHEMBL16126773

> <PUBCHEM_CID_ASSOCIATIONS>
117614139  1

> <PUBCHEM_COORDINATE_TYPE>
1
3

> <PUBCHEM_BONDANNOTATIONS>
28  10  6
21  2  5
22  2  6
29  31  5
30  32  6
23  5  5
24  6  5
25  7  5
26  8  6
27  9  6

$$$$
