310938726
  -OEChem-07211613022D

173186  0     1  0  0  0  0  0999 V2000
    4.7496  -10.0835    0.0000 S   0  0  0  0  0  0  0  0  0  0  0  0
   -6.5501   -9.1770    0.0000 S   0  0  0  0  0  0  0  0  0  0  0  0
    6.2855  -15.2532    0.0000 S   0  0  0  0  0  0  0  0  0  0  0  0
   -8.4157   -5.6085    0.0000 S   0  0  0  0  0  0  0  0  0  0  0  0
    7.5073  -18.9929    0.0000 O   0  0  0  0  0  0  0  0  0  0  0  0
   -9.7028   -2.2811    0.0000 O   0  0  0  0  0  0  0  0  0  0  0  0
   -4.8308  -11.1094    0.0000 O   0  0  0  0  0  0  0  0  0  0  0  0
    3.6478   -8.9750    0.0000 O   0  0  0  0  0  0  0  0  0  0  0  0
    1.8946  -11.7878    0.0000 O   0  0  0  0  0  0  0  0  0  0  0  0
   -5.2284   -6.8498    0.0000 O   0  0  0  0  0  0  0  0  0  0  0  0
   -1.9052  -13.0960    0.0000 O   0  0  0  0  0  0  0  0  0  0  0  0
    2.1670   -6.3275    0.0000 O   0  0  0  0  0  0  0  0  0  0  0  0
   -1.4104   -5.3582    0.0000 O   0  0  0  0  0  0  0  0  0  0  0  0
    3.7206  -11.2506    0.0000 O   0  0  0  0  0  0  0  0  0  0  0  0
   -5.5994   -8.4539    0.0000 O   0  0  0  0  0  0  0  0  0  0  0  0
   -4.2221  -12.5599    0.0000 O   0  0  0  0  0  0  0  0  0  0  0  0
   -0.3446  -13.2304    0.0000 O   0  0  0  0  0  0  0  0  0  0  0  0
    4.4646   -7.5283    0.0000 O   0  0  0  0  0  0  0  0  0  0  0  0
   -3.5946   -4.8449    0.0000 O   0  0  0  0  0  0  0  0  0  0  0  0
    1.5720   -4.7485    0.0000 O   0  0  0  0  0  0  0  0  0  0  0  0
    9.6981  -16.9030    0.0000 O   0  0  0  0  0  0  0  0  0  0  0  0
  -11.8937   -4.3710    0.0000 O   0  0  0  0  0  0  0  0  0  0  0  0
    1.9132  -10.1517    0.0000 O   0  0  0  0  0  0  0  0  0  0  0  0
   -3.6217   -9.3883    0.0000 O   0  0  0  0  0  0  0  0  0  0  0  0
    0.3117  -11.0706    0.0000 O   0  0  0  0  0  0  0  0  0  0  0  0
   -2.1953  -11.6472    0.0000 O   0  0  0  0  0  0  0  0  0  0  0  0
    2.2995  -11.1720    0.0000 O   0  0  0  0  0  0  0  0  0  0  0  0
   -4.3947   -8.0108    0.0000 O   0  0  0  0  0  0  0  0  0  0  0  0
    2.2198   -7.4021    0.0000 O   0  0  0  0  0  0  0  0  0  0  0  0
   -3.6198   -7.1624    0.0000 O   0  0  0  0  0  0  0  0  0  0  0  0
   -3.4467  -11.3533    0.0000 O   0  0  0  0  0  0  0  0  0  0  0  0
   -0.7191  -11.8164    0.0000 O   0  0  0  0  0  0  0  0  0  0  0  0
   -0.1983   -6.2352    0.0000 O   0  0  0  0  0  0  0  0  0  0  0  0
    3.1955   -8.2305    0.0000 O   0  0  0  0  0  0  0  0  0  0  0  0
   -2.6087   -5.9041    0.0000 O   0  0  0  0  0  0  0  0  0  0  0  0
    1.0002   -6.1559    0.0000 O   0  0  0  0  0  0  0  0  0  0  0  0
   11.1270  -16.9030    0.0000 O   0  0  0  0  0  0  0  0  0  0  0  0
  -13.3225   -4.3710    0.0000 O   0  0  0  0  0  0  0  0  0  0  0  0
    1.3139  -13.6586    0.0000 O   0  0  0  0  0  0  0  0  0  0  0  0
   -3.8538  -14.0470    0.0000 O   0  0  0  0  0  0  0  0  0  0  0  0
    4.8703   -6.2512    0.0000 O   0  0  0  0  0  0  0  0  0  0  0  0
   -4.4970   -4.8053    0.0000 O   0  0  0  0  0  0  0  0  0  0  0  0
    0.6073   -3.5588    0.0000 O   0  0  0  0  0  0  0  0  0  0  0  0
   11.1270  -21.8526    0.0000 O   0  0  0  0  0  0  0  0  0  0  0  0
  -13.3225    0.5786    0.0000 O   0  0  0  0  0  0  0  0  0  0  0  0
   11.8414  -18.1404    0.0000 O   0  0  0  0  0  0  0  0  0  0  0  0
  -14.0369   -3.1336    0.0000 O   0  0  0  0  0  0  0  0  0  0  0  0
   12.5558  -19.3778    0.0000 O   0  0  0  0  0  0  0  0  0  0  0  0
  -14.7513   -1.8962    0.0000 O   0  0  0  0  0  0  0  0  0  0  0  0
    5.4640  -11.3208    0.0000 O   0  0  0  0  0  0  0  0  0  0  0  0
   -7.2645   -7.9396    0.0000 O   0  0  0  0  0  0  0  0  0  0  0  0
    7.6073  -10.9083    0.0000 O   0  0  0  0  0  0  0  0  0  0  0  0
    9.7504   -9.6710    0.0000 O   0  0  0  0  0  0  0  0  0  0  0  0
   11.8937  -10.0835    0.0000 O   0  0  0  0  0  0  0  0  0  0  0  0
   14.0369   -8.8460    0.0000 O   0  0  0  0  0  0  0  0  0  0  0  0
    7.5549  -14.8407    0.0000 N   0  0  0  0  0  0  0  0  0  0  0  0
   -9.4955   -6.3930    0.0000 N   0  0  0  0  0  0  0  0  0  0  0  0
    7.0461  -11.4716    0.0000 N   0  0  0  0  0  0  0  0  0  0  0  0
   -8.6933   -7.9396    0.0000 N   0  0  0  0  0  0  0  0  0  0  0  0
   -8.6933   -9.5895    0.0000 N   0  0  0  0  0  0  0  0  0  0  0  0
    8.2693  -19.3778    0.0000 C   0  0  3  0  0  0  0  0  0  0  0  0
  -10.4649   -1.8962    0.0000 C   0  0  3  0  0  0  0  0  0  0  0  0
    8.2693  -18.5529    0.0000 C   0  0  3  0  0  0  0  0  0  0  0  0
  -10.4649   -2.7211    0.0000 C   0  0  3  0  0  0  0  0  0  0  0  0
    8.9837  -18.1404    0.0000 C   0  0  0  0  0  0  0  0  0  0  0  0
  -11.1792   -3.1336    0.0000 C   0  0  0  0  0  0  0  0  0  0  0  0
    8.9837  -19.7903    0.0000 C   0  0  0  0  0  0  0  0  0  0  0  0
  -11.1792   -1.4837    0.0000 C   0  0  0  0  0  0  0  0  0  0  0  0
    7.8568  -20.0922    0.0000 C   0  0  0  0  0  0  0  0  0  0  0  0
  -10.0524   -1.1818    0.0000 C   0  0  0  0  0  0  0  0  0  0  0  0
    8.9837  -17.3154    0.0000 C   0  0  3  0  0  0  0  0  0  0  0  0
  -11.1792   -3.9586    0.0000 C   0  0  3  0  0  0  0  0  0  0  0  0
    3.4556   -9.5955    0.0000 C   0  0  3  0  0  0  0  0  0  0  0  0
   -5.0649  -10.0388    0.0000 C   0  0  3  0  0  0  0  0  0  0  0  0
    1.0792  -12.3487    0.0000 C   0  0  3  0  0  0  0  0  0  0  0  0
   -2.6454  -13.1148    0.0000 C   0  0  3  0  0  0  0  0  0  0  0  0
   -4.4907   -6.2615    0.0000 C   0  0  3  0  0  0  0  0  0  0  0  0
    3.2899   -6.3406    0.0000 C   0  0  3  0  0  0  0  0  0  0  0  0
   -0.0921   -4.9168    0.0000 C   0  0  3  0  0  0  0  0  0  0  0  0
    3.0520  -11.7964    0.0000 C   0  0  3  0  0  0  0  0  0  0  0  0
   -5.0271   -7.8036    0.0000 C   0  0  3  0  0  0  0  0  0  0  0  0
   -4.3844  -11.7089    0.0000 C   0  0  3  0  0  0  0  0  0  0  0  0
    4.2393   -8.3612    0.0000 C   0  0  3  0  0  0  0  0  0  0  0  0
   -1.1084  -12.8183    0.0000 C   0  0  3  0  0  0  0  0  0  0  0  0
   -2.7314   -4.8800    0.0000 C   0  0  3  0  0  0  0  0  0  0  0  0
    2.0788   -5.4541    0.0000 C   0  0  3  0  0  0  0  0  0  0  0  0
    2.7799  -10.1441    0.0000 C   0  0  3  0  0  0  0  0  0  0  0  0
   -4.4886   -9.3883    0.0000 C   0  0  3  0  0  0  0  0  0  0  0  0
    0.3117  -11.9374    0.0000 C   0  0  3  0  0  0  0  0  0  0  0  0
   -2.8082  -12.2602    0.0000 C   0  0  3  0  0  0  0  0  0  0  0  0
    3.1349  -10.9403    0.0000 C   0  0  3  0  0  0  0  0  0  0  0  0
   -4.9672   -8.6609    0.0000 C   0  0  3  0  0  0  0  0  0  0  0  0
    3.3695  -10.4532    0.0000 C   0  0  3  0  0  0  0  0  0  0  0  0
    3.0572   -7.1777    0.0000 C   0  0  3  0  0  0  0  0  0  0  0  0
   -5.1213   -9.1770    0.0000 C   0  0  3  0  0  0  0  0  0  0  0  0
   -3.6198   -6.2955    0.0000 C   0  0  3  0  0  0  0  0  0  0  0  0
   -3.6710  -12.1907    0.0000 C   0  0  3  0  0  0  0  0  0  0  0  0
   -0.2857  -12.5671    0.0000 C   0  0  3  0  0  0  0  0  0  0  0  0
    0.4146   -5.6223    0.0000 C   0  0  3  0  0  0  0  0  0  0  0  0
    3.8085   -7.6175    0.0000 C   0  0  3  0  0  0  0  0  0  0  0  0
   -3.3595   -5.4706    0.0000 C   0  0  3  0  0  0  0  0  0  0  0  0
    1.2246   -5.3186    0.0000 C   0  0  3  0  0  0  0  0  0  0  0  0
    0.2521  -12.5968    0.0000 C   0  0  3  0  0  0  0  0  0  0  0  0
   -3.3555  -12.6290    0.0000 C   0  0  3  0  0  0  0  0  0  0  0  0
    3.7164   -7.0842    0.0000 C   0  0  3  0  0  0  0  0  0  0  0  0
   -3.8548   -5.6735    0.0000 C   0  0  3  0  0  0  0  0  0  0  0  0
    8.9837  -20.6151    0.0000 C   0  0  0  0  0  0  0  0  0  0  0  0
  -11.1792   -0.6589    0.0000 C   0  0  0  0  0  0  0  0  0  0  0  0
    0.7582   -5.0527    0.0000 C   0  0  3  0  0  0  0  0  0  0  0  0
    8.2693  -16.9030    0.0000 C   0  0  0  0  0  0  0  0  0  0  0  0
  -10.4649   -4.3710    0.0000 C   0  0  0  0  0  0  0  0  0  0  0  0
    9.6981  -21.0276    0.0000 C   0  0  0  0  0  0  0  0  0  0  0  0
  -11.8937   -0.2464    0.0000 C   0  0  0  0  0  0  0  0  0  0  0  0
    3.9527   -9.8699    0.0000 C   0  0  0  0  0  0  0  0  0  0  0  0
   10.4126  -17.3154    0.0000 C   0  0  0  0  0  0  0  0  0  0  0  0
  -12.6080   -3.9586    0.0000 C   0  0  0  0  0  0  0  0  0  0  0  0
   -5.8357   -9.5895    0.0000 C   0  0  0  0  0  0  0  0  0  0  0  0
    8.2693  -16.0780    0.0000 C   0  0  0  0  0  0  0  0  0  0  0  0
  -10.4649   -5.1960    0.0000 C   0  0  0  0  0  0  0  0  0  0  0  0
    1.0895  -12.8212    0.0000 C   0  0  0  0  0  0  0  0  0  0  0  0
   -3.1968  -13.4800    0.0000 C   0  0  0  0  0  0  0  0  0  0  0  0
    3.9455   -6.2512    0.0000 C   0  0  0  0  0  0  0  0  0  0  0  0
   -4.7214   -5.6427    0.0000 C   0  0  0  0  0  0  0  0  0  0  0  0
    0.2518   -4.3511    0.0000 C   0  0  0  0  0  0  0  0  0  0  0  0
   10.4126  -20.6151    0.0000 C   0  0  3  0  0  0  0  0  0  0  0  0
  -12.6080   -0.6589    0.0000 C   0  0  3  0  0  0  0  0  0  0  0  0
   11.1270  -19.3778    0.0000 C   0  0  0  0  0  0  0  0  0  0  0  0
  -13.3225   -1.8962    0.0000 C   0  0  0  0  0  0  0  0  0  0  0  0
    7.5549  -15.6655    0.0000 C   0  0  0  0  0  0  0  0  0  0  0  0
   -9.7504   -5.6085    0.0000 C   0  0  0  0  0  0  0  0  0  0  0  0
    7.5549  -17.3154    0.0000 C   0  0  0  0  0  0  0  0  0  0  0  0
   -9.7504   -3.9586    0.0000 C   0  0  0  0  0  0  0  0  0  0  0  0
   11.1270  -21.0276    0.0000 C   0  0  3  0  0  0  0  0  0  0  0  0
  -13.3225   -0.2464    0.0000 C   0  0  3  0  0  0  0  0  0  0  0  0
   11.1270  -18.5529    0.0000 C   0  0  3  0  0  0  0  0  0  0  0  0
  -13.3225   -2.7211    0.0000 C   0  0  3  0  0  0  0  0  0  0  0  0
   10.4126  -18.1404    0.0000 C   0  0  0  0  0  0  0  0  0  0  0  0
  -12.6080   -3.1336    0.0000 C   0  0  0  0  0  0  0  0  0  0  0  0
   11.8414  -19.7903    0.0000 C   0  0  0  0  0  0  0  0  0  0  0  0
  -14.0369   -1.4837    0.0000 C   0  0  0  0  0  0  0  0  0  0  0  0
   11.8414  -20.6151    0.0000 C   0  0  3  0  0  0  0  0  0  0  0  0
  -14.0369   -0.6589    0.0000 C   0  0  3  0  0  0  0  0  0  0  0  0
    6.7704  -15.9204    0.0000 C   0  0  0  0  0  0  0  0  0  0  0  0
   -9.0830   -5.1236    0.0000 C   0  0  0  0  0  0  0  0  0  0  0  0
    6.7704  -14.5858    0.0000 C   0  0  0  0  0  0  0  0  0  0  0  0
   -8.6706   -6.3930    0.0000 C   0  0  0  0  0  0  0  0  0  0  0  0
   10.4126  -19.7903    0.0000 C   0  0  0  0  0  0  0  0  0  0  0  0
  -12.6080   -1.4837    0.0000 C   0  0  0  0  0  0  0  0  0  0  0  0
    5.4640   -9.6710    0.0000 C   0  0  0  0  0  0  0  0  0  0  0  0
   -7.2645   -9.5895    0.0000 C   0  0  0  0  0  0  0  0  0  0  0  0
   10.3021  -19.3778    0.0000 C   0  0  0  0  0  0  0  0  0  0  0  0
   10.7145  -20.0922    0.0000 C   0  0  0  0  0  0  0  0  0  0  0  0
  -12.4975   -1.8962    0.0000 C   0  0  0  0  0  0  0  0  0  0  0  0
  -12.9100   -1.1818    0.0000 C   0  0  0  0  0  0  0  0  0  0  0  0
    6.1784  -10.0835    0.0000 C   0  0  0  0  0  0  0  0  0  0  0  0
   12.5558  -21.0276    0.0000 C   0  0  0  0  0  0  0  0  0  0  0  0
  -14.7513   -0.2464    0.0000 C   0  0  0  0  0  0  0  0  0  0  0  0
   -7.9790   -9.1770    0.0000 C   0  0  3  0  0  0  0  0  0  0  0  0
    6.3040  -12.9050    0.0000 C   0  0  0  0  0  0  0  0  0  0  0  0
   -8.1857   -7.0604    0.0000 C   0  0  0  0  0  0  0  0  0  0  0  0
    6.1784  -10.9083    0.0000 C   0  0  0  0  0  0  0  0  0  0  0  0
   -7.9790   -8.3521    0.0000 C   0  0  0  0  0  0  0  0  0  0  0  0
    7.6073  -10.0835    0.0000 C   0  0  0  0  0  0  0  0  0  0  0  0
   -9.4078   -9.1770    0.0000 C   0  0  0  0  0  0  0  0  0  0  0  0
    8.3216   -9.6710    0.0000 C   0  0  0  0  0  0  0  0  0  0  0  0
    9.0361  -10.0835    0.0000 C   0  0  0  0  0  0  0  0  0  0  0  0
   10.4649  -10.0835    0.0000 C   0  0  0  0  0  0  0  0  0  0  0  0
   11.1792   -9.6710    0.0000 C   0  0  0  0  0  0  0  0  0  0  0  0
   12.6080   -9.6710    0.0000 C   0  0  0  0  0  0  0  0  0  0  0  0
   13.3225  -10.0835    0.0000 C   0  0  0  0  0  0  0  0  0  0  0  0
   14.0369   -9.6710    0.0000 C   0  0  0  0  0  0  0  0  0  0  0  0
   14.7513  -10.0835    0.0000 C   0  0  0  0  0  0  0  0  0  0  0  0
    6.8928   -9.6710    0.0000 H   0  0  0  0  0  0  0  0  0  0  0  0
  1114  1  0  0  0  0
  1149  1  0  0  0  0
  2117  1  0  0  0  0
  2150  1  0  0  0  0
  3143  1  0  0  0  0
  3145  1  0  0  0  0
  4144  1  0  0  0  0
  4146  1  0  0  0  0
  5 61  1  0  0  0  0
  5 63  1  0  0  0  0
  6 62  1  0  0  0  0
  6 64  1  0  0  0  0
 74  7  1  6  0  0  0
  7 82  1  0  0  0  0
 73  8  1  1  0  0  0
  8 83  1  0  0  0  0
 75  9  1  6  0  0  0
  9 80  1  0  0  0  0
 77 10  1  1  0  0  0
 10 81  1  0  0  0  0
 76 11  1  6  0  0  0
 11 84  1  0  0  0  0
 78 12  1  6  0  0  0
 12 86  1  0  0  0  0
 79 13  1  6  0  0  0
 85 13  1  6  0  0  0
 80 14  1  6  0  0  0
 14 93  1  0  0  0  0
 81 15  1  6  0  0  0
 15 95  1  0  0  0  0
 82 16  1  1  0  0  0
 16104  1  0  0  0  0
 84 17  1  6  0  0  0
 17103  1  0  0  0  0
 83 18  1  6  0  0  0
 18105  1  0  0  0  0
 19 85  1  0  0  0  0
 19106  1  0  0  0  0
 86 20  1  6  0  0  0
 20109  1  0  0  0  0
 21 71  1  0  0  0  0
 21115  1  0  0  0  0
 22 72  1  0  0  0  0
 22116  1  0  0  0  0
 87 23  1  1  0  0  0
 88 24  1  1  0  0  0
 89 25  1  1  0  0  0
 90 26  1  1  0  0  0
 27 91  1  0  0  0  0
 28 92  1  0  0  0  0
 94 29  1  1  0  0  0
 96 30  1  1  0  0  0
 31 97  1  0  0  0  0
 32 98  1  0  0  0  0
 99 33  1  1  0  0  0
 34100  1  0  0  0  0
 35101  1  0  0  0  0
 36102  1  0  0  0  0
 37115  2  0  0  0  0
 38116  2  0  0  0  0
 39120  1  0  0  0  0
 40121  1  0  0  0  0
 41122  1  0  0  0  0
 42123  1  0  0  0  0
 43124  1  0  0  0  0
133 44  1  6  0  0  0
134 45  1  6  0  0  0
135 46  1  1  0  0  0
136 47  1  1  0  0  0
 48139  2  0  0  0  0
 49140  2  0  0  0  0
 50161  2  0  0  0  0
 51162  2  0  0  0  0
 52163  2  0  0  0  0
 53166  1  0  0  0  0
 53167  1  0  0  0  0
 54168  1  0  0  0  0
 54169  1  0  0  0  0
 55171  2  0  0  0  0
 56129  1  0  0  0  0
 56145  2  0  0  0  0
 57130  1  0  0  0  0
 57146  2  0  0  0  0
 58159  1  0  0  0  0
 58161  1  0  0  0  0
 59160  1  0  0  0  0
 59162  1  0  0  0  0
158 60  1  1  0  0  0
 60164  1  0  0  0  0
 61 63  1  0  0  0  0
 61 67  1  0  0  0  0
 61 69  1  1  0  0  0
 62 64  1  0  0  0  0
 62 68  1  0  0  0  0
 62 70  1  1  0  0  0
 63 65  1  6  0  0  0
 64 66  1  6  0  0  0
 65 71  1  0  0  0  0
 66 72  1  0  0  0  0
 67107  1  0  0  0  0
 68108  1  0  0  0  0
 71110  1  0  0  0  0
 72111  1  0  0  0  0
 73 87  1  0  0  0  0
 73 93  1  0  0  0  0
 74 88  1  0  0  0  0
 74 95  1  0  0  0  0
 75 89  1  0  0  0  0
 75103  1  0  0  0  0
 76 90  1  0  0  0  0
 76104  1  0  0  0  0
 77 96  1  0  0  0  0
 77106  1  0  0  0  0
 78 94  1  0  0  0  0
 78105  1  0  0  0  0
 79 99  1  0  0  0  0
 79109  1  0  0  0  0
 80 91  1  0  0  0  0
 81 92  1  0  0  0  0
 82 97  1  0  0  0  0
 83100  1  0  0  0  0
 84 98  1  0  0  0  0
 85101  1  0  0  0  0
 86102  1  0  0  0  0
 87 91  1  0  0  0  0
 88 92  1  0  0  0  0
 89 98  1  0  0  0  0
 90 97  1  0  0  0  0
 93114  1  0  0  0  0
 94100  1  0  0  0  0
 95117  1  0  0  0  0
 96101  1  0  0  0  0
 99102  1  0  0  0  0
103120  1  0  0  0  0
104121  1  0  0  0  0
105122  1  0  0  0  0
106123  1  0  0  0  0
107112  1  0  0  0  0
108113  1  0  0  0  0
109124  1  0  0  0  0
110118  2  0  0  0  0
110131  1  0  0  0  0
111119  2  0  0  0  0
111132  1  0  0  0  0
112125  1  0  0  0  0
113126  1  0  0  0  0
115137  1  0  0  0  0
116138  1  0  0  0  0
118129  1  0  0  0  0
119130  1  0  0  0  0
125133  1  0  0  0  0
125147  1  1  0  0  0
126134  1  0  0  0  0
126148  1  1  0  0  0
127135  1  0  0  0  0
127139  1  0  0  0  0
127151  1  0  0  0  0
127152  1  0  0  0  0
128136  1  0  0  0  0
128140  1  0  0  0  0
128153  1  0  0  0  0
128154  1  0  0  0  0
129143  2  0  0  0  0
130144  2  0  0  0  0
133141  1  0  0  0  0
134142  1  0  0  0  0
135137  1  0  0  0  0
136138  1  0  0  0  0
139141  1  0  0  0  0
140142  1  0  0  0  0
141156  1  1  0  0  0
142157  1  1  0  0  0
145159  1  0  0  0  0
146160  1  0  0  0  0
155149  1  1  0  0  0
150158  1  0  0  0  0
155161  1  0  0  0  0
155173  1  0  0  0  0
158162  1  0  0  0  0
163165  1  0  0  0  0
163173  1  0  0  0  0
165166  1  0  0  0  0
167168  1  0  0  0  0
169170  1  0  0  0  0
170171  1  0  0  0  0
171172  1  0  0  0  0
M  END
> <PUBCHEM_COMPOUND_ID_TYPE>
0

> <PUBCHEM_TOTAL_CHARGE>
0

> <PUBCHEM_SUBSTANCE_ID>
310938726

> <PUBCHEM_SUBSTANCE_VERSION>
1

> <PUBCHEM_EXT_DATASOURCE_NAME>
4488

> <PUBCHEM_EXT_DATASOURCE_REGID>
SCHEMBL16116641

> <PUBCHEM_SUBSTANCE_COMMENT>
InChI=1S/C112H178N5O51S4/c1-46-17-15-21-111(12)68(167-111)29-56(151-72(126)31-66(124)109(8,9)98(145)51(6)75(46)129)48(3)27-53-40-171-70(116-53)33-114-100(147)55(113-14)42-169-43-63-96-82(136)89(143)107(158-63)163-94-61(38-121)154-103(85(139)78(94)132)160-91-58(35-118)153-102(84(138)77(91)131)161-93-60(37-120)157-106(88(142)81(93)135)166-97-64(159-108(90(144)83(97)137)164-95-62(39-122)155-104(86(140)79(95)133)162-92-59(36-119)156-105(165-96)87(141)80(92)134)44-170-45-65(173-74(128)20-24-150-26-25-149-23-19-50(5)123)101(148)115-34-71-117-54(41-172-71)28-49(4)57-30-69-112(13,168-69)22-16-18-47(2)76(130)52(7)99(146)110(10,11)67(125)32-73(127)152-57/h27-28,40-41,46-47,51-52,55-69,75-97,102-108,113,118-122,124-125,129-144H,15-26,29-39,42-45,173H2,1-14H3,(H,114,147)(H,115,148)/b48-27+,49-28+/t46-,47-,51+,52+,55-,56?,57?,58?,59?,60?,61?,62?,63?,64?,65?,66-,67-,68-,69-,75-,76-,77-,78-,79-,80-,81-,82-,83-,84?,85?,86?,87?,88?,89?,90?,91-,92-,93-,94+,95-,96-,97+,102-,103-,104+,105+,106-,107+,108-,111+,112+/m1/s1
InChIKey=IMTHTESRHKFQDQ-JONWDVTBSA-N

> <PUBCHEM_SUBSTANCE_SYNONYM>
SCHEMBL16116641

> <PUBCHEM_XREF_EXT_ID>
SCHEMBL16116641

> <PUBCHEM_EXT_DATASOURCE_URL>
https://www.surechembl.org/

> <PUBCHEM_EXT_SUBSTANCE_URL>
https://www.surechembl.org/chemical/SCHEMBL16116641

> <PUBCHEM_COORDINATE_TYPE>
1
3

> <PUBCHEM_BONDANNOTATIONS>
77  10  5
76  11  6
78  12  6
125  147  5
126  148  5
79  13  6
85  13  6
80  14  6
141  156  5
142  157  5
155  149  5
81  15  6
82  16  5
84  17  6
83  18  6
86  20  6
87  23  5
88  24  5
89  25  5
90  26  5
94  29  5
96  30  5
99  33  5
133  44  6
134  45  6
135  46  5
136  47  5
158  60  5
61  69  5
62  70  5
63  65  6
64  66  6
74  7  6
73  8  5
75  9  6

$$$$
