310948572
  -OEChem-07211613022D

 26 26  0     1  0  0  0  0  0999 V2000
    1.7827    2.0693    0.0000 P   0  0  0  0  0  0  0  0  0  0  0  0
    0.3425    2.1112    0.0000 O   0  0  0  0  0  0  0  0  0  0  0  0
   -1.0976    0.4334    0.0000 O   0  0  0  0  0  0  0  0  0  0  0  0
    1.7827    0.4334    0.0000 O   0  0  0  0  0  0  0  0  0  0  0  0
    0.3425   -0.3915    0.0000 O   0  0  0  0  0  0  0  0  0  0  0  0
    1.7827    2.0693    0.0000 O   0  0  0  0  0  0  0  0  0  0  0  0
   -1.8246    1.6918    0.0000 O   0  0  0  0  0  0  0  0  0  0  0  0
   -1.8526    1.6219    0.0000 O   0  0  0  0  0  0  0  0  0  0  0  0
    3.2088    0.4614    0.0000 O   0  0  0  0  0  0  0  0  0  0  0  0
   -2.5377    2.8663    0.0000 O   0  0  0  0  0  0  0  0  0  0  0  0
    0.3425    0.4474    0.0000 C   0  0  3  0  0  0  0  0  0  0  0  0
   -0.3845    0.8669    0.0000 C   0  0  3  0  0  0  0  0  0  0  0  0
    1.0416    0.8669    0.0000 C   0  0  3  0  0  0  0  0  0  0  0  0
   -0.3845    1.6918    0.0000 C   0  0  3  0  0  0  0  0  0  0  0  0
    1.0556    1.6918    0.0000 C   0  0  3  0  0  0  0  0  0  0  0  0
   -1.1115    2.1112    0.0000 C   0  0  0  0  0  0  0  0  0  0  0  0
   -1.8386    0.8389    0.0000 C   0  0  0  0  0  0  0  0  0  0  0  0
    2.5377    0.8529    0.0000 C   0  0  0  0  0  0  0  0  0  0  0  0
    1.0277   -0.8110    0.0000 C   0  0  0  0  0  0  0  0  0  0  0  0
   -2.5517    2.1112    0.0000 C   0  0  0  0  0  0  0  0  0  0  0  0
    1.0137   -1.6359    0.0000 C   0  0  0  0  0  0  0  0  0  0  0  0
   -2.5238    0.4194    0.0000 C   0  0  0  0  0  0  0  0  0  0  0  0
    2.5098    1.6639    0.0000 C   0  0  0  0  0  0  0  0  0  0  0  0
    1.7268   -2.0413    0.0000 C   0  0  0  0  0  0  0  0  0  0  0  0
   -3.2088    1.6918    0.0000 C   0  0  0  0  0  0  0  0  0  0  0  0
    1.7128   -2.8663    0.0000 C   0  0  0  0  0  0  0  0  0  0  0  0
  1  6  1  0  0  0  0
  2 14  1  0  0  0  0
  2 15  1  0  0  0  0
 12  3  1  6  0  0  0
  3 17  1  0  0  0  0
 13  4  1  1  0  0  0
  4 18  1  0  0  0  0
 11  5  1  1  0  0  0
  5 19  1  0  0  0  0
 15  6  1  6  0  0  0
  7 16  1  0  0  0  0
  7 20  1  0  0  0  0
  8 17  2  0  0  0  0
  9 18  2  0  0  0  0
 10 20  2  0  0  0  0
 11 12  1  0  0  0  0
 11 13  1  0  0  0  0
 12 14  1  0  0  0  0
 13 15  1  0  0  0  0
 14 16  1  1  0  0  0
 17 22  1  0  0  0  0
 18 23  1  0  0  0  0
 19 21  1  0  0  0  0
 20 25  1  0  0  0  0
 21 24  1  0  0  0  0
 24 26  1  0  0  0  0
M  END
> <PUBCHEM_COMPOUND_ID_TYPE>
0

> <PUBCHEM_TOTAL_CHARGE>
0

> <PUBCHEM_SUBSTANCE_ID>
310948572

> <PUBCHEM_SUBSTANCE_VERSION>
1

> <PUBCHEM_EXT_DATASOURCE_NAME>
4488

> <PUBCHEM_EXT_DATASOURCE_REGID>
SCHEMBL16126754

> <PUBCHEM_SUBSTANCE_COMMENT>
InChI=1S/C16H27O9P/c1-5-6-7-20-14-13(22-10(3)18)12(8-21-9(2)17)24-16(25-26)15(14)23-11(4)19/h12-16H,5-8,26H2,1-4H3/t12-,13-,14+,15+,16-/m1/s1
InChIKey=LGZXWQFPYKJFMI-RBGFHDKUSA-N

> <PUBCHEM_SUBSTANCE_SYNONYM>
SCHEMBL16126754

> <PUBCHEM_XREF_EXT_ID>
SCHEMBL16126754

> <PUBCHEM_EXT_DATASOURCE_URL>
https://www.surechembl.org/

> <PUBCHEM_EXT_SUBSTANCE_URL>
https://www.surechembl.org/chemical/SCHEMBL16126754

> <PUBCHEM_CID_ASSOCIATIONS>
117614122  1

> <PUBCHEM_COORDINATE_TYPE>
1
3

> <PUBCHEM_BONDANNOTATIONS>
14  16  5
12  3  6
13  4  5
11  5  5
15  6  6

$$$$
