310938534
  -OEChem-07211613022D

  9  9  0     0  0  0  0  0  0999 V2000
   -5.8855  -11.3397    0.0000 *   0  0  0  0  0  0  0  0  0  0  0  0
   -5.6864   -9.8284    0.0000 O   0  0  0  0  0  0  0  0  0  0  0  0
   -7.0948  -12.2677    0.0000 O   0  0  0  0  0  0  0  0  0  0  0  0
   -6.8959  -10.7564    0.0000 N   0  0  0  0  0  0  0  0  0  0  0  0
   -6.6823  -11.5534    0.0000 C   0  0  0  0  0  0  0  0  0  0  0  0
   -6.0990  -10.5430    0.0000 C   0  0  0  0  0  0  0  0  0  0  0  0
   -7.6103  -10.3439    0.0000 C   0  0  0  0  0  0  0  0  0  0  0  0
   -8.3248  -10.7564    0.0000 C   0  0  0  0  0  0  0  0  0  0  0  0
   -9.0393  -10.3439    0.0000 C   0  0  0  0  0  0  0  0  0  0  0  0
  1  5  1  0  0  0  0
  1  6  1  0  0  0  0
  2  6  2  0  0  0  0
  3  5  2  0  0  0  0
  4  5  1  0  0  0  0
  4  6  1  0  0  0  0
  4  7  1  0  0  0  0
  7  8  1  0  0  0  0
  8  9  2  0  0  0  0
A    1
Z
M  END
> <PUBCHEM_COMPOUND_ID_TYPE>
0

> <PUBCHEM_TOTAL_CHARGE>
0

> <PUBCHEM_SUBSTANCE_ID>
310938534

> <PUBCHEM_SUBSTANCE_VERSION>
1

> <PUBCHEM_EXT_DATASOURCE_NAME>
4488

> <PUBCHEM_EXT_DATASOURCE_REGID>
SCHEMBL16116448

> <PUBCHEM_SUBSTANCE_COMMENT>
InChI=1S/C6H7NO2/c1-2-3-7-5(8)4-6(7)9/h2H,1,3-4H2
InChIKey=NNWKRWCQXAMGNH-UHFFFAOYSA-N

> <PUBCHEM_SUBSTANCE_SYNONYM>
SCHEMBL16116448

> <PUBCHEM_XREF_EXT_ID>
SCHEMBL16116448

> <PUBCHEM_EXT_DATASOURCE_URL>
https://www.surechembl.org/

> <PUBCHEM_EXT_SUBSTANCE_URL>
https://www.surechembl.org/chemical/SCHEMBL16116448

> <PUBCHEM_COORDINATE_TYPE>
1
3

$$$$
