310931767
  -OEChem-07211613022D

 21 20  0     0  0  0  0  0  0999 V2000
   -4.2868   -0.4125    0.0000 S   0  0  0  0  0  0  0  0  0  0  0  0
   -3.5724    0.8250    0.0000 S   0  0  0  0  0  0  0  0  0  0  0  0
   -5.0013   -0.8250    0.0000 F   0  0  0  0  0  0  0  0  0  0  0  0
   -3.5724    1.6500    0.0000 F   0  0  0  0  0  0  0  0  0  0  0  0
   -4.6993    0.3020    0.0000 O   0  0  0  0  0  0  0  0  0  0  0  0
   -3.8743   -1.1270    0.0000 O   0  0  0  0  0  0  0  0  0  0  0  0
   -2.7474    0.8250    0.0000 O   0  0  0  0  0  0  0  0  0  0  0  0
   -4.3974    0.8250    0.0000 O   0  0  0  0  0  0  0  0  0  0  0  0
   -3.5724    0.0000    0.0000 N   0  3  0  0  0  0  0  0  0  0  0  0
   -2.1434    0.0000    0.0000 N   0  0  0  0  0  0  0  0  0  0  0  0
    0.7144    0.0000    0.0000 N   0  3  0  0  0  0  0  0  0  0  0  0
   -2.8579   -0.4125    0.0000 C   0  0  0  0  0  0  0  0  0  0  0  0
   -2.8579   -1.2375    0.0000 C   0  0  0  0  0  0  0  0  0  0  0  0
   -1.4290   -0.4125    0.0000 C   0  0  0  0  0  0  0  0  0  0  0  0
   -2.1434   -1.6500    0.0000 C   0  0  0  0  0  0  0  0  0  0  0  0
   -3.5724   -1.6500    0.0000 C   0  0  0  0  0  0  0  0  0  0  0  0
   -0.7144    0.0000    0.0000 C   0  0  0  0  0  0  0  0  0  0  0  0
    0.0000   -0.4125    0.0000 C   0  0  0  0  0  0  0  0  0  0  0  0
    1.4290    0.4125    0.0000 C   0  0  0  0  0  0  0  0  0  0  0  0
    0.7144    0.8250    0.0000 C   0  0  0  0  0  0  0  0  0  0  0  0
    1.4290   -0.4125    0.0000 C   0  0  0  0  0  0  0  0  0  0  0  0
  1  3  1  0  0  0  0
  1  5  2  0  0  0  0
  1  6  2  0  0  0  0
  1  9  1  0  0  0  0
  2  4  1  0  0  0  0
  2  7  2  0  0  0  0
  2  8  2  0  0  0  0
  2  9  1  0  0  0  0
  9 12  2  0  0  0  0
 10 12  1  0  0  0  0
 10 14  1  0  0  0  0
 11 18  1  0  0  0  0
 11 19  1  0  0  0  0
 11 20  1  0  0  0  0
 11 21  1  0  0  0  0
 12 13  1  0  0  0  0
 13 15  2  0  0  0  0
 13 16  1  0  0  0  0
 14 17  1  0  0  0  0
 17 18  1  0  0  0  0
M  CHG  2   9   1  11   1
M  END
> <PUBCHEM_COMPOUND_ID_TYPE>
0

> <PUBCHEM_TOTAL_CHARGE>
2

> <PUBCHEM_SUBSTANCE_ID>
310931767

> <PUBCHEM_SUBSTANCE_VERSION>
1

> <PUBCHEM_EXT_DATASOURCE_NAME>
4488

> <PUBCHEM_EXT_DATASOURCE_REGID>
SCHEMBL16109096

> <PUBCHEM_SUBSTANCE_COMMENT>
InChI=1S/C10H20F2N3O4S2/c1-9(2)10(13-7-6-8-15(3,4)5)14(20(11,16)17)21(12,18)19/h1,6-8H2,2-5H3/q+1/p+1
InChIKey=OYJGJCFCWUCMLB-UHFFFAOYSA-O

> <PUBCHEM_SUBSTANCE_SYNONYM>
SCHEMBL16109096

> <PUBCHEM_XREF_EXT_ID>
SCHEMBL16109096

> <PUBCHEM_EXT_DATASOURCE_URL>
https://www.surechembl.org/

> <PUBCHEM_EXT_SUBSTANCE_URL>
https://www.surechembl.org/chemical/SCHEMBL16109096

> <PUBCHEM_CID_ASSOCIATIONS>
117600453  1

> <PUBCHEM_COORDINATE_TYPE>
1
3

$$$$
