310942867
  -OEChem-07211613022D

 29 31  0     1  0  0  0  0  0999 V2000
    2.5289    2.5289    0.0000 S   0  0  0  0  0  0  0  0  0  0  0  0
   -2.7767   -0.1955    0.0000 P   0  0  3  0  0  0  0  0  0  0  0  0
   -1.9163   -0.1955    0.0000 O   0  0  0  0  0  0  0  0  0  0  0  0
   -2.7636    0.6388    0.0000 O   0  0  0  0  0  0  0  0  0  0  0  0
    0.0391   -0.4302    0.0000 O   0  0  0  0  0  0  0  0  0  0  0  0
    0.6779   -2.5289    0.0000 O   0  0  0  0  0  0  0  0  0  0  0  0
   -0.6127   -2.5289    0.0000 O   0  0  0  0  0  0  0  0  0  0  0  0
    1.0168    0.1694    0.0000 N   0  0  0  0  0  0  0  0  0  0  0  0
    1.0168    1.5252    0.0000 N   0  0  0  0  0  0  0  0  0  0  0  0
    2.5420    0.0130    0.0000 N   0  0  0  0  0  0  0  0  0  0  0  0
    3.2720    1.2645    0.0000 N   0  0  0  0  0  0  0  0  0  0  0  0
   -3.2720   -0.1694    0.0000 C   0  0  3  0  0  0  0  0  0  0  0  0
   -3.2329    0.3129    0.0000 C   0  0  3  0  0  0  0  0  0  0  0  0
   -3.1677   -0.8603    0.0000 C   0  0  0  0  0  0  0  0  0  0  0  0
    1.7859    0.4432    0.0000 C   0  0  0  0  0  0  0  0  0  0  0  0
   -2.9200    1.1602    0.0000 C   0  0  0  0  0  0  0  0  0  0  0  0
   -1.4731   -0.1694    0.0000 C   0  0  3  0  0  0  0  0  0  0  0  0
    1.8120    1.2775    0.0000 C   0  0  0  0  0  0  0  0  0  0  0  0
    0.6909   -0.8734    0.0000 C   0  0  3  0  0  0  0  0  0  0  0  0
    0.5084    0.8603    0.0000 C   0  0  0  0  0  0  0  0  0  0  0  0
    2.5159    1.7077    0.0000 C   0  0  0  0  0  0  0  0  0  0  0  0
   -1.0689   -0.1955    0.0000 C   0  0  0  0  0  0  0  0  0  0  0  0
    0.4432   -1.6947    0.0000 C   0  0  3  0  0  0  0  0  0  0  0  0
   -2.9070   -1.4339    0.0000 C   0  0  0  0  0  0  0  0  0  0  0  0
   -1.5512    0.5475    0.0000 C   0  0  0  0  0  0  0  0  0  0  0  0
   -0.6127   -0.9256    0.0000 C   0  0  0  0  0  0  0  0  0  0  0  0
    3.2590    0.4432    0.0000 C   0  0  0  0  0  0  0  0  0  0  0  0
   -0.4041   -1.6947    0.0000 C   0  0  0  0  0  0  0  0  0  0  0  0
   -1.7990    1.1602    0.0000 C   0  0  0  0  0  0  0  0  0  0  0  0
  1 21  1  0  0  0  0
  2  3  1  0  0  0  0
  2  4  1  0  0  0  0
  2 12  1  0  0  0  0
  2 13  1  0  0  0  0
  3 17  1  0  0  0  0
 19  5  1  1  0  0  0
  5 26  1  0  0  0  0
 23  6  1  6  0  0  0
  7 28  1  0  0  0  0
  8 15  1  0  0  0  0
  8 19  1  0  0  0  0
  8 20  1  0  0  0  0
  9 18  1  0  0  0  0
  9 20  2  0  0  0  0
 10 15  1  0  0  0  0
 10 27  2  0  0  0  0
 11 21  2  0  0  0  0
 11 27  1  0  0  0  0
 12 13  1  0  0  0  0
 12 14  1  0  0  0  0
 13 16  1  0  0  0  0
 14 24  1  0  0  0  0
 15 18  2  0  0  0  0
 17 22  1  0  0  0  0
 17 25  1  0  0  0  0
 18 21  1  0  0  0  0
 19 23  1  0  0  0  0
 22 26  1  0  0  0  0
 23 28  1  0  0  0  0
 25 29  1  0  0  0  0
M  END
> <PUBCHEM_COMPOUND_ID_TYPE>
0

> <PUBCHEM_TOTAL_CHARGE>
0

> <PUBCHEM_SUBSTANCE_ID>
310942867

> <PUBCHEM_SUBSTANCE_VERSION>
1

> <PUBCHEM_EXT_DATASOURCE_NAME>
4488

> <PUBCHEM_EXT_DATASOURCE_REGID>
SCHEMBL16120925

> <PUBCHEM_SUBSTANCE_COMMENT>
InChI=1S/C18H31N4O5PS/c1-4-12(27-28(25)11(3)14(28)5-2)6-7-26-18(13(24)8-23)22-10-21-15-16(22)19-9-20-17(15)29/h9-14,18,23-25,28H,4-8H2,1-3H3,(H,19,20,29)/t11?,12?,13-,14?,18-/m1/s1
InChIKey=JGGIOXVFFHOIBH-BLIWBBSQSA-N

> <PUBCHEM_SUBSTANCE_SYNONYM>
SCHEMBL16120925

> <PUBCHEM_XREF_EXT_ID>
SCHEMBL16120925

> <PUBCHEM_EXT_DATASOURCE_URL>
https://www.surechembl.org/

> <PUBCHEM_EXT_SUBSTANCE_URL>
https://www.surechembl.org/chemical/SCHEMBL16120925

> <PUBCHEM_CID_ASSOCIATIONS>
117609355  1

> <PUBCHEM_COORDINATE_TYPE>
1
3

> <PUBCHEM_BONDANNOTATIONS>
19  5  5
23  6  6

$$$$
