310931750
  -OEChem-07211613022D

 25 25  0     0  0  0  0  0  0999 V2000
   -5.7159   -0.4125    0.0000 S   0  0  0  0  0  0  0  0  0  0  0  0
   -5.0014    0.8250    0.0000 S   0  0  0  0  0  0  0  0  0  0  0  0
   -6.4304   -0.8250    0.0000 F   0  0  0  0  0  0  0  0  0  0  0  0
   -5.0014    1.6500    0.0000 F   0  0  0  0  0  0  0  0  0  0  0  0
   -3.5724    0.0000    0.0000 O   0  0  0  0  0  0  0  0  0  0  0  0
   -6.1284    0.3020    0.0000 O   0  0  0  0  0  0  0  0  0  0  0  0
   -5.3034   -1.1270    0.0000 O   0  0  0  0  0  0  0  0  0  0  0  0
   -4.1764    0.8250    0.0000 O   0  0  0  0  0  0  0  0  0  0  0  0
   -5.8264    0.8250    0.0000 O   0  0  0  0  0  0  0  0  0  0  0  0
   -5.0014    0.0000    0.0000 N   0  3  0  0  0  0  0  0  0  0  0  0
   -1.4290   -0.4125    0.0000 N   0  3  0  0  0  0  0  0  0  0  0  0
   -4.2869   -0.4125    0.0000 C   0  0  0  0  0  0  0  0  0  0  0  0
   -4.2869   -1.2375    0.0000 C   0  0  0  0  0  0  0  0  0  0  0  0
   -2.8579   -0.4125    0.0000 C   0  0  0  0  0  0  0  0  0  0  0  0
   -2.1435    0.0000    0.0000 C   0  0  0  0  0  0  0  0  0  0  0  0
   -0.7145    0.0000    0.0000 C   0  0  0  0  0  0  0  0  0  0  0  0
    0.0000   -0.4125    0.0000 C   0  0  0  0  0  0  0  0  0  0  0  0
   -5.0014   -1.6500    0.0000 C   0  0  0  0  0  0  0  0  0  0  0  0
   -1.8415   -1.1270    0.0000 C   0  0  0  0  0  0  0  0  0  0  0  0
   -1.0165   -1.1270    0.0000 C   0  0  0  0  0  0  0  0  0  0  0  0
    0.0000   -1.2375    0.0000 C   0  0  0  0  0  0  0  0  0  0  0  0
    0.7145    0.0000    0.0000 C   0  0  0  0  0  0  0  0  0  0  0  0
    0.7145   -1.6500    0.0000 C   0  0  0  0  0  0  0  0  0  0  0  0
    1.4290   -0.4125    0.0000 C   0  0  0  0  0  0  0  0  0  0  0  0
    1.4290   -1.2375    0.0000 C   0  0  0  0  0  0  0  0  0  0  0  0
  1  3  1  0  0  0  0
  1  6  2  0  0  0  0
  1  7  2  0  0  0  0
  1 10  1  0  0  0  0
  2  4  1  0  0  0  0
  2  8  2  0  0  0  0
  2  9  2  0  0  0  0
  2 10  1  0  0  0  0
  5 12  1  0  0  0  0
  5 14  1  0  0  0  0
 10 12  2  0  0  0  0
 11 15  1  0  0  0  0
 11 16  1  0  0  0  0
 11 19  1  0  0  0  0
 11 20  1  0  0  0  0
 12 13  1  0  0  0  0
 13 18  2  0  0  0  0
 14 15  1  0  0  0  0
 16 17  1  0  0  0  0
 17 21  2  0  0  0  0
 17 22  1  0  0  0  0
 21 23  1  0  0  0  0
 22 24  2  0  0  0  0
 23 25  2  0  0  0  0
 24 25  1  0  0  0  0
M  CHG  2  10   1  11   1
M  END
> <PUBCHEM_COMPOUND_ID_TYPE>
0

> <PUBCHEM_TOTAL_CHARGE>
2

> <PUBCHEM_SUBSTANCE_ID>
310931750

> <PUBCHEM_SUBSTANCE_VERSION>
1

> <PUBCHEM_EXT_DATASOURCE_NAME>
4488

> <PUBCHEM_EXT_DATASOURCE_REGID>
SCHEMBL16109079

> <PUBCHEM_SUBSTANCE_COMMENT>
InChI=1S/C14H20F2N2O5S2/c1-4-14(17(24(15,19)20)25(16,21)22)23-11-10-18(2,3)12-13-8-6-5-7-9-13/h4-9H,1,10-12H2,2-3H3/q+2
InChIKey=PQZWIONSSGZWQP-UHFFFAOYSA-N

> <PUBCHEM_SUBSTANCE_SYNONYM>
SCHEMBL16109079

> <PUBCHEM_XREF_EXT_ID>
SCHEMBL16109079

> <PUBCHEM_EXT_DATASOURCE_URL>
https://www.surechembl.org/

> <PUBCHEM_EXT_SUBSTANCE_URL>
https://www.surechembl.org/chemical/SCHEMBL16109079

> <PUBCHEM_CID_ASSOCIATIONS>
117600441  1

> <PUBCHEM_COORDINATE_TYPE>
1
3

$$$$
