310940719
  -OEChem-07211613022D

 50 55  0     1  0  0  0  0  0999 V2000
   -0.1237    1.5699    0.0000 S   0  0  0  0  0  0  0  0  0  0  0  0
    1.3279   -0.1127    0.0000 S   0  0  0  0  0  0  0  0  0  0  0  0
    2.1032    1.1905    0.0000 S   0  0  0  0  0  0  0  0  0  0  0  0
   -5.8973    0.8606    0.0000 S   0  0  0  0  0  0  0  0  0  0  0  0
   -6.6396   -0.6406    0.0000 P   0  0  0  0  0  0  0  0  0  0  0  0
   -2.2682   -0.2942    0.0000 O   0  0  0  0  0  0  0  0  0  0  0  0
   -0.1237   -0.9540    0.0000 O   0  0  0  0  0  0  0  0  0  0  0  0
   -0.1237   -0.9540    0.0000 O   0  0  0  0  0  0  0  0  0  0  0  0
   -3.1260    0.2997    0.0000 O   0  0  0  0  0  0  0  0  0  0  0  0
   -3.1260    2.8400    0.0000 O   0  0  0  0  0  0  0  0  0  0  0  0
    2.3328   -2.5213    0.0000 O   0  0  0  0  0  0  0  0  0  0  0  0
   -0.8331    0.3162    0.0000 N   0  0  0  0  0  0  0  0  0  0  0  0
   -2.4002    1.5699    0.0000 N   0  0  0  0  0  0  0  0  0  0  0  0
    2.9115    0.0852    0.0000 N   0  0  0  0  0  0  0  0  0  0  0  0
   -3.8518    2.4112    0.0000 N   0  0  0  0  0  0  0  0  0  0  0  0
   -4.6601    0.3162    0.0000 N   0  0  0  0  0  0  0  0  0  0  0  0
   -5.3199    1.4874    0.0000 N   0  0  0  0  0  0  0  0  0  0  0  0
    5.8973    0.7616    0.0000 N   0  0  3  0  0  0  0  0  0  0  0  0
   -5.8148   -0.6406    0.0000 N   0  0  0  0  0  0  0  0  0  0  0  0
   -0.8331    1.1410    0.0000 C   0  0  3  0  0  0  0  0  0  0  0  0
   -1.6743    1.1575    0.0000 C   0  0  3  0  0  0  0  0  0  0  0  0
   -1.6578    0.3327    0.0000 C   0  0  0  0  0  0  0  0  0  0  0  0
   -0.1072   -0.0962    0.0000 C   0  0  0  0  0  0  0  0  0  0  0  0
    0.6186    0.3162    0.0000 C   0  0  0  0  0  0  0  0  0  0  0  0
   -0.1237   -0.9540    0.0000 C   0  0  0  0  0  0  0  0  0  0  0  0
    0.6186    1.1410    0.0000 C   0  0  0  0  0  0  0  0  0  0  0  0
   -3.1260    1.1905    0.0000 C   0  0  0  0  0  0  0  0  0  0  0  0
    2.1032    0.3657    0.0000 C   0  0  0  0  0  0  0  0  0  0  0  0
   -3.8518    1.5863    0.0000 C   0  0  0  0  0  0  0  0  0  0  0  0
   -4.5611    1.1575    0.0000 C   0  0  0  0  0  0  0  0  0  0  0  0
    3.4064    0.7946    0.0000 C   0  0  0  0  0  0  0  0  0  0  0  0
    4.5560   -2.5102    0.0000 C   0  0  0  0  0  0  0  0  0  0  0  0
    2.9280    1.4379    0.0000 C   0  0  0  0  0  0  0  0  0  0  0  0
    4.2312    0.7616    0.0000 C   0  0  0  0  0  0  0  0  0  0  0  0
   -5.4684    0.1512    0.0000 C   0  0  0  0  0  0  0  0  0  0  0  0
    4.0001   -2.5324    0.0000 C   0  0  0  0  0  0  0  0  0  0  0  0
    4.6436    0.0523    0.0000 C   0  0  0  0  0  0  0  0  0  0  0  0
    4.6601    1.5039    0.0000 C   0  0  0  0  0  0  0  0  0  0  0  0
    5.4849    0.0357    0.0000 C   0  0  3  0  0  0  0  0  0  0  0  0
    3.7223   -2.0544    0.0000 C   0  0  0  0  0  0  0  0  0  0  0  0
    3.7334   -3.0215    0.0000 C   0  0  0  0  0  0  0  0  0  0  0  0
    5.4849    1.4874    0.0000 C   0  0  0  0  0  0  0  0  0  0  0  0
    3.1665   -2.0544    0.0000 C   0  0  0  0  0  0  0  0  0  0  0  0
    3.1776   -3.0215    0.0000 C   0  0  0  0  0  0  0  0  0  0  0  0
   -2.2847    2.6256    0.0000 C   0  0  0  0  0  0  0  0  0  0  0  0
    2.8997   -2.5324    0.0000 C   0  0  0  0  0  0  0  0  0  0  0  0
    5.5839    0.5471    0.0000 C   0  0  0  0  0  0  0  0  0  0  0  0
    6.6396    0.7616    0.0000 C   0  0  0  0  0  0  0  0  0  0  0  0
   -1.5754    3.0215    0.0000 C   0  0  0  0  0  0  0  0  0  0  0  0
    2.0438   -3.0104    0.0000 C   0  0  0  0  0  0  0  0  0  0  0  0
  1 20  1  0  0  0  0
  1 26  1  0  0  0  0
  2 24  1  0  0  0  0
  2 28  1  0  0  0  0
  3 28  1  0  0  0  0
  3 33  1  0  0  0  0
  4 17  1  0  0  0  0
  4 35  1  0  0  0  0
  5 19  1  0  0  0  0
  6 22  2  0  0  0  0
  7 25  1  0  0  0  0
  7 32  1  0  0  0  0
  8 25  2  0  0  0  0
  9 27  2  0  0  0  0
 10 15  1  0  0  0  0
 10 45  1  0  0  0  0
 11 46  1  0  0  0  0
 11 50  1  0  0  0  0
 20 12  1  1  0  0  0
 12 22  1  0  0  0  0
 12 23  1  0  0  0  0
 21 13  1  1  0  0  0
 13 27  1  0  0  0  0
 14 28  2  0  0  0  0
 14 31  1  0  0  0  0
 15 29  2  0  0  0  0
 16 30  1  0  0  0  0
 16 35  2  0  0  0  0
 17 30  2  0  0  0  0
 18 39  1  0  0  0  0
 18 42  1  0  0  0  0
 18 48  1  0  0  0  0
 19 35  1  0  0  0  0
 20 21  1  0  0  0  0
 21 22  1  0  0  0  0
 23 24  2  0  0  0  0
 23 25  1  0  0  0  0
 24 26  1  0  0  0  0
 27 29  1  0  0  0  0
 29 30  1  0  0  0  0
 31 33  2  0  0  0  0
 31 34  1  0  0  0  0
 32 36  1  0  0  0  0
 34 37  2  0  0  0  0
 34 38  1  0  0  0  0
 36 40  2  0  0  0  0
 36 41  1  0  0  0  0
 37 39  1  0  0  0  0
 38 42  2  0  0  0  0
 39 47  1  0  0  0  0
 40 43  1  0  0  0  0
 41 44  2  0  0  0  0
 43 46  2  0  0  0  0
 44 46  1  0  0  0  0
 45 49  1  0  0  0  0
M  END
> <PUBCHEM_COMPOUND_ID_TYPE>
0

> <PUBCHEM_TOTAL_CHARGE>
0

> <PUBCHEM_SUBSTANCE_ID>
310940719

> <PUBCHEM_SUBSTANCE_VERSION>
1

> <PUBCHEM_EXT_DATASOURCE_NAME>
4488

> <PUBCHEM_EXT_DATASOURCE_REGID>
SCHEMBL16118676

> <PUBCHEM_SUBSTANCE_COMMENT>
InChI=1S/C31H33N8O6PS4/c1-5-45-35-22(25-34-30(36-46)50-37-25)26(40)33-23-27(41)39-24(29(42)44-13-17-6-8-19(43-4)9-7-17)21(15-47-28(23)39)49-31-32-20(14-48-31)18-10-11-38(3)16(2)12-18/h6-12,14,16,23,28H,5,13,15,46H2,1-4H3,(H,33,40)(H,34,36,37)/b35-22-/t16?,23-,28-/m1/s1
InChIKey=JSXQDMXFCUILDI-BOAZBUBKSA-N

> <PUBCHEM_SUBSTANCE_SYNONYM>
SCHEMBL16118676

> <PUBCHEM_XREF_EXT_ID>
SCHEMBL16118676

> <PUBCHEM_EXT_DATASOURCE_URL>
https://www.surechembl.org/

> <PUBCHEM_EXT_SUBSTANCE_URL>
https://www.surechembl.org/chemical/SCHEMBL16118676

> <PUBCHEM_CID_ASSOCIATIONS>
117607676  1

> <PUBCHEM_COORDINATE_TYPE>
1
3

> <PUBCHEM_BONDANNOTATIONS>
20  12  5
21  13  5

$$$$
