310938721
  -OEChem-07211613022D

103110  0     1  0  0  0  0  0999 V2000
    1.8391   -1.0822    0.0000 S   0  0  0  0  0  0  0  0  0  0  0  0
   -6.6982   -0.6041    0.0000 S   0  0  0  0  0  0  0  0  0  0  0  0
    0.4259    0.2239    0.0000 O   0  0  0  0  0  0  0  0  0  0  0  0
   -5.3921   -2.1461    0.0000 O   0  0  0  0  0  0  0  0  0  0  0  0
    0.3911   -2.5320    0.0000 O   0  0  0  0  0  0  0  0  0  0  0  0
   -5.9678    1.2991    0.0000 O   0  0  0  0  0  0  0  0  0  0  0  0
   -2.4975   -4.0029    0.0000 O   0  0  0  0  0  0  0  0  0  0  0  0
   -0.6990    2.8110    0.0000 O   0  0  0  0  0  0  0  0  0  0  0  0
   -3.5718    3.3569    0.0000 O   0  0  0  0  0  0  0  0  0  0  0  0
    1.4065   -1.7034    0.0000 O   0  0  0  0  0  0  0  0  0  0  0  0
   -6.1447    0.1150    0.0000 O   0  0  0  0  0  0  0  0  0  0  0  0
   -4.6270   -3.2566    0.0000 O   0  0  0  0  0  0  0  0  0  0  0  0
   -1.3176   -3.8451    0.0000 O   0  0  0  0  0  0  0  0  0  0  0  0
    0.9480    1.5072    0.0000 O   0  0  0  0  0  0  0  0  0  0  0  0
   -4.9742    3.6287    0.0000 O   0  0  0  0  0  0  0  0  0  0  0  0
   -1.3851    3.9873    0.0000 O   0  0  0  0  0  0  0  0  0  0  0  0
   -0.3087   -1.0810    0.0000 O   0  0  0  0  0  0  0  0  0  0  0  0
   -4.5705   -0.8276    0.0000 O   0  0  0  0  0  0  0  0  0  0  0  0
   -0.7638   -2.0121    0.0000 O   0  0  0  0  0  0  0  0  0  0  0  0
    0.3104   -1.8603    0.0000 O   0  0  0  0  0  0  0  0  0  0  0  0
   -2.9678   -2.6842    0.0000 O   0  0  0  0  0  0  0  0  0  0  0  0
   -0.8749    1.5816    0.0000 O   0  0  0  0  0  0  0  0  0  0  0  0
   -5.1737    0.2845    0.0000 O   0  0  0  0  0  0  0  0  0  0  0  0
   -4.9097    1.6786    0.0000 O   0  0  0  0  0  0  0  0  0  0  0  0
   -3.7793   -2.5112    0.0000 O   0  0  0  0  0  0  0  0  0  0  0  0
   -2.6912    2.5659    0.0000 O   0  0  0  0  0  0  0  0  0  0  0  0
    0.0452    0.9577    0.0000 O   0  0  0  0  0  0  0  0  0  0  0  0
   -1.7806   -2.9465    0.0000 O   0  0  0  0  0  0  0  0  0  0  0  0
   -4.2303    2.7807    0.0000 O   0  0  0  0  0  0  0  0  0  0  0  0
   -1.6619    2.8658    0.0000 O   0  0  0  0  0  0  0  0  0  0  0  0
   -0.2183   -3.7642    0.0000 O   0  0  0  0  0  0  0  0  0  0  0  0
   -4.0582   -4.3884    0.0000 O   0  0  0  0  0  0  0  0  0  0  0  0
    1.0811    2.4346    0.0000 O   0  0  0  0  0  0  0  0  0  0  0  0
   -5.7298    3.3816    0.0000 O   0  0  0  0  0  0  0  0  0  0  0  0
   -2.3429    4.3884    0.0000 O   0  0  0  0  0  0  0  0  0  0  0  0
    2.3324   -1.9365    0.0000 O   0  0  0  0  0  0  0  0  0  0  0  0
    3.3187   -1.9365    0.0000 O   0  0  0  0  0  0  0  0  0  0  0  0
   -8.1875    0.2333    0.0000 O   0  0  0  0  0  0  0  0  0  0  0  0
   -7.2011    0.2445    0.0000 O   0  0  0  0  0  0  0  0  0  0  0  0
    3.8120   -1.6518    0.0000 O   0  0  0  0  0  0  0  0  0  0  0  0
    5.2916   -0.7975    0.0000 O   0  0  0  0  0  0  0  0  0  0  0  0
    6.7712   -1.0822    0.0000 O   0  0  0  0  0  0  0  0  0  0  0  0
    8.2508   -0.2280    0.0000 O   0  0  0  0  0  0  0  0  0  0  0  0
   -8.1745   -0.9057    0.0000 N   0  0  0  0  0  0  0  0  0  0  0  0
    0.7106   -0.2693    0.0000 C   0  0  3  0  0  0  0  0  0  0  0  0
   -5.7213   -1.4195    0.0000 C   0  0  3  0  0  0  0  0  0  0  0  0
   -0.0117   -2.9347    0.0000 C   0  0  3  0  0  0  0  0  0  0  0  0
   -3.2204   -4.0062    0.0000 C   0  0  3  0  0  0  0  0  0  0  0  0
   -5.7345    2.2301    0.0000 C   0  0  3  0  0  0  0  0  0  0  0  0
   -0.1489    2.6635    0.0000 C   0  0  3  0  0  0  0  0  0  0  0  0
   -2.9488    3.6888    0.0000 C   0  0  3  0  0  0  0  0  0  0  0  0
    0.9411   -2.3846    0.0000 C   0  0  3  0  0  0  0  0  0  0  0  0
   -5.5639    0.7025    0.0000 C   0  0  3  0  0  0  0  0  0  0  0  0
   -4.6519   -2.4319    0.0000 C   0  0  3  0  0  0  0  0  0  0  0  0
    0.7106    0.7171    0.0000 C   0  0  3  0  0  0  0  0  0  0  0  0
   -2.0648   -3.4932    0.0000 C   0  0  3  0  0  0  0  0  0  0  0  0
   -4.1484    3.6484    0.0000 C   0  0  3  0  0  0  0  0  0  0  0  0
   -0.8464    3.3610    0.0000 C   0  0  3  0  0  0  0  0  0  0  0  0
    0.2461   -0.9524    0.0000 C   0  0  3  0  0  0  0  0  0  0  0  0
   -5.1400   -0.8340    0.0000 C   0  0  3  0  0  0  0  0  0  0  0  0
   -0.7573   -2.5816    0.0000 C   0  0  3  0  0  0  0  0  0  0  0  0
    0.8003   -1.5699    0.0000 C   0  0  3  0  0  0  0  0  0  0  0  0
   -3.2470   -3.1806    0.0000 C   0  0  3  0  0  0  0  0  0  0  0  0
   -0.3850    1.8720    0.0000 C   0  0  3  0  0  0  0  0  0  0  0  0
   -5.5717   -0.1228    0.0000 C   0  0  3  0  0  0  0  0  0  0  0  0
    0.8527   -1.0822    0.0000 C   0  0  3  0  0  0  0  0  0  0  0  0
   -4.9097    2.2481    0.0000 C   0  0  3  0  0  0  0  0  0  0  0  0
   -5.7119   -0.5929    0.0000 C   0  0  3  0  0  0  0  0  0  0  0  0
   -4.0584   -3.0076    0.0000 C   0  0  3  0  0  0  0  0  0  0  0  0
   -2.4121    3.0623    0.0000 C   0  0  3  0  0  0  0  0  0  0  0  0
    0.3300    1.4510    0.0000 C   0  0  3  0  0  0  0  0  0  0  0  0
   -1.2842   -3.2256    0.0000 C   0  0  3  0  0  0  0  0  0  0  0  0
   -4.7268    3.0598    0.0000 C   0  0  3  0  0  0  0  0  0  0  0  0
   -1.6683    3.4353    0.0000 C   0  0  3  0  0  0  0  0  0  0  0  0
   -0.7943   -3.2012    0.0000 C   0  0  3  0  0  0  0  0  0  0  0  0
   -3.8138   -3.4327    0.0000 C   0  0  3  0  0  0  0  0  0  0  0  0
    0.2325    1.9317    0.0000 C   0  0  3  0  0  0  0  0  0  0  0  0
   -5.1539    2.8187    0.0000 C   0  0  3  0  0  0  0  0  0  0  0  0
   -2.1256    3.6129    0.0000 C   0  0  3  0  0  0  0  0  0  0  0  0
    1.3460   -0.7975    0.0000 C   0  0  0  0  0  0  0  0  0  0  0  0
   -6.2018   -0.8832    0.0000 C   0  0  0  0  0  0  0  0  0  0  0  0
   -0.2248   -3.1947    0.0000 C   0  0  0  0  0  0  0  0  0  0  0  0
   -3.6601   -3.9811    0.0000 C   0  0  0  0  0  0  0  0  0  0  0  0
    0.5116    2.4281    0.0000 C   0  0  0  0  0  0  0  0  0  0  0  0
   -5.7234    2.8122    0.0000 C   0  0  0  0  0  0  0  0  0  0  0  0
   -2.6220    3.8920    0.0000 C   0  0  0  0  0  0  0  0  0  0  0  0
    2.3324   -0.7975    0.0000 C   0  0  0  0  0  0  0  0  0  0  0  0
   -7.1882   -0.8945    0.0000 C   0  0  0  0  0  0  0  0  0  0  0  0
    2.8256   -1.0822    0.0000 C   0  0  0  0  0  0  0  0  0  0  0  0
   -7.6845   -0.6154    0.0000 C   0  0  3  0  0  0  0  0  0  0  0  0
    2.8256   -1.6518    0.0000 C   0  0  0  0  0  0  0  0  0  0  0  0
   -7.6910   -0.0458    0.0000 C   0  0  0  0  0  0  0  0  0  0  0  0
    3.8120   -1.0822    0.0000 C   0  0  0  0  0  0  0  0  0  0  0  0
   -8.7440   -0.9057    0.0000 C   0  0  0  0  0  0  0  0  0  0  0  0
    4.3051   -0.7975    0.0000 C   0  0  0  0  0  0  0  0  0  0  0  0
    4.7984   -1.0822    0.0000 C   0  0  0  0  0  0  0  0  0  0  0  0
    5.7848   -1.0822    0.0000 C   0  0  0  0  0  0  0  0  0  0  0  0
    6.2780   -0.7975    0.0000 C   0  0  0  0  0  0  0  0  0  0  0  0
    7.2644   -0.7975    0.0000 C   0  0  0  0  0  0  0  0  0  0  0  0
    7.7576   -1.0822    0.0000 C   0  0  0  0  0  0  0  0  0  0  0  0
    8.2508   -0.7975    0.0000 C   0  0  0  0  0  0  0  0  0  0  0  0
    8.7440   -1.0822    0.0000 C   0  0  0  0  0  0  0  0  0  0  0  0
    3.3187   -0.7975    0.0000 H   0  0  0  0  0  0  0  0  0  0  0  0
  1 80  1  0  0  0  0
  1 87  1  0  0  0  0
  2 81  1  0  0  0  0
  2 88  1  0  0  0  0
 45  3  1  6  0  0  0
  3 55  1  0  0  0  0
 46  4  1  6  0  0  0
  4 54  1  0  0  0  0
 47  5  1  6  0  0  0
  5 52  1  0  0  0  0
 49  6  1  6  0  0  0
  6 53  1  0  0  0  0
 48  7  1  6  0  0  0
  7 56  1  0  0  0  0
 50  8  1  6  0  0  0
  8 58  1  0  0  0  0
 51  9  1  6  0  0  0
  9 57  1  0  0  0  0
 52 10  1  6  0  0  0
 10 66  1  0  0  0  0
 53 11  1  6  0  0  0
 11 68  1  0  0  0  0
 54 12  1  6  0  0  0
 12 76  1  0  0  0  0
 56 13  1  6  0  0  0
 13 75  1  0  0  0  0
 55 14  1  6  0  0  0
 14 77  1  0  0  0  0
 57 15  1  6  0  0  0
 15 78  1  0  0  0  0
 58 16  1  6  0  0  0
 16 79  1  0  0  0  0
 59 17  1  1  0  0  0
 18 60  1  0  0  0  0
 19 61  1  0  0  0  0
 20 62  1  0  0  0  0
 63 21  1  1  0  0  0
 64 22  1  1  0  0  0
 65 23  1  6  0  0  0
 24 67  1  0  0  0  0
 25 69  1  0  0  0  0
 26 70  1  0  0  0  0
 27 71  1  0  0  0  0
 72 28  1  6  0  0  0
 73 29  1  6  0  0  0
 74 30  1  6  0  0  0
 31 82  1  0  0  0  0
 32 83  1  0  0  0  0
 33 84  1  0  0  0  0
 34 85  1  0  0  0  0
 35 86  1  0  0  0  0
 36 91  2  0  0  0  0
 37 91  1  0  0  0  0
 38 92  2  0  0  0  0
 39 92  1  0  0  0  0
 40 93  2  0  0  0  0
 41 96  1  0  0  0  0
 41 97  1  0  0  0  0
 42 98  1  0  0  0  0
 42 99  1  0  0  0  0
 43101  2  0  0  0  0
 90 44  1  1  0  0  0
 44 94  1  0  0  0  0
 45 59  1  0  0  0  0
 45 66  1  0  0  0  0
 46 60  1  0  0  0  0
 46 68  1  0  0  0  0
 47 61  1  0  0  0  0
 47 75  1  0  0  0  0
 48 63  1  0  0  0  0
 48 76  1  0  0  0  0
 49 67  1  0  0  0  0
 49 78  1  0  0  0  0
 50 64  1  0  0  0  0
 50 77  1  0  0  0  0
 51 70  1  0  0  0  0
 51 79  1  0  0  0  0
 52 62  1  0  0  0  0
 53 65  1  0  0  0  0
 54 69  1  0  0  0  0
 55 71  1  0  0  0  0
 56 72  1  0  0  0  0
 57 73  1  0  0  0  0
 58 74  1  0  0  0  0
 59 62  1  0  0  0  0
 60 65  1  0  0  0  0
 61 72  1  0  0  0  0
 63 69  1  0  0  0  0
 64 71  1  0  0  0  0
 66 80  1  0  0  0  0
 67 73  1  0  0  0  0
 68 81  1  0  0  0  0
 70 74  1  0  0  0  0
 75 82  1  0  0  0  0
 76 83  1  0  0  0  0
 77 84  1  0  0  0  0
 78 85  1  0  0  0  0
 79 86  1  0  0  0  0
 89 87  1  1  0  0  0
 88 90  1  0  0  0  0
 89 91  1  0  0  0  0
 89103  1  0  0  0  0
 90 92  1  0  0  0  0
 93 95  1  0  0  0  0
 93103  1  0  0  0  0
 95 96  1  0  0  0  0
 97 98  1  0  0  0  0
 99100  1  0  0  0  0
100101  1  0  0  0  0
101102  1  0  0  0  0
M  END
> <PUBCHEM_COMPOUND_ID_TYPE>
0

> <PUBCHEM_TOTAL_CHARGE>
0

> <PUBCHEM_SUBSTANCE_ID>
310938721

> <PUBCHEM_SUBSTANCE_VERSION>
1

> <PUBCHEM_EXT_DATASOURCE_NAME>
4488

> <PUBCHEM_EXT_DATASOURCE_REGID>
SCHEMBL16116635

> <PUBCHEM_SUBSTANCE_COMMENT>
InChI=1S/C58H98NO41S2/c1-18(65)3-5-85-7-8-86-6-4-28(66)103-27(51(83)84)17-102-16-26-49-35(73)42(80)58(93-26)98-47-24(13-64)89-54(38(76)31(47)69)96-44-21(10-61)90-55(39(77)32(44)70)99-48-25(15-101-14-19(59-2)50(81)82)92-57(41(79)34(48)72)97-46-23(12-63)88-53(37(75)30(46)68)94-43-20(9-60)87-52(36(74)29(43)67)95-45-22(11-62)91-56(100-49)40(78)33(45)71/h19-27,29-49,52-64,67-80H,3-17,103H2,1-2H3,(H,81,82)(H,83,84)/t19-,20?,21?,22?,23?,24?,25?,26?,27?,29?,30?,31?,32-,33-,34?,35-,36+,37+,38+,39?,40?,41+,42?,43-,44-,45-,46-,47-,48-,49-,52-,53-,54+,55+,56-,57+,58-/m1/s1
InChIKey=GCHOTBPXQZOVEG-SCKVZPDUSA-N

> <PUBCHEM_SUBSTANCE_SYNONYM>
SCHEMBL16116635

> <PUBCHEM_XREF_EXT_ID>
SCHEMBL16116635

> <PUBCHEM_EXT_DATASOURCE_URL>
https://www.surechembl.org/

> <PUBCHEM_EXT_SUBSTANCE_URL>
https://www.surechembl.org/chemical/SCHEMBL16116635

> <PUBCHEM_COORDINATE_TYPE>
1
3

> <PUBCHEM_BONDANNOTATIONS>
52  10  6
53  11  6
54  12  6
56  13  6
55  14  6
57  15  6
58  16  6
59  17  5
63  21  5
64  22  5
65  23  6
72  28  6
73  29  6
45  3  6
74  30  6
46  4  6
90  44  5
47  5  6
49  6  6
48  7  6
50  8  6
89  87  5
51  9  6

$$$$
