310947237
  -OEChem-07211613022D

 16 17  0     0  0  0  0  0  0999 V2000
   -2.4470    0.0141    0.0000 O   0  0  0  0  0  0  0  0  0  0  0  0
   -1.6220    1.6641    0.0000 O   0  0  0  0  0  0  0  0  0  0  0  0
   -2.6605    2.4609    0.0000 O   0  0  0  0  0  0  0  0  0  0  0  0
   -2.4470    1.6641    0.0000 N   0  3  0  0  0  0  0  0  0  0  0  0
   -3.1614    0.4266    0.0000 C   0  0  0  0  0  0  0  0  0  0  0  0
   -3.1614    1.2516    0.0000 C   0  0  0  0  0  0  0  0  0  0  0  0
   -2.4470   -0.8109    0.0000 C   0  0  0  0  0  0  0  0  0  0  0  0
   -3.8759    0.0141    0.0000 C   0  0  0  0  0  0  0  0  0  0  0  0
   -3.8759    1.6641    0.0000 C   0  0  0  0  0  0  0  0  0  0  0  0
   -4.5904    0.4266    0.0000 C   0  0  0  0  0  0  0  0  0  0  0  0
   -4.5904    1.2516    0.0000 C   0  0  0  0  0  0  0  0  0  0  0  0
   -3.1614   -1.2234    0.0000 C   0  0  0  0  0  0  0  0  0  0  0  0
   -1.7325   -1.2234    0.0000 C   0  0  0  0  0  0  0  0  0  0  0  0
   -3.1614   -2.0484    0.0000 C   0  0  0  0  0  0  0  0  0  0  0  0
   -1.7325   -2.0484    0.0000 C   0  0  0  0  0  0  0  0  0  0  0  0
   -2.4470   -2.4609    0.0000 C   0  0  0  0  0  0  0  0  0  0  0  0
  1  5  1  0  0  0  0
  1  7  1  0  0  0  0
  2  4  2  0  0  0  0
  3  4  1  0  0  0  0
  4  6  1  0  0  0  0
  5  6  1  0  0  0  0
  5  8  2  0  0  0  0
  6  9  2  0  0  0  0
  7 12  2  0  0  0  0
  7 13  1  0  0  0  0
  8 10  1  0  0  0  0
  9 11  1  0  0  0  0
 10 11  2  0  0  0  0
 12 14  1  0  0  0  0
 13 15  2  0  0  0  0
 14 16  2  0  0  0  0
 15 16  1  0  0  0  0
M  CHG  1   4   1
M  END
> <PUBCHEM_COMPOUND_ID_TYPE>
0

> <PUBCHEM_TOTAL_CHARGE>
1

> <PUBCHEM_SUBSTANCE_ID>
310947237

> <PUBCHEM_SUBSTANCE_VERSION>
1

> <PUBCHEM_EXT_DATASOURCE_NAME>
4488

> <PUBCHEM_EXT_DATASOURCE_REGID>
SCHEMBL16125392

> <PUBCHEM_SUBSTANCE_COMMENT>
InChI=1S/C12H10NO3/c14-13(15)11-8-4-5-9-12(11)16-10-6-2-1-3-7-10/h1-9H,(H,14,15)/q+1
InChIKey=VNBYCLSWVOMAKV-UHFFFAOYSA-N

> <PUBCHEM_SUBSTANCE_SYNONYM>
SCHEMBL16125392

> <PUBCHEM_XREF_EXT_ID>
SCHEMBL16125392

> <PUBCHEM_EXT_DATASOURCE_URL>
https://www.surechembl.org/

> <PUBCHEM_EXT_SUBSTANCE_URL>
https://www.surechembl.org/chemical/SCHEMBL16125392

> <PUBCHEM_CID_ASSOCIATIONS>
16661  1

> <PUBCHEM_COORDINATE_TYPE>
1
3

$$$$
