310939472
  -OEChem-07211613022D

 50 54  0     1  0  0  0  0  0999 V2000
   -1.9363  -10.2117    0.0000 S   0  0  0  0  0  0  0  0  0  0  0  0
    3.5072   -8.7531    0.0000 F   0  0  0  0  0  0  0  0  0  0  0  0
    1.4043  -12.7526    0.0000 O   0  0  0  0  0  0  0  0  0  0  0  0
    2.9438  -10.3561    0.0000 O   0  0  0  0  0  0  0  0  0  0  0  0
    3.1987  -11.9657    0.0000 O   0  0  0  0  0  0  0  0  0  0  0  0
   -0.5477  -12.4506    0.0000 O   0  0  0  0  0  0  0  0  0  0  0  0
   -0.5073   -7.7367    0.0000 N   0  0  0  0  0  0  0  0  0  0  0  0
   -1.2218   -8.9742    0.0000 N   0  0  0  0  0  0  0  0  0  0  0  0
    0.9918  -10.0541    0.0000 N   0  0  0  0  0  0  0  0  0  0  0  0
    0.9918   -8.7192    0.0000 N   0  0  0  0  0  0  0  0  0  0  0  0
   -0.5073  -10.2117    0.0000 N   0  0  0  0  0  0  0  0  0  0  0  0
    1.4767   -9.3867    0.0000 N   0  0  0  0  0  0  0  0  0  0  0  0
    1.0322   -7.3242    0.0000 C   0  0  3  0  0  0  0  0  0  0  0  0
    0.2072   -7.3242    0.0000 C   0  0  3  0  0  0  0  0  0  0  0  0
    0.6197   -6.6097    0.0000 C   0  0  0  0  0  0  0  0  0  0  0  0
    1.8572   -7.3242    0.0000 C   0  0  0  0  0  0  0  0  0  0  0  0
    2.2697   -8.0387    0.0000 C   0  0  0  0  0  0  0  0  0  0  0  0
    2.2697   -6.6097    0.0000 C   0  0  0  0  0  0  0  0  0  0  0  0
   -0.5073   -8.5617    0.0000 C   0  0  0  0  0  0  0  0  0  0  0  0
    3.0947   -8.0387    0.0000 C   0  0  0  0  0  0  0  0  0  0  0  0
    3.0947   -6.6097    0.0000 C   0  0  0  0  0  0  0  0  0  0  0  0
    0.2072   -8.9742    0.0000 C   0  0  0  0  0  0  0  0  0  0  0  0
    3.5072   -7.3242    0.0000 C   0  0  0  0  0  0  0  0  0  0  0  0
    0.2072   -9.7992    0.0000 C   0  0  0  0  0  0  0  0  0  0  0  0
   -1.2218   -9.7992    0.0000 C   0  0  0  0  0  0  0  0  0  0  0  0
    1.4043  -10.7686    0.0000 C   0  0  3  0  0  0  0  0  0  0  0  0
    4.3322   -7.3242    0.0000 C   0  0  0  0  0  0  0  0  0  0  0  0
    1.8168  -12.0381    0.0000 C   0  0  3  0  0  0  0  0  0  0  0  0
    2.2293  -10.7686    0.0000 C   0  0  3  0  0  0  0  0  0  0  0  0
    1.1493  -11.5532    0.0000 C   0  0  0  0  0  0  0  0  0  0  0  0
    2.4842  -11.5532    0.0000 C   0  0  3  0  0  0  0  0  0  0  0  0
   -2.6507   -9.7992    0.0000 C   0  0  0  0  0  0  0  0  0  0  0  0
   -3.3652  -10.2117    0.0000 C   0  0  0  0  0  0  0  0  0  0  0  0
    0.6898  -13.1651    0.0000 C   0  0  0  0  0  0  0  0  0  0  0  0
   -0.1352  -13.1651    0.0000 C   0  0  0  0  0  0  0  0  0  0  0  0
   -4.0797   -9.7992    0.0000 C   0  0  0  0  0  0  0  0  0  0  0  0
    1.4447   -8.0387    0.0000 H   1  0  0  0  0  0  0  0  0  0  0  0
   -0.5073   -6.9117    0.0000 H   1  0  0  0  0  0  0  0  0  0  0  0
    1.0322   -5.8952    0.0000 H   1  0  0  0  0  0  0  0  0  0  0  0
    0.2072   -5.8952    0.0000 H   1  0  0  0  0  0  0  0  0  0  0  0
    1.8572   -8.7531    0.0000 H   1  0  0  0  0  0  0  0  0  0  0  0
    1.8572   -5.8952    0.0000 H   1  0  0  0  0  0  0  0  0  0  0  0
    3.5072   -5.8952    0.0000 H   1  0  0  0  0  0  0  0  0  0  0  0
    2.2293  -12.7526    0.0000 H   1  0  0  0  0  0  0  0  0  0  0  0
   -2.2382   -9.0847    0.0000 H   1  0  0  0  0  0  0  0  0  0  0  0
   -3.0632   -9.0847    0.0000 H   1  0  0  0  0  0  0  0  0  0  0  0
   -2.9527  -10.9262    0.0000 H   1  0  0  0  0  0  0  0  0  0  0  0
   -3.7777  -10.9262    0.0000 H   1  0  0  0  0  0  0  0  0  0  0  0
    1.4043  -13.5776    0.0000 H   1  0  0  0  0  0  0  0  0  0  0  0
    0.6898  -13.9901    0.0000 H   1  0  0  0  0  0  0  0  0  0  0  0
  1 25  1  0  0  0  0
  1 32  1  0  0  0  0
  2 20  1  0  0  0  0
 28  3  1  1  0  0  0
  3 34  1  0  0  0  0
 29  4  1  6  0  0  0
 31  5  1  6  0  0  0
  6 35  1  0  0  0  0
 14  7  1  6  0  0  0
  7 19  1  0  0  0  0
  8 19  1  0  0  0  0
  8 25  2  0  0  0  0
  9 12  1  0  0  0  0
  9 24  1  0  0  0  0
  9 26  1  0  0  0  0
 10 12  2  0  0  0  0
 10 22  1  0  0  0  0
 11 24  2  0  0  0  0
 11 25  1  0  0  0  0
 13 14  1  0  0  0  0
 13 15  1  0  0  0  0
 13 16  1  0  0  0  0
 13 37  1  6  0  0  0
 14 15  1  0  0  0  0
 14 38  1  1  0  0  0
 15 39  1  0  0  0  0
 15 40  1  0  0  0  0
 16 17  2  0  0  0  0
 16 18  1  0  0  0  0
 17 20  1  0  0  0  0
 17 41  1  0  0  0  0
 18 21  2  0  0  0  0
 18 42  1  0  0  0  0
 19 22  2  0  0  0  0
 20 23  2  0  0  0  0
 21 23  1  0  0  0  0
 21 43  1  0  0  0  0
 22 24  1  0  0  0  0
 23 27  1  0  0  0  0
 26 29  1  0  0  0  0
 26 30  1  1  0  0  0
 28 30  1  0  0  0  0
 28 31  1  0  0  0  0
 28 44  1  6  0  0  0
 29 31  1  0  0  0  0
 32 33  1  0  0  0  0
 32 45  1  0  0  0  0
 32 46  1  0  0  0  0
 33 36  1  0  0  0  0
 33 47  1  0  0  0  0
 33 48  1  0  0  0  0
 34 35  1  0  0  0  0
 34 49  1  0  0  0  0
 34 50  1  0  0  0  0
M  ISO  8  37   2  38   2  39   2  40   2  41   2  42   2  43   2  44   2
M  ISO  6  45   2  46   2  47   2  48   2  49   2  50   2
M  END
> <PUBCHEM_COMPOUND_ID_TYPE>
0

> <PUBCHEM_TOTAL_CHARGE>
0

> <PUBCHEM_SUBSTANCE_ID>
310939472

> <PUBCHEM_SUBSTANCE_VERSION>
1

> <PUBCHEM_EXT_DATASOURCE_NAME>
4488

> <PUBCHEM_EXT_DATASOURCE_REGID>
SCHEMBL16117399

> <PUBCHEM_SUBSTANCE_COMMENT>
InChI=1S/C24H31FN6O4S/c1-3-8-36-24-27-22(26-16-10-14(16)13-5-4-12(2)15(25)9-13)19-23(28-24)31(30-29-19)17-11-18(35-7-6-32)21(34)20(17)33/h4-5,9,14,16-18,20-21,32-34H,3,6-8,10-11H2,1-2H3,(H,26,27,28)/t14-,16+,17+,18+,20-,21+/m0/s1/i3D2,4D,5D,7D2,8D2,9D,10D2,14D,16D,18D
InChIKey=MZJNEZNNQSOUEW-RKWJKZQPSA-N

> <PUBCHEM_SUBSTANCE_SYNONYM>
SCHEMBL16117399

> <PUBCHEM_XREF_EXT_ID>
SCHEMBL16117399

> <PUBCHEM_EXT_DATASOURCE_URL>
https://www.surechembl.org/

> <PUBCHEM_EXT_SUBSTANCE_URL>
https://www.surechembl.org/chemical/SCHEMBL16117399

> <PUBCHEM_CID_ASSOCIATIONS>
117606786  1

> <PUBCHEM_COORDINATE_TYPE>
1
3

> <PUBCHEM_BONDANNOTATIONS>
13  37  6
14  38  5
26  30  5
28  44  6
28  3  5
29  4  6
31  5  6
14  7  6

$$$$
