310938722
  -OEChem-07211613022D

187200  0     1  0  0  0  0  0999 V2000
    3.5302    1.7956    0.0000 S   0  0  0  0  0  0  0  0  0  0  0  0
   -7.0456    3.8193    0.0000 S   0  0  0  0  0  0  0  0  0  0  0  0
    2.1560   -9.3688    0.0000 S   0  0  0  0  0  0  0  0  0  0  0  0
  -12.2229   -5.8400    0.0000 S   0  0  0  0  0  0  0  0  0  0  0  0
    5.7561   -8.9534    0.0000 O   0  0  0  0  0  0  0  0  0  0  0  0
   -8.5804   -6.4101    0.0000 O   0  0  0  0  0  0  0  0  0  0  0  0
   -5.1058    2.4813    0.0000 O   0  0  0  0  0  0  0  0  0  0  0  0
    2.2976    3.6298    0.0000 O   0  0  0  0  0  0  0  0  0  0  0  0
    0.6291    0.7121    0.0000 O   0  0  0  0  0  0  0  0  0  0  0  0
   -4.8445    5.7948    0.0000 O   0  0  0  0  0  0  0  0  0  0  0  0
   -2.6609    0.2377    0.0000 O   0  0  0  0  0  0  0  0  0  0  0  0
    1.0603    6.7338    0.0000 O   0  0  0  0  0  0  0  0  0  0  0  0
   -2.1155    7.7544    0.0000 O   0  0  0  0  0  0  0  0  0  0  0  0
    2.2206    0.9750    0.0000 O   0  0  0  0  0  0  0  0  0  0  0  0
   -6.1593    4.9165    0.0000 O   0  0  0  0  0  0  0  0  0  0  0  0
   -5.2265    0.9056    0.0000 O   0  0  0  0  0  0  0  0  0  0  0  0
   -1.5021   -0.8669    0.0000 O   0  0  0  0  0  0  0  0  0  0  0  0
    3.0749    5.0067    0.0000 O   0  0  0  0  0  0  0  0  0  0  0  0
   -3.6131    8.1448    0.0000 O   0  0  0  0  0  0  0  0  0  0  0  0
    0.4939    8.2364    0.0000 O   0  0  0  0  0  0  0  0  0  0  0  0
    1.7965    3.0119    0.0000 O   0  0  0  0  0  0  0  0  0  0  0  0
   -4.9148    3.2534    0.0000 O   0  0  0  0  0  0  0  0  0  0  0  0
   -0.1612    0.7231    0.0000 O   0  0  0  0  0  0  0  0  0  0  0  0
   -3.1498    0.8647    0.0000 O   0  0  0  0  0  0  0  0  0  0  0  0
    1.0066    1.0776    0.0000 O   0  0  0  0  0  0  0  0  0  0  0  0
   -5.0128    5.3380    0.0000 O   0  0  0  0  0  0  0  0  0  0  0  0
    1.2223    5.9574    0.0000 O   0  0  0  0  0  0  0  0  0  0  0  0
   -4.1185    6.1301    0.0000 O   0  0  0  0  0  0  0  0  0  0  0  0
   -4.5249    1.9210    0.0000 O   0  0  0  0  0  0  0  0  0  0  0  0
   -2.1728    0.1561    0.0000 O   0  0  0  0  0  0  0  0  0  0  0  0
   -1.4100    7.3931    0.0000 O   0  0  0  0  0  0  0  0  0  0  0  0
    2.2327    4.1286    0.0000 O   0  0  0  0  0  0  0  0  0  0  0  0
   -2.5645    7.5199    0.0000 O   0  0  0  0  0  0  0  0  0  0  0  0
    0.6456    7.0226    0.0000 O   0  0  0  0  0  0  0  0  0  0  0  0
    6.0687   -4.5991    0.0000 O   0  0  0  0  0  0  0  0  0  0  0  0
   -7.1515   -2.2851    0.0000 O   0  0  0  0  0  0  0  0  0  0  0  0
    4.6884   -4.9690    0.0000 O   0  0  0  0  0  0  0  0  0  0  0  0
   -8.5804   -2.3817    0.0000 O   0  0  0  0  0  0  0  0  0  0  0  0
   -0.1817   -1.4822    0.0000 O   0  0  0  0  0  0  0  0  0  0  0  0
   -4.8761   -0.5098    0.0000 O   0  0  0  0  0  0  0  0  0  0  0  0
    3.3777    6.4335    0.0000 O   0  0  0  0  0  0  0  0  0  0  0  0
   -5.0726    8.1208    0.0000 O   0  0  0  0  0  0  0  0  0  0  0  0
   -0.4243    9.3688    0.0000 O   0  0  0  0  0  0  0  0  0  0  0  0
    7.4680   -4.3004    0.0000 O   0  0  0  0  0  0  0  0  0  0  0  0
   -5.7225   -2.2851    0.0000 O   0  0  0  0  0  0  0  0  0  0  0  0
    9.3873   -6.4491    0.0000 O   0  0  0  0  0  0  0  0  0  0  0  0
   -4.4247   -4.9309    0.0000 O   0  0  0  0  0  0  0  0  0  0  0  0
    6.9807   -4.1731    0.0000 O   0  0  0  0  0  0  0  0  0  0  0  0
   -8.5317   -1.9152    0.0000 O   0  0  0  0  0  0  0  0  0  0  0  0
    4.2447    0.5581    0.0000 O   0  0  0  0  0  0  0  0  0  0  0  0
   -7.4641    2.8089    0.0000 O   0  0  0  0  0  0  0  0  0  0  0  0
    6.3881    0.9706    0.0000 O   0  0  0  0  0  0  0  0  0  0  0  0
    8.5315    2.2081    0.0000 O   0  0  0  0  0  0  0  0  0  0  0  0
   10.6749    1.7956    0.0000 O   0  0  0  0  0  0  0  0  0  0  0  0
   12.8184    3.0331    0.0000 O   0  0  0  0  0  0  0  0  0  0  0  0
    4.3186   -6.3492    0.0000 N   0  0  0  0  0  0  0  0  0  0  0  0
   -9.2949   -3.5226    0.0000 N   0  0  0  0  0  0  0  0  0  0  0  0
    1.7435   -8.0993    0.0000 N   0  0  0  0  0  0  0  0  0  0  0  0
  -12.2229   -4.5051    0.0000 N   0  0  0  0  0  0  0  0  0  0  0  0
    5.3717    0.2561    0.0000 N   0  0  0  0  0  0  0  0  0  0  0  0
   -8.8443    2.4391    0.0000 N   0  0  0  0  0  0  0  0  0  0  0  0
    6.3394   -8.3700    0.0000 C   0  0  3  0  0  0  0  0  0  0  0  0
   -7.8659   -5.9976    0.0000 C   0  0  3  0  0  0  0  0  0  0  0  0
    5.5425   -8.1565    0.0000 C   0  0  3  0  0  0  0  0  0  0  0  0
   -8.5804   -5.5851    0.0000 C   0  0  3  0  0  0  0  0  0  0  0  0
    5.3290   -7.3596    0.0000 C   0  0  0  0  0  0  0  0  0  0  0  0
   -8.5804   -4.7601    0.0000 C   0  0  0  0  0  0  0  0  0  0  0  0
    6.9228   -7.7867    0.0000 C   0  0  0  0  0  0  0  0  0  0  0  0
   -7.1515   -5.5851    0.0000 C   0  0  0  0  0  0  0  0  0  0  0  0
    6.7519   -9.0845    0.0000 C   0  0  0  0  0  0  0  0  0  0  0  0
   -7.6524   -6.7945    0.0000 C   0  0  0  0  0  0  0  0  0  0  0  0
    4.5321   -7.1461    0.0000 C   0  0  3  0  0  0  0  0  0  0  0  0
   -9.2949   -4.3476    0.0000 C   0  0  3  0  0  0  0  0  0  0  0  0
    2.3984    2.5602    0.0000 C   0  0  3  0  0  0  0  0  0  0  0  0
   -5.6506    3.4080    0.0000 C   0  0  3  0  0  0  0  0  0  0  0  0
   -0.1469   -0.0279    0.0000 C   0  0  3  0  0  0  0  0  0  0  0  0
   -3.7261    0.3775    0.0000 C   0  0  3  0  0  0  0  0  0  0  0  0
   -4.4660    6.7967    0.0000 C   0  0  3  0  0  0  0  0  0  0  0  0
    1.9569    6.1370    0.0000 C   0  0  3  0  0  0  0  0  0  0  0  0
   -1.0899    8.0763    0.0000 C   0  0  3  0  0  0  0  0  0  0  0  0
    1.4686    0.6445    0.0000 C   0  0  3  0  0  0  0  0  0  0  0  0
   -5.6145    5.5351    0.0000 C   0  0  3  0  0  0  0  0  0  0  0  0
   -5.3812    1.7155    0.0000 C   0  0  3  0  0  0  0  0  0  0  0  0
    2.8604    4.2140    0.0000 C   0  0  3  0  0  0  0  0  0  0  0  0
   -2.2289   -0.4748    0.0000 C   0  0  3  0  0  0  0  0  0  0  0  0
   -2.7916    8.1114    0.0000 C   0  0  3  0  0  0  0  0  0  0  0  0
    0.9762    7.5651    0.0000 C   0  0  3  0  0  0  0  0  0  0  0  0
    7.7197   -8.0002    0.0000 C   0  0  0  0  0  0  0  0  0  0  0  0
   -6.4370   -5.9976    0.0000 C   0  0  0  0  0  0  0  0  0  0  0  0
    1.6393    2.2290    0.0000 C   0  0  3  0  0  0  0  0  0  0  0  0
   -5.1021    4.0271    0.0000 C   0  0  3  0  0  0  0  0  0  0  0  0
   -0.8774    0.3635    0.0000 C   0  0  3  0  0  0  0  0  0  0  0  0
   -3.8810    1.1907    0.0000 C   0  0  3  0  0  0  0  0  0  0  0  0
    1.7623    1.4085    0.0000 C   0  0  3  0  0  0  0  0  0  0  0  0
   -5.5576    4.7193    0.0000 C   0  0  3  0  0  0  0  0  0  0  0  0
    1.7355    5.3402    0.0000 C   0  0  3  0  0  0  0  0  0  0  0  0
    2.1013    1.7956    0.0000 C   0  0  3  0  0  0  0  0  0  0  0  0
   -3.6372    6.7643    0.0000 C   0  0  3  0  0  0  0  0  0  0  0  0
   -5.7042    4.2281    0.0000 C   0  0  3  0  0  0  0  0  0  0  0  0
   -4.7022    1.2569    0.0000 C   0  0  3  0  0  0  0  0  0  0  0  0
   -1.4460   -0.2357    0.0000 C   0  0  3  0  0  0  0  0  0  0  0  0
   -0.6075    7.4049    0.0000 C   0  0  3  0  0  0  0  0  0  0  0  0
    2.4505    4.9217    0.0000 C   0  0  3  0  0  0  0  0  0  0  0  0
   -3.3893    7.5492    0.0000 C   0  0  3  0  0  0  0  0  0  0  0  0
    0.1632    7.6939    0.0000 C   0  0  3  0  0  0  0  0  0  0  0  0
    3.9488   -7.7295    0.0000 C   0  0  0  0  0  0  0  0  0  0  0  0
  -10.0093   -4.7601    0.0000 C   0  0  0  0  0  0  0  0  0  0  0  0
   -0.9341   -0.2641    0.0000 C   0  0  3  0  0  0  0  0  0  0  0  0
   -4.4018    0.8398    0.0000 C   0  0  3  0  0  0  0  0  0  0  0  0
    2.3629    5.4292    0.0000 C   0  0  3  0  0  0  0  0  0  0  0  0
   -3.8607    7.3561    0.0000 C   0  0  3  0  0  0  0  0  0  0  0  0
   -0.2805    7.9471    0.0000 C   0  0  3  0  0  0  0  0  0  0  0  0
    8.3030   -7.4168    0.0000 C   0  0  0  0  0  0  0  0  0  0  0  0
   -5.7225   -5.5851    0.0000 C   0  0  0  0  0  0  0  0  0  0  0  0
    4.9020   -5.7658    0.0000 C   0  0  0  0  0  0  0  0  0  0  0  0
   -8.5804   -3.1101    0.0000 C   0  0  0  0  0  0  0  0  0  0  0  0
    3.1519   -7.5159    0.0000 C   0  0  0  0  0  0  0  0  0  0  0  0
  -10.7238   -4.3476    0.0000 C   0  0  0  0  0  0  0  0  0  0  0  0
    7.0791   -5.6095    0.0000 C   0  0  0  0  0  0  0  0  0  0  0  0
   -6.4370   -3.5226    0.0000 C   0  0  0  0  0  0  0  0  0  0  0  0
    2.8158    2.2081    0.0000 C   0  0  0  0  0  0  0  0  0  0  0  0
   -6.2487    3.6058    0.0000 C   0  0  0  0  0  0  0  0  0  0  0  0
    8.0895   -6.6199    0.0000 C   0  0  3  0  0  0  0  0  0  0  0  0
   -5.7225   -4.7601    0.0000 C   0  0  3  0  0  0  0  0  0  0  0  0
    6.2822   -5.3960    0.0000 C   0  0  3  0  0  0  0  0  0  0  0  0
   -7.1515   -3.1101    0.0000 C   0  0  3  0  0  0  0  0  0  0  0  0
   -0.2036   -0.6555    0.0000 C   0  0  0  0  0  0  0  0  0  0  0  0
   -4.2508    0.0298    0.0000 C   0  0  0  0  0  0  0  0  0  0  0  0
    2.5810    6.2220    0.0000 C   0  0  0  0  0  0  0  0  0  0  0  0
   -4.6855    7.3855    0.0000 C   0  0  0  0  0  0  0  0  0  0  0  0
   -0.7625    8.6148    0.0000 C   0  0  0  0  0  0  0  0  0  0  0  0
    7.6625   -5.0262    0.0000 C   0  0  0  0  0  0  0  0  0  0  0  0
   -5.7225   -3.1101    0.0000 C   0  0  0  0  0  0  0  0  0  0  0  0
    5.6988   -5.9794    0.0000 C   0  0  0  0  0  0  0  0  0  0  0  0
   -7.8659   -3.5226    0.0000 C   0  0  0  0  0  0  0  0  0  0  0  0
    8.6729   -6.0366    0.0000 C   0  0  3  0  0  0  0  0  0  0  0  0
   -5.0080   -4.3476    0.0000 C   0  0  3  0  0  0  0  0  0  0  0  0
    8.4593   -5.2397    0.0000 C   0  0  3  0  0  0  0  0  0  0  0  0
   -5.0080   -3.5226    0.0000 C   0  0  3  0  0  0  0  0  0  0  0  0
    2.5685   -8.0993    0.0000 C   0  0  0  0  0  0  0  0  0  0  0  0
  -11.4383   -4.7601    0.0000 C   0  0  0  0  0  0  0  0  0  0  0  0
    4.1623   -8.5263    0.0000 C   0  0  0  0  0  0  0  0  0  0  0  0
  -10.0093   -5.5851    0.0000 C   0  0  0  0  0  0  0  0  0  0  0  0
    2.8234   -8.8839    0.0000 C   0  0  0  0  0  0  0  0  0  0  0  0
  -11.4383   -5.5851    0.0000 C   0  0  0  0  0  0  0  0  0  0  0  0
    6.8656   -6.4064    0.0000 C   0  0  0  0  0  0  0  0  0  0  0  0
    7.6625   -6.1929    0.0000 C   0  0  0  0  0  0  0  0  0  0  0  0
   -6.8495   -4.2370    0.0000 C   0  0  0  0  0  0  0  0  0  0  0  0
   -6.0245   -4.2370    0.0000 C   0  0  0  0  0  0  0  0  0  0  0  0
    7.2645   -6.6199    0.0000 C   0  0  0  0  0  0  0  0  0  0  0  0
   -6.5194   -4.5465    0.0000 C   0  0  0  0  0  0  0  0  0  0  0  0
    1.4886   -8.8839    0.0000 C   0  0  0  0  0  0  0  0  0  0  0  0
  -12.7078   -5.1726    0.0000 C   0  0  0  0  0  0  0  0  0  0  0  0
    9.1738   -4.8272    0.0000 C   0  0  0  0  0  0  0  0  0  0  0  0
   -4.2112   -3.3090    0.0000 C   0  0  0  0  0  0  0  0  0  0  0  0
    6.4812   -3.8846    0.0000 C   0  0  0  0  0  0  0  0  0  0  0  0
   -7.7348   -1.7017    0.0000 C   0  0  0  0  0  0  0  0  0  0  0  0
    4.2447    2.2081    0.0000 C   0  0  0  0  0  0  0  0  0  0  0  0
   -7.7600    4.2318    0.0000 C   0  0  0  0  0  0  0  0  0  0  0  0
    4.9592    1.7956    0.0000 C   0  0  0  0  0  0  0  0  0  0  0  0
   -8.4745    3.8193    0.0000 C   0  0  0  0  0  0  0  0  0  0  0  0
    6.6947   -3.0878    0.0000 C   0  0  0  0  0  0  0  0  0  0  0  0
   -7.5213   -0.9048    0.0000 C   0  0  0  0  0  0  0  0  0  0  0  0
    0.7741   -9.2964    0.0000 C   0  0  0  0  0  0  0  0  0  0  0  0
  -13.5328   -5.1726    0.0000 C   0  0  0  0  0  0  0  0  0  0  0  0
    4.9592    0.9706    0.0000 C   0  0  0  0  0  0  0  0  0  0  0  0
   -8.2610    3.0224    0.0000 C   0  0  0  0  0  0  0  0  0  0  0  0
    6.1113   -2.5044    0.0000 C   0  0  0  0  0  0  0  0  0  0  0  0
   -8.1047   -0.3215    0.0000 C   0  0  0  0  0  0  0  0  0  0  0  0
    6.3881    1.7956    0.0000 C   0  0  0  0  0  0  0  0  0  0  0  0
    6.3249   -1.7075    0.0000 C   0  0  0  0  0  0  0  0  0  0  0  0
   -7.8911    0.4754    0.0000 C   0  0  0  0  0  0  0  0  0  0  0  0
    5.9550   -0.3272    0.0000 C   0  0  0  0  0  0  0  0  0  0  0  0
   -8.2610    1.8557    0.0000 C   0  0  0  0  0  0  0  0  0  0  0  0
   -9.8912    3.6328    0.0000 C   0  0  0  0  0  0  0  0  0  0  0  0
    7.1026    2.2081    0.0000 C   0  0  0  0  0  0  0  0  0  0  0  0
    5.7415   -1.1241    0.0000 C   0  0  0  0  0  0  0  0  0  0  0  0
   -8.4745    1.0588    0.0000 C   0  0  0  0  0  0  0  0  0  0  0  0
    7.8171    1.7956    0.0000 C   0  0  0  0  0  0  0  0  0  0  0  0
    9.2460    1.7956    0.0000 C   0  0  0  0  0  0  0  0  0  0  0  0
    9.9605    2.2081    0.0000 C   0  0  0  0  0  0  0  0  0  0  0  0
   11.3894    2.2081    0.0000 C   0  0  0  0  0  0  0  0  0  0  0  0
   12.1039    1.7956    0.0000 C   0  0  0  0  0  0  0  0  0  0  0  0
   12.8184    2.2081    0.0000 C   0  0  0  0  0  0  0  0  0  0  0  0
   13.5328    1.7956    0.0000 C   0  0  0  0  0  0  0  0  0  0  0  0
    5.6736    2.2081    0.0000 H   0  0  0  0  0  0  0  0  0  0  0  0
   -9.2367    4.1350    0.0000 H   0  0  0  0  0  0  0  0  0  0  0  0
  1121  1  0  0  0  0
  1158  1  0  0  0  0
  2122  1  0  0  0  0
  2159  1  0  0  0  0
  3144  1  0  0  0  0
  3152  1  0  0  0  0
  4145  1  0  0  0  0
  4153  1  0  0  0  0
  5 62  1  0  0  0  0
  5 64  1  0  0  0  0
  6 63  1  0  0  0  0
  6 65  1  0  0  0  0
 75  7  1  6  0  0  0
  7 83  1  0  0  0  0
 74  8  1  6  0  0  0
  8 84  1  0  0  0  0
 76  9  1  6  0  0  0
  9 81  1  0  0  0  0
 78 10  1  6  0  0  0
 10 82  1  0  0  0  0
 77 11  1  6  0  0  0
 11 85  1  0  0  0  0
 79 12  1  6  0  0  0
 12 87  1  0  0  0  0
 80 13  1  6  0  0  0
 86 13  1  6  0  0  0
 81 14  1  6  0  0  0
 14 97  1  0  0  0  0
 82 15  1  6  0  0  0
 15 99  1  0  0  0  0
 83 16  1  6  0  0  0
 16109  1  0  0  0  0
 85 17  1  6  0  0  0
 17108  1  0  0  0  0
 84 18  1  6  0  0  0
 18110  1  0  0  0  0
 19 86  1  0  0  0  0
 19111  1  0  0  0  0
 87 20  1  6  0  0  0
 20112  1  0  0  0  0
 90 21  1  1  0  0  0
 91 22  1  1  0  0  0
 92 23  1  1  0  0  0
 93 24  1  1  0  0  0
 25 94  1  0  0  0  0
 26 95  1  0  0  0  0
 96 27  1  1  0  0  0
 98 28  1  1  0  0  0
 29100  1  0  0  0  0
 30101  1  0  0  0  0
102 31  1  1  0  0  0
 32103  1  0  0  0  0
 33104  1  0  0  0  0
 34105  1  0  0  0  0
125 35  1  1  0  0  0
 35156  1  0  0  0  0
126 36  1  1  0  0  0
 36157  1  0  0  0  0
 37115  2  0  0  0  0
 38116  2  0  0  0  0
 39127  1  0  0  0  0
 40128  1  0  0  0  0
 41129  1  0  0  0  0
 42130  1  0  0  0  0
 43131  1  0  0  0  0
 44132  2  0  0  0  0
 45133  2  0  0  0  0
136 46  1  6  0  0  0
137 47  1  6  0  0  0
 48156  2  0  0  0  0
 49157  2  0  0  0  0
 50166  2  0  0  0  0
 51167  2  0  0  0  0
 52170  2  0  0  0  0
 53179  1  0  0  0  0
 53180  1  0  0  0  0
 54181  1  0  0  0  0
 54182  1  0  0  0  0
 55184  2  0  0  0  0
 56 72  1  0  0  0  0
 56115  1  0  0  0  0
 57 73  1  0  0  0  0
 57116  1  0  0  0  0
 58140  1  0  0  0  0
 58152  2  0  0  0  0
 59141  1  0  0  0  0
 59153  2  0  0  0  0
 60166  1  0  0  0  0
 60173  1  0  0  0  0
 61167  1  0  0  0  0
 61174  1  0  0  0  0
 62 64  1  0  0  0  0
 62 68  1  0  0  0  0
 62 70  1  1  0  0  0
 63 65  1  0  0  0  0
 63 69  1  0  0  0  0
 63 71  1  1  0  0  0
 64 66  1  6  0  0  0
 65 67  1  6  0  0  0
 66 72  1  0  0  0  0
 67 73  1  0  0  0  0
 68 88  1  0  0  0  0
 69 89  1  0  0  0  0
 72106  1  6  0  0  0
 73107  1  6  0  0  0
 74 90  1  0  0  0  0
 74 97  1  0  0  0  0
 75 91  1  0  0  0  0
 75 99  1  0  0  0  0
 76 92  1  0  0  0  0
 76108  1  0  0  0  0
 77 93  1  0  0  0  0
 77109  1  0  0  0  0
 78 98  1  0  0  0  0
 78111  1  0  0  0  0
 79 96  1  0  0  0  0
 79110  1  0  0  0  0
 80102  1  0  0  0  0
 80112  1  0  0  0  0
 81 94  1  0  0  0  0
 82 95  1  0  0  0  0
 83100  1  0  0  0  0
 84103  1  0  0  0  0
 85101  1  0  0  0  0
 86104  1  0  0  0  0
 87105  1  0  0  0  0
 88113  1  0  0  0  0
 89114  1  0  0  0  0
 90 94  1  0  0  0  0
 91 95  1  0  0  0  0
 92101  1  0  0  0  0
 93100  1  0  0  0  0
 96103  1  0  0  0  0
 97121  1  0  0  0  0
 98104  1  0  0  0  0
 99122  1  0  0  0  0
102105  1  0  0  0  0
106117  2  0  0  0  0
106142  1  0  0  0  0
107118  2  0  0  0  0
107143  1  0  0  0  0
108127  1  0  0  0  0
109128  1  0  0  0  0
110129  1  0  0  0  0
111130  1  0  0  0  0
112131  1  0  0  0  0
113123  1  0  0  0  0
114124  1  0  0  0  0
115134  1  0  0  0  0
116135  1  0  0  0  0
117140  1  0  0  0  0
118141  1  0  0  0  0
119125  1  0  0  0  0
119132  1  0  0  0  0
119146  1  0  0  0  0
119147  1  0  0  0  0
120126  1  0  0  0  0
120133  1  0  0  0  0
120148  1  0  0  0  0
120149  1  0  0  0  0
123136  1  0  0  0  0
123150  1  1  0  0  0
124137  1  0  0  0  0
124151  1  1  0  0  0
125134  1  0  0  0  0
126135  1  0  0  0  0
132138  1  0  0  0  0
133139  1  0  0  0  0
136138  1  0  0  0  0
137139  1  0  0  0  0
138154  1  1  0  0  0
139155  1  1  0  0  0
140144  2  0  0  0  0
141145  2  0  0  0  0
152164  1  0  0  0  0
153165  1  0  0  0  0
156162  1  0  0  0  0
157163  1  0  0  0  0
158160  1  0  0  0  0
159161  1  0  0  0  0
160166  1  0  0  0  0
160186  1  0  0  0  0
161167  1  0  0  0  0
161187  1  0  0  0  0
162168  1  0  0  0  0
163169  1  0  0  0  0
168171  1  0  0  0  0
169172  1  0  0  0  0
170176  1  0  0  0  0
170186  1  0  0  0  0
171177  1  0  0  0  0
172178  1  0  0  0  0
173177  1  0  0  0  0
174178  1  0  0  0  0
175187  1  0  0  0  0
176179  1  0  0  0  0
180181  1  0  0  0  0
182183  1  0  0  0  0
183184  1  0  0  0  0
184185  1  0  0  0  0
M  END
> <PUBCHEM_COMPOUND_ID_TYPE>
0

> <PUBCHEM_TOTAL_CHARGE>
0

> <PUBCHEM_SUBSTANCE_ID>
310938722

> <PUBCHEM_SUBSTANCE_VERSION>
1

> <PUBCHEM_EXT_DATASOURCE_NAME>
4488

> <PUBCHEM_EXT_DATASOURCE_REGID>
SCHEMBL16116636

> <PUBCHEM_SUBSTANCE_COMMENT>
InChI=1S/C124H202N6O51S4/c1-56-25-23-31-123(14)80(180-123)41-67(58(3)39-65-50-184-63(8)127-65)129-82(137)43-78(121(10,11)110(158)61(6)87(56)142)171-84(139)27-19-17-21-33-125-112(160)76(186-16)54-182-52-74-108-94(149)101(156)119(169-74)176-106-72(48-134)165-115(97(152)90(106)145)173-103-69(45-131)164-114(96(151)89(103)144)174-104-71(47-133)168-118(100(155)93(104)148)179-109-75(170-120(102(157)95(109)150)177-107-73(49-135)166-116(98(153)91(107)146)175-105-70(46-132)167-117(178-108)99(154)92(105)147)53-183-55-77(187-86(141)30-36-163-38-37-162-35-29-60(5)136)113(161)126-34-22-18-20-28-85(140)172-79-44-83(138)130-68(59(4)40-66-51-185-64(9)128-66)42-81-124(15,181-81)32-24-26-57(2)88(143)62(7)111(159)122(79,12)13/h39-40,50-51,56-57,61-62,67-81,87-109,114-120,131-135,142-157H,17-38,41-49,52-55,186-187H2,1-16H3,(H,125,160)(H,126,161)(H,129,137)(H,130,138)/b58-39+,59-40+/t56-,57-,61+,62+,67-,68-,69?,70?,71?,72?,73?,74?,75?,76?,77?,78-,79-,80-,81-,87-,88-,89-,90-,91-,92-,93-,94-,95-,96?,97?,98?,99?,100?,101?,102?,103-,104-,105-,106-,107-,108-,109-,114-,115-,116-,117-,118-,119-,120-,123+,124+/m1/s1
InChIKey=MGEBBVSDJMFYNO-NJQPWJOZSA-N

> <PUBCHEM_SUBSTANCE_SYNONYM>
SCHEMBL16116636

> <PUBCHEM_XREF_EXT_ID>
SCHEMBL16116636

> <PUBCHEM_EXT_DATASOURCE_URL>
https://www.surechembl.org/

> <PUBCHEM_EXT_SUBSTANCE_URL>
https://www.surechembl.org/chemical/SCHEMBL16116636

> <PUBCHEM_COORDINATE_TYPE>
1
3

> <PUBCHEM_BONDANNOTATIONS>
78  10  6
77  11  6
79  12  6
123  150  5
124  151  5
80  13  6
86  13  6
138  154  5
139  155  5
81  14  6
82  15  6
83  16  6
85  17  6
84  18  6
87  20  6
90  21  5
91  22  5
92  23  5
93  24  5
96  27  5
98  28  5
102  31  5
125  35  5
126  36  5
136  46  6
137  47  6
62  70  5
63  71  5
64  66  6
65  67  6
75  7  6
72  106  6
73  107  6
74  8  6
76  9  6

$$$$
