310931045
  -OEChem-07211613022D

 20 19  0     0  0  0  0  0  0999 V2000
   -3.5724   -0.4125    0.0000 S   0  0  0  0  0  0  0  0  0  0  0  0
   -2.8579    0.8250    0.0000 S   0  0  0  0  0  0  0  0  0  0  0  0
   -4.2869   -0.8250    0.0000 F   0  0  0  0  0  0  0  0  0  0  0  0
   -2.8579    1.6500    0.0000 F   0  0  0  0  0  0  0  0  0  0  0  0
   -1.4290    0.0000    0.0000 O   0  0  0  0  0  0  0  0  0  0  0  0
   -3.9850    0.3020    0.0000 O   0  0  0  0  0  0  0  0  0  0  0  0
   -3.1599   -1.1270    0.0000 O   0  0  0  0  0  0  0  0  0  0  0  0
   -2.0329    0.8250    0.0000 O   0  0  0  0  0  0  0  0  0  0  0  0
   -3.6829    0.8250    0.0000 O   0  0  0  0  0  0  0  0  0  0  0  0
   -2.8579    0.0000    0.0000 N   0  3  0  0  0  0  0  0  0  0  0  0
    0.7145   -0.4125    0.0000 N   0  3  0  0  0  0  0  0  0  0  0  0
   -2.1435   -0.4125    0.0000 C   0  0  0  0  0  0  0  0  0  0  0  0
   -2.1435   -1.2375    0.0000 C   0  0  0  0  0  0  0  0  0  0  0  0
   -0.7145   -0.4125    0.0000 C   0  0  0  0  0  0  0  0  0  0  0  0
   -1.4290   -1.6500    0.0000 C   0  0  0  0  0  0  0  0  0  0  0  0
   -2.8579   -1.6500    0.0000 C   0  0  0  0  0  0  0  0  0  0  0  0
    0.0000    0.0000    0.0000 C   0  0  0  0  0  0  0  0  0  0  0  0
    0.7145   -1.2375    0.0000 C   0  0  0  0  0  0  0  0  0  0  0  0
    1.4290   -0.8250    0.0000 C   0  0  0  0  0  0  0  0  0  0  0  0
    1.4290    0.0000    0.0000 C   0  0  0  0  0  0  0  0  0  0  0  0
  1  3  1  0  0  0  0
  1  6  2  0  0  0  0
  1  7  2  0  0  0  0
  1 10  1  0  0  0  0
  2  4  1  0  0  0  0
  2  8  2  0  0  0  0
  2  9  2  0  0  0  0
  2 10  1  0  0  0  0
  5 12  1  0  0  0  0
  5 14  1  0  0  0  0
 10 12  2  0  0  0  0
 11 17  1  0  0  0  0
 11 18  1  0  0  0  0
 11 19  1  0  0  0  0
 11 20  1  0  0  0  0
 12 13  1  0  0  0  0
 13 15  2  0  0  0  0
 13 16  1  0  0  0  0
 14 17  1  0  0  0  0
M  CHG  2  10   1  11   1
M  END
> <PUBCHEM_COMPOUND_ID_TYPE>
0

> <PUBCHEM_TOTAL_CHARGE>
2

> <PUBCHEM_SUBSTANCE_ID>
310931045

> <PUBCHEM_SUBSTANCE_VERSION>
1

> <PUBCHEM_EXT_DATASOURCE_NAME>
4488

> <PUBCHEM_EXT_DATASOURCE_REGID>
SCHEMBL16108347

> <PUBCHEM_SUBSTANCE_COMMENT>
InChI=1S/C9H18F2N2O5S2/c1-8(2)9(18-7-6-13(3,4)5)12(19(10,14)15)20(11,16)17/h1,6-7H2,2-5H3/q+2
InChIKey=ONBKBZGXZWYTRX-UHFFFAOYSA-N

> <PUBCHEM_SUBSTANCE_SYNONYM>
SCHEMBL16108347

> <PUBCHEM_XREF_EXT_ID>
SCHEMBL16108347

> <PUBCHEM_EXT_DATASOURCE_URL>
https://www.surechembl.org/

> <PUBCHEM_EXT_SUBSTANCE_URL>
https://www.surechembl.org/chemical/SCHEMBL16108347

> <PUBCHEM_CID_ASSOCIATIONS>
117599957  1

> <PUBCHEM_COORDINATE_TYPE>
1
3

$$$$
