310938727
  -OEChem-07211613022D

103110  0     1  0  0  0  0  0999 V2000
   -1.5645   14.3689    0.0000 S   0  0  0  0  0  0  0  0  0  0  0  0
  -12.1828   15.6651    0.0000 S   0  0  0  0  0  0  0  0  0  0  0  0
  -10.4774   13.8260    0.0000 O   0  0  0  0  0  0  0  0  0  0  0  0
   -2.7695   15.8573    0.0000 O   0  0  0  0  0  0  0  0  0  0  0  0
   -4.0772   13.1804    0.0000 O   0  0  0  0  0  0  0  0  0  0  0  0
  -10.8559   17.8798    0.0000 O   0  0  0  0  0  0  0  0  0  0  0  0
   -7.6931   11.9355    0.0000 O   0  0  0  0  0  0  0  0  0  0  0  0
   -4.1787   18.3768    0.0000 O   0  0  0  0  0  0  0  0  0  0  0  0
   -7.2223   19.2993    0.0000 O   0  0  0  0  0  0  0  0  0  0  0  0
   -2.7003   13.6918    0.0000 O   0  0  0  0  0  0  0  0  0  0  0  0
  -11.2090   16.3533    0.0000 O   0  0  0  0  0  0  0  0  0  0  0  0
   -9.8982   12.4458    0.0000 O   0  0  0  0  0  0  0  0  0  0  0  0
   -6.2082   11.8076    0.0000 O   0  0  0  0  0  0  0  0  0  0  0  0
   -1.9923   17.2341    0.0000 O   0  0  0  0  0  0  0  0  0  0  0  0
   -9.3010   19.7877    0.0000 O   0  0  0  0  0  0  0  0  0  0  0  0
   -4.7451   19.8795    0.0000 O   0  0  0  0  0  0  0  0  0  0  0  0
   -4.4205   14.7376    0.0000 O   0  0  0  0  0  0  0  0  0  0  0  0
   -9.3268   15.4641    0.0000 O   0  0  0  0  0  0  0  0  0  0  0  0
   -5.5835   13.8630    0.0000 O   0  0  0  0  0  0  0  0  0  0  0  0
   -7.9693   13.3143    0.0000 O   0  0  0  0  0  0  0  0  0  0  0  0
   -4.0526   13.7665    0.0000 O   0  0  0  0  0  0  0  0  0  0  0  0
  -10.0625   16.7749    0.0000 O   0  0  0  0  0  0  0  0  0  0  0  0
   -4.1284   17.3541    0.0000 O   0  0  0  0  0  0  0  0  0  0  0  0
   -9.3251   17.5823    0.0000 O   0  0  0  0  0  0  0  0  0  0  0  0
   -9.1603   13.5939    0.0000 O   0  0  0  0  0  0  0  0  0  0  0  0
   -6.4297   18.4647    0.0000 O   0  0  0  0  0  0  0  0  0  0  0  0
   -6.5646   13.1534    0.0000 O   0  0  0  0  0  0  0  0  0  0  0  0
   -3.1999   16.5658    0.0000 O   0  0  0  0  0  0  0  0  0  0  0  0
   -8.3627   18.7797    0.0000 O   0  0  0  0  0  0  0  0  0  0  0  0
   -5.2892   18.5401    0.0000 O   0  0  0  0  0  0  0  0  0  0  0  0
   -4.6298   11.4001    0.0000 O   0  0  0  0  0  0  0  0  0  0  0  0
   -9.5476   11.0305    0.0000 O   0  0  0  0  0  0  0  0  0  0  0  0
   -1.6062   18.4494    0.0000 O   0  0  0  0  0  0  0  0  0  0  0  0
  -10.1597   19.8254    0.0000 O   0  0  0  0  0  0  0  0  0  0  0  0
   -5.6632   21.0118    0.0000 O   0  0  0  0  0  0  0  0  0  0  0  0
   -0.8500   13.1316    0.0000 O   0  0  0  0  0  0  0  0  0  0  0  0
    0.5789   13.1316    0.0000 O   0  0  0  0  0  0  0  0  0  0  0  0
  -12.8972   16.9025    0.0000 O   0  0  0  0  0  0  0  0  0  0  0  0
  -14.3260   16.9025    0.0000 O   0  0  0  0  0  0  0  0  0  0  0  0
    1.2934   13.5441    0.0000 O   0  0  0  0  0  0  0  0  0  0  0  0
    3.4366   14.7816    0.0000 O   0  0  0  0  0  0  0  0  0  0  0  0
    5.5801   14.3689    0.0000 O   0  0  0  0  0  0  0  0  0  0  0  0
    7.7233   15.6064    0.0000 O   0  0  0  0  0  0  0  0  0  0  0  0
  -14.3260   15.2526    0.0000 N   0  0  0  0  0  0  0  0  0  0  0  0
   -2.9525   15.2668    0.0000 C   0  0  3  0  0  0  0  0  0  0  0  0
  -10.7003   14.8449    0.0000 C   0  0  3  0  0  0  0  0  0  0  0  0
   -4.8530   12.6466    0.0000 C   0  0  3  0  0  0  0  0  0  0  0  0
   -8.3977   11.9177    0.0000 C   0  0  3  0  0  0  0  0  0  0  0  0
  -10.1539   18.4398    0.0000 C   0  0  3  0  0  0  0  0  0  0  0  0
   -3.1103   18.3644    0.0000 C   0  0  3  0  0  0  0  0  0  0  0  0
   -6.3289   19.7193    0.0000 C   0  0  3  0  0  0  0  0  0  0  0  0
   -3.3366   13.1723    0.0000 C   0  0  3  0  0  0  0  0  0  0  0  0
  -10.6643   16.9719    0.0000 C   0  0  3  0  0  0  0  0  0  0  0  0
  -10.0528   13.2555    0.0000 C   0  0  3  0  0  0  0  0  0  0  0  0
   -2.2068   16.4414    0.0000 C   0  0  3  0  0  0  0  0  0  0  0  0
   -6.9349   12.1998    0.0000 C   0  0  3  0  0  0  0  0  0  0  0  0
   -8.4795   19.7544    0.0000 C   0  0  3  0  0  0  0  0  0  0  0  0
   -4.2627   19.2081    0.0000 C   0  0  3  0  0  0  0  0  0  0  0  0
   -3.5955   14.7447    0.0000 C   0  0  3  0  0  0  0  0  0  0  0  0
  -10.1518   15.4641    0.0000 C   0  0  3  0  0  0  0  0  0  0  0  0
   -5.5835   13.0380    0.0000 C   0  0  3  0  0  0  0  0  0  0  0  0
   -8.5526   12.7309    0.0000 C   0  0  3  0  0  0  0  0  0  0  0  0
   -3.2577   13.9870    0.0000 C   0  0  3  0  0  0  0  0  0  0  0  0
  -10.6073   16.1563    0.0000 C   0  0  3  0  0  0  0  0  0  0  0  0
   -3.3316   17.5677    0.0000 C   0  0  3  0  0  0  0  0  0  0  0  0
   -9.3251   18.4073    0.0000 C   0  0  3  0  0  0  0  0  0  0  0  0
   -3.0345   14.4506    0.0000 C   0  0  3  0  0  0  0  0  0  0  0  0
  -10.7538   15.6651    0.0000 C   0  0  3  0  0  0  0  0  0  0  0  0
   -9.3737   12.7971    0.0000 C   0  0  3  0  0  0  0  0  0  0  0  0
   -5.8464   19.0480    0.0000 C   0  0  3  0  0  0  0  0  0  0  0  0
   -6.1522   12.4389    0.0000 C   0  0  3  0  0  0  0  0  0  0  0  0
   -2.6167   17.1491    0.0000 C   0  0  3  0  0  0  0  0  0  0  0  0
   -9.0773   19.1922    0.0000 C   0  0  3  0  0  0  0  0  0  0  0  0
   -5.0756   19.3369    0.0000 C   0  0  3  0  0  0  0  0  0  0  0  0
   -5.6402   12.4105    0.0000 C   0  0  3  0  0  0  0  0  0  0  0  0
   -9.0734   12.3800    0.0000 C   0  0  3  0  0  0  0  0  0  0  0  0
   -2.7043   17.6567    0.0000 C   0  0  3  0  0  0  0  0  0  0  0  0
   -9.5485   18.9992    0.0000 C   0  0  3  0  0  0  0  0  0  0  0  0
   -5.5195   19.5901    0.0000 C   0  0  3  0  0  0  0  0  0  0  0  0
   -2.2788   14.7816    0.0000 C   0  0  0  0  0  0  0  0  0  0  0  0
  -11.4683   15.2526    0.0000 C   0  0  0  0  0  0  0  0  0  0  0  0
   -4.8433   12.1970    0.0000 C   0  0  0  0  0  0  0  0  0  0  0  0
   -8.9224   11.5700    0.0000 C   0  0  0  0  0  0  0  0  0  0  0  0
   -2.4862   18.4494    0.0000 C   0  0  0  0  0  0  0  0  0  0  0  0
  -10.3733   19.0285    0.0000 C   0  0  0  0  0  0  0  0  0  0  0  0
   -6.0013   20.2578    0.0000 C   0  0  0  0  0  0  0  0  0  0  0  0
   -0.8500   14.7816    0.0000 C   0  0  0  0  0  0  0  0  0  0  0  0
  -12.8972   15.2526    0.0000 C   0  0  0  0  0  0  0  0  0  0  0  0
   -0.1355   14.3689    0.0000 C   0  0  0  0  0  0  0  0  0  0  0  0
  -13.6117   15.6651    0.0000 C   0  0  3  0  0  0  0  0  0  0  0  0
   -0.1355   13.5441    0.0000 C   0  0  0  0  0  0  0  0  0  0  0  0
  -13.6117   16.4900    0.0000 C   0  0  0  0  0  0  0  0  0  0  0  0
    1.2934   14.3689    0.0000 C   0  0  0  0  0  0  0  0  0  0  0  0
  -15.0405   15.6651    0.0000 C   0  0  0  0  0  0  0  0  0  0  0  0
    2.0078   14.7816    0.0000 C   0  0  0  0  0  0  0  0  0  0  0  0
    2.7222   14.3689    0.0000 C   0  0  0  0  0  0  0  0  0  0  0  0
    4.1512   14.3689    0.0000 C   0  0  0  0  0  0  0  0  0  0  0  0
    4.8656   14.7816    0.0000 C   0  0  0  0  0  0  0  0  0  0  0  0
    6.2944   14.7816    0.0000 C   0  0  0  0  0  0  0  0  0  0  0  0
    7.0089   14.3689    0.0000 C   0  0  0  0  0  0  0  0  0  0  0  0
    7.7233   14.7816    0.0000 C   0  0  0  0  0  0  0  0  0  0  0  0
    8.4378   14.3689    0.0000 C   0  0  0  0  0  0  0  0  0  0  0  0
    0.5789   14.7816    0.0000 H   0  0  0  0  0  0  0  0  0  0  0  0
  1 80  1  0  0  0  0
  1 87  1  0  0  0  0
  2 81  1  0  0  0  0
  2 88  1  0  0  0  0
 46  3  1  6  0  0  0
  3 54  1  0  0  0  0
 45  4  1  1  0  0  0
  4 55  1  0  0  0  0
 47  5  1  6  0  0  0
  5 52  1  0  0  0  0
 49  6  1  1  0  0  0
  6 53  1  0  0  0  0
 48  7  1  6  0  0  0
  7 56  1  0  0  0  0
 50  8  1  6  0  0  0
  8 58  1  0  0  0  0
 51  9  1  6  0  0  0
 57  9  1  6  0  0  0
 52 10  1  6  0  0  0
 10 67  1  0  0  0  0
 53 11  1  6  0  0  0
 11 68  1  0  0  0  0
 54 12  1  1  0  0  0
 12 76  1  0  0  0  0
 56 13  1  6  0  0  0
 13 75  1  0  0  0  0
 55 14  1  6  0  0  0
 14 77  1  0  0  0  0
 15 57  1  0  0  0  0
 15 78  1  0  0  0  0
 58 16  1  6  0  0  0
 16 79  1  0  0  0  0
 59 17  1  1  0  0  0
 60 18  1  1  0  0  0
 61 19  1  1  0  0  0
 62 20  1  1  0  0  0
 21 63  1  0  0  0  0
 22 64  1  0  0  0  0
 65 23  1  1  0  0  0
 66 24  1  1  0  0  0
 25 69  1  0  0  0  0
 70 26  1  1  0  0  0
 27 71  1  0  0  0  0
 28 72  1  0  0  0  0
 29 73  1  0  0  0  0
 30 74  1  0  0  0  0
 31 82  1  0  0  0  0
 32 83  1  0  0  0  0
 33 84  1  0  0  0  0
 34 85  1  0  0  0  0
 35 86  1  0  0  0  0
 36 91  2  0  0  0  0
 37 91  1  0  0  0  0
 38 92  2  0  0  0  0
 39 92  1  0  0  0  0
 40 93  2  0  0  0  0
 41 96  1  0  0  0  0
 41 97  1  0  0  0  0
 42 98  1  0  0  0  0
 42 99  1  0  0  0  0
 43101  2  0  0  0  0
 90 44  1  1  0  0  0
 44 94  1  0  0  0  0
 45 59  1  0  0  0  0
 45 67  1  0  0  0  0
 46 60  1  0  0  0  0
 46 68  1  0  0  0  0
 47 61  1  0  0  0  0
 47 75  1  0  0  0  0
 48 62  1  0  0  0  0
 48 76  1  0  0  0  0
 49 66  1  0  0  0  0
 49 78  1  0  0  0  0
 50 65  1  0  0  0  0
 50 77  1  0  0  0  0
 51 70  1  0  0  0  0
 51 79  1  0  0  0  0
 52 63  1  0  0  0  0
 53 64  1  0  0  0  0
 54 69  1  0  0  0  0
 55 72  1  0  0  0  0
 56 71  1  0  0  0  0
 57 73  1  0  0  0  0
 58 74  1  0  0  0  0
 59 63  1  0  0  0  0
 60 64  1  0  0  0  0
 61 71  1  0  0  0  0
 62 69  1  0  0  0  0
 65 72  1  0  0  0  0
 66 73  1  0  0  0  0
 67 80  1  0  0  0  0
 68 81  1  0  0  0  0
 70 74  1  0  0  0  0
 75 82  1  0  0  0  0
 76 83  1  0  0  0  0
 77 84  1  0  0  0  0
 78 85  1  0  0  0  0
 79 86  1  0  0  0  0
 89 87  1  1  0  0  0
 88 90  1  0  0  0  0
 89 91  1  0  0  0  0
 89103  1  0  0  0  0
 90 92  1  0  0  0  0
 93 95  1  0  0  0  0
 93103  1  0  0  0  0
 95 96  1  0  0  0  0
 97 98  1  0  0  0  0
 99100  1  0  0  0  0
100101  1  0  0  0  0
101102  1  0  0  0  0
M  END
> <PUBCHEM_COMPOUND_ID_TYPE>
0

> <PUBCHEM_TOTAL_CHARGE>
0

> <PUBCHEM_SUBSTANCE_ID>
310938727

> <PUBCHEM_SUBSTANCE_VERSION>
1

> <PUBCHEM_EXT_DATASOURCE_NAME>
4488

> <PUBCHEM_EXT_DATASOURCE_REGID>
SCHEMBL16116642

> <PUBCHEM_SUBSTANCE_COMMENT>
InChI=1S/C58H98NO41S2/c1-18(65)3-5-85-7-8-86-6-4-28(66)103-27(51(83)84)17-102-16-26-49-35(73)42(80)58(93-26)98-47-24(13-64)89-54(38(76)31(47)69)96-44-21(10-61)90-55(39(77)32(44)70)99-48-25(15-101-14-19(59-2)50(81)82)92-57(41(79)34(48)72)97-46-23(12-63)88-53(37(75)30(46)68)94-43-20(9-60)87-52(36(74)29(43)67)95-45-22(11-62)91-56(100-49)40(78)33(45)71/h19-27,29-49,52-64,67-80H,3-17,103H2,1-2H3,(H,81,82)(H,83,84)/t19-,20?,21?,22?,23?,24?,25?,26?,27?,29-,30-,31-,32-,33-,34-,35-,36?,37?,38?,39?,40?,41?,42?,43-,44-,45-,46+,47-,48-,49+,52-,53-,54+,55+,56-,57+,58-/m1/s1
InChIKey=GCHOTBPXQZOVEG-QUGVHXCISA-N

> <PUBCHEM_SUBSTANCE_SYNONYM>
SCHEMBL16116642

> <PUBCHEM_XREF_EXT_ID>
SCHEMBL16116642

> <PUBCHEM_EXT_DATASOURCE_URL>
https://www.surechembl.org/

> <PUBCHEM_EXT_SUBSTANCE_URL>
https://www.surechembl.org/chemical/SCHEMBL16116642

> <PUBCHEM_COORDINATE_TYPE>
1
3

> <PUBCHEM_BONDANNOTATIONS>
52  10  6
53  11  6
54  12  5
56  13  6
55  14  6
58  16  6
59  17  5
60  18  5
61  19  5
62  20  5
65  23  5
66  24  5
70  26  5
46  3  6
45  4  5
90  44  5
47  5  6
49  6  5
48  7  6
50  8  6
89  87  5
51  9  6
57  9  6

$$$$
