310945161
  -OEChem-07211613022D

 17 17  0     1  0  0  0  0  0999 V2000
    2.4324   -0.6324    0.0000 O   0  0  0  0  0  0  0  0  0  0  0  0
   -1.9043   -0.6324    0.0000 O   0  0  0  0  0  0  0  0  0  0  0  0
    1.7097    0.6185    0.0000 N   0  0  0  0  0  0  0  0  0  0  0  0
   -1.1815    0.6185    0.0000 N   0  0  0  0  0  0  0  0  0  0  0  0
    0.9869    0.2015    0.0000 C   0  0  3  0  0  0  0  0  0  0  0  0
   -0.4587    0.2015    0.0000 C   0  0  3  0  0  0  0  0  0  0  0  0
    0.2641    0.6046    0.0000 C   0  0  0  0  0  0  0  0  0  0  0  0
    0.9730   -0.6185    0.0000 C   0  0  0  0  0  0  0  0  0  0  0  0
    2.4185    0.2293    0.0000 C   0  0  0  0  0  0  0  0  0  0  0  0
   -0.4587   -0.6324    0.0000 C   0  0  0  0  0  0  0  0  0  0  0  0
    0.2641   -1.0355    0.0000 C   0  0  0  0  0  0  0  0  0  0  0  0
   -1.9182    0.2154    0.0000 C   0  0  0  0  0  0  0  0  0  0  0  0
    2.9746    0.5907    0.0000 C   0  0  0  0  0  0  0  0  0  0  0  0
   -2.6549    0.6046    0.0000 C   0  0  0  0  0  0  0  0  0  0  0  0
    2.7104    1.0355    0.0000 C   0  0  0  0  0  0  0  0  0  0  0  0
    3.3220    0.2154    0.0000 C   0  0  0  0  0  0  0  0  0  0  0  0
   -3.3220    0.1320    0.0000 C   0  0  0  0  0  0  0  0  0  0  0  0
  1  9  2  0  0  0  0
  2 12  2  0  0  0  0
  3  5  1  0  0  0  0
  3  9  1  0  0  0  0
  4  6  1  0  0  0  0
  4 12  1  0  0  0  0
  5  7  1  0  0  0  0
  5  8  1  0  0  0  0
  6  7  1  0  0  0  0
  6 10  1  0  0  0  0
  8 11  1  0  0  0  0
  9 13  1  0  0  0  0
 10 11  1  0  0  0  0
 12 14  1  0  0  0  0
 13 15  1  0  0  0  0
 13 16  1  0  0  0  0
 14 17  2  0  0  0  0
M  END
> <PUBCHEM_COMPOUND_ID_TYPE>
0

> <PUBCHEM_TOTAL_CHARGE>
0

> <PUBCHEM_SUBSTANCE_ID>
310945161

> <PUBCHEM_SUBSTANCE_VERSION>
1

> <PUBCHEM_EXT_DATASOURCE_NAME>
4488

> <PUBCHEM_EXT_DATASOURCE_REGID>
SCHEMBL16123251

> <PUBCHEM_SUBSTANCE_COMMENT>
InChI=1S/C13H22N2O2/c1-4-12(16)14-10-6-5-7-11(8-10)15-13(17)9(2)3/h4,9-11H,1,5-8H2,2-3H3,(H,14,16)(H,15,17)
InChIKey=BRJZGZQHXPTVSS-UHFFFAOYSA-N

> <PUBCHEM_SUBSTANCE_SYNONYM>
SCHEMBL16123251

> <PUBCHEM_XREF_EXT_ID>
SCHEMBL16123251

> <PUBCHEM_EXT_DATASOURCE_URL>
https://www.surechembl.org/

> <PUBCHEM_EXT_SUBSTANCE_URL>
https://www.surechembl.org/chemical/SCHEMBL16123251

> <PUBCHEM_CID_ASSOCIATIONS>
117611247  1

> <PUBCHEM_COORDINATE_TYPE>
1
3

$$$$
