310932990
  -OEChem-07211613022D

 34 37  0     1  0  0  0  0  0999 V2000
    4.0071   -2.7499    0.0000 O   0  0  0  0  0  0  0  0  0  0  0  0
    8.4463   -2.8285    0.0000 O   0  0  0  0  0  0  0  0  0  0  0  0
    4.9106   -1.6107    0.0000 N   0  0  0  0  0  0  0  0  0  0  0  0
    4.7928   -0.7857    0.0000 N   0  0  0  0  0  0  0  0  0  0  0  0
    6.3248   -1.6107    0.0000 N   0  0  0  0  0  0  0  0  0  0  0  0
    7.7391   -4.0464    0.0000 N   0  0  0  0  0  0  0  0  0  0  0  0
   10.4891   -3.7714    0.0000 N   0  0  3  0  0  0  0  0  0  0  0  0
    0.0000   -2.4356    0.0000 N   0  0  0  0  0  0  0  0  0  0  0  0
    3.5749   -1.3357    0.0000 C   0  0  0  0  0  0  0  0  0  0  0  0
    4.1642   -1.9250    0.0000 C   0  0  0  0  0  0  0  0  0  0  0  0
    2.7892   -1.4143    0.0000 C   0  0  0  0  0  0  0  0  0  0  0  0
    5.6177   -2.0035    0.0000 C   0  0  0  0  0  0  0  0  0  0  0  0
    4.0071   -0.6285    0.0000 C   0  0  0  0  0  0  0  0  0  0  0  0
    2.2785   -0.7857    0.0000 C   0  0  0  0  0  0  0  0  0  0  0  0
    7.0320   -2.8285    0.0000 C   0  0  0  0  0  0  0  0  0  0  0  0
    5.6177   -2.8285    0.0000 C   0  0  0  0  0  0  0  0  0  0  0  0
    2.4356   -2.1607    0.0000 C   0  0  0  0  0  0  0  0  0  0  0  0
    7.7391   -3.2214    0.0000 C   0  0  0  0  0  0  0  0  0  0  0  0
    7.0320   -2.0035    0.0000 C   0  0  0  0  0  0  0  0  0  0  0  0
    6.3248   -3.2214    0.0000 C   0  0  0  0  0  0  0  0  0  0  0  0
    1.4535   -0.8643    0.0000 C   0  0  0  0  0  0  0  0  0  0  0  0
    1.1393   -1.6107    0.0000 C   0  0  0  0  0  0  0  0  0  0  0  0
    1.6107   -2.2785    0.0000 C   0  0  0  0  0  0  0  0  0  0  0  0
    9.1927   -4.0464    0.0000 C   0  0  3  0  0  0  0  0  0  0  0  0
    8.4463   -4.4785    0.0000 C   0  0  0  0  0  0  0  0  0  0  0  0
    2.5928    0.0000    0.0000 C   0  0  0  0  0  0  0  0  0  0  0  0
    9.9390   -4.3999    0.0000 C   0  0  0  0  0  0  0  0  0  0  0  0
    9.2712   -3.2606    0.0000 C   0  0  0  0  0  0  0  0  0  0  0  0
    0.3143   -1.6892    0.0000 C   0  0  0  0  0  0  0  0  0  0  0  0
   10.0569   -3.0643    0.0000 C   0  0  0  0  0  0  0  0  0  0  0  0
   11.2748   -3.8892    0.0000 C   0  0  0  0  0  0  0  0  0  0  0  0
    7.0320   -4.4785    0.0000 C   0  0  0  0  0  0  0  0  0  0  0  0
   11.7854   -3.2214    0.0000 C   0  0  0  0  0  0  0  0  0  0  0  0
   11.6283   -4.6356    0.0000 C   0  0  0  0  0  0  0  0  0  0  0  0
  1 10  1  0  0  0  0
  2 18  2  0  0  0  0
  3  4  1  0  0  0  0
  3 10  1  0  0  0  0
  3 12  1  0  0  0  0
  4 13  2  0  0  0  0
  5 12  2  0  0  0  0
  5 19  1  0  0  0  0
  6 18  1  0  0  0  0
  6 25  1  0  0  0  0
  6 32  1  0  0  0  0
  7 27  1  0  0  0  0
  7 30  1  0  0  0  0
  7 31  1  0  0  0  0
  8 29  3  0  0  0  0
  9 10  2  0  0  0  0
  9 11  1  0  0  0  0
  9 13  1  0  0  0  0
 11 14  1  0  0  0  0
 11 17  2  0  0  0  0
 12 16  1  0  0  0  0
 14 21  2  0  0  0  0
 14 26  1  0  0  0  0
 15 18  1  0  0  0  0
 15 19  2  0  0  0  0
 15 20  1  0  0  0  0
 16 20  2  0  0  0  0
 17 23  1  0  0  0  0
 21 22  1  0  0  0  0
 22 23  2  0  0  0  0
 22 29  1  0  0  0  0
 24 25  1  0  0  0  0
 24 27  1  0  0  0  0
 24 28  1  0  0  0  0
 28 30  1  0  0  0  0
 31 33  1  0  0  0  0
 31 34  1  0  0  0  0
M  END
> <PUBCHEM_COMPOUND_ID_TYPE>
0

> <PUBCHEM_TOTAL_CHARGE>
0

> <PUBCHEM_SUBSTANCE_ID>
310932990

> <PUBCHEM_SUBSTANCE_VERSION>
1

> <PUBCHEM_EXT_DATASOURCE_NAME>
4488

> <PUBCHEM_EXT_DATASOURCE_REGID>
SCHEMBL16110387

> <PUBCHEM_SUBSTANCE_COMMENT>
InChI=1S/C26H30N6O2/c1-17(2)31-10-9-20(16-31)15-30(4)25(33)21-6-8-24(28-13-21)32-26(34)23(14-29-32)22-7-5-19(12-27)11-18(22)3/h5-8,11,13-14,17,20,34H,9-10,15-16H2,1-4H3
InChIKey=WNSWAWCERJKKIU-UHFFFAOYSA-N

> <PUBCHEM_SUBSTANCE_SYNONYM>
SCHEMBL16110387

> <PUBCHEM_XREF_EXT_ID>
SCHEMBL16110387

> <PUBCHEM_EXT_DATASOURCE_URL>
https://www.surechembl.org/

> <PUBCHEM_EXT_SUBSTANCE_URL>
https://www.surechembl.org/chemical/SCHEMBL16110387

> <PUBCHEM_CID_ASSOCIATIONS>
117601465  1

> <PUBCHEM_COORDINATE_TYPE>
1
3

$$$$
