310936114
  -OEChem-07211613022D

 21 22  0     1  0  0  0  0  0999 V2000
    2.9581   -4.4894    0.0000 F   0  0  0  0  0  0  0  0  0  0  0  0
    0.8352   -1.6357    0.0000 O   0  0  0  0  0  0  0  0  0  0  0  0
    2.2273   -1.6357    0.0000 O   0  0  0  0  0  0  0  0  0  0  0  0
    1.5313   -2.8537    0.0000 N   0  0  0  0  0  0  0  0  0  0  0  0
    1.5313   -4.4894    0.0000 C   0  0  0  0  0  0  0  0  0  0  0  0
    2.2621   -4.0718    0.0000 C   0  0  3  0  0  0  0  0  0  0  0  0
    1.5313   -2.0185    0.0000 C   0  0  0  0  0  0  0  0  0  0  0  0
    2.2621   -3.2713    0.0000 C   0  0  0  0  0  0  0  0  0  0  0  0
    0.8352   -3.2713    0.0000 C   0  0  0  0  0  0  0  0  0  0  0  0
    0.8352   -4.0718    0.0000 C   0  0  0  0  0  0  0  0  0  0  0  0
    1.5313   -5.3246    0.0000 C   0  0  0  0  0  0  0  0  0  0  0  0
    0.8352   -0.8004    0.0000 C   0  0  0  0  0  0  0  0  0  0  0  0
    2.2273   -5.7074    0.0000 C   0  0  0  0  0  0  0  0  0  0  0  0
    2.9581   -5.3246    0.0000 C   0  0  0  0  0  0  0  0  0  0  0  0
    2.2273   -6.5427    0.0000 C   0  0  0  0  0  0  0  0  0  0  0  0
    1.6705   -0.8004    0.0000 C   0  0  0  0  0  0  0  0  0  0  0  0
    0.8352    0.0000    0.0000 C   0  0  0  0  0  0  0  0  0  0  0  0
    0.0000   -0.8004    0.0000 C   0  0  0  0  0  0  0  0  0  0  0  0
    3.6541   -5.7074    0.0000 C   0  0  0  0  0  0  0  0  0  0  0  0
    2.9581   -6.9603    0.0000 C   0  0  0  0  0  0  0  0  0  0  0  0
    3.6541   -6.5427    0.0000 C   0  0  0  0  0  0  0  0  0  0  0  0
  1  6  1  0  0  0  0
  2  7  1  0  0  0  0
  2 12  1  0  0  0  0
  3  7  2  0  0  0  0
  4  7  1  0  0  0  0
  4  8  1  0  0  0  0
  4  9  1  0  0  0  0
  5  6  1  0  0  0  0
  5 10  1  0  0  0  0
  5 11  2  0  0  0  0
  6  8  1  0  0  0  0
  9 10  1  0  0  0  0
 11 13  1  0  0  0  0
 12 16  1  0  0  0  0
 12 17  1  0  0  0  0
 12 18  1  0  0  0  0
 13 14  2  0  0  0  0
 13 15  1  0  0  0  0
 14 19  1  0  0  0  0
 15 20  2  0  0  0  0
 19 21  2  0  0  0  0
 20 21  1  0  0  0  0
M  END
> <PUBCHEM_COMPOUND_ID_TYPE>
0

> <PUBCHEM_TOTAL_CHARGE>
0

> <PUBCHEM_SUBSTANCE_ID>
310936114

> <PUBCHEM_SUBSTANCE_VERSION>
1

> <PUBCHEM_EXT_DATASOURCE_NAME>
4488

> <PUBCHEM_EXT_DATASOURCE_REGID>
SCHEMBL16113721

> <PUBCHEM_SUBSTANCE_COMMENT>
InChI=1S/C17H22FNO2/c1-17(2,3)21-16(20)19-10-9-14(15(18)12-19)11-13-7-5-4-6-8-13/h4-8,11,15H,9-10,12H2,1-3H3/b14-11-
InChIKey=XJHMUVSOMHIVPT-KAMYIIQDSA-N

> <PUBCHEM_SUBSTANCE_SYNONYM>
SCHEMBL16113721

> <PUBCHEM_XREF_EXT_ID>
SCHEMBL16113721

> <PUBCHEM_EXT_DATASOURCE_URL>
https://www.surechembl.org/

> <PUBCHEM_EXT_SUBSTANCE_URL>
https://www.surechembl.org/chemical/SCHEMBL16113721

> <PUBCHEM_CID_ASSOCIATIONS>
117604079  1

> <PUBCHEM_COORDINATE_TYPE>
1
3

$$$$
