310938646
  -OEChem-07211613022D

 33 37  0     1  0  0  0  0  0999 V2000
   -4.2868   -0.5795    0.0000 Cl  0  0  0  0  0  0  0  0  0  0  0  0
   -0.7145   -0.9920    0.0000 O   0  0  0  0  0  0  0  0  0  0  0  0
    0.0000   -2.2295    0.0000 O   0  0  0  0  0  0  0  0  0  0  0  0
   -4.2868   -3.0545    0.0000 O   0  0  0  0  0  0  0  0  0  0  0  0
    0.7145    1.4830    0.0000 N   0  0  0  0  0  0  0  0  0  0  0  0
    0.0000    0.2455    0.0000 N   0  0  0  0  0  0  0  0  0  0  0  0
    1.4289    0.2455    0.0000 N   0  0  0  0  0  0  0  0  0  0  0  0
    1.4289   -2.2295    0.0000 N   0  0  0  0  0  0  0  0  0  0  0  0
    2.8579   -3.0545    0.0000 N   0  0  0  0  0  0  0  0  0  0  0  0
    1.1270    2.7525    0.0000 C   0  0  3  0  0  0  0  0  0  0  0  0
    0.3020    2.7525    0.0000 C   0  0  3  0  0  0  0  0  0  0  0  0
    0.7145    3.4670    0.0000 C   0  0  0  0  0  0  0  0  0  0  0  0
    0.7145    0.6580    0.0000 C   0  0  0  0  0  0  0  0  0  0  0  0
    1.3819    1.9679    0.0000 C   0  0  0  0  0  0  0  0  0  0  0  0
    0.0470    1.9679    0.0000 C   0  0  0  0  0  0  0  0  0  0  0  0
    0.0000   -0.5795    0.0000 C   0  0  0  0  0  0  0  0  0  0  0  0
    0.7145   -0.9920    0.0000 C   0  0  0  0  0  0  0  0  0  0  0  0
    1.4289   -0.5795    0.0000 C   0  0  0  0  0  0  0  0  0  0  0  0
    0.7145   -1.8170    0.0000 C   0  0  0  0  0  0  0  0  0  0  0  0
   -1.4289   -0.5795    0.0000 C   0  0  0  0  0  0  0  0  0  0  0  0
   -2.1434   -0.9920    0.0000 C   0  0  0  0  0  0  0  0  0  0  0  0
   -3.5724   -0.9920    0.0000 C   0  0  0  0  0  0  0  0  0  0  0  0
   -2.8579   -0.5795    0.0000 C   0  0  0  0  0  0  0  0  0  0  0  0
   -3.5724   -1.8170    0.0000 C   0  0  0  0  0  0  0  0  0  0  0  0
   -2.1434   -1.8170    0.0000 C   0  0  0  0  0  0  0  0  0  0  0  0
    2.1434   -1.8170    0.0000 C   0  0  0  0  0  0  0  0  0  0  0  0
   -2.8579   -2.2295    0.0000 C   0  0  0  0  0  0  0  0  0  0  0  0
    2.8579   -2.2295    0.0000 C   0  0  0  0  0  0  0  0  0  0  0  0
   -4.2868   -2.2295    0.0000 C   0  0  0  0  0  0  0  0  0  0  0  0
    3.5724   -1.8170    0.0000 C   0  0  0  0  0  0  0  0  0  0  0  0
    3.5724   -3.4670    0.0000 C   0  0  0  0  0  0  0  0  0  0  0  0
    4.2868   -2.2295    0.0000 C   0  0  0  0  0  0  0  0  0  0  0  0
    4.2868   -3.0545    0.0000 C   0  0  0  0  0  0  0  0  0  0  0  0
  1 22  1  0  0  0  0
  2 16  1  0  0  0  0
  2 20  1  0  0  0  0
  3 19  2  0  0  0  0
  4 29  1  0  0  0  0
  5 13  1  0  0  0  0
  5 14  1  0  0  0  0
  5 15  1  0  0  0  0
  6 13  1  0  0  0  0
  6 16  2  0  0  0  0
  7 13  2  0  0  0  0
  7 18  1  0  0  0  0
  8 19  1  0  0  0  0
  8 26  1  0  0  0  0
  9 28  2  0  0  0  0
  9 31  1  0  0  0  0
 10 11  1  0  0  0  0
 10 12  1  0  0  0  0
 10 14  1  0  0  0  0
 11 12  1  0  0  0  0
 11 15  1  0  0  0  0
 16 17  1  0  0  0  0
 17 18  2  0  0  0  0
 17 19  1  0  0  0  0
 20 21  1  0  0  0  0
 21 23  2  0  0  0  0
 21 25  1  0  0  0  0
 22 23  1  0  0  0  0
 22 24  2  0  0  0  0
 24 27  1  0  0  0  0
 24 29  1  0  0  0  0
 25 27  2  0  0  0  0
 26 28  1  0  0  0  0
 28 30  1  0  0  0  0
 30 32  2  0  0  0  0
 31 33  2  0  0  0  0
 32 33  1  0  0  0  0
M  END
> <PUBCHEM_COMPOUND_ID_TYPE>
0

> <PUBCHEM_TOTAL_CHARGE>
0

> <PUBCHEM_SUBSTANCE_ID>
310938646

> <PUBCHEM_SUBSTANCE_VERSION>
1

> <PUBCHEM_EXT_DATASOURCE_NAME>
4488

> <PUBCHEM_EXT_DATASOURCE_REGID>
SCHEMBL16116560

> <PUBCHEM_SUBSTANCE_COMMENT>
InChI=1S/C24H24ClN5O3/c25-21-7-15(4-5-16(21)13-31)14-33-23-20(22(32)27-9-19-3-1-2-6-26-19)10-28-24(29-23)30-11-17-8-18(17)12-30/h1-7,10,17-18,31H,8-9,11-14H2,(H,27,32)
InChIKey=QWDLOZIYNXQMNM-UHFFFAOYSA-N

> <PUBCHEM_SUBSTANCE_SYNONYM>
SCHEMBL16116560

> <PUBCHEM_XREF_EXT_ID>
SCHEMBL16116560

> <PUBCHEM_EXT_DATASOURCE_URL>
https://www.surechembl.org/

> <PUBCHEM_EXT_SUBSTANCE_URL>
https://www.surechembl.org/chemical/SCHEMBL16116560

> <PUBCHEM_CID_ASSOCIATIONS>
117606078  1

> <PUBCHEM_COORDINATE_TYPE>
1
3

$$$$
