310947973
  -OEChem-07211613022D

 22 23  0     1  0  0  0  0  0999 V2000
   -2.4438   -2.8339    0.0000 N   0  0  0  0  0  0  0  0  0  0  0  0
   -1.0158   -3.6584    0.0000 N   0  0  0  0  0  0  0  0  0  0  0  0
   -1.0305   -1.2587    0.0000 C   0  0  0  0  0  0  0  0  0  0  0  0
   -1.7519   -2.4954    0.0000 C   0  0  0  0  0  0  0  0  0  0  0  0
   -1.0158   -0.4343    0.0000 C   0  0  3  0  0  0  0  0  0  0  0  0
   -1.7224   -1.6709    0.0000 C   0  0  0  0  0  0  0  0  0  0  0  0
   -1.0158   -2.9076    0.0000 C   0  0  0  0  0  0  0  0  0  0  0  0
   -0.3239   -1.6857    0.0000 C   0  0  0  0  0  0  0  0  0  0  0  0
    1.1189    0.8024    0.0000 C   0  0  0  0  0  0  0  0  0  0  0  0
    1.0894   -0.0221    0.0000 C   0  0  3  0  0  0  0  0  0  0  0  0
   -0.3239   -2.4954    0.0000 C   0  0  0  0  0  0  0  0  0  0  0  0
   -0.3092   -0.0221    0.0000 C   0  0  0  0  0  0  0  0  0  0  0  0
    0.4122   -0.4343    0.0000 C   0  0  0  0  0  0  0  0  0  0  0  0
    1.8108    1.2146    0.0000 C   0  0  0  0  0  0  0  0  0  0  0  0
    0.3975    1.2146    0.0000 C   0  0  0  0  0  0  0  0  0  0  0  0
    1.1041    2.4512    0.0000 C   0  0  0  0  0  0  0  0  0  0  0  0
    1.8108    2.0243    0.0000 C   0  0  0  0  0  0  0  0  0  0  0  0
    0.3975    2.0243    0.0000 C   0  0  0  0  0  0  0  0  0  0  0  0
   -1.7519   -0.0221    0.0000 C   0  0  0  0  0  0  0  0  0  0  0  0
    1.8402   -0.4343    0.0000 C   0  0  0  0  0  0  0  0  0  0  0  0
    1.1189    3.2314    0.0000 C   0  0  0  0  0  0  0  0  0  0  0  0
    2.4438    3.6584    0.0000 C   0  0  0  0  0  0  0  0  0  0  0  0
  1  4  1  0  0  0  0
  2  7  1  0  0  0  0
  3  5  1  0  0  0  0
  3  6  2  0  0  0  0
  3  8  1  0  0  0  0
  4  6  1  0  0  0  0
  4  7  2  0  0  0  0
  5 12  1  0  0  0  0
  5 19  1  0  0  0  0
  7 11  1  0  0  0  0
  8 11  2  0  0  0  0
  9 10  1  0  0  0  0
  9 14  2  0  0  0  0
  9 15  1  0  0  0  0
 10 13  1  0  0  0  0
 10 20  1  0  0  0  0
 12 13  1  0  0  0  0
 14 17  1  0  0  0  0
 15 18  2  0  0  0  0
 16 17  2  0  0  0  0
 16 18  1  0  0  0  0
 16 21  1  0  0  0  0
 21 22  1  0  0  0  0
M  END
> <PUBCHEM_COMPOUND_ID_TYPE>
0

> <PUBCHEM_TOTAL_CHARGE>
0

> <PUBCHEM_SUBSTANCE_ID>
310947973

> <PUBCHEM_SUBSTANCE_VERSION>
1

> <PUBCHEM_EXT_DATASOURCE_NAME>
4488

> <PUBCHEM_EXT_DATASOURCE_REGID>
SCHEMBL16126147

> <PUBCHEM_SUBSTANCE_COMMENT>
InChI=1S/C20H28N2/c1-4-16-7-9-17(10-8-16)14(2)5-6-15(3)18-11-12-19(21)20(22)13-18/h7-15H,4-6,21-22H2,1-3H3
InChIKey=PJYDJPSSEFJHCB-UHFFFAOYSA-N

> <PUBCHEM_SUBSTANCE_SYNONYM>
SCHEMBL16126147

> <PUBCHEM_XREF_EXT_ID>
SCHEMBL16126147

> <PUBCHEM_EXT_DATASOURCE_URL>
https://www.surechembl.org/

> <PUBCHEM_EXT_SUBSTANCE_URL>
https://www.surechembl.org/chemical/SCHEMBL16126147

> <PUBCHEM_CID_ASSOCIATIONS>
117613620  1

> <PUBCHEM_COORDINATE_TYPE>
1
3

> <PUBCHEM_BONDANNOTATIONS>
21  22  3

$$$$
