310938217
  -OEChem-07211613022D

 29 29  0     1  0  0  0  0  0999 V2000
    2.0163   -6.3673    0.0000 O   0  0  0  0  0  0  0  0  0  0  0  0
    4.4925   -0.7075    0.0000 O   0  0  0  0  0  0  0  0  0  0  0  0
    3.2544    0.0000    0.0000 O   0  0  0  0  0  0  0  0  0  0  0  0
    1.2381   -0.7075    0.0000 O   0  0  0  0  0  0  0  0  0  0  0  0
    0.0000   -1.4149    0.0000 O   0  0  0  0  0  0  0  0  0  0  0  0
    4.4571   -4.9524    0.0000 O   0  0  0  0  0  0  0  0  0  0  0  0
    5.6952   -4.2449    0.0000 O   0  0  0  0  0  0  0  0  0  0  0  0
    3.2544   -5.6598    0.0000 O   0  0  0  0  0  0  0  0  0  0  0  0
    3.2544   -1.4149    0.0000 N   0  0  0  0  0  0  0  0  0  0  0  0
    1.2027   -2.1224    0.0000 N   0  0  0  0  0  0  0  0  0  0  0  0
    4.4571   -3.5374    0.0000 N   0  0  0  0  0  0  0  0  0  0  0  0
    2.4408   -4.2449    0.0000 N   0  0  3  0  0  0  0  0  0  0  0  0
    2.4408   -1.4149    0.0000 C   0  0  0  0  0  0  0  0  0  0  0  0
    2.0517   -2.1224    0.0000 C   0  0  0  0  0  0  0  0  0  0  0  0
    3.6789   -3.5374    0.0000 C   0  0  0  0  0  0  0  0  0  0  0  0
    3.2544   -4.2449    0.0000 C   0  0  0  0  0  0  0  0  0  0  0  0
    3.6789   -0.7075    0.0000 C   0  0  0  0  0  0  0  0  0  0  0  0
    3.6789   -2.1224    0.0000 C   0  0  0  0  0  0  0  0  0  0  0  0
    0.8136   -1.4149    0.0000 C   0  0  0  0  0  0  0  0  0  0  0  0
    0.8136   -2.8299    0.0000 C   0  0  0  0  0  0  0  0  0  0  0  0
    4.8816   -2.8299    0.0000 C   0  0  0  0  0  0  0  0  0  0  0  0
    4.8816   -4.2449    0.0000 C   0  0  0  0  0  0  0  0  0  0  0  0
    2.0517   -3.5374    0.0000 C   0  0  0  0  0  0  0  0  0  0  0  0
    2.0163   -4.9524    0.0000 C   0  0  0  0  0  0  0  0  0  0  0  0
    4.4571   -2.1224    0.0000 C   0  0  0  0  0  0  0  0  0  0  0  0
    1.2027   -3.5374    0.0000 C   0  0  0  0  0  0  0  0  0  0  0  0
    2.4408   -5.6598    0.0000 C   0  0  0  0  0  0  0  0  0  0  0  0
    2.4408   -7.0748    0.0000 C   0  0  0  0  0  0  0  0  0  0  0  0
    3.2544   -7.0748    0.0000 C   0  0  0  0  0  0  0  0  0  0  0  0
  1 27  1  0  0  0  0
  1 28  1  0  0  0  0
  2 17  2  0  0  0  0
  3 17  1  0  0  0  0
  4 19  2  0  0  0  0
  5 19  1  0  0  0  0
  6 22  2  0  0  0  0
  7 22  1  0  0  0  0
  8 27  2  0  0  0  0
  9 13  1  0  0  0  0
  9 17  1  0  0  0  0
  9 18  1  0  0  0  0
 10 14  1  0  0  0  0
 10 19  1  0  0  0  0
 10 20  1  0  0  0  0
 11 15  1  0  0  0  0
 11 21  1  0  0  0  0
 11 22  1  0  0  0  0
 12 16  1  0  0  0  0
 12 23  1  0  0  0  0
 12 24  1  0  0  0  0
 13 14  1  0  0  0  0
 15 16  1  0  0  0  0
 18 25  1  0  0  0  0
 20 26  1  0  0  0  0
 21 25  1  0  0  0  0
 23 26  1  0  0  0  0
 24 27  1  0  0  0  0
 28 29  1  0  0  0  0
M  END
> <PUBCHEM_COMPOUND_ID_TYPE>
0

> <PUBCHEM_TOTAL_CHARGE>
0

> <PUBCHEM_SUBSTANCE_ID>
310938217

> <PUBCHEM_SUBSTANCE_VERSION>
1

> <PUBCHEM_EXT_DATASOURCE_NAME>
4488

> <PUBCHEM_EXT_DATASOURCE_REGID>
SCHEMBL16116078

> <PUBCHEM_SUBSTANCE_COMMENT>
InChI=1S/C17H30N4O8/c1-2-29-14(22)13-18-5-3-6-20(16(25)26)11-12-21(17(27)28)8-4-7-19(10-9-18)15(23)24/h2-13H2,1H3,(H,23,24)(H,25,26)(H,27,28)
InChIKey=PIFWLVUNYYNOLY-UHFFFAOYSA-N

> <PUBCHEM_SUBSTANCE_SYNONYM>
SCHEMBL16116078

> <PUBCHEM_XREF_EXT_ID>
SCHEMBL16116078

> <PUBCHEM_EXT_DATASOURCE_URL>
https://www.surechembl.org/

> <PUBCHEM_EXT_SUBSTANCE_URL>
https://www.surechembl.org/chemical/SCHEMBL16116078

> <PUBCHEM_CID_ASSOCIATIONS>
117605743  1

> <PUBCHEM_COORDINATE_TYPE>
1
3

$$$$
