310941338
  -OEChem-07211613022D

 42 46  0     1  0  0  0  0  0999 V2000
    5.2030   -1.0233    0.0000 O   0  0  0  0  0  0  0  0  0  0  0  0
    4.0644    0.9512    0.0000 O   0  0  0  0  0  0  0  0  0  0  0  0
   -5.5200   -1.0089    0.0000 O   0  0  0  0  0  0  0  0  0  0  0  0
    1.6863   -1.0089    0.0000 O   0  0  0  0  0  0  0  0  0  0  0  0
   -0.4756    1.0809    0.0000 O   0  0  0  0  0  0  0  0  0  0  0  0
   -2.6376   -1.0089    0.0000 O   0  0  0  0  0  0  0  0  0  0  0  0
    3.8482    2.7384    0.0000 O   0  0  0  0  0  0  0  0  0  0  0  0
    2.4069    0.2450    0.0000 N   0  0  0  0  0  0  0  0  0  0  0  0
   -4.0788   -0.1729    0.0000 N   0  0  0  0  0  0  0  0  0  0  0  0
    0.2450   -0.1729    0.0000 N   0  0  0  0  0  0  0  0  0  0  0  0
   -1.9169    0.2450    0.0000 N   0  0  0  0  0  0  0  0  0  0  0  0
    4.7850   -0.2882    0.0000 C   0  0  3  0  0  0  0  0  0  0  0  0
    4.0499    0.1297    0.0000 C   0  0  0  0  0  0  0  0  0  0  0  0
    4.3959   -0.9945    0.0000 C   0  0  0  0  0  0  0  0  0  0  0  0
    3.3582   -0.2738    0.0000 C   0  0  3  0  0  0  0  0  0  0  0  0
    5.5200    0.1442    0.0000 C   0  0  0  0  0  0  0  0  0  0  0  0
    3.3437   -1.3548    0.0000 C   0  0  0  0  0  0  0  0  0  0  0  0
   -4.7994   -1.3548    0.0000 C   0  0  3  0  0  0  0  0  0  0  0  0
   -5.4913   -0.1585    0.0000 C   0  0  3  0  0  0  0  0  0  0  0  0
    1.7007   -0.1297    0.0000 C   0  0  0  0  0  0  0  0  0  0  0  0
   -4.9868   -0.6630    0.0000 C   0  0  0  0  0  0  0  0  0  0  0  0
    0.9512    0.2738    0.0000 C   0  0  3  0  0  0  0  0  0  0  0  0
   -4.7994    0.2595    0.0000 C   0  0  0  0  0  0  0  0  0  0  0  0
   -4.0644   -0.9801    0.0000 C   0  0  0  0  0  0  0  0  0  0  0  0
    2.6231   -1.7728    0.0000 C   0  0  0  0  0  0  0  0  0  0  0  0
   -3.3582    0.2595    0.0000 C   0  0  0  0  0  0  0  0  0  0  0  0
    0.9801    1.1098    0.0000 C   0  0  0  0  0  0  0  0  0  0  0  0
   -0.4756    0.2450    0.0000 C   0  0  0  0  0  0  0  0  0  0  0  0
   -2.6231   -0.1297    0.0000 C   0  0  0  0  0  0  0  0  0  0  0  0
    1.6719    1.5278    0.0000 C   0  0  0  0  0  0  0  0  0  0  0  0
   -1.1819   -0.1442    0.0000 C   0  0  3  0  0  0  0  0  0  0  0  0
    1.8736   -1.4412    0.0000 C   0  0  0  0  0  0  0  0  0  0  0  0
    2.5222   -2.5943    0.0000 C   0  0  0  0  0  0  0  0  0  0  0  0
    1.3259   -2.0466    0.0000 C   0  0  0  0  0  0  0  0  0  0  0  0
    1.7151   -2.7529    0.0000 C   0  0  0  0  0  0  0  0  0  0  0  0
    2.4213    1.1098    0.0000 C   0  0  0  0  0  0  0  0  0  0  0  0
    1.7007    2.3492    0.0000 C   0  0  0  0  0  0  0  0  0  0  0  0
    3.1276    2.3637    0.0000 C   0  0  0  0  0  0  0  0  0  0  0  0
    3.1276    1.5278    0.0000 C   0  0  0  0  0  0  0  0  0  0  0  0
    2.3925    2.7529    0.0000 C   0  0  0  0  0  0  0  0  0  0  0  0
   -1.1819   -0.9945    0.0000 C   0  0  0  0  0  0  0  0  0  0  0  0
    4.5976    2.3349    0.0000 C   0  0  0  0  0  0  0  0  0  0  0  0
  1 12  1  0  0  0  0
  1 14  1  0  0  0  0
  2 13  2  0  0  0  0
  3 18  1  0  0  0  0
  3 19  1  0  0  0  0
  4 20  2  0  0  0  0
  5 28  2  0  0  0  0
  6 29  2  0  0  0  0
  7 38  1  0  0  0  0
  7 42  1  0  0  0  0
  8 15  1  0  0  0  0
  8 20  1  0  0  0  0
  9 23  1  0  0  0  0
  9 24  1  0  0  0  0
  9 26  1  0  0  0  0
 10 22  1  0  0  0  0
 10 28  1  0  0  0  0
 11 29  1  0  0  0  0
 11 31  1  0  0  0  0
 12 13  1  0  0  0  0
 12 14  1  0  0  0  0
 12 16  1  0  0  0  0
 13 15  1  0  0  0  0
 15 17  1  0  0  0  0
 17 25  1  0  0  0  0
 18 21  1  0  0  0  0
 18 24  1  0  0  0  0
 19 21  1  0  0  0  0
 19 23  1  0  0  0  0
 20 22  1  0  0  0  0
 22 27  1  0  0  0  0
 25 32  1  0  0  0  0
 25 33  1  0  0  0  0
 26 29  1  0  0  0  0
 27 30  1  0  0  0  0
 28 31  1  0  0  0  0
 30 36  2  0  0  0  0
 30 37  1  0  0  0  0
 31 41  1  0  0  0  0
 32 34  1  0  0  0  0
 33 35  1  0  0  0  0
 34 35  1  0  0  0  0
 36 39  1  0  0  0  0
 37 40  2  0  0  0  0
 38 39  2  0  0  0  0
 38 40  1  0  0  0  0
M  END
> <PUBCHEM_COMPOUND_ID_TYPE>
0

> <PUBCHEM_TOTAL_CHARGE>
0

> <PUBCHEM_SUBSTANCE_ID>
310941338

> <PUBCHEM_SUBSTANCE_VERSION>
1

> <PUBCHEM_EXT_DATASOURCE_NAME>
4488

> <PUBCHEM_EXT_DATASOURCE_REGID>
SCHEMBL16119298

> <PUBCHEM_SUBSTANCE_COMMENT>
InChI=1S/C31H44N4O7/c1-19(32-27(36)17-35-15-23-14-24(16-35)42-23)29(38)34-26(13-21-8-10-22(40-3)11-9-21)30(39)33-25(12-20-6-4-5-7-20)28(37)31(2)18-41-31/h8-11,19-20,23-26H,4-7,12-18H2,1-3H3,(H,32,36)(H,33,39)(H,34,38)
InChIKey=AUDINYYKOGWZLY-UHFFFAOYSA-N

> <PUBCHEM_SUBSTANCE_SYNONYM>
SCHEMBL16119298

> <PUBCHEM_XREF_EXT_ID>
SCHEMBL16119298

> <PUBCHEM_EXT_DATASOURCE_URL>
https://www.surechembl.org/

> <PUBCHEM_EXT_SUBSTANCE_URL>
https://www.surechembl.org/chemical/SCHEMBL16119298

> <PUBCHEM_CID_ASSOCIATIONS>
117608181  1

> <PUBCHEM_COORDINATE_TYPE>
1
3

$$$$
