310934859
  -OEChem-07211613022D

 28 30  0     1  0  0  0  0  0999 V2000
    0.0000   -5.3777    0.0000 F   0  0  0  0  0  0  0  0  0  0  0  0
    1.2527   -6.1110    0.0000 F   0  0  0  0  0  0  0  0  0  0  0  0
    0.4277   -4.6749    0.0000 F   0  0  0  0  0  0  0  0  0  0  0  0
    7.3637   -1.6499    0.0000 F   0  0  0  0  0  0  0  0  0  0  0  0
    6.6304   -3.7277    0.0000 O   0  0  0  0  0  0  0  0  0  0  0  0
    8.0665   -2.9027    0.0000 O   0  0  0  0  0  0  0  0  0  0  0  0
    2.2916   -3.7277    0.0000 N   0  0  0  0  0  0  0  0  0  0  0  0
    3.0249   -4.9805    0.0000 N   0  0  0  0  0  0  0  0  0  0  0  0
    7.3637   -2.4749    0.0000 N   0  0  0  0  0  0  0  0  0  0  0  0
    5.9277   -2.4749    0.0000 C   0  0  3  0  0  0  0  0  0  0  0  0
    5.1944   -2.9027    0.0000 C   0  0  0  0  0  0  0  0  0  0  0  0
    5.9277   -1.6499    0.0000 C   0  0  0  0  0  0  0  0  0  0  0  0
    3.7583   -3.7277    0.0000 C   0  0  0  0  0  0  0  0  0  0  0  0
    3.0249   -4.1555    0.0000 C   0  0  0  0  0  0  0  0  0  0  0  0
    1.5583   -4.9805    0.0000 C   0  0  0  0  0  0  0  0  0  0  0  0
    6.6304   -2.9027    0.0000 C   0  0  0  0  0  0  0  0  0  0  0  0
    0.8250   -5.3777    0.0000 C   0  0  0  0  0  0  0  0  0  0  0  0
    5.1944   -3.7277    0.0000 C   0  0  0  0  0  0  0  0  0  0  0  0
    4.4916   -2.5055    0.0000 C   0  0  0  0  0  0  0  0  0  0  0  0
    6.6304   -1.2222    0.0000 C   0  0  0  0  0  0  0  0  0  0  0  0
    4.4916   -4.1555    0.0000 C   0  0  0  0  0  0  0  0  0  0  0  0
    3.7583   -2.9027    0.0000 C   0  0  0  0  0  0  0  0  0  0  0  0
    1.5888   -4.1555    0.0000 C   0  0  0  0  0  0  0  0  0  0  0  0
    2.2916   -5.3777    0.0000 C   0  0  0  0  0  0  0  0  0  0  0  0
    5.1944   -1.2222    0.0000 C   0  0  0  0  0  0  0  0  0  0  0  0
    6.6304   -0.3972    0.0000 C   0  0  0  0  0  0  0  0  0  0  0  0
    5.1944   -0.3972    0.0000 C   0  0  0  0  0  0  0  0  0  0  0  0
    5.9277    0.0000    0.0000 C   0  0  0  0  0  0  0  0  0  0  0  0
  1 17  1  0  0  0  0
  2 17  1  0  0  0  0
  3 17  1  0  0  0  0
  4 20  1  0  0  0  0
  5 16  2  0  0  0  0
  6  9  1  0  0  0  0
  7 14  2  0  0  0  0
  7 23  1  0  0  0  0
  8 14  1  0  0  0  0
  8 24  2  0  0  0  0
  9 16  1  0  0  0  0
 10 11  1  0  0  0  0
 10 12  1  0  0  0  0
 10 16  1  0  0  0  0
 11 18  2  0  0  0  0
 11 19  1  0  0  0  0
 12 20  1  0  0  0  0
 12 25  2  0  0  0  0
 13 14  1  0  0  0  0
 13 21  2  0  0  0  0
 13 22  1  0  0  0  0
 15 17  1  0  0  0  0
 15 23  2  0  0  0  0
 15 24  1  0  0  0  0
 18 21  1  0  0  0  0
 19 22  2  0  0  0  0
 20 26  2  0  0  0  0
 25 27  1  0  0  0  0
 26 28  1  0  0  0  0
 27 28  2  0  0  0  0
M  END
> <PUBCHEM_COMPOUND_ID_TYPE>
0

> <PUBCHEM_TOTAL_CHARGE>
0

> <PUBCHEM_SUBSTANCE_ID>
310934859

> <PUBCHEM_SUBSTANCE_VERSION>
1

> <PUBCHEM_EXT_DATASOURCE_NAME>
4488

> <PUBCHEM_EXT_DATASOURCE_REGID>
SCHEMBL16112368

> <PUBCHEM_SUBSTANCE_COMMENT>
InChI=1S/C19H13F4N3O2/c20-15-4-2-1-3-14(15)16(18(27)26-28)11-5-7-12(8-6-11)17-24-9-13(10-25-17)19(21,22)23/h1-10,16,28H,(H,26,27)
InChIKey=LMGDHGQJJLEAPQ-UHFFFAOYSA-N

> <PUBCHEM_SUBSTANCE_SYNONYM>
SCHEMBL16112368

> <PUBCHEM_XREF_EXT_ID>
SCHEMBL16112368

> <PUBCHEM_EXT_DATASOURCE_URL>
https://www.surechembl.org/

> <PUBCHEM_EXT_SUBSTANCE_URL>
https://www.surechembl.org/chemical/SCHEMBL16112368

> <PUBCHEM_CID_ASSOCIATIONS>
81689842  1

> <PUBCHEM_COORDINATE_TYPE>
1
3

$$$$
