310943777
  -OEChem-07211613022D

 32 34  0     1  0  0  0  0  0999 V2000
   -0.6898   -2.6169    0.0000 O   0  0  0  0  0  0  0  0  0  0  0  0
    3.6053    2.2044    0.0000 O   0  0  0  0  0  0  0  0  0  0  0  0
    3.1644    0.8391    0.0000 O   0  0  0  0  0  0  0  0  0  0  0  0
   -1.4009   -1.3796    0.0000 N   0  0  0  0  0  0  0  0  0  0  0  0
   -2.0835   -0.8960    0.0000 N   0  0  0  0  0  0  0  0  0  0  0  0
    0.3342    0.4551    0.0000 N   0  0  3  0  0  0  0  0  0  0  0  0
    2.1262    1.6924    0.0000 N   0  0  0  0  0  0  0  0  0  0  0  0
   -1.8275   -0.0853    0.0000 C   0  0  0  0  0  0  0  0  0  0  0  0
   -1.0026   -0.0996    0.0000 C   0  0  0  0  0  0  0  0  0  0  0  0
   -2.3253    0.5689    0.0000 C   0  0  0  0  0  0  0  0  0  0  0  0
   -0.7467   -0.8818    0.0000 C   0  0  0  0  0  0  0  0  0  0  0  0
   -1.4151   -2.1760    0.0000 C   0  0  3  0  0  0  0  0  0  0  0  0
   -0.5049    0.5689    0.0000 C   0  0  0  0  0  0  0  0  0  0  0  0
   -3.1502    0.4836    0.0000 C   0  0  0  0  0  0  0  0  0  0  0  0
   -1.9840    1.3226    0.0000 C   0  0  0  0  0  0  0  0  0  0  0  0
   -3.3066    1.9058    0.0000 C   0  0  0  0  0  0  0  0  0  0  0  0
   -3.6195    1.1520    0.0000 C   0  0  0  0  0  0  0  0  0  0  0  0
   -2.4818    1.9769    0.0000 C   0  0  0  0  0  0  0  0  0  0  0  0
   -2.1262   -2.5884    0.0000 C   0  0  0  0  0  0  0  0  0  0  0  0
   -0.7040   -3.4133    0.0000 C   0  0  0  0  0  0  0  0  0  0  0  0
   -2.1404   -3.4133    0.0000 C   0  0  0  0  0  0  0  0  0  0  0  0
    0.8177    1.1520    0.0000 C   0  0  0  0  0  0  0  0  0  0  0  0
   -4.1315    2.0907    0.0000 C   0  0  0  0  0  0  0  0  0  0  0  0
   -3.2498    2.7449    0.0000 C   0  0  0  0  0  0  0  0  0  0  0  0
   -1.3867   -3.8115    0.0000 C   0  0  0  0  0  0  0  0  0  0  0  0
    0.6756   -0.2845    0.0000 C   0  0  0  0  0  0  0  0  0  0  0  0
    1.6427    1.0667    0.0000 C   0  0  0  0  0  0  0  0  0  0  0  0
    2.9653    1.6213    0.0000 C   0  0  0  0  0  0  0  0  0  0  0  0
    3.4062    3.0151    0.0000 C   0  0  0  0  0  0  0  0  0  0  0  0
    4.1315    3.2284    0.0000 C   0  0  0  0  0  0  0  0  0  0  0  0
    2.6667    2.8302    0.0000 C   0  0  0  0  0  0  0  0  0  0  0  0
    3.1929    3.8115    0.0000 C   0  0  0  0  0  0  0  0  0  0  0  0
  1 12  1  0  0  0  0
  1 20  1  0  0  0  0
  2 28  1  0  0  0  0
  2 29  1  0  0  0  0
  3 28  2  0  0  0  0
  4  5  1  0  0  0  0
  4 11  1  0  0  0  0
  4 12  1  0  0  0  0
  5  8  2  0  0  0  0
  6 13  1  0  0  0  0
  6 22  1  0  0  0  0
  6 26  1  0  0  0  0
  7 27  1  0  0  0  0
  7 28  1  0  0  0  0
  8  9  1  0  0  0  0
  8 10  1  0  0  0  0
  9 11  2  0  0  0  0
  9 13  1  0  0  0  0
 10 14  1  0  0  0  0
 10 15  1  0  0  0  0
 12 19  1  0  0  0  0
 14 17  1  0  0  0  0
 15 18  1  0  0  0  0
 16 17  1  0  0  0  0
 16 18  1  0  0  0  0
 16 23  1  0  0  0  0
 16 24  1  0  0  0  0
 19 21  1  0  0  0  0
 20 25  1  0  0  0  0
 21 25  1  0  0  0  0
 22 27  1  0  0  0  0
 29 30  1  0  0  0  0
 29 31  1  0  0  0  0
 29 32  1  0  0  0  0
M  END
> <PUBCHEM_COMPOUND_ID_TYPE>
0

> <PUBCHEM_TOTAL_CHARGE>
0

> <PUBCHEM_SUBSTANCE_ID>
310943777

> <PUBCHEM_SUBSTANCE_VERSION>
1

> <PUBCHEM_EXT_DATASOURCE_NAME>
4488

> <PUBCHEM_EXT_DATASOURCE_REGID>
SCHEMBL16121846

> <PUBCHEM_SUBSTANCE_COMMENT>
InChI=1S/C25H44N4O3/c1-24(2,3)32-23(30)26-14-15-28(6)17-20-18-29(21-9-7-8-16-31-21)27-22(20)19-10-12-25(4,5)13-11-19/h18-19,21H,7-17H2,1-6H3,(H,26,30)
InChIKey=LLBQPKLQSQSEJT-UHFFFAOYSA-N

> <PUBCHEM_SUBSTANCE_SYNONYM>
SCHEMBL16121846

> <PUBCHEM_XREF_EXT_ID>
SCHEMBL16121846

> <PUBCHEM_EXT_DATASOURCE_URL>
https://www.surechembl.org/

> <PUBCHEM_EXT_SUBSTANCE_URL>
https://www.surechembl.org/chemical/SCHEMBL16121846

> <PUBCHEM_CID_ASSOCIATIONS>
117610138  1

> <PUBCHEM_COORDINATE_TYPE>
1
3

$$$$
