310932826
  -OEChem-07211613022D

  9  9  0     1  0  0  0  0  0999 V2000
    0.7145    0.4125    0.0000 Cl  0  0  0  0  0  0  0  0  0  0  0  0
   -2.0202    0.6901    0.0000 P   0  0  3  0  0  0  0  0  0  0  0  0
   -1.4682    0.0770    0.0000 O   0  0  0  0  0  0  0  0  0  0  0  0
   -1.6077    1.4045    0.0000 O   0  0  0  0  0  0  0  0  0  0  0  0
   -2.6877    0.2051    0.0000 O   0  0  0  0  0  0  0  0  0  0  0  0
   -2.7739    1.0256    0.0000 O   0  0  0  0  0  0  0  0  0  0  0  0
   -0.7145    0.4125    0.0000 C   0  0  3  0  0  0  0  0  0  0  0  0
   -0.8007    1.2330    0.0000 C   0  0  0  0  0  0  0  0  0  0  0  0
    0.0000    0.0000    0.0000 C   0  0  0  0  0  0  0  0  0  0  0  0
  1  9  1  0  0  0  0
  2  3  1  0  0  0  0
  2  4  1  0  0  0  0
  2  5  2  0  0  0  0
  2  6  1  0  0  0  0
  3  7  1  0  0  0  0
  4  8  1  0  0  0  0
  7  8  1  0  0  0  0
  7  9  1  0  0  0  0
M  END
> <PUBCHEM_COMPOUND_ID_TYPE>
0

> <PUBCHEM_TOTAL_CHARGE>
0

> <PUBCHEM_SUBSTANCE_ID>
310932826

> <PUBCHEM_SUBSTANCE_VERSION>
1

> <PUBCHEM_EXT_DATASOURCE_NAME>
4488

> <PUBCHEM_EXT_DATASOURCE_REGID>
SCHEMBL16110214

> <PUBCHEM_SUBSTANCE_COMMENT>
InChI=1S/C3H6ClO4P/c4-1-3-2-7-9(5,6)8-3/h3H,1-2H2,(H,5,6)
InChIKey=NWHWYLWAGVWFTL-UHFFFAOYSA-N

> <PUBCHEM_SUBSTANCE_SYNONYM>
SCHEMBL16110214

> <PUBCHEM_XREF_EXT_ID>
SCHEMBL16110214

> <PUBCHEM_EXT_DATASOURCE_URL>
https://www.surechembl.org/

> <PUBCHEM_EXT_SUBSTANCE_URL>
https://www.surechembl.org/chemical/SCHEMBL16110214

> <PUBCHEM_CID_ASSOCIATIONS>
117601315  1

> <PUBCHEM_COORDINATE_TYPE>
1
3

$$$$
