310946473
  -OEChem-07211613022D

 26 26  0     1  0  0  0  0  0999 V2000
   -1.0717   10.9702    0.0000 O   0  0  0  0  0  0  0  0  0  0  0  0
    0.1658   13.5557    0.0000 O   0  0  0  0  0  0  0  0  0  0  0  0
   -1.7862    9.7327    0.0000 O   0  0  0  0  0  0  0  0  0  0  0  0
    0.1658   14.9847    0.0000 O   0  0  0  0  0  0  0  0  0  0  0  0
   -1.0717   14.2702    0.0000 N   0  0  0  0  0  0  0  0  0  0  0  0
   -3.2151   10.5577    0.0000 N   0  0  0  0  0  0  0  0  0  0  0  0
    0.3572   10.9702    0.0000 C   0  0  0  0  0  0  0  0  0  0  0  0
   -1.7862   10.5577    0.0000 C   0  0  0  0  0  0  0  0  0  0  0  0
    1.7862   11.7952    0.0000 C   0  0  0  0  0  0  0  0  0  0  0  0
   -2.5006   10.9702    0.0000 C   0  0  3  0  0  0  0  0  0  0  0  0
    0.9908   13.5557    0.0000 C   0  0  0  0  0  0  0  0  0  0  0  0
   -0.3572   10.5577    0.0000 C   0  0  0  0  0  0  0  0  0  0  0  0
    0.3572   11.7952    0.0000 C   0  0  0  0  0  0  0  0  0  0  0  0
    1.0717   10.5577    0.0000 C   0  0  0  0  0  0  0  0  0  0  0  0
    1.0717   12.2077    0.0000 C   0  0  0  0  0  0  0  0  0  0  0  0
    1.7862   10.9702    0.0000 C   0  0  0  0  0  0  0  0  0  0  0  0
   -0.2467   14.2702    0.0000 C   0  0  0  0  0  0  0  0  0  0  0  0
   -2.5006   11.7952    0.0000 C   0  0  0  0  0  0  0  0  0  0  0  0
    2.5006   12.2077    0.0000 C   0  0  0  0  0  0  0  0  0  0  0  0
   -1.7862   12.2077    0.0000 C   0  0  0  0  0  0  0  0  0  0  0  0
   -1.0717   13.4452    0.0000 C   0  0  0  0  0  0  0  0  0  0  0  0
    0.9908   14.3807    0.0000 C   0  0  0  0  0  0  0  0  0  0  0  0
    0.9908   12.7307    0.0000 C   0  0  0  0  0  0  0  0  0  0  0  0
    1.7053   13.1432    0.0000 C   0  0  0  0  0  0  0  0  0  0  0  0
   -1.7862   13.0327    0.0000 C   0  0  0  0  0  0  0  0  0  0  0  0
    3.2151   11.7952    0.0000 C   0  0  0  0  0  0  0  0  0  0  0  0
  1  8  1  0  0  0  0
  1 12  1  0  0  0  0
  2 11  1  0  0  0  0
  2 17  1  0  0  0  0
  3  8  2  0  0  0  0
  4 17  2  0  0  0  0
  5 17  1  0  0  0  0
  5 21  1  0  0  0  0
  6 10  1  0  0  0  0
  7 12  1  0  0  0  0
  7 13  2  0  0  0  0
  7 14  1  0  0  0  0
  8 10  1  0  0  0  0
  9 15  2  0  0  0  0
  9 16  1  0  0  0  0
  9 19  1  0  0  0  0
 10 18  1  0  0  0  0
 11 22  1  0  0  0  0
 11 23  1  0  0  0  0
 11 24  1  0  0  0  0
 13 15  1  0  0  0  0
 14 16  2  0  0  0  0
 18 20  1  0  0  0  0
 19 26  1  0  0  0  0
 20 25  1  0  0  0  0
 21 25  1  0  0  0  0
M  END
> <PUBCHEM_COMPOUND_ID_TYPE>
0

> <PUBCHEM_TOTAL_CHARGE>
0

> <PUBCHEM_SUBSTANCE_ID>
310946473

> <PUBCHEM_SUBSTANCE_VERSION>
1

> <PUBCHEM_EXT_DATASOURCE_NAME>
4488

> <PUBCHEM_EXT_DATASOURCE_REGID>
SCHEMBL16124594

> <PUBCHEM_SUBSTANCE_COMMENT>
InChI=1S/C20H32N2O4/c1-5-15-9-11-16(12-10-15)14-25-18(23)17(21)8-6-7-13-22-19(24)26-20(2,3)4/h9-12,17H,5-8,13-14,21H2,1-4H3,(H,22,24)
InChIKey=WWJDQWCASMZJBE-UHFFFAOYSA-N

> <PUBCHEM_SUBSTANCE_SYNONYM>
SCHEMBL16124594

> <PUBCHEM_XREF_EXT_ID>
SCHEMBL16124594

> <PUBCHEM_EXT_DATASOURCE_URL>
https://www.surechembl.org/

> <PUBCHEM_EXT_SUBSTANCE_URL>
https://www.surechembl.org/chemical/SCHEMBL16124594

> <PUBCHEM_CID_ASSOCIATIONS>
117612382  1

> <PUBCHEM_COORDINATE_TYPE>
1
3

$$$$
