310937466
  -OEChem-07211613022D

 36 39  0     1  0  0  0  0  0999 V2000
    3.6040   -4.9500    0.0000 O   0  0  0  0  0  0  0  0  0  0  0  0
    6.5131   -4.9934    0.0000 O   0  0  0  0  0  0  0  0  0  0  0  0
    5.8618   -2.2145    0.0000 N   0  0  3  0  0  0  0  0  0  0  0  0
    5.0368   -4.9500    0.0000 N   0  0  0  0  0  0  0  0  0  0  0  0
    1.4763   -2.0842    0.0000 N   0  0  0  0  0  0  0  0  0  0  0  0
    2.1710   -0.8250    0.0000 N   0  0  0  0  0  0  0  0  0  0  0  0
    7.2078   -6.2092    0.0000 N   0  0  0  0  0  0  0  0  0  0  0  0
    0.6947   -0.8250    0.0000 N   0  0  0  0  0  0  0  0  0  0  0  0
    5.0802   -3.3000    0.0000 C   0  0  0  0  0  0  0  0  0  0  0  0
    5.0802   -2.4750    0.0000 C   0  0  0  0  0  0  0  0  0  0  0  0
    4.3421   -3.6908    0.0000 C   0  0  0  0  0  0  0  0  0  0  0  0
    3.6473   -2.4750    0.0000 C   0  0  0  0  0  0  0  0  0  0  0  0
    4.3421   -2.0408    0.0000 C   0  0  0  0  0  0  0  0  0  0  0  0
    3.6473   -3.3000    0.0000 C   0  0  0  0  0  0  0  0  0  0  0  0
    5.8618   -3.5605    0.0000 C   0  0  0  0  0  0  0  0  0  0  0  0
    4.3421   -4.5158    0.0000 C   0  0  0  0  0  0  0  0  0  0  0  0
    6.3395   -2.8658    0.0000 C   0  0  0  0  0  0  0  0  0  0  0  0
    2.9092   -2.0842    0.0000 C   0  0  0  0  0  0  0  0  0  0  0  0
    6.1223   -1.4329    0.0000 C   0  0  0  0  0  0  0  0  0  0  0  0
    5.7750   -6.2092    0.0000 C   0  0  0  0  0  0  0  0  0  0  0  0
    2.1710   -2.4750    0.0000 C   0  0  0  0  0  0  0  0  0  0  0  0
    2.8658   -1.2158    0.0000 C   0  0  0  0  0  0  0  0  0  0  0  0
    5.0368   -5.7750    0.0000 C   0  0  0  0  0  0  0  0  0  0  0  0
    5.7750   -7.0342    0.0000 C   0  0  0  0  0  0  0  0  0  0  0  0
    6.5131   -5.8184    0.0000 C   0  0  0  0  0  0  0  0  0  0  0  0
    1.4329   -1.2158    0.0000 C   0  0  0  0  0  0  0  0  0  0  0  0
    5.5578   -0.7816    0.0000 C   0  0  0  0  0  0  0  0  0  0  0  0
    6.9039   -1.2592    0.0000 C   0  0  0  0  0  0  0  0  0  0  0  0
    6.5131   -7.4249    0.0000 C   0  0  0  0  0  0  0  0  0  0  0  0
    7.2513   -7.0342    0.0000 C   0  0  0  0  0  0  0  0  0  0  0  0
    5.0802   -7.4684    0.0000 C   0  0  0  0  0  0  0  0  0  0  0  0
    7.9460   -7.4684    0.0000 C   0  0  0  0  0  0  0  0  0  0  0  0
    5.0802   -8.2934    0.0000 C   0  0  0  0  0  0  0  0  0  0  0  0
    0.6947    0.0000    0.0000 C   0  0  0  0  0  0  0  0  0  0  0  0
    0.0000   -1.2592    0.0000 C   0  0  0  0  0  0  0  0  0  0  0  0
    5.8184   -8.6842    0.0000 C   0  0  0  0  0  0  0  0  0  0  0  0
  1 16  2  0  0  0  0
  2 25  2  0  0  0  0
  3 10  1  0  0  0  0
  3 17  1  0  0  0  0
  3 19  1  0  0  0  0
  4 16  1  0  0  0  0
  4 23  1  0  0  0  0
  5 21  1  0  0  0  0
  5 26  2  0  0  0  0
  6 22  2  0  0  0  0
  6 26  1  0  0  0  0
  7 25  1  0  0  0  0
  7 30  1  0  0  0  0
  8 26  1  0  0  0  0
  8 34  1  0  0  0  0
  8 35  1  0  0  0  0
  9 10  2  0  0  0  0
  9 11  1  0  0  0  0
  9 15  1  0  0  0  0
 10 13  1  0  0  0  0
 11 14  2  0  0  0  0
 11 16  1  0  0  0  0
 12 13  2  0  0  0  0
 12 14  1  0  0  0  0
 12 18  1  0  0  0  0
 15 17  1  0  0  0  0
 18 21  2  0  0  0  0
 18 22  1  0  0  0  0
 19 27  1  0  0  0  0
 19 28  1  0  0  0  0
 20 23  1  0  0  0  0
 20 24  2  0  0  0  0
 20 25  1  0  0  0  0
 24 29  1  0  0  0  0
 24 31  1  0  0  0  0
 29 30  2  0  0  0  0
 30 32  1  0  0  0  0
 31 33  1  0  0  0  0
 33 36  1  0  0  0  0
M  END
> <PUBCHEM_COMPOUND_ID_TYPE>
0

> <PUBCHEM_TOTAL_CHARGE>
0

> <PUBCHEM_SUBSTANCE_ID>
310937466

> <PUBCHEM_SUBSTANCE_VERSION>
1

> <PUBCHEM_EXT_DATASOURCE_NAME>
4488

> <PUBCHEM_EXT_DATASOURCE_REGID>
SCHEMBL16115236

> <PUBCHEM_SUBSTANCE_COMMENT>
InChI=1S/C28H36N6O2/c1-7-8-19-11-18(4)32-27(36)24(19)16-29-26(35)23-12-20(21-14-30-28(31-15-21)33(5)6)13-25-22(23)9-10-34(25)17(2)3/h11-15,17H,7-10,16H2,1-6H3,(H,29,35)(H,32,36)
InChIKey=SWMFGTXIZBPNCH-UHFFFAOYSA-N

> <PUBCHEM_SUBSTANCE_SYNONYM>
SCHEMBL16115236

> <PUBCHEM_XREF_EXT_ID>
SCHEMBL16115236

> <PUBCHEM_EXT_DATASOURCE_URL>
https://www.surechembl.org/

> <PUBCHEM_EXT_SUBSTANCE_URL>
https://www.surechembl.org/chemical/SCHEMBL16115236

> <PUBCHEM_CID_ASSOCIATIONS>
86274591  1

> <PUBCHEM_COORDINATE_TYPE>
1
3

$$$$
