310945857
  -OEChem-07211613022D

 40 42  0     1  0  0  0  0  0999 V2000
   -3.9424    1.2194    0.0000 F   0  0  0  0  0  0  0  0  0  0  0  0
   -3.2219    1.6352    0.0000 F   0  0  0  0  0  0  0  0  0  0  0  0
   -2.5012    1.2194    0.0000 F   0  0  0  0  0  0  0  0  0  0  0  0
    4.3582    0.6790    0.0000 O   0  0  0  0  0  0  0  0  0  0  0  0
    3.2357   -1.2749    0.0000 O   0  0  0  0  0  0  0  0  0  0  0  0
    1.0740    0.7899    0.0000 O   0  0  0  0  0  0  0  0  0  0  0  0
   -1.0740   -1.2749    0.0000 O   0  0  0  0  0  0  0  0  0  0  0  0
    3.2357   -2.9378    0.0000 O   0  0  0  0  0  0  0  0  0  0  0  0
   -4.6630   -0.0416    0.0000 O   0  0  0  0  0  0  0  0  0  0  0  0
    1.7807   -0.4434    0.0000 N   0  0  0  0  0  0  0  0  0  0  0  0
   -0.3673   -0.0277    0.0000 N   0  0  0  0  0  0  0  0  0  0  0  0
   -2.5151   -0.4434    0.0000 N   0  0  0  0  0  0  0  0  0  0  0  0
    3.9286   -0.0139    0.0000 C   0  0  3  0  0  0  0  0  0  0  0  0
    3.2357   -0.4157    0.0000 C   0  0  0  0  0  0  0  0  0  0  0  0
    3.5544    0.6928    0.0000 C   0  0  0  0  0  0  0  0  0  0  0  0
    2.5012   -0.0277    0.0000 C   0  0  3  0  0  0  0  0  0  0  0  0
    4.6630   -0.4712    0.0000 C   0  0  0  0  0  0  0  0  0  0  0  0
    2.5151    1.2888    0.0000 C   0  0  0  0  0  0  0  0  0  0  0  0
    1.0601   -0.0416    0.0000 C   0  0  0  0  0  0  0  0  0  0  0  0
    0.3534   -0.4296    0.0000 C   0  0  3  0  0  0  0  0  0  0  0  0
    1.7807    1.7322    0.0000 C   0  0  0  0  0  0  0  0  0  0  0  0
    0.3534   -1.2610    0.0000 C   0  0  0  0  0  0  0  0  0  0  0  0
   -1.0740   -0.4157    0.0000 C   0  0  0  0  0  0  0  0  0  0  0  0
   -1.8084   -0.0277    0.0000 C   0  0  3  0  0  0  0  0  0  0  0  0
    1.0740   -1.6906    0.0000 C   0  0  0  0  0  0  0  0  0  0  0  0
   -3.2357   -0.0277    0.0000 C   0  0  3  0  0  0  0  0  0  0  0  0
   -3.2219    0.8176    0.0000 C   0  0  0  0  0  0  0  0  0  0  0  0
    1.0878    1.3026    0.0000 C   0  0  0  0  0  0  0  0  0  0  0  0
    1.7807    2.5359    0.0000 C   0  0  0  0  0  0  0  0  0  0  0  0
    1.7807   -1.2888    0.0000 C   0  0  0  0  0  0  0  0  0  0  0  0
    1.0740   -2.5082    0.0000 C   0  0  0  0  0  0  0  0  0  0  0  0
   -3.9424   -0.4434    0.0000 C   0  0  0  0  0  0  0  0  0  0  0  0
    0.3534    1.7183    0.0000 C   0  0  0  0  0  0  0  0  0  0  0  0
    1.0601    2.9378    0.0000 C   0  0  0  0  0  0  0  0  0  0  0  0
    2.4874   -2.5082    0.0000 C   0  0  0  0  0  0  0  0  0  0  0  0
    2.5012   -1.6906    0.0000 C   0  0  0  0  0  0  0  0  0  0  0  0
    1.8084   -2.9239    0.0000 C   0  0  0  0  0  0  0  0  0  0  0  0
   -1.8084    0.8176    0.0000 C   0  0  0  0  0  0  0  0  0  0  0  0
    0.3534    2.5359    0.0000 C   0  0  0  0  0  0  0  0  0  0  0  0
    3.9286   -2.5082    0.0000 C   0  0  0  0  0  0  0  0  0  0  0  0
  1 27  1  0  0  0  0
  2 27  1  0  0  0  0
  3 27  1  0  0  0  0
  4 13  1  0  0  0  0
  4 15  1  0  0  0  0
  5 14  2  0  0  0  0
  6 19  2  0  0  0  0
  7 23  2  0  0  0  0
  8 35  1  0  0  0  0
  8 40  1  0  0  0  0
  9 32  1  0  0  0  0
 10 16  1  0  0  0  0
 10 19  1  0  0  0  0
 11 20  1  0  0  0  0
 11 23  1  0  0  0  0
 12 24  1  0  0  0  0
 12 26  1  0  0  0  0
 13 14  1  0  0  0  0
 13 15  1  0  0  0  0
 13 17  1  0  0  0  0
 14 16  1  0  0  0  0
 16 18  1  0  0  0  0
 18 21  1  0  0  0  0
 19 20  1  0  0  0  0
 20 22  1  0  0  0  0
 21 28  2  0  0  0  0
 21 29  1  0  0  0  0
 22 25  1  0  0  0  0
 23 24  1  0  0  0  0
 24 38  1  0  0  0  0
 25 30  2  0  0  0  0
 25 31  1  0  0  0  0
 26 27  1  0  0  0  0
 26 32  1  0  0  0  0
 28 33  1  0  0  0  0
 29 34  2  0  0  0  0
 30 36  1  0  0  0  0
 31 37  2  0  0  0  0
 33 39  2  0  0  0  0
 34 39  1  0  0  0  0
 35 36  2  0  0  0  0
 35 37  1  0  0  0  0
M  END
> <PUBCHEM_COMPOUND_ID_TYPE>
0

> <PUBCHEM_TOTAL_CHARGE>
0

> <PUBCHEM_SUBSTANCE_ID>
310945857

> <PUBCHEM_SUBSTANCE_VERSION>
1

> <PUBCHEM_EXT_DATASOURCE_NAME>
4488

> <PUBCHEM_EXT_DATASOURCE_REGID>
SCHEMBL16123962

> <PUBCHEM_SUBSTANCE_COMMENT>
InChI=1S/C28H34F3N3O6/c1-17(32-23(15-35)28(29,30)31)25(37)34-22(14-19-9-11-20(39-3)12-10-19)26(38)33-21(24(36)27(2)16-40-27)13-18-7-5-4-6-8-18/h4-12,17,21-23,32,35H,13-16H2,1-3H3,(H,33,38)(H,34,37)
InChIKey=QBKUWLNONCPFOV-UHFFFAOYSA-N

> <PUBCHEM_SUBSTANCE_SYNONYM>
SCHEMBL16123962

> <PUBCHEM_XREF_EXT_ID>
SCHEMBL16123962

> <PUBCHEM_EXT_DATASOURCE_URL>
https://www.surechembl.org/

> <PUBCHEM_EXT_SUBSTANCE_URL>
https://www.surechembl.org/chemical/SCHEMBL16123962

> <PUBCHEM_CID_ASSOCIATIONS>
117611841  1

> <PUBCHEM_COORDINATE_TYPE>
1
3

$$$$
