310946448
  -OEChem-07211613022D

 16 16  0     1  0  0  0  0  0999 V2000
   -1.4233    1.5372    0.0000 O   0  0  0  0  0  0  0  0  0  0  0  0
   -2.1378    0.2997    0.0000 O   0  0  0  0  0  0  0  0  0  0  0  0
   -3.5667    2.7747    0.0000 O   0  0  0  0  0  0  0  0  0  0  0  0
   -3.5667    1.1247    0.0000 N   0  0  0  0  0  0  0  0  0  0  0  0
   -0.7088    1.1247    0.0000 C   0  0  0  0  0  0  0  0  0  0  0  0
   -2.1378    1.1247    0.0000 C   0  0  0  0  0  0  0  0  0  0  0  0
   -2.8522    1.5372    0.0000 C   0  0  3  0  0  0  0  0  0  0  0  0
   -0.7088    0.2997    0.0000 C   0  0  0  0  0  0  0  0  0  0  0  0
    0.0057    1.5372    0.0000 C   0  0  0  0  0  0  0  0  0  0  0  0
    0.7201    0.2997    0.0000 C   0  0  0  0  0  0  0  0  0  0  0  0
    0.0057   -0.1128    0.0000 C   0  0  0  0  0  0  0  0  0  0  0  0
    0.7201    1.1247    0.0000 C   0  0  0  0  0  0  0  0  0  0  0  0
   -2.8522    2.3622    0.0000 C   0  0  0  0  0  0  0  0  0  0  0  0
    1.4346   -0.1128    0.0000 C   0  0  0  0  0  0  0  0  0  0  0  0
    2.1491    0.2997    0.0000 C   0  0  0  0  0  0  0  0  0  0  0  0
    2.8635   -0.1128    0.0000 C   0  0  0  0  0  0  0  0  0  0  0  0
  1  5  1  0  0  0  0
  1  6  1  0  0  0  0
  2  6  2  0  0  0  0
  3 13  1  0  0  0  0
  4  7  1  0  0  0  0
  5  8  2  0  0  0  0
  5  9  1  0  0  0  0
  6  7  1  0  0  0  0
  7 13  1  0  0  0  0
  8 11  1  0  0  0  0
  9 12  2  0  0  0  0
 10 11  2  0  0  0  0
 10 12  1  0  0  0  0
 10 14  1  0  0  0  0
 14 15  1  0  0  0  0
 15 16  1  0  0  0  0
M  END
> <PUBCHEM_COMPOUND_ID_TYPE>
0

> <PUBCHEM_TOTAL_CHARGE>
0

> <PUBCHEM_SUBSTANCE_ID>
310946448

> <PUBCHEM_SUBSTANCE_VERSION>
1

> <PUBCHEM_EXT_DATASOURCE_NAME>
4488

> <PUBCHEM_EXT_DATASOURCE_REGID>
SCHEMBL16124569

> <PUBCHEM_SUBSTANCE_COMMENT>
InChI=1S/C12H17NO3/c1-2-3-9-4-6-10(7-5-9)16-12(15)11(13)8-14/h4-7,11,14H,2-3,8,13H2,1H3
InChIKey=ORLWPNYUJLRMDE-UHFFFAOYSA-N

> <PUBCHEM_SUBSTANCE_SYNONYM>
SCHEMBL16124569

> <PUBCHEM_XREF_EXT_ID>
SCHEMBL16124569

> <PUBCHEM_EXT_DATASOURCE_URL>
https://www.surechembl.org/

> <PUBCHEM_EXT_SUBSTANCE_URL>
https://www.surechembl.org/chemical/SCHEMBL16124569

> <PUBCHEM_CID_ASSOCIATIONS>
117612359  1

> <PUBCHEM_COORDINATE_TYPE>
1
3

$$$$
