310939650
  -OEChem-07211613022D

 30 32  0     1  0  0  0  0  0999 V2000
   -1.1996   -2.5652    0.0000 O   0  0  0  0  0  0  0  0  0  0  0  0
   -2.6285   -3.3902    0.0000 O   0  0  0  0  0  0  0  0  0  0  0  0
    1.6583   -3.3902    0.0000 N   0  0  0  0  0  0  0  0  0  0  0  0
    2.3728   -4.6277    0.0000 N   0  0  0  0  0  0  0  0  0  0  0  0
    2.3728   -2.1527    0.0000 N   0  0  0  0  0  0  0  0  0  0  0  0
    3.8017   -2.1527    0.0000 N   0  0  0  0  0  0  0  0  0  0  0  0
   -4.0575   -2.5652    0.0000 N   0  0  0  0  0  0  0  0  0  0  0  0
    1.6583   -2.5652    0.0000 C   0  0  0  0  0  0  0  0  0  0  0  0
    2.3728   -3.8027    0.0000 C   0  0  0  0  0  0  0  0  0  0  0  0
    0.9438   -2.1527    0.0000 C   0  0  0  0  0  0  0  0  0  0  0  0
    3.0872   -2.5652    0.0000 C   0  0  0  0  0  0  0  0  0  0  0  0
    3.0872   -3.3902    0.0000 C   0  0  0  0  0  0  0  0  0  0  0  0
    3.0872   -5.0402    0.0000 C   0  0  0  0  0  0  0  0  0  0  0  0
    0.2294   -2.5652    0.0000 C   0  0  0  0  0  0  0  0  0  0  0  0
    0.9438   -1.3277    0.0000 C   0  0  0  0  0  0  0  0  0  0  0  0
   -0.4851   -2.1527    0.0000 C   0  0  0  0  0  0  0  0  0  0  0  0
    0.2294   -0.9152    0.0000 C   0  0  0  0  0  0  0  0  0  0  0  0
   -0.4851   -1.3277    0.0000 C   0  0  0  0  0  0  0  0  0  0  0  0
    3.0872   -5.8652    0.0000 C   0  0  0  0  0  0  0  0  0  0  0  0
    3.8017   -4.6277    0.0000 C   0  0  0  0  0  0  0  0  0  0  0  0
    1.6583   -5.0402    0.0000 C   0  0  0  0  0  0  0  0  0  0  0  0
    3.8017   -1.3277    0.0000 C   0  0  0  0  0  0  0  0  0  0  0  0
    4.5162   -2.5652    0.0000 C   0  0  0  0  0  0  0  0  0  0  0  0
    3.8017   -6.2777    0.0000 C   0  0  0  0  0  0  0  0  0  0  0  0
    4.5162   -5.0402    0.0000 C   0  0  0  0  0  0  0  0  0  0  0  0
   -1.9141   -2.1527    0.0000 C   0  0  0  0  0  0  0  0  0  0  0  0
    4.5162   -5.8652    0.0000 C   0  0  0  0  0  0  0  0  0  0  0  0
   -2.6285   -2.5652    0.0000 C   0  0  3  0  0  0  0  0  0  0  0  0
   -3.3430   -2.1527    0.0000 C   0  0  0  0  0  0  0  0  0  0  0  0
   -4.7719   -2.1527    0.0000 C   0  0  0  0  0  0  0  0  0  0  0  0
  1 16  1  0  0  0  0
  1 26  1  0  0  0  0
  2 28  1  0  0  0  0
  3  8  1  0  0  0  0
  3  9  2  0  0  0  0
  4  9  1  0  0  0  0
  4 13  1  0  0  0  0
  4 21  1  0  0  0  0
  5  8  2  0  0  0  0
  5 11  1  0  0  0  0
  6 11  1  0  0  0  0
  6 22  1  0  0  0  0
  6 23  1  0  0  0  0
  7 29  1  0  0  0  0
  7 30  1  0  0  0  0
  8 10  1  0  0  0  0
  9 12  1  0  0  0  0
 10 14  2  0  0  0  0
 10 15  1  0  0  0  0
 11 12  2  0  0  0  0
 13 19  1  0  0  0  0
 13 20  1  0  0  0  0
 14 16  1  0  0  0  0
 15 17  2  0  0  0  0
 16 18  2  0  0  0  0
 17 18  1  0  0  0  0
 19 24  1  0  0  0  0
 20 25  1  0  0  0  0
 24 27  1  0  0  0  0
 25 27  1  0  0  0  0
 26 28  1  0  0  0  0
 28 29  1  0  0  0  0
M  END
> <PUBCHEM_COMPOUND_ID_TYPE>
0

> <PUBCHEM_TOTAL_CHARGE>
0

> <PUBCHEM_SUBSTANCE_ID>
310939650

> <PUBCHEM_SUBSTANCE_VERSION>
1

> <PUBCHEM_EXT_DATASOURCE_NAME>
4488

> <PUBCHEM_EXT_DATASOURCE_REGID>
SCHEMBL16117580

> <PUBCHEM_SUBSTANCE_COMMENT>
InChI=1S/C23H35N5O2/c1-24-15-19(29)16-30-20-12-8-9-17(13-20)23-25-21(27(2)3)14-22(26-23)28(4)18-10-6-5-7-11-18/h8-9,12-14,18-19,24,29H,5-7,10-11,15-16H2,1-4H3
InChIKey=BFLSFOWCDRIEOF-UHFFFAOYSA-N

> <PUBCHEM_SUBSTANCE_SYNONYM>
SCHEMBL16117580

> <PUBCHEM_XREF_EXT_ID>
SCHEMBL16117580

> <PUBCHEM_EXT_DATASOURCE_URL>
https://www.surechembl.org/

> <PUBCHEM_EXT_SUBSTANCE_URL>
https://www.surechembl.org/chemical/SCHEMBL16117580

> <PUBCHEM_CID_ASSOCIATIONS>
117606885  1

> <PUBCHEM_COORDINATE_TYPE>
1
3

$$$$
