310946061
  -OEChem-07211613022D

 34 36  0     1  0  0  0  0  0999 V2000
    3.6879    1.6452    0.0000 O   0  0  0  0  0  0  0  0  0  0  0  0
    1.4013    1.6452    0.0000 O   0  0  0  0  0  0  0  0  0  0  0  0
    0.6762    1.2270    0.0000 O   0  0  0  0  0  0  0  0  0  0  0  0
   -0.0488    1.6452    0.0000 O   0  0  0  0  0  0  0  0  0  0  0  0
   -2.9489   -2.5097    0.0000 O   0  0  0  0  0  0  0  0  0  0  0  0
    1.4013   -0.0139    0.0000 N   0  0  0  0  0  0  0  0  0  0  0  0
   -0.7738    0.4043    0.0000 N   0  0  0  0  0  0  0  0  0  0  0  0
   -2.2239    2.0636    0.0000 N   0  0  0  0  0  0  0  0  0  0  0  0
    2.8652    1.6731    0.0000 C   0  0  3  0  0  0  0  0  0  0  0  0
    2.1542    1.2549    0.0000 C   0  0  0  0  0  0  0  0  0  0  0  0
    3.2696    0.9760    0.0000 C   0  0  0  0  0  0  0  0  0  0  0  0
    2.1124    0.4323    0.0000 C   0  0  3  0  0  0  0  0  0  0  0  0
    2.8513    2.5097    0.0000 C   0  0  0  0  0  0  0  0  0  0  0  0
    2.8513    0.0000    0.0000 C   0  0  0  0  0  0  0  0  0  0  0  0
    0.6762    0.4043    0.0000 C   0  0  0  0  0  0  0  0  0  0  0  0
   -0.0349    0.0139    0.0000 C   0  0  3  0  0  0  0  0  0  0  0  0
    2.8513   -0.8226    0.0000 C   0  0  0  0  0  0  0  0  0  0  0  0
   -0.0488   -0.8226    0.0000 C   0  0  0  0  0  0  0  0  0  0  0  0
   -0.7877    1.2549    0.0000 C   0  0  0  0  0  0  0  0  0  0  0  0
   -0.7738   -1.2270    0.0000 C   0  0  0  0  0  0  0  0  0  0  0  0
   -1.5128    1.6871    0.0000 C   0  0  0  0  0  0  0  0  0  0  0  0
    3.5763   -1.2409    0.0000 C   0  0  0  0  0  0  0  0  0  0  0  0
    2.1402   -1.2409    0.0000 C   0  0  0  0  0  0  0  0  0  0  0  0
   -1.5128   -0.8365    0.0000 C   0  0  0  0  0  0  0  0  0  0  0  0
   -0.7738   -2.0636    0.0000 C   0  0  0  0  0  0  0  0  0  0  0  0
   -2.2378   -2.0636    0.0000 C   0  0  0  0  0  0  0  0  0  0  0  0
   -2.2100   -1.2409    0.0000 C   0  0  0  0  0  0  0  0  0  0  0  0
   -1.4849   -2.4818    0.0000 C   0  0  0  0  0  0  0  0  0  0  0  0
    3.5763   -2.0636    0.0000 C   0  0  0  0  0  0  0  0  0  0  0  0
    2.1402   -2.0636    0.0000 C   0  0  0  0  0  0  0  0  0  0  0  0
   -2.2239    1.2409    0.0000 C   0  0  0  0  0  0  0  0  0  0  0  0
   -1.4989    2.5097    0.0000 C   0  0  0  0  0  0  0  0  0  0  0  0
    2.8652   -2.4818    0.0000 C   0  0  0  0  0  0  0  0  0  0  0  0
   -3.6879   -2.0775    0.0000 C   0  0  0  0  0  0  0  0  0  0  0  0
  1  9  1  0  0  0  0
  1 11  1  0  0  0  0
  2 10  2  0  0  0  0
  3 15  2  0  0  0  0
  4 19  2  0  0  0  0
  5 26  1  0  0  0  0
  5 34  1  0  0  0  0
  6 12  1  0  0  0  0
  6 15  1  0  0  0  0
  7 16  1  0  0  0  0
  7 19  1  0  0  0  0
  8 21  1  0  0  0  0
  9 10  1  0  0  0  0
  9 11  1  0  0  0  0
  9 13  1  0  0  0  0
 10 12  1  0  0  0  0
 12 14  1  0  0  0  0
 14 17  1  0  0  0  0
 15 16  1  0  0  0  0
 16 18  1  0  0  0  0
 17 22  2  0  0  0  0
 17 23  1  0  0  0  0
 18 20  1  0  0  0  0
 19 21  1  0  0  0  0
 20 24  2  0  0  0  0
 20 25  1  0  0  0  0
 21 31  1  0  0  0  0
 21 32  1  0  0  0  0
 22 29  1  0  0  0  0
 23 30  2  0  0  0  0
 24 27  1  0  0  0  0
 25 28  2  0  0  0  0
 26 27  2  0  0  0  0
 26 28  1  0  0  0  0
 29 33  2  0  0  0  0
 30 33  1  0  0  0  0
M  END
> <PUBCHEM_COMPOUND_ID_TYPE>
0

> <PUBCHEM_TOTAL_CHARGE>
0

> <PUBCHEM_SUBSTANCE_ID>
310946061

> <PUBCHEM_SUBSTANCE_VERSION>
1

> <PUBCHEM_EXT_DATASOURCE_NAME>
4488

> <PUBCHEM_EXT_DATASOURCE_REGID>
SCHEMBL16124167

> <PUBCHEM_SUBSTANCE_COMMENT>
InChI=1S/C26H33N3O5/c1-25(2,27)24(32)29-21(15-18-10-12-19(33-4)13-11-18)23(31)28-20(22(30)26(3)16-34-26)14-17-8-6-5-7-9-17/h5-13,20-21H,14-16,27H2,1-4H3,(H,28,31)(H,29,32)
InChIKey=LKBLJBYFJLQELW-UHFFFAOYSA-N

> <PUBCHEM_SUBSTANCE_SYNONYM>
SCHEMBL16124167

> <PUBCHEM_XREF_EXT_ID>
SCHEMBL16124167

> <PUBCHEM_EXT_DATASOURCE_URL>
https://www.surechembl.org/

> <PUBCHEM_EXT_SUBSTANCE_URL>
https://www.surechembl.org/chemical/SCHEMBL16124167

> <PUBCHEM_CID_ASSOCIATIONS>
117612032  1

> <PUBCHEM_COORDINATE_TYPE>
1
3

$$$$
