310947754
  -OEChem-07211613022D

 23 24  0     1  0  0  0  0  0999 V2000
   -0.6668   -1.7150    0.0000 N   0  0  0  0  0  0  0  0  0  0  0  0
   -1.3651    1.0332    0.0000 N   0  0  0  0  0  0  0  0  0  0  0  0
    0.0006   -2.1999    0.0000 N   0  0  0  0  0  0  0  0  0  0  0  0
   -2.7453    1.4031    0.0000 N   0  0  3  0  0  0  0  0  0  0  0  0
    1.6506   -0.2159    0.0000 N   0  0  3  0  0  0  0  0  0  0  0  0
    3.3006    1.2130    0.0000 N   0  0  0  0  0  0  0  0  0  0  0  0
   -0.4119   -0.9304    0.0000 C   0  0  0  0  0  0  0  0  0  0  0  0
   -0.9953   -0.3470    0.0000 C   0  0  0  0  0  0  0  0  0  0  0  0
    0.4131   -0.9304    0.0000 C   0  0  0  0  0  0  0  0  0  0  0  0
   -2.1620    0.8197    0.0000 C   0  0  0  0  0  0  0  0  0  0  0  0
   -0.7817    0.4499    0.0000 C   0  0  0  0  0  0  0  0  0  0  0  0
   -1.7921   -0.5606    0.0000 C   0  0  0  0  0  0  0  0  0  0  0  0
    0.6680   -1.7150    0.0000 C   0  0  0  0  0  0  0  0  0  0  0  0
   -2.3755    0.0228    0.0000 C   0  0  0  0  0  0  0  0  0  0  0  0
    0.8256   -0.2159    0.0000 C   0  0  0  0  0  0  0  0  0  0  0  0
   -3.5422    1.1895    0.0000 C   0  0  0  0  0  0  0  0  0  0  0  0
   -2.5318    2.1999    0.0000 C   0  0  0  0  0  0  0  0  0  0  0  0
    2.0631    0.4985    0.0000 C   0  0  0  0  0  0  0  0  0  0  0  0
    2.0631   -0.9304    0.0000 C   0  0  0  0  0  0  0  0  0  0  0  0
   -3.7558    0.3926    0.0000 C   0  0  0  0  0  0  0  0  0  0  0  0
   -4.1256    1.7729    0.0000 C   0  0  0  0  0  0  0  0  0  0  0  0
    2.8881    0.4985    0.0000 C   0  0  0  0  0  0  0  0  0  0  0  0
    4.1256    1.2130    0.0000 C   0  0  0  0  0  0  0  0  0  0  0  0
  1  3  1  0  0  0  0
  1  7  2  0  0  0  0
  2 10  1  0  0  0  0
  2 11  2  0  0  0  0
  3 13  1  0  0  0  0
  4 10  1  0  0  0  0
  4 16  1  0  0  0  0
  4 17  1  0  0  0  0
  5 15  1  0  0  0  0
  5 18  1  0  0  0  0
  5 19  1  0  0  0  0
  6 22  1  0  0  0  0
  6 23  1  0  0  0  0
  7  8  1  0  0  0  0
  7  9  1  0  0  0  0
  8 11  1  0  0  0  0
  8 12  2  0  0  0  0
  9 13  2  0  0  0  0
  9 15  1  0  0  0  0
 10 14  2  0  0  0  0
 12 14  1  0  0  0  0
 16 20  1  0  0  0  0
 16 21  1  0  0  0  0
 18 22  1  0  0  0  0
M  END
> <PUBCHEM_COMPOUND_ID_TYPE>
0

> <PUBCHEM_TOTAL_CHARGE>
0

> <PUBCHEM_SUBSTANCE_ID>
310947754

> <PUBCHEM_SUBSTANCE_VERSION>
1

> <PUBCHEM_EXT_DATASOURCE_NAME>
4488

> <PUBCHEM_EXT_DATASOURCE_REGID>
SCHEMBL16125926

> <PUBCHEM_SUBSTANCE_COMMENT>
InChI=1S/C17H28N6/c1-13(2)23(5)16-7-6-14(10-19-16)17-15(11-20-21-17)12-22(4)9-8-18-3/h6-7,10-11,13,18H,8-9,12H2,1-5H3,(H,20,21)
InChIKey=FBCBMHTXLZTJBI-UHFFFAOYSA-N

> <PUBCHEM_SUBSTANCE_SYNONYM>
SCHEMBL16125926

> <PUBCHEM_XREF_EXT_ID>
SCHEMBL16125926

> <PUBCHEM_EXT_DATASOURCE_URL>
https://www.surechembl.org/

> <PUBCHEM_EXT_SUBSTANCE_URL>
https://www.surechembl.org/chemical/SCHEMBL16125926

> <PUBCHEM_CID_ASSOCIATIONS>
86302008  1

> <PUBCHEM_COORDINATE_TYPE>
1
3

$$$$
