310941234
  -OEChem-07211613022D

 38 41  0     1  0  0  0  0  0999 V2000
    4.6140    0.9837    0.0000 O   0  0  0  0  0  0  0  0  0  0  0  0
    3.4778   -0.9976    0.0000 O   0  0  0  0  0  0  0  0  0  0  0  0
    1.1085    0.9699    0.0000 O   0  0  0  0  0  0  0  0  0  0  0  0
   -4.9465   -0.8729    0.0000 O   0  0  0  0  0  0  0  0  0  0  0  0
   -1.0531   -1.1223    0.0000 O   0  0  0  0  0  0  0  0  0  0  0  0
   -3.2145    0.9699    0.0000 O   0  0  0  0  0  0  0  0  0  0  0  0
    3.2561   -2.7850    0.0000 O   0  0  0  0  0  0  0  0  0  0  0  0
    1.8289   -0.2771    0.0000 N   0  0  0  0  0  0  0  0  0  0  0  0
   -0.3325    0.1386    0.0000 N   0  0  0  0  0  0  0  0  0  0  0  0
   -2.4940   -0.2771    0.0000 N   0  0  0  0  0  0  0  0  0  0  0  0
    4.1982    0.3049    0.0000 C   0  0  3  0  0  0  0  0  0  0  0  0
    3.4916   -0.0970    0.0000 C   0  0  0  0  0  0  0  0  0  0  0  0
    3.8103    0.9976    0.0000 C   0  0  0  0  0  0  0  0  0  0  0  0
    2.7573    0.2910    0.0000 C   0  0  3  0  0  0  0  0  0  0  0  0
    4.9465   -0.1247    0.0000 C   0  0  0  0  0  0  0  0  0  0  0  0
    2.7711    1.3578    0.0000 C   0  0  0  0  0  0  0  0  0  0  0  0
    1.1085    0.1524    0.0000 C   0  0  0  0  0  0  0  0  0  0  0  0
    0.4019   -0.2494    0.0000 C   0  0  3  0  0  0  0  0  0  0  0  0
    2.0368    1.8012    0.0000 C   0  0  0  0  0  0  0  0  0  0  0  0
    0.3880   -1.0807    0.0000 C   0  0  0  0  0  0  0  0  0  0  0  0
   -1.0392   -0.2217    0.0000 C   0  0  0  0  0  0  0  0  0  0  0  0
    1.1223   -1.4964    0.0000 C   0  0  0  0  0  0  0  0  0  0  0  0
   -1.7736    0.1662    0.0000 C   0  0  3  0  0  0  0  0  0  0  0  0
    1.9398    2.6187    0.0000 C   0  0  0  0  0  0  0  0  0  0  0  0
    1.2886    1.4548    0.0000 C   0  0  0  0  0  0  0  0  0  0  0  0
   -3.9350   -0.2494    0.0000 C   0  0  0  0  0  0  0  0  0  0  0  0
   -3.2145    0.1524    0.0000 C   0  0  0  0  0  0  0  0  0  0  0  0
    1.1223   -2.3278    0.0000 C   0  0  0  0  0  0  0  0  0  0  0  0
    1.8289   -1.1085    0.0000 C   0  0  0  0  0  0  0  0  0  0  0  0
    1.1500    2.7850    0.0000 C   0  0  0  0  0  0  0  0  0  0  0  0
    0.7482    2.0645    0.0000 C   0  0  0  0  0  0  0  0  0  0  0  0
   -4.1429   -1.0531    0.0000 C   0  0  0  0  0  0  0  0  0  0  0  0
   -4.7248   -0.0416    0.0000 C   0  0  0  0  0  0  0  0  0  0  0  0
    2.5356   -2.3278    0.0000 C   0  0  0  0  0  0  0  0  0  0  0  0
    1.8428   -2.7434    0.0000 C   0  0  0  0  0  0  0  0  0  0  0  0
    2.5494   -1.5103    0.0000 C   0  0  0  0  0  0  0  0  0  0  0  0
   -1.7597    1.0115    0.0000 C   0  0  0  0  0  0  0  0  0  0  0  0
    3.9766   -2.3278    0.0000 C   0  0  0  0  0  0  0  0  0  0  0  0
  1 11  1  0  0  0  0
  1 13  1  0  0  0  0
  2 12  2  0  0  0  0
  3 17  2  0  0  0  0
  4 32  1  0  0  0  0
  4 33  1  0  0  0  0
  5 21  2  0  0  0  0
  6 27  2  0  0  0  0
  7 34  1  0  0  0  0
  7 38  1  0  0  0  0
  8 14  1  0  0  0  0
  8 17  1  0  0  0  0
  9 18  1  0  0  0  0
  9 21  1  0  0  0  0
 10 23  1  0  0  0  0
 10 27  1  0  0  0  0
 11 12  1  0  0  0  0
 11 13  1  0  0  0  0
 11 15  1  0  0  0  0
 12 14  1  0  0  0  0
 14 16  1  0  0  0  0
 16 19  1  0  0  0  0
 17 18  1  0  0  0  0
 18 20  1  0  0  0  0
 19 24  2  0  0  0  0
 19 25  1  0  0  0  0
 20 22  1  0  0  0  0
 21 23  1  0  0  0  0
 22 28  2  0  0  0  0
 22 29  1  0  0  0  0
 23 37  1  0  0  0  0
 24 30  1  0  0  0  0
 25 31  1  0  0  0  0
 26 27  1  0  0  0  0
 26 32  1  0  0  0  0
 26 33  1  0  0  0  0
 28 35  1  0  0  0  0
 29 36  2  0  0  0  0
 30 31  1  0  0  0  0
 34 35  2  0  0  0  0
 34 36  1  0  0  0  0
M  END
> <PUBCHEM_COMPOUND_ID_TYPE>
0

> <PUBCHEM_TOTAL_CHARGE>
0

> <PUBCHEM_SUBSTANCE_ID>
310941234

> <PUBCHEM_SUBSTANCE_VERSION>
1

> <PUBCHEM_EXT_DATASOURCE_NAME>
4488

> <PUBCHEM_EXT_DATASOURCE_REGID>
SCHEMBL16119194

> <PUBCHEM_SUBSTANCE_COMMENT>
InChI=1S/C28H37N3O7/c1-17(29-26(34)20-14-37-15-20)25(33)31-23(13-19-8-10-21(36-3)11-9-19)27(35)30-22(12-18-6-4-5-7-18)24(32)28(2)16-38-28/h6,8-11,17,20,22-23H,4-5,7,12-16H2,1-3H3,(H,29,34)(H,30,35)(H,31,33)
InChIKey=PFVDRKCXACZILF-UHFFFAOYSA-N

> <PUBCHEM_SUBSTANCE_SYNONYM>
SCHEMBL16119194

> <PUBCHEM_XREF_EXT_ID>
SCHEMBL16119194

> <PUBCHEM_EXT_DATASOURCE_URL>
https://www.surechembl.org/

> <PUBCHEM_EXT_SUBSTANCE_URL>
https://www.surechembl.org/chemical/SCHEMBL16119194

> <PUBCHEM_CID_ASSOCIATIONS>
86298120  1

> <PUBCHEM_COORDINATE_TYPE>
1
3

$$$$
