310932792
  -OEChem-07211613022D

 16 17  0     1  0  0  0  0  0999 V2000
    0.0000   -3.2446    0.0000 Br  0  0  0  0  0  0  0  0  0  0  0  0
    0.7003   -4.6686    0.0000 O   0  0  0  0  0  0  0  0  0  0  0  0
    2.6377   -2.8245    0.0000 N   0  0  3  0  0  0  0  0  0  0  0  0
    0.8403   -3.2446    0.0000 C   0  0  0  0  0  0  0  0  0  0  0  0
    1.2138   -4.0150    0.0000 C   0  0  0  0  0  0  0  0  0  0  0  0
    3.4081   -2.4744    0.0000 C   0  0  0  0  0  0  0  0  0  0  0  0
    2.0075   -2.3109    0.0000 C   0  0  0  0  0  0  0  0  0  0  0  0
    2.6377   -3.6648    0.0000 C   0  0  0  0  0  0  0  0  0  0  0  0
    3.4781   -1.6573    0.0000 C   0  0  0  0  0  0  0  0  0  0  0  0
    1.2138   -2.4744    0.0000 C   0  0  0  0  0  0  0  0  0  0  0  0
    2.0075   -4.1784    0.0000 C   0  0  0  0  0  0  0  0  0  0  0  0
    4.2251   -1.3072    0.0000 C   0  0  0  0  0  0  0  0  0  0  0  0
    2.8011   -1.1671    0.0000 C   0  0  0  0  0  0  0  0  0  0  0  0
    4.3184   -0.4669    0.0000 C   0  0  0  0  0  0  0  0  0  0  0  0
    2.8712   -0.3501    0.0000 C   0  0  0  0  0  0  0  0  0  0  0  0
    3.6415    0.0000    0.0000 C   0  0  0  0  0  0  0  0  0  0  0  0
  1  4  1  0  0  0  0
  2  5  1  0  0  0  0
  3  6  1  0  0  0  0
  3  7  1  0  0  0  0
  3  8  1  0  0  0  0
  4  5  2  0  0  0  0
  4 10  1  0  0  0  0
  5 11  1  0  0  0  0
  6  9  1  0  0  0  0
  7 10  1  0  0  0  0
  8 11  1  0  0  0  0
  9 12  2  0  0  0  0
  9 13  1  0  0  0  0
 12 14  1  0  0  0  0
 13 15  2  0  0  0  0
 14 16  2  0  0  0  0
 15 16  1  0  0  0  0
M  END
> <PUBCHEM_COMPOUND_ID_TYPE>
0

> <PUBCHEM_TOTAL_CHARGE>
0

> <PUBCHEM_SUBSTANCE_ID>
310932792

> <PUBCHEM_SUBSTANCE_VERSION>
1

> <PUBCHEM_EXT_DATASOURCE_NAME>
4488

> <PUBCHEM_EXT_DATASOURCE_REGID>
SCHEMBL16110179

> <PUBCHEM_SUBSTANCE_COMMENT>
InChI=1S/C13H16BrNO/c14-12-6-8-15(9-7-13(12)16)10-11-4-2-1-3-5-11/h1-5,16H,6-10H2
InChIKey=JRMZTUDJHXVYOQ-UHFFFAOYSA-N

> <PUBCHEM_SUBSTANCE_SYNONYM>
SCHEMBL16110179

> <PUBCHEM_XREF_EXT_ID>
SCHEMBL16110179

> <PUBCHEM_EXT_DATASOURCE_URL>
https://www.surechembl.org/

> <PUBCHEM_EXT_SUBSTANCE_URL>
https://www.surechembl.org/chemical/SCHEMBL16110179

> <PUBCHEM_CID_ASSOCIATIONS>
117601284  1

> <PUBCHEM_COORDINATE_TYPE>
1
3

$$$$
