310942461
  -OEChem-07211613022D

 28 30  0     1  0  0  0  0  0999 V2000
    1.0739    1.4619    0.0000 S   0  0  0  0  0  0  0  0  0  0  0  0
   -3.2356   -0.2009    0.0000 S   0  0  3  0  0  0  0  0  0  0  0  0
    2.5288    2.2933    0.0000 F   0  0  0  0  0  0  0  0  0  0  0  0
    3.9700   -0.2009    0.0000 F   0  0  0  0  0  0  0  0  0  0  0  0
    1.0878    2.2933    0.0000 O   0  0  0  0  0  0  0  0  0  0  0  0
    1.8083    1.8776    0.0000 O   0  0  0  0  0  0  0  0  0  0  0  0
   -3.2217   -1.0323    0.0000 O   0  0  0  0  0  0  0  0  0  0  0  0
   -1.7945   -0.2009    0.0000 N   0  0  0  0  0  0  0  0  0  0  0  0
   -0.3533   -0.2009    0.0000 N   0  0  0  0  0  0  0  0  0  0  0  0
   -2.5150    1.0462    0.0000 N   0  0  0  0  0  0  0  0  0  0  0  0
    1.8083    1.0462    0.0000 C   0  0  0  0  0  0  0  0  0  0  0  0
   -1.0739    1.0600    0.0000 C   0  0  0  0  0  0  0  0  0  0  0  0
    2.5150    1.4619    0.0000 C   0  0  0  0  0  0  0  0  0  0  0  0
   -1.0878    0.2148    0.0000 C   0  0  0  0  0  0  0  0  0  0  0  0
    0.3810    1.0600    0.0000 C   0  0  0  0  0  0  0  0  0  0  0  0
   -0.3672    1.4619    0.0000 C   0  0  0  0  0  0  0  0  0  0  0  0
    1.8083    0.2148    0.0000 C   0  0  0  0  0  0  0  0  0  0  0  0
   -2.5288    0.2148    0.0000 C   0  0  0  0  0  0  0  0  0  0  0  0
    3.2356    1.0462    0.0000 C   0  0  0  0  0  0  0  0  0  0  0  0
   -1.8083    1.4619    0.0000 C   0  0  0  0  0  0  0  0  0  0  0  0
    3.2356    0.2287    0.0000 C   0  0  0  0  0  0  0  0  0  0  0  0
    2.5288   -0.1870    0.0000 C   0  0  0  0  0  0  0  0  0  0  0  0
   -0.3672   -1.0323    0.0000 C   0  0  0  0  0  0  0  0  0  0  0  0
   -1.0184   -1.5174    0.0000 C   0  0  0  0  0  0  0  0  0  0  0  0
    0.3118   -1.5174    0.0000 C   0  0  0  0  0  0  0  0  0  0  0  0
   -0.7690   -2.2933    0.0000 C   0  0  0  0  0  0  0  0  0  0  0  0
    0.0485   -2.2933    0.0000 C   0  0  0  0  0  0  0  0  0  0  0  0
   -3.9700    0.2009    0.0000 C   0  0  0  0  0  0  0  0  0  0  0  0
  1  5  2  0  0  0  0
  1  6  2  0  0  0  0
  1 11  1  0  0  0  0
  1 15  1  0  0  0  0
  2  7  2  0  0  0  0
  2 18  1  0  0  0  0
  2 28  1  0  0  0  0
  3 13  1  0  0  0  0
  4 21  1  0  0  0  0
  8 14  2  0  0  0  0
  8 18  1  0  0  0  0
  9 14  1  0  0  0  0
  9 23  1  0  0  0  0
 10 18  2  0  0  0  0
 10 20  1  0  0  0  0
 11 13  1  0  0  0  0
 11 17  2  0  0  0  0
 12 14  1  0  0  0  0
 12 16  1  0  0  0  0
 12 20  2  0  0  0  0
 13 19  2  0  0  0  0
 15 16  2  0  0  0  0
 17 22  1  0  0  0  0
 19 21  1  0  0  0  0
 21 22  2  0  0  0  0
 23 24  1  0  0  0  0
 23 25  1  0  0  0  0
 24 26  1  0  0  0  0
 25 27  1  0  0  0  0
 26 27  1  0  0  0  0
M  END
> <PUBCHEM_COMPOUND_ID_TYPE>
0

> <PUBCHEM_TOTAL_CHARGE>
0

> <PUBCHEM_SUBSTANCE_ID>
310942461

> <PUBCHEM_SUBSTANCE_VERSION>
1

> <PUBCHEM_EXT_DATASOURCE_NAME>
4488

> <PUBCHEM_EXT_DATASOURCE_REGID>
SCHEMBL16120497

> <PUBCHEM_SUBSTANCE_COMMENT>
InChI=1S/C18H19F2N3O3S2/c1-27(24)18-21-11-12(17(23-18)22-14-4-2-3-5-14)8-9-28(25,26)16-7-6-13(19)10-15(16)20/h6-11,14H,2-5H2,1H3,(H,21,22,23)/b9-8+
InChIKey=VZKBNRDYHQLTEC-CMDGGOBGSA-N

> <PUBCHEM_SUBSTANCE_SYNONYM>
SCHEMBL16120497

> <PUBCHEM_XREF_EXT_ID>
SCHEMBL16120497

> <PUBCHEM_EXT_DATASOURCE_URL>
https://www.surechembl.org/

> <PUBCHEM_EXT_SUBSTANCE_URL>
https://www.surechembl.org/chemical/SCHEMBL16120497

> <PUBCHEM_CID_ASSOCIATIONS>
90466783  1

> <PUBCHEM_COORDINATE_TYPE>
1
3

$$$$
