310938207
  -OEChem-07211613022D

 33 36  0     1  0  0  0  0  0999 V2000
    2.1635   -0.4274    0.0000 O   0  0  0  0  0  0  0  0  0  0  0  0
    0.0000   -2.4573    0.0000 O   0  0  0  0  0  0  0  0  0  0  0  0
    4.2736   -4.9413    0.0000 O   0  0  0  0  0  0  0  0  0  0  0  0
    5.7159   -2.4840    0.0000 O   0  0  0  0  0  0  0  0  0  0  0  0
    1.4424   -1.6560    0.0000 N   0  0  0  0  0  0  0  0  0  0  0  0
    2.8579   -2.4840    0.0000 N   0  0  0  0  0  0  0  0  0  0  0  0
    2.8579   -1.6560    0.0000 C   0  0  3  0  0  0  0  0  0  0  0  0
    2.1635   -1.2554    0.0000 C   0  0  0  0  0  0  0  0  0  0  0  0
    1.4424   -2.4840    0.0000 C   0  0  3  0  0  0  0  0  0  0  0  0
    3.5791   -1.2554    0.0000 C   0  0  0  0  0  0  0  0  0  0  0  0
    2.1368   -2.8846    0.0000 C   0  0  0  0  0  0  0  0  0  0  0  0
    3.5524   -2.8846    0.0000 C   0  0  0  0  0  0  0  0  0  0  0  0
    0.7211   -1.2554    0.0000 C   0  0  0  0  0  0  0  0  0  0  0  0
    0.7211   -2.8846    0.0000 C   0  0  0  0  0  0  0  0  0  0  0  0
    4.3003   -1.6560    0.0000 C   0  0  0  0  0  0  0  0  0  0  0  0
    3.5791   -0.4274    0.0000 C   0  0  0  0  0  0  0  0  0  0  0  0
    4.3003   -2.4573    0.0000 C   0  0  0  0  0  0  0  0  0  0  0  0
    3.5791   -3.7127    0.0000 C   0  0  0  0  0  0  0  0  0  0  0  0
    4.2736   -4.1133    0.0000 C   0  0  0  0  0  0  0  0  0  0  0  0
    4.9947   -2.8846    0.0000 C   0  0  0  0  0  0  0  0  0  0  0  0
    0.0267   -1.6293    0.0000 C   0  0  0  0  0  0  0  0  0  0  0  0
    3.0449   -2.6443    0.0000 C   0  0  0  0  0  0  0  0  0  0  0  0
    2.1368   -3.7127    0.0000 C   0  0  0  0  0  0  0  0  0  0  0  0
    4.9947   -3.6860    0.0000 C   0  0  0  0  0  0  0  0  0  0  0  0
    4.9947   -1.2554    0.0000 C   0  0  0  0  0  0  0  0  0  0  0  0
    4.3003    0.0000    0.0000 C   0  0  0  0  0  0  0  0  0  0  0  0
    4.9947   -0.4274    0.0000 C   0  0  0  0  0  0  0  0  0  0  0  0
    3.7394   -3.0716    0.0000 C   0  0  0  0  0  0  0  0  0  0  0  0
    2.8312   -4.1400    0.0000 C   0  0  0  0  0  0  0  0  0  0  0  0
    3.7127   -3.8996    0.0000 C   0  0  0  0  0  0  0  0  0  0  0  0
    5.7159    0.0000    0.0000 C   0  0  0  0  0  0  0  0  0  0  0  0
    4.9947   -5.3420    0.0000 C   0  0  0  0  0  0  0  0  0  0  0  0
    5.7159   -1.6560    0.0000 C   0  0  0  0  0  0  0  0  0  0  0  0
  1  8  2  0  0  0  0
  2 14  1  0  0  0  0
  2 21  1  0  0  0  0
  3 19  1  0  0  0  0
  3 32  1  0  0  0  0
  4 20  1  0  0  0  0
  4 33  1  0  0  0  0
  5  8  1  0  0  0  0
  5  9  1  0  0  0  0
  5 13  1  0  0  0  0
  6  7  1  0  0  0  0
  6 12  1  0  0  0  0
  7  8  1  0  0  0  0
  7 10  1  0  0  0  0
  9 11  1  0  0  0  0
  9 14  1  0  0  0  0
 10 15  2  0  0  0  0
 10 16  1  0  0  0  0
 11 22  2  0  0  0  0
 11 23  1  0  0  0  0
 12 17  2  0  0  0  0
 12 18  1  0  0  0  0
 13 21  1  0  0  0  0
 15 25  1  0  0  0  0
 16 26  2  0  0  0  0
 17 20  1  0  0  0  0
 18 19  2  0  0  0  0
 19 24  1  0  0  0  0
 20 24  2  0  0  0  0
 22 28  1  0  0  0  0
 23 29  2  0  0  0  0
 25 27  2  0  0  0  0
 26 27  1  0  0  0  0
 27 31  1  0  0  0  0
 28 30  2  0  0  0  0
 29 30  1  0  0  0  0
M  END
> <PUBCHEM_COMPOUND_ID_TYPE>
0

> <PUBCHEM_TOTAL_CHARGE>
0

> <PUBCHEM_SUBSTANCE_ID>
310938207

> <PUBCHEM_SUBSTANCE_VERSION>
1

> <PUBCHEM_EXT_DATASOURCE_NAME>
4488

> <PUBCHEM_EXT_DATASOURCE_REGID>
SCHEMBL16116064

> <PUBCHEM_SUBSTANCE_COMMENT>
InChI=1S/C27H30N2O4/c1-19-9-11-21(12-10-19)26(28-22-15-23(31-2)17-24(16-22)32-3)27(30)29-13-14-33-18-25(29)20-7-5-4-6-8-20/h4-12,15-17,25-26,28H,13-14,18H2,1-3H3
InChIKey=KLNLYUPMQLWTQN-UHFFFAOYSA-N

> <PUBCHEM_SUBSTANCE_SYNONYM>
SCHEMBL16116064

> <PUBCHEM_XREF_EXT_ID>
SCHEMBL16116064

> <PUBCHEM_EXT_DATASOURCE_URL>
https://www.surechembl.org/

> <PUBCHEM_EXT_SUBSTANCE_URL>
https://www.surechembl.org/chemical/SCHEMBL16116064

> <PUBCHEM_CID_ASSOCIATIONS>
117605736  1

> <PUBCHEM_COORDINATE_TYPE>
1
3

$$$$
