310931772
  -OEChem-07211613022D

 33 36  0     1  0  0  0  0  0999 V2000
    4.1028   -2.7941    0.0000 O   0  0  0  0  0  0  0  0  0  0  0  0
    8.6654   -2.8649    0.0000 O   0  0  0  0  0  0  0  0  0  0  0  0
    5.0224   -1.6270    0.0000 N   0  0  0  0  0  0  0  0  0  0  0  0
    4.9162   -0.7781    0.0000 N   0  0  0  0  0  0  0  0  0  0  0  0
    6.4725   -1.6270    0.0000 N   0  0  0  0  0  0  0  0  0  0  0  0
    7.9226   -4.1381    0.0000 N   0  0  0  0  0  0  0  0  0  0  0  0
    6.4725   -6.6494    0.0000 N   0  0  3  0  0  0  0  0  0  0  0  0
    0.0000   -2.4758    0.0000 N   0  0  0  0  0  0  0  0  0  0  0  0
    3.6783   -1.3440    0.0000 C   0  0  0  0  0  0  0  0  0  0  0  0
    4.2796   -1.9453    0.0000 C   0  0  0  0  0  0  0  0  0  0  0  0
    2.8649   -1.4501    0.0000 C   0  0  0  0  0  0  0  0  0  0  0  0
    5.7298   -2.0514    0.0000 C   0  0  0  0  0  0  0  0  0  0  0  0
    4.1028   -0.6366    0.0000 C   0  0  0  0  0  0  0  0  0  0  0  0
    2.3697   -0.7781    0.0000 C   0  0  0  0  0  0  0  0  0  0  0  0
    5.7298   -2.8649    0.0000 C   0  0  0  0  0  0  0  0  0  0  0  0
    7.1799   -2.8649    0.0000 C   0  0  0  0  0  0  0  0  0  0  0  0
    2.5112   -2.2283    0.0000 C   0  0  0  0  0  0  0  0  0  0  0  0
    7.1799   -2.0514    0.0000 C   0  0  0  0  0  0  0  0  0  0  0  0
    6.4725   -3.2893    0.0000 C   0  0  0  0  0  0  0  0  0  0  0  0
    7.9226   -3.2893    0.0000 C   0  0  0  0  0  0  0  0  0  0  0  0
    1.5209   -0.8842    0.0000 C   0  0  0  0  0  0  0  0  0  0  0  0
    1.2026   -1.6270    0.0000 C   0  0  0  0  0  0  0  0  0  0  0  0
    1.6977   -2.2990    0.0000 C   0  0  0  0  0  0  0  0  0  0  0  0
    2.6881    0.0000    0.0000 C   0  0  0  0  0  0  0  0  0  0  0  0
    7.2152   -4.5626    0.0000 C   0  0  0  0  0  0  0  0  0  0  0  0
    7.1799   -5.3760    0.0000 C   0  0  3  0  0  0  0  0  0  0  0  0
    0.3537   -1.7331    0.0000 C   0  0  0  0  0  0  0  0  0  0  0  0
    6.4725   -5.8005    0.0000 C   0  0  0  0  0  0  0  0  0  0  0  0
    8.6654   -4.5626    0.0000 C   0  0  0  0  0  0  0  0  0  0  0  0
    7.9226   -5.8358    0.0000 C   0  0  0  0  0  0  0  0  0  0  0  0
    7.9226   -6.6494    0.0000 C   0  0  0  0  0  0  0  0  0  0  0  0
    7.2152   -7.0738    0.0000 C   0  0  0  0  0  0  0  0  0  0  0  0
    5.7651   -7.0738    0.0000 C   0  0  0  0  0  0  0  0  0  0  0  0
  1 10  1  0  0  0  0
  2 20  2  0  0  0  0
  3  4  1  0  0  0  0
  3 10  1  0  0  0  0
  3 12  1  0  0  0  0
  4 13  2  0  0  0  0
  5 12  2  0  0  0  0
  5 18  1  0  0  0  0
  6 20  1  0  0  0  0
  6 25  1  0  0  0  0
  6 29  1  0  0  0  0
  7 28  1  0  0  0  0
  7 32  1  0  0  0  0
  7 33  1  0  0  0  0
  8 27  3  0  0  0  0
  9 10  2  0  0  0  0
  9 11  1  0  0  0  0
  9 13  1  0  0  0  0
 11 14  1  0  0  0  0
 11 17  2  0  0  0  0
 12 15  1  0  0  0  0
 14 21  2  0  0  0  0
 14 24  1  0  0  0  0
 15 19  2  0  0  0  0
 16 18  2  0  0  0  0
 16 19  1  0  0  0  0
 16 20  1  0  0  0  0
 17 23  1  0  0  0  0
 21 22  1  0  0  0  0
 22 23  2  0  0  0  0
 22 27  1  0  0  0  0
 25 26  1  0  0  0  0
 26 28  1  0  0  0  0
 26 30  1  0  0  0  0
 30 31  1  0  0  0  0
 31 32  1  0  0  0  0
M  END
> <PUBCHEM_COMPOUND_ID_TYPE>
0

> <PUBCHEM_TOTAL_CHARGE>
0

> <PUBCHEM_SUBSTANCE_ID>
310931772

> <PUBCHEM_SUBSTANCE_VERSION>
1

> <PUBCHEM_EXT_DATASOURCE_NAME>
4488

> <PUBCHEM_EXT_DATASOURCE_REGID>
SCHEMBL16109102

> <PUBCHEM_SUBSTANCE_COMMENT>
InChI=1S/C25H28N6O2/c1-17-11-18(12-26)6-8-21(17)22-14-28-31(25(22)33)23-9-7-20(13-27-23)24(32)30(3)16-19-5-4-10-29(2)15-19/h6-9,11,13-14,19,33H,4-5,10,15-16H2,1-3H3
InChIKey=KPUJWJFSLMHHSS-UHFFFAOYSA-N

> <PUBCHEM_SUBSTANCE_SYNONYM>
SCHEMBL16109102

> <PUBCHEM_XREF_EXT_ID>
SCHEMBL16109102

> <PUBCHEM_EXT_DATASOURCE_URL>
https://www.surechembl.org/

> <PUBCHEM_EXT_SUBSTANCE_URL>
https://www.surechembl.org/chemical/SCHEMBL16109102

> <PUBCHEM_CID_ASSOCIATIONS>
117600457  1

> <PUBCHEM_COORDINATE_TYPE>
1
3

$$$$
