310930736
  -OEChem-07211613022D

 27 31  0     1  0  0  0  0  0999 V2000
    5.0090   -1.6198    0.0000 O   0  0  0  0  0  0  0  0  0  0  0  0
    5.5074   -0.8224    0.0000 O   0  0  0  0  0  0  0  0  0  0  0  0
    3.7630   -4.3611    0.0000 O   0  0  0  0  0  0  0  0  0  0  0  0
    5.0588   -4.6352    0.0000 O   0  0  0  0  0  0  0  0  0  0  0  0
    0.0000   -1.9438    0.0000 O   0  0  0  0  0  0  0  0  0  0  0  0
    4.2116   -0.1745    0.0000 N   0  0  0  0  0  0  0  0  0  0  0  0
    0.3987   -2.6665    0.0000 N   0  0  0  0  0  0  0  0  0  0  0  0
    4.2116   -1.4703    0.0000 C   0  0  3  0  0  0  0  0  0  0  0  0
    3.4141   -1.2460    0.0000 C   0  0  0  0  0  0  0  0  0  0  0  0
    4.6850   -0.8224    0.0000 C   0  0  0  0  0  0  0  0  0  0  0  0
    4.4607   -2.2678    0.0000 C   0  0  0  0  0  0  0  0  0  0  0  0
    3.4141   -0.3987    0.0000 C   0  0  0  0  0  0  0  0  0  0  0  0
    2.6914   -1.6448    0.0000 C   0  0  0  0  0  0  0  0  0  0  0  0
    2.0185   -1.2460    0.0000 C   0  0  0  0  0  0  0  0  0  0  0  0
    3.9125   -2.8658    0.0000 C   0  0  0  0  0  0  0  0  0  0  0  0
    2.6914    0.0000    0.0000 C   0  0  0  0  0  0  0  0  0  0  0  0
    1.2958   -1.6697    0.0000 C   0  0  0  0  0  0  0  0  0  0  0  0
    5.3080   -2.4422    0.0000 C   0  0  0  0  0  0  0  0  0  0  0  0
    4.1617   -3.6384    0.0000 C   0  0  0  0  0  0  0  0  0  0  0  0
    2.0185   -0.3987    0.0000 C   0  0  0  0  0  0  0  0  0  0  0  0
    5.0090   -3.8128    0.0000 C   0  0  0  0  0  0  0  0  0  0  0  0
    5.5323   -3.1898    0.0000 C   0  0  0  0  0  0  0  0  0  0  0  0
    0.5482   -1.3457    0.0000 C   0  0  0  0  0  0  0  0  0  0  0  0
    1.2211   -2.4671    0.0000 C   0  0  0  0  0  0  0  0  0  0  0  0
    4.3112   -4.9841    0.0000 C   0  0  0  0  0  0  0  0  0  0  0  0
    0.3738   -0.5233    0.0000 C   0  0  0  0  0  0  0  0  0  0  0  0
    1.8192   -3.0154    0.0000 C   0  0  0  0  0  0  0  0  0  0  0  0
  1  8  1  0  0  0  0
  2 10  2  0  0  0  0
  3 19  1  0  0  0  0
  3 25  1  0  0  0  0
  4 21  1  0  0  0  0
  4 25  1  0  0  0  0
  5  7  1  0  0  0  0
  5 23  1  0  0  0  0
  6 10  1  0  0  0  0
  6 12  1  0  0  0  0
  7 24  2  0  0  0  0
  8  9  1  0  0  0  0
  8 10  1  0  0  0  0
  8 11  1  0  0  0  0
  9 12  2  0  0  0  0
  9 13  1  0  0  0  0
 11 15  2  0  0  0  0
 11 18  1  0  0  0  0
 12 16  1  0  0  0  0
 13 14  2  0  0  0  0
 14 17  1  0  0  0  0
 14 20  1  0  0  0  0
 15 19  1  0  0  0  0
 16 20  2  0  0  0  0
 17 23  2  0  0  0  0
 17 24  1  0  0  0  0
 18 22  2  0  0  0  0
 19 21  2  0  0  0  0
 21 22  1  0  0  0  0
 23 26  1  0  0  0  0
 24 27  1  0  0  0  0
M  END
> <PUBCHEM_COMPOUND_ID_TYPE>
0

> <PUBCHEM_TOTAL_CHARGE>
0

> <PUBCHEM_SUBSTANCE_ID>
310930736

> <PUBCHEM_SUBSTANCE_VERSION>
1

> <PUBCHEM_EXT_DATASOURCE_NAME>
4488

> <PUBCHEM_EXT_DATASOURCE_REGID>
SCHEMBL16108033

> <PUBCHEM_SUBSTANCE_COMMENT>
InChI=1S/C20H16N2O5/c1-10-18(11(2)27-22-10)12-3-5-15-14(7-12)20(24,19(23)21-15)13-4-6-16-17(8-13)26-9-25-16/h3-8,24H,9H2,1-2H3,(H,21,23)
InChIKey=WLOKCQBNNWOWBP-UHFFFAOYSA-N

> <PUBCHEM_SUBSTANCE_SYNONYM>
SCHEMBL16108033

> <PUBCHEM_XREF_EXT_ID>
SCHEMBL16108033

> <PUBCHEM_EXT_DATASOURCE_URL>
https://www.surechembl.org/

> <PUBCHEM_EXT_SUBSTANCE_URL>
https://www.surechembl.org/chemical/SCHEMBL16108033

> <PUBCHEM_CID_ASSOCIATIONS>
86295881  1

> <PUBCHEM_COORDINATE_TYPE>
1
3

$$$$
