310935280
  -OEChem-07211613022D

 46 48  0     1  0  0  0  0  0999 V2000
    2.1434    0.4125    0.0000 O   0  0  0  0  0  0  0  0  0  0  0  0
    1.4290   -0.8250    0.0000 O   0  0  0  0  0  0  0  0  0  0  0  0
   -0.7145   -1.2375    0.0000 O   0  0  0  0  0  0  0  0  0  0  0  0
    0.7145   -1.2375    0.0000 O   0  0  0  0  0  0  0  0  0  0  0  0
  -12.8605    0.0000    0.0000 O   0  0  0  0  0  0  0  0  0  0  0  0
   -2.1434    1.2375    0.0000 O   0  0  0  0  0  0  0  0  0  0  0  0
  -12.1460    1.2375    0.0000 O   0  0  0  0  0  0  0  0  0  0  0  0
   -5.0013    0.4125    0.0000 O   0  0  0  0  0  0  0  0  0  0  0  0
   -9.2882    0.4125    0.0000 O   0  0  0  0  0  0  0  0  0  0  0  0
   -7.1447    0.0000    0.0000 O   0  0  0  0  0  0  0  0  0  0  0  0
    0.7145    0.4125    0.0000 N   0  0  0  0  0  0  0  0  0  0  0  0
   -2.8579    0.0000    0.0000 N   0  0  0  0  0  0  0  0  0  0  0  0
  -11.4316    0.0000    0.0000 N   0  0  0  0  0  0  0  0  0  0  0  0
    4.4656    1.4045    0.0000 C   0  0  0  0  0  0  0  0  0  0  0  0
    4.8781    0.6901    0.0000 C   0  0  0  0  0  0  0  0  0  0  0  0
    3.6586    1.2330    0.0000 C   0  0  0  0  0  0  0  0  0  0  0  0
    4.3260    0.0770    0.0000 C   0  0  0  0  0  0  0  0  0  0  0  0
    3.5724    0.4125    0.0000 C   0  0  0  0  0  0  0  0  0  0  0  0
    4.7205    2.1891    0.0000 C   0  0  0  0  0  0  0  0  0  0  0  0
    5.6850    0.5185    0.0000 C   0  0  0  0  0  0  0  0  0  0  0  0
    3.1065    1.8461    0.0000 C   0  0  0  0  0  0  0  0  0  0  0  0
    4.5810   -0.7077    0.0000 C   0  0  0  0  0  0  0  0  0  0  0  0
    2.8579    0.0000    0.0000 C   0  0  0  0  0  0  0  0  0  0  0  0
    4.1685    2.8022    0.0000 C   0  0  0  0  0  0  0  0  0  0  0  0
    5.9400   -0.2661    0.0000 C   0  0  0  0  0  0  0  0  0  0  0  0
    3.3615    2.6307    0.0000 C   0  0  0  0  0  0  0  0  0  0  0  0
    5.3880   -0.8792    0.0000 C   0  0  0  0  0  0  0  0  0  0  0  0
    1.4290    0.0000    0.0000 C   0  0  0  0  0  0  0  0  0  0  0  0
    0.0000    0.0000    0.0000 C   0  0  3  0  0  0  0  0  0  0  0  0
    0.0000   -0.8250    0.0000 C   0  0  0  0  0  0  0  0  0  0  0  0
   -0.7145    0.4125    0.0000 C   0  0  0  0  0  0  0  0  0  0  0  0
   -1.4290    0.0000    0.0000 C   0  0  0  0  0  0  0  0  0  0  0  0
   -2.1434    0.4125    0.0000 C   0  0  0  0  0  0  0  0  0  0  0  0
  -13.5750    0.4125    0.0000 C   0  0  0  0  0  0  0  0  0  0  0  0
  -12.1460    0.4125    0.0000 C   0  0  0  0  0  0  0  0  0  0  0  0
   -3.5724    0.4125    0.0000 C   0  0  0  0  0  0  0  0  0  0  0  0
  -14.2894    0.0000    0.0000 C   0  0  0  0  0  0  0  0  0  0  0  0
  -14.2894    0.8250    0.0000 C   0  0  0  0  0  0  0  0  0  0  0  0
  -13.5750    1.2375    0.0000 C   0  0  0  0  0  0  0  0  0  0  0  0
  -10.7171    0.4125    0.0000 C   0  0  0  0  0  0  0  0  0  0  0  0
   -4.2868    0.0000    0.0000 C   0  0  0  0  0  0  0  0  0  0  0  0
  -10.0026    0.0000    0.0000 C   0  0  0  0  0  0  0  0  0  0  0  0
   -5.7158    0.0000    0.0000 C   0  0  0  0  0  0  0  0  0  0  0  0
   -8.5736    0.0000    0.0000 C   0  0  0  0  0  0  0  0  0  0  0  0
   -6.4302    0.4125    0.0000 C   0  0  0  0  0  0  0  0  0  0  0  0
   -7.8592    0.4125    0.0000 C   0  0  0  0  0  0  0  0  0  0  0  0
  1 23  1  0  0  0  0
  1 28  1  0  0  0  0
  2 28  2  0  0  0  0
  3 30  2  0  0  0  0
  4 30  1  0  0  0  0
  5 34  1  0  0  0  0
  5 35  1  0  0  0  0
  6 33  2  0  0  0  0
  7 35  2  0  0  0  0
  8 41  1  0  0  0  0
  8 43  1  0  0  0  0
  9 42  1  0  0  0  0
  9 44  1  0  0  0  0
 10 45  1  0  0  0  0
 10 46  1  0  0  0  0
 11 28  1  0  0  0  0
 11 29  1  0  0  0  0
 12 33  1  0  0  0  0
 12 36  1  0  0  0  0
 13 35  1  0  0  0  0
 13 40  1  0  0  0  0
 14 15  1  0  0  0  0
 14 16  2  0  0  0  0
 14 19  1  0  0  0  0
 15 17  2  0  0  0  0
 15 20  1  0  0  0  0
 16 18  1  0  0  0  0
 16 21  1  0  0  0  0
 17 18  1  0  0  0  0
 17 22  1  0  0  0  0
 18 23  1  0  0  0  0
 19 24  2  0  0  0  0
 20 25  2  0  0  0  0
 21 26  2  0  0  0  0
 22 27  2  0  0  0  0
 24 26  1  0  0  0  0
 25 27  1  0  0  0  0
 29 30  1  0  0  0  0
 29 31  1  0  0  0  0
 31 32  1  0  0  0  0
 32 33  1  0  0  0  0
 34 37  1  0  0  0  0
 34 38  1  0  0  0  0
 34 39  1  0  0  0  0
 36 41  1  0  0  0  0
 40 42  1  0  0  0  0
 43 45  1  0  0  0  0
 44 46  1  0  0  0  0
M  END
> <PUBCHEM_COMPOUND_ID_TYPE>
0

> <PUBCHEM_TOTAL_CHARGE>
0

> <PUBCHEM_SUBSTANCE_ID>
310935280

> <PUBCHEM_SUBSTANCE_VERSION>
1

> <PUBCHEM_EXT_DATASOURCE_NAME>
4488

> <PUBCHEM_EXT_DATASOURCE_REGID>
SCHEMBL16112812

> <PUBCHEM_SUBSTANCE_COMMENT>
InChI=1S/C33H45N3O10/c1-33(2,3)46-31(40)35-15-17-43-19-21-44-20-18-42-16-14-34-29(37)13-12-28(30(38)39)36-32(41)45-22-27-25-10-6-4-8-23(25)24-9-5-7-11-26(24)27/h4-11,27-28H,12-22H2,1-3H3,(H,34,37)(H,35,40)(H,36,41)(H,38,39)
InChIKey=AMAUXFRXQUCIFV-UHFFFAOYSA-N

> <PUBCHEM_SUBSTANCE_SYNONYM>
SCHEMBL16112812

> <PUBCHEM_XREF_EXT_ID>
SCHEMBL16112812

> <PUBCHEM_EXT_DATASOURCE_URL>
https://www.surechembl.org/

> <PUBCHEM_EXT_SUBSTANCE_URL>
https://www.surechembl.org/chemical/SCHEMBL16112812

> <PUBCHEM_CID_ASSOCIATIONS>
117603349  1

> <PUBCHEM_COORDINATE_TYPE>
1
3

$$$$
