310936124
  -OEChem-07211613022D

 25 27  0     1  0  0  0  0  0999 V2000
    7.0945   -2.0338    0.0000 F   0  0  0  0  0  0  0  0  0  0  0  0
    0.0000   -2.8615    0.0000 F   0  0  0  0  0  0  0  0  0  0  0  0
    5.1317   -0.9696    0.0000 O   0  0  0  0  0  0  0  0  0  0  0  0
    3.5473    0.0000    0.0000 O   0  0  0  0  0  0  0  0  0  0  0  0
    3.5473   -0.8040    0.0000 N   0  0  0  0  0  0  0  0  0  0  0  0
    1.4189   -4.4932    0.0000 N   0  0  0  0  0  0  0  0  0  0  0  0
    4.2567   -2.0338    0.0000 C   0  0  3  0  0  0  0  0  0  0  0  0
    4.9662   -1.6318    0.0000 C   0  0  0  0  0  0  0  0  0  0  0  0
    4.2567   -1.2061    0.0000 C   0  0  0  0  0  0  0  0  0  0  0  0
    4.2567   -2.8615    0.0000 C   0  0  0  0  0  0  0  0  0  0  0  0
    3.5473   -1.6318    0.0000 C   0  0  0  0  0  0  0  0  0  0  0  0
    5.6756   -2.0338    0.0000 C   0  0  0  0  0  0  0  0  0  0  0  0
    2.8378   -2.8615    0.0000 C   0  0  0  0  0  0  0  0  0  0  0  0
    4.9662   -0.8040    0.0000 C   0  0  0  0  0  0  0  0  0  0  0  0
    3.5709   -3.2635    0.0000 C   0  0  0  0  0  0  0  0  0  0  0  0
    2.8378   -2.0338    0.0000 C   0  0  0  0  0  0  0  0  0  0  0  0
    6.3851   -1.6081    0.0000 C   0  0  0  0  0  0  0  0  0  0  0  0
    2.1284   -3.2635    0.0000 C   0  0  0  0  0  0  0  0  0  0  0  0
    5.6756   -0.3783    0.0000 C   0  0  0  0  0  0  0  0  0  0  0  0
    6.3851   -0.8040    0.0000 C   0  0  0  0  0  0  0  0  0  0  0  0
    5.6993   -2.8378    0.0000 C   0  0  0  0  0  0  0  0  0  0  0  0
    1.4189   -2.8851    0.0000 C   0  0  0  0  0  0  0  0  0  0  0  0
    2.1047   -4.0912    0.0000 C   0  0  0  0  0  0  0  0  0  0  0  0
    0.7094   -3.2871    0.0000 C   0  0  0  0  0  0  0  0  0  0  0  0
    0.6858   -4.1148    0.0000 C   0  0  0  0  0  0  0  0  0  0  0  0
  1 17  1  0  0  0  0
  2 24  1  0  0  0  0
  3  9  2  0  0  0  0
  4  5  1  0  0  0  0
  5  9  1  0  0  0  0
  6 23  1  0  0  0  0
  6 25  2  0  0  0  0
  7  8  1  0  0  0  0
  7  9  1  0  0  0  0
  7 10  1  0  0  0  0
  7 11  1  0  0  0  0
  8 12  1  0  0  0  0
  8 14  2  0  0  0  0
 10 15  1  0  0  0  0
 11 16  1  0  0  0  0
 12 17  2  0  0  0  0
 12 21  1  0  0  0  0
 13 15  2  0  0  0  0
 13 16  1  0  0  0  0
 13 18  1  0  0  0  0
 14 19  1  0  0  0  0
 17 20  1  0  0  0  0
 18 22  1  0  0  0  0
 18 23  2  0  0  0  0
 19 20  2  0  0  0  0
 22 24  2  0  0  0  0
 24 25  1  0  0  0  0
M  END
> <PUBCHEM_COMPOUND_ID_TYPE>
0

> <PUBCHEM_TOTAL_CHARGE>
0

> <PUBCHEM_SUBSTANCE_ID>
310936124

> <PUBCHEM_SUBSTANCE_VERSION>
1

> <PUBCHEM_EXT_DATASOURCE_NAME>
4488

> <PUBCHEM_EXT_DATASOURCE_REGID>
SCHEMBL16113734

> <PUBCHEM_SUBSTANCE_COMMENT>
InChI=1S/C19H18F2N2O2/c1-12-16(3-2-4-17(12)21)19(18(24)23-25)7-5-13(6-8-19)14-9-15(20)11-22-10-14/h2-5,9-11,25H,6-8H2,1H3,(H,23,24)
InChIKey=ICXLDDDYWDJOGL-UHFFFAOYSA-N

> <PUBCHEM_SUBSTANCE_SYNONYM>
SCHEMBL16113734

> <PUBCHEM_XREF_EXT_ID>
SCHEMBL16113734

> <PUBCHEM_EXT_DATASOURCE_URL>
https://www.surechembl.org/

> <PUBCHEM_EXT_SUBSTANCE_URL>
https://www.surechembl.org/chemical/SCHEMBL16113734

> <PUBCHEM_CID_ASSOCIATIONS>
117604088  1

> <PUBCHEM_COORDINATE_TYPE>
1
3

$$$$
