310931238
  -OEChem-07211613022D

 29 33  0     1  0  0  0  0  0999 V2000
    0.2186   -2.7109    0.0000 O   0  0  0  0  0  0  0  0  0  0  0  0
    1.0931   -6.5587    0.0000 O   0  0  0  0  0  0  0  0  0  0  0  0
    1.6616   -2.4923    0.0000 N   0  0  0  0  0  0  0  0  0  0  0  0
    2.0551   -3.7166    0.0000 N   0  0  0  0  0  0  0  0  0  0  0  0
    3.1044   -2.7109    0.0000 N   0  0  0  0  0  0  0  0  0  0  0  0
    1.2680   -3.7166    0.0000 C   0  0  3  0  0  0  0  0  0  0  0  0
    1.0057   -2.9733    0.0000 C   0  0  0  0  0  0  0  0  0  0  0  0
    0.7870   -4.4162    0.0000 C   0  0  0  0  0  0  0  0  0  0  0  0
    1.6178   -4.4599    0.0000 C   0  0  0  0  0  0  0  0  0  0  0  0
    2.3174   -2.9733    0.0000 C   0  0  0  0  0  0  0  0  0  0  0  0
    0.6996   -5.2033    0.0000 C   0  0  0  0  0  0  0  0  0  0  0  0
    0.0000   -4.7222    0.0000 C   0  0  0  0  0  0  0  0  0  0  0  0
    1.6616   -1.6616    0.0000 C   0  0  0  0  0  0  0  0  0  0  0  0
    1.1805   -5.1595    0.0000 C   0  0  0  0  0  0  0  0  0  0  0  0
    2.4486   -4.5037    0.0000 C   0  0  0  0  0  0  0  0  0  0  0  0
    1.5304   -5.8591    0.0000 C   0  0  0  0  0  0  0  0  0  0  0  0
    0.9620   -1.2243    0.0000 C   0  0  0  0  0  0  0  0  0  0  0  0
    2.3611   -1.2243    0.0000 C   0  0  0  0  0  0  0  0  0  0  0  0
    2.7984   -5.2469    0.0000 C   0  0  0  0  0  0  0  0  0  0  0  0
    2.3611   -5.9028    0.0000 C   0  0  0  0  0  0  0  0  0  0  0  0
    0.9620   -0.4373    0.0000 C   0  0  0  0  0  0  0  0  0  0  0  0
    2.3611   -0.4373    0.0000 C   0  0  0  0  0  0  0  0  0  0  0  0
    1.4429   -7.3020    0.0000 C   0  0  0  0  0  0  0  0  0  0  0  0
    1.6616    0.0000    0.0000 C   0  0  0  0  0  0  0  0  0  0  0  0
    1.0057   -7.9579    0.0000 C   0  0  0  0  0  0  0  0  0  0  0  0
    2.2737   -7.3458    0.0000 C   0  0  0  0  0  0  0  0  0  0  0  0
    1.3992   -8.7012    0.0000 C   0  0  0  0  0  0  0  0  0  0  0  0
    2.6235   -8.0454    0.0000 C   0  0  0  0  0  0  0  0  0  0  0  0
    2.1862   -8.7449    0.0000 C   0  0  0  0  0  0  0  0  0  0  0  0
  1  7  2  0  0  0  0
  2 16  1  0  0  0  0
  2 23  1  0  0  0  0
  3  7  1  0  0  0  0
  3 10  1  0  0  0  0
  3 13  1  0  0  0  0
  4  6  1  0  0  0  0
  4 10  1  0  0  0  0
  5 10  2  3  0  0  0
  6  7  1  0  0  0  0
  6  8  1  0  0  0  0
  6  9  1  0  0  0  0
  8 11  1  0  0  0  0
  8 12  1  0  0  0  0
  9 14  1  0  0  0  0
  9 15  2  0  0  0  0
 11 12  1  0  0  0  0
 13 17  1  0  0  0  0
 13 18  1  0  0  0  0
 14 16  2  0  0  0  0
 15 19  1  0  0  0  0
 16 20  1  0  0  0  0
 17 21  1  0  0  0  0
 18 22  1  0  0  0  0
 19 20  2  0  0  0  0
 21 24  1  0  0  0  0
 22 24  1  0  0  0  0
 23 25  2  0  0  0  0
 23 26  1  0  0  0  0
 25 27  1  0  0  0  0
 26 28  2  0  0  0  0
 27 29  2  0  0  0  0
 28 29  1  0  0  0  0
M  END
> <PUBCHEM_COMPOUND_ID_TYPE>
0

> <PUBCHEM_TOTAL_CHARGE>
0

> <PUBCHEM_SUBSTANCE_ID>
310931238

> <PUBCHEM_SUBSTANCE_VERSION>
1

> <PUBCHEM_EXT_DATASOURCE_NAME>
4488

> <PUBCHEM_EXT_DATASOURCE_REGID>
SCHEMBL16108549

> <PUBCHEM_SUBSTANCE_COMMENT>
InChI=1S/C24H27N3O2/c25-23-26-24(17-14-15-17,22(28)27(23)19-9-3-1-4-10-19)18-8-7-13-21(16-18)29-20-11-5-2-6-12-20/h2,5-8,11-13,16-17,19H,1,3-4,9-10,14-15H2,(H2,25,26)
InChIKey=LEYJQLAUAAAAKO-UHFFFAOYSA-N

> <PUBCHEM_SUBSTANCE_SYNONYM>
SCHEMBL16108549

> <PUBCHEM_XREF_EXT_ID>
SCHEMBL16108549

> <PUBCHEM_EXT_DATASOURCE_URL>
https://www.surechembl.org/

> <PUBCHEM_EXT_SUBSTANCE_URL>
https://www.surechembl.org/chemical/SCHEMBL16108549

> <PUBCHEM_CID_ASSOCIATIONS>
117600076  1

> <PUBCHEM_COORDINATE_TYPE>
1
3

$$$$
