310941084
  -OEChem-07211613022D

 43 46  0     1  0  0  0  0  0999 V2000
    3.8430    2.3964    0.0000 S   0  0  0  0  0  0  0  0  0  0  0  0
    5.2020   -1.3736    0.0000 O   0  0  0  0  0  0  0  0  0  0  0  0
    4.0622    0.5991    0.0000 O   0  0  0  0  0  0  0  0  0  0  0  0
    1.6804   -1.3736    0.0000 O   0  0  0  0  0  0  0  0  0  0  0  0
    3.4339    3.1271    0.0000 O   0  0  0  0  0  0  0  0  0  0  0  0
    4.2668    1.6658    0.0000 O   0  0  0  0  0  0  0  0  0  0  0  0
   -0.4822    0.7307    0.0000 O   0  0  0  0  0  0  0  0  0  0  0  0
   -2.6448   -1.3736    0.0000 O   0  0  0  0  0  0  0  0  0  0  0  0
   -5.5235   -1.3736    0.0000 O   0  0  0  0  0  0  0  0  0  0  0  0
    2.4110   -0.1169    0.0000 N   0  0  0  0  0  0  0  0  0  0  0  0
    0.2484   -0.5407    0.0000 N   0  0  0  0  0  0  0  0  0  0  0  0
   -1.9143   -0.1169    0.0000 N   0  0  0  0  0  0  0  0  0  0  0  0
   -4.0768   -0.5407    0.0000 N   0  0  0  0  0  0  0  0  0  0  0  0
    4.7929   -0.6429    0.0000 C   0  0  3  0  0  0  0  0  0  0  0  0
    4.0476   -0.2338    0.0000 C   0  0  0  0  0  0  0  0  0  0  0  0
    4.3837   -1.3444    0.0000 C   0  0  0  0  0  0  0  0  0  0  0  0
    3.3609   -0.6283    0.0000 C   0  0  3  0  0  0  0  0  0  0  0  0
    5.5235   -0.2192    0.0000 C   0  0  0  0  0  0  0  0  0  0  0  0
    3.3463   -1.7243    0.0000 C   0  0  0  0  0  0  0  0  0  0  0  0
    1.6950   -0.4822    0.0000 C   0  0  0  0  0  0  0  0  0  0  0  0
    0.9498   -0.0876    0.0000 C   0  0  3  0  0  0  0  0  0  0  0  0
    2.6302   -2.1334    0.0000 C   0  0  0  0  0  0  0  0  0  0  0  0
    0.9790    0.7599    0.0000 C   0  0  0  0  0  0  0  0  0  0  0  0
    1.6950    1.1690    0.0000 C   0  0  0  0  0  0  0  0  0  0  0  0
    3.1271    2.0019    0.0000 C   0  0  0  0  0  0  0  0  0  0  0  0
   -0.4822   -0.1169    0.0000 C   0  0  0  0  0  0  0  0  0  0  0  0
    1.8704   -1.8119    0.0000 C   0  0  0  0  0  0  0  0  0  0  0  0
    2.5280   -2.9663    0.0000 C   0  0  0  0  0  0  0  0  0  0  0  0
    1.7097    2.0019    0.0000 C   0  0  0  0  0  0  0  0  0  0  0  0
    2.4110    0.7599    0.0000 C   0  0  0  0  0  0  0  0  0  0  0  0
    2.4110    2.4110    0.0000 C   0  0  0  0  0  0  0  0  0  0  0  0
    3.1271    1.1690    0.0000 C   0  0  0  0  0  0  0  0  0  0  0  0
   -1.1836   -0.4968    0.0000 C   0  0  3  0  0  0  0  0  0  0  0  0
    1.3298   -2.4403    0.0000 C   0  0  0  0  0  0  0  0  0  0  0  0
    1.7243   -3.1271    0.0000 C   0  0  0  0  0  0  0  0  0  0  0  0
    4.5883    2.8202    0.0000 C   0  0  0  0  0  0  0  0  0  0  0  0
   -2.6302   -0.4822    0.0000 C   0  0  0  0  0  0  0  0  0  0  0  0
   -1.1982   -1.3590    0.0000 C   0  0  0  0  0  0  0  0  0  0  0  0
   -3.3901   -0.1023    0.0000 C   0  0  0  0  0  0  0  0  0  0  0  0
   -4.0768   -1.3444    0.0000 C   0  0  0  0  0  0  0  0  0  0  0  0
   -4.8075   -0.1023    0.0000 C   0  0  0  0  0  0  0  0  0  0  0  0
   -4.7783   -1.7535    0.0000 C   0  0  0  0  0  0  0  0  0  0  0  0
   -5.5089   -0.4968    0.0000 C   0  0  0  0  0  0  0  0  0  0  0  0
  1  5  2  0  0  0  0
  1  6  2  0  0  0  0
  1 25  1  0  0  0  0
  1 36  1  0  0  0  0
  2 14  1  0  0  0  0
  2 16  1  0  0  0  0
  3 15  2  0  0  0  0
  4 20  2  0  0  0  0
  7 26  2  0  0  0  0
  8 37  2  0  0  0  0
  9 42  1  0  0  0  0
  9 43  1  0  0  0  0
 10 17  1  0  0  0  0
 10 20  1  0  0  0  0
 11 21  1  0  0  0  0
 11 26  1  0  0  0  0
 12 33  1  0  0  0  0
 12 37  1  0  0  0  0
 13 39  1  0  0  0  0
 13 40  1  0  0  0  0
 13 41  1  0  0  0  0
 14 15  1  0  0  0  0
 14 16  1  0  0  0  0
 14 18  1  0  0  0  0
 15 17  1  0  0  0  0
 17 19  1  0  0  0  0
 19 22  1  0  0  0  0
 20 21  1  0  0  0  0
 21 23  1  0  0  0  0
 22 27  2  0  0  0  0
 22 28  1  0  0  0  0
 23 24  1  0  0  0  0
 24 29  2  0  0  0  0
 24 30  1  0  0  0  0
 25 31  2  0  0  0  0
 25 32  1  0  0  0  0
 26 33  1  0  0  0  0
 27 34  1  0  0  0  0
 28 35  1  0  0  0  0
 29 31  1  0  0  0  0
 30 32  2  0  0  0  0
 33 38  1  0  0  0  0
 34 35  1  0  0  0  0
 37 39  1  0  0  0  0
 40 42  1  0  0  0  0
 41 43  1  0  0  0  0
M  END
> <PUBCHEM_COMPOUND_ID_TYPE>
0

> <PUBCHEM_TOTAL_CHARGE>
0

> <PUBCHEM_SUBSTANCE_ID>
310941084

> <PUBCHEM_SUBSTANCE_VERSION>
1

> <PUBCHEM_EXT_DATASOURCE_NAME>
4488

> <PUBCHEM_EXT_DATASOURCE_REGID>
SCHEMBL16119044

> <PUBCHEM_SUBSTANCE_COMMENT>
InChI=1S/C30H42N4O8S/c1-20(31-26(35)18-34-12-14-41-15-13-34)28(37)33-25(17-22-8-10-23(11-9-22)43(3,39)40)29(38)32-24(16-21-6-4-5-7-21)27(36)30(2)19-42-30/h6,8-11,20,24-25H,4-5,7,12-19H2,1-3H3,(H,31,35)(H,32,38)(H,33,37)
InChIKey=BDINOBIBMGCMHL-UHFFFAOYSA-N

> <PUBCHEM_SUBSTANCE_SYNONYM>
SCHEMBL16119044

> <PUBCHEM_XREF_EXT_ID>
SCHEMBL16119044

> <PUBCHEM_EXT_DATASOURCE_URL>
https://www.surechembl.org/

> <PUBCHEM_EXT_SUBSTANCE_URL>
https://www.surechembl.org/chemical/SCHEMBL16119044

> <PUBCHEM_CID_ASSOCIATIONS>
86296732  1

> <PUBCHEM_COORDINATE_TYPE>
1
3

$$$$
