310931506
  -OEChem-07211613022D

 29 33  0     1  0  0  0  0  0999 V2000
    0.2051   -3.3398    0.0000 Cl  0  0  0  0  0  0  0  0  0  0  0  0
    3.2519   -2.7246    0.0000 O   0  0  0  0  0  0  0  0  0  0  0  0
    4.6874    0.0000    0.0000 O   0  0  0  0  0  0  0  0  0  0  0  0
    4.6874   -2.4902    0.0000 N   0  0  0  0  0  0  0  0  0  0  0  0
    5.0976   -3.7792    0.0000 N   0  0  0  0  0  0  0  0  0  0  0  0
    6.1229   -2.7246    0.0000 N   0  0  0  0  0  0  0  0  0  0  0  0
    0.3809   -5.5077    0.0000 N   0  0  0  0  0  0  0  0  0  0  0  0
    4.2773   -3.7792    0.0000 C   0  0  3  0  0  0  0  0  0  0  0  0
    4.0429   -2.9882    0.0000 C   0  0  0  0  0  0  0  0  0  0  0  0
    4.6581   -4.5117    0.0000 C   0  0  0  0  0  0  0  0  0  0  0  0
    3.7792   -4.4237    0.0000 C   0  0  0  0  0  0  0  0  0  0  0  0
    5.3612   -2.9882    0.0000 C   0  0  0  0  0  0  0  0  0  0  0  0
    5.3319   -4.9511    0.0000 C   0  0  0  0  0  0  0  0  0  0  0  0
    4.5995   -5.3319    0.0000 C   0  0  0  0  0  0  0  0  0  0  0  0
    4.6874   -1.6699    0.0000 C   0  0  0  0  0  0  0  0  0  0  0  0
    2.9882   -4.3651    0.0000 C   0  0  0  0  0  0  0  0  0  0  0  0
    4.1308   -5.1854    0.0000 C   0  0  0  0  0  0  0  0  0  0  0  0
    2.4902   -5.0096    0.0000 C   0  0  0  0  0  0  0  0  0  0  0  0
    3.6327   -5.8593    0.0000 C   0  0  0  0  0  0  0  0  0  0  0  0
    5.3905   -1.2304    0.0000 C   0  0  0  0  0  0  0  0  0  0  0  0
    3.9843   -1.2304    0.0000 C   0  0  0  0  0  0  0  0  0  0  0  0
    2.8417   -5.7714    0.0000 C   0  0  0  0  0  0  0  0  0  0  0  0
    1.6699   -4.9218    0.0000 C   0  0  0  0  0  0  0  0  0  0  0  0
    5.3905   -0.4394    0.0000 C   0  0  0  0  0  0  0  0  0  0  0  0
    3.9843   -0.4394    0.0000 C   0  0  0  0  0  0  0  0  0  0  0  0
    1.3184   -4.1894    0.0000 C   0  0  0  0  0  0  0  0  0  0  0  0
    1.1719   -5.5956    0.0000 C   0  0  0  0  0  0  0  0  0  0  0  0
    0.5274   -4.1015    0.0000 C   0  0  0  0  0  0  0  0  0  0  0  0
    0.0000   -4.7460    0.0000 C   0  0  0  0  0  0  0  0  0  0  0  0
  1 28  1  0  0  0  0
  2  9  2  0  0  0  0
  3 24  1  0  0  0  0
  3 25  1  0  0  0  0
  4  9  1  0  0  0  0
  4 12  1  0  0  0  0
  4 15  1  0  0  0  0
  5  8  1  0  0  0  0
  5 12  1  0  0  0  0
  6 12  2  3  0  0  0
  7 27  1  0  0  0  0
  7 29  2  0  0  0  0
  8  9  1  0  0  0  0
  8 10  1  0  0  0  0
  8 11  1  0  0  0  0
 10 13  1  0  0  0  0
 10 14  1  0  0  0  0
 11 16  1  0  0  0  0
 11 17  2  0  0  0  0
 13 14  1  0  0  0  0
 15 20  1  0  0  0  0
 15 21  1  0  0  0  0
 16 18  2  0  0  0  0
 17 19  1  0  0  0  0
 18 22  1  0  0  0  0
 18 23  1  0  0  0  0
 19 22  2  0  0  0  0
 20 24  1  0  0  0  0
 21 25  1  0  0  0  0
 23 26  1  0  0  0  0
 23 27  2  0  0  0  0
 26 28  2  0  0  0  0
 28 29  1  0  0  0  0
M  END
> <PUBCHEM_COMPOUND_ID_TYPE>
0

> <PUBCHEM_TOTAL_CHARGE>
0

> <PUBCHEM_SUBSTANCE_ID>
310931506

> <PUBCHEM_SUBSTANCE_VERSION>
1

> <PUBCHEM_EXT_DATASOURCE_NAME>
4488

> <PUBCHEM_EXT_DATASOURCE_REGID>
SCHEMBL16108832

> <PUBCHEM_SUBSTANCE_COMMENT>
InChI=1S/C22H23ClN4O2/c23-18-11-15(12-25-13-18)14-2-1-3-17(10-14)22(16-4-5-16)20(28)27(21(24)26-22)19-6-8-29-9-7-19/h1-3,10-13,16,19H,4-9H2,(H2,24,26)
InChIKey=XFAWPANOLUXPPT-UHFFFAOYSA-N

> <PUBCHEM_SUBSTANCE_SYNONYM>
SCHEMBL16108832

> <PUBCHEM_XREF_EXT_ID>
SCHEMBL16108832

> <PUBCHEM_EXT_DATASOURCE_URL>
https://www.surechembl.org/

> <PUBCHEM_EXT_SUBSTANCE_URL>
https://www.surechembl.org/chemical/SCHEMBL16108832

> <PUBCHEM_CID_ASSOCIATIONS>
86273604  1

> <PUBCHEM_COORDINATE_TYPE>
1
3

$$$$
