310937601
  -OEChem-07211613022D

 32 35  0     1  0  0  0  0  0999 V2000
    7.1768   -6.1234    0.0000 O   0  0  0  0  0  0  0  0  0  0  0  0
    8.6254   -6.1234    0.0000 O   0  0  0  0  0  0  0  0  0  0  0  0
    1.4486   -1.2510    0.0000 O   0  0  0  0  0  0  0  0  0  0  0  0
    2.1399    0.0000    0.0000 O   0  0  0  0  0  0  0  0  0  0  0  0
    9.4155   -3.4238    0.0000 N   0  0  3  0  0  0  0  0  0  0  0  0
    4.3127   -2.0411    0.0000 N   0  0  0  0  0  0  0  0  0  0  0  0
    5.0370   -3.2921    0.0000 N   0  0  0  0  0  0  0  0  0  0  0  0
    2.8642   -1.2181    0.0000 N   0  0  0  0  0  0  0  0  0  0  0  0
    8.6254   -4.4773    0.0000 C   0  0  0  0  0  0  0  0  0  0  0  0
    8.6254   -3.6872    0.0000 C   0  0  0  0  0  0  0  0  0  0  0  0
    7.9012   -4.9053    0.0000 C   0  0  0  0  0  0  0  0  0  0  0  0
    7.2098   -3.6872    0.0000 C   0  0  0  0  0  0  0  0  0  0  0  0
    7.9012   -3.2592    0.0000 C   0  0  0  0  0  0  0  0  0  0  0  0
    7.2098   -4.4773    0.0000 C   0  0  0  0  0  0  0  0  0  0  0  0
    6.4855   -3.2592    0.0000 C   0  0  0  0  0  0  0  0  0  0  0  0
    9.4155   -4.7407    0.0000 C   0  0  0  0  0  0  0  0  0  0  0  0
    9.8764   -4.0822    0.0000 C   0  0  0  0  0  0  0  0  0  0  0  0
    7.9012   -5.7283    0.0000 C   0  0  0  0  0  0  0  0  0  0  0  0
    5.0041   -2.4362    0.0000 C   0  0  0  0  0  0  0  0  0  0  0  0
    5.7612   -3.6872    0.0000 C   0  0  0  0  0  0  0  0  0  0  0  0
    6.4526   -2.4362    0.0000 C   0  0  0  0  0  0  0  0  0  0  0  0
    5.7612   -2.0411    0.0000 C   0  0  0  0  0  0  0  0  0  0  0  0
    9.6459   -2.6337    0.0000 C   0  0  0  0  0  0  0  0  0  0  0  0
    4.3127   -1.2181    0.0000 C   0  0  0  0  0  0  0  0  0  0  0  0
    3.5884   -2.4691    0.0000 C   0  0  0  0  0  0  0  0  0  0  0  0
    2.1399   -0.8231    0.0000 C   0  0  0  0  0  0  0  0  0  0  0  0
    2.8642   -2.0411    0.0000 C   0  0  0  0  0  0  0  0  0  0  0  0
    3.5884   -0.7901    0.0000 C   0  0  0  0  0  0  0  0  0  0  0  0
    0.7243   -0.8560    0.0000 C   0  0  0  0  0  0  0  0  0  0  0  0
    0.0000   -0.4280    0.0000 C   0  0  0  0  0  0  0  0  0  0  0  0
    1.1193   -0.1317    0.0000 C   0  0  0  0  0  0  0  0  0  0  0  0
    0.3292   -1.5473    0.0000 C   0  0  0  0  0  0  0  0  0  0  0  0
  1 18  2  0  0  0  0
  2 18  1  0  0  0  0
  3 26  1  0  0  0  0
  3 29  1  0  0  0  0
  4 26  2  0  0  0  0
  5 10  1  0  0  0  0
  5 17  1  0  0  0  0
  5 23  1  0  0  0  0
  6 19  1  0  0  0  0
  6 24  1  0  0  0  0
  6 25  1  0  0  0  0
  7 19  2  0  0  0  0
  7 20  1  0  0  0  0
  8 26  1  0  0  0  0
  8 27  1  0  0  0  0
  8 28  1  0  0  0  0
  9 10  2  0  0  0  0
  9 11  1  0  0  0  0
  9 16  1  0  0  0  0
 10 13  1  0  0  0  0
 11 14  2  0  0  0  0
 11 18  1  0  0  0  0
 12 13  2  0  0  0  0
 12 14  1  0  0  0  0
 12 15  1  0  0  0  0
 15 20  2  0  0  0  0
 15 21  1  0  0  0  0
 16 17  1  0  0  0  0
 19 22  1  0  0  0  0
 21 22  2  0  0  0  0
 24 28  1  0  0  0  0
 25 27  1  0  0  0  0
 29 30  1  0  0  0  0
 29 31  1  0  0  0  0
 29 32  1  0  0  0  0
M  END
> <PUBCHEM_COMPOUND_ID_TYPE>
0

> <PUBCHEM_TOTAL_CHARGE>
0

> <PUBCHEM_SUBSTANCE_ID>
310937601

> <PUBCHEM_SUBSTANCE_VERSION>
1

> <PUBCHEM_EXT_DATASOURCE_NAME>
4488

> <PUBCHEM_EXT_DATASOURCE_REGID>
SCHEMBL16115382

> <PUBCHEM_SUBSTANCE_COMMENT>
InChI=1S/C24H30N4O4/c1-24(2,3)32-23(31)28-11-9-27(10-12-28)21-6-5-16(15-25-21)17-13-19(22(29)30)18-7-8-26(4)20(18)14-17/h5-6,13-15H,7-12H2,1-4H3,(H,29,30)
InChIKey=SUVLVCLUBZDZCK-UHFFFAOYSA-N

> <PUBCHEM_SUBSTANCE_SYNONYM>
SCHEMBL16115382

> <PUBCHEM_XREF_EXT_ID>
SCHEMBL16115382

> <PUBCHEM_EXT_DATASOURCE_URL>
https://www.surechembl.org/

> <PUBCHEM_EXT_SUBSTANCE_URL>
https://www.surechembl.org/chemical/SCHEMBL16115382

> <PUBCHEM_CID_ASSOCIATIONS>
117605302  1

> <PUBCHEM_COORDINATE_TYPE>
1
3

$$$$
