310941147
  -OEChem-07211613022D

 42 46  0     1  0  0  0  0  0999 V2000
    5.1680   -1.4662    0.0000 O   0  0  0  0  0  0  0  0  0  0  0  0
    4.0357    0.4936    0.0000 O   0  0  0  0  0  0  0  0  0  0  0  0
    1.6695   -1.4517    0.0000 O   0  0  0  0  0  0  0  0  0  0  0  0
   -0.4791    0.6242    0.0000 O   0  0  0  0  0  0  0  0  0  0  0  0
   -2.6275   -1.4517    0.0000 O   0  0  0  0  0  0  0  0  0  0  0  0
   -5.4873   -1.4517    0.0000 O   0  0  0  0  0  0  0  0  0  0  0  0
    2.3807   -0.2033    0.0000 N   0  0  0  0  0  0  0  0  0  0  0  0
    0.2323   -0.6242    0.0000 N   0  0  0  0  0  0  0  0  0  0  0  0
    2.5549    3.0775    0.0000 N   0  0  0  0  0  0  0  0  0  0  0  0
   -1.9162   -0.2033    0.0000 N   0  0  0  0  0  0  0  0  0  0  0  0
   -4.0647   -0.6242    0.0000 N   0  0  0  0  0  0  0  0  0  0  0  0
    4.7469   -0.7258    0.0000 C   0  0  3  0  0  0  0  0  0  0  0  0
    4.0357   -0.3194    0.0000 C   0  0  0  0  0  0  0  0  0  0  0  0
    4.3550   -1.4372    0.0000 C   0  0  0  0  0  0  0  0  0  0  0  0
    3.3243   -0.7113    0.0000 C   0  0  3  0  0  0  0  0  0  0  0  0
    5.4873   -0.3194    0.0000 C   0  0  0  0  0  0  0  0  0  0  0  0
    3.3243   -1.7855    0.0000 C   0  0  0  0  0  0  0  0  0  0  0  0
    1.6840   -0.5662    0.0000 C   0  0  0  0  0  0  0  0  0  0  0  0
    0.9580   -0.1742    0.0000 C   0  0  3  0  0  0  0  0  0  0  0  0
    2.5985   -2.2066    0.0000 C   0  0  0  0  0  0  0  0  0  0  0  0
    1.6695    1.0597    0.0000 C   0  0  0  0  0  0  0  0  0  0  0  0
    0.9726    0.6532    0.0000 C   0  0  0  0  0  0  0  0  0  0  0  0
    2.3807    2.3081    0.0000 C   0  0  0  0  0  0  0  0  0  0  0  0
    3.1065    1.8871    0.0000 C   0  0  0  0  0  0  0  0  0  0  0  0
    1.6840    1.8871    0.0000 C   0  0  0  0  0  0  0  0  0  0  0  0
    2.3953    0.6532    0.0000 C   0  0  0  0  0  0  0  0  0  0  0  0
   -0.4936   -0.2033    0.0000 C   0  0  0  0  0  0  0  0  0  0  0  0
    3.1065    1.0597    0.0000 C   0  0  0  0  0  0  0  0  0  0  0  0
    1.8436   -1.8871    0.0000 C   0  0  0  0  0  0  0  0  0  0  0  0
    2.4969   -3.0339    0.0000 C   0  0  0  0  0  0  0  0  0  0  0  0
    3.7163    2.4533    0.0000 C   0  0  0  0  0  0  0  0  0  0  0  0
   -1.1758   -0.5951    0.0000 C   0  0  3  0  0  0  0  0  0  0  0  0
    3.3824    3.1792    0.0000 C   0  0  0  0  0  0  0  0  0  0  0  0
    1.3065   -2.4824    0.0000 C   0  0  0  0  0  0  0  0  0  0  0  0
    1.6985   -3.1792    0.0000 C   0  0  0  0  0  0  0  0  0  0  0  0
   -2.6131   -0.5662    0.0000 C   0  0  0  0  0  0  0  0  0  0  0  0
   -1.1904   -1.4372    0.0000 C   0  0  0  0  0  0  0  0  0  0  0  0
   -3.3533   -0.1887    0.0000 C   0  0  0  0  0  0  0  0  0  0  0  0
   -4.0647   -1.4227    0.0000 C   0  0  0  0  0  0  0  0  0  0  0  0
   -4.8051   -0.1887    0.0000 C   0  0  0  0  0  0  0  0  0  0  0  0
   -4.7615   -1.8291    0.0000 C   0  0  0  0  0  0  0  0  0  0  0  0
   -5.4727   -0.5807    0.0000 C   0  0  0  0  0  0  0  0  0  0  0  0
  1 12  1  0  0  0  0
  1 14  1  0  0  0  0
  2 13  2  0  0  0  0
  3 18  2  0  0  0  0
  4 27  2  0  0  0  0
  5 36  2  0  0  0  0
  6 41  1  0  0  0  0
  6 42  1  0  0  0  0
  7 15  1  0  0  0  0
  7 18  1  0  0  0  0
  8 19  1  0  0  0  0
  8 27  1  0  0  0  0
  9 23  1  0  0  0  0
  9 33  1  0  0  0  0
 10 32  1  0  0  0  0
 10 36  1  0  0  0  0
 11 38  1  0  0  0  0
 11 39  1  0  0  0  0
 11 40  1  0  0  0  0
 12 13  1  0  0  0  0
 12 14  1  0  0  0  0
 12 16  1  0  0  0  0
 13 15  1  0  0  0  0
 15 17  1  0  0  0  0
 17 20  1  0  0  0  0
 18 19  1  0  0  0  0
 19 22  1  0  0  0  0
 20 29  1  0  0  0  0
 20 30  1  0  0  0  0
 21 22  1  0  0  0  0
 21 25  1  0  0  0  0
 21 26  2  0  0  0  0
 23 24  1  0  0  0  0
 23 25  2  0  0  0  0
 24 28  2  0  0  0  0
 24 31  1  0  0  0  0
 26 28  1  0  0  0  0
 27 32  1  0  0  0  0
 29 34  1  0  0  0  0
 30 35  1  0  0  0  0
 31 33  2  0  0  0  0
 32 37  1  0  0  0  0
 34 35  1  0  0  0  0
 36 38  1  0  0  0  0
 39 41  1  0  0  0  0
 40 42  1  0  0  0  0
M  END
> <PUBCHEM_COMPOUND_ID_TYPE>
0

> <PUBCHEM_TOTAL_CHARGE>
0

> <PUBCHEM_SUBSTANCE_ID>
310941147

> <PUBCHEM_SUBSTANCE_VERSION>
1

> <PUBCHEM_EXT_DATASOURCE_NAME>
4488

> <PUBCHEM_EXT_DATASOURCE_REGID>
SCHEMBL16119107

> <PUBCHEM_SUBSTANCE_COMMENT>
InChI=1S/C31H43N5O6/c1-20(33-27(37)18-36-11-13-41-14-12-36)29(39)35-26(17-22-7-8-23-9-10-32-24(23)16-22)30(40)34-25(15-21-5-3-4-6-21)28(38)31(2)19-42-31/h7-10,16,20-21,25-26,32H,3-6,11-15,17-19H2,1-2H3,(H,33,37)(H,34,40)(H,35,39)
InChIKey=YNBMLASGEHGVRG-UHFFFAOYSA-N

> <PUBCHEM_SUBSTANCE_SYNONYM>
SCHEMBL16119107

> <PUBCHEM_XREF_EXT_ID>
SCHEMBL16119107

> <PUBCHEM_EXT_DATASOURCE_URL>
https://www.surechembl.org/

> <PUBCHEM_EXT_SUBSTANCE_URL>
https://www.surechembl.org/chemical/SCHEMBL16119107

> <PUBCHEM_CID_ASSOCIATIONS>
86296731  1

> <PUBCHEM_COORDINATE_TYPE>
1
3

$$$$
