310929059
  -OEChem-07211613022D

 59 64  0     1  0  0  0  0  0999 V2000
    1.4074   -0.6794    0.0000 S   0  0  0  0  0  0  0  0  0  0  0  0
    3.6883   -2.0868    0.0000 O   0  0  0  0  0  0  0  0  0  0  0  0
    6.3574   -1.8927    0.0000 O   0  0  0  0  0  0  0  0  0  0  0  0
    2.8633   -4.8045    0.0000 O   0  0  0  0  0  0  0  0  0  0  0  0
    0.9706   -1.4559    0.0000 O   0  0  0  0  0  0  0  0  0  0  0  0
    1.8442    0.0000    0.0000 O   0  0  0  0  0  0  0  0  0  0  0  0
    9.2693   -6.7942    0.0000 O   0  0  0  0  0  0  0  0  0  0  0  0
   10.6767   -3.4942    0.0000 O   0  0  0  0  0  0  0  0  0  0  0  0
   14.5590   -2.5721    0.0000 O   0  0  0  0  0  0  0  0  0  0  0  0
    3.5427   -3.5427    0.0000 N   0  0  0  0  0  0  0  0  0  0  0  0
    2.1353   -1.0676    0.0000 N   0  0  0  0  0  0  0  0  0  0  0  0
    4.2221   -4.8045    0.0000 N   0  0  0  0  0  0  0  0  0  0  0  0
    7.8133   -4.3192    0.0000 N   0  0  0  0  0  0  0  0  0  0  0  0
    8.5413   -3.1060    0.0000 N   0  0  0  0  0  0  0  0  0  0  0  0
   11.3560   -4.7559    0.0000 N   0  0  0  0  0  0  0  0  0  0  0  0
   12.8120   -3.1060    0.0000 N   0  0  3  0  0  0  0  0  0  0  0  0
    2.8147   -3.1544    0.0000 C   0  0  0  0  0  0  0  0  0  0  0  0
    4.2221   -3.1544    0.0000 C   0  0  0  0  0  0  0  0  0  0  0  0
    4.2706   -2.3295    0.0000 C   0  0  0  0  0  0  0  0  0  0  0  0
    2.8147   -2.3295    0.0000 C   0  0  0  0  0  0  0  0  0  0  0  0
    4.9501   -1.9412    0.0000 C   0  0  0  0  0  0  0  0  0  0  0  0
    2.0868   -1.8927    0.0000 C   0  0  0  0  0  0  0  0  0  0  0  0
    1.4074   -3.1544    0.0000 C   0  0  0  0  0  0  0  0  0  0  0  0
    2.0868   -3.5427    0.0000 C   0  0  0  0  0  0  0  0  0  0  0  0
    5.6781   -2.3295    0.0000 C   0  0  0  0  0  0  0  0  0  0  0  0
    3.5427   -4.3677    0.0000 C   0  0  0  0  0  0  0  0  0  0  0  0
    4.9501   -3.5427    0.0000 C   0  0  0  0  0  0  0  0  0  0  0  0
    1.4074   -2.3295    0.0000 C   0  0  0  0  0  0  0  0  0  0  0  0
    0.6794   -3.5427    0.0000 C   0  0  0  0  0  0  0  0  0  0  0  0
    5.6781   -3.1544    0.0000 C   0  0  0  0  0  0  0  0  0  0  0  0
    3.5427   -1.9412    0.0000 C   0  0  0  0  0  0  0  0  0  0  0  0
    4.9501   -1.1162    0.0000 C   0  0  0  0  0  0  0  0  0  0  0  0
    3.5427   -1.1162    0.0000 C   0  0  0  0  0  0  0  0  0  0  0  0
    4.2221   -0.6794    0.0000 C   0  0  0  0  0  0  0  0  0  0  0  0
    7.0854   -2.2809    0.0000 C   0  0  0  0  0  0  0  0  0  0  0  0
    0.2912   -2.8147    0.0000 C   0  0  0  0  0  0  0  0  0  0  0  0
    0.0000   -3.9795    0.0000 C   0  0  0  0  0  0  0  0  0  0  0  0
    1.1162   -4.2706    0.0000 C   0  0  0  0  0  0  0  0  0  0  0  0
    7.0854   -3.1060    0.0000 C   0  0  0  0  0  0  0  0  0  0  0  0
    3.6883   -1.2618    0.0000 C   0  0  0  0  0  0  0  0  0  0  0  0
    7.8133   -3.4942    0.0000 C   0  0  0  0  0  0  0  0  0  0  0  0
    7.7649   -1.8442    0.0000 C   0  0  0  0  0  0  0  0  0  0  0  0
    0.7279   -0.2426    0.0000 C   0  0  0  0  0  0  0  0  0  0  0  0
    8.5413   -4.7559    0.0000 C   0  0  0  0  0  0  0  0  0  0  0  0
    8.4928   -2.2809    0.0000 C   0  0  0  0  0  0  0  0  0  0  0  0
    9.9487   -4.7559    0.0000 C   0  0  0  0  0  0  0  0  0  0  0  0
    9.2693   -4.3192    0.0000 C   0  0  0  0  0  0  0  0  0  0  0  0
    8.5413   -5.5325    0.0000 C   0  0  0  0  0  0  0  0  0  0  0  0
    9.2693   -5.9692    0.0000 C   0  0  0  0  0  0  0  0  0  0  0  0
    9.9487   -5.5325    0.0000 C   0  0  0  0  0  0  0  0  0  0  0  0
   10.6767   -4.3192    0.0000 C   0  0  0  0  0  0  0  0  0  0  0  0
   12.0840   -4.3192    0.0000 C   0  0  0  0  0  0  0  0  0  0  0  0
    9.9487   -7.1825    0.0000 C   0  0  0  0  0  0  0  0  0  0  0  0
   12.0840   -3.4942    0.0000 C   0  0  0  0  0  0  0  0  0  0  0  0
   13.4914   -3.5427    0.0000 C   0  0  0  0  0  0  0  0  0  0  0  0
   12.7635   -2.2324    0.0000 C   0  0  0  0  0  0  0  0  0  0  0  0
   14.2194   -3.3486    0.0000 C   0  0  0  0  0  0  0  0  0  0  0  0
   13.3944   -1.6985    0.0000 C   0  0  0  0  0  0  0  0  0  0  0  0
   14.1708   -1.8442    0.0000 C   0  0  0  0  0  0  0  0  0  0  0  0
  1  5  2  0  0  0  0
  1  6  2  0  0  0  0
  1 11  1  0  0  0  0
  1 43  1  0  0  0  0
  2 20  1  0  0  0  0
  2 40  1  0  0  0  0
  3 25  1  0  0  0  0
  3 35  1  0  0  0  0
  4 26  2  0  0  0  0
  7 49  1  0  0  0  0
  7 53  1  0  0  0  0
  8 51  2  0  0  0  0
  9 57  1  0  0  0  0
  9 59  1  0  0  0  0
 10 17  1  0  0  0  0
 10 18  1  0  0  0  0
 10 26  1  0  0  0  0
 11 22  1  0  0  0  0
 12 26  1  0  0  0  0
 13 41  1  0  0  0  0
 13 44  1  0  0  0  0
 14 41  2  0  0  0  0
 14 45  1  0  0  0  0
 15 51  1  0  0  0  0
 15 52  1  0  0  0  0
 16 54  1  0  0  0  0
 16 55  1  0  0  0  0
 16 56  1  0  0  0  0
 17 20  1  0  0  0  0
 17 24  2  0  0  0  0
 18 19  1  0  0  0  0
 18 27  2  0  0  0  0
 19 21  2  0  0  0  0
 19 31  1  0  0  0  0
 20 22  2  0  0  0  0
 21 25  1  0  0  0  0
 21 32  1  0  0  0  0
 22 28  1  0  0  0  0
 23 24  1  0  0  0  0
 23 28  2  0  0  0  0
 23 29  1  0  0  0  0
 25 30  2  0  0  0  0
 27 30  1  0  0  0  0
 29 36  1  0  0  0  0
 29 37  1  0  0  0  0
 29 38  1  0  0  0  0
 31 33  2  0  0  0  0
 32 34  2  0  0  0  0
 33 34  1  0  0  0  0
 35 39  2  0  0  0  0
 35 42  1  0  0  0  0
 39 41  1  0  0  0  0
 42 45  2  0  0  0  0
 44 47  1  0  0  0  0
 44 48  2  0  0  0  0
 46 47  2  0  0  0  0
 46 50  1  0  0  0  0
 46 51  1  0  0  0  0
 48 49  1  0  0  0  0
 49 50  2  0  0  0  0
 52 54  1  0  0  0  0
 55 57  1  0  0  0  0
 56 58  1  0  0  0  0
 58 59  1  0  0  0  0
M  END
> <PUBCHEM_COMPOUND_ID_TYPE>
0

> <PUBCHEM_TOTAL_CHARGE>
0

> <PUBCHEM_SUBSTANCE_ID>
310929059

> <PUBCHEM_SUBSTANCE_VERSION>
1

> <PUBCHEM_EXT_DATASOURCE_NAME>
4488

> <PUBCHEM_EXT_DATASOURCE_REGID>
SCHEMBL16106221

> <PUBCHEM_SUBSTANCE_COMMENT>
InChI=1S/C43H51N7O8S/c1-43(2,3)29-24-35(48-59(6,53)54)40(56-5)37(25-29)50(42(44)52)36-12-13-38(34-11-8-7-10-33(34)36)58-31-14-15-45-39(27-31)47-30-22-28(23-32(26-30)55-4)41(51)46-16-18-49-17-9-20-57-21-19-49/h7-8,10-15,22-27,48H,9,16-21H2,1-6H3,(H2,44,52)(H,45,47)(H,46,51)
InChIKey=GBTZSXHTEGRRTN-UHFFFAOYSA-N

> <PUBCHEM_SUBSTANCE_SYNONYM>
SCHEMBL16106221

> <PUBCHEM_XREF_EXT_ID>
SCHEMBL16106221

> <PUBCHEM_EXT_DATASOURCE_URL>
https://www.surechembl.org/

> <PUBCHEM_EXT_SUBSTANCE_URL>
https://www.surechembl.org/chemical/SCHEMBL16106221

> <PUBCHEM_CID_ASSOCIATIONS>
117598567  1

> <PUBCHEM_COORDINATE_TYPE>
1
3

$$$$
