310946760
  -OEChem-07211613022D

 34 37  0     1  0  0  0  0  0999 V2000
    2.1717   -1.2547    0.0000 S   0  0  0  0  0  0  0  0  0  0  0  0
   -2.7509   -2.4130    0.0000 O   0  0  0  0  0  0  0  0  0  0  0  0
    2.9825   -1.4671    0.0000 O   0  0  0  0  0  0  0  0  0  0  0  0
    2.1717   -2.0849    0.0000 O   0  0  0  0  0  0  0  0  0  0  0  0
   -2.0366    0.2895    0.0000 N   0  0  0  0  0  0  0  0  0  0  0  0
   -1.3609   -0.2124    0.0000 N   0  0  0  0  0  0  0  0  0  0  0  0
   -1.1293   -1.6795    0.0000 N   0  0  0  0  0  0  0  0  0  0  0  0
   -3.8319   -1.4478    0.0000 N   0  0  0  0  0  0  0  0  0  0  0  0
    2.4805   -0.4633    0.0000 N   0  0  3  0  0  0  0  0  0  0  0  0
    0.1255    1.4671    0.0000 N   0  0  0  0  0  0  0  0  0  0  0  0
   -2.0173    1.1196    0.0000 C   0  0  0  0  0  0  0  0  0  0  0  0
   -2.6929   -0.2124    0.0000 C   0  0  0  0  0  0  0  0  0  0  0  0
   -2.4612   -0.9845    0.0000 C   0  0  0  0  0  0  0  0  0  0  0  0
   -1.6312   -1.0038    0.0000 C   0  0  0  0  0  0  0  0  0  0  0  0
   -3.0211   -1.6022    0.0000 C   0  0  0  0  0  0  0  0  0  0  0  0
   -3.5230   -0.0386    0.0000 C   0  0  0  0  0  0  0  0  0  0  0  0
   -2.6350    1.6601    0.0000 C   0  0  0  0  0  0  0  0  0  0  0  0
   -1.3223    1.5250    0.0000 C   0  0  0  0  0  0  0  0  0  0  0  0
   -1.2838    0.6949    0.0000 C   0  0  0  0  0  0  0  0  0  0  0  0
   -0.2799   -1.5829    0.0000 C   0  0  0  0  0  0  0  0  0  0  0  0
    1.3416   -1.3706    0.0000 C   0  0  0  0  0  0  0  0  0  0  0  0
   -4.0635   -0.6563    0.0000 C   0  0  0  0  0  0  0  0  0  0  0  0
   -2.3068    2.4130    0.0000 C   0  0  0  0  0  0  0  0  0  0  0  0
   -1.4960    2.3358    0.0000 C   0  0  0  0  0  0  0  0  0  0  0  0
    3.2720   -0.1351    0.0000 C   0  0  0  0  0  0  0  0  0  0  0  0
    0.2413   -2.2393    0.0000 C   0  0  0  0  0  0  0  0  0  0  0  0
    0.0096   -0.8301    0.0000 C   0  0  0  0  0  0  0  0  0  0  0  0
    1.0328   -2.1235    0.0000 C   0  0  0  0  0  0  0  0  0  0  0  0
    0.8397   -0.7142    0.0000 C   0  0  0  0  0  0  0  0  0  0  0  0
   -0.5887    1.1003    0.0000 C   0  0  0  0  0  0  0  0  0  0  0  0
    1.4960    0.1158    0.0000 C   0  0  0  0  0  0  0  0  0  0  0  0
    3.9283   -0.6563    0.0000 C   0  0  0  0  0  0  0  0  0  0  0  0
    3.3685    0.6756    0.0000 C   0  0  0  0  0  0  0  0  0  0  0  0
    4.0635    0.0772    0.0000 C   0  0  0  0  0  0  0  0  0  0  0  0
  1  3  2  0  0  0  0
  1  4  2  0  0  0  0
  1  9  1  0  0  0  0
  1 21  1  0  0  0  0
  2 15  2  0  0  0  0
  5  6  1  0  0  0  0
  5 11  1  0  0  0  0
  5 12  1  0  0  0  0
  6 14  2  0  0  0  0
  7 14  1  0  0  0  0
  7 20  1  0  0  0  0
  8 15  1  0  0  0  0
  8 22  1  0  0  0  0
  9 25  1  0  0  0  0
  9 31  1  0  0  0  0
 10 30  3  0  0  0  0
 11 17  1  0  0  0  0
 11 18  1  0  0  0  0
 11 19  1  0  0  0  0
 12 13  2  0  0  0  0
 12 16  1  0  0  0  0
 13 14  1  0  0  0  0
 13 15  1  0  0  0  0
 16 22  2  0  0  0  0
 17 23  1  0  0  0  0
 18 24  1  0  0  0  0
 19 30  1  0  0  0  0
 20 26  2  0  0  0  0
 20 27  1  0  0  0  0
 21 28  2  0  0  0  0
 21 29  1  0  0  0  0
 23 24  1  0  0  0  0
 25 32  1  0  0  0  0
 25 33  1  0  0  0  0
 25 34  1  0  0  0  0
 26 28  1  0  0  0  0
 27 29  2  0  0  0  0
M  END
> <PUBCHEM_COMPOUND_ID_TYPE>
0

> <PUBCHEM_TOTAL_CHARGE>
0

> <PUBCHEM_SUBSTANCE_ID>
310946760

> <PUBCHEM_SUBSTANCE_VERSION>
1

> <PUBCHEM_EXT_DATASOURCE_NAME>
4488

> <PUBCHEM_EXT_DATASOURCE_REGID>
SCHEMBL16124884

> <PUBCHEM_SUBSTANCE_COMMENT>
InChI=1S/C24H30N6O3S/c1-23(2,3)29(4)34(32,33)18-9-7-17(8-10-18)27-21-20-19(11-16-26-22(20)31)30(28-21)24(14-15-25)12-5-6-13-24/h7-11,16H,5-6,12-14H2,1-4H3,(H,26,31)(H,27,28)
InChIKey=COYAUHXIVNYWGZ-UHFFFAOYSA-N

> <PUBCHEM_SUBSTANCE_SYNONYM>
SCHEMBL16124884

> <PUBCHEM_XREF_EXT_ID>
SCHEMBL16124884

> <PUBCHEM_EXT_DATASOURCE_URL>
https://www.surechembl.org/

> <PUBCHEM_EXT_SUBSTANCE_URL>
https://www.surechembl.org/chemical/SCHEMBL16124884

> <PUBCHEM_CID_ASSOCIATIONS>
86270066  1

> <PUBCHEM_COORDINATE_TYPE>
1
3

$$$$
