310934006
  -OEChem-07211613022D

 26 28  0     1  0  0  0  0  0999 V2000
    2.7845   -1.5229    0.0000 Cl  0  0  0  0  0  0  0  0  0  0  0  0
   -0.7508   -1.9238    0.0000 O   0  0  0  0  0  0  0  0  0  0  0  0
   -0.8920   -4.8827    0.0000 O   0  0  0  0  0  0  0  0  0  0  0  0
   -2.7819   -2.7390    0.0000 O   0  0  0  0  0  0  0  0  0  0  0  0
   -0.1435   -0.0305    0.0000 N   0  0  3  0  0  0  0  0  0  0  0  0
   -0.1435   -1.3654    0.0000 C   0  0  3  0  0  0  0  0  0  0  0  0
    0.6411   -1.1104    0.0000 C   0  0  0  0  0  0  0  0  0  0  0  0
    0.6411   -0.2854    0.0000 C   0  0  0  0  0  0  0  0  0  0  0  0
   -0.6284   -0.6979    0.0000 C   0  0  0  0  0  0  0  0  0  0  0  0
    0.0196   -2.1741    0.0000 C   0  0  0  0  0  0  0  0  0  0  0  0
    1.3556   -1.5229    0.0000 C   0  0  0  0  0  0  0  0  0  0  0  0
    1.3556    0.1271    0.0000 C   0  0  0  0  0  0  0  0  0  0  0  0
   -0.5993   -2.7197    0.0000 C   0  0  0  0  0  0  0  0  0  0  0  0
    2.0701   -1.1104    0.0000 C   0  0  0  0  0  0  0  0  0  0  0  0
   -0.3984    0.7541    0.0000 C   0  0  0  0  0  0  0  0  0  0  0  0
    2.0701   -0.2854    0.0000 C   0  0  0  0  0  0  0  0  0  0  0  0
   -1.3812   -2.4565    0.0000 C   0  0  0  0  0  0  0  0  0  0  0  0
   -0.4362   -3.5284    0.0000 C   0  0  0  0  0  0  0  0  0  0  0  0
   -1.0551   -4.0740    0.0000 C   0  0  0  0  0  0  0  0  0  0  0  0
   -2.0000   -3.0021    0.0000 C   0  0  0  0  0  0  0  0  0  0  0  0
   -1.8370   -3.8109    0.0000 C   0  0  0  0  0  0  0  0  0  0  0  0
    0.1536    1.3672    0.0000 C   0  0  0  0  0  0  0  0  0  0  0  0
   -0.1014    2.1518    0.0000 C   0  0  0  0  0  0  0  0  0  0  0  0
   -0.1101   -5.1459    0.0000 C   0  0  0  0  0  0  0  0  0  0  0  0
   -3.4008   -3.2846    0.0000 C   0  0  0  0  0  0  0  0  0  0  0  0
    0.4507    2.7649    0.0000 C   0  0  0  0  0  0  0  0  0  0  0  0
  1 14  1  0  0  0  0
  2  6  1  0  0  0  0
  3 19  1  0  0  0  0
  3 24  1  0  0  0  0
  4 20  1  0  0  0  0
  4 25  1  0  0  0  0
  5  8  1  0  0  0  0
  5  9  1  0  0  0  0
  5 15  1  0  0  0  0
  6  7  1  0  0  0  0
  6  9  1  0  0  0  0
  6 10  1  0  0  0  0
  7  8  1  0  0  0  0
  7 11  2  0  0  0  0
  8 12  2  0  0  0  0
 10 13  1  0  0  0  0
 11 14  1  0  0  0  0
 12 16  1  0  0  0  0
 13 17  2  0  0  0  0
 13 18  1  0  0  0  0
 14 16  2  0  0  0  0
 15 22  1  0  0  0  0
 17 20  1  0  0  0  0
 18 19  2  0  0  0  0
 19 21  1  0  0  0  0
 20 21  2  0  0  0  0
 22 23  1  0  0  0  0
 23 26  1  0  0  0  0
M  END
> <PUBCHEM_COMPOUND_ID_TYPE>
0

> <PUBCHEM_TOTAL_CHARGE>
0

> <PUBCHEM_SUBSTANCE_ID>
310934006

> <PUBCHEM_SUBSTANCE_VERSION>
1

> <PUBCHEM_EXT_DATASOURCE_NAME>
4488

> <PUBCHEM_EXT_DATASOURCE_REGID>
SCHEMBL16111450

> <PUBCHEM_SUBSTANCE_COMMENT>
InChI=1S/C21H26ClNO3/c1-4-5-8-23-14-21(24,19-11-16(22)6-7-20(19)23)13-15-9-17(25-2)12-18(10-15)26-3/h6-7,9-12,24H,4-5,8,13-14H2,1-3H3
InChIKey=XNRAJPUBVKAZFT-UHFFFAOYSA-N

> <PUBCHEM_SUBSTANCE_SYNONYM>
SCHEMBL16111450

> <PUBCHEM_XREF_EXT_ID>
SCHEMBL16111450

> <PUBCHEM_EXT_DATASOURCE_URL>
https://www.surechembl.org/

> <PUBCHEM_EXT_SUBSTANCE_URL>
https://www.surechembl.org/chemical/SCHEMBL16111450

> <PUBCHEM_CID_ASSOCIATIONS>
117602309  1

> <PUBCHEM_COORDINATE_TYPE>
1
3

$$$$
