310942058
  -OEChem-07211613022D

 23 25  0     1  0  0  0  0  0999 V2000
    0.6464    0.4164    0.0000 F   0  0  0  0  0  0  0  0  0  0  0  0
   -0.7956   -2.0697    0.0000 F   0  0  0  0  0  0  0  0  0  0  0  0
   -0.8080   -0.4164    0.0000 O   0  0  0  0  0  0  0  0  0  0  0  0
    2.9336   -0.8266    0.0000 N   0  0  0  0  0  0  0  0  0  0  0  0
    2.0759    2.0697    0.0000 N   0  0  0  0  0  0  0  0  0  0  0  0
    1.3549   -0.8266    0.0000 C   0  0  0  0  0  0  0  0  0  0  0  0
    0.6464   -0.4164    0.0000 C   0  0  0  0  0  0  0  0  0  0  0  0
   -0.0622   -0.8266    0.0000 C   0  0  0  0  0  0  0  0  0  0  0  0
    2.0634   -0.4040    0.0000 C   0  0  3  0  0  0  0  0  0  0  0  0
   -0.0746   -1.6470    0.0000 C   0  0  0  0  0  0  0  0  0  0  0  0
    1.3549   -1.6595    0.0000 C   0  0  0  0  0  0  0  0  0  0  0  0
    2.0759    0.4164    0.0000 C   0  0  0  0  0  0  0  0  0  0  0  0
    0.6464   -2.0697    0.0000 C   0  0  0  0  0  0  0  0  0  0  0  0
   -1.5041   -0.8266    0.0000 C   0  0  0  0  0  0  0  0  0  0  0  0
    2.7969    0.8266    0.0000 C   0  0  0  0  0  0  0  0  0  0  0  0
    1.3549    0.8390    0.0000 C   0  0  0  0  0  0  0  0  0  0  0  0
   -1.5165   -1.6595    0.0000 C   0  0  0  0  0  0  0  0  0  0  0  0
   -2.2375   -0.4288    0.0000 C   0  0  0  0  0  0  0  0  0  0  0  0
    2.7969    1.6595    0.0000 C   0  0  0  0  0  0  0  0  0  0  0  0
    1.3674    1.6595    0.0000 C   0  0  0  0  0  0  0  0  0  0  0  0
   -2.2251   -2.0697    0.0000 C   0  0  0  0  0  0  0  0  0  0  0  0
   -2.9336   -0.8266    0.0000 C   0  0  0  0  0  0  0  0  0  0  0  0
   -2.9336   -1.6595    0.0000 C   0  0  0  0  0  0  0  0  0  0  0  0
  1  7  1  0  0  0  0
  2 10  1  0  0  0  0
  3  8  1  0  0  0  0
  3 14  1  0  0  0  0
  4  9  1  0  0  0  0
  5 19  1  0  0  0  0
  5 20  1  0  0  0  0
  6  7  2  0  0  0  0
  6  9  1  0  0  0  0
  6 11  1  0  0  0  0
  7  8  1  0  0  0  0
  8 10  2  0  0  0  0
  9 12  1  0  0  0  0
 10 13  1  0  0  0  0
 11 13  2  0  0  0  0
 12 15  2  0  0  0  0
 12 16  1  0  0  0  0
 14 17  2  0  0  0  0
 14 18  1  0  0  0  0
 15 19  1  0  0  0  0
 16 20  1  0  0  0  0
 17 21  1  0  0  0  0
 18 22  2  0  0  0  0
 21 23  2  0  0  0  0
 22 23  1  0  0  0  0
M  END
> <PUBCHEM_COMPOUND_ID_TYPE>
0

> <PUBCHEM_TOTAL_CHARGE>
0

> <PUBCHEM_SUBSTANCE_ID>
310942058

> <PUBCHEM_SUBSTANCE_VERSION>
1

> <PUBCHEM_EXT_DATASOURCE_NAME>
4488

> <PUBCHEM_EXT_DATASOURCE_REGID>
SCHEMBL16120093

> <PUBCHEM_SUBSTANCE_COMMENT>
InChI=1S/C18H18F2N2O/c19-15-7-6-14(17(21)12-8-10-22-11-9-12)16(20)18(15)23-13-4-2-1-3-5-13/h1-8,17,22H,9-11,21H2
InChIKey=GJMKVFWNGJWBDZ-UHFFFAOYSA-N

> <PUBCHEM_SUBSTANCE_SYNONYM>
SCHEMBL16120093

> <PUBCHEM_XREF_EXT_ID>
SCHEMBL16120093

> <PUBCHEM_EXT_DATASOURCE_URL>
https://www.surechembl.org/

> <PUBCHEM_EXT_SUBSTANCE_URL>
https://www.surechembl.org/chemical/SCHEMBL16120093

> <PUBCHEM_CID_ASSOCIATIONS>
71556662  1

> <PUBCHEM_COORDINATE_TYPE>
1
3

$$$$
