310938087
  -OEChem-07211613022D

 37 42  0     1  0  0  0  0  0999 V2000
   -7.8785   -3.1465    0.0000 F   0  0  0  0  0  0  0  0  0  0  0  0
   -1.9457   -6.9995    0.0000 F   0  0  0  0  0  0  0  0  0  0  0  0
   -3.1108   -7.0606    0.0000 F   0  0  0  0  0  0  0  0  0  0  0  0
   -1.8846   -8.1646    0.0000 F   0  0  0  0  0  0  0  0  0  0  0  0
   -3.8567   -8.0542    0.0000 O   0  0  0  0  0  0  0  0  0  0  0  0
   -2.7948   -9.0103    0.0000 O   0  0  0  0  0  0  0  0  0  0  0  0
   -6.5215   -8.7733    0.0000 N   0  0  0  0  0  0  0  0  0  0  0  0
   -6.2646   -2.8035    0.0000 N   0  0  0  0  0  0  0  0  0  0  0  0
   -4.1538   -9.4519    0.0000 N   0  0  0  0  0  0  0  0  0  0  0  0
   -5.9675   -4.2012    0.0000 N   0  0  0  0  0  0  0  0  0  0  0  0
   -5.6704   -5.5989    0.0000 N   0  0  0  0  0  0  0  0  0  0  0  0
   -6.2646   -1.4686    0.0000 N   0  0  0  0  0  0  0  0  0  0  0  0
   -7.0294   -5.1574    0.0000 N   0  0  0  0  0  0  0  0  0  0  0  0
   -5.2157   -8.4957    0.0000 C   0  0  0  0  0  0  0  0  0  0  0  0
   -5.6282   -7.7813    0.0000 C   0  0  0  0  0  0  0  0  0  0  0  0
   -5.7678   -9.1088    0.0000 C   0  0  0  0  0  0  0  0  0  0  0  0
   -6.4352   -7.9528    0.0000 C   0  0  0  0  0  0  0  0  0  0  0  0
   -4.4088   -8.6673    0.0000 C   0  0  3  0  0  0  0  0  0  0  0  0
   -5.3733   -6.9966    0.0000 C   0  0  0  0  0  0  0  0  0  0  0  0
   -6.5195   -3.5881    0.0000 C   0  0  0  0  0  0  0  0  0  0  0  0
   -5.9253   -6.3835    0.0000 C   0  0  0  0  0  0  0  0  0  0  0  0
   -5.4800   -2.5485    0.0000 C   0  0  0  0  0  0  0  0  0  0  0  0
   -6.9873   -7.3397    0.0000 C   0  0  0  0  0  0  0  0  0  0  0  0
   -5.5128   -9.8934    0.0000 C   0  0  0  0  0  0  0  0  0  0  0  0
   -5.4800   -1.7235    0.0000 C   0  0  0  0  0  0  0  0  0  0  0  0
   -6.2224   -4.9858    0.0000 C   0  0  0  0  0  0  0  0  0  0  0  0
   -6.7323   -6.5551    0.0000 C   0  0  0  0  0  0  0  0  0  0  0  0
   -7.3265   -3.7596    0.0000 C   0  0  0  0  0  0  0  0  0  0  0  0
   -6.7495   -2.1360    0.0000 C   0  0  0  0  0  0  0  0  0  0  0  0
   -4.7059  -10.0650    0.0000 C   0  0  0  0  0  0  0  0  0  0  0  0
   -3.0498   -8.2257    0.0000 C   0  0  0  0  0  0  0  0  0  0  0  0
   -4.7655   -2.9610    0.0000 C   0  0  0  0  0  0  0  0  0  0  0  0
   -7.5814   -4.5443    0.0000 C   0  0  0  0  0  0  0  0  0  0  0  0
   -4.7655   -1.3110    0.0000 C   0  0  0  0  0  0  0  0  0  0  0  0
   -2.4977   -7.6126    0.0000 C   0  0  0  0  0  0  0  0  0  0  0  0
   -4.0510   -2.5485    0.0000 C   0  0  0  0  0  0  0  0  0  0  0  0
   -4.0510   -1.7235    0.0000 C   0  0  0  0  0  0  0  0  0  0  0  0
  1 28  1  0  0  0  0
  2 35  1  0  0  0  0
  3 35  1  0  0  0  0
  4 35  1  0  0  0  0
  5 18  1  0  0  0  0
  5 31  1  0  0  0  0
  6 31  2  0  0  0  0
  7 16  1  0  0  0  0
  7 17  1  0  0  0  0
  8 20  1  0  0  0  0
  8 22  1  0  0  0  0
  8 29  1  0  0  0  0
  9 18  1  0  0  0  0
  9 30  1  0  0  0  0
 10 20  1  0  0  0  0
 10 26  2  0  0  0  0
 11 21  1  0  0  0  0
 11 26  1  0  0  0  0
 12 25  1  0  0  0  0
 12 29  2  0  0  0  0
 13 26  1  0  0  0  0
 13 33  2  0  0  0  0
 14 15  1  0  0  0  0
 14 16  2  0  0  0  0
 14 18  1  0  0  0  0
 15 17  1  0  0  0  0
 15 19  2  0  0  0  0
 16 24  1  0  0  0  0
 17 23  2  0  0  0  0
 19 21  1  0  0  0  0
 20 28  2  0  0  0  0
 21 27  2  0  0  0  0
 22 25  1  0  0  0  0
 22 32  2  0  0  0  0
 23 27  1  0  0  0  0
 24 30  1  0  0  0  0
 25 34  2  0  0  0  0
 28 33  1  0  0  0  0
 31 35  1  0  0  0  0
 32 36  1  0  0  0  0
 34 37  1  0  0  0  0
 36 37  2  0  0  0  0
M  END
> <PUBCHEM_COMPOUND_ID_TYPE>
0

> <PUBCHEM_TOTAL_CHARGE>
0

> <PUBCHEM_SUBSTANCE_ID>
310938087

> <PUBCHEM_SUBSTANCE_VERSION>
1

> <PUBCHEM_EXT_DATASOURCE_NAME>
4488

> <PUBCHEM_EXT_DATASOURCE_REGID>
SCHEMBL16115932

> <PUBCHEM_SUBSTANCE_COMMENT>
InChI=1S/C24H17F4N7O2/c25-14-10-30-23(34-20(14)35-11-31-16-3-1-2-4-18(16)35)32-12-5-6-15-13(9-12)19-17(33-15)7-8-29-21(19)37-22(36)24(26,27)28/h1-6,9-11,21,29,33H,7-8H2,(H,30,32,34)
InChIKey=VELQKWISCWFIMQ-UHFFFAOYSA-N

> <PUBCHEM_SUBSTANCE_SYNONYM>
SCHEMBL16115932

> <PUBCHEM_XREF_EXT_ID>
SCHEMBL16115932

> <PUBCHEM_EXT_DATASOURCE_URL>
https://www.surechembl.org/

> <PUBCHEM_EXT_SUBSTANCE_URL>
https://www.surechembl.org/chemical/SCHEMBL16115932

> <PUBCHEM_CID_ASSOCIATIONS>
117605651  1

> <PUBCHEM_COORDINATE_TYPE>
1
3

$$$$
