310943863
  -OEChem-07211613022D

 31 34  0     1  0  0  0  0  0999 V2000
    1.0141   -1.4290    0.0000 F   0  0  0  0  0  0  0  0  0  0  0  0
    3.2137    0.8363    0.0000 N   0  0  3  0  0  0  0  0  0  0  0  0
   -3.2664   -1.2315    0.0000 N   0  0  3  0  0  0  0  0  0  0  0  0
    4.9654    0.3095    0.0000 N   0  0  3  0  0  0  0  0  0  0  0  0
   -5.0313   -0.6915    0.0000 N   0  0  3  0  0  0  0  0  0  0  0  0
    0.3029    0.0329    0.0000 C   0  0  0  0  0  0  0  0  0  0  0  0
   -0.4214   -0.3754    0.0000 C   0  0  0  0  0  0  0  0  0  0  0  0
    1.0141   -0.3622    0.0000 C   0  0  0  0  0  0  0  0  0  0  0  0
    1.7254    0.8627    0.0000 C   0  0  0  0  0  0  0  0  0  0  0  0
    0.3161    0.8627    0.0000 C   0  0  0  0  0  0  0  0  0  0  0  0
    1.7122    0.0329    0.0000 C   0  0  0  0  0  0  0  0  0  0  0  0
   -1.1327    0.0066    0.0000 C   0  0  0  0  0  0  0  0  0  0  0  0
   -0.4346   -1.2315    0.0000 C   0  0  0  0  0  0  0  0  0  0  0  0
   -1.8571   -1.2315    0.0000 C   0  0  0  0  0  0  0  0  0  0  0  0
    1.0141    1.2579    0.0000 C   0  0  0  0  0  0  0  0  0  0  0  0
    2.4235    1.2710    0.0000 C   0  0  0  0  0  0  0  0  0  0  0  0
   -1.8440   -0.4017    0.0000 C   0  0  0  0  0  0  0  0  0  0  0  0
   -1.1063   -1.6266    0.0000 C   0  0  0  0  0  0  0  0  0  0  0  0
   -2.5420   -1.6398    0.0000 C   0  0  0  0  0  0  0  0  0  0  0  0
    3.5167    0.0856    0.0000 C   0  0  0  0  0  0  0  0  0  0  0  0
    3.6088    1.5739    0.0000 C   0  0  0  0  0  0  0  0  0  0  0  0
   -3.9250   -1.6925    0.0000 C   0  0  0  0  0  0  0  0  0  0  0  0
   -3.2005   -0.4280    0.0000 C   0  0  0  0  0  0  0  0  0  0  0  0
    4.3069   -0.1515    0.0000 C   0  0  0  0  0  0  0  0  0  0  0  0
    4.3991    1.6925    0.0000 C   0  0  0  0  0  0  0  0  0  0  0  0
   -4.7152   -1.4554    0.0000 C   0  0  0  0  0  0  0  0  0  0  0  0
   -3.7932    0.1515    0.0000 C   0  0  0  0  0  0  0  0  0  0  0  0
    5.0182    1.1393    0.0000 C   0  0  0  0  0  0  0  0  0  0  0  0
   -4.6099    0.0329    0.0000 C   0  0  0  0  0  0  0  0  0  0  0  0
    5.8479   -0.2041    0.0000 C   0  0  0  0  0  0  0  0  0  0  0  0
   -5.8479   -0.7046    0.0000 C   0  0  0  0  0  0  0  0  0  0  0  0
  1  8  1  0  0  0  0
  2 16  1  0  0  0  0
  2 20  1  0  0  0  0
  2 21  1  0  0  0  0
  3 19  1  0  0  0  0
  3 22  1  0  0  0  0
  3 23  1  0  0  0  0
  4 24  1  0  0  0  0
  4 28  1  0  0  0  0
  4 30  1  0  0  0  0
  5 26  1  0  0  0  0
  5 29  1  0  0  0  0
  5 31  1  0  0  0  0
  6  7  1  0  0  0  0
  6  8  2  0  0  0  0
  6 10  1  0  0  0  0
  7 12  2  0  0  0  0
  7 13  1  0  0  0  0
  8 11  1  0  0  0  0
  9 11  2  0  0  0  0
  9 15  1  0  0  0  0
  9 16  1  0  0  0  0
 10 15  2  0  0  0  0
 12 17  1  0  0  0  0
 13 18  2  0  0  0  0
 14 17  2  0  0  0  0
 14 18  1  0  0  0  0
 14 19  1  0  0  0  0
 20 24  1  0  0  0  0
 21 25  1  0  0  0  0
 22 26  1  0  0  0  0
 23 27  1  0  0  0  0
 25 28  1  0  0  0  0
 27 29  1  0  0  0  0
M  END
> <PUBCHEM_COMPOUND_ID_TYPE>
0

> <PUBCHEM_TOTAL_CHARGE>
0

> <PUBCHEM_SUBSTANCE_ID>
310943863

> <PUBCHEM_SUBSTANCE_VERSION>
1

> <PUBCHEM_EXT_DATASOURCE_NAME>
4488

> <PUBCHEM_EXT_DATASOURCE_REGID>
SCHEMBL16121934

> <PUBCHEM_SUBSTANCE_COMMENT>
InChI=1S/C26H37FN4/c1-28-11-3-13-30(17-15-28)20-22-5-8-24(9-6-22)25-10-7-23(19-26(25)27)21-31-14-4-12-29(2)16-18-31/h5-10,19H,3-4,11-18,20-21H2,1-2H3
InChIKey=STNDOZHUBWEGIQ-UHFFFAOYSA-N

> <PUBCHEM_SUBSTANCE_SYNONYM>
SCHEMBL16121934

> <PUBCHEM_XREF_EXT_ID>
SCHEMBL16121934

> <PUBCHEM_EXT_DATASOURCE_URL>
https://www.surechembl.org/

> <PUBCHEM_EXT_SUBSTANCE_URL>
https://www.surechembl.org/chemical/SCHEMBL16121934

> <PUBCHEM_CID_ASSOCIATIONS>
117610195  1

> <PUBCHEM_COORDINATE_TYPE>
1
3

$$$$
