310945549
  -OEChem-07211613022D

 12 12  0     1  0  0  0  0  0999 V2000
   -2.0914   -1.0597    0.0000 N   0  0  0  0  0  0  0  0  0  0  0  0
   -2.5237    1.0597    0.0000 N   0  0  0  0  0  0  0  0  0  0  0  0
    2.5237   -0.3486    0.0000 N   0  0  0  0  0  0  0  0  0  0  0  0
   -0.8366   -0.3346    0.0000 C   0  0  0  0  0  0  0  0  0  0  0  0
   -1.6871   -0.3207    0.0000 C   0  0  3  0  0  0  0  0  0  0  0  0
    0.8366   -0.3346    0.0000 C   0  0  0  0  0  0  0  0  0  0  0  0
   -0.4183    0.3765    0.0000 C   0  0  0  0  0  0  0  0  0  0  0  0
   -0.4183   -1.0318    0.0000 C   0  0  0  0  0  0  0  0  0  0  0  0
    0.4043    0.3765    0.0000 C   0  0  0  0  0  0  0  0  0  0  0  0
    0.4183   -1.0318    0.0000 C   0  0  0  0  0  0  0  0  0  0  0  0
   -2.1054    0.3765    0.0000 C   0  0  0  0  0  0  0  0  0  0  0  0
    1.7011   -0.3486    0.0000 C   0  0  0  0  0  0  0  0  0  0  0  0
  1  5  1  0  0  0  0
  2 11  3  0  0  0  0
  3 12  3  0  0  0  0
  4  5  1  0  0  0  0
  4  7  2  0  0  0  0
  4  8  1  0  0  0  0
  5 11  1  0  0  0  0
  6  9  2  0  0  0  0
  6 10  1  0  0  0  0
  6 12  1  0  0  0  0
  7  9  1  0  0  0  0
  8 10  2  0  0  0  0
M  END
> <PUBCHEM_COMPOUND_ID_TYPE>
0

> <PUBCHEM_TOTAL_CHARGE>
0

> <PUBCHEM_SUBSTANCE_ID>
310945549

> <PUBCHEM_SUBSTANCE_VERSION>
1

> <PUBCHEM_EXT_DATASOURCE_NAME>
4488

> <PUBCHEM_EXT_DATASOURCE_REGID>
SCHEMBL16123647

> <PUBCHEM_SUBSTANCE_COMMENT>
InChI=1S/C9H7N3/c10-5-7-1-3-8(4-2-7)9(12)6-11/h1-4,9H,12H2
InChIKey=LPNCFEYGENCIMT-UHFFFAOYSA-N

> <PUBCHEM_SUBSTANCE_SYNONYM>
SCHEMBL16123647

> <PUBCHEM_XREF_EXT_ID>
SCHEMBL16123647

> <PUBCHEM_EXT_DATASOURCE_URL>
https://www.surechembl.org/

> <PUBCHEM_EXT_SUBSTANCE_URL>
https://www.surechembl.org/chemical/SCHEMBL16123647

> <PUBCHEM_CID_ASSOCIATIONS>
13352452  1

> <PUBCHEM_COORDINATE_TYPE>
1
3

$$$$
