310944969
  -OEChem-07211613022D

 33 37  0     1  0  0  0  0  0999 V2000
    2.9439    2.5724    0.0000 O   0  0  0  0  0  0  0  0  0  0  0  0
   -3.6869   -1.1609    0.0000 O   0  0  0  0  0  0  0  0  0  0  0  0
    1.4209    0.2879    0.0000 N   0  0  0  0  0  0  0  0  0  0  0  0
    3.6683    1.3465    0.0000 N   0  0  0  0  0  0  0  0  0  0  0  0
   -0.3436    0.2322    0.0000 N   0  0  0  0  0  0  0  0  0  0  0  0
    3.6683   -1.1051    0.0000 N   0  0  0  0  0  0  0  0  0  0  0  0
   -1.5881    0.9379    0.0000 N   0  0  0  0  0  0  0  0  0  0  0  0
   -1.5881   -0.4551    0.0000 N   0  0  0  0  0  0  0  0  0  0  0  0
   -2.4239   -1.8666    0.0000 N   0  0  0  0  0  0  0  0  0  0  0  0
    2.9439    0.1208    0.0000 C   0  0  3  0  0  0  0  0  0  0  0  0
    2.2010    0.5479    0.0000 C   0  0  0  0  0  0  0  0  0  0  0  0
    2.2196    1.3465    0.0000 C   0  0  0  0  0  0  0  0  0  0  0  0
    0.9194    0.9379    0.0000 C   0  0  0  0  0  0  0  0  0  0  0  0
    2.9439    1.7366    0.0000 C   0  0  0  0  0  0  0  0  0  0  0  0
    1.4209    1.5881    0.0000 C   0  0  0  0  0  0  0  0  0  0  0  0
    3.6683    0.5294    0.0000 C   0  0  0  0  0  0  0  0  0  0  0  0
    3.6869   -0.2879    0.0000 C   0  0  0  0  0  0  0  0  0  0  0  0
    2.2381   -0.2693    0.0000 C   0  0  0  0  0  0  0  0  0  0  0  0
    0.0836    0.9566    0.0000 C   0  0  0  0  0  0  0  0  0  0  0  0
    2.2196   -1.1051    0.0000 C   0  0  0  0  0  0  0  0  0  0  0  0
   -0.3251    1.6252    0.0000 C   0  0  0  0  0  0  0  0  0  0  0  0
   -1.1794    0.2508    0.0000 C   0  0  0  0  0  0  0  0  0  0  0  0
    2.9625   -1.4952    0.0000 C   0  0  0  0  0  0  0  0  0  0  0  0
   -1.1609    1.6437    0.0000 C   0  0  0  0  0  0  0  0  0  0  0  0
   -1.1794   -1.1609    0.0000 C   0  0  0  0  0  0  0  0  0  0  0  0
   -1.5881   -1.8666    0.0000 C   0  0  0  0  0  0  0  0  0  0  0  0
   -0.3251   -1.1980    0.0000 C   0  0  0  0  0  0  0  0  0  0  0  0
   -1.1609   -2.5724    0.0000 C   0  0  0  0  0  0  0  0  0  0  0  0
    0.0836   -1.8666    0.0000 C   0  0  0  0  0  0  0  0  0  0  0  0
   -0.3251   -2.5724    0.0000 C   0  0  0  0  0  0  0  0  0  0  0  0
   -2.8325   -1.1794    0.0000 C   0  0  0  0  0  0  0  0  0  0  0  0
   -2.4239   -0.4551    0.0000 C   0  0  0  0  0  0  0  0  0  0  0  0
   -2.9067    0.2136    0.0000 C   0  0  0  0  0  0  0  0  0  0  0  0
  1 14  2  0  0  0  0
  2 31  2  0  0  0  0
  3 11  1  0  0  0  0
  3 13  1  0  0  0  0
  4 14  1  0  0  0  0
  4 16  1  0  0  0  0
  5 19  2  0  0  0  0
  5 22  1  0  0  0  0
  6 17  1  0  0  0  0
  6 23  1  0  0  0  0
  7 22  2  0  0  0  0
  7 24  1  0  0  0  0
  8 22  1  0  0  0  0
  8 25  1  0  0  0  0
  9 26  1  0  0  0  0
  9 31  1  0  0  0  0
 10 11  1  0  0  0  0
 10 16  1  0  0  0  0
 10 17  1  0  0  0  0
 10 18  1  0  0  0  0
 11 12  2  0  0  0  0
 12 14  1  0  0  0  0
 12 15  1  0  0  0  0
 13 15  2  0  0  0  0
 13 19  1  0  0  0  0
 18 20  1  0  0  0  0
 19 21  1  0  0  0  0
 20 23  1  0  0  0  0
 21 24  2  0  0  0  0
 25 26  1  0  0  0  0
 25 27  2  0  0  0  0
 26 28  2  0  0  0  0
 27 29  1  0  0  0  0
 28 30  1  0  0  0  0
 29 30  2  0  0  0  0
 31 32  1  0  0  0  0
 32 33  2  0  0  0  0
M  END
> <PUBCHEM_COMPOUND_ID_TYPE>
0

> <PUBCHEM_TOTAL_CHARGE>
0

> <PUBCHEM_SUBSTANCE_ID>
310944969

> <PUBCHEM_SUBSTANCE_VERSION>
1

> <PUBCHEM_EXT_DATASOURCE_NAME>
4488

> <PUBCHEM_EXT_DATASOURCE_REGID>
SCHEMBL16123057

> <PUBCHEM_SUBSTANCE_COMMENT>
InChI=1S/C24H25N7O2/c1-2-20(32)28-16-6-3-4-7-17(16)30-23-26-11-8-18(31-23)19-12-15-21(29-19)24(14-27-22(15)33)9-5-10-25-13-24/h2-4,6-8,11-12,25,29H,1,5,9-10,13-14H2,(H,27,33)(H,28,32)(H,26,30,31)
InChIKey=CBMWWPUMZFCAIP-UHFFFAOYSA-N

> <PUBCHEM_SUBSTANCE_SYNONYM>
SCHEMBL16123057

> <PUBCHEM_XREF_EXT_ID>
SCHEMBL16123057

> <PUBCHEM_EXT_DATASOURCE_URL>
https://www.surechembl.org/

> <PUBCHEM_EXT_SUBSTANCE_URL>
https://www.surechembl.org/chemical/SCHEMBL16123057

> <PUBCHEM_CID_ASSOCIATIONS>
117611120  1

> <PUBCHEM_COORDINATE_TYPE>
1
3

$$$$
