310942024
  -OEChem-07211613022D

 21 23  0     1  0  0  0  0  0999 V2000
    0.1925    1.4529    0.0000 O   0  0  0  0  0  0  0  0  0  0  0  0
    0.1925   -1.4529    0.0000 O   0  0  0  0  0  0  0  0  0  0  0  0
    1.2467   -1.4346    0.0000 O   0  0  0  0  0  0  0  0  0  0  0  0
   -2.9975    0.8296    0.0000 O   0  0  0  0  0  0  0  0  0  0  0  0
    3.7309    0.0046    0.0000 O   0  0  0  0  0  0  0  0  0  0  0  0
    0.4217    0.0046    0.0000 N   0  0  0  0  0  0  0  0  0  0  0  0
    2.4933   -0.7104    0.0000 N   0  0  0  0  0  0  0  0  0  0  0  0
   -0.8525    0.4171    0.0000 C   0  0  0  0  0  0  0  0  0  0  0  0
   -0.8525   -0.4079    0.0000 C   0  0  0  0  0  0  0  0  0  0  0  0
   -0.0825    0.6554    0.0000 C   0  0  0  0  0  0  0  0  0  0  0  0
   -0.0734   -0.6554    0.0000 C   0  0  0  0  0  0  0  0  0  0  0  0
    1.2467   -0.0046    0.0000 C   0  0  3  0  0  0  0  0  0  0  0  0
   -1.5767    0.8204    0.0000 C   0  0  0  0  0  0  0  0  0  0  0  0
    1.6683   -0.7013    0.0000 C   0  0  0  0  0  0  0  0  0  0  0  0
   -1.5767   -0.8204    0.0000 C   0  0  0  0  0  0  0  0  0  0  0  0
   -2.2826    0.4171    0.0000 C   0  0  0  0  0  0  0  0  0  0  0  0
    1.6683    0.7196    0.0000 C   0  0  0  0  0  0  0  0  0  0  0  0
   -2.2826   -0.4079    0.0000 C   0  0  0  0  0  0  0  0  0  0  0  0
    2.8876    0.0046    0.0000 C   0  0  0  0  0  0  0  0  0  0  0  0
    2.4933    0.7104    0.0000 C   0  0  0  0  0  0  0  0  0  0  0  0
   -3.7309    0.4171    0.0000 C   0  0  0  0  0  0  0  0  0  0  0  0
  1 10  2  0  0  0  0
  2 11  2  0  0  0  0
  3 14  2  0  0  0  0
  4 16  1  0  0  0  0
  4 21  1  0  0  0  0
  5 19  2  0  0  0  0
  6 10  1  0  0  0  0
  6 11  1  0  0  0  0
  6 12  1  0  0  0  0
  7 14  1  0  0  0  0
  7 19  1  0  0  0  0
  8  9  2  0  0  0  0
  8 10  1  0  0  0  0
  8 13  1  0  0  0  0
  9 11  1  0  0  0  0
  9 15  1  0  0  0  0
 12 14  1  0  0  0  0
 12 17  1  0  0  0  0
 13 16  2  0  0  0  0
 15 18  2  0  0  0  0
 16 18  1  0  0  0  0
 17 20  1  0  0  0  0
 19 20  1  0  0  0  0
M  END
> <PUBCHEM_COMPOUND_ID_TYPE>
0

> <PUBCHEM_TOTAL_CHARGE>
0

> <PUBCHEM_SUBSTANCE_ID>
310942024

> <PUBCHEM_SUBSTANCE_VERSION>
1

> <PUBCHEM_EXT_DATASOURCE_NAME>
4488

> <PUBCHEM_EXT_DATASOURCE_REGID>
SCHEMBL16120058

> <PUBCHEM_SUBSTANCE_COMMENT>
InChI=1S/C14H12N2O5/c1-21-7-2-3-8-9(6-7)14(20)16(13(8)19)10-4-5-11(17)15-12(10)18/h2-3,6,10H,4-5H2,1H3,(H,15,17,18)
InChIKey=MKXRPSQMLJLDDS-UHFFFAOYSA-N

> <PUBCHEM_SUBSTANCE_SYNONYM>
SCHEMBL16120058

> <PUBCHEM_XREF_EXT_ID>
SCHEMBL16120058

> <PUBCHEM_EXT_DATASOURCE_URL>
https://www.surechembl.org/

> <PUBCHEM_EXT_SUBSTANCE_URL>
https://www.surechembl.org/chemical/SCHEMBL16120058

> <PUBCHEM_CID_ASSOCIATIONS>
12351051  1

> <PUBCHEM_COORDINATE_TYPE>
1
3

$$$$
