310938733
  -OEChem-07211613022D

 17 16  0     1  0  0  0  0  0999 V2000
    3.4752   -3.4094    0.0000 Cl  0  0  0  0  0  0  0  0  0  0  0  0
    3.4752   -2.5844    0.0000 P   0  0  3  0  0  0  0  0  0  0  0  0
   -1.2784   -2.5844    0.0000 P   0  0  3  0  0  0  0  0  0  0  0  0
    4.3002   -2.5844    0.0000 O   0  0  0  0  0  0  0  0  0  0  0  0
    2.2731   -2.5844    0.0000 O   0  0  0  0  0  0  0  0  0  0  0  0
    3.4752   -1.7594    0.0000 O   0  0  0  0  0  0  0  0  0  0  0  0
   -0.4534   -2.5844    0.0000 O   0  0  0  0  0  0  0  0  0  0  0  0
    7.0267   -2.5844    0.0000 O   0  0  0  0  0  0  0  0  0  0  0  0
   -1.2784   -1.7594    0.0000 O   0  0  0  0  0  0  0  0  0  0  0  0
    5.1252   -2.5844    0.0000 C   0  0  3  0  0  0  0  0  0  0  0  0
    1.1966   -2.5844    0.0000 C   0  0  0  0  0  0  0  0  0  0  0  0
    0.3716   -2.5844    0.0000 C   0  0  3  0  0  0  0  0  0  0  0  0
    5.9502   -2.5844    0.0000 C   0  0  0  0  0  0  0  0  0  0  0  0
    5.1252   -1.7594    0.0000 C   0  0  0  0  0  0  0  0  0  0  0  0
    0.3716   -1.7594    0.0000 C   0  0  0  0  0  0  0  0  0  0  0  0
   -1.2784   -3.4094    0.0000 C   0  0  0  0  0  0  0  0  0  0  0  0
    7.8517   -2.5844    0.0000 C   0  0  0  0  0  0  0  0  0  0  0  0
  1  2  1  0  0  0  0
  2  4  1  0  0  0  0
  2  5  1  0  0  0  0
  2  6  2  0  0  0  0
  3  7  1  0  0  0  0
  3  9  2  0  0  0  0
  3 16  1  0  0  0  0
  4 10  1  0  0  0  0
  5 11  1  0  0  0  0
  7 12  1  0  0  0  0
  8 13  1  0  0  0  0
  8 17  1  0  0  0  0
 10 13  1  0  0  0  0
 10 14  1  0  0  0  0
 11 12  1  0  0  0  0
 12 15  1  0  0  0  0
M  END
> <PUBCHEM_COMPOUND_ID_TYPE>
0

> <PUBCHEM_TOTAL_CHARGE>
0

> <PUBCHEM_SUBSTANCE_ID>
310938733

> <PUBCHEM_SUBSTANCE_VERSION>
1

> <PUBCHEM_EXT_DATASOURCE_NAME>
4488

> <PUBCHEM_EXT_DATASOURCE_REGID>
SCHEMBL16116648

> <PUBCHEM_SUBSTANCE_COMMENT>
InChI=1S/C8H19ClO6P2/c1-7(14-16(4)10)6-13-17(9,11)15-8(2)5-12-3/h7-8,16H,5-6H2,1-4H3
InChIKey=UXRHYPPZERPWSX-UHFFFAOYSA-N

> <PUBCHEM_SUBSTANCE_SYNONYM>
SCHEMBL16116648

> <PUBCHEM_XREF_EXT_ID>
SCHEMBL16116648

> <PUBCHEM_EXT_DATASOURCE_URL>
https://www.surechembl.org/

> <PUBCHEM_EXT_SUBSTANCE_URL>
https://www.surechembl.org/chemical/SCHEMBL16116648

> <PUBCHEM_CID_ASSOCIATIONS>
117606153  1

> <PUBCHEM_COORDINATE_TYPE>
1
3

$$$$
