310944541
  -OEChem-07211613022D

 27 29  0     1  0  0  0  0  0999 V2000
   -4.4588    1.0651    0.0000 Cl  0  0  0  0  0  0  0  0  0  0  0  0
   -4.4588   -0.5821    0.0000 Cl  0  0  0  0  0  0  0  0  0  0  0  0
   -0.0124    1.8950    0.0000 O   0  0  0  0  0  0  0  0  0  0  0  0
    4.4588   -1.1890    0.0000 O   0  0  0  0  0  0  0  0  0  0  0  0
   -1.4367   -0.5821    0.0000 O   0  0  0  0  0  0  0  0  0  0  0  0
    0.7183    0.6564    0.0000 N   0  0  0  0  0  0  0  0  0  0  0  0
    3.2451   -0.4706    0.0000 N   0  0  0  0  0  0  0  0  0  0  0  0
   -1.4243    1.0775    0.0000 N   0  0  0  0  0  0  0  0  0  0  0  0
    1.9941    0.2477    0.0000 C   0  0  3  0  0  0  0  0  0  0  0  0
    1.5110    0.9165    0.0000 C   0  0  0  0  0  0  0  0  0  0  0  0
    2.4152   -0.4706    0.0000 C   0  0  0  0  0  0  0  0  0  0  0  0
    1.5110   -0.4211    0.0000 C   0  0  0  0  0  0  0  0  0  0  0  0
    2.4152    0.9661    0.0000 C   0  0  0  0  0  0  0  0  0  0  0  0
    0.7307   -0.1610    0.0000 C   0  0  0  0  0  0  0  0  0  0  0  0
   -0.0124    1.0651    0.0000 C   0  0  0  0  0  0  0  0  0  0  0  0
    3.2451    0.9537    0.0000 C   0  0  0  0  0  0  0  0  0  0  0  0
    3.6414    0.2601    0.0000 C   0  0  0  0  0  0  0  0  0  0  0  0
   -2.1427    0.6688    0.0000 C   0  0  0  0  0  0  0  0  0  0  0  0
    3.6290   -1.1766    0.0000 C   0  0  0  0  0  0  0  0  0  0  0  0
   -0.7060    0.6564    0.0000 C   0  0  0  0  0  0  0  0  0  0  0  0
   -2.1551   -0.1610    0.0000 C   0  0  0  0  0  0  0  0  0  0  0  0
   -3.5671    0.6564    0.0000 C   0  0  0  0  0  0  0  0  0  0  0  0
   -3.5795   -0.1610    0.0000 C   0  0  0  0  0  0  0  0  0  0  0  0
   -2.8487    1.0651    0.0000 C   0  0  0  0  0  0  0  0  0  0  0  0
   -2.8611   -0.5697    0.0000 C   0  0  0  0  0  0  0  0  0  0  0  0
    3.2327   -1.8950    0.0000 C   0  0  0  0  0  0  0  0  0  0  0  0
    2.4152   -1.8455    0.0000 C   0  0  0  0  0  0  0  0  0  0  0  0
  1 22  1  0  0  0  0
  2 23  1  0  0  0  0
  3 15  2  0  0  0  0
  4 19  2  0  0  0  0
  5 21  1  0  0  0  0
  6 10  1  0  0  0  0
  6 14  1  0  0  0  0
  6 15  1  0  0  0  0
  7 11  1  0  0  0  0
  7 17  1  0  0  0  0
  7 19  1  0  0  0  0
  8 18  1  0  0  0  0
  8 20  1  0  0  0  0
  9 10  1  0  0  0  0
  9 11  1  0  0  0  0
  9 12  1  0  0  0  0
  9 13  1  0  0  0  0
 12 14  1  0  0  0  0
 13 16  1  0  0  0  0
 15 20  1  0  0  0  0
 16 17  1  0  0  0  0
 18 21  1  0  0  0  0
 18 24  2  0  0  0  0
 19 26  1  0  0  0  0
 21 25  2  0  0  0  0
 22 23  2  0  0  0  0
 22 24  1  0  0  0  0
 23 25  1  0  0  0  0
 26 27  2  0  0  0  0
M  END
> <PUBCHEM_COMPOUND_ID_TYPE>
0

> <PUBCHEM_TOTAL_CHARGE>
0

> <PUBCHEM_SUBSTANCE_ID>
310944541

> <PUBCHEM_SUBSTANCE_VERSION>
1

> <PUBCHEM_EXT_DATASOURCE_NAME>
4488

> <PUBCHEM_EXT_DATASOURCE_REGID>
SCHEMBL16122617

> <PUBCHEM_SUBSTANCE_COMMENT>
InChI=1S/C19H23Cl2N3O3/c1-2-17(26)23-6-3-4-19(11-23)5-7-24(12-19)18(27)10-22-15-8-13(20)14(21)9-16(15)25/h2,8-9,22,25H,1,3-7,10-12H2
InChIKey=YBGURQOYYRWWRN-UHFFFAOYSA-N

> <PUBCHEM_SUBSTANCE_SYNONYM>
SCHEMBL16122617

> <PUBCHEM_XREF_EXT_ID>
SCHEMBL16122617

> <PUBCHEM_EXT_DATASOURCE_URL>
https://www.surechembl.org/

> <PUBCHEM_EXT_SUBSTANCE_URL>
https://www.surechembl.org/chemical/SCHEMBL16122617

> <PUBCHEM_CID_ASSOCIATIONS>
117610776  1

> <PUBCHEM_COORDINATE_TYPE>
1
3

$$$$
