310933439
  -OEChem-07211613022D

 29 33  0     1  0  0  0  0  0999 V2000
    0.0000   -4.0766    0.0000 O   0  0  0  0  0  0  0  0  0  0  0  0
    4.7732   -0.4902    0.0000 O   0  0  0  0  0  0  0  0  0  0  0  0
    5.5730   -2.9413    0.0000 O   0  0  0  0  0  0  0  0  0  0  0  0
    3.3799   -0.7998    0.0000 N   0  0  0  0  0  0  0  0  0  0  0  0
    4.2571   -2.2705    0.0000 N   0  0  0  0  0  0  0  0  0  0  0  0
    4.2571   -3.6122    0.0000 N   0  0  0  0  0  0  0  0  0  0  0  0
    3.1477    0.0000    0.0000 N   0  0  0  0  0  0  0  0  0  0  0  0
    0.4128   -4.7990    0.0000 N   0  0  0  0  0  0  0  0  0  0  0  0
    2.7349   -2.1157    0.0000 C   0  0  0  0  0  0  0  0  0  0  0  0
    2.7091   -1.2900    0.0000 C   0  0  0  0  0  0  0  0  0  0  0  0
    3.4573   -2.5027    0.0000 C   0  0  0  0  0  0  0  0  0  0  0  0
    3.4573   -3.3799    0.0000 C   0  0  0  0  0  0  0  0  0  0  0  0
    2.0383   -3.3799    0.0000 C   0  0  0  0  0  0  0  0  0  0  0  0
    2.0383   -2.5027    0.0000 C   0  0  0  0  0  0  0  0  0  0  0  0
    1.3159   -3.7927    0.0000 C   0  0  0  0  0  0  0  0  0  0  0  0
    2.0383   -0.7998    0.0000 C   0  0  0  0  0  0  0  0  0  0  0  0
    2.7349   -3.7669    0.0000 C   0  0  0  0  0  0  0  0  0  0  0  0
    4.7474   -2.9413    0.0000 C   0  0  0  0  0  0  0  0  0  0  0  0
    4.1797   -1.0579    0.0000 C   0  0  3  0  0  0  0  0  0  0  0  0
    0.5676   -3.4573    0.0000 C   0  0  0  0  0  0  0  0  0  0  0  0
    1.2384   -4.5926    0.0000 C   0  0  0  0  0  0  0  0  0  0  0  0
    2.2963   -0.0258    0.0000 C   0  0  0  0  0  0  0  0  0  0  0  0
    4.3346   -1.8577    0.0000 C   0  0  0  0  0  0  0  0  0  0  0  0
    1.2643   -1.0579    0.0000 C   0  0  0  0  0  0  0  0  0  0  0  0
    0.3612   -2.6575    0.0000 C   0  0  0  0  0  0  0  0  0  0  0  0
    1.8577   -5.1602    0.0000 C   0  0  0  0  0  0  0  0  0  0  0  0
    5.5730   -0.7741    0.0000 C   0  0  0  0  0  0  0  0  0  0  0  0
    5.1086   -2.1415    0.0000 C   0  0  0  0  0  0  0  0  0  0  0  0
    5.7278   -1.5738    0.0000 C   0  0  0  0  0  0  0  0  0  0  0  0
  1  8  1  0  0  0  0
  1 20  1  0  0  0  0
  2 19  1  0  0  0  0
  2 27  1  0  0  0  0
  3 18  2  0  0  0  0
  4  7  1  0  0  0  0
  4 10  1  0  0  0  0
  4 19  1  0  0  0  0
  5 11  1  0  0  0  0
  5 18  1  0  0  0  0
  6 12  1  0  0  0  0
  6 18  1  0  0  0  0
  7 22  2  0  0  0  0
  8 21  2  0  0  0  0
  9 10  1  0  0  0  0
  9 11  1  0  0  0  0
  9 14  2  0  0  0  0
 10 16  2  0  0  0  0
 11 12  2  0  0  0  0
 12 17  1  0  0  0  0
 13 14  1  0  0  0  0
 13 15  1  0  0  0  0
 13 17  2  0  0  0  0
 15 20  2  0  0  0  0
 15 21  1  0  0  0  0
 16 22  1  0  0  0  0
 16 24  1  0  0  0  0
 19 23  1  0  0  0  0
 20 25  1  0  0  0  0
 21 26  1  0  0  0  0
 23 28  1  0  0  0  0
 27 29  1  0  0  0  0
 28 29  1  0  0  0  0
M  END
> <PUBCHEM_COMPOUND_ID_TYPE>
0

> <PUBCHEM_TOTAL_CHARGE>
0

> <PUBCHEM_SUBSTANCE_ID>
310933439

> <PUBCHEM_SUBSTANCE_VERSION>
1

> <PUBCHEM_EXT_DATASOURCE_NAME>
4488

> <PUBCHEM_EXT_DATASOURCE_REGID>
SCHEMBL16110857

> <PUBCHEM_SUBSTANCE_COMMENT>
InChI=1S/C21H23N5O3/c1-11-10-22-26(17-6-4-5-7-28-17)20(11)15-8-14(18-12(2)25-29-13(18)3)9-16-19(15)24-21(27)23-16/h8-10,17H,4-7H2,1-3H3,(H2,23,24,27)
InChIKey=QMJIEVSDFPOCAQ-UHFFFAOYSA-N

> <PUBCHEM_SUBSTANCE_SYNONYM>
SCHEMBL16110857

> <PUBCHEM_XREF_EXT_ID>
SCHEMBL16110857

> <PUBCHEM_EXT_DATASOURCE_URL>
https://www.surechembl.org/

> <PUBCHEM_EXT_SUBSTANCE_URL>
https://www.surechembl.org/chemical/SCHEMBL16110857

> <PUBCHEM_CID_ASSOCIATIONS>
117601841  1

> <PUBCHEM_COORDINATE_TYPE>
1
3

$$$$
