310945657
  -OEChem-07211613022D

 34 37  0     1  0  0  0  0  0999 V2000
    4.6176    0.8155    0.0000 O   0  0  0  0  0  0  0  0  0  0  0  0
   -4.0245   -0.6884    0.0000 O   0  0  0  0  0  0  0  0  0  0  0  0
    6.2062   -0.8578    0.0000 O   0  0  0  0  0  0  0  0  0  0  0  0
    5.9097   -2.2559    0.0000 O   0  0  0  0  0  0  0  0  0  0  0  0
    1.6733    0.9426    0.0000 N   0  0  0  0  0  0  0  0  0  0  0  0
    3.7279   -0.2012    0.0000 C   0  0  0  0  0  0  0  0  0  0  0  0
    3.7491    0.6248    0.0000 C   0  0  0  0  0  0  0  0  0  0  0  0
    4.5329   -0.4554    0.0000 C   0  0  3  0  0  0  0  0  0  0  0  0
   -1.9487    0.6460    0.0000 C   0  0  0  0  0  0  0  0  0  0  0  0
   -1.2497    1.0485    0.0000 C   0  0  0  0  0  0  0  0  0  0  0  0
    2.3088    0.6248    0.0000 C   0  0  0  0  0  0  0  0  0  0  0  0
    3.0290    1.0273    0.0000 C   0  0  0  0  0  0  0  0  0  0  0  0
   -2.6900    1.0273    0.0000 C   0  0  0  0  0  0  0  0  0  0  0  0
   -1.9699   -0.1801    0.0000 C   0  0  0  0  0  0  0  0  0  0  0  0
    3.0502   -0.6036    0.0000 C   0  0  0  0  0  0  0  0  0  0  0  0
    5.0200    0.2224    0.0000 C   0  0  0  0  0  0  0  0  0  0  0  0
    2.3300   -0.2012    0.0000 C   0  0  0  0  0  0  0  0  0  0  0  0
   -0.5084    0.6460    0.0000 C   0  0  0  0  0  0  0  0  0  0  0  0
    0.1907    1.0485    0.0000 C   0  0  0  0  0  0  0  0  0  0  0  0
   -3.3891   -0.2012    0.0000 C   0  0  0  0  0  0  0  0  0  0  0  0
    4.7870   -1.2391    0.0000 C   0  0  0  0  0  0  0  0  0  0  0  0
   -3.3679    0.6248    0.0000 C   0  0  0  0  0  0  0  0  0  0  0  0
   -2.6689   -0.6036    0.0000 C   0  0  0  0  0  0  0  0  0  0  0  0
   -1.2286    1.8534    0.0000 C   0  0  0  0  0  0  0  0  0  0  0  0
    0.9108    0.6248    0.0000 C   0  0  0  0  0  0  0  0  0  0  0  0
    0.1695    1.8534    0.0000 C   0  0  0  0  0  0  0  0  0  0  0  0
   -0.5507    2.2559    0.0000 C   0  0  0  0  0  0  0  0  0  0  0  0
    5.5920   -1.4086    0.0000 C   0  0  0  0  0  0  0  0  0  0  0  0
   -2.6689    1.8746    0.0000 C   0  0  0  0  0  0  0  0  0  0  0  0
   -1.2286   -0.6248    0.0000 C   0  0  0  0  0  0  0  0  0  0  0  0
   -4.8294   -0.2224    0.0000 C   0  0  0  0  0  0  0  0  0  0  0  0
   -5.5072   -0.6036    0.0000 C   0  0  0  0  0  0  0  0  0  0  0  0
    5.8673   -0.0106    0.0000 C   0  0  0  0  0  0  0  0  0  0  0  0
   -6.2062   -0.1589    0.0000 C   0  0  0  0  0  0  0  0  0  0  0  0
  1  7  1  0  0  0  0
  1 16  1  0  0  0  0
  2 20  1  0  0  0  0
  2 31  1  0  0  0  0
  3 28  1  0  0  0  0
  3 33  1  0  0  0  0
  4 28  2  0  0  0  0
  5 11  1  0  0  0  0
  5 25  1  0  0  0  0
  6  7  1  0  0  0  0
  6  8  1  0  0  0  0
  6 15  2  0  0  0  0
  7 12  2  0  0  0  0
  8 16  1  0  0  0  0
  8 21  1  0  0  0  0
  9 10  1  0  0  0  0
  9 13  2  0  0  0  0
  9 14  1  0  0  0  0
 10 18  2  0  0  0  0
 10 24  1  0  0  0  0
 11 12  1  0  0  0  0
 11 17  2  0  0  0  0
 13 22  1  0  0  0  0
 13 29  1  0  0  0  0
 14 23  2  0  0  0  0
 14 30  1  0  0  0  0
 15 17  1  0  0  0  0
 18 19  1  0  0  0  0
 19 25  1  0  0  0  0
 19 26  2  0  0  0  0
 20 22  2  0  0  0  0
 20 23  1  0  0  0  0
 21 28  1  0  0  0  0
 24 27  2  0  0  0  0
 26 27  1  0  0  0  0
 31 32  1  0  0  0  0
 32 34  2  0  0  0  0
M  END
> <PUBCHEM_COMPOUND_ID_TYPE>
0

> <PUBCHEM_TOTAL_CHARGE>
0

> <PUBCHEM_SUBSTANCE_ID>
310945657

> <PUBCHEM_SUBSTANCE_VERSION>
1

> <PUBCHEM_EXT_DATASOURCE_NAME>
4488

> <PUBCHEM_EXT_DATASOURCE_REGID>
SCHEMBL16123756

> <PUBCHEM_SUBSTANCE_COMMENT>
InChI=1S/C29H31NO4/c1-5-11-33-25-12-19(2)29(20(3)13-25)22-8-6-7-21(14-22)17-30-24-9-10-26-23(15-28(31)32-4)18-34-27(26)16-24/h5-10,12-14,16,23,30H,1,11,15,17-18H2,2-4H3
InChIKey=RJBYSOPIWODLCW-UHFFFAOYSA-N

> <PUBCHEM_SUBSTANCE_SYNONYM>
SCHEMBL16123756

> <PUBCHEM_XREF_EXT_ID>
SCHEMBL16123756

> <PUBCHEM_EXT_DATASOURCE_URL>
https://www.surechembl.org/

> <PUBCHEM_EXT_SUBSTANCE_URL>
https://www.surechembl.org/chemical/SCHEMBL16123756

> <PUBCHEM_CID_ASSOCIATIONS>
117611658  1

> <PUBCHEM_COORDINATE_TYPE>
1
3

$$$$
