310931346
  -OEChem-07211613022D

 27 30  0     1  0  0  0  0  0999 V2000
    3.2783    0.0000    0.0000 O   0  0  0  0  0  0  0  0  0  0  0  0
    4.3855   -1.9322    0.0000 O   0  0  0  0  0  0  0  0  0  0  0  0
    5.1020   -0.6947    0.0000 O   0  0  0  0  0  0  0  0  0  0  0  0
    0.0000   -2.3447    0.0000 O   0  0  0  0  0  0  0  0  0  0  0  0
    3.6907   -0.6947    0.0000 C   0  0  3  0  0  0  0  0  0  0  0  0
    2.8658   -0.6947    0.0000 C   0  0  3  0  0  0  0  0  0  0  0  0
    3.4737   -1.4980    0.0000 C   0  0  0  0  0  0  0  0  0  0  0  0
    4.3855   -1.1072    0.0000 C   0  0  0  0  0  0  0  0  0  0  0  0
    2.1493   -1.1072    0.0000 C   0  0  0  0  0  0  0  0  0  0  0  0
    4.0598   -2.0842    0.0000 C   0  0  0  0  0  0  0  0  0  0  0  0
    2.6704   -1.7151    0.0000 C   0  0  0  0  0  0  0  0  0  0  0  0
    2.1493   -1.9322    0.0000 C   0  0  0  0  0  0  0  0  0  0  0  0
    1.4329   -0.7164    0.0000 C   0  0  0  0  0  0  0  0  0  0  0  0
    5.1020   -2.3447    0.0000 C   0  0  0  0  0  0  0  0  0  0  0  0
    3.8428   -2.8658    0.0000 C   0  0  0  0  0  0  0  0  0  0  0  0
    2.4750   -2.4967    0.0000 C   0  0  0  0  0  0  0  0  0  0  0  0
    3.0395   -3.0829    0.0000 C   0  0  0  0  0  0  0  0  0  0  0  0
    1.4329   -2.3447    0.0000 C   0  0  0  0  0  0  0  0  0  0  0  0
    0.7381   -1.1072    0.0000 C   0  0  0  0  0  0  0  0  0  0  0  0
    0.7164   -1.9322    0.0000 C   0  0  0  0  0  0  0  0  0  0  0  0
    5.8184   -1.9322    0.0000 C   0  0  0  0  0  0  0  0  0  0  0  0
    5.1020   -3.1697    0.0000 C   0  0  0  0  0  0  0  0  0  0  0  0
    2.8223   -3.8645    0.0000 C   0  0  0  0  0  0  0  0  0  0  0  0
    6.5131   -2.3230    0.0000 C   0  0  0  0  0  0  0  0  0  0  0  0
    5.8184   -3.5605    0.0000 C   0  0  0  0  0  0  0  0  0  0  0  0
    6.5131   -3.1697    0.0000 C   0  0  0  0  0  0  0  0  0  0  0  0
    0.0000   -3.1697    0.0000 C   0  0  0  0  0  0  0  0  0  0  0  0
  1  5  1  0  0  0  0
  1  6  1  0  0  0  0
  2  8  1  0  0  0  0
  2 14  1  0  0  0  0
  3  8  2  0  0  0  0
  4 20  1  0  0  0  0
  4 27  1  0  0  0  0
  5  6  1  0  0  0  0
  5  7  1  0  0  0  0
  5  8  1  0  0  0  0
  6  9  1  0  0  0  0
  7 10  2  0  0  0  0
  7 11  1  0  0  0  0
  9 12  2  0  0  0  0
  9 13  1  0  0  0  0
 10 15  1  0  0  0  0
 11 16  2  0  0  0  0
 12 18  1  0  0  0  0
 13 19  2  0  0  0  0
 14 21  2  0  0  0  0
 14 22  1  0  0  0  0
 15 17  2  0  0  0  0
 16 17  1  0  0  0  0
 17 23  1  0  0  0  0
 18 20  2  0  0  0  0
 19 20  1  0  0  0  0
 21 24  1  0  0  0  0
 22 25  2  0  0  0  0
 24 26  2  0  0  0  0
 25 26  1  0  0  0  0
M  END
> <PUBCHEM_COMPOUND_ID_TYPE>
0

> <PUBCHEM_TOTAL_CHARGE>
0

> <PUBCHEM_SUBSTANCE_ID>
310931346

> <PUBCHEM_SUBSTANCE_VERSION>
1

> <PUBCHEM_EXT_DATASOURCE_NAME>
4488

> <PUBCHEM_EXT_DATASOURCE_REGID>
SCHEMBL16108666

> <PUBCHEM_SUBSTANCE_COMMENT>
InChI=1S/C23H20O4/c1-16-8-12-18(13-9-16)23(22(24)26-20-6-4-3-5-7-20)21(27-23)17-10-14-19(25-2)15-11-17/h3-15,21H,1-2H3
InChIKey=CNPNCVFQCONZDM-UHFFFAOYSA-N

> <PUBCHEM_SUBSTANCE_SYNONYM>
SCHEMBL16108666

> <PUBCHEM_XREF_EXT_ID>
SCHEMBL16108666

> <PUBCHEM_EXT_DATASOURCE_URL>
https://www.surechembl.org/

> <PUBCHEM_EXT_SUBSTANCE_URL>
https://www.surechembl.org/chemical/SCHEMBL16108666

> <PUBCHEM_CID_ASSOCIATIONS>
117600151  1

> <PUBCHEM_COORDINATE_TYPE>
1
3

$$$$
