310930153
  -OEChem-07211613022D

 22 23  0     1  0  0  0  0  0999 V2000
    0.8311   -3.2724    0.0000 S   0  0  0  0  0  0  0  0  0  0  0  0
    0.8311   -2.4672    0.0000 O   0  0  0  0  0  0  0  0  0  0  0  0
    1.6362   -3.2724    0.0000 O   0  0  0  0  0  0  0  0  0  0  0  0
    0.0000   -3.2724    0.0000 O   0  0  0  0  0  0  0  0  0  0  0  0
    0.8311   -4.1034    0.0000 O   0  0  0  0  0  0  0  0  0  0  0  0
    2.2335   -0.8311    0.0000 N   0  0  3  0  0  0  0  0  0  0  0  0
    5.0643   -2.4672    0.0000 N   0  0  0  0  0  0  0  0  0  0  0  0
    5.7915   -2.0517    0.0000 N   0  0  0  0  0  0  0  0  0  0  0  0
    6.5706   -3.2724    0.0000 N   0  0  0  0  0  0  0  0  0  0  0  0
    7.2459   -2.1296    0.0000 N   0  0  0  0  0  0  0  0  0  0  0  0
    2.9347   -1.2206    0.0000 C   0  0  0  0  0  0  0  0  0  0  0  0
    4.3631   -2.0517    0.0000 C   0  0  0  0  0  0  0  0  0  0  0  0
    3.6619   -0.8051    0.0000 C   0  0  0  0  0  0  0  0  0  0  0  0
    2.9347   -2.0517    0.0000 C   0  0  0  0  0  0  0  0  0  0  0  0
    4.3631   -1.2206    0.0000 C   0  0  0  0  0  0  0  0  0  0  0  0
    3.6619   -2.4413    0.0000 C   0  0  0  0  0  0  0  0  0  0  0  0
    6.4927   -2.4672    0.0000 C   0  0  0  0  0  0  0  0  0  0  0  0
    1.5323   -1.2206    0.0000 C   0  0  0  0  0  0  0  0  0  0  0  0
    1.5323   -2.0517    0.0000 C   0  0  0  0  0  0  0  0  0  0  0  0
    7.3757   -3.4541    0.0000 C   0  0  0  0  0  0  0  0  0  0  0  0
    7.7913   -2.7529    0.0000 C   0  0  0  0  0  0  0  0  0  0  0  0
    2.2335    0.0000    0.0000 C   0  0  0  0  0  0  0  0  0  0  0  0
  1  2  1  0  0  0  0
  1  3  2  0  0  0  0
  1  4  2  0  0  0  0
  1  5  1  0  0  0  0
  2 19  1  0  0  0  0
  6 11  1  0  0  0  0
  6 18  1  0  0  0  0
  6 22  1  0  0  0  0
  7  8  2  0  0  0  0
  7 12  1  0  0  0  0
  8 17  1  0  0  0  0
  9 17  2  0  0  0  0
  9 20  1  0  0  0  0
 10 17  1  0  0  0  0
 10 21  1  0  0  0  0
 11 13  2  0  0  0  0
 11 14  1  0  0  0  0
 12 15  2  0  0  0  0
 12 16  1  0  0  0  0
 13 15  1  0  0  0  0
 14 16  2  0  0  0  0
 18 19  1  0  0  0  0
 20 21  2  0  0  0  0
M  END
> <PUBCHEM_COMPOUND_ID_TYPE>
0

> <PUBCHEM_TOTAL_CHARGE>
0

> <PUBCHEM_SUBSTANCE_ID>
310930153

> <PUBCHEM_SUBSTANCE_VERSION>
1

> <PUBCHEM_EXT_DATASOURCE_NAME>
4488

> <PUBCHEM_EXT_DATASOURCE_REGID>
SCHEMBL16107413

> <PUBCHEM_SUBSTANCE_COMMENT>
InChI=1S/C12H15N5O4S/c1-17(8-9-21-22(18,19)20)11-4-2-10(3-5-11)15-16-12-13-6-7-14-12/h2-7H,8-9H2,1H3,(H,13,14)(H,18,19,20)/b16-15+
InChIKey=RESBQQYNVSVXCV-FOCLMDBBSA-N

> <PUBCHEM_SUBSTANCE_SYNONYM>
SCHEMBL16107413

> <PUBCHEM_XREF_EXT_ID>
SCHEMBL16107413

> <PUBCHEM_EXT_DATASOURCE_URL>
https://www.surechembl.org/

> <PUBCHEM_EXT_SUBSTANCE_URL>
https://www.surechembl.org/chemical/SCHEMBL16107413

> <PUBCHEM_CID_ASSOCIATIONS>
89561662  1

> <PUBCHEM_COORDINATE_TYPE>
1
3

$$$$
