310944004
  -OEChem-07211613022D

 42 49  0     1  0  0  0  0  0999 V2000
    1.8145    2.6640    0.0000 F   0  0  0  0  0  0  0  0  0  0  0  0
    1.7981   -1.4764    0.0000 N   0  0  0  0  0  0  0  0  0  0  0  0
    3.9589    2.1856    0.0000 N   0  0  0  0  0  0  0  0  0  0  0  0
    0.2474    0.3712    0.0000 C   0  0  3  0  0  0  0  0  0  0  0  0
    1.0392    0.6186    0.0000 C   0  0  0  0  0  0  0  0  0  0  0  0
   -0.2310    1.0475    0.0000 C   0  0  0  0  0  0  0  0  0  0  0  0
   -0.5444    0.1402    0.0000 C   0  0  0  0  0  0  0  0  0  0  0  0
    0.4454   -0.4536    0.0000 C   0  0  0  0  0  0  0  0  0  0  0  0
    1.0556    1.4434    0.0000 C   0  0  0  0  0  0  0  0  0  0  0  0
    0.2474    1.7073    0.0000 C   0  0  0  0  0  0  0  0  0  0  0  0
   -0.8577   -0.5857    0.0000 C   0  0  0  0  0  0  0  0  0  0  0  0
   -0.1155   -1.0145    0.0000 C   0  0  0  0  0  0  0  0  0  0  0  0
    1.7981    0.2062    0.0000 C   0  0  0  0  0  0  0  0  0  0  0  0
    1.7981    1.8393    0.0000 C   0  0  0  0  0  0  0  0  0  0  0  0
   -1.1382    0.7175    0.0000 C   0  0  0  0  0  0  0  0  0  0  0  0
    1.2701   -0.6680    0.0000 C   0  0  0  0  0  0  0  0  0  0  0  0
   -1.0556    1.1299    0.0000 C   0  0  0  0  0  0  0  0  0  0  0  0
    2.5237    1.4268    0.0000 C   0  0  0  0  0  0  0  0  0  0  0  0
   -0.0825    2.4495    0.0000 C   0  0  0  0  0  0  0  0  0  0  0  0
   -1.6166   -0.8330    0.0000 C   0  0  0  0  0  0  0  0  0  0  0  0
    0.0990   -1.8062    0.0000 C   0  0  0  0  0  0  0  0  0  0  0  0
    2.5237    0.6021    0.0000 C   0  0  0  0  0  0  0  0  0  0  0  0
   -1.9630    0.5361    0.0000 C   0  0  0  0  0  0  0  0  0  0  0  0
    1.4846   -1.4434    0.0000 C   0  0  0  0  0  0  0  0  0  0  0  0
   -2.1939   -0.2722    0.0000 C   0  0  0  0  0  0  0  0  0  0  0  0
    0.9072   -2.0206    0.0000 C   0  0  0  0  0  0  0  0  0  0  0  0
    1.7981   -0.6680    0.0000 C   0  0  0  0  0  0  0  0  0  0  0  0
   -1.3856    1.8723    0.0000 C   0  0  0  0  0  0  0  0  0  0  0  0
   -0.8907    2.5320    0.0000 C   0  0  0  0  0  0  0  0  0  0  0  0
   -2.5733    1.1134    0.0000 C   0  0  0  0  0  0  0  0  0  0  0  0
    2.3093   -1.6578    0.0000 C   0  0  0  0  0  0  0  0  0  0  0  0
    3.2496    1.8228    0.0000 C   0  0  0  0  0  0  0  0  0  0  0  0
   -2.3423    1.9217    0.0000 C   0  0  0  0  0  0  0  0  0  0  0  0
   -3.3650    0.9320    0.0000 C   0  0  0  0  0  0  0  0  0  0  0  0
    2.5403   -2.4495    0.0000 C   0  0  0  0  0  0  0  0  0  0  0  0
    2.8867   -1.0969    0.0000 C   0  0  0  0  0  0  0  0  0  0  0  0
   -2.9362    2.4990    0.0000 C   0  0  0  0  0  0  0  0  0  0  0  0
   -3.9589    1.5094    0.0000 C   0  0  0  0  0  0  0  0  0  0  0  0
    3.3320   -2.6640    0.0000 C   0  0  0  0  0  0  0  0  0  0  0  0
    3.7114   -1.3114    0.0000 C   0  0  0  0  0  0  0  0  0  0  0  0
   -3.7280    2.3011    0.0000 C   0  0  0  0  0  0  0  0  0  0  0  0
    3.9259   -2.1031    0.0000 C   0  0  0  0  0  0  0  0  0  0  0  0
  1 14  1  0  0  0  0
  2 27  3  0  0  0  0
  3 32  3  0  0  0  0
  4  5  1  0  0  0  0
  4  6  1  0  0  0  0
  4  7  1  0  0  0  0
  4  8  1  0  0  0  0
  5  9  2  0  0  0  0
  5 13  1  0  0  0  0
  6 10  2  0  0  0  0
  6 17  1  0  0  0  0
  7 11  1  0  0  0  0
  7 15  2  0  0  0  0
  8 12  2  0  0  0  0
  8 16  1  0  0  0  0
  9 10  1  0  0  0  0
  9 14  1  0  0  0  0
 10 19  1  0  0  0  0
 11 12  1  0  0  0  0
 11 20  2  0  0  0  0
 12 21  1  0  0  0  0
 13 22  2  0  0  0  0
 13 27  1  0  0  0  0
 14 18  2  0  0  0  0
 15 23  1  0  0  0  0
 16 24  2  0  0  0  0
 17 28  2  0  0  0  0
 18 22  1  0  0  0  0
 18 32  1  0  0  0  0
 19 29  2  0  0  0  0
 20 25  1  0  0  0  0
 21 26  2  0  0  0  0
 23 25  2  0  0  0  0
 23 30  1  0  0  0  0
 24 26  1  0  0  0  0
 24 31  1  0  0  0  0
 28 29  1  0  0  0  0
 30 33  2  0  0  0  0
 30 34  1  0  0  0  0
 31 35  2  0  0  0  0
 31 36  1  0  0  0  0
 33 37  1  0  0  0  0
 34 38  2  0  0  0  0
 35 39  1  0  0  0  0
 36 40  2  0  0  0  0
 37 41  2  0  0  0  0
 38 41  1  0  0  0  0
 39 42  2  0  0  0  0
 40 42  1  0  0  0  0
M  END
> <PUBCHEM_COMPOUND_ID_TYPE>
0

> <PUBCHEM_TOTAL_CHARGE>
0

> <PUBCHEM_SUBSTANCE_ID>
310944004

> <PUBCHEM_SUBSTANCE_VERSION>
1

> <PUBCHEM_EXT_DATASOURCE_NAME>
4488

> <PUBCHEM_EXT_DATASOURCE_REGID>
SCHEMBL16122075

> <PUBCHEM_SUBSTANCE_COMMENT>
InChI=1S/C39H21FN2/c40-38-29(23-42)19-28(22-41)37-36(38)32-13-7-8-14-33(32)39(37)34-20-26(24-9-3-1-4-10-24)15-17-30(34)31-18-16-27(21-35(31)39)25-11-5-2-6-12-25/h1-21H
InChIKey=ZSULWPNNJYXQOJ-UHFFFAOYSA-N

> <PUBCHEM_SUBSTANCE_SYNONYM>
SCHEMBL16122075

> <PUBCHEM_XREF_EXT_ID>
SCHEMBL16122075

> <PUBCHEM_EXT_DATASOURCE_URL>
https://www.surechembl.org/

> <PUBCHEM_EXT_SUBSTANCE_URL>
https://www.surechembl.org/chemical/SCHEMBL16122075

> <PUBCHEM_CID_ASSOCIATIONS>
117610308  1

> <PUBCHEM_COORDINATE_TYPE>
1
3

$$$$
