310946542
  -OEChem-07211613022D

 29 30  0     1  0  0  0  0  0999 V2000
    1.3099  -10.4432    0.0000 O   0  0  0  0  0  0  0  0  0  0  0  0
    0.2298  -11.2278    0.0000 O   0  0  0  0  0  0  0  0  0  0  0  0
    2.9938  -11.2278    0.0000 O   0  0  0  0  0  0  0  0  0  0  0  0
    0.0723   -9.7286    0.0000 O   0  0  0  0  0  0  0  0  0  0  0  0
    3.7084  -12.4654    0.0000 O   0  0  0  0  0  0  0  0  0  0  0  0
    4.9239   -9.1933    0.0000 O   0  0  0  0  0  0  0  0  0  0  0  0
    3.4949   -9.1933    0.0000 O   0  0  0  0  0  0  0  0  0  0  0  0
    6.1480   -7.3859    0.0000 O   0  0  0  0  0  0  0  0  0  0  0  0
    4.2094  -10.4309    0.0000 N   0  0  0  0  0  0  0  0  0  0  0  0
    1.5648  -11.2278    0.0000 C   0  0  0  0  0  0  0  0  0  0  0  0
    0.8974  -11.7128    0.0000 C   0  0  0  0  0  0  0  0  0  0  0  0
    0.4848  -10.4432    0.0000 C   0  0  0  0  0  0  0  0  0  0  0  0
    4.4229  -11.2278    0.0000 C   0  0  3  0  0  0  0  0  0  0  0  0
    3.7084  -11.6404    0.0000 C   0  0  0  0  0  0  0  0  0  0  0  0
    2.2794  -11.6404    0.0000 C   0  0  0  0  0  0  0  0  0  0  0  0
    5.1375  -11.6404    0.0000 C   0  0  0  0  0  0  0  0  0  0  0  0
    5.9625  -11.6404    0.0000 C   0  0  0  0  0  0  0  0  0  0  0  0
    1.3099  -12.4273    0.0000 C   0  0  0  0  0  0  0  0  0  0  0  0
    4.2094   -9.6058    0.0000 C   0  0  0  0  0  0  0  0  0  0  0  0
    6.3751  -12.3548    0.0000 C   0  0  0  0  0  0  0  0  0  0  0  0
    6.3751  -10.9258    0.0000 C   0  0  0  0  0  0  0  0  0  0  0  0
    7.2001  -12.3548    0.0000 C   0  0  0  0  0  0  0  0  0  0  0  0
    7.2001  -10.9258    0.0000 C   0  0  0  0  0  0  0  0  0  0  0  0
    7.6127  -11.6404    0.0000 C   0  0  0  0  0  0  0  0  0  0  0  0
    5.1375   -8.3963    0.0000 C   0  0  0  0  0  0  0  0  0  0  0  0
    5.9343   -8.1828    0.0000 C   0  0  0  0  0  0  0  0  0  0  0  0
    6.9449   -7.1723    0.0000 C   0  0  0  0  0  0  0  0  0  0  0  0
    7.1584   -6.3754    0.0000 C   0  0  0  0  0  0  0  0  0  0  0  0
    7.9554   -6.1618    0.0000 C   0  0  0  0  0  0  0  0  0  0  0  0
  1 10  1  0  0  0  0
  1 12  1  0  0  0  0
  2 11  1  0  0  0  0
  2 12  1  0  0  0  0
  3 14  1  0  0  0  0
  3 15  1  0  0  0  0
  4 12  2  0  0  0  0
  5 14  2  0  0  0  0
  6 19  1  0  0  0  0
  6 25  1  0  0  0  0
  7 19  2  0  0  0  0
  8 26  1  0  0  0  0
  8 27  1  0  0  0  0
  9 13  1  0  0  0  0
  9 19  1  0  0  0  0
 10 11  2  0  0  0  0
 10 15  1  0  0  0  0
 11 18  1  0  0  0  0
 13 14  1  0  0  0  0
 13 16  1  0  0  0  0
 16 17  1  0  0  0  0
 17 20  2  0  0  0  0
 17 21  1  0  0  0  0
 20 22  1  0  0  0  0
 21 23  2  0  0  0  0
 22 24  2  0  0  0  0
 23 24  1  0  0  0  0
 25 26  1  0  0  0  0
 27 28  1  0  0  0  0
 28 29  1  0  0  0  0
M  END
> <PUBCHEM_COMPOUND_ID_TYPE>
0

> <PUBCHEM_TOTAL_CHARGE>
0

> <PUBCHEM_SUBSTANCE_ID>
310946542

> <PUBCHEM_SUBSTANCE_VERSION>
1

> <PUBCHEM_EXT_DATASOURCE_NAME>
4488

> <PUBCHEM_EXT_DATASOURCE_REGID>
SCHEMBL16124663

> <PUBCHEM_SUBSTANCE_COMMENT>
InChI=1S/C20H25NO8/c1-3-9-25-10-11-26-19(23)21-16(12-15-7-5-4-6-8-15)18(22)27-13-17-14(2)28-20(24)29-17/h4-8,16H,3,9-13H2,1-2H3,(H,21,23)
InChIKey=PDSCFDKAZIUXIP-UHFFFAOYSA-N

> <PUBCHEM_SUBSTANCE_SYNONYM>
SCHEMBL16124663

> <PUBCHEM_XREF_EXT_ID>
SCHEMBL16124663

> <PUBCHEM_EXT_DATASOURCE_URL>
https://www.surechembl.org/

> <PUBCHEM_EXT_SUBSTANCE_URL>
https://www.surechembl.org/chemical/SCHEMBL16124663

> <PUBCHEM_CID_ASSOCIATIONS>
117612447  1

> <PUBCHEM_COORDINATE_TYPE>
1
3

$$$$
