310942362
  -OEChem-07211613022D

 29 31  0     1  0  0  0  0  0999 V2000
    2.8587    0.1948    0.0000 F   0  0  0  0  0  0  0  0  0  0  0  0
    3.6238   -0.1252    0.0000 F   0  0  0  0  0  0  0  0  0  0  0  0
   -2.9144   -0.8764    0.0000 O   0  0  0  0  0  0  0  0  0  0  0  0
   -2.1771   -2.1145    0.0000 O   0  0  0  0  0  0  0  0  0  0  0  0
    3.3318    2.1145    0.0000 O   0  0  0  0  0  0  0  0  0  0  0  0
   -0.1600   -0.5286    0.0000 N   0  0  0  0  0  0  0  0  0  0  0  0
    0.3825   -2.1006    0.0000 N   0  0  0  0  0  0  0  0  0  0  0  0
    2.2049    1.2520    0.0000 N   0  0  0  0  0  0  0  0  0  0  0  0
   -0.5912    0.1670    0.0000 C   0  0  0  0  0  0  0  0  0  0  0  0
   -1.4815   -0.8208    0.0000 C   0  0  0  0  0  0  0  0  0  0  0  0
   -0.7025   -1.1685    0.0000 C   0  0  0  0  0  0  0  0  0  0  0  0
   -1.3981    0.0000    0.0000 C   0  0  0  0  0  0  0  0  0  0  0  0
   -0.2713    0.9599    0.0000 C   0  0  3  0  0  0  0  0  0  0  0  0
   -2.1771   -1.2381    0.0000 C   0  0  0  0  0  0  0  0  0  0  0  0
    0.5356    1.0573    0.0000 C   0  0  0  0  0  0  0  0  0  0  0  0
    0.6608   -0.6956    0.0000 C   0  0  0  0  0  0  0  0  0  0  0  0
   -0.4382   -1.9336    0.0000 C   0  0  0  0  0  0  0  0  0  0  0  0
   -2.0380    0.5147    0.0000 C   0  0  0  0  0  0  0  0  0  0  0  0
    0.9112   -1.4607    0.0000 C   0  0  0  0  0  0  0  0  0  0  0  0
    0.8834    1.8224    0.0000 C   0  0  0  0  0  0  0  0  0  0  0  0
    1.0503    0.3896    0.0000 C   0  0  0  0  0  0  0  0  0  0  0  0
   -0.7721    1.6137    0.0000 C   0  0  0  0  0  0  0  0  0  0  0  0
    2.9979    1.3494    0.0000 C   0  0  0  0  0  0  0  0  0  0  0  0
    1.6902    1.9197    0.0000 C   0  0  0  0  0  0  0  0  0  0  0  0
    1.8711    0.4869    0.0000 C   0  0  0  0  0  0  0  0  0  0  0  0
    3.5125    0.7095    0.0000 C   0  0  0  0  0  0  0  0  0  0  0  0
   -3.5960   -1.2798    0.0000 C   0  0  0  0  0  0  0  0  0  0  0  0
    4.3611    0.8208    0.0000 C   0  0  0  0  0  0  0  0  0  0  0  0
   -4.3611   -0.9042    0.0000 C   0  0  0  0  0  0  0  0  0  0  0  0
  1 26  1  0  0  0  0
  2 26  1  0  0  0  0
  3 14  1  0  0  0  0
  3 27  1  0  0  0  0
  4 14  2  0  0  0  0
  5 23  2  0  0  0  0
  6  9  1  0  0  0  0
  6 11  1  0  0  0  0
  6 16  1  0  0  0  0
  7 17  2  0  0  0  0
  7 19  1  0  0  0  0
  8 23  1  0  0  0  0
  8 24  1  0  0  0  0
  8 25  1  0  0  0  0
  9 12  2  0  0  0  0
  9 13  1  0  0  0  0
 10 11  2  0  0  0  0
 10 12  1  0  0  0  0
 10 14  1  0  0  0  0
 11 17  1  0  0  0  0
 12 18  1  0  0  0  0
 13 15  1  0  0  0  0
 13 22  1  0  0  0  0
 15 20  1  0  0  0  0
 15 21  1  0  0  0  0
 16 19  2  0  0  0  0
 20 24  1  0  0  0  0
 21 25  1  0  0  0  0
 23 26  1  0  0  0  0
 26 28  1  0  0  0  0
 27 29  1  0  0  0  0
M  END
> <PUBCHEM_COMPOUND_ID_TYPE>
0

> <PUBCHEM_TOTAL_CHARGE>
0

> <PUBCHEM_SUBSTANCE_ID>
310942362

> <PUBCHEM_SUBSTANCE_VERSION>
1

> <PUBCHEM_EXT_DATASOURCE_NAME>
4488

> <PUBCHEM_EXT_DATASOURCE_REGID>
SCHEMBL16120398

> <PUBCHEM_SUBSTANCE_COMMENT>
InChI=1S/C21H27F2N3O3/c1-5-29-19(27)17-14(3)18(26-11-8-24-12-16(17)26)13(2)15-6-9-25(10-7-15)20(28)21(4,22)23/h8,11-13,15H,5-7,9-10H2,1-4H3
InChIKey=RMUNUWKDMURVBY-UHFFFAOYSA-N

> <PUBCHEM_SUBSTANCE_SYNONYM>
SCHEMBL16120398

> <PUBCHEM_XREF_EXT_ID>
SCHEMBL16120398

> <PUBCHEM_EXT_DATASOURCE_URL>
https://www.surechembl.org/

> <PUBCHEM_EXT_SUBSTANCE_URL>
https://www.surechembl.org/chemical/SCHEMBL16120398

> <PUBCHEM_CID_ASSOCIATIONS>
117608981  1

> <PUBCHEM_COORDINATE_TYPE>
1
3

$$$$
