310936953
  -OEChem-07211613022D

 18 18  0     1  0  0  0  0  0999 V2000
   -4.5079   -1.6500    0.0000 N   0  0  0  0  0  0  0  0  0  0  0  0
   -2.3645    0.4125    0.0000 N   0  0  0  0  0  0  0  0  0  0  0  0
   -3.0790   -1.6500    0.0000 C   0  0  3  0  0  0  0  0  0  0  0  0
   -1.6500   -1.6500    0.0000 C   0  0  0  0  0  0  0  0  0  0  0  0
   -2.3645   -2.0625    0.0000 C   0  0  0  0  0  0  0  0  0  0  0  0
   -3.0790   -0.8250    0.0000 C   0  0  0  0  0  0  0  0  0  0  0  0
   -3.7934   -2.0625    0.0000 C   0  0  0  0  0  0  0  0  0  0  0  0
   -2.3645   -0.4125    0.0000 C   0  0  3  0  0  0  0  0  0  0  0  0
   -1.6500   -0.8250    0.0000 C   0  0  0  0  0  0  0  0  0  0  0  0
   -3.0790   -2.4750    0.0000 C   0  0  0  0  0  0  0  0  0  0  0  0
   -5.2224   -2.0625    0.0000 C   0  0  0  0  0  0  0  0  0  0  0  0
   -4.5079   -0.8250    0.0000 C   0  0  0  0  0  0  0  0  0  0  0  0
   -0.8250   -1.6500    0.0000 C   0  0  0  0  0  0  0  0  0  0  0  0
   -1.2375   -2.3645    0.0000 C   0  0  0  0  0  0  0  0  0  0  0  0
   -5.2224   -2.8875    0.0000 C   0  0  0  0  0  0  0  0  0  0  0  0
   -5.9368   -1.6500    0.0000 C   0  0  0  0  0  0  0  0  0  0  0  0
   -5.2224   -0.4125    0.0000 C   0  0  0  0  0  0  0  0  0  0  0  0
   -3.7934   -0.4125    0.0000 C   0  0  0  0  0  0  0  0  0  0  0  0
  1  7  1  0  0  0  0
  1 11  1  0  0  0  0
  1 12  1  0  0  0  0
  2  8  1  0  0  0  0
  3  5  1  0  0  0  0
  3  6  1  0  0  0  0
  3  7  1  0  0  0  0
  3 10  1  0  0  0  0
  4  5  1  0  0  0  0
  4  9  1  0  0  0  0
  4 13  1  0  0  0  0
  4 14  1  0  0  0  0
  6  8  1  0  0  0  0
  8  9  1  0  0  0  0
 11 15  1  0  0  0  0
 11 16  1  0  0  0  0
 12 17  1  0  0  0  0
 12 18  1  0  0  0  0
M  END
> <PUBCHEM_COMPOUND_ID_TYPE>
0

> <PUBCHEM_TOTAL_CHARGE>
0

> <PUBCHEM_SUBSTANCE_ID>
310936953

> <PUBCHEM_SUBSTANCE_VERSION>
1

> <PUBCHEM_EXT_DATASOURCE_NAME>
4488

> <PUBCHEM_EXT_DATASOURCE_REGID>
SCHEMBL16114656

> <PUBCHEM_SUBSTANCE_COMMENT>
InChI=1S/C16H34N2/c1-12(2)18(13(3)4)11-16(7)9-14(17)8-15(5,6)10-16/h12-14H,8-11,17H2,1-7H3
InChIKey=FZCFAYADGHEDAO-UHFFFAOYSA-N

> <PUBCHEM_SUBSTANCE_SYNONYM>
SCHEMBL16114656

> <PUBCHEM_XREF_EXT_ID>
SCHEMBL16114656

> <PUBCHEM_EXT_DATASOURCE_URL>
https://www.surechembl.org/

> <PUBCHEM_EXT_SUBSTANCE_URL>
https://www.surechembl.org/chemical/SCHEMBL16114656

> <PUBCHEM_CID_ASSOCIATIONS>
117604821  1

> <PUBCHEM_COORDINATE_TYPE>
1
3

$$$$
