310940685
  -OEChem-07211613022D

 10 10  0     1  0  0  0  0  0999 V2000
   -0.3188   -1.0940    0.0000 I   0  0  0  0  0  0  0  0  0  0  0  0
   -0.6810    1.2534    0.0000 O   0  0  0  0  0  0  0  0  0  0  0  0
   -1.4055    0.0217    0.0000 O   0  0  0  0  0  0  0  0  0  0  0  0
    0.0000    0.0073    0.0000 C   0  0  3  0  0  0  0  0  0  0  0  0
   -0.0290   -0.8331    0.0000 C   0  0  3  0  0  0  0  0  0  0  0  0
   -0.7100    0.4274    0.0000 C   0  0  0  0  0  0  0  0  0  0  0  0
    0.7100    0.3985    0.0000 C   0  0  0  0  0  0  0  0  0  0  0  0
    0.6955   -1.2534    0.0000 C   0  0  0  0  0  0  0  0  0  0  0  0
    1.4055   -0.0217    0.0000 C   0  0  0  0  0  0  0  0  0  0  0  0
    1.3910   -0.8477    0.0000 C   0  0  0  0  0  0  0  0  0  0  0  0
  1  5  1  0  0  0  0
  2  6  2  0  0  0  0
  3  6  1  0  0  0  0
  4  5  1  0  0  0  0
  4  6  1  0  0  0  0
  4  7  1  0  0  0  0
  5  8  1  0  0  0  0
  7  9  1  0  0  0  0
  8 10  1  0  0  0  0
  9 10  1  0  0  0  0
M  END
> <PUBCHEM_COMPOUND_ID_TYPE>
0

> <PUBCHEM_TOTAL_CHARGE>
0

> <PUBCHEM_SUBSTANCE_ID>
310940685

> <PUBCHEM_SUBSTANCE_VERSION>
1

> <PUBCHEM_EXT_DATASOURCE_NAME>
4488

> <PUBCHEM_EXT_DATASOURCE_REGID>
SCHEMBL16118641

> <PUBCHEM_SUBSTANCE_COMMENT>
InChI=1S/C7H11IO2/c8-6-4-2-1-3-5(6)7(9)10/h5-6H,1-4H2,(H,9,10)
InChIKey=DKWWRPKHVFVMPQ-UHFFFAOYSA-N

> <PUBCHEM_SUBSTANCE_SYNONYM>
SCHEMBL16118641

> <PUBCHEM_XREF_EXT_ID>
SCHEMBL16118641

> <PUBCHEM_EXT_DATASOURCE_URL>
https://www.surechembl.org/

> <PUBCHEM_EXT_SUBSTANCE_URL>
https://www.surechembl.org/chemical/SCHEMBL16118641

> <PUBCHEM_CID_ASSOCIATIONS>
117607658  1

> <PUBCHEM_COORDINATE_TYPE>
1
3

$$$$
