310942406
  -OEChem-07211613022D

 23 25  0     1  0  0  0  0  0999 V2000
   -2.1506   -0.8202    0.0000 O   0  0  0  0  0  0  0  0  0  0  0  0
   -1.4337   -2.0610    0.0000 O   0  0  0  0  0  0  0  0  0  0  0  0
    2.8260    1.4406    0.0000 O   0  0  0  0  0  0  0  0  0  0  0  0
    0.5514   -0.4205    0.0000 N   0  0  0  0  0  0  0  0  0  0  0  0
    1.3647   -0.5445    0.0000 N   0  0  0  0  0  0  0  0  0  0  0  0
    0.0827    0.2550    0.0000 C   0  0  0  0  0  0  0  0  0  0  0  0
   -0.7444   -0.7651    0.0000 C   0  0  0  0  0  0  0  0  0  0  0  0
    0.0276   -1.0684    0.0000 C   0  0  0  0  0  0  0  0  0  0  0  0
   -0.6893    0.0483    0.0000 C   0  0  0  0  0  0  0  0  0  0  0  0
    0.3998    1.0546    0.0000 C   0  0  3  0  0  0  0  0  0  0  0  0
   -1.4337   -1.2062    0.0000 C   0  0  0  0  0  0  0  0  0  0  0  0
    0.3309   -1.8403    0.0000 C   0  0  0  0  0  0  0  0  0  0  0  0
    1.1994    1.1787    0.0000 C   0  0  0  0  0  0  0  0  0  0  0  0
   -1.3785    0.5721    0.0000 C   0  0  0  0  0  0  0  0  0  0  0  0
    1.6681   -1.3303    0.0000 C   0  0  0  0  0  0  0  0  0  0  0  0
    1.1580   -1.9644    0.0000 C   0  0  0  0  0  0  0  0  0  0  0  0
   -0.1517    1.7025    0.0000 C   0  0  0  0  0  0  0  0  0  0  0  0
    1.5026    1.9507    0.0000 C   0  0  0  0  0  0  0  0  0  0  0  0
    1.7232    0.5445    0.0000 C   0  0  0  0  0  0  0  0  0  0  0  0
    2.3160    2.0748    0.0000 C   0  0  0  0  0  0  0  0  0  0  0  0
    2.5366    0.6824    0.0000 C   0  0  0  0  0  0  0  0  0  0  0  0
   -2.8260   -1.2476    0.0000 C   0  0  0  0  0  0  0  0  0  0  0  0
   -2.7847   -2.0748    0.0000 C   0  0  0  0  0  0  0  0  0  0  0  0
  1 11  1  0  0  0  0
  1 22  1  0  0  0  0
  2 11  2  0  0  0  0
  3 20  1  0  0  0  0
  3 21  1  0  0  0  0
  4  5  1  0  0  0  0
  4  6  1  0  0  0  0
  4  8  1  0  0  0  0
  5 15  2  0  0  0  0
  6  9  2  0  0  0  0
  6 10  1  0  0  0  0
  7  8  2  0  0  0  0
  7  9  1  0  0  0  0
  7 11  1  0  0  0  0
  8 12  1  0  0  0  0
  9 14  1  0  0  0  0
 10 13  1  0  0  0  0
 10 17  1  0  0  0  0
 12 16  2  0  0  0  0
 13 18  1  0  0  0  0
 13 19  1  0  0  0  0
 15 16  1  0  0  0  0
 18 20  1  0  0  0  0
 19 21  1  0  0  0  0
 22 23  1  0  0  0  0
M  END
> <PUBCHEM_COMPOUND_ID_TYPE>
0

> <PUBCHEM_TOTAL_CHARGE>
0

> <PUBCHEM_SUBSTANCE_ID>
310942406

> <PUBCHEM_SUBSTANCE_VERSION>
1

> <PUBCHEM_EXT_DATASOURCE_NAME>
4488

> <PUBCHEM_EXT_DATASOURCE_REGID>
SCHEMBL16120442

> <PUBCHEM_SUBSTANCE_COMMENT>
InChI=1S/C18H24N2O3/c1-4-23-18(21)16-13(3)17(20-15(16)6-5-9-19-20)12(2)14-7-10-22-11-8-14/h5-6,9,12,14H,4,7-8,10-11H2,1-3H3
InChIKey=PYRJWBKREKYUED-UHFFFAOYSA-N

> <PUBCHEM_SUBSTANCE_SYNONYM>
SCHEMBL16120442

> <PUBCHEM_XREF_EXT_ID>
SCHEMBL16120442

> <PUBCHEM_EXT_DATASOURCE_URL>
https://www.surechembl.org/

> <PUBCHEM_EXT_SUBSTANCE_URL>
https://www.surechembl.org/chemical/SCHEMBL16120442

> <PUBCHEM_CID_ASSOCIATIONS>
117609010  1

> <PUBCHEM_COORDINATE_TYPE>
1
3

$$$$
