310941229
  -OEChem-07211613022D

 44 47  0     1  0  0  0  0  0999 V2000
   -1.9067   -1.4172    0.0000 F   0  0  0  0  0  0  0  0  0  0  0  0
   -1.1907   -1.8263    0.0000 F   0  0  0  0  0  0  0  0  0  0  0  0
   -0.4748   -1.4172    0.0000 F   0  0  0  0  0  0  0  0  0  0  0  0
    5.1939   -1.0081    0.0000 O   0  0  0  0  0  0  0  0  0  0  0  0
    4.0544    0.9497    0.0000 O   0  0  0  0  0  0  0  0  0  0  0  0
    1.6729   -0.9935    0.0000 O   0  0  0  0  0  0  0  0  0  0  0  0
   -0.4894    1.0812    0.0000 O   0  0  0  0  0  0  0  0  0  0  0  0
   -2.6518   -0.9935    0.0000 O   0  0  0  0  0  0  0  0  0  0  0  0
    3.8352    2.7467    0.0000 O   0  0  0  0  0  0  0  0  0  0  0  0
   -5.5300   -0.9935    0.0000 O   0  0  0  0  0  0  0  0  0  0  0  0
    2.4034    0.2484    0.0000 N   0  0  0  0  0  0  0  0  0  0  0  0
    0.2410   -0.1753    0.0000 N   0  0  0  0  0  0  0  0  0  0  0  0
   -1.9213    0.2484    0.0000 N   0  0  0  0  0  0  0  0  0  0  0  0
   -4.0836   -0.1753    0.0000 N   0  0  0  0  0  0  0  0  0  0  0  0
    4.7849   -0.2776    0.0000 C   0  0  3  0  0  0  0  0  0  0  0  0
    4.0544    0.1315    0.0000 C   0  0  0  0  0  0  0  0  0  0  0  0
    4.3904   -0.9789    0.0000 C   0  0  0  0  0  0  0  0  0  0  0  0
    3.3531   -0.2630    0.0000 C   0  0  3  0  0  0  0  0  0  0  0  0
    5.5300    0.1315    0.0000 C   0  0  0  0  0  0  0  0  0  0  0  0
    1.6875   -0.1168    0.0000 C   0  0  0  0  0  0  0  0  0  0  0  0
    3.3531   -1.3442    0.0000 C   0  0  0  0  0  0  0  0  0  0  0  0
    0.9716    0.2776    0.0000 C   0  0  3  0  0  0  0  0  0  0  0  0
   -1.1907   -0.1315    0.0000 C   0  0  3  0  0  0  0  0  0  0  0  0
   -0.4894    0.2484    0.0000 C   0  0  0  0  0  0  0  0  0  0  0  0
   -1.1907   -0.9935    0.0000 C   0  0  0  0  0  0  0  0  0  0  0  0
    2.6226   -1.7532    0.0000 C   0  0  0  0  0  0  0  0  0  0  0  0
    0.9862    1.1104    0.0000 C   0  0  0  0  0  0  0  0  0  0  0  0
    1.6875    1.5194    0.0000 C   0  0  0  0  0  0  0  0  0  0  0  0
   -2.6371   -0.1168    0.0000 C   0  0  0  0  0  0  0  0  0  0  0  0
    1.8628   -1.4318    0.0000 C   0  0  0  0  0  0  0  0  0  0  0  0
    2.5349   -2.5861    0.0000 C   0  0  0  0  0  0  0  0  0  0  0  0
    2.4180    1.1104    0.0000 C   0  0  0  0  0  0  0  0  0  0  0  0
    1.7021    2.3523    0.0000 C   0  0  0  0  0  0  0  0  0  0  0  0
    1.3222   -2.0455    0.0000 C   0  0  0  0  0  0  0  0  0  0  0  0
    1.7313   -2.7468    0.0000 C   0  0  0  0  0  0  0  0  0  0  0  0
   -3.3677    0.2630    0.0000 C   0  0  0  0  0  0  0  0  0  0  0  0
    3.1339    2.3523    0.0000 C   0  0  0  0  0  0  0  0  0  0  0  0
    3.1339    1.5194    0.0000 C   0  0  0  0  0  0  0  0  0  0  0  0
    2.4034    2.7467    0.0000 C   0  0  0  0  0  0  0  0  0  0  0  0
   -4.0836   -0.9643    0.0000 C   0  0  0  0  0  0  0  0  0  0  0  0
   -4.8287    0.2630    0.0000 C   0  0  0  0  0  0  0  0  0  0  0  0
   -4.7703   -1.3734    0.0000 C   0  0  0  0  0  0  0  0  0  0  0  0
   -5.5008   -0.1315    0.0000 C   0  0  0  0  0  0  0  0  0  0  0  0
    4.5949    2.3377    0.0000 C   0  0  0  0  0  0  0  0  0  0  0  0
  1 25  1  0  0  0  0
  2 25  1  0  0  0  0
  3 25  1  0  0  0  0
  4 15  1  0  0  0  0
  4 17  1  0  0  0  0
  5 16  2  0  0  0  0
  6 20  2  0  0  0  0
  7 24  2  0  0  0  0
  8 29  2  0  0  0  0
  9 37  1  0  0  0  0
  9 44  1  0  0  0  0
 10 42  1  0  0  0  0
 10 43  1  0  0  0  0
 11 18  1  0  0  0  0
 11 20  1  0  0  0  0
 12 22  1  0  0  0  0
 12 24  1  0  0  0  0
 13 23  1  0  0  0  0
 13 29  1  0  0  0  0
 14 36  1  0  0  0  0
 14 40  1  0  0  0  0
 14 41  1  0  0  0  0
 15 16  1  0  0  0  0
 15 17  1  0  0  0  0
 15 19  1  0  0  0  0
 16 18  1  0  0  0  0
 18 21  1  0  0  0  0
 20 22  1  0  0  0  0
 21 26  1  0  0  0  0
 22 27  1  0  0  0  0
 23 24  1  0  0  0  0
 23 25  1  0  0  0  0
 26 30  2  0  0  0  0
 26 31  1  0  0  0  0
 27 28  1  0  0  0  0
 28 32  2  0  0  0  0
 28 33  1  0  0  0  0
 29 36  1  0  0  0  0
 30 34  1  0  0  0  0
 31 35  1  0  0  0  0
 32 38  1  0  0  0  0
 33 39  2  0  0  0  0
 34 35  1  0  0  0  0
 37 38  2  0  0  0  0
 37 39  1  0  0  0  0
 40 42  1  0  0  0  0
 41 43  1  0  0  0  0
M  END
> <PUBCHEM_COMPOUND_ID_TYPE>
0

> <PUBCHEM_TOTAL_CHARGE>
0

> <PUBCHEM_SUBSTANCE_ID>
310941229

> <PUBCHEM_SUBSTANCE_VERSION>
1

> <PUBCHEM_EXT_DATASOURCE_NAME>
4488

> <PUBCHEM_EXT_DATASOURCE_REGID>
SCHEMBL16119189

> <PUBCHEM_SUBSTANCE_COMMENT>
InChI=1S/C30H39F3N4O7/c1-29(18-44-29)26(39)22(15-19-5-3-4-6-19)34-27(40)23(16-20-7-9-21(42-2)10-8-20)35-28(41)25(30(31,32)33)36-24(38)17-37-11-13-43-14-12-37/h5,7-10,22-23,25H,3-4,6,11-18H2,1-2H3,(H,34,40)(H,35,41)(H,36,38)
InChIKey=SVCWIKBIULKUKK-UHFFFAOYSA-N

> <PUBCHEM_SUBSTANCE_SYNONYM>
SCHEMBL16119189

> <PUBCHEM_XREF_EXT_ID>
SCHEMBL16119189

> <PUBCHEM_EXT_DATASOURCE_URL>
https://www.surechembl.org/

> <PUBCHEM_EXT_SUBSTANCE_URL>
https://www.surechembl.org/chemical/SCHEMBL16119189

> <PUBCHEM_CID_ASSOCIATIONS>
86297122  1

> <PUBCHEM_COORDINATE_TYPE>
1
3

$$$$
