310934063
  -OEChem-07211613022D

 38 42  0     1  0  0  0  0  0999 V2000
    6.0044    0.0000    0.0000 Cl  0  0  0  0  0  0  0  0  0  0  0  0
    0.0000   -2.6591    0.0000 F   0  0  0  0  0  0  0  0  0  0  0  0
    3.6027   -8.5778    0.0000 F   0  0  0  0  0  0  0  0  0  0  0  0
    3.4740   -4.3318    0.0000 O   0  0  0  0  0  0  0  0  0  0  0  0
    6.4333   -4.9751    0.0000 O   0  0  0  0  0  0  0  0  0  0  0  0
    8.4920   -2.8307    0.0000 O   0  5  0  0  0  0  0  0  0  0  0  0
    7.2482   -3.5598    0.0000 O   0  0  0  0  0  0  0  0  0  0  0  0
    5.2324   -4.2889    0.0000 N   0  0  0  0  0  0  0  0  0  0  0  0
    3.4740   -5.6613    0.0000 N   0  0  0  0  0  0  0  0  0  0  0  0
    2.7020   -5.4040    0.0000 N   0  0  0  0  0  0  0  0  0  0  0  0
    7.6771   -2.8307    0.0000 N   0  3  0  0  0  0  0  0  0  0  0  0
    4.8036   -4.9751    0.0000 C   0  0  3  0  0  0  0  0  0  0  0  0
    3.9887   -5.0180    0.0000 C   0  0  0  0  0  0  0  0  0  0  0  0
    6.0044   -2.8736    0.0000 C   0  0  0  0  0  0  0  0  0  0  0  0
    6.0044   -4.2889    0.0000 C   0  0  0  0  0  0  0  0  0  0  0  0
    6.4333   -2.1445    0.0000 C   0  0  0  0  0  0  0  0  0  0  0  0
    2.7020   -4.5891    0.0000 C   0  0  0  0  0  0  0  0  0  0  0  0
    6.4333   -3.5598    0.0000 C   0  0  0  0  0  0  0  0  0  0  0  0
    4.7607   -3.5598    0.0000 C   0  0  0  0  0  0  0  0  0  0  0  0
    7.2482   -2.1445    0.0000 C   0  0  0  0  0  0  0  0  0  0  0  0
    5.2324   -2.8736    0.0000 C   0  0  0  0  0  0  0  0  0  0  0  0
    5.2324   -5.7042    0.0000 C   0  0  0  0  0  0  0  0  0  0  0  0
    2.0158   -4.1173    0.0000 C   0  0  0  0  0  0  0  0  0  0  0  0
    6.0044   -1.4153    0.0000 C   0  0  0  0  0  0  0  0  0  0  0  0
    4.8036   -6.4333    0.0000 C   0  0  0  0  0  0  0  0  0  0  0  0
    7.6342   -1.4153    0.0000 C   0  0  0  0  0  0  0  0  0  0  0  0
    6.3904   -0.7291    0.0000 C   0  0  0  0  0  0  0  0  0  0  0  0
    7.2482   -0.6862    0.0000 C   0  0  0  0  0  0  0  0  0  0  0  0
    1.2867   -4.4605    0.0000 C   0  0  0  0  0  0  0  0  0  0  0  0
    2.1015   -3.3025    0.0000 C   0  0  0  0  0  0  0  0  0  0  0  0
    5.2324   -7.1196    0.0000 C   0  0  0  0  0  0  0  0  0  0  0  0
    3.9887   -6.4333    0.0000 C   0  0  0  0  0  0  0  0  0  0  0  0
    0.6005   -3.9887    0.0000 C   0  0  0  0  0  0  0  0  0  0  0  0
    1.4582   -2.8307    0.0000 C   0  0  0  0  0  0  0  0  0  0  0  0
    0.6862   -3.1309    0.0000 C   0  0  0  0  0  0  0  0  0  0  0  0
    4.8465   -7.8487    0.0000 C   0  0  0  0  0  0  0  0  0  0  0  0
    3.6027   -7.1624    0.0000 C   0  0  0  0  0  0  0  0  0  0  0  0
    4.0316   -7.8487    0.0000 C   0  0  0  0  0  0  0  0  0  0  0  0
  1 27  1  0  0  0  0
  2 35  1  0  0  0  0
  3 38  1  0  0  0  0
  4 13  1  0  0  0  0
  4 17  1  0  0  0  0
  5 15  2  0  0  0  0
  6 11  1  0  0  0  0
  7 11  2  0  0  0  0
  8 12  1  0  0  0  0
  8 15  1  0  0  0  0
  8 19  1  0  0  0  0
  9 10  1  0  0  0  0
  9 13  2  0  0  0  0
 10 17  2  0  0  0  0
 11 20  1  0  0  0  0
 12 13  1  0  0  0  0
 12 22  1  0  0  0  0
 14 16  1  0  0  0  0
 14 18  2  0  0  0  0
 14 21  1  0  0  0  0
 15 18  1  0  0  0  0
 16 20  1  0  0  0  0
 16 24  2  0  0  0  0
 17 23  1  0  0  0  0
 19 21  2  0  0  0  0
 20 26  2  0  0  0  0
 22 25  1  0  0  0  0
 23 29  2  0  0  0  0
 23 30  1  0  0  0  0
 24 27  1  0  0  0  0
 25 31  2  0  0  0  0
 25 32  1  0  0  0  0
 26 28  1  0  0  0  0
 27 28  2  0  0  0  0
 29 33  1  0  0  0  0
 30 34  2  0  0  0  0
 31 36  1  0  0  0  0
 32 37  2  0  0  0  0
 33 35  2  0  0  0  0
 34 35  1  0  0  0  0
 36 38  2  0  0  0  0
 37 38  1  0  0  0  0
M  CHG  2   6  -1  11   1
M  END
> <PUBCHEM_COMPOUND_ID_TYPE>
0

> <PUBCHEM_TOTAL_CHARGE>
0

> <PUBCHEM_SUBSTANCE_ID>
310934063

> <PUBCHEM_SUBSTANCE_VERSION>
1

> <PUBCHEM_EXT_DATASOURCE_NAME>
4488

> <PUBCHEM_EXT_DATASOURCE_REGID>
SCHEMBL16111507

> <PUBCHEM_SUBSTANCE_COMMENT>
InChI=1S/C27H17ClF2N4O4/c28-19-5-10-23(34(36)37)22(15-19)18-11-12-33(25(35)14-18)24(13-16-1-6-20(29)7-2-16)27-32-31-26(38-27)17-3-8-21(30)9-4-17/h1-12,14-15,24H,13H2
InChIKey=ZNZCJXKOGRGLGI-UHFFFAOYSA-N

> <PUBCHEM_SUBSTANCE_SYNONYM>
SCHEMBL16111507

> <PUBCHEM_XREF_EXT_ID>
SCHEMBL16111507

> <PUBCHEM_EXT_DATASOURCE_URL>
https://www.surechembl.org/

> <PUBCHEM_EXT_SUBSTANCE_URL>
https://www.surechembl.org/chemical/SCHEMBL16111507

> <PUBCHEM_CID_ASSOCIATIONS>
117602354  1

> <PUBCHEM_COORDINATE_TYPE>
1
3

$$$$
