310935674
  -OEChem-07211613022D

 24 26  0     1  0  0  0  0  0999 V2000
   -2.0899    0.3077    0.0000 F   0  0  0  0  0  0  0  0  0  0  0  0
    0.8526    0.3930    0.0000 O   0  0  0  0  0  0  0  0  0  0  0  0
    2.0049    0.2990    0.0000 O   0  0  0  0  0  0  0  0  0  0  0  0
    1.5999   -0.4197    0.0000 N   0  0  0  0  0  0  0  0  0  0  0  0
    2.5728   -3.6653    0.0000 N   0  0  0  0  0  0  0  0  0  0  0  0
    1.4167   -4.5052    0.0000 N   0  0  0  0  0  0  0  0  0  0  0  0
    0.3700   -1.1471    0.0000 C   0  0  3  0  0  0  0  0  0  0  0  0
   -0.0350   -0.4284    0.0000 C   0  0  0  0  0  0  0  0  0  0  0  0
    1.0374   -1.6320    0.0000 C   0  0  0  0  0  0  0  0  0  0  0  0
    0.7750   -0.4284    0.0000 C   0  0  0  0  0  0  0  0  0  0  0  0
    0.7825   -2.4167    0.0000 C   0  0  0  0  0  0  0  0  0  0  0  0
   -0.2975   -1.6320    0.0000 C   0  0  0  0  0  0  0  0  0  0  0  0
   -0.8600   -0.4197    0.0000 C   0  0  0  0  0  0  0  0  0  0  0  0
   -0.0425   -2.4167    0.0000 C   0  0  0  0  0  0  0  0  0  0  0  0
    1.2674   -3.0841    0.0000 C   0  0  0  0  0  0  0  0  0  0  0  0
    0.3849    0.2817    0.0000 C   0  0  0  0  0  0  0  0  0  0  0  0
   -1.2650    0.2990    0.0000 C   0  0  0  0  0  0  0  0  0  0  0  0
   -0.0201    1.0005    0.0000 C   0  0  0  0  0  0  0  0  0  0  0  0
   -0.8450    1.0091    0.0000 C   0  0  0  0  0  0  0  0  0  0  0  0
    2.0879   -2.9979    0.0000 C   0  0  0  0  0  0  0  0  0  0  0  0
    0.9318   -3.8378    0.0000 C   0  0  0  0  0  0  0  0  0  0  0  0
   -1.2799   -1.1298    0.0000 C   0  0  0  0  0  0  0  0  0  0  0  0
    2.2372   -4.4190    0.0000 C   0  0  0  0  0  0  0  0  0  0  0  0
    2.7222   -5.0864    0.0000 C   0  0  0  0  0  0  0  0  0  0  0  0
  1 17  1  0  0  0  0
  2 10  2  0  0  0  0
  3  4  1  0  0  0  0
  4 10  1  0  0  0  0
  5 20  2  0  0  0  0
  5 23  1  0  0  0  0
  6 21  1  0  0  0  0
  6 23  2  0  0  0  0
  7  8  1  0  0  0  0
  7  9  1  0  0  0  0
  7 10  1  0  0  0  0
  7 12  1  0  0  0  0
  8 13  2  0  0  0  0
  8 16  1  0  0  0  0
  9 11  2  0  0  0  0
 11 14  1  0  0  0  0
 11 15  1  0  0  0  0
 12 14  1  0  0  0  0
 13 17  1  0  0  0  0
 13 22  1  0  0  0  0
 15 20  1  0  0  0  0
 15 21  2  0  0  0  0
 16 18  2  0  0  0  0
 17 19  2  0  0  0  0
 18 19  1  0  0  0  0
 23 24  1  0  0  0  0
M  END
> <PUBCHEM_COMPOUND_ID_TYPE>
0

> <PUBCHEM_TOTAL_CHARGE>
0

> <PUBCHEM_SUBSTANCE_ID>
310935674

> <PUBCHEM_SUBSTANCE_VERSION>
1

> <PUBCHEM_EXT_DATASOURCE_NAME>
4488

> <PUBCHEM_EXT_DATASOURCE_REGID>
SCHEMBL16113256

> <PUBCHEM_SUBSTANCE_COMMENT>
InChI=1S/C18H18FN3O2/c1-11-15(4-3-5-16(11)19)18(17(23)22-24)7-6-13(8-18)14-9-20-12(2)21-10-14/h3-5,8-10,24H,6-7H2,1-2H3,(H,22,23)
InChIKey=MXGUWZUPIAJYLA-UHFFFAOYSA-N

> <PUBCHEM_SUBSTANCE_SYNONYM>
SCHEMBL16113256

> <PUBCHEM_XREF_EXT_ID>
SCHEMBL16113256

> <PUBCHEM_EXT_DATASOURCE_URL>
https://www.surechembl.org/

> <PUBCHEM_EXT_SUBSTANCE_URL>
https://www.surechembl.org/chemical/SCHEMBL16113256

> <PUBCHEM_CID_ASSOCIATIONS>
117603684  1

> <PUBCHEM_COORDINATE_TYPE>
1
3

$$$$
