310935162
  -OEChem-07211613022D

 27 30  0     1  0  0  0  0  0999 V2000
    0.4125   -1.4118    0.0000 F   0  0  0  0  0  0  0  0  0  0  0  0
    2.5559    3.1257    0.0000 F   0  0  0  0  0  0  0  0  0  0  0  0
    0.2890    1.6444    0.0000 O   0  0  0  0  0  0  0  0  0  0  0  0
   -1.6876    2.5705    0.0000 O   0  0  0  0  0  0  0  0  0  0  0  0
    3.2704    1.0632    0.0000 N   0  0  0  0  0  0  0  0  0  0  0  0
   -0.8671    2.4843    0.0000 N   0  0  0  0  0  0  0  0  0  0  0  0
   -1.0164    1.0632    0.0000 C   0  0  3  0  0  0  0  0  0  0  0  0
   -0.3020    0.6507    0.0000 C   0  0  0  0  0  0  0  0  0  0  0  0
    1.1270    0.6507    0.0000 C   0  0  0  0  0  0  0  0  0  0  0  0
   -0.3020   -0.1743    0.0000 C   0  0  0  0  0  0  0  0  0  0  0  0
    1.8414    1.0632    0.0000 C   0  0  0  0  0  0  0  0  0  0  0  0
    0.4125    1.0632    0.0000 C   0  0  0  0  0  0  0  0  0  0  0  0
   -0.5315    1.7306    0.0000 C   0  0  0  0  0  0  0  0  0  0  0  0
    2.5559    0.6507    0.0000 C   0  0  0  0  0  0  0  0  0  0  0  0
    0.4125   -0.5868    0.0000 C   0  0  0  0  0  0  0  0  0  0  0  0
   -1.3520    0.3095    0.0000 C   0  0  0  0  0  0  0  0  0  0  0  0
   -1.6295    1.6152    0.0000 C   0  0  0  0  0  0  0  0  0  0  0  0
    1.1270   -0.1743    0.0000 C   0  0  0  0  0  0  0  0  0  0  0  0
    2.5559   -0.1743    0.0000 C   0  0  0  0  0  0  0  0  0  0  0  0
    1.8414    1.8882    0.0000 C   0  0  0  0  0  0  0  0  0  0  0  0
   -2.1725    0.3957    0.0000 C   0  0  0  0  0  0  0  0  0  0  0  0
   -2.3440    1.2027    0.0000 C   0  0  0  0  0  0  0  0  0  0  0  0
    2.9684   -0.8888    0.0000 C   0  0  0  0  0  0  0  0  0  0  0  0
    2.1434   -0.8888    0.0000 C   0  0  0  0  0  0  0  0  0  0  0  0
    2.5559    2.3007    0.0000 C   0  0  0  0  0  0  0  0  0  0  0  0
   -1.0164   -0.5868    0.0000 C   0  0  0  0  0  0  0  0  0  0  0  0
    3.2704    1.8882    0.0000 C   0  0  0  0  0  0  0  0  0  0  0  0
  1 15  1  0  0  0  0
  2 25  1  0  0  0  0
  3 13  2  0  0  0  0
  4  6  1  0  0  0  0
  5 14  2  0  0  0  0
  5 27  1  0  0  0  0
  6 13  1  0  0  0  0
  7  8  1  0  0  0  0
  7 13  1  0  0  0  0
  7 16  1  0  0  0  0
  7 17  1  0  0  0  0
  8 10  2  0  0  0  0
  8 12  1  0  0  0  0
  9 11  1  0  0  0  0
  9 12  2  0  0  0  0
  9 18  1  0  0  0  0
 10 15  1  0  0  0  0
 10 26  1  0  0  0  0
 11 14  1  0  0  0  0
 11 20  2  0  0  0  0
 14 19  1  0  0  0  0
 15 18  2  0  0  0  0
 16 21  2  0  0  0  0
 17 22  1  0  0  0  0
 19 23  1  0  0  0  0
 19 24  1  0  0  0  0
 20 25  1  0  0  0  0
 21 22  1  0  0  0  0
 23 24  1  0  0  0  0
 25 27  2  0  0  0  0
M  END
> <PUBCHEM_COMPOUND_ID_TYPE>
0

> <PUBCHEM_TOTAL_CHARGE>
0

> <PUBCHEM_SUBSTANCE_ID>
310935162

> <PUBCHEM_SUBSTANCE_VERSION>
1

> <PUBCHEM_EXT_DATASOURCE_NAME>
4488

> <PUBCHEM_EXT_DATASOURCE_REGID>
SCHEMBL16112690

> <PUBCHEM_SUBSTANCE_COMMENT>
InChI=1S/C21H20F2N2O2/c1-12-17(21(20(26)25-27)6-2-3-7-21)8-14(9-18(12)23)16-10-15(22)11-24-19(16)13-4-5-13/h2,6,8-11,13,27H,3-5,7H2,1H3,(H,25,26)
InChIKey=QRMOBEWOVXCXLR-UHFFFAOYSA-N

> <PUBCHEM_SUBSTANCE_SYNONYM>
SCHEMBL16112690

> <PUBCHEM_XREF_EXT_ID>
SCHEMBL16112690

> <PUBCHEM_EXT_DATASOURCE_URL>
https://www.surechembl.org/

> <PUBCHEM_EXT_SUBSTANCE_URL>
https://www.surechembl.org/chemical/SCHEMBL16112690

> <PUBCHEM_CID_ASSOCIATIONS>
117603247  1

> <PUBCHEM_COORDINATE_TYPE>
1
3

$$$$
