310932073
  -OEChem-07211613022D

 22 23  0     1  0  0  0  0  0999 V2000
    3.2329   -6.0783    0.0000 Br  0  0  0  0  0  0  0  0  0  0  0  0
    3.9040   -4.5710    0.0000 F   0  0  0  0  0  0  0  0  0  0  0  0
    1.2932   -3.4086    0.0000 F   0  0  0  0  0  0  0  0  0  0  0  0
    1.5919   -6.2508    0.0000 F   0  0  0  0  0  0  0  0  0  0  0  0
    2.7041   -1.7840    0.0000 O   0  0  0  0  0  0  0  0  0  0  0  0
    3.6052   -1.7287    0.0000 O   0  0  0  0  0  0  0  0  0  0  0  0
    4.9106   -2.3099    0.0000 O   0  0  0  0  0  0  0  0  0  0  0  0
    1.6242   -2.5687    0.0000 N   0  0  0  0  0  0  0  0  0  0  0  0
    1.3693   -1.7840    0.0000 N   0  0  0  0  0  0  0  0  0  0  0  0
    2.5986   -3.9898    0.0000 C   0  0  0  0  0  0  0  0  0  0  0  0
    2.9341   -3.2361    0.0000 C   0  0  3  0  0  0  0  0  0  0  0  0
    3.0835   -4.6572    0.0000 C   0  0  0  0  0  0  0  0  0  0  0  0
    1.7781   -4.0760    0.0000 C   0  0  0  0  0  0  0  0  0  0  0  0
    2.7479   -5.4109    0.0000 C   0  0  0  0  0  0  0  0  0  0  0  0
    1.4425   -4.8297    0.0000 C   0  0  0  0  0  0  0  0  0  0  0  0
    1.9275   -5.4971    0.0000 C   0  0  0  0  0  0  0  0  0  0  0  0
    2.4492   -2.5687    0.0000 C   0  0  0  0  0  0  0  0  0  0  0  0
    3.7546   -3.1499    0.0000 C   0  0  0  0  0  0  0  0  0  0  0  0
    2.0367   -1.2991    0.0000 C   0  0  0  0  0  0  0  0  0  0  0  0
    0.6221   -4.9159    0.0000 C   0  0  0  0  0  0  0  0  0  0  0  0
    4.0902   -2.3962    0.0000 C   0  0  0  0  0  0  0  0  0  0  0  0
    2.0367   -0.4741    0.0000 C   0  0  0  0  0  0  0  0  0  0  0  0
  1 14  1  0  0  0  0
  2 12  1  0  0  0  0
  3 13  1  0  0  0  0
  4 16  1  0  0  0  0
  5 17  1  0  0  0  0
  5 19  1  0  0  0  0
  6 21  2  0  0  0  0
  7 21  1  0  0  0  0
  8  9  1  0  0  0  0
  8 17  2  0  0  0  0
  9 19  2  0  0  0  0
 10 11  1  0  0  0  0
 10 12  2  0  0  0  0
 10 13  1  0  0  0  0
 11 17  1  0  0  0  0
 11 18  1  0  0  0  0
 12 14  1  0  0  0  0
 13 15  2  0  0  0  0
 14 16  2  0  0  0  0
 15 16  1  0  0  0  0
 15 20  1  0  0  0  0
 18 21  1  0  0  0  0
 19 22  1  0  0  0  0
M  END
> <PUBCHEM_COMPOUND_ID_TYPE>
0

> <PUBCHEM_TOTAL_CHARGE>
0

> <PUBCHEM_SUBSTANCE_ID>
310932073

> <PUBCHEM_SUBSTANCE_VERSION>
1

> <PUBCHEM_EXT_DATASOURCE_NAME>
4488

> <PUBCHEM_EXT_DATASOURCE_REGID>
SCHEMBL16109420

> <PUBCHEM_SUBSTANCE_COMMENT>
InChI=1S/C13H10BrF3N2O3/c1-4-10(15)8(12(17)9(14)11(4)16)6(3-7(20)21)13-19-18-5(2)22-13/h6H,3H2,1-2H3,(H,20,21)
InChIKey=BZQSXTFPXIRXAJ-UHFFFAOYSA-N

> <PUBCHEM_SUBSTANCE_SYNONYM>
SCHEMBL16109420

> <PUBCHEM_XREF_EXT_ID>
SCHEMBL16109420

> <PUBCHEM_EXT_DATASOURCE_URL>
https://www.surechembl.org/

> <PUBCHEM_EXT_SUBSTANCE_URL>
https://www.surechembl.org/chemical/SCHEMBL16109420

> <PUBCHEM_CID_ASSOCIATIONS>
117600700  1

> <PUBCHEM_COORDINATE_TYPE>
1
3

$$$$
