310932231
  -OEChem-07211613022D

 27 30  0     1  0  0  0  0  0999 V2000
    0.6930   -3.3001    0.0000 O   0  0  0  0  0  0  0  0  0  0  0  0
    4.9832   -0.8251    0.0000 O   0  0  0  0  0  0  0  0  0  0  0  0
    2.1451   -3.3001    0.0000 N   0  0  0  0  0  0  0  0  0  0  0  0
    1.4190   -4.5212    0.0000 N   0  0  0  0  0  0  0  0  0  0  0  0
    2.1451   -4.9502    0.0000 C   0  0  3  0  0  0  0  0  0  0  0  0
    2.8381   -4.5212    0.0000 C   0  0  0  0  0  0  0  0  0  0  0  0
    2.8381   -3.6962    0.0000 C   0  0  0  0  0  0  0  0  0  0  0  0
    1.4190   -5.3462    0.0000 C   0  0  0  0  0  0  0  0  0  0  0  0
    1.4190   -3.6962    0.0000 C   0  0  0  0  0  0  0  0  0  0  0  0
    3.5311   -4.9502    0.0000 C   0  0  0  0  0  0  0  0  0  0  0  0
    3.5311   -3.3001    0.0000 C   0  0  0  0  0  0  0  0  0  0  0  0
    2.1451   -2.4751    0.0000 C   0  0  0  0  0  0  0  0  0  0  0  0
    2.1451   -5.7752    0.0000 C   0  0  0  0  0  0  0  0  0  0  0  0
    1.4190   -6.2043    0.0000 C   0  0  0  0  0  0  0  0  0  0  0  0
    0.6930   -4.9502    0.0000 C   0  0  0  0  0  0  0  0  0  0  0  0
    4.2572   -4.5212    0.0000 C   0  0  0  0  0  0  0  0  0  0  0  0
    2.8381   -2.0791    0.0000 C   0  0  0  0  0  0  0  0  0  0  0  0
    4.2572   -3.6962    0.0000 C   0  0  0  0  0  0  0  0  0  0  0  0
    0.7260   -6.6003    0.0000 C   0  0  0  0  0  0  0  0  0  0  0  0
    0.0000   -5.3793    0.0000 C   0  0  0  0  0  0  0  0  0  0  0  0
    3.5642   -2.4751    0.0000 C   0  0  0  0  0  0  0  0  0  0  0  0
    2.8381   -1.2541    0.0000 C   0  0  0  0  0  0  0  0  0  0  0  0
    0.0000   -6.2043    0.0000 C   0  0  0  0  0  0  0  0  0  0  0  0
    4.2902   -1.2541    0.0000 C   0  0  0  0  0  0  0  0  0  0  0  0
    4.2902   -2.0791    0.0000 C   0  0  0  0  0  0  0  0  0  0  0  0
    3.5642   -0.8251    0.0000 C   0  0  0  0  0  0  0  0  0  0  0  0
    4.9832    0.0000    0.0000 C   0  0  0  0  0  0  0  0  0  0  0  0
  1  9  2  0  0  0  0
  2 24  1  0  0  0  0
  2 27  1  0  0  0  0
  3  7  1  0  0  0  0
  3  9  1  0  0  0  0
  3 12  1  0  0  0  0
  4  5  1  0  0  0  0
  4  9  1  0  0  0  0
  5  6  1  0  0  0  0
  5  8  1  0  0  0  0
  5 13  1  0  0  0  0
  6  7  2  0  0  0  0
  6 10  1  0  0  0  0
  7 11  1  0  0  0  0
  8 14  2  0  0  0  0
  8 15  1  0  0  0  0
 10 16  2  0  0  0  0
 11 18  2  0  0  0  0
 12 17  1  0  0  0  0
 14 19  1  0  0  0  0
 15 20  2  0  0  0  0
 16 18  1  0  0  0  0
 17 21  2  0  0  0  0
 17 22  1  0  0  0  0
 19 23  2  0  0  0  0
 20 23  1  0  0  0  0
 21 25  1  0  0  0  0
 22 26  2  0  0  0  0
 24 25  2  0  0  0  0
 24 26  1  0  0  0  0
M  END
> <PUBCHEM_COMPOUND_ID_TYPE>
0

> <PUBCHEM_TOTAL_CHARGE>
0

> <PUBCHEM_SUBSTANCE_ID>
310932231

> <PUBCHEM_SUBSTANCE_VERSION>
1

> <PUBCHEM_EXT_DATASOURCE_NAME>
4488

> <PUBCHEM_EXT_DATASOURCE_REGID>
SCHEMBL16109588

> <PUBCHEM_SUBSTANCE_COMMENT>
InChI=1S/C23H22N2O2/c1-23(18-8-4-3-5-9-18)20-10-6-7-11-21(20)25(22(26)24-23)16-17-12-14-19(27-2)15-13-17/h3-15H,16H2,1-2H3,(H,24,26)
InChIKey=ZAJHPQYGAVNJGQ-UHFFFAOYSA-N

> <PUBCHEM_SUBSTANCE_SYNONYM>
SCHEMBL16109588

> <PUBCHEM_XREF_EXT_ID>
SCHEMBL16109588

> <PUBCHEM_EXT_DATASOURCE_URL>
https://www.surechembl.org/

> <PUBCHEM_EXT_SUBSTANCE_URL>
https://www.surechembl.org/chemical/SCHEMBL16109588

> <PUBCHEM_CID_ASSOCIATIONS>
117600812  1

> <PUBCHEM_COORDINATE_TYPE>
1
3

$$$$
