310941813
  -OEChem-07211613022D

 26 31  0     1  0  0  0  0  0999 V2000
    0.1244    0.1383    0.0000 O   0  0  0  0  0  0  0  0  0  0  0  0
    2.2957   -1.1063    0.0000 N   0  0  0  0  0  0  0  0  0  0  0  0
    3.0839   -0.0138    0.0000 N   0  0  0  0  0  0  0  0  0  0  0  0
    3.5679   -0.6915    0.0000 N   0  0  0  0  0  0  0  0  0  0  0  0
   -2.7381    0.1244    0.0000 C   0  0  3  0  0  0  0  0  0  0  0  0
   -2.4339   -0.2904    0.0000 C   0  0  3  0  0  0  0  0  0  0  0  0
   -2.5860    0.7606    0.0000 C   0  0  0  0  0  0  0  0  0  0  0  0
   -1.3137    0.1106    0.0000 C   0  0  0  0  0  0  0  0  0  0  0  0
   -3.0285   -0.5947    0.0000 C   0  0  0  0  0  0  0  0  0  0  0  0
   -1.6595   -0.5947    0.0000 C   0  0  0  0  0  0  0  0  0  0  0  0
   -2.0329   -0.2765    0.0000 C   0  0  0  0  0  0  0  0  0  0  0  0
   -2.0329    1.3552    0.0000 C   0  0  0  0  0  0  0  0  0  0  0  0
   -1.3137    0.9542    0.0000 C   0  0  0  0  0  0  0  0  0  0  0  0
   -0.5532   -0.2627    0.0000 C   0  0  0  0  0  0  0  0  0  0  0  0
   -3.5679    0.0830    0.0000 C   0  0  0  0  0  0  0  0  0  0  0  0
   -2.6828   -1.0787    0.0000 C   0  0  0  0  0  0  0  0  0  0  0  0
    0.8574   -0.2627    0.0000 C   0  0  0  0  0  0  0  0  0  0  0  0
   -2.0052    2.2126    0.0000 C   0  0  0  0  0  0  0  0  0  0  0  0
    0.8297   -1.1063    0.0000 C   0  0  0  0  0  0  0  0  0  0  0  0
    0.1106   -1.5212    0.0000 C   0  0  0  0  0  0  0  0  0  0  0  0
    2.2957   -0.2765    0.0000 C   0  0  0  0  0  0  0  0  0  0  0  0
    1.5627    0.1383    0.0000 C   0  0  0  0  0  0  0  0  0  0  0  0
    1.5627   -1.5073    0.0000 C   0  0  0  0  0  0  0  0  0  0  0  0
   -0.6776   -1.5350    0.0000 C   0  0  0  0  0  0  0  0  0  0  0  0
   -0.2765   -2.2126    0.0000 C   0  0  0  0  0  0  0  0  0  0  0  0
    3.0839   -1.3552    0.0000 C   0  0  0  0  0  0  0  0  0  0  0  0
  1 14  1  0  0  0  0
  1 17  1  0  0  0  0
  2 21  1  0  0  0  0
  2 23  1  0  0  0  0
  2 26  1  0  0  0  0
  3  4  1  0  0  0  0
  3 21  2  0  0  0  0
  4 26  2  0  0  0  0
  5  7  1  0  0  0  0
  5  9  1  0  0  0  0
  5 11  1  0  0  0  0
  5 15  1  0  0  0  0
  6  7  1  0  0  0  0
  6  9  1  0  0  0  0
  6 10  1  0  0  0  0
  6 16  1  0  0  0  0
  7 12  2  0  0  0  0
  8 10  1  0  0  0  0
  8 11  1  0  0  0  0
  8 13  1  0  0  0  0
  8 14  1  0  0  0  0
 12 13  1  0  0  0  0
 12 18  1  0  0  0  0
 17 19  1  0  0  0  0
 17 22  2  0  0  0  0
 19 20  1  0  0  0  0
 19 23  2  0  0  0  0
 20 24  1  0  0  0  0
 20 25  1  0  0  0  0
 21 22  1  0  0  0  0
 24 25  1  0  0  0  0
M  END
> <PUBCHEM_COMPOUND_ID_TYPE>
0

> <PUBCHEM_TOTAL_CHARGE>
0

> <PUBCHEM_SUBSTANCE_ID>
310941813

> <PUBCHEM_SUBSTANCE_VERSION>
1

> <PUBCHEM_EXT_DATASOURCE_NAME>
4488

> <PUBCHEM_EXT_DATASOURCE_REGID>
SCHEMBL16119845

> <PUBCHEM_SUBSTANCE_COMMENT>
InChI=1S/C22H27N3O/c1-14-7-22(10-20(2)9-21(3,11-22)19(14)20)12-26-17-6-18-24-23-13-25(18)8-16(17)15-4-5-15/h6,8,13,15H,4-5,7,9-12H2,1-3H3
InChIKey=GXWWEFUFMJOPKD-UHFFFAOYSA-N

> <PUBCHEM_SUBSTANCE_SYNONYM>
SCHEMBL16119845

> <PUBCHEM_XREF_EXT_ID>
SCHEMBL16119845

> <PUBCHEM_EXT_DATASOURCE_URL>
https://www.surechembl.org/

> <PUBCHEM_EXT_SUBSTANCE_URL>
https://www.surechembl.org/chemical/SCHEMBL16119845

> <PUBCHEM_CID_ASSOCIATIONS>
117608560  1

> <PUBCHEM_COORDINATE_TYPE>
1
3

$$$$
