310946400
  -OEChem-07211613022D

 26 30  0     1  0  0  0  0  0999 V2000
    2.6424   11.8349    0.0000 S   0  0  0  0  0  0  0  0  0  0  0  0
    1.0731   11.8349    0.0000 N   0  0  0  0  0  0  0  0  0  0  0  0
    1.0731   10.5000    0.0000 N   0  0  0  0  0  0  0  0  0  0  0  0
   -2.7439   10.0405    0.0000 N   0  0  0  0  0  0  0  0  0  0  0  0
   -1.9592    9.7856    0.0000 N   0  0  0  0  0  0  0  0  0  0  0  0
   -1.9592   11.1204    0.0000 N   0  0  0  0  0  0  0  0  0  0  0  0
    3.9478   11.0812    0.0000 N   0  0  0  0  0  0  0  0  0  0  0  0
   -4.1728   10.8655    0.0000 N   0  0  0  0  0  0  0  0  0  0  0  0
    1.8577   10.7550    0.0000 C   0  0  3  0  0  0  0  0  0  0  0  0
    1.8577   11.5800    0.0000 C   0  0  3  0  0  0  0  0  0  0  0  0
    2.6424   10.5000    0.0000 C   0  0  0  0  0  0  0  0  0  0  0  0
    3.1273   11.1675    0.0000 C   0  0  0  0  0  0  0  0  0  0  0  0
    0.5882   11.1675    0.0000 C   0  0  0  0  0  0  0  0  0  0  0  0
   -2.7439   10.8655    0.0000 C   0  0  0  0  0  0  0  0  0  0  0  0
   -1.4743   10.4530    0.0000 C   0  0  0  0  0  0  0  0  0  0  0  0
   -0.2368   11.1675    0.0000 C   0  0  0  0  0  0  0  0  0  0  0  0
    2.9779    9.7463    0.0000 C   0  0  0  0  0  0  0  0  0  0  0  0
   -3.4583    9.6280    0.0000 C   0  0  0  0  0  0  0  0  0  0  0  0
   -3.4583   11.2780    0.0000 C   0  0  0  0  0  0  0  0  0  0  0  0
   -0.6493   10.4530    0.0000 C   0  0  0  0  0  0  0  0  0  0  0  0
    0.6606   12.5494    0.0000 C   0  0  0  0  0  0  0  0  0  0  0  0
    3.7984    9.6601    0.0000 C   0  0  0  0  0  0  0  0  0  0  0  0
   -4.1728   10.0405    0.0000 C   0  0  0  0  0  0  0  0  0  0  0  0
    4.2833   10.3276    0.0000 C   0  0  0  0  0  0  0  0  0  0  0  0
   -3.4583    8.8030    0.0000 C   0  0  0  0  0  0  0  0  0  0  0  0
   -3.4583   12.1030    0.0000 C   0  0  0  0  0  0  0  0  0  0  0  0
  1 10  1  0  0  0  0
  1 12  1  0  0  0  0
  2 10  1  0  0  0  0
  2 13  1  0  0  0  0
  2 21  1  0  0  0  0
  3  9  1  0  0  0  0
  3 13  2  0  0  0  0
  4  5  1  0  0  0  0
  4 14  1  0  0  0  0
  4 18  1  0  0  0  0
  5 15  2  0  0  0  0
  6 14  2  0  0  0  0
  6 15  1  0  0  0  0
  7 12  1  0  0  0  0
  7 24  2  0  0  0  0
  8 19  2  0  0  0  0
  8 23  1  0  0  0  0
  9 10  1  0  0  0  0
  9 11  1  0  0  0  0
 11 12  2  0  0  0  0
 11 17  1  0  0  0  0
 13 16  1  0  0  0  0
 14 19  1  0  0  0  0
 15 20  1  0  0  0  0
 16 20  1  0  0  0  0
 17 22  2  0  0  0  0
 18 23  2  0  0  0  0
 18 25  1  0  0  0  0
 19 26  1  0  0  0  0
 22 24  1  0  0  0  0
M  END
> <PUBCHEM_COMPOUND_ID_TYPE>
0

> <PUBCHEM_TOTAL_CHARGE>
0

> <PUBCHEM_SUBSTANCE_ID>
310946400

> <PUBCHEM_SUBSTANCE_VERSION>
1

> <PUBCHEM_EXT_DATASOURCE_NAME>
4488

> <PUBCHEM_EXT_DATASOURCE_REGID>
SCHEMBL16124521

> <PUBCHEM_SUBSTANCE_COMMENT>
InChI=1S/C18H19N7S/c1-10-9-20-11(2)16-21-13(23-25(10)16)6-7-14-22-15-12-5-4-8-19-17(12)26-18(15)24(14)3/h4-5,8-9,15,18H,6-7H2,1-3H3
InChIKey=KJYWBOBHNHMIMQ-UHFFFAOYSA-N

> <PUBCHEM_SUBSTANCE_SYNONYM>
SCHEMBL16124521

> <PUBCHEM_XREF_EXT_ID>
SCHEMBL16124521

> <PUBCHEM_EXT_DATASOURCE_URL>
https://www.surechembl.org/

> <PUBCHEM_EXT_SUBSTANCE_URL>
https://www.surechembl.org/chemical/SCHEMBL16124521

> <PUBCHEM_CID_ASSOCIATIONS>
86270678  1

> <PUBCHEM_COORDINATE_TYPE>
1
3

$$$$
