310932522
  -OEChem-07211613022D

 18 19  0     1  0  0  0  0  0999 V2000
    2.7580   -1.6030    0.0000 O   0  0  0  0  0  0  0  0  0  0  0  0
    3.8895   -3.5594    0.0000 O   0  0  0  0  0  0  0  0  0  0  0  0
    4.5966   -2.3337    0.0000 O   0  0  0  0  0  0  0  0  0  0  0  0
    2.3573   -2.3337    0.0000 C   0  0  3  0  0  0  0  0  0  0  0  0
    3.1823   -2.3337    0.0000 C   0  0  3  0  0  0  0  0  0  0  0  0
    1.7679   -1.7443    0.0000 C   0  0  0  0  0  0  0  0  0  0  0  0
    3.8895   -2.7344    0.0000 C   0  0  0  0  0  0  0  0  0  0  0  0
    1.6265   -2.7344    0.0000 C   0  0  0  0  0  0  0  0  0  0  0  0
    0.9429   -1.9565    0.0000 C   0  0  0  0  0  0  0  0  0  0  0  0
    1.9565   -0.9429    0.0000 C   0  0  0  0  0  0  0  0  0  0  0  0
    4.5966   -3.9837    0.0000 C   0  0  0  0  0  0  0  0  0  0  0  0
    0.3772   -1.3908    0.0000 C   0  0  0  0  0  0  0  0  0  0  0  0
    1.3908   -0.3772    0.0000 C   0  0  0  0  0  0  0  0  0  0  0  0
    0.5893   -0.5893    0.0000 C   0  0  0  0  0  0  0  0  0  0  0  0
    4.1724   -4.7145    0.0000 C   0  0  0  0  0  0  0  0  0  0  0  0
    5.3038   -4.3845    0.0000 C   0  0  0  0  0  0  0  0  0  0  0  0
    4.9974   -3.2766    0.0000 C   0  0  0  0  0  0  0  0  0  0  0  0
    0.0000    0.0000    0.0000 C   0  0  0  0  0  0  0  0  0  0  0  0
  1  4  1  0  0  0  0
  1  5  1  0  0  0  0
  2  7  1  0  0  0  0
  2 11  1  0  0  0  0
  3  7  2  0  0  0  0
  4  5  1  0  0  0  0
  4  6  1  0  0  0  0
  4  8  1  0  0  0  0
  5  7  1  0  0  0  0
  6  9  2  0  0  0  0
  6 10  1  0  0  0  0
  9 12  1  0  0  0  0
 10 13  2  0  0  0  0
 11 15  1  0  0  0  0
 11 16  1  0  0  0  0
 11 17  1  0  0  0  0
 12 14  2  0  0  0  0
 13 14  1  0  0  0  0
 14 18  1  0  0  0  0
M  END
> <PUBCHEM_COMPOUND_ID_TYPE>
0

> <PUBCHEM_TOTAL_CHARGE>
0

> <PUBCHEM_SUBSTANCE_ID>
310932522

> <PUBCHEM_SUBSTANCE_VERSION>
1

> <PUBCHEM_EXT_DATASOURCE_NAME>
4488

> <PUBCHEM_EXT_DATASOURCE_REGID>
SCHEMBL16109897

> <PUBCHEM_SUBSTANCE_COMMENT>
InChI=1S/C15H20O3/c1-10-6-8-11(9-7-10)15(5)12(17-15)13(16)18-14(2,3)4/h6-9,12H,1-5H3
InChIKey=LNIBFDZYULKPFS-UHFFFAOYSA-N

> <PUBCHEM_SUBSTANCE_SYNONYM>
SCHEMBL16109897

> <PUBCHEM_XREF_EXT_ID>
SCHEMBL16109897

> <PUBCHEM_EXT_DATASOURCE_URL>
https://www.surechembl.org/

> <PUBCHEM_EXT_SUBSTANCE_URL>
https://www.surechembl.org/chemical/SCHEMBL16109897

> <PUBCHEM_CID_ASSOCIATIONS>
12400742  1

> <PUBCHEM_COORDINATE_TYPE>
1
3

$$$$
