310931062
  -OEChem-07211613022D

 23 23  0     1  0  0  0  0  0999 V2000
    0.4572    4.0018    0.0000 F   0  0  0  0  0  0  0  0  0  0  0  0
    2.1072    4.0018    0.0000 F   0  0  0  0  0  0  0  0  0  0  0  0
    0.4572    3.1768    0.0000 F   0  0  0  0  0  0  0  0  0  0  0  0
    2.1072    3.1768    0.0000 F   0  0  0  0  0  0  0  0  0  0  0  0
    1.2822    5.6518    0.0000 F   0  0  0  0  0  0  0  0  0  0  0  0
    0.4572    4.8268    0.0000 F   0  0  0  0  0  0  0  0  0  0  0  0
    2.1072    4.8268    0.0000 F   0  0  0  0  0  0  0  0  0  0  0  0
    0.5678    1.9393    0.0000 O   0  0  0  0  0  0  0  0  0  0  0  0
    1.9967    1.9393    0.0000 O   0  0  0  0  0  0  0  0  0  0  0  0
   -0.0997    0.6294    0.0000 N   0  0  3  0  0  0  0  0  0  0  0  0
    1.2352    0.6294    0.0000 N   0  0  0  0  0  0  0  0  0  0  0  0
    1.2822    4.0018    0.0000 C   0  0  0  0  0  0  0  0  0  0  0  0
    1.2822    3.1768    0.0000 C   0  0  0  0  0  0  0  0  0  0  0  0
    1.2822    4.8268    0.0000 C   0  0  0  0  0  0  0  0  0  0  0  0
    1.2822    2.3518    0.0000 C   0  0  0  0  0  0  0  0  0  0  0  0
    0.5678    1.1143    0.0000 C   0  0  3  0  0  0  0  0  0  0  0  0
    0.1553   -0.1553    0.0000 C   0  0  0  0  0  0  0  0  0  0  0  0
    0.9803   -0.1553    0.0000 C   0  0  0  0  0  0  0  0  0  0  0  0
   -0.8843    0.8843    0.0000 C   0  0  0  0  0  0  0  0  0  0  0  0
    2.0198    0.8843    0.0000 C   0  0  0  0  0  0  0  0  0  0  0  0
   -1.0558    1.6913    0.0000 C   0  0  0  0  0  0  0  0  0  0  0  0
    2.6329    0.3323    0.0000 C   0  0  0  0  0  0  0  0  0  0  0  0
   -1.8405    1.9462    0.0000 C   0  0  0  0  0  0  0  0  0  0  0  0
  1 12  1  0  0  0  0
  2 12  1  0  0  0  0
  3 13  1  0  0  0  0
  4 13  1  0  0  0  0
  5 14  1  0  0  0  0
  6 14  1  0  0  0  0
  7 14  1  0  0  0  0
  8 15  1  0  0  0  0
  8 16  1  0  0  0  0
  9 15  2  0  0  0  0
 10 16  1  0  0  0  0
 10 17  1  0  0  0  0
 10 19  1  0  0  0  0
 11 16  1  0  0  0  0
 11 18  1  0  0  0  0
 11 20  1  0  0  0  0
 12 13  1  0  0  0  0
 12 14  1  0  0  0  0
 13 15  1  0  0  0  0
 17 18  2  0  0  0  0
 19 21  1  0  0  0  0
 20 22  2  0  0  0  0
 21 23  2  0  0  0  0
M  END
> <PUBCHEM_COMPOUND_ID_TYPE>
0

> <PUBCHEM_TOTAL_CHARGE>
0

> <PUBCHEM_SUBSTANCE_ID>
310931062

> <PUBCHEM_SUBSTANCE_VERSION>
1

> <PUBCHEM_EXT_DATASOURCE_NAME>
4488

> <PUBCHEM_EXT_DATASOURCE_REGID>
SCHEMBL16108365

> <PUBCHEM_SUBSTANCE_COMMENT>
InChI=1S/C12H11F7N2O2/c1-3-5-21-7-6-20(4-2)9(21)23-8(22)10(13,14)11(15,16)12(17,18)19/h3-4,6-7,9H,1-2,5H2
InChIKey=RXNYCRKGVGTIGF-UHFFFAOYSA-N

> <PUBCHEM_SUBSTANCE_SYNONYM>
SCHEMBL16108365

> <PUBCHEM_XREF_EXT_ID>
SCHEMBL16108365

> <PUBCHEM_EXT_DATASOURCE_URL>
https://www.surechembl.org/

> <PUBCHEM_EXT_SUBSTANCE_URL>
https://www.surechembl.org/chemical/SCHEMBL16108365

> <PUBCHEM_CID_ASSOCIATIONS>
117599969  1

> <PUBCHEM_COORDINATE_TYPE>
1
3

$$$$
