310946801
  -OEChem-07211613022D

 20 21  0     1  0  0  0  0  0999 V2000
   -1.8395    3.4391    0.0000 N   0  0  0  0  0  0  0  0  0  0  0  0
   -2.1109    0.6399    0.0000 N   0  0  0  0  0  0  0  0  0  0  0  0
   -2.6241    3.1841    0.0000 N   0  0  0  0  0  0  0  0  0  0  0  0
   -1.6260   -0.0276    0.0000 N   0  0  0  0  0  0  0  0  0  0  0  0
    0.5876    1.0524    0.0000 N   0  0  3  0  0  0  0  0  0  0  0  0
   -1.6260    1.3073    0.0000 C   0  0  0  0  0  0  0  0  0  0  0  0
   -1.8395    2.1042    0.0000 C   0  0  0  0  0  0  0  0  0  0  0  0
   -0.8414    1.0524    0.0000 C   0  0  0  0  0  0  0  0  0  0  0  0
   -1.3546    2.7716    0.0000 C   0  0  0  0  0  0  0  0  0  0  0  0
   -2.6241    2.3591    0.0000 C   0  0  0  0  0  0  0  0  0  0  0  0
   -0.8414    0.2274    0.0000 C   0  0  0  0  0  0  0  0  0  0  0  0
   -0.1269    1.4649    0.0000 C   0  0  0  0  0  0  0  0  0  0  0  0
   -1.4270    4.1535    0.0000 C   0  0  0  0  0  0  0  0  0  0  0  0
   -0.6020    4.1535    0.0000 C   0  0  0  0  0  0  0  0  0  0  0  0
    1.3021    1.4649    0.0000 C   0  0  0  0  0  0  0  0  0  0  0  0
    0.5876    0.2274    0.0000 C   0  0  0  0  0  0  0  0  0  0  0  0
   -0.1895    4.8680    0.0000 C   0  0  0  0  0  0  0  0  0  0  0  0
   -0.1895    3.4391    0.0000 C   0  0  0  0  0  0  0  0  0  0  0  0
    2.0165    1.0524    0.0000 C   0  0  0  0  0  0  0  0  0  0  0  0
    2.7310    1.4649    0.0000 C   0  0  0  0  0  0  0  0  0  0  0  0
  1  3  1  0  0  0  0
  1  9  1  0  0  0  0
  1 13  1  0  0  0  0
  2  4  1  0  0  0  0
  2  6  2  0  0  0  0
  3 10  2  0  0  0  0
  4 11  1  0  0  0  0
  5 12  1  0  0  0  0
  5 15  1  0  0  0  0
  5 16  1  0  0  0  0
  6  7  1  0  0  0  0
  6  8  1  0  0  0  0
  7  9  2  0  0  0  0
  7 10  1  0  0  0  0
  8 11  2  0  0  0  0
  8 12  1  0  0  0  0
 13 14  1  0  0  0  0
 14 17  1  0  0  0  0
 14 18  1  0  0  0  0
 15 19  1  0  0  0  0
 19 20  1  0  0  0  0
M  END
> <PUBCHEM_COMPOUND_ID_TYPE>
0

> <PUBCHEM_TOTAL_CHARGE>
0

> <PUBCHEM_SUBSTANCE_ID>
310946801

> <PUBCHEM_SUBSTANCE_VERSION>
1

> <PUBCHEM_EXT_DATASOURCE_NAME>
4488

> <PUBCHEM_EXT_DATASOURCE_REGID>
SCHEMBL16124925

> <PUBCHEM_SUBSTANCE_COMMENT>
InChI=1S/C15H25N5/c1-5-6-19(4)10-13-7-16-18-15(13)14-8-17-20(11-14)9-12(2)3/h7-8,11-12H,5-6,9-10H2,1-4H3,(H,16,18)
InChIKey=YFOMAYTYBYGRGU-UHFFFAOYSA-N

> <PUBCHEM_SUBSTANCE_SYNONYM>
SCHEMBL16124925

> <PUBCHEM_XREF_EXT_ID>
SCHEMBL16124925

> <PUBCHEM_EXT_DATASOURCE_URL>
https://www.surechembl.org/

> <PUBCHEM_EXT_SUBSTANCE_URL>
https://www.surechembl.org/chemical/SCHEMBL16124925

> <PUBCHEM_CID_ASSOCIATIONS>
117612662  1

> <PUBCHEM_COORDINATE_TYPE>
1
3

$$$$
