310937238
  -OEChem-07211613022D

 42 45  0     1  0  0  0  0  0999 V2000
  -10.0026   -0.8250    0.0000 O   0  0  0  0  0  0  0  0  0  0  0  0
   -5.0013   -1.2375    0.0000 O   0  0  0  0  0  0  0  0  0  0  0  0
   -5.0013    1.2375    0.0000 O   0  0  0  0  0  0  0  0  0  0  0  0
   -4.2868    0.0000    0.0000 O   0  0  0  0  0  0  0  0  0  0  0  0
  -14.2894    2.4750    0.0000 O   0  0  0  0  0  0  0  0  0  0  0  0
   -8.6207    1.7224    0.0000 N   0  0  0  0  0  0  0  0  0  0  0  0
   -8.5736    0.0000    0.0000 N   0  0  0  0  0  0  0  0  0  0  0  0
   -9.9556    1.7224    0.0000 N   0  0  0  0  0  0  0  0  0  0  0  0
  -10.7170    1.2375    0.0000 N   0  0  0  0  0  0  0  0  0  0  0  0
  -15.0039    1.2375    0.0000 N   0  0  0  0  0  0  0  0  0  0  0  0
   -9.2881    0.4125    0.0000 C   0  0  3  0  0  0  0  0  0  0  0  0
   -9.2881    1.2375    0.0000 C   0  0  0  0  0  0  0  0  0  0  0  0
  -10.0026    0.0000    0.0000 C   0  0  0  0  0  0  0  0  0  0  0  0
   -8.8756    2.5071    0.0000 C   0  0  0  0  0  0  0  0  0  0  0  0
  -10.7170    0.4125    0.0000 C   0  0  3  0  0  0  0  0  0  0  0  0
   -9.7006    2.5071    0.0000 C   0  0  0  0  0  0  0  0  0  0  0  0
   -9.2881   -0.4125    0.0000 C   0  0  0  0  0  0  0  0  0  0  0  0
  -12.1460    0.4125    0.0000 C   0  0  0  0  0  0  0  0  0  0  0  0
   -8.3907    3.1745    0.0000 C   0  0  0  0  0  0  0  0  0  0  0  0
  -11.4316    0.0000    0.0000 C   0  0  0  0  0  0  0  0  0  0  0  0
   -7.8592    0.4125    0.0000 C   0  0  0  0  0  0  0  0  0  0  0  0
   -7.1447    0.0000    0.0000 C   0  0  0  0  0  0  0  0  0  0  0  0
  -12.8605    0.0000    0.0000 C   0  0  0  0  0  0  0  0  0  0  0  0
  -12.1460    1.2375    0.0000 C   0  0  0  0  0  0  0  0  0  0  0  0
   -5.7158    0.0000    0.0000 C   0  0  0  0  0  0  0  0  0  0  0  0
  -13.5750    1.2375    0.0000 C   0  0  0  0  0  0  0  0  0  0  0  0
   -6.4302    0.4125    0.0000 C   0  0  0  0  0  0  0  0  0  0  0  0
  -13.5750    0.4125    0.0000 C   0  0  0  0  0  0  0  0  0  0  0  0
  -12.8605    1.6500    0.0000 C   0  0  0  0  0  0  0  0  0  0  0  0
   -5.7158   -0.8250    0.0000 C   0  0  0  0  0  0  0  0  0  0  0  0
   -8.7263    3.9282    0.0000 C   0  0  0  0  0  0  0  0  0  0  0  0
   -7.5702    3.0883    0.0000 C   0  0  0  0  0  0  0  0  0  0  0  0
   -7.1447   -0.8250    0.0000 C   0  0  0  0  0  0  0  0  0  0  0  0
   -6.4302   -1.2375    0.0000 C   0  0  0  0  0  0  0  0  0  0  0  0
   -5.0013    0.4125    0.0000 C   0  0  0  0  0  0  0  0  0  0  0  0
  -14.2894    1.6500    0.0000 C   0  0  0  0  0  0  0  0  0  0  0  0
   -8.2413    4.5956    0.0000 C   0  0  0  0  0  0  0  0  0  0  0  0
   -7.0853    3.7557    0.0000 C   0  0  0  0  0  0  0  0  0  0  0  0
  -12.8605   -0.8250    0.0000 C   0  0  0  0  0  0  0  0  0  0  0  0
  -11.4316    1.6500    0.0000 C   0  0  0  0  0  0  0  0  0  0  0  0
   -7.4209    4.5093    0.0000 C   0  0  0  0  0  0  0  0  0  0  0  0
   -4.2868   -0.8250    0.0000 C   0  0  0  0  0  0  0  0  0  0  0  0
  1 13  2  0  0  0  0
  2 30  1  0  0  0  0
  2 42  1  0  0  0  0
  3 35  2  0  0  0  0
  4 35  1  0  0  0  0
  5 36  2  0  0  0  0
  6 12  2  0  0  0  0
  6 14  1  0  0  0  0
  7 11  1  0  0  0  0
  7 21  1  0  0  0  0
  8 12  1  0  0  0  0
  8 16  1  0  0  0  0
  9 15  1  0  0  0  0
 10 36  1  0  0  0  0
 11 12  1  0  0  0  0
 11 13  1  0  0  0  0
 11 17  1  0  0  0  0
 13 15  1  0  0  0  0
 14 16  2  0  0  0  0
 14 19  1  0  0  0  0
 15 20  1  0  0  0  0
 18 20  1  0  0  0  0
 18 23  2  0  0  0  0
 18 24  1  0  0  0  0
 19 31  2  0  0  0  0
 19 32  1  0  0  0  0
 21 22  1  0  0  0  0
 22 27  1  0  0  0  0
 22 33  2  0  0  0  0
 23 28  1  0  0  0  0
 23 39  1  0  0  0  0
 24 29  2  0  0  0  0
 24 40  1  0  0  0  0
 25 27  2  0  0  0  0
 25 30  1  0  0  0  0
 25 35  1  0  0  0  0
 26 28  2  0  0  0  0
 26 29  1  0  0  0  0
 26 36  1  0  0  0  0
 30 34  2  0  0  0  0
 31 37  1  0  0  0  0
 32 38  2  0  0  0  0
 33 34  1  0  0  0  0
 37 41  2  0  0  0  0
 38 41  1  0  0  0  0
M  END
> <PUBCHEM_COMPOUND_ID_TYPE>
0

> <PUBCHEM_TOTAL_CHARGE>
0

> <PUBCHEM_SUBSTANCE_ID>
310937238

> <PUBCHEM_SUBSTANCE_VERSION>
1

> <PUBCHEM_EXT_DATASOURCE_NAME>
4488

> <PUBCHEM_EXT_DATASOURCE_REGID>
SCHEMBL16114974

> <PUBCHEM_SUBSTANCE_COMMENT>
InChI=1S/C32H35N5O5/c1-18-12-22(29(34)39)13-19(2)23(18)15-25(33)28(38)32(3,31-35-17-26(37-31)21-8-6-5-7-9-21)36-16-20-10-11-27(42-4)24(14-20)30(40)41/h5-14,17,25,36H,15-16,33H2,1-4H3,(H2,34,39)(H,35,37)(H,40,41)
InChIKey=YFMGVEZNBKHNSX-UHFFFAOYSA-N

> <PUBCHEM_SUBSTANCE_SYNONYM>
SCHEMBL16114974

> <PUBCHEM_XREF_EXT_ID>
SCHEMBL16114974

> <PUBCHEM_EXT_DATASOURCE_URL>
https://www.surechembl.org/

> <PUBCHEM_EXT_SUBSTANCE_URL>
https://www.surechembl.org/chemical/SCHEMBL16114974

> <PUBCHEM_CID_ASSOCIATIONS>
117605039  1

> <PUBCHEM_COORDINATE_TYPE>
1
3

$$$$
