310941937
  -OEChem-07211613022D

 40 44  0     1  0  0  0  0  0999 V2000
    0.4678    1.5738    0.0000 F   0  0  0  0  0  0  0  0  0  0  0  0
   -3.1582    1.2335    0.0000 O   0  0  0  0  0  0  0  0  0  0  0  0
    0.7656   -3.3177    0.0000 O   0  0  0  0  0  0  0  0  0  0  0  0
    3.7962   -2.0523    0.0000 O   0  0  0  0  0  0  0  0  0  0  0  0
   -1.8715    2.9455    0.0000 O   0  0  0  0  0  0  0  0  0  0  0  0
   -2.4032   -0.0744    0.0000 O   0  0  0  0  0  0  0  0  0  0  0  0
   -3.6261    3.3177    0.0000 O   0  0  0  0  0  0  0  0  0  0  0  0
   -0.8188   -0.6912    0.0000 O   0  0  0  0  0  0  0  0  0  0  0  0
    1.1803    1.1590    0.0000 O   0  0  0  0  0  0  0  0  0  0  0  0
   -2.9774   -2.5627    0.0000 O   0  0  0  0  0  0  0  0  0  0  0  0
    0.2658   -1.9354    0.0000 N   0  0  0  0  0  0  0  0  0  0  0  0
   -1.6801    1.1590    0.0000 N   0  0  0  0  0  0  0  0  0  0  0  0
    1.9141    0.0532    0.0000 N   0  0  0  0  0  0  0  0  0  0  0  0
   -0.9676   -0.0744    0.0000 N   0  0  0  0  0  0  0  0  0  0  0  0
    0.4678   -0.0744    0.0000 N   0  0  0  0  0  0  0  0  0  0  0  0
   -1.8928   -1.6270    0.0000 N   0  0  0  0  0  0  0  0  0  0  0  0
    1.4462   -1.2973    0.0000 C   0  0  0  0  0  0  0  0  0  0  0  0
    1.5950   -2.0948    0.0000 C   0  0  0  0  0  0  0  0  0  0  0  0
    0.8719   -2.4776    0.0000 C   0  0  0  0  0  0  0  0  0  0  0  0
    2.0629   -0.7444    0.0000 C   0  0  0  0  0  0  0  0  0  0  0  0
    0.6274   -1.1910    0.0000 C   0  0  0  0  0  0  0  0  0  0  0  0
   -2.4032    1.5738    0.0000 C   0  0  3  0  0  0  0  0  0  0  0  0
   -0.5423   -2.0842    0.0000 C   0  0  3  0  0  0  0  0  0  0  0  0
    2.3713   -2.3713    0.0000 C   0  0  0  0  0  0  0  0  0  0  0  0
   -2.4883    2.3926    0.0000 C   0  0  3  0  0  0  0  0  0  0  0  0
    2.9987   -1.8290    0.0000 C   0  0  0  0  0  0  0  0  0  0  0  0
   -1.6801    0.3509    0.0000 C   0  0  0  0  0  0  0  0  0  0  0  0
    2.8392   -1.0315    0.0000 C   0  0  0  0  0  0  0  0  0  0  0  0
   -3.2964    2.5733    0.0000 C   0  0  3  0  0  0  0  0  0  0  0  0
   -0.2552    0.3403    0.0000 C   0  0  0  0  0  0  0  0  0  0  0  0
   -3.7005    1.8396    0.0000 C   0  0  3  0  0  0  0  0  0  0  0  0
   -0.9783    1.5738    0.0000 C   0  0  0  0  0  0  0  0  0  0  0  0
   -0.2446    1.1590    0.0000 C   0  0  0  0  0  0  0  0  0  0  0  0
   -1.0953   -1.4887    0.0000 C   0  0  0  0  0  0  0  0  0  0  0  0
    1.1697    0.3297    0.0000 C   0  0  0  0  0  0  0  0  0  0  0  0
   -0.8188   -2.8711    0.0000 C   0  0  0  0  0  0  0  0  0  0  0  0
   -2.1586   -2.4032    0.0000 C   0  0  0  0  0  0  0  0  0  0  0  0
   -1.6163   -3.0200    0.0000 C   0  0  0  0  0  0  0  0  0  0  0  0
   -4.5300    1.7545    0.0000 C   0  0  0  0  0  0  0  0  0  0  0  0
    4.5300   -1.6270    0.0000 C   0  0  0  0  0  0  0  0  0  0  0  0
  1 33  1  0  0  0  0
  2 22  1  0  0  0  0
  2 31  1  0  0  0  0
  3 19  2  0  0  0  0
  4 26  1  0  0  0  0
  4 40  1  0  0  0  0
  5 25  1  0  0  0  0
  6 27  2  0  0  0  0
  7 29  1  0  0  0  0
  8 34  2  0  0  0  0
  9 35  2  0  0  0  0
 10 37  2  0  0  0  0
 11 19  1  0  0  0  0
 11 21  1  0  0  0  0
 11 23  1  0  0  0  0
 12 22  1  0  0  0  0
 12 27  1  0  0  0  0
 12 32  1  0  0  0  0
 13 20  1  0  0  0  0
 13 35  1  0  0  0  0
 14 27  1  0  0  0  0
 14 30  2  0  0  0  0
 15 30  1  0  0  0  0
 15 35  1  0  0  0  0
 16 34  1  0  0  0  0
 16 37  1  0  0  0  0
 17 18  2  0  0  0  0
 17 20  1  0  0  0  0
 17 21  1  0  0  0  0
 18 19  1  0  0  0  0
 18 24  1  0  0  0  0
 20 28  2  0  0  0  0
 22 25  1  0  0  0  0
 23 34  1  0  0  0  0
 23 36  1  0  0  0  0
 24 26  2  0  0  0  0
 25 29  1  0  0  0  0
 26 28  1  0  0  0  0
 29 31  1  0  0  0  0
 30 33  1  0  0  0  0
 31 39  1  0  0  0  0
 32 33  2  0  0  0  0
 36 38  1  0  0  0  0
 37 38  1  0  0  0  0
M  END
> <PUBCHEM_COMPOUND_ID_TYPE>
0

> <PUBCHEM_TOTAL_CHARGE>
0

> <PUBCHEM_SUBSTANCE_ID>
310941937

> <PUBCHEM_SUBSTANCE_VERSION>
1

> <PUBCHEM_EXT_DATASOURCE_NAME>
4488

> <PUBCHEM_EXT_DATASOURCE_REGID>
SCHEMBL16119970

> <PUBCHEM_SUBSTANCE_COMMENT>
InChI=1S/C24H25FN6O9/c1-9-17(33)18(34)22(40-9)31-8-13(25)19(29-24(31)38)28-23(37)26-14-6-10(39-2)5-11-12(14)7-30(21(11)36)15-3-4-16(32)27-20(15)35/h5-6,8-9,15,17-18,22,33-34H,3-4,7H2,1-2H3,(H,27,32,35)(H2,26,28,29,37,38)
InChIKey=VCTGVABIVSAGDY-UHFFFAOYSA-N

> <PUBCHEM_SUBSTANCE_SYNONYM>
SCHEMBL16119970

> <PUBCHEM_XREF_EXT_ID>
SCHEMBL16119970

> <PUBCHEM_EXT_DATASOURCE_URL>
https://www.surechembl.org/

> <PUBCHEM_EXT_SUBSTANCE_URL>
https://www.surechembl.org/chemical/SCHEMBL16119970

> <PUBCHEM_CID_ASSOCIATIONS>
117608661  1

> <PUBCHEM_COORDINATE_TYPE>
1
3

$$$$
