310941236
  -OEChem-07211613022D

 41 44  0     1  0  0  0  0  0999 V2000
    4.8291   -1.4272    0.0000 O   0  0  0  0  0  0  0  0  0  0  0  0
    3.6928    0.5404    0.0000 O   0  0  0  0  0  0  0  0  0  0  0  0
    1.3233   -1.4134    0.0000 O   0  0  0  0  0  0  0  0  0  0  0  0
   -0.8384    0.6652    0.0000 O   0  0  0  0  0  0  0  0  0  0  0  0
    3.4850    2.3280    0.0000 O   0  0  0  0  0  0  0  0  0  0  0  0
    2.0439    3.1594    0.0000 O   0  0  0  0  0  0  0  0  0  0  0  0
   -3.0000   -1.4134    0.0000 O   0  0  0  0  0  0  0  0  0  0  0  0
   -5.1616    0.6652    0.0000 O   0  0  0  0  0  0  0  0  0  0  0  0
    2.0439   -0.1662    0.0000 N   0  0  0  0  0  0  0  0  0  0  0  0
   -0.1178   -0.5820    0.0000 N   0  0  0  0  0  0  0  0  0  0  0  0
   -2.2794   -0.1662    0.0000 N   0  0  0  0  0  0  0  0  0  0  0  0
    4.4272   -0.6790    0.0000 C   0  0  3  0  0  0  0  0  0  0  0  0
    3.6928   -0.2771    0.0000 C   0  0  0  0  0  0  0  0  0  0  0  0
    4.0254   -1.3995    0.0000 C   0  0  0  0  0  0  0  0  0  0  0  0
    3.0000   -0.6790    0.0000 C   0  0  3  0  0  0  0  0  0  0  0  0
    5.1616   -0.2771    0.0000 C   0  0  0  0  0  0  0  0  0  0  0  0
    2.9861   -1.7598    0.0000 C   0  0  0  0  0  0  0  0  0  0  0  0
    1.3372   -0.5265    0.0000 C   0  0  0  0  0  0  0  0  0  0  0  0
    0.6028   -0.1386    0.0000 C   0  0  3  0  0  0  0  0  0  0  0  0
    2.2656   -2.1755    0.0000 C   0  0  0  0  0  0  0  0  0  0  0  0
    0.6167    0.7067    0.0000 C   0  0  0  0  0  0  0  0  0  0  0  0
    1.3233    1.1085    0.0000 C   0  0  0  0  0  0  0  0  0  0  0  0
   -0.8384   -0.1524    0.0000 C   0  0  0  0  0  0  0  0  0  0  0  0
    1.5034   -1.8568    0.0000 C   0  0  0  0  0  0  0  0  0  0  0  0
    2.1686   -2.9930    0.0000 C   0  0  0  0  0  0  0  0  0  0  0  0
    1.3372    1.9538    0.0000 C   0  0  0  0  0  0  0  0  0  0  0  0
    2.0439    2.3556    0.0000 C   0  0  0  0  0  0  0  0  0  0  0  0
   -1.5312   -0.5543    0.0000 C   0  0  3  0  0  0  0  0  0  0  0  0
    2.7644    1.9538    0.0000 C   0  0  0  0  0  0  0  0  0  0  0  0
    2.0439    0.7067    0.0000 C   0  0  0  0  0  0  0  0  0  0  0  0
    2.7644    1.1085    0.0000 C   0  0  0  0  0  0  0  0  0  0  0  0
    0.9631   -2.4665    0.0000 C   0  0  0  0  0  0  0  0  0  0  0  0
    1.3510   -3.1594    0.0000 C   0  0  0  0  0  0  0  0  0  0  0  0
   -2.9861   -0.5265    0.0000 C   0  0  0  0  0  0  0  0  0  0  0  0
   -3.7067   -0.1386    0.0000 C   0  0  0  0  0  0  0  0  0  0  0  0
   -1.5451   -1.3995    0.0000 C   0  0  0  0  0  0  0  0  0  0  0  0
   -4.4134   -0.5404    0.0000 C   0  0  0  0  0  0  0  0  0  0  0  0
   -3.7067    0.6790    0.0000 C   0  0  0  0  0  0  0  0  0  0  0  0
   -5.1339   -0.1386    0.0000 C   0  0  0  0  0  0  0  0  0  0  0  0
   -4.4411    1.1085    0.0000 C   0  0  0  0  0  0  0  0  0  0  0  0
    4.2193    1.9261    0.0000 C   0  0  0  0  0  0  0  0  0  0  0  0
  1 12  1  0  0  0  0
  1 14  1  0  0  0  0
  2 13  2  0  0  0  0
  3 18  2  0  0  0  0
  4 23  2  0  0  0  0
  5 29  1  0  0  0  0
  5 41  1  0  0  0  0
  6 27  1  0  0  0  0
  7 34  2  0  0  0  0
  8 39  1  0  0  0  0
  8 40  1  0  0  0  0
  9 15  1  0  0  0  0
  9 18  1  0  0  0  0
 10 19  1  0  0  0  0
 10 23  1  0  0  0  0
 11 28  1  0  0  0  0
 11 34  1  0  0  0  0
 12 13  1  0  0  0  0
 12 14  1  0  0  0  0
 12 16  1  0  0  0  0
 13 15  1  0  0  0  0
 15 17  1  0  0  0  0
 17 20  1  0  0  0  0
 18 19  1  0  0  0  0
 19 21  1  0  0  0  0
 20 24  1  0  0  0  0
 20 25  1  0  0  0  0
 21 22  1  0  0  0  0
 22 26  1  0  0  0  0
 22 30  2  0  0  0  0
 23 28  1  0  0  0  0
 24 32  1  0  0  0  0
 25 33  1  0  0  0  0
 26 27  2  0  0  0  0
 27 29  1  0  0  0  0
 28 36  1  0  0  0  0
 29 31  2  0  0  0  0
 30 31  1  0  0  0  0
 32 33  1  0  0  0  0
 34 35  1  0  0  0  0
 35 37  1  0  0  0  0
 35 38  1  0  0  0  0
 37 39  1  0  0  0  0
 38 40  1  0  0  0  0
M  END
> <PUBCHEM_COMPOUND_ID_TYPE>
0

> <PUBCHEM_TOTAL_CHARGE>
0

> <PUBCHEM_SUBSTANCE_ID>
310941236

> <PUBCHEM_SUBSTANCE_VERSION>
1

> <PUBCHEM_EXT_DATASOURCE_NAME>
4488

> <PUBCHEM_EXT_DATASOURCE_REGID>
SCHEMBL16119196

> <PUBCHEM_SUBSTANCE_COMMENT>
InChI=1S/C30H43N3O8/c1-18(31-28(37)21-10-12-40-13-11-21)27(36)33-23(15-20-8-9-25(39-3)24(34)16-20)29(38)32-22(14-19-6-4-5-7-19)26(35)30(2)17-41-30/h8-9,16,18-19,21-23,34H,4-7,10-15,17H2,1-3H3,(H,31,37)(H,32,38)(H,33,36)
InChIKey=HWYRLIZKWLDQOG-UHFFFAOYSA-N

> <PUBCHEM_SUBSTANCE_SYNONYM>
SCHEMBL16119196

> <PUBCHEM_XREF_EXT_ID>
SCHEMBL16119196

> <PUBCHEM_EXT_DATASOURCE_URL>
https://www.surechembl.org/

> <PUBCHEM_EXT_SUBSTANCE_URL>
https://www.surechembl.org/chemical/SCHEMBL16119196

> <PUBCHEM_CID_ASSOCIATIONS>
86298124  1

> <PUBCHEM_COORDINATE_TYPE>
1
3

$$$$
