310949179
  -OEChem-07211613022D

  9  8  0     1  0  0  0  0  0999 V2000
    0.1740    1.1582    0.0000 O   0  0  0  0  0  0  0  0  0  0  0  0
    1.0712    0.1406    0.0000 N   0  0  0  0  0  0  0  0  0  0  0  0
   -1.0712    0.2477    0.0000 N   0  0  0  0  0  0  0  0  0  0  0  0
   -0.7766   -1.1582    0.0000 N   0  0  0  0  0  0  0  0  0  0  0  0
    0.3213   -0.1673    0.0000 C   0  0  3  0  0  0  0  0  0  0  0  0
   -0.2276    0.4485    0.0000 C   0  0  3  0  0  0  0  0  0  0  0  0
    0.0535   -0.9708    0.0000 C   0  0  0  0  0  0  0  0  0  0  0  0
    0.8704    1.0109    0.0000 C   0  0  0  0  0  0  0  0  0  0  0  0
    0.9239    0.7833    0.0000 C   0  0  0  0  0  0  0  0  0  0  0  0
  1  6  1  0  0  0  0
  1  8  1  0  0  0  0
  2  5  1  0  0  0  0
  2  9  2  0  0  0  0
  3  6  1  0  0  0  0
  4  7  1  0  0  0  0
  5  6  1  0  0  0  0
  5  7  1  0  0  0  0
M  END
> <PUBCHEM_COMPOUND_ID_TYPE>
0

> <PUBCHEM_TOTAL_CHARGE>
0

> <PUBCHEM_SUBSTANCE_ID>
310949179

> <PUBCHEM_SUBSTANCE_VERSION>
1

> <PUBCHEM_EXT_DATASOURCE_NAME>
4488

> <PUBCHEM_EXT_DATASOURCE_REGID>
SCHEMBL16127369

> <PUBCHEM_SUBSTANCE_COMMENT>
InChI=1S/C5H13N3O/c1-8-4(3-6)5(7)9-2/h4-5H,1,3,6-7H2,2H3
InChIKey=UWRZMOPZAIGROI-UHFFFAOYSA-N

> <PUBCHEM_SUBSTANCE_SYNONYM>
SCHEMBL16127369

> <PUBCHEM_XREF_EXT_ID>
SCHEMBL16127369

> <PUBCHEM_EXT_DATASOURCE_URL>
https://www.surechembl.org/

> <PUBCHEM_EXT_SUBSTANCE_URL>
https://www.surechembl.org/chemical/SCHEMBL16127369

> <PUBCHEM_CID_ASSOCIATIONS>
117614671  1

> <PUBCHEM_COORDINATE_TYPE>
1
3

$$$$
