310944154
  -OEChem-07211613022D

 34 38  0     1  0  0  0  0  0999 V2000
    2.6335    0.9780    0.0000 O   0  0  0  0  0  0  0  0  0  0  0  0
    4.9174   -0.9234    0.0000 O   0  0  0  0  0  0  0  0  0  0  0  0
    5.5949    0.3770    0.0000 O   0  0  0  0  0  0  0  0  0  0  0  0
   -0.7103    0.1257    0.0000 O   0  0  0  0  0  0  0  0  0  0  0  0
    2.8521   -0.4863    0.0000 N   0  0  0  0  0  0  0  0  0  0  0  0
    0.2732    0.9343    0.0000 N   0  0  0  0  0  0  0  0  0  0  0  0
   -4.3054    1.2184    0.0000 N   0  0  0  0  0  0  0  0  0  0  0  0
   -3.1471    0.3770    0.0000 N   0  0  0  0  0  0  0  0  0  0  0  0
   -4.7098    1.9396    0.0000 N   0  0  0  0  0  0  0  0  0  0  0  0
   -5.5185    1.7648    0.0000 N   0  0  0  0  0  0  0  0  0  0  0  0
   -5.5949    0.9343    0.0000 N   0  0  0  0  0  0  0  0  0  0  0  0
    1.5954   -0.0382    0.0000 C   0  0  0  0  0  0  0  0  0  0  0  0
    2.3603    0.1803    0.0000 C   0  0  0  0  0  0  0  0  0  0  0  0
    2.3494   -1.1420    0.0000 C   0  0  3  0  0  0  0  0  0  0  0  0
    3.6716   -0.4863    0.0000 C   0  0  0  0  0  0  0  0  0  0  0  0
    1.5845   -0.8688    0.0000 C   0  0  0  0  0  0  0  0  0  0  0  0
    0.8414   -0.3661    0.0000 C   0  0  0  0  0  0  0  0  0  0  0  0
    1.6828    0.7813    0.0000 C   0  0  0  0  0  0  0  0  0  0  0  0
    4.1525    0.1912    0.0000 C   0  0  0  0  0  0  0  0  0  0  0  0
    4.1525   -1.1638    0.0000 C   0  0  0  0  0  0  0  0  0  0  0  0
    4.9174   -0.0929    0.0000 C   0  0  0  0  0  0  0  0  0  0  0  0
    0.1857    0.1257    0.0000 C   0  0  0  0  0  0  0  0  0  0  0  0
    1.0163    1.2731    0.0000 C   0  0  0  0  0  0  0  0  0  0  0  0
    2.6226   -1.9396    0.0000 C   0  0  0  0  0  0  0  0  0  0  0  0
   -0.3716    1.4370    0.0000 C   0  0  0  0  0  0  0  0  0  0  0  0
   -1.0381    0.8906    0.0000 C   0  0  3  0  0  0  0  0  0  0  0  0
    3.9011    0.9780    0.0000 C   0  0  0  0  0  0  0  0  0  0  0  0
   -1.8577    0.9780    0.0000 C   0  0  0  0  0  0  0  0  0  0  0  0
   -3.4968    1.1420    0.0000 C   0  0  0  0  0  0  0  0  0  0  0  0
   -2.3276    0.3114    0.0000 C   0  0  0  0  0  0  0  0  0  0  0  0
   -2.1855    1.7211    0.0000 C   0  0  0  0  0  0  0  0  0  0  0  0
   -3.0051    1.8194    0.0000 C   0  0  0  0  0  0  0  0  0  0  0  0
   -4.8409    0.6174    0.0000 C   0  0  0  0  0  0  0  0  0  0  0  0
   -1.2020   -0.5409    0.0000 C   0  0  0  0  0  0  0  0  0  0  0  0
  1 13  2  0  0  0  0
  2 20  1  0  0  0  0
  2 21  1  0  0  0  0
  3 21  2  0  0  0  0
  4 26  1  0  0  0  0
  4 34  1  0  0  0  0
  5 13  1  0  0  0  0
  5 14  1  0  0  0  0
  5 15  1  0  0  0  0
  6 22  1  0  0  0  0
  6 23  1  0  0  0  0
  6 25  1  0  0  0  0
  7  9  1  0  0  0  0
  7 29  1  0  0  0  0
  7 33  1  0  0  0  0
  8 29  1  0  0  0  0
  8 30  2  0  0  0  0
  9 10  2  0  0  0  0
 10 11  1  0  0  0  0
 11 33  2  0  0  0  0
 12 13  1  0  0  0  0
 12 16  1  0  0  0  0
 12 17  1  0  0  0  0
 12 18  1  0  0  0  0
 14 16  1  0  0  0  0
 14 24  1  0  0  0  0
 15 19  2  0  0  0  0
 15 20  1  0  0  0  0
 17 22  1  0  0  0  0
 18 23  1  0  0  0  0
 19 21  1  0  0  0  0
 19 27  1  0  0  0  0
 25 26  1  0  0  0  0
 26 28  1  0  0  0  0
 28 30  1  0  0  0  0
 28 31  2  0  0  0  0
 29 32  2  0  0  0  0
 31 32  1  0  0  0  0
M  END
> <PUBCHEM_COMPOUND_ID_TYPE>
0

> <PUBCHEM_TOTAL_CHARGE>
0

> <PUBCHEM_SUBSTANCE_ID>
310944154

> <PUBCHEM_SUBSTANCE_VERSION>
1

> <PUBCHEM_EXT_DATASOURCE_NAME>
4488

> <PUBCHEM_EXT_DATASOURCE_REGID>
SCHEMBL16122229

> <PUBCHEM_SUBSTANCE_COMMENT>
InChI=1S/C23H29N7O4/c1-15-10-23(22(32)30(15)18-13-34-21(31)16(18)2)6-8-28(9-7-23)12-19(33-3)17-4-5-20(24-11-17)29-14-25-26-27-29/h4-5,11,14-15,19H,6-10,12-13H2,1-3H3
InChIKey=ZVDPQFZGWXXKHI-UHFFFAOYSA-N

> <PUBCHEM_SUBSTANCE_SYNONYM>
SCHEMBL16122229

> <PUBCHEM_XREF_EXT_ID>
SCHEMBL16122229

> <PUBCHEM_EXT_DATASOURCE_URL>
https://www.surechembl.org/

> <PUBCHEM_EXT_SUBSTANCE_URL>
https://www.surechembl.org/chemical/SCHEMBL16122229

> <PUBCHEM_CID_ASSOCIATIONS>
117610435  1

> <PUBCHEM_COORDINATE_TYPE>
1
3

$$$$
