310938675
  -OEChem-07211613022D

 15 16  0     1  0  0  0  0  0999 V2000
    1.4767   13.4000    0.0000 S   0  0  3  0  0  0  0  0  0  0  0  0
   -1.4043   13.6300    0.0000 S   0  0  0  0  0  0  0  0  0  0  0  0
    1.0642   12.6856    0.0000 O   0  0  0  0  0  0  0  0  0  0  0  0
    1.8892   12.6856    0.0000 N   0  0  0  0  0  0  0  0  0  0  0  0
   -1.4043   14.9649    0.0000 N   0  0  0  0  0  0  0  0  0  0  0  0
    0.8093   13.8850    0.0000 C   0  0  3  0  0  0  0  0  0  0  0  0
    0.0948   13.4725    0.0000 C   0  0  0  0  0  0  0  0  0  0  0  0
    2.1442   13.8850    0.0000 C   0  0  0  0  0  0  0  0  0  0  0  0
   -0.6197   13.8850    0.0000 C   0  0  0  0  0  0  0  0  0  0  0  0
    1.0642   14.6696    0.0000 C   0  0  0  0  0  0  0  0  0  0  0  0
    1.8892   14.6696    0.0000 C   0  0  0  0  0  0  0  0  0  0  0  0
   -0.6197   14.7100    0.0000 C   0  0  0  0  0  0  0  0  0  0  0  0
   -1.8892   14.2975    0.0000 C   0  0  0  0  0  0  0  0  0  0  0  0
    2.7142   12.6856    0.0000 C   0  0  0  0  0  0  0  0  0  0  0  0
   -2.7142   14.2975    0.0000 C   0  0  0  0  0  0  0  0  0  0  0  0
  1  3  2  0  0  0  0
  1  4  2  0  0  0  0
  1  6  1  0  0  0  0
  1  8  1  0  0  0  0
  2  9  1  0  0  0  0
  2 13  1  0  0  0  0
  4 14  1  0  0  0  0
  5 12  1  0  0  0  0
  5 13  2  0  0  0  0
  6  7  1  0  0  0  0
  6 10  1  0  0  0  0
  7  9  1  0  0  0  0
  8 11  1  0  0  0  0
  9 12  2  0  0  0  0
 10 11  1  0  0  0  0
 13 15  1  0  0  0  0
M  END
> <PUBCHEM_COMPOUND_ID_TYPE>
0

> <PUBCHEM_TOTAL_CHARGE>
0

> <PUBCHEM_SUBSTANCE_ID>
310938675

> <PUBCHEM_SUBSTANCE_VERSION>
1

> <PUBCHEM_EXT_DATASOURCE_NAME>
4488

> <PUBCHEM_EXT_DATASOURCE_REGID>
SCHEMBL16116589

> <PUBCHEM_SUBSTANCE_COMMENT>
InChI=1S/C10H16N2OS2/c1-8-12-7-9(14-8)6-10-4-3-5-15(10,13)11-2/h7,10H,3-6H2,1-2H3
InChIKey=IMYKOCLGTODSKO-UHFFFAOYSA-N

> <PUBCHEM_SUBSTANCE_SYNONYM>
SCHEMBL16116589

> <PUBCHEM_XREF_EXT_ID>
SCHEMBL16116589

> <PUBCHEM_EXT_DATASOURCE_URL>
https://www.surechembl.org/

> <PUBCHEM_EXT_SUBSTANCE_URL>
https://www.surechembl.org/chemical/SCHEMBL16116589

> <PUBCHEM_CID_ASSOCIATIONS>
117606107  1

> <PUBCHEM_COORDINATE_TYPE>
1
3

$$$$
