310932330
  -OEChem-07211613022D

 15 16  0     1  0  0  0  0  0999 V2000
    1.1398    0.0000    0.0000 O   0  0  0  0  0  0  0  0  0  0  0  0
    2.2796   -1.9673    0.0000 O   0  0  0  0  0  0  0  0  0  0  0  0
    2.9978   -0.7182    0.0000 O   0  0  0  0  0  0  0  0  0  0  0  0
    1.5614   -0.7182    0.0000 C   0  0  3  0  0  0  0  0  0  0  0  0
    0.7339   -0.7182    0.0000 C   0  0  3  0  0  0  0  0  0  0  0  0
    2.2796   -1.1398    0.0000 C   0  0  0  0  0  0  0  0  0  0  0  0
    1.3896   -0.7963    0.0000 C   0  0  0  0  0  0  0  0  0  0  0  0
    0.9056   -0.6402    0.0000 C   0  0  0  0  0  0  0  0  0  0  0  0
    0.0000   -1.1398    0.0000 C   0  0  0  0  0  0  0  0  0  0  0  0
    1.2335   -0.6870    0.0000 C   0  0  0  0  0  0  0  0  0  0  0  0
    1.0617   -0.7651    0.0000 C   0  0  0  0  0  0  0  0  0  0  0  0
    2.9978   -2.3888    0.0000 C   0  0  0  0  0  0  0  0  0  0  0  0
    2.5762   -3.1227    0.0000 C   0  0  0  0  0  0  0  0  0  0  0  0
    3.7160   -2.7948    0.0000 C   0  0  0  0  0  0  0  0  0  0  0  0
    3.4037   -1.6706    0.0000 C   0  0  0  0  0  0  0  0  0  0  0  0
  1  4  1  0  0  0  0
  1  5  1  0  0  0  0
  2  6  1  0  0  0  0
  2 12  1  0  0  0  0
  3  6  2  0  0  0  0
  4  5  1  0  0  0  0
  4  6  1  0  0  0  0
  4  7  1  0  0  0  0
  5  8  1  0  0  0  0
  5  9  1  0  0  0  0
  7 10  1  0  0  0  0
  8 11  1  0  0  0  0
 10 11  1  0  0  0  0
 12 13  1  0  0  0  0
 12 14  1  0  0  0  0
 12 15  1  0  0  0  0
M  END
> <PUBCHEM_COMPOUND_ID_TYPE>
0

> <PUBCHEM_TOTAL_CHARGE>
0

> <PUBCHEM_SUBSTANCE_ID>
310932330

> <PUBCHEM_SUBSTANCE_VERSION>
1

> <PUBCHEM_EXT_DATASOURCE_NAME>
4488

> <PUBCHEM_EXT_DATASOURCE_REGID>
SCHEMBL16109696

> <PUBCHEM_SUBSTANCE_COMMENT>
InChI=1S/C12H20O3/c1-10(2,3)14-9(13)12-8-6-5-7-11(12,4)15-12/h5-8H2,1-4H3
InChIKey=KOPDDGKHPHYZKL-UHFFFAOYSA-N

> <PUBCHEM_SUBSTANCE_SYNONYM>
SCHEMBL16109696

> <PUBCHEM_XREF_EXT_ID>
SCHEMBL16109696

> <PUBCHEM_EXT_DATASOURCE_URL>
https://www.surechembl.org/

> <PUBCHEM_EXT_SUBSTANCE_URL>
https://www.surechembl.org/chemical/SCHEMBL16109696

> <PUBCHEM_CID_ASSOCIATIONS>
117600886  1

> <PUBCHEM_COORDINATE_TYPE>
1
3

$$$$
