310938594
  -OEChem-07211613022D

 12 13  0     1  0  0  0  0  0999 V2000
    1.4171   13.6699    0.0000 O   0  0  0  0  0  0  0  0  0  0  0  0
    0.0352   14.4224    0.0000 N   0  0  3  0  0  0  0  0  0  0  0  0
    0.4477   15.6920    0.0000 C   0  0  3  0  0  0  0  0  0  0  0  0
   -0.3773   15.6920    0.0000 C   0  0  3  0  0  0  0  0  0  0  0  0
    0.7026   14.9074    0.0000 C   0  0  3  0  0  0  0  0  0  0  0  0
    0.0352   16.4065    0.0000 C   0  0  0  0  0  0  0  0  0  0  0  0
   -0.6322   14.9074    0.0000 C   0  0  0  0  0  0  0  0  0  0  0  0
    0.0352   13.5974    0.0000 C   0  0  0  0  0  0  0  0  0  0  0  0
    1.4171   14.4949    0.0000 C   0  0  0  0  0  0  0  0  0  0  0  0
    0.8602   13.5974    0.0000 C   0  0  0  0  0  0  0  0  0  0  0  0
   -0.7898   13.5974    0.0000 C   0  0  0  0  0  0  0  0  0  0  0  0
    0.0352   12.7724    0.0000 C   0  0  0  0  0  0  0  0  0  0  0  0
  1  9  1  0  0  0  0
  2  5  1  0  0  0  0
  2  7  1  0  0  0  0
  2  8  1  0  0  0  0
  3  4  1  0  0  0  0
  3  5  1  0  0  0  0
  3  6  1  0  0  0  0
  4  6  1  0  0  0  0
  4  7  1  0  0  0  0
  5  9  1  0  0  0  0
  8 10  1  0  0  0  0
  8 11  1  0  0  0  0
  8 12  1  0  0  0  0
M  END
> <PUBCHEM_COMPOUND_ID_TYPE>
0

> <PUBCHEM_TOTAL_CHARGE>
0

> <PUBCHEM_SUBSTANCE_ID>
310938594

> <PUBCHEM_SUBSTANCE_VERSION>
1

> <PUBCHEM_EXT_DATASOURCE_NAME>
4488

> <PUBCHEM_EXT_DATASOURCE_REGID>
SCHEMBL16116508

> <PUBCHEM_SUBSTANCE_COMMENT>
InChI=1S/C10H19NO/c1-10(2,3)11-5-7-4-8(7)9(11)6-12/h7-9,12H,4-6H2,1-3H3
InChIKey=DNVJFOFPRALJAY-UHFFFAOYSA-N

> <PUBCHEM_SUBSTANCE_SYNONYM>
SCHEMBL16116508

> <PUBCHEM_XREF_EXT_ID>
SCHEMBL16116508

> <PUBCHEM_EXT_DATASOURCE_URL>
https://www.surechembl.org/

> <PUBCHEM_EXT_SUBSTANCE_URL>
https://www.surechembl.org/chemical/SCHEMBL16116508

> <PUBCHEM_CID_ASSOCIATIONS>
84653550  1

> <PUBCHEM_COORDINATE_TYPE>
1
3

> <PUBCHEM_BONDANNOTATIONS>
8  10  3
8  11  3

$$$$
