310946203
  -OEChem-07211613022D

 18 21  0     1  0  0  0  0  0999 V2000
   -0.6943   -0.5615    0.0000 O   0  0  0  0  0  0  0  0  0  0  0  0
   -1.5835    0.9985    0.0000 O   0  0  0  0  0  0  0  0  0  0  0  0
    1.3338   -0.2028    0.0000 C   0  0  3  0  0  0  0  0  0  0  0  0
    1.0375   -0.5304    0.0000 C   0  0  3  0  0  0  0  0  0  0  0  0
    0.2418   -0.0468    0.0000 C   0  0  3  0  0  0  0  0  0  0  0  0
    1.6302   -0.5304    0.0000 C   0  0  3  0  0  0  0  0  0  0  0  0
    0.4602    0.7488    0.0000 C   0  0  3  0  0  0  0  0  0  0  0  0
    0.8502    0.0624    0.0000 C   0  0  0  0  0  0  0  0  0  0  0  0
    1.4119   -1.1701    0.0000 C   0  0  0  0  0  0  0  0  0  0  0  0
    1.8486    0.0624    0.0000 C   0  0  0  0  0  0  0  0  0  0  0  0
    2.2075    0.7488    0.0000 C   0  0  3  0  0  0  0  0  0  0  0  0
    2.4415   -0.0312    0.0000 C   0  0  0  0  0  0  0  0  0  0  0  0
    1.3338    1.6068    0.0000 C   0  0  0  0  0  0  0  0  0  0  0  0
    0.2262   -1.0764    0.0000 C   0  0  0  0  0  0  0  0  0  0  0  0
   -1.5835   -0.0468    0.0000 C   0  0  0  0  0  0  0  0  0  0  0  0
   -0.6474   -1.6068    0.0000 C   0  0  0  0  0  0  0  0  0  0  0  0
    1.1310   -1.5912    0.0000 C   0  0  0  0  0  0  0  0  0  0  0  0
   -2.4415   -0.5771    0.0000 C   0  0  0  0  0  0  0  0  0  0  0  0
  1  5  1  0  0  0  0
  1 15  1  0  0  0  0
  2 15  2  0  0  0  0
  3  4  1  0  0  0  0
  3  6  1  0  0  0  0
  3  8  1  0  0  0  0
  3 10  1  0  0  0  0
  4  5  1  0  0  0  0
  4  9  1  0  0  0  0
  5  7  1  0  0  0  0
  5 14  1  0  0  0  0
  6  9  1  0  0  0  0
  6 12  1  0  0  0  0
  7  8  1  0  0  0  0
  7 13  1  0  0  0  0
 10 11  1  0  0  0  0
 11 12  1  0  0  0  0
 11 13  1  0  0  0  0
 14 16  1  0  0  0  0
 14 17  1  0  0  0  0
 15 18  1  0  0  0  0
M  END
> <PUBCHEM_COMPOUND_ID_TYPE>
0

> <PUBCHEM_TOTAL_CHARGE>
0

> <PUBCHEM_SUBSTANCE_ID>
310946203

> <PUBCHEM_SUBSTANCE_VERSION>
1

> <PUBCHEM_EXT_DATASOURCE_NAME>
4488

> <PUBCHEM_EXT_DATASOURCE_REGID>
SCHEMBL16124315

> <PUBCHEM_SUBSTANCE_COMMENT>
InChI=1S/C16H24O2/c1-9(2)16(18-10(3)17)13-5-11-4-12-6-14(16)15(12,7-11)8-13/h9,11-14H,4-8H2,1-3H3
InChIKey=KNKOPIVHWWQEGE-UHFFFAOYSA-N

> <PUBCHEM_SUBSTANCE_SYNONYM>
SCHEMBL16124315

> <PUBCHEM_XREF_EXT_ID>
SCHEMBL16124315

> <PUBCHEM_EXT_DATASOURCE_URL>
https://www.surechembl.org/

> <PUBCHEM_EXT_SUBSTANCE_URL>
https://www.surechembl.org/chemical/SCHEMBL16124315

> <PUBCHEM_CID_ASSOCIATIONS>
117612153  1

> <PUBCHEM_COORDINATE_TYPE>
1
3

$$$$
