310931922
  -OEChem-07211613022D

 32 36  0     1  0  0  0  0  0999 V2000
    5.5587   -2.9979    0.0000 O   0  0  0  0  0  0  0  0  0  0  0  0
    1.4365   -4.7155    0.0000 O   0  0  0  0  0  0  0  0  0  0  0  0
    5.1840   -4.4032    0.0000 N   0  0  0  0  0  0  0  0  0  0  0  0
    1.6239   -3.3103    0.0000 N   0  0  0  0  0  0  0  0  0  0  0  0
    0.8120   -1.4678    0.0000 N   0  0  3  0  0  0  0  0  0  0  0  0
    5.5899   -5.1215    0.0000 N   0  0  0  0  0  0  0  0  0  0  0  0
    3.9036   -4.9653    0.0000 N   0  0  0  0  0  0  0  0  0  0  0  0
    9.3686   -1.6551    0.0000 N   0  0  0  0  0  0  0  0  0  0  0  0
    6.4956   -4.1222    0.0000 C   0  0  0  0  0  0  0  0  0  0  0  0
    5.7461   -3.8099    0.0000 C   0  0  0  0  0  0  0  0  0  0  0  0
    1.1554   -2.2172    0.0000 C   0  0  0  0  0  0  0  0  0  0  0  0
    4.3720   -4.3408    0.0000 C   0  0  0  0  0  0  0  0  0  0  0  0
    7.2138   -3.7162    0.0000 C   0  0  0  0  0  0  0  0  0  0  0  0
    1.9362   -4.0597    0.0000 C   0  0  0  0  0  0  0  0  0  0  0  0
    2.7794   -4.1534    0.0000 C   0  0  0  0  0  0  0  0  0  0  0  0
    0.8744   -3.0292    0.0000 C   0  0  0  0  0  0  0  0  0  0  0  0
    1.9362   -2.5295    0.0000 C   0  0  0  0  0  0  0  0  0  0  0  0
    6.4019   -4.9653    0.0000 C   0  0  0  0  0  0  0  0  0  0  0  0
    1.3116   -0.8120    0.0000 C   0  0  0  0  0  0  0  0  0  0  0  0
    7.2138   -2.9042    0.0000 C   0  0  0  0  0  0  0  0  0  0  0  0
    4.0597   -3.5600    0.0000 C   0  0  0  0  0  0  0  0  0  0  0  0
    3.0916   -4.9029    0.0000 C   0  0  0  0  0  0  0  0  0  0  0  0
    3.2478   -3.4976    0.0000 C   0  0  0  0  0  0  0  0  0  0  0  0
    7.9320   -4.1222    0.0000 C   0  0  0  0  0  0  0  0  0  0  0  0
    1.3741    0.0000    0.0000 C   0  0  0  0  0  0  0  0  0  0  0  0
    2.0611   -0.4684    0.0000 C   0  0  0  0  0  0  0  0  0  0  0  0
    7.9320   -2.4983    0.0000 C   0  0  0  0  0  0  0  0  0  0  0  0
    8.6503   -2.9042    0.0000 C   0  0  0  0  0  0  0  0  0  0  0  0
    8.6503   -3.7162    0.0000 C   0  0  0  0  0  0  0  0  0  0  0  0
    0.0000   -1.4053    0.0000 C   0  0  0  0  0  0  0  0  0  0  0  0
    6.4956   -2.4983    0.0000 C   0  0  0  0  0  0  0  0  0  0  0  0
    9.3686   -2.4983    0.0000 C   0  0  0  0  0  0  0  0  0  0  0  0
  1 10  1  0  0  0  0
  2 14  2  0  0  0  0
  3  6  1  0  0  0  0
  3 10  1  0  0  0  0
  3 12  1  0  0  0  0
  4 14  1  0  0  0  0
  4 16  1  0  0  0  0
  4 17  1  0  0  0  0
  5 11  1  0  0  0  0
  5 19  1  0  0  0  0
  5 30  1  0  0  0  0
  6 18  2  0  0  0  0
  7 12  1  0  0  0  0
  7 22  2  0  0  0  0
  8 32  3  0  0  0  0
  9 10  2  0  0  0  0
  9 13  1  0  0  0  0
  9 18  1  0  0  0  0
 11 16  1  0  0  0  0
 11 17  1  0  0  0  0
 12 21  2  0  0  0  0
 13 20  2  0  0  0  0
 13 24  1  0  0  0  0
 14 15  1  0  0  0  0
 15 22  1  0  0  0  0
 15 23  2  0  0  0  0
 19 25  1  0  0  0  0
 19 26  1  0  0  0  0
 20 27  1  0  0  0  0
 20 31  1  0  0  0  0
 21 23  1  0  0  0  0
 24 29  2  0  0  0  0
 25 26  1  0  0  0  0
 27 28  2  0  0  0  0
 28 29  1  0  0  0  0
 28 32  1  0  0  0  0
M  END
> <PUBCHEM_COMPOUND_ID_TYPE>
0

> <PUBCHEM_TOTAL_CHARGE>
0

> <PUBCHEM_SUBSTANCE_ID>
310931922

> <PUBCHEM_SUBSTANCE_VERSION>
1

> <PUBCHEM_EXT_DATASOURCE_NAME>
4488

> <PUBCHEM_EXT_DATASOURCE_REGID>
SCHEMBL16109257

> <PUBCHEM_SUBSTANCE_COMMENT>
InChI=1S/C24H24N6O2/c1-15-9-16(10-25)3-7-20(15)21-12-27-30(24(21)32)22-8-4-17(11-26-22)23(31)29-13-19(14-29)28(2)18-5-6-18/h3-4,7-9,11-12,18-19,32H,5-6,13-14H2,1-2H3
InChIKey=FYBIENUBLPJGPZ-UHFFFAOYSA-N

> <PUBCHEM_SUBSTANCE_SYNONYM>
SCHEMBL16109257

> <PUBCHEM_XREF_EXT_ID>
SCHEMBL16109257

> <PUBCHEM_EXT_DATASOURCE_URL>
https://www.surechembl.org/

> <PUBCHEM_EXT_SUBSTANCE_URL>
https://www.surechembl.org/chemical/SCHEMBL16109257

> <PUBCHEM_CID_ASSOCIATIONS>
117600573  1

> <PUBCHEM_COORDINATE_TYPE>
1
3

$$$$
