310934697
  -OEChem-07211613022D

 16 17  0     1  0  0  0  0  0999 V2000
    4.5399   -3.6031    0.0000 F   0  0  0  0  0  0  0  0  0  0  0  0
    2.5041   -1.4232    0.0000 N   0  0  0  0  0  0  0  0  0  0  0  0
    1.6394    0.0000    0.0000 N   0  0  0  0  0  0  0  0  0  0  0  0
    1.6754   -1.4232    0.0000 C   0  0  3  0  0  0  0  0  0  0  0  0
    1.2431   -0.7206    0.0000 C   0  0  3  0  0  0  0  0  0  0  0  0
    2.0718   -2.1439    0.0000 C   0  0  0  0  0  0  0  0  0  0  0  0
    2.9005   -2.1618    0.0000 C   0  0  0  0  0  0  0  0  0  0  0  0
    1.2431   -2.1439    0.0000 C   0  0  0  0  0  0  0  0  0  0  0  0
    0.4324   -0.7206    0.0000 C   0  0  0  0  0  0  0  0  0  0  0  0
    3.3148   -2.8645    0.0000 C   0  0  0  0  0  0  0  0  0  0  0  0
    0.4324   -2.1439    0.0000 C   0  0  0  0  0  0  0  0  0  0  0  0
    3.3148   -1.4593    0.0000 C   0  0  0  0  0  0  0  0  0  0  0  0
    4.1255   -2.8825    0.0000 C   0  0  0  0  0  0  0  0  0  0  0  0
    0.0000   -1.4232    0.0000 C   0  0  0  0  0  0  0  0  0  0  0  0
    4.1435   -1.4593    0.0000 C   0  0  0  0  0  0  0  0  0  0  0  0
    4.5579   -2.1799    0.0000 C   0  0  0  0  0  0  0  0  0  0  0  0
  1 13  1  0  0  0  0
  2  4  1  0  0  0  0
  3  5  1  0  0  0  0
  4  5  1  0  0  0  0
  4  6  1  0  0  0  0
  4  8  1  0  0  0  0
  5  9  1  0  0  0  0
  6  7  1  0  0  0  0
  7 10  2  0  0  0  0
  7 12  1  0  0  0  0
  8 11  2  0  0  0  0
  9 14  2  0  0  0  0
 10 13  1  0  0  0  0
 11 14  1  0  0  0  0
 12 15  2  0  0  0  0
 13 16  2  0  0  0  0
 15 16  1  0  0  0  0
M  END
> <PUBCHEM_COMPOUND_ID_TYPE>
0

> <PUBCHEM_TOTAL_CHARGE>
0

> <PUBCHEM_SUBSTANCE_ID>
310934697

> <PUBCHEM_SUBSTANCE_VERSION>
1

> <PUBCHEM_EXT_DATASOURCE_NAME>
4488

> <PUBCHEM_EXT_DATASOURCE_REGID>
SCHEMBL16112198

> <PUBCHEM_SUBSTANCE_COMMENT>
InChI=1S/C13H15FN2/c14-11-5-3-4-10(8-11)9-13(16)7-2-1-6-12(13)15/h1-8,12H,9,15-16H2
InChIKey=OCGACTCVEBKNDB-UHFFFAOYSA-N

> <PUBCHEM_SUBSTANCE_SYNONYM>
SCHEMBL16112198

> <PUBCHEM_XREF_EXT_ID>
SCHEMBL16112198

> <PUBCHEM_EXT_DATASOURCE_URL>
https://www.surechembl.org/

> <PUBCHEM_EXT_SUBSTANCE_URL>
https://www.surechembl.org/chemical/SCHEMBL16112198

> <PUBCHEM_CID_ASSOCIATIONS>
117602858  1

> <PUBCHEM_COORDINATE_TYPE>
1
3

$$$$
