310933645
  -OEChem-07211613022D

 23 25  0     1  0  0  0  0  0999 V2000
    1.9456    0.0000    0.0000 F   0  0  0  0  0  0  0  0  0  0  0  0
    1.2381   -1.2381    0.0000 F   0  0  0  0  0  0  0  0  0  0  0  0
    2.6784   -0.4043    0.0000 F   0  0  0  0  0  0  0  0  0  0  0  0
    0.0000   -3.9671    0.0000 O   0  0  0  0  0  0  0  0  0  0  0  0
    3.3859   -0.8086    0.0000 O   0  0  0  0  0  0  0  0  0  0  0  0
    5.4831   -2.8553    0.0000 O   0  0  0  0  0  0  0  0  0  0  0  0
    4.1692   -2.1983    0.0000 N   0  0  0  0  0  0  0  0  0  0  0  0
    4.1692   -3.5122    0.0000 N   0  0  0  0  0  0  0  0  0  0  0  0
    0.4043   -4.6998    0.0000 N   0  0  0  0  0  0  0  0  0  0  0  0
    3.4112   -2.4257    0.0000 C   0  0  0  0  0  0  0  0  0  0  0  0
    2.6784   -2.0467    0.0000 C   0  0  0  0  0  0  0  0  0  0  0  0
    3.4112   -3.2848    0.0000 C   0  0  0  0  0  0  0  0  0  0  0  0
    1.9961   -3.2848    0.0000 C   0  0  0  0  0  0  0  0  0  0  0  0
    1.2886   -3.6891    0.0000 C   0  0  0  0  0  0  0  0  0  0  0  0
    2.6784   -1.2128    0.0000 C   0  0  3  0  0  0  0  0  0  0  0  0
    1.9961   -2.4257    0.0000 C   0  0  0  0  0  0  0  0  0  0  0  0
    2.6784   -3.6891    0.0000 C   0  0  0  0  0  0  0  0  0  0  0  0
    1.9709   -0.8338    0.0000 C   0  0  0  0  0  0  0  0  0  0  0  0
    4.6746   -2.8553    0.0000 C   0  0  0  0  0  0  0  0  0  0  0  0
    0.5306   -3.3859    0.0000 C   0  0  0  0  0  0  0  0  0  0  0  0
    1.1876   -4.4977    0.0000 C   0  0  0  0  0  0  0  0  0  0  0  0
    0.3537   -2.5773    0.0000 C   0  0  0  0  0  0  0  0  0  0  0  0
    1.8193   -5.0536    0.0000 C   0  0  0  0  0  0  0  0  0  0  0  0
  1 18  1  0  0  0  0
  2 18  1  0  0  0  0
  3 18  1  0  0  0  0
  4  9  1  0  0  0  0
  4 20  1  0  0  0  0
  5 15  1  0  0  0  0
  6 19  2  0  0  0  0
  7 10  1  0  0  0  0
  7 19  1  0  0  0  0
  8 12  1  0  0  0  0
  8 19  1  0  0  0  0
  9 21  2  0  0  0  0
 10 11  1  0  0  0  0
 10 12  2  0  0  0  0
 11 15  1  0  0  0  0
 11 16  2  0  0  0  0
 12 17  1  0  0  0  0
 13 14  1  0  0  0  0
 13 16  1  0  0  0  0
 13 17  2  0  0  0  0
 14 20  2  0  0  0  0
 14 21  1  0  0  0  0
 15 18  1  0  0  0  0
 20 22  1  0  0  0  0
 21 23  1  0  0  0  0
M  END
> <PUBCHEM_COMPOUND_ID_TYPE>
0

> <PUBCHEM_TOTAL_CHARGE>
0

> <PUBCHEM_SUBSTANCE_ID>
310933645

> <PUBCHEM_SUBSTANCE_VERSION>
1

> <PUBCHEM_EXT_DATASOURCE_NAME>
4488

> <PUBCHEM_EXT_DATASOURCE_REGID>
SCHEMBL16111076

> <PUBCHEM_SUBSTANCE_COMMENT>
InChI=1S/C14H12F3N3O3/c1-5-10(6(2)23-20-5)7-3-8(12(21)14(15,16)17)11-9(4-7)18-13(22)19-11/h3-4,12,21H,1-2H3,(H2,18,19,22)
InChIKey=LZXPLZXFDMVPHR-UHFFFAOYSA-N

> <PUBCHEM_SUBSTANCE_SYNONYM>
SCHEMBL16111076

> <PUBCHEM_XREF_EXT_ID>
SCHEMBL16111076

> <PUBCHEM_EXT_DATASOURCE_URL>
https://www.surechembl.org/

> <PUBCHEM_EXT_SUBSTANCE_URL>
https://www.surechembl.org/chemical/SCHEMBL16111076

> <PUBCHEM_CID_ASSOCIATIONS>
117602017  1

> <PUBCHEM_COORDINATE_TYPE>
1
3

$$$$
