310936442
  -OEChem-07211613022D

 25 27  0     1  0  0  0  0  0999 V2000
    5.7182   -2.5278    0.0000 F   0  0  0  0  0  0  0  0  0  0  0  0
    4.9819   -1.2761    0.0000 F   0  0  0  0  0  0  0  0  0  0  0  0
    4.9819   -2.9204    0.0000 F   0  0  0  0  0  0  0  0  0  0  0  0
    1.5216   -2.4051    0.0000 O   0  0  0  0  0  0  0  0  0  0  0  0
    0.0736   -2.4051    0.0000 O   0  0  0  0  0  0  0  0  0  0  0  0
    0.8099   -1.1535    0.0000 N   0  0  0  0  0  0  0  0  0  0  0  0
    1.6198   -2.1106    0.0000 N   0  0  0  0  0  0  0  0  0  0  0  0
    2.8959   -2.8223    0.0000 N   0  0  0  0  0  0  0  0  0  0  0  0
    3.7058   -1.3989    0.0000 N   0  0  0  0  0  0  0  0  0  0  0  0
    1.5952   -0.6871    0.0000 C   0  0  3  0  0  0  0  0  0  0  0  0
    0.0000   -0.6871    0.0000 C   0  0  3  0  0  0  0  0  0  0  0  0
    1.2026   -1.3989    0.0000 C   0  0  3  0  0  0  0  0  0  0  0  0
    0.4172   -1.3989    0.0000 C   0  0  0  0  0  0  0  0  0  0  0  0
    1.2026    0.0000    0.0000 C   0  0  0  0  0  0  0  0  0  0  0  0
    0.4172    0.0000    0.0000 C   0  0  0  0  0  0  0  0  0  0  0  0
    0.8099   -1.9879    0.0000 C   0  0  0  0  0  0  0  0  0  0  0  0
    2.4542   -2.1106    0.0000 C   0  0  0  0  0  0  0  0  0  0  0  0
    4.1475   -2.1106    0.0000 C   0  0  0  0  0  0  0  0  0  0  0  0
    4.9819   -2.0860    0.0000 C   0  0  0  0  0  0  0  0  0  0  0  0
    2.8959   -1.3989    0.0000 C   0  0  0  0  0  0  0  0  0  0  0  0
    3.7058   -2.8223    0.0000 C   0  0  0  0  0  0  0  0  0  0  0  0
    1.5216   -3.2395    0.0000 C   0  0  0  0  0  0  0  0  0  0  0  0
    0.8099   -3.6567    0.0000 C   0  0  0  0  0  0  0  0  0  0  0  0
    0.8099   -4.4912    0.0000 C   0  0  0  0  0  0  0  0  0  0  0  0
    0.0736   -4.9084    0.0000 C   0  0  0  0  0  0  0  0  0  0  0  0
  1 19  1  0  0  0  0
  2 19  1  0  0  0  0
  3 19  1  0  0  0  0
  4 16  1  0  0  0  0
  4 22  1  0  0  0  0
  5 16  2  0  0  0  0
  6 10  1  0  0  0  0
  6 11  1  0  0  0  0
  6 16  1  0  0  0  0
  7 12  1  0  0  0  0
  7 17  1  0  0  0  0
  8 17  2  0  0  0  0
  8 21  1  0  0  0  0
  9 18  1  0  0  0  0
  9 20  2  0  0  0  0
 10 12  1  0  0  0  0
 10 14  1  0  0  0  0
 11 13  1  0  0  0  0
 11 15  1  0  0  0  0
 12 13  1  0  0  0  0
 14 15  1  0  0  0  0
 17 20  1  0  0  0  0
 18 19  1  0  0  0  0
 18 21  2  0  0  0  0
 22 23  1  0  0  0  0
 23 24  1  0  0  0  0
 24 25  1  0  0  0  0
M  END
> <PUBCHEM_COMPOUND_ID_TYPE>
0

> <PUBCHEM_TOTAL_CHARGE>
0

> <PUBCHEM_SUBSTANCE_ID>
310936442

> <PUBCHEM_SUBSTANCE_VERSION>
1

> <PUBCHEM_EXT_DATASOURCE_NAME>
4488

> <PUBCHEM_EXT_DATASOURCE_REGID>
SCHEMBL16114083

> <PUBCHEM_SUBSTANCE_COMMENT>
InChI=1S/C16H21F3N4O2/c1-2-3-6-25-15(24)23-10-4-5-12(23)11(7-10)22-14-9-20-13(8-21-14)16(17,18)19/h8-12H,2-7H2,1H3,(H,21,22)
InChIKey=KHZSMOGZHVFDDY-UHFFFAOYSA-N

> <PUBCHEM_SUBSTANCE_SYNONYM>
SCHEMBL16114083

> <PUBCHEM_XREF_EXT_ID>
SCHEMBL16114083

> <PUBCHEM_EXT_DATASOURCE_URL>
https://www.surechembl.org/

> <PUBCHEM_EXT_SUBSTANCE_URL>
https://www.surechembl.org/chemical/SCHEMBL16114083

> <PUBCHEM_CID_ASSOCIATIONS>
117604374  1

> <PUBCHEM_COORDINATE_TYPE>
1
3

$$$$
