310940015
  -OEChem-07211613022D

 34 36  0     1  0  0  0  0  0999 V2000
   -3.5672  -13.6005    0.0000 Cl  0  0  0  0  0  0  0  0  0  0  0  0
   -2.8527  -10.7130    0.0000 Cl  0  0  0  0  0  0  0  0  0  0  0  0
   -5.7106  -12.3630    0.0000 Cl  0  0  0  0  0  0  0  0  0  0  0  0
   -0.7092  -13.6005    0.0000 O   0  0  0  0  0  0  0  0  0  0  0  0
   -0.7092  -11.1257    0.0000 O   0  0  0  0  0  0  0  0  0  0  0  0
    2.1575  -14.6160    0.0000 O   0  0  0  0  0  0  0  0  0  0  0  0
    3.0368  -13.0929    0.0000 O   0  0  0  0  0  0  0  0  0  0  0  0
    1.4453  -10.7130    0.0000 O   0  0  0  0  0  0  0  0  0  0  0  0
    0.0052  -12.3630    0.0000 N   0  0  0  0  0  0  0  0  0  0  0  0
    1.4431  -13.1880    0.0000 N   0  0  0  0  0  0  0  0  0  0  0  0
   -1.4238  -12.3630    0.0000 C   0  0  0  0  0  0  0  0  0  0  0  0
   -2.8527  -12.3630    0.0000 C   0  0  0  0  0  0  0  0  0  0  0  0
   -0.7092  -11.9506    0.0000 C   0  0  0  0  0  0  0  0  0  0  0  0
   -1.4238  -13.1880    0.0000 C   0  0  0  0  0  0  0  0  0  0  0  0
   -2.1382  -11.9506    0.0000 C   0  0  0  0  0  0  0  0  0  0  0  0
   -3.5672  -11.9506    0.0000 C   0  0  0  0  0  0  0  0  0  0  0  0
   -2.8527  -13.1880    0.0000 C   0  0  0  0  0  0  0  0  0  0  0  0
    0.7286  -11.9506    0.0000 C   0  0  3  0  0  0  0  0  0  0  0  0
   -2.1382  -13.6005    0.0000 C   0  0  0  0  0  0  0  0  0  0  0  0
   -3.5672  -11.1257    0.0000 C   0  0  0  0  0  0  0  0  0  0  0  0
    0.0142  -13.1880    0.0000 C   0  0  0  0  0  0  0  0  0  0  0  0
    1.4431  -12.3630    0.0000 C   0  0  0  0  0  0  0  0  0  0  0  0
   -4.2818  -12.3630    0.0000 C   0  0  0  0  0  0  0  0  0  0  0  0
    0.7286  -13.6005    0.0000 C   0  0  0  0  0  0  0  0  0  0  0  0
    2.1575  -13.6005    0.0000 C   0  0  0  0  0  0  0  0  0  0  0  0
   -4.9962  -11.9506    0.0000 C   0  0  0  0  0  0  0  0  0  0  0  0
    0.7308  -11.1257    0.0000 C   0  0  0  0  0  0  0  0  0  0  0  0
   -4.2818  -10.7130    0.0000 C   0  0  0  0  0  0  0  0  0  0  0  0
   -4.9962  -11.1257    0.0000 C   0  0  0  0  0  0  0  0  0  0  0  0
    3.0368  -15.1236    0.0000 C   0  0  0  0  0  0  0  0  0  0  0  0
   -0.7092  -14.4256    0.0000 C   0  0  0  0  0  0  0  0  0  0  0  0
    3.9161  -15.6313    0.0000 C   0  0  0  0  0  0  0  0  0  0  0  0
    3.9161  -14.6160    0.0000 C   0  0  0  0  0  0  0  0  0  0  0  0
    3.0368  -16.1391    0.0000 C   0  0  0  0  0  0  0  0  0  0  0  0
  1 17  1  0  0  0  0
  2 20  1  0  0  0  0
  3 26  1  0  0  0  0
  4 14  1  0  0  0  0
  4 31  1  0  0  0  0
  5 13  2  0  0  0  0
  6 25  1  0  0  0  0
  6 30  1  0  0  0  0
  7 25  2  0  0  0  0
  8 27  1  0  0  0  0
  9 13  1  0  0  0  0
  9 18  1  0  0  0  0
  9 21  1  0  0  0  0
 10 22  1  0  0  0  0
 10 24  1  0  0  0  0
 10 25  1  0  0  0  0
 11 13  1  0  0  0  0
 11 14  1  0  0  0  0
 11 15  2  0  0  0  0
 12 15  1  0  0  0  0
 12 16  1  0  0  0  0
 12 17  2  0  0  0  0
 14 19  2  0  0  0  0
 16 20  2  0  0  0  0
 16 23  1  0  0  0  0
 17 19  1  0  0  0  0
 18 22  1  0  0  0  0
 18 27  1  0  0  0  0
 20 28  1  0  0  0  0
 21 24  1  0  0  0  0
 23 26  2  0  0  0  0
 26 29  1  0  0  0  0
 28 29  2  0  0  0  0
 30 32  1  0  0  0  0
 30 33  1  0  0  0  0
 30 34  1  0  0  0  0
M  END
> <PUBCHEM_COMPOUND_ID_TYPE>
0

> <PUBCHEM_TOTAL_CHARGE>
0

> <PUBCHEM_SUBSTANCE_ID>
310940015

> <PUBCHEM_SUBSTANCE_VERSION>
1

> <PUBCHEM_EXT_DATASOURCE_NAME>
4488

> <PUBCHEM_EXT_DATASOURCE_REGID>
SCHEMBL16117945

> <PUBCHEM_SUBSTANCE_COMMENT>
InChI=1S/C24H27Cl3N2O5/c1-24(2,3)34-23(32)28-7-8-29(15(12-28)13-30)22(31)18-10-17(20(27)11-21(18)33-4)16-9-14(25)5-6-19(16)26/h5-6,9-11,15,30H,7-8,12-13H2,1-4H3
InChIKey=KHTBYVBMFHNPJU-UHFFFAOYSA-N

> <PUBCHEM_SUBSTANCE_SYNONYM>
SCHEMBL16117945

> <PUBCHEM_XREF_EXT_ID>
SCHEMBL16117945

> <PUBCHEM_EXT_DATASOURCE_URL>
https://www.surechembl.org/

> <PUBCHEM_EXT_SUBSTANCE_URL>
https://www.surechembl.org/chemical/SCHEMBL16117945

> <PUBCHEM_CID_ASSOCIATIONS>
117607173  1

> <PUBCHEM_COORDINATE_TYPE>
1
3

$$$$
