310931643
  -OEChem-07211613022D

 25 27  0     1  0  0  0  0  0999 V2000
   -3.5724    0.4125    0.0000 S   0  0  3  0  0  0  0  0  0  0  0  0
   -3.5724    1.2375    0.0000 O   0  0  0  0  0  0  0  0  0  0  0  0
    0.7537    0.3355    0.0000 O   0  0  0  0  0  0  0  0  0  0  0  0
   -2.1435    1.2375    0.0000 O   0  0  0  0  0  0  0  0  0  0  0  0
   -1.4290    0.0000    0.0000 N   0  0  0  0  0  0  0  0  0  0  0  0
   -4.2869    0.0000    0.0000 C   0  0  0  0  0  0  0  0  0  0  0  0
   -5.0014    0.4125    0.0000 C   0  0  0  0  0  0  0  0  0  0  0  0
   -4.2869   -0.8250    0.0000 C   0  0  0  0  0  0  0  0  0  0  0  0
   -2.8579    0.0000    0.0000 C   0  0  0  0  0  0  0  0  0  0  0  0
   -5.7159    0.0000    0.0000 C   0  0  0  0  0  0  0  0  0  0  0  0
   -3.5724   -1.2375    0.0000 C   0  0  0  0  0  0  0  0  0  0  0  0
   -5.0014    1.2375    0.0000 C   0  0  0  0  0  0  0  0  0  0  0  0
   -5.0014   -1.2375    0.0000 C   0  0  0  0  0  0  0  0  0  0  0  0
   -2.1435    0.4125    0.0000 C   0  0  0  0  0  0  0  0  0  0  0  0
   -6.4304    0.4125    0.0000 C   0  0  0  0  0  0  0  0  0  0  0  0
   -3.5724   -2.0625    0.0000 C   0  0  0  0  0  0  0  0  0  0  0  0
   -5.7159    1.6500    0.0000 C   0  0  0  0  0  0  0  0  0  0  0  0
   -5.0014   -2.0625    0.0000 C   0  0  0  0  0  0  0  0  0  0  0  0
    0.0000    0.0000    0.0000 C   0  0  3  0  0  0  0  0  0  0  0  0
   -6.4304    1.2375    0.0000 C   0  0  0  0  0  0  0  0  0  0  0  0
   -4.2869   -2.4751    0.0000 C   0  0  0  0  0  0  0  0  0  0  0  0
   -0.7145    0.4125    0.0000 C   0  0  0  0  0  0  0  0  0  0  0  0
    0.0862   -0.8205    0.0000 C   0  0  0  0  0  0  0  0  0  0  0  0
    1.3057   -0.2776    0.0000 C   0  0  0  0  0  0  0  0  0  0  0  0
    0.8932   -0.9920    0.0000 C   0  0  0  0  0  0  0  0  0  0  0  0
  1  2  2  0  0  0  0
  1  6  1  0  0  0  0
  1  9  1  0  0  0  0
  3 19  1  0  0  0  0
  3 24  1  0  0  0  0
  4 14  2  0  0  0  0
  5 14  1  0  0  0  0
  5 22  1  0  0  0  0
  6  7  1  0  0  0  0
  6  8  1  0  0  0  0
  7 10  2  0  0  0  0
  7 12  1  0  0  0  0
  8 11  2  0  0  0  0
  8 13  1  0  0  0  0
  9 14  1  0  0  0  0
 10 15  1  0  0  0  0
 11 16  1  0  0  0  0
 12 17  2  0  0  0  0
 13 18  2  0  0  0  0
 15 20  2  0  0  0  0
 16 21  2  0  0  0  0
 17 20  1  0  0  0  0
 18 21  1  0  0  0  0
 19 22  1  0  0  0  0
 19 23  1  0  0  0  0
 23 25  1  0  0  0  0
 24 25  1  0  0  0  0
M  END
> <PUBCHEM_COMPOUND_ID_TYPE>
0

> <PUBCHEM_TOTAL_CHARGE>
0

> <PUBCHEM_SUBSTANCE_ID>
310931643

> <PUBCHEM_SUBSTANCE_VERSION>
1

> <PUBCHEM_EXT_DATASOURCE_NAME>
4488

> <PUBCHEM_EXT_DATASOURCE_REGID>
SCHEMBL16108969

> <PUBCHEM_SUBSTANCE_COMMENT>
InChI=1S/C20H23NO3S/c22-19(21-14-18-12-7-13-24-18)15-25(23)20(16-8-3-1-4-9-16)17-10-5-2-6-11-17/h1-6,8-11,18,20H,7,12-15H2,(H,21,22)
InChIKey=SXJQYFVLJKFGFK-UHFFFAOYSA-N

> <PUBCHEM_SUBSTANCE_SYNONYM>
SCHEMBL16108969

> <PUBCHEM_XREF_EXT_ID>
SCHEMBL16108969

> <PUBCHEM_EXT_DATASOURCE_URL>
https://www.surechembl.org/

> <PUBCHEM_EXT_SUBSTANCE_URL>
https://www.surechembl.org/chemical/SCHEMBL16108969

> <PUBCHEM_CID_ASSOCIATIONS>
71554828  1

> <PUBCHEM_COORDINATE_TYPE>
1
3

$$$$
