310945926
  -OEChem-07211613022D

 28 29  0     1  0  0  0  0  0999 V2000
    1.6731   -2.2308    0.0000 F   0  0  0  0  0  0  0  0  0  0  0  0
    1.3524   -3.3323    0.0000 F   0  0  0  0  0  0  0  0  0  0  0  0
    0.2510   -3.0117    0.0000 F   0  0  0  0  0  0  0  0  0  0  0  0
    0.9621    0.3067    0.0000 O   0  0  0  0  0  0  0  0  0  0  0  0
    3.0117   -0.4322    0.0000 O   0  0  0  0  0  0  0  0  0  0  0  0
   -1.9938   -1.8404    0.0000 N   0  0  0  0  0  0  0  0  0  0  0  0
   -2.7746   -1.5756    0.0000 N   0  0  0  0  0  0  0  0  0  0  0  0
   -2.2866    0.9621    0.0000 N   0  0  3  0  0  0  0  0  0  0  0  0
   -0.9760    2.7328    0.0000 N   0  0  0  0  0  0  0  0  0  0  0  0
   -1.5058   -1.1433    0.0000 C   0  0  0  0  0  0  0  0  0  0  0  0
   -0.6972   -1.1572    0.0000 C   0  0  0  0  0  0  0  0  0  0  0  0
   -2.0078   -0.4740    0.0000 C   0  0  0  0  0  0  0  0  0  0  0  0
    0.5437   -1.8823    0.0000 C   0  0  0  0  0  0  0  0  0  0  0  0
   -0.2789   -1.8683    0.0000 C   0  0  0  0  0  0  0  0  0  0  0  0
   -2.7607   -0.7250    0.0000 C   0  0  0  0  0  0  0  0  0  0  0  0
    0.9481   -2.6212    0.0000 C   0  0  0  0  0  0  0  0  0  0  0  0
   -0.2649   -0.4322    0.0000 C   0  0  0  0  0  0  0  0  0  0  0  0
    0.5298   -0.4322    0.0000 C   0  0  0  0  0  0  0  0  0  0  0  0
    0.9481   -1.1712    0.0000 C   0  0  0  0  0  0  0  0  0  0  0  0
   -1.7428    0.3485    0.0000 C   0  0  0  0  0  0  0  0  0  0  0  0
   -3.4439   -0.2370    0.0000 C   0  0  0  0  0  0  0  0  0  0  0  0
    1.7846    0.3067    0.0000 C   0  0  0  0  0  0  0  0  0  0  0  0
   -2.0217    1.7568    0.0000 C   0  0  0  0  0  0  0  0  0  0  0  0
   -3.0953    0.7669    0.0000 C   0  0  0  0  0  0  0  0  0  0  0  0
    2.1890   -0.4183    0.0000 C   0  0  0  0  0  0  0  0  0  0  0  0
   -1.2409    1.9381    0.0000 C   0  0  0  0  0  0  0  0  0  0  0  0
    3.4439   -1.1433    0.0000 C   0  0  0  0  0  0  0  0  0  0  0  0
   -1.5337    3.3323    0.0000 C   0  0  0  0  0  0  0  0  0  0  0  0
  1 16  1  0  0  0  0
  2 16  1  0  0  0  0
  3 16  1  0  0  0  0
  4 18  1  0  0  0  0
  4 22  1  0  0  0  0
  5 25  1  0  0  0  0
  5 27  1  0  0  0  0
  6  7  1  0  0  0  0
  6 10  1  0  0  0  0
  7 15  2  0  0  0  0
  8 20  1  0  0  0  0
  8 23  1  0  0  0  0
  8 24  1  0  0  0  0
  9 26  1  0  0  0  0
  9 28  1  0  0  0  0
 10 11  1  0  0  0  0
 10 12  2  0  0  0  0
 11 14  2  0  0  0  0
 11 17  1  0  0  0  0
 12 15  1  0  0  0  0
 12 20  1  0  0  0  0
 13 14  1  0  0  0  0
 13 16  1  0  0  0  0
 13 19  2  0  0  0  0
 15 21  1  0  0  0  0
 17 18  2  0  0  0  0
 18 19  1  0  0  0  0
 22 25  1  0  0  0  0
 23 26  1  0  0  0  0
M  END
> <PUBCHEM_COMPOUND_ID_TYPE>
0

> <PUBCHEM_TOTAL_CHARGE>
0

> <PUBCHEM_SUBSTANCE_ID>
310945926

> <PUBCHEM_SUBSTANCE_VERSION>
1

> <PUBCHEM_EXT_DATASOURCE_NAME>
4488

> <PUBCHEM_EXT_DATASOURCE_REGID>
SCHEMBL16124031

> <PUBCHEM_SUBSTANCE_COMMENT>
InChI=1S/C19H27F3N4O2/c1-13-17(12-26(3)6-5-23-2)18(25-24-13)14-9-15(19(20,21)22)11-16(10-14)28-8-7-27-4/h9-11,23H,5-8,12H2,1-4H3,(H,24,25)
InChIKey=MNYXABDZMBQLHV-UHFFFAOYSA-N

> <PUBCHEM_SUBSTANCE_SYNONYM>
SCHEMBL16124031

> <PUBCHEM_XREF_EXT_ID>
SCHEMBL16124031

> <PUBCHEM_EXT_DATASOURCE_URL>
https://www.surechembl.org/

> <PUBCHEM_EXT_SUBSTANCE_URL>
https://www.surechembl.org/chemical/SCHEMBL16124031

> <PUBCHEM_CID_ASSOCIATIONS>
117611909  1

> <PUBCHEM_COORDINATE_TYPE>
1
3

$$$$
