310931373
  -OEChem-07211613022D

 27 29  0     1  0  0  0  0  0999 V2000
    3.2981    0.0000    0.0000 O   0  0  0  0  0  0  0  0  0  0  0  0
    4.4354   -1.9618    0.0000 O   0  0  0  0  0  0  0  0  0  0  0  0
    5.1462   -0.7108    0.0000 O   0  0  0  0  0  0  0  0  0  0  0  0
    0.0000   -2.3883    0.0000 O   0  0  0  0  0  0  0  0  0  0  0  0
    3.7246   -0.7108    0.0000 C   0  0  3  0  0  0  0  0  0  0  0  0
    2.9001   -0.7108    0.0000 C   0  0  3  0  0  0  0  0  0  0  0  0
    3.4972   -1.5354    0.0000 C   0  0  0  0  0  0  0  0  0  0  0  0
    4.4354   -1.1373    0.0000 C   0  0  0  0  0  0  0  0  0  0  0  0
    2.1609   -1.1373    0.0000 C   0  0  0  0  0  0  0  0  0  0  0  0
    4.0942   -2.1324    0.0000 C   0  0  0  0  0  0  0  0  0  0  0  0
    2.7010   -1.7628    0.0000 C   0  0  0  0  0  0  0  0  0  0  0  0
    2.1609   -1.9618    0.0000 C   0  0  0  0  0  0  0  0  0  0  0  0
    1.4500   -0.7392    0.0000 C   0  0  0  0  0  0  0  0  0  0  0  0
    3.8667   -2.9285    0.0000 C   0  0  0  0  0  0  0  0  0  0  0  0
    2.5020   -2.5589    0.0000 C   0  0  0  0  0  0  0  0  0  0  0  0
    3.0707   -3.1275    0.0000 C   0  0  0  0  0  0  0  0  0  0  0  0
    1.4500   -2.3883    0.0000 C   0  0  0  0  0  0  0  0  0  0  0  0
    0.7392   -1.1373    0.0000 C   0  0  0  0  0  0  0  0  0  0  0  0
    0.7392   -1.9618    0.0000 C   0  0  0  0  0  0  0  0  0  0  0  0
    5.1462   -2.3883    0.0000 C   0  0  0  0  0  0  0  0  0  0  0  0
    2.8432   -3.9236    0.0000 C   0  0  0  0  0  0  0  0  0  0  0  0
    5.1462   -3.2128    0.0000 C   0  0  0  0  0  0  0  0  0  0  0  0
    5.8570   -3.6109    0.0000 C   0  0  0  0  0  0  0  0  0  0  0  0
    0.0000   -3.2128    0.0000 C   0  0  0  0  0  0  0  0  0  0  0  0
    5.8855   -4.4354    0.0000 C   0  0  0  0  0  0  0  0  0  0  0  0
    6.5963   -4.8619    0.0000 C   0  0  0  0  0  0  0  0  0  0  0  0
    6.5963   -5.6864    0.0000 C   0  0  0  0  0  0  0  0  0  0  0  0
  1  5  1  0  0  0  0
  1  6  1  0  0  0  0
  2  8  1  0  0  0  0
  2 20  1  0  0  0  0
  3  8  2  0  0  0  0
  4 19  1  0  0  0  0
  4 24  1  0  0  0  0
  5  6  1  0  0  0  0
  5  7  1  0  0  0  0
  5  8  1  0  0  0  0
  6  9  1  0  0  0  0
  7 10  2  0  0  0  0
  7 11  1  0  0  0  0
  9 12  2  0  0  0  0
  9 13  1  0  0  0  0
 10 14  1  0  0  0  0
 11 15  2  0  0  0  0
 12 17  1  0  0  0  0
 13 18  2  0  0  0  0
 14 16  2  0  0  0  0
 15 16  1  0  0  0  0
 16 21  1  0  0  0  0
 17 19  2  0  0  0  0
 18 19  1  0  0  0  0
 20 22  1  0  0  0  0
 22 23  1  0  0  0  0
 23 25  1  0  0  0  0
 25 26  1  0  0  0  0
 26 27  1  0  0  0  0
M  END
> <PUBCHEM_COMPOUND_ID_TYPE>
0

> <PUBCHEM_TOTAL_CHARGE>
0

> <PUBCHEM_SUBSTANCE_ID>
310931373

> <PUBCHEM_SUBSTANCE_VERSION>
1

> <PUBCHEM_EXT_DATASOURCE_NAME>
4488

> <PUBCHEM_EXT_DATASOURCE_REGID>
SCHEMBL16108696

> <PUBCHEM_SUBSTANCE_COMMENT>
InChI=1S/C23H28O4/c1-4-5-6-7-16-26-22(24)23(19-12-8-17(2)9-13-19)21(27-23)18-10-14-20(25-3)15-11-18/h8-15,21H,4-7,16H2,1-3H3
InChIKey=KXVLELCRJWFBHH-UHFFFAOYSA-N

> <PUBCHEM_SUBSTANCE_SYNONYM>
SCHEMBL16108696

> <PUBCHEM_XREF_EXT_ID>
SCHEMBL16108696

> <PUBCHEM_EXT_DATASOURCE_URL>
https://www.surechembl.org/

> <PUBCHEM_EXT_SUBSTANCE_URL>
https://www.surechembl.org/chemical/SCHEMBL16108696

> <PUBCHEM_CID_ASSOCIATIONS>
117600170  1

> <PUBCHEM_COORDINATE_TYPE>
1
3

$$$$
