310931815
  -OEChem-07211613022D

 23 25  0     1  0  0  0  0  0999 V2000
    2.5736   -1.2562    0.0000 O   0  0  0  0  0  0  0  0  0  0  0  0
    3.7072   -3.2170    0.0000 O   0  0  0  0  0  0  0  0  0  0  0  0
    4.4425   -1.9608    0.0000 O   0  0  0  0  0  0  0  0  0  0  0  0
    2.1753   -1.9608    0.0000 C   0  0  0  0  0  0  0  0  0  0  0  0
    3.0025   -1.9608    0.0000 C   0  0  3  0  0  0  0  0  0  0  0  0
    1.4400   -2.3898    0.0000 C   0  0  0  0  0  0  0  0  0  0  0  0
    1.5932   -1.3787    0.0000 C   0  0  0  0  0  0  0  0  0  0  0  0
    3.7072   -2.3898    0.0000 C   0  0  0  0  0  0  0  0  0  0  0  0
    1.4400   -3.2170    0.0000 C   0  0  0  0  0  0  0  0  0  0  0  0
    0.7659   -1.5932    0.0000 C   0  0  0  0  0  0  0  0  0  0  0  0
    0.7353   -1.9915    0.0000 C   0  0  0  0  0  0  0  0  0  0  0  0
    1.7770   -0.5821    0.0000 C   0  0  0  0  0  0  0  0  0  0  0  0
    0.7353   -3.6459    0.0000 C   0  0  0  0  0  0  0  0  0  0  0  0
    0.1838   -1.0111    0.0000 C   0  0  0  0  0  0  0  0  0  0  0  0
    0.0000   -2.3898    0.0000 C   0  0  0  0  0  0  0  0  0  0  0  0
    1.1949    0.0000    0.0000 C   0  0  0  0  0  0  0  0  0  0  0  0
    0.0000   -3.2170    0.0000 C   0  0  0  0  0  0  0  0  0  0  0  0
    0.3983   -0.2145    0.0000 C   0  0  0  0  0  0  0  0  0  0  0  0
    4.4425   -3.6459    0.0000 C   0  0  0  0  0  0  0  0  0  0  0  0
    4.4425   -4.4731    0.0000 C   0  0  0  0  0  0  0  0  0  0  0  0
    5.1471   -4.8714    0.0000 C   0  0  0  0  0  0  0  0  0  0  0  0
    5.1778   -5.6986    0.0000 C   0  0  0  0  0  0  0  0  0  0  0  0
    5.8825   -6.1275    0.0000 C   0  0  0  0  0  0  0  0  0  0  0  0
  1  4  1  0  0  0  0
  1  5  1  0  0  0  0
  2  8  1  0  0  0  0
  2 19  1  0  0  0  0
  3  8  2  0  0  0  0
  4  5  1  0  0  0  0
  4  6  1  0  0  0  0
  4  7  1  0  0  0  0
  5  8  1  0  0  0  0
  6  9  2  0  0  0  0
  6 11  1  0  0  0  0
  7 10  2  0  0  0  0
  7 12  1  0  0  0  0
  9 13  1  0  0  0  0
 10 14  1  0  0  0  0
 11 15  2  0  0  0  0
 12 16  2  0  0  0  0
 13 17  2  0  0  0  0
 14 18  2  0  0  0  0
 15 17  1  0  0  0  0
 16 18  1  0  0  0  0
 19 20  1  0  0  0  0
 20 21  1  0  0  0  0
 21 22  1  0  0  0  0
 22 23  1  0  0  0  0
M  END
> <PUBCHEM_COMPOUND_ID_TYPE>
0

> <PUBCHEM_TOTAL_CHARGE>
0

> <PUBCHEM_SUBSTANCE_ID>
310931815

> <PUBCHEM_SUBSTANCE_VERSION>
1

> <PUBCHEM_EXT_DATASOURCE_NAME>
4488

> <PUBCHEM_EXT_DATASOURCE_REGID>
SCHEMBL16109148

> <PUBCHEM_SUBSTANCE_COMMENT>
InChI=1S/C20H22O3/c1-2-3-10-15-22-19(21)18-20(23-18,16-11-6-4-7-12-16)17-13-8-5-9-14-17/h4-9,11-14,18H,2-3,10,15H2,1H3
InChIKey=MQJXCOFMHOCSKF-UHFFFAOYSA-N

> <PUBCHEM_SUBSTANCE_SYNONYM>
SCHEMBL16109148

> <PUBCHEM_XREF_EXT_ID>
SCHEMBL16109148

> <PUBCHEM_EXT_DATASOURCE_URL>
https://www.surechembl.org/

> <PUBCHEM_EXT_SUBSTANCE_URL>
https://www.surechembl.org/chemical/SCHEMBL16109148

> <PUBCHEM_CID_ASSOCIATIONS>
117600491  1

> <PUBCHEM_COORDINATE_TYPE>
1
3

$$$$
