310945258
  -OEChem-07211613022D

 42 46  0     1  0  0  0  0  0999 V2000
    2.4329    2.9793    0.0000 O   0  0  0  0  0  0  0  0  0  0  0  0
    4.6184   -0.7525    0.0000 O   0  0  0  0  0  0  0  0  0  0  0  0
    3.8762   -1.9484    0.0000 O   0  0  0  0  0  0  0  0  0  0  0  0
   -0.8247   -0.8350    0.0000 O   0  0  0  0  0  0  0  0  0  0  0  0
   -5.4020   -1.5567    0.0000 O   0  0  0  0  0  0  0  0  0  0  0  0
    0.9278    0.6701    0.0000 N   0  0  0  0  0  0  0  0  0  0  0  0
    3.1546    1.7422    0.0000 N   0  0  0  0  0  0  0  0  0  0  0  0
    3.1546   -0.7319    0.0000 N   0  0  0  0  0  0  0  0  0  0  0  0
   -2.0618    1.3298    0.0000 N   0  0  0  0  0  0  0  0  0  0  0  0
   -2.0618   -0.0928    0.0000 N   0  0  0  0  0  0  0  0  0  0  0  0
   -4.1442   -2.2577    0.0000 N   0  0  0  0  0  0  0  0  0  0  0  0
    2.4329    0.5052    0.0000 C   0  0  3  0  0  0  0  0  0  0  0  0
    1.6907    0.9175    0.0000 C   0  0  0  0  0  0  0  0  0  0  0  0
    1.7113    1.7422    0.0000 C   0  0  0  0  0  0  0  0  0  0  0  0
    0.4330    1.3298    0.0000 C   0  0  0  0  0  0  0  0  0  0  0  0
    2.4329    2.1340    0.0000 C   0  0  0  0  0  0  0  0  0  0  0  0
    3.1546    0.9175    0.0000 C   0  0  0  0  0  0  0  0  0  0  0  0
    3.1546    0.0928    0.0000 C   0  0  0  0  0  0  0  0  0  0  0  0
    0.9278    1.9897    0.0000 C   0  0  0  0  0  0  0  0  0  0  0  0
    1.7319    0.0928    0.0000 C   0  0  0  0  0  0  0  0  0  0  0  0
   -0.4124    1.3505    0.0000 C   0  0  0  0  0  0  0  0  0  0  0  0
    1.7113   -0.7319    0.0000 C   0  0  0  0  0  0  0  0  0  0  0  0
    2.4535   -1.1649    0.0000 C   0  0  0  0  0  0  0  0  0  0  0  0
    3.8762   -1.1443    0.0000 C   0  0  0  0  0  0  0  0  0  0  0  0
   -0.8041    0.6082    0.0000 C   0  0  0  0  0  0  0  0  0  0  0  0
   -0.7835    2.0309    0.0000 C   0  0  0  0  0  0  0  0  0  0  0  0
   -1.6494    0.6082    0.0000 C   0  0  0  0  0  0  0  0  0  0  0  0
   -1.6494    2.0515    0.0000 C   0  0  0  0  0  0  0  0  0  0  0  0
    4.6390    0.0928    0.0000 C   0  0  0  0  0  0  0  0  0  0  0  0
   -1.6701   -0.8144    0.0000 C   0  0  0  0  0  0  0  0  0  0  0  0
   -2.0824   -1.5567    0.0000 C   0  0  0  0  0  0  0  0  0  0  0  0
   -2.8865   -1.5567    0.0000 C   0  0  0  0  0  0  0  0  0  0  0  0
    5.4020    0.1134    0.0000 C   0  0  0  0  0  0  0  0  0  0  0  0
    3.8762    0.0928    0.0000 C   0  0  0  0  0  0  0  0  0  0  0  0
    4.6184    0.9175    0.0000 C   0  0  0  0  0  0  0  0  0  0  0  0
   -3.3195   -2.2577    0.0000 C   0  0  0  0  0  0  0  0  0  0  0  0
   -1.6701   -2.2371    0.0000 C   0  0  0  0  0  0  0  0  0  0  0  0
   -2.8865   -2.9793    0.0000 C   0  0  0  0  0  0  0  0  0  0  0  0
   -2.0618   -2.9793    0.0000 C   0  0  0  0  0  0  0  0  0  0  0  0
   -4.5359   -1.5567    0.0000 C   0  0  0  0  0  0  0  0  0  0  0  0
   -4.1442   -0.8144    0.0000 C   0  0  0  0  0  0  0  0  0  0  0  0
   -4.6390   -0.1546    0.0000 C   0  0  0  0  0  0  0  0  0  0  0  0
  1 16  2  0  0  0  0
  2 24  1  0  0  0  0
  2 29  1  0  0  0  0
  3 24  2  0  0  0  0
  4 30  2  0  0  0  0
  5 40  2  0  0  0  0
  6 13  1  0  0  0  0
  6 15  1  0  0  0  0
  7 16  1  0  0  0  0
  7 17  1  0  0  0  0
  8 18  1  0  0  0  0
  8 23  1  0  0  0  0
  8 24  1  0  0  0  0
  9 27  1  0  0  0  0
  9 28  2  0  0  0  0
 10 27  1  0  0  0  0
 10 30  1  0  0  0  0
 11 36  1  0  0  0  0
 11 40  1  0  0  0  0
 12 13  1  0  0  0  0
 12 17  1  0  0  0  0
 12 18  1  0  0  0  0
 12 20  1  0  0  0  0
 13 14  2  0  0  0  0
 14 16  1  0  0  0  0
 14 19  1  0  0  0  0
 15 19  2  0  0  0  0
 15 21  1  0  0  0  0
 20 22  1  0  0  0  0
 21 25  1  0  0  0  0
 21 26  2  0  0  0  0
 22 23  1  0  0  0  0
 25 27  2  0  0  0  0
 26 28  1  0  0  0  0
 29 33  1  0  0  0  0
 29 34  1  0  0  0  0
 29 35  1  0  0  0  0
 30 31  1  0  0  0  0
 31 32  2  0  0  0  0
 31 37  1  0  0  0  0
 32 36  1  0  0  0  0
 36 38  2  0  0  0  0
 37 39  2  0  0  0  0
 38 39  1  0  0  0  0
 40 41  1  0  0  0  0
 41 42  2  0  0  0  0
M  END
> <PUBCHEM_COMPOUND_ID_TYPE>
0

> <PUBCHEM_TOTAL_CHARGE>
0

> <PUBCHEM_SUBSTANCE_ID>
310945258

> <PUBCHEM_SUBSTANCE_VERSION>
1

> <PUBCHEM_EXT_DATASOURCE_NAME>
4488

> <PUBCHEM_EXT_DATASOURCE_REGID>
SCHEMBL16123352

> <PUBCHEM_SUBSTANCE_COMMENT>
InChI=1S/C31H34N6O5/c1-5-25(38)34-21-9-6-8-20(14-21)27(39)36-24-15-19(10-12-32-24)23-16-22-26(35-23)31(17-33-28(22)40)11-7-13-37(18-31)29(41)42-30(2,3)4/h5-6,8-10,12,14-16,35H,1,7,11,13,17-18H2,2-4H3,(H,33,40)(H,34,38)(H,32,36,39)
InChIKey=DDMHVTWPOXMYGH-UHFFFAOYSA-N

> <PUBCHEM_SUBSTANCE_SYNONYM>
SCHEMBL16123352

> <PUBCHEM_XREF_EXT_ID>
SCHEMBL16123352

> <PUBCHEM_EXT_DATASOURCE_URL>
https://www.surechembl.org/

> <PUBCHEM_EXT_SUBSTANCE_URL>
https://www.surechembl.org/chemical/SCHEMBL16123352

> <PUBCHEM_CID_ASSOCIATIONS>
117611325  1

> <PUBCHEM_COORDINATE_TYPE>
1
3

$$$$
