310942096
  -OEChem-07211613022D

 29 32  0     1  0  0  0  0  0999 V2000
   -1.5745   -1.0766    0.0000 F   0  0  0  0  0  0  0  0  0  0  0  0
   -1.5745    1.7985    0.0000 F   0  0  0  0  0  0  0  0  0  0  0  0
   -2.4084    0.3547    0.0000 O   0  0  0  0  0  0  0  0  0  0  0  0
    0.9148   -1.0766    0.0000 N   0  0  0  0  0  0  0  0  0  0  0  0
    3.5659   -2.2092    0.0000 N   0  0  0  0  0  0  0  0  0  0  0  0
   -0.3298   -0.3547    0.0000 C   0  0  0  0  0  0  0  0  0  0  0  0
   -1.1513   -0.3423    0.0000 C   0  0  0  0  0  0  0  0  0  0  0  0
   -1.5745    0.3672    0.0000 C   0  0  0  0  0  0  0  0  0  0  0  0
    0.0809   -1.0641    0.0000 C   0  0  3  0  0  0  0  0  0  0  0  0
    2.6449   -1.1139    0.0000 C   0  0  0  0  0  0  0  0  0  0  0  0
   -1.1637    1.0891    0.0000 C   0  0  0  0  0  0  0  0  0  0  0  0
    2.1595   -1.7985    0.0000 C   0  0  0  0  0  0  0  0  0  0  0  0
    3.4414   -1.3753    0.0000 C   0  0  0  0  0  0  0  0  0  0  0  0
    0.0809    0.3547    0.0000 C   0  0  0  0  0  0  0  0  0  0  0  0
   -0.3174    1.0641    0.0000 C   0  0  0  0  0  0  0  0  0  0  0  0
    1.3256   -1.7860    0.0000 C   0  0  0  0  0  0  0  0  0  0  0  0
    2.6697   -2.4706    0.0000 C   0  0  0  0  0  0  0  0  0  0  0  0
   -2.8191    1.0766    0.0000 C   0  0  0  0  0  0  0  0  0  0  0  0
    2.4831   -0.3174    0.0000 C   0  0  0  0  0  0  0  0  0  0  0  0
    4.0513   -0.8277    0.0000 C   0  0  0  0  0  0  0  0  0  0  0  0
   -0.3298   -1.7985    0.0000 C   0  0  0  0  0  0  0  0  0  0  0  0
    3.0929    0.2302    0.0000 C   0  0  0  0  0  0  0  0  0  0  0  0
    3.8895   -0.0187    0.0000 C   0  0  0  0  0  0  0  0  0  0  0  0
   -2.4084    1.8110    0.0000 C   0  0  0  0  0  0  0  0  0  0  0  0
   -3.6405    1.0891    0.0000 C   0  0  0  0  0  0  0  0  0  0  0  0
   -2.8191    2.5079    0.0000 C   0  0  0  0  0  0  0  0  0  0  0  0
   -4.0513    1.8110    0.0000 C   0  0  0  0  0  0  0  0  0  0  0  0
    0.0809   -2.5079    0.0000 C   0  0  0  0  0  0  0  0  0  0  0  0
   -3.6405    2.5079    0.0000 C   0  0  0  0  0  0  0  0  0  0  0  0
  1  7  1  0  0  0  0
  2 11  1  0  0  0  0
  3  8  1  0  0  0  0
  3 18  1  0  0  0  0
  4  9  1  0  0  0  0
  4 16  1  0  0  0  0
  5 13  1  0  0  0  0
  5 17  1  0  0  0  0
  6  7  2  0  0  0  0
  6  9  1  0  0  0  0
  6 14  1  0  0  0  0
  7  8  1  0  0  0  0
  8 11  2  0  0  0  0
  9 21  1  0  0  0  0
 10 12  1  0  0  0  0
 10 13  2  0  0  0  0
 10 19  1  0  0  0  0
 11 15  1  0  0  0  0
 12 16  1  0  0  0  0
 12 17  2  0  0  0  0
 13 20  1  0  0  0  0
 14 15  2  0  0  0  0
 18 24  2  0  0  0  0
 18 25  1  0  0  0  0
 19 22  2  0  0  0  0
 20 23  2  0  0  0  0
 21 28  1  0  0  0  0
 22 23  1  0  0  0  0
 24 26  1  0  0  0  0
 25 27  2  0  0  0  0
 26 29  2  0  0  0  0
 27 29  1  0  0  0  0
M  END
> <PUBCHEM_COMPOUND_ID_TYPE>
0

> <PUBCHEM_TOTAL_CHARGE>
0

> <PUBCHEM_SUBSTANCE_ID>
310942096

> <PUBCHEM_SUBSTANCE_VERSION>
1

> <PUBCHEM_EXT_DATASOURCE_NAME>
4488

> <PUBCHEM_EXT_DATASOURCE_REGID>
SCHEMBL16120131

> <PUBCHEM_SUBSTANCE_COMMENT>
InChI=1S/C24H22F2N2O/c1-2-21(27-14-16-15-28-22-11-7-6-10-18(16)22)19-12-13-20(25)24(23(19)26)29-17-8-4-3-5-9-17/h3-13,15,21,27-28H,2,14H2,1H3
InChIKey=DLUDIQMZQFBEOX-UHFFFAOYSA-N

> <PUBCHEM_SUBSTANCE_SYNONYM>
SCHEMBL16120131

> <PUBCHEM_XREF_EXT_ID>
SCHEMBL16120131

> <PUBCHEM_EXT_DATASOURCE_URL>
https://www.surechembl.org/

> <PUBCHEM_EXT_SUBSTANCE_URL>
https://www.surechembl.org/chemical/SCHEMBL16120131

> <PUBCHEM_CID_ASSOCIATIONS>
117608758  1

> <PUBCHEM_COORDINATE_TYPE>
1
3

$$$$
