310933632
  -OEChem-07211613022D

 15 14  0     1  0  0  0  0  0999 V2000
   -7.1449    1.1270    0.0000 O   0  0  0  0  0  0  0  0  0  0  0  0
   -5.7159    1.1270    0.0000 O   0  0  0  0  0  0  0  0  0  0  0  0
   -5.3034   -1.2375    0.0000 N   0  0  0  0  0  0  0  0  0  0  0  0
   -6.1284   -1.2375    0.0000 N   0  0  0  0  0  0  0  0  0  0  0  0
   -5.7159   -0.5231    0.0000 C   0  0  0  0  0  0  0  0  0  0  0  0
   -6.4304   -0.1106    0.0000 C   0  0  3  0  0  0  0  0  0  0  0  0
   -6.4304    0.7145    0.0000 C   0  0  0  0  0  0  0  0  0  0  0  0
   -7.1449   -0.5231    0.0000 C   0  0  0  0  0  0  0  0  0  0  0  0
   -5.0014   -0.1106    0.0000 C   0  0  0  0  0  0  0  0  0  0  0  0
   -7.8594   -0.1106    0.0000 C   0  0  0  0  0  0  0  0  0  0  0  0
   -4.2869   -0.5231    0.0000 C   0  0  0  0  0  0  0  0  0  0  0  0
   -8.5738   -0.5231    0.0000 C   0  0  0  0  0  0  0  0  0  0  0  0
   -9.2883   -0.1106    0.0000 C   0  0  0  0  0  0  0  0  0  0  0  0
  -10.0028   -0.5231    0.0000 C   0  0  0  0  0  0  0  0  0  0  0  0
  -10.7173   -0.1106    0.0000 C   0  0  0  0  0  0  0  0  0  0  0  0
  1  7  2  0  0  0  0
  2  7  1  0  0  0  0
  3  5  1  0  0  0  0
  4  5  1  0  0  0  0
  5  6  1  0  0  0  0
  5  9  1  0  0  0  0
  6  7  1  0  0  0  0
  6  8  1  0  0  0  0
  8 10  1  0  0  0  0
  9 11  1  0  0  0  0
 10 12  1  0  0  0  0
 12 13  1  0  0  0  0
 13 14  1  0  0  0  0
 14 15  1  0  0  0  0
M  END
> <PUBCHEM_COMPOUND_ID_TYPE>
0

> <PUBCHEM_TOTAL_CHARGE>
0

> <PUBCHEM_SUBSTANCE_ID>
310933632

> <PUBCHEM_SUBSTANCE_VERSION>
1

> <PUBCHEM_EXT_DATASOURCE_NAME>
4488

> <PUBCHEM_EXT_DATASOURCE_REGID>
SCHEMBL16111063

> <PUBCHEM_SUBSTANCE_COMMENT>
InChI=1S/C11H24N2O2/c1-3-5-6-7-8-9(10(14)15)11(12,13)4-2/h9H,3-8,12-13H2,1-2H3,(H,14,15)
InChIKey=UHDSLGOFPMEOJX-UHFFFAOYSA-N

> <PUBCHEM_SUBSTANCE_SYNONYM>
SCHEMBL16111063

> <PUBCHEM_XREF_EXT_ID>
SCHEMBL16111063

> <PUBCHEM_EXT_DATASOURCE_URL>
https://www.surechembl.org/

> <PUBCHEM_EXT_SUBSTANCE_URL>
https://www.surechembl.org/chemical/SCHEMBL16111063

> <PUBCHEM_CID_ASSOCIATIONS>
117602005  1

> <PUBCHEM_COORDINATE_TYPE>
1
3

$$$$
