310937754
  -OEChem-07211613022D

 24 26  0     1  0  0  0  0  0999 V2000
    0.4371   -2.5917    0.0000 Br  0  0  0  0  0  0  0  0  0  0  0  0
    0.4371   -4.7462    0.0000 S   0  0  0  0  0  0  0  0  0  0  0  0
    2.0608   -2.4980    0.0000 O   0  0  0  0  0  0  0  0  0  0  0  0
    4.9647   -0.8431    0.0000 O   0  0  0  0  0  0  0  0  0  0  0  0
    3.4972   -3.3411    0.0000 N   0  0  0  0  0  0  0  0  0  0  0  0
    2.7790   -3.7470    0.0000 C   0  0  3  0  0  0  0  0  0  0  0  0
    2.0608   -3.3411    0.0000 C   0  0  0  0  0  0  0  0  0  0  0  0
    1.3427   -3.7470    0.0000 C   0  0  0  0  0  0  0  0  0  0  0  0
    2.7790   -4.5900    0.0000 C   0  0  0  0  0  0  0  0  0  0  0  0
    0.5933   -3.4035    0.0000 C   0  0  0  0  0  0  0  0  0  0  0  0
    3.4972   -2.4980    0.0000 C   0  0  0  0  0  0  0  0  0  0  0  0
    1.2490   -4.5900    0.0000 C   0  0  0  0  0  0  0  0  0  0  0  0
    0.0000   -4.0280    0.0000 C   0  0  0  0  0  0  0  0  0  0  0  0
    3.4972   -4.9960    0.0000 C   0  0  0  0  0  0  0  0  0  0  0  0
    2.0608   -4.9960    0.0000 C   0  0  0  0  0  0  0  0  0  0  0  0
    4.2154   -2.0921    0.0000 C   0  0  0  0  0  0  0  0  0  0  0  0
    2.7790   -2.0921    0.0000 C   0  0  0  0  0  0  0  0  0  0  0  0
    4.2154   -1.2490    0.0000 C   0  0  0  0  0  0  0  0  0  0  0  0
    3.4972   -5.8391    0.0000 C   0  0  0  0  0  0  0  0  0  0  0  0
    2.0608   -5.8391    0.0000 C   0  0  0  0  0  0  0  0  0  0  0  0
    2.7790   -1.2490    0.0000 C   0  0  0  0  0  0  0  0  0  0  0  0
    3.4972   -0.8431    0.0000 C   0  0  0  0  0  0  0  0  0  0  0  0
    2.7790   -6.2450    0.0000 C   0  0  0  0  0  0  0  0  0  0  0  0
    4.9335    0.0000    0.0000 C   0  0  0  0  0  0  0  0  0  0  0  0
  1 10  1  0  0  0  0
  2 12  1  0  0  0  0
  2 13  1  0  0  0  0
  3  7  2  0  0  0  0
  4 18  1  0  0  0  0
  4 24  1  0  0  0  0
  5  6  1  0  0  0  0
  5 11  1  0  0  0  0
  6  7  1  0  0  0  0
  6  9  1  0  0  0  0
  7  8  1  0  0  0  0
  8 10  1  0  0  0  0
  8 12  2  0  0  0  0
  9 14  2  0  0  0  0
  9 15  1  0  0  0  0
 10 13  2  0  0  0  0
 11 16  1  0  0  0  0
 11 17  2  0  0  0  0
 14 19  1  0  0  0  0
 15 20  2  0  0  0  0
 16 18  2  0  0  0  0
 17 21  1  0  0  0  0
 18 22  1  0  0  0  0
 19 23  2  0  0  0  0
 20 23  1  0  0  0  0
 21 22  2  0  0  0  0
M  END
> <PUBCHEM_COMPOUND_ID_TYPE>
0

> <PUBCHEM_TOTAL_CHARGE>
0

> <PUBCHEM_SUBSTANCE_ID>
310937754

> <PUBCHEM_SUBSTANCE_VERSION>
1

> <PUBCHEM_EXT_DATASOURCE_NAME>
4488

> <PUBCHEM_EXT_DATASOURCE_REGID>
SCHEMBL16115562

> <PUBCHEM_SUBSTANCE_COMMENT>
InChI=1S/C19H16BrNO2S/c1-23-15-9-5-8-14(10-15)21-18(13-6-3-2-4-7-13)19(22)16-11-24-12-17(16)20/h2-12,18,21H,1H3
InChIKey=JSJUQNBSBSUIOY-UHFFFAOYSA-N

> <PUBCHEM_SUBSTANCE_SYNONYM>
SCHEMBL16115562

> <PUBCHEM_XREF_EXT_ID>
SCHEMBL16115562

> <PUBCHEM_EXT_DATASOURCE_URL>
https://www.surechembl.org/

> <PUBCHEM_EXT_SUBSTANCE_URL>
https://www.surechembl.org/chemical/SCHEMBL16115562

> <PUBCHEM_CID_ASSOCIATIONS>
117605413  1

> <PUBCHEM_COORDINATE_TYPE>
1
3

$$$$
