310941925
  -OEChem-07211613022D

 22 23  0     1  0  0  0  0  0999 V2000
   -1.0053    0.0344    0.0000 O   0  0  0  0  0  0  0  0  0  0  0  0
    1.9143   -1.4254    0.0000 N   0  0  0  0  0  0  0  0  0  0  0  0
    2.3963   -0.7643    0.0000 N   0  0  0  0  0  0  0  0  0  0  0  0
    1.5425    1.2601    0.0000 N   0  0  3  0  0  0  0  0  0  0  0  0
    3.1400    1.6870    0.0000 N   0  0  0  0  0  0  0  0  0  0  0  0
    1.1430   -0.3649    0.0000 C   0  0  0  0  0  0  0  0  0  0  0  0
    1.1293   -1.1638    0.0000 C   0  0  0  0  0  0  0  0  0  0  0  0
    1.9143   -0.1170    0.0000 C   0  0  0  0  0  0  0  0  0  0  0  0
    0.4131    0.0344    0.0000 C   0  0  0  0  0  0  0  0  0  0  0  0
    0.4269   -1.5907    0.0000 C   0  0  0  0  0  0  0  0  0  0  0  0
   -0.2892   -0.3649    0.0000 C   0  0  0  0  0  0  0  0  0  0  0  0
    2.1208    0.6817    0.0000 C   0  0  0  0  0  0  0  0  0  0  0  0
   -0.2892   -1.1775    0.0000 C   0  0  0  0  0  0  0  0  0  0  0  0
    2.1897   -2.2379    0.0000 C   0  0  0  0  0  0  0  0  0  0  0  0
    1.7628    2.0451    0.0000 C   0  0  0  0  0  0  0  0  0  0  0  0
   -1.6939   -0.3649    0.0000 C   0  0  0  0  0  0  0  0  0  0  0  0
    0.7437    1.0260    0.0000 C   0  0  0  0  0  0  0  0  0  0  0  0
   -2.4238    0.0482    0.0000 C   0  0  0  0  0  0  0  0  0  0  0  0
    2.5753    2.2379    0.0000 C   0  0  0  0  0  0  0  0  0  0  0  0
   -2.4376    0.8745    0.0000 C   0  0  0  0  0  0  0  0  0  0  0  0
   -3.1400   -0.3925    0.0000 C   0  0  0  0  0  0  0  0  0  0  0  0
    2.9472    0.8745    0.0000 C   0  0  0  0  0  0  0  0  0  0  0  0
  1 11  1  0  0  0  0
  1 16  1  0  0  0  0
  2  3  1  0  0  0  0
  2  7  1  0  0  0  0
  2 14  1  0  0  0  0
  3  8  2  0  0  0  0
  4 12  1  0  0  0  0
  4 15  1  0  0  0  0
  4 17  1  0  0  0  0
  5 19  1  0  0  0  0
  5 22  1  0  0  0  0
  6  7  1  0  0  0  0
  6  8  1  0  0  0  0
  6  9  2  0  0  0  0
  7 10  2  0  0  0  0
  8 12  1  0  0  0  0
  9 11  1  0  0  0  0
 10 13  1  0  0  0  0
 11 13  2  0  0  0  0
 15 19  1  0  0  0  0
 16 18  1  0  0  0  0
 18 20  1  0  0  0  0
 18 21  1  0  0  0  0
M  END
> <PUBCHEM_COMPOUND_ID_TYPE>
0

> <PUBCHEM_TOTAL_CHARGE>
0

> <PUBCHEM_SUBSTANCE_ID>
310941925

> <PUBCHEM_SUBSTANCE_VERSION>
1

> <PUBCHEM_EXT_DATASOURCE_NAME>
4488

> <PUBCHEM_EXT_DATASOURCE_REGID>
SCHEMBL16119958

> <PUBCHEM_SUBSTANCE_COMMENT>
InChI=1S/C17H28N4O/c1-13(2)12-22-14-6-7-17-15(10-14)16(19-21(17)5)11-20(4)9-8-18-3/h6-7,10,13,18H,8-9,11-12H2,1-5H3
InChIKey=NHIPXRVRJGWRLL-UHFFFAOYSA-N

> <PUBCHEM_SUBSTANCE_SYNONYM>
SCHEMBL16119958

> <PUBCHEM_XREF_EXT_ID>
SCHEMBL16119958

> <PUBCHEM_EXT_DATASOURCE_URL>
https://www.surechembl.org/

> <PUBCHEM_EXT_SUBSTANCE_URL>
https://www.surechembl.org/chemical/SCHEMBL16119958

> <PUBCHEM_CID_ASSOCIATIONS>
86301758  1

> <PUBCHEM_COORDINATE_TYPE>
1
3

$$$$
