310941159
  -OEChem-07211613022D

 42 46  0     1  0  0  0  0  0999 V2000
    5.2037   -1.4690    0.0000 O   0  0  0  0  0  0  0  0  0  0  0  0
    4.0635    0.4897    0.0000 O   0  0  0  0  0  0  0  0  0  0  0  0
    1.6809   -1.4544    0.0000 O   0  0  0  0  0  0  0  0  0  0  0  0
   -0.4823    0.6213    0.0000 O   0  0  0  0  0  0  0  0  0  0  0  0
   -2.6457   -1.4544    0.0000 O   0  0  0  0  0  0  0  0  0  0  0  0
   -5.5253   -1.4544    0.0000 O   0  0  0  0  0  0  0  0  0  0  0  0
    2.3826   -0.2120    0.0000 N   0  0  0  0  0  0  0  0  0  0  0  0
    0.2192   -0.6213    0.0000 N   0  0  0  0  0  0  0  0  0  0  0  0
    2.5580    3.1061    0.0000 N   0  0  0  0  0  0  0  0  0  0  0  0
    3.7274    2.4337    0.0000 N   0  0  0  0  0  0  0  0  0  0  0  0
   -1.9441   -0.2120    0.0000 N   0  0  0  0  0  0  0  0  0  0  0  0
   -4.1074   -0.6213    0.0000 N   0  0  0  0  0  0  0  0  0  0  0  0
    4.7798   -0.7235    0.0000 C   0  0  3  0  0  0  0  0  0  0  0  0
    4.0343   -0.3289    0.0000 C   0  0  0  0  0  0  0  0  0  0  0  0
    4.3705   -1.4252    0.0000 C   0  0  0  0  0  0  0  0  0  0  0  0
    3.3473   -0.7235    0.0000 C   0  0  3  0  0  0  0  0  0  0  0  0
    5.5253   -0.2997    0.0000 C   0  0  0  0  0  0  0  0  0  0  0  0
    3.3327   -1.8052    0.0000 C   0  0  0  0  0  0  0  0  0  0  0  0
    1.6809   -0.5774    0.0000 C   0  0  0  0  0  0  0  0  0  0  0  0
    0.9501   -0.1827    0.0000 C   0  0  3  0  0  0  0  0  0  0  0  0
    2.6165   -2.2145    0.0000 C   0  0  0  0  0  0  0  0  0  0  0  0
    1.6809    1.0744    0.0000 C   0  0  0  0  0  0  0  0  0  0  0  0
    2.3972    2.3168    0.0000 C   0  0  0  0  0  0  0  0  0  0  0  0
    0.9647    0.6651    0.0000 C   0  0  0  0  0  0  0  0  0  0  0  0
    3.1135    1.9075    0.0000 C   0  0  0  0  0  0  0  0  0  0  0  0
    1.6956    1.9075    0.0000 C   0  0  0  0  0  0  0  0  0  0  0  0
    2.3972    0.6651    0.0000 C   0  0  0  0  0  0  0  0  0  0  0  0
    3.1135    1.0744    0.0000 C   0  0  0  0  0  0  0  0  0  0  0  0
   -0.4970   -0.1973    0.0000 C   0  0  0  0  0  0  0  0  0  0  0  0
    1.8710   -1.8929    0.0000 C   0  0  0  0  0  0  0  0  0  0  0  0
    2.5141   -3.0477    0.0000 C   0  0  0  0  0  0  0  0  0  0  0  0
    3.4058    3.2085    0.0000 C   0  0  0  0  0  0  0  0  0  0  0  0
   -1.1986   -0.5920    0.0000 C   0  0  3  0  0  0  0  0  0  0  0  0
    1.3156   -2.5214    0.0000 C   0  0  0  0  0  0  0  0  0  0  0  0
    1.7102   -3.2085    0.0000 C   0  0  0  0  0  0  0  0  0  0  0  0
   -2.6457   -0.5774    0.0000 C   0  0  0  0  0  0  0  0  0  0  0  0
   -1.2132   -1.4398    0.0000 C   0  0  0  0  0  0  0  0  0  0  0  0
   -3.3911   -0.1827    0.0000 C   0  0  0  0  0  0  0  0  0  0  0  0
   -4.0928   -1.4252    0.0000 C   0  0  0  0  0  0  0  0  0  0  0  0
   -4.8236   -0.1827    0.0000 C   0  0  0  0  0  0  0  0  0  0  0  0
   -4.7944   -1.8345    0.0000 C   0  0  0  0  0  0  0  0  0  0  0  0
   -5.5253   -0.5920    0.0000 C   0  0  0  0  0  0  0  0  0  0  0  0
  1 13  1  0  0  0  0
  1 15  1  0  0  0  0
  2 14  2  0  0  0  0
  3 19  2  0  0  0  0
  4 29  2  0  0  0  0
  5 36  2  0  0  0  0
  6 41  1  0  0  0  0
  6 42  1  0  0  0  0
  7 16  1  0  0  0  0
  7 19  1  0  0  0  0
  8 20  1  0  0  0  0
  8 29  1  0  0  0  0
  9 23  1  0  0  0  0
  9 32  2  0  0  0  0
 10 25  1  0  0  0  0
 10 32  1  0  0  0  0
 11 33  1  0  0  0  0
 11 36  1  0  0  0  0
 12 38  1  0  0  0  0
 12 39  1  0  0  0  0
 12 40  1  0  0  0  0
 13 14  1  0  0  0  0
 13 15  1  0  0  0  0
 13 17  1  0  0  0  0
 14 16  1  0  0  0  0
 16 18  1  0  0  0  0
 18 21  1  0  0  0  0
 19 20  1  0  0  0  0
 20 24  1  0  0  0  0
 21 30  1  0  0  0  0
 21 31  1  0  0  0  0
 22 24  1  0  0  0  0
 22 26  1  0  0  0  0
 22 27  2  0  0  0  0
 23 25  1  0  0  0  0
 23 26  2  0  0  0  0
 25 28  2  0  0  0  0
 27 28  1  0  0  0  0
 29 33  1  0  0  0  0
 30 34  1  0  0  0  0
 31 35  1  0  0  0  0
 33 37  1  0  0  0  0
 34 35  1  0  0  0  0
 36 38  1  0  0  0  0
 39 41  1  0  0  0  0
 40 42  1  0  0  0  0
M  END
> <PUBCHEM_COMPOUND_ID_TYPE>
0

> <PUBCHEM_TOTAL_CHARGE>
0

> <PUBCHEM_SUBSTANCE_ID>
310941159

> <PUBCHEM_SUBSTANCE_VERSION>
1

> <PUBCHEM_EXT_DATASOURCE_NAME>
4488

> <PUBCHEM_EXT_DATASOURCE_REGID>
SCHEMBL16119119

> <PUBCHEM_SUBSTANCE_COMMENT>
InChI=1S/C30H42N6O6/c1-19(33-26(37)16-36-9-11-41-12-10-36)28(39)35-25(15-21-7-8-22-23(14-21)32-18-31-22)29(40)34-24(13-20-5-3-4-6-20)27(38)30(2)17-42-30/h7-8,14,18-20,24-25H,3-6,9-13,15-17H2,1-2H3,(H,31,32)(H,33,37)(H,34,40)(H,35,39)
InChIKey=JFSQPUDBQCSHEJ-UHFFFAOYSA-N

> <PUBCHEM_SUBSTANCE_SYNONYM>
SCHEMBL16119119

> <PUBCHEM_XREF_EXT_ID>
SCHEMBL16119119

> <PUBCHEM_EXT_DATASOURCE_URL>
https://www.surechembl.org/

> <PUBCHEM_EXT_SUBSTANCE_URL>
https://www.surechembl.org/chemical/SCHEMBL16119119

> <PUBCHEM_CID_ASSOCIATIONS>
86298332  1

> <PUBCHEM_COORDINATE_TYPE>
1
3

$$$$
