310940187
  -OEChem-07211613022D

 43 47  0     1  0  0  0  0  0999 V2000
   -2.4249   -3.1360    0.0000 S   0  0  0  0  0  0  0  0  0  0  0  0
   -2.5181   -6.0272    0.0000 F   0  0  0  0  0  0  0  0  0  0  0  0
   -1.2591   -5.3277    0.0000 F   0  0  0  0  0  0  0  0  0  0  0  0
   -1.6787   -6.0272    0.0000 F   0  0  0  0  0  0  0  0  0  0  0  0
   -3.0311   -2.5764    0.0000 O   0  0  0  0  0  0  0  0  0  0  0  0
   -3.2176   -3.3925    0.0000 O   0  0  0  0  0  0  0  0  0  0  0  0
   -1.3756   -0.9676    0.0000 O   0  0  0  0  0  0  0  0  0  0  0  0
    0.8394    4.3717    0.0000 O   0  0  0  0  0  0  0  0  0  0  0  0
    2.2617    4.2318    0.0000 O   0  0  0  0  0  0  0  0  0  0  0  0
    0.7694    0.7810    0.0000 N   0  0  0  0  0  0  0  0  0  0  0  0
    1.0259   -0.0116    0.0000 N   0  0  0  0  0  0  0  0  0  0  0  0
   -2.0984   -3.8821    0.0000 N   0  0  3  0  0  0  0  0  0  0  0  0
    0.3497   -1.3173    0.0000 N   0  0  0  0  0  0  0  0  0  0  0  0
   -1.7021    0.4313    0.0000 N   0  0  0  0  0  0  0  0  0  0  0  0
    1.4223    3.0894    0.0000 N   0  0  0  0  0  0  0  0  0  0  0  0
    3.2176    0.5013    0.0000 N   0  0  0  0  0  0  0  0  0  0  0  0
    1.2357    1.4339    0.0000 C   0  0  0  0  0  0  0  0  0  0  0  0
   -0.0933    0.7810    0.0000 C   0  0  0  0  0  0  0  0  0  0  0  0
   -0.3264   -0.0116    0.0000 C   0  0  0  0  0  0  0  0  0  0  0  0
    0.3730   -0.4779    0.0000 C   0  0  0  0  0  0  0  0  0  0  0  0
   -1.7953   -2.5764    0.0000 C   0  0  0  0  0  0  0  0  0  0  0  0
   -1.0725   -2.9728    0.0000 C   0  0  0  0  0  0  0  0  0  0  0  0
   -1.1192   -0.1748    0.0000 C   0  0  0  0  0  0  0  0  0  0  0  0
   -0.3730   -1.7370    0.0000 C   0  0  0  0  0  0  0  0  0  0  0  0
   -1.2591   -3.7888    0.0000 C   0  0  0  0  0  0  0  0  0  0  0  0
   -0.3730   -2.5764    0.0000 C   0  0  0  0  0  0  0  0  0  0  0  0
    0.5829    1.9236    0.0000 C   0  0  0  0  0  0  0  0  0  0  0  0
    2.0052    1.7604    0.0000 C   0  0  0  0  0  0  0  0  0  0  0  0
   -0.6062    1.3873    0.0000 C   0  0  0  0  0  0  0  0  0  0  0  0
   -1.7720   -1.7370    0.0000 C   0  0  0  0  0  0  0  0  0  0  0  0
    1.5855    0.6879    0.0000 C   0  0  0  0  0  0  0  0  0  0  0  0
   -1.0725   -1.3406    0.0000 C   0  0  0  0  0  0  0  0  0  0  0  0
   -2.4948   -4.6049    0.0000 C   0  0  0  0  0  0  0  0  0  0  0  0
   -1.4223    1.2008    0.0000 C   0  0  0  0  0  0  0  0  0  0  0  0
    0.6761    2.7629    0.0000 C   0  0  0  0  0  0  0  0  0  0  0  0
    2.0984    2.5997    0.0000 C   0  0  0  0  0  0  0  0  0  0  0  0
   -2.0751   -5.3277    0.0000 C   0  0  0  0  0  0  0  0  0  0  0  0
    2.4015    0.5712    0.0000 C   0  0  0  0  0  0  0  0  0  0  0  0
    1.5155    3.9054    0.0000 C   0  0  0  0  0  0  0  0  0  0  0  0
    0.9326    5.2344    0.0000 C   0  0  0  0  0  0  0  0  0  0  0  0
    1.0026    6.0272    0.0000 C   0  0  0  0  0  0  0  0  0  0  0  0
    0.2798    5.7007    0.0000 C   0  0  0  0  0  0  0  0  0  0  0  0
    1.7021    5.5609    0.0000 C   0  0  0  0  0  0  0  0  0  0  0  0
  1  5  2  0  0  0  0
  1  6  2  0  0  0  0
  1 12  1  0  0  0  0
  1 21  1  0  0  0  0
  2 37  1  0  0  0  0
  3 37  1  0  0  0  0
  4 37  1  0  0  0  0
  7 23  2  0  0  0  0
  8 39  1  0  0  0  0
  8 40  1  0  0  0  0
  9 39  2  0  0  0  0
 10 11  1  0  0  0  0
 10 17  1  0  0  0  0
 10 18  1  0  0  0  0
 11 20  2  0  0  0  0
 12 25  1  0  0  0  0
 12 33  1  0  0  0  0
 13 20  1  0  0  0  0
 13 24  1  0  0  0  0
 14 23  1  0  0  0  0
 14 34  1  0  0  0  0
 15 35  1  0  0  0  0
 15 36  1  0  0  0  0
 15 39  1  0  0  0  0
 16 38  3  0  0  0  0
 17 27  1  0  0  0  0
 17 28  1  0  0  0  0
 17 31  1  0  0  0  0
 18 19  2  0  0  0  0
 18 29  1  0  0  0  0
 19 20  1  0  0  0  0
 19 23  1  0  0  0  0
 21 22  2  0  0  0  0
 21 30  1  0  0  0  0
 22 25  1  0  0  0  0
 22 26  1  0  0  0  0
 24 26  2  0  0  0  0
 24 32  1  0  0  0  0
 27 35  1  0  0  0  0
 28 36  1  0  0  0  0
 29 34  2  0  0  0  0
 30 32  2  0  0  0  0
 31 38  1  0  0  0  0
 33 37  1  0  0  0  0
 40 41  1  0  0  0  0
 40 42  1  0  0  0  0
 40 43  1  0  0  0  0
M  END
> <PUBCHEM_COMPOUND_ID_TYPE>
0

> <PUBCHEM_TOTAL_CHARGE>
0

> <PUBCHEM_SUBSTANCE_ID>
310940187

> <PUBCHEM_SUBSTANCE_VERSION>
1

> <PUBCHEM_EXT_DATASOURCE_NAME>
4488

> <PUBCHEM_EXT_DATASOURCE_REGID>
SCHEMBL16118121

> <PUBCHEM_SUBSTANCE_COMMENT>
InChI=1S/C27H30F3N7O5S/c1-25(2,3)42-24(39)35-12-8-26(7-10-31,9-13-35)37-19-6-11-32-23(38)21(19)22(34-37)33-18-4-5-20-17(14-18)15-36(43(20,40)41)16-27(28,29)30/h4-6,11,14H,7-9,12-13,15-16H2,1-3H3,(H,32,38)(H,33,34)
InChIKey=ZSVMYEVVCUDAEI-UHFFFAOYSA-N

> <PUBCHEM_SUBSTANCE_SYNONYM>
SCHEMBL16118121

> <PUBCHEM_XREF_EXT_ID>
SCHEMBL16118121

> <PUBCHEM_EXT_DATASOURCE_URL>
https://www.surechembl.org/

> <PUBCHEM_EXT_SUBSTANCE_URL>
https://www.surechembl.org/chemical/SCHEMBL16118121

> <PUBCHEM_CID_ASSOCIATIONS>
86272648  1

> <PUBCHEM_COORDINATE_TYPE>
1
3

$$$$
