310932455
  -OEChem-07211613022D

 29 32  0     1  0  0  0  0  0999 V2000
    3.9930   -2.1120    0.0000 O   0  0  0  0  0  0  0  0  0  0  0  0
    8.4480   -2.2110    0.0000 O   0  0  0  0  0  0  0  0  0  0  0  0
    9.9000   -3.8280    0.0000 O   0  0  0  0  0  0  0  0  0  0  0  0
    4.8840   -0.9900    0.0000 N   0  0  0  0  0  0  0  0  0  0  0  0
    4.8180   -0.1650    0.0000 N   0  0  0  0  0  0  0  0  0  0  0  0
    6.3360   -0.9900    0.0000 N   0  0  0  0  0  0  0  0  0  0  0  0
    7.7550   -3.4320    0.0000 N   0  0  0  0  0  0  0  0  0  0  0  0
    0.0000   -1.8480    0.0000 N   0  0  0  0  0  0  0  0  0  0  0  0
    4.1580   -1.3200    0.0000 C   0  0  0  0  0  0  0  0  0  0  0  0
    3.5970   -0.7260    0.0000 C   0  0  0  0  0  0  0  0  0  0  0  0
    5.6100   -1.3860    0.0000 C   0  0  0  0  0  0  0  0  0  0  0  0
    2.7720   -0.8250    0.0000 C   0  0  0  0  0  0  0  0  0  0  0  0
    3.9930    0.0000    0.0000 C   0  0  0  0  0  0  0  0  0  0  0  0
    5.6100   -2.2110    0.0000 C   0  0  0  0  0  0  0  0  0  0  0  0
    7.0290   -2.2110    0.0000 C   0  0  0  0  0  0  0  0  0  0  0  0
    7.0290   -1.3860    0.0000 C   0  0  0  0  0  0  0  0  0  0  0  0
    6.3360   -2.6070    0.0000 C   0  0  0  0  0  0  0  0  0  0  0  0
    2.4420   -1.5510    0.0000 C   0  0  0  0  0  0  0  0  0  0  0  0
    2.2770   -0.1650    0.0000 C   0  0  0  0  0  0  0  0  0  0  0  0
    7.7550   -2.6070    0.0000 C   0  0  0  0  0  0  0  0  0  0  0  0
    1.1550   -0.9900    0.0000 C   0  0  0  0  0  0  0  0  0  0  0  0
    1.6170   -1.6500    0.0000 C   0  0  0  0  0  0  0  0  0  0  0  0
    1.4850   -0.2640    0.0000 C   0  0  0  0  0  0  0  0  0  0  0  0
    8.4480   -3.8610    0.0000 C   0  0  3  0  0  0  0  0  0  0  0  0
    0.3300   -1.0890    0.0000 C   0  0  0  0  0  0  0  0  0  0  0  0
    9.1410   -3.4320    0.0000 C   0  0  0  0  0  0  0  0  0  0  0  0
    8.4480   -4.6860    0.0000 C   0  0  0  0  0  0  0  0  0  0  0  0
    9.1740   -5.0820    0.0000 C   0  0  0  0  0  0  0  0  0  0  0  0
    9.8670   -4.6530    0.0000 C   0  0  0  0  0  0  0  0  0  0  0  0
  1  9  1  0  0  0  0
  2 20  2  0  0  0  0
  3 26  1  0  0  0  0
  3 29  1  0  0  0  0
  4  5  1  0  0  0  0
  4  9  1  0  0  0  0
  4 11  1  0  0  0  0
  5 13  2  0  0  0  0
  6 11  2  0  0  0  0
  6 16  1  0  0  0  0
  7 20  1  0  0  0  0
  7 24  1  0  0  0  0
  8 25  3  0  0  0  0
  9 10  2  0  0  0  0
 10 12  1  0  0  0  0
 10 13  1  0  0  0  0
 11 14  1  0  0  0  0
 12 18  2  0  0  0  0
 12 19  1  0  0  0  0
 14 17  2  0  0  0  0
 15 16  2  0  0  0  0
 15 17  1  0  0  0  0
 15 20  1  0  0  0  0
 18 22  1  0  0  0  0
 19 23  2  0  0  0  0
 21 22  2  0  0  0  0
 21 23  1  0  0  0  0
 21 25  1  0  0  0  0
 24 26  1  0  0  0  0
 24 27  1  0  0  0  0
 27 28  1  0  0  0  0
 28 29  1  0  0  0  0
M  END
> <PUBCHEM_COMPOUND_ID_TYPE>
0

> <PUBCHEM_TOTAL_CHARGE>
0

> <PUBCHEM_SUBSTANCE_ID>
310932455

> <PUBCHEM_SUBSTANCE_VERSION>
1

> <PUBCHEM_EXT_DATASOURCE_NAME>
4488

> <PUBCHEM_EXT_DATASOURCE_REGID>
SCHEMBL16109826

> <PUBCHEM_SUBSTANCE_COMMENT>
InChI=1S/C21H19N5O3/c22-10-14-3-5-15(6-4-14)18-12-24-26(21(18)28)19-8-7-16(11-23-19)20(27)25-17-2-1-9-29-13-17/h3-8,11-12,17,28H,1-2,9,13H2,(H,25,27)
InChIKey=VAJFRUIYZKIEJV-UHFFFAOYSA-N

> <PUBCHEM_SUBSTANCE_SYNONYM>
SCHEMBL16109826

> <PUBCHEM_XREF_EXT_ID>
SCHEMBL16109826

> <PUBCHEM_EXT_DATASOURCE_URL>
https://www.surechembl.org/

> <PUBCHEM_EXT_SUBSTANCE_URL>
https://www.surechembl.org/chemical/SCHEMBL16109826

> <PUBCHEM_CID_ASSOCIATIONS>
117600996  1

> <PUBCHEM_COORDINATE_TYPE>
1
3

$$$$
