310937433
  -OEChem-07211613022D

 16 16  0     1  0  0  0  0  0999 V2000
    4.2729   -1.7091    0.0000 O   0  0  0  0  0  0  0  0  0  0  0  0
    2.8052   -1.9321    0.0000 O   0  0  0  0  0  0  0  0  0  0  0  0
    5.5733   -1.0403    0.0000 O   0  0  0  0  0  0  0  0  0  0  0  0
    3.4740   -0.6316    0.0000 C   0  0  3  0  0  0  0  0  0  0  0  0
    3.4740   -1.4490    0.0000 C   0  0  3  0  0  0  0  0  0  0  0  0
    4.7559   -1.0403    0.0000 C   0  0  0  0  0  0  0  0  0  0  0  0
    4.2729   -0.3715    0.0000 C   0  0  0  0  0  0  0  0  0  0  0  0
    2.8052   -0.1486    0.0000 C   0  0  0  0  0  0  0  0  0  0  0  0
    2.0621   -0.5016    0.0000 C   0  0  0  0  0  0  0  0  0  0  0  0
    2.0436   -1.5791    0.0000 C   0  0  0  0  0  0  0  0  0  0  0  0
    1.3933   -2.0621    0.0000 C   0  0  0  0  0  0  0  0  0  0  0  0
    0.6316   -1.7277    0.0000 C   0  0  0  0  0  0  0  0  0  0  0  0
    1.9693   -1.3190    0.0000 C   0  0  0  0  0  0  0  0  0  0  0  0
    1.3748    0.0000    0.0000 C   0  0  0  0  0  0  0  0  0  0  0  0
    0.0000   -2.2665    0.0000 C   0  0  0  0  0  0  0  0  0  0  0  0
    0.5202   -0.9103    0.0000 C   0  0  0  0  0  0  0  0  0  0  0  0
  1  5  1  0  0  0  0
  1  6  1  0  0  0  0
  2  5  1  0  0  0  0
  2 10  1  0  0  0  0
  3  6  2  0  0  0  0
  4  5  1  0  0  0  0
  4  7  1  0  0  0  0
  4  8  1  0  0  0  0
  6  7  1  0  0  0  0
  8  9  1  0  0  0  0
  9 13  1  0  0  0  0
  9 14  1  0  0  0  0
 10 11  1  0  0  0  0
 11 12  1  0  0  0  0
 12 15  1  0  0  0  0
 12 16  1  0  0  0  0
M  END
> <PUBCHEM_COMPOUND_ID_TYPE>
0

> <PUBCHEM_TOTAL_CHARGE>
0

> <PUBCHEM_SUBSTANCE_ID>
310937433

> <PUBCHEM_SUBSTANCE_VERSION>
1

> <PUBCHEM_EXT_DATASOURCE_NAME>
4488

> <PUBCHEM_EXT_DATASOURCE_REGID>
SCHEMBL16115197

> <PUBCHEM_SUBSTANCE_COMMENT>
InChI=1S/C13H24O3/c1-9(2)5-6-15-13-11(7-10(3)4)8-12(14)16-13/h9-11,13H,5-8H2,1-4H3
InChIKey=ZCYJPWCYGJSPGZ-UHFFFAOYSA-N

> <PUBCHEM_SUBSTANCE_SYNONYM>
SCHEMBL16115197

> <PUBCHEM_XREF_EXT_ID>
SCHEMBL16115197

> <PUBCHEM_EXT_DATASOURCE_URL>
https://www.surechembl.org/

> <PUBCHEM_EXT_SUBSTANCE_URL>
https://www.surechembl.org/chemical/SCHEMBL16115197

> <PUBCHEM_CID_ASSOCIATIONS>
117605185  1

> <PUBCHEM_COORDINATE_TYPE>
1
3

$$$$
