310939653
  -OEChem-07211613022D

 32 35  0     1  0  0  0  0  0999 V2000
   -1.0717   11.1018    0.0000 O   0  0  0  0  0  0  0  0  0  0  0  0
    0.3572   13.5768    0.0000 O   0  0  0  0  0  0  0  0  0  0  0  0
   -2.5006   10.2768    0.0000 O   0  0  0  0  0  0  0  0  0  0  0  0
    2.5006   11.5143    0.0000 N   0  0  0  0  0  0  0  0  0  0  0  0
    1.7862   10.2768    0.0000 N   0  0  0  0  0  0  0  0  0  0  0  0
    2.5006    9.0393    0.0000 N   0  0  0  0  0  0  0  0  0  0  0  0
   -3.9296   11.1018    0.0000 N   0  0  0  0  0  0  0  0  0  0  0  0
    1.7862   11.1018    0.0000 C   0  0  0  0  0  0  0  0  0  0  0  0
    3.2151   11.1018    0.0000 C   0  0  0  0  0  0  0  0  0  0  0  0
    2.5006    9.8643    0.0000 C   0  0  0  0  0  0  0  0  0  0  0  0
    3.9296   11.5143    0.0000 C   0  0  0  0  0  0  0  0  0  0  0  0
    1.0717   11.5143    0.0000 C   0  0  0  0  0  0  0  0  0  0  0  0
    3.2151   10.2768    0.0000 C   0  0  0  0  0  0  0  0  0  0  0  0
    4.7546   11.5143    0.0000 C   0  0  0  0  0  0  0  0  0  0  0  0
    4.3421   12.2287    0.0000 C   0  0  0  0  0  0  0  0  0  0  0  0
    0.3572   11.1018    0.0000 C   0  0  0  0  0  0  0  0  0  0  0  0
    1.0717   12.3393    0.0000 C   0  0  0  0  0  0  0  0  0  0  0  0
   -0.3572   11.5143    0.0000 C   0  0  0  0  0  0  0  0  0  0  0  0
    0.3572   12.7518    0.0000 C   0  0  0  0  0  0  0  0  0  0  0  0
    3.2151    8.6268    0.0000 C   0  0  0  0  0  0  0  0  0  0  0  0
   -0.3572   12.3393    0.0000 C   0  0  0  0  0  0  0  0  0  0  0  0
    1.7862    8.6268    0.0000 C   0  0  0  0  0  0  0  0  0  0  0  0
    3.2151    7.8018    0.0000 C   0  0  0  0  0  0  0  0  0  0  0  0
    3.9296    9.0393    0.0000 C   0  0  0  0  0  0  0  0  0  0  0  0
   -1.7862   11.5143    0.0000 C   0  0  0  0  0  0  0  0  0  0  0  0
    3.9296    7.3893    0.0000 C   0  0  0  0  0  0  0  0  0  0  0  0
    4.6441    8.6268    0.0000 C   0  0  0  0  0  0  0  0  0  0  0  0
    4.6441    7.8018    0.0000 C   0  0  0  0  0  0  0  0  0  0  0  0
   -2.5006   11.1018    0.0000 C   0  0  3  0  0  0  0  0  0  0  0  0
    1.0717   13.9893    0.0000 C   0  0  0  0  0  0  0  0  0  0  0  0
   -3.2151   11.5143    0.0000 C   0  0  0  0  0  0  0  0  0  0  0  0
   -4.6441   11.5143    0.0000 C   0  0  0  0  0  0  0  0  0  0  0  0
  1 18  1  0  0  0  0
  1 25  1  0  0  0  0
  2 19  1  0  0  0  0
  2 30  1  0  0  0  0
  3 29  1  0  0  0  0
  4  8  2  0  0  0  0
  4  9  1  0  0  0  0
  5  8  1  0  0  0  0
  5 10  2  0  0  0  0
  6 10  1  0  0  0  0
  6 20  1  0  0  0  0
  6 22  1  0  0  0  0
  7 31  1  0  0  0  0
  7 32  1  0  0  0  0
  8 12  1  0  0  0  0
  9 11  1  0  0  0  0
  9 13  2  0  0  0  0
 10 13  1  0  0  0  0
 11 14  1  0  0  0  0
 11 15  1  0  0  0  0
 12 16  2  0  0  0  0
 12 17  1  0  0  0  0
 14 15  1  0  0  0  0
 16 18  1  0  0  0  0
 17 19  2  0  0  0  0
 18 21  2  0  0  0  0
 19 21  1  0  0  0  0
 20 23  1  0  0  0  0
 20 24  1  0  0  0  0
 23 26  1  0  0  0  0
 24 27  1  0  0  0  0
 25 29  1  0  0  0  0
 26 28  1  0  0  0  0
 27 28  1  0  0  0  0
 29 31  1  0  0  0  0
M  END
> <PUBCHEM_COMPOUND_ID_TYPE>
0

> <PUBCHEM_TOTAL_CHARGE>
0

> <PUBCHEM_SUBSTANCE_ID>
310939653

> <PUBCHEM_SUBSTANCE_VERSION>
1

> <PUBCHEM_EXT_DATASOURCE_NAME>
4488

> <PUBCHEM_EXT_DATASOURCE_REGID>
SCHEMBL16117583

> <PUBCHEM_SUBSTANCE_COMMENT>
InChI=1S/C25H36N4O3/c1-26-15-20(30)16-32-22-12-18(11-21(13-22)31-3)25-27-23(17-9-10-17)14-24(28-25)29(2)19-7-5-4-6-8-19/h11-14,17,19-20,26,30H,4-10,15-16H2,1-3H3
InChIKey=ASOCRMYKHPGUEE-UHFFFAOYSA-N

> <PUBCHEM_SUBSTANCE_SYNONYM>
SCHEMBL16117583

> <PUBCHEM_XREF_EXT_ID>
SCHEMBL16117583

> <PUBCHEM_EXT_DATASOURCE_URL>
https://www.surechembl.org/

> <PUBCHEM_EXT_SUBSTANCE_URL>
https://www.surechembl.org/chemical/SCHEMBL16117583

> <PUBCHEM_CID_ASSOCIATIONS>
117606888  1

> <PUBCHEM_COORDINATE_TYPE>
1
3

$$$$
