310938849
  -OEChem-07211613022D

 30 35  0     1  0  0  0  0  0999 V2000
    1.3683   -2.2493    0.0000 O   0  0  0  0  0  0  0  0  0  0  0  0
    3.0473   -4.5445    0.0000 N   0  0  0  0  0  0  0  0  0  0  0  0
    2.0827   -2.6618    0.0000 C   0  0  3  0  0  0  0  0  0  0  0  0
    2.7502   -3.1468    0.0000 C   0  0  0  0  0  0  0  0  0  0  0  0
    2.4952   -3.9314    0.0000 C   0  0  0  0  0  0  0  0  0  0  0  0
    1.4153   -3.1468    0.0000 C   0  0  0  0  0  0  0  0  0  0  0  0
    1.6702   -3.9314    0.0000 C   0  0  0  0  0  0  0  0  0  0  0  0
    3.5572   -2.9752    0.0000 C   0  0  0  0  0  0  0  0  0  0  0  0
    2.2963   -1.8650    0.0000 C   0  0  0  0  0  0  0  0  0  0  0  0
    4.1092   -3.5883    0.0000 C   0  0  0  0  0  0  0  0  0  0  0  0
    3.8542   -4.3730    0.0000 C   0  0  0  0  0  0  0  0  0  0  0  0
    4.1405   -2.3919    0.0000 C   0  0  0  0  0  0  0  0  0  0  0  0
    0.6083   -2.9752    0.0000 C   0  0  0  0  0  0  0  0  0  0  0  0
    1.1182   -4.5445    0.0000 C   0  0  0  0  0  0  0  0  0  0  0  0
    1.7129   -1.2816    0.0000 C   0  0  0  0  0  0  0  0  0  0  0  0
    3.0932   -1.6514    0.0000 C   0  0  0  0  0  0  0  0  0  0  0  0
    4.9162   -3.4168    0.0000 C   0  0  0  0  0  0  0  0  0  0  0  0
    4.4063   -4.9860    0.0000 C   0  0  0  0  0  0  0  0  0  0  0  0
    0.0563   -3.5883    0.0000 C   0  0  0  0  0  0  0  0  0  0  0  0
    0.3112   -4.3730    0.0000 C   0  0  0  0  0  0  0  0  0  0  0  0
    4.9374   -2.6054    0.0000 C   0  0  0  0  0  0  0  0  0  0  0  0
    3.9270   -1.5950    0.0000 C   0  0  0  0  0  0  0  0  0  0  0  0
    5.4682   -4.0299    0.0000 C   0  0  0  0  0  0  0  0  0  0  0  0
    5.2132   -4.8145    0.0000 C   0  0  0  0  0  0  0  0  0  0  0  0
    1.9264   -0.4847    0.0000 C   0  0  0  0  0  0  0  0  0  0  0  0
    3.3067   -0.8545    0.0000 C   0  0  0  0  0  0  0  0  0  0  0  0
    2.7233   -0.2712    0.0000 C   0  0  0  0  0  0  0  0  0  0  0  0
    5.5208   -2.0220    0.0000 C   0  0  0  0  0  0  0  0  0  0  0  0
    4.5104   -1.0116    0.0000 C   0  0  0  0  0  0  0  0  0  0  0  0
    5.3072   -1.2251    0.0000 C   0  0  0  0  0  0  0  0  0  0  0  0
  1  3  1  0  0  0  0
  2  5  1  0  0  0  0
  2 11  2  0  0  0  0
  3  4  1  0  0  0  0
  3  6  1  0  0  0  0
  3  9  1  0  0  0  0
  4  5  2  0  0  0  0
  4  8  1  0  0  0  0
  5  7  1  0  0  0  0
  6  7  2  0  0  0  0
  6 13  1  0  0  0  0
  7 14  1  0  0  0  0
  8 10  2  0  0  0  0
  8 12  1  0  0  0  0
  9 15  2  0  0  0  0
  9 16  1  0  0  0  0
 10 11  1  0  0  0  0
 10 17  1  0  0  0  0
 11 18  1  0  0  0  0
 12 21  2  0  0  0  0
 12 22  1  0  0  0  0
 13 19  2  0  0  0  0
 14 20  2  0  0  0  0
 15 25  1  0  0  0  0
 16 26  2  0  0  0  0
 17 23  2  0  0  0  0
 18 24  2  0  0  0  0
 19 20  1  0  0  0  0
 21 28  1  0  0  0  0
 22 29  2  0  0  0  0
 23 24  1  0  0  0  0
 25 27  2  0  0  0  0
 26 27  1  0  0  0  0
 28 30  2  0  0  0  0
 29 30  1  0  0  0  0
M  END
> <PUBCHEM_COMPOUND_ID_TYPE>
0

> <PUBCHEM_TOTAL_CHARGE>
0

> <PUBCHEM_SUBSTANCE_ID>
310938849

> <PUBCHEM_SUBSTANCE_VERSION>
1

> <PUBCHEM_EXT_DATASOURCE_NAME>
4488

> <PUBCHEM_EXT_DATASOURCE_REGID>
SCHEMBL16116768

> <PUBCHEM_SUBSTANCE_COMMENT>
InChI=1S/C28H19NO/c30-28(20-13-5-2-6-14-20)23-17-9-7-15-21(23)27-26(28)25(19-11-3-1-4-12-19)22-16-8-10-18-24(22)29-27/h1-18,30H
InChIKey=IHXVQMMPWRNRFK-UHFFFAOYSA-N

> <PUBCHEM_SUBSTANCE_SYNONYM>
SCHEMBL16116768

> <PUBCHEM_XREF_EXT_ID>
SCHEMBL16116768

> <PUBCHEM_EXT_DATASOURCE_URL>
https://www.surechembl.org/

> <PUBCHEM_EXT_SUBSTANCE_URL>
https://www.surechembl.org/chemical/SCHEMBL16116768

> <PUBCHEM_CID_ASSOCIATIONS>
117606248  1

> <PUBCHEM_COORDINATE_TYPE>
1
3

$$$$
