310930498
  -OEChem-07211613022D

 21 21  0     1  0  0  0  0  0999 V2000
   -1.0558    1.6913    0.0000 S   0  0  0  0  0  0  0  0  0  0  0  0
   -0.4204    2.6698    0.0000 F   0  0  0  0  0  0  0  0  0  0  0  0
   -2.0343    2.3267    0.0000 F   0  0  0  0  0  0  0  0  0  0  0  0
   -2.1835    3.5602    0.0000 F   0  0  0  0  0  0  0  0  0  0  0  0
   -0.7858    3.8573    0.0000 F   0  0  0  0  0  0  0  0  0  0  0  0
   -0.8843    0.8843    0.0000 O   0  0  0  0  0  0  0  0  0  0  0  0
   -0.2489    1.8628    0.0000 O   0  0  0  0  0  0  0  0  0  0  0  0
   -1.8628    1.5197    0.0000 O   0  0  0  0  0  0  0  0  0  0  0  0
    0.5678    1.1143    0.0000 N   0  0  3  0  0  0  0  0  0  0  0  0
    0.1553   -0.1553    0.0000 N   0  0  3  0  0  0  0  0  0  0  0  0
   -1.2274    2.4982    0.0000 C   0  0  0  0  0  0  0  0  0  0  0  0
   -0.0997    0.6294    0.0000 C   0  0  3  0  0  0  0  0  0  0  0  0
   -1.3989    3.3052    0.0000 C   0  0  0  0  0  0  0  0  0  0  0  0
    1.2352    0.6294    0.0000 C   0  0  0  0  0  0  0  0  0  0  0  0
    0.9803   -0.1553    0.0000 C   0  0  0  0  0  0  0  0  0  0  0  0
    0.5678    1.9393    0.0000 C   0  0  0  0  0  0  0  0  0  0  0  0
   -0.3297   -0.8227    0.0000 C   0  0  0  0  0  0  0  0  0  0  0  0
    1.2822    2.3518    0.0000 C   0  0  0  0  0  0  0  0  0  0  0  0
   -1.1501   -0.7365    0.0000 C   0  0  0  0  0  0  0  0  0  0  0  0
    1.2822    3.1768    0.0000 C   0  0  0  0  0  0  0  0  0  0  0  0
    1.9967    3.5893    0.0000 C   0  0  0  0  0  0  0  0  0  0  0  0
  1  6  1  0  0  0  0
  1  7  2  0  0  0  0
  1  8  2  0  0  0  0
  1 11  1  0  0  0  0
  2 11  1  0  0  0  0
  3 11  1  0  0  0  0
  4 13  1  0  0  0  0
  5 13  1  0  0  0  0
  6 12  1  0  0  0  0
  9 12  1  0  0  0  0
  9 14  1  0  0  0  0
  9 16  1  0  0  0  0
 10 12  1  0  0  0  0
 10 15  1  0  0  0  0
 10 17  1  0  0  0  0
 11 13  1  0  0  0  0
 14 15  2  0  0  0  0
 16 18  1  0  0  0  0
 17 19  1  0  0  0  0
 18 20  1  0  0  0  0
 20 21  1  0  0  0  0
M  END
> <PUBCHEM_COMPOUND_ID_TYPE>
0

> <PUBCHEM_TOTAL_CHARGE>
0

> <PUBCHEM_SUBSTANCE_ID>
310930498

> <PUBCHEM_SUBSTANCE_VERSION>
1

> <PUBCHEM_EXT_DATASOURCE_NAME>
4488

> <PUBCHEM_EXT_DATASOURCE_REGID>
SCHEMBL16107790

> <PUBCHEM_SUBSTANCE_COMMENT>
InChI=1S/C11H18F4N2O3S/c1-3-5-6-17-8-7-16(4-2)10(17)20-21(18,19)11(14,15)9(12)13/h7-10H,3-6H2,1-2H3
InChIKey=WTCBNRXXBSIGLJ-UHFFFAOYSA-N

> <PUBCHEM_SUBSTANCE_SYNONYM>
SCHEMBL16107790

> <PUBCHEM_XREF_EXT_ID>
SCHEMBL16107790

> <PUBCHEM_EXT_DATASOURCE_URL>
https://www.surechembl.org/

> <PUBCHEM_EXT_SUBSTANCE_URL>
https://www.surechembl.org/chemical/SCHEMBL16107790

> <PUBCHEM_CID_ASSOCIATIONS>
117599610  1

> <PUBCHEM_COORDINATE_TYPE>
1
3

$$$$
