310939634
  -OEChem-07211613022D

 31 33  0     1  0  0  0  0  0999 V2000
    1.7330  -13.4012    0.0000 O   0  0  0  0  0  0  0  0  0  0  0  0
   -1.4268  -10.0691    0.0000 O   0  0  0  0  0  0  0  0  0  0  0  0
   -2.8558  -10.8941    0.0000 O   0  0  0  0  0  0  0  0  0  0  0  0
    1.4311  -10.8941    0.0000 N   0  0  0  0  0  0  0  0  0  0  0  0
    2.1455   -9.6566    0.0000 N   0  0  0  0  0  0  0  0  0  0  0  0
    2.5580  -13.4012    0.0000 N   0  0  0  0  0  0  0  0  0  0  0  0
    3.5745   -9.6566    0.0000 N   0  0  0  0  0  0  0  0  0  0  0  0
   -4.2847  -10.0691    0.0000 N   0  0  0  0  0  0  0  0  0  0  0  0
    2.1455  -12.1316    0.0000 C   0  0  0  0  0  0  0  0  0  0  0  0
    2.1455  -11.3066    0.0000 C   0  0  0  0  0  0  0  0  0  0  0  0
    1.4311  -10.0691    0.0000 C   0  0  0  0  0  0  0  0  0  0  0  0
    1.4781  -12.6165    0.0000 C   0  0  0  0  0  0  0  0  0  0  0  0
    2.8130  -12.6165    0.0000 C   0  0  0  0  0  0  0  0  0  0  0  0
    0.7166   -9.6566    0.0000 C   0  0  0  0  0  0  0  0  0  0  0  0
    2.8600  -10.8941    0.0000 C   0  0  0  0  0  0  0  0  0  0  0  0
    2.8600  -10.0691    0.0000 C   0  0  0  0  0  0  0  0  0  0  0  0
    0.0021  -10.0691    0.0000 C   0  0  0  0  0  0  0  0  0  0  0  0
    0.7166   -8.8316    0.0000 C   0  0  0  0  0  0  0  0  0  0  0  0
   -0.7124   -9.6566    0.0000 C   0  0  0  0  0  0  0  0  0  0  0  0
    0.7636  -12.2040    0.0000 C   0  0  0  0  0  0  0  0  0  0  0  0
    3.5274  -12.2040    0.0000 C   0  0  0  0  0  0  0  0  0  0  0  0
    0.0021   -8.4191    0.0000 C   0  0  0  0  0  0  0  0  0  0  0  0
   -0.7124   -8.8316    0.0000 C   0  0  0  0  0  0  0  0  0  0  0  0
    3.5745   -8.8316    0.0000 C   0  0  0  0  0  0  0  0  0  0  0  0
   -2.1413   -9.6566    0.0000 C   0  0  0  0  0  0  0  0  0  0  0  0
    4.2889   -8.4191    0.0000 C   0  0  0  0  0  0  0  0  0  0  0  0
   -2.8558  -10.0691    0.0000 C   0  0  3  0  0  0  0  0  0  0  0  0
   -3.5702   -9.6566    0.0000 C   0  0  0  0  0  0  0  0  0  0  0  0
    5.0034   -8.8316    0.0000 C   0  0  0  0  0  0  0  0  0  0  0  0
    5.0034   -9.6566    0.0000 C   0  0  0  0  0  0  0  0  0  0  0  0
   -4.9992   -9.6566    0.0000 C   0  0  0  0  0  0  0  0  0  0  0  0
  1  6  1  0  0  0  0
  1 12  1  0  0  0  0
  2 19  1  0  0  0  0
  2 25  1  0  0  0  0
  3 27  1  0  0  0  0
  4 10  1  0  0  0  0
  4 11  2  0  0  0  0
  5 11  1  0  0  0  0
  5 16  2  0  0  0  0
  6 13  2  0  0  0  0
  7 16  1  0  0  0  0
  7 24  1  0  0  0  0
  8 28  1  0  0  0  0
  8 31  1  0  0  0  0
  9 10  1  0  0  0  0
  9 12  2  0  0  0  0
  9 13  1  0  0  0  0
 10 15  2  0  0  0  0
 11 14  1  0  0  0  0
 12 20  1  0  0  0  0
 13 21  1  0  0  0  0
 14 17  2  0  0  0  0
 14 18  1  0  0  0  0
 15 16  1  0  0  0  0
 17 19  1  0  0  0  0
 18 22  2  0  0  0  0
 19 23  2  0  0  0  0
 22 23  1  0  0  0  0
 24 26  1  0  0  0  0
 25 27  1  0  0  0  0
 26 29  1  0  0  0  0
 27 28  1  0  0  0  0
 29 30  1  0  0  0  0
M  END
> <PUBCHEM_COMPOUND_ID_TYPE>
0

> <PUBCHEM_TOTAL_CHARGE>
0

> <PUBCHEM_SUBSTANCE_ID>
310939634

> <PUBCHEM_SUBSTANCE_VERSION>
1

> <PUBCHEM_EXT_DATASOURCE_NAME>
4488

> <PUBCHEM_EXT_DATASOURCE_REGID>
SCHEMBL16117564

> <PUBCHEM_SUBSTANCE_COMMENT>
InChI=1S/C23H31N5O3/c1-5-6-10-25-21-12-20(22-15(2)28-31-16(22)3)26-23(27-21)17-8-7-9-19(11-17)30-14-18(29)13-24-4/h7-9,11-12,18,24,29H,5-6,10,13-14H2,1-4H3,(H,25,26,27)
InChIKey=BEGRSGJATUZRQS-UHFFFAOYSA-N

> <PUBCHEM_SUBSTANCE_SYNONYM>
SCHEMBL16117564

> <PUBCHEM_XREF_EXT_ID>
SCHEMBL16117564

> <PUBCHEM_EXT_DATASOURCE_URL>
https://www.surechembl.org/

> <PUBCHEM_EXT_SUBSTANCE_URL>
https://www.surechembl.org/chemical/SCHEMBL16117564

> <PUBCHEM_CID_ASSOCIATIONS>
117606874  1

> <PUBCHEM_COORDINATE_TYPE>
1
3

$$$$
