310936759
  -OEChem-07211613022D

 34 37  0     1  0  0  0  0  0999 V2000
  -14.2894   -1.6500    0.0000 O   0  0  0  0  0  0  0  0  0  0  0  0
  -15.7184   -0.8250    0.0000 O   0  0  0  0  0  0  0  0  0  0  0  0
  -10.7170   -2.8875    0.0000 O   0  0  0  0  0  0  0  0  0  0  0  0
  -10.0026   -1.6500    0.0000 O   0  0  0  0  0  0  0  0  0  0  0  0
  -17.8618   -2.8875    0.0000 O   0  0  0  0  0  0  0  0  0  0  0  0
  -11.4316   -1.6500    0.0000 N   0  0  0  0  0  0  0  0  0  0  0  0
  -16.4328   -2.0625    0.0000 N   0  0  0  0  0  0  0  0  0  0  0  0
  -12.8605   -1.6500    0.0000 C   0  0  3  0  0  0  0  0  0  0  0  0
  -12.8605   -0.8250    0.0000 C   0  0  0  0  0  0  0  0  0  0  0  0
  -13.5750   -2.0625    0.0000 C   0  0  3  0  0  0  0  0  0  0  0  0
  -12.1460    0.4125    0.0000 C   0  0  0  0  0  0  0  0  0  0  0  0
  -13.5750   -2.8875    0.0000 C   0  0  0  0  0  0  0  0  0  0  0  0
  -12.1460   -0.4125    0.0000 C   0  0  0  0  0  0  0  0  0  0  0  0
  -12.8605    0.8250    0.0000 C   0  0  0  0  0  0  0  0  0  0  0  0
  -12.1460   -2.0625    0.0000 C   0  0  0  0  0  0  0  0  0  0  0  0
  -13.5750   -0.4125    0.0000 C   0  0  0  0  0  0  0  0  0  0  0  0
  -13.5750    0.4125    0.0000 C   0  0  0  0  0  0  0  0  0  0  0  0
  -11.4316    0.8250    0.0000 C   0  0  0  0  0  0  0  0  0  0  0  0
  -14.2894   -3.3000    0.0000 C   0  0  0  0  0  0  0  0  0  0  0  0
  -12.8605   -3.3000    0.0000 C   0  0  0  0  0  0  0  0  0  0  0  0
  -12.8605    1.6500    0.0000 C   0  0  0  0  0  0  0  0  0  0  0  0
  -15.0039   -2.0625    0.0000 C   0  0  0  0  0  0  0  0  0  0  0  0
  -15.7184   -1.6500    0.0000 C   0  0  0  0  0  0  0  0  0  0  0  0
  -11.4316    1.6500    0.0000 C   0  0  0  0  0  0  0  0  0  0  0  0
  -10.7170   -2.0625    0.0000 C   0  0  0  0  0  0  0  0  0  0  0  0
  -12.1460    2.0625    0.0000 C   0  0  0  0  0  0  0  0  0  0  0  0
  -14.2894   -4.1250    0.0000 C   0  0  0  0  0  0  0  0  0  0  0  0
  -12.8605   -4.1250    0.0000 C   0  0  0  0  0  0  0  0  0  0  0  0
  -13.5750   -4.5375    0.0000 C   0  0  0  0  0  0  0  0  0  0  0  0
  -11.4316   -0.8250    0.0000 C   0  0  0  0  0  0  0  0  0  0  0  0
  -17.1473   -1.6500    0.0000 C   0  0  0  0  0  0  0  0  0  0  0  0
  -16.4328   -2.8875    0.0000 C   0  0  0  0  0  0  0  0  0  0  0  0
  -17.8618   -2.0625    0.0000 C   0  0  0  0  0  0  0  0  0  0  0  0
  -17.1473   -3.3000    0.0000 C   0  0  0  0  0  0  0  0  0  0  0  0
  1 10  1  0  0  0  0
  1 22  1  0  0  0  0
  2 23  2  0  0  0  0
  3 25  2  0  0  0  0
  4 25  1  0  0  0  0
  5 33  1  0  0  0  0
  5 34  1  0  0  0  0
  6 15  1  0  0  0  0
  6 25  1  0  0  0  0
  6 30  1  0  0  0  0
  7 23  1  0  0  0  0
  7 31  1  0  0  0  0
  7 32  1  0  0  0  0
  8  9  1  0  0  0  0
  8 10  1  0  0  0  0
  8 15  1  0  0  0  0
  9 13  1  0  0  0  0
  9 16  2  0  0  0  0
 10 12  1  0  0  0  0
 11 13  2  0  0  0  0
 11 14  1  0  0  0  0
 11 18  1  0  0  0  0
 12 19  2  0  0  0  0
 12 20  1  0  0  0  0
 14 17  2  0  0  0  0
 14 21  1  0  0  0  0
 16 17  1  0  0  0  0
 18 24  2  0  0  0  0
 19 27  1  0  0  0  0
 20 28  2  0  0  0  0
 21 26  2  0  0  0  0
 22 23  1  0  0  0  0
 24 26  1  0  0  0  0
 27 29  2  0  0  0  0
 28 29  1  0  0  0  0
 31 33  1  0  0  0  0
 32 34  1  0  0  0  0
M  END
> <PUBCHEM_COMPOUND_ID_TYPE>
0

> <PUBCHEM_TOTAL_CHARGE>
0

> <PUBCHEM_SUBSTANCE_ID>
310936759

> <PUBCHEM_SUBSTANCE_VERSION>
1

> <PUBCHEM_EXT_DATASOURCE_NAME>
4488

> <PUBCHEM_EXT_DATASOURCE_REGID>
SCHEMBL16114443

> <PUBCHEM_SUBSTANCE_COMMENT>
InChI=1S/C27H30N2O5/c1-28(27(31)32)18-24(23-12-11-20-7-5-6-10-22(20)17-23)26(21-8-3-2-4-9-21)34-19-25(30)29-13-15-33-16-14-29/h2-12,17,24,26H,13-16,18-19H2,1H3,(H,31,32)
InChIKey=LLKNVVDJHJTMFQ-UHFFFAOYSA-N

> <PUBCHEM_SUBSTANCE_SYNONYM>
SCHEMBL16114443

> <PUBCHEM_XREF_EXT_ID>
SCHEMBL16114443

> <PUBCHEM_EXT_DATASOURCE_URL>
https://www.surechembl.org/

> <PUBCHEM_EXT_SUBSTANCE_URL>
https://www.surechembl.org/chemical/SCHEMBL16114443

> <PUBCHEM_CID_ASSOCIATIONS>
117604656  1

> <PUBCHEM_COORDINATE_TYPE>
1
3

$$$$
