310941053
  -OEChem-07211613022D

 43 46  0     1  0  0  0  0  0999 V2000
    5.0326    0.6657    0.0000 O   0  0  0  0  0  0  0  0  0  0  0  0
    3.9061   -1.2801    0.0000 O   0  0  0  0  0  0  0  0  0  0  0  0
    1.7702    0.7827    0.0000 O   0  0  0  0  0  0  0  0  0  0  0  0
   -0.3658   -1.2801    0.0000 O   0  0  0  0  0  0  0  0  0  0  0  0
    0.3511    2.9186    0.0000 O   0  0  0  0  0  0  0  0  0  0  0  0
   -2.5016    0.7827    0.0000 O   0  0  0  0  0  0  0  0  0  0  0  0
    3.9061   -2.9332    0.0000 O   0  0  0  0  0  0  0  0  0  0  0  0
   -5.3545   -1.6897    0.0000 O   0  0  0  0  0  0  0  0  0  0  0  0
    2.4871   -0.4462    0.0000 N   0  0  0  0  0  0  0  0  0  0  0  0
    0.3365   -0.0366    0.0000 N   0  0  0  0  0  0  0  0  0  0  0  0
   -1.7995   -0.4462    0.0000 N   0  0  0  0  0  0  0  0  0  0  0  0
    4.6376    0.0073    0.0000 C   0  0  3  0  0  0  0  0  0  0  0  0
    3.9208   -0.4023    0.0000 C   0  0  0  0  0  0  0  0  0  0  0  0
    4.2426    0.6803    0.0000 C   0  0  0  0  0  0  0  0  0  0  0  0
    3.1892   -0.0073    0.0000 C   0  0  3  0  0  0  0  0  0  0  0  0
    5.3545   -0.4316    0.0000 C   0  0  0  0  0  0  0  0  0  0  0  0
    3.2039    1.2947    0.0000 C   0  0  0  0  0  0  0  0  0  0  0  0
    1.7848   -0.0366    0.0000 C   0  0  0  0  0  0  0  0  0  0  0  0
    1.0679   -0.4169    0.0000 C   0  0  3  0  0  0  0  0  0  0  0  0
    2.4724    1.7190    0.0000 C   0  0  0  0  0  0  0  0  0  0  0  0
    1.0679   -1.2509    0.0000 C   0  0  0  0  0  0  0  0  0  0  0  0
   -0.3511   -0.4023    0.0000 C   0  0  0  0  0  0  0  0  0  0  0  0
    2.4871    2.5236    0.0000 C   0  0  0  0  0  0  0  0  0  0  0  0
    1.7848    1.3094    0.0000 C   0  0  0  0  0  0  0  0  0  0  0  0
    1.7995   -1.6605    0.0000 C   0  0  0  0  0  0  0  0  0  0  0  0
   -1.0679   -0.0073    0.0000 C   0  0  3  0  0  0  0  0  0  0  0  0
    1.7702    2.9332    0.0000 C   0  0  0  0  0  0  0  0  0  0  0  0
    1.0826    1.7044    0.0000 C   0  0  0  0  0  0  0  0  0  0  0  0
    1.0679    2.5382    0.0000 C   0  0  0  0  0  0  0  0  0  0  0  0
   -2.5163   -0.0366    0.0000 C   0  0  0  0  0  0  0  0  0  0  0  0
    1.7995   -2.4943    0.0000 C   0  0  0  0  0  0  0  0  0  0  0  0
    2.4724   -1.2654    0.0000 C   0  0  0  0  0  0  0  0  0  0  0  0
   -3.2039   -0.4169    0.0000 C   0  0  0  0  0  0  0  0  0  0  0  0
    3.1892   -2.4797    0.0000 C   0  0  0  0  0  0  0  0  0  0  0  0
    2.5016   -2.8893    0.0000 C   0  0  0  0  0  0  0  0  0  0  0  0
    3.2039   -1.6605    0.0000 C   0  0  0  0  0  0  0  0  0  0  0  0
   -3.9353   -0.0219    0.0000 C   0  0  0  0  0  0  0  0  0  0  0  0
   -3.2039   -1.2509    0.0000 C   0  0  0  0  0  0  0  0  0  0  0  0
   -1.0534    0.8266    0.0000 C   0  0  0  0  0  0  0  0  0  0  0  0
   -4.6376   -1.2509    0.0000 C   0  0  0  0  0  0  0  0  0  0  0  0
   -4.6229   -0.4169    0.0000 C   0  0  0  0  0  0  0  0  0  0  0  0
   -3.9208   -1.6458    0.0000 C   0  0  0  0  0  0  0  0  0  0  0  0
    4.6229   -2.4797    0.0000 C   0  0  0  0  0  0  0  0  0  0  0  0
  1 12  1  0  0  0  0
  1 14  1  0  0  0  0
  2 13  2  0  0  0  0
  3 18  2  0  0  0  0
  4 22  2  0  0  0  0
  5 29  1  0  0  0  0
  6 30  2  0  0  0  0
  7 34  1  0  0  0  0
  7 43  1  0  0  0  0
  8 40  1  0  0  0  0
  9 15  1  0  0  0  0
  9 18  1  0  0  0  0
 10 19  1  0  0  0  0
 10 22  1  0  0  0  0
 11 26  1  0  0  0  0
 11 30  1  0  0  0  0
 12 13  1  0  0  0  0
 12 14  1  0  0  0  0
 12 16  1  0  0  0  0
 13 15  1  0  0  0  0
 15 17  1  0  0  0  0
 17 20  1  0  0  0  0
 18 19  1  0  0  0  0
 19 21  1  0  0  0  0
 20 23  2  0  0  0  0
 20 24  1  0  0  0  0
 21 25  1  0  0  0  0
 22 26  1  0  0  0  0
 23 27  1  0  0  0  0
 24 28  2  0  0  0  0
 25 31  2  0  0  0  0
 25 32  1  0  0  0  0
 26 39  1  0  0  0  0
 27 29  2  0  0  0  0
 28 29  1  0  0  0  0
 30 33  1  0  0  0  0
 31 35  1  0  0  0  0
 32 36  2  0  0  0  0
 33 37  1  0  0  0  0
 33 38  1  0  0  0  0
 34 35  2  0  0  0  0
 34 36  1  0  0  0  0
 37 41  1  0  0  0  0
 38 42  1  0  0  0  0
 40 41  1  0  0  0  0
 40 42  1  0  0  0  0
M  END
> <PUBCHEM_COMPOUND_ID_TYPE>
0

> <PUBCHEM_TOTAL_CHARGE>
0

> <PUBCHEM_SUBSTANCE_ID>
310941053

> <PUBCHEM_SUBSTANCE_VERSION>
1

> <PUBCHEM_EXT_DATASOURCE_NAME>
4488

> <PUBCHEM_EXT_DATASOURCE_REGID>
SCHEMBL16119012

> <PUBCHEM_SUBSTANCE_COMMENT>
InChI=1S/C32H41N3O8/c1-19(33-30(40)22-8-12-24(37)13-9-22)29(39)35-27(17-21-6-14-25(42-3)15-7-21)31(41)34-26(28(38)32(2)18-43-32)16-20-4-10-23(36)11-5-20/h4-7,10-11,14-15,19,22,24,26-27,36-37H,8-9,12-13,16-18H2,1-3H3,(H,33,40)(H,34,41)(H,35,39)
InChIKey=YCGMAOSIVRVXEQ-UHFFFAOYSA-N

> <PUBCHEM_SUBSTANCE_SYNONYM>
SCHEMBL16119012

> <PUBCHEM_XREF_EXT_ID>
SCHEMBL16119012

> <PUBCHEM_EXT_DATASOURCE_URL>
https://www.surechembl.org/

> <PUBCHEM_EXT_SUBSTANCE_URL>
https://www.surechembl.org/chemical/SCHEMBL16119012

> <PUBCHEM_CID_ASSOCIATIONS>
117607945  1

> <PUBCHEM_COORDINATE_TYPE>
1
3

$$$$
