310937663
  -OEChem-07211613022D

 35 38  0     1  0  0  0  0  0999 V2000
    0.7212   -2.4573    0.0000 S   0  0  0  0  0  0  0  0  0  0  0  0
    2.8579   -0.4274    0.0000 O   0  0  0  0  0  0  0  0  0  0  0  0
    0.0000   -2.8579    0.0000 O   0  0  0  0  0  0  0  0  0  0  0  0
    0.7212   -3.2853    0.0000 O   0  0  0  0  0  0  0  0  0  0  0  0
    4.9947   -4.9413    0.0000 O   0  0  0  0  0  0  0  0  0  0  0  0
    6.4370   -2.4840    0.0000 O   0  0  0  0  0  0  0  0  0  0  0  0
    2.1635   -1.6560    0.0000 N   0  0  0  0  0  0  0  0  0  0  0  0
    3.5791   -2.4840    0.0000 N   0  0  0  0  0  0  0  0  0  0  0  0
    2.1635   -2.4573    0.0000 C   0  0  3  0  0  0  0  0  0  0  0  0
    2.8579   -1.2554    0.0000 C   0  0  0  0  0  0  0  0  0  0  0  0
    3.5791   -1.6560    0.0000 C   0  0  3  0  0  0  0  0  0  0  0  0
    1.4423   -2.8846    0.0000 C   0  0  0  0  0  0  0  0  0  0  0  0
    2.8579   -2.8846    0.0000 C   0  0  0  0  0  0  0  0  0  0  0  0
    1.4423   -1.2554    0.0000 C   0  0  0  0  0  0  0  0  0  0  0  0
    4.3002   -1.2554    0.0000 C   0  0  0  0  0  0  0  0  0  0  0  0
    0.7478   -1.6560    0.0000 C   0  0  0  0  0  0  0  0  0  0  0  0
    4.3002   -2.8846    0.0000 C   0  0  0  0  0  0  0  0  0  0  0  0
    3.7394   -2.6442    0.0000 C   0  0  0  0  0  0  0  0  0  0  0  0
    2.8579   -3.7126    0.0000 C   0  0  0  0  0  0  0  0  0  0  0  0
    5.0214   -1.6560    0.0000 C   0  0  0  0  0  0  0  0  0  0  0  0
    4.3002   -0.4274    0.0000 C   0  0  0  0  0  0  0  0  0  0  0  0
    5.0214   -2.4573    0.0000 C   0  0  0  0  0  0  0  0  0  0  0  0
    4.3002   -3.7126    0.0000 C   0  0  0  0  0  0  0  0  0  0  0  0
    4.9947   -4.1133    0.0000 C   0  0  0  0  0  0  0  0  0  0  0  0
    5.7159   -2.8846    0.0000 C   0  0  0  0  0  0  0  0  0  0  0  0
    5.7159   -3.6859    0.0000 C   0  0  0  0  0  0  0  0  0  0  0  0
    5.7159   -1.2554    0.0000 C   0  0  0  0  0  0  0  0  0  0  0  0
    5.0214    0.0000    0.0000 C   0  0  0  0  0  0  0  0  0  0  0  0
    5.7159   -0.4274    0.0000 C   0  0  0  0  0  0  0  0  0  0  0  0
    4.4605   -3.0716    0.0000 C   0  0  0  0  0  0  0  0  0  0  0  0
    3.5524   -4.1133    0.0000 C   0  0  0  0  0  0  0  0  0  0  0  0
    4.4338   -3.8729    0.0000 C   0  0  0  0  0  0  0  0  0  0  0  0
    6.4370    0.0000    0.0000 C   0  0  0  0  0  0  0  0  0  0  0  0
    5.7159   -5.3419    0.0000 C   0  0  0  0  0  0  0  0  0  0  0  0
    6.4370   -1.6560    0.0000 C   0  0  0  0  0  0  0  0  0  0  0  0
  1  3  1  0  0  0  0
  1  4  1  0  0  0  0
  1 12  1  0  0  0  0
  1 16  1  0  0  0  0
  2 10  2  0  0  0  0
  5 24  1  0  0  0  0
  5 34  1  0  0  0  0
  6 25  1  0  0  0  0
  6 35  1  0  0  0  0
  7  9  1  0  0  0  0
  7 10  1  0  0  0  0
  7 14  1  0  0  0  0
  8 11  1  0  0  0  0
  8 17  1  0  0  0  0
  9 12  1  0  0  0  0
  9 13  1  0  0  0  0
 10 11  1  0  0  0  0
 11 15  1  0  0  0  0
 13 18  2  0  0  0  0
 13 19  1  0  0  0  0
 14 16  1  0  0  0  0
 15 20  2  0  0  0  0
 15 21  1  0  0  0  0
 17 22  2  0  0  0  0
 17 23  1  0  0  0  0
 18 30  1  0  0  0  0
 19 31  2  0  0  0  0
 20 27  1  0  0  0  0
 21 28  2  0  0  0  0
 22 25  1  0  0  0  0
 23 24  2  0  0  0  0
 24 26  1  0  0  0  0
 25 26  2  0  0  0  0
 27 29  2  0  0  0  0
 28 29  1  0  0  0  0
 29 33  1  0  0  0  0
 30 32  2  0  0  0  0
 31 32  1  0  0  0  0
M  END
> <PUBCHEM_COMPOUND_ID_TYPE>
0

> <PUBCHEM_TOTAL_CHARGE>
0

> <PUBCHEM_SUBSTANCE_ID>
310937663

> <PUBCHEM_SUBSTANCE_VERSION>
1

> <PUBCHEM_EXT_DATASOURCE_NAME>
4488

> <PUBCHEM_EXT_DATASOURCE_REGID>
SCHEMBL16115453

> <PUBCHEM_SUBSTANCE_COMMENT>
InChI=1S/C27H32N2O5S/c1-19-9-11-21(12-10-19)26(28-22-15-23(33-2)17-24(16-22)34-3)27(30)29-13-14-35(31,32)18-25(29)20-7-5-4-6-8-20/h4-12,15-17,25-26,28,31-32H,13-14,18H2,1-3H3
InChIKey=ZCMQOBBVPVBRDX-UHFFFAOYSA-N

> <PUBCHEM_SUBSTANCE_SYNONYM>
SCHEMBL16115453

> <PUBCHEM_XREF_EXT_ID>
SCHEMBL16115453

> <PUBCHEM_EXT_DATASOURCE_URL>
https://www.surechembl.org/

> <PUBCHEM_EXT_SUBSTANCE_URL>
https://www.surechembl.org/chemical/SCHEMBL16115453

> <PUBCHEM_CID_ASSOCIATIONS>
117605351  1

> <PUBCHEM_COORDINATE_TYPE>
1
3

$$$$
