310930732
  -OEChem-07211613022D

 28 31  0     1  0  0  0  0  0999 V2000
    4.4727   -4.4727    0.0000 O   0  0  0  0  0  0  0  0  0  0  0  0
    0.4088   -1.2023    0.0000 O   0  0  0  0  0  0  0  0  0  0  0  0
    4.7131   -3.0299    0.0000 N   0  0  0  0  0  0  0  0  0  0  0  0
    0.0000   -1.8997    0.0000 N   0  0  0  0  0  0  0  0  0  0  0  0
    6.8052   -2.3085    0.0000 N   0  0  0  0  0  0  0  0  0  0  0  0
    3.4387   -2.5970    0.0000 C   0  0  0  0  0  0  0  0  0  0  0  0
    4.2322   -2.3566    0.0000 C   0  0  3  0  0  0  0  0  0  0  0  0
    3.4387   -3.4628    0.0000 C   0  0  0  0  0  0  0  0  0  0  0  0
    4.2322   -3.6792    0.0000 C   0  0  0  0  0  0  0  0  0  0  0  0
    2.0199   -2.5970    0.0000 C   0  0  0  0  0  0  0  0  0  0  0  0
    2.7173   -2.2123    0.0000 C   0  0  0  0  0  0  0  0  0  0  0  0
    4.4727   -1.5871    0.0000 C   0  0  0  0  0  0  0  0  0  0  0  0
    1.2985   -2.1883    0.0000 C   0  0  0  0  0  0  0  0  0  0  0  0
    2.7173   -3.8475    0.0000 C   0  0  0  0  0  0  0  0  0  0  0  0
    2.0199   -3.4628    0.0000 C   0  0  0  0  0  0  0  0  0  0  0  0
    5.5548   -3.0299    0.0000 C   0  0  0  0  0  0  0  0  0  0  0  0
    1.2264   -1.3707    0.0000 C   0  0  0  0  0  0  0  0  0  0  0  0
    0.5531   -2.5249    0.0000 C   0  0  0  0  0  0  0  0  0  0  0  0
    3.9196   -0.9619    0.0000 C   0  0  0  0  0  0  0  0  0  0  0  0
    5.2903   -1.4187    0.0000 C   0  0  0  0  0  0  0  0  0  0  0  0
    5.9636   -2.3085    0.0000 C   0  0  0  0  0  0  0  0  0  0  0  0
    4.1841   -0.1684    0.0000 C   0  0  0  0  0  0  0  0  0  0  0  0
    5.5307   -0.6252    0.0000 C   0  0  0  0  0  0  0  0  0  0  0  0
    1.8275   -0.8176    0.0000 C   0  0  0  0  0  0  0  0  0  0  0  0
    0.3848   -3.3184    0.0000 C   0  0  0  0  0  0  0  0  0  0  0  0
    5.0017    0.0000    0.0000 C   0  0  0  0  0  0  0  0  0  0  0  0
    7.2140   -3.0299    0.0000 C   0  0  0  0  0  0  0  0  0  0  0  0
    7.1900   -1.5871    0.0000 C   0  0  0  0  0  0  0  0  0  0  0  0
  1  9  2  0  0  0  0
  2  4  1  0  0  0  0
  2 17  1  0  0  0  0
  3  7  1  0  0  0  0
  3  9  1  0  0  0  0
  3 16  1  0  0  0  0
  4 18  2  0  0  0  0
  5 21  1  0  0  0  0
  5 27  1  0  0  0  0
  5 28  1  0  0  0  0
  6  7  1  0  0  0  0
  6  8  2  0  0  0  0
  6 11  1  0  0  0  0
  7 12  1  0  0  0  0
  8  9  1  0  0  0  0
  8 14  1  0  0  0  0
 10 11  2  0  0  0  0
 10 13  1  0  0  0  0
 10 15  1  0  0  0  0
 12 19  2  0  0  0  0
 12 20  1  0  0  0  0
 13 17  2  0  0  0  0
 13 18  1  0  0  0  0
 14 15  2  0  0  0  0
 16 21  1  0  0  0  0
 17 24  1  0  0  0  0
 18 25  1  0  0  0  0
 19 22  1  0  0  0  0
 20 23  2  0  0  0  0
 22 26  2  0  0  0  0
 23 26  1  0  0  0  0
M  END
> <PUBCHEM_COMPOUND_ID_TYPE>
0

> <PUBCHEM_TOTAL_CHARGE>
0

> <PUBCHEM_SUBSTANCE_ID>
310930732

> <PUBCHEM_SUBSTANCE_VERSION>
1

> <PUBCHEM_EXT_DATASOURCE_NAME>
4488

> <PUBCHEM_EXT_DATASOURCE_REGID>
SCHEMBL16108029

> <PUBCHEM_SUBSTANCE_COMMENT>
InChI=1S/C23H25N3O2/c1-15-21(16(2)28-24-15)18-10-11-19-20(14-18)22(17-8-6-5-7-9-17)26(23(19)27)13-12-25(3)4/h5-11,14,22H,12-13H2,1-4H3
InChIKey=XDWMKSWUGXOMCA-UHFFFAOYSA-N

> <PUBCHEM_SUBSTANCE_SYNONYM>
SCHEMBL16108029

> <PUBCHEM_XREF_EXT_ID>
SCHEMBL16108029

> <PUBCHEM_EXT_DATASOURCE_URL>
https://www.surechembl.org/

> <PUBCHEM_EXT_SUBSTANCE_URL>
https://www.surechembl.org/chemical/SCHEMBL16108029

> <PUBCHEM_CID_ASSOCIATIONS>
86295461  1

> <PUBCHEM_COORDINATE_TYPE>
1
3

$$$$
