310942490
  -OEChem-07211613022D

 18 18  0     1  0  0  0  0  0999 V2000
   -1.1855    0.0556    0.0000 S   0  0  0  0  0  0  0  0  0  0  0  0
    1.0620    0.0556    0.0000 S   0  0  0  0  0  0  0  0  0  0  0  0
   -1.9017   -1.1793    0.0000 O   0  0  0  0  0  0  0  0  0  0  0  0
   -3.3341   -1.1793    0.0000 O   0  0  0  0  0  0  0  0  0  0  0  0
    1.7659   -1.1793    0.0000 O   0  0  0  0  0  0  0  0  0  0  0  0
   -3.3095    0.4631    0.0000 N   0  0  0  0  0  0  0  0  0  0  0  0
    3.3341    0.4631    0.0000 N   0  0  0  0  0  0  0  0  0  0  0  0
    2.9020   -1.1793    0.0000 N   0  0  0  0  0  0  0  0  0  0  0  0
   -0.4692    0.4754    0.0000 C   0  0  3  0  0  0  0  0  0  0  0  0
    0.3581    0.4754    0.0000 C   0  0  3  0  0  0  0  0  0  0  0  0
   -0.8644    1.1793    0.0000 C   0  0  0  0  0  0  0  0  0  0  0  0
    0.7656    1.1793    0.0000 C   0  0  0  0  0  0  0  0  0  0  0  0
   -1.9017    0.4631    0.0000 C   0  0  0  0  0  0  0  0  0  0  0  0
    1.7782    0.4631    0.0000 C   0  0  0  0  0  0  0  0  0  0  0  0
   -2.6056    0.0679    0.0000 C   0  0  3  0  0  0  0  0  0  0  0  0
    2.5068    0.0679    0.0000 C   0  0  3  0  0  0  0  0  0  0  0  0
   -2.6303   -0.7471    0.0000 C   0  0  0  0  0  0  0  0  0  0  0  0
    2.4944   -0.7595    0.0000 C   0  0  0  0  0  0  0  0  0  0  0  0
  1  9  1  0  0  0  0
  1 13  1  0  0  0  0
  2 10  1  0  0  0  0
  2 14  1  0  0  0  0
  3 17  2  0  0  0  0
  4 17  1  0  0  0  0
  5 18  2  0  0  0  0
  6 15  1  0  0  0  0
  7 16  1  0  0  0  0
  8 18  1  0  0  0  0
  9 10  1  0  0  0  0
  9 11  1  0  0  0  0
 10 12  1  0  0  0  0
 11 12  1  0  0  0  0
 13 15  1  0  0  0  0
 14 16  1  0  0  0  0
 15 17  1  0  0  0  0
 16 18  1  0  0  0  0
M  END
> <PUBCHEM_COMPOUND_ID_TYPE>
0

> <PUBCHEM_TOTAL_CHARGE>
0

> <PUBCHEM_SUBSTANCE_ID>
310942490

> <PUBCHEM_SUBSTANCE_VERSION>
1

> <PUBCHEM_EXT_DATASOURCE_NAME>
4488

> <PUBCHEM_EXT_DATASOURCE_REGID>
SCHEMBL16120526

> <PUBCHEM_SUBSTANCE_COMMENT>
InChI=1S/C10H19N3O3S2/c11-5(9(13)14)3-17-7-1-2-8(7)18-4-6(12)10(15)16/h5-8H,1-4,11-12H2,(H2,13,14)(H,15,16)
InChIKey=GLRQGWRSRZGMEM-UHFFFAOYSA-N

> <PUBCHEM_SUBSTANCE_SYNONYM>
SCHEMBL16120526

> <PUBCHEM_XREF_EXT_ID>
SCHEMBL16120526

> <PUBCHEM_EXT_DATASOURCE_URL>
https://www.surechembl.org/

> <PUBCHEM_EXT_SUBSTANCE_URL>
https://www.surechembl.org/chemical/SCHEMBL16120526

> <PUBCHEM_CID_ASSOCIATIONS>
117609061  1

> <PUBCHEM_COORDINATE_TYPE>
1
3

$$$$
