310935996
  -OEChem-07211613022D

 27 29  0     1  0  0  0  0  0999 V2000
   -7.3590    3.0821    0.0000 Cl  0  0  0  0  0  0  0  0  0  0  0  0
   -4.8975    2.8234    0.0000 O   0  0  0  0  0  0  0  0  0  0  0  0
    0.7145    0.4125    0.0000 O   0  0  0  0  0  0  0  0  0  0  0  0
    0.0000   -0.8250    0.0000 O   0  0  0  0  0  0  0  0  0  0  0  0
   -2.7347   -0.2776    0.0000 N   0  0  3  0  0  0  0  0  0  0  0  0
   -3.7414    1.9835    0.0000 N   0  0  0  0  0  0  0  0  0  0  0  0
   -2.1826    0.3355    0.0000 N   0  0  0  0  0  0  0  0  0  0  0  0
   -2.3222   -0.9920    0.0000 N   0  0  0  0  0  0  0  0  0  0  0  0
   -1.5152   -0.8205    0.0000 N   0  0  0  0  0  0  0  0  0  0  0  0
   -5.0468    1.4023    0.0000 C   0  0  0  0  0  0  0  0  0  0  0  0
   -3.8908    0.5624    0.0000 C   0  0  0  0  0  0  0  0  0  0  0  0
   -4.5619    2.0698    0.0000 C   0  0  0  0  0  0  0  0  0  0  0  0
   -5.8673    1.4886    0.0000 C   0  0  0  0  0  0  0  0  0  0  0  0
   -4.7112    0.6486    0.0000 C   0  0  0  0  0  0  0  0  0  0  0  0
   -3.5552   -0.1913    0.0000 C   0  0  0  0  0  0  0  0  0  0  0  0
   -3.4058    1.2299    0.0000 C   0  0  0  0  0  0  0  0  0  0  0  0
   -1.4290    0.0000    0.0000 C   0  0  0  0  0  0  0  0  0  0  0  0
   -6.2029    2.2422    0.0000 C   0  0  0  0  0  0  0  0  0  0  0  0
   -6.3523    0.8211    0.0000 C   0  0  0  0  0  0  0  0  0  0  0  0
   -7.0233    2.3285    0.0000 C   0  0  0  0  0  0  0  0  0  0  0  0
   -0.7145    0.4125    0.0000 C   0  0  0  0  0  0  0  0  0  0  0  0
   -7.1727    0.9073    0.0000 C   0  0  0  0  0  0  0  0  0  0  0  0
   -7.5083    1.6610    0.0000 C   0  0  0  0  0  0  0  0  0  0  0  0
    0.0000    0.0000    0.0000 C   0  0  0  0  0  0  0  0  0  0  0  0
   -5.7179    2.9097    0.0000 C   0  0  0  0  0  0  0  0  0  0  0  0
    1.4290    0.0000    0.0000 C   0  0  0  0  0  0  0  0  0  0  0  0
    2.1434    0.4125    0.0000 C   0  0  0  0  0  0  0  0  0  0  0  0
  1 20  1  0  0  0  0
  2 12  1  0  0  0  0
  2 25  1  0  0  0  0
  3 24  1  0  0  0  0
  3 26  1  0  0  0  0
  4 24  2  0  0  0  0
  5  7  1  0  0  0  0
  5  8  1  0  0  0  0
  5 15  1  0  0  0  0
  6 12  1  0  0  0  0
  6 16  2  0  0  0  0
  7 17  1  0  0  0  0
  8  9  1  0  0  0  0
  9 17  2  0  0  0  0
 10 12  2  0  0  0  0
 10 13  1  0  0  0  0
 10 14  1  0  0  0  0
 11 14  2  0  0  0  0
 11 15  1  0  0  0  0
 11 16  1  0  0  0  0
 13 18  1  0  0  0  0
 13 19  2  0  0  0  0
 17 21  1  0  0  0  0
 18 20  2  0  0  0  0
 19 22  1  0  0  0  0
 20 23  1  0  0  0  0
 21 24  1  0  0  0  0
 22 23  2  0  0  0  0
 26 27  1  0  0  0  0
M  END
> <PUBCHEM_COMPOUND_ID_TYPE>
0

> <PUBCHEM_TOTAL_CHARGE>
0

> <PUBCHEM_SUBSTANCE_ID>
310935996

> <PUBCHEM_SUBSTANCE_VERSION>
1

> <PUBCHEM_EXT_DATASOURCE_NAME>
4488

> <PUBCHEM_EXT_DATASOURCE_REGID>
SCHEMBL16113597

> <PUBCHEM_SUBSTANCE_COMMENT>
InChI=1S/C18H20ClN5O3/c1-3-27-17(25)9-16-21-23-24(22-16)11-12-7-15(18(26-2)20-10-12)13-5-4-6-14(19)8-13/h4-8,10,23H,3,9,11H2,1-2H3,(H,21,22)
InChIKey=WBFHZCCTXYGYHG-UHFFFAOYSA-N

> <PUBCHEM_SUBSTANCE_SYNONYM>
SCHEMBL16113597

> <PUBCHEM_XREF_EXT_ID>
SCHEMBL16113597

> <PUBCHEM_EXT_DATASOURCE_URL>
https://www.surechembl.org/

> <PUBCHEM_EXT_SUBSTANCE_URL>
https://www.surechembl.org/chemical/SCHEMBL16113597

> <PUBCHEM_CID_ASSOCIATIONS>
117603970  1

> <PUBCHEM_COORDINATE_TYPE>
1
3

$$$$
