310949813
  -OEChem-07211613022D

 34 37  0     1  0  0  0  0  0999 V2000
   -6.9826   -1.4621    0.0000 Cl  0  0  0  0  0  0  0  0  0  0  0  0
   -3.8334    0.2062    0.0000 O   0  0  0  0  0  0  0  0  0  0  0  0
    6.1952    0.2062    0.0000 O   0  0  0  0  0  0  0  0  0  0  0  0
    5.5392   -1.0685    0.0000 O   0  0  0  0  0  0  0  0  0  0  0  0
    3.3460    0.2062    0.0000 N   0  0  0  0  0  0  0  0  0  0  0  0
    2.6337   -1.0309    0.0000 N   0  0  0  0  0  0  0  0  0  0  0  0
   -0.2531   -1.0309    0.0000 N   0  0  0  0  0  0  0  0  0  0  0  0
    2.6337   -0.1875    0.0000 C   0  0  0  0  0  0  0  0  0  0  0  0
    4.7894    0.2249    0.0000 C   0  0  3  0  0  0  0  0  0  0  0  0
    4.0958   -0.1875    0.0000 C   0  0  0  0  0  0  0  0  0  0  0  0
    3.3648    1.0497    0.0000 C   0  0  0  0  0  0  0  0  0  0  0  0
    1.9027    0.2249    0.0000 C   0  0  0  0  0  0  0  0  0  0  0  0
    1.1716   -1.0123    0.0000 C   0  0  0  0  0  0  0  0  0  0  0  0
    5.5017   -0.2062    0.0000 C   0  0  0  0  0  0  0  0  0  0  0  0
    4.7894    1.0497    0.0000 C   0  0  0  0  0  0  0  0  0  0  0  0
    1.9213   -1.4247    0.0000 C   0  0  0  0  0  0  0  0  0  0  0  0
    1.2091   -0.1875    0.0000 C   0  0  0  0  0  0  0  0  0  0  0  0
    4.0583    1.4621    0.0000 C   0  0  0  0  0  0  0  0  0  0  0  0
   -3.1211   -0.1875    0.0000 C   0  0  0  0  0  0  0  0  0  0  0  0
   -1.6777   -1.0123    0.0000 C   0  0  0  0  0  0  0  0  0  0  0  0
   -4.5457   -0.1875    0.0000 C   0  0  0  0  0  0  0  0  0  0  0  0
    0.4780   -1.4247    0.0000 C   0  0  0  0  0  0  0  0  0  0  0  0
   -3.1023   -1.0123    0.0000 C   0  0  0  0  0  0  0  0  0  0  0  0
   -2.3900    0.2062    0.0000 C   0  0  0  0  0  0  0  0  0  0  0  0
   -2.4088   -1.4247    0.0000 C   0  0  0  0  0  0  0  0  0  0  0  0
   -1.6964   -0.1875    0.0000 C   0  0  0  0  0  0  0  0  0  0  0  0
   -0.9467   -1.4247    0.0000 C   0  0  0  0  0  0  0  0  0  0  0  0
   -5.2580    0.2062    0.0000 C   0  0  0  0  0  0  0  0  0  0  0  0
   -4.5644   -1.0123    0.0000 C   0  0  0  0  0  0  0  0  0  0  0  0
   -5.9891   -1.0123    0.0000 C   0  0  0  0  0  0  0  0  0  0  0  0
   -5.9703   -0.1875    0.0000 C   0  0  0  0  0  0  0  0  0  0  0  0
   -5.2580   -1.4247    0.0000 C   0  0  0  0  0  0  0  0  0  0  0  0
    6.9451   -0.1875    0.0000 C   0  0  0  0  0  0  0  0  0  0  0  0
    6.9826   -0.9748    0.0000 C   0  0  0  0  0  0  0  0  0  0  0  0
  1 30  1  0  0  0  0
  2 19  1  0  0  0  0
  2 21  1  0  0  0  0
  3 14  1  0  0  0  0
  3 33  1  0  0  0  0
  4 14  2  0  0  0  0
  5  8  1  0  0  0  0
  5 10  1  0  0  0  0
  5 11  1  0  0  0  0
  6  8  2  0  0  0  0
  6 16  1  0  0  0  0
  7 22  1  0  0  0  0
  7 27  1  0  0  0  0
  8 12  1  0  0  0  0
  9 10  1  0  0  0  0
  9 14  1  0  0  0  0
  9 15  1  0  0  0  0
 11 18  1  0  0  0  0
 12 17  2  0  0  0  0
 13 16  2  0  0  0  0
 13 17  1  0  0  0  0
 13 22  1  0  0  0  0
 15 18  1  0  0  0  0
 19 23  2  0  0  0  0
 19 24  1  0  0  0  0
 20 25  2  0  0  0  0
 20 26  1  0  0  0  0
 20 27  1  0  0  0  0
 21 28  2  0  0  0  0
 21 29  1  0  0  0  0
 23 25  1  0  0  0  0
 24 26  2  0  0  0  0
 28 31  1  0  0  0  0
 29 32  2  0  0  0  0
 30 31  2  0  0  0  0
 30 32  1  0  0  0  0
 33 34  1  0  0  0  0
M  END
> <PUBCHEM_COMPOUND_ID_TYPE>
0

> <PUBCHEM_TOTAL_CHARGE>
0

> <PUBCHEM_SUBSTANCE_ID>
310949813

> <PUBCHEM_SUBSTANCE_VERSION>
1

> <PUBCHEM_EXT_DATASOURCE_NAME>
4488

> <PUBCHEM_EXT_DATASOURCE_REGID>
SCHEMBL16128013

> <PUBCHEM_SUBSTANCE_COMMENT>
InChI=1S/C27H30ClN3O3/c1-2-33-27(32)22-4-3-15-31(19-22)26-14-7-21(18-30-26)17-29-16-20-5-10-24(11-6-20)34-25-12-8-23(28)9-13-25/h5-14,18,22,29H,2-4,15-17,19H2,1H3
InChIKey=ZKXVHYGKGRPJGZ-UHFFFAOYSA-N

> <PUBCHEM_SUBSTANCE_SYNONYM>
SCHEMBL16128013

> <PUBCHEM_XREF_EXT_ID>
SCHEMBL16128013

> <PUBCHEM_EXT_DATASOURCE_URL>
https://www.surechembl.org/

> <PUBCHEM_EXT_SUBSTANCE_URL>
https://www.surechembl.org/chemical/SCHEMBL16128013

> <PUBCHEM_CID_ASSOCIATIONS>
117615133  1

> <PUBCHEM_COORDINATE_TYPE>
1
3

$$$$
