310942989
  -OEChem-07211613022D

 32 35  0     1  0  0  0  0  0999 V2000
   -1.8245    1.0399    0.0000 O   0  0  0  0  0  0  0  0  0  0  0  0
    1.7871   -2.6962    0.0000 O   0  0  0  0  0  0  0  0  0  0  0  0
    5.3737    0.2055    0.0000 O   0  0  0  0  0  0  0  0  0  0  0  0
   -3.2567    0.2055    0.0000 O   0  0  0  0  0  0  0  0  0  0  0  0
    1.0772    0.2055    0.0000 N   0  0  0  0  0  0  0  0  0  0  0  0
    2.5219    0.2055    0.0000 N   0  0  0  0  0  0  0  0  0  0  0  0
    1.7995   -1.0399    0.0000 N   0  0  0  0  0  0  0  0  0  0  0  0
    3.2317    1.4509    0.0000 N   0  0  0  0  0  0  0  0  0  0  0  0
   -4.6763    1.0399    0.0000 N   0  0  0  0  0  0  0  0  0  0  0  0
    1.0648    1.0523    0.0000 C   0  0  0  0  0  0  0  0  0  0  0  0
    1.7871   -0.1931    0.0000 C   0  0  0  0  0  0  0  0  0  0  0  0
    0.3425    1.4633    0.0000 C   0  0  0  0  0  0  0  0  0  0  0  0
    2.5094    1.0523    0.0000 C   0  0  0  0  0  0  0  0  0  0  0  0
    1.7871    1.4509    0.0000 C   0  0  0  0  0  0  0  0  0  0  0  0
   -0.3798    1.0523    0.0000 C   0  0  0  0  0  0  0  0  0  0  0  0
    0.3549    2.2853    0.0000 C   0  0  0  0  0  0  0  0  0  0  0  0
   -1.0897    1.4633    0.0000 C   0  0  0  0  0  0  0  0  0  0  0  0
    2.5094   -1.4509    0.0000 C   0  0  0  0  0  0  0  0  0  0  0  0
    1.0897   -1.4509    0.0000 C   0  0  0  0  0  0  0  0  0  0  0  0
    3.9541    1.0523    0.0000 C   0  0  0  0  0  0  0  0  0  0  0  0
   -0.3549    2.6962    0.0000 C   0  0  0  0  0  0  0  0  0  0  0  0
   -1.0772    2.2853    0.0000 C   0  0  0  0  0  0  0  0  0  0  0  0
    2.5094   -2.2853    0.0000 C   0  0  0  0  0  0  0  0  0  0  0  0
    1.0772   -2.2728    0.0000 C   0  0  0  0  0  0  0  0  0  0  0  0
    3.9416    0.2179    0.0000 C   0  0  0  0  0  0  0  0  0  0  0  0
    4.6639    1.4509    0.0000 C   0  0  0  0  0  0  0  0  0  0  0  0
   -2.5343    1.4509    0.0000 C   0  0  0  0  0  0  0  0  0  0  0  0
    4.6763   -0.2055    0.0000 C   0  0  0  0  0  0  0  0  0  0  0  0
    5.3862    1.0399    0.0000 C   0  0  0  0  0  0  0  0  0  0  0  0
   -3.2442    1.0523    0.0000 C   0  0  3  0  0  0  0  0  0  0  0  0
   -3.9665    1.4509    0.0000 C   0  0  0  0  0  0  0  0  0  0  0  0
   -5.3862    1.4384    0.0000 C   0  0  0  0  0  0  0  0  0  0  0  0
  1 17  1  0  0  0  0
  1 27  1  0  0  0  0
  2 23  1  0  0  0  0
  2 24  1  0  0  0  0
  3 28  1  0  0  0  0
  3 29  1  0  0  0  0
  4 30  1  0  0  0  0
  5 10  2  0  0  0  0
  5 11  1  0  0  0  0
  6 11  2  0  0  0  0
  6 13  1  0  0  0  0
  7 11  1  0  0  0  0
  7 18  1  0  0  0  0
  7 19  1  0  0  0  0
  8 13  1  0  0  0  0
  8 20  1  0  0  0  0
  9 31  1  0  0  0  0
  9 32  1  0  0  0  0
 10 12  1  0  0  0  0
 10 14  1  0  0  0  0
 12 15  2  0  0  0  0
 12 16  1  0  0  0  0
 13 14  2  0  0  0  0
 15 17  1  0  0  0  0
 16 21  2  0  0  0  0
 17 22  2  0  0  0  0
 18 23  1  0  0  0  0
 19 24  1  0  0  0  0
 20 25  1  0  0  0  0
 20 26  1  0  0  0  0
 21 22  1  0  0  0  0
 25 28  1  0  0  0  0
 26 29  1  0  0  0  0
 27 30  1  0  0  0  0
 30 31  1  0  0  0  0
M  END
> <PUBCHEM_COMPOUND_ID_TYPE>
0

> <PUBCHEM_TOTAL_CHARGE>
0

> <PUBCHEM_SUBSTANCE_ID>
310942989

> <PUBCHEM_SUBSTANCE_VERSION>
1

> <PUBCHEM_EXT_DATASOURCE_NAME>
4488

> <PUBCHEM_EXT_DATASOURCE_REGID>
SCHEMBL16121048

> <PUBCHEM_SUBSTANCE_COMMENT>
InChI=1S/C23H33N5O4/c1-24-15-19(29)16-32-20-4-2-3-17(13-20)21-14-22(25-18-5-9-30-10-6-18)27-23(26-21)28-7-11-31-12-8-28/h2-4,13-14,18-19,24,29H,5-12,15-16H2,1H3,(H,25,26,27)
InChIKey=TYQRGFWKLPYXPG-UHFFFAOYSA-N

> <PUBCHEM_SUBSTANCE_SYNONYM>
SCHEMBL16121048

> <PUBCHEM_XREF_EXT_ID>
SCHEMBL16121048

> <PUBCHEM_EXT_DATASOURCE_URL>
https://www.surechembl.org/

> <PUBCHEM_EXT_SUBSTANCE_URL>
https://www.surechembl.org/chemical/SCHEMBL16121048

> <PUBCHEM_CID_ASSOCIATIONS>
85473317  1

> <PUBCHEM_COORDINATE_TYPE>
1
3

$$$$
