310943737
  -OEChem-07211613022D

 25 27  0     1  0  0  0  0  0999 V2000
    5.5437   -0.9558    0.0000 O   0  0  0  0  0  0  0  0  0  0  0  0
    1.4611    0.3687    0.0000 N   0  0  0  0  0  0  0  0  0  0  0  0
   -2.9357   -0.4369    0.0000 N   0  0  3  0  0  0  0  0  0  0  0  0
    2.9084   -0.4643    0.0000 N   0  0  0  0  0  0  0  0  0  0  0  0
   -4.7108    0.0955    0.0000 N   0  0  3  0  0  0  0  0  0  0  0  0
   -0.0955    0.4233    0.0000 C   0  0  0  0  0  0  0  0  0  0  0  0
   -1.5156   -0.4096    0.0000 C   0  0  0  0  0  0  0  0  0  0  0  0
    0.6144    0.8329    0.0000 C   0  0  0  0  0  0  0  0  0  0  0  0
   -0.8193    0.8193    0.0000 C   0  0  0  0  0  0  0  0  0  0  0  0
   -0.1093   -0.4233    0.0000 C   0  0  0  0  0  0  0  0  0  0  0  0
   -2.1984   -0.8329    0.0000 C   0  0  0  0  0  0  0  0  0  0  0  0
   -1.5156    0.4096    0.0000 C   0  0  0  0  0  0  0  0  0  0  0  0
   -0.7920   -0.8193    0.0000 C   0  0  0  0  0  0  0  0  0  0  0  0
    1.4747   -0.4779    0.0000 C   0  0  0  0  0  0  0  0  0  0  0  0
    2.1710    0.7783    0.0000 C   0  0  0  0  0  0  0  0  0  0  0  0
    2.1984   -0.8739    0.0000 C   0  0  0  0  0  0  0  0  0  0  0  0
    2.8948    0.3687    0.0000 C   0  0  0  0  0  0  0  0  0  0  0  0
   -3.6047   -0.9012    0.0000 C   0  0  0  0  0  0  0  0  0  0  0  0
   -2.8674    0.3960    0.0000 C   0  0  0  0  0  0  0  0  0  0  0  0
    3.7959   -0.9558    0.0000 C   0  0  0  0  0  0  0  0  0  0  0  0
   -4.4104   -0.6554    0.0000 C   0  0  0  0  0  0  0  0  0  0  0  0
   -3.4682    0.9558    0.0000 C   0  0  0  0  0  0  0  0  0  0  0  0
   -4.3012    0.8329    0.0000 C   0  0  0  0  0  0  0  0  0  0  0  0
    4.6562   -0.4506    0.0000 C   0  0  0  0  0  0  0  0  0  0  0  0
   -5.5437    0.0955    0.0000 C   0  0  0  0  0  0  0  0  0  0  0  0
  1 24  1  0  0  0  0
  2  8  1  0  0  0  0
  2 14  1  0  0  0  0
  2 15  1  0  0  0  0
  3 11  1  0  0  0  0
  3 18  1  0  0  0  0
  3 19  1  0  0  0  0
  4 16  1  0  0  0  0
  4 17  1  0  0  0  0
  4 20  1  0  0  0  0
  5 21  1  0  0  0  0
  5 23  1  0  0  0  0
  5 25  1  0  0  0  0
  6  8  1  0  0  0  0
  6  9  2  0  0  0  0
  6 10  1  0  0  0  0
  7 11  1  0  0  0  0
  7 12  2  0  0  0  0
  7 13  1  0  0  0  0
  9 12  1  0  0  0  0
 10 13  2  0  0  0  0
 14 16  1  0  0  0  0
 15 17  1  0  0  0  0
 18 21  1  0  0  0  0
 19 22  1  0  0  0  0
 20 24  1  0  0  0  0
 22 23  1  0  0  0  0
M  END
> <PUBCHEM_COMPOUND_ID_TYPE>
0

> <PUBCHEM_TOTAL_CHARGE>
0

> <PUBCHEM_SUBSTANCE_ID>
310943737

> <PUBCHEM_SUBSTANCE_VERSION>
1

> <PUBCHEM_EXT_DATASOURCE_NAME>
4488

> <PUBCHEM_EXT_DATASOURCE_REGID>
SCHEMBL16121805

> <PUBCHEM_SUBSTANCE_COMMENT>
InChI=1S/C20H34N4O/c1-21-7-2-8-23(10-9-21)17-19-3-5-20(6-4-19)18-24-13-11-22(12-14-24)15-16-25/h3-6,25H,2,7-18H2,1H3
InChIKey=XMHCPNPLADRHIC-UHFFFAOYSA-N

> <PUBCHEM_SUBSTANCE_SYNONYM>
SCHEMBL16121805

> <PUBCHEM_XREF_EXT_ID>
SCHEMBL16121805

> <PUBCHEM_EXT_DATASOURCE_URL>
https://www.surechembl.org/

> <PUBCHEM_EXT_SUBSTANCE_URL>
https://www.surechembl.org/chemical/SCHEMBL16121805

> <PUBCHEM_CID_ASSOCIATIONS>
117610102  1

> <PUBCHEM_COORDINATE_TYPE>
1
3

$$$$
