310936619
  -OEChem-07211613022D

 19 21  0     1  0  0  0  0  0999 V2000
   -3.3533    1.0999    0.0000 F   0  0  0  0  0  0  0  0  0  0  0  0
   -0.8977   -1.1046    0.0000 O   0  0  0  0  0  0  0  0  0  0  0  0
    0.1766    1.0471    0.0000 O   0  0  0  0  0  0  0  0  0  0  0  0
    1.6016    1.1529    0.0000 O   0  0  0  0  0  0  0  0  0  0  0  0
    0.9807   -0.1341    0.0000 N   0  0  0  0  0  0  0  0  0  0  0  0
   -1.3413    0.2537    0.0000 N   0  0  0  0  0  0  0  0  0  0  0  0
    1.1407   -0.9495    0.0000 C   0  0  3  0  0  0  0  0  0  0  0  0
    0.9106   -1.6699    0.0000 C   0  0  3  0  0  0  0  0  0  0  0  0
    0.5004   -1.3997    0.0000 C   0  0  3  0  0  0  0  0  0  0  0  0
    0.1351   -2.0602    0.0000 C   0  0  0  0  0  0  0  0  0  0  0  0
    1.9362   -1.4148    0.0000 C   0  0  0  0  0  0  0  0  0  0  0  0
    1.6411   -2.0402    0.0000 C   0  0  0  0  0  0  0  0  0  0  0  0
    0.9196    0.6886    0.0000 C   0  0  0  0  0  0  0  0  0  0  0  0
   -0.1135   -0.8486    0.0000 C   0  0  0  0  0  0  0  0  0  0  0  0
   -1.5116   -0.5535    0.0000 C   0  0  0  0  0  0  0  0  0  0  0  0
   -2.2959   -0.8096    0.0000 C   0  0  0  0  0  0  0  0  0  0  0  0
   -2.7394    0.5488    0.0000 C   0  0  0  0  0  0  0  0  0  0  0  0
   -1.9552    0.8049    0.0000 C   0  0  0  0  0  0  0  0  0  0  0  0
   -2.9098   -0.2584    0.0000 C   0  0  0  0  0  0  0  0  0  0  0  0
  1 17  1  0  0  0  0
  2 14  1  0  0  0  0
  2 15  1  0  0  0  0
  3 13  2  0  0  0  0
  4 13  1  0  0  0  0
  5  7  1  0  0  0  0
  5  8  1  0  0  0  0
  5 13  1  0  0  0  0
  6 15  2  0  0  0  0
  6 18  1  0  0  0  0
  7  9  1  0  0  0  0
  7 11  1  0  0  0  0
  8 10  1  0  0  0  0
  8 12  1  0  0  0  0
  9 10  1  0  0  0  0
  9 14  1  0  0  0  0
 11 12  1  0  0  0  0
 15 16  1  0  0  0  0
 16 19  2  0  0  0  0
 17 18  2  0  0  0  0
 17 19  1  0  0  0  0
M  END
> <PUBCHEM_COMPOUND_ID_TYPE>
0

> <PUBCHEM_TOTAL_CHARGE>
0

> <PUBCHEM_SUBSTANCE_ID>
310936619

> <PUBCHEM_SUBSTANCE_VERSION>
1

> <PUBCHEM_EXT_DATASOURCE_NAME>
4488

> <PUBCHEM_EXT_DATASOURCE_REGID>
SCHEMBL16114279

> <PUBCHEM_SUBSTANCE_COMMENT>
InChI=1S/C13H15FN2O3/c14-9-1-4-12(15-6-9)19-7-8-5-10-2-3-11(8)16(10)13(17)18/h1,4,6,8,10-11H,2-3,5,7H2,(H,17,18)
InChIKey=VOHBLLVQPHHJLS-UHFFFAOYSA-N

> <PUBCHEM_SUBSTANCE_SYNONYM>
SCHEMBL16114279

> <PUBCHEM_XREF_EXT_ID>
SCHEMBL16114279

> <PUBCHEM_EXT_DATASOURCE_URL>
https://www.surechembl.org/

> <PUBCHEM_EXT_SUBSTANCE_URL>
https://www.surechembl.org/chemical/SCHEMBL16114279

> <PUBCHEM_CID_ASSOCIATIONS>
117604536  1

> <PUBCHEM_COORDINATE_TYPE>
1
3

$$$$
