310944866
  -OEChem-07211613022D

 23 26  0     1  0  0  0  0  0999 V2000
   -3.5163   -1.1026    0.0000 O   0  0  0  0  0  0  0  0  0  0  0  0
   -2.3703   -0.1824    0.0000 N   0  0  0  0  0  0  0  0  0  0  0  0
   -2.7869    0.5469    0.0000 N   0  0  0  0  0  0  0  0  0  0  0  0
   -1.4847    0.8248    0.0000 C   0  0  0  0  0  0  0  0  0  0  0  0
   -0.7727    1.2589    0.0000 C   0  0  0  0  0  0  0  0  0  0  0  0
   -1.5715   -0.0260    0.0000 C   0  0  0  0  0  0  0  0  0  0  0  0
   -2.6828   -0.9637    0.0000 C   0  0  3  0  0  0  0  0  0  0  0  0
   -2.2313    1.1547    0.0000 C   0  0  0  0  0  0  0  0  0  0  0  0
   -0.0782    0.8595    0.0000 C   0  0  0  0  0  0  0  0  0  0  0  0
    0.6338    1.2763    0.0000 C   0  0  0  0  0  0  0  0  0  0  0  0
   -0.7900    2.0924    0.0000 C   0  0  0  0  0  0  0  0  0  0  0  0
   -2.1619   -1.5715    0.0000 C   0  0  0  0  0  0  0  0  0  0  0  0
    0.6164    2.1097    0.0000 C   0  0  0  0  0  0  0  0  0  0  0  0
   -0.0955    2.5266    0.0000 C   0  0  0  0  0  0  0  0  0  0  0  0
    1.3457    0.8595    0.0000 C   0  0  0  0  0  0  0  0  0  0  0  0
   -3.7942   -1.8840    0.0000 C   0  0  0  0  0  0  0  0  0  0  0  0
   -2.4397   -2.3529    0.0000 C   0  0  0  0  0  0  0  0  0  0  0  0
    2.8043    0.0434    0.0000 C   0  0  0  0  0  0  0  0  0  0  0  0
    2.0924    0.4428    0.0000 C   0  0  0  0  0  0  0  0  0  0  0  0
   -3.2211   -2.5266    0.0000 C   0  0  0  0  0  0  0  0  0  0  0  0
    3.0301   -0.7554    0.0000 C   0  0  0  0  0  0  0  0  0  0  0  0
    3.5858    0.2518    0.0000 C   0  0  0  0  0  0  0  0  0  0  0  0
    3.7942   -0.5297    0.0000 C   0  0  0  0  0  0  0  0  0  0  0  0
  1  7  1  0  0  0  0
  1 16  1  0  0  0  0
  2  3  1  0  0  0  0
  2  6  1  0  0  0  0
  2  7  1  0  0  0  0
  3  8  2  0  0  0  0
  4  5  1  0  0  0  0
  4  6  2  0  0  0  0
  4  8  1  0  0  0  0
  5  9  1  0  0  0  0
  5 11  2  0  0  0  0
  7 12  1  0  0  0  0
  9 10  2  0  0  0  0
 10 13  1  0  0  0  0
 10 15  1  0  0  0  0
 11 14  1  0  0  0  0
 12 17  1  0  0  0  0
 13 14  2  0  0  0  0
 15 19  3  0  0  0  0
 16 20  1  0  0  0  0
 17 20  1  0  0  0  0
 18 19  1  0  0  0  0
 18 21  1  0  0  0  0
 18 22  1  0  0  0  0
 21 23  1  0  0  0  0
 22 23  1  0  0  0  0
M  END
> <PUBCHEM_COMPOUND_ID_TYPE>
0

> <PUBCHEM_TOTAL_CHARGE>
0

> <PUBCHEM_SUBSTANCE_ID>
310944866

> <PUBCHEM_SUBSTANCE_VERSION>
1

> <PUBCHEM_EXT_DATASOURCE_NAME>
4488

> <PUBCHEM_EXT_DATASOURCE_REGID>
SCHEMBL16122948

> <PUBCHEM_SUBSTANCE_COMMENT>
InChI=1S/C20H22N2O/c1-2-12-23-20(9-1)22-15-19(14-21-22)18-8-4-7-17(13-18)11-10-16-5-3-6-16/h4,7-8,13-16,20H,1-3,5-6,9,12H2
InChIKey=ODJWPRSOLVCAJJ-UHFFFAOYSA-N

> <PUBCHEM_SUBSTANCE_SYNONYM>
SCHEMBL16122948

> <PUBCHEM_XREF_EXT_ID>
SCHEMBL16122948

> <PUBCHEM_EXT_DATASOURCE_URL>
https://www.surechembl.org/

> <PUBCHEM_EXT_SUBSTANCE_URL>
https://www.surechembl.org/chemical/SCHEMBL16122948

> <PUBCHEM_CID_ASSOCIATIONS>
117611062  1

> <PUBCHEM_COORDINATE_TYPE>
1
3

$$$$
