310937163
  -OEChem-07211613022D

 31 34  0     1  0  0  0  0  0999 V2000
    3.0686    0.0950    0.0000 S   0  0  0  0  0  0  0  0  0  0  0  0
    1.8144    4.4958    0.0000 F   0  0  0  0  0  0  0  0  0  0  0  0
    2.5794    4.1868    0.0000 F   0  0  0  0  0  0  0  0  0  0  0  0
    1.1643    3.9879    0.0000 F   0  0  0  0  0  0  0  0  0  0  0  0
    0.0000    0.8250    0.0000 F   0  0  0  0  0  0  0  0  0  0  0  0
    3.2883    2.7948    0.0000 O   0  0  0  0  0  0  0  0  0  0  0  0
    2.1434   -0.4125    0.0000 O   0  0  0  0  0  0  0  0  0  0  0  0
    2.1434    1.2375    0.0000 N   0  0  0  0  0  0  0  0  0  0  0  0
    3.4492    1.5151    0.0000 N   0  0  0  0  0  0  0  0  0  0  0  0
    1.4290    0.8250    0.0000 N   0  0  0  0  0  0  0  0  0  0  0  0
    4.5435    4.3219    0.0000 N   0  0  0  0  0  0  0  0  0  0  0  0
    2.2296    2.0580    0.0000 C   0  0  3  0  0  0  0  0  0  0  0  0
    2.0441    2.8618    0.0000 C   0  0  3  0  0  0  0  0  0  0  0  0
    1.9293    3.6788    0.0000 C   0  0  0  0  0  0  0  0  0  0  0  0
    3.0367    2.2295    0.0000 C   0  0  0  0  0  0  0  0  0  0  0  0
    1.4258    1.8724    0.0000 C   0  0  0  0  0  0  0  0  0  0  0  0
    1.2402    2.6763    0.0000 C   0  0  0  0  0  0  0  0  0  0  0  0
    3.5509    3.2939    0.0000 C   0  0  0  0  0  0  0  0  0  0  0  0
    2.8971    0.9020    0.0000 C   0  0  0  0  0  0  0  0  0  0  0  0
    3.7505    4.0944    0.0000 C   0  0  0  0  0  0  0  0  0  0  0  0
    4.1443    2.7208    0.0000 C   0  0  0  0  0  0  0  0  0  0  0  0
    1.4290    0.0000    0.0000 C   0  0  0  0  0  0  0  0  0  0  0  0
    0.7145    1.2375    0.0000 C   0  0  0  0  0  0  0  0  0  0  0  0
    0.7145   -0.4125    0.0000 C   0  0  0  0  0  0  0  0  0  0  0  0
    4.9374    2.9482    0.0000 C   0  0  0  0  0  0  0  0  0  0  0  0
    5.1370    3.7487    0.0000 C   0  0  0  0  0  0  0  0  0  0  0  0
    0.0000    0.0000    0.0000 C   0  0  0  0  0  0  0  0  0  0  0  0
    0.7145   -1.2375    0.0000 C   0  0  0  0  0  0  0  0  0  0  0  0
   -0.7145   -0.4125    0.0000 C   0  0  0  0  0  0  0  0  0  0  0  0
    0.0000   -1.6500    0.0000 C   0  0  0  0  0  0  0  0  0  0  0  0
   -0.7145   -1.2375    0.0000 C   0  0  0  0  0  0  0  0  0  0  0  0
  1 19  2  0  0  0  0
  2 14  1  0  0  0  0
  3 14  1  0  0  0  0
  4 14  1  0  0  0  0
  5 27  1  0  0  0  0
  6 15  2  0  0  0  0
  7 22  2  0  0  0  0
  8 10  1  0  0  0  0
  8 12  1  0  0  0  0
  8 19  1  0  0  0  0
  9 15  1  0  0  0  0
  9 19  1  0  0  0  0
 10 22  1  0  0  0  0
 10 23  1  0  0  0  0
 11 20  2  0  0  0  0
 11 26  1  0  0  0  0
 12 13  1  0  0  0  0
 12 15  1  0  0  0  0
 12 16  1  0  0  0  0
 13 14  1  0  0  0  0
 13 17  1  0  0  0  0
 13 18  1  0  0  0  0
 16 17  1  0  0  0  0
 18 20  1  0  0  0  0
 18 21  2  0  0  0  0
 21 25  1  0  0  0  0
 22 24  1  0  0  0  0
 24 27  1  0  0  0  0
 24 28  2  0  0  0  0
 25 26  2  0  0  0  0
 27 29  2  0  0  0  0
 28 30  1  0  0  0  0
 29 31  1  0  0  0  0
 30 31  2  0  0  0  0
M  END
> <PUBCHEM_COMPOUND_ID_TYPE>
0

> <PUBCHEM_TOTAL_CHARGE>
0

> <PUBCHEM_SUBSTANCE_ID>
310937163

> <PUBCHEM_SUBSTANCE_VERSION>
1

> <PUBCHEM_EXT_DATASOURCE_NAME>
4488

> <PUBCHEM_EXT_DATASOURCE_REGID>
SCHEMBL16114887

> <PUBCHEM_SUBSTANCE_COMMENT>
InChI=1S/C20H16F4N4O2S/c1-27(15(29)13-6-2-3-7-14(13)21)28-17(31)26-16(30)19(28)9-8-18(19,20(22,23)24)12-5-4-10-25-11-12/h2-7,10-11H,8-9H2,1H3,(H,26,30,31)
InChIKey=BAVPWNVIWRBYAG-UHFFFAOYSA-N

> <PUBCHEM_SUBSTANCE_SYNONYM>
SCHEMBL16114887

> <PUBCHEM_XREF_EXT_ID>
SCHEMBL16114887

> <PUBCHEM_EXT_DATASOURCE_URL>
https://www.surechembl.org/

> <PUBCHEM_EXT_SUBSTANCE_URL>
https://www.surechembl.org/chemical/SCHEMBL16114887

> <PUBCHEM_CID_ASSOCIATIONS>
117604985  1

> <PUBCHEM_COORDINATE_TYPE>
1
3

$$$$
