310944735
  -OEChem-07211613022D

 26 28  0     1  0  0  0  0  0999 V2000
   -1.0389   -0.3111    0.0000 Cl  0  0  0  0  0  0  0  0  0  0  0  0
   -4.0874   -0.3111    0.0000 Cl  0  0  0  0  0  0  0  0  0  0  0  0
    0.3919    2.1774    0.0000 O   0  0  0  0  0  0  0  0  0  0  0  0
   -3.9256    1.3562    0.0000 O   0  0  0  0  0  0  0  0  0  0  0  0
    4.6224   -0.5599    0.0000 O   0  0  0  0  0  0  0  0  0  0  0  0
    1.1260    0.9456    0.0000 N   0  0  0  0  0  0  0  0  0  0  0  0
    3.2040   -0.5599    0.0000 N   0  0  0  0  0  0  0  0  0  0  0  0
   -1.0389    1.3562    0.0000 N   0  0  0  0  0  0  0  0  0  0  0  0
    1.9224   -0.1369    0.0000 C   0  0  3  0  0  0  0  0  0  0  0  0
    2.3952    0.5351    0.0000 C   0  0  3  0  0  0  0  0  0  0  0  0
    1.1385    0.1120    0.0000 C   0  0  0  0  0  0  0  0  0  0  0  0
    1.9224    1.1820    0.0000 C   0  0  0  0  0  0  0  0  0  0  0  0
    3.1915    0.2738    0.0000 C   0  0  0  0  0  0  0  0  0  0  0  0
    2.4201   -0.8212    0.0000 C   0  0  0  0  0  0  0  0  0  0  0  0
    0.4044    1.3314    0.0000 C   0  0  0  0  0  0  0  0  0  0  0  0
   -1.7482    0.9456    0.0000 C   0  0  0  0  0  0  0  0  0  0  0  0
    3.9132   -0.9830    0.0000 C   0  0  0  0  0  0  0  0  0  0  0  0
   -1.7607    0.1120    0.0000 C   0  0  0  0  0  0  0  0  0  0  0  0
   -3.1915    0.9332    0.0000 C   0  0  0  0  0  0  0  0  0  0  0  0
   -0.3048    0.9456    0.0000 C   0  0  0  0  0  0  0  0  0  0  0  0
   -3.1915    0.1120    0.0000 C   0  0  0  0  0  0  0  0  0  0  0  0
   -2.4699    1.3438    0.0000 C   0  0  0  0  0  0  0  0  0  0  0  0
   -2.4574   -0.2986    0.0000 C   0  0  0  0  0  0  0  0  0  0  0  0
    3.9132   -1.8042    0.0000 C   0  0  0  0  0  0  0  0  0  0  0  0
    3.1667   -2.1774    0.0000 C   0  0  0  0  0  0  0  0  0  0  0  0
   -4.6224    0.9332    0.0000 C   0  0  0  0  0  0  0  0  0  0  0  0
  1 18  1  0  0  0  0
  2 21  1  0  0  0  0
  3 15  2  0  0  0  0
  4 19  1  0  0  0  0
  4 26  1  0  0  0  0
  5 17  2  0  0  0  0
  6 11  1  0  0  0  0
  6 12  1  0  0  0  0
  6 15  1  0  0  0  0
  7 13  1  0  0  0  0
  7 14  1  0  0  0  0
  7 17  1  0  0  0  0
  8 16  1  0  0  0  0
  8 20  1  0  0  0  0
  9 10  1  0  0  0  0
  9 11  1  0  0  0  0
  9 14  1  0  0  0  0
 10 12  1  0  0  0  0
 10 13  1  0  0  0  0
 15 20  1  0  0  0  0
 16 18  1  0  0  0  0
 16 22  2  0  0  0  0
 17 24  1  0  0  0  0
 18 23  2  0  0  0  0
 19 21  2  0  0  0  0
 19 22  1  0  0  0  0
 21 23  1  0  0  0  0
 24 25  2  0  0  0  0
M  END
> <PUBCHEM_COMPOUND_ID_TYPE>
0

> <PUBCHEM_TOTAL_CHARGE>
0

> <PUBCHEM_SUBSTANCE_ID>
310944735

> <PUBCHEM_SUBSTANCE_VERSION>
1

> <PUBCHEM_EXT_DATASOURCE_NAME>
4488

> <PUBCHEM_EXT_DATASOURCE_REGID>
SCHEMBL16122814

> <PUBCHEM_SUBSTANCE_COMMENT>
InChI=1S/C18H21Cl2N3O3/c1-3-17(24)22-7-11-9-23(10-12(11)8-22)18(25)6-21-15-5-16(26-2)14(20)4-13(15)19/h3-5,11-12,21H,1,6-10H2,2H3
InChIKey=MBQPXAZHLPHYPU-UHFFFAOYSA-N

> <PUBCHEM_SUBSTANCE_SYNONYM>
SCHEMBL16122814

> <PUBCHEM_XREF_EXT_ID>
SCHEMBL16122814

> <PUBCHEM_EXT_DATASOURCE_URL>
https://www.surechembl.org/

> <PUBCHEM_EXT_SUBSTANCE_URL>
https://www.surechembl.org/chemical/SCHEMBL16122814

> <PUBCHEM_CID_ASSOCIATIONS>
117610953  1

> <PUBCHEM_COORDINATE_TYPE>
1
3

$$$$
