310946459
  -OEChem-07211613022D

 16 15  0     1  0  0  0  0  0999 V2000
   -0.8250   -1.0229    0.0000 O   0  0  0  0  0  0  0  0  0  0  0  0
   -2.0625   -0.3084    0.0000 O   0  0  0  0  0  0  0  0  0  0  0  0
    1.2375   -1.7374    0.0000 O   0  0  0  0  0  0  0  0  0  0  0  0
    0.0000    0.4061    0.0000 N   0  0  0  0  0  0  0  0  0  0  0  0
   -3.7125    2.5495    0.0000 N   0  0  0  0  0  0  0  0  0  0  0  0
   -1.2375   -0.3084    0.0000 C   0  0  0  0  0  0  0  0  0  0  0  0
   -0.8250    0.4061    0.0000 C   0  0  3  0  0  0  0  0  0  0  0  0
   -1.2375    1.1205    0.0000 C   0  0  0  0  0  0  0  0  0  0  0  0
    0.0000   -1.0229    0.0000 C   0  0  0  0  0  0  0  0  0  0  0  0
   -2.0625    1.1205    0.0000 C   0  0  0  0  0  0  0  0  0  0  0  0
    0.4125   -1.7374    0.0000 C   0  0  0  0  0  0  0  0  0  0  0  0
   -2.4750    1.8350    0.0000 C   0  0  0  0  0  0  0  0  0  0  0  0
    1.6500   -2.4518    0.0000 C   0  0  0  0  0  0  0  0  0  0  0  0
   -3.3000    1.8350    0.0000 C   0  0  0  0  0  0  0  0  0  0  0  0
    2.4750   -2.4518    0.0000 C   0  0  0  0  0  0  0  0  0  0  0  0
    2.8875   -3.1663    0.0000 C   0  0  0  0  0  0  0  0  0  0  0  0
  1  6  1  0  0  0  0
  1  9  1  0  0  0  0
  2  6  2  0  0  0  0
  3 11  1  0  0  0  0
  3 13  1  0  0  0  0
  4  7  1  0  0  0  0
  5 14  1  0  0  0  0
  6  7  1  0  0  0  0
  7  8  1  0  0  0  0
  8 10  1  0  0  0  0
  9 11  1  0  0  0  0
 10 12  1  0  0  0  0
 12 14  1  0  0  0  0
 13 15  1  0  0  0  0
 15 16  1  0  0  0  0
M  END
> <PUBCHEM_COMPOUND_ID_TYPE>
0

> <PUBCHEM_TOTAL_CHARGE>
0

> <PUBCHEM_SUBSTANCE_ID>
310946459

> <PUBCHEM_SUBSTANCE_VERSION>
1

> <PUBCHEM_EXT_DATASOURCE_NAME>
4488

> <PUBCHEM_EXT_DATASOURCE_REGID>
SCHEMBL16124580

> <PUBCHEM_SUBSTANCE_COMMENT>
InChI=1S/C11H24N2O3/c1-2-7-15-8-9-16-11(14)10(13)5-3-4-6-12/h10H,2-9,12-13H2,1H3
InChIKey=QZQVYSJRHXWDRX-UHFFFAOYSA-N

> <PUBCHEM_SUBSTANCE_SYNONYM>
SCHEMBL16124580

> <PUBCHEM_XREF_EXT_ID>
SCHEMBL16124580

> <PUBCHEM_EXT_DATASOURCE_URL>
https://www.surechembl.org/

> <PUBCHEM_EXT_SUBSTANCE_URL>
https://www.surechembl.org/chemical/SCHEMBL16124580

> <PUBCHEM_CID_ASSOCIATIONS>
117612370  1

> <PUBCHEM_COORDINATE_TYPE>
1
3

$$$$
