310938020
  -OEChem-07211613022D

 39 43  0     1  0  0  0  0  0999 V2000
    5.0731   -5.3333    0.0000 O   0  0  0  0  0  0  0  0  0  0  0  0
    7.9782   -5.3766    0.0000 O   0  0  0  0  0  0  0  0  0  0  0  0
    7.2844   -2.6016    0.0000 N   0  0  3  0  0  0  0  0  0  0  0  0
    6.5040   -5.3333    0.0000 N   0  0  0  0  0  0  0  0  0  0  0  0
    2.9051   -2.4715    0.0000 N   0  0  0  0  0  0  0  0  0  0  0  0
    2.1680   -1.2574    0.0000 N   0  0  0  0  0  0  0  0  0  0  0  0
    8.6720   -6.5907    0.0000 N   0  0  0  0  0  0  0  0  0  0  0  0
    0.7371   -0.4336    0.0000 N   0  0  0  0  0  0  0  0  0  0  0  0
    6.5040   -3.6856    0.0000 C   0  0  0  0  0  0  0  0  0  0  0  0
    6.5040   -2.8617    0.0000 C   0  0  0  0  0  0  0  0  0  0  0  0
    5.7669   -4.1192    0.0000 C   0  0  0  0  0  0  0  0  0  0  0  0
    5.0731   -2.8617    0.0000 C   0  0  0  0  0  0  0  0  0  0  0  0
    5.7669   -2.4715    0.0000 C   0  0  0  0  0  0  0  0  0  0  0  0
    5.0731   -3.6856    0.0000 C   0  0  0  0  0  0  0  0  0  0  0  0
    7.2844   -3.9457    0.0000 C   0  0  0  0  0  0  0  0  0  0  0  0
    5.7669   -4.9430    0.0000 C   0  0  0  0  0  0  0  0  0  0  0  0
    4.3359   -2.4715    0.0000 C   0  0  0  0  0  0  0  0  0  0  0  0
    7.7614   -3.2953    0.0000 C   0  0  0  0  0  0  0  0  0  0  0  0
    7.5446   -1.8211    0.0000 C   0  0  0  0  0  0  0  0  0  0  0  0
    3.6422   -2.8617    0.0000 C   0  0  0  0  0  0  0  0  0  0  0  0
    4.3359   -1.6477    0.0000 C   0  0  0  0  0  0  0  0  0  0  0  0
    2.8617   -1.6477    0.0000 C   0  0  0  0  0  0  0  0  0  0  0  0
    7.1977   -6.5907    0.0000 C   0  0  0  0  0  0  0  0  0  0  0  0
    3.5989   -1.2574    0.0000 C   0  0  0  0  0  0  0  0  0  0  0  0
    6.5040   -6.2004    0.0000 C   0  0  0  0  0  0  0  0  0  0  0  0
    7.2411   -7.4145    0.0000 C   0  0  0  0  0  0  0  0  0  0  0  0
    7.9348   -6.2004    0.0000 C   0  0  0  0  0  0  0  0  0  0  0  0
    6.9809   -1.2141    0.0000 C   0  0  0  0  0  0  0  0  0  0  0  0
    8.3684   -1.6477    0.0000 C   0  0  0  0  0  0  0  0  0  0  0  0
    7.9348   -7.8481    0.0000 C   0  0  0  0  0  0  0  0  0  0  0  0
    8.6720   -7.4579    0.0000 C   0  0  0  0  0  0  0  0  0  0  0  0
    2.1680   -0.4336    0.0000 C   0  0  0  0  0  0  0  0  0  0  0  0
    1.4742   -1.6477    0.0000 C   0  0  0  0  0  0  0  0  0  0  0  0
    6.5040   -7.8481    0.0000 C   0  0  0  0  0  0  0  0  0  0  0  0
    0.7371   -1.2574    0.0000 C   0  0  0  0  0  0  0  0  0  0  0  0
    1.4308    0.0000    0.0000 C   0  0  0  0  0  0  0  0  0  0  0  0
    9.3657   -7.8481    0.0000 C   0  0  0  0  0  0  0  0  0  0  0  0
    6.5473   -8.6720    0.0000 C   0  0  0  0  0  0  0  0  0  0  0  0
    0.0000   -0.0434    0.0000 C   0  0  0  0  0  0  0  0  0  0  0  0
  1 16  2  0  0  0  0
  2 27  2  0  0  0  0
  3 10  1  0  0  0  0
  3 18  1  0  0  0  0
  3 19  1  0  0  0  0
  4 16  1  0  0  0  0
  4 25  1  0  0  0  0
  5 20  1  0  0  0  0
  5 22  2  0  0  0  0
  6 22  1  0  0  0  0
  6 32  1  0  0  0  0
  6 33  1  0  0  0  0
  7 27  1  0  0  0  0
  7 31  1  0  0  0  0
  8 35  1  0  0  0  0
  8 36  1  0  0  0  0
  8 39  1  0  0  0  0
  9 10  2  0  0  0  0
  9 11  1  0  0  0  0
  9 15  1  0  0  0  0
 10 13  1  0  0  0  0
 11 14  2  0  0  0  0
 11 16  1  0  0  0  0
 12 13  2  0  0  0  0
 12 14  1  0  0  0  0
 12 17  1  0  0  0  0
 15 18  1  0  0  0  0
 17 20  2  0  0  0  0
 17 21  1  0  0  0  0
 19 28  1  0  0  0  0
 19 29  1  0  0  0  0
 21 24  2  0  0  0  0
 22 24  1  0  0  0  0
 23 25  1  0  0  0  0
 23 26  2  0  0  0  0
 23 27  1  0  0  0  0
 26 30  1  0  0  0  0
 26 34  1  0  0  0  0
 30 31  2  0  0  0  0
 31 37  1  0  0  0  0
 32 36  1  0  0  0  0
 33 35  1  0  0  0  0
 34 38  1  0  0  0  0
M  END
> <PUBCHEM_COMPOUND_ID_TYPE>
0

> <PUBCHEM_TOTAL_CHARGE>
0

> <PUBCHEM_SUBSTANCE_ID>
310938020

> <PUBCHEM_SUBSTANCE_VERSION>
1

> <PUBCHEM_EXT_DATASOURCE_NAME>
4488

> <PUBCHEM_EXT_DATASOURCE_REGID>
SCHEMBL16115860

> <PUBCHEM_SUBSTANCE_COMMENT>
InChI=1S/C31H40N6O2/c1-6-22-15-21(4)34-31(39)27(22)19-33-30(38)26-16-24(17-28-25(26)9-10-37(28)20(2)3)23-7-8-29(32-18-23)36-13-11-35(5)12-14-36/h7-8,15-18,20H,6,9-14,19H2,1-5H3,(H,33,38)(H,34,39)
InChIKey=NKLOSBAOJXUESR-UHFFFAOYSA-N

> <PUBCHEM_SUBSTANCE_SYNONYM>
SCHEMBL16115860

> <PUBCHEM_XREF_EXT_ID>
SCHEMBL16115860

> <PUBCHEM_EXT_DATASOURCE_URL>
https://www.surechembl.org/

> <PUBCHEM_EXT_SUBSTANCE_URL>
https://www.surechembl.org/chemical/SCHEMBL16115860

> <PUBCHEM_CID_ASSOCIATIONS>
86274120  1

> <PUBCHEM_COORDINATE_TYPE>
1
3

$$$$
