310943495
  -OEChem-07211613022D

 39 43  0     1  0  0  0  0  0999 V2000
    5.3863    1.5320    0.0000 F   0  0  0  0  0  0  0  0  0  0  0  0
    5.9829    1.2417    0.0000 F   0  0  0  0  0  0  0  0  0  0  0  0
    6.1442    0.2258    0.0000 F   0  0  0  0  0  0  0  0  0  0  0  0
   -4.7090    1.4675    0.0000 O   0  0  0  0  0  0  0  0  0  0  0  0
    2.4835    1.4675    0.0000 O   0  0  0  0  0  0  0  0  0  0  0  0
   -6.1281    0.6450    0.0000 O   0  0  0  0  0  0  0  0  0  0  0  0
   -1.8223   -1.0160    0.0000 N   0  0  0  0  0  0  0  0  0  0  0  0
   -3.2576    0.6450    0.0000 N   0  0  3  0  0  0  0  0  0  0  0  0
   -1.1128   -0.5967    0.0000 N   0  0  0  0  0  0  0  0  0  0  0  0
   -3.1608   -1.1611    0.0000 N   0  0  0  0  0  0  0  0  0  0  0  0
    0.3226    1.8868    0.0000 N   0  0  0  0  0  0  0  0  0  0  0  0
    1.7578    0.2258    0.0000 N   0  0  0  0  0  0  0  0  0  0  0  0
   -5.4185   -0.5967    0.0000 N   0  0  0  0  0  0  0  0  0  0  0  0
   -2.5319    0.2258    0.0000 C   0  0  0  0  0  0  0  0  0  0  0  0
   -2.5641   -0.5967    0.0000 C   0  0  0  0  0  0  0  0  0  0  0  0
   -1.0966    0.2419    0.0000 C   0  0  0  0  0  0  0  0  0  0  0  0
   -1.8223    0.6450    0.0000 C   0  0  0  0  0  0  0  0  0  0  0  0
   -0.4032    0.6450    0.0000 C   0  0  0  0  0  0  0  0  0  0  0  0
   -1.9997   -1.8384    0.0000 C   0  0  0  0  0  0  0  0  0  0  0  0
   -0.3871    1.4837    0.0000 C   0  0  0  0  0  0  0  0  0  0  0  0
    0.3548    0.2258    0.0000 C   0  0  0  0  0  0  0  0  0  0  0  0
   -3.9672    0.2258    0.0000 C   0  0  0  0  0  0  0  0  0  0  0  0
   -2.8222   -1.9029    0.0000 C   0  0  0  0  0  0  0  0  0  0  0  0
    1.0321    0.6450    0.0000 C   0  0  0  0  0  0  0  0  0  0  0  0
   -3.2576    1.4675    0.0000 C   0  0  0  0  0  0  0  0  0  0  0  0
   -4.6928    0.6450    0.0000 C   0  0  3  0  0  0  0  0  0  0  0  0
    1.0483    1.4675    0.0000 C   0  0  0  0  0  0  0  0  0  0  0  0
   -3.9833    1.8868    0.0000 C   0  0  0  0  0  0  0  0  0  0  0  0
    2.4673    0.6289    0.0000 C   0  0  0  0  0  0  0  0  0  0  0  0
    3.2092    0.2258    0.0000 C   0  0  0  0  0  0  0  0  0  0  0  0
   -5.4024    0.2258    0.0000 C   0  0  0  0  0  0  0  0  0  0  0  0
    4.6445    0.2258    0.0000 C   0  0  0  0  0  0  0  0  0  0  0  0
   -1.0966    1.9029    0.0000 C   0  0  0  0  0  0  0  0  0  0  0  0
    3.9188    0.6289    0.0000 C   0  0  0  0  0  0  0  0  0  0  0  0
    5.3863    0.6773    0.0000 C   0  0  0  0  0  0  0  0  0  0  0  0
    3.2092   -0.6128    0.0000 C   0  0  0  0  0  0  0  0  0  0  0  0
    4.6283   -0.5967    0.0000 C   0  0  0  0  0  0  0  0  0  0  0  0
    3.9510   -1.0321    0.0000 C   0  0  0  0  0  0  0  0  0  0  0  0
   -6.1442   -1.0321    0.0000 C   0  0  0  0  0  0  0  0  0  0  0  0
  1 35  1  0  0  0  0
  2 35  1  0  0  0  0
  3 35  1  0  0  0  0
  4 26  1  0  0  0  0
  4 28  1  0  0  0  0
  5 29  2  0  0  0  0
  6 31  2  0  0  0  0
  7  9  1  0  0  0  0
  7 15  1  0  0  0  0
  7 19  1  0  0  0  0
  8 14  1  0  0  0  0
  8 22  1  0  0  0  0
  8 25  1  0  0  0  0
  9 16  2  0  0  0  0
 10 15  2  0  0  0  0
 10 23  1  0  0  0  0
 11 20  1  0  0  0  0
 11 27  2  0  0  0  0
 12 24  1  0  0  0  0
 12 29  1  0  0  0  0
 13 31  1  0  0  0  0
 13 39  1  0  0  0  0
 14 15  1  0  0  0  0
 14 17  2  0  0  0  0
 16 17  1  0  0  0  0
 16 18  1  0  0  0  0
 18 20  2  0  0  0  0
 18 21  1  0  0  0  0
 19 23  2  0  0  0  0
 20 33  1  0  0  0  0
 21 24  2  0  0  0  0
 22 26  1  0  0  0  0
 24 27  1  0  0  0  0
 25 28  1  0  0  0  0
 26 31  1  0  0  0  0
 29 30  1  0  0  0  0
 30 34  2  0  0  0  0
 30 36  1  0  0  0  0
 32 34  1  0  0  0  0
 32 35  1  0  0  0  0
 32 37  2  0  0  0  0
 36 38  2  0  0  0  0
 37 38  1  0  0  0  0
M  END
> <PUBCHEM_COMPOUND_ID_TYPE>
0

> <PUBCHEM_TOTAL_CHARGE>
0

> <PUBCHEM_SUBSTANCE_ID>
310943495

> <PUBCHEM_SUBSTANCE_VERSION>
1

> <PUBCHEM_EXT_DATASOURCE_NAME>
4488

> <PUBCHEM_EXT_DATASOURCE_REGID>
SCHEMBL16121561

> <PUBCHEM_SUBSTANCE_COMMENT>
InChI=1S/C26H24F3N7O3/c1-15-19(11-18(13-32-15)33-24(37)16-4-3-5-17(10-16)26(27,28)29)20-12-21(23-31-6-7-36(23)34-20)35-8-9-39-22(14-35)25(38)30-2/h3-7,10-13,22H,8-9,14H2,1-2H3,(H,30,38)(H,33,37)
InChIKey=VCWPUPODBAGLKN-UHFFFAOYSA-N

> <PUBCHEM_SUBSTANCE_SYNONYM>
SCHEMBL16121561

> <PUBCHEM_XREF_EXT_ID>
SCHEMBL16121561

> <PUBCHEM_EXT_DATASOURCE_URL>
https://www.surechembl.org/

> <PUBCHEM_EXT_SUBSTANCE_URL>
https://www.surechembl.org/chemical/SCHEMBL16121561

> <PUBCHEM_CID_ASSOCIATIONS>
117609915  1

> <PUBCHEM_COORDINATE_TYPE>
1
3

$$$$
