310935346
  -OEChem-07211613022D

 23 25  0     1  0  0  0  0  0999 V2000
    5.4151   -3.6276    0.0000 N   0  0  0  0  0  0  0  0  0  0  0  0
    2.5236   -1.4195    0.0000 N   0  0  0  0  0  0  0  0  0  0  0  0
    1.6561    0.0000    0.0000 N   0  0  0  0  0  0  0  0  0  0  0  0
    7.0712   -3.6539    0.0000 N   0  0  0  0  0  0  0  0  0  0  0  0
    1.6823   -1.4195    0.0000 C   0  0  3  0  0  0  0  0  0  0  0  0
    1.2618   -0.7097    0.0000 C   0  0  3  0  0  0  0  0  0  0  0  0
    2.1030   -2.1556    0.0000 C   0  0  0  0  0  0  0  0  0  0  0  0
    2.9179   -2.1556    0.0000 C   0  0  0  0  0  0  0  0  0  0  0  0
    1.2618   -2.1293    0.0000 C   0  0  0  0  0  0  0  0  0  0  0  0
    4.1534   -2.8916    0.0000 C   0  0  0  0  0  0  0  0  0  0  0  0
    3.3385   -2.8653    0.0000 C   0  0  0  0  0  0  0  0  0  0  0  0
    0.4469   -0.7097    0.0000 C   0  0  0  0  0  0  0  0  0  0  0  0
    3.3648   -1.4458    0.0000 C   0  0  0  0  0  0  0  0  0  0  0  0
    4.5739   -3.6276    0.0000 C   0  0  0  0  0  0  0  0  0  0  0  0
    0.4469   -2.1293    0.0000 C   0  0  0  0  0  0  0  0  0  0  0  0
    4.6002   -2.1819    0.0000 C   0  0  0  0  0  0  0  0  0  0  0  0
    0.0000   -1.4195    0.0000 C   0  0  0  0  0  0  0  0  0  0  0  0
    4.1796   -1.4458    0.0000 C   0  0  0  0  0  0  0  0  0  0  0  0
    5.8095   -4.3637    0.0000 C   0  0  0  0  0  0  0  0  0  0  0  0
    5.8358   -2.9179    0.0000 C   0  0  0  0  0  0  0  0  0  0  0  0
    6.6507   -2.9442    0.0000 C   0  0  0  0  0  0  0  0  0  0  0  0
    6.6244   -4.3637    0.0000 C   0  0  0  0  0  0  0  0  0  0  0  0
    7.8861   -3.6802    0.0000 C   0  0  0  0  0  0  0  0  0  0  0  0
  1 14  1  0  0  0  0
  1 19  1  0  0  0  0
  1 20  1  0  0  0  0
  2  5  1  0  0  0  0
  3  6  1  0  0  0  0
  4 21  1  0  0  0  0
  4 22  1  0  0  0  0
  4 23  1  0  0  0  0
  5  6  1  0  0  0  0
  5  7  1  0  0  0  0
  5  9  1  0  0  0  0
  6 12  1  0  0  0  0
  7  8  1  0  0  0  0
  8 11  2  0  0  0  0
  8 13  1  0  0  0  0
  9 15  2  0  0  0  0
 10 11  1  0  0  0  0
 10 14  1  0  0  0  0
 10 16  2  0  0  0  0
 12 17  2  0  0  0  0
 13 18  2  0  0  0  0
 15 17  1  0  0  0  0
 16 18  1  0  0  0  0
 19 22  1  0  0  0  0
 20 21  1  0  0  0  0
M  END
> <PUBCHEM_COMPOUND_ID_TYPE>
0

> <PUBCHEM_TOTAL_CHARGE>
0

> <PUBCHEM_SUBSTANCE_ID>
310935346

> <PUBCHEM_SUBSTANCE_VERSION>
1

> <PUBCHEM_EXT_DATASOURCE_NAME>
4488

> <PUBCHEM_EXT_DATASOURCE_REGID>
SCHEMBL16112884

> <PUBCHEM_SUBSTANCE_COMMENT>
InChI=1S/C19H28N4/c1-22-9-11-23(12-10-22)15-17-6-4-5-16(13-17)14-19(21)8-3-2-7-18(19)20/h2-8,13,18H,9-12,14-15,20-21H2,1H3
InChIKey=BKECSBKPJIZRPL-UHFFFAOYSA-N

> <PUBCHEM_SUBSTANCE_SYNONYM>
SCHEMBL16112884

> <PUBCHEM_XREF_EXT_ID>
SCHEMBL16112884

> <PUBCHEM_EXT_DATASOURCE_URL>
https://www.surechembl.org/

> <PUBCHEM_EXT_SUBSTANCE_URL>
https://www.surechembl.org/chemical/SCHEMBL16112884

> <PUBCHEM_CID_ASSOCIATIONS>
117603402  1

> <PUBCHEM_COORDINATE_TYPE>
1
3

$$$$
