310947263
  -OEChem-07211613022D

 42 46  0     1  0  0  0  0  0999 V2000
  -10.7234   13.1603    0.0000 Br  0  0  0  0  0  0  0  0  0  0  0  0
  -14.0639   13.4284    0.0000 O   0  0  0  0  0  0  0  0  0  0  0  0
   -7.0109   12.5399    0.0000 O   0  0  0  0  0  0  0  0  0  0  0  0
   -8.2484   11.8255    0.0000 O   0  0  0  0  0  0  0  0  0  0  0  0
  -11.1359   11.1110    0.0000 N   0  0  0  0  0  0  0  0  0  0  0  0
  -10.6510   11.7784    0.0000 N   0  0  0  0  0  0  0  0  0  0  0  0
  -14.7784   12.1909    0.0000 N   0  0  0  0  0  0  0  0  0  0  0  0
  -11.9205   11.3659    0.0000 C   0  0  0  0  0  0  0  0  0  0  0  0
  -11.9205   12.1909    0.0000 C   0  0  0  0  0  0  0  0  0  0  0  0
  -11.1359   12.4459    0.0000 C   0  0  0  0  0  0  0  0  0  0  0  0
  -12.6350   12.6034    0.0000 C   0  0  0  0  0  0  0  0  0  0  0  0
  -13.3495   12.1909    0.0000 C   0  0  0  0  0  0  0  0  0  0  0  0
  -12.6350   10.9534    0.0000 C   0  0  0  0  0  0  0  0  0  0  0  0
  -10.7234   10.3965    0.0000 C   0  0  0  0  0  0  0  0  0  0  0  0
  -13.3495   11.3659    0.0000 C   0  0  0  0  0  0  0  0  0  0  0  0
   -9.8984   10.3965    0.0000 C   0  0  0  0  0  0  0  0  0  0  0  0
  -14.0639   12.6034    0.0000 C   0  0  0  0  0  0  0  0  0  0  0  0
   -7.4234   10.3965    0.0000 C   0  0  0  0  0  0  0  0  0  0  0  0
   -8.2484   10.3965    0.0000 C   0  0  0  0  0  0  0  0  0  0  0  0
   -7.0109   11.1110    0.0000 C   0  0  0  0  0  0  0  0  0  0  0  0
   -9.4859    9.6820    0.0000 C   0  0  0  0  0  0  0  0  0  0  0  0
   -9.4859   11.1110    0.0000 C   0  0  0  0  0  0  0  0  0  0  0  0
   -8.6609    9.6820    0.0000 C   0  0  0  0  0  0  0  0  0  0  0  0
   -8.6609   11.1110    0.0000 C   0  0  0  0  0  0  0  0  0  0  0  0
   -7.4234   11.8255    0.0000 C   0  0  0  0  0  0  0  0  0  0  0  0
   -7.0109    9.6820    0.0000 C   0  0  0  0  0  0  0  0  0  0  0  0
  -15.4929   12.6034    0.0000 C   0  0  3  0  0  0  0  0  0  0  0  0
   -6.1859   11.1110    0.0000 C   0  0  0  0  0  0  0  0  0  0  0  0
  -16.2073   12.1909    0.0000 C   0  0  0  0  0  0  0  0  0  0  0  0
   -6.1859    9.6820    0.0000 C   0  0  0  0  0  0  0  0  0  0  0  0
   -5.7734   10.3965    0.0000 C   0  0  0  0  0  0  0  0  0  0  0  0
   -7.4234   13.2544    0.0000 C   0  0  0  0  0  0  0  0  0  0  0  0
  -15.4929   13.4284    0.0000 C   0  0  0  0  0  0  0  0  0  0  0  0
  -16.9218   12.6034    0.0000 C   0  0  0  0  0  0  0  0  0  0  0  0
  -16.2073   11.3659    0.0000 C   0  0  0  0  0  0  0  0  0  0  0  0
   -7.0109   13.9689    0.0000 C   0  0  0  0  0  0  0  0  0  0  0  0
   -8.2484   13.2544    0.0000 C   0  0  0  0  0  0  0  0  0  0  0  0
   -6.5984   13.2544    0.0000 C   0  0  0  0  0  0  0  0  0  0  0  0
  -17.6363   12.1909    0.0000 C   0  0  0  0  0  0  0  0  0  0  0  0
  -16.9218   10.9534    0.0000 C   0  0  0  0  0  0  0  0  0  0  0  0
  -17.6363   11.3659    0.0000 C   0  0  0  0  0  0  0  0  0  0  0  0
  -14.7784   13.8409    0.0000 C   0  0  0  0  0  0  0  0  0  0  0  0
  1 10  1  0  0  0  0
  2 17  2  0  0  0  0
  3 25  1  0  0  0  0
  3 32  1  0  0  0  0
  4 25  2  0  0  0  0
  5  6  1  0  0  0  0
  5  8  1  0  0  0  0
  5 14  1  0  0  0  0
  6 10  2  0  0  0  0
  7 17  1  0  0  0  0
  7 27  1  0  0  0  0
  8  9  1  0  0  0  0
  8 13  2  0  0  0  0
  9 10  1  0  0  0  0
  9 11  2  0  0  0  0
 11 12  1  0  0  0  0
 12 15  2  0  0  0  0
 12 17  1  0  0  0  0
 13 15  1  0  0  0  0
 14 16  1  0  0  0  0
 16 21  2  0  0  0  0
 16 22  1  0  0  0  0
 18 19  1  0  0  0  0
 18 20  1  0  0  0  0
 18 26  2  0  0  0  0
 19 23  2  0  0  0  0
 19 24  1  0  0  0  0
 20 25  1  0  0  0  0
 20 28  2  0  0  0  0
 21 23  1  0  0  0  0
 22 24  2  0  0  0  0
 26 30  1  0  0  0  0
 27 29  1  0  0  0  0
 27 33  1  0  0  0  0
 28 31  1  0  0  0  0
 29 34  2  0  0  0  0
 29 35  1  0  0  0  0
 30 31  2  0  0  0  0
 32 36  1  0  0  0  0
 32 37  1  0  0  0  0
 32 38  1  0  0  0  0
 33 42  1  0  0  0  0
 34 39  1  0  0  0  0
 35 40  2  0  0  0  0
 39 41  2  0  0  0  0
 40 41  1  0  0  0  0
M  END
> <PUBCHEM_COMPOUND_ID_TYPE>
0

> <PUBCHEM_TOTAL_CHARGE>
0

> <PUBCHEM_SUBSTANCE_ID>
310947263

> <PUBCHEM_SUBSTANCE_VERSION>
1

> <PUBCHEM_EXT_DATASOURCE_NAME>
4488

> <PUBCHEM_EXT_DATASOURCE_REGID>
SCHEMBL16125418

> <PUBCHEM_SUBSTANCE_COMMENT>
InChI=1S/C35H34BrN3O3/c1-5-30(25-11-7-6-8-12-25)37-33(40)26-19-20-31-29(21-26)32(36)38-39(31)22-23-15-17-24(18-16-23)27-13-9-10-14-28(27)34(41)42-35(2,3)4/h6-21,30H,5,22H2,1-4H3,(H,37,40)
InChIKey=WVEGKWQVQCBLSM-UHFFFAOYSA-N

> <PUBCHEM_SUBSTANCE_SYNONYM>
SCHEMBL16125418

> <PUBCHEM_XREF_EXT_ID>
SCHEMBL16125418

> <PUBCHEM_EXT_DATASOURCE_URL>
https://www.surechembl.org/

> <PUBCHEM_EXT_SUBSTANCE_URL>
https://www.surechembl.org/chemical/SCHEMBL16125418

> <PUBCHEM_CID_ASSOCIATIONS>
117613067  1

> <PUBCHEM_COORDINATE_TYPE>
1
3

$$$$
