310930994
  -OEChem-07211613022D

 25 28  0     1  0  0  0  0  0999 V2000
    5.5277   -1.4430    0.0000 O   0  0  0  0  0  0  0  0  0  0  0  0
    0.0000   -2.5530    0.0000 O   0  0  0  0  0  0  0  0  0  0  0  0
    4.2179   -0.7770    0.0000 N   0  0  0  0  0  0  0  0  0  0  0  0
    0.3996   -3.2855    0.0000 N   0  0  0  0  0  0  0  0  0  0  0  0
    4.2179   -2.1090    0.0000 C   0  0  3  0  0  0  0  0  0  0  0  0
    3.4410   -1.8648    0.0000 C   0  0  0  0  0  0  0  0  0  0  0  0
    3.4410   -1.0212    0.0000 C   0  0  0  0  0  0  0  0  0  0  0  0
    4.7063   -1.4430    0.0000 C   0  0  0  0  0  0  0  0  0  0  0  0
    5.0393   -2.2422    0.0000 C   0  0  0  0  0  0  0  0  0  0  0  0
    2.7083   -2.2644    0.0000 C   0  0  0  0  0  0  0  0  0  0  0  0
    2.0201   -1.8648    0.0000 C   0  0  0  0  0  0  0  0  0  0  0  0
    2.7083   -0.6216    0.0000 C   0  0  0  0  0  0  0  0  0  0  0  0
    1.3098   -2.2865    0.0000 C   0  0  0  0  0  0  0  0  0  0  0  0
    4.4621   -2.8859    0.0000 C   0  0  0  0  0  0  0  0  0  0  0  0
    2.0201   -1.0212    0.0000 C   0  0  0  0  0  0  0  0  0  0  0  0
    5.5721   -1.5984    0.0000 C   0  0  0  0  0  0  0  0  0  0  0  0
    5.3279   -2.9970    0.0000 C   0  0  0  0  0  0  0  0  0  0  0  0
    0.5550   -1.9535    0.0000 C   0  0  0  0  0  0  0  0  0  0  0  0
    1.2210   -3.1079    0.0000 C   0  0  0  0  0  0  0  0  0  0  0  0
    4.4621    0.0000    0.0000 C   0  0  0  0  0  0  0  0  0  0  0  0
    6.3713   -1.7316    0.0000 C   0  0  0  0  0  0  0  0  0  0  0  0
    6.1271   -3.1301    0.0000 C   0  0  0  0  0  0  0  0  0  0  0  0
    6.6599   -2.4863    0.0000 C   0  0  0  0  0  0  0  0  0  0  0  0
    0.3774   -1.1544    0.0000 C   0  0  0  0  0  0  0  0  0  0  0  0
    1.8426   -3.6407    0.0000 C   0  0  0  0  0  0  0  0  0  0  0  0
  1  8  2  0  0  0  0
  2  4  1  0  0  0  0
  2 18  1  0  0  0  0
  3  7  1  0  0  0  0
  3  8  1  0  0  0  0
  3 20  1  0  0  0  0
  4 19  2  0  0  0  0
  5  6  1  0  0  0  0
  5  8  1  0  0  0  0
  5  9  1  0  0  0  0
  5 14  1  0  0  0  0
  6  7  2  0  0  0  0
  6 10  1  0  0  0  0
  7 12  1  0  0  0  0
  9 16  2  0  0  0  0
  9 17  1  0  0  0  0
 10 11  2  0  0  0  0
 11 13  1  0  0  0  0
 11 15  1  0  0  0  0
 12 15  2  0  0  0  0
 13 18  2  0  0  0  0
 13 19  1  0  0  0  0
 16 21  1  0  0  0  0
 17 22  2  0  0  0  0
 18 24  1  0  0  0  0
 19 25  1  0  0  0  0
 21 23  2  0  0  0  0
 22 23  1  0  0  0  0
M  END
> <PUBCHEM_COMPOUND_ID_TYPE>
0

> <PUBCHEM_TOTAL_CHARGE>
0

> <PUBCHEM_SUBSTANCE_ID>
310930994

> <PUBCHEM_SUBSTANCE_VERSION>
1

> <PUBCHEM_EXT_DATASOURCE_NAME>
4488

> <PUBCHEM_EXT_DATASOURCE_REGID>
SCHEMBL16108294

> <PUBCHEM_SUBSTANCE_COMMENT>
InChI=1S/C21H20N2O2/c1-13-19(14(2)25-22-13)15-10-11-18-17(12-15)21(3,20(24)23(18)4)16-8-6-5-7-9-16/h5-12H,1-4H3
InChIKey=ZOKRQFQMGAAFRU-UHFFFAOYSA-N

> <PUBCHEM_SUBSTANCE_SYNONYM>
SCHEMBL16108294

> <PUBCHEM_XREF_EXT_ID>
SCHEMBL16108294

> <PUBCHEM_EXT_DATASOURCE_URL>
https://www.surechembl.org/

> <PUBCHEM_EXT_SUBSTANCE_URL>
https://www.surechembl.org/chemical/SCHEMBL16108294

> <PUBCHEM_CID_ASSOCIATIONS>
86296100  1

> <PUBCHEM_COORDINATE_TYPE>
1
3

$$$$
