310934717
  -OEChem-07211613022D

 24 26  0     1  0  0  0  0  0999 V2000
    5.4156    1.5975    0.0000 S   0  0  0  0  0  0  0  0  0  0  0  0
    2.9900    2.8499    0.0000 O   0  0  0  0  0  0  0  0  0  0  0  0
    6.1301    1.1850    0.0000 O   0  0  0  0  0  0  0  0  0  0  0  0
    6.1301    2.0100    0.0000 O   0  0  0  0  0  0  0  0  0  0  0  0
    4.2954    3.4311    0.0000 O   0  0  0  0  0  0  0  0  0  0  0  0
    0.8007    2.0580    0.0000 O   0  0  0  0  0  0  0  0  0  0  0  0
    3.3256    2.0963    0.0000 N   0  0  0  0  0  0  0  0  0  0  0  0
    1.6077    2.2295    0.0000 N   0  0  0  0  0  0  0  0  0  0  0  0
    4.1460    2.0100    0.0000 C   0  0  3  0  0  0  0  0  0  0  0  0
    4.9307    2.2649    0.0000 C   0  0  0  0  0  0  0  0  0  0  0  0
    3.8105    2.7637    0.0000 C   0  0  0  0  0  0  0  0  0  0  0  0
    4.1460    1.1850    0.0000 C   0  0  0  0  0  0  0  0  0  0  0  0
    4.9307    0.9301    0.0000 C   0  0  0  0  0  0  0  0  0  0  0  0
    2.8407    1.4288    0.0000 C   0  0  0  0  0  0  0  0  0  0  0  0
    2.0202    1.5151    0.0000 C   0  0  0  0  0  0  0  0  0  0  0  0
    0.7144    1.2375    0.0000 C   0  0  0  0  0  0  0  0  0  0  0  0
    1.4681    0.9020    0.0000 C   0  0  0  0  0  0  0  0  0  0  0  0
    0.0000    0.8250    0.0000 C   0  0  0  0  0  0  0  0  0  0  0  0
   -0.7144    1.2375    0.0000 C   0  0  0  0  0  0  0  0  0  0  0  0
    0.0000    0.0000    0.0000 C   0  0  0  0  0  0  0  0  0  0  0  0
    2.6544    3.6036    0.0000 C   0  0  0  0  0  0  0  0  0  0  0  0
   -1.4290    0.8250    0.0000 C   0  0  0  0  0  0  0  0  0  0  0  0
   -0.7144   -0.4125    0.0000 C   0  0  0  0  0  0  0  0  0  0  0  0
   -1.4290    0.0000    0.0000 C   0  0  0  0  0  0  0  0  0  0  0  0
  1  3  2  0  0  0  0
  1  4  2  0  0  0  0
  1 10  1  0  0  0  0
  1 13  1  0  0  0  0
  2 11  1  0  0  0  0
  2 21  1  0  0  0  0
  5 11  2  0  0  0  0
  6  8  1  0  0  0  0
  6 16  1  0  0  0  0
  7  9  1  0  0  0  0
  7 14  1  0  0  0  0
  8 15  2  0  0  0  0
  9 10  1  0  0  0  0
  9 11  1  0  0  0  0
  9 12  1  0  0  0  0
 12 13  1  0  0  0  0
 14 15  1  0  0  0  0
 15 17  1  0  0  0  0
 16 17  2  0  0  0  0
 16 18  1  0  0  0  0
 18 19  2  0  0  0  0
 18 20  1  0  0  0  0
 19 22  1  0  0  0  0
 20 23  2  0  0  0  0
 22 24  2  0  0  0  0
 23 24  1  0  0  0  0
M  END
> <PUBCHEM_COMPOUND_ID_TYPE>
0

> <PUBCHEM_TOTAL_CHARGE>
0

> <PUBCHEM_SUBSTANCE_ID>
310934717

> <PUBCHEM_SUBSTANCE_VERSION>
1

> <PUBCHEM_EXT_DATASOURCE_NAME>
4488

> <PUBCHEM_EXT_DATASOURCE_REGID>
SCHEMBL16112218

> <PUBCHEM_SUBSTANCE_COMMENT>
InChI=1S/C16H18N2O5S/c1-22-15(19)16(7-8-24(20,21)11-16)17-10-13-9-14(23-18-13)12-5-3-2-4-6-12/h2-6,9,17H,7-8,10-11H2,1H3
InChIKey=KJKJIQQUKGDJRT-UHFFFAOYSA-N

> <PUBCHEM_SUBSTANCE_SYNONYM>
SCHEMBL16112218

> <PUBCHEM_XREF_EXT_ID>
SCHEMBL16112218

> <PUBCHEM_EXT_DATASOURCE_URL>
https://www.surechembl.org/

> <PUBCHEM_EXT_SUBSTANCE_URL>
https://www.surechembl.org/chemical/SCHEMBL16112218

> <PUBCHEM_CID_ASSOCIATIONS>
117602876  1

> <PUBCHEM_COORDINATE_TYPE>
1
3

$$$$
