310934580
  -OEChem-07211613022D

 20 22  0     1  0  0  0  0  0999 V2000
    2.8412   -3.2439    0.0000 O   0  0  0  0  0  0  0  0  0  0  0  0
    4.4743   -3.9598    0.0000 O   0  0  0  0  0  0  0  0  0  0  0  0
    2.1253   -2.0134    0.0000 O   0  0  0  0  0  0  0  0  0  0  0  0
    4.8770   -2.5504    0.0000 N   0  0  0  0  0  0  0  0  0  0  0  0
    3.6466   -2.0134    0.0000 C   0  0  0  0  0  0  0  0  0  0  0  0
    3.5571   -2.8189    0.0000 C   0  0  3  0  0  0  0  0  0  0  0  0
    4.4520   -1.8345    0.0000 C   0  0  0  0  0  0  0  0  0  0  0  0
    4.3177   -3.1544    0.0000 C   0  0  0  0  0  0  0  0  0  0  0  0
    3.1097   -1.3870    0.0000 C   0  0  0  0  0  0  0  0  0  0  0  0
    4.7204   -1.0515    0.0000 C   0  0  0  0  0  0  0  0  0  0  0  0
    2.1253   -2.8189    0.0000 C   0  0  0  0  0  0  0  0  0  0  0  0
    3.3558   -0.6264    0.0000 C   0  0  0  0  0  0  0  0  0  0  0  0
    4.1611   -0.4475    0.0000 C   0  0  0  0  0  0  0  0  0  0  0  0
    1.4094   -3.2439    0.0000 C   0  0  0  0  0  0  0  0  0  0  0  0
    0.7159   -2.8189    0.0000 C   0  0  0  0  0  0  0  0  0  0  0  0
    1.4094   -4.0716    0.0000 C   0  0  0  0  0  0  0  0  0  0  0  0
    2.8189    0.0000    0.0000 C   0  0  0  0  0  0  0  0  0  0  0  0
    0.0000   -3.2439    0.0000 C   0  0  0  0  0  0  0  0  0  0  0  0
    0.7159   -4.4743    0.0000 C   0  0  0  0  0  0  0  0  0  0  0  0
    0.0000   -4.0716    0.0000 C   0  0  0  0  0  0  0  0  0  0  0  0
  1  6  1  0  0  0  0
  1 11  1  0  0  0  0
  2  8  2  0  0  0  0
  3 11  2  0  0  0  0
  4  7  1  0  0  0  0
  4  8  1  0  0  0  0
  5  6  1  0  0  0  0
  5  7  2  0  0  0  0
  5  9  1  0  0  0  0
  6  8  1  0  0  0  0
  7 10  1  0  0  0  0
  9 12  2  0  0  0  0
 10 13  2  0  0  0  0
 11 14  1  0  0  0  0
 12 13  1  0  0  0  0
 12 17  1  0  0  0  0
 14 15  2  0  0  0  0
 14 16  1  0  0  0  0
 15 18  1  0  0  0  0
 16 19  2  0  0  0  0
 18 20  2  0  0  0  0
 19 20  1  0  0  0  0
M  END
> <PUBCHEM_COMPOUND_ID_TYPE>
0

> <PUBCHEM_TOTAL_CHARGE>
0

> <PUBCHEM_SUBSTANCE_ID>
310934580

> <PUBCHEM_SUBSTANCE_VERSION>
1

> <PUBCHEM_EXT_DATASOURCE_NAME>
4488

> <PUBCHEM_EXT_DATASOURCE_REGID>
SCHEMBL16112072

> <PUBCHEM_SUBSTANCE_COMMENT>
InChI=1S/C16H13NO3/c1-10-7-8-13-12(9-10)14(15(18)17-13)20-16(19)11-5-3-2-4-6-11/h2-9,14H,1H3,(H,17,18)
InChIKey=VLMUZMIOLDDJTC-UHFFFAOYSA-N

> <PUBCHEM_SUBSTANCE_SYNONYM>
SCHEMBL16112072

> <PUBCHEM_XREF_EXT_ID>
SCHEMBL16112072

> <PUBCHEM_EXT_DATASOURCE_URL>
https://www.surechembl.org/

> <PUBCHEM_EXT_SUBSTANCE_URL>
https://www.surechembl.org/chemical/SCHEMBL16112072

> <PUBCHEM_CID_ASSOCIATIONS>
117602767  1

> <PUBCHEM_COORDINATE_TYPE>
1
3

$$$$
