310946863
  -OEChem-07211613022D

 33 37  0     1  0  0  0  0  0999 V2000
    5.6361   -0.9590    0.0000 O   0  0  0  0  0  0  0  0  0  0  0  0
    5.5636   -2.3410    0.0000 O   0  0  0  0  0  0  0  0  0  0  0  0
    2.2231    0.6910    0.0000 O   0  0  0  0  0  0  0  0  0  0  0  0
    0.0797    1.9285    0.0000 O   0  0  0  0  0  0  0  0  0  0  0  0
   -0.6348    0.6910    0.0000 N   0  0  0  0  0  0  0  0  0  0  0  0
    0.7942   -0.1340    0.0000 N   0  0  3  0  0  0  0  0  0  0  0  0
   -3.4927    0.6910    0.0000 N   0  0  0  0  0  0  0  0  0  0  0  0
   -4.9216    2.3410    0.0000 N   0  0  0  0  0  0  0  0  0  0  0  0
    4.3665   -1.3715    0.0000 C   0  0  0  0  0  0  0  0  0  0  0  0
    4.3665   -0.5465    0.0000 C   0  0  0  0  0  0  0  0  0  0  0  0
    2.9376   -0.5465    0.0000 C   0  0  0  0  0  0  0  0  0  0  0  0
    2.9376   -1.3715    0.0000 C   0  0  0  0  0  0  0  0  0  0  0  0
   -1.3492    1.1035    0.0000 C   0  0  0  0  0  0  0  0  0  0  0  0
    3.6521   -0.1340    0.0000 C   0  0  0  0  0  0  0  0  0  0  0  0
    5.1511   -1.6265    0.0000 C   0  0  0  0  0  0  0  0  0  0  0  0
    3.6521   -1.7840    0.0000 C   0  0  0  0  0  0  0  0  0  0  0  0
    2.2231   -0.1340    0.0000 C   0  0  3  0  0  0  0  0  0  0  0  0
   -2.7782    1.1035    0.0000 C   0  0  0  0  0  0  0  0  0  0  0  0
    0.0797    1.1035    0.0000 C   0  0  0  0  0  0  0  0  0  0  0  0
   -2.7782    1.9285    0.0000 C   0  0  0  0  0  0  0  0  0  0  0  0
    5.1511   -0.2916    0.0000 C   0  0  0  0  0  0  0  0  0  0  0  0
   -2.0637    0.6910    0.0000 C   0  0  0  0  0  0  0  0  0  0  0  0
    1.5086   -0.5465    0.0000 C   0  0  0  0  0  0  0  0  0  0  0  0
    0.7942    0.6910    0.0000 C   0  0  0  0  0  0  0  0  0  0  0  0
   -0.6348   -0.1340    0.0000 C   0  0  0  0  0  0  0  0  0  0  0  0
   -1.3492    1.9285    0.0000 C   0  0  0  0  0  0  0  0  0  0  0  0
   -2.0637    2.3410    0.0000 C   0  0  0  0  0  0  0  0  0  0  0  0
    0.0797   -0.5465    0.0000 C   0  0  0  0  0  0  0  0  0  0  0  0
   -3.4927    2.3410    0.0000 C   0  0  0  0  0  0  0  0  0  0  0  0
   -4.2071    1.9285    0.0000 C   0  0  0  0  0  0  0  0  0  0  0  0
    2.2231   -1.7840    0.0000 C   0  0  0  0  0  0  0  0  0  0  0  0
   -4.2071    1.1035    0.0000 C   0  0  0  0  0  0  0  0  0  0  0  0
   -5.6361    1.9285    0.0000 C   0  0  0  0  0  0  0  0  0  0  0  0
  1 15  1  0  0  0  0
  1 21  1  0  0  0  0
  2 15  2  0  0  0  0
  3 17  1  0  0  0  0
  4 19  2  0  0  0  0
  5 13  1  0  0  0  0
  5 19  1  0  0  0  0
  5 25  1  0  0  0  0
  6 23  1  0  0  0  0
  6 24  1  0  0  0  0
  6 28  1  0  0  0  0
  7 18  1  0  0  0  0
  7 32  2  0  0  0  0
  8 30  1  0  0  0  0
  8 33  1  0  0  0  0
  9 10  1  0  0  0  0
  9 15  1  0  0  0  0
  9 16  2  0  0  0  0
 10 14  2  0  0  0  0
 10 21  1  0  0  0  0
 11 12  2  0  0  0  0
 11 14  1  0  0  0  0
 11 17  1  0  0  0  0
 12 16  1  0  0  0  0
 12 31  1  0  0  0  0
 13 22  1  0  0  0  0
 13 26  2  0  0  0  0
 17 23  1  0  0  0  0
 18 20  1  0  0  0  0
 18 22  2  0  0  0  0
 19 24  1  0  0  0  0
 20 27  2  0  0  0  0
 20 29  1  0  0  0  0
 25 28  1  0  0  0  0
 26 27  1  0  0  0  0
 29 30  2  0  0  0  0
 30 32  1  0  0  0  0
M  END
> <PUBCHEM_COMPOUND_ID_TYPE>
0

> <PUBCHEM_TOTAL_CHARGE>
0

> <PUBCHEM_SUBSTANCE_ID>
310946863

> <PUBCHEM_SUBSTANCE_VERSION>
1

> <PUBCHEM_EXT_DATASOURCE_NAME>
4488

> <PUBCHEM_EXT_DATASOURCE_REGID>
SCHEMBL16124987

> <PUBCHEM_SUBSTANCE_COMMENT>
InChI=1S/C25H26N4O4/c1-15-7-21-17(14-33-25(21)32)9-20(15)23(30)12-28-5-6-29(24(31)13-28)19-4-3-16-8-18(26-2)11-27-22(16)10-19/h3-4,7-11,23,26,30H,5-6,12-14H2,1-2H3
InChIKey=ZNPWQCOYUOGKPY-UHFFFAOYSA-N

> <PUBCHEM_SUBSTANCE_SYNONYM>
SCHEMBL16124987

> <PUBCHEM_XREF_EXT_ID>
SCHEMBL16124987

> <PUBCHEM_EXT_DATASOURCE_URL>
https://www.surechembl.org/

> <PUBCHEM_EXT_SUBSTANCE_URL>
https://www.surechembl.org/chemical/SCHEMBL16124987

> <PUBCHEM_CID_ASSOCIATIONS>
117612721  1

> <PUBCHEM_COORDINATE_TYPE>
1
3

$$$$
