310934330
  -OEChem-07211613022D

 32 36  0     1  0  0  0  0  0999 V2000
   -2.6220   -1.8026    0.0000 O   0  0  0  0  0  0  0  0  0  0  0  0
   -0.0222   -2.9404    0.0000 O   0  0  0  0  0  0  0  0  0  0  0  0
   -2.5051    0.3290    0.0000 N   0  0  0  0  0  0  0  0  0  0  0  0
   -3.4653   -0.5983    0.0000 N   0  0  0  0  0  0  0  0  0  0  0  0
   -3.8951    0.8076    0.0000 N   0  0  0  0  0  0  0  0  0  0  0  0
    3.4417   -5.9571    0.0000 N   0  0  0  0  0  0  0  0  0  0  0  0
   -2.1434   -0.4125    0.0000 C   0  0  3  0  0  0  0  0  0  0  0  0
   -1.4290    0.0000    0.0000 C   0  0  0  0  0  0  0  0  0  0  0  0
   -2.7369   -0.9856    0.0000 C   0  0  0  0  0  0  0  0  0  0  0  0
   -1.6131   -1.0445    0.0000 C   0  0  0  0  0  0  0  0  0  0  0  0
   -3.3220    0.2142    0.0000 C   0  0  0  0  0  0  0  0  0  0  0  0
   -2.0926    1.0434    0.0000 C   0  0  0  0  0  0  0  0  0  0  0  0
   -1.0165    0.7144    0.0000 C   0  0  0  0  0  0  0  0  0  0  0  0
   -0.6040    0.0000    0.0000 C   0  0  0  0  0  0  0  0  0  0  0  0
   -0.8007   -0.9013    0.0000 C   0  0  0  0  0  0  0  0  0  0  0  0
   -1.8953   -1.8197    0.0000 C   0  0  0  0  0  0  0  0  0  0  0  0
   -2.5051    1.7580    0.0000 C   0  0  0  0  0  0  0  0  0  0  0  0
   -1.2676    1.0434    0.0000 C   0  0  0  0  0  0  0  0  0  0  0  0
   -0.2704   -1.5332    0.0000 C   0  0  0  0  0  0  0  0  0  0  0  0
   -1.3650   -2.4517    0.0000 C   0  0  0  0  0  0  0  0  0  0  0  0
   -0.5525   -2.3085    0.0000 C   0  0  0  0  0  0  0  0  0  0  0  0
   -2.0926    2.4724    0.0000 C   0  0  0  0  0  0  0  0  0  0  0  0
   -0.8551    1.7580    0.0000 C   0  0  0  0  0  0  0  0  0  0  0  0
   -1.2676    2.4724    0.0000 C   0  0  0  0  0  0  0  0  0  0  0  0
    0.7902   -2.7972    0.0000 C   0  0  0  0  0  0  0  0  0  0  0  0
    1.3205   -3.4292    0.0000 C   0  0  0  0  0  0  0  0  0  0  0  0
    2.1330   -3.2859    0.0000 C   0  0  0  0  0  0  0  0  0  0  0  0
    1.0384   -4.2044    0.0000 C   0  0  0  0  0  0  0  0  0  0  0  0
    2.3811   -4.6931    0.0000 C   0  0  0  0  0  0  0  0  0  0  0  0
    2.6633   -3.9179    0.0000 C   0  0  0  0  0  0  0  0  0  0  0  0
    1.5687   -4.8364    0.0000 C   0  0  0  0  0  0  0  0  0  0  0  0
    2.9114   -5.3251    0.0000 C   0  0  0  0  0  0  0  0  0  0  0  0
  1  9  2  0  0  0  0
  2 21  1  0  0  0  0
  2 25  1  0  0  0  0
  3  7  1  0  0  0  0
  3 11  1  0  0  0  0
  3 12  1  0  0  0  0
  4  9  1  0  0  0  0
  4 11  1  0  0  0  0
  5 11  2  3  0  0  0
  6 32  3  0  0  0  0
  7  8  1  0  0  0  0
  7  9  1  0  0  0  0
  7 10  1  0  0  0  0
  8 13  1  0  0  0  0
  8 14  1  0  0  0  0
 10 15  2  0  0  0  0
 10 16  1  0  0  0  0
 12 17  1  0  0  0  0
 12 18  1  0  0  0  0
 13 14  1  0  0  0  0
 15 19  1  0  0  0  0
 16 20  2  0  0  0  0
 17 22  1  0  0  0  0
 18 23  1  0  0  0  0
 19 21  2  0  0  0  0
 20 21  1  0  0  0  0
 22 24  1  0  0  0  0
 23 24  1  0  0  0  0
 25 26  1  0  0  0  0
 26 27  2  0  0  0  0
 26 28  1  0  0  0  0
 27 30  1  0  0  0  0
 28 31  2  0  0  0  0
 29 30  2  0  0  0  0
 29 31  1  0  0  0  0
 29 32  1  0  0  0  0
M  END
> <PUBCHEM_COMPOUND_ID_TYPE>
0

> <PUBCHEM_TOTAL_CHARGE>
0

> <PUBCHEM_SUBSTANCE_ID>
310934330

> <PUBCHEM_SUBSTANCE_VERSION>
1

> <PUBCHEM_EXT_DATASOURCE_NAME>
4488

> <PUBCHEM_EXT_DATASOURCE_REGID>
SCHEMBL16111793

> <PUBCHEM_SUBSTANCE_COMMENT>
InChI=1S/C26H28N4O2/c27-16-18-6-8-19(9-7-18)17-32-23-14-12-21(13-15-23)26(20-10-11-20)24(31)29-25(28)30(26)22-4-2-1-3-5-22/h6-9,12-15,20,22H,1-5,10-11,17H2,(H2,28,29,31)
InChIKey=IPGVZHDQWWYFKB-UHFFFAOYSA-N

> <PUBCHEM_SUBSTANCE_SYNONYM>
SCHEMBL16111793

> <PUBCHEM_XREF_EXT_ID>
SCHEMBL16111793

> <PUBCHEM_EXT_DATASOURCE_URL>
https://www.surechembl.org/

> <PUBCHEM_EXT_SUBSTANCE_URL>
https://www.surechembl.org/chemical/SCHEMBL16111793

> <PUBCHEM_CID_ASSOCIATIONS>
117602569  1

> <PUBCHEM_COORDINATE_TYPE>
1
3

$$$$
