310942626
  -OEChem-07211613022D

 19 19  0     1  0  0  0  0  0999 V2000
   -0.0133    0.4118    0.0000 S   0  0  0  0  0  0  0  0  0  0  0  0
    1.4393    0.4118    0.0000 P   0  0  3  0  0  0  0  0  0  0  0  0
    2.1567    0.0044    0.0000 O   0  0  0  0  0  0  0  0  0  0  0  0
    1.4303    1.2355    0.0000 O   0  0  0  0  0  0  0  0  0  0  0  0
    2.1567   -0.8193    0.0000 O   0  0  0  0  0  0  0  0  0  0  0  0
   -2.9007   -1.2355    0.0000 O   0  0  0  0  0  0  0  0  0  0  0  0
    0.7131    0.0044    0.0000 C   0  0  0  0  0  0  0  0  0  0  0  0
   -0.7219   -0.0044    0.0000 C   0  0  0  0  0  0  0  0  0  0  0  0
    1.4393   -0.4029    0.0000 C   0  0  0  0  0  0  0  0  0  0  0  0
   -0.7307   -0.8193    0.0000 C   0  0  0  0  0  0  0  0  0  0  0  0
   -1.4569    0.4029    0.0000 C   0  0  0  0  0  0  0  0  0  0  0  0
   -2.1656   -0.8193    0.0000 C   0  0  0  0  0  0  0  0  0  0  0  0
   -1.4569   -1.2267    0.0000 C   0  0  0  0  0  0  0  0  0  0  0  0
   -2.1656   -0.0044    0.0000 C   0  0  0  0  0  0  0  0  0  0  0  0
    2.8741    0.4118    0.0000 C   0  0  0  0  0  0  0  0  0  0  0  0
    2.8741   -0.4118    0.0000 C   0  0  0  0  0  0  0  0  0  0  0  0
    3.6181    0.0044    0.0000 C   0  0  0  0  0  0  0  0  0  0  0  0
   -3.6181   -0.8193    0.0000 C   0  0  0  0  0  0  0  0  0  0  0  0
    3.6181   -0.8193    0.0000 C   0  0  0  0  0  0  0  0  0  0  0  0
  1  7  1  0  0  0  0
  1  8  1  0  0  0  0
  2  3  1  0  0  0  0
  2  4  2  0  0  0  0
  2  7  1  0  0  0  0
  2  9  1  0  0  0  0
  3 15  1  0  0  0  0
  5  9  1  0  0  0  0
  5 16  1  0  0  0  0
  6 12  1  0  0  0  0
  6 18  1  0  0  0  0
  8 10  2  0  0  0  0
  8 11  1  0  0  0  0
 10 13  1  0  0  0  0
 11 14  2  0  0  0  0
 12 13  2  0  0  0  0
 12 14  1  0  0  0  0
 15 17  1  0  0  0  0
 16 19  1  0  0  0  0
M  END
> <PUBCHEM_COMPOUND_ID_TYPE>
0

> <PUBCHEM_TOTAL_CHARGE>
0

> <PUBCHEM_SUBSTANCE_ID>
310942626

> <PUBCHEM_SUBSTANCE_VERSION>
1

> <PUBCHEM_EXT_DATASOURCE_NAME>
4488

> <PUBCHEM_EXT_DATASOURCE_REGID>
SCHEMBL16120672

> <PUBCHEM_SUBSTANCE_COMMENT>
InChI=1S/C13H21O4PS/c1-4-16-10-18(14,17-5-2)11-19-13-8-6-12(15-3)7-9-13/h6-9H,4-5,10-11H2,1-3H3
InChIKey=SZMOMGCEMKHEAQ-UHFFFAOYSA-N

> <PUBCHEM_SUBSTANCE_SYNONYM>
SCHEMBL16120672

> <PUBCHEM_XREF_EXT_ID>
SCHEMBL16120672

> <PUBCHEM_EXT_DATASOURCE_URL>
https://www.surechembl.org/

> <PUBCHEM_EXT_SUBSTANCE_URL>
https://www.surechembl.org/chemical/SCHEMBL16120672

> <PUBCHEM_CID_ASSOCIATIONS>
117609158  1

> <PUBCHEM_COORDINATE_TYPE>
1
3

$$$$
