310934205
  -OEChem-07211613022D

 23 25  0     1  0  0  0  0  0999 V2000
    6.3892   -1.6882    0.0000 S   0  0  0  0  0  0  0  0  0  0  0  0
    3.7400   -1.1428    0.0000 O   0  0  0  0  0  0  0  0  0  0  0  0
    4.5451    0.0000    0.0000 O   0  0  0  0  0  0  0  0  0  0  0  0
    4.3893   -1.6622    0.0000 N   0  0  0  0  0  0  0  0  0  0  0  0
    5.1424   -1.2986    0.0000 C   0  0  3  0  0  0  0  0  0  0  0  0
    4.4672   -0.8051    0.0000 C   0  0  0  0  0  0  0  0  0  0  0  0
    5.9216   -1.0129    0.0000 C   0  0  0  0  0  0  0  0  0  0  0  0
    5.1424   -2.1037    0.0000 C   0  0  0  0  0  0  0  0  0  0  0  0
    4.3633   -2.4674    0.0000 C   0  0  0  0  0  0  0  0  0  0  0  0
    5.9216   -2.3635    0.0000 C   0  0  0  0  0  0  0  0  0  0  0  0
    3.6361   -2.8569    0.0000 C   0  0  0  0  0  0  0  0  0  0  0  0
    2.1817   -3.6101    0.0000 C   0  0  0  0  0  0  0  0  0  0  0  0
    1.4545   -3.9997    0.0000 C   0  0  0  0  0  0  0  0  0  0  0  0
    2.9349   -2.4154    0.0000 C   0  0  0  0  0  0  0  0  0  0  0  0
    3.6101   -3.6621    0.0000 C   0  0  0  0  0  0  0  0  0  0  0  0
    2.2336   -2.7790    0.0000 C   0  0  0  0  0  0  0  0  0  0  0  0
    2.8829   -4.0517    0.0000 C   0  0  0  0  0  0  0  0  0  0  0  0
    1.4285   -4.8308    0.0000 C   0  0  0  0  0  0  0  0  0  0  0  0
    0.7532   -3.5582    0.0000 C   0  0  0  0  0  0  0  0  0  0  0  0
    3.0647   -0.6752    0.0000 C   0  0  0  0  0  0  0  0  0  0  0  0
    0.7013   -5.1944    0.0000 C   0  0  0  0  0  0  0  0  0  0  0  0
    0.0260   -3.9478    0.0000 C   0  0  0  0  0  0  0  0  0  0  0  0
    0.0000   -4.7529    0.0000 C   0  0  0  0  0  0  0  0  0  0  0  0
  1  7  1  0  0  0  0
  1 10  1  0  0  0  0
  2  6  1  0  0  0  0
  2 20  1  0  0  0  0
  3  6  2  0  0  0  0
  4  5  1  0  0  0  0
  4  9  1  0  0  0  0
  5  6  1  0  0  0  0
  5  7  1  0  0  0  0
  5  8  1  0  0  0  0
  8 10  1  0  0  0  0
  9 11  1  0  0  0  0
 11 14  2  0  0  0  0
 11 15  1  0  0  0  0
 12 13  1  0  0  0  0
 12 16  2  0  0  0  0
 12 17  1  0  0  0  0
 13 18  2  0  0  0  0
 13 19  1  0  0  0  0
 14 16  1  0  0  0  0
 15 17  2  0  0  0  0
 18 21  1  0  0  0  0
 19 22  2  0  0  0  0
 21 23  2  0  0  0  0
 22 23  1  0  0  0  0
M  END
> <PUBCHEM_COMPOUND_ID_TYPE>
0

> <PUBCHEM_TOTAL_CHARGE>
0

> <PUBCHEM_SUBSTANCE_ID>
310934205

> <PUBCHEM_SUBSTANCE_VERSION>
1

> <PUBCHEM_EXT_DATASOURCE_NAME>
4488

> <PUBCHEM_EXT_DATASOURCE_REGID>
SCHEMBL16111660

> <PUBCHEM_SUBSTANCE_COMMENT>
InChI=1S/C19H21NO2S/c1-22-18(21)19(11-12-23-14-19)20-13-15-7-9-17(10-8-15)16-5-3-2-4-6-16/h2-10,20H,11-14H2,1H3
InChIKey=ICJNHXPADVQIID-UHFFFAOYSA-N

> <PUBCHEM_SUBSTANCE_SYNONYM>
SCHEMBL16111660

> <PUBCHEM_XREF_EXT_ID>
SCHEMBL16111660

> <PUBCHEM_EXT_DATASOURCE_URL>
https://www.surechembl.org/

> <PUBCHEM_EXT_SUBSTANCE_URL>
https://www.surechembl.org/chemical/SCHEMBL16111660

> <PUBCHEM_CID_ASSOCIATIONS>
117602474  1

> <PUBCHEM_COORDINATE_TYPE>
1
3

$$$$
