310940814
  -OEChem-07211613022D

 44 47  0     1  0  0  0  0  0999 V2000
    5.0640   -1.1024    0.0000 O   0  0  0  0  0  0  0  0  0  0  0  0
    3.9260    0.8463    0.0000 O   0  0  0  0  0  0  0  0  0  0  0  0
    1.7781   -1.2162    0.0000 O   0  0  0  0  0  0  0  0  0  0  0  0
   -0.3841    0.8463    0.0000 O   0  0  0  0  0  0  0  0  0  0  0  0
    3.9260    2.5107    0.0000 O   0  0  0  0  0  0  0  0  0  0  0  0
    2.4893    3.3357    0.0000 O   0  0  0  0  0  0  0  0  0  0  0  0
   -2.5320   -1.2162    0.0000 O   0  0  0  0  0  0  0  0  0  0  0  0
   -1.8207   -1.6287    0.0000 O   0  0  0  0  0  0  0  0  0  0  0  0
   -5.4054   -1.2162    0.0000 O   0  0  0  0  0  0  0  0  0  0  0  0
    2.5036    0.0213    0.0000 N   0  0  0  0  0  0  0  0  0  0  0  0
    0.3414   -0.3912    0.0000 N   0  0  0  0  0  0  0  0  0  0  0  0
   -1.8207    0.0213    0.0000 N   0  0  0  0  0  0  0  0  0  0  0  0
   -3.9687   -0.3912    0.0000 N   0  0  0  0  0  0  0  0  0  0  0  0
    4.6515   -0.3769    0.0000 C   0  0  3  0  0  0  0  0  0  0  0  0
    3.9260    0.0356    0.0000 C   0  0  0  0  0  0  0  0  0  0  0  0
    4.2532   -1.0882    0.0000 C   0  0  0  0  0  0  0  0  0  0  0  0
    3.2290   -0.3627    0.0000 C   0  0  3  0  0  0  0  0  0  0  0  0
    5.4054    0.0498    0.0000 C   0  0  0  0  0  0  0  0  0  0  0  0
    3.2148   -1.6857    0.0000 C   0  0  0  0  0  0  0  0  0  0  0  0
    1.7923   -0.3485    0.0000 C   0  0  0  0  0  0  0  0  0  0  0  0
    1.0668    0.0498    0.0000 C   0  0  3  0  0  0  0  0  0  0  0  0
    2.5036   -2.0982    0.0000 C   0  0  0  0  0  0  0  0  0  0  0  0
    1.0811    0.8891    0.0000 C   0  0  0  0  0  0  0  0  0  0  0  0
    1.7781    1.2873    0.0000 C   0  0  0  0  0  0  0  0  0  0  0  0
   -0.3841    0.0356    0.0000 C   0  0  0  0  0  0  0  0  0  0  0  0
    1.7781   -1.7141    0.0000 C   0  0  0  0  0  0  0  0  0  0  0  0
    2.5036   -2.9232    0.0000 C   0  0  0  0  0  0  0  0  0  0  0  0
   -1.0811   -0.3627    0.0000 C   0  0  3  0  0  0  0  0  0  0  0  0
    1.7923    2.1124    0.0000 C   0  0  0  0  0  0  0  0  0  0  0  0
    2.4893    2.5249    0.0000 C   0  0  0  0  0  0  0  0  0  0  0  0
    3.2148    2.1266    0.0000 C   0  0  0  0  0  0  0  0  0  0  0  0
    2.5036    0.8891    0.0000 C   0  0  0  0  0  0  0  0  0  0  0  0
    3.2148    1.2873    0.0000 C   0  0  0  0  0  0  0  0  0  0  0  0
    1.0811   -2.1124    0.0000 C   0  0  0  0  0  0  0  0  0  0  0  0
    1.7781   -3.3357    0.0000 C   0  0  0  0  0  0  0  0  0  0  0  0
   -2.5320   -0.3485    0.0000 C   0  0  0  0  0  0  0  0  0  0  0  0
   -1.0953   -1.1877    0.0000 C   0  0  0  0  0  0  0  0  0  0  0  0
    1.0811   -2.9374    0.0000 C   0  0  0  0  0  0  0  0  0  0  0  0
   -3.2575    0.0356    0.0000 C   0  0  0  0  0  0  0  0  0  0  0  0
   -3.9687   -1.1877    0.0000 C   0  0  0  0  0  0  0  0  0  0  0  0
   -4.6942    0.0356    0.0000 C   0  0  0  0  0  0  0  0  0  0  0  0
    4.6799    2.0982    0.0000 C   0  0  0  0  0  0  0  0  0  0  0  0
   -4.6799   -1.6002    0.0000 C   0  0  0  0  0  0  0  0  0  0  0  0
   -5.3912   -0.3627    0.0000 C   0  0  0  0  0  0  0  0  0  0  0  0
  1 14  1  0  0  0  0
  1 16  1  0  0  0  0
  2 15  2  0  0  0  0
  3 20  2  0  0  0  0
  4 25  2  0  0  0  0
  5 31  1  0  0  0  0
  5 42  1  0  0  0  0
  6 30  1  0  0  0  0
  7 36  2  0  0  0  0
  8 37  1  0  0  0  0
  9 43  1  0  0  0  0
  9 44  1  0  0  0  0
 10 17  1  0  0  0  0
 10 20  1  0  0  0  0
 11 21  1  0  0  0  0
 11 25  1  0  0  0  0
 12 28  1  0  0  0  0
 12 36  1  0  0  0  0
 13 39  1  0  0  0  0
 13 40  1  0  0  0  0
 13 41  1  0  0  0  0
 14 15  1  0  0  0  0
 14 16  1  0  0  0  0
 14 18  1  0  0  0  0
 15 17  1  0  0  0  0
 17 19  1  0  0  0  0
 19 22  1  0  0  0  0
 20 21  1  0  0  0  0
 21 23  1  0  0  0  0
 22 26  2  0  0  0  0
 22 27  1  0  0  0  0
 23 24  1  0  0  0  0
 24 29  1  0  0  0  0
 24 32  2  0  0  0  0
 25 28  1  0  0  0  0
 26 34  1  0  0  0  0
 27 35  1  0  0  0  0
 28 37  1  0  0  0  0
 29 30  2  0  0  0  0
 30 31  1  0  0  0  0
 31 33  2  0  0  0  0
 32 33  1  0  0  0  0
 34 38  1  0  0  0  0
 35 38  1  0  0  0  0
 36 39  1  0  0  0  0
 40 43  1  0  0  0  0
 41 44  1  0  0  0  0
M  END
> <PUBCHEM_COMPOUND_ID_TYPE>
0

> <PUBCHEM_TOTAL_CHARGE>
0

> <PUBCHEM_SUBSTANCE_ID>
310940814

> <PUBCHEM_SUBSTANCE_VERSION>
1

> <PUBCHEM_EXT_DATASOURCE_NAME>
4488

> <PUBCHEM_EXT_DATASOURCE_REGID>
SCHEMBL16118773

> <PUBCHEM_SUBSTANCE_COMMENT>
InChI=1S/C31H44N4O9/c1-31(19-44-31)28(39)22(14-20-6-4-3-5-7-20)33-29(40)23(15-21-8-9-26(42-2)25(37)16-21)34-30(41)24(18-36)32-27(38)17-35-10-12-43-13-11-35/h6,8-9,16,22-24,36-37H,3-5,7,10-15,17-19H2,1-2H3,(H,32,38)(H,33,40)(H,34,41)
InChIKey=HKRRXFGJGZVRMJ-UHFFFAOYSA-N

> <PUBCHEM_SUBSTANCE_SYNONYM>
SCHEMBL16118773

> <PUBCHEM_XREF_EXT_ID>
SCHEMBL16118773

> <PUBCHEM_EXT_DATASOURCE_URL>
https://www.surechembl.org/

> <PUBCHEM_EXT_SUBSTANCE_URL>
https://www.surechembl.org/chemical/SCHEMBL16118773

> <PUBCHEM_CID_ASSOCIATIONS>
117607744  1

> <PUBCHEM_COORDINATE_TYPE>
1
3

$$$$
