310931064
  -OEChem-07211613022D

 30 30  0     1  0  0  0  0  0999 V2000
    4.8988   -1.4382    0.0000 N   0  0  0  0  0  0  0  0  0  0  0  0
    4.4493   -2.1123    0.0000 N   0  0  0  0  0  0  0  0  0  0  0  0
    3.6404   -1.0337    0.0000 N   0  0  0  0  0  0  0  0  0  0  0  0
    3.6404   -1.8427    0.0000 N   0  0  0  0  0  0  0  0  0  0  0  0
    4.6741    0.0000    0.0000 N   0  0  0  0  0  0  0  0  0  0  0  0
    4.4493   -0.7640    0.0000 C   0  0  0  0  0  0  0  0  0  0  0  0
    5.7078   -1.4382    0.0000 C   0  0  0  0  0  0  0  0  0  0  0  0
    6.1572   -2.1573    0.0000 C   0  0  3  0  0  0  0  0  0  0  0  0
    6.9661   -2.1573    0.0000 C   0  0  0  0  0  0  0  0  0  0  0  0
    5.7527   -2.8763    0.0000 C   0  0  0  0  0  0  0  0  0  0  0  0
    7.3706   -2.8763    0.0000 C   0  0  0  0  0  0  0  0  0  0  0  0
    4.8988   -2.8763    0.0000 C   0  0  0  0  0  0  0  0  0  0  0  0
    8.1796   -2.8763    0.0000 C   0  0  0  0  0  0  0  0  0  0  0  0
    4.4943   -3.5954    0.0000 C   0  0  0  0  0  0  0  0  0  0  0  0
    8.5841   -3.5505    0.0000 C   0  0  0  0  0  0  0  0  0  0  0  0
    3.6853   -3.5954    0.0000 C   0  0  0  0  0  0  0  0  0  0  0  0
    9.3931   -3.5505    0.0000 C   0  0  0  0  0  0  0  0  0  0  0  0
    3.2808   -4.2696    0.0000 C   0  0  0  0  0  0  0  0  0  0  0  0
    9.7976   -4.2696    0.0000 C   0  0  0  0  0  0  0  0  0  0  0  0
    2.4718   -4.2696    0.0000 C   0  0  0  0  0  0  0  0  0  0  0  0
   10.6515   -4.2696    0.0000 C   0  0  0  0  0  0  0  0  0  0  0  0
    2.0674   -4.9887    0.0000 C   0  0  0  0  0  0  0  0  0  0  0  0
   11.0559   -4.9887    0.0000 C   0  0  0  0  0  0  0  0  0  0  0  0
   11.8649   -4.9887    0.0000 C   0  0  0  0  0  0  0  0  0  0  0  0
    1.2584   -4.9887    0.0000 C   0  0  0  0  0  0  0  0  0  0  0  0
   12.2694   -5.7078    0.0000 C   0  0  0  0  0  0  0  0  0  0  0  0
    0.8090   -5.7078    0.0000 C   0  0  0  0  0  0  0  0  0  0  0  0
   13.0784   -5.6628    0.0000 C   0  0  0  0  0  0  0  0  0  0  0  0
    0.0000   -5.7078    0.0000 C   0  0  0  0  0  0  0  0  0  0  0  0
   13.4829   -6.3819    0.0000 C   0  0  0  0  0  0  0  0  0  0  0  0
  1  2  1  0  0  0  0
  1  6  1  0  0  0  0
  1  7  1  0  0  0  0
  2  4  2  0  0  0  0
  3  4  1  0  0  0  0
  3  6  2  0  0  0  0
  5  6  1  0  0  0  0
  7  8  1  0  0  0  0
  8  9  1  0  0  0  0
  8 10  1  0  0  0  0
  9 11  1  0  0  0  0
 10 12  1  0  0  0  0
 11 13  1  0  0  0  0
 12 14  1  0  0  0  0
 13 15  1  0  0  0  0
 14 16  1  0  0  0  0
 15 17  1  0  0  0  0
 16 18  1  0  0  0  0
 17 19  1  0  0  0  0
 18 20  1  0  0  0  0
 19 21  1  0  0  0  0
 20 22  1  0  0  0  0
 21 23  1  0  0  0  0
 22 25  1  0  0  0  0
 23 24  1  0  0  0  0
 24 26  1  0  0  0  0
 25 27  1  0  0  0  0
 26 28  1  0  0  0  0
 27 29  1  0  0  0  0
 28 30  1  0  0  0  0
M  END
> <PUBCHEM_COMPOUND_ID_TYPE>
0

> <PUBCHEM_TOTAL_CHARGE>
0

> <PUBCHEM_SUBSTANCE_ID>
310931064

> <PUBCHEM_SUBSTANCE_VERSION>
1

> <PUBCHEM_EXT_DATASOURCE_NAME>
4488

> <PUBCHEM_EXT_DATASOURCE_REGID>
SCHEMBL16108367

> <PUBCHEM_SUBSTANCE_COMMENT>
InChI=1S/C25H51N5/c1-3-5-7-9-11-13-14-16-18-20-22-24(23-30-25(26)27-28-29-30)21-19-17-15-12-10-8-6-4-2/h24H,3-23H2,1-2H3,(H2,26,27,29)
InChIKey=KTMWDIPRQKOCNA-UHFFFAOYSA-N

> <PUBCHEM_SUBSTANCE_SYNONYM>
SCHEMBL16108367

> <PUBCHEM_XREF_EXT_ID>
SCHEMBL16108367

> <PUBCHEM_EXT_DATASOURCE_URL>
https://www.surechembl.org/

> <PUBCHEM_EXT_SUBSTANCE_URL>
https://www.surechembl.org/chemical/SCHEMBL16108367

> <PUBCHEM_CID_ASSOCIATIONS>
117599971  1

> <PUBCHEM_COORDINATE_TYPE>
1
3

$$$$
