310945791
  -OEChem-07211613022D

 38 40  0     1  0  0  0  0  0999 V2000
    4.8317    0.9774    0.0000 O   0  0  0  0  0  0  0  0  0  0  0  0
    3.6949   -0.9774    0.0000 O   0  0  0  0  0  0  0  0  0  0  0  0
    1.3240    0.9636    0.0000 O   0  0  0  0  0  0  0  0  0  0  0  0
   -0.8249   -1.1022    0.0000 O   0  0  0  0  0  0  0  0  0  0  0  0
    3.4869   -2.7659    0.0000 O   0  0  0  0  0  0  0  0  0  0  0  0
   -2.9878    0.9636    0.0000 O   0  0  0  0  0  0  0  0  0  0  0  0
   -4.4158    0.9636    0.0000 O   0  0  0  0  0  0  0  0  0  0  0  0
    2.0450   -0.2704    0.0000 N   0  0  0  0  0  0  0  0  0  0  0  0
   -0.1040    0.1456    0.0000 N   0  0  0  0  0  0  0  0  0  0  0  0
   -2.2668   -0.2704    0.0000 N   0  0  0  0  0  0  0  0  0  0  0  0
    4.4158    0.3119    0.0000 C   0  0  3  0  0  0  0  0  0  0  0  0
    3.7087   -0.1040    0.0000 C   0  0  0  0  0  0  0  0  0  0  0  0
    4.0275    0.9913    0.0000 C   0  0  0  0  0  0  0  0  0  0  0  0
    2.9878    0.2843    0.0000 C   0  0  3  0  0  0  0  0  0  0  0  0
    5.1506   -0.1317    0.0000 C   0  0  0  0  0  0  0  0  0  0  0  0
    2.9878    1.3518    0.0000 C   0  0  0  0  0  0  0  0  0  0  0  0
    1.3240    0.1456    0.0000 C   0  0  0  0  0  0  0  0  0  0  0  0
    0.6169   -0.2426    0.0000 C   0  0  3  0  0  0  0  0  0  0  0  0
    2.2530    1.7954    0.0000 C   0  0  0  0  0  0  0  0  0  0  0  0
    0.6169   -1.0883    0.0000 C   0  0  0  0  0  0  0  0  0  0  0  0
    1.3518   -1.4904    0.0000 C   0  0  0  0  0  0  0  0  0  0  0  0
   -0.8249   -0.2287    0.0000 C   0  0  0  0  0  0  0  0  0  0  0  0
    1.5043    1.4488    0.0000 C   0  0  0  0  0  0  0  0  0  0  0  0
    2.1697    2.5996    0.0000 C   0  0  0  0  0  0  0  0  0  0  0  0
   -1.5598    0.1733    0.0000 C   0  0  3  0  0  0  0  0  0  0  0  0
    1.3518   -2.3223    0.0000 C   0  0  0  0  0  0  0  0  0  0  0  0
    2.0450   -1.1022    0.0000 C   0  0  0  0  0  0  0  0  0  0  0  0
    0.9636    2.0588    0.0000 C   0  0  0  0  0  0  0  0  0  0  0  0
    1.3795    2.7659    0.0000 C   0  0  0  0  0  0  0  0  0  0  0  0
    2.7659   -2.3084    0.0000 C   0  0  0  0  0  0  0  0  0  0  0  0
    2.0450   -2.7244    0.0000 C   0  0  0  0  0  0  0  0  0  0  0  0
    2.7659   -1.5043    0.0000 C   0  0  0  0  0  0  0  0  0  0  0  0
   -2.9878    0.1456    0.0000 C   0  0  0  0  0  0  0  0  0  0  0  0
   -1.5320    1.0051    0.0000 C   0  0  0  0  0  0  0  0  0  0  0  0
   -3.6949   -0.2426    0.0000 C   0  0  0  0  0  0  0  0  0  0  0  0
   -4.4158    0.1733    0.0000 C   0  0  3  0  0  0  0  0  0  0  0  0
    4.2216   -2.3362    0.0000 C   0  0  0  0  0  0  0  0  0  0  0  0
   -5.1506   -0.2426    0.0000 C   0  0  0  0  0  0  0  0  0  0  0  0
  1 11  1  0  0  0  0
  1 13  1  0  0  0  0
  2 12  2  0  0  0  0
  3 17  2  0  0  0  0
  4 22  2  0  0  0  0
  5 30  1  0  0  0  0
  5 37  1  0  0  0  0
  6 33  2  0  0  0  0
  7 36  1  0  0  0  0
  8 14  1  0  0  0  0
  8 17  1  0  0  0  0
  9 18  1  0  0  0  0
  9 22  1  0  0  0  0
 10 25  1  0  0  0  0
 10 33  1  0  0  0  0
 11 12  1  0  0  0  0
 11 13  1  0  0  0  0
 11 15  1  0  0  0  0
 12 14  1  0  0  0  0
 14 16  1  0  0  0  0
 16 19  1  0  0  0  0
 17 18  1  0  0  0  0
 18 20  1  0  0  0  0
 19 23  1  0  0  0  0
 19 24  1  0  0  0  0
 20 21  1  0  0  0  0
 21 26  2  0  0  0  0
 21 27  1  0  0  0  0
 22 25  1  0  0  0  0
 23 28  1  0  0  0  0
 24 29  1  0  0  0  0
 25 34  1  0  0  0  0
 26 31  1  0  0  0  0
 27 32  2  0  0  0  0
 28 29  1  0  0  0  0
 30 31  2  0  0  0  0
 30 32  1  0  0  0  0
 33 35  1  0  0  0  0
 35 36  1  0  0  0  0
 36 38  1  0  0  0  0
M  END
> <PUBCHEM_COMPOUND_ID_TYPE>
0

> <PUBCHEM_TOTAL_CHARGE>
0

> <PUBCHEM_SUBSTANCE_ID>
310945791

> <PUBCHEM_SUBSTANCE_VERSION>
1

> <PUBCHEM_EXT_DATASOURCE_NAME>
4488

> <PUBCHEM_EXT_DATASOURCE_REGID>
SCHEMBL16123895

> <PUBCHEM_SUBSTANCE_COMMENT>
InChI=1S/C28H41N3O7/c1-17(32)13-24(33)29-18(2)26(35)31-23(15-20-9-11-21(37-4)12-10-20)27(36)30-22(14-19-7-5-6-8-19)25(34)28(3)16-38-28/h9-12,17-19,22-23,32H,5-8,13-16H2,1-4H3,(H,29,33)(H,30,36)(H,31,35)
InChIKey=POHXHYJWXCRZRB-UHFFFAOYSA-N

> <PUBCHEM_SUBSTANCE_SYNONYM>
SCHEMBL16123895

> <PUBCHEM_XREF_EXT_ID>
SCHEMBL16123895

> <PUBCHEM_EXT_DATASOURCE_URL>
https://www.surechembl.org/

> <PUBCHEM_EXT_SUBSTANCE_URL>
https://www.surechembl.org/chemical/SCHEMBL16123895

> <PUBCHEM_CID_ASSOCIATIONS>
117611778  1

> <PUBCHEM_COORDINATE_TYPE>
1
3

$$$$
