310939640
  -OEChem-07211613022D

 33 36  0     1  0  0  0  0  0999 V2000
   -1.7862   -4.4099    0.0000 O   0  0  0  0  0  0  0  0  0  0  0  0
    1.7862   -8.1224    0.0000 O   0  0  0  0  0  0  0  0  0  0  0  0
   -3.2151   -5.2349    0.0000 O   0  0  0  0  0  0  0  0  0  0  0  0
    1.0717   -5.2349    0.0000 N   0  0  0  0  0  0  0  0  0  0  0  0
    2.5006   -5.2349    0.0000 N   0  0  0  0  0  0  0  0  0  0  0  0
    3.2151   -3.9974    0.0000 N   0  0  3  0  0  0  0  0  0  0  0  0
    1.7862   -6.4724    0.0000 N   0  0  0  0  0  0  0  0  0  0  0  0
   -4.6441   -4.4099    0.0000 N   0  0  0  0  0  0  0  0  0  0  0  0
    1.0717   -4.4099    0.0000 C   0  0  0  0  0  0  0  0  0  0  0  0
    2.5006   -4.4099    0.0000 C   0  0  0  0  0  0  0  0  0  0  0  0
    1.7862   -5.6474    0.0000 C   0  0  0  0  0  0  0  0  0  0  0  0
    0.3572   -3.9974    0.0000 C   0  0  0  0  0  0  0  0  0  0  0  0
    1.7862   -3.9974    0.0000 C   0  0  0  0  0  0  0  0  0  0  0  0
    3.9296   -4.4099    0.0000 C   0  0  0  0  0  0  0  0  0  0  0  0
   -0.3572   -4.4099    0.0000 C   0  0  0  0  0  0  0  0  0  0  0  0
    0.3572   -3.1724    0.0000 C   0  0  0  0  0  0  0  0  0  0  0  0
   -1.0717   -3.9974    0.0000 C   0  0  0  0  0  0  0  0  0  0  0  0
    1.0717   -6.8849    0.0000 C   0  0  0  0  0  0  0  0  0  0  0  0
    2.5006   -6.8849    0.0000 C   0  0  0  0  0  0  0  0  0  0  0  0
   -0.3572   -2.7599    0.0000 C   0  0  0  0  0  0  0  0  0  0  0  0
   -1.0717   -3.1724    0.0000 C   0  0  0  0  0  0  0  0  0  0  0  0
    4.6441   -3.9974    0.0000 C   0  0  0  0  0  0  0  0  0  0  0  0
    3.9296   -5.2349    0.0000 C   0  0  0  0  0  0  0  0  0  0  0  0
    3.2151   -3.1724    0.0000 C   0  0  0  0  0  0  0  0  0  0  0  0
    1.0717   -7.7099    0.0000 C   0  0  0  0  0  0  0  0  0  0  0  0
    2.5006   -7.7099    0.0000 C   0  0  0  0  0  0  0  0  0  0  0  0
    4.6441   -5.6474    0.0000 C   0  0  0  0  0  0  0  0  0  0  0  0
    5.3585   -4.4099    0.0000 C   0  0  0  0  0  0  0  0  0  0  0  0
    5.3585   -5.2349    0.0000 C   0  0  0  0  0  0  0  0  0  0  0  0
   -2.5007   -3.9974    0.0000 C   0  0  0  0  0  0  0  0  0  0  0  0
   -3.2151   -4.4099    0.0000 C   0  0  3  0  0  0  0  0  0  0  0  0
   -3.9296   -3.9974    0.0000 C   0  0  0  0  0  0  0  0  0  0  0  0
   -5.3585   -3.9974    0.0000 C   0  0  0  0  0  0  0  0  0  0  0  0
  1 17  1  0  0  0  0
  1 30  1  0  0  0  0
  2 25  1  0  0  0  0
  2 26  1  0  0  0  0
  3 31  1  0  0  0  0
  4  9  2  0  0  0  0
  4 11  1  0  0  0  0
  5 10  1  0  0  0  0
  5 11  2  0  0  0  0
  6 10  1  0  0  0  0
  6 14  1  0  0  0  0
  6 24  1  0  0  0  0
  7 11  1  0  0  0  0
  7 18  1  0  0  0  0
  7 19  1  0  0  0  0
  8 32  1  0  0  0  0
  8 33  1  0  0  0  0
  9 12  1  0  0  0  0
  9 13  1  0  0  0  0
 10 13  2  0  0  0  0
 12 15  2  0  0  0  0
 12 16  1  0  0  0  0
 14 22  1  0  0  0  0
 14 23  1  0  0  0  0
 15 17  1  0  0  0  0
 16 20  2  0  0  0  0
 17 21  2  0  0  0  0
 18 25  1  0  0  0  0
 19 26  1  0  0  0  0
 20 21  1  0  0  0  0
 22 28  1  0  0  0  0
 23 27  1  0  0  0  0
 27 29  1  0  0  0  0
 28 29  1  0  0  0  0
 30 31  1  0  0  0  0
 31 32  1  0  0  0  0
M  END
> <PUBCHEM_COMPOUND_ID_TYPE>
0

> <PUBCHEM_TOTAL_CHARGE>
0

> <PUBCHEM_SUBSTANCE_ID>
310939640

> <PUBCHEM_SUBSTANCE_VERSION>
1

> <PUBCHEM_EXT_DATASOURCE_NAME>
4488

> <PUBCHEM_EXT_DATASOURCE_REGID>
SCHEMBL16117570

> <PUBCHEM_SUBSTANCE_COMMENT>
InChI=1S/C25H37N5O3/c1-26-17-21(31)18-33-22-10-6-7-19(15-22)23-16-24(29(2)20-8-4-3-5-9-20)28-25(27-23)30-11-13-32-14-12-30/h6-7,10,15-16,20-21,26,31H,3-5,8-9,11-14,17-18H2,1-2H3
InChIKey=WYQBGDBIEJPHEF-UHFFFAOYSA-N

> <PUBCHEM_SUBSTANCE_SYNONYM>
SCHEMBL16117570

> <PUBCHEM_XREF_EXT_ID>
SCHEMBL16117570

> <PUBCHEM_EXT_DATASOURCE_URL>
https://www.surechembl.org/

> <PUBCHEM_EXT_SUBSTANCE_URL>
https://www.surechembl.org/chemical/SCHEMBL16117570

> <PUBCHEM_CID_ASSOCIATIONS>
117606879  1

> <PUBCHEM_COORDINATE_TYPE>
1
3

$$$$
