310935933
  -OEChem-07211613022D

 30 32  0     1  0  0  0  0  0999 V2000
    0.9572    2.1434    0.0000 P   0  0  0  0  0  0  0  0  0  0  0  0
    0.2427    1.7309    0.0000 O   0  0  0  0  0  0  0  0  0  0  0  0
    1.3697    1.4289    0.0000 O   0  0  0  0  0  0  0  0  0  0  0  0
    0.9572    0.4934    0.0000 O   0  0  0  0  0  0  0  0  0  0  0  0
   -2.6151    1.7309    0.0000 O   0  0  0  0  0  0  0  0  0  0  0  0
   -6.1875    0.4934    0.0000 O   0  0  0  0  0  0  0  0  0  0  0  0
    1.6717    2.5559    0.0000 C   0  0  0  0  0  0  0  0  0  0  0  0
    0.5447    2.8579    0.0000 C   0  0  0  0  0  0  0  0  0  0  0  0
    0.2427    0.9059    0.0000 C   0  0  0  0  0  0  0  0  0  0  0  0
   -0.4717    0.4934    0.0000 C   0  0  0  0  0  0  0  0  0  0  0  0
    1.6717    3.3809    0.0000 C   0  0  0  0  0  0  0  0  0  0  0  0
   -0.2803    2.8579    0.0000 C   0  0  0  0  0  0  0  0  0  0  0  0
    2.3862    2.1434    0.0000 C   0  0  0  0  0  0  0  0  0  0  0  0
    0.9572    3.5724    0.0000 C   0  0  0  0  0  0  0  0  0  0  0  0
   -1.1862    0.9059    0.0000 C   0  0  0  0  0  0  0  0  0  0  0  0
   -1.9007    0.4934    0.0000 C   0  0  0  0  0  0  0  0  0  0  0  0
   -0.4717   -0.3316    0.0000 C   0  0  0  0  0  0  0  0  0  0  0  0
    2.3862    3.7934    0.0000 C   0  0  0  0  0  0  0  0  0  0  0  0
   -0.6928    3.5724    0.0000 C   0  0  0  0  0  0  0  0  0  0  0  0
    3.1006    2.5559    0.0000 C   0  0  0  0  0  0  0  0  0  0  0  0
    0.5447    4.2868    0.0000 C   0  0  0  0  0  0  0  0  0  0  0  0
   -2.6151    0.9059    0.0000 C   0  0  3  0  0  0  0  0  0  0  0  0
   -1.9007   -0.3316    0.0000 C   0  0  0  0  0  0  0  0  0  0  0  0
   -1.1862   -0.7441    0.0000 C   0  0  0  0  0  0  0  0  0  0  0  0
    3.1006    3.3809    0.0000 C   0  0  0  0  0  0  0  0  0  0  0  0
   -0.2803    4.2868    0.0000 C   0  0  0  0  0  0  0  0  0  0  0  0
   -3.3296    0.4934    0.0000 C   0  0  0  0  0  0  0  0  0  0  0  0
   -4.0441    0.9059    0.0000 C   0  0  0  0  0  0  0  0  0  0  0  0
   -4.7586    0.4934    0.0000 C   0  0  0  0  0  0  0  0  0  0  0  0
   -5.4730    0.9059    0.0000 C   0  0  0  0  0  0  0  0  0  0  0  0
  1  2  1  0  0  0  0
  1  3  2  0  0  0  0
  1  7  1  0  0  0  0
  1  8  1  0  0  0  0
  2  9  1  0  0  0  0
  4  9  2  0  0  0  0
  5 22  1  0  0  0  0
  6 30  1  0  0  0  0
  7 11  2  0  0  0  0
  7 13  1  0  0  0  0
  8 12  2  0  0  0  0
  8 14  1  0  0  0  0
  9 10  1  0  0  0  0
 10 15  1  0  0  0  0
 10 17  2  0  0  0  0
 11 18  1  0  0  0  0
 12 19  1  0  0  0  0
 13 20  2  0  0  0  0
 14 21  2  0  0  0  0
 15 16  2  0  0  0  0
 16 22  1  0  0  0  0
 16 23  1  0  0  0  0
 17 24  1  0  0  0  0
 18 25  2  0  0  0  0
 19 26  2  0  0  0  0
 20 25  1  0  0  0  0
 21 26  1  0  0  0  0
 22 27  1  0  0  0  0
 23 24  2  0  0  0  0
 27 28  1  0  0  0  0
 28 29  1  0  0  0  0
 29 30  1  0  0  0  0
M  END
> <PUBCHEM_COMPOUND_ID_TYPE>
0

> <PUBCHEM_TOTAL_CHARGE>
0

> <PUBCHEM_SUBSTANCE_ID>
310935933

> <PUBCHEM_SUBSTANCE_VERSION>
1

> <PUBCHEM_EXT_DATASOURCE_NAME>
4488

> <PUBCHEM_EXT_DATASOURCE_REGID>
SCHEMBL16113529

> <PUBCHEM_SUBSTANCE_COMMENT>
InChI=1S/C24H25O5P/c25-17-8-7-16-23(26)19-10-9-11-20(18-19)24(27)29-30(28,21-12-3-1-4-13-21)22-14-5-2-6-15-22/h1-6,9-15,18,23,25-26H,7-8,16-17H2
InChIKey=HMBBQNBSCKUZFU-UHFFFAOYSA-N

> <PUBCHEM_SUBSTANCE_SYNONYM>
SCHEMBL16113529

> <PUBCHEM_XREF_EXT_ID>
SCHEMBL16113529

> <PUBCHEM_EXT_DATASOURCE_URL>
https://www.surechembl.org/

> <PUBCHEM_EXT_SUBSTANCE_URL>
https://www.surechembl.org/chemical/SCHEMBL16113529

> <PUBCHEM_CID_ASSOCIATIONS>
117603916  1

> <PUBCHEM_COORDINATE_TYPE>
1
3

$$$$
