310936514
  -OEChem-07211613022D

 42 45  0     1  0  0  0  0  0999 V2000
    0.0000   -3.4993    0.0000 F   0  0  0  0  0  0  0  0  0  0  0  0
    5.1460   -8.6453    0.0000 O   0  0  0  0  0  0  0  0  0  0  0  0
    4.8373   -3.4993    0.0000 O   0  0  0  0  0  0  0  0  0  0  0  0
    6.5354   -9.4687    0.0000 O   0  0  0  0  0  0  0  0  0  0  0  0
    7.2559   -8.2336    0.0000 O   0  0  0  0  0  0  0  0  0  0  0  0
    2.4187   -2.1099    0.0000 O   0  0  0  0  0  0  0  0  0  0  0  0
    5.1460   -6.2267    0.0000 N   0  0  0  0  0  0  0  0  0  0  0  0
    4.5285   -5.6606    0.0000 N   0  0  0  0  0  0  0  0  0  0  0  0
    6.5869   -6.2267    0.0000 N   0  0  0  0  0  0  0  0  0  0  0  0
    3.6537   -4.2197    0.0000 N   0  0  0  0  0  0  0  0  0  0  0  0
    5.1460   -7.0501    0.0000 C   0  0  0  0  0  0  0  0  0  0  0  0
    5.8150   -7.4103    0.0000 C   0  0  0  0  0  0  0  0  0  0  0  0
    5.8665   -5.8150    0.0000 C   0  0  0  0  0  0  0  0  0  0  0  0
    4.4770   -7.4618    0.0000 C   0  0  0  0  0  0  0  0  0  0  0  0
    6.5869   -6.9986    0.0000 C   0  0  0  0  0  0  0  0  0  0  0  0
    5.8150   -8.2336    0.0000 C   0  0  3  0  0  0  0  0  0  0  0  0
    4.8887   -4.9402    0.0000 C   0  0  0  0  0  0  0  0  0  0  0  0
    5.6606   -4.9916    0.0000 C   0  0  0  0  0  0  0  0  0  0  0  0
    3.7566   -7.0501    0.0000 C   0  0  0  0  0  0  0  0  0  0  0  0
    4.4770   -4.2197    0.0000 C   0  0  0  0  0  0  0  0  0  0  0  0
    4.4770   -8.2851    0.0000 C   0  0  0  0  0  0  0  0  0  0  0  0
    6.5354   -8.6453    0.0000 C   0  0  0  0  0  0  0  0  0  0  0  0
    7.2559   -7.4103    0.0000 C   0  0  0  0  0  0  0  0  0  0  0  0
    5.1460   -9.4687    0.0000 C   0  0  0  0  0  0  0  0  0  0  0  0
    3.0361   -7.4618    0.0000 C   0  0  0  0  0  0  0  0  0  0  0  0
    3.7566   -8.6968    0.0000 C   0  0  0  0  0  0  0  0  0  0  0  0
    3.7566   -6.2781    0.0000 C   0  0  0  0  0  0  0  0  0  0  0  0
    3.0361   -8.2851    0.0000 C   0  0  0  0  0  0  0  0  0  0  0  0
    3.2420   -3.4993    0.0000 C   0  0  0  0  0  0  0  0  0  0  0  0
    2.4187   -3.4993    0.0000 C   0  0  0  0  0  0  0  0  0  0  0  0
    5.0946  -10.2920    0.0000 C   0  0  0  0  0  0  0  0  0  0  0  0
    4.3226   -9.4687    0.0000 C   0  0  0  0  0  0  0  0  0  0  0  0
    5.9179   -9.4687    0.0000 C   0  0  0  0  0  0  0  0  0  0  0  0
    2.0070   -2.8303    0.0000 C   0  0  0  0  0  0  0  0  0  0  0  0
    3.0361   -5.8665    0.0000 C   0  0  0  0  0  0  0  0  0  0  0  0
    2.0070   -4.2197    0.0000 C   0  0  0  0  0  0  0  0  0  0  0  0
    1.1836   -2.7788    0.0000 C   0  0  0  0  0  0  0  0  0  0  0  0
    0.7719   -3.4993    0.0000 C   0  0  0  0  0  0  0  0  0  0  0  0
    1.1836   -4.2197    0.0000 C   0  0  0  0  0  0  0  0  0  0  0  0
    2.0070   -1.3894    0.0000 C   0  0  0  0  0  0  0  0  0  0  0  0
    2.4187   -0.7205    0.0000 C   0  0  0  0  0  0  0  0  0  0  0  0
    2.0070    0.0000    0.0000 C   0  0  0  0  0  0  0  0  0  0  0  0
  1 38  1  0  0  0  0
  2 16  1  0  0  0  0
  2 24  1  0  0  0  0
  3 20  2  0  0  0  0
  4 22  2  0  0  0  0
  5 22  1  0  0  0  0
  6 34  1  0  0  0  0
  6 40  1  0  0  0  0
  7  8  1  0  0  0  0
  7 11  1  0  0  0  0
  7 13  1  0  0  0  0
  8 17  2  0  0  0  0
  9 13  1  0  0  0  0
  9 15  2  0  0  0  0
 10 20  1  0  0  0  0
 10 29  1  0  0  0  0
 11 12  2  0  0  0  0
 11 14  1  0  0  0  0
 12 15  1  0  0  0  0
 12 16  1  0  0  0  0
 13 18  2  0  0  0  0
 14 19  1  0  0  0  0
 14 21  2  0  0  0  0
 15 23  1  0  0  0  0
 16 22  1  0  0  0  0
 17 18  1  0  0  0  0
 17 20  1  0  0  0  0
 19 25  2  0  0  0  0
 19 27  1  0  0  0  0
 21 26  1  0  0  0  0
 24 31  1  0  0  0  0
 24 32  1  0  0  0  0
 24 33  1  0  0  0  0
 25 28  1  0  0  0  0
 26 28  2  0  0  0  0
 27 35  2  0  0  0  0
 29 30  1  0  0  0  0
 30 34  2  0  0  0  0
 30 36  1  0  0  0  0
 34 37  1  0  0  0  0
 36 39  2  0  0  0  0
 37 38  2  0  0  0  0
 38 39  1  0  0  0  0
 40 41  1  0  0  0  0
 41 42  2  0  0  0  0
M  END
> <PUBCHEM_COMPOUND_ID_TYPE>
0

> <PUBCHEM_TOTAL_CHARGE>
0

> <PUBCHEM_SUBSTANCE_ID>
310936514

> <PUBCHEM_SUBSTANCE_VERSION>
1

> <PUBCHEM_EXT_DATASOURCE_NAME>
4488

> <PUBCHEM_EXT_DATASOURCE_REGID>
SCHEMBL16114165

> <PUBCHEM_SUBSTANCE_COMMENT>
InChI=1S/C32H33FN4O5/c1-7-15-41-25-16-22(33)14-13-21(25)18-34-30(38)24-17-26-35-19(3)27(29(31(39)40)42-32(4,5)6)28(37(26)36-24)23-12-10-9-11-20(23)8-2/h7-14,16-17,29H,1-2,15,18H2,3-6H3,(H,34,38)(H,39,40)
InChIKey=MAFSZCRNBPAVSV-UHFFFAOYSA-N

> <PUBCHEM_SUBSTANCE_SYNONYM>
SCHEMBL16114165

> <PUBCHEM_XREF_EXT_ID>
SCHEMBL16114165

> <PUBCHEM_EXT_DATASOURCE_URL>
https://www.surechembl.org/

> <PUBCHEM_EXT_SUBSTANCE_URL>
https://www.surechembl.org/chemical/SCHEMBL16114165

> <PUBCHEM_CID_ASSOCIATIONS>
117604441  1

> <PUBCHEM_COORDINATE_TYPE>
1
3

$$$$
