310935666
  -OEChem-07211613022D

 24 26  0     1  0  0  0  0  0999 V2000
   -2.0899    0.3077    0.0000 F   0  0  0  0  0  0  0  0  0  0  0  0
    0.8526    0.3930    0.0000 O   0  0  0  0  0  0  0  0  0  0  0  0
    2.0049    0.2990    0.0000 O   0  0  0  0  0  0  0  0  0  0  0  0
    1.5999   -0.4197    0.0000 N   0  0  0  0  0  0  0  0  0  0  0  0
    0.3700   -1.1471    0.0000 C   0  0  3  0  0  0  0  0  0  0  0  0
   -0.0350   -0.4284    0.0000 C   0  0  0  0  0  0  0  0  0  0  0  0
    1.0374   -1.6320    0.0000 C   0  0  0  0  0  0  0  0  0  0  0  0
    0.7825   -2.4167    0.0000 C   0  0  0  0  0  0  0  0  0  0  0  0
    0.7750   -0.4284    0.0000 C   0  0  0  0  0  0  0  0  0  0  0  0
   -0.2975   -1.6320    0.0000 C   0  0  0  0  0  0  0  0  0  0  0  0
   -0.8600   -0.4197    0.0000 C   0  0  0  0  0  0  0  0  0  0  0  0
   -0.0425   -2.4167    0.0000 C   0  0  0  0  0  0  0  0  0  0  0  0
    1.2674   -3.0841    0.0000 C   0  0  0  0  0  0  0  0  0  0  0  0
    0.3849    0.2817    0.0000 C   0  0  0  0  0  0  0  0  0  0  0  0
   -1.2650    0.2990    0.0000 C   0  0  0  0  0  0  0  0  0  0  0  0
    0.9318   -3.8378    0.0000 C   0  0  0  0  0  0  0  0  0  0  0  0
   -0.0201    1.0005    0.0000 C   0  0  0  0  0  0  0  0  0  0  0  0
   -0.8450    1.0091    0.0000 C   0  0  0  0  0  0  0  0  0  0  0  0
    2.0879   -2.9979    0.0000 C   0  0  0  0  0  0  0  0  0  0  0  0
   -1.2799   -1.1298    0.0000 C   0  0  0  0  0  0  0  0  0  0  0  0
    1.4167   -4.5052    0.0000 C   0  0  0  0  0  0  0  0  0  0  0  0
    2.5728   -3.6653    0.0000 C   0  0  0  0  0  0  0  0  0  0  0  0
    2.2372   -4.4190    0.0000 C   0  0  0  0  0  0  0  0  0  0  0  0
    0.1113   -3.9240    0.0000 C   0  0  0  0  0  0  0  0  0  0  0  0
  1 15  1  0  0  0  0
  2  9  2  0  0  0  0
  3  4  1  0  0  0  0
  4  9  1  0  0  0  0
  5  6  1  0  0  0  0
  5  7  1  0  0  0  0
  5  9  1  0  0  0  0
  5 10  1  0  0  0  0
  6 11  2  0  0  0  0
  6 14  1  0  0  0  0
  7  8  2  0  0  0  0
  8 12  1  0  0  0  0
  8 13  1  0  0  0  0
 10 12  1  0  0  0  0
 11 15  1  0  0  0  0
 11 20  1  0  0  0  0
 13 16  2  0  0  0  0
 13 19  1  0  0  0  0
 14 17  2  0  0  0  0
 15 18  2  0  0  0  0
 16 21  1  0  0  0  0
 16 24  1  0  0  0  0
 17 18  1  0  0  0  0
 19 22  2  0  0  0  0
 21 23  2  0  0  0  0
 22 23  1  0  0  0  0
M  END
> <PUBCHEM_COMPOUND_ID_TYPE>
0

> <PUBCHEM_TOTAL_CHARGE>
0

> <PUBCHEM_SUBSTANCE_ID>
310935666

> <PUBCHEM_SUBSTANCE_VERSION>
1

> <PUBCHEM_EXT_DATASOURCE_NAME>
4488

> <PUBCHEM_EXT_DATASOURCE_REGID>
SCHEMBL16113248

> <PUBCHEM_SUBSTANCE_COMMENT>
InChI=1S/C20H20FNO2/c1-13-6-3-4-7-16(13)15-10-11-20(12-15,19(23)22-24)17-8-5-9-18(21)14(17)2/h3-9,12,24H,10-11H2,1-2H3,(H,22,23)
InChIKey=XMEPHEZCBJENHK-UHFFFAOYSA-N

> <PUBCHEM_SUBSTANCE_SYNONYM>
SCHEMBL16113248

> <PUBCHEM_XREF_EXT_ID>
SCHEMBL16113248

> <PUBCHEM_EXT_DATASOURCE_URL>
https://www.surechembl.org/

> <PUBCHEM_EXT_SUBSTANCE_URL>
https://www.surechembl.org/chemical/SCHEMBL16113248

> <PUBCHEM_CID_ASSOCIATIONS>
117603677  1

> <PUBCHEM_COORDINATE_TYPE>
1
3

$$$$
