310936022
  -OEChem-07211613022D

 23 25  0     1  0  0  0  0  0999 V2000
    3.5867   -3.3127    0.0000 F   0  0  0  0  0  0  0  0  0  0  0  0
    5.0313   -0.8219    0.0000 F   0  0  0  0  0  0  0  0  0  0  0  0
    2.1420    0.0000    0.0000 O   0  0  0  0  0  0  0  0  0  0  0  0
    0.0000   -0.4234    0.0000 N   0  0  0  0  0  0  0  0  0  0  0  0
    1.4446   -1.2454    0.0000 C   0  0  3  0  0  0  0  0  0  0  0  0
    2.1420   -0.8219    0.0000 C   0  0  3  0  0  0  0  0  0  0  0  0
    1.4446   -2.0673    0.0000 C   0  0  0  0  0  0  0  0  0  0  0  0
    2.8644   -1.2454    0.0000 C   0  0  0  0  0  0  0  0  0  0  0  0
    0.7223   -3.3127    0.0000 C   0  0  0  0  0  0  0  0  0  0  0  0
    0.7223   -2.4908    0.0000 C   0  0  0  0  0  0  0  0  0  0  0  0
    1.4446   -3.7112    0.0000 C   0  0  0  0  0  0  0  0  0  0  0  0
    3.6116   -0.8219    0.0000 C   0  0  0  0  0  0  0  0  0  0  0  0
    2.8893   -2.0673    0.0000 C   0  0  0  0  0  0  0  0  0  0  0  0
    2.1670   -2.4908    0.0000 C   0  0  0  0  0  0  0  0  0  0  0  0
    3.5867   -2.4908    0.0000 C   0  0  0  0  0  0  0  0  0  0  0  0
    4.3090   -1.2454    0.0000 C   0  0  0  0  0  0  0  0  0  0  0  0
    2.1670   -3.3127    0.0000 C   0  0  0  0  0  0  0  0  0  0  0  0
    0.7223   -0.8219    0.0000 C   0  0  0  0  0  0  0  0  0  0  0  0
    4.3090   -2.0673    0.0000 C   0  0  0  0  0  0  0  0  0  0  0  0
    0.0000   -3.7361    0.0000 C   0  0  0  0  0  0  0  0  0  0  0  0
    1.4446   -4.5581    0.0000 C   0  0  0  0  0  0  0  0  0  0  0  0
    0.0000   -4.5581    0.0000 C   0  0  0  0  0  0  0  0  0  0  0  0
    0.7223   -4.9815    0.0000 C   0  0  0  0  0  0  0  0  0  0  0  0
  1 15  1  0  0  0  0
  2 16  1  0  0  0  0
  3  6  1  0  0  0  0
  4 18  3  0  0  0  0
  5  6  1  0  0  0  0
  5  7  1  0  0  0  0
  5 18  1  0  0  0  0
  6  8  1  0  0  0  0
  7 10  2  0  0  0  0
  7 14  1  0  0  0  0
  8 12  2  0  0  0  0
  8 13  1  0  0  0  0
  9 10  1  0  0  0  0
  9 11  2  0  0  0  0
  9 20  1  0  0  0  0
 11 17  1  0  0  0  0
 11 21  1  0  0  0  0
 12 16  1  0  0  0  0
 13 15  2  0  0  0  0
 14 17  2  0  0  0  0
 15 19  1  0  0  0  0
 16 19  2  0  0  0  0
 20 22  2  0  0  0  0
 21 23  2  0  0  0  0
 22 23  1  0  0  0  0
M  END
> <PUBCHEM_COMPOUND_ID_TYPE>
0

> <PUBCHEM_TOTAL_CHARGE>
0

> <PUBCHEM_SUBSTANCE_ID>
310936022

> <PUBCHEM_SUBSTANCE_VERSION>
1

> <PUBCHEM_EXT_DATASOURCE_NAME>
4488

> <PUBCHEM_EXT_DATASOURCE_REGID>
SCHEMBL16113625

> <PUBCHEM_SUBSTANCE_COMMENT>
InChI=1S/C19H13F2NO/c20-16-8-15(9-17(21)10-16)19(23)18(11-22)14-6-5-12-3-1-2-4-13(12)7-14/h1-10,18-19,23H
InChIKey=IJIIJNUCEARVBZ-UHFFFAOYSA-N

> <PUBCHEM_SUBSTANCE_SYNONYM>
SCHEMBL16113625

> <PUBCHEM_XREF_EXT_ID>
SCHEMBL16113625

> <PUBCHEM_EXT_DATASOURCE_URL>
https://www.surechembl.org/

> <PUBCHEM_EXT_SUBSTANCE_URL>
https://www.surechembl.org/chemical/SCHEMBL16113625

> <PUBCHEM_CID_ASSOCIATIONS>
117603991  1

> <PUBCHEM_COORDINATE_TYPE>
1
3

$$$$
