310933481
  -OEChem-07211613022D

  8  7  0     1  0  0  0  0  0999 V2000
    0.0000   -2.4727    0.0000 F   0  0  0  0  0  0  0  0  0  0  0  0
    1.4218   -2.4727    0.0000 F   0  0  0  0  0  0  0  0  0  0  0  0
    1.4218   -1.6567    0.0000 F   0  0  0  0  0  0  0  0  0  0  0  0
    0.7047   -1.2363    0.0000 O   0  0  0  0  0  0  0  0  0  0  0  0
    1.4218    0.0000    0.0000 N   0  0  0  0  0  0  0  0  0  0  0  0
    0.7047   -2.0523    0.0000 C   0  0  0  0  0  0  0  0  0  0  0  0
    1.4218   -0.8284    0.0000 C   0  0  3  0  0  0  0  0  0  0  0  0
    2.1388   -1.2363    0.0000 C   0  0  0  0  0  0  0  0  0  0  0  0
  1  6  1  0  0  0  0
  2  6  1  0  0  0  0
  3  6  1  0  0  0  0
  4  6  1  0  0  0  0
  4  7  1  0  0  0  0
  5  7  1  0  0  0  0
  7  8  1  0  0  0  0
M  END
> <PUBCHEM_COMPOUND_ID_TYPE>
0

> <PUBCHEM_TOTAL_CHARGE>
0

> <PUBCHEM_SUBSTANCE_ID>
310933481

> <PUBCHEM_SUBSTANCE_VERSION>
1

> <PUBCHEM_EXT_DATASOURCE_NAME>
4488

> <PUBCHEM_EXT_DATASOURCE_REGID>
SCHEMBL16110901

> <PUBCHEM_SUBSTANCE_COMMENT>
InChI=1S/C3H6F3NO/c1-2(7)8-3(4,5)6/h2H,7H2,1H3
InChIKey=GRSCUMMTBFEBKQ-UHFFFAOYSA-N

> <PUBCHEM_SUBSTANCE_SYNONYM>
SCHEMBL16110901

> <PUBCHEM_XREF_EXT_ID>
SCHEMBL16110901

> <PUBCHEM_EXT_DATASOURCE_URL>
https://www.surechembl.org/

> <PUBCHEM_EXT_SUBSTANCE_URL>
https://www.surechembl.org/chemical/SCHEMBL16110901

> <PUBCHEM_CID_ASSOCIATIONS>
117601877  1

> <PUBCHEM_COORDINATE_TYPE>
1
3

$$$$
