310934743
  -OEChem-07211613022D

 37 42  0     1  0  0  0  0  0999 V2000
    3.5323   -4.8851    0.0000 O   0  0  0  0  0  0  0  0  0  0  0  0
    0.7140   -3.2692    0.0000 N   0  0  3  0  0  0  0  0  0  0  0  0
    0.0000   -2.0668    0.0000 N   0  0  0  0  0  0  0  0  0  0  0  0
    0.7140   -0.8267    0.0000 N   0  0  0  0  0  0  0  0  0  0  0  0
    4.9603   -6.5385    0.0000 N   0  0  0  0  0  0  0  0  0  0  0  0
    2.8559   -6.1251    0.0000 N   0  0  0  0  0  0  0  0  0  0  0  0
    3.6074   -3.2692    0.0000 N   0  0  0  0  0  0  0  0  0  0  0  0
    4.4342   -3.4572    0.0000 N   0  0  0  0  0  0  0  0  0  0  0  0
    1.4279   -2.0668    0.0000 C   0  0  0  0  0  0  0  0  0  0  0  0
    0.7140   -2.4426    0.0000 C   0  0  0  0  0  0  0  0  0  0  0  0
    1.4279   -1.2401    0.0000 C   0  0  0  0  0  0  0  0  0  0  0  0
    2.8183   -2.0292    0.0000 C   0  0  0  0  0  0  0  0  0  0  0  0
    2.1044   -0.8267    0.0000 C   0  0  0  0  0  0  0  0  0  0  0  0
    2.1044   -2.4426    0.0000 C   0  0  0  0  0  0  0  0  0  0  0  0
    1.4279   -4.5093    0.0000 C   0  0  0  0  0  0  0  0  0  0  0  0
    1.4279   -3.6826    0.0000 C   0  0  0  0  0  0  0  0  0  0  0  0
    0.7140   -4.9227    0.0000 C   0  0  0  0  0  0  0  0  0  0  0  0
    2.8183   -1.2401    0.0000 C   0  0  0  0  0  0  0  0  0  0  0  0
    0.0000   -3.6826    0.0000 C   0  0  0  0  0  0  0  0  0  0  0  0
    3.5323   -2.4426    0.0000 C   0  0  0  0  0  0  0  0  0  0  0  0
    4.2463   -6.1251    0.0000 C   0  0  0  0  0  0  0  0  0  0  0  0
    2.1419   -5.7118    0.0000 C   0  0  0  0  0  0  0  0  0  0  0  0
    2.1419   -4.8851    0.0000 C   0  0  0  0  0  0  0  0  0  0  0  0
    0.0000   -4.5093    0.0000 C   0  0  0  0  0  0  0  0  0  0  0  0
    0.0000   -1.2401    0.0000 C   0  0  0  0  0  0  0  0  0  0  0  0
    3.5323   -5.7118    0.0000 C   0  0  0  0  0  0  0  0  0  0  0  0
    0.7140   -5.7118    0.0000 C   0  0  0  0  0  0  0  0  0  0  0  0
    1.4279   -6.1251    0.0000 C   0  0  0  0  0  0  0  0  0  0  0  0
    2.1044    0.0000    0.0000 C   0  0  0  0  0  0  0  0  0  0  0  0
    4.2838   -2.1044    0.0000 C   0  0  0  0  0  0  0  0  0  0  0  0
    5.7494   -6.2003    0.0000 C   0  0  0  0  0  0  0  0  0  0  0  0
    5.0730   -7.3652    0.0000 C   0  0  0  0  0  0  0  0  0  0  0  0
    4.9603   -5.7118    0.0000 C   0  0  0  0  0  0  0  0  0  0  0  0
    4.2463   -6.9519    0.0000 C   0  0  0  0  0  0  0  0  0  0  0  0
    4.8099   -2.7432    0.0000 C   0  0  0  0  0  0  0  0  0  0  0  0
    6.2755   -6.8015    0.0000 C   0  0  0  0  0  0  0  0  0  0  0  0
    5.8621   -7.5155    0.0000 C   0  0  0  0  0  0  0  0  0  0  0  0
  1 26  2  0  0  0  0
  2 10  1  0  0  0  0
  2 16  1  0  0  0  0
  2 19  1  0  0  0  0
  3 10  1  0  0  0  0
  3 25  2  0  0  0  0
  4 11  2  0  0  0  0
  4 25  1  0  0  0  0
  5 21  1  0  0  0  0
  5 31  1  0  0  0  0
  5 32  1  0  0  0  0
  6 22  1  0  0  0  0
  6 26  1  0  0  0  0
  7  8  1  0  0  0  0
  7 20  1  0  0  0  0
  8 35  2  0  0  0  0
  9 10  2  0  0  0  0
  9 11  1  0  0  0  0
  9 14  1  0  0  0  0
 11 13  1  0  0  0  0
 12 14  2  0  0  0  0
 12 18  1  0  0  0  0
 12 20  1  0  0  0  0
 13 18  2  0  0  0  0
 13 29  1  0  0  0  0
 15 16  1  0  0  0  0
 15 17  2  0  0  0  0
 15 23  1  0  0  0  0
 17 24  1  0  0  0  0
 17 27  1  0  0  0  0
 19 24  1  0  0  0  0
 20 30  2  0  0  0  0
 21 26  1  0  0  0  0
 21 33  1  0  0  0  0
 21 34  1  0  0  0  0
 22 23  2  0  0  0  0
 22 28  1  0  0  0  0
 27 28  2  0  0  0  0
 30 35  1  0  0  0  0
 31 36  1  0  0  0  0
 32 37  1  0  0  0  0
 36 37  1  0  0  0  0
M  END
> <PUBCHEM_COMPOUND_ID_TYPE>
0

> <PUBCHEM_TOTAL_CHARGE>
0

> <PUBCHEM_SUBSTANCE_ID>
310934743

> <PUBCHEM_SUBSTANCE_VERSION>
1

> <PUBCHEM_EXT_DATASOURCE_NAME>
4488

> <PUBCHEM_EXT_DATASOURCE_REGID>
SCHEMBL16112244

> <PUBCHEM_SUBSTANCE_COMMENT>
InChI=1S/C29H33N7O/c1-19-14-21(25-8-10-32-34-25)16-24-26(19)30-18-31-27(24)35-13-9-20-6-7-23(15-22(20)17-35)33-28(37)29(2,3)36-11-4-5-12-36/h6-8,10,14-16,18H,4-5,9,11-13,17H2,1-3H3,(H,32,34)(H,33,37)
InChIKey=XWYKZJRKXWPHRZ-UHFFFAOYSA-N

> <PUBCHEM_SUBSTANCE_SYNONYM>
SCHEMBL16112244

> <PUBCHEM_XREF_EXT_ID>
SCHEMBL16112244

> <PUBCHEM_EXT_DATASOURCE_URL>
https://www.surechembl.org/

> <PUBCHEM_EXT_SUBSTANCE_URL>
https://www.surechembl.org/chemical/SCHEMBL16112244

> <PUBCHEM_CID_ASSOCIATIONS>
117602896  1

> <PUBCHEM_COORDINATE_TYPE>
1
3

$$$$
