310942889
  -OEChem-07211613022D

 44 46  0     1  0  0  0  0  0999 V2000
    2.5417    0.2007    0.0000 Cl  0  0  0  0  0  0  0  0  0  0  0  0
   -2.0290    2.6979    0.0000 Cl  0  0  0  0  0  0  0  0  0  0  0  0
    4.0133    2.6532    0.0000 S   0  0  0  0  0  0  0  0  0  0  0  0
    5.5517    1.8283    0.0000 S   0  0  0  0  0  0  0  0  0  0  0  0
    2.6086    3.5005    0.0000 F   0  0  0  0  0  0  0  0  0  0  0  0
    1.1148    1.0479    0.0000 O   0  0  0  0  0  0  0  0  0  0  0  0
    3.6120    3.3890    0.0000 O   0  0  0  0  0  0  0  0  0  0  0  0
    4.4147    1.9398    0.0000 O   0  0  0  0  0  0  0  0  0  0  0  0
   -3.1884   -1.4270    0.0000 O   0  0  0  0  0  0  0  0  0  0  0  0
   -4.6376   -1.4270    0.0000 O   0  0  0  0  0  0  0  0  0  0  0  0
   -2.4748   -0.2007    0.0000 O   0  0  0  0  0  0  0  0  0  0  0  0
   -1.0479   -3.5005    0.0000 O   0  0  0  0  0  0  0  0  0  0  0  0
   -0.3122   -2.2519    0.0000 O   0  0  0  0  0  0  0  0  0  0  0  0
   -5.3511   -0.2007    0.0000 O   0  0  0  0  0  0  0  0  0  0  0  0
    4.7491    3.0546    0.0000 N   0  0  0  0  0  0  0  0  0  0  0  0
    6.2206    2.9877    0.0000 N   0  0  0  0  0  0  0  0  0  0  0  0
   -1.7391   -1.4270    0.0000 N   0  0  0  0  0  0  0  0  0  0  0  0
    3.2998    2.2742    0.0000 C   0  0  0  0  0  0  0  0  0  0  0  0
    2.5641    2.6755    0.0000 C   0  0  0  0  0  0  0  0  0  0  0  0
    1.8506    1.4716    0.0000 C   0  0  0  0  0  0  0  0  0  0  0  0
    2.5641    1.0479    0.0000 C   0  0  0  0  0  0  0  0  0  0  0  0
    3.2775    1.4270    0.0000 C   0  0  0  0  0  0  0  0  0  0  0  0
    1.8729    2.2742    0.0000 C   0  0  0  0  0  0  0  0  0  0  0  0
    0.4013    1.4716    0.0000 C   0  0  0  0  0  0  0  0  0  0  0  0
    5.4625    2.6532    0.0000 C   0  0  0  0  0  0  0  0  0  0  0  0
   -0.3122    1.0479    0.0000 C   0  0  0  0  0  0  0  0  0  0  0  0
    0.4013    2.2742    0.0000 C   0  0  0  0  0  0  0  0  0  0  0  0
   -1.0256    1.4716    0.0000 C   0  0  0  0  0  0  0  0  0  0  0  0
   -1.0256    2.2965    0.0000 C   0  0  0  0  0  0  0  0  0  0  0  0
   -0.3122    0.2229    0.0000 C   0  0  0  0  0  0  0  0  0  0  0  0
   -0.3122    2.6979    0.0000 C   0  0  0  0  0  0  0  0  0  0  0  0
    6.3767    1.6722    0.0000 C   0  0  0  0  0  0  0  0  0  0  0  0
    6.7780    2.3857    0.0000 C   0  0  0  0  0  0  0  0  0  0  0  0
   -1.0034   -0.1784    0.0000 C   0  0  0  0  0  0  0  0  0  0  0  0
   -1.0479   -1.0256    0.0000 C   0  0  0  0  0  0  0  0  0  0  0  0
   -2.4972   -1.0256    0.0000 C   0  0  0  0  0  0  0  0  0  0  0  0
   -1.7391   -2.2519    0.0000 C   0  0  0  0  0  0  0  0  0  0  0  0
   -3.9242   -1.0034    0.0000 C   0  0  3  0  0  0  0  0  0  0  0  0
   -1.0256   -2.6532    0.0000 C   0  0  0  0  0  0  0  0  0  0  0  0
   -5.3511   -1.0256    0.0000 C   0  0  0  0  0  0  0  0  0  0  0  0
   -6.0646   -1.4270    0.0000 C   0  0  0  0  0  0  0  0  0  0  0  0
   -3.9242   -0.1784    0.0000 C   0  0  0  0  0  0  0  0  0  0  0  0
   -6.7780   -1.0479    0.0000 C   0  0  0  0  0  0  0  0  0  0  0  0
   -6.0423   -2.2742    0.0000 C   0  0  0  0  0  0  0  0  0  0  0  0
  1 21  1  0  0  0  0
  2 29  1  0  0  0  0
  3  7  2  0  0  0  0
  3  8  2  0  0  0  0
  3 15  1  0  0  0  0
  3 18  1  0  0  0  0
  4 25  1  0  0  0  0
  4 32  1  0  0  0  0
  5 19  1  0  0  0  0
  6 20  1  0  0  0  0
  6 24  1  0  0  0  0
  9 36  1  0  0  0  0
  9 38  1  0  0  0  0
 10 38  1  0  0  0  0
 10 40  1  0  0  0  0
 11 36  2  0  0  0  0
 12 39  2  0  0  0  0
 13 39  1  0  0  0  0
 14 40  2  0  0  0  0
 15 25  1  0  0  0  0
 16 25  2  0  0  0  0
 16 33  1  0  0  0  0
 17 35  1  0  0  0  0
 17 36  1  0  0  0  0
 17 37  1  0  0  0  0
 18 19  1  0  0  0  0
 18 22  2  0  0  0  0
 19 23  2  0  0  0  0
 20 21  2  0  0  0  0
 20 23  1  0  0  0  0
 21 22  1  0  0  0  0
 24 26  1  0  0  0  0
 24 27  2  0  0  0  0
 26 28  2  0  0  0  0
 26 30  1  0  0  0  0
 27 31  1  0  0  0  0
 28 29  1  0  0  0  0
 29 31  2  0  0  0  0
 30 34  1  0  0  0  0
 32 33  2  0  0  0  0
 34 35  1  0  0  0  0
 37 39  1  0  0  0  0
 38 42  1  0  0  0  0
 40 41  1  0  0  0  0
 41 43  1  0  0  0  0
 41 44  1  0  0  0  0
M  END
> <PUBCHEM_COMPOUND_ID_TYPE>
0

> <PUBCHEM_TOTAL_CHARGE>
0

> <PUBCHEM_SUBSTANCE_ID>
310942889

> <PUBCHEM_SUBSTANCE_VERSION>
1

> <PUBCHEM_EXT_DATASOURCE_NAME>
4488

> <PUBCHEM_EXT_DATASOURCE_REGID>
SCHEMBL16120947

> <PUBCHEM_SUBSTANCE_COMMENT>
InChI=1S/C27H28Cl2FN3O9S2/c1-15(2)25(36)40-16(3)41-27(37)33(14-24(34)35)9-4-5-17-11-18(28)6-7-21(17)42-22-13-20(30)23(12-19(22)29)44(38,39)32-26-31-8-10-43-26/h6-8,10-13,15-16H,4-5,9,14H2,1-3H3,(H,31,32)(H,34,35)
InChIKey=HKBJKKBTMCBLDY-UHFFFAOYSA-N

> <PUBCHEM_SUBSTANCE_SYNONYM>
SCHEMBL16120947

> <PUBCHEM_XREF_EXT_ID>
SCHEMBL16120947

> <PUBCHEM_EXT_DATASOURCE_URL>
https://www.surechembl.org/

> <PUBCHEM_EXT_SUBSTANCE_URL>
https://www.surechembl.org/chemical/SCHEMBL16120947

> <PUBCHEM_CID_ASSOCIATIONS>
117609375  1

> <PUBCHEM_COORDINATE_TYPE>
1
3

$$$$
