310946777
  -OEChem-07211613022D

 20 22  0     1  0  0  0  0  0999 V2000
    1.8563    2.7519    0.0000 S   0  0  0  0  0  0  0  0  0  0  0  0
   -1.8563    1.5144    0.0000 N   0  0  0  0  0  0  0  0  0  0  0  0
    1.8563    1.4170    0.0000 N   0  0  0  0  0  0  0  0  0  0  0  0
   -2.3413    0.8469    0.0000 N   0  0  0  0  0  0  0  0  0  0  0  0
   -0.7019   -0.9458    0.0000 N   0  0  3  0  0  0  0  0  0  0  0  0
    0.2513   -2.9094    0.0000 N   0  0  0  0  0  0  0  0  0  0  0  0
   -1.0717    1.2594    0.0000 C   0  0  0  0  0  0  0  0  0  0  0  0
   -0.3572    1.6719    0.0000 C   0  0  0  0  0  0  0  0  0  0  0  0
    1.0717    1.6719    0.0000 C   0  0  0  0  0  0  0  0  0  0  0  0
   -1.0717    0.4344    0.0000 C   0  0  0  0  0  0  0  0  0  0  0  0
    1.0717    2.4969    0.0000 C   0  0  0  0  0  0  0  0  0  0  0  0
    0.3572    1.2594    0.0000 C   0  0  0  0  0  0  0  0  0  0  0  0
   -0.3572    2.4969    0.0000 C   0  0  0  0  0  0  0  0  0  0  0  0
    0.3572    2.9094    0.0000 C   0  0  0  0  0  0  0  0  0  0  0  0
   -1.8563    0.1795    0.0000 C   0  0  0  0  0  0  0  0  0  0  0  0
   -0.4883   -0.1489    0.0000 C   0  0  0  0  0  0  0  0  0  0  0  0
    2.3413    2.0844    0.0000 C   0  0  0  0  0  0  0  0  0  0  0  0
   -0.1185   -1.5292    0.0000 C   0  0  0  0  0  0  0  0  0  0  0  0
   -1.4988   -1.1593    0.0000 C   0  0  0  0  0  0  0  0  0  0  0  0
   -0.3320   -2.3261    0.0000 C   0  0  0  0  0  0  0  0  0  0  0  0
  1 11  1  0  0  0  0
  1 17  1  0  0  0  0
  2  4  1  0  0  0  0
  2  7  2  0  0  0  0
  3  9  1  0  0  0  0
  3 17  2  0  0  0  0
  4 15  1  0  0  0  0
  5 16  1  0  0  0  0
  5 18  1  0  0  0  0
  5 19  1  0  0  0  0
  6 20  1  0  0  0  0
  7  8  1  0  0  0  0
  7 10  1  0  0  0  0
  8 12  1  0  0  0  0
  8 13  2  0  0  0  0
  9 11  1  0  0  0  0
  9 12  2  0  0  0  0
 10 15  2  0  0  0  0
 10 16  1  0  0  0  0
 11 14  2  0  0  0  0
 13 14  1  0  0  0  0
 18 20  1  0  0  0  0
M  END
> <PUBCHEM_COMPOUND_ID_TYPE>
0

> <PUBCHEM_TOTAL_CHARGE>
0

> <PUBCHEM_SUBSTANCE_ID>
310946777

> <PUBCHEM_SUBSTANCE_VERSION>
1

> <PUBCHEM_EXT_DATASOURCE_NAME>
4488

> <PUBCHEM_EXT_DATASOURCE_REGID>
SCHEMBL16124901

> <PUBCHEM_SUBSTANCE_COMMENT>
InChI=1S/C14H17N5S/c1-19(5-4-15)8-11-7-17-18-14(11)10-2-3-13-12(6-10)16-9-20-13/h2-3,6-7,9H,4-5,8,15H2,1H3,(H,17,18)
InChIKey=KYVJQKAFVFPHBV-UHFFFAOYSA-N

> <PUBCHEM_SUBSTANCE_SYNONYM>
SCHEMBL16124901

> <PUBCHEM_XREF_EXT_ID>
SCHEMBL16124901

> <PUBCHEM_EXT_DATASOURCE_URL>
https://www.surechembl.org/

> <PUBCHEM_EXT_SUBSTANCE_URL>
https://www.surechembl.org/chemical/SCHEMBL16124901

> <PUBCHEM_CID_ASSOCIATIONS>
86295713  1

> <PUBCHEM_COORDINATE_TYPE>
1
3

$$$$
