310937024
  -OEChem-07211613022D

 26 29  0     1  0  0  0  0  0999 V2000
    3.1345   -2.9238    0.0000 O   0  0  0  0  0  0  0  0  0  0  0  0
    7.2172   -2.2125    0.0000 O   0  0  0  0  0  0  0  0  0  0  0  0
    5.9529   -1.8175    0.0000 N   0  0  0  0  0  0  0  0  0  0  0  0
    5.3998   -3.8984    0.0000 N   0  0  0  0  0  0  0  0  0  0  0  0
    6.7431   -2.8974    0.0000 N   0  0  0  0  0  0  0  0  0  0  0  0
    1.2117   -3.8457    0.0000 N   0  0  3  0  0  0  0  0  0  0  0  0
    3.9774   -4.0564    0.0000 C   0  0  0  0  0  0  0  0  0  0  0  0
    3.8984   -3.2662    0.0000 C   0  0  0  0  0  0  0  0  0  0  0  0
    5.2944   -3.1082    0.0000 C   0  0  0  0  0  0  0  0  0  0  0  0
    5.9529   -2.6340    0.0000 C   0  0  0  0  0  0  0  0  0  0  0  0
    3.3189   -4.5305    0.0000 C   0  0  0  0  0  0  0  0  0  0  0  0
    4.5568   -2.7394    0.0000 C   0  0  0  0  0  0  0  0  0  0  0  0
    6.7431   -1.5541    0.0000 C   0  0  0  0  0  0  0  0  0  0  0  0
    4.7149   -4.3988    0.0000 C   0  0  0  0  0  0  0  0  0  0  0  0
    7.0065   -0.7639    0.0000 C   0  0  0  0  0  0  0  0  0  0  0  0
    2.9764   -5.2680    0.0000 C   0  0  0  0  0  0  0  0  0  0  0  0
    2.4760   -4.6096    0.0000 C   0  0  0  0  0  0  0  0  0  0  0  0
    2.4760   -3.4242    0.0000 C   0  0  3  0  0  0  0  0  0  0  0  0
    1.6857   -3.1872    0.0000 C   0  0  0  0  0  0  0  0  0  0  0  0
    2.5023   -4.2408    0.0000 C   0  0  0  0  0  0  0  0  0  0  0  0
    1.7121   -4.5042    0.0000 C   0  0  0  0  0  0  0  0  0  0  0  0
    7.7967   -1.0273    0.0000 C   0  0  0  0  0  0  0  0  0  0  0  0
    7.2436    0.0000    0.0000 C   0  0  0  0  0  0  0  0  0  0  0  0
    6.2163   -0.5268    0.0000 C   0  0  0  0  0  0  0  0  0  0  0  0
    0.4215   -3.8720    0.0000 C   0  0  0  0  0  0  0  0  0  0  0  0
    0.0000   -4.5832    0.0000 C   0  0  0  0  0  0  0  0  0  0  0  0
  1  8  1  0  0  0  0
  1 18  1  0  0  0  0
  2  5  1  0  0  0  0
  2 13  1  0  0  0  0
  3 10  1  0  0  0  0
  3 13  2  0  0  0  0
  4  9  1  0  0  0  0
  4 14  2  0  0  0  0
  5 10  2  0  0  0  0
  6 19  1  0  0  0  0
  6 21  1  0  0  0  0
  6 25  1  0  0  0  0
  7  8  2  0  0  0  0
  7 11  1  0  0  0  0
  7 14  1  0  0  0  0
  8 12  1  0  0  0  0
  9 10  1  0  0  0  0
  9 12  2  0  0  0  0
 11 16  1  0  0  0  0
 11 17  1  0  0  0  0
 13 15  1  0  0  0  0
 15 22  1  0  0  0  0
 15 23  1  0  0  0  0
 15 24  1  0  0  0  0
 16 17  1  0  0  0  0
 18 19  1  0  0  0  0
 18 20  1  0  0  0  0
 20 21  1  0  0  0  0
 25 26  1  0  0  0  0
M  END
> <PUBCHEM_COMPOUND_ID_TYPE>
0

> <PUBCHEM_TOTAL_CHARGE>
0

> <PUBCHEM_SUBSTANCE_ID>
310937024

> <PUBCHEM_SUBSTANCE_VERSION>
1

> <PUBCHEM_EXT_DATASOURCE_NAME>
4488

> <PUBCHEM_EXT_DATASOURCE_REGID>
SCHEMBL16114733

> <PUBCHEM_SUBSTANCE_COMMENT>
InChI=1S/C20H28N4O2/c1-5-24-9-8-14(12-24)25-17-10-16(21-11-15(17)13-6-7-13)18-22-19(26-23-18)20(2,3)4/h10-11,13-14H,5-9,12H2,1-4H3
InChIKey=CXONGJWNQWOHDR-UHFFFAOYSA-N

> <PUBCHEM_SUBSTANCE_SYNONYM>
SCHEMBL16114733

> <PUBCHEM_XREF_EXT_ID>
SCHEMBL16114733

> <PUBCHEM_EXT_DATASOURCE_URL>
https://www.surechembl.org/

> <PUBCHEM_EXT_SUBSTANCE_URL>
https://www.surechembl.org/chemical/SCHEMBL16114733

> <PUBCHEM_CID_ASSOCIATIONS>
86276075  1

> <PUBCHEM_COORDINATE_TYPE>
1
3

$$$$
