310932075
  -OEChem-07211613022D

 31 34  0     1  0  0  0  0  0999 V2000
    4.0207   -2.7431    0.0000 O   0  0  0  0  0  0  0  0  0  0  0  0
    8.5299   -2.8558    0.0000 O   0  0  0  0  0  0  0  0  0  0  0  0
   10.7093   -4.1334    0.0000 O   0  0  0  0  0  0  0  0  0  0  0  0
    4.9226   -1.6158    0.0000 N   0  0  0  0  0  0  0  0  0  0  0  0
    4.8474   -0.7891    0.0000 N   0  0  0  0  0  0  0  0  0  0  0  0
    6.3880   -1.6158    0.0000 N   0  0  0  0  0  0  0  0  0  0  0  0
    7.8159   -4.0958    0.0000 N   0  0  0  0  0  0  0  0  0  0  0  0
    0.0000   -2.4800    0.0000 N   0  0  0  0  0  0  0  0  0  0  0  0
    3.6074   -1.3528    0.0000 C   0  0  0  0  0  0  0  0  0  0  0  0
    4.2086   -1.9540    0.0000 C   0  0  0  0  0  0  0  0  0  0  0  0
    2.8182   -1.4279    0.0000 C   0  0  0  0  0  0  0  0  0  0  0  0
    5.6741   -2.0291    0.0000 C   0  0  0  0  0  0  0  0  0  0  0  0
    4.0207   -0.6388    0.0000 C   0  0  0  0  0  0  0  0  0  0  0  0
    2.2922   -0.7515    0.0000 C   0  0  0  0  0  0  0  0  0  0  0  0
    2.4800   -2.1794    0.0000 C   0  0  0  0  0  0  0  0  0  0  0  0
    5.6741   -2.8558    0.0000 C   0  0  0  0  0  0  0  0  0  0  0  0
    7.1020   -2.8558    0.0000 C   0  0  0  0  0  0  0  0  0  0  0  0
    1.5031   -0.8643    0.0000 C   0  0  0  0  0  0  0  0  0  0  0  0
    1.1649   -1.6158    0.0000 C   0  0  0  0  0  0  0  0  0  0  0  0
    7.1020   -2.0291    0.0000 C   0  0  0  0  0  0  0  0  0  0  0  0
    6.3880   -3.2316    0.0000 C   0  0  0  0  0  0  0  0  0  0  0  0
    1.6534   -2.2922    0.0000 C   0  0  0  0  0  0  0  0  0  0  0  0
    7.8159   -3.2316    0.0000 C   0  0  0  0  0  0  0  0  0  0  0  0
    2.6304    0.0000    0.0000 C   0  0  0  0  0  0  0  0  0  0  0  0
    0.3382   -1.6909    0.0000 C   0  0  0  0  0  0  0  0  0  0  0  0
    8.5299   -4.5092    0.0000 C   0  0  0  0  0  0  0  0  0  0  0  0
    9.9578   -4.4716    0.0000 C   0  0  3  0  0  0  0  0  0  0  0  0
    9.2438   -4.0583    0.0000 C   0  0  0  0  0  0  0  0  0  0  0  0
   10.0329   -5.2983    0.0000 C   0  0  0  0  0  0  0  0  0  0  0  0
   11.2730   -4.7722    0.0000 C   0  0  0  0  0  0  0  0  0  0  0  0
   10.8596   -5.4862    0.0000 C   0  0  0  0  0  0  0  0  0  0  0  0
  1 10  1  0  0  0  0
  2 23  2  0  0  0  0
  3 27  1  0  0  0  0
  3 30  1  0  0  0  0
  4  5  1  0  0  0  0
  4 10  1  0  0  0  0
  4 12  1  0  0  0  0
  5 13  2  0  0  0  0
  6 12  2  0  0  0  0
  6 20  1  0  0  0  0
  7 23  1  0  0  0  0
  7 26  1  0  0  0  0
  8 25  3  0  0  0  0
  9 10  2  0  0  0  0
  9 11  1  0  0  0  0
  9 13  1  0  0  0  0
 11 14  1  0  0  0  0
 11 15  2  0  0  0  0
 12 16  1  0  0  0  0
 14 18  2  0  0  0  0
 14 24  1  0  0  0  0
 15 22  1  0  0  0  0
 16 21  2  0  0  0  0
 17 20  2  0  0  0  0
 17 21  1  0  0  0  0
 17 23  1  0  0  0  0
 18 19  1  0  0  0  0
 19 22  2  0  0  0  0
 19 25  1  0  0  0  0
 26 28  1  0  0  0  0
 27 28  1  0  0  0  0
 27 29  1  0  0  0  0
 29 31  1  0  0  0  0
 30 31  1  0  0  0  0
M  END
> <PUBCHEM_COMPOUND_ID_TYPE>
0

> <PUBCHEM_TOTAL_CHARGE>
0

> <PUBCHEM_SUBSTANCE_ID>
310932075

> <PUBCHEM_SUBSTANCE_VERSION>
1

> <PUBCHEM_EXT_DATASOURCE_NAME>
4488

> <PUBCHEM_EXT_DATASOURCE_REGID>
SCHEMBL16109422

> <PUBCHEM_SUBSTANCE_COMMENT>
InChI=1S/C23H23N5O3/c1-15-11-16(12-24)4-6-19(15)20-14-27-28(23(20)30)21-7-5-17(13-26-21)22(29)25-9-8-18-3-2-10-31-18/h4-7,11,13-14,18,30H,2-3,8-10H2,1H3,(H,25,29)
InChIKey=DAMROYKIVIBQGS-UHFFFAOYSA-N

> <PUBCHEM_SUBSTANCE_SYNONYM>
SCHEMBL16109422

> <PUBCHEM_XREF_EXT_ID>
SCHEMBL16109422

> <PUBCHEM_EXT_DATASOURCE_URL>
https://www.surechembl.org/

> <PUBCHEM_EXT_SUBSTANCE_URL>
https://www.surechembl.org/chemical/SCHEMBL16109422

> <PUBCHEM_CID_ASSOCIATIONS>
117600702  1

> <PUBCHEM_COORDINATE_TYPE>
1
3

$$$$
