310931749
  -OEChem-07211613022D

 55 60  0     1  0  0  0  0  0999 V2000
   -5.7158    3.8786    0.0000 S   0  0  0  0  0  0  0  0  0  0  0  0
   -5.6687    2.1562    0.0000 S   0  0  0  0  0  0  0  0  0  0  0  0
   -5.7158    5.5286    0.0000 F   0  0  0  0  0  0  0  0  0  0  0  0
   -8.5737    3.8786    0.0000 F   0  0  0  0  0  0  0  0  0  0  0  0
   -9.2881    4.2911    0.0000 F   0  0  0  0  0  0  0  0  0  0  0  0
  -12.1460    2.6411    0.0000 F   0  0  0  0  0  0  0  0  0  0  0  0
  -10.7171    1.8161    0.0000 F   0  0  0  0  0  0  0  0  0  0  0  0
   -6.1283    3.1641    0.0000 O   0  0  0  0  0  0  0  0  0  0  0  0
   -5.3033    4.5930    0.0000 O   0  0  0  0  0  0  0  0  0  0  0  0
   -8.5737    5.5286    0.0000 O   0  0  0  0  0  0  0  0  0  0  0  0
   -2.8579    4.7036    0.0000 O   0  0  0  0  0  0  0  0  0  0  0  0
  -12.1460    6.7661    0.0000 O   0  0  0  0  0  0  0  0  0  0  0  0
   -1.4289    2.2286    0.0000 O   0  0  0  0  0  0  0  0  0  0  0  0
  -13.5749    9.2411    0.0000 O   0  0  0  0  0  0  0  0  0  0  0  0
   -5.0013    3.4661    0.0000 N   0  0  0  0  0  0  0  0  0  0  0  0
   -4.3339    2.1562    0.0000 N   0  0  0  0  0  0  0  0  0  0  0  0
  -10.7171    6.7661    0.0000 N   0  0  0  0  0  0  0  0  0  0  0  0
   -5.4138    1.3715    0.0000 N   0  0  0  0  0  0  0  0  0  0  0  0
   -6.4302    4.2911    0.0000 C   0  0  0  0  0  0  0  0  0  0  0  0
   -6.4302    5.1161    0.0000 C   0  0  0  0  0  0  0  0  0  0  0  0
   -5.0013    2.6411    0.0000 C   0  0  0  0  0  0  0  0  0  0  0  0
   -7.1447    3.8786    0.0000 C   0  0  0  0  0  0  0  0  0  0  0  0
   -7.8592    5.1161    0.0000 C   0  0  0  0  0  0  0  0  0  0  0  0
   -7.8592    4.2911    0.0000 C   0  0  0  0  0  0  0  0  0  0  0  0
   -4.2868    3.8786    0.0000 C   0  0  0  0  0  0  0  0  0  0  0  0
   -7.1447    5.5286    0.0000 C   0  0  0  0  0  0  0  0  0  0  0  0
  -10.7171    5.1161    0.0000 C   0  0  3  0  0  0  0  0  0  0  0  0
  -10.0026    5.5286    0.0000 C   0  0  3  0  0  0  0  0  0  0  0  0
   -3.5724    3.4661    0.0000 C   0  0  0  0  0  0  0  0  0  0  0  0
  -10.7171    4.2911    0.0000 C   0  0  0  0  0  0  0  0  0  0  0  0
   -9.2881    5.1161    0.0000 C   0  0  0  0  0  0  0  0  0  0  0  0
   -2.8579    3.8786    0.0000 C   0  0  0  0  0  0  0  0  0  0  0  0
  -11.4315    5.5286    0.0000 C   0  0  0  0  0  0  0  0  0  0  0  0
  -10.0026    6.3536    0.0000 C   0  0  0  0  0  0  0  0  0  0  0  0
  -11.4315    6.3536    0.0000 C   0  0  0  0  0  0  0  0  0  0  0  0
  -10.0026    3.8786    0.0000 C   0  0  0  0  0  0  0  0  0  0  0  0
  -11.4315    3.8786    0.0000 C   0  0  0  0  0  0  0  0  0  0  0  0
   -3.5724    2.6411    0.0000 C   0  0  0  0  0  0  0  0  0  0  0  0
   -4.5888    1.3715    0.0000 C   0  0  0  0  0  0  0  0  0  0  0  0
  -11.4315    3.0536    0.0000 C   0  0  0  0  0  0  0  0  0  0  0  0
  -10.7171    2.6411    0.0000 C   0  0  0  0  0  0  0  0  0  0  0  0
  -10.0026    3.0536    0.0000 C   0  0  0  0  0  0  0  0  0  0  0  0
   -2.1434    3.4661    0.0000 C   0  0  0  0  0  0  0  0  0  0  0  0
   -2.1434    2.6411    0.0000 C   0  0  0  0  0  0  0  0  0  0  0  0
  -10.7171    7.5911    0.0000 C   0  0  0  0  0  0  0  0  0  0  0  0
   -2.8579    2.2286    0.0000 C   0  0  0  0  0  0  0  0  0  0  0  0
  -11.4315    8.0036    0.0000 C   0  0  0  0  0  0  0  0  0  0  0  0
  -11.4315    8.8286    0.0000 C   0  0  0  0  0  0  0  0  0  0  0  0
  -12.1460    7.5911    0.0000 C   0  0  0  0  0  0  0  0  0  0  0  0
   -2.1434    5.1161    0.0000 C   0  0  0  0  0  0  0  0  0  0  0  0
  -12.8605    8.8286    0.0000 C   0  0  0  0  0  0  0  0  0  0  0  0
  -12.1460    9.2411    0.0000 C   0  0  0  0  0  0  0  0  0  0  0  0
  -12.8605    8.0036    0.0000 C   0  0  0  0  0  0  0  0  0  0  0  0
   -0.7145    2.6411    0.0000 C   0  0  0  0  0  0  0  0  0  0  0  0
  -14.2894    8.8286    0.0000 C   0  0  0  0  0  0  0  0  0  0  0  0
  1  8  2  0  0  0  0
  1  9  2  0  0  0  0
  1 15  1  0  0  0  0
  1 19  1  0  0  0  0
  2 18  1  0  0  0  0
  2 21  1  0  0  0  0
  3 20  1  0  0  0  0
  4 24  1  0  0  0  0
  5 36  1  0  0  0  0
  6 40  1  0  0  0  0
  7 41  1  0  0  0  0
 10 23  1  0  0  0  0
 10 31  1  0  0  0  0
 11 32  1  0  0  0  0
 11 50  1  0  0  0  0
 12 35  2  0  0  0  0
 13 44  1  0  0  0  0
 13 54  1  0  0  0  0
 14 51  1  0  0  0  0
 14 55  1  0  0  0  0
 15 21  1  0  0  0  0
 15 25  1  0  0  0  0
 16 21  2  0  0  0  0
 16 39  1  0  0  0  0
 17 34  1  0  0  0  0
 17 35  1  0  0  0  0
 17 45  1  0  0  0  0
 18 39  2  0  0  0  0
 19 20  2  0  0  0  0
 19 22  1  0  0  0  0
 20 26  1  0  0  0  0
 22 24  2  0  0  0  0
 23 24  1  0  0  0  0
 23 26  2  0  0  0  0
 25 29  1  0  0  0  0
 27 28  1  0  0  0  0
 27 30  1  0  0  0  0
 27 33  1  0  0  0  0
 28 31  1  0  0  0  0
 28 34  1  0  0  0  0
 29 32  2  0  0  0  0
 29 38  1  0  0  0  0
 30 36  2  0  0  0  0
 30 37  1  0  0  0  0
 32 43  1  0  0  0  0
 33 35  1  0  0  0  0
 36 42  1  0  0  0  0
 37 40  2  0  0  0  0
 38 46  2  0  0  0  0
 40 41  1  0  0  0  0
 41 42  2  0  0  0  0
 43 44  2  0  0  0  0
 44 46  1  0  0  0  0
 45 47  1  0  0  0  0
 47 48  2  0  0  0  0
 47 49  1  0  0  0  0
 48 52  1  0  0  0  0
 49 53  2  0  0  0  0
 51 52  2  0  0  0  0
 51 53  1  0  0  0  0
M  END
> <PUBCHEM_COMPOUND_ID_TYPE>
0

> <PUBCHEM_TOTAL_CHARGE>
0

> <PUBCHEM_SUBSTANCE_ID>
310931749

> <PUBCHEM_SUBSTANCE_VERSION>
1

> <PUBCHEM_EXT_DATASOURCE_NAME>
4488

> <PUBCHEM_EXT_DATASOURCE_REGID>
SCHEMBL16109078

> <PUBCHEM_SUBSTANCE_COMMENT>
InChI=1S/C37H33F5N4O7S2/c1-50-24-7-4-21(5-8-24)16-45-17-23(26(12-36(45)47)27-11-29(39)30(40)13-28(27)38)19-53-34-14-32(42)35(15-31(34)41)55(48,49)46(37-43-20-44-54-37)18-22-6-9-25(51-2)10-33(22)52-3/h4-11,13-15,20,23,26H,12,16-19H2,1-3H3
InChIKey=QDLPEFIKKRAKIW-UHFFFAOYSA-N

> <PUBCHEM_SUBSTANCE_SYNONYM>
SCHEMBL16109078

> <PUBCHEM_XREF_EXT_ID>
SCHEMBL16109078

> <PUBCHEM_EXT_DATASOURCE_URL>
https://www.surechembl.org/

> <PUBCHEM_EXT_SUBSTANCE_URL>
https://www.surechembl.org/chemical/SCHEMBL16109078

> <PUBCHEM_CID_ASSOCIATIONS>
117600440  1

> <PUBCHEM_COORDINATE_TYPE>
1
3

$$$$
