310938661
  -OEChem-07211613022D

 34 38  0     1  0  0  0  0  0999 V2000
   -4.6441   -0.7858    0.0000 Cl  0  0  0  0  0  0  0  0  0  0  0  0
   -1.0717   -1.1983    0.0000 O   0  0  0  0  0  0  0  0  0  0  0  0
   -0.3572   -2.4358    0.0000 O   0  0  0  0  0  0  0  0  0  0  0  0
   -4.6441   -3.2608    0.0000 O   0  0  0  0  0  0  0  0  0  0  0  0
    4.6441   -1.1983    0.0000 O   0  0  0  0  0  0  0  0  0  0  0  0
    0.3572    1.2767    0.0000 N   0  0  0  0  0  0  0  0  0  0  0  0
   -0.3572    0.0392    0.0000 N   0  0  0  0  0  0  0  0  0  0  0  0
    1.0717    0.0392    0.0000 N   0  0  0  0  0  0  0  0  0  0  0  0
    1.0717   -2.4358    0.0000 N   0  0  0  0  0  0  0  0  0  0  0  0
    3.2151   -2.0233    0.0000 N   0  0  0  0  0  0  0  0  0  0  0  0
    0.7697    2.5463    0.0000 C   0  0  3  0  0  0  0  0  0  0  0  0
   -0.0553    2.5463    0.0000 C   0  0  3  0  0  0  0  0  0  0  0  0
    0.3572    3.2608    0.0000 C   0  0  0  0  0  0  0  0  0  0  0  0
    1.0247    1.7617    0.0000 C   0  0  0  0  0  0  0  0  0  0  0  0
   -0.3102    1.7617    0.0000 C   0  0  0  0  0  0  0  0  0  0  0  0
    0.3572    0.4517    0.0000 C   0  0  0  0  0  0  0  0  0  0  0  0
   -0.3572   -0.7858    0.0000 C   0  0  0  0  0  0  0  0  0  0  0  0
    0.3572   -1.1983    0.0000 C   0  0  0  0  0  0  0  0  0  0  0  0
    1.0717   -0.7858    0.0000 C   0  0  0  0  0  0  0  0  0  0  0  0
    0.3572   -2.0233    0.0000 C   0  0  0  0  0  0  0  0  0  0  0  0
   -1.7862   -0.7858    0.0000 C   0  0  0  0  0  0  0  0  0  0  0  0
   -2.5006   -1.1983    0.0000 C   0  0  0  0  0  0  0  0  0  0  0  0
   -3.2151   -0.7858    0.0000 C   0  0  0  0  0  0  0  0  0  0  0  0
   -3.9296   -1.1983    0.0000 C   0  0  0  0  0  0  0  0  0  0  0  0
   -3.9296   -2.0233    0.0000 C   0  0  0  0  0  0  0  0  0  0  0  0
   -2.5006   -2.0233    0.0000 C   0  0  0  0  0  0  0  0  0  0  0  0
   -3.2151   -2.4358    0.0000 C   0  0  0  0  0  0  0  0  0  0  0  0
    1.7862   -2.0233    0.0000 C   0  0  0  0  0  0  0  0  0  0  0  0
    2.5006   -2.4358    0.0000 C   0  0  0  0  0  0  0  0  0  0  0  0
   -4.6441   -2.4358    0.0000 C   0  0  0  0  0  0  0  0  0  0  0  0
    3.9296   -2.4358    0.0000 C   0  0  0  0  0  0  0  0  0  0  0  0
    3.2151   -1.1983    0.0000 C   0  0  0  0  0  0  0  0  0  0  0  0
    4.6441   -2.0233    0.0000 C   0  0  0  0  0  0  0  0  0  0  0  0
    3.9296   -0.7858    0.0000 C   0  0  0  0  0  0  0  0  0  0  0  0
  1 24  1  0  0  0  0
  2 17  1  0  0  0  0
  2 21  1  0  0  0  0
  3 20  2  0  0  0  0
  4 30  1  0  0  0  0
  5 33  1  0  0  0  0
  5 34  1  0  0  0  0
  6 14  1  0  0  0  0
  6 15  1  0  0  0  0
  6 16  1  0  0  0  0
  7 16  1  0  0  0  0
  7 17  2  0  0  0  0
  8 16  2  0  0  0  0
  8 19  1  0  0  0  0
  9 20  1  0  0  0  0
  9 28  1  0  0  0  0
 10 29  1  0  0  0  0
 10 31  1  0  0  0  0
 10 32  1  0  0  0  0
 11 12  1  0  0  0  0
 11 13  1  0  0  0  0
 11 14  1  0  0  0  0
 12 13  1  0  0  0  0
 12 15  1  0  0  0  0
 17 18  1  0  0  0  0
 18 19  2  0  0  0  0
 18 20  1  0  0  0  0
 21 22  1  0  0  0  0
 22 23  2  0  0  0  0
 22 26  1  0  0  0  0
 23 24  1  0  0  0  0
 24 25  2  0  0  0  0
 25 27  1  0  0  0  0
 25 30  1  0  0  0  0
 26 27  2  0  0  0  0
 28 29  1  0  0  0  0
 31 33  1  0  0  0  0
 32 34  1  0  0  0  0
M  END
> <PUBCHEM_COMPOUND_ID_TYPE>
0

> <PUBCHEM_TOTAL_CHARGE>
0

> <PUBCHEM_SUBSTANCE_ID>
310938661

> <PUBCHEM_SUBSTANCE_VERSION>
1

> <PUBCHEM_EXT_DATASOURCE_NAME>
4488

> <PUBCHEM_EXT_DATASOURCE_REGID>
SCHEMBL16116575

> <PUBCHEM_SUBSTANCE_COMMENT>
InChI=1S/C24H30ClN5O4/c25-21-9-16(1-2-17(21)14-31)15-34-23-20(22(32)26-3-4-29-5-7-33-8-6-29)11-27-24(28-23)30-12-18-10-19(18)13-30/h1-2,9,11,18-19,31H,3-8,10,12-15H2,(H,26,32)
InChIKey=BZVSRDJWQNIZOQ-UHFFFAOYSA-N

> <PUBCHEM_SUBSTANCE_SYNONYM>
SCHEMBL16116575

> <PUBCHEM_XREF_EXT_ID>
SCHEMBL16116575

> <PUBCHEM_EXT_DATASOURCE_URL>
https://www.surechembl.org/

> <PUBCHEM_EXT_SUBSTANCE_URL>
https://www.surechembl.org/chemical/SCHEMBL16116575

> <PUBCHEM_CID_ASSOCIATIONS>
117606093  1

> <PUBCHEM_COORDINATE_TYPE>
1
3

$$$$
