310947667
  -OEChem-07211613022D

 41 43  0     1  0  0  0  0  0999 V2000
    0.2775   -3.2024    0.0000 F   0  0  0  0  0  0  0  0  0  0  0  0
    1.4045   -3.5044    0.0000 F   0  0  0  0  0  0  0  0  0  0  0  0
    1.7065   -2.3774    0.0000 F   0  0  0  0  0  0  0  0  0  0  0  0
   -0.5702   -1.7313    0.0000 O   0  0  0  0  0  0  0  0  0  0  0  0
    0.9920    0.0679    0.0000 O   0  0  0  0  0  0  0  0  0  0  0  0
    0.7160    0.7408    0.0000 O   0  0  0  0  0  0  0  0  0  0  0  0
    3.0545   -0.6465    0.0000 O   0  0  0  0  0  0  0  0  0  0  0  0
    0.3462    2.1210    0.0000 O   0  0  0  0  0  0  0  0  0  0  0  0
   -1.9679   -2.0284    0.0000 N   0  0  0  0  0  0  0  0  0  0  0  0
   -2.7525   -1.7735    0.0000 N   0  0  0  0  0  0  0  0  0  0  0  0
   -2.3378    0.6867    0.0000 N   0  0  3  0  0  0  0  0  0  0  0  0
   -1.1138    2.4940    0.0000 N   0  0  0  0  0  0  0  0  0  0  0  0
   -1.4830   -1.3610    0.0000 C   0  0  0  0  0  0  0  0  0  0  0  0
   -1.9679   -0.6936    0.0000 C   0  0  0  0  0  0  0  0  0  0  0  0
   -0.6580   -1.3610    0.0000 C   0  0  0  0  0  0  0  0  0  0  0  0
   -2.7525   -0.9485    0.0000 C   0  0  0  0  0  0  0  0  0  0  0  0
   -1.3548   -1.4764    0.0000 C   0  0  3  0  0  0  0  0  0  0  0  0
   -0.2455   -2.0755    0.0000 C   0  0  0  0  0  0  0  0  0  0  0  0
    0.5795   -2.0755    0.0000 C   0  0  0  0  0  0  0  0  0  0  0  0
   -0.2455   -0.6465    0.0000 C   0  0  0  0  0  0  0  0  0  0  0  0
   -1.7544    0.1033    0.0000 C   0  0  0  0  0  0  0  0  0  0  0  0
    0.5795   -0.6465    0.0000 C   0  0  0  0  0  0  0  0  0  0  0  0
    0.9920   -2.7899    0.0000 C   0  0  0  0  0  0  0  0  0  0  0  0
    0.9920   -1.3610    0.0000 C   0  0  0  0  0  0  0  0  0  0  0  0
   -1.5263   -0.6694    0.0000 C   0  0  0  0  0  0  0  0  0  0  0  0
   -3.4670   -0.5360    0.0000 C   0  0  0  0  0  0  0  0  0  0  0  0
    0.0429   -1.1793    0.0000 C   0  0  0  0  0  0  0  0  0  0  0  0
   -0.9133   -0.1174    0.0000 C   0  0  0  0  0  0  0  0  0  0  0  0
   -2.1242    1.4836    0.0000 C   0  0  0  0  0  0  0  0  0  0  0  0
   -0.1286   -0.3723    0.0000 C   0  0  0  0  0  0  0  0  0  0  0  0
   -3.1346    0.4732    0.0000 C   0  0  0  0  0  0  0  0  0  0  0  0
    1.8170    0.0679    0.0000 C   0  0  0  0  0  0  0  0  0  0  0  0
   -1.3273    1.6971    0.0000 C   0  0  0  0  0  0  0  0  0  0  0  0
    0.1327    1.3241    0.0000 C   0  0  0  0  0  0  0  0  0  0  0  0
    2.2295   -0.6465    0.0000 C   0  0  0  0  0  0  0  0  0  0  0  0
    1.5129    0.9543    0.0000 C   0  0  0  0  0  0  0  0  0  0  0  0
   -1.6972    3.0774    0.0000 C   0  0  0  0  0  0  0  0  0  0  0  0
    2.3098    1.1678    0.0000 C   0  0  0  0  0  0  0  0  0  0  0  0
    1.7265    1.7512    0.0000 C   0  0  0  0  0  0  0  0  0  0  0  0
    2.0963    0.3709    0.0000 C   0  0  0  0  0  0  0  0  0  0  0  0
    3.4670   -1.3610    0.0000 C   0  0  0  0  0  0  0  0  0  0  0  0
  1 23  1  0  0  0  0
  2 23  1  0  0  0  0
  3 23  1  0  0  0  0
  4 17  1  0  0  0  0
  4 27  1  0  0  0  0
  5 22  1  0  0  0  0
  5 32  1  0  0  0  0
  6 34  1  0  0  0  0
  6 36  1  0  0  0  0
  7 35  1  0  0  0  0
  7 41  1  0  0  0  0
  8 34  2  0  0  0  0
  9 10  1  0  0  0  0
  9 13  1  0  0  0  0
  9 17  1  0  0  0  0
 10 16  2  0  0  0  0
 11 21  1  0  0  0  0
 11 29  1  0  0  0  0
 11 31  1  0  0  0  0
 12 33  1  0  0  0  0
 12 34  1  0  0  0  0
 12 37  1  0  0  0  0
 13 14  2  0  0  0  0
 13 15  1  0  0  0  0
 14 16  1  0  0  0  0
 14 21  1  0  0  0  0
 15 18  2  0  0  0  0
 15 20  1  0  0  0  0
 16 26  1  0  0  0  0
 17 25  1  0  0  0  0
 18 19  1  0  0  0  0
 19 23  1  0  0  0  0
 19 24  2  0  0  0  0
 20 22  2  0  0  0  0
 22 24  1  0  0  0  0
 25 28  1  0  0  0  0
 27 30  1  0  0  0  0
 28 30  1  0  0  0  0
 29 33  1  0  0  0  0
 32 35  1  0  0  0  0
 36 38  1  0  0  0  0
 36 39  1  0  0  0  0
 36 40  1  0  0  0  0
M  END
> <PUBCHEM_COMPOUND_ID_TYPE>
0

> <PUBCHEM_TOTAL_CHARGE>
0

> <PUBCHEM_SUBSTANCE_ID>
310947667

> <PUBCHEM_SUBSTANCE_VERSION>
1

> <PUBCHEM_EXT_DATASOURCE_NAME>
4488

> <PUBCHEM_EXT_DATASOURCE_REGID>
SCHEMBL16125835

> <PUBCHEM_SUBSTANCE_COMMENT>
InChI=1S/C29H43F3N4O5/c1-20-24(19-34(5)11-12-35(6)27(37)41-28(2,3)4)26(36(33-20)25-10-8-9-13-40-25)21-16-22(29(30,31)32)18-23(17-21)39-15-14-38-7/h16-18,25H,8-15,19H2,1-7H3
InChIKey=SUVKZYZWOPDGQJ-UHFFFAOYSA-N

> <PUBCHEM_SUBSTANCE_SYNONYM>
SCHEMBL16125835

> <PUBCHEM_XREF_EXT_ID>
SCHEMBL16125835

> <PUBCHEM_EXT_DATASOURCE_URL>
https://www.surechembl.org/

> <PUBCHEM_EXT_SUBSTANCE_URL>
https://www.surechembl.org/chemical/SCHEMBL16125835

> <PUBCHEM_CID_ASSOCIATIONS>
117613382  1

> <PUBCHEM_COORDINATE_TYPE>
1
3

$$$$
