310941930
  -OEChem-07211613022D

 29 28  0     1  0  0  0  0  0999 V2000
   -0.6306    4.2594    0.0000 O   0  0  0  0  0  0  0  0  0  0  0  0
   -1.3476    5.4957    0.0000 O   0  0  0  0  0  0  0  0  0  0  0  0
   -1.1375    2.0833    0.0000 O   0  0  0  0  0  0  0  0  0  0  0  0
    2.2255    4.2594    0.0000 O   0  0  0  0  0  0  0  0  0  0  0  0
   -1.9164    3.4433    0.0000 N   0  0  0  0  0  0  0  0  0  0  0  0
   -2.0524    4.2717    0.0000 C   0  0  3  0  0  0  0  0  0  0  0  0
   -1.3476    4.6674    0.0000 C   0  0  0  0  0  0  0  0  0  0  0  0
   -2.7695    4.6797    0.0000 C   0  0  0  0  0  0  0  0  0  0  0  0
   -1.1251    2.9364    0.0000 C   0  0  0  0  0  0  0  0  0  0  0  0
   -0.4080    3.3197    0.0000 C   0  0  0  0  0  0  0  0  0  0  0  0
   -3.4619    4.2594    0.0000 C   0  0  0  0  0  0  0  0  0  0  0  0
   -2.7695    5.4957    0.0000 C   0  0  0  0  0  0  0  0  0  0  0  0
    0.0865    4.6797    0.0000 C   0  0  0  0  0  0  0  0  0  0  0  0
    0.2720    2.8993    0.0000 C   0  0  0  0  0  0  0  0  0  0  0  0
    0.8160    4.2717    0.0000 C   0  0  0  0  0  0  0  0  0  0  0  0
    0.0989    2.0956    0.0000 C   0  0  0  0  0  0  0  0  0  0  0  0
    0.7665    1.6382    0.0000 C   0  0  0  0  0  0  0  0  0  0  0  0
    1.5208    4.6797    0.0000 C   0  0  0  0  0  0  0  0  0  0  0  0
    0.6058    0.8593    0.0000 C   0  0  0  0  0  0  0  0  0  0  0  0
    1.3106    0.4142    0.0000 C   0  0  0  0  0  0  0  0  0  0  0  0
    1.1251   -0.3895    0.0000 C   0  0  0  0  0  0  0  0  0  0  0  0
    1.8175   -0.8469    0.0000 C   0  0  0  0  0  0  0  0  0  0  0  0
    1.6320   -1.6259    0.0000 C   0  0  0  0  0  0  0  0  0  0  0  0
    2.3367   -2.0709    0.0000 C   0  0  0  0  0  0  0  0  0  0  0  0
    2.1636   -2.9116    0.0000 C   0  0  0  0  0  0  0  0  0  0  0  0
    2.9055   -3.3938    0.0000 C   0  0  0  0  0  0  0  0  0  0  0  0
    2.7572   -4.2222    0.0000 C   0  0  0  0  0  0  0  0  0  0  0  0
    3.4619   -4.6674    0.0000 C   0  0  0  0  0  0  0  0  0  0  0  0
    3.2641   -5.4957    0.0000 C   0  0  0  0  0  0  0  0  0  0  0  0
  1  7  1  0  0  0  0
  1 13  1  0  0  0  0
  2  7  2  0  0  0  0
  3  9  2  0  0  0  0
  4 18  1  0  0  0  0
  5  6  1  0  0  0  0
  5  9  1  0  0  0  0
  6  7  1  0  0  0  0
  6  8  1  0  0  0  0
  8 11  1  0  0  0  0
  8 12  1  0  0  0  0
  9 10  1  0  0  0  0
 10 14  1  0  0  0  0
 13 15  1  0  0  0  0
 14 16  1  0  0  0  0
 15 18  1  0  0  0  0
 16 17  1  0  0  0  0
 17 19  1  0  0  0  0
 19 20  1  0  0  0  0
 20 21  1  0  0  0  0
 21 22  1  0  0  0  0
 22 23  1  0  0  0  0
 23 24  1  0  0  0  0
 24 25  1  0  0  0  0
 25 26  1  0  0  0  0
 26 27  1  0  0  0  0
 27 28  1  0  0  0  0
 28 29  1  0  0  0  0
M  END
> <PUBCHEM_COMPOUND_ID_TYPE>
0

> <PUBCHEM_TOTAL_CHARGE>
0

> <PUBCHEM_SUBSTANCE_ID>
310941930

> <PUBCHEM_SUBSTANCE_VERSION>
1

> <PUBCHEM_EXT_DATASOURCE_NAME>
4488

> <PUBCHEM_EXT_DATASOURCE_REGID>
SCHEMBL16119963

> <PUBCHEM_SUBSTANCE_COMMENT>
InChI=1S/C24H47NO4/c1-4-5-6-7-8-9-10-11-12-13-14-15-16-18-22(27)25-23(21(2)3)24(28)29-20-17-19-26/h21,23,26H,4-20H2,1-3H3,(H,25,27)
InChIKey=JEOLHNLIRJCMDQ-UHFFFAOYSA-N

> <PUBCHEM_SUBSTANCE_SYNONYM>
SCHEMBL16119963

> <PUBCHEM_XREF_EXT_ID>
SCHEMBL16119963

> <PUBCHEM_EXT_DATASOURCE_URL>
https://www.surechembl.org/

> <PUBCHEM_EXT_SUBSTANCE_URL>
https://www.surechembl.org/chemical/SCHEMBL16119963

> <PUBCHEM_CID_ASSOCIATIONS>
71525967  1

> <PUBCHEM_COORDINATE_TYPE>
1
3

$$$$
