310932390
  -OEChem-07211613022D

 18 19  0     1  0  0  0  0  0999 V2000
    3.5608   -1.6167    0.0000 O   0  0  0  0  0  0  0  0  0  0  0  0
    4.7067   -3.5812    0.0000 O   0  0  0  0  0  0  0  0  0  0  0  0
    5.4229   -2.3534    0.0000 O   0  0  0  0  0  0  0  0  0  0  0  0
    0.7981    0.0000    0.0000 O   0  0  0  0  0  0  0  0  0  0  0  0
    3.1515   -2.3534    0.0000 C   0  0  3  0  0  0  0  0  0  0  0  0
    3.9905   -2.3534    0.0000 C   0  0  3  0  0  0  0  0  0  0  0  0
    2.5580   -1.7599    0.0000 C   0  0  0  0  0  0  0  0  0  0  0  0
    4.7067   -2.7627    0.0000 C   0  0  0  0  0  0  0  0  0  0  0  0
    2.4352   -2.7627    0.0000 C   0  0  0  0  0  0  0  0  0  0  0  0
    1.7599   -1.9646    0.0000 C   0  0  0  0  0  0  0  0  0  0  0  0
    2.7627   -0.9618    0.0000 C   0  0  0  0  0  0  0  0  0  0  0  0
    1.1664   -1.3915    0.0000 C   0  0  0  0  0  0  0  0  0  0  0  0
    2.1896   -0.3683    0.0000 C   0  0  0  0  0  0  0  0  0  0  0  0
    1.3915   -0.5934    0.0000 C   0  0  0  0  0  0  0  0  0  0  0  0
    5.4229   -4.0109    0.0000 C   0  0  0  0  0  0  0  0  0  0  0  0
    6.1392   -3.5812    0.0000 C   0  0  0  0  0  0  0  0  0  0  0  0
    0.0000   -0.2046    0.0000 C   0  0  0  0  0  0  0  0  0  0  0  0
    6.1392   -2.7627    0.0000 C   0  0  0  0  0  0  0  0  0  0  0  0
  1  5  1  0  0  0  0
  1  6  1  0  0  0  0
  2  8  1  0  0  0  0
  2 15  1  0  0  0  0
  3  8  2  0  0  0  0
  4 14  1  0  0  0  0
  4 17  1  0  0  0  0
  5  6  1  0  0  0  0
  5  7  1  0  0  0  0
  5  9  1  0  0  0  0
  6  8  1  0  0  0  0
  7 10  2  0  0  0  0
  7 11  1  0  0  0  0
 10 12  1  0  0  0  0
 11 13  2  0  0  0  0
 12 14  2  0  0  0  0
 13 14  1  0  0  0  0
 15 16  1  0  0  0  0
 16 18  1  0  0  0  0
M  END
> <PUBCHEM_COMPOUND_ID_TYPE>
0

> <PUBCHEM_TOTAL_CHARGE>
0

> <PUBCHEM_SUBSTANCE_ID>
310932390

> <PUBCHEM_SUBSTANCE_VERSION>
1

> <PUBCHEM_EXT_DATASOURCE_NAME>
4488

> <PUBCHEM_EXT_DATASOURCE_REGID>
SCHEMBL16109758

> <PUBCHEM_SUBSTANCE_COMMENT>
InChI=1S/C14H18O4/c1-4-9-17-13(15)12-14(2,18-12)10-5-7-11(16-3)8-6-10/h5-8,12H,4,9H2,1-3H3
InChIKey=TXYVUGZMGVGMIT-UHFFFAOYSA-N

> <PUBCHEM_SUBSTANCE_SYNONYM>
SCHEMBL16109758

> <PUBCHEM_XREF_EXT_ID>
SCHEMBL16109758

> <PUBCHEM_EXT_DATASOURCE_URL>
https://www.surechembl.org/

> <PUBCHEM_EXT_SUBSTANCE_URL>
https://www.surechembl.org/chemical/SCHEMBL16109758

> <PUBCHEM_CID_ASSOCIATIONS>
117600945  1

> <PUBCHEM_COORDINATE_TYPE>
1
3

$$$$
