310940207
  -OEChem-07211613022D

 37 41  0     1  0  0  0  0  0999 V2000
    2.2529   -2.5487    0.0000 S   0  0  0  0  0  0  0  0  0  0  0  0
    2.3399   -3.3663    0.0000 O   0  0  0  0  0  0  0  0  0  0  0  0
    3.0184   -2.8792    0.0000 O   0  0  0  0  0  0  0  0  0  0  0  0
   -2.7574   -2.2181    0.0000 O   0  0  0  0  0  0  0  0  0  0  0  0
    1.6266    2.3225    0.0000 O   0  0  0  0  0  0  0  0  0  0  0  0
    0.6524    3.3663    0.0000 O   0  0  0  0  0  0  0  0  0  0  0  0
   -1.2439    0.1131    0.0000 N   0  0  0  0  0  0  0  0  0  0  0  0
   -0.7568   -0.5654    0.0000 N   0  0  0  0  0  0  0  0  0  0  0  0
    2.5139   -1.7484    0.0000 N   0  0  3  0  0  0  0  0  0  0  0  0
   -1.0003   -2.0267    0.0000 N   0  0  0  0  0  0  0  0  0  0  0  0
   -3.4707   -0.9829    0.0000 N   0  0  0  0  0  0  0  0  0  0  0  0
    0.2349    2.0094    0.0000 N   0  0  0  0  0  0  0  0  0  0  0  0
   -2.9488    1.8354    0.0000 N   0  0  0  0  0  0  0  0  0  0  0  0
   -1.0003    0.8960    0.0000 C   0  0  0  0  0  0  0  0  0  0  0  0
   -2.0267   -0.1479    0.0000 C   0  0  0  0  0  0  0  0  0  0  0  0
   -2.0442   -0.9655    0.0000 C   0  0  0  0  0  0  0  0  0  0  0  0
   -1.2613   -1.2265    0.0000 C   0  0  0  0  0  0  0  0  0  0  0  0
    1.4178   -2.5139    0.0000 C   0  0  0  0  0  0  0  0  0  0  0  0
    1.1743   -1.7484    0.0000 C   0  0  0  0  0  0  0  0  0  0  0  0
   -2.7574   -1.3657    0.0000 C   0  0  0  0  0  0  0  0  0  0  0  0
   -0.1827   -2.1833    0.0000 C   0  0  0  0  0  0  0  0  0  0  0  0
   -1.1569    1.6962    0.0000 C   0  0  0  0  0  0  0  0  0  0  0  0
   -0.2001    0.6350    0.0000 C   0  0  0  0  0  0  0  0  0  0  0  0
   -2.7748    0.2523    0.0000 C   0  0  0  0  0  0  0  0  0  0  0  0
    1.8354   -1.2613    0.0000 C   0  0  0  0  0  0  0  0  0  0  0  0
    0.3566   -1.5918    0.0000 C   0  0  0  0  0  0  0  0  0  0  0  0
   -1.7832    0.7220    0.0000 C   0  0  0  0  0  0  0  0  0  0  0  0
    0.8785   -3.1401    0.0000 C   0  0  0  0  0  0  0  0  0  0  0  0
    0.0783   -2.9662    0.0000 C   0  0  0  0  0  0  0  0  0  0  0  0
   -3.4533   -0.1479    0.0000 C   0  0  0  0  0  0  0  0  0  0  0  0
   -0.5480    2.2529    0.0000 C   0  0  0  0  0  0  0  0  0  0  0  0
    0.4088    1.2091    0.0000 C   0  0  0  0  0  0  0  0  0  0  0  0
    3.2968   -1.4874    0.0000 C   0  0  0  0  0  0  0  0  0  0  0  0
   -2.3747    1.2961    0.0000 C   0  0  0  0  0  0  0  0  0  0  0  0
    0.8264    2.5660    0.0000 C   0  0  0  0  0  0  0  0  0  0  0  0
    3.4707   -0.6698    0.0000 C   0  0  0  0  0  0  0  0  0  0  0  0
    2.2181    2.9140    0.0000 C   0  0  0  0  0  0  0  0  0  0  0  0
  1  2  2  0  0  0  0
  1  3  2  0  0  0  0
  1  9  1  0  0  0  0
  1 18  1  0  0  0  0
  4 20  2  0  0  0  0
  5 35  1  0  0  0  0
  5 37  1  0  0  0  0
  6 35  2  0  0  0  0
  7  8  1  0  0  0  0
  7 14  1  0  0  0  0
  7 15  1  0  0  0  0
  8 17  2  0  0  0  0
  9 25  1  0  0  0  0
  9 33  1  0  0  0  0
 10 17  1  0  0  0  0
 10 21  1  0  0  0  0
 11 20  1  0  0  0  0
 11 30  1  0  0  0  0
 12 31  1  0  0  0  0
 12 32  1  0  0  0  0
 12 35  1  0  0  0  0
 13 34  3  0  0  0  0
 14 22  1  0  0  0  0
 14 23  1  0  0  0  0
 14 27  1  0  0  0  0
 15 16  2  0  0  0  0
 15 24  1  0  0  0  0
 16 17  1  0  0  0  0
 16 20  1  0  0  0  0
 18 19  2  0  0  0  0
 18 28  1  0  0  0  0
 19 25  1  0  0  0  0
 19 26  1  0  0  0  0
 21 26  2  0  0  0  0
 21 29  1  0  0  0  0
 22 31  1  0  0  0  0
 23 32  1  0  0  0  0
 24 30  2  0  0  0  0
 27 34  1  0  0  0  0
 28 29  2  0  0  0  0
 33 36  1  0  0  0  0
M  END
> <PUBCHEM_COMPOUND_ID_TYPE>
0

> <PUBCHEM_TOTAL_CHARGE>
0

> <PUBCHEM_SUBSTANCE_ID>
310940207

> <PUBCHEM_SUBSTANCE_VERSION>
1

> <PUBCHEM_EXT_DATASOURCE_NAME>
4488

> <PUBCHEM_EXT_DATASOURCE_REGID>
SCHEMBL16118141

> <PUBCHEM_SUBSTANCE_COMMENT>
InChI=1S/C24H27N7O5S/c1-3-30-15-16-14-17(4-5-19(16)37(30,34)35)27-21-20-18(6-11-26-22(20)32)31(28-21)24(7-10-25)8-12-29(13-9-24)23(33)36-2/h4-6,11,14H,3,7-9,12-13,15H2,1-2H3,(H,26,32)(H,27,28)
InChIKey=OPEXKUHHCQDSCD-UHFFFAOYSA-N

> <PUBCHEM_SUBSTANCE_SYNONYM>
SCHEMBL16118141

> <PUBCHEM_XREF_EXT_ID>
SCHEMBL16118141

> <PUBCHEM_EXT_DATASOURCE_URL>
https://www.surechembl.org/

> <PUBCHEM_EXT_SUBSTANCE_URL>
https://www.surechembl.org/chemical/SCHEMBL16118141

> <PUBCHEM_CID_ASSOCIATIONS>
86268860  1

> <PUBCHEM_COORDINATE_TYPE>
1
3

$$$$
