310945957
  -OEChem-07211613022D

 27 28  0     1  0  0  0  0  0999 V2000
    3.2817    1.1231    0.0000 F   0  0  0  0  0  0  0  0  0  0  0  0
    3.8625    0.5424    0.0000 F   0  0  0  0  0  0  0  0  0  0  0  0
    3.6543   -0.2575    0.0000 F   0  0  0  0  0  0  0  0  0  0  0  0
    1.7148   -2.4161    0.0000 N   0  0  0  0  0  0  0  0  0  0  0  0
    1.2985   -3.1283    0.0000 N   0  0  0  0  0  0  0  0  0  0  0  0
   -1.0135   -2.1421    0.0000 N   0  0  3  0  0  0  0  0  0  0  0  0
   -3.1393   -1.7258    0.0000 N   0  0  0  0  0  0  0  0  0  0  0  0
    1.3423   -0.9587    0.0000 C   0  0  0  0  0  0  0  0  0  0  0  0
    1.1560   -1.7805    0.0000 C   0  0  0  0  0  0  0  0  0  0  0  0
    2.2955    0.0931    0.0000 C   0  0  0  0  0  0  0  0  0  0  0  0
    0.4219   -2.1203    0.0000 C   0  0  0  0  0  0  0  0  0  0  0  0
    2.1093   -0.7177    0.0000 C   0  0  0  0  0  0  0  0  0  0  0  0
    3.0845    0.3451    0.0000 C   0  0  0  0  0  0  0  0  0  0  0  0
    0.8930    0.3781    0.0000 C   0  0  0  0  0  0  0  0  0  0  0  0
    0.7396   -0.4328    0.0000 C   0  0  0  0  0  0  0  0  0  0  0  0
    1.6819    0.6301    0.0000 C   0  0  0  0  0  0  0  0  0  0  0  0
    0.4985   -2.9311    0.0000 C   0  0  0  0  0  0  0  0  0  0  0  0
   -0.2903   -1.7039    0.0000 C   0  0  0  0  0  0  0  0  0  0  0  0
    0.2903    0.9369    0.0000 C   0  0  0  0  0  0  0  0  0  0  0  0
    0.4985    1.7367    0.0000 C   0  0  0  0  0  0  0  0  0  0  0  0
   -1.7148   -1.7039    0.0000 C   0  0  0  0  0  0  0  0  0  0  0  0
   -0.9917   -2.9639    0.0000 C   0  0  0  0  0  0  0  0  0  0  0  0
   -0.0931    2.3285    0.0000 C   0  0  0  0  0  0  0  0  0  0  0  0
   -2.4161   -2.1093    0.0000 C   0  0  0  0  0  0  0  0  0  0  0  0
   -0.8821    2.0874    0.0000 C   0  0  0  0  0  0  0  0  0  0  0  0
    0.1260    3.1283    0.0000 C   0  0  0  0  0  0  0  0  0  0  0  0
   -3.8625   -2.1312    0.0000 C   0  0  0  0  0  0  0  0  0  0  0  0
  1 13  1  0  0  0  0
  2 13  1  0  0  0  0
  3 13  1  0  0  0  0
  4  5  1  0  0  0  0
  4  9  2  0  0  0  0
  5 17  1  0  0  0  0
  6 18  1  0  0  0  0
  6 21  1  0  0  0  0
  6 22  1  0  0  0  0
  7 24  1  0  0  0  0
  7 27  1  0  0  0  0
  8  9  1  0  0  0  0
  8 12  1  0  0  0  0
  8 15  2  0  0  0  0
  9 11  1  0  0  0  0
 10 12  2  0  0  0  0
 10 13  1  0  0  0  0
 10 16  1  0  0  0  0
 11 17  2  0  0  0  0
 11 18  1  0  0  0  0
 14 15  1  0  0  0  0
 14 16  2  0  0  0  0
 14 19  1  0  0  0  0
 19 20  1  0  0  0  0
 20 23  1  0  0  0  0
 21 24  1  0  0  0  0
 23 25  1  0  0  0  0
 23 26  1  0  0  0  0
M  END
> <PUBCHEM_COMPOUND_ID_TYPE>
0

> <PUBCHEM_TOTAL_CHARGE>
0

> <PUBCHEM_SUBSTANCE_ID>
310945957

> <PUBCHEM_SUBSTANCE_VERSION>
1

> <PUBCHEM_EXT_DATASOURCE_NAME>
4488

> <PUBCHEM_EXT_DATASOURCE_REGID>
SCHEMBL16124062

> <PUBCHEM_SUBSTANCE_COMMENT>
InChI=1S/C20H29F3N4/c1-14(2)5-6-15-9-16(11-18(10-15)20(21,22)23)19-17(12-25-26-19)13-27(4)8-7-24-3/h9-12,14,24H,5-8,13H2,1-4H3,(H,25,26)
InChIKey=KXLXQKUQZFZLKL-UHFFFAOYSA-N

> <PUBCHEM_SUBSTANCE_SYNONYM>
SCHEMBL16124062

> <PUBCHEM_XREF_EXT_ID>
SCHEMBL16124062

> <PUBCHEM_EXT_DATASOURCE_URL>
https://www.surechembl.org/

> <PUBCHEM_EXT_SUBSTANCE_URL>
https://www.surechembl.org/chemical/SCHEMBL16124062

> <PUBCHEM_CID_ASSOCIATIONS>
86300779  1

> <PUBCHEM_COORDINATE_TYPE>
1
3

$$$$
