310948350
  -OEChem-07211613022D

 13 14  0     1  0  0  0  0  0999 V2000
   -0.0756    2.3433    0.0000 Br  0  0  0  0  0  0  0  0  0  0  0  0
   -1.2438   -1.3813    0.0000 F   0  0  0  0  0  0  0  0  0  0  0  0
   -0.1993   -2.3433    0.0000 F   0  0  0  0  0  0  0  0  0  0  0  0
    0.9278   -1.0239    0.0000 N   0  0  0  0  0  0  0  0  0  0  0  0
   -0.0756   -0.1168    0.0000 C   0  0  0  0  0  0  0  0  0  0  0  0
    0.1031   -0.9278    0.0000 C   0  0  3  0  0  0  0  0  0  0  0  0
    0.6391    0.2955    0.0000 C   0  0  0  0  0  0  0  0  0  0  0  0
    1.2438   -0.2680    0.0000 C   0  0  0  0  0  0  0  0  0  0  0  0
   -0.4604   -1.5462    0.0000 C   0  0  0  0  0  0  0  0  0  0  0  0
   -0.7765    0.2818    0.0000 C   0  0  0  0  0  0  0  0  0  0  0  0
    0.6391    1.1064    0.0000 C   0  0  0  0  0  0  0  0  0  0  0  0
   -0.0619    1.5187    0.0000 C   0  0  0  0  0  0  0  0  0  0  0  0
   -0.7765    1.1064    0.0000 C   0  0  0  0  0  0  0  0  0  0  0  0
  1 12  1  0  0  0  0
  2  9  1  0  0  0  0
  3  9  1  0  0  0  0
  4  6  1  0  0  0  0
  4  8  1  0  0  0  0
  5  6  1  0  0  0  0
  5  7  1  0  0  0  0
  5 10  2  0  0  0  0
  6  9  1  0  0  0  0
  7  8  1  0  0  0  0
  7 11  2  0  0  0  0
 10 13  1  0  0  0  0
 11 12  1  0  0  0  0
 12 13  2  0  0  0  0
M  END
> <PUBCHEM_COMPOUND_ID_TYPE>
0

> <PUBCHEM_TOTAL_CHARGE>
0

> <PUBCHEM_SUBSTANCE_ID>
310948350

> <PUBCHEM_SUBSTANCE_VERSION>
1

> <PUBCHEM_EXT_DATASOURCE_NAME>
4488

> <PUBCHEM_EXT_DATASOURCE_REGID>
SCHEMBL16126528

> <PUBCHEM_SUBSTANCE_COMMENT>
InChI=1S/C9H8BrF2N/c10-6-1-2-7-5(3-6)4-13-8(7)9(11)12/h1-3,8-9,13H,4H2
InChIKey=CMNKKDJEXGTKSB-UHFFFAOYSA-N

> <PUBCHEM_SUBSTANCE_SYNONYM>
SCHEMBL16126528

> <PUBCHEM_XREF_EXT_ID>
SCHEMBL16126528

> <PUBCHEM_EXT_DATASOURCE_URL>
https://www.surechembl.org/

> <PUBCHEM_EXT_SUBSTANCE_URL>
https://www.surechembl.org/chemical/SCHEMBL16126528

> <PUBCHEM_CID_ASSOCIATIONS>
117613914  1

> <PUBCHEM_COORDINATE_TYPE>
1
3

$$$$
