310938395
  -OEChem-07211613022D

 34 38  0     1  0  0  0  0  0999 V2000
   -7.1535    3.0187    0.0000 O   0  0  0  0  0  0  0  0  0  0  0  0
   -8.3095    2.1787    0.0000 O   0  0  0  0  0  0  0  0  0  0  0  0
   -4.8781    1.1026    0.0000 N   0  0  3  0  0  0  0  0  0  0  0  0
   -3.8714    3.3636    0.0000 N   0  0  0  0  0  0  0  0  0  0  0  0
   -0.7145    0.8250    0.0000 N   0  0  0  0  0  0  0  0  0  0  0  0
   -3.4589    4.0781    0.0000 N   0  0  0  0  0  0  0  0  0  0  0  0
    0.7145    0.8250    0.0000 N   0  0  0  0  0  0  0  0  0  0  0  0
   -5.8480    2.4374    0.0000 C   0  0  0  0  0  0  0  0  0  0  0  0
   -6.1836    1.6838    0.0000 C   0  0  3  0  0  0  0  0  0  0  0  0
   -4.6920    3.2774    0.0000 C   0  0  0  0  0  0  0  0  0  0  0  0
   -5.0275    2.5237    0.0000 C   0  0  0  0  0  0  0  0  0  0  0  0
   -5.6987    1.0163    0.0000 C   0  0  0  0  0  0  0  0  0  0  0  0
    0.0000    0.4125    0.0000 C   0  0  0  0  0  0  0  0  0  0  0  0
    0.0000   -0.4125    0.0000 C   0  0  0  0  0  0  0  0  0  0  0  0
   -3.5724    0.8250    0.0000 C   0  0  3  0  0  0  0  0  0  0  0  0
   -1.4290    0.4125    0.0000 C   0  0  0  0  0  0  0  0  0  0  0  0
   -6.3329    3.1049    0.0000 C   0  0  0  0  0  0  0  0  0  0  0  0
   -4.3261    0.4895    0.0000 C   0  0  0  0  0  0  0  0  0  0  0  0
   -5.1769    3.9448    0.0000 C   0  0  0  0  0  0  0  0  0  0  0  0
   -7.0041    1.5975    0.0000 C   0  0  0  0  0  0  0  0  0  0  0  0
   -4.4656    1.8170    0.0000 C   0  0  0  0  0  0  0  0  0  0  0  0
   -5.9974    3.8586    0.0000 C   0  0  0  0  0  0  0  0  0  0  0  0
   -3.6586    1.6455    0.0000 C   0  0  0  0  0  0  0  0  0  0  0  0
   -0.7145   -0.8250    0.0000 C   0  0  0  0  0  0  0  0  0  0  0  0
   -2.8579    0.4125    0.0000 C   0  0  0  0  0  0  0  0  0  0  0  0
   -1.4290   -0.4125    0.0000 C   0  0  0  0  0  0  0  0  0  0  0  0
   -2.1434    0.8250    0.0000 C   0  0  0  0  0  0  0  0  0  0  0  0
   -3.3194    2.7505    0.0000 C   0  0  0  0  0  0  0  0  0  0  0  0
    0.7145   -0.8250    0.0000 C   0  0  0  0  0  0  0  0  0  0  0  0
   -7.4890    2.2650    0.0000 C   0  0  0  0  0  0  0  0  0  0  0  0
   -2.6519    3.9066    0.0000 C   0  0  0  0  0  0  0  0  0  0  0  0
   -2.5657    3.0861    0.0000 C   0  0  0  0  0  0  0  0  0  0  0  0
    1.4290    0.4125    0.0000 C   0  0  0  0  0  0  0  0  0  0  0  0
    1.4290   -0.4125    0.0000 C   0  0  0  0  0  0  0  0  0  0  0  0
  1 30  2  0  0  0  0
  2 30  1  0  0  0  0
  3 12  1  0  0  0  0
  3 18  1  0  0  0  0
  3 21  1  0  0  0  0
  4  6  1  0  0  0  0
  4 10  1  0  0  0  0
  4 28  1  0  0  0  0
  5 13  1  0  0  0  0
  5 16  2  0  0  0  0
  6 31  2  0  0  0  0
  7 13  1  0  0  0  0
  7 33  1  0  0  0  0
  8  9  1  0  0  0  0
  8 11  1  0  0  0  0
  8 17  2  0  0  0  0
  9 12  1  0  0  0  0
  9 20  1  0  0  0  0
 10 11  2  0  0  0  0
 10 19  1  0  0  0  0
 13 14  2  0  0  0  0
 14 24  1  0  0  0  0
 14 29  1  0  0  0  0
 15 18  1  0  0  0  0
 15 23  1  0  0  0  0
 15 25  1  0  0  0  0
 16 26  1  0  0  0  0
 16 27  1  0  0  0  0
 17 22  1  0  0  0  0
 19 22  2  0  0  0  0
 20 30  1  0  0  0  0
 21 23  1  0  0  0  0
 24 26  2  0  0  0  0
 25 27  1  0  0  0  0
 28 32  2  0  0  0  0
 29 34  1  0  0  0  0
 31 32  1  0  0  0  0
 33 34  1  0  0  0  0
M  END
> <PUBCHEM_COMPOUND_ID_TYPE>
0

> <PUBCHEM_TOTAL_CHARGE>
0

> <PUBCHEM_SUBSTANCE_ID>
310938395

> <PUBCHEM_SUBSTANCE_VERSION>
1

> <PUBCHEM_EXT_DATASOURCE_NAME>
4488

> <PUBCHEM_EXT_DATASOURCE_REGID>
SCHEMBL16116284

> <PUBCHEM_SUBSTANCE_COMMENT>
InChI=1S/C27H33N5O2/c33-26(34)17-23(22-4-1-6-25(16-22)32-14-3-13-29-32)19-31-15-11-20(18-31)7-9-24-10-8-21-5-2-12-28-27(21)30-24/h1,3-4,6,8,10,13-14,16,20,23H,2,5,7,9,11-12,15,17-19H2,(H,28,30)(H,33,34)
InChIKey=MPXAADAXXFWYMY-UHFFFAOYSA-N

> <PUBCHEM_SUBSTANCE_SYNONYM>
SCHEMBL16116284

> <PUBCHEM_XREF_EXT_ID>
SCHEMBL16116284

> <PUBCHEM_EXT_DATASOURCE_URL>
https://www.surechembl.org/

> <PUBCHEM_EXT_SUBSTANCE_URL>
https://www.surechembl.org/chemical/SCHEMBL16116284

> <PUBCHEM_CID_ASSOCIATIONS>
117605872  1

> <PUBCHEM_COORDINATE_TYPE>
1
3

$$$$
