310935388
  -OEChem-07211613022D

 40 45  0     1  0  0  0  0  0999 V2000
    5.6684   -4.4734    0.0000 S   0  0  0  0  0  0  0  0  0  0  0  0
    6.1279   -5.2700    0.0000 O   0  0  0  0  0  0  0  0  0  0  0  0
    5.2700   -3.7993    0.0000 O   0  0  0  0  0  0  0  0  0  0  0  0
    2.1141   -4.9024    0.0000 N   0  0  3  0  0  0  0  0  0  0  0  0
    0.7047   -4.9024    0.0000 N   0  0  0  0  0  0  0  0  0  0  0  0
    0.0000   -3.6461    0.0000 N   0  0  0  0  0  0  0  0  0  0  0  0
    6.3731   -4.1057    0.0000 N   0  0  3  0  0  0  0  0  0  0  0  0
    4.2589   -1.2256    0.0000 N   0  0  0  0  0  0  0  0  0  0  0  0
    4.4121   -2.2061    0.0000 N   0  0  0  0  0  0  0  0  0  0  0  0
    1.4401   -3.6768    0.0000 C   0  0  0  0  0  0  0  0  0  0  0  0
    1.4094   -4.4734    0.0000 C   0  0  0  0  0  0  0  0  0  0  0  0
    0.7047   -3.2478    0.0000 C   0  0  0  0  0  0  0  0  0  0  0  0
    3.5542   -4.9024    0.0000 C   0  0  0  0  0  0  0  0  0  0  0  0
    4.9636   -4.9024    0.0000 C   0  0  0  0  0  0  0  0  0  0  0  0
    3.5542   -5.7296    0.0000 C   0  0  0  0  0  0  0  0  0  0  0  0
    2.1141   -2.4512    0.0000 C   0  0  0  0  0  0  0  0  0  0  0  0
    0.7047   -2.4512    0.0000 C   0  0  0  0  0  0  0  0  0  0  0  0
    2.1141   -3.2785    0.0000 C   0  0  0  0  0  0  0  0  0  0  0  0
    2.8495   -4.4734    0.0000 C   0  0  0  0  0  0  0  0  0  0  0  0
    4.2589   -4.4734    0.0000 C   0  0  0  0  0  0  0  0  0  0  0  0
    2.1141   -5.7296    0.0000 C   0  0  0  0  0  0  0  0  0  0  0  0
    1.4094   -2.0222    0.0000 C   0  0  0  0  0  0  0  0  0  0  0  0
    2.8495   -6.1279    0.0000 C   0  0  0  0  0  0  0  0  0  0  0  0
    4.9636   -5.7296    0.0000 C   0  0  0  0  0  0  0  0  0  0  0  0
    4.2589   -6.1279    0.0000 C   0  0  0  0  0  0  0  0  0  0  0  0
    2.8495   -2.0222    0.0000 C   0  0  0  0  0  0  0  0  0  0  0  0
    0.0000   -4.5040    0.0000 C   0  0  0  0  0  0  0  0  0  0  0  0
    6.3731   -3.2785    0.0000 C   0  0  0  0  0  0  0  0  0  0  0  0
    2.8189   -1.1949    0.0000 C   0  0  0  0  0  0  0  0  0  0  0  0
    0.0000   -2.0222    0.0000 C   0  0  0  0  0  0  0  0  0  0  0  0
    3.5236   -2.4512    0.0000 C   0  0  0  0  0  0  0  0  0  0  0  0
    3.5542   -0.8273    0.0000 C   0  0  0  0  0  0  0  0  0  0  0  0
    5.6377   -2.8495    0.0000 C   0  0  0  0  0  0  0  0  0  0  0  0
    7.0778   -4.5040    0.0000 C   0  0  0  0  0  0  0  0  0  0  0  0
    4.2896   -2.0529    0.0000 C   0  0  0  0  0  0  0  0  0  0  0  0
    5.6684   -2.0222    0.0000 C   0  0  0  0  0  0  0  0  0  0  0  0
    4.9330   -3.2478    0.0000 C   0  0  0  0  0  0  0  0  0  0  0  0
    3.5848    0.0000    0.0000 C   0  0  0  0  0  0  0  0  0  0  0  0
    4.9636   -1.6239    0.0000 C   0  0  0  0  0  0  0  0  0  0  0  0
    4.2283   -2.8495    0.0000 C   0  0  0  0  0  0  0  0  0  0  0  0
  1  2  2  0  0  0  0
  1  3  2  0  0  0  0
  1  7  1  0  0  0  0
  1 14  1  0  0  0  0
  4 11  1  0  0  0  0
  4 19  1  0  0  0  0
  4 21  1  0  0  0  0
  5 11  1  0  0  0  0
  5 27  2  0  0  0  0
  6 12  2  0  0  0  0
  6 27  1  0  0  0  0
  7 28  1  0  0  0  0
  7 34  1  0  0  0  0
  8 32  1  0  0  0  0
  8 35  2  0  0  0  0
  9 39  1  0  0  0  0
  9 40  1  0  0  0  0
 10 11  2  0  0  0  0
 10 12  1  0  0  0  0
 10 18  1  0  0  0  0
 12 17  1  0  0  0  0
 13 15  2  0  0  0  0
 13 19  1  0  0  0  0
 13 20  1  0  0  0  0
 14 20  2  0  0  0  0
 14 24  1  0  0  0  0
 15 23  1  0  0  0  0
 15 25  1  0  0  0  0
 16 18  2  0  0  0  0
 16 22  1  0  0  0  0
 16 26  1  0  0  0  0
 17 22  2  0  0  0  0
 17 30  1  0  0  0  0
 21 23  1  0  0  0  0
 24 25  2  0  0  0  0
 26 29  1  0  0  0  0
 26 31  2  0  0  0  0
 28 33  1  0  0  0  0
 29 32  2  0  0  0  0
 31 35  1  0  0  0  0
 32 38  1  0  0  0  0
 33 36  1  0  0  0  0
 33 37  1  0  0  0  0
 36 39  1  0  0  0  0
 37 40  1  0  0  0  0
M  END
> <PUBCHEM_COMPOUND_ID_TYPE>
0

> <PUBCHEM_TOTAL_CHARGE>
0

> <PUBCHEM_SUBSTANCE_ID>
310935388

> <PUBCHEM_SUBSTANCE_VERSION>
1

> <PUBCHEM_EXT_DATASOURCE_NAME>
4488

> <PUBCHEM_EXT_DATASOURCE_REGID>
SCHEMBL16112928

> <PUBCHEM_SUBSTANCE_COMMENT>
InChI=1S/C31H36N6O2S/c1-21-14-26(25-8-12-33-22(2)15-25)17-29-30(21)34-20-35-31(29)37-13-9-24-4-5-28(16-27(24)19-37)40(38,39)36(3)18-23-6-10-32-11-7-23/h4-5,8,12,14-17,20,23,32H,6-7,9-11,13,18-19H2,1-3H3
InChIKey=FBVXXTZEUFAFOW-UHFFFAOYSA-N

> <PUBCHEM_SUBSTANCE_SYNONYM>
SCHEMBL16112928

> <PUBCHEM_XREF_EXT_ID>
SCHEMBL16112928

> <PUBCHEM_EXT_DATASOURCE_URL>
https://www.surechembl.org/

> <PUBCHEM_EXT_SUBSTANCE_URL>
https://www.surechembl.org/chemical/SCHEMBL16112928

> <PUBCHEM_CID_ASSOCIATIONS>
86301689  1

> <PUBCHEM_COORDINATE_TYPE>
1
3

$$$$
