310933288
  -OEChem-07211613022D

 28 31  0     1  0  0  0  0  0999 V2000
    2.5057   -0.7656    0.0000 O   0  0  0  0  0  0  0  0  0  0  0  0
    6.2642   -3.8977    0.0000 N   0  0  0  0  0  0  0  0  0  0  0  0
    6.1598   -3.0973    0.0000 N   0  0  0  0  0  0  0  0  0  0  0  0
    3.7237   -2.9233    0.0000 N   0  0  0  0  0  0  0  0  0  0  0  0
    3.7237   -1.4617    0.0000 N   0  0  0  0  0  0  0  0  0  0  0  0
    5.0113   -6.6470    0.0000 N   0  0  0  0  0  0  0  0  0  0  0  0
    2.5057   -2.1925    0.0000 N   0  0  0  0  0  0  0  0  0  0  0  0
    0.0000   -0.7308    0.0000 N   0  0  0  0  0  0  0  0  0  0  0  0
    4.9418   -3.6541    0.0000 C   0  0  0  0  0  0  0  0  0  0  0  0
    5.4986   -4.2457    0.0000 C   0  0  0  0  0  0  0  0  0  0  0  0
    5.3594   -2.8885    0.0000 C   0  0  0  0  0  0  0  0  0  0  0  0
    5.3245   -5.0462    0.0000 C   0  0  0  0  0  0  0  0  0  0  0  0
    4.9418   -2.1925    0.0000 C   0  0  0  0  0  0  0  0  0  0  0  0
    4.1065   -3.6193    0.0000 C   0  0  0  0  0  0  0  0  0  0  0  0
    4.1413   -2.1925    0.0000 C   0  0  0  0  0  0  0  0  0  0  0  0
    5.9858   -5.5682    0.0000 C   0  0  0  0  0  0  0  0  0  0  0  0
    4.5589   -5.2898    0.0000 C   0  0  0  0  0  0  0  0  0  0  0  0
    5.7770   -6.4034    0.0000 C   0  0  0  0  0  0  0  0  0  0  0  0
    2.8885   -1.4617    0.0000 C   0  0  0  0  0  0  0  0  0  0  0  0
    4.3501   -6.0902    0.0000 C   0  0  0  0  0  0  0  0  0  0  0  0
    1.6705   -2.1925    0.0000 C   0  0  3  0  0  0  0  0  0  0  0  0
    1.2528   -1.4617    0.0000 C   0  0  0  0  0  0  0  0  0  0  0  0
    6.3686   -6.9602    0.0000 C   0  0  0  0  0  0  0  0  0  0  0  0
    0.4176   -1.4268    0.0000 C   0  0  0  0  0  0  0  0  0  0  0  0
    1.6356   -0.7308    0.0000 C   0  0  0  0  0  0  0  0  0  0  0  0
    1.2528   -2.8885    0.0000 C   0  0  0  0  0  0  0  0  0  0  0  0
    1.2528   -0.0348    0.0000 C   0  0  0  0  0  0  0  0  0  0  0  0
    0.4176    0.0000    0.0000 C   0  0  0  0  0  0  0  0  0  0  0  0
  1 19  2  0  0  0  0
  2  3  1  0  0  0  0
  2 10  2  0  0  0  0
  3 11  1  0  0  0  0
  4 14  1  0  0  0  0
  4 15  2  0  0  0  0
  5 15  1  0  0  0  0
  5 19  1  0  0  0  0
  6 18  1  0  0  0  0
  6 20  2  0  0  0  0
  7 19  1  0  0  0  0
  7 21  1  0  0  0  0
  8 24  1  0  0  0  0
  8 28  2  0  0  0  0
  9 10  1  0  0  0  0
  9 11  1  0  0  0  0
  9 14  2  0  0  0  0
 10 12  1  0  0  0  0
 11 13  2  0  0  0  0
 12 16  1  0  0  0  0
 12 17  2  0  0  0  0
 13 15  1  0  0  0  0
 16 18  2  0  0  0  0
 17 20  1  0  0  0  0
 18 23  1  0  0  0  0
 21 22  1  0  0  0  0
 21 26  1  0  0  0  0
 22 24  2  0  0  0  0
 22 25  1  0  0  0  0
 25 27  2  0  0  0  0
 27 28  1  0  0  0  0
M  END
> <PUBCHEM_COMPOUND_ID_TYPE>
0

> <PUBCHEM_TOTAL_CHARGE>
0

> <PUBCHEM_SUBSTANCE_ID>
310933288

> <PUBCHEM_SUBSTANCE_VERSION>
1

> <PUBCHEM_EXT_DATASOURCE_NAME>
4488

> <PUBCHEM_EXT_DATASOURCE_REGID>
SCHEMBL16110699

> <PUBCHEM_SUBSTANCE_COMMENT>
InChI=1S/C20H19N7O/c1-12-8-14(5-7-22-12)19-16-11-23-18(9-17(16)26-27-19)25-20(28)24-13(2)15-4-3-6-21-10-15/h3-11,13H,1-2H3,(H,26,27)(H2,23,24,25,28)
InChIKey=ZILJUJOLNANMGB-UHFFFAOYSA-N

> <PUBCHEM_SUBSTANCE_SYNONYM>
SCHEMBL16110699

> <PUBCHEM_XREF_EXT_ID>
SCHEMBL16110699

> <PUBCHEM_EXT_DATASOURCE_URL>
https://www.surechembl.org/

> <PUBCHEM_EXT_SUBSTANCE_URL>
https://www.surechembl.org/chemical/SCHEMBL16110699

> <PUBCHEM_CID_ASSOCIATIONS>
71555691  1

> <PUBCHEM_COORDINATE_TYPE>
1
3

$$$$
