310938307
  -OEChem-07211613022D

 67 66  0     1  0  0  0  0  0999 V2000
    6.9332   -6.2257    0.0000 O   0  0  0  0  0  0  0  0  0  0  0  0
    7.7822   -5.6597    0.0000 O   0  0  0  0  0  0  0  0  0  0  0  0
    8.9848   -6.3672    0.0000 O   0  0  0  0  0  0  0  0  0  0  0  0
    7.6407   -8.2774    0.0000 O   0  0  0  0  0  0  0  0  0  0  0  0
    6.2257   -8.2774    0.0000 O   0  0  0  0  0  0  0  0  0  0  0  0
    6.1550   -5.6597    0.0000 O   0  0  0  0  0  0  0  0  0  0  0  0
    4.8815   -6.3672    0.0000 O   0  0  0  0  0  0  0  0  0  0  0  0
    7.7822   -7.0747    0.0000 C   0  0  0  0  0  0  0  0  0  0  0  0
    6.9332   -7.0747    0.0000 C   0  0  3  0  0  0  0  0  0  0  0  0
    6.1550   -7.0747    0.0000 C   0  0  3  0  0  0  0  0  0  0  0  0
    8.1359   -7.7822    0.0000 C   0  0  3  0  0  0  0  0  0  0  0  0
    7.3577   -6.3672    0.0000 C   0  0  3  0  0  0  0  0  0  0  0  0
    8.1359   -6.3672    0.0000 C   0  0  0  0  0  0  0  0  0  0  0  0
    6.9332   -7.9236    0.0000 C   0  0  0  0  0  0  0  0  0  0  0  0
    5.7305   -7.7822    0.0000 C   0  0  3  0  0  0  0  0  0  0  0  0
    5.7305   -6.3672    0.0000 C   0  0  0  0  0  0  0  0  0  0  0  0
    7.7822   -8.4896    0.0000 C   0  0  0  0  0  0  0  0  0  0  0  0
    7.9236   -5.8013    0.0000 C   0  0  0  0  0  0  0  0  0  0  0  0
    8.9848   -7.7822    0.0000 C   0  0  0  0  0  0  0  0  0  0  0  0
    6.5087   -6.3672    0.0000 C   0  0  0  0  0  0  0  0  0  0  0  0
    4.8815   -7.7822    0.0000 C   0  0  0  0  0  0  0  0  0  0  0  0
    6.1550   -8.4896    0.0000 C   0  0  0  0  0  0  0  0  0  0  0  0
    8.2066   -9.1971    0.0000 C   0  0  0  0  0  0  0  0  0  0  0  0
    7.3577   -4.9523    0.0000 C   0  0  0  0  0  0  0  0  0  0  0  0
    9.4093   -8.4896    0.0000 C   0  0  0  0  0  0  0  0  0  0  0  0
    6.2965   -5.8013    0.0000 C   0  0  0  0  0  0  0  0  0  0  0  0
    4.5278   -8.4896    0.0000 C   0  0  0  0  0  0  0  0  0  0  0  0
    5.7305   -9.1971    0.0000 C   0  0  0  0  0  0  0  0  0  0  0  0
    7.7822   -9.9046    0.0000 C   0  0  0  0  0  0  0  0  0  0  0  0
    7.7822   -4.2448    0.0000 C   0  0  0  0  0  0  0  0  0  0  0  0
   10.1875   -8.4896    0.0000 C   0  0  0  0  0  0  0  0  0  0  0  0
    5.3060   -5.6597    0.0000 C   0  0  0  0  0  0  0  0  0  0  0  0
    3.6788   -8.4896    0.0000 C   0  0  0  0  0  0  0  0  0  0  0  0
    6.1550   -9.9046    0.0000 C   0  0  0  0  0  0  0  0  0  0  0  0
    8.2066  -10.6121    0.0000 C   0  0  0  0  0  0  0  0  0  0  0  0
    7.3577   -3.5374    0.0000 C   0  0  0  0  0  0  0  0  0  0  0  0
   10.6121   -9.1971    0.0000 C   0  0  0  0  0  0  0  0  0  0  0  0
    4.8815   -4.9523    0.0000 C   0  0  0  0  0  0  0  0  0  0  0  0
    3.2544   -9.1971    0.0000 C   0  0  0  0  0  0  0  0  0  0  0  0
    5.7305  -10.6121    0.0000 C   0  0  0  0  0  0  0  0  0  0  0  0
    7.7822  -11.3195    0.0000 C   0  0  0  0  0  0  0  0  0  0  0  0
    7.7114   -2.8299    0.0000 C   0  0  0  0  0  0  0  0  0  0  0  0
   11.4610   -9.1971    0.0000 C   0  0  0  0  0  0  0  0  0  0  0  0
    4.0326   -4.9523    0.0000 C   0  0  0  0  0  0  0  0  0  0  0  0
    2.4761   -9.1971    0.0000 C   0  0  0  0  0  0  0  0  0  0  0  0
    6.1550  -11.3195    0.0000 C   0  0  0  0  0  0  0  0  0  0  0  0
    8.2066  -12.0270    0.0000 C   0  0  0  0  0  0  0  0  0  0  0  0
    7.3577   -2.1224    0.0000 C   0  0  0  0  0  0  0  0  0  0  0  0
   11.8855   -9.9046    0.0000 C   0  0  0  0  0  0  0  0  0  0  0  0
    3.6788   -4.2448    0.0000 C   0  0  0  0  0  0  0  0  0  0  0  0
    2.0517   -9.9046    0.0000 C   0  0  0  0  0  0  0  0  0  0  0  0
    5.7305  -12.0270    0.0000 C   0  0  0  0  0  0  0  0  0  0  0  0
    7.7822  -12.7344    0.0000 C   0  0  0  0  0  0  0  0  0  0  0  0
    7.7114   -1.4149    0.0000 C   0  0  0  0  0  0  0  0  0  0  0  0
   12.6637   -9.9046    0.0000 C   0  0  0  0  0  0  0  0  0  0  0  0
    2.8299   -4.2448    0.0000 C   0  0  0  0  0  0  0  0  0  0  0  0
    1.2027   -9.9046    0.0000 C   0  0  0  0  0  0  0  0  0  0  0  0
    6.1550  -12.7344    0.0000 C   0  0  0  0  0  0  0  0  0  0  0  0
    8.2066  -13.4419    0.0000 C   0  0  0  0  0  0  0  0  0  0  0  0
    7.3577   -0.7075    0.0000 C   0  0  0  0  0  0  0  0  0  0  0  0
   13.0882  -10.6121    0.0000 C   0  0  0  0  0  0  0  0  0  0  0  0
    2.4054   -3.5374    0.0000 C   0  0  0  0  0  0  0  0  0  0  0  0
    0.8490  -10.6121    0.0000 C   0  0  0  0  0  0  0  0  0  0  0  0
    5.7305  -13.4419    0.0000 C   0  0  0  0  0  0  0  0  0  0  0  0
    7.7822  -14.1494    0.0000 C   0  0  0  0  0  0  0  0  0  0  0  0
    7.7114    0.0000    0.0000 C   0  0  0  0  0  0  0  0  0  0  0  0
    0.0000  -10.6121    0.0000 C   0  0  0  0  0  0  0  0  0  0  0  0
  1  9  1  0  0  0  0
  2 13  2  0  0  0  0
  3 13  1  0  0  0  0
  4 14  2  0  0  0  0
  5 14  1  0  0  0  0
  6 16  2  0  0  0  0
  7 16  1  0  0  0  0
  8  9  1  0  0  0  0
  8 11  1  0  0  0  0
  8 12  1  0  0  0  0
  8 13  1  0  0  0  0
  9 10  1  0  0  0  0
  9 14  1  0  0  0  0
 10 15  1  0  0  0  0
 10 16  1  0  0  0  0
 11 17  1  0  0  0  0
 11 19  1  0  0  0  0
 12 18  1  0  0  0  0
 12 20  1  0  0  0  0
 15 21  1  0  0  0  0
 15 22  1  0  0  0  0
 17 23  1  0  0  0  0
 18 24  1  0  0  0  0
 19 25  1  0  0  0  0
 20 26  1  0  0  0  0
 21 27  1  0  0  0  0
 22 28  1  0  0  0  0
 23 29  1  0  0  0  0
 24 30  1  0  0  0  0
 25 31  1  0  0  0  0
 26 32  1  0  0  0  0
 27 33  1  0  0  0  0
 28 34  1  0  0  0  0
 29 35  1  0  0  0  0
 30 36  1  0  0  0  0
 31 37  1  0  0  0  0
 32 38  1  0  0  0  0
 33 39  1  0  0  0  0
 34 40  1  0  0  0  0
 35 41  1  0  0  0  0
 36 42  1  0  0  0  0
 37 43  1  0  0  0  0
 38 44  1  0  0  0  0
 39 45  1  0  0  0  0
 40 46  1  0  0  0  0
 41 47  1  0  0  0  0
 42 48  1  0  0  0  0
 43 49  1  0  0  0  0
 44 50  1  0  0  0  0
 45 51  1  0  0  0  0
 46 52  1  0  0  0  0
 47 53  1  0  0  0  0
 48 54  1  0  0  0  0
 49 55  1  0  0  0  0
 50 56  1  0  0  0  0
 51 57  1  0  0  0  0
 52 58  1  0  0  0  0
 53 59  1  0  0  0  0
 54 60  1  0  0  0  0
 55 61  1  0  0  0  0
 56 62  1  0  0  0  0
 57 63  1  0  0  0  0
 58 64  1  0  0  0  0
 59 65  1  0  0  0  0
 60 66  1  0  0  0  0
 63 67  1  0  0  0  0
M  END
> <PUBCHEM_COMPOUND_ID_TYPE>
0

> <PUBCHEM_TOTAL_CHARGE>
0

> <PUBCHEM_SUBSTANCE_ID>
310938307

> <PUBCHEM_SUBSTANCE_VERSION>
1

> <PUBCHEM_EXT_DATASOURCE_NAME>
4488

> <PUBCHEM_EXT_DATASOURCE_REGID>
SCHEMBL16116182

> <PUBCHEM_SUBSTANCE_COMMENT>
InChI=1S/C60H116O7/c1-7-13-19-25-31-35-41-47-52(46-40-34-28-22-16-10-4)55(56(61)62)60(67,58(65)66)59(57(63)64,53(48-42-36-29-23-17-11-5)50-44-38-32-26-20-14-8-2)54(49-43-37-30-24-18-12-6)51-45-39-33-27-21-15-9-3/h52-55,67H,7-51H2,1-6H3,(H,61,62)(H,63,64)(H,65,66)
InChIKey=NLMUUJWRVGTJBC-UHFFFAOYSA-N

> <PUBCHEM_SUBSTANCE_SYNONYM>
SCHEMBL16116182

> <PUBCHEM_XREF_EXT_ID>
SCHEMBL16116182

> <PUBCHEM_EXT_DATASOURCE_URL>
https://www.surechembl.org/

> <PUBCHEM_EXT_SUBSTANCE_URL>
https://www.surechembl.org/chemical/SCHEMBL16116182

> <PUBCHEM_CID_ASSOCIATIONS>
117605807  1

> <PUBCHEM_COORDINATE_TYPE>
1
3

$$$$
