310934643
  -OEChem-07211613022D

 41 46  0     1  0  0  0  0  0999 V2000
    0.0000   -4.0024    0.0000 Cl  0  0  0  0  0  0  0  0  0  0  0  0
    5.3603   -6.4324    0.0000 S   0  0  0  0  0  0  0  0  0  0  0  0
    6.4681   -1.2508    0.0000 F   0  0  0  0  0  0  0  0  0  0  0  0
    3.4664   -4.7528    0.0000 O   0  0  0  0  0  0  0  0  0  0  0  0
    3.7522   -3.6093    0.0000 O   0  0  0  0  0  0  0  0  0  0  0  0
    4.7886   -4.5384    0.0000 N   0  0  0  0  0  0  0  0  0  0  0  0
    2.6444   -5.9321    0.0000 N   0  0  0  0  0  0  0  0  0  0  0  0
    2.8946   -1.6796    0.0000 N   0  0  0  0  0  0  0  0  0  0  0  0
    1.8225   -0.9291    0.0000 N   0  0  0  0  0  0  0  0  0  0  0  0
    1.2508   -5.7892    0.0000 N   0  0  0  0  0  0  0  0  0  0  0  0
    4.8600   -5.7892    0.0000 C   0  0  3  0  0  0  0  0  0  0  0  0
    4.0381   -6.0750    0.0000 C   0  0  3  0  0  0  0  0  0  0  0  0
    4.3240   -5.2174    0.0000 C   0  0  0  0  0  0  0  0  0  0  0  0
    5.6105   -5.6462    0.0000 C   0  0  0  0  0  0  0  0  0  0  0  0
    3.3949   -5.5747    0.0000 C   0  0  0  0  0  0  0  0  0  0  0  0
    4.0381   -6.8612    0.0000 C   0  0  0  0  0  0  0  0  0  0  0  0
    5.6105   -4.8243    0.0000 C   0  0  0  0  0  0  0  0  0  0  0  0
    4.8600   -7.1471    0.0000 C   0  0  0  0  0  0  0  0  0  0  0  0
    2.2514   -2.1799    0.0000 C   0  0  0  0  0  0  0  0  0  0  0  0
    1.4652   -3.3234    0.0000 C   0  0  0  0  0  0  0  0  0  0  0  0
    1.3937   -4.1453    0.0000 C   0  0  0  0  0  0  0  0  0  0  0  0
    4.5742   -3.7880    0.0000 C   0  0  0  0  0  0  0  0  0  0  0  0
    1.5724   -1.6796    0.0000 C   0  0  0  0  0  0  0  0  0  0  0  0
    1.9655   -5.4318    0.0000 C   0  0  0  0  0  0  0  0  0  0  0  0
    2.1799   -3.0018    0.0000 C   0  0  0  0  0  0  0  0  0  0  0  0
    2.0727   -4.6099    0.0000 C   0  0  0  0  0  0  0  0  0  0  0  0
    0.6433   -4.4669    0.0000 C   0  0  0  0  0  0  0  0  0  0  0  0
    0.7505   -2.8589    0.0000 C   0  0  0  0  0  0  0  0  0  0  0  0
    0.8219   -2.0727    0.0000 C   0  0  0  0  0  0  0  0  0  0  0  0
    2.6444   -0.8934    0.0000 C   0  0  0  0  0  0  0  0  0  0  0  0
    5.1102   -3.1805    0.0000 C   0  0  0  0  0  0  0  0  0  0  0  0
    0.5717   -5.2889    0.0000 C   0  0  0  0  0  0  0  0  0  0  0  0
    3.6808   -1.9297    0.0000 C   0  0  0  0  0  0  0  0  0  0  0  0
    4.2883   -1.3580    0.0000 C   0  0  0  0  0  0  0  0  0  0  0  0
    5.0744   -1.6081    0.0000 C   0  0  0  0  0  0  0  0  0  0  0  0
    4.8600   -2.3943    0.0000 C   0  0  0  0  0  0  0  0  0  0  0  0
    5.8964   -3.3234    0.0000 C   0  0  0  0  0  0  0  0  0  0  0  0
    4.1096   -0.5361    0.0000 C   0  0  0  0  0  0  0  0  0  0  0  0
    5.6819   -1.0364    0.0000 C   0  0  0  0  0  0  0  0  0  0  0  0
    4.6814    0.0000    0.0000 C   0  0  0  0  0  0  0  0  0  0  0  0
    5.5033   -0.2144    0.0000 C   0  0  0  0  0  0  0  0  0  0  0  0
  1 27  1  0  0  0  0
  2 11  1  0  0  0  0
  2 18  1  0  0  0  0
  3 39  1  0  0  0  0
  4 15  2  0  0  0  0
  5 22  2  0  0  0  0
  6 13  1  0  0  0  0
  6 17  1  0  0  0  0
  6 22  1  0  0  0  0
  7 15  1  0  0  0  0
  7 24  1  0  0  0  0
  8 19  1  0  0  0  0
  8 30  1  0  0  0  0
  8 33  1  0  0  0  0
  9 23  1  0  0  0  0
  9 30  2  0  0  0  0
 10 24  1  0  0  0  0
 10 32  2  0  0  0  0
 11 12  1  0  0  0  0
 11 13  1  0  0  0  0
 11 14  1  0  0  0  0
 12 15  1  0  0  0  0
 12 16  1  0  0  0  0
 14 17  1  0  0  0  0
 16 18  1  0  0  0  0
 19 23  2  0  0  0  0
 19 25  1  0  0  0  0
 20 21  1  0  0  0  0
 20 25  2  0  0  0  0
 20 28  1  0  0  0  0
 21 26  1  0  0  0  0
 21 27  2  0  0  0  0
 22 31  1  0  0  0  0
 23 29  1  0  0  0  0
 24 26  2  0  0  0  0
 27 32  1  0  0  0  0
 28 29  2  0  0  0  0
 31 36  1  0  0  0  0
 31 37  1  0  0  0  0
 33 34  1  0  0  0  0
 34 35  2  0  0  0  0
 34 38  1  0  0  0  0
 35 39  1  0  0  0  0
 38 40  2  0  0  0  0
 39 41  2  0  0  0  0
 40 41  1  0  0  0  0
M  END
> <PUBCHEM_COMPOUND_ID_TYPE>
0

> <PUBCHEM_TOTAL_CHARGE>
0

> <PUBCHEM_SUBSTANCE_ID>
310934643

> <PUBCHEM_SUBSTANCE_VERSION>
1

> <PUBCHEM_EXT_DATASOURCE_NAME>
4488

> <PUBCHEM_EXT_DATASOURCE_REGID>
SCHEMBL16112141

> <PUBCHEM_SUBSTANCE_COMMENT>
InChI=1S/C31H31ClFN5O2S/c1-19(2)30(40)37-10-9-31(17-37)24(8-11-41-31)29(39)36-28-14-23(25(32)15-34-28)21-6-7-26-27(13-21)38(18-35-26)16-20-4-3-5-22(33)12-20/h3-7,12-15,18-19,24H,8-11,16-17H2,1-2H3,(H,34,36,39)
InChIKey=QJTPNVMCWSQZKB-UHFFFAOYSA-N

> <PUBCHEM_SUBSTANCE_SYNONYM>
SCHEMBL16112141

> <PUBCHEM_XREF_EXT_ID>
SCHEMBL16112141

> <PUBCHEM_EXT_DATASOURCE_URL>
https://www.surechembl.org/

> <PUBCHEM_EXT_SUBSTANCE_URL>
https://www.surechembl.org/chemical/SCHEMBL16112141

> <PUBCHEM_CID_ASSOCIATIONS>
117602812  1

> <PUBCHEM_COORDINATE_TYPE>
1
3

$$$$
