310946583
  -OEChem-07211613022D

 16 15  0     1  0  0  0  0  0999 V2000
   -7.8153  -10.0075    0.0000 O   0  0  0  0  0  0  0  0  0  0  0  0
   -7.8153  -12.4825    0.0000 O   0  0  0  0  0  0  0  0  0  0  0  0
   -7.1008  -11.2450    0.0000 O   0  0  0  0  0  0  0  0  0  0  0  0
   -8.5298   -8.7700    0.0000 O   0  0  0  0  0  0  0  0  0  0  0  0
   -9.2442  -11.6575    0.0000 N   0  0  0  0  0  0  0  0  0  0  0  0
   -8.5298  -10.4200    0.0000 C   0  0  3  0  0  0  0  0  0  0  0  0
   -8.5298  -11.2450    0.0000 C   0  0  3  0  0  0  0  0  0  0  0  0
   -7.8153  -11.6575    0.0000 C   0  0  0  0  0  0  0  0  0  0  0  0
   -7.8153   -9.1825    0.0000 C   0  0  0  0  0  0  0  0  0  0  0  0
   -7.1008   -8.7700    0.0000 C   0  0  0  0  0  0  0  0  0  0  0  0
   -9.2442  -10.0075    0.0000 C   0  0  0  0  0  0  0  0  0  0  0  0
   -6.3863   -9.1825    0.0000 C   0  0  0  0  0  0  0  0  0  0  0  0
   -5.6719   -8.7700    0.0000 C   0  0  0  0  0  0  0  0  0  0  0  0
   -4.9574   -9.1825    0.0000 C   0  0  0  0  0  0  0  0  0  0  0  0
   -4.2429   -8.7700    0.0000 C   0  0  0  0  0  0  0  0  0  0  0  0
   -3.5285   -9.1825    0.0000 C   0  0  0  0  0  0  0  0  0  0  0  0
  1  6  1  0  0  0  0
  1  9  1  0  0  0  0
  2  8  2  0  0  0  0
  3  8  1  0  0  0  0
  4  9  2  0  0  0  0
  5  7  1  0  0  0  0
  6  7  1  0  0  0  0
  6 11  1  0  0  0  0
  7  8  1  0  0  0  0
  9 10  1  0  0  0  0
 10 12  1  0  0  0  0
 12 13  1  0  0  0  0
 13 14  1  0  0  0  0
 14 15  1  0  0  0  0
 15 16  1  0  0  0  0
M  END
> <PUBCHEM_COMPOUND_ID_TYPE>
0

> <PUBCHEM_TOTAL_CHARGE>
0

> <PUBCHEM_SUBSTANCE_ID>
310946583

> <PUBCHEM_SUBSTANCE_VERSION>
1

> <PUBCHEM_EXT_DATASOURCE_NAME>
4488

> <PUBCHEM_EXT_DATASOURCE_REGID>
SCHEMBL16124704

> <PUBCHEM_SUBSTANCE_COMMENT>
InChI=1S/C11H21NO4/c1-3-4-5-6-7-9(13)16-8(2)10(12)11(14)15/h8,10H,3-7,12H2,1-2H3,(H,14,15)
InChIKey=SHEHSHCFKKAVDT-UHFFFAOYSA-N

> <PUBCHEM_SUBSTANCE_SYNONYM>
SCHEMBL16124704

> <PUBCHEM_XREF_EXT_ID>
SCHEMBL16124704

> <PUBCHEM_EXT_DATASOURCE_URL>
https://www.surechembl.org/

> <PUBCHEM_EXT_SUBSTANCE_URL>
https://www.surechembl.org/chemical/SCHEMBL16124704

> <PUBCHEM_CID_ASSOCIATIONS>
117612483  1

> <PUBCHEM_COORDINATE_TYPE>
1
3

$$$$
