310949490
  -OEChem-07211613022D

 28 30  0     1  0  0  0  0  0999 V2000
   -1.9003    1.0233    0.0000 Cl  0  0  0  0  0  0  0  0  0  0  0  0
   -3.5960    0.2046    0.0000 Cl  0  0  0  0  0  0  0  0  0  0  0  0
    1.6664    1.4472    0.0000 O   0  0  0  0  0  0  0  0  0  0  0  0
   -0.4678    1.0233    0.0000 O   0  0  0  0  0  0  0  0  0  0  0  0
    0.2339    1.4472    0.0000 O   0  0  0  0  0  0  0  0  0  0  0  0
    0.2339   -0.2046    0.0000 N   0  0  0  0  0  0  0  0  0  0  0  0
    2.4412   -1.2864    0.0000 N   0  0  0  0  0  0  0  0  0  0  0  0
    2.4412    0.0585    0.0000 N   0  0  0  0  0  0  0  0  0  0  0  0
    3.4937   -2.2365    0.0000 N   0  0  0  0  0  0  0  0  0  0  0  0
    1.6664   -0.1901    0.0000 C   0  0  0  0  0  0  0  0  0  0  0  0
    0.9355    0.2193    0.0000 C   0  0  3  0  0  0  0  0  0  0  0  0
    1.6519   -1.0233    0.0000 C   0  0  0  0  0  0  0  0  0  0  0  0
   -0.4970    0.1901    0.0000 C   0  0  0  0  0  0  0  0  0  0  0  0
    0.9502   -1.4326    0.0000 C   0  0  0  0  0  0  0  0  0  0  0  0
    0.9648    1.0379    0.0000 C   0  0  0  0  0  0  0  0  0  0  0  0
    0.2339   -1.0233    0.0000 C   0  0  0  0  0  0  0  0  0  0  0  0
   -1.1841   -0.1901    0.0000 C   0  0  0  0  0  0  0  0  0  0  0  0
    2.9236   -0.5993    0.0000 C   0  0  0  0  0  0  0  0  0  0  0  0
    2.6897   -2.0466    0.0000 C   0  0  0  0  0  0  0  0  0  0  0  0
   -1.9003    0.2193    0.0000 C   0  0  0  0  0  0  0  0  0  0  0  0
   -1.1987   -1.0233    0.0000 C   0  0  0  0  0  0  0  0  0  0  0  0
   -2.6167   -0.1901    0.0000 C   0  0  0  0  0  0  0  0  0  0  0  0
   -1.9003   -1.4326    0.0000 C   0  0  0  0  0  0  0  0  0  0  0  0
   -2.6167   -1.0233    0.0000 C   0  0  0  0  0  0  0  0  0  0  0  0
    2.2073   -2.7043    0.0000 C   0  0  0  0  0  0  0  0  0  0  0  0
    1.6664    2.2804    0.0000 C   0  0  0  0  0  0  0  0  0  0  0  0
    3.5960   -2.7043    0.0000 C   0  0  0  0  0  0  0  0  0  0  0  0
    2.3828    2.7043    0.0000 C   0  0  0  0  0  0  0  0  0  0  0  0
  1 20  1  0  0  0  0
  2 22  1  0  0  0  0
  3 15  1  0  0  0  0
  3 26  1  0  0  0  0
  4 13  2  0  0  0  0
  5 15  2  0  0  0  0
  6 11  1  0  0  0  0
  6 13  1  0  0  0  0
  6 16  1  0  0  0  0
  7 12  1  0  0  0  0
  7 18  1  0  0  0  0
  7 19  1  0  0  0  0
  8 10  1  0  0  0  0
  8 18  2  0  0  0  0
  9 19  1  0  0  0  0
  9 27  2  0  0  0  0
 10 11  1  0  0  0  0
 10 12  2  0  0  0  0
 11 15  1  0  0  0  0
 12 14  1  0  0  0  0
 13 17  1  0  0  0  0
 14 16  1  0  0  0  0
 17 20  2  0  0  0  0
 17 21  1  0  0  0  0
 19 25  2  0  0  0  0
 20 22  1  0  0  0  0
 21 23  2  0  0  0  0
 22 24  2  0  0  0  0
 23 24  1  0  0  0  0
 26 28  1  0  0  0  0
M  END
> <PUBCHEM_COMPOUND_ID_TYPE>
0

> <PUBCHEM_TOTAL_CHARGE>
0

> <PUBCHEM_SUBSTANCE_ID>
310949490

> <PUBCHEM_SUBSTANCE_VERSION>
1

> <PUBCHEM_EXT_DATASOURCE_NAME>
4488

> <PUBCHEM_EXT_DATASOURCE_REGID>
SCHEMBL16127684

> <PUBCHEM_SUBSTANCE_COMMENT>
InChI=1S/C19H18Cl2N4O3/c1-4-28-19(27)17-16-14(25(10-23-16)11(2)22-3)8-9-24(17)18(26)12-6-5-7-13(20)15(12)21/h5-7,10,17H,2-4,8-9H2,1H3
InChIKey=YOGKWOSGLKVPTO-UHFFFAOYSA-N

> <PUBCHEM_SUBSTANCE_SYNONYM>
SCHEMBL16127684

> <PUBCHEM_XREF_EXT_ID>
SCHEMBL16127684

> <PUBCHEM_EXT_DATASOURCE_URL>
https://www.surechembl.org/

> <PUBCHEM_EXT_SUBSTANCE_URL>
https://www.surechembl.org/chemical/SCHEMBL16127684

> <PUBCHEM_CID_ASSOCIATIONS>
117614932  1

> <PUBCHEM_COORDINATE_TYPE>
1
3

$$$$
