310945986
  -OEChem-07211613022D

 42 46  0     1  0  0  0  0  0999 V2000
    3.6648    0.2078    0.0000 O   0  0  0  0  0  0  0  0  0  0  0  0
    1.3925    0.2078    0.0000 O   0  0  0  0  0  0  0  0  0  0  0  0
    0.6720   -0.2078    0.0000 O   0  0  0  0  0  0  0  0  0  0  0  0
   -0.0485    0.2078    0.0000 O   0  0  0  0  0  0  0  0  0  0  0  0
   -2.2099    3.9350    0.0000 O   0  0  0  0  0  0  0  0  0  0  0  0
   -2.9304   -3.9350    0.0000 O   0  0  0  0  0  0  0  0  0  0  0  0
    1.3925   -1.4409    0.0000 N   0  0  0  0  0  0  0  0  0  0  0  0
   -0.7690   -1.0253    0.0000 N   0  0  0  0  0  0  0  0  0  0  0  0
   -1.4895    1.0392    0.0000 N   0  0  0  0  0  0  0  0  0  0  0  0
   -2.2099    2.2861    0.0000 N   0  0  0  0  0  0  0  0  0  0  0  0
   -2.9304    1.0392    0.0000 N   0  0  0  0  0  0  0  0  0  0  0  0
    2.8473    0.2355    0.0000 C   0  0  3  0  0  0  0  0  0  0  0  0
    2.1406   -0.1801    0.0000 C   0  0  0  0  0  0  0  0  0  0  0  0
    3.2491   -0.4572    0.0000 C   0  0  0  0  0  0  0  0  0  0  0  0
    2.1130   -1.0114    0.0000 C   0  0  3  0  0  0  0  0  0  0  0  0
    2.8473    1.0807    0.0000 C   0  0  0  0  0  0  0  0  0  0  0  0
    2.8334   -1.4271    0.0000 C   0  0  0  0  0  0  0  0  0  0  0  0
    0.6720   -1.0253    0.0000 C   0  0  0  0  0  0  0  0  0  0  0  0
   -0.0346   -1.4133    0.0000 C   0  0  3  0  0  0  0  0  0  0  0  0
    2.8334   -2.2446    0.0000 C   0  0  0  0  0  0  0  0  0  0  0  0
   -1.4895    0.2355    0.0000 C   0  0  0  0  0  0  0  0  0  0  0  0
   -0.7828   -0.1801    0.0000 C   0  0  0  0  0  0  0  0  0  0  0  0
   -2.2238    1.4825    0.0000 C   0  0  0  0  0  0  0  0  0  0  0  0
   -0.0485   -2.2446    0.0000 C   0  0  0  0  0  0  0  0  0  0  0  0
   -0.7690   -2.6603    0.0000 C   0  0  0  0  0  0  0  0  0  0  0  0
   -2.1823   -0.1662    0.0000 C   0  0  0  0  0  0  0  0  0  0  0  0
    3.5539   -2.6741    0.0000 C   0  0  0  0  0  0  0  0  0  0  0  0
    2.1268   -2.6741    0.0000 C   0  0  0  0  0  0  0  0  0  0  0  0
   -2.9166    0.2355    0.0000 C   0  0  0  0  0  0  0  0  0  0  0  0
   -1.4895    2.7156    0.0000 C   0  0  0  0  0  0  0  0  0  0  0  0
   -2.9304    2.7156    0.0000 C   0  0  0  0  0  0  0  0  0  0  0  0
   -1.4895   -2.2723    0.0000 C   0  0  0  0  0  0  0  0  0  0  0  0
   -0.7690   -3.4915    0.0000 C   0  0  0  0  0  0  0  0  0  0  0  0
    3.5539   -3.4915    0.0000 C   0  0  0  0  0  0  0  0  0  0  0  0
    2.1268   -3.4915    0.0000 C   0  0  0  0  0  0  0  0  0  0  0  0
   -2.2099   -3.4915    0.0000 C   0  0  0  0  0  0  0  0  0  0  0  0
   -2.1961   -2.6603    0.0000 C   0  0  0  0  0  0  0  0  0  0  0  0
   -1.4895   -3.8934    0.0000 C   0  0  0  0  0  0  0  0  0  0  0  0
   -1.4895    3.5331    0.0000 C   0  0  0  0  0  0  0  0  0  0  0  0
   -2.9166    3.5470    0.0000 C   0  0  0  0  0  0  0  0  0  0  0  0
    2.8473   -3.8934    0.0000 C   0  0  0  0  0  0  0  0  0  0  0  0
   -3.6648   -3.5055    0.0000 C   0  0  0  0  0  0  0  0  0  0  0  0
  1 12  1  0  0  0  0
  1 14  1  0  0  0  0
  2 13  2  0  0  0  0
  3 18  2  0  0  0  0
  4 22  2  0  0  0  0
  5 39  1  0  0  0  0
  5 40  1  0  0  0  0
  6 36  1  0  0  0  0
  6 42  1  0  0  0  0
  7 15  1  0  0  0  0
  7 18  1  0  0  0  0
  8 19  1  0  0  0  0
  8 22  1  0  0  0  0
  9 21  1  0  0  0  0
  9 23  2  0  0  0  0
 10 23  1  0  0  0  0
 10 30  1  0  0  0  0
 10 31  1  0  0  0  0
 11 23  1  0  0  0  0
 11 29  2  0  0  0  0
 12 13  1  0  0  0  0
 12 14  1  0  0  0  0
 12 16  1  0  0  0  0
 13 15  1  0  0  0  0
 15 17  1  0  0  0  0
 17 20  1  0  0  0  0
 18 19  1  0  0  0  0
 19 24  1  0  0  0  0
 20 27  2  0  0  0  0
 20 28  1  0  0  0  0
 21 22  1  0  0  0  0
 21 26  2  0  0  0  0
 24 25  1  0  0  0  0
 25 32  2  0  0  0  0
 25 33  1  0  0  0  0
 26 29  1  0  0  0  0
 27 34  1  0  0  0  0
 28 35  2  0  0  0  0
 30 39  1  0  0  0  0
 31 40  1  0  0  0  0
 32 37  1  0  0  0  0
 33 38  2  0  0  0  0
 34 41  2  0  0  0  0
 35 41  1  0  0  0  0
 36 37  2  0  0  0  0
 36 38  1  0  0  0  0
M  END
> <PUBCHEM_COMPOUND_ID_TYPE>
0

> <PUBCHEM_TOTAL_CHARGE>
0

> <PUBCHEM_SUBSTANCE_ID>
310945986

> <PUBCHEM_SUBSTANCE_VERSION>
1

> <PUBCHEM_EXT_DATASOURCE_NAME>
4488

> <PUBCHEM_EXT_DATASOURCE_REGID>
SCHEMBL16124091

> <PUBCHEM_SUBSTANCE_COMMENT>
InChI=1S/C31H35N5O6/c1-31(20-42-31)27(37)25(18-21-6-4-3-5-7-21)33-29(39)26(19-22-8-10-23(40-2)11-9-22)34-28(38)24-12-13-32-30(35-24)36-14-16-41-17-15-36/h3-13,25-26H,14-20H2,1-2H3,(H,33,39)(H,34,38)
InChIKey=XXINZVVODZCERQ-UHFFFAOYSA-N

> <PUBCHEM_SUBSTANCE_SYNONYM>
SCHEMBL16124091

> <PUBCHEM_XREF_EXT_ID>
SCHEMBL16124091

> <PUBCHEM_EXT_DATASOURCE_URL>
https://www.surechembl.org/

> <PUBCHEM_EXT_SUBSTANCE_URL>
https://www.surechembl.org/chemical/SCHEMBL16124091

> <PUBCHEM_CID_ASSOCIATIONS>
117611958  1

> <PUBCHEM_COORDINATE_TYPE>
1
3

$$$$
