310939086
  -OEChem-07211613022D

 69 74  0     1  0  0  0  0  0999 V2000
   -9.5090    2.1336    0.0000 O   0  0  0  0  0  0  0  0  0  0  0  0
    9.5090    2.1778    0.0000 O   0  0  0  0  0  0  0  0  0  0  0  0
   -2.3643   -1.1664    0.0000 O   0  0  0  0  0  0  0  0  0  0  0  0
    2.3643   -1.1221    0.0000 O   0  0  0  0  0  0  0  0  0  0  0  0
    3.0788   -2.3596    0.0000 O   0  0  0  0  0  0  0  0  0  0  0  0
   -3.0788   -2.4038    0.0000 O   0  0  0  0  0  0  0  0  0  0  0  0
   -0.0663   -1.5788    0.0000 O   0  0  0  0  0  0  0  0  0  0  0  0
  -10.2233    0.0711    0.0000 N   0  0  0  0  0  0  0  0  0  0  0  0
   10.2233    0.1153    0.0000 N   0  0  0  0  0  0  0  0  0  0  0  0
   -6.6511   -0.3414    0.0000 N   0  0  0  0  0  0  0  0  0  0  0  0
    6.6511   -0.2971    0.0000 N   0  0  0  0  0  0  0  0  0  0  0  0
   -5.2222   -1.1664    0.0000 N   0  0  0  0  0  0  0  0  0  0  0  0
    5.2222   -1.1221    0.0000 N   0  0  0  0  0  0  0  0  0  0  0  0
  -10.2233    0.8961    0.0000 C   0  0  3  0  0  0  0  0  0  0  0  0
   10.2233    0.9403    0.0000 C   0  0  3  0  0  0  0  0  0  0  0  0
   -9.5090    1.3085    0.0000 C   0  0  0  0  0  0  0  0  0  0  0  0
    9.5090    1.3528    0.0000 C   0  0  0  0  0  0  0  0  0  0  0  0
   -8.7945    0.8961    0.0000 C   0  0  0  0  0  0  0  0  0  0  0  0
    8.7945    0.9403    0.0000 C   0  0  0  0  0  0  0  0  0  0  0  0
  -10.9378    1.3085    0.0000 C   0  0  0  0  0  0  0  0  0  0  0  0
   10.9378    1.3528    0.0000 C   0  0  0  0  0  0  0  0  0  0  0  0
  -10.4675    1.8068    0.0000 C   0  0  0  0  0  0  0  0  0  0  0  0
   10.4369    1.7371    0.0000 C   0  0  0  0  0  0  0  0  0  0  0  0
  -11.6523    0.8961    0.0000 C   0  0  0  0  0  0  0  0  0  0  0  0
   11.6523    0.9403    0.0000 C   0  0  0  0  0  0  0  0  0  0  0  0
   -8.7945    0.0711    0.0000 C   0  0  0  0  0  0  0  0  0  0  0  0
    8.7945    0.1153    0.0000 C   0  0  0  0  0  0  0  0  0  0  0  0
   -8.0800    1.3085    0.0000 C   0  0  0  0  0  0  0  0  0  0  0  0
    8.0800    1.3528    0.0000 C   0  0  0  0  0  0  0  0  0  0  0  0
   -7.3656    0.0711    0.0000 C   0  0  0  0  0  0  0  0  0  0  0  0
    7.3656    0.1153    0.0000 C   0  0  0  0  0  0  0  0  0  0  0  0
   -8.0800   -0.3414    0.0000 C   0  0  0  0  0  0  0  0  0  0  0  0
    8.0800   -0.2971    0.0000 C   0  0  0  0  0  0  0  0  0  0  0  0
   -7.3656    0.8961    0.0000 C   0  0  0  0  0  0  0  0  0  0  0  0
    7.3656    0.9403    0.0000 C   0  0  0  0  0  0  0  0  0  0  0  0
    9.5090   -0.2971    0.0000 C   0  0  0  0  0  0  0  0  0  0  0  0
   10.9378   -0.2971    0.0000 C   0  0  0  0  0  0  0  0  0  0  0  0
  -10.9378   -0.3414    0.0000 C   0  0  0  0  0  0  0  0  0  0  0  0
   -9.5090   -0.3414    0.0000 C   0  0  0  0  0  0  0  0  0  0  0  0
  -12.3667    1.3085    0.0000 C   0  0  0  0  0  0  0  0  0  0  0  0
   11.6523    0.1153    0.0000 C   0  0  0  0  0  0  0  0  0  0  0  0
  -11.6523    0.0711    0.0000 C   0  0  0  0  0  0  0  0  0  0  0  0
   12.3667    1.3528    0.0000 C   0  0  0  0  0  0  0  0  0  0  0  0
  -11.3781    2.0508    0.0000 C   0  0  0  0  0  0  0  0  0  0  0  0
    9.7702    2.4038    0.0000 C   0  0  0  0  0  0  0  0  0  0  0  0
   -6.6511   -1.1664    0.0000 C   0  0  0  0  0  0  0  0  0  0  0  0
   -5.9367    0.0711    0.0000 C   0  0  0  0  0  0  0  0  0  0  0  0
    6.6511   -1.1221    0.0000 C   0  0  0  0  0  0  0  0  0  0  0  0
    5.9367    0.1153    0.0000 C   0  0  0  0  0  0  0  0  0  0  0  0
  -13.0812    0.8961    0.0000 C   0  0  0  0  0  0  0  0  0  0  0  0
   12.3667   -0.2971    0.0000 C   0  0  0  0  0  0  0  0  0  0  0  0
  -12.3667   -0.3414    0.0000 C   0  0  0  0  0  0  0  0  0  0  0  0
   13.0812    0.9403    0.0000 C   0  0  0  0  0  0  0  0  0  0  0  0
   -5.9367   -1.5788    0.0000 C   0  0  0  0  0  0  0  0  0  0  0  0
   -5.2222   -0.3414    0.0000 C   0  0  0  0  0  0  0  0  0  0  0  0
    5.9367   -1.5347    0.0000 C   0  0  0  0  0  0  0  0  0  0  0  0
    5.2222   -0.2971    0.0000 C   0  0  0  0  0  0  0  0  0  0  0  0
  -13.0812    0.0711    0.0000 C   0  0  0  0  0  0  0  0  0  0  0  0
   13.0812    0.1153    0.0000 C   0  0  0  0  0  0  0  0  0  0  0  0
   -4.5077   -1.5788    0.0000 C   0  0  0  0  0  0  0  0  0  0  0  0
    4.5077   -1.5347    0.0000 C   0  0  0  0  0  0  0  0  0  0  0  0
   -3.7933   -1.1664    0.0000 C   0  0  0  0  0  0  0  0  0  0  0  0
    3.7933   -1.1221    0.0000 C   0  0  0  0  0  0  0  0  0  0  0  0
   -3.0788   -1.5788    0.0000 C   0  0  0  0  0  0  0  0  0  0  0  0
    3.0788   -1.5347    0.0000 C   0  0  0  0  0  0  0  0  0  0  0  0
   -1.6499   -1.5788    0.0000 C   0  0  0  0  0  0  0  0  0  0  0  0
    1.3626   -1.5788    0.0000 C   0  0  0  0  0  0  0  0  0  0  0  0
   -0.9354   -1.1664    0.0000 C   0  0  0  0  0  0  0  0  0  0  0  0
    0.6482   -1.1664    0.0000 C   0  0  0  0  0  0  0  0  0  0  0  0
  1 16  2  0  0  0  0
  2 17  2  0  0  0  0
  3 64  1  0  0  0  0
  3 66  1  0  0  0  0
  4 65  1  0  0  0  0
  4 67  1  0  0  0  0
  5 65  2  0  0  0  0
  6 64  2  0  0  0  0
  7 68  1  0  0  0  0
  7 69  1  0  0  0  0
  8 14  1  0  0  0  0
  8 38  1  0  0  0  0
  8 39  1  0  0  0  0
  9 15  1  0  0  0  0
  9 36  1  0  0  0  0
  9 37  1  0  0  0  0
 10 30  1  0  0  0  0
 10 46  1  0  0  0  0
 10 47  1  0  0  0  0
 11 31  1  0  0  0  0
 11 48  1  0  0  0  0
 11 49  1  0  0  0  0
 12 54  1  0  0  0  0
 12 55  1  0  0  0  0
 12 60  1  0  0  0  0
 13 56  1  0  0  0  0
 13 57  1  0  0  0  0
 13 61  1  0  0  0  0
 14 16  1  0  0  0  0
 14 20  1  0  0  0  0
 14 22  1  0  0  0  0
 15 17  1  0  0  0  0
 15 21  1  0  0  0  0
 15 23  1  0  0  0  0
 16 18  1  0  0  0  0
 17 19  1  0  0  0  0
 18 26  2  0  0  0  0
 18 28  1  0  0  0  0
 19 27  2  0  0  0  0
 19 29  1  0  0  0  0
 20 24  1  0  0  0  0
 21 25  1  0  0  0  0
 22 44  1  0  0  0  0
 23 45  1  0  0  0  0
 24 40  2  0  0  0  0
 24 42  1  0  0  0  0
 25 41  2  0  0  0  0
 25 43  1  0  0  0  0
 26 32  1  0  0  0  0
 27 33  1  0  0  0  0
 28 34  2  0  0  0  0
 29 35  2  0  0  0  0
 30 32  2  0  0  0  0
 30 34  1  0  0  0  0
 31 33  2  0  0  0  0
 31 35  1  0  0  0  0
 40 50  1  0  0  0  0
 41 51  1  0  0  0  0
 42 52  2  0  0  0  0
 43 53  2  0  0  0  0
 46 54  1  0  0  0  0
 47 55  1  0  0  0  0
 48 56  1  0  0  0  0
 49 57  1  0  0  0  0
 50 58  2  0  0  0  0
 51 59  2  0  0  0  0
 52 58  1  0  0  0  0
 53 59  1  0  0  0  0
 60 62  1  0  0  0  0
 61 63  1  0  0  0  0
 62 64  1  0  0  0  0
 63 65  1  0  0  0  0
 66 68  1  0  0  0  0
 67 69  1  0  0  0  0
M  END
> <PUBCHEM_COMPOUND_ID_TYPE>
0

> <PUBCHEM_TOTAL_CHARGE>
0

> <PUBCHEM_SUBSTANCE_ID>
310939086

> <PUBCHEM_SUBSTANCE_VERSION>
1

> <PUBCHEM_EXT_DATASOURCE_NAME>
4488

> <PUBCHEM_EXT_DATASOURCE_REGID>
SCHEMBL16117005

> <PUBCHEM_SUBSTANCE_COMMENT>
InChI=1S/C56H76N6O7/c1-7-55(57(3)4,43-45-15-11-9-12-16-45)53(65)47-19-23-49(24-20-47)61-35-31-59(32-36-61)29-27-51(63)68-41-39-67-40-42-69-52(64)28-30-60-33-37-62(38-34-60)50-25-21-48(22-26-50)54(66)56(8-2,58(5)6)44-46-17-13-10-14-18-46/h9-26H,7-8,27-44H2,1-6H3
InChIKey=KAJCXCKJCUDPJL-UHFFFAOYSA-N

> <PUBCHEM_SUBSTANCE_SYNONYM>
SCHEMBL16117005

> <PUBCHEM_XREF_EXT_ID>
SCHEMBL16117005

> <PUBCHEM_EXT_DATASOURCE_URL>
https://www.surechembl.org/

> <PUBCHEM_EXT_SUBSTANCE_URL>
https://www.surechembl.org/chemical/SCHEMBL16117005

> <PUBCHEM_CID_ASSOCIATIONS>
117606447  1

> <PUBCHEM_COORDINATE_TYPE>
1
3

$$$$
