310943776
  -OEChem-07211613022D

 34 37  0     1  0  0  0  0  0999 V2000
   -3.2678   -1.0251    0.0000 N   0  0  3  0  0  0  0  0  0  0  0  0
    3.2339    1.0251    0.0000 N   0  0  3  0  0  0  0  0  0  0  0  0
    1.0251   -2.0672    0.0000 N   0  0  0  0  0  0  0  0  0  0  0  0
   -1.1270    2.0672    0.0000 N   0  0  0  0  0  0  0  0  0  0  0  0
   -5.0462   -0.4814    0.0000 N   0  0  3  0  0  0  0  0  0  0  0  0
    4.9896    0.4814    0.0000 N   0  0  3  0  0  0  0  0  0  0  0  0
   -0.4135   -0.1869    0.0000 C   0  0  0  0  0  0  0  0  0  0  0  0
    0.3115    0.2435    0.0000 C   0  0  0  0  0  0  0  0  0  0  0  0
   -1.1270    0.2095    0.0000 C   0  0  0  0  0  0  0  0  0  0  0  0
    1.0251   -0.1869    0.0000 C   0  0  0  0  0  0  0  0  0  0  0  0
    0.3115    1.0477    0.0000 C   0  0  0  0  0  0  0  0  0  0  0  0
   -0.4135   -1.0251    0.0000 C   0  0  0  0  0  0  0  0  0  0  0  0
   -1.8406   -1.0138    0.0000 C   0  0  0  0  0  0  0  0  0  0  0  0
    1.7387    1.0477    0.0000 C   0  0  0  0  0  0  0  0  0  0  0  0
   -1.8293   -0.1982    0.0000 C   0  0  0  0  0  0  0  0  0  0  0  0
    1.7274    0.2209    0.0000 C   0  0  0  0  0  0  0  0  0  0  0  0
   -1.1157   -1.4328    0.0000 C   0  0  0  0  0  0  0  0  0  0  0  0
    1.0251    1.4555    0.0000 C   0  0  0  0  0  0  0  0  0  0  0  0
   -1.1270    1.2517    0.0000 C   0  0  0  0  0  0  0  0  0  0  0  0
    1.0251   -1.2290    0.0000 C   0  0  0  0  0  0  0  0  0  0  0  0
   -2.5429   -1.4442    0.0000 C   0  0  0  0  0  0  0  0  0  0  0  0
    2.4410    1.4668    0.0000 C   0  0  0  0  0  0  0  0  0  0  0  0
   -3.9475   -1.4895    0.0000 C   0  0  0  0  0  0  0  0  0  0  0  0
    3.5171    0.2662    0.0000 C   0  0  0  0  0  0  0  0  0  0  0  0
   -3.2112   -0.2095    0.0000 C   0  0  0  0  0  0  0  0  0  0  0  0
    3.6417    1.7501    0.0000 C   0  0  0  0  0  0  0  0  0  0  0  0
   -4.7404   -1.2517    0.0000 C   0  0  0  0  0  0  0  0  0  0  0  0
    4.3213    0.0283    0.0000 C   0  0  0  0  0  0  0  0  0  0  0  0
   -3.8116    0.3568    0.0000 C   0  0  0  0  0  0  0  0  0  0  0  0
    4.4459    1.8746    0.0000 C   0  0  0  0  0  0  0  0  0  0  0  0
   -4.6271    0.2322    0.0000 C   0  0  0  0  0  0  0  0  0  0  0  0
    5.0462    1.2970    0.0000 C   0  0  0  0  0  0  0  0  0  0  0  0
   -5.8845   -0.4927    0.0000 C   0  0  0  0  0  0  0  0  0  0  0  0
    5.8845   -0.0283    0.0000 C   0  0  0  0  0  0  0  0  0  0  0  0
  1 21  1  0  0  0  0
  1 23  1  0  0  0  0
  1 25  1  0  0  0  0
  2 22  1  0  0  0  0
  2 24  1  0  0  0  0
  2 26  1  0  0  0  0
  3 20  3  0  0  0  0
  4 19  3  0  0  0  0
  5 27  1  0  0  0  0
  5 31  1  0  0  0  0
  5 33  1  0  0  0  0
  6 28  1  0  0  0  0
  6 32  1  0  0  0  0
  6 34  1  0  0  0  0
  7  8  1  0  0  0  0
  7  9  2  0  0  0  0
  7 12  1  0  0  0  0
  8 10  2  0  0  0  0
  8 11  1  0  0  0  0
  9 15  1  0  0  0  0
  9 19  1  0  0  0  0
 10 16  1  0  0  0  0
 10 20  1  0  0  0  0
 11 18  2  0  0  0  0
 12 17  2  0  0  0  0
 13 15  2  0  0  0  0
 13 17  1  0  0  0  0
 13 21  1  0  0  0  0
 14 16  2  0  0  0  0
 14 18  1  0  0  0  0
 14 22  1  0  0  0  0
 23 27  1  0  0  0  0
 24 28  1  0  0  0  0
 25 29  1  0  0  0  0
 26 30  1  0  0  0  0
 29 31  1  0  0  0  0
 30 32  1  0  0  0  0
M  END
> <PUBCHEM_COMPOUND_ID_TYPE>
0

> <PUBCHEM_TOTAL_CHARGE>
0

> <PUBCHEM_SUBSTANCE_ID>
310943776

> <PUBCHEM_SUBSTANCE_VERSION>
1

> <PUBCHEM_EXT_DATASOURCE_NAME>
4488

> <PUBCHEM_EXT_DATASOURCE_REGID>
SCHEMBL16121845

> <PUBCHEM_SUBSTANCE_COMMENT>
InChI=1S/C28H36N6/c1-31-9-3-11-33(15-13-31)21-23-5-7-27(25(17-23)19-29)28-8-6-24(18-26(28)20-30)22-34-12-4-10-32(2)14-16-34/h5-8,17-18H,3-4,9-16,21-22H2,1-2H3
InChIKey=UTVQLWIYXWSUDB-UHFFFAOYSA-N

> <PUBCHEM_SUBSTANCE_SYNONYM>
SCHEMBL16121845

> <PUBCHEM_XREF_EXT_ID>
SCHEMBL16121845

> <PUBCHEM_EXT_DATASOURCE_URL>
https://www.surechembl.org/

> <PUBCHEM_EXT_SUBSTANCE_URL>
https://www.surechembl.org/chemical/SCHEMBL16121845

> <PUBCHEM_CID_ASSOCIATIONS>
86301512  1

> <PUBCHEM_COORDINATE_TYPE>
1
3

$$$$
