310930710
  -OEChem-07211613022D

 23 24  0     1  0  0  0  0  0999 V2000
    0.8251   -1.6501    0.0000 O   0  0  0  0  0  0  0  0  0  0  0  0
    2.2689   -1.6501    0.0000 O   0  0  0  0  0  0  0  0  0  0  0  0
    1.5263   -7.8378    0.0000 O   0  0  0  0  0  0  0  0  0  0  0  0
    3.6714   -4.1252    0.0000 O   0  0  0  0  0  0  0  0  0  0  0  0
    1.5263   -2.8876    0.0000 N   0  0  0  0  0  0  0  0  0  0  0  0
    1.5263   -4.5377    0.0000 C   0  0  3  0  0  0  0  0  0  0  0  0
    2.2689   -4.1252    0.0000 C   0  0  3  0  0  0  0  0  0  0  0  0
    1.5263   -5.3627    0.0000 C   0  0  0  0  0  0  0  0  0  0  0  0
    2.2689   -3.3001    0.0000 C   0  0  0  0  0  0  0  0  0  0  0  0
    0.8251   -4.1252    0.0000 C   0  0  0  0  0  0  0  0  0  0  0  0
    1.5263   -2.0626    0.0000 C   0  0  0  0  0  0  0  0  0  0  0  0
    0.8251   -3.3001    0.0000 C   0  0  0  0  0  0  0  0  0  0  0  0
    2.2689   -5.7752    0.0000 C   0  0  0  0  0  0  0  0  0  0  0  0
    0.8251   -5.7752    0.0000 C   0  0  0  0  0  0  0  0  0  0  0  0
    2.9701   -4.5377    0.0000 C   0  0  0  0  0  0  0  0  0  0  0  0
    0.8251   -0.8251    0.0000 C   0  0  0  0  0  0  0  0  0  0  0  0
    1.5263   -7.0128    0.0000 C   0  0  0  0  0  0  0  0  0  0  0  0
    2.2689   -6.6002    0.0000 C   0  0  0  0  0  0  0  0  0  0  0  0
    0.8251   -6.6002    0.0000 C   0  0  0  0  0  0  0  0  0  0  0  0
    1.6501   -0.8251    0.0000 C   0  0  0  0  0  0  0  0  0  0  0  0
    0.8251    0.0000    0.0000 C   0  0  0  0  0  0  0  0  0  0  0  0
    0.0000   -0.8251    0.0000 C   0  0  0  0  0  0  0  0  0  0  0  0
    2.2276   -8.2503    0.0000 C   0  0  0  0  0  0  0  0  0  0  0  0
  1 11  1  0  0  0  0
  1 16  1  0  0  0  0
  2 11  2  0  0  0  0
  3 17  1  0  0  0  0
  3 23  1  0  0  0  0
  4 15  1  0  0  0  0
  5  9  1  0  0  0  0
  5 11  1  0  0  0  0
  5 12  1  0  0  0  0
  6  7  1  0  0  0  0
  6  8  1  0  0  0  0
  6 10  1  0  0  0  0
  7  9  1  0  0  0  0
  7 15  1  0  0  0  0
  8 13  2  0  0  0  0
  8 14  1  0  0  0  0
 10 12  1  0  0  0  0
 13 18  1  0  0  0  0
 14 19  2  0  0  0  0
 16 20  1  0  0  0  0
 16 21  1  0  0  0  0
 16 22  1  0  0  0  0
 17 18  2  0  0  0  0
 17 19  1  0  0  0  0
M  END
> <PUBCHEM_COMPOUND_ID_TYPE>
0

> <PUBCHEM_TOTAL_CHARGE>
0

> <PUBCHEM_SUBSTANCE_ID>
310930710

> <PUBCHEM_SUBSTANCE_VERSION>
1

> <PUBCHEM_EXT_DATASOURCE_NAME>
4488

> <PUBCHEM_EXT_DATASOURCE_REGID>
SCHEMBL16108007

> <PUBCHEM_SUBSTANCE_COMMENT>
InChI=1S/C18H27NO4/c1-18(2,3)23-17(21)19-10-9-16(14(11-19)12-20)13-5-7-15(22-4)8-6-13/h5-8,14,16,20H,9-12H2,1-4H3
InChIKey=BKTMKNQBZDHPBJ-UHFFFAOYSA-N

> <PUBCHEM_SUBSTANCE_SYNONYM>
SCHEMBL16108007

> <PUBCHEM_XREF_EXT_ID>
SCHEMBL16108007

> <PUBCHEM_EXT_DATASOURCE_URL>
https://www.surechembl.org/

> <PUBCHEM_EXT_SUBSTANCE_URL>
https://www.surechembl.org/chemical/SCHEMBL16108007

> <PUBCHEM_CID_ASSOCIATIONS>
117599748  1

> <PUBCHEM_COORDINATE_TYPE>
1
3

$$$$
