310945825
  -OEChem-07211613022D

 40 43  0     1  0  0  0  0  0999 V2000
    5.1494    0.9763    0.0000 O   0  0  0  0  0  0  0  0  0  0  0  0
    4.0219   -0.9763    0.0000 O   0  0  0  0  0  0  0  0  0  0  0  0
    1.6706    0.9625    0.0000 O   0  0  0  0  0  0  0  0  0  0  0  0
   -3.4306   -1.0863    0.0000 O   0  0  0  0  0  0  0  0  0  0  0  0
   -0.4744   -1.1000    0.0000 O   0  0  0  0  0  0  0  0  0  0  0  0
   -2.6332    0.9625    0.0000 O   0  0  0  0  0  0  0  0  0  0  0  0
    3.8157   -2.7363    0.0000 O   0  0  0  0  0  0  0  0  0  0  0  0
    2.3857   -0.2613    0.0000 N   0  0  0  0  0  0  0  0  0  0  0  0
    0.2406    0.1375    0.0000 N   0  0  0  0  0  0  0  0  0  0  0  0
   -1.9044   -0.2613    0.0000 N   0  0  0  0  0  0  0  0  0  0  0  0
   -4.2282   -1.2513    0.0000 N   0  0  0  0  0  0  0  0  0  0  0  0
    4.7507    0.3025    0.0000 C   0  0  3  0  0  0  0  0  0  0  0  0
    4.0357   -0.0962    0.0000 C   0  0  0  0  0  0  0  0  0  0  0  0
    4.3519    0.9900    0.0000 C   0  0  0  0  0  0  0  0  0  0  0  0
    3.3206    0.2887    0.0000 C   0  0  3  0  0  0  0  0  0  0  0  0
    5.4794   -0.1100    0.0000 C   0  0  0  0  0  0  0  0  0  0  0  0
    3.3206    1.3475    0.0000 C   0  0  0  0  0  0  0  0  0  0  0  0
    1.6706    0.1513    0.0000 C   0  0  0  0  0  0  0  0  0  0  0  0
    0.9694   -0.2475    0.0000 C   0  0  3  0  0  0  0  0  0  0  0  0
    2.5919    1.7875    0.0000 C   0  0  0  0  0  0  0  0  0  0  0  0
    0.9556   -1.0725    0.0000 C   0  0  0  0  0  0  0  0  0  0  0  0
   -0.4607   -0.2200    0.0000 C   0  0  0  0  0  0  0  0  0  0  0  0
    1.6844   -1.4712    0.0000 C   0  0  0  0  0  0  0  0  0  0  0  0
   -1.1894    0.1650    0.0000 C   0  0  3  0  0  0  0  0  0  0  0  0
   -3.3344   -0.2475    0.0000 C   0  0  0  0  0  0  0  0  0  0  0  0
    1.8357    1.4575    0.0000 C   0  0  0  0  0  0  0  0  0  0  0  0
    2.5094    2.5712    0.0000 C   0  0  0  0  0  0  0  0  0  0  0  0
   -2.6194    0.1513    0.0000 C   0  0  0  0  0  0  0  0  0  0  0  0
   -4.0907    0.0825    0.0000 C   0  0  0  0  0  0  0  0  0  0  0  0
   -4.6544   -0.5225    0.0000 C   0  0  0  0  0  0  0  0  0  0  0  0
    1.3131    2.0350    0.0000 C   0  0  0  0  0  0  0  0  0  0  0  0
    1.7119    2.7363    0.0000 C   0  0  0  0  0  0  0  0  0  0  0  0
    1.6844   -2.2962    0.0000 C   0  0  0  0  0  0  0  0  0  0  0  0
    2.3719   -1.0863    0.0000 C   0  0  0  0  0  0  0  0  0  0  0  0
    3.0869   -2.2962    0.0000 C   0  0  0  0  0  0  0  0  0  0  0  0
    2.3994   -2.7088    0.0000 C   0  0  0  0  0  0  0  0  0  0  0  0
    3.1007   -1.4850    0.0000 C   0  0  0  0  0  0  0  0  0  0  0  0
   -1.1756    1.0038    0.0000 C   0  0  0  0  0  0  0  0  0  0  0  0
   -5.4794   -0.4400    0.0000 C   0  0  0  0  0  0  0  0  0  0  0  0
    4.5582   -2.2962    0.0000 C   0  0  0  0  0  0  0  0  0  0  0  0
  1 12  1  0  0  0  0
  1 14  1  0  0  0  0
  2 13  2  0  0  0  0
  3 18  2  0  0  0  0
  4 11  1  0  0  0  0
  4 25  1  0  0  0  0
  5 22  2  0  0  0  0
  6 28  2  0  0  0  0
  7 35  1  0  0  0  0
  7 40  1  0  0  0  0
  8 15  1  0  0  0  0
  8 18  1  0  0  0  0
  9 19  1  0  0  0  0
  9 22  1  0  0  0  0
 10 24  1  0  0  0  0
 10 28  1  0  0  0  0
 11 30  2  0  0  0  0
 12 13  1  0  0  0  0
 12 14  1  0  0  0  0
 12 16  1  0  0  0  0
 13 15  1  0  0  0  0
 15 17  1  0  0  0  0
 17 20  1  0  0  0  0
 18 19  1  0  0  0  0
 19 21  1  0  0  0  0
 20 26  1  0  0  0  0
 20 27  1  0  0  0  0
 21 23  1  0  0  0  0
 22 24  1  0  0  0  0
 23 33  2  0  0  0  0
 23 34  1  0  0  0  0
 24 38  1  0  0  0  0
 25 28  1  0  0  0  0
 25 29  2  0  0  0  0
 26 31  1  0  0  0  0
 27 32  1  0  0  0  0
 29 30  1  0  0  0  0
 30 39  1  0  0  0  0
 31 32  1  0  0  0  0
 33 36  1  0  0  0  0
 34 37  2  0  0  0  0
 35 36  2  0  0  0  0
 35 37  1  0  0  0  0
M  END
> <PUBCHEM_COMPOUND_ID_TYPE>
0

> <PUBCHEM_TOTAL_CHARGE>
0

> <PUBCHEM_SUBSTANCE_ID>
310945825

> <PUBCHEM_SUBSTANCE_VERSION>
1

> <PUBCHEM_EXT_DATASOURCE_NAME>
4488

> <PUBCHEM_EXT_DATASOURCE_REGID>
SCHEMBL16123930

> <PUBCHEM_SUBSTANCE_COMMENT>
InChI=1S/C29H38N4O7/c1-17-13-24(40-33-17)28(37)30-18(2)26(35)32-23(15-20-9-11-21(38-4)12-10-20)27(36)31-22(14-19-7-5-6-8-19)25(34)29(3)16-39-29/h9-13,18-19,22-23H,5-8,14-16H2,1-4H3,(H,30,37)(H,31,36)(H,32,35)
InChIKey=DPAGPIAHKZXUDM-UHFFFAOYSA-N

> <PUBCHEM_SUBSTANCE_SYNONYM>
SCHEMBL16123930

> <PUBCHEM_XREF_EXT_ID>
SCHEMBL16123930

> <PUBCHEM_EXT_DATASOURCE_URL>
https://www.surechembl.org/

> <PUBCHEM_EXT_SUBSTANCE_URL>
https://www.surechembl.org/chemical/SCHEMBL16123930

> <PUBCHEM_CID_ASSOCIATIONS>
117611811  1

> <PUBCHEM_COORDINATE_TYPE>
1
3

$$$$
