310930605
  -OEChem-07211613022D

 32 36  0     1  0  0  0  0  0999 V2000
    5.3734   -2.8182    0.0000 O   0  0  0  0  0  0  0  0  0  0  0  0
    4.2836   -7.0643    0.0000 O   0  0  0  0  0  0  0  0  0  0  0  0
    4.1333    0.0000    0.0000 O   0  0  0  0  0  0  0  0  0  0  0  0
    3.9455   -2.4800    0.0000 N   0  0  0  0  0  0  0  0  0  0  0  0
    3.4570   -3.7200    0.0000 N   0  0  0  0  0  0  0  0  0  0  0  0
    2.4800   -2.6303    0.0000 N   0  0  0  0  0  0  0  0  0  0  0  0
    0.0000   -6.2752    0.0000 N   0  0  0  0  0  0  0  0  0  0  0  0
    4.2461   -3.7952    0.0000 C   0  0  3  0  0  0  0  0  0  0  0  0
    4.5843   -3.0437    0.0000 C   0  0  0  0  0  0  0  0  0  0  0  0
    5.0727   -3.7200    0.0000 C   0  0  0  0  0  0  0  0  0  0  0  0
    4.2461   -4.6218    0.0000 C   0  0  0  0  0  0  0  0  0  0  0  0
    3.2691   -2.9309    0.0000 C   0  0  0  0  0  0  0  0  0  0  0  0
    5.7491   -3.2691    0.0000 C   0  0  0  0  0  0  0  0  0  0  0  0
    5.8243   -4.0958    0.0000 C   0  0  0  0  0  0  0  0  0  0  0  0
    4.0206   -1.6909    0.0000 C   0  0  0  0  0  0  0  0  0  0  0  0
    3.5321   -5.0352    0.0000 C   0  0  0  0  0  0  0  0  0  0  0  0
    4.9601   -5.0352    0.0000 C   0  0  0  0  0  0  0  0  0  0  0  0
    3.5321   -5.8618    0.0000 C   0  0  0  0  0  0  0  0  0  0  0  0
    4.2836   -6.2752    0.0000 C   0  0  0  0  0  0  0  0  0  0  0  0
    4.9601   -5.8618    0.0000 C   0  0  0  0  0  0  0  0  0  0  0  0
    2.8558   -6.2752    0.0000 C   0  0  0  0  0  0  0  0  0  0  0  0
    4.7722   -1.3152    0.0000 C   0  0  0  0  0  0  0  0  0  0  0  0
    3.3442   -1.1649    0.0000 C   0  0  0  0  0  0  0  0  0  0  0  0
    2.1418   -5.8618    0.0000 C   0  0  0  0  0  0  0  0  0  0  0  0
    2.8558   -7.1019    0.0000 C   0  0  0  0  0  0  0  0  0  0  0  0
    4.8097   -0.4885    0.0000 C   0  0  0  0  0  0  0  0  0  0  0  0
    3.4194   -0.3758    0.0000 C   0  0  0  0  0  0  0  0  0  0  0  0
    1.4279   -6.2752    0.0000 C   0  0  0  0  0  0  0  0  0  0  0  0
    2.1418   -7.5152    0.0000 C   0  0  0  0  0  0  0  0  0  0  0  0
    1.4279   -7.1019    0.0000 C   0  0  0  0  0  0  0  0  0  0  0  0
    4.9976   -7.4776    0.0000 C   0  0  0  0  0  0  0  0  0  0  0  0
    0.7140   -5.8618    0.0000 C   0  0  0  0  0  0  0  0  0  0  0  0
  1  9  2  0  0  0  0
  2 19  1  0  0  0  0
  2 31  1  0  0  0  0
  3 26  1  0  0  0  0
  3 27  1  0  0  0  0
  4  9  1  0  0  0  0
  4 12  1  0  0  0  0
  4 15  1  0  0  0  0
  5  8  1  0  0  0  0
  5 12  1  0  0  0  0
  6 12  2  3  0  0  0
  7 32  3  0  0  0  0
  8  9  1  0  0  0  0
  8 10  1  0  0  0  0
  8 11  1  0  0  0  0
 10 13  1  0  0  0  0
 10 14  1  0  0  0  0
 11 16  1  0  0  0  0
 11 17  2  0  0  0  0
 13 14  1  0  0  0  0
 15 22  1  0  0  0  0
 15 23  1  0  0  0  0
 16 18  2  0  0  0  0
 17 20  1  0  0  0  0
 18 19  1  0  0  0  0
 18 21  1  0  0  0  0
 19 20  2  0  0  0  0
 21 24  1  0  0  0  0
 21 25  2  0  0  0  0
 22 26  1  0  0  0  0
 23 27  1  0  0  0  0
 24 28  2  0  0  0  0
 25 29  1  0  0  0  0
 28 30  1  0  0  0  0
 28 32  1  0  0  0  0
 29 30  2  0  0  0  0
M  END
> <PUBCHEM_COMPOUND_ID_TYPE>
0

> <PUBCHEM_TOTAL_CHARGE>
0

> <PUBCHEM_SUBSTANCE_ID>
310930605

> <PUBCHEM_SUBSTANCE_VERSION>
1

> <PUBCHEM_EXT_DATASOURCE_NAME>
4488

> <PUBCHEM_EXT_DATASOURCE_REGID>
SCHEMBL16107902

> <PUBCHEM_SUBSTANCE_COMMENT>
InChI=1S/C25H26N4O3/c1-31-22-8-7-19(14-21(22)17-4-2-3-16(13-17)15-26)25(18-5-6-18)23(30)29(24(27)28-25)20-9-11-32-12-10-20/h2-4,7-8,13-14,18,20H,5-6,9-12H2,1H3,(H2,27,28)
InChIKey=LRNWDZVTKKJAMY-UHFFFAOYSA-N

> <PUBCHEM_SUBSTANCE_SYNONYM>
SCHEMBL16107902

> <PUBCHEM_XREF_EXT_ID>
SCHEMBL16107902

> <PUBCHEM_EXT_DATASOURCE_URL>
https://www.surechembl.org/

> <PUBCHEM_EXT_SUBSTANCE_URL>
https://www.surechembl.org/chemical/SCHEMBL16107902

> <PUBCHEM_CID_ASSOCIATIONS>
117599681  1

> <PUBCHEM_COORDINATE_TYPE>
1
3

$$$$
