310935195
  -OEChem-07211613022D

 22 24  0     1  0  0  0  0  0999 V2000
   -2.4731   -0.1741    0.0000 F   0  0  0  0  0  0  0  0  0  0  0  0
    0.5420    0.3405    0.0000 O   0  0  0  0  0  0  0  0  0  0  0  0
    1.6039   -0.6157    0.0000 O   0  0  0  0  0  0  0  0  0  0  0  0
    2.2222   -3.7788    0.0000 N   0  0  0  0  0  0  0  0  0  0  0  0
    1.5548   -4.2638    0.0000 N   0  0  0  0  0  0  0  0  0  0  0  0
    0.2449   -1.0572    0.0000 C   0  0  3  0  0  0  0  0  0  0  0  0
   -0.3071   -0.4441    0.0000 C   0  0  0  0  0  0  0  0  0  0  0  0
    0.9123   -1.5422    0.0000 C   0  0  0  0  0  0  0  0  0  0  0  0
    0.7969   -0.4441    0.0000 C   0  0  0  0  0  0  0  0  0  0  0  0
    0.6574   -2.3268    0.0000 C   0  0  0  0  0  0  0  0  0  0  0  0
   -0.4226   -1.5422    0.0000 C   0  0  0  0  0  0  0  0  0  0  0  0
   -1.1141   -0.6157    0.0000 C   0  0  0  0  0  0  0  0  0  0  0  0
   -0.1676   -2.3268    0.0000 C   0  0  0  0  0  0  0  0  0  0  0  0
    1.1423   -2.9942    0.0000 C   0  0  0  0  0  0  0  0  0  0  0  0
   -0.0522    0.3405    0.0000 C   0  0  0  0  0  0  0  0  0  0  0  0
   -1.6662   -0.0026    0.0000 C   0  0  0  0  0  0  0  0  0  0  0  0
   -0.6042    0.9536    0.0000 C   0  0  0  0  0  0  0  0  0  0  0  0
   -1.4112    0.7820    0.0000 C   0  0  0  0  0  0  0  0  0  0  0  0
    1.9673   -2.9942    0.0000 C   0  0  0  0  0  0  0  0  0  0  0  0
    0.8874   -3.7788    0.0000 C   0  0  0  0  0  0  0  0  0  0  0  0
   -1.3691   -1.4003    0.0000 C   0  0  0  0  0  0  0  0  0  0  0  0
    1.0940    0.9536    0.0000 C   0  0  0  0  0  0  0  0  0  0  0  0
  1 16  1  0  0  0  0
  2  9  1  0  0  0  0
  2 22  1  0  0  0  0
  3  9  2  0  0  0  0
  4  5  1  0  0  0  0
  4 19  2  0  0  0  0
  5 20  1  0  0  0  0
  6  7  1  0  0  0  0
  6  8  1  0  0  0  0
  6  9  1  0  0  0  0
  6 11  1  0  0  0  0
  7 12  2  0  0  0  0
  7 15  1  0  0  0  0
  8 10  2  0  0  0  0
 10 13  1  0  0  0  0
 10 14  1  0  0  0  0
 11 13  1  0  0  0  0
 12 16  1  0  0  0  0
 12 21  1  0  0  0  0
 14 19  1  0  0  0  0
 14 20  2  0  0  0  0
 15 17  2  0  0  0  0
 16 18  2  0  0  0  0
 17 18  1  0  0  0  0
M  END
> <PUBCHEM_COMPOUND_ID_TYPE>
0

> <PUBCHEM_TOTAL_CHARGE>
0

> <PUBCHEM_SUBSTANCE_ID>
310935195

> <PUBCHEM_SUBSTANCE_VERSION>
1

> <PUBCHEM_EXT_DATASOURCE_NAME>
4488

> <PUBCHEM_EXT_DATASOURCE_REGID>
SCHEMBL16112723

> <PUBCHEM_SUBSTANCE_COMMENT>
InChI=1S/C17H17FN2O2/c1-11-14(4-3-5-15(11)18)17(16(21)22-2)7-6-12(8-17)13-9-19-20-10-13/h3-5,8-10H,6-7H2,1-2H3,(H,19,20)
InChIKey=GLQGIMXQZWCYSB-UHFFFAOYSA-N

> <PUBCHEM_SUBSTANCE_SYNONYM>
SCHEMBL16112723

> <PUBCHEM_XREF_EXT_ID>
SCHEMBL16112723

> <PUBCHEM_EXT_DATASOURCE_URL>
https://www.surechembl.org/

> <PUBCHEM_EXT_SUBSTANCE_URL>
https://www.surechembl.org/chemical/SCHEMBL16112723

> <PUBCHEM_CID_ASSOCIATIONS>
117603275  1

> <PUBCHEM_COORDINATE_TYPE>
1
3

$$$$
