310944587
  -OEChem-07211613022D

 25 27  0     1  0  0  0  0  0999 V2000
   -4.1784    1.3575    0.0000 I   0  0  0  0  0  0  0  0  0  0  0  0
   -4.3527   -0.3114    0.0000 Cl  0  0  0  0  0  0  0  0  0  0  0  0
    0.1183    2.1795    0.0000 O   0  0  0  0  0  0  0  0  0  0  0  0
    4.3527   -0.5605    0.0000 O   0  0  0  0  0  0  0  0  0  0  0  0
   -1.3139   -0.3114    0.0000 O   0  0  0  0  0  0  0  0  0  0  0  0
    0.8531    0.9465    0.0000 N   0  0  0  0  0  0  0  0  0  0  0  0
    2.9330   -0.5605    0.0000 N   0  0  0  0  0  0  0  0  0  0  0  0
   -1.3015    1.3575    0.0000 N   0  0  0  0  0  0  0  0  0  0  0  0
    1.6502   -0.1370    0.0000 C   0  0  3  0  0  0  0  0  0  0  0  0
    2.1358    0.5355    0.0000 C   0  0  3  0  0  0  0  0  0  0  0  0
    0.8655    0.1121    0.0000 C   0  0  0  0  0  0  0  0  0  0  0  0
    1.6627    1.1956    0.0000 C   0  0  0  0  0  0  0  0  0  0  0  0
    2.1358   -0.8095    0.0000 C   0  0  0  0  0  0  0  0  0  0  0  0
    2.9330    0.2740    0.0000 C   0  0  0  0  0  0  0  0  0  0  0  0
    0.1183    1.3450    0.0000 C   0  0  0  0  0  0  0  0  0  0  0  0
    3.6428   -0.9714    0.0000 C   0  0  0  0  0  0  0  0  0  0  0  0
   -2.0238    0.9465    0.0000 C   0  0  0  0  0  0  0  0  0  0  0  0
   -2.0362    0.1246    0.0000 C   0  0  0  0  0  0  0  0  0  0  0  0
   -0.5792    0.9465    0.0000 C   0  0  0  0  0  0  0  0  0  0  0  0
   -3.4685    0.9465    0.0000 C   0  0  0  0  0  0  0  0  0  0  0  0
   -3.4685    0.1121    0.0000 C   0  0  0  0  0  0  0  0  0  0  0  0
   -2.7462    1.3450    0.0000 C   0  0  0  0  0  0  0  0  0  0  0  0
   -2.7337   -0.2989    0.0000 C   0  0  0  0  0  0  0  0  0  0  0  0
    3.6428   -1.8183    0.0000 C   0  0  0  0  0  0  0  0  0  0  0  0
    2.9080   -2.1795    0.0000 C   0  0  0  0  0  0  0  0  0  0  0  0
  1 20  1  0  0  0  0
  2 21  1  0  0  0  0
  3 15  2  0  0  0  0
  4 16  2  0  0  0  0
  5 18  1  0  0  0  0
  6 11  1  0  0  0  0
  6 12  1  0  0  0  0
  6 15  1  0  0  0  0
  7 13  1  0  0  0  0
  7 14  1  0  0  0  0
  7 16  1  0  0  0  0
  8 17  1  0  0  0  0
  8 19  1  0  0  0  0
  9 10  1  0  0  0  0
  9 11  1  0  0  0  0
  9 13  1  0  0  0  0
 10 12  1  0  0  0  0
 10 14  1  0  0  0  0
 15 19  1  0  0  0  0
 16 24  1  0  0  0  0
 17 18  1  0  0  0  0
 17 22  2  0  0  0  0
 18 23  2  0  0  0  0
 20 21  2  0  0  0  0
 20 22  1  0  0  0  0
 21 23  1  0  0  0  0
 24 25  2  0  0  0  0
M  END
> <PUBCHEM_COMPOUND_ID_TYPE>
0

> <PUBCHEM_TOTAL_CHARGE>
0

> <PUBCHEM_SUBSTANCE_ID>
310944587

> <PUBCHEM_SUBSTANCE_VERSION>
1

> <PUBCHEM_EXT_DATASOURCE_NAME>
4488

> <PUBCHEM_EXT_DATASOURCE_REGID>
SCHEMBL16122665

> <PUBCHEM_SUBSTANCE_COMMENT>
InChI=1S/C17H19ClIN3O3/c1-2-16(24)21-6-10-8-22(9-11(10)7-21)17(25)5-20-14-4-13(19)12(18)3-15(14)23/h2-4,10-11,20,23H,1,5-9H2
InChIKey=JQFKHBRKLYJBBO-UHFFFAOYSA-N

> <PUBCHEM_SUBSTANCE_SYNONYM>
SCHEMBL16122665

> <PUBCHEM_XREF_EXT_ID>
SCHEMBL16122665

> <PUBCHEM_EXT_DATASOURCE_URL>
https://www.surechembl.org/

> <PUBCHEM_EXT_SUBSTANCE_URL>
https://www.surechembl.org/chemical/SCHEMBL16122665

> <PUBCHEM_CID_ASSOCIATIONS>
117610818  1

> <PUBCHEM_COORDINATE_TYPE>
1
3

$$$$
