310937182
  -OEChem-07211613022D

 44 47  0     1  0  0  0  0  0999 V2000
   -3.3362    4.3729    0.0000 O   0  0  0  0  0  0  0  0  0  0  0  0
   -5.8112    5.8019    0.0000 O   0  0  0  0  0  0  0  0  0  0  0  0
   -1.6862    2.9440    0.0000 O   0  0  0  0  0  0  0  0  0  0  0  0
   -1.6862    4.3729    0.0000 O   0  0  0  0  0  0  0  0  0  0  0  0
   -6.8958   -0.4125    0.0000 O   0  0  0  0  0  0  0  0  0  0  0  0
   -4.5737    2.2295    0.0000 N   0  0  0  0  0  0  0  0  0  0  0  0
   -4.5737    3.6585    0.0000 N   0  0  0  0  0  0  0  0  0  0  0  0
   -3.3362    1.5151    0.0000 N   0  0  0  0  0  0  0  0  0  0  0  0
   -5.3807    2.0580    0.0000 N   0  0  0  0  0  0  0  0  0  0  0  0
   -6.1813    0.8250    0.0000 N   0  0  0  0  0  0  0  0  0  0  0  0
   -4.1612    2.9440    0.0000 C   0  0  0  0  0  0  0  0  0  0  0  0
   -3.3362    2.9440    0.0000 C   0  0  0  0  0  0  0  0  0  0  0  0
   -4.1612    1.5151    0.0000 C   0  0  0  0  0  0  0  0  0  0  0  0
   -2.9237    2.2295    0.0000 C   0  0  0  0  0  0  0  0  0  0  0  0
   -2.9237    3.6585    0.0000 C   0  0  3  0  0  0  0  0  0  0  0  0
   -5.4669    1.2375    0.0000 C   0  0  0  0  0  0  0  0  0  0  0  0
   -4.7132    0.9020    0.0000 C   0  0  0  0  0  0  0  0  0  0  0  0
   -5.3987    3.6585    0.0000 C   0  0  0  0  0  0  0  0  0  0  0  0
   -4.1612    4.3729    0.0000 C   0  0  0  0  0  0  0  0  0  0  0  0
   -2.0987    3.6585    0.0000 C   0  0  0  0  0  0  0  0  0  0  0  0
   -5.3987    5.0874    0.0000 C   0  0  0  0  0  0  0  0  0  0  0  0
   -5.8112    4.3729    0.0000 C   0  0  0  0  0  0  0  0  0  0  0  0
   -4.5737    5.0874    0.0000 C   0  0  0  0  0  0  0  0  0  0  0  0
   -2.0987    2.2295    0.0000 C   0  0  0  0  0  0  0  0  0  0  0  0
   -2.9237    5.0874    0.0000 C   0  0  0  0  0  0  0  0  0  0  0  0
   -6.8958    1.2375    0.0000 C   0  0  0  0  0  0  0  0  0  0  0  0
   -4.9862    5.8019    0.0000 C   0  0  0  0  0  0  0  0  0  0  0  0
   -7.6103    0.8250    0.0000 C   0  0  0  0  0  0  0  0  0  0  0  0
   -2.5112    5.8019    0.0000 C   0  0  0  0  0  0  0  0  0  0  0  0
   -2.0987    5.0874    0.0000 C   0  0  0  0  0  0  0  0  0  0  0  0
   -3.3362    5.8019    0.0000 C   0  0  0  0  0  0  0  0  0  0  0  0
   -7.6103    0.0000    0.0000 C   0  0  0  0  0  0  0  0  0  0  0  0
   -5.3987    6.5163    0.0000 C   0  0  0  0  0  0  0  0  0  0  0  0
   -8.3248    1.2375    0.0000 C   0  0  0  0  0  0  0  0  0  0  0  0
   -8.3248   -0.4125    0.0000 C   0  0  0  0  0  0  0  0  0  0  0  0
   -9.0392    0.8250    0.0000 C   0  0  0  0  0  0  0  0  0  0  0  0
   -5.8112    7.2308    0.0000 C   0  0  0  0  0  0  0  0  0  0  0  0
   -9.0392    0.0000    0.0000 C   0  0  0  0  0  0  0  0  0  0  0  0
   -6.1813    0.0000    0.0000 C   0  0  0  0  0  0  0  0  0  0  0  0
   -5.3987    7.9453    0.0000 C   0  0  0  0  0  0  0  0  0  0  0  0
   -5.4669   -0.4125    0.0000 C   0  0  0  0  0  0  0  0  0  0  0  0
   -4.7524    0.0000    0.0000 C   0  0  0  0  0  0  0  0  0  0  0  0
   -4.0379   -0.4125    0.0000 C   0  0  0  0  0  0  0  0  0  0  0  0
   -3.3235    0.0000    0.0000 C   0  0  0  0  0  0  0  0  0  0  0  0
  1 15  1  0  0  0  0
  1 25  1  0  0  0  0
  2 21  1  0  0  0  0
  2 33  1  0  0  0  0
  3 20  2  0  0  0  0
  4 20  1  0  0  0  0
  5 32  1  0  0  0  0
  5 39  1  0  0  0  0
  6  9  1  0  0  0  0
  6 11  1  0  0  0  0
  6 13  1  0  0  0  0
  7 11  1  0  0  0  0
  7 18  1  0  0  0  0
  7 19  1  0  0  0  0
  8 13  1  0  0  0  0
  8 14  2  0  0  0  0
  9 16  2  0  0  0  0
 10 16  1  0  0  0  0
 10 26  1  0  0  0  0
 11 12  2  0  0  0  0
 12 14  1  0  0  0  0
 12 15  1  0  0  0  0
 13 17  2  0  0  0  0
 14 24  1  0  0  0  0
 15 20  1  0  0  0  0
 16 17  1  0  0  0  0
 18 22  1  0  0  0  0
 19 23  1  0  0  0  0
 21 22  1  0  0  0  0
 21 23  1  0  0  0  0
 21 27  1  0  0  0  0
 25 29  1  0  0  0  0
 25 30  1  0  0  0  0
 25 31  1  0  0  0  0
 26 28  1  0  0  0  0
 28 32  1  0  0  0  0
 28 34  2  0  0  0  0
 32 35  2  0  0  0  0
 33 37  1  0  0  0  0
 34 36  1  0  0  0  0
 35 38  1  0  0  0  0
 36 38  2  0  0  0  0
 37 40  2  0  0  0  0
 39 41  1  0  0  0  0
 41 42  1  0  0  0  0
 42 43  1  0  0  0  0
 43 44  1  0  0  0  0
M  END
> <PUBCHEM_COMPOUND_ID_TYPE>
0

> <PUBCHEM_TOTAL_CHARGE>
0

> <PUBCHEM_SUBSTANCE_ID>
310937182

> <PUBCHEM_SUBSTANCE_VERSION>
1

> <PUBCHEM_EXT_DATASOURCE_NAME>
4488

> <PUBCHEM_EXT_DATASOURCE_REGID>
SCHEMBL16114908

> <PUBCHEM_SUBSTANCE_COMMENT>
InChI=1S/C34H49N5O5/c1-8-10-13-21-42-26-15-12-11-14-25(26)23-35-27-22-28-36-24(3)29(30(32(40)41)44-33(4,5)6)31(39(28)37-27)38-18-16-34(7,17-19-38)43-20-9-2/h9,11-12,14-15,22,30H,2,8,10,13,16-21,23H2,1,3-7H3,(H,35,37)(H,40,41)
InChIKey=KCZDKZPBTZZREO-UHFFFAOYSA-N

> <PUBCHEM_SUBSTANCE_SYNONYM>
SCHEMBL16114908

> <PUBCHEM_XREF_EXT_ID>
SCHEMBL16114908

> <PUBCHEM_EXT_DATASOURCE_URL>
https://www.surechembl.org/

> <PUBCHEM_EXT_SUBSTANCE_URL>
https://www.surechembl.org/chemical/SCHEMBL16114908

> <PUBCHEM_CID_ASSOCIATIONS>
117605000  1

> <PUBCHEM_COORDINATE_TYPE>
1
3

$$$$
