310945649
  -OEChem-07211613022D

 38 41  0     1  0  0  0  0  0999 V2000
   -5.8238   -0.6700    0.0000 S   0  0  0  0  0  0  0  0  0  0  0  0
    5.7465    0.8246    0.0000 O   0  0  0  0  0  0  0  0  0  0  0  0
    2.7830    0.9792    0.0000 O   0  0  0  0  0  0  0  0  0  0  0  0
   -2.9635   -0.6700    0.0000 O   0  0  0  0  0  0  0  0  0  0  0  0
    7.2669   -0.9019    0.0000 O   0  0  0  0  0  0  0  0  0  0  0  0
    7.1123   -2.2419    0.0000 O   0  0  0  0  0  0  0  0  0  0  0  0
   -5.2827   -1.2885    0.0000 O   0  0  0  0  0  0  0  0  0  0  0  0
   -6.3392   -1.3400    0.0000 O   0  0  0  0  0  0  0  0  0  0  0  0
   -5.1280   -0.2577    0.0000 N   0  0  0  0  0  0  0  0  0  0  0  0
    4.9219   -0.2062    0.0000 C   0  0  0  0  0  0  0  0  0  0  0  0
    4.9734    0.5927    0.0000 C   0  0  0  0  0  0  0  0  0  0  0  0
   -0.8246    0.5927    0.0000 C   0  0  0  0  0  0  0  0  0  0  0  0
    5.7465   -0.5412    0.0000 C   0  0  3  0  0  0  0  0  0  0  0  0
   -0.1031    1.0050    0.0000 C   0  0  0  0  0  0  0  0  0  0  0  0
   -0.8503   -0.2319    0.0000 C   0  0  0  0  0  0  0  0  0  0  0  0
   -1.5461    1.0050    0.0000 C   0  0  0  0  0  0  0  0  0  0  0  0
    3.5304    0.5927    0.0000 C   0  0  0  0  0  0  0  0  0  0  0  0
    4.2261    0.9792    0.0000 C   0  0  0  0  0  0  0  0  0  0  0  0
    4.2519   -0.6442    0.0000 C   0  0  0  0  0  0  0  0  0  0  0  0
    6.2361    0.1804    0.0000 C   0  0  0  0  0  0  0  0  0  0  0  0
   -2.2677   -0.2319    0.0000 C   0  0  0  0  0  0  0  0  0  0  0  0
    3.5304   -0.2319    0.0000 C   0  0  0  0  0  0  0  0  0  0  0  0
    0.6700    0.6185    0.0000 C   0  0  0  0  0  0  0  0  0  0  0  0
    1.3400    1.0050    0.0000 C   0  0  0  0  0  0  0  0  0  0  0  0
   -1.4946   -0.6442    0.0000 C   0  0  0  0  0  0  0  0  0  0  0  0
   -2.2161    0.5927    0.0000 C   0  0  0  0  0  0  0  0  0  0  0  0
    6.0042   -1.2885    0.0000 C   0  0  0  0  0  0  0  0  0  0  0  0
   -0.0773    1.8296    0.0000 C   0  0  0  0  0  0  0  0  0  0  0  0
    2.1131    0.5927    0.0000 C   0  0  0  0  0  0  0  0  0  0  0  0
    1.3400    1.8296    0.0000 C   0  0  0  0  0  0  0  0  0  0  0  0
    0.6442    2.2419    0.0000 C   0  0  0  0  0  0  0  0  0  0  0  0
    6.8031   -1.4688    0.0000 C   0  0  0  0  0  0  0  0  0  0  0  0
   -0.0773   -0.6700    0.0000 C   0  0  0  0  0  0  0  0  0  0  0  0
   -1.4946    1.8554    0.0000 C   0  0  0  0  0  0  0  0  0  0  0  0
   -3.7108   -0.2577    0.0000 C   0  0  0  0  0  0  0  0  0  0  0  0
   -4.4323   -0.6442    0.0000 C   0  0  0  0  0  0  0  0  0  0  0  0
   -6.5969   -0.2577    0.0000 C   0  0  0  0  0  0  0  0  0  0  0  0
   -7.2669   -0.6958    0.0000 C   0  0  0  0  0  0  0  0  0  0  0  0
  1  7  2  0  0  0  0
  1  8  2  0  0  0  0
  1  9  1  0  0  0  0
  1 37  1  0  0  0  0
  2 11  1  0  0  0  0
  2 20  1  0  0  0  0
  3 17  1  0  0  0  0
  3 29  1  0  0  0  0
  4 21  1  0  0  0  0
  4 35  1  0  0  0  0
  5 32  2  0  0  0  0
  6 32  1  0  0  0  0
  9 36  1  0  0  0  0
 10 11  1  0  0  0  0
 10 13  1  0  0  0  0
 10 19  2  0  0  0  0
 11 18  2  0  0  0  0
 12 14  1  0  0  0  0
 12 15  2  0  0  0  0
 12 16  1  0  0  0  0
 13 20  1  0  0  0  0
 13 27  1  0  0  0  0
 14 23  2  0  0  0  0
 14 28  1  0  0  0  0
 15 25  1  0  0  0  0
 15 33  1  0  0  0  0
 16 26  2  0  0  0  0
 16 34  1  0  0  0  0
 17 18  1  0  0  0  0
 17 22  2  0  0  0  0
 19 22  1  0  0  0  0
 21 25  2  0  0  0  0
 21 26  1  0  0  0  0
 23 24  1  0  0  0  0
 24 29  1  0  0  0  0
 24 30  2  0  0  0  0
 27 32  1  0  0  0  0
 28 31  2  0  0  0  0
 30 31  1  0  0  0  0
 35 36  1  0  0  0  0
 37 38  1  0  0  0  0
M  END
> <PUBCHEM_COMPOUND_ID_TYPE>
0

> <PUBCHEM_TOTAL_CHARGE>
0

> <PUBCHEM_SUBSTANCE_ID>
310945649

> <PUBCHEM_SUBSTANCE_VERSION>
1

> <PUBCHEM_EXT_DATASOURCE_NAME>
4488

> <PUBCHEM_EXT_DATASOURCE_REGID>
SCHEMBL16123748

> <PUBCHEM_SUBSTANCE_COMMENT>
InChI=1S/C29H33NO7S/c1-4-38(33,34)30-10-11-35-25-12-19(2)29(20(3)13-25)22-7-5-6-21(14-22)17-36-24-8-9-26-23(15-28(31)32)18-37-27(26)16-24/h5-9,12-14,16,23,30H,4,10-11,15,17-18H2,1-3H3,(H,31,32)
InChIKey=GLDNWAAGMDQMNW-UHFFFAOYSA-N

> <PUBCHEM_SUBSTANCE_SYNONYM>
SCHEMBL16123748

> <PUBCHEM_XREF_EXT_ID>
SCHEMBL16123748

> <PUBCHEM_EXT_DATASOURCE_URL>
https://www.surechembl.org/

> <PUBCHEM_EXT_SUBSTANCE_URL>
https://www.surechembl.org/chemical/SCHEMBL16123748

> <PUBCHEM_CID_ASSOCIATIONS>
86269041  1

> <PUBCHEM_COORDINATE_TYPE>
1
3

$$$$
