310948772
  -OEChem-07211613022D

 46 48  0     1  0  0  0  0  0999 V2000
   -4.5560    0.0000    0.0000 O   0  0  0  0  0  0  0  0  0  0  0  0
   -0.3848   -1.4531    0.0000 O   0  0  0  0  0  0  0  0  0  0  0  0
   -0.3848    1.4405    0.0000 O   0  0  0  0  0  0  0  0  0  0  0  0
   -3.7043    1.4405    0.0000 O   0  0  0  0  0  0  0  0  0  0  0  0
   -1.1990    0.0000    0.0000 N   0  0  0  0  0  0  0  0  0  0  0  0
    2.1455    0.0000    0.0000 N   0  0  0  0  0  0  0  0  0  0  0  0
   -3.7043    1.4405    0.0000 N   0  0  0  0  0  0  0  0  0  0  0  0
   -2.4516   -0.7265    0.0000 C   0  0  0  0  0  0  0  0  0  0  0  0
   -2.0633    0.0000    0.0000 C   0  0  0  0  0  0  0  0  0  0  0  0
   -3.2909   -0.7265    0.0000 C   0  0  0  0  0  0  0  0  0  0  0  0
   -3.6917    0.0000    0.0000 C   0  0  0  0  0  0  0  0  0  0  0  0
   -3.2909    0.7265    0.0000 C   0  0  0  0  0  0  0  0  0  0  0  0
   -0.3597    0.0000    0.0000 C   0  0  0  0  0  0  0  0  0  0  0  0
   -2.4516    0.7140    0.0000 C   0  0  0  0  0  0  0  0  0  0  0  0
    0.0537   -0.7140    0.0000 C   0  0  0  0  0  0  0  0  0  0  0  0
    0.0411    0.7390    0.0000 C   0  0  0  0  0  0  0  0  0  0  0  0
    1.2937    0.0000    0.0000 C   0  0  0  0  0  0  0  0  0  0  0  0
   -2.0382   -1.4405    0.0000 C   0  0  0  0  0  0  0  0  0  0  0  0
   -3.7043    1.4405    0.0000 C   0  0  0  0  0  0  0  0  0  0  0  0
   -3.6917   -1.4531    0.0000 C   0  0  0  0  0  0  0  0  0  0  0  0
    0.8803   -0.7140    0.0000 C   0  0  0  0  0  0  0  0  0  0  0  0
    0.8929    0.7140    0.0000 C   0  0  0  0  0  0  0  0  0  0  0  0
   -2.4516   -2.1670    0.0000 C   0  0  0  0  0  0  0  0  0  0  0  0
   -3.2909   -2.1670    0.0000 C   0  0  0  0  0  0  0  0  0  0  0  0
    2.5588    0.7265    0.0000 C   0  0  0  0  0  0  0  0  0  0  0  0
    2.5588   -0.7265    0.0000 C   0  0  0  0  0  0  0  0  0  0  0  0
    2.5588    0.7265    0.0000 C   0  0  3  0  0  0  0  0  0  0  0  0
    2.5588   -0.7265    0.0000 C   0  0  3  0  0  0  0  0  0  0  0  0
   -1.2286    0.8120    0.0000 C   0  0  0  0  0  0  0  0  0  0  0  0
    0.0662   -2.1670    0.0000 C   0  0  0  0  0  0  0  0  0  0  0  0
    0.0537    2.1670    0.0000 C   0  0  0  0  0  0  0  0  0  0  0  0
    4.5560    0.2195    0.0000 C   0  0  0  0  0  0  0  0  0  0  0  0
    4.5560   -1.2335    0.0000 C   0  0  0  0  0  0  0  0  0  0  0  0
    3.5213   -0.4014    0.0000 C   0  0  0  0  0  0  0  0  0  0  0  0
    3.5213   -1.8544    0.0000 C   0  0  0  0  0  0  0  0  0  0  0  0
   -1.8956    1.2609    0.0000 C   0  0  0  0  0  0  0  0  0  0  0  0
    4.0179    0.5817    0.0000 C   0  0  0  0  0  0  0  0  0  0  0  0
    4.0179   -0.8714    0.0000 C   0  0  0  0  0  0  0  0  0  0  0  0
    3.8420   -0.4014    0.0000 C   0  0  0  0  0  0  0  0  0  0  0  0
    3.8420   -1.8544    0.0000 C   0  0  0  0  0  0  0  0  0  0  0  0
   -2.5883    0.8248    0.0000 C   0  0  0  0  0  0  0  0  0  0  0  0
    3.4592    0.2298    0.0000 C   0  0  0  0  0  0  0  0  0  0  0  0
    3.4592   -1.2232    0.0000 C   0  0  0  0  0  0  0  0  0  0  0  0
   -3.3066    1.2609    0.0000 C   0  0  0  0  0  0  0  0  0  0  0  0
    2.8796    0.5817    0.0000 C   0  0  0  0  0  0  0  0  0  0  0  0
    2.8796   -0.8714    0.0000 C   0  0  0  0  0  0  0  0  0  0  0  0
  1 11  2  0  0  0  0
  2 15  1  0  0  0  0
  2 30  1  0  0  0  0
  3 16  1  0  0  0  0
  3 31  1  0  0  0  0
  4 19  2  0  0  0  0
  5  9  2  3  0  0  0
  5 13  1  0  0  0  0
  6 17  1  0  0  0  0
  6 25  1  0  0  0  0
  6 26  1  0  0  0  0
  7 19  1  0  0  0  0
  7 29  1  0  0  0  0
  8  9  1  0  0  0  0
  8 10  1  0  0  0  0
  8 18  2  0  0  0  0
  9 14  1  0  0  0  0
 10 11  1  0  0  0  0
 10 20  2  0  0  0  0
 11 12  1  0  0  0  0
 12 14  2  0  0  0  0
 12 19  1  0  0  0  0
 13 15  2  0  0  0  0
 13 16  1  0  0  0  0
 15 21  1  0  0  0  0
 16 22  2  0  0  0  0
 17 21  2  0  0  0  0
 17 22  1  0  0  0  0
 18 23  1  0  0  0  0
 20 24  1  0  0  0  0
 23 24  2  0  0  0  0
 25 27  1  0  0  0  0
 26 28  1  0  0  0  0
 27 32  1  0  0  0  0
 27 34  1  0  0  0  0
 28 33  1  0  0  0  0
 28 35  1  0  0  0  0
 29 36  1  0  0  0  0
 32 37  1  0  0  0  0
 33 38  1  0  0  0  0
 34 39  1  0  0  0  0
 35 40  1  0  0  0  0
 36 41  1  0  0  0  0
 37 42  1  0  0  0  0
 38 43  1  0  0  0  0
 41 44  1  0  0  0  0
 42 45  1  0  0  0  0
 43 46  1  0  0  0  0
M  END
> <PUBCHEM_COMPOUND_ID_TYPE>
0

> <PUBCHEM_TOTAL_CHARGE>
0

> <PUBCHEM_SUBSTANCE_ID>
310948772

> <PUBCHEM_SUBSTANCE_VERSION>
1

> <PUBCHEM_EXT_DATASOURCE_NAME>
4488

> <PUBCHEM_EXT_DATASOURCE_REGID>
SCHEMBL16126956

> <PUBCHEM_SUBSTANCE_COMMENT>
InChI=1S/C39H57N3O4/c1-8-13-18-28(11-4)26-42(27-29(12-5)19-14-9-2)30-23-35(45-6)37(36(24-30)46-7)41-34-25-33(39(44)40-22-15-10-3)38(43)32-21-17-16-20-31(32)34/h16-17,20-21,23-25,28-29H,8-15,18-19,22,26-27H2,1-7H3,(H,40,44)
InChIKey=NFNDOOUVGJQGCM-UHFFFAOYSA-N

> <PUBCHEM_SUBSTANCE_SYNONYM>
SCHEMBL16126956

> <PUBCHEM_XREF_EXT_ID>
SCHEMBL16126956

> <PUBCHEM_EXT_DATASOURCE_URL>
https://www.surechembl.org/

> <PUBCHEM_EXT_SUBSTANCE_URL>
https://www.surechembl.org/chemical/SCHEMBL16126956

> <PUBCHEM_CID_ASSOCIATIONS>
117614314  1

> <PUBCHEM_COORDINATE_TYPE>
1
3

$$$$
