310934052
  -OEChem-07211613022D

 37 40  0     1  0  0  0  0  0999 V2000
    3.6881    0.0000    0.0000 Cl  0  0  0  0  0  0  0  0  0  0  0  0
    3.2028   -9.7055    0.0000 F   0  0  0  0  0  0  0  0  0  0  0  0
    3.7852   -8.3953    0.0000 F   0  0  0  0  0  0  0  0  0  0  0  0
    3.7366   -5.7262    0.0000 O   0  0  0  0  0  0  0  0  0  0  0  0
    4.1248   -4.9983    0.0000 O   0  0  0  0  0  0  0  0  0  0  0  0
    6.1630   -2.8146    0.0000 O   0  5  0  0  0  0  0  0  0  0  0  0
    4.9498   -3.5425    0.0000 O   0  0  0  0  0  0  0  0  0  0  0  0
    1.6984   -9.0746    0.0000 O   0  0  0  0  0  0  0  0  0  0  0  0
    2.9117   -4.2704    0.0000 N   0  0  0  0  0  0  0  0  0  0  0  0
    2.5234   -6.4056    0.0000 N   0  0  0  0  0  0  0  0  0  0  0  0
    5.3380   -2.8632    0.0000 N   0  3  0  0  0  0  0  0  0  0  0  0
    2.4749   -4.9983    0.0000 C   0  0  3  0  0  0  0  0  0  0  0  0
    3.6881   -2.8632    0.0000 C   0  0  0  0  0  0  0  0  0  0  0  0
    4.1248   -2.1352    0.0000 C   0  0  0  0  0  0  0  0  0  0  0  0
    2.9117   -5.7262    0.0000 C   0  0  0  0  0  0  0  0  0  0  0  0
    3.6881   -4.2704    0.0000 C   0  0  0  0  0  0  0  0  0  0  0  0
    4.9498   -2.1352    0.0000 C   0  0  0  0  0  0  0  0  0  0  0  0
    4.1248   -3.5911    0.0000 C   0  0  0  0  0  0  0  0  0  0  0  0
    2.4749   -3.5911    0.0000 C   0  0  0  0  0  0  0  0  0  0  0  0
    2.9117   -2.8632    0.0000 C   0  0  0  0  0  0  0  0  0  0  0  0
    2.2323   -7.7159    0.0000 C   0  0  3  0  0  0  0  0  0  0  0  0
    1.6984   -4.9983    0.0000 C   0  0  0  0  0  0  0  0  0  0  0  0
    2.8632   -7.1821    0.0000 C   0  0  0  0  0  0  0  0  0  0  0  0
    3.6881   -1.4073    0.0000 C   0  0  0  0  0  0  0  0  0  0  0  0
    1.6984   -6.5027    0.0000 C   0  0  0  0  0  0  0  0  0  0  0  0
    1.5529   -7.3277    0.0000 C   0  0  0  0  0  0  0  0  0  0  0  0
    5.3380   -1.4073    0.0000 C   0  0  0  0  0  0  0  0  0  0  0  0
    4.0763   -0.7279    0.0000 C   0  0  0  0  0  0  0  0  0  0  0  0
    1.2617   -4.3190    0.0000 C   0  0  0  0  0  0  0  0  0  0  0  0
    2.3293   -8.5409    0.0000 C   0  0  3  0  0  0  0  0  0  0  0  0
    4.9013   -0.7279    0.0000 C   0  0  0  0  0  0  0  0  0  0  0  0
    3.1058   -8.8805    0.0000 C   0  0  0  0  0  0  0  0  0  0  0  0
    0.4367   -4.3190    0.0000 C   0  0  0  0  0  0  0  0  0  0  0  0
    1.6499   -3.5911    0.0000 C   0  0  0  0  0  0  0  0  0  0  0  0
    0.0000   -3.5911    0.0000 C   0  0  0  0  0  0  0  0  0  0  0  0
    1.2132   -2.8632    0.0000 C   0  0  0  0  0  0  0  0  0  0  0  0
    0.3882   -2.8632    0.0000 C   0  0  0  0  0  0  0  0  0  0  0  0
  1 28  1  0  0  0  0
  2 32  1  0  0  0  0
  3 32  1  0  0  0  0
  4 15  2  0  0  0  0
  5 16  2  0  0  0  0
  6 11  1  0  0  0  0
  7 11  2  0  0  0  0
  8 30  1  0  0  0  0
  9 12  1  0  0  0  0
  9 16  1  0  0  0  0
  9 19  1  0  0  0  0
 10 15  1  0  0  0  0
 10 23  1  0  0  0  0
 10 25  1  0  0  0  0
 11 17  1  0  0  0  0
 12 15  1  0  0  0  0
 12 22  1  0  0  0  0
 13 14  1  0  0  0  0
 13 18  2  0  0  0  0
 13 20  1  0  0  0  0
 14 17  1  0  0  0  0
 14 24  2  0  0  0  0
 16 18  1  0  0  0  0
 17 27  2  0  0  0  0
 19 20  2  0  0  0  0
 21 23  1  0  0  0  0
 21 26  1  0  0  0  0
 21 30  1  0  0  0  0
 22 29  1  0  0  0  0
 24 28  1  0  0  0  0
 25 26  1  0  0  0  0
 27 31  1  0  0  0  0
 28 31  2  0  0  0  0
 29 33  2  0  0  0  0
 29 34  1  0  0  0  0
 30 32  1  0  0  0  0
 33 35  1  0  0  0  0
 34 36  2  0  0  0  0
 35 37  2  0  0  0  0
 36 37  1  0  0  0  0
M  CHG  2   6  -1  11   1
M  END
> <PUBCHEM_COMPOUND_ID_TYPE>
0

> <PUBCHEM_TOTAL_CHARGE>
0

> <PUBCHEM_SUBSTANCE_ID>
310934052

> <PUBCHEM_SUBSTANCE_VERSION>
1

> <PUBCHEM_EXT_DATASOURCE_NAME>
4488

> <PUBCHEM_EXT_DATASOURCE_REGID>
SCHEMBL16111496

> <PUBCHEM_SUBSTANCE_COMMENT>
InChI=1S/C26H24ClF2N3O5/c27-19-6-7-21(32(36)37)20(14-19)17-9-11-31(23(33)13-17)22(12-16-4-2-1-3-5-16)26(35)30-10-8-18(15-30)24(34)25(28)29/h1-7,9,11,13-14,18,22,24-25,34H,8,10,12,15H2
InChIKey=AAEKMUJLOWUHGM-UHFFFAOYSA-N

> <PUBCHEM_SUBSTANCE_SYNONYM>
SCHEMBL16111496

> <PUBCHEM_XREF_EXT_ID>
SCHEMBL16111496

> <PUBCHEM_EXT_DATASOURCE_URL>
https://www.surechembl.org/

> <PUBCHEM_EXT_SUBSTANCE_URL>
https://www.surechembl.org/chemical/SCHEMBL16111496

> <PUBCHEM_CID_ASSOCIATIONS>
86302170  1

> <PUBCHEM_COORDINATE_TYPE>
1
3

$$$$
