310949415
  -OEChem-07211613022D

 25 28  0     1  0  0  0  0  0999 V2000
    1.5184    2.6338    0.0000 S   0  0  3  0  0  0  0  0  0  0  0  0
   -1.9309    2.1277    0.0000 F   0  0  0  0  0  0  0  0  0  0  0  0
    1.2560    3.4212    0.0000 O   0  0  0  0  0  0  0  0  0  0  0  0
   -0.6936   -3.4212    0.0000 O   0  0  0  0  0  0  0  0  0  0  0  0
   -2.3245   -3.0650    0.0000 O   0  0  0  0  0  0  0  0  0  0  0  0
    1.0311    0.6280    0.0000 N   0  0  0  0  0  0  0  0  0  0  0  0
   -1.7622   -2.4464    0.0000 N   0  0  0  0  0  0  0  0  0  0  0  0
    1.0123    1.9778    0.0000 C   0  0  0  0  0  0  0  0  0  0  0  0
    1.5372    1.3404    0.0000 C   0  0  0  0  0  0  0  0  0  0  0  0
    0.2437    1.7340    0.0000 C   0  0  0  0  0  0  0  0  0  0  0  0
    0.2250    0.9092    0.0000 C   0  0  0  0  0  0  0  0  0  0  0  0
    2.3058    1.5653    0.0000 C   0  0  0  0  0  0  0  0  0  0  0  0
   -0.5061    2.1277    0.0000 C   0  0  0  0  0  0  0  0  0  0  0  0
    1.2935   -0.1406    0.0000 C   0  0  0  0  0  0  0  0  0  0  0  0
   -0.4687    0.4968    0.0000 C   0  0  0  0  0  0  0  0  0  0  0  0
    2.3245    2.3902    0.0000 C   0  0  0  0  0  0  0  0  0  0  0  0
   -1.1998    1.7340    0.0000 C   0  0  0  0  0  0  0  0  0  0  0  0
    0.7311   -0.7592    0.0000 C   0  0  0  0  0  0  0  0  0  0  0  0
   -1.1998    0.8904    0.0000 C   0  0  0  0  0  0  0  0  0  0  0  0
   -0.0750   -0.5905    0.0000 C   0  0  0  0  0  0  0  0  0  0  0  0
    0.9748   -1.5466    0.0000 C   0  0  0  0  0  0  0  0  0  0  0  0
   -0.3749   -1.9590    0.0000 C   0  0  0  0  0  0  0  0  0  0  0  0
   -0.6186   -1.1904    0.0000 C   0  0  0  0  0  0  0  0  0  0  0  0
    0.4312   -2.1465    0.0000 C   0  0  0  0  0  0  0  0  0  0  0  0
   -0.9561   -2.5964    0.0000 C   0  0  0  0  0  0  0  0  0  0  0  0
  1  3  2  0  0  0  0
  1  8  1  0  0  0  0
  1 16  1  0  0  0  0
  2 17  1  0  0  0  0
  4 25  2  0  0  0  0
  5  7  1  0  0  0  0
  6  9  1  0  0  0  0
  6 11  1  0  0  0  0
  6 14  1  0  0  0  0
  7 25  1  0  0  0  0
  8  9  2  0  0  0  0
  8 10  1  0  0  0  0
  9 12  1  0  0  0  0
 10 11  1  0  0  0  0
 10 13  2  0  0  0  0
 11 15  2  0  0  0  0
 12 16  1  0  0  0  0
 13 17  1  0  0  0  0
 14 18  1  0  0  0  0
 15 19  1  0  0  0  0
 17 19  2  0  0  0  0
 18 20  2  0  0  0  0
 18 21  1  0  0  0  0
 20 23  1  0  0  0  0
 21 24  2  0  0  0  0
 22 23  2  0  0  0  0
 22 24  1  0  0  0  0
 22 25  1  0  0  0  0
M  END
> <PUBCHEM_COMPOUND_ID_TYPE>
0

> <PUBCHEM_TOTAL_CHARGE>
0

> <PUBCHEM_SUBSTANCE_ID>
310949415

> <PUBCHEM_SUBSTANCE_VERSION>
1

> <PUBCHEM_EXT_DATASOURCE_NAME>
4488

> <PUBCHEM_EXT_DATASOURCE_REGID>
SCHEMBL16127608

> <PUBCHEM_SUBSTANCE_COMMENT>
InChI=1S/C18H15FN2O3S/c19-13-5-6-15-14(9-13)17-16(7-8-25(17)24)21(15)10-11-1-3-12(4-2-11)18(22)20-23/h1-6,9,23H,7-8,10H2,(H,20,22)
InChIKey=JZRKSCPBVMIVPO-UHFFFAOYSA-N

> <PUBCHEM_SUBSTANCE_SYNONYM>
SCHEMBL16127608

> <PUBCHEM_XREF_EXT_ID>
SCHEMBL16127608

> <PUBCHEM_EXT_DATASOURCE_URL>
https://www.surechembl.org/

> <PUBCHEM_EXT_SUBSTANCE_URL>
https://www.surechembl.org/chemical/SCHEMBL16127608

> <PUBCHEM_CID_ASSOCIATIONS>
117614866  1

> <PUBCHEM_COORDINATE_TYPE>
1
3

$$$$
