310943696
  -OEChem-07211613022D

 28 30  0     1  0  0  0  0  0999 V2000
    2.7608   -1.0518    0.0000 Br  0  0  0  0  0  0  0  0  0  0  0  0
    4.1950    1.3864    0.0000 O   0  0  0  0  0  0  0  0  0  0  0  0
    4.1950    1.3864    0.0000 O   0  0  0  0  0  0  0  0  0  0  0  0
   -1.5776   -1.1712    0.0000 N   0  0  3  0  0  0  0  0  0  0  0  0
    0.5975    1.6254    0.0000 N   0  0  0  0  0  0  0  0  0  0  0  0
   -3.3584   -0.6215    0.0000 N   0  0  3  0  0  0  0  0  0  0  0  0
    1.3027   -0.3347    0.0000 C   0  0  0  0  0  0  0  0  0  0  0  0
    2.0317    0.1434    0.0000 C   0  0  0  0  0  0  0  0  0  0  0  0
    0.5737    0.0836    0.0000 C   0  0  0  0  0  0  0  0  0  0  0  0
    2.7608   -0.2630    0.0000 C   0  0  0  0  0  0  0  0  0  0  0  0
   -0.1554   -1.1593    0.0000 C   0  0  0  0  0  0  0  0  0  0  0  0
    1.2908   -1.1712    0.0000 C   0  0  0  0  0  0  0  0  0  0  0  0
    3.4899    0.9681    0.0000 C   0  0  0  0  0  0  0  0  0  0  0  0
    2.0557    0.9681    0.0000 C   0  0  0  0  0  0  0  0  0  0  0  0
   -0.1315   -0.3347    0.0000 C   0  0  0  0  0  0  0  0  0  0  0  0
    3.4659    0.1434    0.0000 C   0  0  0  0  0  0  0  0  0  0  0  0
    0.5856   -1.5776    0.0000 C   0  0  0  0  0  0  0  0  0  0  0  0
    2.7608    1.3744    0.0000 C   0  0  0  0  0  0  0  0  0  0  0  0
    4.1950    1.3864    0.0000 C   0  0  0  0  0  0  0  0  0  0  0  0
    0.5856    0.8247    0.0000 C   0  0  0  0  0  0  0  0  0  0  0  0
   -0.8724   -1.5776    0.0000 C   0  0  0  0  0  0  0  0  0  0  0  0
   -2.2589   -1.6254    0.0000 C   0  0  0  0  0  0  0  0  0  0  0  0
   -1.5178   -0.3347    0.0000 C   0  0  0  0  0  0  0  0  0  0  0  0
   -3.0596   -1.3864    0.0000 C   0  0  0  0  0  0  0  0  0  0  0  0
   -2.1394    0.2271    0.0000 C   0  0  0  0  0  0  0  0  0  0  0  0
   -2.9401    0.0956    0.0000 C   0  0  0  0  0  0  0  0  0  0  0  0
    4.1950    1.3864    0.0000 C   0  0  0  0  0  0  0  0  0  0  0  0
   -4.1950   -0.6215    0.0000 C   0  0  0  0  0  0  0  0  0  0  0  0
  1 10  1  0  0  0  0
  2 19  1  0  0  0  0
  2 27  1  0  0  0  0
  3 19  2  0  0  0  0
  4 21  1  0  0  0  0
  4 22  1  0  0  0  0
  4 23  1  0  0  0  0
  5 20  3  0  0  0  0
  6 24  1  0  0  0  0
  6 26  1  0  0  0  0
  6 28  1  0  0  0  0
  7  8  1  0  0  0  0
  7  9  2  0  0  0  0
  7 12  1  0  0  0  0
  8 10  2  0  0  0  0
  8 14  1  0  0  0  0
  9 15  1  0  0  0  0
  9 20  1  0  0  0  0
 10 16  1  0  0  0  0
 11 15  2  0  0  0  0
 11 17  1  0  0  0  0
 11 21  1  0  0  0  0
 12 17  2  0  0  0  0
 13 16  2  0  0  0  0
 13 18  1  0  0  0  0
 13 19  1  0  0  0  0
 14 18  2  0  0  0  0
 22 24  1  0  0  0  0
 23 25  1  0  0  0  0
 25 26  1  0  0  0  0
M  END
> <PUBCHEM_COMPOUND_ID_TYPE>
0

> <PUBCHEM_TOTAL_CHARGE>
0

> <PUBCHEM_SUBSTANCE_ID>
310943696

> <PUBCHEM_SUBSTANCE_VERSION>
1

> <PUBCHEM_EXT_DATASOURCE_NAME>
4488

> <PUBCHEM_EXT_DATASOURCE_REGID>
SCHEMBL16121764

> <PUBCHEM_SUBSTANCE_COMMENT>
InChI=1S/C22H24BrN3O2/c1-25-8-3-9-26(11-10-25)15-16-4-6-19(18(12-16)14-24)20-7-5-17(13-21(20)23)22(27)28-2/h4-7,12-13H,3,8-11,15H2,1-2H3
InChIKey=RWASNAYDDRUXIJ-UHFFFAOYSA-N

> <PUBCHEM_SUBSTANCE_SYNONYM>
SCHEMBL16121764

> <PUBCHEM_XREF_EXT_ID>
SCHEMBL16121764

> <PUBCHEM_EXT_DATASOURCE_URL>
https://www.surechembl.org/

> <PUBCHEM_EXT_SUBSTANCE_URL>
https://www.surechembl.org/chemical/SCHEMBL16121764

> <PUBCHEM_CID_ASSOCIATIONS>
86300471  1

> <PUBCHEM_COORDINATE_TYPE>
1
3

$$$$
