310946078
  -OEChem-07211613022D

 11 12  0     1  0  0  0  0  0999 V2000
   -1.4892    0.0000    0.0000 I   0  0  0  0  0  0  0  0  0  0  0  0
   -0.1188   -0.2010    0.0000 N   0  0  0  0  0  0  0  0  0  0  0  0
    0.0274   -1.5349    0.0000 N   0  0  0  0  0  0  0  0  0  0  0  0
   -0.7766   -1.3522    0.0000 N   0  0  0  0  0  0  0  0  0  0  0  0
    0.9593    0.7492    0.0000 N   0  0  3  0  0  0  0  0  0  0  0  0
    0.4112   -0.8040    0.0000 C   0  0  0  0  0  0  0  0  0  0  0  0
   -0.8314   -0.5116    0.0000 C   0  0  0  0  0  0  0  0  0  0  0  0
    0.1371    0.5665    0.0000 C   0  0  0  0  0  0  0  0  0  0  0  0
    1.2334   -0.6213    0.0000 C   0  0  0  0  0  0  0  0  0  0  0  0
    1.4892    0.1279    0.0000 C   0  0  0  0  0  0  0  0  0  0  0  0
    1.2151    1.5349    0.0000 C   0  0  0  0  0  0  0  0  0  0  0  0
  1  7  1  0  0  0  0
  2  6  1  0  0  0  0
  2  7  1  0  0  0  0
  2  8  1  0  0  0  0
  3  4  1  0  0  0  0
  3  6  2  0  0  0  0
  4  7  2  0  0  0  0
  5  8  1  0  0  0  0
  5 10  1  0  0  0  0
  5 11  1  0  0  0  0
  6  9  1  0  0  0  0
  9 10  1  0  0  0  0
M  END
> <PUBCHEM_COMPOUND_ID_TYPE>
0

> <PUBCHEM_TOTAL_CHARGE>
0

> <PUBCHEM_SUBSTANCE_ID>
310946078

> <PUBCHEM_SUBSTANCE_VERSION>
1

> <PUBCHEM_EXT_DATASOURCE_NAME>
4488

> <PUBCHEM_EXT_DATASOURCE_REGID>
SCHEMBL16124185

> <PUBCHEM_SUBSTANCE_COMMENT>
InChI=1S/C6H9IN4/c1-10-3-2-5-8-9-6(7)11(5)4-10/h2-4H2,1H3
InChIKey=LAOAGWNSETUSGY-UHFFFAOYSA-N

> <PUBCHEM_SUBSTANCE_SYNONYM>
SCHEMBL16124185

> <PUBCHEM_XREF_EXT_ID>
SCHEMBL16124185

> <PUBCHEM_EXT_DATASOURCE_URL>
https://www.surechembl.org/

> <PUBCHEM_EXT_SUBSTANCE_URL>
https://www.surechembl.org/chemical/SCHEMBL16124185

> <PUBCHEM_CID_ASSOCIATIONS>
117612046  1

> <PUBCHEM_COORDINATE_TYPE>
1
3

$$$$
