310931210
  -OEChem-07211613022D

 21 23  0     1  0  0  0  0  0999 V2000
    4.2897   -1.6499    0.0000 Br  0  0  0  0  0  0  0  0  0  0  0  0
    2.8461   -2.4749    0.0000 O   0  0  0  0  0  0  0  0  0  0  0  0
    0.0000    0.0000    0.0000 O   0  0  0  0  0  0  0  0  0  0  0  0
    0.7012   -1.2374    0.0000 N   0  0  0  0  0  0  0  0  0  0  0  0
    1.4437    0.0000    0.0000 N   0  0  0  0  0  0  0  0  0  0  0  0
    2.1655   -1.2374    0.0000 C   0  0  0  0  0  0  0  0  0  0  0  0
    1.4437   -1.6499    0.0000 C   0  0  3  0  0  0  0  0  0  0  0  0
    2.1655   -0.4125    0.0000 C   0  0  0  0  0  0  0  0  0  0  0  0
    2.8461   -1.6499    0.0000 C   0  0  0  0  0  0  0  0  0  0  0  0
    1.4437   -2.4749    0.0000 C   0  0  0  0  0  0  0  0  0  0  0  0
    0.7012   -0.4125    0.0000 C   0  0  0  0  0  0  0  0  0  0  0  0
    3.5679   -1.2374    0.0000 C   0  0  0  0  0  0  0  0  0  0  0  0
    2.8461    0.0000    0.0000 C   0  0  0  0  0  0  0  0  0  0  0  0
    3.5679   -0.4125    0.0000 C   0  0  0  0  0  0  0  0  0  0  0  0
    2.1655   -2.8873    0.0000 C   0  0  0  0  0  0  0  0  0  0  0  0
    0.7218   -2.8873    0.0000 C   0  0  0  0  0  0  0  0  0  0  0  0
    0.0000   -1.6499    0.0000 C   0  0  0  0  0  0  0  0  0  0  0  0
    2.1655   -3.7123    0.0000 C   0  0  0  0  0  0  0  0  0  0  0  0
    0.7218   -3.7123    0.0000 C   0  0  0  0  0  0  0  0  0  0  0  0
    1.4437   -4.1248    0.0000 C   0  0  0  0  0  0  0  0  0  0  0  0
    3.5473   -2.8873    0.0000 C   0  0  0  0  0  0  0  0  0  0  0  0
  1 12  1  0  0  0  0
  2  9  1  0  0  0  0
  2 21  1  0  0  0  0
  3 11  2  0  0  0  0
  4  7  1  0  0  0  0
  4 11  1  0  0  0  0
  4 17  1  0  0  0  0
  5  8  1  0  0  0  0
  5 11  1  0  0  0  0
  6  7  1  0  0  0  0
  6  8  2  0  0  0  0
  6  9  1  0  0  0  0
  7 10  1  0  0  0  0
  8 13  1  0  0  0  0
  9 12  2  0  0  0  0
 10 15  2  0  0  0  0
 10 16  1  0  0  0  0
 12 14  1  0  0  0  0
 13 14  2  0  0  0  0
 15 18  1  0  0  0  0
 16 19  2  0  0  0  0
 18 20  2  0  0  0  0
 19 20  1  0  0  0  0
M  END
> <PUBCHEM_COMPOUND_ID_TYPE>
0

> <PUBCHEM_TOTAL_CHARGE>
0

> <PUBCHEM_SUBSTANCE_ID>
310931210

> <PUBCHEM_SUBSTANCE_VERSION>
1

> <PUBCHEM_EXT_DATASOURCE_NAME>
4488

> <PUBCHEM_EXT_DATASOURCE_REGID>
SCHEMBL16108519

> <PUBCHEM_SUBSTANCE_COMMENT>
InChI=1S/C16H15BrN2O2/c1-19-14(10-6-4-3-5-7-10)13-12(18-16(19)20)9-8-11(17)15(13)21-2/h3-9,14H,1-2H3,(H,18,20)
InChIKey=KAYIPXDFQBISNQ-UHFFFAOYSA-N

> <PUBCHEM_SUBSTANCE_SYNONYM>
SCHEMBL16108519

> <PUBCHEM_XREF_EXT_ID>
SCHEMBL16108519

> <PUBCHEM_EXT_DATASOURCE_URL>
https://www.surechembl.org/

> <PUBCHEM_EXT_SUBSTANCE_URL>
https://www.surechembl.org/chemical/SCHEMBL16108519

> <PUBCHEM_CID_ASSOCIATIONS>
117600059  1

> <PUBCHEM_COORDINATE_TYPE>
1
3

$$$$
