310947510
  -OEChem-07211613022D

 10  9  0     1  0  0  0  0  0999 V2000
    1.0041   -4.0277    0.0000 O   0  0  0  0  0  0  0  0  0  0  0  0
    0.2896   -2.7902    0.0000 O   0  0  0  0  0  0  0  0  0  0  0  0
   -1.1393   -2.7902    0.0000 O   0  0  0  0  0  0  0  0  0  0  0  0
   -0.4249   -4.0277    0.0000 C   0  0  0  0  0  0  0  0  0  0  0  0
    0.2896   -3.6152    0.0000 C   0  0  3  0  0  0  0  0  0  0  0  0
   -1.1393   -3.6152    0.0000 C   0  0  0  0  0  0  0  0  0  0  0  0
   -0.4249   -4.8527    0.0000 C   0  0  0  0  0  0  0  0  0  0  0  0
    1.7185   -3.6152    0.0000 C   0  0  0  0  0  0  0  0  0  0  0  0
   -1.8538   -4.0277    0.0000 C   0  0  0  0  0  0  0  0  0  0  0  0
    2.4330   -4.0277    0.0000 C   0  0  0  0  0  0  0  0  0  0  0  0
  1  5  1  0  0  0  0
  1  8  1  0  0  0  0
  2  5  1  0  0  0  0
  3  6  2  0  0  0  0
  4  5  1  0  0  0  0
  4  6  1  0  0  0  0
  4  7  2  0  0  0  0
  6  9  1  0  0  0  0
  8 10  1  0  0  0  0
M  END
> <PUBCHEM_COMPOUND_ID_TYPE>
0

> <PUBCHEM_TOTAL_CHARGE>
0

> <PUBCHEM_SUBSTANCE_ID>
310947510

> <PUBCHEM_SUBSTANCE_VERSION>
1

> <PUBCHEM_EXT_DATASOURCE_NAME>
4488

> <PUBCHEM_EXT_DATASOURCE_REGID>
SCHEMBL16125672

> <PUBCHEM_SUBSTANCE_COMMENT>
InChI=1S/C7H12O3/c1-4-10-7(9)5(2)6(3)8/h7,9H,2,4H2,1,3H3
InChIKey=WOASGQYAHBYZFM-UHFFFAOYSA-N

> <PUBCHEM_SUBSTANCE_SYNONYM>
SCHEMBL16125672

> <PUBCHEM_XREF_EXT_ID>
SCHEMBL16125672

> <PUBCHEM_EXT_DATASOURCE_URL>
https://www.surechembl.org/

> <PUBCHEM_EXT_SUBSTANCE_URL>
https://www.surechembl.org/chemical/SCHEMBL16125672

> <PUBCHEM_CID_ASSOCIATIONS>
117613233  1

> <PUBCHEM_COORDINATE_TYPE>
1
3

$$$$
