310931654
  -OEChem-07211613022D

 21 23  0     1  0  0  0  0  0999 V2000
    3.5751   -1.6299    0.0000 O   0  0  0  0  0  0  0  0  0  0  0  0
    4.7055   -3.6014    0.0000 O   0  0  0  0  0  0  0  0  0  0  0  0
    5.4416   -2.3659    0.0000 O   0  0  0  0  0  0  0  0  0  0  0  0
    0.8149    0.0000    0.0000 O   0  0  0  0  0  0  0  0  0  0  0  0
    3.1545   -2.3659    0.0000 C   0  0  3  0  0  0  0  0  0  0  0  0
    3.9958   -2.3659    0.0000 C   0  0  3  0  0  0  0  0  0  0  0  0
    2.5762   -1.7613    0.0000 C   0  0  0  0  0  0  0  0  0  0  0  0
    4.7055   -2.7603    0.0000 C   0  0  0  0  0  0  0  0  0  0  0  0
    2.4447   -2.7603    0.0000 C   0  0  0  0  0  0  0  0  0  0  0  0
    1.7613   -1.9716    0.0000 C   0  0  0  0  0  0  0  0  0  0  0  0
    2.7865   -0.9464    0.0000 C   0  0  0  0  0  0  0  0  0  0  0  0
    1.1830   -1.3933    0.0000 C   0  0  0  0  0  0  0  0  0  0  0  0
    2.2082   -0.3680    0.0000 C   0  0  0  0  0  0  0  0  0  0  0  0
    1.3933   -0.6046    0.0000 C   0  0  0  0  0  0  0  0  0  0  0  0
    5.4416   -4.0220    0.0000 C   0  0  0  0  0  0  0  0  0  0  0  0
    6.1513   -3.6014    0.0000 C   0  0  0  0  0  0  0  0  0  0  0  0
    5.4416   -4.8370    0.0000 C   0  0  0  0  0  0  0  0  0  0  0  0
    6.8611   -3.9958    0.0000 C   0  0  0  0  0  0  0  0  0  0  0  0
    6.1513   -5.2576    0.0000 C   0  0  0  0  0  0  0  0  0  0  0  0
    6.8611   -4.8370    0.0000 C   0  0  0  0  0  0  0  0  0  0  0  0
    0.0000   -0.2103    0.0000 C   0  0  0  0  0  0  0  0  0  0  0  0
  1  5  1  0  0  0  0
  1  6  1  0  0  0  0
  2  8  1  0  0  0  0
  2 15  1  0  0  0  0
  3  8  2  0  0  0  0
  4 14  1  0  0  0  0
  4 21  1  0  0  0  0
  5  6  1  0  0  0  0
  5  7  1  0  0  0  0
  5  9  1  0  0  0  0
  6  8  1  0  0  0  0
  7 10  2  0  0  0  0
  7 11  1  0  0  0  0
 10 12  1  0  0  0  0
 11 13  2  0  0  0  0
 12 14  2  0  0  0  0
 13 14  1  0  0  0  0
 15 16  2  0  0  0  0
 15 17  1  0  0  0  0
 16 18  1  0  0  0  0
 17 19  2  0  0  0  0
 18 20  2  0  0  0  0
 19 20  1  0  0  0  0
M  END
> <PUBCHEM_COMPOUND_ID_TYPE>
0

> <PUBCHEM_TOTAL_CHARGE>
0

> <PUBCHEM_SUBSTANCE_ID>
310931654

> <PUBCHEM_SUBSTANCE_VERSION>
1

> <PUBCHEM_EXT_DATASOURCE_NAME>
4488

> <PUBCHEM_EXT_DATASOURCE_REGID>
SCHEMBL16108980

> <PUBCHEM_SUBSTANCE_COMMENT>
InChI=1S/C17H16O4/c1-17(12-8-10-13(19-2)11-9-12)15(21-17)16(18)20-14-6-4-3-5-7-14/h3-11,15H,1-2H3
InChIKey=NDRFZNFCXRTDBR-UHFFFAOYSA-N

> <PUBCHEM_SUBSTANCE_SYNONYM>
SCHEMBL16108980

> <PUBCHEM_XREF_EXT_ID>
SCHEMBL16108980

> <PUBCHEM_EXT_DATASOURCE_URL>
https://www.surechembl.org/

> <PUBCHEM_EXT_SUBSTANCE_URL>
https://www.surechembl.org/chemical/SCHEMBL16108980

> <PUBCHEM_CID_ASSOCIATIONS>
117600364  1

> <PUBCHEM_COORDINATE_TYPE>
1
3

$$$$
