310949475
  -OEChem-07211613022D

 30 33  0     1  0  0  0  0  0999 V2000
   -1.9403   -2.3865    0.0000 Cl  0  0  0  0  0  0  0  0  0  0  0  0
   -4.0357   -1.2612    0.0000 F   0  0  0  0  0  0  0  0  0  0  0  0
   -4.0939   -2.4253    0.0000 F   0  0  0  0  0  0  0  0  0  0  0  0
   -2.9492   -2.5029    0.0000 F   0  0  0  0  0  0  0  0  0  0  0  0
   -0.5433   -2.0954    0.0000 O   0  0  0  0  0  0  0  0  0  0  0  0
   -0.0970   -0.7179    0.0000 N   0  0  0  0  0  0  0  0  0  0  0  0
    1.5910    1.0671    0.0000 N   0  0  0  0  0  0  0  0  0  0  0  0
    0.3298    1.4939    0.0000 N   0  0  0  0  0  0  0  0  0  0  0  0
    1.1059    1.7462    0.0000 N   0  0  0  0  0  0  0  0  0  0  0  0
    2.8327    0.3492    0.0000 N   0  0  0  0  0  0  0  0  0  0  0  0
    4.0551    1.0671    0.0000 N   0  0  0  0  0  0  0  0  0  0  0  0
    0.3298    0.6597    0.0000 C   0  0  0  0  0  0  0  0  0  0  0  0
    1.1059    0.4074    0.0000 C   0  0  0  0  0  0  0  0  0  0  0  0
   -0.2717    0.1164    0.0000 C   0  0  3  0  0  0  0  0  0  0  0  0
   -0.7179   -1.2612    0.0000 C   0  0  0  0  0  0  0  0  0  0  0  0
   -1.5134   -1.0089    0.0000 C   0  0  0  0  0  0  0  0  0  0  0  0
    1.3000   -0.4074    0.0000 C   0  0  0  0  0  0  0  0  0  0  0  0
   -2.0954   -1.5716    0.0000 C   0  0  0  0  0  0  0  0  0  0  0  0
    2.4253    1.0671    0.0000 C   0  0  0  0  0  0  0  0  0  0  0  0
    0.6985   -0.9701    0.0000 C   0  0  0  0  0  0  0  0  0  0  0  0
   -2.8715   -1.3000    0.0000 C   0  0  0  0  0  0  0  0  0  0  0  0
   -3.4924   -1.8820    0.0000 C   0  0  0  0  0  0  0  0  0  0  0  0
   -1.6492   -0.2329    0.0000 C   0  0  0  0  0  0  0  0  0  0  0  0
   -3.0268   -0.5045    0.0000 C   0  0  0  0  0  0  0  0  0  0  0  0
   -1.0671    0.3492    0.0000 C   0  0  0  0  0  0  0  0  0  0  0  0
    2.8521    1.7850    0.0000 C   0  0  0  0  0  0  0  0  0  0  0  0
   -2.4447    0.0388    0.0000 C   0  0  0  0  0  0  0  0  0  0  0  0
    3.6476    1.7850    0.0000 C   0  0  0  0  0  0  0  0  0  0  0  0
    3.6670    0.3686    0.0000 C   0  0  0  0  0  0  0  0  0  0  0  0
    4.0939    2.5029    0.0000 C   0  0  0  0  0  0  0  0  0  0  0  0
  1 18  1  0  0  0  0
  2 22  1  0  0  0  0
  3 22  1  0  0  0  0
  4 22  1  0  0  0  0
  5 15  2  0  0  0  0
  6 14  1  0  0  0  0
  6 15  1  0  0  0  0
  6 20  1  0  0  0  0
  7  9  1  0  0  0  0
  7 13  1  0  0  0  0
  7 19  1  0  0  0  0
  8  9  2  0  0  0  0
  8 12  1  0  0  0  0
 10 19  2  0  0  0  0
 10 29  1  0  0  0  0
 11 28  1  0  0  0  0
 11 29  2  0  0  0  0
 12 13  2  0  0  0  0
 12 14  1  0  0  0  0
 13 17  1  0  0  0  0
 14 25  1  0  0  0  0
 15 16  1  0  0  0  0
 16 18  1  0  0  0  0
 16 23  2  0  0  0  0
 17 20  1  0  0  0  0
 18 21  2  0  0  0  0
 19 26  1  0  0  0  0
 21 22  1  0  0  0  0
 21 24  1  0  0  0  0
 23 27  1  0  0  0  0
 24 27  2  0  0  0  0
 26 28  2  0  0  0  0
 28 30  1  0  0  0  0
M  END
> <PUBCHEM_COMPOUND_ID_TYPE>
0

> <PUBCHEM_TOTAL_CHARGE>
0

> <PUBCHEM_SUBSTANCE_ID>
310949475

> <PUBCHEM_SUBSTANCE_VERSION>
1

> <PUBCHEM_EXT_DATASOURCE_NAME>
4488

> <PUBCHEM_EXT_DATASOURCE_REGID>
SCHEMBL16127669

> <PUBCHEM_SUBSTANCE_COMMENT>
InChI=1S/C19H16ClF3N6O/c1-10-8-15(25-9-24-10)29-14-6-7-28(11(2)17(14)26-27-29)18(30)12-4-3-5-13(16(12)20)19(21,22)23/h3-5,8-9,11H,6-7H2,1-2H3
InChIKey=RUKRAJHFHJNJOR-UHFFFAOYSA-N

> <PUBCHEM_SUBSTANCE_SYNONYM>
SCHEMBL16127669

> <PUBCHEM_XREF_EXT_ID>
SCHEMBL16127669

> <PUBCHEM_EXT_DATASOURCE_URL>
https://www.surechembl.org/

> <PUBCHEM_EXT_SUBSTANCE_URL>
https://www.surechembl.org/chemical/SCHEMBL16127669

> <PUBCHEM_CID_ASSOCIATIONS>
117614918  1

> <PUBCHEM_COORDINATE_TYPE>
1
3

$$$$
