310942038
  -OEChem-07211613022D

 48 52  0     1  0  0  0  0  0999 V2000
   -7.0797   -1.3852    0.0000 Cl  0  0  0  0  0  0  0  0  0  0  0  0
    5.1335   -2.7058    0.0000 O   0  0  0  0  0  0  0  0  0  0  0  0
    3.1576   -0.3823    0.0000 O   0  0  0  0  0  0  0  0  0  0  0  0
    1.3305   -2.5667    0.0000 O   0  0  0  0  0  0  0  0  0  0  0  0
    4.7462    2.3682    0.0000 O   0  0  0  0  0  0  0  0  0  0  0  0
    1.5489    1.7624    0.0000 O   0  0  0  0  0  0  0  0  0  0  0  0
    1.5489    0.1142    0.0000 O   0  0  0  0  0  0  0  0  0  0  0  0
    4.4186   -1.4248    0.0000 N   0  0  0  0  0  0  0  0  0  0  0  0
    5.7095    0.8093    0.0000 N   0  0  0  0  0  0  0  0  0  0  0  0
    2.2441   -1.4646    0.0000 N   0  0  0  0  0  0  0  0  0  0  0  0
    3.9320    0.9483    0.0000 N   0  0  0  0  0  0  0  0  0  0  0  0
   -4.0214   -1.3752    0.0000 N   0  0  0  0  0  0  0  0  0  0  0  0
   -4.0214    1.1071    0.0000 N   0  0  0  0  0  0  0  0  0  0  0  0
   -0.4468    1.5142    0.0000 N   0  0  3  0  0  0  0  0  0  0  0  0
    5.4612   -0.5907    0.0000 C   0  0  0  0  0  0  0  0  0  0  0  0
    5.7392   -1.3454    0.0000 C   0  0  0  0  0  0  0  0  0  0  0  0
    5.1037   -1.8519    0.0000 C   0  0  0  0  0  0  0  0  0  0  0  0
    4.6470   -0.6206    0.0000 C   0  0  0  0  0  0  0  0  0  0  0  0
    3.6441   -1.6929    0.0000 C   0  0  3  0  0  0  0  0  0  0  0  0
    5.9874    0.0447    0.0000 C   0  0  0  0  0  0  0  0  0  0  0  0
    6.5633   -1.4943    0.0000 C   0  0  0  0  0  0  0  0  0  0  0  0
    2.9987   -1.1766    0.0000 C   0  0  0  0  0  0  0  0  0  0  0  0
    6.8016   -0.1042    0.0000 C   0  0  0  0  0  0  0  0  0  0  0  0
    3.5051   -2.5072    0.0000 C   0  0  0  0  0  0  0  0  0  0  0  0
    7.0797   -0.8689    0.0000 C   0  0  0  0  0  0  0  0  0  0  0  0
    2.1050   -2.2589    0.0000 C   0  0  0  0  0  0  0  0  0  0  0  0
    2.7505   -2.7852    0.0000 C   0  0  0  0  0  0  0  0  0  0  0  0
    4.7363    1.4248    0.0000 C   0  0  0  0  0  0  0  0  0  0  0  0
   -4.7462   -0.1241    0.0000 C   0  0  0  0  0  0  0  0  0  0  0  0
   -4.7562   -0.9483    0.0000 C   0  0  0  0  0  0  0  0  0  0  0  0
   -4.0412    0.2929    0.0000 C   0  0  0  0  0  0  0  0  0  0  0  0
   -5.4612    0.2730    0.0000 C   0  0  0  0  0  0  0  0  0  0  0  0
   -5.4413   -1.3553    0.0000 C   0  0  0  0  0  0  0  0  0  0  0  0
   -3.3065   -0.1340    0.0000 C   0  0  0  0  0  0  0  0  0  0  0  0
   -6.1860   -0.9483    0.0000 C   0  0  0  0  0  0  0  0  0  0  0  0
   -6.1661   -0.1340    0.0000 C   0  0  0  0  0  0  0  0  0  0  0  0
   -3.3165   -0.9582    0.0000 C   0  0  0  0  0  0  0  0  0  0  0  0
   -3.3165    1.5241    0.0000 C   0  0  3  0  0  0  0  0  0  0  0  0
    2.9689    0.9682    0.0000 C   0  0  0  0  0  0  0  0  0  0  0  0
   -2.5916    1.1171    0.0000 C   0  0  0  0  0  0  0  0  0  0  0  0
    2.5022    1.7823    0.0000 C   0  0  0  0  0  0  0  0  0  0  0  0
   -3.3264    2.3682    0.0000 C   0  0  0  0  0  0  0  0  0  0  0  0
   -1.8866    1.5241    0.0000 C   0  0  0  0  0  0  0  0  0  0  0  0
    1.0624    0.9682    0.0000 C   0  0  0  0  0  0  0  0  0  0  0  0
   -1.1518    1.1171    0.0000 C   0  0  0  0  0  0  0  0  0  0  0  0
    0.1290    0.9483    0.0000 C   0  0  0  0  0  0  0  0  0  0  0  0
   -0.4468    2.3483    0.0000 C   0  0  0  0  0  0  0  0  0  0  0  0
    0.2780    2.7852    0.0000 C   0  0  0  0  0  0  0  0  0  0  0  0
  1 35  1  0  0  0  0
  2 17  2  0  0  0  0
  3 22  2  0  0  0  0
  4 26  2  0  0  0  0
  5 28  2  0  0  0  0
  6 41  1  0  0  0  0
  6 44  1  0  0  0  0
  7 44  2  0  0  0  0
  8 17  1  0  0  0  0
  8 18  1  0  0  0  0
  8 19  1  0  0  0  0
  9 20  1  0  0  0  0
  9 28  1  0  0  0  0
 10 22  1  0  0  0  0
 10 26  1  0  0  0  0
 11 28  1  0  0  0  0
 11 39  1  0  0  0  0
 12 30  1  0  0  0  0
 12 37  2  0  0  0  0
 13 31  1  0  0  0  0
 13 38  1  0  0  0  0
 14 45  1  0  0  0  0
 14 46  1  0  0  0  0
 14 47  1  0  0  0  0
 15 16  2  0  0  0  0
 15 18  1  0  0  0  0
 15 20  1  0  0  0  0
 16 17  1  0  0  0  0
 16 21  1  0  0  0  0
 19 22  1  0  0  0  0
 19 24  1  0  0  0  0
 20 23  2  0  0  0  0
 21 25  2  0  0  0  0
 23 25  1  0  0  0  0
 24 27  1  0  0  0  0
 26 27  1  0  0  0  0
 29 30  1  0  0  0  0
 29 31  1  0  0  0  0
 29 32  2  0  0  0  0
 30 33  2  0  0  0  0
 31 34  2  0  0  0  0
 32 36  1  0  0  0  0
 33 35  1  0  0  0  0
 34 37  1  0  0  0  0
 35 36  2  0  0  0  0
 38 40  1  0  0  0  0
 38 42  1  0  0  0  0
 39 41  1  0  0  0  0
 40 43  1  0  0  0  0
 43 45  1  0  0  0  0
 44 46  1  0  0  0  0
 47 48  1  0  0  0  0
M  END
> <PUBCHEM_COMPOUND_ID_TYPE>
0

> <PUBCHEM_TOTAL_CHARGE>
0

> <PUBCHEM_SUBSTANCE_ID>
310942038

> <PUBCHEM_SUBSTANCE_VERSION>
1

> <PUBCHEM_EXT_DATASOURCE_NAME>
4488

> <PUBCHEM_EXT_DATASOURCE_REGID>
SCHEMBL16120072

> <PUBCHEM_SUBSTANCE_COMMENT>
InChI=1S/C34H40ClN7O6/c1-3-41(16-5-6-21(2)38-27-13-14-36-28-18-22(35)9-10-24(27)28)20-31(44)48-17-15-37-34(47)39-26-8-4-7-23-25(26)19-42(33(23)46)29-11-12-30(43)40-32(29)45/h4,7-10,13-14,18,21,29H,3,5-6,11-12,15-17,19-20H2,1-2H3,(H,36,38)(H2,37,39,47)(H,40,43,45)
InChIKey=PSFMNAWWLPSOSJ-UHFFFAOYSA-N

> <PUBCHEM_SUBSTANCE_SYNONYM>
SCHEMBL16120072

> <PUBCHEM_XREF_EXT_ID>
SCHEMBL16120072

> <PUBCHEM_EXT_DATASOURCE_URL>
https://www.surechembl.org/

> <PUBCHEM_EXT_SUBSTANCE_URL>
https://www.surechembl.org/chemical/SCHEMBL16120072

> <PUBCHEM_CID_ASSOCIATIONS>
117608724  1

> <PUBCHEM_COORDINATE_TYPE>
1
3

$$$$
