310941092
  -OEChem-07211613022D

 28 28  0     1  0  0  0  0  0999 V2000
   -0.0138   -0.4194    0.0000 O   0  0  0  0  0  0  0  0  0  0  0  0
   -2.1585    1.6429    0.0000 O   0  0  0  0  0  0  0  0  0  0  0  0
   -5.0045    1.6429    0.0000 O   0  0  0  0  0  0  0  0  0  0  0  0
    4.2621   -2.0691    0.0000 O   0  0  0  0  0  0  0  0  0  0  0  0
    0.7012    0.8318    0.0000 N   0  0  0  0  0  0  0  0  0  0  0  0
   -1.4436    0.4194    0.0000 N   0  0  0  0  0  0  0  0  0  0  0  0
   -3.5746    0.8318    0.0000 N   0  0  0  0  0  0  0  0  0  0  0  0
    0.0000    0.4606    0.0000 C   0  0  0  0  0  0  0  0  0  0  0  0
   -0.7424    0.8593    0.0000 C   0  0  3  0  0  0  0  0  0  0  0  0
    1.1961    0.2131    0.0000 C   0  0  3  0  0  0  0  0  0  0  0  0
   -2.1585    0.8318    0.0000 C   0  0  0  0  0  0  0  0  0  0  0  0
   -2.8597    0.4468    0.0000 C   0  0  0  0  0  0  0  0  0  0  0  0
    1.8836    0.6118    0.0000 C   0  0  0  0  0  0  0  0  0  0  0  0
    1.1686   -0.6118    0.0000 C   0  0  0  0  0  0  0  0  0  0  0  0
   -3.5746    1.6704    0.0000 C   0  0  0  0  0  0  0  0  0  0  0  0
   -4.2758    0.4468    0.0000 C   0  0  0  0  0  0  0  0  0  0  0  0
   -0.7287    1.6842    0.0000 C   0  0  0  0  0  0  0  0  0  0  0  0
   -4.3170    2.0829    0.0000 C   0  0  0  0  0  0  0  0  0  0  0  0
   -4.9907    0.8593    0.0000 C   0  0  0  0  0  0  0  0  0  0  0  0
    2.0210   -0.9005    0.0000 C   0  0  0  0  0  0  0  0  0  0  0  0
    1.8973    1.1343    0.0000 C   0  0  0  0  0  0  0  0  0  0  0  0
    2.3372    0.3643    0.0000 C   0  0  0  0  0  0  0  0  0  0  0  0
    2.7085   -0.5156    0.0000 C   0  0  0  0  0  0  0  0  0  0  0  0
    3.3959   -1.7667    0.0000 C   0  0  0  0  0  0  0  0  0  0  0  0
    3.4371   -0.9143    0.0000 C   0  0  0  0  0  0  0  0  0  0  0  0
    2.7909   -2.0829    0.0000 C   0  0  0  0  0  0  0  0  0  0  0  0
    5.0045   -1.6155    0.0000 C   0  0  0  0  0  0  0  0  0  0  0  0
    2.4198   -1.7804    0.0000 C   0  0  0  0  0  0  0  0  0  0  0  0
  1  8  2  0  0  0  0
  2 11  2  0  0  0  0
  3 18  1  0  0  0  0
  3 19  1  0  0  0  0
  4 24  1  0  0  0  0
  4 27  1  0  0  0  0
  5  8  1  0  0  0  0
  5 10  1  0  0  0  0
  6  9  1  0  0  0  0
  6 11  1  0  0  0  0
  7 12  1  0  0  0  0
  7 15  1  0  0  0  0
  7 16  1  0  0  0  0
  8  9  1  0  0  0  0
  9 17  1  0  0  0  0
 10 13  1  0  0  0  0
 10 14  1  0  0  0  0
 11 12  1  0  0  0  0
 13 21  2  0  0  0  0
 13 22  1  0  0  0  0
 14 20  1  0  0  0  0
 15 18  1  0  0  0  0
 16 19  1  0  0  0  0
 20 23  2  0  0  0  0
 23 25  1  0  0  0  0
 24 25  2  0  0  0  0
 24 26  1  0  0  0  0
 26 28  2  0  0  0  0
M  END
> <PUBCHEM_COMPOUND_ID_TYPE>
0

> <PUBCHEM_TOTAL_CHARGE>
0

> <PUBCHEM_SUBSTANCE_ID>
310941092

> <PUBCHEM_SUBSTANCE_VERSION>
1

> <PUBCHEM_EXT_DATASOURCE_NAME>
4488

> <PUBCHEM_EXT_DATASOURCE_REGID>
SCHEMBL16119052

> <PUBCHEM_SUBSTANCE_COMMENT>
InChI=1S/C21H33N3O4/c1-6-18(27-5)9-7-8-10-19(16(2)3)23-21(26)17(4)22-20(25)15-24-11-13-28-14-12-24/h6-9,17,19H,1-2,10-15H2,3-5H3,(H,22,25)(H,23,26)/b8-7+,18-9+
InChIKey=XGRVONAYTNZCTL-OQUKJUSVSA-N

> <PUBCHEM_SUBSTANCE_SYNONYM>
SCHEMBL16119052

> <PUBCHEM_XREF_EXT_ID>
SCHEMBL16119052

> <PUBCHEM_EXT_DATASOURCE_URL>
https://www.surechembl.org/

> <PUBCHEM_EXT_SUBSTANCE_URL>
https://www.surechembl.org/chemical/SCHEMBL16119052

> <PUBCHEM_CID_ASSOCIATIONS>
117607977  1

> <PUBCHEM_COORDINATE_TYPE>
1
3

$$$$
