310933991
  -OEChem-07211613022D

 37 41  0     1  0  0  0  0  0999 V2000
    4.3155   -1.4149    0.0000 O   0  0  0  0  0  0  0  0  0  0  0  0
    2.1931   -0.9551    0.0000 O   0  0  0  0  0  0  0  0  0  0  0  0
    0.0354   -6.2610    0.0000 O   0  0  0  0  0  0  0  0  0  0  0  0
    7.8529   -0.1769    0.0000 O   0  0  0  0  0  0  0  0  0  0  0  0
    8.5957   -1.4149    0.0000 O   0  0  0  0  0  0  0  0  0  0  0  0
    2.9006   -2.1931    0.0000 N   0  0  0  0  0  0  0  0  0  0  0  0
    2.1577   -5.0583    0.0000 N   0  0  0  0  0  0  0  0  0  0  0  0
    5.0230   -2.6530    0.0000 N   0  0  0  0  0  0  0  0  0  0  0  0
    4.5277    0.0000    0.0000 N   0  0  0  0  0  0  0  0  0  0  0  0
    4.9169   -0.7074    0.0000 N   0  0  0  0  0  0  0  0  0  0  0  0
    3.6080   -2.6530    0.0000 C   0  0  3  0  0  0  0  0  0  0  0  0
    3.6080   -3.4666    0.0000 C   0  0  0  0  0  0  0  0  0  0  0  0
    2.9006   -3.8557    0.0000 C   0  0  0  0  0  0  0  0  0  0  0  0
    2.8652   -4.6693    0.0000 C   0  0  0  0  0  0  0  0  0  0  0  0
    4.3155   -2.2285    0.0000 C   0  0  0  0  0  0  0  0  0  0  0  0
    2.9006   -1.4149    0.0000 C   0  0  0  0  0  0  0  0  0  0  0  0
    2.1931   -3.4312    0.0000 C   0  0  0  0  0  0  0  0  0  0  0  0
    2.1931   -2.6176    0.0000 C   0  0  0  0  0  0  0  0  0  0  0  0
    4.3155   -3.8557    0.0000 C   0  0  0  0  0  0  0  0  0  0  0  0
    3.5727   -5.0937    0.0000 C   0  0  0  0  0  0  0  0  0  0  0  0
    3.6080   -0.9904    0.0000 C   0  0  0  0  0  0  0  0  0  0  0  0
    4.3155   -4.6693    0.0000 C   0  0  0  0  0  0  0  0  0  0  0  0
    2.1577   -5.9073    0.0000 C   0  0  0  0  0  0  0  0  0  0  0  0
    1.4857   -4.6339    0.0000 C   0  0  0  0  0  0  0  0  0  0  0  0
    5.7304   -2.2285    0.0000 C   0  0  0  0  0  0  0  0  0  0  0  0
    3.7142   -0.1769    0.0000 C   0  0  0  0  0  0  0  0  0  0  0  0
    4.5277   -1.4857    0.0000 C   0  0  0  0  0  0  0  0  0  0  0  0
    1.4503   -6.2964    0.0000 C   0  0  0  0  0  0  0  0  0  0  0  0
    0.7429   -5.0583    0.0000 C   0  0  0  0  0  0  0  0  0  0  0  0
    0.7429   -5.8366    0.0000 C   0  0  0  0  0  0  0  0  0  0  0  0
    5.7304   -1.4149    0.0000 C   0  0  0  0  0  0  0  0  0  0  0  0
    6.4379   -2.6530    0.0000 C   0  0  0  0  0  0  0  0  0  0  0  0
    7.1454   -1.4149    0.0000 C   0  0  0  0  0  0  0  0  0  0  0  0
    6.4379   -0.9904    0.0000 C   0  0  0  0  0  0  0  0  0  0  0  0
    7.1454   -2.2285    0.0000 C   0  0  0  0  0  0  0  0  0  0  0  0
    7.8529   -0.9904    0.0000 C   0  0  0  0  0  0  0  0  0  0  0  0
    0.0000   -7.0746    0.0000 C   0  0  0  0  0  0  0  0  0  0  0  0
  1 15  2  0  0  0  0
  2 16  2  0  0  0  0
  3 30  1  0  0  0  0
  3 37  1  0  0  0  0
  4 36  2  0  0  0  0
  5 36  1  0  0  0  0
  6 11  1  0  0  0  0
  6 16  1  0  0  0  0
  6 18  1  0  0  0  0
  7 14  1  0  0  0  0
  7 23  1  0  0  0  0
  7 24  1  0  0  0  0
  8 15  1  0  0  0  0
  8 25  1  0  0  0  0
  9 10  1  0  0  0  0
  9 26  2  0  0  0  0
 10 27  1  0  0  0  0
 11 12  1  0  0  0  0
 11 15  1  0  0  0  0
 12 13  2  0  0  0  0
 12 19  1  0  0  0  0
 13 14  1  0  0  0  0
 13 17  1  0  0  0  0
 14 20  2  0  0  0  0
 16 21  1  0  0  0  0
 17 18  1  0  0  0  0
 19 22  2  0  0  0  0
 20 22  1  0  0  0  0
 21 26  1  0  0  0  0
 21 27  2  0  0  0  0
 23 28  1  0  0  0  0
 24 29  1  0  0  0  0
 25 31  2  0  0  0  0
 25 32  1  0  0  0  0
 28 30  1  0  0  0  0
 29 30  1  0  0  0  0
 31 34  1  0  0  0  0
 32 35  2  0  0  0  0
 33 34  2  0  0  0  0
 33 35  1  0  0  0  0
 33 36  1  0  0  0  0
M  END
> <PUBCHEM_COMPOUND_ID_TYPE>
0

> <PUBCHEM_TOTAL_CHARGE>
0

> <PUBCHEM_SUBSTANCE_ID>
310933991

> <PUBCHEM_SUBSTANCE_VERSION>
1

> <PUBCHEM_EXT_DATASOURCE_NAME>
4488

> <PUBCHEM_EXT_DATASOURCE_REGID>
SCHEMBL16111434

> <PUBCHEM_SUBSTANCE_COMMENT>
InChI=1S/C27H29N5O5/c1-37-20-9-12-31(13-10-20)23-4-2-3-22-21(23)11-14-32(26(34)18-15-28-29-16-18)24(22)25(33)30-19-7-5-17(6-8-19)27(35)36/h2-8,15-16,20,24H,9-14H2,1H3,(H,28,29)(H,30,33)(H,35,36)
InChIKey=HLXDVGSKTNOULV-UHFFFAOYSA-N

> <PUBCHEM_SUBSTANCE_SYNONYM>
SCHEMBL16111434

> <PUBCHEM_XREF_EXT_ID>
SCHEMBL16111434

> <PUBCHEM_EXT_DATASOURCE_URL>
https://www.surechembl.org/

> <PUBCHEM_EXT_SUBSTANCE_URL>
https://www.surechembl.org/chemical/SCHEMBL16111434

> <PUBCHEM_CID_ASSOCIATIONS>
117602298  1

> <PUBCHEM_COORDINATE_TYPE>
1
3

$$$$
