310936848
  -OEChem-07211613022D

 26 27  0     1  0  0  0  0  0999 V2000
    0.8250   -0.7250    0.0000 Cl  0  0  0  0  0  0  0  0  0  0  0  0
    0.0000   -2.1500    0.0000 Cl  0  0  0  0  0  0  0  0  0  0  0  0
    4.5250   -2.8500    0.0000 O   0  0  0  0  0  0  0  0  0  0  0  0
    0.8500   -5.0000    0.0000 O   0  5  0  0  0  0  0  0  0  0  0  0
    0.8250   -3.5750    0.0000 O   0  0  0  0  0  0  0  0  0  0  0  0
    4.5250    0.0000    0.0000 O   0  0  0  0  0  0  0  0  0  0  0  0
    5.7750   -0.7250    0.0000 O   0  0  0  0  0  0  0  0  0  0  0  0
    4.5250   -1.4250    0.0000 N   0  0  0  0  0  0  0  0  0  0  0  0
    1.2500   -4.2750    0.0000 N   0  3  0  0  0  0  0  0  0  0  0  0
    3.3000   -2.1500    0.0000 C   0  0  3  0  0  0  0  0  0  0  0  0
    2.4750   -2.1500    0.0000 C   0  0  0  0  0  0  0  0  0  0  0  0
    3.7000   -2.8500    0.0000 C   0  0  3  0  0  0  0  0  0  0  0  0
    3.3000   -3.5750    0.0000 C   0  0  0  0  0  0  0  0  0  0  0  0
    2.0500   -1.4250    0.0000 C   0  0  0  0  0  0  0  0  0  0  0  0
    3.7000   -1.4250    0.0000 C   0  0  0  0  0  0  0  0  0  0  0  0
    1.2500   -1.4250    0.0000 C   0  0  0  0  0  0  0  0  0  0  0  0
    2.0500   -2.8500    0.0000 C   0  0  0  0  0  0  0  0  0  0  0  0
    2.4750   -3.5750    0.0000 C   0  0  0  0  0  0  0  0  0  0  0  0
    2.0750   -4.2750    0.0000 C   0  0  0  0  0  0  0  0  0  0  0  0
    0.8250   -2.1500    0.0000 C   0  0  0  0  0  0  0  0  0  0  0  0
    3.7000   -4.3000    0.0000 C   0  0  0  0  0  0  0  0  0  0  0  0
    1.2500   -2.8500    0.0000 C   0  0  0  0  0  0  0  0  0  0  0  0
    2.4750   -5.0000    0.0000 C   0  0  0  0  0  0  0  0  0  0  0  0
    3.3000   -5.0000    0.0000 C   0  0  0  0  0  0  0  0  0  0  0  0
    4.9500   -0.7250    0.0000 C   0  0  0  0  0  0  0  0  0  0  0  0
    4.9500   -2.1500    0.0000 C   0  0  0  0  0  0  0  0  0  0  0  0
  1 16  1  0  0  0  0
  2 20  1  0  0  0  0
  3 12  1  0  0  0  0
  4  9  1  0  0  0  0
  5  9  2  0  0  0  0
  6 25  2  0  0  0  0
  7 25  1  0  0  0  0
  8 15  1  0  0  0  0
  8 25  1  0  0  0  0
  8 26  1  0  0  0  0
  9 19  1  0  0  0  0
 10 11  1  0  0  0  0
 10 12  1  0  0  0  0
 10 15  1  0  0  0  0
 11 14  1  0  0  0  0
 11 17  2  0  0  0  0
 12 13  1  0  0  0  0
 13 18  1  0  0  0  0
 13 21  2  0  0  0  0
 14 16  2  0  0  0  0
 16 20  1  0  0  0  0
 17 22  1  0  0  0  0
 18 19  2  0  0  0  0
 19 23  1  0  0  0  0
 20 22  2  0  0  0  0
 21 24  1  0  0  0  0
 23 24  2  0  0  0  0
M  CHG  2   4  -1   9   1
M  END
> <PUBCHEM_COMPOUND_ID_TYPE>
0

> <PUBCHEM_TOTAL_CHARGE>
0

> <PUBCHEM_SUBSTANCE_ID>
310936848

> <PUBCHEM_SUBSTANCE_VERSION>
1

> <PUBCHEM_EXT_DATASOURCE_NAME>
4488

> <PUBCHEM_EXT_DATASOURCE_REGID>
SCHEMBL16114540

> <PUBCHEM_SUBSTANCE_COMMENT>
InChI=1S/C17H16Cl2N2O5/c1-20(17(23)24)9-13(10-5-6-14(18)15(19)8-10)16(22)11-3-2-4-12(7-11)21(25)26/h2-8,13,16,22H,9H2,1H3,(H,23,24)
InChIKey=YGIXHVKEZRLYPH-UHFFFAOYSA-N

> <PUBCHEM_SUBSTANCE_SYNONYM>
SCHEMBL16114540

> <PUBCHEM_XREF_EXT_ID>
SCHEMBL16114540

> <PUBCHEM_EXT_DATASOURCE_URL>
https://www.surechembl.org/

> <PUBCHEM_EXT_SUBSTANCE_URL>
https://www.surechembl.org/chemical/SCHEMBL16114540

> <PUBCHEM_CID_ASSOCIATIONS>
117604740  1

> <PUBCHEM_COORDINATE_TYPE>
1
3

$$$$
