310946554
  -OEChem-07211613022D

 22 21  0     1  0  0  0  0  0999 V2000
   -5.7580  -13.9506    0.0000 O   0  0  0  0  0  0  0  0  0  0  0  0
   -6.1409  -16.8085    0.0000 O   0  0  0  0  0  0  0  0  0  0  0  0
   -9.3304  -12.7131    0.0000 O   0  0  0  0  0  0  0  0  0  0  0  0
   -5.0435  -15.1881    0.0000 O   0  5  0  0  0  0  0  0  0  0  0  0
   -4.3291  -13.9506    0.0000 O   0  0  0  0  0  0  0  0  0  0  0  0
   -6.1409  -18.2375    0.0000 O   0  0  0  0  0  0  0  0  0  0  0  0
   -5.0435  -14.3631    0.0000 N   0  3  0  0  0  0  0  0  0  0  0  0
   -8.6159  -13.9506    0.0000 N   0  0  0  0  0  0  0  0  0  0  0  0
   -4.9034  -16.0941    0.0000 N   0  0  0  0  0  0  0  0  0  0  0  0
   -5.7580  -13.1256    0.0000 C   0  0  3  0  0  0  0  0  0  0  0  0
   -6.4725  -12.7131    0.0000 C   0  0  0  0  0  0  0  0  0  0  0  0
   -8.6159  -13.1256    0.0000 C   0  0  0  0  0  0  0  0  0  0  0  0
   -7.1869  -13.1256    0.0000 C   0  0  0  0  0  0  0  0  0  0  0  0
   -7.9014  -12.7131    0.0000 C   0  0  0  0  0  0  0  0  0  0  0  0
   -5.0435  -12.7131    0.0000 C   0  0  0  0  0  0  0  0  0  0  0  0
   -5.7284  -16.0941    0.0000 C   0  0  3  0  0  0  0  0  0  0  0  0
   -6.1409  -15.3796    0.0000 C   0  0  0  0  0  0  0  0  0  0  0  0
   -8.2034  -14.6651    0.0000 C   0  0  0  0  0  0  0  0  0  0  0  0
   -6.9659  -15.3796    0.0000 C   0  0  0  0  0  0  0  0  0  0  0  0
   -7.3784  -14.6651    0.0000 C   0  0  0  0  0  0  0  0  0  0  0  0
   -4.3291  -13.1256    0.0000 C   0  0  0  0  0  0  0  0  0  0  0  0
   -5.7284  -17.5230    0.0000 C   0  0  0  0  0  0  0  0  0  0  0  0
  1  7  1  0  0  0  0
  1 10  1  0  0  0  0
  2 16  1  0  0  0  0
  2 22  1  0  0  0  0
  3 12  2  0  0  0  0
  4  7  1  0  0  0  0
  5  7  2  0  0  0  0
  6 22  2  0  0  0  0
  8 12  1  0  0  0  0
  8 18  1  0  0  0  0
  9 16  1  0  0  0  0
 10 11  1  0  0  0  0
 10 15  1  0  0  0  0
 11 13  1  0  0  0  0
 12 14  1  0  0  0  0
 13 14  1  0  0  0  0
 15 21  1  0  0  0  0
 16 17  1  0  0  0  0
 17 19  1  0  0  0  0
 18 20  1  0  0  0  0
 19 20  1  0  0  0  0
M  CHG  2   4  -1   7   1
M  END
> <PUBCHEM_COMPOUND_ID_TYPE>
0

> <PUBCHEM_TOTAL_CHARGE>
0

> <PUBCHEM_SUBSTANCE_ID>
310946554

> <PUBCHEM_SUBSTANCE_VERSION>
1

> <PUBCHEM_EXT_DATASOURCE_NAME>
4488

> <PUBCHEM_EXT_DATASOURCE_REGID>
SCHEMBL16124675

> <PUBCHEM_SUBSTANCE_COMMENT>
InChI=1S/C13H25N3O6/c1-2-11(22-16(19)20)6-5-8-13(18)15-9-4-3-7-12(14)21-10-17/h10-12H,2-9,14H2,1H3,(H,15,18)
InChIKey=MDPHVTKEFKMARK-UHFFFAOYSA-N

> <PUBCHEM_SUBSTANCE_SYNONYM>
SCHEMBL16124675

> <PUBCHEM_XREF_EXT_ID>
SCHEMBL16124675

> <PUBCHEM_EXT_DATASOURCE_URL>
https://www.surechembl.org/

> <PUBCHEM_EXT_SUBSTANCE_URL>
https://www.surechembl.org/chemical/SCHEMBL16124675

> <PUBCHEM_CID_ASSOCIATIONS>
117612456  1

> <PUBCHEM_COORDINATE_TYPE>
1
3

$$$$
