310936329
  -OEChem-07211613022D

 14 13  0     1  0  0  0  0  0999 V2000
   -3.5722    0.4125    0.0000 P   0  0  3  0  0  0  0  0  0  0  0  0
   -7.8589    0.4125    0.0000 O   0  0  0  0  0  0  0  0  0  0  0  0
   -4.2866    0.0000    0.0000 O   0  0  0  0  0  0  0  0  0  0  0  0
   -7.1445   -0.8250    0.0000 O   0  0  0  0  0  0  0  0  0  0  0  0
   -3.5722    1.2375    0.0000 O   0  0  0  0  0  0  0  0  0  0  0  0
   -2.8577    0.0000    0.0000 O   0  0  0  0  0  0  0  0  0  0  0  0
   -6.4300    0.4125    0.0000 N   0  0  0  0  0  0  0  0  0  0  0  0
   -8.5733    0.0000    0.0000 C   0  0  0  0  0  0  0  0  0  0  0  0
   -7.1445    0.0000    0.0000 C   0  0  0  0  0  0  0  0  0  0  0  0
   -5.7155    0.0000    0.0000 C   0  0  0  0  0  0  0  0  0  0  0  0
   -5.0011    0.4125    0.0000 C   0  0  0  0  0  0  0  0  0  0  0  0
   -9.2878    0.4125    0.0000 C   0  0  0  0  0  0  0  0  0  0  0  0
   -9.2878   -0.4125    0.0000 C   0  0  0  0  0  0  0  0  0  0  0  0
   -8.5733   -0.8250    0.0000 C   0  0  0  0  0  0  0  0  0  0  0  0
  1  3  1  0  0  0  0
  1  5  2  0  0  0  0
  1  6  1  0  0  0  0
  2  8  1  0  0  0  0
  2  9  1  0  0  0  0
  3 11  1  0  0  0  0
  4  9  2  0  0  0  0
  7  9  1  0  0  0  0
  7 10  1  0  0  0  0
  8 12  1  0  0  0  0
  8 13  1  0  0  0  0
  8 14  1  0  0  0  0
 10 11  1  0  0  0  0
M  END
> <PUBCHEM_COMPOUND_ID_TYPE>
0

> <PUBCHEM_TOTAL_CHARGE>
0

> <PUBCHEM_SUBSTANCE_ID>
310936329

> <PUBCHEM_SUBSTANCE_VERSION>
1

> <PUBCHEM_EXT_DATASOURCE_NAME>
4488

> <PUBCHEM_EXT_DATASOURCE_REGID>
SCHEMBL16113955

> <PUBCHEM_SUBSTANCE_COMMENT>
InChI=1S/C7H16NO5P/c1-7(2,3)13-6(9)8-4-5-12-14(10)11/h14H,4-5H2,1-3H3,(H,8,9)(H,10,11)
InChIKey=YHNFXHPHFUHAMO-UHFFFAOYSA-N

> <PUBCHEM_SUBSTANCE_SYNONYM>
SCHEMBL16113955

> <PUBCHEM_XREF_EXT_ID>
SCHEMBL16113955

> <PUBCHEM_EXT_DATASOURCE_URL>
https://www.surechembl.org/

> <PUBCHEM_EXT_SUBSTANCE_URL>
https://www.surechembl.org/chemical/SCHEMBL16113955

> <PUBCHEM_CID_ASSOCIATIONS>
101391765  1

> <PUBCHEM_COORDINATE_TYPE>
1
3

$$$$
