310945723
  -OEChem-07211613022D

 16 17  0     1  0  0  0  0  0999 V2000
    1.2160    0.3555    0.0000 S   0  0  0  0  0  0  0  0  0  0  0  0
    1.7961   -0.2245    0.0000 O   0  0  0  0  0  0  0  0  0  0  0  0
    2.0205    0.5613    0.0000 O   0  0  0  0  0  0  0  0  0  0  0  0
    0.5987   -0.1871    0.0000 N   0  0  3  0  0  0  0  0  0  0  0  0
   -0.4863   -2.0392    0.0000 N   0  0  0  0  0  0  0  0  0  0  0  0
   -1.3095   -1.8709    0.0000 N   0  0  0  0  0  0  0  0  0  0  0  0
   -0.6549   -0.7297    0.0000 C   0  0  0  0  0  0  0  0  0  0  0  0
    1.2347    1.1973    0.0000 C   0  0  0  0  0  0  0  0  0  0  0  0
   -0.0935   -1.3283    0.0000 C   0  0  0  0  0  0  0  0  0  0  0  0
   -0.2245   -0.0187    0.0000 C   0  0  0  0  0  0  0  0  0  0  0  0
    0.6549   -1.0102    0.0000 C   0  0  0  0  0  0  0  0  0  0  0  0
   -1.4031   -1.0664    0.0000 C   0  0  0  0  0  0  0  0  0  0  0  0
    1.2347    2.0392    0.0000 C   0  0  0  0  0  0  0  0  0  0  0  0
    0.4863    1.6277    0.0000 C   0  0  0  0  0  0  0  0  0  0  0  0
    1.9644    1.5903    0.0000 C   0  0  0  0  0  0  0  0  0  0  0  0
   -2.0205   -0.6922    0.0000 C   0  0  0  0  0  0  0  0  0  0  0  0
  1  2  2  0  0  0  0
  1  3  2  0  0  0  0
  1  4  1  0  0  0  0
  1  8  1  0  0  0  0
  4 10  1  0  0  0  0
  4 11  1  0  0  0  0
  5  6  1  0  0  0  0
  5  9  1  0  0  0  0
  6 12  2  0  0  0  0
  7  9  2  0  0  0  0
  7 10  1  0  0  0  0
  7 12  1  0  0  0  0
  8 13  1  0  0  0  0
  8 14  1  0  0  0  0
  8 15  1  0  0  0  0
  9 11  1  0  0  0  0
 12 16  1  0  0  0  0
M  END
> <PUBCHEM_COMPOUND_ID_TYPE>
0

> <PUBCHEM_TOTAL_CHARGE>
0

> <PUBCHEM_SUBSTANCE_ID>
310945723

> <PUBCHEM_SUBSTANCE_VERSION>
1

> <PUBCHEM_EXT_DATASOURCE_NAME>
4488

> <PUBCHEM_EXT_DATASOURCE_REGID>
SCHEMBL16123827

> <PUBCHEM_SUBSTANCE_COMMENT>
InChI=1S/C10H17N3O2S/c1-7-8-5-13(6-9(8)12-11-7)16(14,15)10(2,3)4/h5-6H2,1-4H3,(H,11,12)
InChIKey=QVMYVIPVVJYWAN-UHFFFAOYSA-N

> <PUBCHEM_SUBSTANCE_SYNONYM>
SCHEMBL16123827

> <PUBCHEM_XREF_EXT_ID>
SCHEMBL16123827

> <PUBCHEM_EXT_DATASOURCE_URL>
https://www.surechembl.org/

> <PUBCHEM_EXT_SUBSTANCE_URL>
https://www.surechembl.org/chemical/SCHEMBL16123827

> <PUBCHEM_CID_ASSOCIATIONS>
117611720  1

> <PUBCHEM_COORDINATE_TYPE>
1
3

$$$$
