310930621
  -OEChem-07211613022D

 20 19  0     1  0  0  0  0  0999 V2000
    5.8264   -0.8591    0.0000 S   0  0  0  0  0  0  0  0  0  0  0  0
    2.8579   -2.1307    0.0000 O   0  0  0  0  0  0  0  0  0  0  0  0
    0.7145   -1.7182    0.0000 O   0  0  0  0  0  0  0  0  0  0  0  0
    6.5409   -0.4466    0.0000 O   0  5  0  0  0  0  0  0  0  0  0  0
    6.2389   -1.5736    0.0000 O   0  0  0  0  0  0  0  0  0  0  0  0
    5.4139   -0.1446    0.0000 O   0  0  0  0  0  0  0  0  0  0  0  0
   -1.4290   -2.1307    0.0000 O   0  0  0  0  0  0  0  0  0  0  0  0
    2.1435   -0.8932    0.0000 N   0  3  0  0  0  0  0  0  0  0  0  0
    2.1435   -1.7182    0.0000 C   0  0  3  0  0  0  0  0  0  0  0  0
    1.3230   -0.8070    0.0000 C   0  0  0  0  0  0  0  0  0  0  0  0
    2.4790   -0.1395    0.0000 C   0  0  0  0  0  0  0  0  0  0  0  0
    1.1514    0.0000    0.0000 C   0  0  0  0  0  0  0  0  0  0  0  0
    1.8659    0.4125    0.0000 C   0  0  0  0  0  0  0  0  0  0  0  0
    1.4290   -2.1307    0.0000 C   0  0  0  0  0  0  0  0  0  0  0  0
    2.8579   -1.3057    0.0000 C   0  0  0  0  0  0  0  0  0  0  0  0
    3.5724   -1.7182    0.0000 C   0  0  0  0  0  0  0  0  0  0  0  0
    5.1119   -1.2716    0.0000 C   0  0  0  0  0  0  0  0  0  0  0  0
    0.0000   -2.1307    0.0000 C   0  0  0  0  0  0  0  0  0  0  0  0
   -0.7145   -1.7182    0.0000 C   0  0  0  0  0  0  0  0  0  0  0  0
    4.3975   -0.8591    0.0000 C   0  0  0  0  0  0  0  0  0  0  0  0
  1  4  1  0  0  0  0
  1  5  2  0  0  0  0
  1  6  2  0  0  0  0
  1 17  1  0  0  0  0
  2  9  1  0  0  0  0
  2 16  1  0  0  0  0
  3 14  1  0  0  0  0
  3 18  1  0  0  0  0
  7 19  1  0  0  0  0
  8  9  1  0  0  0  0
  8 10  1  0  0  0  0
  8 11  1  0  0  0  0
  8 15  1  0  0  0  0
  9 14  1  0  0  0  0
 10 12  1  0  0  0  0
 11 13  1  0  0  0  0
 12 13  1  0  0  0  0
 17 20  1  0  0  0  0
 18 19  1  0  0  0  0
M  CHG  2   4  -1   8   1
M  END
> <PUBCHEM_COMPOUND_ID_TYPE>
0

> <PUBCHEM_TOTAL_CHARGE>
0

> <PUBCHEM_SUBSTANCE_ID>
310930621

> <PUBCHEM_SUBSTANCE_VERSION>
1

> <PUBCHEM_EXT_DATASOURCE_NAME>
4488

> <PUBCHEM_EXT_DATASOURCE_REGID>
SCHEMBL16107918

> <PUBCHEM_SUBSTANCE_COMMENT>
InChI=1S/C10H22NO3.C2H6O3S/c1-11(5-3-4-6-11)10(13-2)9-14-8-7-12;1-2-6(3,4)5/h10,12H,3-9H2,1-2H3;2H2,1H3,(H,3,4,5)/q+1;/p-1
InChIKey=OUNNVWDAWZTXHQ-UHFFFAOYSA-M

> <PUBCHEM_SUBSTANCE_SYNONYM>
SCHEMBL16107918

> <PUBCHEM_XREF_EXT_ID>
SCHEMBL16107918

> <PUBCHEM_EXT_DATASOURCE_URL>
https://www.surechembl.org/

> <PUBCHEM_EXT_SUBSTANCE_URL>
https://www.surechembl.org/chemical/SCHEMBL16107918

> <PUBCHEM_CID_ASSOCIATIONS>
117599691  1
11668  2
66832144  2

> <PUBCHEM_COORDINATE_TYPE>
1
3

$$$$
