310928833
  -OEChem-07211613022D

 12 11  0     1  0  0  0  0  0999 V2000
   -0.1105    1.2375    0.0000 Br  0  0  0  0  0  0  0  0  0  0  0  0
    2.2539    0.0000    0.0000 Cl  0  0  0  0  0  0  0  0  0  0  0  0
   -0.1105   -1.2375    0.0000 N   0  0  0  0  0  0  0  0  0  0  0  0
   -0.8250   -0.0000    0.0000 C   0  0  0  0  0  0  0  0  0  0  0  0
   -0.8250    0.8250    0.0000 C   0  0  0  0  0  0  0  0  0  0  0  0
   -0.1105   -0.4125    0.0000 C   0  0  3  0  0  0  0  0  0  0  0  0
   -1.5395   -0.4125    0.0000 C   0  0  0  0  0  0  0  0  0  0  0  0
   -1.5395    1.2375    0.0000 C   0  0  0  0  0  0  0  0  0  0  0  0
   -2.2539    0.0000    0.0000 C   0  0  0  0  0  0  0  0  0  0  0  0
   -2.2539    0.8250    0.0000 C   0  0  0  0  0  0  0  0  0  0  0  0
    0.6039    0.0000    0.0000 C   0  0  0  0  0  0  0  0  0  0  0  0
    1.4289    0.0000    0.0000 H   0  0  0  0  0  0  0  0  0  0  0  0
  1  5  1  0  0  0  0
  2 12  1  0  0  0  0
  6  3  1  6  0  0  0
  4  5  1  0  0  0  0
  4  6  1  0  0  0  0
  4  7  2  0  0  0  0
  5  8  2  0  0  0  0
  6 11  1  0  0  0  0
  7  9  1  0  0  0  0
  8 10  1  0  0  0  0
  9 10  2  0  0  0  0
M  END
> <PUBCHEM_COMPOUND_ID_TYPE>
0

> <PUBCHEM_TOTAL_CHARGE>
0

> <PUBCHEM_SUBSTANCE_ID>
310928833

> <PUBCHEM_SUBSTANCE_VERSION>
2

> <PUBCHEM_EXT_DATASOURCE_NAME>
11752

> <PUBCHEM_EXT_DATASOURCE_REGID>
BD304274

> <PUBCHEM_SUBSTANCE_SYNONYM>
(S)-1-(2-Bromophenyl)ethanamine hydrochloride
1187931-26-5

> <PUBCHEM_GENERIC_REGISTRY_NAME>
1187931-26-5

> <PUBCHEM_XREF_EXT_ID>
BD304274

> <PUBCHEM_EXT_DATASOURCE_URL>
http://www.bidepharmatech.com/en/index.html

> <PUBCHEM_EXT_SUBSTANCE_URL>
http://www.bidepharmatech.com/en/goodsview_goodscode_BD304274.html

> <PUBCHEM_CID_ASSOCIATIONS>
71755834  1
313  2
2530257  2

> <PUBCHEM_COORDINATE_TYPE>
1
3

> <PUBCHEM_BONDANNOTATIONS>
6  3  6

$$$$
