310935147
  -OEChem-07211613022D

 15 15  0     1  0  0  0  0  0999 V2000
    0.0000   -2.0626    0.0000 Cl  0  0  0  0  0  0  0  0  0  0  0  0
    3.7951   -1.6501    0.0000 F   0  0  0  0  0  0  0  0  0  0  0  0
    2.3513    0.0000    0.0000 N   0  0  0  0  0  0  0  0  0  0  0  0
    2.3513   -1.6501    0.0000 C   0  0  3  0  0  0  0  0  0  0  0  0
    3.0938   -1.2375    0.0000 C   0  0  3  0  0  0  0  0  0  0  0  0
    2.3513   -2.4751    0.0000 C   0  0  0  0  0  0  0  0  0  0  0  0
    3.0732   -2.8876    0.0000 C   0  0  0  0  0  0  0  0  0  0  0  0
    1.6501   -1.2375    0.0000 C   0  0  0  0  0  0  0  0  0  0  0  0
    3.0938   -0.4125    0.0000 C   0  0  0  0  0  0  0  0  0  0  0  0
    1.6501   -0.4125    0.0000 C   0  0  0  0  0  0  0  0  0  0  0  0
    3.0732   -3.7126    0.0000 C   0  0  0  0  0  0  0  0  0  0  0  0
    3.7745   -2.4751    0.0000 C   0  0  0  0  0  0  0  0  0  0  0  0
    3.7745   -4.1251    0.0000 C   0  0  0  0  0  0  0  0  0  0  0  0
    4.4963   -2.8876    0.0000 C   0  0  0  0  0  0  0  0  0  0  0  0
    4.4963   -3.7126    0.0000 C   0  0  0  0  0  0  0  0  0  0  0  0
  2  5  1  0  0  0  0
  3  9  1  0  0  0  0
  3 10  1  0  0  0  0
  4  5  1  0  0  0  0
  4  6  1  0  0  0  0
  4  8  1  0  0  0  0
  5  9  1  0  0  0  0
  6  7  1  0  0  0  0
  7 11  2  0  0  0  0
  7 12  1  0  0  0  0
  8 10  1  0  0  0  0
 11 13  1  0  0  0  0
 12 14  2  0  0  0  0
 13 15  2  0  0  0  0
 14 15  1  0  0  0  0
M  END
> <PUBCHEM_COMPOUND_ID_TYPE>
0

> <PUBCHEM_TOTAL_CHARGE>
0

> <PUBCHEM_SUBSTANCE_ID>
310935147

> <PUBCHEM_SUBSTANCE_VERSION>
1

> <PUBCHEM_EXT_DATASOURCE_NAME>
4488

> <PUBCHEM_EXT_DATASOURCE_REGID>
SCHEMBL16112674

> <PUBCHEM_SUBSTANCE_COMMENT>
InChI=1S/C12H16FN.ClH/c13-12-9-14-7-6-11(12)8-10-4-2-1-3-5-10;/h1-5,11-12,14H,6-9H2;1H
InChIKey=QLMMFPPJFXTXTE-UHFFFAOYSA-N

> <PUBCHEM_SUBSTANCE_SYNONYM>
SCHEMBL16112674

> <PUBCHEM_XREF_EXT_ID>
SCHEMBL16112674

> <PUBCHEM_EXT_DATASOURCE_URL>
https://www.surechembl.org/

> <PUBCHEM_EXT_SUBSTANCE_URL>
https://www.surechembl.org/chemical/SCHEMBL16112674

> <PUBCHEM_CID_ASSOCIATIONS>
117603234  1
313  2
77534322  2

> <PUBCHEM_COORDINATE_TYPE>
1
3

$$$$
