310946521
  -OEChem-07211613022D

 22 22  0     1  0  0  0  0  0999 V2000
   -6.7436    0.2483    0.0000 O   0  0  0  0  0  0  0  0  0  0  0  0
   -6.0291    1.4858    0.0000 O   0  0  0  0  0  0  0  0  0  0  0  0
   -8.8870    3.9608    0.0000 O   0  0  0  0  0  0  0  0  0  0  0  0
   -3.8857   -0.5767    0.0000 O   0  0  0  0  0  0  0  0  0  0  0  0
   -3.8857    1.8983    0.0000 O   0  0  0  0  0  0  0  0  0  0  0  0
   -9.6015    5.1983    0.0000 O   0  5  0  0  0  0  0  0  0  0  0  0
  -10.3159    3.9608    0.0000 O   0  0  0  0  0  0  0  0  0  0  0  0
   -5.3146    0.2483    0.0000 N   0  0  0  0  0  0  0  0  0  0  0  0
   -9.6015    4.3733    0.0000 N   0  3  0  0  0  0  0  0  0  0  0  0
   -7.4581    0.6608    0.0000 C   0  0  0  0  0  0  0  0  0  0  0  0
   -8.1725    1.8983    0.0000 C   0  0  0  0  0  0  0  0  0  0  0  0
   -6.0291    0.6608    0.0000 C   0  0  0  0  0  0  0  0  0  0  0  0
   -7.4581    1.4858    0.0000 C   0  0  0  0  0  0  0  0  0  0  0  0
   -4.6002    0.6608    0.0000 C   0  0  3  0  0  0  0  0  0  0  0  0
   -8.1725    0.2483    0.0000 C   0  0  0  0  0  0  0  0  0  0  0  0
   -8.8870    1.4858    0.0000 C   0  0  0  0  0  0  0  0  0  0  0  0
   -3.8857    0.2483    0.0000 C   0  0  0  0  0  0  0  0  0  0  0  0
   -8.8870    0.6608    0.0000 C   0  0  0  0  0  0  0  0  0  0  0  0
   -8.1725    2.7233    0.0000 C   0  0  0  0  0  0  0  0  0  0  0  0
   -4.6002    1.4858    0.0000 C   0  0  0  0  0  0  0  0  0  0  0  0
   -8.8870    3.1358    0.0000 C   0  0  0  0  0  0  0  0  0  0  0  0
   -3.1712    0.6608    0.0000 C   0  0  0  0  0  0  0  0  0  0  0  0
  1 10  1  0  0  0  0
  1 12  1  0  0  0  0
  2 12  2  0  0  0  0
  3  9  1  0  0  0  0
  3 21  1  0  0  0  0
  4 17  2  0  0  0  0
  5 20  1  0  0  0  0
  6  9  1  0  0  0  0
  7  9  2  0  0  0  0
  8 12  1  0  0  0  0
  8 14  1  0  0  0  0
 10 13  2  0  0  0  0
 10 15  1  0  0  0  0
 11 13  1  0  0  0  0
 11 16  2  0  0  0  0
 11 19  1  0  0  0  0
 14 17  1  0  0  0  0
 14 20  1  0  0  0  0
 15 18  2  0  0  0  0
 16 18  1  0  0  0  0
 17 22  1  0  0  0  0
 19 21  1  0  0  0  0
M  CHG  2   6  -1   9   1
M  END
> <PUBCHEM_COMPOUND_ID_TYPE>
0

> <PUBCHEM_TOTAL_CHARGE>
0

> <PUBCHEM_SUBSTANCE_ID>
310946521

> <PUBCHEM_SUBSTANCE_VERSION>
1

> <PUBCHEM_EXT_DATASOURCE_NAME>
4488

> <PUBCHEM_EXT_DATASOURCE_REGID>
SCHEMBL16124642

> <PUBCHEM_SUBSTANCE_COMMENT>
InChI=1S/C13H16N2O7/c1-9(17)12(8-16)14-13(18)22-11-4-2-3-10(7-11)5-6-21-15(19)20/h2-4,7,12,16H,5-6,8H2,1H3,(H,14,18)
InChIKey=QXCQPDDRZUOCAT-UHFFFAOYSA-N

> <PUBCHEM_SUBSTANCE_SYNONYM>
SCHEMBL16124642

> <PUBCHEM_XREF_EXT_ID>
SCHEMBL16124642

> <PUBCHEM_EXT_DATASOURCE_URL>
https://www.surechembl.org/

> <PUBCHEM_EXT_SUBSTANCE_URL>
https://www.surechembl.org/chemical/SCHEMBL16124642

> <PUBCHEM_CID_ASSOCIATIONS>
117612426  1

> <PUBCHEM_COORDINATE_TYPE>
1
3

$$$$
