310939855
  -OEChem-07211613022D

 27 29  0     1  0  0  0  0  0999 V2000
   -4.5695   -0.7697    0.0000 I   0  0  0  0  0  0  0  0  0  0  0  0
   -3.7445   -2.1987    0.0000 Cl  0  0  0  0  0  0  0  0  0  0  0  0
    3.3320    1.3737    0.0000 S   0  0  0  0  0  0  0  0  0  0  0  0
    3.3320    2.1987    0.0000 O   0  0  0  0  0  0  0  0  0  0  0  0
    3.3320    0.5487    0.0000 O   0  0  0  0  0  0  0  0  0  0  0  0
   -1.2695    2.0881    0.0000 O   0  0  0  0  0  0  0  0  0  0  0  0
   -1.2695   -0.7697    0.0000 O   0  0  0  0  0  0  0  0  0  0  0  0
    2.5070    1.3737    0.0000 N   0  0  0  0  0  0  0  0  0  0  0  0
   -0.0320    1.3737    0.0000 N   0  0  0  0  0  0  0  0  0  0  0  0
   -2.0945    0.6592    0.0000 N   0  0  0  0  0  0  0  0  0  0  0  0
    1.2375    0.9612    0.0000 C   0  0  3  0  0  0  0  0  0  0  0  0
    1.2375    1.7862    0.0000 C   0  0  3  0  0  0  0  0  0  0  0  0
    2.0221    0.7062    0.0000 C   0  0  0  0  0  0  0  0  0  0  0  0
    2.0221    2.0411    0.0000 C   0  0  0  0  0  0  0  0  0  0  0  0
    0.4529    0.7062    0.0000 C   0  0  0  0  0  0  0  0  0  0  0  0
    0.4529    2.0411    0.0000 C   0  0  0  0  0  0  0  0  0  0  0  0
   -0.8570    1.3737    0.0000 C   0  0  0  0  0  0  0  0  0  0  0  0
   -2.5070   -0.0553    0.0000 C   0  0  0  0  0  0  0  0  0  0  0  0
    4.1570    1.3737    0.0000 C   0  0  0  0  0  0  0  0  0  0  0  0
   -2.0945   -0.7697    0.0000 C   0  0  0  0  0  0  0  0  0  0  0  0
   -1.2695    0.6592    0.0000 C   0  0  0  0  0  0  0  0  0  0  0  0
   -3.7445   -0.7697    0.0000 C   0  0  0  0  0  0  0  0  0  0  0  0
   -3.3320   -1.4842    0.0000 C   0  0  0  0  0  0  0  0  0  0  0  0
   -3.3320   -0.0553    0.0000 C   0  0  0  0  0  0  0  0  0  0  0  0
   -2.5070   -1.4842    0.0000 C   0  0  0  0  0  0  0  0  0  0  0  0
    4.5695    2.0881    0.0000 C   0  0  0  0  0  0  0  0  0  0  0  0
   -0.8570   -1.4842    0.0000 C   0  0  0  0  0  0  0  0  0  0  0  0
  1 22  1  0  0  0  0
  2 23  1  0  0  0  0
  3  4  2  0  0  0  0
  3  5  2  0  0  0  0
  3  8  1  0  0  0  0
  3 19  1  0  0  0  0
  6 17  2  0  0  0  0
  7 20  1  0  0  0  0
  7 27  1  0  0  0  0
  8 13  1  0  0  0  0
  8 14  1  0  0  0  0
  9 15  1  0  0  0  0
  9 16  1  0  0  0  0
  9 17  1  0  0  0  0
 10 18  1  0  0  0  0
 10 21  1  0  0  0  0
 11 12  1  0  0  0  0
 11 13  1  0  0  0  0
 11 15  1  0  0  0  0
 12 14  1  0  0  0  0
 12 16  1  0  0  0  0
 17 21  1  0  0  0  0
 18 20  2  0  0  0  0
 18 24  1  0  0  0  0
 19 26  2  0  0  0  0
 20 25  1  0  0  0  0
 22 23  1  0  0  0  0
 22 24  2  0  0  0  0
 23 25  2  0  0  0  0
M  END
> <PUBCHEM_COMPOUND_ID_TYPE>
0

> <PUBCHEM_TOTAL_CHARGE>
0

> <PUBCHEM_SUBSTANCE_ID>
310939855

> <PUBCHEM_SUBSTANCE_VERSION>
1

> <PUBCHEM_EXT_DATASOURCE_NAME>
4488

> <PUBCHEM_EXT_DATASOURCE_REGID>
SCHEMBL16117785

> <PUBCHEM_SUBSTANCE_COMMENT>
InChI=1S/C17H21ClIN3O4S/c1-3-27(24,25)22-9-11-7-21(8-12(11)10-22)17(23)6-20-15-5-14(19)13(18)4-16(15)26-2/h3-5,11-12,20H,1,6-10H2,2H3
InChIKey=MDOVNKFQYQHSFX-UHFFFAOYSA-N

> <PUBCHEM_SUBSTANCE_SYNONYM>
SCHEMBL16117785

> <PUBCHEM_XREF_EXT_ID>
SCHEMBL16117785

> <PUBCHEM_EXT_DATASOURCE_URL>
https://www.surechembl.org/

> <PUBCHEM_EXT_SUBSTANCE_URL>
https://www.surechembl.org/chemical/SCHEMBL16117785

> <PUBCHEM_CID_ASSOCIATIONS>
117607070  1

> <PUBCHEM_COORDINATE_TYPE>
1
3

$$$$
