310941922
  -OEChem-07211613022D

 30 29  0     1  0  0  0  0  0999 V2000
   -0.8037    4.2515    0.0000 O   0  0  0  0  0  0  0  0  0  0  0  0
   -1.5154    5.4786    0.0000 O   0  0  0  0  0  0  0  0  0  0  0  0
   -1.2699    2.0430    0.0000 O   0  0  0  0  0  0  0  0  0  0  0  0
    2.0308    4.2515    0.0000 O   0  0  0  0  0  0  0  0  0  0  0  0
   -2.0798    3.4418    0.0000 N   0  0  0  0  0  0  0  0  0  0  0  0
   -2.2148    4.2639    0.0000 C   0  0  3  0  0  0  0  0  0  0  0  0
   -1.5154    4.6565    0.0000 C   0  0  0  0  0  0  0  0  0  0  0  0
   -2.9264    4.6688    0.0000 C   0  0  0  0  0  0  0  0  0  0  0  0
   -1.2577    2.8773    0.0000 C   0  0  0  0  0  0  0  0  0  0  0  0
   -0.5461    3.2700    0.0000 C   0  0  0  0  0  0  0  0  0  0  0  0
   -0.0920    4.6688    0.0000 C   0  0  0  0  0  0  0  0  0  0  0  0
   -3.6136    4.2515    0.0000 C   0  0  0  0  0  0  0  0  0  0  0  0
   -2.9264    5.4786    0.0000 C   0  0  0  0  0  0  0  0  0  0  0  0
    0.1533    2.8528    0.0000 C   0  0  0  0  0  0  0  0  0  0  0  0
    0.6320    4.2639    0.0000 C   0  0  0  0  0  0  0  0  0  0  0  0
    1.3191    4.6688    0.0000 C   0  0  3  0  0  0  0  0  0  0  0  0
    0.0061    2.0553    0.0000 C   0  0  0  0  0  0  0  0  0  0  0  0
    0.7056    1.6135    0.0000 C   0  0  0  0  0  0  0  0  0  0  0  0
    0.5584    0.8159    0.0000 C   0  0  0  0  0  0  0  0  0  0  0  0
    1.3313    5.4786    0.0000 C   0  0  0  0  0  0  0  0  0  0  0  0
    1.2945    0.3988    0.0000 C   0  0  0  0  0  0  0  0  0  0  0  0
    1.1227   -0.4234    0.0000 C   0  0  0  0  0  0  0  0  0  0  0  0
    1.8344   -0.8527    0.0000 C   0  0  0  0  0  0  0  0  0  0  0  0
    1.6749   -1.6503    0.0000 C   0  0  0  0  0  0  0  0  0  0  0  0
    2.4111   -2.0675    0.0000 C   0  0  0  0  0  0  0  0  0  0  0  0
    2.2516   -2.9264    0.0000 C   0  0  0  0  0  0  0  0  0  0  0  0
    3.0245   -3.3804    0.0000 C   0  0  0  0  0  0  0  0  0  0  0  0
    2.9018   -4.2270    0.0000 C   0  0  0  0  0  0  0  0  0  0  0  0
    3.6136   -4.6442    0.0000 C   0  0  0  0  0  0  0  0  0  0  0  0
    3.4540   -5.4786    0.0000 C   0  0  0  0  0  0  0  0  0  0  0  0
  1  7  1  0  0  0  0
  1 11  1  0  0  0  0
  2  7  2  0  0  0  0
  3  9  2  0  0  0  0
  4 16  1  0  0  0  0
  5  6  1  0  0  0  0
  5  9  1  0  0  0  0
  6  7  1  0  0  0  0
  6  8  1  0  0  0  0
  8 12  1  0  0  0  0
  8 13  1  0  0  0  0
  9 10  1  0  0  0  0
 10 14  1  0  0  0  0
 11 15  1  0  0  0  0
 14 17  1  0  0  0  0
 15 16  1  0  0  0  0
 16 20  1  0  0  0  0
 17 18  1  0  0  0  0
 18 19  1  0  0  0  0
 19 21  1  0  0  0  0
 21 22  1  0  0  0  0
 22 23  1  0  0  0  0
 23 24  1  0  0  0  0
 24 25  1  0  0  0  0
 25 26  1  0  0  0  0
 26 27  1  0  0  0  0
 27 28  1  0  0  0  0
 28 29  1  0  0  0  0
 29 30  1  0  0  0  0
M  END
> <PUBCHEM_COMPOUND_ID_TYPE>
0

> <PUBCHEM_TOTAL_CHARGE>
0

> <PUBCHEM_SUBSTANCE_ID>
310941922

> <PUBCHEM_SUBSTANCE_VERSION>
1

> <PUBCHEM_EXT_DATASOURCE_NAME>
4488

> <PUBCHEM_EXT_DATASOURCE_REGID>
SCHEMBL16119954

> <PUBCHEM_SUBSTANCE_COMMENT>
InChI=1S/C25H49NO4/c1-5-6-7-8-9-10-11-12-13-14-15-16-17-18-23(28)26-24(21(2)3)25(29)30-20-19-22(4)27/h21-22,24,27H,5-20H2,1-4H3,(H,26,28)
InChIKey=FVQUELSIFQMJFO-UHFFFAOYSA-N

> <PUBCHEM_SUBSTANCE_SYNONYM>
SCHEMBL16119954

> <PUBCHEM_XREF_EXT_ID>
SCHEMBL16119954

> <PUBCHEM_EXT_DATASOURCE_URL>
https://www.surechembl.org/

> <PUBCHEM_EXT_SUBSTANCE_URL>
https://www.surechembl.org/chemical/SCHEMBL16119954

> <PUBCHEM_CID_ASSOCIATIONS>
71525972  1

> <PUBCHEM_COORDINATE_TYPE>
1
3

$$$$
