310938718
  -OEChem-07211613022D

 19 21  0     1  0  0  0  0  0999 V2000
    0.6049   -1.7874    0.0000 S   0  0  0  0  0  0  0  0  0  0  0  0
   -3.3505   -1.2722    0.0000 O   0  0  0  0  0  0  0  0  0  0  0  0
   -2.7673   -3.7106    0.0000 O   0  0  0  0  0  0  0  0  0  0  0  0
   -1.5385   -2.1999    0.0000 O   0  0  0  0  0  0  0  0  0  0  0  0
   -4.5172   -4.2939    0.0000 O   0  0  0  0  0  0  0  0  0  0  0  0
   -2.2530   -0.9624    0.0000 O   0  0  0  0  0  0  0  0  0  0  0  0
    0.1924   -1.0730    0.0000 O   0  0  0  0  0  0  0  0  0  0  0  0
    1.0174   -2.5019    0.0000 O   0  0  0  0  0  0  0  0  0  0  0  0
    1.3194   -1.3749    0.0000 O   0  0  0  0  0  0  0  0  0  0  0  0
   -3.3505   -2.6996    0.0000 C   0  0  3  0  0  0  0  0  0  0  0  0
   -2.5538   -2.9137    0.0000 C   0  0  3  0  0  0  0  0  0  0  0  0
   -2.9675   -2.1999    0.0000 C   0  0  3  0  0  0  0  0  0  0  0  0
   -4.1473   -2.9137    0.0000 C   0  0  3  0  0  0  0  0  0  0  0  0
   -3.7643   -1.9859    0.0000 C   0  0  3  0  0  0  0  0  0  0  0  0
   -3.9338   -3.7106    0.0000 C   0  0  0  0  0  0  0  0  0  0  0  0
   -4.5610   -2.1999    0.0000 C   0  0  0  0  0  0  0  0  0  0  0  0
   -2.2530   -1.7874    0.0000 C   0  0  0  0  0  0  0  0  0  0  0  0
   -0.8241   -1.7874    0.0000 C   0  0  0  0  0  0  0  0  0  0  0  0
   -0.1096   -2.1999    0.0000 C   0  0  0  0  0  0  0  0  0  0  0  0
  1  7  2  0  0  0  0
  1  8  2  0  0  0  0
  1  9  1  0  0  0  0
  1 19  1  0  0  0  0
  2 10  1  0  0  0  0
  2 14  1  0  0  0  0
  3 11  1  0  0  0  0
  3 15  1  0  0  0  0
  4 17  1  0  0  0  0
  4 18  1  0  0  0  0
  5 15  2  0  0  0  0
  6 17  2  0  0  0  0
 10 11  1  0  0  0  0
 10 13  1  0  0  0  0
 11 12  1  0  0  0  0
 12 14  1  0  0  0  0
 12 17  1  0  0  0  0
 13 15  1  0  0  0  0
 13 16  1  0  0  0  0
 14 16  1  0  0  0  0
 18 19  1  0  0  0  0
M  END
> <PUBCHEM_COMPOUND_ID_TYPE>
0

> <PUBCHEM_TOTAL_CHARGE>
0

> <PUBCHEM_SUBSTANCE_ID>
310938718

> <PUBCHEM_SUBSTANCE_VERSION>
1

> <PUBCHEM_EXT_DATASOURCE_NAME>
4488

> <PUBCHEM_EXT_DATASOURCE_REGID>
SCHEMBL16116632

> <PUBCHEM_SUBSTANCE_COMMENT>
InChI=1S/C10H12O8S/c11-9-4-3-5-6(8(18-9)7(4)17-5)10(12)16-1-2-19(13,14)15/h4-8H,1-3H2,(H,13,14,15)
InChIKey=BNYNCUUDOXABIV-UHFFFAOYSA-N

> <PUBCHEM_SUBSTANCE_SYNONYM>
SCHEMBL16116632

> <PUBCHEM_XREF_EXT_ID>
SCHEMBL16116632

> <PUBCHEM_EXT_DATASOURCE_URL>
https://www.surechembl.org/

> <PUBCHEM_EXT_SUBSTANCE_URL>
https://www.surechembl.org/chemical/SCHEMBL16116632

> <PUBCHEM_CID_ASSOCIATIONS>
117606146  1

> <PUBCHEM_COORDINATE_TYPE>
1
3

$$$$
