310945826
  -OEChem-07211613022D

 44 48  0     1  0  0  0  0  0999 V2000
    5.2786    0.6658    0.0000 O   0  0  0  0  0  0  0  0  0  0  0  0
    4.1410   -1.2902    0.0000 O   0  0  0  0  0  0  0  0  0  0  0  0
    1.9769    0.7768    0.0000 O   0  0  0  0  0  0  0  0  0  0  0  0
   -2.3375    0.7768    0.0000 O   0  0  0  0  0  0  0  0  0  0  0  0
   -0.1734   -1.2902    0.0000 O   0  0  0  0  0  0  0  0  0  0  0  0
    4.1410   -2.9549    0.0000 O   0  0  0  0  0  0  0  0  0  0  0  0
    2.6983   -0.4579    0.0000 N   0  0  0  0  0  0  0  0  0  0  0  0
    0.5480   -0.0416    0.0000 N   0  0  0  0  0  0  0  0  0  0  0  0
   -1.6162   -0.4579    0.0000 N   0  0  0  0  0  0  0  0  0  0  0  0
    4.8624    0.0000    0.0000 C   0  0  3  0  0  0  0  0  0  0  0  0
    4.1550   -0.4162    0.0000 C   0  0  0  0  0  0  0  0  0  0  0  0
    4.4740    0.6797    0.0000 C   0  0  0  0  0  0  0  0  0  0  0  0
    3.4058   -0.0139    0.0000 C   0  0  3  0  0  0  0  0  0  0  0  0
    5.5977   -0.4439    0.0000 C   0  0  0  0  0  0  0  0  0  0  0  0
    3.4197    1.3040    0.0000 C   0  0  0  0  0  0  0  0  0  0  0  0
    1.9769   -0.0416    0.0000 C   0  0  0  0  0  0  0  0  0  0  0  0
    1.2694   -0.4301    0.0000 C   0  0  3  0  0  0  0  0  0  0  0  0
   -3.0590   -0.4301    0.0000 C   0  0  0  0  0  0  0  0  0  0  0  0
   -3.9607   -1.4289    0.0000 C   0  0  0  0  0  0  0  0  0  0  0  0
   -4.3630   -0.7214    0.0000 C   0  0  0  0  0  0  0  0  0  0  0  0
    2.6983    1.7342    0.0000 C   0  0  0  0  0  0  0  0  0  0  0  0
   -3.1422   -1.2486    0.0000 C   0  0  0  0  0  0  0  0  0  0  0  0
   -3.8081   -0.1110    0.0000 C   0  0  0  0  0  0  0  0  0  0  0  0
   -2.3375   -0.0416    0.0000 C   0  0  0  0  0  0  0  0  0  0  0  0
   -0.1734   -0.4162    0.0000 C   0  0  0  0  0  0  0  0  0  0  0  0
    1.2694   -1.2763    0.0000 C   0  0  0  0  0  0  0  0  0  0  0  0
   -0.9086   -0.0139    0.0000 C   0  0  3  0  0  0  0  0  0  0  0  0
   -4.3630   -2.1503    0.0000 C   0  0  0  0  0  0  0  0  0  0  0  0
   -5.1954   -0.7214    0.0000 C   0  0  0  0  0  0  0  0  0  0  0  0
    2.0046   -1.6786    0.0000 C   0  0  0  0  0  0  0  0  0  0  0  0
    2.6983    2.5387    0.0000 C   0  0  0  0  0  0  0  0  0  0  0  0
    1.9907    1.3179    0.0000 C   0  0  0  0  0  0  0  0  0  0  0  0
   -5.1954   -2.1503    0.0000 C   0  0  0  0  0  0  0  0  0  0  0  0
   -5.5977   -1.4428    0.0000 C   0  0  0  0  0  0  0  0  0  0  0  0
    2.0046   -2.5110    0.0000 C   0  0  0  0  0  0  0  0  0  0  0  0
    2.6983   -1.2902    0.0000 C   0  0  0  0  0  0  0  0  0  0  0  0
    1.9769    2.9549    0.0000 C   0  0  0  0  0  0  0  0  0  0  0  0
    1.2832    1.7203    0.0000 C   0  0  0  0  0  0  0  0  0  0  0  0
   -0.8809    0.8184    0.0000 C   0  0  0  0  0  0  0  0  0  0  0  0
    3.4197   -2.4972    0.0000 C   0  0  0  0  0  0  0  0  0  0  0  0
    2.6983   -2.9133    0.0000 C   0  0  0  0  0  0  0  0  0  0  0  0
    3.4197   -1.6786    0.0000 C   0  0  0  0  0  0  0  0  0  0  0  0
    1.2832    2.5387    0.0000 C   0  0  0  0  0  0  0  0  0  0  0  0
    4.8902   -2.5249    0.0000 C   0  0  0  0  0  0  0  0  0  0  0  0
  1 10  1  0  0  0  0
  1 12  1  0  0  0  0
  2 11  2  0  0  0  0
  3 16  2  0  0  0  0
  4 24  2  0  0  0  0
  5 25  2  0  0  0  0
  6 40  1  0  0  0  0
  6 44  1  0  0  0  0
  7 13  1  0  0  0  0
  7 16  1  0  0  0  0
  8 17  1  0  0  0  0
  8 25  1  0  0  0  0
  9 24  1  0  0  0  0
  9 27  1  0  0  0  0
 10 11  1  0  0  0  0
 10 12  1  0  0  0  0
 10 14  1  0  0  0  0
 11 13  1  0  0  0  0
 13 15  1  0  0  0  0
 15 21  1  0  0  0  0
 16 17  1  0  0  0  0
 17 26  1  0  0  0  0
 18 22  2  0  0  0  0
 18 23  1  0  0  0  0
 18 24  1  0  0  0  0
 19 20  1  0  0  0  0
 19 22  1  0  0  0  0
 19 28  2  0  0  0  0
 20 23  1  0  0  0  0
 20 29  2  0  0  0  0
 21 31  2  0  0  0  0
 21 32  1  0  0  0  0
 25 27  1  0  0  0  0
 26 30  1  0  0  0  0
 27 39  1  0  0  0  0
 28 33  1  0  0  0  0
 29 34  1  0  0  0  0
 30 35  2  0  0  0  0
 30 36  1  0  0  0  0
 31 37  1  0  0  0  0
 32 38  2  0  0  0  0
 33 34  2  0  0  0  0
 35 41  1  0  0  0  0
 36 42  2  0  0  0  0
 37 43  2  0  0  0  0
 38 43  1  0  0  0  0
 40 41  2  0  0  0  0
 40 42  1  0  0  0  0
M  END
> <PUBCHEM_COMPOUND_ID_TYPE>
0

> <PUBCHEM_TOTAL_CHARGE>
0

> <PUBCHEM_SUBSTANCE_ID>
310945826

> <PUBCHEM_SUBSTANCE_VERSION>
1

> <PUBCHEM_EXT_DATASOURCE_NAME>
4488

> <PUBCHEM_EXT_DATASOURCE_REGID>
SCHEMBL16123931

> <PUBCHEM_SUBSTANCE_COMMENT>
InChI=1S/C35H37N3O6/c1-22(36-33(41)27-19-25-11-7-8-12-26(25)20-27)32(40)38-30(18-24-13-15-28(43-3)16-14-24)34(42)37-29(31(39)35(2)21-44-35)17-23-9-5-4-6-10-23/h4-16,19,22,29-30H,17-18,20-21H2,1-3H3,(H,36,41)(H,37,42)(H,38,40)
InChIKey=SAXFLLPJCFKAHA-UHFFFAOYSA-N

> <PUBCHEM_SUBSTANCE_SYNONYM>
SCHEMBL16123931

> <PUBCHEM_XREF_EXT_ID>
SCHEMBL16123931

> <PUBCHEM_EXT_DATASOURCE_URL>
https://www.surechembl.org/

> <PUBCHEM_EXT_SUBSTANCE_URL>
https://www.surechembl.org/chemical/SCHEMBL16123931

> <PUBCHEM_CID_ASSOCIATIONS>
117611812  1

> <PUBCHEM_COORDINATE_TYPE>
1
3

$$$$
