310936247
  -OEChem-07211613022D

 24 26  0     1  0  0  0  0  0999 V2000
    8.4669   -0.1848    0.0000 Cl  0  0  0  0  0  0  0  0  0  0  0  0
    8.4669   -1.8348    0.0000 Cl  0  0  0  0  0  0  0  0  0  0  0  0
    2.7982   -1.9072    0.0000 S   0  0  0  0  0  0  0  0  0  0  0  0
    4.8946   -1.4223    0.0000 O   0  0  0  0  0  0  0  0  0  0  0  0
    6.3235    1.0527    0.0000 N   0  0  0  0  0  0  0  0  0  0  0  0
    4.1801   -0.1848    0.0000 C   0  0  0  0  0  0  0  0  0  0  0  0
    4.8946   -0.5973    0.0000 C   0  0  3  0  0  0  0  0  0  0  0  0
    3.4656   -0.5973    0.0000 C   0  0  0  0  0  0  0  0  0  0  0  0
    5.6091   -0.1848    0.0000 C   0  0  3  0  0  0  0  0  0  0  0  0
    6.3235   -0.5973    0.0000 C   0  0  0  0  0  0  0  0  0  0  0  0
    3.4656   -1.4223    0.0000 C   0  0  0  0  0  0  0  0  0  0  0  0
    4.1801    0.6402    0.0000 C   0  0  0  0  0  0  0  0  0  0  0  0
    7.0380   -0.1848    0.0000 C   0  0  0  0  0  0  0  0  0  0  0  0
    2.7512   -0.1848    0.0000 C   0  0  0  0  0  0  0  0  0  0  0  0
    7.7525   -0.5973    0.0000 C   0  0  0  0  0  0  0  0  0  0  0  0
    6.3235   -1.4223    0.0000 C   0  0  0  0  0  0  0  0  0  0  0  0
    7.7525   -1.4223    0.0000 C   0  0  0  0  0  0  0  0  0  0  0  0
    5.6091    0.6402    0.0000 C   0  0  0  0  0  0  0  0  0  0  0  0
    4.1331   -1.9072    0.0000 C   0  0  0  0  0  0  0  0  0  0  0  0
    7.0380   -1.8348    0.0000 C   0  0  0  0  0  0  0  0  0  0  0  0
    3.4656    1.0527    0.0000 C   0  0  0  0  0  0  0  0  0  0  0  0
    2.7512    0.6402    0.0000 C   0  0  0  0  0  0  0  0  0  0  0  0
    3.0531   -2.6919    0.0000 C   0  0  0  0  0  0  0  0  0  0  0  0
    3.8781   -2.6919    0.0000 C   0  0  0  0  0  0  0  0  0  0  0  0
  1 15  1  0  0  0  0
  2 17  1  0  0  0  0
  3 11  1  0  0  0  0
  3 23  1  0  0  0  0
  4  7  1  0  0  0  0
  5 18  1  0  0  0  0
  6  7  1  0  0  0  0
  6  8  2  0  0  0  0
  6 12  1  0  0  0  0
  7  9  1  0  0  0  0
  8 11  1  0  0  0  0
  8 14  1  0  0  0  0
  9 10  1  0  0  0  0
  9 18  1  0  0  0  0
 10 13  2  0  0  0  0
 10 16  1  0  0  0  0
 11 19  2  0  0  0  0
 12 21  2  0  0  0  0
 13 15  1  0  0  0  0
 14 22  2  0  0  0  0
 15 17  2  0  0  0  0
 16 20  2  0  0  0  0
 17 20  1  0  0  0  0
 19 24  1  0  0  0  0
 21 22  1  0  0  0  0
 23 24  2  0  0  0  0
M  END
> <PUBCHEM_COMPOUND_ID_TYPE>
0

> <PUBCHEM_TOTAL_CHARGE>
0

> <PUBCHEM_SUBSTANCE_ID>
310936247

> <PUBCHEM_SUBSTANCE_VERSION>
1

> <PUBCHEM_EXT_DATASOURCE_NAME>
4488

> <PUBCHEM_EXT_DATASOURCE_REGID>
SCHEMBL16113862

> <PUBCHEM_SUBSTANCE_COMMENT>
InChI=1S/C19H17Cl2NOS/c20-16-8-7-12(10-17(16)21)15(11-22)19(23)14-5-2-1-4-13(14)18-6-3-9-24-18/h1-10,15,19,23H,11,22H2
InChIKey=TWFXXUMZRNHQHZ-UHFFFAOYSA-N

> <PUBCHEM_SUBSTANCE_SYNONYM>
SCHEMBL16113862

> <PUBCHEM_XREF_EXT_ID>
SCHEMBL16113862

> <PUBCHEM_EXT_DATASOURCE_URL>
https://www.surechembl.org/

> <PUBCHEM_EXT_SUBSTANCE_URL>
https://www.surechembl.org/chemical/SCHEMBL16113862

> <PUBCHEM_CID_ASSOCIATIONS>
117604196  1

> <PUBCHEM_COORDINATE_TYPE>
1
3

$$$$
