310939668
  -OEChem-07211613022D

 39 42  0     1  0  0  0  0  0999 V2000
    4.5889   -0.1305    0.0000 F   0  0  0  0  0  0  0  0  0  0  0  0
    5.4140   -1.5595    0.0000 F   0  0  0  0  0  0  0  0  0  0  0  0
   -2.1436   -2.4950    0.0000 O   0  0  0  0  0  0  0  0  0  0  0  0
    1.4760   -7.1051    0.0000 O   0  0  0  0  0  0  0  0  0  0  0  0
   -3.5725   -3.3201    0.0000 O   0  0  0  0  0  0  0  0  0  0  0  0
    1.4290   -2.0825    0.0000 N   0  0  0  0  0  0  0  0  0  0  0  0
    0.7144   -3.3201    0.0000 N   0  0  0  0  0  0  0  0  0  0  0  0
    4.2870   -2.0825    0.0000 N   0  0  0  0  0  0  0  0  0  0  0  0
    1.4290   -4.5576    0.0000 N   0  0  0  0  0  0  0  0  0  0  0  0
    2.8580   -7.0328    0.0000 N   0  0  0  0  0  0  0  0  0  0  0  0
   -5.0014   -2.4950    0.0000 N   0  0  0  0  0  0  0  0  0  0  0  0
    2.1434   -2.4950    0.0000 C   0  0  0  0  0  0  0  0  0  0  0  0
    0.7144   -2.4950    0.0000 C   0  0  0  0  0  0  0  0  0  0  0  0
    2.8580   -2.0825    0.0000 C   0  0  0  0  0  0  0  0  0  0  0  0
    0.0000   -2.0825    0.0000 C   0  0  0  0  0  0  0  0  0  0  0  0
    1.4290   -3.7326    0.0000 C   0  0  0  0  0  0  0  0  0  0  0  0
    2.1434   -3.3201    0.0000 C   0  0  0  0  0  0  0  0  0  0  0  0
    4.2870   -1.2575    0.0000 C   0  0  0  0  0  0  0  0  0  0  0  0
    3.5725   -2.4950    0.0000 C   0  0  0  0  0  0  0  0  0  0  0  0
    2.8580   -1.2575    0.0000 C   0  0  0  0  0  0  0  0  0  0  0  0
    5.0014   -0.8451    0.0000 C   0  0  0  0  0  0  0  0  0  0  0  0
   -0.7144   -2.4950    0.0000 C   0  0  0  0  0  0  0  0  0  0  0  0
    3.5725   -0.8451    0.0000 C   0  0  0  0  0  0  0  0  0  0  0  0
    0.0000   -1.2575    0.0000 C   0  0  0  0  0  0  0  0  0  0  0  0
   -1.4290   -2.0825    0.0000 C   0  0  0  0  0  0  0  0  0  0  0  0
   -0.7144   -0.8451    0.0000 C   0  0  0  0  0  0  0  0  0  0  0  0
   -1.4290   -1.2575    0.0000 C   0  0  0  0  0  0  0  0  0  0  0  0
    2.1436   -4.9702    0.0000 C   0  0  0  0  0  0  0  0  0  0  0  0
    5.7159   -0.4326    0.0000 C   0  0  0  0  0  0  0  0  0  0  0  0
    2.1436   -5.7951    0.0000 C   0  0  0  0  0  0  0  0  0  0  0  0
    2.1905   -7.5176    0.0000 C   0  0  0  0  0  0  0  0  0  0  0  0
    2.8580   -6.2077    0.0000 C   0  0  0  0  0  0  0  0  0  0  0  0
   -2.8580   -2.0825    0.0000 C   0  0  0  0  0  0  0  0  0  0  0  0
    3.5254   -7.5176    0.0000 C   0  0  0  0  0  0  0  0  0  0  0  0
    2.4455   -8.3023    0.0000 C   0  0  0  0  0  0  0  0  0  0  0  0
    3.2705   -8.3023    0.0000 C   0  0  0  0  0  0  0  0  0  0  0  0
   -3.5725   -2.4950    0.0000 C   0  0  3  0  0  0  0  0  0  0  0  0
   -4.2870   -2.0825    0.0000 C   0  0  0  0  0  0  0  0  0  0  0  0
   -5.7159   -2.0825    0.0000 C   0  0  0  0  0  0  0  0  0  0  0  0
  1 21  1  0  0  0  0
  2 21  1  0  0  0  0
  3 25  1  0  0  0  0
  3 33  1  0  0  0  0
  4 31  2  0  0  0  0
  5 37  1  0  0  0  0
  6 12  1  0  0  0  0
  6 13  2  0  0  0  0
  7 13  1  0  0  0  0
  7 16  2  0  0  0  0
  8 18  1  0  0  0  0
  8 19  2  0  0  0  0
  9 16  1  0  0  0  0
  9 28  1  0  0  0  0
 10 31  1  0  0  0  0
 10 32  1  0  0  0  0
 10 34  1  0  0  0  0
 11 38  1  0  0  0  0
 11 39  1  0  0  0  0
 12 14  1  0  0  0  0
 12 17  2  0  0  0  0
 13 15  1  0  0  0  0
 14 19  1  0  0  0  0
 14 20  2  0  0  0  0
 15 22  2  0  0  0  0
 15 24  1  0  0  0  0
 16 17  1  0  0  0  0
 18 21  1  0  0  0  0
 18 23  2  0  0  0  0
 20 23  1  0  0  0  0
 21 29  1  0  0  0  0
 22 25  1  0  0  0  0
 24 26  2  0  0  0  0
 25 27  2  0  0  0  0
 26 27  1  0  0  0  0
 28 30  1  0  0  0  0
 30 32  1  0  0  0  0
 31 35  1  0  0  0  0
 33 37  1  0  0  0  0
 34 36  1  0  0  0  0
 35 36  1  0  0  0  0
 37 38  1  0  0  0  0
M  END
> <PUBCHEM_COMPOUND_ID_TYPE>
0

> <PUBCHEM_TOTAL_CHARGE>
0

> <PUBCHEM_SUBSTANCE_ID>
310939668

> <PUBCHEM_SUBSTANCE_VERSION>
1

> <PUBCHEM_EXT_DATASOURCE_NAME>
4488

> <PUBCHEM_EXT_DATASOURCE_REGID>
SCHEMBL16117598

> <PUBCHEM_SUBSTANCE_COMMENT>
InChI=1S/C28H34F2N6O3/c1-28(29,30)24-10-9-20(16-33-24)23-15-25(32-11-5-13-36-12-4-8-26(36)38)35-27(34-23)19-6-3-7-22(14-19)39-18-21(37)17-31-2/h3,6-7,9-10,14-16,21,31,37H,4-5,8,11-13,17-18H2,1-2H3,(H,32,34,35)
InChIKey=FPOQBGOTVJWMNS-UHFFFAOYSA-N

> <PUBCHEM_SUBSTANCE_SYNONYM>
SCHEMBL16117598

> <PUBCHEM_XREF_EXT_ID>
SCHEMBL16117598

> <PUBCHEM_EXT_DATASOURCE_URL>
https://www.surechembl.org/

> <PUBCHEM_EXT_SUBSTANCE_URL>
https://www.surechembl.org/chemical/SCHEMBL16117598

> <PUBCHEM_CID_ASSOCIATIONS>
117606901  1

> <PUBCHEM_COORDINATE_TYPE>
1
3

$$$$
