310945859
  -OEChem-07211613022D

 35 37  0     1  0  0  0  0  0999 V2000
    3.9975    0.6721    0.0000 O   0  0  0  0  0  0  0  0  0  0  0  0
    2.8614   -1.2955    0.0000 O   0  0  0  0  0  0  0  0  0  0  0  0
    0.6997    0.7829    0.0000 O   0  0  0  0  0  0  0  0  0  0  0  0
   -1.4618   -1.2955    0.0000 O   0  0  0  0  0  0  0  0  0  0  0  0
    2.8614   -2.9444    0.0000 O   0  0  0  0  0  0  0  0  0  0  0  0
   -3.6234    0.7829    0.0000 O   0  0  0  0  0  0  0  0  0  0  0  0
    1.4341   -0.4504    0.0000 N   0  0  0  0  0  0  0  0  0  0  0  0
   -0.7413   -0.0346    0.0000 N   0  0  0  0  0  0  0  0  0  0  0  0
   -2.9029   -0.4504    0.0000 N   0  0  0  0  0  0  0  0  0  0  0  0
    3.5819   -0.0208    0.0000 C   0  0  3  0  0  0  0  0  0  0  0  0
    2.8752   -0.4226    0.0000 C   0  0  0  0  0  0  0  0  0  0  0  0
    3.1939    0.6859    0.0000 C   0  0  0  0  0  0  0  0  0  0  0  0
    2.1408   -0.0208    0.0000 C   0  0  3  0  0  0  0  0  0  0  0  0
    4.3301   -0.4365    0.0000 C   0  0  0  0  0  0  0  0  0  0  0  0
    2.1547    1.2955    0.0000 C   0  0  0  0  0  0  0  0  0  0  0  0
    0.6997   -0.0485    0.0000 C   0  0  0  0  0  0  0  0  0  0  0  0
   -0.0069   -0.4504    0.0000 C   0  0  3  0  0  0  0  0  0  0  0  0
    1.4203    1.7251    0.0000 C   0  0  0  0  0  0  0  0  0  0  0  0
   -0.0069   -1.2679    0.0000 C   0  0  0  0  0  0  0  0  0  0  0  0
    0.7136   -1.6974    0.0000 C   0  0  0  0  0  0  0  0  0  0  0  0
    1.4203    2.5426    0.0000 C   0  0  0  0  0  0  0  0  0  0  0  0
    0.6997    1.3094    0.0000 C   0  0  0  0  0  0  0  0  0  0  0  0
   -1.4480   -0.4226    0.0000 C   0  0  0  0  0  0  0  0  0  0  0  0
    0.7136   -2.5149    0.0000 C   0  0  0  0  0  0  0  0  0  0  0  0
    1.4064   -1.2955    0.0000 C   0  0  0  0  0  0  0  0  0  0  0  0
    2.1408   -2.5010    0.0000 C   0  0  0  0  0  0  0  0  0  0  0  0
    0.6997    2.9444    0.0000 C   0  0  0  0  0  0  0  0  0  0  0  0
   -0.0069    1.7113    0.0000 C   0  0  0  0  0  0  0  0  0  0  0  0
    1.4480   -2.9306    0.0000 C   0  0  0  0  0  0  0  0  0  0  0  0
    2.1408   -1.6974    0.0000 C   0  0  0  0  0  0  0  0  0  0  0  0
   -0.0069    2.5426    0.0000 C   0  0  0  0  0  0  0  0  0  0  0  0
   -2.1962   -0.0346    0.0000 C   0  0  0  0  0  0  0  0  0  0  0  0
   -3.6234   -0.0485    0.0000 C   0  0  0  0  0  0  0  0  0  0  0  0
    3.6096   -2.5149    0.0000 C   0  0  0  0  0  0  0  0  0  0  0  0
   -4.3301   -0.4642    0.0000 C   0  0  0  0  0  0  0  0  0  0  0  0
  1 10  1  0  0  0  0
  1 12  1  0  0  0  0
  2 11  2  0  0  0  0
  3 16  2  0  0  0  0
  4 23  2  0  0  0  0
  5 26  1  0  0  0  0
  5 34  1  0  0  0  0
  6 33  2  0  0  0  0
  7 13  1  0  0  0  0
  7 16  1  0  0  0  0
  8 17  1  0  0  0  0
  8 23  1  0  0  0  0
  9 32  1  0  0  0  0
  9 33  1  0  0  0  0
 10 11  1  0  0  0  0
 10 12  1  0  0  0  0
 10 14  1  0  0  0  0
 11 13  1  0  0  0  0
 13 15  1  0  0  0  0
 15 18  1  0  0  0  0
 16 17  1  0  0  0  0
 17 19  1  0  0  0  0
 18 21  2  0  0  0  0
 18 22  1  0  0  0  0
 19 20  1  0  0  0  0
 20 24  2  0  0  0  0
 20 25  1  0  0  0  0
 21 27  1  0  0  0  0
 22 28  2  0  0  0  0
 23 32  1  0  0  0  0
 24 29  1  0  0  0  0
 25 30  2  0  0  0  0
 26 29  2  0  0  0  0
 26 30  1  0  0  0  0
 27 31  2  0  0  0  0
 28 31  1  0  0  0  0
 33 35  1  0  0  0  0
M  END
> <PUBCHEM_COMPOUND_ID_TYPE>
0

> <PUBCHEM_TOTAL_CHARGE>
0

> <PUBCHEM_SUBSTANCE_ID>
310945859

> <PUBCHEM_SUBSTANCE_VERSION>
1

> <PUBCHEM_EXT_DATASOURCE_NAME>
4488

> <PUBCHEM_EXT_DATASOURCE_REGID>
SCHEMBL16123964

> <PUBCHEM_SUBSTANCE_COMMENT>
InChI=1S/C26H31N3O6/c1-17(30)27-15-23(31)28-22(14-19-9-11-20(34-3)12-10-19)25(33)29-21(24(32)26(2)16-35-26)13-18-7-5-4-6-8-18/h4-12,21-22H,13-16H2,1-3H3,(H,27,30)(H,28,31)(H,29,33)
InChIKey=AOBOVBKKKYVFPV-UHFFFAOYSA-N

> <PUBCHEM_SUBSTANCE_SYNONYM>
SCHEMBL16123964

> <PUBCHEM_XREF_EXT_ID>
SCHEMBL16123964

> <PUBCHEM_EXT_DATASOURCE_URL>
https://www.surechembl.org/

> <PUBCHEM_EXT_SUBSTANCE_URL>
https://www.surechembl.org/chemical/SCHEMBL16123964

> <PUBCHEM_CID_ASSOCIATIONS>
117611843  1

> <PUBCHEM_COORDINATE_TYPE>
1
3

$$$$
