310939609
  -OEChem-07211613022D

 35 37  0     1  0  0  0  0  0999 V2000
    1.4389   -2.6812    0.0000 S   0  0  0  0  0  0  0  0  0  0  0  0
   -2.1434    1.8562    0.0000 O   0  0  0  0  0  0  0  0  0  0  0  0
    2.2639   -2.6802    0.0000 O   0  0  0  0  0  0  0  0  0  0  0  0
    0.6139   -2.6823    0.0000 O   0  0  0  0  0  0  0  0  0  0  0  0
   -3.5724    1.0312    0.0000 O   0  0  0  0  0  0  0  0  0  0  0  0
    0.7145    1.0312    0.0000 N   0  0  0  0  0  0  0  0  0  0  0  0
    1.4289    2.2687    0.0000 N   0  0  0  0  0  0  0  0  0  0  0  0
    2.8579    2.2687    0.0000 N   0  0  0  0  0  0  0  0  0  0  0  0
    5.7158    1.4437    0.0000 N   0  0  0  0  0  0  0  0  0  0  0  0
   -5.0013    1.8562    0.0000 N   0  0  0  0  0  0  0  0  0  0  0  0
    1.4289    0.6187    0.0000 C   0  0  0  0  0  0  0  0  0  0  0  0
    0.7145    1.8562    0.0000 C   0  0  0  0  0  0  0  0  0  0  0  0
    1.4289   -0.2063    0.0000 C   0  0  0  0  0  0  0  0  0  0  0  0
    2.1434    1.8562    0.0000 C   0  0  0  0  0  0  0  0  0  0  0  0
    0.0000    2.2687    0.0000 C   0  0  0  0  0  0  0  0  0  0  0  0
    2.1434    1.0312    0.0000 C   0  0  0  0  0  0  0  0  0  0  0  0
    1.4369   -1.8563    0.0000 C   0  0  0  0  0  0  0  0  0  0  0  0
    0.7224   -0.6188    0.0000 C   0  0  0  0  0  0  0  0  0  0  0  0
    2.1434   -0.6188    0.0000 C   0  0  0  0  0  0  0  0  0  0  0  0
   -0.7145    1.8562    0.0000 C   0  0  0  0  0  0  0  0  0  0  0  0
    0.7224   -1.4438    0.0000 C   0  0  0  0  0  0  0  0  0  0  0  0
    2.1434   -1.4438    0.0000 C   0  0  0  0  0  0  0  0  0  0  0  0
    0.0000    3.0937    0.0000 C   0  0  0  0  0  0  0  0  0  0  0  0
   -1.4289    2.2687    0.0000 C   0  0  0  0  0  0  0  0  0  0  0  0
   -0.7145    3.5062    0.0000 C   0  0  0  0  0  0  0  0  0  0  0  0
   -1.4289    3.0937    0.0000 C   0  0  0  0  0  0  0  0  0  0  0  0
    3.5724    1.8562    0.0000 C   0  0  0  0  0  0  0  0  0  0  0  0
    2.8579    3.0937    0.0000 C   0  0  0  0  0  0  0  0  0  0  0  0
    1.4389   -3.5062    0.0000 C   0  0  0  0  0  0  0  0  0  0  0  0
    4.2868    2.2687    0.0000 C   0  0  0  0  0  0  0  0  0  0  0  0
   -2.8579    2.2687    0.0000 C   0  0  0  0  0  0  0  0  0  0  0  0
   -3.5724    1.8562    0.0000 C   0  0  3  0  0  0  0  0  0  0  0  0
    5.0013    1.8562    0.0000 C   0  0  0  0  0  0  0  0  0  0  0  0
   -4.2868    2.2687    0.0000 C   0  0  0  0  0  0  0  0  0  0  0  0
   -5.7158    2.2687    0.0000 C   0  0  0  0  0  0  0  0  0  0  0  0
  1  3  2  0  0  0  0
  1  4  2  0  0  0  0
  1 17  1  0  0  0  0
  1 29  1  0  0  0  0
  2 24  1  0  0  0  0
  2 31  1  0  0  0  0
  5 32  1  0  0  0  0
  6 11  1  0  0  0  0
  6 12  2  0  0  0  0
  7 12  1  0  0  0  0
  7 14  2  0  0  0  0
  8 14  1  0  0  0  0
  8 27  1  0  0  0  0
  8 28  1  0  0  0  0
  9 33  3  0  0  0  0
 10 34  1  0  0  0  0
 10 35  1  0  0  0  0
 11 13  1  0  0  0  0
 11 16  2  0  0  0  0
 12 15  1  0  0  0  0
 13 18  2  0  0  0  0
 13 19  1  0  0  0  0
 14 16  1  0  0  0  0
 15 20  2  0  0  0  0
 15 23  1  0  0  0  0
 17 21  2  0  0  0  0
 17 22  1  0  0  0  0
 18 21  1  0  0  0  0
 19 22  2  0  0  0  0
 20 24  1  0  0  0  0
 23 25  2  0  0  0  0
 24 26  2  0  0  0  0
 25 26  1  0  0  0  0
 27 30  1  0  0  0  0
 30 33  1  0  0  0  0
 31 32  1  0  0  0  0
 32 34  1  0  0  0  0
M  END
> <PUBCHEM_COMPOUND_ID_TYPE>
0

> <PUBCHEM_TOTAL_CHARGE>
0

> <PUBCHEM_SUBSTANCE_ID>
310939609

> <PUBCHEM_SUBSTANCE_VERSION>
1

> <PUBCHEM_EXT_DATASOURCE_NAME>
4488

> <PUBCHEM_EXT_DATASOURCE_REGID>
SCHEMBL16117539

> <PUBCHEM_SUBSTANCE_COMMENT>
InChI=1S/C25H29N5O4S/c1-27-16-20(31)17-34-21-7-4-6-19(14-21)25-28-23(15-24(29-25)30(2)13-5-12-26)18-8-10-22(11-9-18)35(3,32)33/h4,6-11,14-15,20,27,31H,5,13,16-17H2,1-3H3
InChIKey=PTDWHYGSMPCSKI-UHFFFAOYSA-N

> <PUBCHEM_SUBSTANCE_SYNONYM>
SCHEMBL16117539

> <PUBCHEM_XREF_EXT_ID>
SCHEMBL16117539

> <PUBCHEM_EXT_DATASOURCE_URL>
https://www.surechembl.org/

> <PUBCHEM_EXT_SUBSTANCE_URL>
https://www.surechembl.org/chemical/SCHEMBL16117539

> <PUBCHEM_CID_ASSOCIATIONS>
85472683  1

> <PUBCHEM_COORDINATE_TYPE>
1
3

$$$$
