310946484
  -OEChem-07211613022D

 16 15  0     1  0  0  0  0  0999 V2000
    5.1212    4.8367    0.0000 O   0  0  0  0  0  0  0  0  0  0  0  0
    3.6923    4.8367    0.0000 O   0  0  0  0  0  0  0  0  0  0  0  0
    3.6923    1.5367    0.0000 O   0  0  0  0  0  0  0  0  0  0  0  0
    2.9778    2.7742    0.0000 O   0  0  0  0  0  0  0  0  0  0  0  0
    4.4067    3.5992    0.0000 N   0  0  0  0  0  0  0  0  0  0  0  0
    4.4067    2.7742    0.0000 C   0  0  3  0  0  0  0  0  0  0  0  0
    4.4067    4.4242    0.0000 C   0  0  0  0  0  0  0  0  0  0  0  0
    3.6923    2.3617    0.0000 C   0  0  0  0  0  0  0  0  0  0  0  0
    5.3347    5.6336    0.0000 C   0  0  0  0  0  0  0  0  0  0  0  0
    5.1212    2.3617    0.0000 C   0  0  0  0  0  0  0  0  0  0  0  0
    6.1316    5.8472    0.0000 C   0  0  0  0  0  0  0  0  0  0  0  0
    6.3451    6.6441    0.0000 C   0  0  0  0  0  0  0  0  0  0  0  0
    7.1420    6.8576    0.0000 C   0  0  0  0  0  0  0  0  0  0  0  0
    7.3556    7.6545    0.0000 C   0  0  0  0  0  0  0  0  0  0  0  0
    8.1524    7.8680    0.0000 C   0  0  0  0  0  0  0  0  0  0  0  0
    8.3660    8.6649    0.0000 C   0  0  0  0  0  0  0  0  0  0  0  0
  1  7  1  0  0  0  0
  1  9  1  0  0  0  0
  2  7  2  0  0  0  0
  3  8  2  0  0  0  0
  4  8  1  0  0  0  0
  5  6  1  0  0  0  0
  5  7  1  0  0  0  0
  6  8  1  0  0  0  0
  6 10  1  0  0  0  0
  9 11  1  0  0  0  0
 11 12  1  0  0  0  0
 12 13  1  0  0  0  0
 13 14  1  0  0  0  0
 14 15  1  0  0  0  0
 15 16  1  0  0  0  0
M  END
> <PUBCHEM_COMPOUND_ID_TYPE>
0

> <PUBCHEM_TOTAL_CHARGE>
0

> <PUBCHEM_SUBSTANCE_ID>
310946484

> <PUBCHEM_SUBSTANCE_VERSION>
1

> <PUBCHEM_EXT_DATASOURCE_NAME>
4488

> <PUBCHEM_EXT_DATASOURCE_REGID>
SCHEMBL16124605

> <PUBCHEM_SUBSTANCE_COMMENT>
InChI=1S/C11H21NO4/c1-3-4-5-6-7-8-16-11(15)12-9(2)10(13)14/h9H,3-8H2,1-2H3,(H,12,15)(H,13,14)
InChIKey=KOSGXLKBZVXADJ-UHFFFAOYSA-N

> <PUBCHEM_SUBSTANCE_SYNONYM>
SCHEMBL16124605

> <PUBCHEM_XREF_EXT_ID>
SCHEMBL16124605

> <PUBCHEM_EXT_DATASOURCE_URL>
https://www.surechembl.org/

> <PUBCHEM_EXT_SUBSTANCE_URL>
https://www.surechembl.org/chemical/SCHEMBL16124605

> <PUBCHEM_CID_ASSOCIATIONS>
117612391  1

> <PUBCHEM_COORDINATE_TYPE>
1
3

$$$$
