310945047
  -OEChem-07211613022D

 34 38  0     1  0  0  0  0  0999 V2000
    3.5612    2.6120    0.0000 O   0  0  0  0  0  0  0  0  0  0  0  0
   -2.1893   -2.5981    0.0000 O   0  0  0  0  0  0  0  0  0  0  0  0
   -4.2817   -0.4642    0.0000 O   0  0  0  0  0  0  0  0  0  0  0  0
    2.0369    0.3118    0.0000 N   0  0  0  0  0  0  0  0  0  0  0  0
    4.2817    1.3787    0.0000 N   0  0  0  0  0  0  0  0  0  0  0  0
    4.2817   -1.0878    0.0000 N   0  0  0  0  0  0  0  0  0  0  0  0
   -0.9423    0.9769    0.0000 N   0  0  0  0  0  0  0  0  0  0  0  0
   -3.0346   -1.1571    0.0000 N   0  0  0  0  0  0  0  0  0  0  0  0
    3.5612    0.1455    0.0000 C   0  0  3  0  0  0  0  0  0  0  0  0
    2.8129    0.5612    0.0000 C   0  0  0  0  0  0  0  0  0  0  0  0
    2.8407    1.3787    0.0000 C   0  0  0  0  0  0  0  0  0  0  0  0
    1.5519    0.9631    0.0000 C   0  0  0  0  0  0  0  0  0  0  0  0
    2.0369    1.6282    0.0000 C   0  0  0  0  0  0  0  0  0  0  0  0
    3.5473    1.7806    0.0000 C   0  0  0  0  0  0  0  0  0  0  0  0
    4.2679    0.5612    0.0000 C   0  0  0  0  0  0  0  0  0  0  0  0
    0.7205    0.9769    0.0000 C   0  0  0  0  0  0  0  0  0  0  0  0
    4.2817   -0.2702    0.0000 C   0  0  0  0  0  0  0  0  0  0  0  0
    2.8407   -0.2564    0.0000 C   0  0  0  0  0  0  0  0  0  0  0  0
    0.3049    0.2564    0.0000 C   0  0  0  0  0  0  0  0  0  0  0  0
   -0.5265    0.2702    0.0000 C   0  0  0  0  0  0  0  0  0  0  0  0
    2.8407   -1.0878    0.0000 C   0  0  0  0  0  0  0  0  0  0  0  0
    0.3049    1.6836    0.0000 C   0  0  0  0  0  0  0  0  0  0  0  0
   -0.9561   -0.4642    0.0000 C   0  0  0  0  0  0  0  0  0  0  0  0
    3.5612   -1.4896    0.0000 C   0  0  0  0  0  0  0  0  0  0  0  0
   -0.5265    1.6836    0.0000 C   0  0  0  0  0  0  0  0  0  0  0  0
   -1.7737   -0.4642    0.0000 C   0  0  0  0  0  0  0  0  0  0  0  0
   -2.1893   -1.1571    0.0000 C   0  0  0  0  0  0  0  0  0  0  0  0
   -0.5404   -1.1571    0.0000 C   0  0  0  0  0  0  0  0  0  0  0  0
   -1.7737   -1.8638    0.0000 C   0  0  0  0  0  0  0  0  0  0  0  0
   -0.9423   -1.8638    0.0000 C   0  0  0  0  0  0  0  0  0  0  0  0
   -3.4226   -0.4642    0.0000 C   0  0  0  0  0  0  0  0  0  0  0  0
   -3.0346    0.2702    0.0000 C   0  0  0  0  0  0  0  0  0  0  0  0
   -3.0346   -2.6120    0.0000 C   0  0  0  0  0  0  0  0  0  0  0  0
   -3.5196    0.9353    0.0000 C   0  0  0  0  0  0  0  0  0  0  0  0
  1 14  2  0  0  0  0
  2 29  1  0  0  0  0
  2 33  1  0  0  0  0
  3 31  2  0  0  0  0
  4 10  1  0  0  0  0
  4 12  1  0  0  0  0
  5 14  1  0  0  0  0
  5 15  1  0  0  0  0
  6 17  1  0  0  0  0
  6 24  1  0  0  0  0
  7 20  1  0  0  0  0
  7 25  2  0  0  0  0
  8 27  1  0  0  0  0
  8 31  1  0  0  0  0
  9 10  1  0  0  0  0
  9 15  1  0  0  0  0
  9 17  1  0  0  0  0
  9 18  1  0  0  0  0
 10 11  2  0  0  0  0
 11 13  1  0  0  0  0
 11 14  1  0  0  0  0
 12 13  2  0  0  0  0
 12 16  1  0  0  0  0
 16 19  1  0  0  0  0
 16 22  2  0  0  0  0
 18 21  1  0  0  0  0
 19 20  2  0  0  0  0
 20 23  1  0  0  0  0
 21 24  1  0  0  0  0
 22 25  1  0  0  0  0
 23 26  2  0  0  0  0
 23 28  1  0  0  0  0
 26 27  1  0  0  0  0
 27 29  2  0  0  0  0
 28 30  2  0  0  0  0
 29 30  1  0  0  0  0
 31 32  1  0  0  0  0
 32 34  2  0  0  0  0
M  END
> <PUBCHEM_COMPOUND_ID_TYPE>
0

> <PUBCHEM_TOTAL_CHARGE>
0

> <PUBCHEM_SUBSTANCE_ID>
310945047

> <PUBCHEM_SUBSTANCE_VERSION>
1

> <PUBCHEM_EXT_DATASOURCE_NAME>
4488

> <PUBCHEM_EXT_DATASOURCE_REGID>
SCHEMBL16123135

> <PUBCHEM_SUBSTANCE_COMMENT>
InChI=1S/C26H27N5O3/c1-3-23(32)30-21-12-16(5-6-22(21)34-2)19-11-17(7-10-28-19)20-13-18-24(31-20)26(15-29-25(18)33)8-4-9-27-14-26/h3,5-7,10-13,27,31H,1,4,8-9,14-15H2,2H3,(H,29,33)(H,30,32)
InChIKey=HZMQNWXXAIOJEY-UHFFFAOYSA-N

> <PUBCHEM_SUBSTANCE_SYNONYM>
SCHEMBL16123135

> <PUBCHEM_XREF_EXT_ID>
SCHEMBL16123135

> <PUBCHEM_EXT_DATASOURCE_URL>
https://www.surechembl.org/

> <PUBCHEM_EXT_SUBSTANCE_URL>
https://www.surechembl.org/chemical/SCHEMBL16123135

> <PUBCHEM_CID_ASSOCIATIONS>
86302143  1

> <PUBCHEM_COORDINATE_TYPE>
1
3

$$$$
