310941799
  -OEChem-07211613022D

 28 32  0     1  0  0  0  0  0999 V2000
    2.5027   -0.8800    0.0000 S   0  0  0  0  0  0  0  0  0  0  0  0
   -0.9901    0.9213    0.0000 O   0  0  0  0  0  0  0  0  0  0  0  0
    2.5164   -0.0550    0.0000 O   0  0  0  0  0  0  0  0  0  0  0  0
    1.9252   -0.2888    0.0000 O   0  0  0  0  0  0  0  0  0  0  0  0
    0.7700   -0.8251    0.0000 N   0  0  0  0  0  0  0  0  0  0  0  0
   -0.0688   -1.8426    0.0000 N   0  0  0  0  0  0  0  0  0  0  0  0
    0.7013   -2.1451    0.0000 N   0  0  0  0  0  0  0  0  0  0  0  0
    2.0489   -1.5539    0.0000 N   0  0  0  0  0  0  0  0  0  0  0  0
   -2.6402    1.1001    0.0000 C   0  0  3  0  0  0  0  0  0  0  0  0
   -2.4201    0.2888    0.0000 C   0  0  0  0  0  0  0  0  0  0  0  0
   -1.8013    0.7150    0.0000 C   0  0  3  0  0  0  0  0  0  0  0  0
   -2.6264   -0.4538    0.0000 C   0  0  3  0  0  0  0  0  0  0  0  0
   -1.8013   -0.1100    0.0000 C   0  0  0  0  0  0  0  0  0  0  0  0
   -3.3552    0.7013    0.0000 C   0  0  0  0  0  0  0  0  0  0  0  0
   -0.3851    0.3575    0.0000 C   0  0  0  0  0  0  0  0  0  0  0  0
   -3.3552   -0.1100    0.0000 C   0  0  0  0  0  0  0  0  0  0  0  0
    0.3713    0.5638    0.0000 C   0  0  0  0  0  0  0  0  0  0  0  0
   -0.0275   -1.0313    0.0000 C   0  0  0  0  0  0  0  0  0  0  0  0
   -2.6677    1.9252    0.0000 C   0  0  0  0  0  0  0  0  0  0  0  0
    0.6188    1.3751    0.0000 C   0  0  0  0  0  0  0  0  0  0  0  0
   -0.6050   -0.4538    0.0000 C   0  0  0  0  0  0  0  0  0  0  0  0
    0.9763   -0.0138    0.0000 C   0  0  0  0  0  0  0  0  0  0  0  0
    1.2101   -1.4851    0.0000 C   0  0  0  0  0  0  0  0  0  0  0  0
   -1.9939    1.0313    0.0000 C   0  0  0  0  0  0  0  0  0  0  0  0
   -1.9939   -0.3851    0.0000 C   0  0  0  0  0  0  0  0  0  0  0  0
    0.4125    2.1451    0.0000 C   0  0  0  0  0  0  0  0  0  0  0  0
    1.1689    1.9389    0.0000 C   0  0  0  0  0  0  0  0  0  0  0  0
    3.3552   -0.9488    0.0000 C   0  0  0  0  0  0  0  0  0  0  0  0
  1  3  2  0  0  0  0
  1  4  2  0  0  0  0
  1  8  1  0  0  0  0
  1 28  1  0  0  0  0
 11  2  1  6  0  0  0
  2 15  1  0  0  0  0
  5 18  1  0  0  0  0
  5 22  1  0  0  0  0
  5 23  1  0  0  0  0
  6  7  1  0  0  0  0
  6 18  2  0  0  0  0
  7 23  2  0  0  0  0
  8 23  1  0  0  0  0
  9 10  1  0  0  0  0
  9 11  1  0  0  0  0
  9 14  1  0  0  0  0
  9 19  1  6  0  0  0
 10 12  1  0  0  0  0
 10 24  1  0  0  0  0
 10 25  1  0  0  0  0
 11 13  1  0  0  0  0
 12 13  1  0  0  0  0
 12 16  1  0  0  0  0
 14 16  1  0  0  0  0
 15 17  1  0  0  0  0
 15 21  2  0  0  0  0
 17 20  1  0  0  0  0
 17 22  2  0  0  0  0
 18 21  1  0  0  0  0
 20 26  1  0  0  0  0
 20 27  1  0  0  0  0
 26 27  1  0  0  0  0
M  END
> <PUBCHEM_COMPOUND_ID_TYPE>
0

> <PUBCHEM_TOTAL_CHARGE>
0

> <PUBCHEM_SUBSTANCE_ID>
310941799

> <PUBCHEM_SUBSTANCE_VERSION>
1

> <PUBCHEM_EXT_DATASOURCE_NAME>
4488

> <PUBCHEM_EXT_DATASOURCE_REGID>
SCHEMBL16119830

> <PUBCHEM_SUBSTANCE_COMMENT>
InChI=1S/C20H28N4O3S/c1-19(2)13-7-8-20(19,3)16(9-13)27-15-10-17-21-22-18(23-28(4,25)26)24(17)11-14(15)12-5-6-12/h10-13,16H,5-9H2,1-4H3,(H,22,23)/t13?,16-,20+/m1/s1
InChIKey=PHJOUVCCFKTFRF-YVNXAJFVSA-N

> <PUBCHEM_SUBSTANCE_SYNONYM>
SCHEMBL16119830

> <PUBCHEM_XREF_EXT_ID>
SCHEMBL16119830

> <PUBCHEM_EXT_DATASOURCE_URL>
https://www.surechembl.org/

> <PUBCHEM_EXT_SUBSTANCE_URL>
https://www.surechembl.org/chemical/SCHEMBL16119830

> <PUBCHEM_CID_ASSOCIATIONS>
117608548  1

> <PUBCHEM_COORDINATE_TYPE>
1
3

> <PUBCHEM_BONDANNOTATIONS>
11  2  6
9  19  6

$$$$
