310931538
  -OEChem-07211613022D

 56 63  0     1  0  0  0  0  0999 V2000
    4.3243    1.7463    0.0000 F   0  0  0  0  0  0  0  0  0  0  0  0
    5.3849    1.7463    0.0000 F   0  0  0  0  0  0  0  0  0  0  0  0
    4.4673   -1.2641    0.0000 F   0  0  0  0  0  0  0  0  0  0  0  0
    5.2419   -1.2641    0.0000 F   0  0  0  0  0  0  0  0  0  0  0  0
    3.6526    2.3544    0.0000 F   0  0  0  0  0  0  0  0  0  0  0  0
    2.2936    1.9129    0.0000 F   0  0  0  0  0  0  0  0  0  0  0  0
    1.5709   -5.8705    0.0000 F   0  0  0  0  0  0  0  0  0  0  0  0
    3.6947   -3.9582    0.0000 F   0  0  0  0  0  0  0  0  0  0  0  0
    1.7415   -0.7212    0.0000 O   0  0  0  0  0  0  0  0  0  0  0  0
   -2.9123   -3.5127    0.0000 O   0  0  0  0  0  0  0  0  0  0  0  0
   -0.8926    2.7034    0.0000 O   0  0  0  0  0  0  0  0  0  0  0  0
    3.3555   -0.3782    0.0000 N   0  0  0  0  0  0  0  0  0  0  0  0
    2.8706    0.2893    0.0000 N   0  0  0  0  0  0  0  0  0  0  0  0
    2.0386   -2.1189    0.0000 N   0  0  0  0  0  0  0  0  0  0  0  0
    0.9346   -0.8927    0.0000 N   0  0  0  0  0  0  0  0  0  0  0  0
   -2.1116   -4.7457    0.0000 N   0  0  0  0  0  0  0  0  0  0  0  0
    0.4799    3.2303    0.0000 N   0  0  0  0  0  0  0  0  0  0  0  0
    4.1401    0.7018    0.0000 C   0  0  0  0  0  0  0  0  0  0  0  0
    4.1401   -0.1232    0.0000 C   0  0  0  0  0  0  0  0  0  0  0  0
    4.8546    1.1143    0.0000 C   0  0  0  0  0  0  0  0  0  0  0  0
    4.8546   -0.5357    0.0000 C   0  0  0  0  0  0  0  0  0  0  0  0
    3.3555    0.9567    0.0000 C   0  0  0  0  0  0  0  0  0  0  0  0
    5.5691    0.7018    0.0000 C   0  0  0  0  0  0  0  0  0  0  0  0
    5.5691   -0.1232    0.0000 C   0  0  0  0  0  0  0  0  0  0  0  0
    3.1006    1.7413    0.0000 C   0  0  0  0  0  0  0  0  0  0  0  0
    3.1006   -1.1628    0.0000 C   0  0  0  0  0  0  0  0  0  0  0  0
    2.2936   -1.3343    0.0000 C   0  0  0  0  0  0  0  0  0  0  0  0
    0.6796   -1.6774    0.0000 C   0  0  0  0  0  0  0  0  0  0  0  0
    1.2317   -2.2904    0.0000 C   0  0  3  0  0  0  0  0  0  0  0  0
   -0.1273   -1.8489    0.0000 C   0  0  0  0  0  0  0  0  0  0  0  0
   -0.3823   -2.6335    0.0000 C   0  0  0  0  0  0  0  0  0  0  0  0
    0.3825   -0.2796    0.0000 C   0  0  0  0  0  0  0  0  0  0  0  0
    0.6375    0.5050    0.0000 C   0  0  0  0  0  0  0  0  0  0  0  0
   -1.4442   -3.5897    0.0000 C   0  0  0  0  0  0  0  0  0  0  0  0
   -0.6794   -1.2358    0.0000 C   0  0  0  0  0  0  0  0  0  0  0  0
   -1.1892   -2.8050    0.0000 C   0  0  0  0  0  0  0  0  0  0  0  0
    0.9767   -3.0751    0.0000 C   0  0  0  0  0  0  0  0  0  0  0  0
   -0.4244   -0.4512    0.0000 C   0  0  0  0  0  0  0  0  0  0  0  0
   -0.8922   -4.2027    0.0000 C   0  0  0  0  0  0  0  0  0  0  0  0
    0.3404    1.9027    0.0000 C   0  0  0  0  0  0  0  0  0  0  0  0
    0.1698   -3.2466    0.0000 C   0  0  0  0  0  0  0  0  0  0  0  0
    0.0854    1.1181    0.0000 C   0  0  0  0  0  0  0  0  0  0  0  0
    1.1474    2.0742    0.0000 C   0  0  0  0  0  0  0  0  0  0  0  0
   -2.1979   -3.9252    0.0000 C   0  0  0  0  0  0  0  0  0  0  0  0
   -0.0852   -4.0312    0.0000 C   0  0  0  0  0  0  0  0  0  0  0  0
    1.5288   -3.6882    0.0000 C   0  0  0  0  0  0  0  0  0  0  0  0
    1.4445    0.6765    0.0000 C   0  0  0  0  0  0  0  0  0  0  0  0
   -0.0721    2.6172    0.0000 C   0  0  0  0  0  0  0  0  0  0  0  0
   -1.3047   -4.9172    0.0000 C   0  0  0  0  0  0  0  0  0  0  0  0
    1.6994    1.4611    0.0000 C   0  0  0  0  0  0  0  0  0  0  0  0
    1.2336    2.8947    0.0000 C   0  0  0  0  0  0  0  0  0  0  0  0
    2.3357   -3.5166    0.0000 C   0  0  0  0  0  0  0  0  0  0  0  0
    1.2738   -4.4728    0.0000 C   0  0  0  0  0  0  0  0  0  0  0  0
    1.8259   -5.0859    0.0000 C   0  0  0  0  0  0  0  0  0  0  0  0
    2.8878   -4.1297    0.0000 C   0  0  0  0  0  0  0  0  0  0  0  0
    2.6328   -4.9144    0.0000 C   0  0  0  0  0  0  0  0  0  0  0  0
  1 20  1  0  0  0  0
  2 20  1  0  0  0  0
  3 21  1  0  0  0  0
  4 21  1  0  0  0  0
  5 25  1  0  0  0  0
  6 25  1  0  0  0  0
  7 54  1  0  0  0  0
  8 55  1  0  0  0  0
  9 27  2  0  0  0  0
 10 44  2  0  0  0  0
 11 48  2  0  0  0  0
 12 13  1  0  0  0  0
 12 19  1  0  0  0  0
 12 26  1  0  0  0  0
 13 22  2  0  0  0  0
 14 27  1  0  0  0  0
 14 29  1  0  0  0  0
 15 28  2  0  0  0  0
 15 32  1  0  0  0  0
 16 44  1  0  0  0  0
 16 49  1  0  0  0  0
 17 48  1  0  0  0  0
 17 51  1  0  0  0  0
 18 19  2  0  0  0  0
 18 20  1  0  0  0  0
 18 22  1  0  0  0  0
 19 21  1  0  0  0  0
 20 23  1  0  0  0  0
 21 24  1  0  0  0  0
 22 25  1  0  0  0  0
 23 24  1  0  0  0  0
 26 27  1  0  0  0  0
 28 29  1  0  0  0  0
 28 30  1  0  0  0  0
 29 37  1  0  0  0  0
 30 31  1  0  0  0  0
 30 35  2  0  0  0  0
 31 36  2  0  0  0  0
 31 41  1  0  0  0  0
 32 33  1  0  0  0  0
 32 38  2  0  0  0  0
 33 42  2  0  0  0  0
 33 47  1  0  0  0  0
 34 36  1  0  0  0  0
 34 39  2  0  0  0  0
 34 44  1  0  0  0  0
 35 38  1  0  0  0  0
 37 46  1  0  0  0  0
 39 45  1  0  0  0  0
 39 49  1  0  0  0  0
 40 42  1  0  0  0  0
 40 43  2  0  0  0  0
 40 48  1  0  0  0  0
 41 45  2  0  0  0  0
 43 50  1  0  0  0  0
 43 51  1  0  0  0  0
 46 52  2  0  0  0  0
 46 53  1  0  0  0  0
 47 50  2  0  0  0  0
 52 55  1  0  0  0  0
 53 54  2  0  0  0  0
 54 56  1  0  0  0  0
 55 56  2  0  0  0  0
M  END
> <PUBCHEM_COMPOUND_ID_TYPE>
0

> <PUBCHEM_TOTAL_CHARGE>
0

> <PUBCHEM_SUBSTANCE_ID>
310931538

> <PUBCHEM_SUBSTANCE_VERSION>
1

> <PUBCHEM_EXT_DATASOURCE_NAME>
4488

> <PUBCHEM_EXT_DATASOURCE_REGID>
SCHEMBL16108864

> <PUBCHEM_SUBSTANCE_COMMENT>
InChI=1S/C39H28F8N6O3/c40-23-9-18(10-24(41)14-23)11-29(50-30(54)17-53-34-31(33(52-53)35(42)43)38(44,45)7-8-39(34,46)47)32-25(19-1-3-21-15-48-36(55)26(21)12-19)5-6-28(51-32)20-2-4-22-16-49-37(56)27(22)13-20/h1-6,9-10,12-14,29,35H,7-8,11,15-17H2,(H,48,55)(H,49,56)(H,50,54)
InChIKey=KITFLSAFWYUKMD-UHFFFAOYSA-N

> <PUBCHEM_SUBSTANCE_SYNONYM>
SCHEMBL16108864

> <PUBCHEM_XREF_EXT_ID>
SCHEMBL16108864

> <PUBCHEM_EXT_DATASOURCE_URL>
https://www.surechembl.org/

> <PUBCHEM_EXT_SUBSTANCE_URL>
https://www.surechembl.org/chemical/SCHEMBL16108864

> <PUBCHEM_CID_ASSOCIATIONS>
117600291  1

> <PUBCHEM_COORDINATE_TYPE>
1
3

$$$$
