310949364
  -OEChem-07211613022D

 27 28  0     1  0  0  0  0  0999 V2000
   -2.1598   -0.6827    0.0000 F   0  0  0  0  0  0  0  0  0  0  0  0
   -0.0249    2.4576    0.0000 F   0  0  0  0  0  0  0  0  0  0  0  0
    0.7696    2.2342    0.0000 F   0  0  0  0  0  0  0  0  0  0  0  0
    0.9806    1.4398    0.0000 F   0  0  0  0  0  0  0  0  0  0  0  0
   -2.5941    0.9061    0.0000 O   0  0  0  0  0  0  0  0  0  0  0  0
    0.2359   -2.1970    0.0000 N   0  0  0  0  0  0  0  0  0  0  0  0
   -0.5462   -2.4576    0.0000 N   0  0  0  0  0  0  0  0  0  0  0  0
    1.6756   -1.3654    0.0000 N   0  0  3  0  0  0  0  0  0  0  0  0
    3.8106   -0.9557    0.0000 N   0  0  0  0  0  0  0  0  0  0  0  0
   -0.7696   -0.3103    0.0000 C   0  0  0  0  0  0  0  0  0  0  0  0
   -0.5586   -1.1046    0.0000 C   0  0  0  0  0  0  0  0  0  0  0  0
   -1.5639   -0.0869    0.0000 C   0  0  0  0  0  0  0  0  0  0  0  0
   -0.3972    1.0674    0.0000 C   0  0  0  0  0  0  0  0  0  0  0  0
   -1.7749    0.7075    0.0000 C   0  0  0  0  0  0  0  0  0  0  0  0
   -0.1862    0.2731    0.0000 C   0  0  0  0  0  0  0  0  0  0  0  0
    0.2359   -1.3654    0.0000 C   0  0  0  0  0  0  0  0  0  0  0  0
    0.1986    1.6632    0.0000 C   0  0  0  0  0  0  0  0  0  0  0  0
   -1.1916    1.2784    0.0000 C   0  0  0  0  0  0  0  0  0  0  0  0
   -1.0426   -1.7874    0.0000 C   0  0  0  0  0  0  0  0  0  0  0  0
    0.9433   -0.9557    0.0000 C   0  0  0  0  0  0  0  0  0  0  0  0
   -3.1651    0.3351    0.0000 C   0  0  0  0  0  0  0  0  0  0  0  0
    2.3831   -0.9557    0.0000 C   0  0  0  0  0  0  0  0  0  0  0  0
    1.6756   -2.1970    0.0000 C   0  0  0  0  0  0  0  0  0  0  0  0
   -3.9472    0.5462    0.0000 C   0  0  0  0  0  0  0  0  0  0  0  0
    3.1155   -1.3654    0.0000 C   0  0  0  0  0  0  0  0  0  0  0  0
   -4.5304   -0.0496    0.0000 C   0  0  0  0  0  0  0  0  0  0  0  0
    4.5304   -1.3777    0.0000 C   0  0  0  0  0  0  0  0  0  0  0  0
  1 12  1  0  0  0  0
  2 17  1  0  0  0  0
  3 17  1  0  0  0  0
  4 17  1  0  0  0  0
  5 14  1  0  0  0  0
  5 21  1  0  0  0  0
  6  7  1  0  0  0  0
  6 16  2  0  0  0  0
  7 19  1  0  0  0  0
  8 20  1  0  0  0  0
  8 22  1  0  0  0  0
  8 23  1  0  0  0  0
  9 25  1  0  0  0  0
  9 27  1  0  0  0  0
 10 11  1  0  0  0  0
 10 12  2  0  0  0  0
 10 15  1  0  0  0  0
 11 16  1  0  0  0  0
 11 19  2  0  0  0  0
 12 14  1  0  0  0  0
 13 15  2  0  0  0  0
 13 17  1  0  0  0  0
 13 18  1  0  0  0  0
 14 18  2  0  0  0  0
 16 20  1  0  0  0  0
 21 24  1  0  0  0  0
 22 25  1  0  0  0  0
 24 26  1  0  0  0  0
M  END
> <PUBCHEM_COMPOUND_ID_TYPE>
0

> <PUBCHEM_TOTAL_CHARGE>
0

> <PUBCHEM_SUBSTANCE_ID>
310949364

> <PUBCHEM_SUBSTANCE_VERSION>
1

> <PUBCHEM_EXT_DATASOURCE_NAME>
4488

> <PUBCHEM_EXT_DATASOURCE_REGID>
SCHEMBL16127556

> <PUBCHEM_SUBSTANCE_COMMENT>
InChI=1S/C18H24F4N4O/c1-4-7-27-16-9-12(18(20,21)22)8-13(17(16)19)14-10-24-25-15(14)11-26(3)6-5-23-2/h8-10,23H,4-7,11H2,1-3H3,(H,24,25)
InChIKey=UQFXOXIGHONYTP-UHFFFAOYSA-N

> <PUBCHEM_SUBSTANCE_SYNONYM>
SCHEMBL16127556

> <PUBCHEM_XREF_EXT_ID>
SCHEMBL16127556

> <PUBCHEM_EXT_DATASOURCE_URL>
https://www.surechembl.org/

> <PUBCHEM_EXT_SUBSTANCE_URL>
https://www.surechembl.org/chemical/SCHEMBL16127556

> <PUBCHEM_CID_ASSOCIATIONS>
85473272  1

> <PUBCHEM_COORDINATE_TYPE>
1
3

$$$$
