310931823
  -OEChem-07211613022D

 27 28  0     1  0  0  0  0  0999 V2000
    1.4234   -0.7117    0.0000 S   0  0  0  0  0  0  0  0  0  0  0  0
    2.7977   -4.0002    0.0000 S   0  0  0  0  0  0  0  0  0  0  0  0
    0.0000   -0.7362    0.0000 F   0  0  0  0  0  0  0  0  0  0  0  0
    0.7362   -1.9633    0.0000 F   0  0  0  0  0  0  0  0  0  0  0  0
    0.7117   -0.2945    0.0000 F   0  0  0  0  0  0  0  0  0  0  0  0
    2.1351   -0.2700    0.0000 O   0  0  0  0  0  0  0  0  0  0  0  0
    0.9817    0.0000    0.0000 O   0  0  0  0  0  0  0  0  0  0  0  0
    1.8406   -1.4234    0.0000 O   0  0  0  0  0  0  0  0  0  0  0  0
    5.7427   -3.1659    0.0000 O   0  0  0  0  0  0  0  0  0  0  0  0
    5.0310   -1.9142    0.0000 O   0  0  0  0  0  0  0  0  0  0  0  0
    2.8959   -1.5216    0.0000 N   0  0  0  0  0  0  0  0  0  0  0  0
    2.1106   -2.8223    0.0000 N   0  0  0  0  0  0  0  0  0  0  0  0
    0.7117   -1.1289    0.0000 C   0  0  0  0  0  0  0  0  0  0  0  0
    2.8468   -0.6871    0.0000 C   0  0  0  0  0  0  0  0  0  0  0  0
    3.6076   -1.9142    0.0000 C   0  0  0  0  0  0  0  0  0  0  0  0
    3.6076   -2.7486    0.0000 C   0  0  3  0  0  0  0  0  0  0  0  0
    2.8713   -3.1659    0.0000 C   0  0  0  0  0  0  0  0  0  0  0  0
    3.5831   -0.2700    0.0000 C   0  0  0  0  0  0  0  0  0  0  0  0
    4.3193   -1.5216    0.0000 C   0  0  0  0  0  0  0  0  0  0  0  0
    4.3193   -3.1659    0.0000 C   0  0  0  0  0  0  0  0  0  0  0  0
    4.2948   -0.6871    0.0000 C   0  0  0  0  0  0  0  0  0  0  0  0
    1.9878   -4.1720    0.0000 C   0  0  0  0  0  0  0  0  0  0  0  0
    1.5706   -3.4603    0.0000 C   0  0  0  0  0  0  0  0  0  0  0  0
    5.0310   -2.7486    0.0000 C   0  0  0  0  0  0  0  0  0  0  0  0
    1.6443   -4.9083    0.0000 C   0  0  0  0  0  0  0  0  0  0  0  0
    6.4544   -2.7486    0.0000 C   0  0  0  0  0  0  0  0  0  0  0  0
    6.4544   -1.9142    0.0000 C   0  0  0  0  0  0  0  0  0  0  0  0
  1  6  1  0  0  0  0
  1  7  2  0  0  0  0
  1  8  2  0  0  0  0
  1 13  1  0  0  0  0
  2 17  1  0  0  0  0
  2 22  1  0  0  0  0
  3 13  1  0  0  0  0
  4 13  1  0  0  0  0
  5 13  1  0  0  0  0
  6 14  1  0  0  0  0
  9 24  1  0  0  0  0
  9 26  1  0  0  0  0
 10 24  2  0  0  0  0
 11 14  2  0  0  0  0
 11 15  1  0  0  0  0
 12 17  2  0  0  0  0
 12 23  1  0  0  0  0
 14 18  1  0  0  0  0
 15 16  1  0  0  0  0
 15 19  2  0  0  0  0
 16 17  1  0  0  0  0
 16 20  1  0  0  0  0
 18 21  2  0  0  0  0
 19 21  1  0  0  0  0
 20 24  1  0  0  0  0
 22 23  2  0  0  0  0
 22 25  1  0  0  0  0
 26 27  1  0  0  0  0
M  END
> <PUBCHEM_COMPOUND_ID_TYPE>
0

> <PUBCHEM_TOTAL_CHARGE>
0

> <PUBCHEM_SUBSTANCE_ID>
310931823

> <PUBCHEM_SUBSTANCE_VERSION>
1

> <PUBCHEM_EXT_DATASOURCE_NAME>
4488

> <PUBCHEM_EXT_DATASOURCE_REGID>
SCHEMBL16109156

> <PUBCHEM_SUBSTANCE_COMMENT>
InChI=1S/C15H15F3N2O5S2/c1-3-24-13(21)7-10(14-19-8-9(2)26-14)11-5-4-6-12(20-11)25-27(22,23)15(16,17)18/h4-6,8,10H,3,7H2,1-2H3
InChIKey=BLVOLSGTRGAAKG-UHFFFAOYSA-N

> <PUBCHEM_SUBSTANCE_SYNONYM>
SCHEMBL16109156

> <PUBCHEM_XREF_EXT_ID>
SCHEMBL16109156

> <PUBCHEM_EXT_DATASOURCE_URL>
https://www.surechembl.org/

> <PUBCHEM_EXT_SUBSTANCE_URL>
https://www.surechembl.org/chemical/SCHEMBL16109156

> <PUBCHEM_CID_ASSOCIATIONS>
117600496  1

> <PUBCHEM_COORDINATE_TYPE>
1
3

$$$$
