310936140
  -OEChem-07211613022D

 27 29  0     1  0  0  0  0  0999 V2000
    5.7126   -0.6478    0.0000 F   0  0  0  0  0  0  0  0  0  0  0  0
    0.5595   -5.8893    0.0000 F   0  0  0  0  0  0  0  0  0  0  0  0
    1.7079   -5.0942    0.0000 F   0  0  0  0  0  0  0  0  0  0  0  0
    0.0884   -5.2120    0.0000 F   0  0  0  0  0  0  0  0  0  0  0  0
    4.5642   -1.4723    0.0000 O   0  0  0  0  0  0  0  0  0  0  0  0
    4.5642   -2.8858    0.0000 O   0  0  0  0  0  0  0  0  0  0  0  0
    0.1178   -4.0047    0.0000 N   0  0  0  0  0  0  0  0  0  0  0  0
    3.3274   -2.1790    0.0000 C   0  0  3  0  0  0  0  0  0  0  0  0
    3.7102   -1.4723    0.0000 C   0  0  0  0  0  0  0  0  0  0  0  0
    2.8563   -2.8563    0.0000 C   0  0  0  0  0  0  0  0  0  0  0  0
    2.0907   -2.5912    0.0000 C   0  0  0  0  0  0  0  0  0  0  0  0
    4.1519   -2.1790    0.0000 C   0  0  0  0  0  0  0  0  0  0  0  0
    2.8563   -1.5312    0.0000 C   0  0  0  0  0  0  0  0  0  0  0  0
    4.6820   -1.5901    0.0000 C   0  0  0  0  0  0  0  0  0  0  0  0
    1.4134   -3.0624    0.0000 C   0  0  0  0  0  0  0  0  0  0  0  0
    2.0907   -1.7962    0.0000 C   0  0  0  0  0  0  0  0  0  0  0  0
    3.2686   -0.7656    0.0000 C   0  0  0  0  0  0  0  0  0  0  0  0
    4.8881   -0.6773    0.0000 C   0  0  0  0  0  0  0  0  0  0  0  0
    1.5312   -3.8869    0.0000 C   0  0  0  0  0  0  0  0  0  0  0  0
    0.8245   -4.3286    0.0000 C   0  0  0  0  0  0  0  0  0  0  0  0
    0.7067   -2.7385    0.0000 C   0  0  0  0  0  0  0  0  0  0  0  0
    0.8834   -5.1531    0.0000 C   0  0  0  0  0  0  0  0  0  0  0  0
    3.6513   -0.0295    0.0000 C   0  0  0  0  0  0  0  0  0  0  0  0
    4.4758    0.0000    0.0000 C   0  0  0  0  0  0  0  0  0  0  0  0
    0.0000   -3.1802    0.0000 C   0  0  0  0  0  0  0  0  0  0  0  0
    4.9764   -2.0907    0.0000 C   0  0  0  0  0  0  0  0  0  0  0  0
    5.3592   -1.4723    0.0000 C   0  0  0  0  0  0  0  0  0  0  0  0
  1 18  1  0  0  0  0
  2 22  1  0  0  0  0
  3 22  1  0  0  0  0
  4 22  1  0  0  0  0
  5 12  1  0  0  0  0
  5 27  1  0  0  0  0
  6 12  2  0  0  0  0
  7 20  1  0  0  0  0
  7 25  2  0  0  0  0
  8  9  1  0  0  0  0
  8 10  1  0  0  0  0
  8 12  1  0  0  0  0
  8 13  1  0  0  0  0
  9 14  1  0  0  0  0
  9 17  2  0  0  0  0
 10 11  2  0  0  0  0
 11 15  1  0  0  0  0
 11 16  1  0  0  0  0
 13 16  1  0  0  0  0
 14 18  2  0  0  0  0
 14 26  1  0  0  0  0
 15 19  1  0  0  0  0
 15 21  2  0  0  0  0
 17 23  1  0  0  0  0
 18 24  1  0  0  0  0
 19 20  2  0  0  0  0
 20 22  1  0  0  0  0
 21 25  1  0  0  0  0
 23 24  2  0  0  0  0
M  END
> <PUBCHEM_COMPOUND_ID_TYPE>
0

> <PUBCHEM_TOTAL_CHARGE>
0

> <PUBCHEM_SUBSTANCE_ID>
310936140

> <PUBCHEM_SUBSTANCE_VERSION>
1

> <PUBCHEM_EXT_DATASOURCE_NAME>
4488

> <PUBCHEM_EXT_DATASOURCE_REGID>
SCHEMBL16113750

> <PUBCHEM_SUBSTANCE_COMMENT>
InChI=1S/C20H17F4NO2/c1-12-15(4-3-5-16(12)21)19(18(26)27-2)8-6-14(11-19)13-7-9-25-17(10-13)20(22,23)24/h3-5,7,9-11H,6,8H2,1-2H3
InChIKey=SMNRNEWLVPILPM-UHFFFAOYSA-N

> <PUBCHEM_SUBSTANCE_SYNONYM>
SCHEMBL16113750

> <PUBCHEM_XREF_EXT_ID>
SCHEMBL16113750

> <PUBCHEM_EXT_DATASOURCE_URL>
https://www.surechembl.org/

> <PUBCHEM_EXT_SUBSTANCE_URL>
https://www.surechembl.org/chemical/SCHEMBL16113750

> <PUBCHEM_CID_ASSOCIATIONS>
117604103  1

> <PUBCHEM_COORDINATE_TYPE>
1
3

$$$$
