310936318
  -OEChem-07211613022D

 21 22  0     1  0  0  0  0  0999 V2000
    0.0000   -4.1348    0.0000 Cl  0  0  0  0  0  0  0  0  0  0  0  0
    1.4447   -4.9817    0.0000 Cl  0  0  0  0  0  0  0  0  0  0  0  0
    2.1421   -0.3985    0.0000 O   0  0  0  0  0  0  0  0  0  0  0  0
    3.6117   -0.4234    0.0000 O   0  0  0  0  0  0  0  0  0  0  0  0
    4.3091   -1.6689    0.0000 N   0  0  0  0  0  0  0  0  0  0  0  0
    0.0000   -0.8220    0.0000 N   0  0  0  0  0  0  0  0  0  0  0  0
    1.4447   -1.6440    0.0000 C   0  0  3  0  0  0  0  0  0  0  0  0
    2.1421   -1.2454    0.0000 C   0  0  3  0  0  0  0  0  0  0  0  0
    2.8644   -1.6440    0.0000 C   0  0  0  0  0  0  0  0  0  0  0  0
    1.4447   -2.4908    0.0000 C   0  0  0  0  0  0  0  0  0  0  0  0
    3.6117   -1.2454    0.0000 C   0  0  0  0  0  0  0  0  0  0  0  0
    0.7224   -2.9143    0.0000 C   0  0  0  0  0  0  0  0  0  0  0  0
    0.7224   -3.7362    0.0000 C   0  0  0  0  0  0  0  0  0  0  0  0
    2.1670   -2.9143    0.0000 C   0  0  0  0  0  0  0  0  0  0  0  0
    1.4447   -4.1348    0.0000 C   0  0  0  0  0  0  0  0  0  0  0  0
    2.8893   -2.4908    0.0000 C   0  0  0  0  0  0  0  0  0  0  0  0
    0.7224   -1.2454    0.0000 C   0  0  0  0  0  0  0  0  0  0  0  0
    2.1670   -3.7362    0.0000 C   0  0  0  0  0  0  0  0  0  0  0  0
    3.6117   -2.8893    0.0000 C   0  0  0  0  0  0  0  0  0  0  0  0
    4.3340   -2.4908    0.0000 C   0  0  0  0  0  0  0  0  0  0  0  0
    2.8893    0.0000    0.0000 C   0  0  0  0  0  0  0  0  0  0  0  0
  1 13  1  0  0  0  0
  2 15  1  0  0  0  0
  3  8  1  0  0  0  0
  4 11  1  0  0  0  0
  4 21  1  0  0  0  0
  5 11  1  0  0  0  0
  5 20  2  0  0  0  0
  6 17  3  0  0  0  0
  7  8  1  0  0  0  0
  7 10  1  0  0  0  0
  7 17  1  0  0  0  0
  8  9  1  0  0  0  0
  9 11  2  0  0  0  0
  9 16  1  0  0  0  0
 10 12  1  0  0  0  0
 10 14  2  0  0  0  0
 12 13  2  0  0  0  0
 13 15  1  0  0  0  0
 14 18  1  0  0  0  0
 15 18  2  0  0  0  0
 16 19  2  0  0  0  0
 19 20  1  0  0  0  0
M  END
> <PUBCHEM_COMPOUND_ID_TYPE>
0

> <PUBCHEM_TOTAL_CHARGE>
0

> <PUBCHEM_SUBSTANCE_ID>
310936318

> <PUBCHEM_SUBSTANCE_VERSION>
1

> <PUBCHEM_EXT_DATASOURCE_NAME>
4488

> <PUBCHEM_EXT_DATASOURCE_REGID>
SCHEMBL16113944

> <PUBCHEM_SUBSTANCE_COMMENT>
InChI=1S/C15H12Cl2N2O2/c1-21-15-10(3-2-6-19-15)14(20)11(8-18)9-4-5-12(16)13(17)7-9/h2-7,11,14,20H,1H3
InChIKey=HCVJYGONBSYWOE-UHFFFAOYSA-N

> <PUBCHEM_SUBSTANCE_SYNONYM>
SCHEMBL16113944

> <PUBCHEM_XREF_EXT_ID>
SCHEMBL16113944

> <PUBCHEM_EXT_DATASOURCE_URL>
https://www.surechembl.org/

> <PUBCHEM_EXT_SUBSTANCE_URL>
https://www.surechembl.org/chemical/SCHEMBL16113944

> <PUBCHEM_CID_ASSOCIATIONS>
117604263  1

> <PUBCHEM_COORDINATE_TYPE>
1
3

$$$$
