310935149
  -OEChem-07211613022D

 22 23  0     1  0  0  0  0  0999 V2000
    0.8328   -3.9037    0.0000 S   0  0  0  0  0  0  0  0  0  0  0  0
    0.2342   -5.2050    0.0000 F   0  0  0  0  0  0  0  0  0  0  0  0
    1.6656   -5.0488    0.0000 F   0  0  0  0  0  0  0  0  0  0  0  0
    0.1562   -4.3722    0.0000 F   0  0  0  0  0  0  0  0  0  0  0  0
    0.7287   -3.0970    0.0000 O   0  0  0  0  0  0  0  0  0  0  0  0
    0.0000   -4.0078    0.0000 O   0  0  0  0  0  0  0  0  0  0  0  0
    1.6656   -3.8256    0.0000 O   0  0  0  0  0  0  0  0  0  0  0  0
    3.9037   -2.9148    0.0000 O   0  0  0  0  0  0  0  0  0  0  0  0
    3.9037   -1.4834    0.0000 O   0  0  0  0  0  0  0  0  0  0  0  0
    2.6805   -2.1861    0.0000 C   0  0  3  0  0  0  0  0  0  0  0  0
    1.4054   -2.6025    0.0000 C   0  0  0  0  0  0  0  0  0  0  0  0
    2.1861   -2.8627    0.0000 C   0  0  0  0  0  0  0  0  0  0  0  0
    0.9109   -4.7105    0.0000 C   0  0  0  0  0  0  0  0  0  0  0  0
    3.0449   -1.4574    0.0000 C   0  0  0  0  0  0  0  0  0  0  0  0
    2.1861   -1.5355    0.0000 C   0  0  0  0  0  0  0  0  0  0  0  0
    3.4874   -2.1861    0.0000 C   0  0  0  0  0  0  0  0  0  0  0  0
    1.4054   -1.7957    0.0000 C   0  0  0  0  0  0  0  0  0  0  0  0
    2.6025   -0.7547    0.0000 C   0  0  0  0  0  0  0  0  0  0  0  0
    4.0338   -1.5875    0.0000 C   0  0  0  0  0  0  0  0  0  0  0  0
    2.9668   -0.0260    0.0000 C   0  0  0  0  0  0  0  0  0  0  0  0
    4.2421   -0.7027    0.0000 C   0  0  0  0  0  0  0  0  0  0  0  0
    3.7996    0.0000    0.0000 C   0  0  0  0  0  0  0  0  0  0  0  0
  1  5  1  0  0  0  0
  1  6  2  0  0  0  0
  1  7  2  0  0  0  0
  1 13  1  0  0  0  0
  2 13  1  0  0  0  0
  3 13  1  0  0  0  0
  4 13  1  0  0  0  0
  5 11  1  0  0  0  0
  8 16  2  0  0  0  0
  9 16  1  0  0  0  0
 10 12  1  0  0  0  0
 10 14  1  0  0  0  0
 10 15  1  0  0  0  0
 10 16  1  0  0  0  0
 11 12  2  0  0  0  0
 11 17  1  0  0  0  0
 14 18  2  0  0  0  0
 14 19  1  0  0  0  0
 15 17  1  0  0  0  0
 18 20  1  0  0  0  0
 19 21  2  0  0  0  0
 20 22  2  0  0  0  0
 21 22  1  0  0  0  0
M  END
> <PUBCHEM_COMPOUND_ID_TYPE>
0

> <PUBCHEM_TOTAL_CHARGE>
0

> <PUBCHEM_SUBSTANCE_ID>
310935149

> <PUBCHEM_SUBSTANCE_VERSION>
1

> <PUBCHEM_EXT_DATASOURCE_NAME>
4488

> <PUBCHEM_EXT_DATASOURCE_REGID>
SCHEMBL16112677

> <PUBCHEM_SUBSTANCE_COMMENT>
InChI=1S/C13H11F3O5S/c14-13(15,16)22(19,20)21-10-6-7-12(8-10,11(17)18)9-4-2-1-3-5-9/h1-5,8H,6-7H2,(H,17,18)
InChIKey=RJWNKRZCAOERGY-UHFFFAOYSA-N

> <PUBCHEM_SUBSTANCE_SYNONYM>
SCHEMBL16112677

> <PUBCHEM_XREF_EXT_ID>
SCHEMBL16112677

> <PUBCHEM_EXT_DATASOURCE_URL>
https://www.surechembl.org/

> <PUBCHEM_EXT_SUBSTANCE_URL>
https://www.surechembl.org/chemical/SCHEMBL16112677

> <PUBCHEM_CID_ASSOCIATIONS>
117603236  1

> <PUBCHEM_COORDINATE_TYPE>
1
3

$$$$
