310939066
  -OEChem-07211613022D

 25 27  0     1  0  0  0  0  0999 V2000
   -0.2057    0.0311    0.0000 O   0  0  0  0  0  0  0  0  0  0  0  0
   -1.0410    2.8486    0.0000 O   0  0  0  0  0  0  0  0  0  0  0  0
    2.7614    2.5993    0.0000 O   0  0  0  0  0  0  0  0  0  0  0  0
   -2.6990   -2.8486    0.0000 O   0  0  0  0  0  0  0  0  0  0  0  0
   -3.9457   -2.1380    0.0000 O   0  0  0  0  0  0  0  0  0  0  0  0
   -0.3428    1.5396    0.0000 N   0  0  0  0  0  0  0  0  0  0  0  0
   -1.8513    0.0311    0.0000 N   0  0  0  0  0  0  0  0  0  0  0  0
   -1.4524    0.7667    0.0000 C   0  0  3  0  0  0  0  0  0  0  0  0
   -0.6296    0.7667    0.0000 C   0  0  0  0  0  0  0  0  0  0  0  0
   -1.0285    2.0009    0.0000 C   0  0  0  0  0  0  0  0  0  0  0  0
    0.4425    1.7640    0.0000 C   0  0  0  0  0  0  0  0  0  0  0  0
   -1.7017    1.5396    0.0000 C   0  0  0  0  0  0  0  0  0  0  0  0
    0.6669    2.5494    0.0000 C   0  0  0  0  0  0  0  0  0  0  0  0
    1.0410    1.1656    0.0000 C   0  0  0  0  0  0  0  0  0  0  0  0
   -2.6865    0.0187    0.0000 C   0  0  0  0  0  0  0  0  0  0  0  0
   -1.4399   -0.6794    0.0000 C   0  0  0  0  0  0  0  0  0  0  0  0
   -2.6990   -1.4025    0.0000 C   0  0  0  0  0  0  0  0  0  0  0  0
   -3.0979   -0.7044    0.0000 C   0  0  0  0  0  0  0  0  0  0  0  0
   -1.8638   -1.4149    0.0000 C   0  0  0  0  0  0  0  0  0  0  0  0
    2.0507    2.1879    0.0000 C   0  0  0  0  0  0  0  0  0  0  0  0
    1.4648    2.7614    0.0000 C   0  0  0  0  0  0  0  0  0  0  0  0
    1.8264    1.3776    0.0000 C   0  0  0  0  0  0  0  0  0  0  0  0
   -3.1104   -2.1255    0.0000 C   0  0  0  0  0  0  0  0  0  0  0  0
    3.4969    2.1879    0.0000 C   0  0  0  0  0  0  0  0  0  0  0  0
    3.9457    2.4372    0.0000 C   0  0  0  0  0  0  0  0  0  0  0  0
  1  9  2  0  0  0  0
  2 10  2  0  0  0  0
  3 20  1  0  0  0  0
  3 24  1  0  0  0  0
  4 23  2  0  0  0  0
  5 23  1  0  0  0  0
  6  9  1  0  0  0  0
  6 10  1  0  0  0  0
  6 11  1  0  0  0  0
  7  8  1  0  0  0  0
  7 15  1  0  0  0  0
  7 16  1  0  0  0  0
  8  9  1  0  0  0  0
  8 12  1  0  0  0  0
 10 12  1  0  0  0  0
 11 13  2  0  0  0  0
 11 14  1  0  0  0  0
 13 21  1  0  0  0  0
 14 22  2  0  0  0  0
 15 18  1  0  0  0  0
 16 19  1  0  0  0  0
 17 18  1  0  0  0  0
 17 19  1  0  0  0  0
 17 23  1  0  0  0  0
 20 21  2  0  0  0  0
 20 22  1  0  0  0  0
 24 25  1  0  0  0  0
M  END
> <PUBCHEM_COMPOUND_ID_TYPE>
0

> <PUBCHEM_TOTAL_CHARGE>
0

> <PUBCHEM_SUBSTANCE_ID>
310939066

> <PUBCHEM_SUBSTANCE_VERSION>
1

> <PUBCHEM_EXT_DATASOURCE_NAME>
4488

> <PUBCHEM_EXT_DATASOURCE_REGID>
SCHEMBL16116985

> <PUBCHEM_SUBSTANCE_COMMENT>
InChI=1S/C18H22N2O5/c1-2-25-14-5-3-13(4-6-14)20-16(21)11-15(17(20)22)19-9-7-12(8-10-19)18(23)24/h3-6,12,15H,2,7-11H2,1H3,(H,23,24)
InChIKey=JKCKXRJJJHZJBR-UHFFFAOYSA-N

> <PUBCHEM_SUBSTANCE_SYNONYM>
SCHEMBL16116985

> <PUBCHEM_XREF_EXT_ID>
SCHEMBL16116985

> <PUBCHEM_EXT_DATASOURCE_URL>
https://www.surechembl.org/

> <PUBCHEM_EXT_SUBSTANCE_URL>
https://www.surechembl.org/chemical/SCHEMBL16116985

> <PUBCHEM_CID_ASSOCIATIONS>
2850305  1

> <PUBCHEM_COORDINATE_TYPE>
1
3

$$$$
