310930323
  -OEChem-07211613022D

 25 26  0     1  0  0  0  0  0999 V2000
    0.8206   -4.7257    0.0000 S   0  0  0  0  0  0  0  0  0  0  0  0
    0.8206   -3.9051    0.0000 O   0  0  0  0  0  0  0  0  0  0  0  0
    1.6412   -4.7257    0.0000 O   0  0  0  0  0  0  0  0  0  0  0  0
    0.0000   -4.6974    0.0000 O   0  0  0  0  0  0  0  0  0  0  0  0
    0.8206   -5.5463    0.0000 O   0  0  0  0  0  0  0  0  0  0  0  0
    3.6787   -3.9051    0.0000 N   0  0  3  0  0  0  0  0  0  0  0  0
    6.5084   -2.2355    0.0000 N   0  0  0  0  0  0  0  0  0  0  0  0
    6.5084   -1.4149    0.0000 N   0  0  0  0  0  0  0  0  0  0  0  0
    7.9517   -1.3300    0.0000 N   0  0  0  0  0  0  0  0  0  0  0  0
    7.2725   -0.1698    0.0000 N   0  0  0  0  0  0  0  0  0  0  0  0
    4.3578   -3.4806    0.0000 C   0  0  0  0  0  0  0  0  0  0  0  0
    5.7727   -2.6317    0.0000 C   0  0  0  0  0  0  0  0  0  0  0  0
    5.8010   -3.4523    0.0000 C   0  0  0  0  0  0  0  0  0  0  0  0
    5.0936   -3.8768    0.0000 C   0  0  0  0  0  0  0  0  0  0  0  0
    4.3578   -2.6600    0.0000 C   0  0  0  0  0  0  0  0  0  0  0  0
    5.0653   -2.2355    0.0000 C   0  0  0  0  0  0  0  0  0  0  0  0
    7.1876   -0.9904    0.0000 C   0  0  0  0  0  0  0  0  0  0  0  0
    2.9430   -3.4806    0.0000 C   0  0  0  0  0  0  0  0  0  0  0  0
    3.6787   -4.6974    0.0000 C   0  0  0  0  0  0  0  0  0  0  0  0
    6.5084   -3.8768    0.0000 C   0  0  0  0  0  0  0  0  0  0  0  0
    2.2355   -3.9051    0.0000 C   0  0  0  0  0  0  0  0  0  0  0  0
    1.5281   -3.4806    0.0000 C   0  0  0  0  0  0  0  0  0  0  0  0
    8.4893   -0.7074    0.0000 C   0  0  0  0  0  0  0  0  0  0  0  0
    8.0648    0.0000    0.0000 C   0  0  0  0  0  0  0  0  0  0  0  0
    4.3861   -5.1219    0.0000 C   0  0  0  0  0  0  0  0  0  0  0  0
  1  2  1  0  0  0  0
  1  3  2  0  0  0  0
  1  4  2  0  0  0  0
  1  5  1  0  0  0  0
  2 22  1  0  0  0  0
  6 11  1  0  0  0  0
  6 18  1  0  0  0  0
  6 19  1  0  0  0  0
  7  8  2  0  0  0  0
  7 12  1  0  0  0  0
  8 17  1  0  0  0  0
  9 17  2  0  0  0  0
  9 23  1  0  0  0  0
 10 17  1  0  0  0  0
 10 24  1  0  0  0  0
 11 14  1  0  0  0  0
 11 15  2  0  0  0  0
 12 13  1  0  0  0  0
 12 16  2  0  0  0  0
 13 14  2  0  0  0  0
 13 20  1  0  0  0  0
 15 16  1  0  0  0  0
 18 21  1  0  0  0  0
 19 25  1  0  0  0  0
 21 22  1  0  0  0  0
 23 24  2  0  0  0  0
M  END
> <PUBCHEM_COMPOUND_ID_TYPE>
0

> <PUBCHEM_TOTAL_CHARGE>
0

> <PUBCHEM_SUBSTANCE_ID>
310930323

> <PUBCHEM_SUBSTANCE_VERSION>
1

> <PUBCHEM_EXT_DATASOURCE_NAME>
4488

> <PUBCHEM_EXT_DATASOURCE_REGID>
SCHEMBL16107604

> <PUBCHEM_SUBSTANCE_COMMENT>
InChI=1S/C15H21N5O4S/c1-3-20(9-4-10-24-25(21,22)23)13-5-6-14(12(2)11-13)18-19-15-16-7-8-17-15/h5-8,11H,3-4,9-10H2,1-2H3,(H,16,17)(H,21,22,23)/b19-18+
InChIKey=BVMPTQCDEPNNFN-VHEBQXMUSA-N

> <PUBCHEM_SUBSTANCE_SYNONYM>
SCHEMBL16107604

> <PUBCHEM_XREF_EXT_ID>
SCHEMBL16107604

> <PUBCHEM_EXT_DATASOURCE_URL>
https://www.surechembl.org/

> <PUBCHEM_EXT_SUBSTANCE_URL>
https://www.surechembl.org/chemical/SCHEMBL16107604

> <PUBCHEM_CID_ASSOCIATIONS>
89561231  1

> <PUBCHEM_COORDINATE_TYPE>
1
3

$$$$
