310942250
  -OEChem-07211613022D

 29 32  0     1  0  0  0  0  0999 V2000
   -1.0027   -1.6566    0.0000 F   0  0  0  0  0  0  0  0  0  0  0  0
   -2.4476    0.8346    0.0000 F   0  0  0  0  0  0  0  0  0  0  0  0
   -2.4600   -0.8346    0.0000 O   0  0  0  0  0  0  0  0  0  0  0  0
    1.2891   -0.4111    0.0000 N   0  0  0  0  0  0  0  0  0  0  0  0
    4.1042    1.9182    0.0000 N   0  0  0  0  0  0  0  0  0  0  0  0
   -0.2927   -0.4111    0.0000 C   0  0  0  0  0  0  0  0  0  0  0  0
   -1.0027   -0.8221    0.0000 C   0  0  0  0  0  0  0  0  0  0  0  0
   -1.7376   -0.4111    0.0000 C   0  0  0  0  0  0  0  0  0  0  0  0
   -1.7251    0.4111    0.0000 C   0  0  0  0  0  0  0  0  0  0  0  0
    0.4422   -0.8221    0.0000 C   0  0  3  0  0  0  0  0  0  0  0  0
   -0.2927    0.4111    0.0000 C   0  0  0  0  0  0  0  0  0  0  0  0
   -1.0027    0.8221    0.0000 C   0  0  0  0  0  0  0  0  0  0  0  0
    3.3071    0.8346    0.0000 C   0  0  0  0  0  0  0  0  0  0  0  0
    3.3195    1.6691    0.0000 C   0  0  0  0  0  0  0  0  0  0  0  0
    1.8745    0.8346    0.0000 C   0  0  0  0  0  0  0  0  0  0  0  0
   -3.1700   -0.4111    0.0000 C   0  0  0  0  0  0  0  0  0  0  0  0
    2.5846    0.4235    0.0000 C   0  0  0  0  0  0  0  0  0  0  0  0
    1.1646    0.4111    0.0000 C   0  0  0  0  0  0  0  0  0  0  0  0
    2.5971    2.0677    0.0000 C   0  0  0  0  0  0  0  0  0  0  0  0
    0.4297   -1.6566    0.0000 C   0  0  0  0  0  0  0  0  0  0  0  0
    1.8870    1.6566    0.0000 C   0  0  0  0  0  0  0  0  0  0  0  0
    4.1042    0.5730    0.0000 C   0  0  0  0  0  0  0  0  0  0  0  0
    4.5901    1.2456    0.0000 C   0  0  0  0  0  0  0  0  0  0  0  0
   -3.1700    0.4111    0.0000 C   0  0  0  0  0  0  0  0  0  0  0  0
   -3.8800   -0.8221    0.0000 C   0  0  0  0  0  0  0  0  0  0  0  0
   -3.8675    0.8221    0.0000 C   0  0  0  0  0  0  0  0  0  0  0  0
   -4.5901   -0.4111    0.0000 C   0  0  0  0  0  0  0  0  0  0  0  0
    1.1522   -2.0677    0.0000 C   0  0  0  0  0  0  0  0  0  0  0  0
   -4.5901    0.4111    0.0000 C   0  0  0  0  0  0  0  0  0  0  0  0
  1  7  1  0  0  0  0
  2  9  1  0  0  0  0
  3  8  1  0  0  0  0
  3 16  1  0  0  0  0
  4 10  1  0  0  0  0
  4 18  1  0  0  0  0
  5 14  1  0  0  0  0
  5 23  1  0  0  0  0
  6  7  2  0  0  0  0
  6 10  1  0  0  0  0
  6 11  1  0  0  0  0
  7  8  1  0  0  0  0
  8  9  2  0  0  0  0
  9 12  1  0  0  0  0
 10 20  1  0  0  0  0
 11 12  2  0  0  0  0
 13 14  2  0  0  0  0
 13 17  1  0  0  0  0
 13 22  1  0  0  0  0
 14 19  1  0  0  0  0
 15 17  2  0  0  0  0
 15 18  1  0  0  0  0
 15 21  1  0  0  0  0
 16 24  2  0  0  0  0
 16 25  1  0  0  0  0
 19 21  2  0  0  0  0
 20 28  1  0  0  0  0
 22 23  2  0  0  0  0
 24 26  1  0  0  0  0
 25 27  2  0  0  0  0
 26 29  2  0  0  0  0
 27 29  1  0  0  0  0
M  END
> <PUBCHEM_COMPOUND_ID_TYPE>
0

> <PUBCHEM_TOTAL_CHARGE>
0

> <PUBCHEM_SUBSTANCE_ID>
310942250

> <PUBCHEM_SUBSTANCE_VERSION>
1

> <PUBCHEM_EXT_DATASOURCE_NAME>
4488

> <PUBCHEM_EXT_DATASOURCE_REGID>
SCHEMBL16120285

> <PUBCHEM_SUBSTANCE_COMMENT>
InChI=1S/C24H22F2N2O/c1-2-21(28-15-16-8-11-22-17(14-16)12-13-27-22)19-9-10-20(25)24(23(19)26)29-18-6-4-3-5-7-18/h3-14,21,27-28H,2,15H2,1H3
InChIKey=ATVUAGIMPSFUIM-UHFFFAOYSA-N

> <PUBCHEM_SUBSTANCE_SYNONYM>
SCHEMBL16120285

> <PUBCHEM_XREF_EXT_ID>
SCHEMBL16120285

> <PUBCHEM_EXT_DATASOURCE_URL>
https://www.surechembl.org/

> <PUBCHEM_EXT_SUBSTANCE_URL>
https://www.surechembl.org/chemical/SCHEMBL16120285

> <PUBCHEM_CID_ASSOCIATIONS>
117608901  1

> <PUBCHEM_COORDINATE_TYPE>
1
3

$$$$
