310942936
  -OEChem-07211613022D

 20 22  0     1  0  0  0  0  0999 V2000
    3.1904   -1.1586    0.0000 Cl  0  0  0  0  0  0  0  0  0  0  0  0
   -1.9281   -0.0519    0.0000 N   0  0  3  0  0  0  0  0  0  0  0  0
    0.2854   -1.1586    0.0000 N   0  0  0  0  0  0  0  0  0  0  0  0
    1.7725   -1.2105    0.0000 N   0  0  0  0  0  0  0  0  0  0  0  0
    2.4814    0.0692    0.0000 N   0  0  0  0  0  0  0  0  0  0  0  0
   -1.2364    0.4496    0.0000 C   0  0  0  0  0  0  0  0  0  0  0  0
   -1.9281   -0.8992    0.0000 C   0  0  3  0  0  0  0  0  0  0  0  0
   -0.4755   -0.7782    0.0000 C   0  0  3  0  0  0  0  0  0  0  0  0
   -0.5101    0.0346    0.0000 C   0  0  0  0  0  0  0  0  0  0  0  0
   -1.1327   -1.2450    0.0000 C   0  0  0  0  0  0  0  0  0  0  0  0
    1.0116   -0.7608    0.0000 C   0  0  0  0  0  0  0  0  0  0  0  0
   -2.7409    0.1902    0.0000 C   0  0  0  0  0  0  0  0  0  0  0  0
   -2.6544   -1.1586    0.0000 C   0  0  0  0  0  0  0  0  0  0  0  0
    1.0289    0.0692    0.0000 C   0  0  0  0  0  0  0  0  0  0  0  0
   -3.1904   -0.5361    0.0000 C   0  0  0  0  0  0  0  0  0  0  0  0
   -1.4439    1.2450    0.0000 C   0  0  0  0  0  0  0  0  0  0  0  0
   -0.8214    1.1413    0.0000 C   0  0  0  0  0  0  0  0  0  0  0  0
    2.4469   -0.7782    0.0000 C   0  0  0  0  0  0  0  0  0  0  0  0
    1.7378    0.5015    0.0000 C   0  0  0  0  0  0  0  0  0  0  0  0
    0.3372    0.4496    0.0000 C   0  0  0  0  0  0  0  0  0  0  0  0
  1 18  1  0  0  0  0
  2  6  1  0  0  0  0
  2  7  1  0  0  0  0
  2 12  1  0  0  0  0
  3  8  1  0  0  0  0
  3 11  1  0  0  0  0
  4 11  1  0  0  0  0
  4 18  2  0  0  0  0
  5 18  1  0  0  0  0
  5 19  2  0  0  0  0
  6  9  1  0  0  0  0
  6 16  1  0  0  0  0
  6 17  1  0  0  0  0
  7 10  1  0  0  0  0
  7 13  1  0  0  0  0
  8  9  1  0  0  0  0
  8 10  1  0  0  0  0
 11 14  2  0  0  0  0
 12 15  1  0  0  0  0
 13 15  1  0  0  0  0
 14 19  1  0  0  0  0
 14 20  1  0  0  0  0
M  END
> <PUBCHEM_COMPOUND_ID_TYPE>
0

> <PUBCHEM_TOTAL_CHARGE>
0

> <PUBCHEM_SUBSTANCE_ID>
310942936

> <PUBCHEM_SUBSTANCE_VERSION>
1

> <PUBCHEM_EXT_DATASOURCE_NAME>
4488

> <PUBCHEM_EXT_DATASOURCE_REGID>
SCHEMBL16120994

> <PUBCHEM_SUBSTANCE_COMMENT>
InChI=1S/C15H23ClN4/c1-10-9-17-14(16)19-13(10)18-11-7-12-5-4-6-20(12)15(2,3)8-11/h9,11-12H,4-8H2,1-3H3,(H,17,18,19)
InChIKey=DVEXGPUYDAZLOI-UHFFFAOYSA-N

> <PUBCHEM_SUBSTANCE_SYNONYM>
SCHEMBL16120994

> <PUBCHEM_XREF_EXT_ID>
SCHEMBL16120994

> <PUBCHEM_EXT_DATASOURCE_URL>
https://www.surechembl.org/

> <PUBCHEM_EXT_SUBSTANCE_URL>
https://www.surechembl.org/chemical/SCHEMBL16120994

> <PUBCHEM_CID_ASSOCIATIONS>
117609403  1

> <PUBCHEM_COORDINATE_TYPE>
1
3

$$$$
