310930515
  -OEChem-07211613022D

 24 27  0     1  0  0  0  0  0999 V2000
    4.4743   -4.4743    0.0000 O   0  0  0  0  0  0  0  0  0  0  0  0
    0.4027   -1.2081    0.0000 O   0  0  0  0  0  0  0  0  0  0  0  0
    4.6980   -3.0425    0.0000 N   0  0  0  0  0  0  0  0  0  0  0  0
    0.0000   -1.9239    0.0000 N   0  0  0  0  0  0  0  0  0  0  0  0
    3.4228   -2.6174    0.0000 C   0  0  0  0  0  0  0  0  0  0  0  0
    4.2058   -2.3713    0.0000 C   0  0  3  0  0  0  0  0  0  0  0  0
    3.4228   -3.4676    0.0000 C   0  0  0  0  0  0  0  0  0  0  0  0
    4.2058   -3.6913    0.0000 C   0  0  0  0  0  0  0  0  0  0  0  0
    2.0135   -2.6174    0.0000 C   0  0  0  0  0  0  0  0  0  0  0  0
    2.6845   -2.2148    0.0000 C   0  0  0  0  0  0  0  0  0  0  0  0
    1.2975   -2.1924    0.0000 C   0  0  0  0  0  0  0  0  0  0  0  0
    4.4743   -1.5884    0.0000 C   0  0  0  0  0  0  0  0  0  0  0  0
    2.6845   -3.8479    0.0000 C   0  0  0  0  0  0  0  0  0  0  0  0
    2.0135   -3.4676    0.0000 C   0  0  0  0  0  0  0  0  0  0  0  0
    1.2081   -1.3647    0.0000 C   0  0  0  0  0  0  0  0  0  0  0  0
    0.5593   -2.5279    0.0000 C   0  0  0  0  0  0  0  0  0  0  0  0
    5.5257   -3.0425    0.0000 C   0  0  0  0  0  0  0  0  0  0  0  0
    3.9374   -0.9620    0.0000 C   0  0  0  0  0  0  0  0  0  0  0  0
    5.2797   -1.3870    0.0000 C   0  0  0  0  0  0  0  0  0  0  0  0
    1.8121   -0.8277    0.0000 C   0  0  0  0  0  0  0  0  0  0  0  0
    0.3803   -3.3333    0.0000 C   0  0  0  0  0  0  0  0  0  0  0  0
    4.1834   -0.2014    0.0000 C   0  0  0  0  0  0  0  0  0  0  0  0
    5.5257   -0.6264    0.0000 C   0  0  0  0  0  0  0  0  0  0  0  0
    4.9888    0.0000    0.0000 C   0  0  0  0  0  0  0  0  0  0  0  0
  1  8  2  0  0  0  0
  2  4  1  0  0  0  0
  2 15  1  0  0  0  0
  3  6  1  0  0  0  0
  3  8  1  0  0  0  0
  3 17  1  0  0  0  0
  4 16  2  0  0  0  0
  5  6  1  0  0  0  0
  5  7  2  0  0  0  0
  5 10  1  0  0  0  0
  6 12  1  0  0  0  0
  7  8  1  0  0  0  0
  7 13  1  0  0  0  0
  9 10  2  0  0  0  0
  9 11  1  0  0  0  0
  9 14  1  0  0  0  0
 11 15  2  0  0  0  0
 11 16  1  0  0  0  0
 12 18  1  0  0  0  0
 12 19  1  0  0  0  0
 13 14  2  0  0  0  0
 15 20  1  0  0  0  0
 16 21  1  0  0  0  0
 18 22  1  0  0  0  0
 19 23  1  0  0  0  0
 22 24  1  0  0  0  0
 23 24  1  0  0  0  0
M  END
> <PUBCHEM_COMPOUND_ID_TYPE>
0

> <PUBCHEM_TOTAL_CHARGE>
0

> <PUBCHEM_SUBSTANCE_ID>
310930515

> <PUBCHEM_SUBSTANCE_VERSION>
1

> <PUBCHEM_EXT_DATASOURCE_NAME>
4488

> <PUBCHEM_EXT_DATASOURCE_REGID>
SCHEMBL16107807

> <PUBCHEM_SUBSTANCE_COMMENT>
InChI=1S/C20H24N2O2/c1-12-18(13(2)24-21-12)15-9-10-16-17(11-15)19(22(3)20(16)23)14-7-5-4-6-8-14/h9-11,14,19H,4-8H2,1-3H3
InChIKey=KTIOZCVPUDTGKF-UHFFFAOYSA-N

> <PUBCHEM_SUBSTANCE_SYNONYM>
SCHEMBL16107807

> <PUBCHEM_XREF_EXT_ID>
SCHEMBL16107807

> <PUBCHEM_EXT_DATASOURCE_URL>
https://www.surechembl.org/

> <PUBCHEM_EXT_SUBSTANCE_URL>
https://www.surechembl.org/chemical/SCHEMBL16107807

> <PUBCHEM_CID_ASSOCIATIONS>
86295463  1

> <PUBCHEM_COORDINATE_TYPE>
1
3

$$$$
