310943581
  -OEChem-07211613022D

 34 37  0     1  0  0  0  0  0999 V2000
    1.0057   -1.7366    0.0000 Br  0  0  0  0  0  0  0  0  0  0  0  0
    2.4383    2.0259    0.0000 O   0  0  0  0  0  0  0  0  0  0  0  0
    3.2487    0.5499    0.0000 N   0  0  0  0  0  0  0  0  0  0  0  0
   -3.2922   -1.5484    0.0000 N   0  0  3  0  0  0  0  0  0  0  0  0
    5.0286    0.0145    0.0000 N   0  0  3  0  0  0  0  0  0  0  0  0
   -1.1649    1.5773    0.0000 N   0  0  0  0  0  0  0  0  0  0  0  0
   -5.0866   -1.0130    0.0000 N   0  0  3  0  0  0  0  0  0  0  0  0
    0.2821   -0.2750    0.0000 C   0  0  0  0  0  0  0  0  0  0  0  0
   -0.4269   -0.6946    0.0000 C   0  0  0  0  0  0  0  0  0  0  0  0
    1.0057   -0.6657    0.0000 C   0  0  0  0  0  0  0  0  0  0  0  0
   -1.1649   -0.2894    0.0000 C   0  0  0  0  0  0  0  0  0  0  0  0
    1.7293    0.5789    0.0000 C   0  0  0  0  0  0  0  0  0  0  0  0
    1.7148   -0.2605    0.0000 C   0  0  0  0  0  0  0  0  0  0  0  0
    0.2966    0.5499    0.0000 C   0  0  0  0  0  0  0  0  0  0  0  0
    2.4383    0.9840    0.0000 C   0  0  0  0  0  0  0  0  0  0  0  0
   -0.4414   -1.5484    0.0000 C   0  0  0  0  0  0  0  0  0  0  0  0
    1.0057    0.9695    0.0000 C   0  0  0  0  0  0  0  0  0  0  0  0
   -1.8596   -1.5339    0.0000 C   0  0  0  0  0  0  0  0  0  0  0  0
   -1.8596   -0.6946    0.0000 C   0  0  0  0  0  0  0  0  0  0  0  0
   -1.1505   -1.9391    0.0000 C   0  0  0  0  0  0  0  0  0  0  0  0
   -1.1649    0.7525    0.0000 C   0  0  0  0  0  0  0  0  0  0  0  0
   -2.5831   -1.9681    0.0000 C   0  0  0  0  0  0  0  0  0  0  0  0
    3.5382   -0.2026    0.0000 C   0  0  0  0  0  0  0  0  0  0  0  0
    3.6684    1.2880    0.0000 C   0  0  0  0  0  0  0  0  0  0  0  0
    4.3341   -0.4631    0.0000 C   0  0  0  0  0  0  0  0  0  0  0  0
    4.4932    1.3892    0.0000 C   0  0  0  0  0  0  0  0  0  0  0  0
   -3.9868   -2.0259    0.0000 C   0  0  0  0  0  0  0  0  0  0  0  0
   -3.2487   -0.7236    0.0000 C   0  0  0  0  0  0  0  0  0  0  0  0
    5.0576    0.8682    0.0000 C   0  0  0  0  0  0  0  0  0  0  0  0
   -4.7827   -1.7654    0.0000 C   0  0  0  0  0  0  0  0  0  0  0  0
   -3.8421   -0.1592    0.0000 C   0  0  0  0  0  0  0  0  0  0  0  0
   -4.6669   -0.2750    0.0000 C   0  0  0  0  0  0  0  0  0  0  0  0
    5.9258   -0.5064    0.0000 C   0  0  0  0  0  0  0  0  0  0  0  0
   -5.9258   -1.0130    0.0000 C   0  0  0  0  0  0  0  0  0  0  0  0
  1 10  1  0  0  0  0
  2 15  2  0  0  0  0
  3 15  1  0  0  0  0
  3 23  1  0  0  0  0
  3 24  1  0  0  0  0
  4 22  1  0  0  0  0
  4 27  1  0  0  0  0
  4 28  1  0  0  0  0
  5 25  1  0  0  0  0
  5 29  1  0  0  0  0
  5 33  1  0  0  0  0
  6 21  3  0  0  0  0
  7 30  1  0  0  0  0
  7 32  1  0  0  0  0
  7 34  1  0  0  0  0
  8  9  1  0  0  0  0
  8 10  2  0  0  0  0
  8 14  1  0  0  0  0
  9 11  2  0  0  0  0
  9 16  1  0  0  0  0
 10 13  1  0  0  0  0
 11 19  1  0  0  0  0
 11 21  1  0  0  0  0
 12 13  2  0  0  0  0
 12 15  1  0  0  0  0
 12 17  1  0  0  0  0
 14 17  2  0  0  0  0
 16 20  2  0  0  0  0
 18 19  2  0  0  0  0
 18 20  1  0  0  0  0
 18 22  1  0  0  0  0
 23 25  1  0  0  0  0
 24 26  1  0  0  0  0
 26 29  1  0  0  0  0
 27 30  1  0  0  0  0
 28 31  1  0  0  0  0
 31 32  1  0  0  0  0
M  END
> <PUBCHEM_COMPOUND_ID_TYPE>
0

> <PUBCHEM_TOTAL_CHARGE>
0

> <PUBCHEM_SUBSTANCE_ID>
310943581

> <PUBCHEM_SUBSTANCE_VERSION>
1

> <PUBCHEM_EXT_DATASOURCE_NAME>
4488

> <PUBCHEM_EXT_DATASOURCE_REGID>
SCHEMBL16121648

> <PUBCHEM_SUBSTANCE_COMMENT>
InChI=1S/C27H34BrN5O/c1-30-9-3-11-32(15-13-30)20-21-5-7-24(23(17-21)19-29)25-8-6-22(18-26(25)28)27(34)33-12-4-10-31(2)14-16-33/h5-8,17-18H,3-4,9-16,20H2,1-2H3
InChIKey=JTUVNIOXNLICJP-UHFFFAOYSA-N

> <PUBCHEM_SUBSTANCE_SYNONYM>
SCHEMBL16121648

> <PUBCHEM_XREF_EXT_ID>
SCHEMBL16121648

> <PUBCHEM_EXT_DATASOURCE_URL>
https://www.surechembl.org/

> <PUBCHEM_EXT_SUBSTANCE_URL>
https://www.surechembl.org/chemical/SCHEMBL16121648

> <PUBCHEM_CID_ASSOCIATIONS>
86301514  1

> <PUBCHEM_COORDINATE_TYPE>
1
3

$$$$
