310939698
  -OEChem-07211613022D

 33 36  0     1  0  0  0  0  0999 V2000
    4.4324   13.8062    0.0000 O   0  0  0  0  0  0  0  0  0  0  0  0
   -1.3535   12.3138    0.0000 O   0  0  0  0  0  0  0  0  0  0  0  0
    4.3623    9.0138    0.0000 O   0  0  0  0  0  0  0  0  0  0  0  0
   -2.7824   11.4888    0.0000 O   0  0  0  0  0  0  0  0  0  0  0  0
    2.2189   12.7263    0.0000 N   0  0  0  0  0  0  0  0  0  0  0  0
    1.5044   11.4888    0.0000 N   0  0  0  0  0  0  0  0  0  0  0  0
    2.2189   10.2513    0.0000 N   0  0  0  0  0  0  0  0  0  0  0  0
   -4.2114   12.3138    0.0000 N   0  0  0  0  0  0  0  0  0  0  0  0
    2.9334   12.3138    0.0000 C   0  0  0  0  0  0  0  0  0  0  0  0
    3.6478   12.7263    0.0000 C   0  0  0  0  0  0  0  0  0  0  0  0
    1.5044   12.3138    0.0000 C   0  0  0  0  0  0  0  0  0  0  0  0
    3.6478   13.5513    0.0000 C   0  0  0  0  0  0  0  0  0  0  0  0
    4.4324   12.4713    0.0000 C   0  0  0  0  0  0  0  0  0  0  0  0
    2.2189   11.0763    0.0000 C   0  0  0  0  0  0  0  0  0  0  0  0
    2.9334   11.4888    0.0000 C   0  0  0  0  0  0  0  0  0  0  0  0
    0.7899   12.7263    0.0000 C   0  0  0  0  0  0  0  0  0  0  0  0
    4.9174   13.1388    0.0000 C   0  0  0  0  0  0  0  0  0  0  0  0
    0.0755   12.3138    0.0000 C   0  0  0  0  0  0  0  0  0  0  0  0
    0.7899   13.5513    0.0000 C   0  0  0  0  0  0  0  0  0  0  0  0
   -0.6390   12.7263    0.0000 C   0  0  0  0  0  0  0  0  0  0  0  0
    2.9334    9.8388    0.0000 C   0  0  0  0  0  0  0  0  0  0  0  0
    2.9334   13.9638    0.0000 C   0  0  0  0  0  0  0  0  0  0  0  0
    4.8449   11.7569    0.0000 C   0  0  0  0  0  0  0  0  0  0  0  0
    0.0755   13.9638    0.0000 C   0  0  0  0  0  0  0  0  0  0  0  0
   -0.6390   13.5513    0.0000 C   0  0  0  0  0  0  0  0  0  0  0  0
    2.9334    9.0138    0.0000 C   0  0  0  0  0  0  0  0  0  0  0  0
    3.6478   10.2513    0.0000 C   0  0  0  0  0  0  0  0  0  0  0  0
   -2.0679   12.7263    0.0000 C   0  0  0  0  0  0  0  0  0  0  0  0
    3.6478    8.6013    0.0000 C   0  0  0  0  0  0  0  0  0  0  0  0
    4.3623    9.8388    0.0000 C   0  0  0  0  0  0  0  0  0  0  0  0
   -2.7824   12.3138    0.0000 C   0  0  3  0  0  0  0  0  0  0  0  0
   -3.4969   12.7263    0.0000 C   0  0  0  0  0  0  0  0  0  0  0  0
   -4.9258   12.7263    0.0000 C   0  0  0  0  0  0  0  0  0  0  0  0
  1 12  1  0  0  0  0
  1 17  1  0  0  0  0
  2 20  1  0  0  0  0
  2 28  1  0  0  0  0
  3 29  1  0  0  0  0
  3 30  1  0  0  0  0
  4 31  1  0  0  0  0
  5  9  1  0  0  0  0
  5 11  2  0  0  0  0
  6 11  1  0  0  0  0
  6 14  2  0  0  0  0
  7 14  1  0  0  0  0
  7 21  1  0  0  0  0
  8 32  1  0  0  0  0
  8 33  1  0  0  0  0
  9 10  1  0  0  0  0
  9 15  2  0  0  0  0
 10 12  2  0  0  0  0
 10 13  1  0  0  0  0
 11 16  1  0  0  0  0
 12 22  1  0  0  0  0
 13 17  2  0  0  0  0
 13 23  1  0  0  0  0
 14 15  1  0  0  0  0
 16 18  2  0  0  0  0
 16 19  1  0  0  0  0
 18 20  1  0  0  0  0
 19 24  2  0  0  0  0
 20 25  2  0  0  0  0
 21 26  1  0  0  0  0
 21 27  1  0  0  0  0
 24 25  1  0  0  0  0
 26 29  1  0  0  0  0
 27 30  1  0  0  0  0
 28 31  1  0  0  0  0
 31 32  1  0  0  0  0
M  END
> <PUBCHEM_COMPOUND_ID_TYPE>
0

> <PUBCHEM_TOTAL_CHARGE>
0

> <PUBCHEM_SUBSTANCE_ID>
310939698

> <PUBCHEM_SUBSTANCE_VERSION>
1

> <PUBCHEM_EXT_DATASOURCE_NAME>
4488

> <PUBCHEM_EXT_DATASOURCE_REGID>
SCHEMBL16117628

> <PUBCHEM_SUBSTANCE_COMMENT>
InChI=1S/C25H32N4O4/c1-16-14-32-17(2)24(16)22-12-23(27-19-7-9-31-10-8-19)29-25(28-22)18-5-4-6-21(11-18)33-15-20(30)13-26-3/h4-6,11-12,14,19-20,26,30H,7-10,13,15H2,1-3H3,(H,27,28,29)
InChIKey=GUSZGEVGKQUGCN-UHFFFAOYSA-N

> <PUBCHEM_SUBSTANCE_SYNONYM>
SCHEMBL16117628

> <PUBCHEM_XREF_EXT_ID>
SCHEMBL16117628

> <PUBCHEM_EXT_DATASOURCE_URL>
https://www.surechembl.org/

> <PUBCHEM_EXT_SUBSTANCE_URL>
https://www.surechembl.org/chemical/SCHEMBL16117628

> <PUBCHEM_CID_ASSOCIATIONS>
117606928  1

> <PUBCHEM_COORDINATE_TYPE>
1
3

$$$$
