310938701
  -OEChem-07211613022D

 20 22  0     1  0  0  0  0  0999 V2000
    1.1953   -5.7152    0.0000 S   0  0  0  0  0  0  0  0  0  0  0  0
   -0.9481   -6.1277    0.0000 O   0  0  0  0  0  0  0  0  0  0  0  0
   -4.5172   -5.7149    0.0000 O   0  0  0  0  0  0  0  0  0  0  0  0
   -1.6625   -4.8902    0.0000 O   0  0  0  0  0  0  0  0  0  0  0  0
    0.7828   -5.0007    0.0000 O   0  0  0  0  0  0  0  0  0  0  0  0
    1.6078   -6.4297    0.0000 O   0  0  0  0  0  0  0  0  0  0  0  0
    1.9098   -5.3027    0.0000 O   0  0  0  0  0  0  0  0  0  0  0  0
   -2.3770   -6.1277    0.0000 C   0  0  3  0  0  0  0  0  0  0  0  0
   -3.0885   -5.7160    0.0000 C   0  0  3  0  0  0  0  0  0  0  0  0
   -2.3770   -6.9527    0.0000 C   0  0  3  0  0  0  0  0  0  0  0  0
   -3.8029   -6.1277    0.0000 C   0  0  0  0  0  0  0  0  0  0  0  0
   -3.8029   -6.9527    0.0000 C   0  0  3  0  0  0  0  0  0  0  0  0
   -3.5016   -7.6263    0.0000 C   0  0  3  0  0  0  0  0  0  0  0  0
   -3.0885   -7.3659    0.0000 C   0  0  0  0  0  0  0  0  0  0  0  0
   -3.4930   -6.3401    0.0000 C   0  0  0  0  0  0  0  0  0  0  0  0
   -2.8571   -7.9842    0.0000 C   0  0  0  0  0  0  0  0  0  0  0  0
   -1.6625   -5.7152    0.0000 C   0  0  0  0  0  0  0  0  0  0  0  0
   -4.2496   -7.9711    0.0000 C   0  0  0  0  0  0  0  0  0  0  0  0
   -0.2336   -5.7152    0.0000 C   0  0  0  0  0  0  0  0  0  0  0  0
    0.4809   -6.1277    0.0000 C   0  0  0  0  0  0  0  0  0  0  0  0
  1  5  2  0  0  0  0
  1  6  2  0  0  0  0
  1  7  1  0  0  0  0
  1 20  1  0  0  0  0
  2 17  1  0  0  0  0
  2 19  1  0  0  0  0
  3 11  2  0  0  0  0
  4 17  2  0  0  0  0
  8  9  1  0  0  0  0
  8 10  1  0  0  0  0
  8 17  1  0  0  0  0
  9 11  1  0  0  0  0
  9 15  1  0  0  0  0
 10 14  1  0  0  0  0
 10 16  1  0  0  0  0
 11 12  1  0  0  0  0
 12 14  1  0  0  0  0
 12 18  1  0  0  0  0
 13 15  1  0  0  0  0
 13 16  1  0  0  0  0
 13 18  1  0  0  0  0
 19 20  1  0  0  0  0
M  END
> <PUBCHEM_COMPOUND_ID_TYPE>
0

> <PUBCHEM_TOTAL_CHARGE>
0

> <PUBCHEM_SUBSTANCE_ID>
310938701

> <PUBCHEM_SUBSTANCE_VERSION>
1

> <PUBCHEM_EXT_DATASOURCE_NAME>
4488

> <PUBCHEM_EXT_DATASOURCE_REGID>
SCHEMBL16116615

> <PUBCHEM_SUBSTANCE_COMMENT>
InChI=1S/C13H18O6S/c14-12-9-4-7-3-8(6-9)11(10(12)5-7)13(15)19-1-2-20(16,17)18/h7-11H,1-6H2,(H,16,17,18)
InChIKey=KHPACSVIORKRDN-UHFFFAOYSA-N

> <PUBCHEM_SUBSTANCE_SYNONYM>
SCHEMBL16116615

> <PUBCHEM_XREF_EXT_ID>
SCHEMBL16116615

> <PUBCHEM_EXT_DATASOURCE_URL>
https://www.surechembl.org/

> <PUBCHEM_EXT_SUBSTANCE_URL>
https://www.surechembl.org/chemical/SCHEMBL16116615

> <PUBCHEM_CID_ASSOCIATIONS>
117606131  1

> <PUBCHEM_COORDINATE_TYPE>
1
3

$$$$
