310945942
  -OEChem-07211613022D

 38 41  0     1  0  0  0  0  0999 V2000
    3.6513    1.4204    0.0000 O   0  0  0  0  0  0  0  0  0  0  0  0
    1.3926    1.4204    0.0000 O   0  0  0  0  0  0  0  0  0  0  0  0
   -0.0485    1.4204    0.0000 O   0  0  0  0  0  0  0  0  0  0  0  0
    0.6721    1.0046    0.0000 O   0  0  0  0  0  0  0  0  0  0  0  0
   -3.2495    2.6536    0.0000 O   0  0  0  0  0  0  0  0  0  0  0  0
   -2.2102    0.1732    0.0000 O   0  0  0  0  0  0  0  0  0  0  0  0
   -2.9307   -2.7367    0.0000 O   0  0  0  0  0  0  0  0  0  0  0  0
   -2.3211    1.5174    0.0000 N   0  0  0  0  0  0  0  0  0  0  0  0
    1.3926   -0.2287    0.0000 N   0  0  0  0  0  0  0  0  0  0  0  0
   -0.7690    0.1871    0.0000 N   0  0  0  0  0  0  0  0  0  0  0  0
    2.8337    1.4204    0.0000 C   0  0  3  0  0  0  0  0  0  0  0  0
    2.1271    1.0046    0.0000 C   0  0  0  0  0  0  0  0  0  0  0  0
   -1.4896    1.4204    0.0000 C   0  0  3  0  0  0  0  0  0  0  0  0
    3.2495    0.7275    0.0000 C   0  0  0  0  0  0  0  0  0  0  0  0
    2.0994    0.1871    0.0000 C   0  0  3  0  0  0  0  0  0  0  0  0
   -0.7829    1.0185    0.0000 C   0  0  0  0  0  0  0  0  0  0  0  0
   -0.0485   -0.2148    0.0000 C   0  0  3  0  0  0  0  0  0  0  0  0
   -1.1570    2.1964    0.0000 C   0  0  0  0  0  0  0  0  0  0  0  0
    2.8199    2.2795    0.0000 C   0  0  0  0  0  0  0  0  0  0  0  0
    0.6582    0.1732    0.0000 C   0  0  0  0  0  0  0  0  0  0  0  0
   -2.4596    2.3211    0.0000 C   0  0  0  0  0  0  0  0  0  0  0  0
    2.8337   -0.2287    0.0000 C   0  0  0  0  0  0  0  0  0  0  0  0
   -1.4896    0.6028    0.0000 C   0  0  0  0  0  0  0  0  0  0  0  0
   -1.7806    2.7367    0.0000 C   0  0  0  0  0  0  0  0  0  0  0  0
   -0.0485   -1.0600    0.0000 C   0  0  0  0  0  0  0  0  0  0  0  0
    2.8199   -1.0600    0.0000 C   0  0  0  0  0  0  0  0  0  0  0  0
   -0.7690   -1.4619    0.0000 C   0  0  0  0  0  0  0  0  0  0  0  0
    3.5405   -1.4758    0.0000 C   0  0  0  0  0  0  0  0  0  0  0  0
    2.1132   -1.4758    0.0000 C   0  0  0  0  0  0  0  0  0  0  0  0
   -1.4896   -1.0739    0.0000 C   0  0  0  0  0  0  0  0  0  0  0  0
   -0.7690   -2.3072    0.0000 C   0  0  0  0  0  0  0  0  0  0  0  0
   -2.2102   -2.2934    0.0000 C   0  0  0  0  0  0  0  0  0  0  0  0
   -2.1964   -1.4758    0.0000 C   0  0  0  0  0  0  0  0  0  0  0  0
   -1.4896   -2.7091    0.0000 C   0  0  0  0  0  0  0  0  0  0  0  0
    3.5405   -2.3072    0.0000 C   0  0  0  0  0  0  0  0  0  0  0  0
    2.1132   -2.2934    0.0000 C   0  0  0  0  0  0  0  0  0  0  0  0
    2.8199   -2.7091    0.0000 C   0  0  0  0  0  0  0  0  0  0  0  0
   -3.6513   -2.3211    0.0000 C   0  0  0  0  0  0  0  0  0  0  0  0
  1 11  1  0  0  0  0
  1 14  1  0  0  0  0
  2 12  2  0  0  0  0
  3 16  2  0  0  0  0
  4 20  2  0  0  0  0
  5 21  2  0  0  0  0
  6 23  1  0  0  0  0
  7 32  1  0  0  0  0
  7 38  1  0  0  0  0
  8 13  1  0  0  0  0
  8 21  1  0  0  0  0
  9 15  1  0  0  0  0
  9 20  1  0  0  0  0
 10 16  1  0  0  0  0
 10 17  1  0  0  0  0
 11 12  1  0  0  0  0
 11 14  1  0  0  0  0
 11 19  1  0  0  0  0
 12 15  1  0  0  0  0
 13 16  1  0  0  0  0
 13 18  1  0  0  0  0
 13 23  1  0  0  0  0
 15 22  1  0  0  0  0
 17 20  1  0  0  0  0
 17 25  1  0  0  0  0
 18 24  1  0  0  0  0
 21 24  1  0  0  0  0
 22 26  1  0  0  0  0
 25 27  1  0  0  0  0
 26 28  2  0  0  0  0
 26 29  1  0  0  0  0
 27 30  2  0  0  0  0
 27 31  1  0  0  0  0
 28 35  1  0  0  0  0
 29 36  2  0  0  0  0
 30 33  1  0  0  0  0
 31 34  2  0  0  0  0
 32 33  2  0  0  0  0
 32 34  1  0  0  0  0
 35 37  2  0  0  0  0
 36 37  1  0  0  0  0
M  END
> <PUBCHEM_COMPOUND_ID_TYPE>
0

> <PUBCHEM_TOTAL_CHARGE>
0

> <PUBCHEM_SUBSTANCE_ID>
310945942

> <PUBCHEM_SUBSTANCE_VERSION>
1

> <PUBCHEM_EXT_DATASOURCE_NAME>
4488

> <PUBCHEM_EXT_DATASOURCE_REGID>
SCHEMBL16124047

> <PUBCHEM_SUBSTANCE_COMMENT>
InChI=1S/C28H33N3O7/c1-27(17-38-27)24(34)21(14-18-6-4-3-5-7-18)29-25(35)22(15-19-8-10-20(37-2)11-9-19)30-26(36)28(16-32)13-12-23(33)31-28/h3-11,21-22,32H,12-17H2,1-2H3,(H,29,35)(H,30,36)(H,31,33)
InChIKey=URDOTMFJWCDCIA-UHFFFAOYSA-N

> <PUBCHEM_SUBSTANCE_SYNONYM>
SCHEMBL16124047

> <PUBCHEM_XREF_EXT_ID>
SCHEMBL16124047

> <PUBCHEM_EXT_DATASOURCE_URL>
https://www.surechembl.org/

> <PUBCHEM_EXT_SUBSTANCE_URL>
https://www.surechembl.org/chemical/SCHEMBL16124047

> <PUBCHEM_CID_ASSOCIATIONS>
117611925  1

> <PUBCHEM_COORDINATE_TYPE>
1
3

$$$$
