310943720
  -OEChem-07211613022D

 24 26  0     1  0  0  0  0  0999 V2000
    1.9813   -1.4500    0.0000 F   0  0  0  0  0  0  0  0  0  0  0  0
    3.3813    2.0000    0.0000 O   0  0  0  0  0  0  0  0  0  0  0  0
   -2.3313   -1.5375    0.0000 N   0  0  3  0  0  0  0  0  0  0  0  0
   -4.1188   -1.0000    0.0000 N   0  0  3  0  0  0  0  0  0  0  0  0
    1.2438   -0.2625    0.0000 C   0  0  0  0  0  0  0  0  0  0  0  0
    0.5313   -0.7000    0.0000 C   0  0  0  0  0  0  0  0  0  0  0  0
    1.9563   -0.6750    0.0000 C   0  0  0  0  0  0  0  0  0  0  0  0
   -0.8937   -1.5250    0.0000 C   0  0  0  0  0  0  0  0  0  0  0  0
    1.2563    0.5625    0.0000 C   0  0  0  0  0  0  0  0  0  0  0  0
   -0.1938   -0.3000    0.0000 C   0  0  0  0  0  0  0  0  0  0  0  0
    0.5313   -1.5250    0.0000 C   0  0  0  0  0  0  0  0  0  0  0  0
    2.6938    0.5500    0.0000 C   0  0  0  0  0  0  0  0  0  0  0  0
    2.6813   -0.2625    0.0000 C   0  0  0  0  0  0  0  0  0  0  0  0
   -0.8937   -0.7000    0.0000 C   0  0  0  0  0  0  0  0  0  0  0  0
   -0.1813   -1.9375    0.0000 C   0  0  0  0  0  0  0  0  0  0  0  0
    1.9438    0.9626    0.0000 C   0  0  0  0  0  0  0  0  0  0  0  0
   -1.6188   -1.9375    0.0000 C   0  0  0  0  0  0  0  0  0  0  0  0
    3.3938    0.9750    0.0000 C   0  0  0  0  0  0  0  0  0  0  0  0
   -2.9938   -2.0000    0.0000 C   0  0  0  0  0  0  0  0  0  0  0  0
   -2.2813   -0.7125    0.0000 C   0  0  0  0  0  0  0  0  0  0  0  0
   -3.8188   -1.7625    0.0000 C   0  0  0  0  0  0  0  0  0  0  0  0
   -2.8813   -0.1500    0.0000 C   0  0  0  0  0  0  0  0  0  0  0  0
   -3.7188   -0.2750    0.0000 C   0  0  0  0  0  0  0  0  0  0  0  0
   -4.1188   -1.0000    0.0000 C   0  0  0  0  0  0  0  0  0  0  0  0
  1  7  1  0  0  0  0
  2 18  2  0  0  0  0
  3 17  1  0  0  0  0
  3 19  1  0  0  0  0
  3 20  1  0  0  0  0
  4 21  1  0  0  0  0
  4 23  1  0  0  0  0
  4 24  1  0  0  0  0
  5  6  1  0  0  0  0
  5  7  2  0  0  0  0
  5  9  1  0  0  0  0
  6 10  2  0  0  0  0
  6 11  1  0  0  0  0
  7 13  1  0  0  0  0
  8 14  2  0  0  0  0
  8 15  1  0  0  0  0
  8 17  1  0  0  0  0
  9 16  2  0  0  0  0
 10 14  1  0  0  0  0
 11 15  2  0  0  0  0
 12 13  2  0  0  0  0
 12 16  1  0  0  0  0
 12 18  1  0  0  0  0
 19 21  1  0  0  0  0
 20 22  1  0  0  0  0
 22 23  1  0  0  0  0
M  END
> <PUBCHEM_COMPOUND_ID_TYPE>
0

> <PUBCHEM_TOTAL_CHARGE>
0

> <PUBCHEM_SUBSTANCE_ID>
310943720

> <PUBCHEM_SUBSTANCE_VERSION>
1

> <PUBCHEM_EXT_DATASOURCE_NAME>
4488

> <PUBCHEM_EXT_DATASOURCE_REGID>
SCHEMBL16121788

> <PUBCHEM_SUBSTANCE_COMMENT>
InChI=1S/C20H23FN2O/c1-22-9-2-10-23(12-11-22)14-16-3-6-18(7-4-16)19-8-5-17(15-24)13-20(19)21/h3-8,13,15H,2,9-12,14H2,1H3
InChIKey=PCFJIBRAFDCHTI-UHFFFAOYSA-N

> <PUBCHEM_SUBSTANCE_SYNONYM>
SCHEMBL16121788

> <PUBCHEM_XREF_EXT_ID>
SCHEMBL16121788

> <PUBCHEM_EXT_DATASOURCE_URL>
https://www.surechembl.org/

> <PUBCHEM_EXT_SUBSTANCE_URL>
https://www.surechembl.org/chemical/SCHEMBL16121788

> <PUBCHEM_CID_ASSOCIATIONS>
86300898  1

> <PUBCHEM_COORDINATE_TYPE>
1
3

$$$$
