310947845
  -OEChem-07211613022D

 14 14  0     1  0  0  0  0  0999 V2000
    2.5749    1.2456    0.0000 O   0  0  0  0  0  0  0  0  0  0  0  0
    2.5749    2.8956    0.0000 N   0  0  3  0  0  0  0  0  0  0  0  0
    3.2894    2.4831    0.0000 C   0  0  0  0  0  0  0  0  0  0  0  0
    3.2894    1.6581    0.0000 C   0  0  0  0  0  0  0  0  0  0  0  0
    2.5749    3.7206    0.0000 C   0  0  0  0  0  0  0  0  0  0  0  0
    1.8604    2.4831    0.0000 C   0  0  0  0  0  0  0  0  0  0  0  0
    3.2894    4.9581    0.0000 C   0  0  0  0  0  0  0  0  0  0  0  0
    3.2894    4.1331    0.0000 C   0  0  0  0  0  0  0  0  0  0  0  0
    1.8604    1.6581    0.0000 C   0  0  0  0  0  0  0  0  0  0  0  0
    4.0038    2.8956    0.0000 C   0  0  0  0  0  0  0  0  0  0  0  0
    3.2894    3.3081    0.0000 C   0  0  0  0  0  0  0  0  0  0  0  0
    2.4644    4.9581    0.0000 C   0  0  0  0  0  0  0  0  0  0  0  0
    4.1144    4.9581    0.0000 C   0  0  0  0  0  0  0  0  0  0  0  0
    3.2894    5.7831    0.0000 C   0  0  0  0  0  0  0  0  0  0  0  0
  1  4  1  0  0  0  0
  1  9  1  0  0  0  0
  2  3  1  0  0  0  0
  2  5  1  0  0  0  0
  2  6  1  0  0  0  0
  3  4  1  0  0  0  0
  3 10  1  0  0  0  0
  3 11  1  0  0  0  0
  5  8  1  0  0  0  0
  6  9  1  0  0  0  0
  7  8  1  0  0  0  0
  7 12  1  0  0  0  0
  7 13  1  0  0  0  0
  7 14  1  0  0  0  0
M  END
> <PUBCHEM_COMPOUND_ID_TYPE>
0

> <PUBCHEM_TOTAL_CHARGE>
0

> <PUBCHEM_SUBSTANCE_ID>
310947845

> <PUBCHEM_SUBSTANCE_VERSION>
1

> <PUBCHEM_EXT_DATASOURCE_NAME>
4488

> <PUBCHEM_EXT_DATASOURCE_REGID>
SCHEMBL16126019

> <PUBCHEM_SUBSTANCE_COMMENT>
InChI=1S/C12H25NO/c1-11(2,3)6-7-13-8-9-14-10-12(13,4)5/h6-10H2,1-5H3
InChIKey=MFWJEPCRYSDXOD-UHFFFAOYSA-N

> <PUBCHEM_SUBSTANCE_SYNONYM>
SCHEMBL16126019

> <PUBCHEM_XREF_EXT_ID>
SCHEMBL16126019

> <PUBCHEM_EXT_DATASOURCE_URL>
https://www.surechembl.org/

> <PUBCHEM_EXT_SUBSTANCE_URL>
https://www.surechembl.org/chemical/SCHEMBL16126019

> <PUBCHEM_CID_ASSOCIATIONS>
117613510  1

> <PUBCHEM_COORDINATE_TYPE>
1
3

> <PUBCHEM_BONDANNOTATIONS>
7  12  3
7  13  3

$$$$
