310935129
  -OEChem-07211613022D

 28 31  0     1  0  0  0  0  0999 V2000
    3.3790    3.9613    0.0000 F   0  0  0  0  0  0  0  0  0  0  0  0
    5.0200    4.1338    0.0000 F   0  0  0  0  0  0  0  0  0  0  0  0
    5.2463   -0.4353    0.0000 O   0  0  0  0  0  0  0  0  0  0  0  0
    6.2161    0.8996    0.0000 O   0  0  0  0  0  0  0  0  0  0  0  0
   -0.1435   -0.0305    0.0000 N   0  0  0  0  0  0  0  0  0  0  0  0
   -0.6284   -0.6979    0.0000 N   0  0  0  0  0  0  0  0  0  0  0  0
    5.3956    0.9858    0.0000 N   0  0  0  0  0  0  0  0  0  0  0  0
    3.6777    1.1191    0.0000 C   0  0  3  0  0  0  0  0  0  0  0  0
    4.0902    0.4046    0.0000 C   0  0  3  0  0  0  0  0  0  0  0  0
    2.7845    0.1271    0.0000 C   0  0  0  0  0  0  0  0  0  0  0  0
    4.0133    1.8727    0.0000 C   0  0  0  0  0  0  0  0  0  0  0  0
    2.0701   -0.2854    0.0000 C   0  0  0  0  0  0  0  0  0  0  0  0
    2.8708    0.9475    0.0000 C   0  0  0  0  0  0  0  0  0  0  0  0
    3.5382   -0.2085    0.0000 C   0  0  0  0  0  0  0  0  0  0  0  0
    3.5284    2.5402    0.0000 C   0  0  0  0  0  0  0  0  0  0  0  0
    0.6411   -0.2854    0.0000 C   0  0  0  0  0  0  0  0  0  0  0  0
    0.6411   -1.1104    0.0000 C   0  0  0  0  0  0  0  0  0  0  0  0
    1.3556    0.1271    0.0000 C   0  0  0  0  0  0  0  0  0  0  0  0
    4.9107    0.3184    0.0000 C   0  0  0  0  0  0  0  0  0  0  0  0
    3.8639    3.2939    0.0000 C   0  0  0  0  0  0  0  0  0  0  0  0
    4.8338    1.9590    0.0000 C   0  0  0  0  0  0  0  0  0  0  0  0
    2.0701   -1.1104    0.0000 C   0  0  0  0  0  0  0  0  0  0  0  0
    4.6844    3.3801    0.0000 C   0  0  0  0  0  0  0  0  0  0  0  0
    1.3556   -1.5229    0.0000 C   0  0  0  0  0  0  0  0  0  0  0  0
    5.1693    2.7127    0.0000 C   0  0  0  0  0  0  0  0  0  0  0  0
   -0.1435   -1.3654    0.0000 C   0  0  0  0  0  0  0  0  0  0  0  0
    2.7079    2.4539    0.0000 C   0  0  0  0  0  0  0  0  0  0  0  0
   -0.3984    0.7541    0.0000 C   0  0  0  0  0  0  0  0  0  0  0  0
  1 20  1  0  0  0  0
  2 23  1  0  0  0  0
  3 19  2  0  0  0  0
  4  7  1  0  0  0  0
  5  6  1  0  0  0  0
  5 16  1  0  0  0  0
  5 28  1  0  0  0  0
  6 26  2  0  0  0  0
  7 19  1  0  0  0  0
  8  9  1  0  0  0  0
  8 11  1  0  0  0  0
  8 13  1  0  0  0  0
  9 14  1  0  0  0  0
  9 19  1  0  0  0  0
 10 12  1  0  0  0  0
 10 13  2  0  0  0  0
 10 14  1  0  0  0  0
 11 15  2  0  0  0  0
 11 21  1  0  0  0  0
 12 18  2  0  0  0  0
 12 22  1  0  0  0  0
 15 20  1  0  0  0  0
 15 27  1  0  0  0  0
 16 17  2  0  0  0  0
 16 18  1  0  0  0  0
 17 24  1  0  0  0  0
 17 26  1  0  0  0  0
 20 23  2  0  0  0  0
 21 25  2  0  0  0  0
 22 24  2  0  0  0  0
 23 25  1  0  0  0  0
M  END
> <PUBCHEM_COMPOUND_ID_TYPE>
0

> <PUBCHEM_TOTAL_CHARGE>
0

> <PUBCHEM_SUBSTANCE_ID>
310935129

> <PUBCHEM_SUBSTANCE_VERSION>
1

> <PUBCHEM_EXT_DATASOURCE_NAME>
4488

> <PUBCHEM_EXT_DATASOURCE_REGID>
SCHEMBL16112656

> <PUBCHEM_SUBSTANCE_COMMENT>
InChI=1S/C21H19F2N3O2/c1-11-15(5-6-18(22)20(11)23)16-7-14(8-17(16)21(27)25-28)12-3-4-13-10-24-26(2)19(13)9-12/h3-7,9-10,16-17,28H,8H2,1-2H3,(H,25,27)
InChIKey=UOPGXHLHXYZOMK-UHFFFAOYSA-N

> <PUBCHEM_SUBSTANCE_SYNONYM>
SCHEMBL16112656

> <PUBCHEM_XREF_EXT_ID>
SCHEMBL16112656

> <PUBCHEM_EXT_DATASOURCE_URL>
https://www.surechembl.org/

> <PUBCHEM_EXT_SUBSTANCE_URL>
https://www.surechembl.org/chemical/SCHEMBL16112656

> <PUBCHEM_CID_ASSOCIATIONS>
117603217  1

> <PUBCHEM_COORDINATE_TYPE>
1
3

$$$$
