310944741
  -OEChem-07211613022D

 32 35  0     1  0  0  0  0  0999 V2000
   -3.7035   -0.5140    0.0000 Cl  0  0  0  0  0  0  0  0  0  0  0  0
   -2.8240    2.3720    0.0000 Cl  0  0  0  0  0  0  0  0  0  0  0  0
   -0.6812   -0.5140    0.0000 O   0  0  0  0  0  0  0  0  0  0  0  0
    0.7432    1.9632    0.0000 O   0  0  0  0  0  0  0  0  0  0  0  0
    4.9544   -0.7617    0.0000 O   0  0  0  0  0  0  0  0  0  0  0  0
    1.4864    0.7246    0.0000 N   0  0  0  0  0  0  0  0  0  0  0  0
    3.5424   -0.7617    0.0000 N   0  0  0  0  0  0  0  0  0  0  0  0
   -0.6688    1.1457    0.0000 N   0  0  0  0  0  0  0  0  0  0  0  0
    2.2667   -0.3406    0.0000 C   0  0  3  0  0  0  0  0  0  0  0  0
    2.7497    0.3282    0.0000 C   0  0  3  0  0  0  0  0  0  0  0  0
   -2.8116    0.7370    0.0000 C   0  0  0  0  0  0  0  0  0  0  0  0
    1.4864   -0.0929    0.0000 C   0  0  0  0  0  0  0  0  0  0  0  0
    2.2667    0.9847    0.0000 C   0  0  0  0  0  0  0  0  0  0  0  0
    3.5424    0.0558    0.0000 C   0  0  0  0  0  0  0  0  0  0  0  0
    2.7745   -1.0219    0.0000 C   0  0  0  0  0  0  0  0  0  0  0  0
   -1.3872    0.7370    0.0000 C   0  0  0  0  0  0  0  0  0  0  0  0
   -3.5424    1.1457    0.0000 C   0  0  0  0  0  0  0  0  0  0  0  0
    0.7556    1.1333    0.0000 C   0  0  0  0  0  0  0  0  0  0  0  0
   -2.8116   -0.0929    0.0000 C   0  0  0  0  0  0  0  0  0  0  0  0
   -1.3996   -0.0929    0.0000 C   0  0  0  0  0  0  0  0  0  0  0  0
   -2.0933    1.1333    0.0000 C   0  0  0  0  0  0  0  0  0  0  0  0
   -2.0933   -0.5016    0.0000 C   0  0  0  0  0  0  0  0  0  0  0  0
    4.2361   -1.1829    0.0000 C   0  0  0  0  0  0  0  0  0  0  0  0
   -3.5300    1.9756    0.0000 C   0  0  0  0  0  0  0  0  0  0  0  0
    0.0495    0.7246    0.0000 C   0  0  0  0  0  0  0  0  0  0  0  0
   -4.2361    0.7370    0.0000 C   0  0  0  0  0  0  0  0  0  0  0  0
   -4.2361    2.3720    0.0000 C   0  0  0  0  0  0  0  0  0  0  0  0
    4.2485   -2.0128    0.0000 C   0  0  0  0  0  0  0  0  0  0  0  0
   -4.9544    1.1457    0.0000 C   0  0  0  0  0  0  0  0  0  0  0  0
   -4.9544    1.9632    0.0000 C   0  0  0  0  0  0  0  0  0  0  0  0
    0.0371   -0.0929    0.0000 C   0  0  0  0  0  0  0  0  0  0  0  0
    3.5177   -2.3720    0.0000 C   0  0  0  0  0  0  0  0  0  0  0  0
  1 19  1  0  0  0  0
  2 24  1  0  0  0  0
  3 20  1  0  0  0  0
  3 31  1  0  0  0  0
  4 18  2  0  0  0  0
  5 23  2  0  0  0  0
  6 12  1  0  0  0  0
  6 13  1  0  0  0  0
  6 18  1  0  0  0  0
  7 14  1  0  0  0  0
  7 15  1  0  0  0  0
  7 23  1  0  0  0  0
  8 16  1  0  0  0  0
  8 25  1  0  0  0  0
  9 10  1  0  0  0  0
  9 12  1  0  0  0  0
  9 15  1  0  0  0  0
 10 13  1  0  0  0  0
 10 14  1  0  0  0  0
 11 17  1  0  0  0  0
 11 19  2  0  0  0  0
 11 21  1  0  0  0  0
 16 20  1  0  0  0  0
 16 21  2  0  0  0  0
 17 24  1  0  0  0  0
 17 26  2  0  0  0  0
 18 25  1  0  0  0  0
 19 22  1  0  0  0  0
 20 22  2  0  0  0  0
 23 28  1  0  0  0  0
 24 27  2  0  0  0  0
 26 29  1  0  0  0  0
 27 30  1  0  0  0  0
 28 32  2  0  0  0  0
 29 30  2  0  0  0  0
M  END
> <PUBCHEM_COMPOUND_ID_TYPE>
0

> <PUBCHEM_TOTAL_CHARGE>
0

> <PUBCHEM_SUBSTANCE_ID>
310944741

> <PUBCHEM_SUBSTANCE_VERSION>
1

> <PUBCHEM_EXT_DATASOURCE_NAME>
4488

> <PUBCHEM_EXT_DATASOURCE_REGID>
SCHEMBL16122820

> <PUBCHEM_SUBSTANCE_COMMENT>
InChI=1S/C24H25Cl2N3O3/c1-3-23(30)28-11-15-13-29(14-16(15)12-28)24(31)10-27-21-8-18(20(26)9-22(21)32-2)17-6-4-5-7-19(17)25/h3-9,15-16,27H,1,10-14H2,2H3
InChIKey=GISIJQLYJFHFPU-UHFFFAOYSA-N

> <PUBCHEM_SUBSTANCE_SYNONYM>
SCHEMBL16122820

> <PUBCHEM_XREF_EXT_ID>
SCHEMBL16122820

> <PUBCHEM_EXT_DATASOURCE_URL>
https://www.surechembl.org/

> <PUBCHEM_EXT_SUBSTANCE_URL>
https://www.surechembl.org/chemical/SCHEMBL16122820

> <PUBCHEM_CID_ASSOCIATIONS>
117610958  1

> <PUBCHEM_COORDINATE_TYPE>
1
3

$$$$
