310943560
  -OEChem-07211613022D

 32 35  0     1  0  0  0  0  0999 V2000
    1.0187   -1.7312    0.0000 F   0  0  0  0  0  0  0  0  0  0  0  0
    2.4436    2.0018    0.0000 O   0  0  0  0  0  0  0  0  0  0  0  0
    3.2272    0.5343    0.0000 N   0  0  0  0  0  0  0  0  0  0  0  0
   -3.2842   -1.5317    0.0000 N   0  0  3  0  0  0  0  0  0  0  0  0
    5.0082   -0.0071    0.0000 N   0  0  3  0  0  0  0  0  0  0  0  0
   -5.0652   -1.0045    0.0000 N   0  0  3  0  0  0  0  0  0  0  0  0
    0.2921   -0.2636    0.0000 C   0  0  0  0  0  0  0  0  0  0  0  0
    1.7312    0.5486    0.0000 C   0  0  0  0  0  0  0  0  0  0  0  0
    1.0045   -0.6768    0.0000 C   0  0  0  0  0  0  0  0  0  0  0  0
   -0.4203   -0.7053    0.0000 C   0  0  0  0  0  0  0  0  0  0  0  0
    2.4436    0.9618    0.0000 C   0  0  0  0  0  0  0  0  0  0  0  0
    1.7169   -0.2778    0.0000 C   0  0  0  0  0  0  0  0  0  0  0  0
    0.3064    0.5486    0.0000 C   0  0  0  0  0  0  0  0  0  0  0  0
    1.0045    0.9475    0.0000 C   0  0  0  0  0  0  0  0  0  0  0  0
   -1.1327   -0.2921    0.0000 C   0  0  0  0  0  0  0  0  0  0  0  0
   -0.4203   -1.5174    0.0000 C   0  0  0  0  0  0  0  0  0  0  0  0
   -1.8737   -1.5317    0.0000 C   0  0  0  0  0  0  0  0  0  0  0  0
   -1.8594   -0.7053    0.0000 C   0  0  0  0  0  0  0  0  0  0  0  0
   -1.1470   -1.9306    0.0000 C   0  0  0  0  0  0  0  0  0  0  0  0
    3.5264   -0.2209    0.0000 C   0  0  0  0  0  0  0  0  0  0  0  0
    3.6547    1.2609    0.0000 C   0  0  0  0  0  0  0  0  0  0  0  0
   -2.5860   -1.9449    0.0000 C   0  0  0  0  0  0  0  0  0  0  0  0
    4.3385   -0.4773    0.0000 C   0  0  0  0  0  0  0  0  0  0  0  0
    4.4668    1.3749    0.0000 C   0  0  0  0  0  0  0  0  0  0  0  0
    5.0510    0.8193    0.0000 C   0  0  0  0  0  0  0  0  0  0  0  0
   -3.9681   -2.0019    0.0000 C   0  0  0  0  0  0  0  0  0  0  0  0
   -3.2272   -0.7195    0.0000 C   0  0  0  0  0  0  0  0  0  0  0  0
   -4.7660   -1.7597    0.0000 C   0  0  0  0  0  0  0  0  0  0  0  0
   -3.8256   -0.1496    0.0000 C   0  0  0  0  0  0  0  0  0  0  0  0
   -4.6378   -0.2636    0.0000 C   0  0  0  0  0  0  0  0  0  0  0  0
    5.9058   -0.5201    0.0000 C   0  0  0  0  0  0  0  0  0  0  0  0
   -5.9058   -1.0045    0.0000 C   0  0  0  0  0  0  0  0  0  0  0  0
  1  9  1  0  0  0  0
  2 11  2  0  0  0  0
  3 11  1  0  0  0  0
  3 20  1  0  0  0  0
  3 21  1  0  0  0  0
  4 22  1  0  0  0  0
  4 26  1  0  0  0  0
  4 27  1  0  0  0  0
  5 23  1  0  0  0  0
  5 25  1  0  0  0  0
  5 31  1  0  0  0  0
  6 28  1  0  0  0  0
  6 30  1  0  0  0  0
  6 32  1  0  0  0  0
  7  9  2  0  0  0  0
  7 10  1  0  0  0  0
  7 13  1  0  0  0  0
  8 11  1  0  0  0  0
  8 12  2  0  0  0  0
  8 14  1  0  0  0  0
  9 12  1  0  0  0  0
 10 15  2  0  0  0  0
 10 16  1  0  0  0  0
 13 14  2  0  0  0  0
 15 18  1  0  0  0  0
 16 19  2  0  0  0  0
 17 18  2  0  0  0  0
 17 19  1  0  0  0  0
 17 22  1  0  0  0  0
 20 23  1  0  0  0  0
 21 24  1  0  0  0  0
 24 25  1  0  0  0  0
 26 28  1  0  0  0  0
 27 29  1  0  0  0  0
 29 30  1  0  0  0  0
M  END
> <PUBCHEM_COMPOUND_ID_TYPE>
0

> <PUBCHEM_TOTAL_CHARGE>
0

> <PUBCHEM_SUBSTANCE_ID>
310943560

> <PUBCHEM_SUBSTANCE_VERSION>
1

> <PUBCHEM_EXT_DATASOURCE_NAME>
4488

> <PUBCHEM_EXT_DATASOURCE_REGID>
SCHEMBL16121627

> <PUBCHEM_SUBSTANCE_COMMENT>
InChI=1S/C26H35FN4O/c1-28-11-3-13-30(17-15-28)20-21-5-7-22(8-6-21)24-10-9-23(19-25(24)27)26(32)31-14-4-12-29(2)16-18-31/h5-10,19H,3-4,11-18,20H2,1-2H3
InChIKey=NFLDOIPXZWTCHU-UHFFFAOYSA-N

> <PUBCHEM_SUBSTANCE_SYNONYM>
SCHEMBL16121627

> <PUBCHEM_XREF_EXT_ID>
SCHEMBL16121627

> <PUBCHEM_EXT_DATASOURCE_URL>
https://www.surechembl.org/

> <PUBCHEM_EXT_SUBSTANCE_URL>
https://www.surechembl.org/chemical/SCHEMBL16121627

> <PUBCHEM_CID_ASSOCIATIONS>
117609970  1

> <PUBCHEM_COORDINATE_TYPE>
1
3

$$$$
