310930826
  -OEChem-07211613022D

 34 38  0     1  0  0  0  0  0999 V2000
    2.5645    9.9000    0.0000 F   0  0  0  0  0  0  0  0  0  0  0  0
    0.8335    6.9020    0.0000 F   0  0  0  0  0  0  0  0  0  0  0  0
    0.0085    5.4730    0.0000 F   0  0  0  0  0  0  0  0  0  0  0  0
   -0.2934    6.6000    0.0000 F   0  0  0  0  0  0  0  0  0  0  0  0
    3.2789    8.6625    0.0000 O   0  0  0  0  0  0  0  0  0  0  0  0
    2.5645    7.4250    0.0000 N   0  0  0  0  0  0  0  0  0  0  0  0
    1.1355    7.4250    0.0000 N   0  0  0  0  0  0  0  0  0  0  0  0
    2.5645    5.7750    0.0000 N   0  0  0  0  0  0  0  0  0  0  0  0
    3.2789    4.5375    0.0000 N   0  0  0  0  0  0  0  0  0  0  0  0
    2.5645    3.3000    0.0000 N   0  0  0  0  0  0  0  0  0  0  0  0
    1.0654    3.4576    0.0000 N   0  0  0  0  0  0  0  0  0  0  0  0
    1.8500    7.0125    0.0000 C   0  0  0  0  0  0  0  0  0  0  0  0
    1.8500    8.6625    0.0000 C   0  0  0  0  0  0  0  0  0  0  0  0
    2.5645    8.2500    0.0000 C   0  0  0  0  0  0  0  0  0  0  0  0
    1.1355    8.2500    0.0000 C   0  0  0  0  0  0  0  0  0  0  0  0
    1.8500    6.1875    0.0000 C   0  0  3  0  0  0  0  0  0  0  0  0
    3.2789    7.0125    0.0000 C   0  0  0  0  0  0  0  0  0  0  0  0
    1.8500    9.4875    0.0000 C   0  0  0  0  0  0  0  0  0  0  0  0
    2.5645    4.9500    0.0000 C   0  0  0  0  0  0  0  0  0  0  0  0
    1.8500    4.5375    0.0000 C   0  0  0  0  0  0  0  0  0  0  0  0
    0.4210    8.6625    0.0000 C   0  0  0  0  0  0  0  0  0  0  0  0
    1.1355    5.7750    0.0000 C   0  0  0  0  0  0  0  0  0  0  0  0
    1.8500    3.7125    0.0000 C   0  0  0  0  0  0  0  0  0  0  0  0
    1.1355    9.9000    0.0000 C   0  0  0  0  0  0  0  0  0  0  0  0
    3.9934    7.4250    0.0000 C   0  0  0  0  0  0  0  0  0  0  0  0
    3.2789    6.1875    0.0000 C   0  0  0  0  0  0  0  0  0  0  0  0
    0.4210    6.1875    0.0000 C   0  0  0  0  0  0  0  0  0  0  0  0
    0.4210    9.4875    0.0000 C   0  0  0  0  0  0  0  0  0  0  0  0
    1.0654    4.7924    0.0000 C   0  0  0  0  0  0  0  0  0  0  0  0
    3.2789    3.7125    0.0000 C   0  0  0  0  0  0  0  0  0  0  0  0
    0.5804    4.1250    0.0000 C   0  0  0  0  0  0  0  0  0  0  0  0
    4.7079    7.0125    0.0000 C   0  0  0  0  0  0  0  0  0  0  0  0
    3.9934    5.7750    0.0000 C   0  0  0  0  0  0  0  0  0  0  0  0
    4.7079    6.1875    0.0000 C   0  0  0  0  0  0  0  0  0  0  0  0
  1 18  1  0  0  0  0
  2 27  1  0  0  0  0
  3 27  1  0  0  0  0
  4 27  1  0  0  0  0
  5 14  2  0  0  0  0
  6 12  1  0  0  0  0
  6 14  1  0  0  0  0
  6 17  1  0  0  0  0
  7 12  2  0  0  0  0
  7 15  1  0  0  0  0
  8 16  1  0  0  0  0
  8 19  1  0  0  0  0
  9 19  2  0  0  0  0
  9 30  1  0  0  0  0
 10 23  1  0  0  0  0
 10 30  2  0  0  0  0
 11 23  1  0  0  0  0
 11 31  1  0  0  0  0
 12 16  1  0  0  0  0
 13 14  1  0  0  0  0
 13 15  1  0  0  0  0
 13 18  2  0  0  0  0
 15 21  2  0  0  0  0
 16 22  1  0  0  0  0
 17 25  2  0  0  0  0
 17 26  1  0  0  0  0
 18 24  1  0  0  0  0
 19 20  1  0  0  0  0
 20 23  2  0  0  0  0
 20 29  1  0  0  0  0
 21 28  1  0  0  0  0
 22 27  1  0  0  0  0
 24 28  2  0  0  0  0
 25 32  1  0  0  0  0
 26 33  2  0  0  0  0
 29 31  2  0  0  0  0
 32 34  2  0  0  0  0
 33 34  1  0  0  0  0
M  END
> <PUBCHEM_COMPOUND_ID_TYPE>
0

> <PUBCHEM_TOTAL_CHARGE>
0

> <PUBCHEM_SUBSTANCE_ID>
310930826

> <PUBCHEM_SUBSTANCE_VERSION>
1

> <PUBCHEM_EXT_DATASOURCE_NAME>
4488

> <PUBCHEM_EXT_DATASOURCE_REGID>
SCHEMBL16108123

> <PUBCHEM_SUBSTANCE_COMMENT>
InChI=1S/C23H16F4N6O/c24-15-7-4-8-16-18(15)22(34)33(13-5-2-1-3-6-13)21(32-16)17(11-23(25,26)27)31-20-14-9-10-28-19(14)29-12-30-20/h1-10,12,17H,11H2,(H2,28,29,30,31)
InChIKey=RHVYKYKAZXBIRE-UHFFFAOYSA-N

> <PUBCHEM_SUBSTANCE_SYNONYM>
SCHEMBL16108123

> <PUBCHEM_XREF_EXT_ID>
SCHEMBL16108123

> <PUBCHEM_EXT_DATASOURCE_URL>
https://www.surechembl.org/

> <PUBCHEM_EXT_SUBSTANCE_URL>
https://www.surechembl.org/chemical/SCHEMBL16108123

> <PUBCHEM_CID_ASSOCIATIONS>
117599824  1

> <PUBCHEM_COORDINATE_TYPE>
1
3

$$$$
