310935533
  -OEChem-07211613022D

 28 30  0     1  0  0  0  0  0999 V2000
    2.4081   -1.2263    0.0000 S   0  0  0  0  0  0  0  0  0  0  0  0
    1.6946    0.0000    0.0000 F   0  0  0  0  0  0  0  0  0  0  0  0
    0.9811   -1.2487    0.0000 F   0  0  0  0  0  0  0  0  0  0  0  0
    2.4081   -0.4013    0.0000 F   0  0  0  0  0  0  0  0  0  0  0  0
    3.1216   -1.6277    0.0000 O   0  0  0  0  0  0  0  0  0  0  0  0
    2.8094   -0.5128    0.0000 O   0  0  0  0  0  0  0  0  0  0  0  0
    2.0068   -1.9398    0.0000 O   0  0  0  0  0  0  0  0  0  0  0  0
    4.5487   -1.6277    0.0000 O   0  0  0  0  0  0  0  0  0  0  0  0
    5.9757   -2.4527    0.0000 O   0  0  0  0  0  0  0  0  0  0  0  0
    5.2622   -3.7013    0.0000 O   0  0  0  0  0  0  0  0  0  0  0  0
    2.3858   -3.7237    0.0000 N   0  0  0  0  0  0  0  0  0  0  0  0
    1.6500   -3.9689    0.0000 N   0  0  0  0  0  0  0  0  0  0  0  0
    2.3858   -2.8987    0.0000 C   0  0  0  0  0  0  0  0  0  0  0  0
    3.1216   -2.4527    0.0000 C   0  0  0  0  0  0  0  0  0  0  0  0
    3.8351   -2.8763    0.0000 C   0  0  0  0  0  0  0  0  0  0  0  0
    1.6277   -2.6533    0.0000 C   0  0  0  0  0  0  0  0  0  0  0  0
    1.1148   -3.3223    0.0000 C   0  0  0  0  0  0  0  0  0  0  0  0
    3.8351   -3.7013    0.0000 C   0  0  0  0  0  0  0  0  0  0  0  0
    3.1439   -4.1473    0.0000 C   0  0  0  0  0  0  0  0  0  0  0  0
    4.5487   -2.4527    0.0000 C   0  0  3  0  0  0  0  0  0  0  0  0
    1.7169   -0.8250    0.0000 C   0  0  0  0  0  0  0  0  0  0  0  0
    1.2487   -1.9176    0.0000 C   0  0  0  0  0  0  0  0  0  0  0  0
    0.3345   -3.2331    0.0000 C   0  0  0  0  0  0  0  0  0  0  0  0
    5.2622   -2.8763    0.0000 C   0  0  0  0  0  0  0  0  0  0  0  0
    4.5487   -4.1027    0.0000 C   0  0  0  0  0  0  0  0  0  0  0  0
    0.4459   -1.8283    0.0000 C   0  0  0  0  0  0  0  0  0  0  0  0
    0.0000   -2.4750    0.0000 C   0  0  0  0  0  0  0  0  0  0  0  0
    6.6892   -2.8763    0.0000 C   0  0  0  0  0  0  0  0  0  0  0  0
  1  5  1  0  0  0  0
  1  6  2  0  0  0  0
  1  7  2  0  0  0  0
  1 21  1  0  0  0  0
  2 21  1  0  0  0  0
  3 21  1  0  0  0  0
  4 21  1  0  0  0  0
  5 14  1  0  0  0  0
  8 20  1  0  0  0  0
  9 24  1  0  0  0  0
  9 28  1  0  0  0  0
 10 24  2  0  0  0  0
 11 12  1  0  0  0  0
 11 13  1  0  0  0  0
 11 19  1  0  0  0  0
 12 17  2  0  0  0  0
 13 14  1  0  0  0  0
 13 16  2  0  0  0  0
 14 15  2  0  0  0  0
 15 18  1  0  0  0  0
 15 20  1  0  0  0  0
 16 17  1  0  0  0  0
 16 22  1  0  0  0  0
 17 23  1  0  0  0  0
 18 19  2  0  0  0  0
 18 25  1  0  0  0  0
 20 24  1  0  0  0  0
 22 26  2  0  0  0  0
 23 27  2  0  0  0  0
 26 27  1  0  0  0  0
M  END
> <PUBCHEM_COMPOUND_ID_TYPE>
0

> <PUBCHEM_TOTAL_CHARGE>
0

> <PUBCHEM_SUBSTANCE_ID>
310935533

> <PUBCHEM_SUBSTANCE_VERSION>
1

> <PUBCHEM_EXT_DATASOURCE_NAME>
4488

> <PUBCHEM_EXT_DATASOURCE_REGID>
SCHEMBL16113103

> <PUBCHEM_SUBSTANCE_COMMENT>
InChI=1S/C16H13F3N2O6S/c1-8-7-21-12(9-5-3-4-6-10(9)20-21)14(11(8)13(22)15(23)26-2)27-28(24,25)16(17,18)19/h3-7,13,22H,1-2H3
InChIKey=PKBCAPCZSSZJEE-UHFFFAOYSA-N

> <PUBCHEM_SUBSTANCE_SYNONYM>
SCHEMBL16113103

> <PUBCHEM_XREF_EXT_ID>
SCHEMBL16113103

> <PUBCHEM_EXT_DATASOURCE_URL>
https://www.surechembl.org/

> <PUBCHEM_EXT_SUBSTANCE_URL>
https://www.surechembl.org/chemical/SCHEMBL16113103

> <PUBCHEM_CID_ASSOCIATIONS>
117603558  1

> <PUBCHEM_COORDINATE_TYPE>
1
3

$$$$
