310933660
  -OEChem-07211613022D

 43 48  0     1  0  0  0  0  0999 V2000
    0.0000   -3.0780    0.0000 Cl  0  0  0  0  0  0  0  0  0  0  0  0
    1.6501   -2.9511    0.0000 F   0  0  0  0  0  0  0  0  0  0  0  0
    4.6328   -5.8386    0.0000 O   0  0  0  0  0  0  0  0  0  0  0  0
    3.9347   -3.7443    0.0000 O   0  0  0  0  0  0  0  0  0  0  0  0
    7.5204    0.0000    0.0000 O   0  0  0  0  0  0  0  0  0  0  0  0
    8.2502   -1.2693    0.0000 O   0  0  0  0  0  0  0  0  0  0  0  0
    5.3310   -4.5693    0.0000 N   0  0  0  0  0  0  0  0  0  0  0  0
    2.6020   -4.2838    0.0000 N   0  0  0  0  0  0  0  0  0  0  0  0
    8.9801   -3.4588    0.0000 N   0  0  0  0  0  0  0  0  0  0  0  0
    4.0299   -3.9030    0.0000 N   0  0  0  0  0  0  0  0  0  0  0  0
    4.6646   -2.5068    0.0000 N   0  0  0  0  0  0  0  0  0  0  0  0
    3.0145   -3.5539    0.0000 N   0  0  0  0  0  0  0  0  0  0  0  0
    8.3137   -4.6011    0.0000 N   0  0  0  0  0  0  0  0  0  0  0  0
    9.5195   -4.0617    0.0000 N   0  0  0  0  0  0  0  0  0  0  0  0
    5.3627   -3.7443    0.0000 C   0  0  3  0  0  0  0  0  0  0  0  0
    6.0925   -3.3318    0.0000 C   0  0  0  0  0  0  0  0  0  0  0  0
    6.7906   -3.7443    0.0000 C   0  0  0  0  0  0  0  0  0  0  0  0
    7.5204   -3.3636    0.0000 C   0  0  0  0  0  0  0  0  0  0  0  0
    4.6328   -4.9818    0.0000 C   0  0  0  0  0  0  0  0  0  0  0  0
    4.6646   -3.3318    0.0000 C   0  0  0  0  0  0  0  0  0  0  0  0
    6.7906   -4.6011    0.0000 C   0  0  0  0  0  0  0  0  0  0  0  0
    6.0608   -4.9818    0.0000 C   0  0  0  0  0  0  0  0  0  0  0  0
    3.9030   -4.5693    0.0000 C   0  0  0  0  0  0  0  0  0  0  0  0
    8.2185   -3.7761    0.0000 C   0  0  0  0  0  0  0  0  0  0  0  0
    6.2511   -2.6655    0.0000 C   0  0  0  0  0  0  0  0  0  0  0  0
    7.5204   -2.5068    0.0000 C   0  0  0  0  0  0  0  0  0  0  0  0
    3.1732   -4.9184    0.0000 C   0  0  0  0  0  0  0  0  0  0  0  0
    6.9492   -2.2530    0.0000 C   0  0  0  0  0  0  0  0  0  0  0  0
    1.7770   -4.3790    0.0000 C   0  0  0  0  0  0  0  0  0  0  0  0
    1.3010   -3.7126    0.0000 C   0  0  0  0  0  0  0  0  0  0  0  0
    5.3627   -2.0943    0.0000 C   0  0  0  0  0  0  0  0  0  0  0  0
    9.1070   -4.7915    0.0000 C   0  0  0  0  0  0  0  0  0  0  0  0
    1.4279   -5.1405    0.0000 C   0  0  0  0  0  0  0  0  0  0  0  0
    0.4760   -3.7761    0.0000 C   0  0  0  0  0  0  0  0  0  0  0  0
    9.1705   -2.6655    0.0000 C   0  0  0  0  0  0  0  0  0  0  0  0
    0.6346   -5.2040    0.0000 C   0  0  0  0  0  0  0  0  0  0  0  0
    0.1269   -4.5059    0.0000 C   0  0  0  0  0  0  0  0  0  0  0  0
    5.3627   -1.2693    0.0000 C   0  0  0  0  0  0  0  0  0  0  0  0
    6.0925   -2.5068    0.0000 C   0  0  0  0  0  0  0  0  0  0  0  0
    6.8223   -1.2693    0.0000 C   0  0  0  0  0  0  0  0  0  0  0  0
    6.0925   -0.8567    0.0000 C   0  0  0  0  0  0  0  0  0  0  0  0
    6.8223   -2.0943    0.0000 C   0  0  0  0  0  0  0  0  0  0  0  0
    7.5204   -0.8567    0.0000 C   0  0  0  0  0  0  0  0  0  0  0  0
  1 34  1  0  0  0  0
  2 30  1  0  0  0  0
  3 19  2  0  0  0  0
  4 20  2  0  0  0  0
  5 43  2  0  0  0  0
  6 43  1  0  0  0  0
  7 15  1  0  0  0  0
  7 19  1  0  0  0  0
  7 22  1  0  0  0  0
  8 12  1  0  0  0  0
  8 27  1  0  0  0  0
  8 29  1  0  0  0  0
  9 14  1  0  0  0  0
  9 24  1  0  0  0  0
  9 35  1  0  0  0  0
 10 12  2  0  0  0  0
 10 23  1  0  0  0  0
 11 20  1  0  0  0  0
 11 31  1  0  0  0  0
 13 24  2  0  0  0  0
 13 32  1  0  0  0  0
 14 32  2  0  0  0  0
 15 16  1  0  0  0  0
 15 20  1  0  0  0  0
 16 17  2  0  0  0  0
 16 25  1  0  0  0  0
 17 18  1  0  0  0  0
 17 21  1  0  0  0  0
 18 24  1  0  0  0  0
 18 26  2  0  0  0  0
 19 23  1  0  0  0  0
 21 22  1  0  0  0  0
 23 27  2  0  0  0  0
 25 28  2  0  0  0  0
 26 28  1  0  0  0  0
 29 30  1  0  0  0  0
 29 33  2  0  0  0  0
 30 34  2  0  0  0  0
 31 38  2  0  0  0  0
 31 39  1  0  0  0  0
 33 36  1  0  0  0  0
 34 37  1  0  0  0  0
 36 37  2  0  0  0  0
 38 41  1  0  0  0  0
 39 42  2  0  0  0  0
 40 41  2  0  0  0  0
 40 42  1  0  0  0  0
 40 43  1  0  0  0  0
M  END
> <PUBCHEM_COMPOUND_ID_TYPE>
0

> <PUBCHEM_TOTAL_CHARGE>
0

> <PUBCHEM_SUBSTANCE_ID>
310933660

> <PUBCHEM_SUBSTANCE_VERSION>
1

> <PUBCHEM_EXT_DATASOURCE_NAME>
4488

> <PUBCHEM_EXT_DATASOURCE_REGID>
SCHEMBL16111093

> <PUBCHEM_SUBSTANCE_COMMENT>
InChI=1S/C29H22ClFN8O4/c1-37-26(32-15-33-37)20-5-2-4-19-18(20)12-13-38(25(19)27(40)34-17-10-8-16(9-11-17)29(42)43)28(41)22-14-39(36-35-22)23-7-3-6-21(30)24(23)31/h2-11,14-15,25H,12-13H2,1H3,(H,34,40)(H,42,43)
InChIKey=RMAYSVYLVSTKER-UHFFFAOYSA-N

> <PUBCHEM_SUBSTANCE_SYNONYM>
SCHEMBL16111093

> <PUBCHEM_XREF_EXT_ID>
SCHEMBL16111093

> <PUBCHEM_EXT_DATASOURCE_URL>
https://www.surechembl.org/

> <PUBCHEM_EXT_SUBSTANCE_URL>
https://www.surechembl.org/chemical/SCHEMBL16111093

> <PUBCHEM_CID_ASSOCIATIONS>
117602031  1

> <PUBCHEM_COORDINATE_TYPE>
1
3

$$$$
