310941239
  -OEChem-07211613022D

 41 45  0     1  0  0  0  0  0999 V2000
    5.0315   -1.5116    0.0000 O   0  0  0  0  0  0  0  0  0  0  0  0
    2.6273    2.9080    0.0000 O   0  0  0  0  0  0  0  0  0  0  0  0
    3.7934    2.2458    0.0000 O   0  0  0  0  0  0  0  0  0  0  0  0
    3.8942    0.4463    0.0000 O   0  0  0  0  0  0  0  0  0  0  0  0
    1.7492   -1.6267    0.0000 O   0  0  0  0  0  0  0  0  0  0  0  0
   -0.4103    0.4463    0.0000 O   0  0  0  0  0  0  0  0  0  0  0  0
   -2.5697   -1.6267    0.0000 O   0  0  0  0  0  0  0  0  0  0  0  0
   -5.4346   -1.6267    0.0000 O   0  0  0  0  0  0  0  0  0  0  0  0
    2.4689   -0.3887    0.0000 N   0  0  0  0  0  0  0  0  0  0  0  0
    0.3095   -0.8062    0.0000 N   0  0  0  0  0  0  0  0  0  0  0  0
   -1.8499   -0.3887    0.0000 N   0  0  0  0  0  0  0  0  0  0  0  0
   -3.9950   -0.8062    0.0000 N   0  0  0  0  0  0  0  0  0  0  0  0
    4.6284   -0.7774    0.0000 C   0  0  3  0  0  0  0  0  0  0  0  0
    3.8942   -0.3887    0.0000 C   0  0  0  0  0  0  0  0  0  0  0  0
    3.1888   -0.7774    0.0000 C   0  0  3  0  0  0  0  0  0  0  0  0
    1.0293   -0.3599    0.0000 C   0  0  3  0  0  0  0  0  0  0  0  0
    2.4545    2.1163    0.0000 C   0  0  0  0  0  0  0  0  0  0  0  0
    1.7492    0.8782    0.0000 C   0  0  0  0  0  0  0  0  0  0  0  0
    3.1888    1.7131    0.0000 C   0  0  0  0  0  0  0  0  0  0  0  0
    1.7492   -0.7630    0.0000 C   0  0  0  0  0  0  0  0  0  0  0  0
    1.0437    0.4750    0.0000 C   0  0  0  0  0  0  0  0  0  0  0  0
    1.7636    1.7131    0.0000 C   0  0  0  0  0  0  0  0  0  0  0  0
    5.4346   -0.7918    0.0000 C   0  0  0  0  0  0  0  0  0  0  0  0
    3.1888   -1.6124    0.0000 C   0  0  0  0  0  0  0  0  0  0  0  0
    2.4689    0.4750    0.0000 C   0  0  0  0  0  0  0  0  0  0  0  0
    3.1888    0.8782    0.0000 C   0  0  0  0  0  0  0  0  0  0  0  0
    3.9086   -2.0155    0.0000 C   0  0  0  0  0  0  0  0  0  0  0  0
   -0.4247   -0.3887    0.0000 C   0  0  0  0  0  0  0  0  0  0  0  0
    3.4767    3.0088    0.0000 C   0  0  0  0  0  0  0  0  0  0  0  0
   -1.1157   -0.7774    0.0000 C   0  0  3  0  0  0  0  0  0  0  0  0
    3.9950   -2.8360    0.0000 C   0  0  0  0  0  0  0  0  0  0  0  0
    4.6428   -1.6987    0.0000 C   0  0  0  0  0  0  0  0  0  0  0  0
   -2.5553   -0.7630    0.0000 C   0  0  0  0  0  0  0  0  0  0  0  0
    5.2043   -2.2890    0.0000 C   0  0  0  0  0  0  0  0  0  0  0  0
    4.8011   -3.0088    0.0000 C   0  0  0  0  0  0  0  0  0  0  0  0
   -3.2895   -0.3743    0.0000 C   0  0  0  0  0  0  0  0  0  0  0  0
   -1.1301   -1.6267    0.0000 C   0  0  0  0  0  0  0  0  0  0  0  0
   -3.9950   -1.6124    0.0000 C   0  0  0  0  0  0  0  0  0  0  0  0
   -4.7291   -0.3743    0.0000 C   0  0  0  0  0  0  0  0  0  0  0  0
   -4.7148   -2.0155    0.0000 C   0  0  0  0  0  0  0  0  0  0  0  0
   -5.4202   -0.7774    0.0000 C   0  0  0  0  0  0  0  0  0  0  0  0
  1 13  1  0  0  0  0
  1 23  1  0  0  0  0
  2 17  1  0  0  0  0
  2 29  1  0  0  0  0
  3 19  1  0  0  0  0
  3 29  1  0  0  0  0
  4 14  2  0  0  0  0
  5 20  2  0  0  0  0
  6 28  2  0  0  0  0
  7 33  2  0  0  0  0
  8 40  1  0  0  0  0
  8 41  1  0  0  0  0
  9 15  1  0  0  0  0
  9 20  1  0  0  0  0
 10 16  1  0  0  0  0
 10 28  1  0  0  0  0
 11 30  1  0  0  0  0
 11 33  1  0  0  0  0
 12 36  1  0  0  0  0
 12 38  1  0  0  0  0
 12 39  1  0  0  0  0
 13 14  1  0  0  0  0
 13 23  1  0  0  0  0
 14 15  1  0  0  0  0
 15 24  1  0  0  0  0
 16 20  1  0  0  0  0
 16 21  1  0  0  0  0
 17 19  1  0  0  0  0
 17 22  2  0  0  0  0
 18 21  1  0  0  0  0
 18 22  1  0  0  0  0
 18 25  2  0  0  0  0
 19 26  2  0  0  0  0
 24 27  1  0  0  0  0
 25 26  1  0  0  0  0
 27 31  1  0  0  0  0
 27 32  1  0  0  0  0
 28 30  1  0  0  0  0
 30 37  1  0  0  0  0
 31 35  1  0  0  0  0
 32 34  1  0  0  0  0
 33 36  1  0  0  0  0
 34 35  1  0  0  0  0
 38 40  1  0  0  0  0
 39 41  1  0  0  0  0
M  END
> <PUBCHEM_COMPOUND_ID_TYPE>
0

> <PUBCHEM_TOTAL_CHARGE>
0

> <PUBCHEM_SUBSTANCE_ID>
310941239

> <PUBCHEM_SUBSTANCE_VERSION>
1

> <PUBCHEM_EXT_DATASOURCE_NAME>
4488

> <PUBCHEM_EXT_DATASOURCE_REGID>
SCHEMBL16119199

> <PUBCHEM_SUBSTANCE_COMMENT>
InChI=1S/C29H40N4O8/c1-18(30-26(34)15-33-8-10-38-11-9-33)28(36)32-22(13-20-6-7-23-24(14-20)41-17-40-23)29(37)31-21(27(35)25-16-39-25)12-19-4-2-3-5-19/h6-7,14,18-19,21-22,25H,2-5,8-13,15-17H2,1H3,(H,30,34)(H,31,37)(H,32,36)
InChIKey=AIFSYOXLQVBMBF-UHFFFAOYSA-N

> <PUBCHEM_SUBSTANCE_SYNONYM>
SCHEMBL16119199

> <PUBCHEM_XREF_EXT_ID>
SCHEMBL16119199

> <PUBCHEM_EXT_DATASOURCE_URL>
https://www.surechembl.org/

> <PUBCHEM_EXT_SUBSTANCE_URL>
https://www.surechembl.org/chemical/SCHEMBL16119199

> <PUBCHEM_CID_ASSOCIATIONS>
86298123  1

> <PUBCHEM_COORDINATE_TYPE>
1
3

$$$$
