310933041
  -OEChem-07211613022D

 45 46  0     1  0  0  0  0  0999 V2000
    0.7485    2.5950    0.0000 O   0  0  0  0  0  0  0  0  0  0  0  0
    1.5270   -0.9397    0.0000 O   0  0  0  0  0  0  0  0  0  0  0  0
    2.7006   -0.1919    0.0000 O   0  0  0  0  0  0  0  0  0  0  0  0
   -0.2257   -0.6135    0.0000 O   0  0  0  0  0  0  0  0  0  0  0  0
    1.1015   -1.0320    0.0000 O   0  0  0  0  0  0  0  0  0  0  0  0
    1.5270    0.5558    0.0000 C   0  0  3  0  0  0  0  0  0  0  0  0
    1.8091    1.3310    0.0000 C   0  0  0  0  0  0  0  0  0  0  0  0
    0.7145    0.4125    0.0000 C   0  0  3  0  0  0  0  0  0  0  0  0
    1.2788    1.9630    0.0000 C   0  0  3  0  0  0  0  0  0  0  0  0
    0.4664    1.8197    0.0000 C   0  0  3  0  0  0  0  0  0  0  0  0
    0.1842    1.0445    0.0000 C   0  0  0  0  0  0  0  0  0  0  0  0
    1.8756   -0.1919    0.0000 C   0  0  0  0  0  0  0  0  0  0  0  0
    2.3022    0.2736    0.0000 C   0  0  0  0  0  0  0  0  0  0  0  0
    0.5712   -0.4000    0.0000 C   0  0  0  0  0  0  0  0  0  0  0  0
    2.6216    1.1878    0.0000 C   0  0  0  0  0  0  0  0  0  0  0  0
    2.3925    1.9144    0.0000 C   0  0  0  0  0  0  0  0  0  0  0  0
    0.0000    0.0000    0.0000 C   0  0  0  0  0  0  0  0  0  0  0  0
    2.5844   -0.5017    0.0000 C   0  0  0  0  0  0  0  0  0  0  0  0
    3.0341    0.4733    0.0000 C   0  0  0  0  0  0  0  0  0  0  0  0
    2.1790    2.7113    0.0000 C   0  0  0  0  0  0  0  0  0  0  0  0
   -0.7145    0.4125    0.0000 C   0  0  0  0  0  0  0  0  0  0  0  0
    3.3969   -0.6449    0.0000 C   0  0  0  0  0  0  0  0  0  0  0  0
    3.8591    0.4733    0.0000 C   0  0  0  0  0  0  0  0  0  0  0  0
    2.7623    3.2947    0.0000 C   0  0  0  0  0  0  0  0  0  0  0  0
   -1.4290    0.0000    0.0000 C   0  0  0  0  0  0  0  0  0  0  0  0
    3.6790   -1.4202    0.0000 C   0  0  0  0  0  0  0  0  0  0  0  0
    4.2716   -0.2412    0.0000 C   0  0  0  0  0  0  0  0  0  0  0  0
    2.5488    4.0916    0.0000 C   0  0  0  0  0  0  0  0  0  0  0  0
   -2.1434    0.4125    0.0000 C   0  0  0  0  0  0  0  0  0  0  0  0
    4.4915   -1.5634    0.0000 C   0  0  0  0  0  0  0  0  0  0  0  0
    5.0966   -0.2412    0.0000 C   0  0  0  0  0  0  0  0  0  0  0  0
    3.1321    4.6749    0.0000 C   0  0  0  0  0  0  0  0  0  0  0  0
   -2.8579    0.0000    0.0000 C   0  0  0  0  0  0  0  0  0  0  0  0
    4.7737   -2.3387    0.0000 C   0  0  0  0  0  0  0  0  0  0  0  0
    5.5091   -0.9557    0.0000 C   0  0  0  0  0  0  0  0  0  0  0  0
    2.9186    5.4718    0.0000 C   0  0  0  0  0  0  0  0  0  0  0  0
   -3.5724    0.4125    0.0000 C   0  0  0  0  0  0  0  0  0  0  0  0
    5.5861   -2.4820    0.0000 C   0  0  0  0  0  0  0  0  0  0  0  0
    6.3341   -0.9557    0.0000 C   0  0  0  0  0  0  0  0  0  0  0  0
    3.5020    6.0552    0.0000 C   0  0  0  0  0  0  0  0  0  0  0  0
   -4.2869    0.0000    0.0000 C   0  0  0  0  0  0  0  0  0  0  0  0
    5.8683   -3.2572    0.0000 C   0  0  0  0  0  0  0  0  0  0  0  0
    6.7466   -1.6702    0.0000 C   0  0  0  0  0  0  0  0  0  0  0  0
    3.2885    6.8521    0.0000 C   0  0  0  0  0  0  0  0  0  0  0  0
   -5.0013    0.4125    0.0000 C   0  0  0  0  0  0  0  0  0  0  0  0
  1  9  1  0  0  0  0
  1 10  1  0  0  0  0
  2 12  2  0  0  0  0
  3 12  1  0  0  0  0
  4 14  2  0  0  0  0
  5 14  1  0  0  0  0
  6  7  1  0  0  0  0
  6  8  1  0  0  0  0
  6 12  1  0  0  0  0
  6 13  1  0  0  0  0
  7  9  1  0  0  0  0
  7 15  1  0  0  0  0
  7 16  1  0  0  0  0
  8 11  1  0  0  0  0
  8 14  1  0  0  0  0
  8 17  1  0  0  0  0
  9 10  1  0  0  0  0
 10 11  1  0  0  0  0
 13 18  1  0  0  0  0
 15 19  1  0  0  0  0
 16 20  1  0  0  0  0
 17 21  1  0  0  0  0
 18 22  1  0  0  0  0
 19 23  1  0  0  0  0
 20 24  1  0  0  0  0
 21 25  1  0  0  0  0
 22 26  1  0  0  0  0
 23 27  1  0  0  0  0
 24 28  1  0  0  0  0
 25 29  1  0  0  0  0
 26 30  1  0  0  0  0
 27 31  1  0  0  0  0
 28 32  1  0  0  0  0
 29 33  1  0  0  0  0
 30 34  1  0  0  0  0
 31 35  1  0  0  0  0
 32 36  1  0  0  0  0
 33 37  1  0  0  0  0
 34 38  1  0  0  0  0
 35 39  1  0  0  0  0
 36 40  1  0  0  0  0
 37 41  1  0  0  0  0
 38 42  1  0  0  0  0
 39 43  1  0  0  0  0
 40 44  1  0  0  0  0
 41 45  1  0  0  0  0
M  END
> <PUBCHEM_COMPOUND_ID_TYPE>
0

> <PUBCHEM_TOTAL_CHARGE>
0

> <PUBCHEM_SUBSTANCE_ID>
310933041

> <PUBCHEM_SUBSTANCE_VERSION>
1

> <PUBCHEM_EXT_DATASOURCE_NAME>
4488

> <PUBCHEM_EXT_DATASOURCE_REGID>
SCHEMBL16110442

> <PUBCHEM_SUBSTANCE_COMMENT>
InChI=1S/C40H74O5/c1-5-9-13-17-21-25-29-38(30-26-22-18-14-10-6-2)35-34(45-35)33-39(36(41)42,31-27-23-19-15-11-7-3)40(38,37(43)44)32-28-24-20-16-12-8-4/h34-35H,5-33H2,1-4H3,(H,41,42)(H,43,44)
InChIKey=HZTSOLNACPGRNQ-UHFFFAOYSA-N

> <PUBCHEM_SUBSTANCE_SYNONYM>
SCHEMBL16110442

> <PUBCHEM_XREF_EXT_ID>
SCHEMBL16110442

> <PUBCHEM_EXT_DATASOURCE_URL>
https://www.surechembl.org/

> <PUBCHEM_EXT_SUBSTANCE_URL>
https://www.surechembl.org/chemical/SCHEMBL16110442

> <PUBCHEM_CID_ASSOCIATIONS>
117601504  1

> <PUBCHEM_COORDINATE_TYPE>
1
3

$$$$
