310939630
  -OEChem-07211613022D

 30 32  0     1  0  0  0  0  0999 V2000
   -1.1996  -10.9184    0.0000 O   0  0  0  0  0  0  0  0  0  0  0  0
   -2.6285  -11.7434    0.0000 O   0  0  0  0  0  0  0  0  0  0  0  0
    1.6583  -11.7434    0.0000 N   0  0  0  0  0  0  0  0  0  0  0  0
    2.3728  -10.5059    0.0000 N   0  0  0  0  0  0  0  0  0  0  0  0
    2.3728  -12.9809    0.0000 N   0  0  0  0  0  0  0  0  0  0  0  0
    3.8017  -10.5059    0.0000 N   0  0  0  0  0  0  0  0  0  0  0  0
   -4.0575  -10.9184    0.0000 N   0  0  0  0  0  0  0  0  0  0  0  0
    1.6583  -10.9184    0.0000 C   0  0  0  0  0  0  0  0  0  0  0  0
    0.9438  -10.5059    0.0000 C   0  0  0  0  0  0  0  0  0  0  0  0
    2.3728  -12.1559    0.0000 C   0  0  0  0  0  0  0  0  0  0  0  0
    3.0872  -10.9184    0.0000 C   0  0  0  0  0  0  0  0  0  0  0  0
    3.0872  -11.7434    0.0000 C   0  0  0  0  0  0  0  0  0  0  0  0
    0.2294  -10.9184    0.0000 C   0  0  0  0  0  0  0  0  0  0  0  0
   -0.4851  -10.5059    0.0000 C   0  0  0  0  0  0  0  0  0  0  0  0
    0.9438   -9.6809    0.0000 C   0  0  0  0  0  0  0  0  0  0  0  0
    3.0872  -13.3934    0.0000 C   0  0  0  0  0  0  0  0  0  0  0  0
   -0.4851   -9.6809    0.0000 C   0  0  0  0  0  0  0  0  0  0  0  0
    0.2294   -9.2684    0.0000 C   0  0  0  0  0  0  0  0  0  0  0  0
    3.8017   -9.6809    0.0000 C   0  0  0  0  0  0  0  0  0  0  0  0
    3.0872  -14.2184    0.0000 C   0  0  0  0  0  0  0  0  0  0  0  0
    3.8017  -12.9809    0.0000 C   0  0  0  0  0  0  0  0  0  0  0  0
   -1.9141  -10.5059    0.0000 C   0  0  0  0  0  0  0  0  0  0  0  0
    3.8017  -14.6309    0.0000 C   0  0  0  0  0  0  0  0  0  0  0  0
    4.5162  -13.3934    0.0000 C   0  0  0  0  0  0  0  0  0  0  0  0
   -2.6285  -10.9184    0.0000 C   0  0  3  0  0  0  0  0  0  0  0  0
    4.5162  -14.2184    0.0000 C   0  0  0  0  0  0  0  0  0  0  0  0
    3.0872   -9.2684    0.0000 C   0  0  0  0  0  0  0  0  0  0  0  0
    4.5162   -9.2684    0.0000 C   0  0  0  0  0  0  0  0  0  0  0  0
   -3.3430  -10.5059    0.0000 C   0  0  0  0  0  0  0  0  0  0  0  0
   -4.7719  -10.5059    0.0000 C   0  0  0  0  0  0  0  0  0  0  0  0
  1 14  1  0  0  0  0
  1 22  1  0  0  0  0
  2 25  1  0  0  0  0
  3  8  1  0  0  0  0
  3 10  2  0  0  0  0
  4  8  2  0  0  0  0
  4 11  1  0  0  0  0
  5 10  1  0  0  0  0
  5 16  1  0  0  0  0
  6 11  1  0  0  0  0
  6 19  1  0  0  0  0
  7 29  1  0  0  0  0
  7 30  1  0  0  0  0
  8  9  1  0  0  0  0
  9 13  2  0  0  0  0
  9 15  1  0  0  0  0
 10 12  1  0  0  0  0
 11 12  2  0  0  0  0
 13 14  1  0  0  0  0
 14 17  2  0  0  0  0
 15 18  2  0  0  0  0
 16 20  1  0  0  0  0
 16 21  1  0  0  0  0
 17 18  1  0  0  0  0
 19 27  1  0  0  0  0
 19 28  1  0  0  0  0
 20 23  1  0  0  0  0
 21 24  1  0  0  0  0
 22 25  1  0  0  0  0
 23 26  1  0  0  0  0
 24 26  1  0  0  0  0
 25 29  1  0  0  0  0
M  END
> <PUBCHEM_COMPOUND_ID_TYPE>
0

> <PUBCHEM_TOTAL_CHARGE>
0

> <PUBCHEM_SUBSTANCE_ID>
310939630

> <PUBCHEM_SUBSTANCE_VERSION>
1

> <PUBCHEM_EXT_DATASOURCE_NAME>
4488

> <PUBCHEM_EXT_DATASOURCE_REGID>
SCHEMBL16117560

> <PUBCHEM_SUBSTANCE_COMMENT>
InChI=1S/C23H35N5O2/c1-16(2)25-21-13-22(26-18-9-5-4-6-10-18)28-23(27-21)17-8-7-11-20(12-17)30-15-19(29)14-24-3/h7-8,11-13,16,18-19,24,29H,4-6,9-10,14-15H2,1-3H3,(H2,25,26,27,28)
InChIKey=VHUDMQZPEOBDFO-UHFFFAOYSA-N

> <PUBCHEM_SUBSTANCE_SYNONYM>
SCHEMBL16117560

> <PUBCHEM_XREF_EXT_ID>
SCHEMBL16117560

> <PUBCHEM_EXT_DATASOURCE_URL>
https://www.surechembl.org/

> <PUBCHEM_EXT_SUBSTANCE_URL>
https://www.surechembl.org/chemical/SCHEMBL16117560

> <PUBCHEM_CID_ASSOCIATIONS>
117606870  1

> <PUBCHEM_COORDINATE_TYPE>
1
3

$$$$
