310949732
  -OEChem-07211613022D

 26 28  0     1  0  0  0  0  0999 V2000
    1.4712   -2.1003    0.0000 O   0  0  0  0  0  0  0  0  0  0  0  0
   -1.3698   -1.2683    0.0000 O   0  0  0  0  0  0  0  0  0  0  0  0
    2.9526   -1.2074    0.0000 N   0  0  0  0  0  0  0  0  0  0  0  0
    3.5005   -0.6189    0.0000 N   0  0  0  0  0  0  0  0  0  0  0  0
    2.4452    1.2886    0.0000 N   0  0  3  0  0  0  0  0  0  0  0  0
    0.7813   -0.8624    0.0000 N   0  0  0  0  0  0  0  0  0  0  0  0
    2.3235   -0.0305    0.0000 C   0  0  0  0  0  0  0  0  0  0  0  0
    2.1815   -0.8624    0.0000 C   0  0  0  0  0  0  0  0  0  0  0  0
    3.0540    0.1319    0.0000 C   0  0  0  0  0  0  0  0  0  0  0  0
    1.4712   -1.2480    0.0000 C   0  0  0  0  0  0  0  0  0  0  0  0
    1.8771    0.6392    0.0000 C   0  0  0  0  0  0  0  0  0  0  0  0
    3.1758    0.9436    0.0000 C   0  0  0  0  0  0  0  0  0  0  0  0
   -2.0597   -0.0102    0.0000 C   0  0  0  0  0  0  0  0  0  0  0  0
   -2.0597   -0.8219    0.0000 C   0  0  0  0  0  0  0  0  0  0  0  0
   -1.3495    0.3957    0.0000 C   0  0  0  0  0  0  0  0  0  0  0  0
    0.0711   -1.2683    0.0000 C   0  0  0  0  0  0  0  0  0  0  0  0
    2.2626    2.1003    0.0000 C   0  0  0  0  0  0  0  0  0  0  0  0
   -2.7699    0.4160    0.0000 C   0  0  0  0  0  0  0  0  0  0  0  0
   -2.7699   -1.2277    0.0000 C   0  0  0  0  0  0  0  0  0  0  0  0
   -0.6595   -0.8624    0.0000 C   0  0  0  0  0  0  0  0  0  0  0  0
    0.7813   -0.0102    0.0000 C   0  0  0  0  0  0  0  0  0  0  0  0
   -3.4599    0.0305    0.0000 C   0  0  0  0  0  0  0  0  0  0  0  0
   -3.5005   -0.8016    0.0000 C   0  0  0  0  0  0  0  0  0  0  0  0
   -1.3495    1.2277    0.0000 C   0  0  0  0  0  0  0  0  0  0  0  0
   -0.5986    0.8016    0.0000 C   0  0  0  0  0  0  0  0  0  0  0  0
   -0.5986   -0.0305    0.0000 C   0  0  0  0  0  0  0  0  0  0  0  0
  1 10  2  0  0  0  0
  2 14  1  0  0  0  0
  2 20  1  0  0  0  0
  3  4  1  0  0  0  0
  3  8  2  0  0  0  0
  4  9  1  0  0  0  0
  5 11  1  0  0  0  0
  5 12  1  0  0  0  0
  5 17  1  0  0  0  0
  6 10  1  0  0  0  0
  6 16  1  0  0  0  0
  6 21  1  0  0  0  0
  7  8  1  0  0  0  0
  7  9  2  0  0  0  0
  7 11  1  0  0  0  0
  8 10  1  0  0  0  0
  9 12  1  0  0  0  0
 13 14  1  0  0  0  0
 13 15  1  0  0  0  0
 13 18  2  0  0  0  0
 14 19  2  0  0  0  0
 15 24  1  0  0  0  0
 15 25  1  0  0  0  0
 15 26  1  0  0  0  0
 16 20  1  0  0  0  0
 18 22  1  0  0  0  0
 19 23  1  0  0  0  0
 22 23  2  0  0  0  0
M  END
> <PUBCHEM_COMPOUND_ID_TYPE>
0

> <PUBCHEM_TOTAL_CHARGE>
0

> <PUBCHEM_SUBSTANCE_ID>
310949732

> <PUBCHEM_SUBSTANCE_VERSION>
1

> <PUBCHEM_EXT_DATASOURCE_NAME>
4488

> <PUBCHEM_EXT_DATASOURCE_REGID>
SCHEMBL16127930

> <PUBCHEM_SUBSTANCE_COMMENT>
InChI=1S/C20H28N4O2/c1-20(2,3)15-8-6-7-9-17(15)26-11-10-24(5)19(25)18-14-12-23(4)13-16(14)21-22-18/h6-9H,10-13H2,1-5H3,(H,21,22)
InChIKey=HAGSLODHCFMXID-UHFFFAOYSA-N

> <PUBCHEM_SUBSTANCE_SYNONYM>
SCHEMBL16127930

> <PUBCHEM_XREF_EXT_ID>
SCHEMBL16127930

> <PUBCHEM_EXT_DATASOURCE_URL>
https://www.surechembl.org/

> <PUBCHEM_EXT_SUBSTANCE_URL>
https://www.surechembl.org/chemical/SCHEMBL16127930

> <PUBCHEM_CID_ASSOCIATIONS>
86272754  1

> <PUBCHEM_COORDINATE_TYPE>
1
3

$$$$
