310943706
  -OEChem-07211613022D

 28 30  0     1  0  0  0  0  0999 V2000
    3.7576    0.5700    0.0000 O   0  0  0  0  0  0  0  0  0  0  0  0
    3.0286    2.0014    0.0000 O   0  0  0  0  0  0  0  0  0  0  0  0
   -2.6707   -1.5375    0.0000 N   0  0  3  0  0  0  0  0  0  0  0  0
    1.6237   -1.7098    0.0000 N   0  0  0  0  0  0  0  0  0  0  0  0
   -0.5368    1.5640    0.0000 N   0  0  0  0  0  0  0  0  0  0  0  0
   -4.4600   -1.0073    0.0000 N   0  0  3  0  0  0  0  0  0  0  0  0
    0.1922   -0.6892    0.0000 C   0  0  0  0  0  0  0  0  0  0  0  0
    0.9079   -0.2651    0.0000 C   0  0  0  0  0  0  0  0  0  0  0  0
   -0.5368   -0.2783    0.0000 C   0  0  0  0  0  0  0  0  0  0  0  0
    1.6237   -0.6627    0.0000 C   0  0  0  0  0  0  0  0  0  0  0  0
   -1.2393   -1.5242    0.0000 C   0  0  0  0  0  0  0  0  0  0  0  0
    0.1789   -1.5110    0.0000 C   0  0  0  0  0  0  0  0  0  0  0  0
    2.3394    0.5700    0.0000 C   0  0  0  0  0  0  0  0  0  0  0  0
    0.9079    0.5567    0.0000 C   0  0  0  0  0  0  0  0  0  0  0  0
   -1.2260   -0.6892    0.0000 C   0  0  0  0  0  0  0  0  0  0  0  0
    2.3261   -0.2651    0.0000 C   0  0  0  0  0  0  0  0  0  0  0  0
   -0.5368   -1.9218    0.0000 C   0  0  0  0  0  0  0  0  0  0  0  0
    1.6104    0.9543    0.0000 C   0  0  0  0  0  0  0  0  0  0  0  0
    3.0286    0.9675    0.0000 C   0  0  0  0  0  0  0  0  0  0  0  0
   -0.5368    0.7422    0.0000 C   0  0  0  0  0  0  0  0  0  0  0  0
   -1.9550   -1.9351    0.0000 C   0  0  0  0  0  0  0  0  0  0  0  0
   -3.3467   -2.0014    0.0000 C   0  0  0  0  0  0  0  0  0  0  0  0
   -2.6177   -0.7290    0.0000 C   0  0  0  0  0  0  0  0  0  0  0  0
   -4.1552   -1.7496    0.0000 C   0  0  0  0  0  0  0  0  0  0  0  0
   -3.2141   -0.1590    0.0000 C   0  0  0  0  0  0  0  0  0  0  0  0
   -4.0359   -0.2783    0.0000 C   0  0  0  0  0  0  0  0  0  0  0  0
    4.4600    1.0073    0.0000 C   0  0  0  0  0  0  0  0  0  0  0  0
   -4.4600   -1.0073    0.0000 C   0  0  0  0  0  0  0  0  0  0  0  0
  1 19  1  0  0  0  0
  1 27  1  0  0  0  0
  2 19  2  0  0  0  0
  3 21  1  0  0  0  0
  3 22  1  0  0  0  0
  3 23  1  0  0  0  0
  4 10  1  0  0  0  0
  5 20  3  0  0  0  0
  6 24  1  0  0  0  0
  6 26  1  0  0  0  0
  6 28  1  0  0  0  0
  7  8  1  0  0  0  0
  7  9  2  0  0  0  0
  7 12  1  0  0  0  0
  8 10  2  0  0  0  0
  8 14  1  0  0  0  0
  9 15  1  0  0  0  0
  9 20  1  0  0  0  0
 10 16  1  0  0  0  0
 11 15  2  0  0  0  0
 11 17  1  0  0  0  0
 11 21  1  0  0  0  0
 12 17  2  0  0  0  0
 13 16  2  0  0  0  0
 13 18  1  0  0  0  0
 13 19  1  0  0  0  0
 14 18  2  0  0  0  0
 22 24  1  0  0  0  0
 23 25  1  0  0  0  0
 25 26  1  0  0  0  0
M  END
> <PUBCHEM_COMPOUND_ID_TYPE>
0

> <PUBCHEM_TOTAL_CHARGE>
0

> <PUBCHEM_SUBSTANCE_ID>
310943706

> <PUBCHEM_SUBSTANCE_VERSION>
1

> <PUBCHEM_EXT_DATASOURCE_NAME>
4488

> <PUBCHEM_EXT_DATASOURCE_REGID>
SCHEMBL16121774

> <PUBCHEM_SUBSTANCE_COMMENT>
InChI=1S/C22H26N4O2/c1-25-8-3-9-26(11-10-25)15-16-4-6-19(18(12-16)14-23)20-7-5-17(13-21(20)24)22(27)28-2/h4-7,12-13H,3,8-11,15,24H2,1-2H3
InChIKey=DSPOOLQNRSFQTK-UHFFFAOYSA-N

> <PUBCHEM_SUBSTANCE_SYNONYM>
SCHEMBL16121774

> <PUBCHEM_XREF_EXT_ID>
SCHEMBL16121774

> <PUBCHEM_EXT_DATASOURCE_URL>
https://www.surechembl.org/

> <PUBCHEM_EXT_SUBSTANCE_URL>
https://www.surechembl.org/chemical/SCHEMBL16121774

> <PUBCHEM_CID_ASSOCIATIONS>
86301042  1

> <PUBCHEM_COORDINATE_TYPE>
1
3

$$$$
