310931991
  -OEChem-07211613022D

 27 30  0     1  0  0  0  0  0999 V2000
    2.0731   -2.7341    0.0000 O   0  0  0  0  0  0  0  0  0  0  0  0
    0.4807   -4.9575    0.0000 O   0  0  0  0  0  0  0  0  0  0  0  0
    3.5153   -2.5238    0.0000 N   0  0  0  0  0  0  0  0  0  0  0  0
    3.9360   -3.7857    0.0000 N   0  0  0  0  0  0  0  0  0  0  0  0
    4.9875   -2.7341    0.0000 N   0  0  0  0  0  0  0  0  0  0  0  0
    3.0947   -3.7857    0.0000 C   0  0  3  0  0  0  0  0  0  0  0  0
    2.8543   -3.0045    0.0000 C   0  0  0  0  0  0  0  0  0  0  0  0
    2.6139   -4.4467    0.0000 C   0  0  0  0  0  0  0  0  0  0  0  0
    3.4853   -4.5369    0.0000 C   0  0  0  0  0  0  0  0  0  0  0  0
    4.1763   -3.0045    0.0000 C   0  0  0  0  0  0  0  0  0  0  0  0
    3.5153   -1.6826    0.0000 C   0  0  0  0  0  0  0  0  0  0  0  0
    1.8028   -4.3866    0.0000 C   0  0  0  0  0  0  0  0  0  0  0  0
    2.9445   -5.2279    0.0000 C   0  0  0  0  0  0  0  0  0  0  0  0
    4.3265   -4.5669    0.0000 C   0  0  0  0  0  0  0  0  0  0  0  0
    3.1848   -5.3781    0.0000 C   0  0  0  0  0  0  0  0  0  0  0  0
    1.3220   -5.0476    0.0000 C   0  0  0  0  0  0  0  0  0  0  0  0
    2.7942   -1.2619    0.0000 C   0  0  0  0  0  0  0  0  0  0  0  0
    4.2364   -1.2619    0.0000 C   0  0  0  0  0  0  0  0  0  0  0  0
    2.4637   -5.8889    0.0000 C   0  0  0  0  0  0  0  0  0  0  0  0
    4.6871   -5.3180    0.0000 C   0  0  0  0  0  0  0  0  0  0  0  0
    3.3951   -5.9490    0.0000 C   0  0  0  0  0  0  0  0  0  0  0  0
    1.6525   -5.7988    0.0000 C   0  0  0  0  0  0  0  0  0  0  0  0
    4.2364   -6.0090    0.0000 C   0  0  0  0  0  0  0  0  0  0  0  0
    2.7942   -0.4507    0.0000 C   0  0  0  0  0  0  0  0  0  0  0  0
    4.2364   -0.4507    0.0000 C   0  0  0  0  0  0  0  0  0  0  0  0
    3.5153    0.0000    0.0000 C   0  0  0  0  0  0  0  0  0  0  0  0
    0.0000   -5.6485    0.0000 C   0  0  0  0  0  0  0  0  0  0  0  0
  1  7  2  0  0  0  0
  2 16  1  0  0  0  0
  2 27  1  0  0  0  0
  3  7  1  0  0  0  0
  3 10  1  0  0  0  0
  3 11  1  0  0  0  0
  4  6  1  0  0  0  0
  4 10  1  0  0  0  0
  5 10  2  3  0  0  0
  6  7  1  0  0  0  0
  6  8  1  0  0  0  0
  6  9  1  0  0  0  0
  8 12  1  0  0  0  0
  8 13  2  0  0  0  0
  9 14  2  0  0  0  0
  9 15  1  0  0  0  0
 11 17  1  0  0  0  0
 11 18  1  0  0  0  0
 12 16  2  0  0  0  0
 13 19  1  0  0  0  0
 14 20  1  0  0  0  0
 15 21  2  0  0  0  0
 16 22  1  0  0  0  0
 17 24  1  0  0  0  0
 18 25  1  0  0  0  0
 19 22  2  0  0  0  0
 20 23  2  0  0  0  0
 21 23  1  0  0  0  0
 24 26  1  0  0  0  0
 25 26  1  0  0  0  0
M  END
> <PUBCHEM_COMPOUND_ID_TYPE>
0

> <PUBCHEM_TOTAL_CHARGE>
0

> <PUBCHEM_SUBSTANCE_ID>
310931991

> <PUBCHEM_SUBSTANCE_VERSION>
1

> <PUBCHEM_EXT_DATASOURCE_NAME>
4488

> <PUBCHEM_EXT_DATASOURCE_REGID>
SCHEMBL16109332

> <PUBCHEM_SUBSTANCE_COMMENT>
InChI=1S/C22H25N3O2/c1-27-19-14-8-11-17(15-19)22(16-9-4-2-5-10-16)20(26)25(21(23)24-22)18-12-6-3-7-13-18/h2,4-5,8-11,14-15,18H,3,6-7,12-13H2,1H3,(H2,23,24)
InChIKey=HBMNVOVUTMHYQD-UHFFFAOYSA-N

> <PUBCHEM_SUBSTANCE_SYNONYM>
SCHEMBL16109332

> <PUBCHEM_XREF_EXT_ID>
SCHEMBL16109332

> <PUBCHEM_EXT_DATASOURCE_URL>
https://www.surechembl.org/

> <PUBCHEM_EXT_SUBSTANCE_URL>
https://www.surechembl.org/chemical/SCHEMBL16109332

> <PUBCHEM_CID_ASSOCIATIONS>
76317508  1

> <PUBCHEM_COORDINATE_TYPE>
1
3

$$$$
