310949046
  -OEChem-07211613022D

 61 72  0     1  0  0  0  0  0999 V2000
   -1.1296   -0.9593    0.0000 N   0  0  0  0  0  0  0  0  0  0  0  0
    0.3227    1.5689    0.0000 N   0  0  0  0  0  0  0  0  0  0  0  0
   -1.8648   -4.2227    0.0000 N   0  0  0  0  0  0  0  0  0  0  0  0
   -1.8110    1.1027    0.0000 N   0  0  0  0  0  0  0  0  0  0  0  0
    2.4924    1.0669    0.0000 N   0  0  0  0  0  0  0  0  0  0  0  0
   -1.2372   -1.7661    0.0000 C   0  0  0  0  0  0  0  0  0  0  0  0
   -2.0799   -1.9096    0.0000 C   0  0  0  0  0  0  0  0  0  0  0  0
   -1.9365   -0.5828    0.0000 C   0  0  0  0  0  0  0  0  0  0  0  0
   -1.7572   -3.3620    0.0000 C   0  0  0  0  0  0  0  0  0  0  0  0
   -0.4124   -0.5110    0.0000 C   0  0  0  0  0  0  0  0  0  0  0  0
   -0.9503   -3.2185    0.0000 C   0  0  0  0  0  0  0  0  0  0  0  0
   -2.4744   -1.2103    0.0000 C   0  0  0  0  0  0  0  0  0  0  0  0
    0.3407    0.7441    0.0000 C   0  0  0  0  0  0  0  0  0  0  0  0
   -0.3765    2.0890    0.0000 C   0  0  0  0  0  0  0  0  0  0  0  0
   -0.3945    0.3138    0.0000 C   0  0  0  0  0  0  0  0  0  0  0  0
   -0.1076    2.8958    0.0000 C   0  0  0  0  0  0  0  0  0  0  0  0
    0.9862    2.1068    0.0000 C   0  0  0  0  0  0  0  0  0  0  0  0
    0.7531    2.8958    0.0000 C   0  0  0  0  0  0  0  0  0  0  0  0
   -0.6814   -2.3937    0.0000 C   0  0  0  0  0  0  0  0  0  0  0  0
   -0.5379   -3.9178    0.0000 C   0  0  0  0  0  0  0  0  0  0  0  0
   -2.2951   -2.7524    0.0000 C   0  0  0  0  0  0  0  0  0  0  0  0
   -1.0938   -4.5454    0.0000 C   0  0  0  0  0  0  0  0  0  0  0  0
    1.0579    0.3138    0.0000 C   0  0  0  0  0  0  0  0  0  0  0  0
   -0.6634    3.5054    0.0000 C   0  0  0  0  0  0  0  0  0  0  0  0
    0.3227   -0.9235    0.0000 C   0  0  0  0  0  0  0  0  0  0  0  0
   -2.6000   -4.6172    0.0000 C   0  0  0  0  0  0  0  0  0  0  0  0
   -2.1696    0.2062    0.0000 C   0  0  0  0  0  0  0  0  0  0  0  0
   -3.2634   -1.0310    0.0000 C   0  0  0  0  0  0  0  0  0  0  0  0
    1.3089    3.4696    0.0000 C   0  0  0  0  0  0  0  0  0  0  0  0
   -1.1834    1.9276    0.0000 C   0  0  0  0  0  0  0  0  0  0  0  0
    1.8289    1.9276    0.0000 C   0  0  0  0  0  0  0  0  0  0  0  0
    1.0400   -0.5110    0.0000 C   0  0  0  0  0  0  0  0  0  0  0  0
    0.2869   -4.1151    0.0000 C   0  0  0  0  0  0  0  0  0  0  0  0
   -1.1296    0.7262    0.0000 C   0  0  0  0  0  0  0  0  0  0  0  0
    2.1159    3.3082    0.0000 C   0  0  3  0  0  0  0  0  0  0  0  0
   -0.8248   -5.3523    0.0000 C   0  0  0  0  0  0  0  0  0  0  0  0
   -0.3945    4.3123    0.0000 C   0  0  0  0  0  0  0  0  0  0  0  0
   -1.4524    3.3082    0.0000 C   0  0  0  0  0  0  0  0  0  0  0  0
    2.3489    2.5193    0.0000 C   0  0  0  0  0  0  0  0  0  0  0  0
   -1.7392    2.5193    0.0000 C   0  0  0  0  0  0  0  0  0  0  0  0
   -2.9585    0.3676    0.0000 C   0  0  0  0  0  0  0  0  0  0  0  0
   -3.5323   -0.2241    0.0000 C   0  0  0  0  0  0  0  0  0  0  0  0
    1.7752    0.7083    0.0000 C   0  0  0  0  0  0  0  0  0  0  0  0
    0.5379   -4.9219    0.0000 C   0  0  0  0  0  0  0  0  0  0  0  0
   -3.2992   -4.2227    0.0000 C   0  0  0  0  0  0  0  0  0  0  0  0
   -2.6000   -5.4598    0.0000 C   0  0  0  0  0  0  0  0  0  0  0  0
    0.0000   -5.5316    0.0000 C   0  0  0  0  0  0  0  0  0  0  0  0
    2.6537    3.9537    0.0000 C   0  0  0  0  0  0  0  0  0  0  0  0
    0.3945    4.4737    0.0000 C   0  0  0  0  0  0  0  0  0  0  0  0
   -0.9503    4.9040    0.0000 C   0  0  0  0  0  0  0  0  0  0  0  0
   -4.0164   -4.5992    0.0000 C   0  0  0  0  0  0  0  0  0  0  0  0
   -3.3172   -5.8723    0.0000 C   0  0  0  0  0  0  0  0  0  0  0  0
    3.4786    3.7924    0.0000 C   0  0  0  0  0  0  0  0  0  0  0  0
    2.4206    4.7247    0.0000 C   0  0  0  0  0  0  0  0  0  0  0  0
   -4.0164   -5.4598    0.0000 C   0  0  0  0  0  0  0  0  0  0  0  0
    0.6634    5.2806    0.0000 C   0  0  0  0  0  0  0  0  0  0  0  0
   -0.7172    5.7109    0.0000 C   0  0  0  0  0  0  0  0  0  0  0  0
    0.1076    5.8723    0.0000 C   0  0  0  0  0  0  0  0  0  0  0  0
    4.0164    4.3840    0.0000 C   0  0  0  0  0  0  0  0  0  0  0  0
    2.9585    5.3344    0.0000 C   0  0  0  0  0  0  0  0  0  0  0  0
    3.7655    5.1909    0.0000 C   0  0  0  0  0  0  0  0  0  0  0  0
  1  6  1  0  0  0  0
  1  8  1  0  0  0  0
  1 10  1  0  0  0  0
  2 13  1  0  0  0  0
  2 14  1  0  0  0  0
  2 17  1  0  0  0  0
  3  9  1  0  0  0  0
  3 22  1  0  0  0  0
  3 26  1  0  0  0  0
  4 34  3  0  0  0  0
  5 43  3  0  0  0  0
  6  7  2  0  0  0  0
  6 19  1  0  0  0  0
  7 12  1  0  0  0  0
  7 21  1  0  0  0  0
  8 12  2  0  0  0  0
  8 27  1  0  0  0  0
  9 11  1  0  0  0  0
  9 21  2  0  0  0  0
 10 15  2  0  0  0  0
 10 25  1  0  0  0  0
 11 19  2  0  0  0  0
 11 20  1  0  0  0  0
 12 28  1  0  0  0  0
 13 15  1  0  0  0  0
 13 23  2  0  0  0  0
 14 16  2  0  0  0  0
 14 30  1  0  0  0  0
 15 34  1  0  0  0  0
 16 18  1  0  0  0  0
 16 24  1  0  0  0  0
 17 18  2  0  0  0  0
 17 31  1  0  0  0  0
 18 29  1  0  0  0  0
 20 22  2  0  0  0  0
 20 33  1  0  0  0  0
 22 36  1  0  0  0  0
 23 32  1  0  0  0  0
 23 43  1  0  0  0  0
 24 37  1  0  0  0  0
 24 38  2  0  0  0  0
 25 32  2  0  0  0  0
 26 45  2  0  0  0  0
 26 46  1  0  0  0  0
 27 41  2  0  0  0  0
 28 42  2  0  0  0  0
 29 35  1  0  0  0  0
 30 40  2  0  0  0  0
 31 39  2  0  0  0  0
 33 44  2  0  0  0  0
 35 39  1  0  0  0  0
 35 48  1  0  0  0  0
 36 47  2  0  0  0  0
 37 49  2  0  0  0  0
 37 50  1  0  0  0  0
 38 40  1  0  0  0  0
 41 42  1  0  0  0  0
 44 47  1  0  0  0  0
 45 51  1  0  0  0  0
 46 52  2  0  0  0  0
 48 53  2  0  0  0  0
 48 54  1  0  0  0  0
 49 56  1  0  0  0  0
 50 57  2  0  0  0  0
 51 55  2  0  0  0  0
 52 55  1  0  0  0  0
 53 59  1  0  0  0  0
 54 60  2  0  0  0  0
 56 58  2  0  0  0  0
 57 58  1  0  0  0  0
 59 61  2  0  0  0  0
 60 61  1  0  0  0  0
M  END
> <PUBCHEM_COMPOUND_ID_TYPE>
0

> <PUBCHEM_TOTAL_CHARGE>
0

> <PUBCHEM_SUBSTANCE_ID>
310949046

> <PUBCHEM_SUBSTANCE_VERSION>
1

> <PUBCHEM_EXT_DATASOURCE_NAME>
4488

> <PUBCHEM_EXT_DATASOURCE_REGID>
SCHEMBL16127236

> <PUBCHEM_SUBSTANCE_COMMENT>
InChI=1S/C56H35N5/c57-34-39-28-30-51(60-49-25-13-11-22-43(49)45-32-53-44(33-54(45)60)42-21-10-12-24-48(42)59(53)40-19-8-3-9-20-40)47(35-58)56(39)61-50-29-27-38(36-15-4-1-5-16-36)31-46(50)55-41(23-14-26-52(55)61)37-17-6-2-7-18-37/h1-30,32-33,38H,31H2
InChIKey=KYPSFCXQTFVFGA-UHFFFAOYSA-N

> <PUBCHEM_SUBSTANCE_SYNONYM>
SCHEMBL16127236

> <PUBCHEM_XREF_EXT_ID>
SCHEMBL16127236

> <PUBCHEM_EXT_DATASOURCE_URL>
https://www.surechembl.org/

> <PUBCHEM_EXT_SUBSTANCE_URL>
https://www.surechembl.org/chemical/SCHEMBL16127236

> <PUBCHEM_CID_ASSOCIATIONS>
117614551  1

> <PUBCHEM_COORDINATE_TYPE>
1
3

$$$$
