310934880
  -OEChem-07211613022D

 24 26  0     1  0  0  0  0  0999 V2000
    0.3434    6.5298    0.0000 Cl  0  0  0  0  0  0  0  0  0  0  0  0
   -3.6493    3.4899    0.0000 F   0  0  0  0  0  0  0  0  0  0  0  0
   -0.6342    4.0044    0.0000 O   0  0  0  0  0  0  0  0  0  0  0  0
    0.4277    3.0483    0.0000 O   0  0  0  0  0  0  0  0  0  0  0  0
   -1.8226    6.7999    0.0000 N   0  0  0  0  0  0  0  0  0  0  0  0
   -0.9313    2.6067    0.0000 C   0  0  3  0  0  0  0  0  0  0  0  0
   -1.4834    3.2198    0.0000 C   0  0  0  0  0  0  0  0  0  0  0  0
   -2.2903    3.0483    0.0000 C   0  0  0  0  0  0  0  0  0  0  0  0
   -1.7805    4.6175    0.0000 C   0  0  0  0  0  0  0  0  0  0  0  0
   -1.2284    4.0044    0.0000 C   0  0  0  0  0  0  0  0  0  0  0  0
   -0.3793    3.2198    0.0000 C   0  0  0  0  0  0  0  0  0  0  0  0
   -1.5988    2.1218    0.0000 C   0  0  0  0  0  0  0  0  0  0  0  0
   -0.2639    2.1218    0.0000 C   0  0  0  0  0  0  0  0  0  0  0  0
   -2.8424    3.6614    0.0000 C   0  0  0  0  0  0  0  0  0  0  0  0
   -1.5255    5.4022    0.0000 C   0  0  0  0  0  0  0  0  0  0  0  0
   -2.5874    4.4460    0.0000 C   0  0  0  0  0  0  0  0  0  0  0  0
   -1.3438    1.3372    0.0000 C   0  0  0  0  0  0  0  0  0  0  0  0
   -0.5188    1.3372    0.0000 C   0  0  0  0  0  0  0  0  0  0  0  0
   -0.7186    5.5737    0.0000 C   0  0  0  0  0  0  0  0  0  0  0  0
   -2.0776    6.0153    0.0000 C   0  0  0  0  0  0  0  0  0  0  0  0
   -2.5453    2.2637    0.0000 C   0  0  0  0  0  0  0  0  0  0  0  0
   -0.4636    6.3583    0.0000 C   0  0  0  0  0  0  0  0  0  0  0  0
   -1.0156    6.9714    0.0000 C   0  0  0  0  0  0  0  0  0  0  0  0
   -0.7607    7.7560    0.0000 C   0  0  0  0  0  0  0  0  0  0  0  0
  1 22  1  0  0  0  0
  2 14  1  0  0  0  0
  3 11  2  0  0  0  0
  4 11  1  0  0  0  0
  5 20  2  0  0  0  0
  5 23  1  0  0  0  0
  6  7  1  0  0  0  0
  6 11  1  0  0  0  0
  6 12  1  0  0  0  0
  6 13  1  0  0  0  0
  7  8  2  0  0  0  0
  7 10  1  0  0  0  0
  8 14  1  0  0  0  0
  8 21  1  0  0  0  0
  9 10  2  0  0  0  0
  9 15  1  0  0  0  0
  9 16  1  0  0  0  0
 12 17  2  0  0  0  0
 13 18  1  0  0  0  0
 14 16  2  0  0  0  0
 15 19  2  0  0  0  0
 15 20  1  0  0  0  0
 17 18  1  0  0  0  0
 19 22  1  0  0  0  0
 22 23  2  0  0  0  0
 23 24  1  0  0  0  0
M  END
> <PUBCHEM_COMPOUND_ID_TYPE>
0

> <PUBCHEM_TOTAL_CHARGE>
0

> <PUBCHEM_SUBSTANCE_ID>
310934880

> <PUBCHEM_SUBSTANCE_VERSION>
1

> <PUBCHEM_EXT_DATASOURCE_NAME>
4488

> <PUBCHEM_EXT_DATASOURCE_REGID>
SCHEMBL16112393

> <PUBCHEM_SUBSTANCE_COMMENT>
InChI=1S/C19H17ClFNO2/c1-11-15(19(18(23)24)5-3-4-6-19)7-13(9-17(11)21)14-8-16(20)12(2)22-10-14/h3,5,7-10H,4,6H2,1-2H3,(H,23,24)
InChIKey=QLFQVJFWTIHUGA-UHFFFAOYSA-N

> <PUBCHEM_SUBSTANCE_SYNONYM>
SCHEMBL16112393

> <PUBCHEM_XREF_EXT_ID>
SCHEMBL16112393

> <PUBCHEM_EXT_DATASOURCE_URL>
https://www.surechembl.org/

> <PUBCHEM_EXT_SUBSTANCE_URL>
https://www.surechembl.org/chemical/SCHEMBL16112393

> <PUBCHEM_CID_ASSOCIATIONS>
117603012  1

> <PUBCHEM_COORDINATE_TYPE>
1
3

$$$$
