310943931
  -OEChem-07211613022D

 19 20  0     1  0  0  0  0  0999 V2000
   -1.3457   -1.5955    0.0000 N   0  0  0  0  0  0  0  0  0  0  0  0
   -0.7353   -2.1365    0.0000 N   0  0  0  0  0  0  0  0  0  0  0  0
    1.1793   -0.4856    0.0000 N   0  0  3  0  0  0  0  0  0  0  0  0
    3.0384    0.6798    0.0000 N   0  0  0  0  0  0  0  0  0  0  0  0
   -1.0128   -0.8324    0.0000 C   0  0  0  0  0  0  0  0  0  0  0  0
   -0.1942   -0.9296    0.0000 C   0  0  0  0  0  0  0  0  0  0  0  0
   -1.4290   -0.1248    0.0000 C   0  0  0  0  0  0  0  0  0  0  0  0
   -2.2615    1.3180    0.0000 C   0  0  0  0  0  0  0  0  0  0  0  0
   -0.0139   -1.7204    0.0000 C   0  0  0  0  0  0  0  0  0  0  0  0
   -2.2475   -0.1110    0.0000 C   0  0  0  0  0  0  0  0  0  0  0  0
   -1.0128    0.5966    0.0000 C   0  0  0  0  0  0  0  0  0  0  0  0
    0.3746   -0.3052    0.0000 C   0  0  0  0  0  0  0  0  0  0  0  0
   -2.6499    0.5827    0.0000 C   0  0  0  0  0  0  0  0  0  0  0  0
   -1.4151    1.2903    0.0000 C   0  0  0  0  0  0  0  0  0  0  0  0
   -3.0384    1.5955    0.0000 C   0  0  0  0  0  0  0  0  0  0  0  0
   -2.1088    2.1365    0.0000 C   0  0  0  0  0  0  0  0  0  0  0  0
    1.7065    0.1665    0.0000 C   0  0  0  0  0  0  0  0  0  0  0  0
    1.4429   -1.2903    0.0000 C   0  0  0  0  0  0  0  0  0  0  0  0
    2.5250    0.0416    0.0000 C   0  0  0  0  0  0  0  0  0  0  0  0
  1  2  1  0  0  0  0
  1  5  2  0  0  0  0
  2  9  1  0  0  0  0
  3 12  1  0  0  0  0
  3 17  1  0  0  0  0
  3 18  1  0  0  0  0
  4 19  1  0  0  0  0
  5  6  1  0  0  0  0
  5  7  1  0  0  0  0
  6  9  2  0  0  0  0
  6 12  1  0  0  0  0
  7 10  1  0  0  0  0
  7 11  1  0  0  0  0
  8 13  1  0  0  0  0
  8 14  1  0  0  0  0
  8 15  1  0  0  0  0
  8 16  1  0  0  0  0
 10 13  1  0  0  0  0
 11 14  1  0  0  0  0
 17 19  1  0  0  0  0
M  END
> <PUBCHEM_COMPOUND_ID_TYPE>
0

> <PUBCHEM_TOTAL_CHARGE>
0

> <PUBCHEM_SUBSTANCE_ID>
310943931

> <PUBCHEM_SUBSTANCE_VERSION>
1

> <PUBCHEM_EXT_DATASOURCE_NAME>
4488

> <PUBCHEM_EXT_DATASOURCE_REGID>
SCHEMBL16122002

> <PUBCHEM_SUBSTANCE_COMMENT>
InChI=1S/C15H28N4/c1-15(2)6-4-12(5-7-15)14-13(10-17-18-14)11-19(3)9-8-16/h10,12H,4-9,11,16H2,1-3H3,(H,17,18)
InChIKey=IWKRIEZJSWHCOF-UHFFFAOYSA-N

> <PUBCHEM_SUBSTANCE_SYNONYM>
SCHEMBL16122002

> <PUBCHEM_XREF_EXT_ID>
SCHEMBL16122002

> <PUBCHEM_EXT_DATASOURCE_URL>
https://www.surechembl.org/

> <PUBCHEM_EXT_SUBSTANCE_URL>
https://www.surechembl.org/chemical/SCHEMBL16122002

> <PUBCHEM_CID_ASSOCIATIONS>
86301532  1

> <PUBCHEM_COORDINATE_TYPE>
1
3

$$$$
