310934046
  -OEChem-07211613022D

 39 43  0     1  0  0  0  0  0999 V2000
    3.6681    0.0000    0.0000 Cl  0  0  0  0  0  0  0  0  0  0  0  0
    3.7672   -5.7500    0.0000 O   0  0  0  0  0  0  0  0  0  0  0  0
    4.1143   -5.0561    0.0000 O   0  0  0  0  0  0  0  0  0  0  0  0
    6.1962   -2.8750    0.0000 O   0  5  0  0  0  0  0  0  0  0  0  0
    5.0065   -3.5690    0.0000 O   0  0  0  0  0  0  0  0  0  0  0  0
    1.7349   -7.9311    0.0000 N   0  0  0  0  0  0  0  0  0  0  0  0
    2.9246   -4.3125    0.0000 N   0  0  0  0  0  0  0  0  0  0  0  0
    2.5280   -6.4936    0.0000 N   0  0  0  0  0  0  0  0  0  0  0  0
    0.3966   -8.2285    0.0000 N   0  0  0  0  0  0  0  0  0  0  0  0
    5.4030   -2.8750    0.0000 N   0  3  0  0  0  0  0  0  0  0  0  0
    2.4785   -5.0561    0.0000 C   0  0  3  0  0  0  0  0  0  0  0  0
    1.2888   -7.1876    0.0000 C   0  0  0  0  0  0  0  0  0  0  0  0
    2.9246   -5.7500    0.0000 C   0  0  0  0  0  0  0  0  0  0  0  0
    1.1401   -8.5259    0.0000 C   0  0  0  0  0  0  0  0  0  0  0  0
    3.7177   -2.8750    0.0000 C   0  0  0  0  0  0  0  0  0  0  0  0
    3.7177   -4.3125    0.0000 C   0  0  0  0  0  0  0  0  0  0  0  0
    4.1143   -2.1810    0.0000 C   0  0  0  0  0  0  0  0  0  0  0  0
    1.6853   -6.4936    0.0000 C   0  0  0  0  0  0  0  0  0  0  0  0
    2.5280   -7.9311    0.0000 C   0  0  0  0  0  0  0  0  0  0  0  0
    2.9742   -7.2371    0.0000 C   0  0  0  0  0  0  0  0  0  0  0  0
    4.1638   -3.6185    0.0000 C   0  0  0  0  0  0  0  0  0  0  0  0
    2.4785   -3.6185    0.0000 C   0  0  0  0  0  0  0  0  0  0  0  0
    4.9569   -2.1315    0.0000 C   0  0  0  0  0  0  0  0  0  0  0  0
    0.4957   -7.3858    0.0000 C   0  0  0  0  0  0  0  0  0  0  0  0
    2.9246   -2.8750    0.0000 C   0  0  0  0  0  0  0  0  0  0  0  0
    1.6853   -5.0561    0.0000 C   0  0  0  0  0  0  0  0  0  0  0  0
    1.3384   -9.3686    0.0000 C   0  0  0  0  0  0  0  0  0  0  0  0
    3.7177   -1.4375    0.0000 C   0  0  0  0  0  0  0  0  0  0  0  0
    1.2392   -4.3125    0.0000 C   0  0  0  0  0  0  0  0  0  0  0  0
    5.3535   -1.4375    0.0000 C   0  0  0  0  0  0  0  0  0  0  0  0
    4.1143   -0.7435    0.0000 C   0  0  0  0  0  0  0  0  0  0  0  0
    4.9569   -0.6940    0.0000 C   0  0  0  0  0  0  0  0  0  0  0  0
    0.3966   -4.3125    0.0000 C   0  0  0  0  0  0  0  0  0  0  0  0
    1.6358   -3.6185    0.0000 C   0  0  0  0  0  0  0  0  0  0  0  0
    2.1315   -9.6164    0.0000 C   0  0  0  0  0  0  0  0  0  0  0  0
    0.7435   -9.9138    0.0000 C   0  0  0  0  0  0  0  0  0  0  0  0
    0.0000   -3.6185    0.0000 C   0  0  0  0  0  0  0  0  0  0  0  0
    1.2392   -2.9246    0.0000 C   0  0  0  0  0  0  0  0  0  0  0  0
    0.3966   -2.9246    0.0000 C   0  0  0  0  0  0  0  0  0  0  0  0
  1 31  1  0  0  0  0
  2 13  2  0  0  0  0
  3 16  2  0  0  0  0
  4 10  1  0  0  0  0
  5 10  2  0  0  0  0
  6 12  1  0  0  0  0
  6 14  1  0  0  0  0
  6 19  1  0  0  0  0
  7 11  1  0  0  0  0
  7 16  1  0  0  0  0
  7 22  1  0  0  0  0
  8 13  1  0  0  0  0
  8 18  1  0  0  0  0
  8 20  1  0  0  0  0
  9 14  2  0  0  0  0
  9 24  1  0  0  0  0
 10 23  1  0  0  0  0
 11 13  1  0  0  0  0
 11 26  1  0  0  0  0
 12 18  1  0  0  0  0
 12 24  2  0  0  0  0
 14 27  1  0  0  0  0
 15 17  1  0  0  0  0
 15 21  2  0  0  0  0
 15 25  1  0  0  0  0
 16 21  1  0  0  0  0
 17 23  1  0  0  0  0
 17 28  2  0  0  0  0
 19 20  1  0  0  0  0
 22 25  2  0  0  0  0
 23 30  2  0  0  0  0
 26 29  1  0  0  0  0
 27 35  1  0  0  0  0
 27 36  1  0  0  0  0
 28 31  1  0  0  0  0
 29 33  2  0  0  0  0
 29 34  1  0  0  0  0
 30 32  1  0  0  0  0
 31 32  2  0  0  0  0
 33 37  1  0  0  0  0
 34 38  2  0  0  0  0
 37 39  2  0  0  0  0
 38 39  1  0  0  0  0
M  CHG  2   4  -1  10   1
M  END
> <PUBCHEM_COMPOUND_ID_TYPE>
0

> <PUBCHEM_TOTAL_CHARGE>
0

> <PUBCHEM_SUBSTANCE_ID>
310934046

> <PUBCHEM_SUBSTANCE_VERSION>
1

> <PUBCHEM_EXT_DATASOURCE_NAME>
4488

> <PUBCHEM_EXT_DATASOURCE_REGID>
SCHEMBL16111490

> <PUBCHEM_SUBSTANCE_COMMENT>
InChI=1S/C29H28ClN5O4/c1-19(2)28-31-17-23-18-32(12-13-33(23)28)29(37)26(14-20-6-4-3-5-7-20)34-11-10-21(15-27(34)36)24-16-22(30)8-9-25(24)35(38)39/h3-11,15-17,19,26H,12-14,18H2,1-2H3
InChIKey=QOJYYXTUSRGTKW-UHFFFAOYSA-N

> <PUBCHEM_SUBSTANCE_SYNONYM>
SCHEMBL16111490

> <PUBCHEM_XREF_EXT_ID>
SCHEMBL16111490

> <PUBCHEM_EXT_DATASOURCE_URL>
https://www.surechembl.org/

> <PUBCHEM_EXT_SUBSTANCE_URL>
https://www.surechembl.org/chemical/SCHEMBL16111490

> <PUBCHEM_CID_ASSOCIATIONS>
86299900  1

> <PUBCHEM_COORDINATE_TYPE>
1
3

$$$$
