310934505
  -OEChem-07211613022D

 16 17  0     1  0  0  0  0  0999 V2000
    2.4500   -5.0001    0.0000 Br  0  0  0  0  0  0  0  0  0  0  0  0
    2.4751   -2.1251    0.0000 F   0  0  0  0  0  0  0  0  0  0  0  0
    0.0000   -2.1500    0.0000 O   0  0  0  0  0  0  0  0  0  0  0  0
    1.2250   -1.4250    0.0000 C   0  0  0  0  0  0  0  0  0  0  0  0
    0.8250   -2.1500    0.0000 C   0  0  3  0  0  0  0  0  0  0  0  0
    1.2250   -2.8501    0.0000 C   0  0  0  0  0  0  0  0  0  0  0  0
    2.0500   -1.4250    0.0000 C   0  0  0  0  0  0  0  0  0  0  0  0
    0.8250   -0.7000    0.0000 C   0  0  0  0  0  0  0  0  0  0  0  0
    2.0500   -2.8750    0.0000 C   0  0  0  0  0  0  0  0  0  0  0  0
    0.8250   -3.5751    0.0000 C   0  0  0  0  0  0  0  0  0  0  0  0
    2.0500   -4.3001    0.0000 C   0  0  0  0  0  0  0  0  0  0  0  0
    2.4500   -0.7250    0.0000 C   0  0  0  0  0  0  0  0  0  0  0  0
    2.4751   -3.5751    0.0000 C   0  0  0  0  0  0  0  0  0  0  0  0
    1.2250   -4.2751    0.0000 C   0  0  0  0  0  0  0  0  0  0  0  0
    1.2250    0.0000    0.0000 C   0  0  0  0  0  0  0  0  0  0  0  0
    2.0500    0.0000    0.0000 C   0  0  0  0  0  0  0  0  0  0  0  0
  1 11  1  0  0  0  0
  2  7  1  0  0  0  0
  3  5  1  0  0  0  0
  4  5  1  0  0  0  0
  4  7  1  0  0  0  0
  4  8  2  0  0  0  0
  5  6  1  0  0  0  0
  6  9  2  0  0  0  0
  6 10  1  0  0  0  0
  7 12  2  0  0  0  0
  8 15  1  0  0  0  0
  9 13  1  0  0  0  0
 10 14  2  0  0  0  0
 11 13  2  0  0  0  0
 11 14  1  0  0  0  0
 12 16  1  0  0  0  0
 15 16  2  0  0  0  0
M  END
> <PUBCHEM_COMPOUND_ID_TYPE>
0

> <PUBCHEM_TOTAL_CHARGE>
0

> <PUBCHEM_SUBSTANCE_ID>
310934505

> <PUBCHEM_SUBSTANCE_VERSION>
1

> <PUBCHEM_EXT_DATASOURCE_NAME>
4488

> <PUBCHEM_EXT_DATASOURCE_REGID>
SCHEMBL16111990

> <PUBCHEM_SUBSTANCE_COMMENT>
InChI=1S/C13H10BrFO/c14-10-7-5-9(6-8-10)13(16)11-3-1-2-4-12(11)15/h1-8,13,16H
InChIKey=KLGQFQQODFUYHK-UHFFFAOYSA-N

> <PUBCHEM_SUBSTANCE_SYNONYM>
SCHEMBL16111990

> <PUBCHEM_XREF_EXT_ID>
SCHEMBL16111990

> <PUBCHEM_EXT_DATASOURCE_URL>
https://www.surechembl.org/

> <PUBCHEM_EXT_SUBSTANCE_URL>
https://www.surechembl.org/chemical/SCHEMBL16111990

> <PUBCHEM_CID_ASSOCIATIONS>
49962485  1

> <PUBCHEM_COORDINATE_TYPE>
1
3

$$$$
