310941946
  -OEChem-07211613022D

 15 14  0     1  0  0  0  0  0999 V2000
    2.9282   -0.5419    0.0000 O   0  0  0  0  0  0  0  0  0  0  0  0
    2.3956   -1.4176    0.0000 O   0  0  0  0  0  0  0  0  0  0  0  0
    0.7626    1.3989    0.0000 N   0  0  0  0  0  0  0  0  0  0  0  0
    0.0130   -0.7561    0.0000 N   0  0  0  0  0  0  0  0  0  0  0  0
    2.9400    0.0498    0.0000 C   0  0  0  0  0  0  0  0  0  0  0  0
    2.3956   -0.8496    0.0000 C   0  0  0  0  0  0  0  0  0  0  0  0
    0.0130    0.9679    0.0000 C   0  0  3  0  0  0  0  0  0  0  0  0
   -1.0365    0.9866    0.0000 C   0  0  0  0  0  0  0  0  0  0  0  0
    0.0130    0.1246    0.0000 C   0  0  0  0  0  0  0  0  0  0  0  0
    3.4726    0.0735    0.0000 C   0  0  0  0  0  0  0  0  0  0  0  0
    2.3956    0.0498    0.0000 C   0  0  0  0  0  0  0  0  0  0  0  0
    2.9282    0.6297    0.0000 C   0  0  0  0  0  0  0  0  0  0  0  0
   -1.7298    1.3989    0.0000 C   0  0  0  0  0  0  0  0  0  0  0  0
   -2.5918    1.4176    0.0000 C   0  0  0  0  0  0  0  0  0  0  0  0
   -3.4726    1.3802    0.0000 C   0  0  0  0  0  0  0  0  0  0  0  0
  1  5  1  0  0  0  0
  1  6  1  0  0  0  0
  2  6  2  0  0  0  0
  3  6  1  0  0  0  0
  3  7  1  0  0  0  0
  4  9  3  0  0  0  0
  5 10  1  0  0  0  0
  5 11  1  0  0  0  0
  5 12  1  0  0  0  0
  7  8  1  0  0  0  0
  7  9  1  0  0  0  0
  8 13  1  0  0  0  0
 13 14  1  0  0  0  0
 14 15  3  0  0  0  0
M  END
> <PUBCHEM_COMPOUND_ID_TYPE>
0

> <PUBCHEM_TOTAL_CHARGE>
0

> <PUBCHEM_SUBSTANCE_ID>
310941946

> <PUBCHEM_SUBSTANCE_VERSION>
1

> <PUBCHEM_EXT_DATASOURCE_NAME>
4488

> <PUBCHEM_EXT_DATASOURCE_REGID>
SCHEMBL16119979

> <PUBCHEM_SUBSTANCE_COMMENT>
InChI=1S/C11H16N2O2/c1-5-6-7-9(8-12)13-10(14)15-11(2,3)4/h1,9H,6-7H2,2-4H3,(H,13,14)
InChIKey=XCFPILPFQVRYCZ-UHFFFAOYSA-N

> <PUBCHEM_SUBSTANCE_SYNONYM>
SCHEMBL16119979

> <PUBCHEM_XREF_EXT_ID>
SCHEMBL16119979

> <PUBCHEM_EXT_DATASOURCE_URL>
https://www.surechembl.org/

> <PUBCHEM_EXT_SUBSTANCE_URL>
https://www.surechembl.org/chemical/SCHEMBL16119979

> <PUBCHEM_CID_ASSOCIATIONS>
117608669  1

> <PUBCHEM_COORDINATE_TYPE>
1
3

$$$$
