310931030
  -OEChem-07211613022D

 47 52  0     1  0  0  0  0  0999 V2000
    6.2195    0.4125    0.0000 Cl  0  0  0  0  0  0  0  0  0  0  0  0
    4.1570   -4.5888    0.0000 S   0  0  0  0  0  0  0  0  0  0  0  0
    5.8795   -5.9707    0.0000 S   0  0  0  0  0  0  0  0  0  0  0  0
    4.9820   -3.1599    0.0000 F   0  0  0  0  0  0  0  0  0  0  0  0
    1.6820   -3.1599    0.0000 F   0  0  0  0  0  0  0  0  0  0  0  0
    3.4426   -5.0013    0.0000 O   0  0  0  0  0  0  0  0  0  0  0  0
    4.8715   -4.1763    0.0000 O   0  0  0  0  0  0  0  0  0  0  0  0
    2.5070   -1.7309    0.0000 O   0  0  0  0  0  0  0  0  0  0  0  0
    0.7846   -0.2549    0.0000 O   0  0  0  0  0  0  0  0  0  0  0  0
    0.7846    1.0799    0.0000 O   0  0  0  0  0  0  0  0  0  0  0  0
    3.3320   -7.4467    0.0000 O   0  0  0  0  0  0  0  0  0  0  0  0
    5.8070   -8.8756    0.0000 O   0  0  0  0  0  0  0  0  0  0  0  0
    4.5695   -5.3033    0.0000 N   0  0  0  0  0  0  0  0  0  0  0  0
    5.8795   -4.6358    0.0000 N   0  0  0  0  0  0  0  0  0  0  0  0
    6.6641   -5.7158    0.0000 N   0  0  0  0  0  0  0  0  0  0  0  0
    3.7445   -3.8743    0.0000 C   0  0  0  0  0  0  0  0  0  0  0  0
    4.1570   -3.1599    0.0000 C   0  0  0  0  0  0  0  0  0  0  0  0
    5.3945   -5.3033    0.0000 C   0  0  0  0  0  0  0  0  0  0  0  0
    2.9195   -3.8743    0.0000 C   0  0  0  0  0  0  0  0  0  0  0  0
    2.9195   -2.4454    0.0000 C   0  0  0  0  0  0  0  0  0  0  0  0
    1.2695    0.4125    0.0000 C   0  0  0  0  0  0  0  0  0  0  0  0
    2.5070   -3.1599    0.0000 C   0  0  0  0  0  0  0  0  0  0  0  0
    4.1570   -6.0177    0.0000 C   0  0  0  0  0  0  0  0  0  0  0  0
    3.7445   -2.4454    0.0000 C   0  0  0  0  0  0  0  0  0  0  0  0
    2.5070   -0.3020    0.0000 C   0  0  3  0  0  0  0  0  0  0  0  0
    2.9195    0.4125    0.0000 C   0  0  3  0  0  0  0  0  0  0  0  0
    4.5695   -6.7322    0.0000 C   0  0  0  0  0  0  0  0  0  0  0  0
    1.6820   -0.3020    0.0000 C   0  0  0  0  0  0  0  0  0  0  0  0
    1.6820    1.1270    0.0000 C   0  0  0  0  0  0  0  0  0  0  0  0
    2.9195   -1.0164    0.0000 C   0  0  0  0  0  0  0  0  0  0  0  0
    3.7445    0.4125    0.0000 C   0  0  0  0  0  0  0  0  0  0  0  0
    2.5070    1.1270    0.0000 C   0  0  0  0  0  0  0  0  0  0  0  0
    4.1570   -7.4467    0.0000 C   0  0  0  0  0  0  0  0  0  0  0  0
    5.3945   -6.7322    0.0000 C   0  0  0  0  0  0  0  0  0  0  0  0
    6.6641   -4.8908    0.0000 C   0  0  0  0  0  0  0  0  0  0  0  0
    0.0000    0.0000    0.0000 C   0  0  0  0  0  0  0  0  0  0  0  0
    0.0000    0.8250    0.0000 C   0  0  0  0  0  0  0  0  0  0  0  0
    4.5695   -8.1612    0.0000 C   0  0  0  0  0  0  0  0  0  0  0  0
    5.3945   -8.1612    0.0000 C   0  0  0  0  0  0  0  0  0  0  0  0
    4.1570    1.1270    0.0000 C   0  0  0  0  0  0  0  0  0  0  0  0
    4.1570   -0.3020    0.0000 C   0  0  0  0  0  0  0  0  0  0  0  0
    5.8070   -7.4467    0.0000 C   0  0  0  0  0  0  0  0  0  0  0  0
    4.9820    1.1270    0.0000 C   0  0  0  0  0  0  0  0  0  0  0  0
    4.9820   -0.3020    0.0000 C   0  0  0  0  0  0  0  0  0  0  0  0
    5.3945    0.4125    0.0000 C   0  0  0  0  0  0  0  0  0  0  0  0
    2.9195   -6.7322    0.0000 C   0  0  0  0  0  0  0  0  0  0  0  0
    6.6320   -8.8756    0.0000 C   0  0  0  0  0  0  0  0  0  0  0  0
  1 45  1  0  0  0  0
  2  6  2  0  0  0  0
  2  7  2  0  0  0  0
  2 13  1  0  0  0  0
  2 16  1  0  0  0  0
  3 15  1  0  0  0  0
  3 18  1  0  0  0  0
  4 17  1  0  0  0  0
  5 22  1  0  0  0  0
  8 20  1  0  0  0  0
  8 30  1  0  0  0  0
  9 21  1  0  0  0  0
  9 36  1  0  0  0  0
 10 21  1  0  0  0  0
 10 37  1  0  0  0  0
 11 33  1  0  0  0  0
 11 46  1  0  0  0  0
 12 39  1  0  0  0  0
 12 47  1  0  0  0  0
 13 18  1  0  0  0  0
 13 23  1  0  0  0  0
 14 18  2  0  0  0  0
 14 35  1  0  0  0  0
 15 35  2  0  0  0  0
 16 17  2  0  0  0  0
 16 19  1  0  0  0  0
 17 24  1  0  0  0  0
 19 22  2  0  0  0  0
 20 22  1  0  0  0  0
 20 24  2  0  0  0  0
 21 28  1  0  0  0  0
 21 29  1  0  0  0  0
 23 27  1  0  0  0  0
 25 26  1  0  0  0  0
 25 28  1  0  0  0  0
 25 30  1  0  0  0  0
 26 31  1  0  0  0  0
 26 32  1  0  0  0  0
 27 33  2  0  0  0  0
 27 34  1  0  0  0  0
 29 32  1  0  0  0  0
 31 40  2  0  0  0  0
 31 41  1  0  0  0  0
 33 38  1  0  0  0  0
 34 42  2  0  0  0  0
 36 37  1  0  0  0  0
 38 39  2  0  0  0  0
 39 42  1  0  0  0  0
 40 43  1  0  0  0  0
 41 44  2  0  0  0  0
 43 45  2  0  0  0  0
 44 45  1  0  0  0  0
M  END
> <PUBCHEM_COMPOUND_ID_TYPE>
0

> <PUBCHEM_TOTAL_CHARGE>
0

> <PUBCHEM_SUBSTANCE_ID>
310931030

> <PUBCHEM_SUBSTANCE_VERSION>
1

> <PUBCHEM_EXT_DATASOURCE_NAME>
4488

> <PUBCHEM_EXT_DATASOURCE_REGID>
SCHEMBL16108332

> <PUBCHEM_SUBSTANCE_COMMENT>
InChI=1S/C32H32ClF2N3O7S2/c1-41-24-8-5-21(28(13-24)42-2)17-38(31-36-19-37-46-31)47(39,40)30-15-26(34)29(14-27(30)35)43-18-22-16-32(44-11-12-45-32)10-9-25(22)20-3-6-23(33)7-4-20/h3-8,13-15,19,22,25H,9-12,16-18H2,1-2H3
InChIKey=JXAVHDPGPCJEEI-UHFFFAOYSA-N

> <PUBCHEM_SUBSTANCE_SYNONYM>
SCHEMBL16108332

> <PUBCHEM_XREF_EXT_ID>
SCHEMBL16108332

> <PUBCHEM_EXT_DATASOURCE_URL>
https://www.surechembl.org/

> <PUBCHEM_EXT_SUBSTANCE_URL>
https://www.surechembl.org/chemical/SCHEMBL16108332

> <PUBCHEM_CID_ASSOCIATIONS>
117599948  1

> <PUBCHEM_COORDINATE_TYPE>
1
3

$$$$
