310937033
  -OEChem-07211613022D

 27 30  0     1  0  0  0  0  0999 V2000
   -0.8250    2.8090    0.0000 O   0  0  0  0  0  0  0  0  0  0  0  0
   -2.5559   -0.5230    0.0000 O   0  0  0  0  0  0  0  0  0  0  0  0
   -3.9849   -2.9980    0.0000 O   0  0  0  0  0  0  0  0  0  0  0  0
    0.2549    2.0244    0.0000 N   0  0  0  0  0  0  0  0  0  0  0  0
    0.3020    0.3020    0.0000 N   0  0  0  0  0  0  0  0  0  0  0  0
   -1.0799    2.0244    0.0000 N   0  0  0  0  0  0  0  0  0  0  0  0
   -2.5559   -2.1730    0.0000 N   0  0  0  0  0  0  0  0  0  0  0  0
   -0.4125   -0.9355    0.0000 C   0  0  0  0  0  0  0  0  0  0  0  0
   -1.1270   -0.5230    0.0000 C   0  0  0  0  0  0  0  0  0  0  0  0
   -0.4125    0.7145    0.0000 C   0  0  0  0  0  0  0  0  0  0  0  0
   -0.4125    1.5395    0.0000 C   0  0  0  0  0  0  0  0  0  0  0  0
   -0.4125   -1.7605    0.0000 C   0  0  0  0  0  0  0  0  0  0  0  0
   -1.1270    0.3020    0.0000 C   0  0  0  0  0  0  0  0  0  0  0  0
    0.0000    2.8090    0.0000 C   0  0  0  0  0  0  0  0  0  0  0  0
   -1.8414   -0.9355    0.0000 C   0  0  3  0  0  0  0  0  0  0  0  0
    0.3020   -0.5230    0.0000 C   0  0  0  0  0  0  0  0  0  0  0  0
    0.4849    3.4765    0.0000 C   0  0  0  0  0  0  0  0  0  0  0  0
    0.0000   -2.4750    0.0000 C   0  0  0  0  0  0  0  0  0  0  0  0
   -0.8250   -2.4750    0.0000 C   0  0  0  0  0  0  0  0  0  0  0  0
   -1.8414   -1.7605    0.0000 C   0  0  0  0  0  0  0  0  0  0  0  0
    0.9698    4.1439    0.0000 C   0  0  0  0  0  0  0  0  0  0  0  0
   -0.1825    3.9614    0.0000 C   0  0  0  0  0  0  0  0  0  0  0  0
    1.1524    2.9915    0.0000 C   0  0  0  0  0  0  0  0  0  0  0  0
   -2.5559   -2.9980    0.0000 C   0  0  0  0  0  0  0  0  0  0  0  0
   -3.2704   -1.7605    0.0000 C   0  0  0  0  0  0  0  0  0  0  0  0
   -3.2704   -3.4105    0.0000 C   0  0  0  0  0  0  0  0  0  0  0  0
   -3.9849   -2.1730    0.0000 C   0  0  0  0  0  0  0  0  0  0  0  0
  1  6  1  0  0  0  0
  1 14  1  0  0  0  0
  2 15  1  0  0  0  0
  3 26  1  0  0  0  0
  3 27  1  0  0  0  0
  4 11  1  0  0  0  0
  4 14  2  0  0  0  0
  5 10  2  0  0  0  0
  5 16  1  0  0  0  0
  6 11  2  0  0  0  0
  7 20  1  0  0  0  0
  7 24  1  0  0  0  0
  7 25  1  0  0  0  0
  8  9  1  0  0  0  0
  8 12  1  0  0  0  0
  8 16  2  0  0  0  0
  9 13  2  0  0  0  0
  9 15  1  0  0  0  0
 10 11  1  0  0  0  0
 10 13  1  0  0  0  0
 12 18  1  0  0  0  0
 12 19  1  0  0  0  0
 14 17  1  0  0  0  0
 15 20  1  0  0  0  0
 17 21  1  0  0  0  0
 17 22  1  0  0  0  0
 17 23  1  0  0  0  0
 18 19  1  0  0  0  0
 24 26  1  0  0  0  0
 25 27  1  0  0  0  0
M  END
> <PUBCHEM_COMPOUND_ID_TYPE>
0

> <PUBCHEM_TOTAL_CHARGE>
0

> <PUBCHEM_SUBSTANCE_ID>
310937033

> <PUBCHEM_SUBSTANCE_VERSION>
1

> <PUBCHEM_EXT_DATASOURCE_NAME>
4488

> <PUBCHEM_EXT_DATASOURCE_REGID>
SCHEMBL16114743

> <PUBCHEM_SUBSTANCE_COMMENT>
InChI=1S/C20H28N4O3/c1-20(2,3)19-22-18(23-27-19)16-10-14(15(11-21-16)13-4-5-13)17(25)12-24-6-8-26-9-7-24/h10-11,13,17,25H,4-9,12H2,1-3H3
InChIKey=OCCZRHQRYFSZJD-UHFFFAOYSA-N

> <PUBCHEM_SUBSTANCE_SYNONYM>
SCHEMBL16114743

> <PUBCHEM_XREF_EXT_ID>
SCHEMBL16114743

> <PUBCHEM_EXT_DATASOURCE_URL>
https://www.surechembl.org/

> <PUBCHEM_EXT_SUBSTANCE_URL>
https://www.surechembl.org/chemical/SCHEMBL16114743

> <PUBCHEM_CID_ASSOCIATIONS>
117604883  1

> <PUBCHEM_COORDINATE_TYPE>
1
3

$$$$
