310937539
  -OEChem-07211613022D

 45 48  0     1  0  0  0  0  0999 V2000
    0.4117   -3.4996    0.0000 F   0  0  0  0  0  0  0  0  0  0  0  0
    5.5583   -8.6461    0.0000 O   0  0  0  0  0  0  0  0  0  0  0  0
    5.3009   -3.4996    0.0000 O   0  0  0  0  0  0  0  0  0  0  0  0
    6.9993   -9.4696    0.0000 O   0  0  0  0  0  0  0  0  0  0  0  0
    7.6683   -8.2344    0.0000 O   0  0  0  0  0  0  0  0  0  0  0  0
    2.8821   -2.1100    0.0000 O   0  0  0  0  0  0  0  0  0  0  0  0
    5.5583   -6.2273    0.0000 N   0  0  0  0  0  0  0  0  0  0  0  0
    4.8892   -7.4625    0.0000 N   0  0  0  0  0  0  0  0  0  0  0  0
    4.9921   -5.6612    0.0000 N   0  0  0  0  0  0  0  0  0  0  0  0
    6.9993   -6.2273    0.0000 N   0  0  0  0  0  0  0  0  0  0  0  0
    4.0658   -4.2202    0.0000 N   0  0  0  0  0  0  0  0  0  0  0  0
    5.6097   -7.0507    0.0000 C   0  0  0  0  0  0  0  0  0  0  0  0
    6.2788   -7.4110    0.0000 C   0  0  0  0  0  0  0  0  0  0  0  0
    6.2788   -5.8156    0.0000 C   0  0  0  0  0  0  0  0  0  0  0  0
    6.9993   -6.9993    0.0000 C   0  0  0  0  0  0  0  0  0  0  0  0
    6.2788   -8.2344    0.0000 C   0  0  3  0  0  0  0  0  0  0  0  0
    5.3009   -4.9407    0.0000 C   0  0  0  0  0  0  0  0  0  0  0  0
    6.1243   -4.9921    0.0000 C   0  0  0  0  0  0  0  0  0  0  0  0
    4.8892   -4.2202    0.0000 C   0  0  0  0  0  0  0  0  0  0  0  0
    6.9993   -8.6461    0.0000 C   0  0  0  0  0  0  0  0  0  0  0  0
    4.9407   -8.2859    0.0000 C   0  0  0  0  0  0  0  0  0  0  0  0
    4.2202   -7.0507    0.0000 C   0  0  0  0  0  0  0  0  0  0  0  0
    7.7198   -7.4110    0.0000 C   0  0  0  0  0  0  0  0  0  0  0  0
    5.5583   -9.4696    0.0000 C   0  0  0  0  0  0  0  0  0  0  0  0
    4.2202   -8.6976    0.0000 C   0  0  0  0  0  0  0  0  0  0  0  0
    3.4996   -7.4625    0.0000 C   0  0  0  0  0  0  0  0  0  0  0  0
    3.4996   -8.2859    0.0000 C   0  0  0  0  0  0  0  0  0  0  0  0
    3.7055   -3.4996    0.0000 C   0  0  0  0  0  0  0  0  0  0  0  0
    2.8821   -3.4996    0.0000 C   0  0  0  0  0  0  0  0  0  0  0  0
    2.7791   -8.6976    0.0000 C   0  0  0  0  0  0  0  0  0  0  0  0
    5.5583  -10.2930    0.0000 C   0  0  0  0  0  0  0  0  0  0  0  0
    4.7348   -9.4696    0.0000 C   0  0  0  0  0  0  0  0  0  0  0  0
    6.3817   -9.4696    0.0000 C   0  0  0  0  0  0  0  0  0  0  0  0
    2.4703   -2.8306    0.0000 C   0  0  0  0  0  0  0  0  0  0  0  0
    2.4703   -4.2202    0.0000 C   0  0  0  0  0  0  0  0  0  0  0  0
    1.6469   -2.7791    0.0000 C   0  0  0  0  0  0  0  0  0  0  0  0
    2.1100   -8.2859    0.0000 C   0  0  0  0  0  0  0  0  0  0  0  0
    1.2352   -3.4996    0.0000 C   0  0  0  0  0  0  0  0  0  0  0  0
    1.6469   -4.2202    0.0000 C   0  0  0  0  0  0  0  0  0  0  0  0
    1.3895   -8.6976    0.0000 C   0  0  0  0  0  0  0  0  0  0  0  0
    2.4703   -1.3895    0.0000 C   0  0  0  0  0  0  0  0  0  0  0  0
    0.6691   -8.3374    0.0000 C   0  0  0  0  0  0  0  0  0  0  0  0
    2.8821   -0.7205    0.0000 C   0  0  0  0  0  0  0  0  0  0  0  0
    2.4703    0.0000    0.0000 C   0  0  0  0  0  0  0  0  0  0  0  0
    0.0000   -8.7491    0.0000 C   0  0  0  0  0  0  0  0  0  0  0  0
  1 38  1  0  0  0  0
  2 16  1  0  0  0  0
  2 24  1  0  0  0  0
  3 19  2  0  0  0  0
  4 20  2  0  0  0  0
  5 20  1  0  0  0  0
  6 34  1  0  0  0  0
  6 41  1  0  0  0  0
  7  9  1  0  0  0  0
  7 12  1  0  0  0  0
  7 14  1  0  0  0  0
  8 12  1  0  0  0  0
  8 21  1  0  0  0  0
  8 22  1  0  0  0  0
  9 17  2  0  0  0  0
 10 14  1  0  0  0  0
 10 15  2  0  0  0  0
 11 19  1  0  0  0  0
 11 28  1  0  0  0  0
 12 13  2  0  0  0  0
 13 15  1  0  0  0  0
 13 16  1  0  0  0  0
 14 18  2  0  0  0  0
 15 23  1  0  0  0  0
 16 20  1  0  0  0  0
 17 18  1  0  0  0  0
 17 19  1  0  0  0  0
 21 25  1  0  0  0  0
 22 26  1  0  0  0  0
 24 31  1  0  0  0  0
 24 32  1  0  0  0  0
 24 33  1  0  0  0  0
 25 27  1  0  0  0  0
 26 27  1  0  0  0  0
 27 30  1  0  0  0  0
 28 29  1  0  0  0  0
 29 34  2  0  0  0  0
 29 35  1  0  0  0  0
 30 37  1  0  0  0  0
 34 36  1  0  0  0  0
 35 39  2  0  0  0  0
 36 38  2  0  0  0  0
 37 40  1  0  0  0  0
 38 39  1  0  0  0  0
 40 42  1  0  0  0  0
 41 43  1  0  0  0  0
 42 45  1  0  0  0  0
 43 44  2  0  0  0  0
M  END
> <PUBCHEM_COMPOUND_ID_TYPE>
0

> <PUBCHEM_TOTAL_CHARGE>
0

> <PUBCHEM_SUBSTANCE_ID>
310937539

> <PUBCHEM_SUBSTANCE_VERSION>
1

> <PUBCHEM_EXT_DATASOURCE_NAME>
4488

> <PUBCHEM_EXT_DATASOURCE_REGID>
SCHEMBL16115316

> <PUBCHEM_SUBSTANCE_COMMENT>
InChI=1S/C34H46FN5O5/c1-7-9-10-11-23-14-16-39(17-15-23)32-29(30(33(42)43)45-34(4,5)6)22(3)37-28-20-26(38-40(28)32)31(41)36-21-24-12-13-25(35)19-27(24)44-18-8-2/h8,12-13,19-20,23,30H,2,7,9-11,14-18,21H2,1,3-6H3,(H,36,41)(H,42,43)
InChIKey=DHGHMCXODVGRKL-UHFFFAOYSA-N

> <PUBCHEM_SUBSTANCE_SYNONYM>
SCHEMBL16115316

> <PUBCHEM_XREF_EXT_ID>
SCHEMBL16115316

> <PUBCHEM_EXT_DATASOURCE_URL>
https://www.surechembl.org/

> <PUBCHEM_EXT_SUBSTANCE_URL>
https://www.surechembl.org/chemical/SCHEMBL16115316

> <PUBCHEM_CID_ASSOCIATIONS>
117605262  1

> <PUBCHEM_COORDINATE_TYPE>
1
3

$$$$
