310929978
  -OEChem-07211613022D

 66 73  0     1  0  0  0  0  0999 V2000
    1.6034  -10.8673    0.0000 S   0  0  0  0  0  0  0  0  0  0  0  0
    2.7911   -9.7390    0.0000 O   0  0  0  0  0  0  0  0  0  0  0  0
    1.7816  -10.0360    0.0000 O   0  0  0  0  0  0  0  0  0  0  0  0
    1.3659  -11.6393    0.0000 O   0  0  0  0  0  0  0  0  0  0  0  0
    3.1474   -9.2046    0.0000 O   0  0  0  0  0  0  0  0  0  0  0  0
    3.5037   -6.6510    0.0000 O   0  0  0  0  0  0  0  0  0  0  0  0
    5.9384  -10.0360    0.0000 O   0  0  0  0  0  0  0  0  0  0  0  0
    4.1569   -3.6819    0.0000 O   0  0  0  0  0  0  0  0  0  0  0  0
    8.3138   -7.3637    0.0000 O   0  0  0  0  0  0  0  0  0  0  0  0
    8.6701   -8.4920    0.0000 O   0  0  0  0  0  0  0  0  0  0  0  0
   11.2830   -6.5323    0.0000 O   0  5  0  0  0  0  0  0  0  0  0  0
   10.5704   -5.3446    0.0000 O   0  0  0  0  0  0  0  0  0  0  0  0
    4.2757  -10.0953    0.0000 N   0  0  0  0  0  0  0  0  0  0  0  0
    2.3754  -11.1049    0.0000 N   0  0  0  0  0  0  0  0  0  0  0  0
    5.1070   -9.1452    0.0000 N   0  0  0  0  0  0  0  0  0  0  0  0
    2.8504   -5.8197    0.0000 N   0  0  0  0  0  0  0  0  0  0  0  0
    7.4230   -8.7295    0.0000 N   0  0  0  0  0  0  0  0  0  0  0  0
    2.9692   -1.5440    0.0000 N   0  3  0  0  0  0  0  0  0  0  0  0
    3.7412  -10.7486    0.0000 C   0  0  3  0  0  0  0  0  0  0  0  0
    4.0975  -11.4612    0.0000 C   0  0  3  0  0  0  0  0  0  0  0  0
    3.3255  -11.4612    0.0000 C   0  0  0  0  0  0  0  0  0  0  0  0
    2.9692  -10.5110    0.0000 C   0  0  0  0  0  0  0  0  0  0  0  0
    0.8314  -10.6298    0.0000 C   0  0  0  0  0  0  0  0  0  0  0  0
    3.9787   -9.3827    0.0000 C   0  0  0  0  0  0  0  0  0  0  0  0
    4.8101  -11.8769    0.0000 C   0  0  0  0  0  0  0  0  0  0  0  0
    0.0000  -10.8080    0.0000 C   0  0  0  0  0  0  0  0  0  0  0  0
    0.2376  -10.0360    0.0000 C   0  0  0  0  0  0  0  0  0  0  0  0
    4.5132   -8.7295    0.0000 C   0  0  3  0  0  0  0  0  0  0  0  0
    0.7720  -11.4612    0.0000 C   0  0  0  0  0  0  0  0  0  0  0  0
    3.8600   -8.1357    0.0000 C   0  0  0  0  0  0  0  0  0  0  0  0
    3.5630   -7.4230    0.0000 C   0  0  3  0  0  0  0  0  0  0  0  0
    3.8600   -8.7295    0.0000 C   0  0  0  0  0  0  0  0  0  0  0  0
    5.9384   -9.2046    0.0000 C   0  0  0  0  0  0  0  0  0  0  0  0
    5.5227  -11.4612    0.0000 C   0  0  0  0  0  0  0  0  0  0  0  0
    6.7698   -9.0858    0.0000 C   0  0  3  0  0  0  0  0  0  0  0  0
    3.6819   -5.8197    0.0000 C   0  0  0  0  0  0  0  0  0  0  0  0
    4.0975   -5.1664    0.0000 C   0  0  0  0  0  0  0  0  0  0  0  0
    3.7412   -4.3944    0.0000 C   0  0  0  0  0  0  0  0  0  0  0  0
    2.9099   -4.4539    0.0000 C   0  0  0  0  0  0  0  0  0  0  0  0
    2.5536   -5.0477    0.0000 C   0  0  0  0  0  0  0  0  0  0  0  0
    7.0073   -9.8578    0.0000 C   0  0  0  0  0  0  0  0  0  0  0  0
    4.8101   -4.6320    0.0000 C   0  0  0  0  0  0  0  0  0  0  0  0
    7.9575   -8.0763    0.0000 C   0  0  0  0  0  0  0  0  0  0  0  0
    2.5536   -3.6224    0.0000 C   0  0  0  0  0  0  0  0  0  0  0  0
    1.6627   -5.0477    0.0000 C   0  0  0  0  0  0  0  0  0  0  0  0
    7.8387  -10.0360    0.0000 C   0  0  0  0  0  0  0  0  0  0  0  0
    6.4729  -10.5110    0.0000 C   0  0  0  0  0  0  0  0  0  0  0  0
    8.3732   -6.5917    0.0000 C   0  0  3  0  0  0  0  0  0  0  0  0
    8.1357   -5.7603    0.0000 C   0  0  3  0  0  0  0  0  0  0  0  0
    1.6627   -3.6224    0.0000 C   0  0  0  0  0  0  0  0  0  0  0  0
    8.9670   -5.9978    0.0000 C   0  0  0  0  0  0  0  0  0  0  0  0
    1.3064   -4.2757    0.0000 C   0  0  0  0  0  0  0  0  0  0  0  0
    5.5227   -4.3350    0.0000 C   0  0  0  0  0  0  0  0  0  0  0  0
    3.7412   -2.9692    0.0000 C   0  0  0  0  0  0  0  0  0  0  0  0
    8.0763  -10.8080    0.0000 C   0  0  0  0  0  0  0  0  0  0  0  0
    6.7104  -11.2236    0.0000 C   0  0  0  0  0  0  0  0  0  0  0  0
    7.7200   -5.0477    0.0000 C   0  0  0  0  0  0  0  0  0  0  0  0
    7.5418  -11.4612    0.0000 C   0  0  0  0  0  0  0  0  0  0  0  0
    6.2947   -4.3944    0.0000 C   0  0  0  0  0  0  0  0  0  0  0  0
    7.0667   -4.6914    0.0000 C   0  0  0  0  0  0  0  0  0  0  0  0
    2.9692   -2.9692    0.0000 C   0  0  0  0  0  0  0  0  0  0  0  0
    2.5536   -2.2566    0.0000 C   0  0  0  0  0  0  0  0  0  0  0  0
    2.5536   -0.8314    0.0000 C   0  0  0  0  0  0  0  0  0  0  0  0
    1.9003   -0.4157    0.0000 C   0  0  0  0  0  0  0  0  0  0  0  0
    2.5536    0.0000    0.0000 C   0  0  0  0  0  0  0  0  0  0  0  0
   10.5704   -6.1166    0.0000 C   0  0  0  0  0  0  0  0  0  0  0  0
  1  3  2  0  0  0  0
  1  4  2  0  0  0  0
  1 14  1  0  0  0  0
  1 23  1  0  0  0  0
  2 22  2  0  0  0  0
  5 24  2  0  0  0  0
  6 31  1  0  0  0  0
  6 36  1  0  0  0  0
  7 33  2  0  0  0  0
  8 38  1  0  0  0  0
  8 54  1  0  0  0  0
  9 43  1  0  0  0  0
  9 48  1  0  0  0  0
 10 43  2  0  0  0  0
 11 66  1  0  0  0  0
 12 66  2  0  0  0  0
 19 13  1  1  0  0  0
 13 24  1  0  0  0  0
 14 22  1  0  0  0  0
 15 28  1  0  0  0  0
 15 32  1  0  0  0  0
 15 33  1  0  0  0  0
 16 36  1  0  0  0  0
 16 40  2  0  0  0  0
 17 35  1  0  0  0  0
 17 43  1  0  0  0  0
 18 62  1  0  0  0  0
 18 63  1  0  0  0  0
 19 20  1  0  0  0  0
 19 21  1  0  0  0  0
 19 22  1  6  0  0  0
 20 21  1  0  0  0  0
 20 25  1  6  0  0  0
 23 26  1  0  0  0  0
 23 27  1  0  0  0  0
 23 29  1  0  0  0  0
 28 24  1  6  0  0  0
 25 34  2  0  0  0  0
 26 27  1  0  0  0  0
 28 30  1  0  0  0  0
 31 30  1  1  0  0  0
 31 32  1  0  0  0  0
 35 33  1  1  0  0  0
 35 41  1  0  0  0  0
 36 37  2  0  0  0  0
 37 38  1  0  0  0  0
 37 42  1  0  0  0  0
 38 39  2  0  0  0  0
 39 40  1  0  0  0  0
 39 44  1  0  0  0  0
 40 45  1  0  0  0  0
 41 46  1  0  0  0  0
 41 47  1  0  0  0  0
 42 53  1  0  0  0  0
 44 50  2  0  0  0  0
 45 52  2  0  0  0  0
 46 55  1  0  0  0  0
 47 56  1  0  0  0  0
 48 49  1  0  0  0  0
 48 51  1  1  0  0  0
 49 51  1  6  0  0  0
 49 57  1  0  0  0  0
 50 52  1  0  0  0  0
 53 59  1  0  0  0  0
 54 61  1  0  0  0  0
 55 58  1  0  0  0  0
 56 58  1  0  0  0  0
 57 60  1  0  0  0  0
 59 60  1  0  0  0  0
 61 62  1  0  0  0  0
 63 64  1  0  0  0  0
 63 65  1  0  0  0  0
 64 65  1  0  0  0  0
M  CHG  2  11  -1  18   1
M  END
> <PUBCHEM_COMPOUND_ID_TYPE>
0

> <PUBCHEM_TOTAL_CHARGE>
0

> <PUBCHEM_SUBSTANCE_ID>
310929978

> <PUBCHEM_SUBSTANCE_VERSION>
1

> <PUBCHEM_EXT_DATASOURCE_NAME>
4488

> <PUBCHEM_EXT_DATASOURCE_REGID>
SCHEMBL16107211

> <PUBCHEM_SUBSTANCE_COMMENT>
InChI=1S/C47H64N6O9S.CH2O2/c1-3-31-27-47(31,44(56)52-63(58,59)46(2)21-22-46)51-41(54)37-26-33-28-53(37)43(55)39(29-13-6-4-7-14-29)50-45(57)62-38-25-30(38)15-8-5-9-17-35-40(60-24-12-23-48-32-19-20-32)34-16-10-11-18-36(34)49-42(35)61-33;2-1-3/h3,10-11,16,18,29-33,37-39,48H,1,4-9,12-15,17,19-28H2,2H3,(H,50,57)(H,51,54)(H,52,56);1H,(H,2,3)/t30-,31-,33-,37+,38-,39+,47-;/m1./s1
InChIKey=VJOAEPNUCJNXMP-OELZZCFQSA-N

> <PUBCHEM_SUBSTANCE_SYNONYM>
SCHEMBL16107211

> <PUBCHEM_XREF_EXT_ID>
SCHEMBL16107211

> <PUBCHEM_EXT_DATASOURCE_URL>
https://www.surechembl.org/

> <PUBCHEM_EXT_SUBSTANCE_URL>
https://www.surechembl.org/chemical/SCHEMBL16107211

> <PUBCHEM_CID_ASSOCIATIONS>
117599235  1
284  2
117599236  2

> <PUBCHEM_COORDINATE_TYPE>
1
3

> <PUBCHEM_BONDANNOTATIONS>
19  13  5
19  22  6
20  25  6
28  24  6
31  30  5
35  33  5
48  51  5
49  51  6

$$$$
