310939628
  -OEChem-07211613022D

 30 32  0     1  0  0  0  0  0999 V2000
   -1.1996   12.9809    0.0000 O   0  0  0  0  0  0  0  0  0  0  0  0
   -2.6285   12.1559    0.0000 O   0  0  0  0  0  0  0  0  0  0  0  0
    1.6583   12.1559    0.0000 N   0  0  0  0  0  0  0  0  0  0  0  0
    2.3728   10.9184    0.0000 N   0  0  0  0  0  0  0  0  0  0  0  0
    2.3728   13.3934    0.0000 N   0  0  0  0  0  0  0  0  0  0  0  0
   -4.0575   12.9809    0.0000 N   0  0  0  0  0  0  0  0  0  0  0  0
    1.6583   12.9809    0.0000 C   0  0  0  0  0  0  0  0  0  0  0  0
    2.3728   11.7434    0.0000 C   0  0  0  0  0  0  0  0  0  0  0  0
    0.9438   13.3934    0.0000 C   0  0  0  0  0  0  0  0  0  0  0  0
    3.0872   12.9809    0.0000 C   0  0  0  0  0  0  0  0  0  0  0  0
    3.0872   12.1559    0.0000 C   0  0  0  0  0  0  0  0  0  0  0  0
    3.0872   10.5059    0.0000 C   0  0  0  0  0  0  0  0  0  0  0  0
    0.2294   12.9809    0.0000 C   0  0  0  0  0  0  0  0  0  0  0  0
    3.8017   13.3934    0.0000 C   0  0  0  0  0  0  0  0  0  0  0  0
    0.9438   14.2184    0.0000 C   0  0  0  0  0  0  0  0  0  0  0  0
   -0.4851   13.3934    0.0000 C   0  0  0  0  0  0  0  0  0  0  0  0
   -0.4851   14.2184    0.0000 C   0  0  0  0  0  0  0  0  0  0  0  0
    0.2294   14.6309    0.0000 C   0  0  0  0  0  0  0  0  0  0  0  0
    3.0872    9.6809    0.0000 C   0  0  0  0  0  0  0  0  0  0  0  0
    3.8017   10.9184    0.0000 C   0  0  0  0  0  0  0  0  0  0  0  0
    1.6583   10.5059    0.0000 C   0  0  0  0  0  0  0  0  0  0  0  0
    3.8017   14.2184    0.0000 C   0  0  0  0  0  0  0  0  0  0  0  0
    4.5162   12.9809    0.0000 C   0  0  0  0  0  0  0  0  0  0  0  0
    3.8017    9.2684    0.0000 C   0  0  0  0  0  0  0  0  0  0  0  0
    4.5162   10.5059    0.0000 C   0  0  0  0  0  0  0  0  0  0  0  0
   -1.9141   13.3934    0.0000 C   0  0  0  0  0  0  0  0  0  0  0  0
    4.5162    9.6809    0.0000 C   0  0  0  0  0  0  0  0  0  0  0  0
   -2.6285   12.9809    0.0000 C   0  0  3  0  0  0  0  0  0  0  0  0
   -3.3430   13.3934    0.0000 C   0  0  0  0  0  0  0  0  0  0  0  0
   -4.7719   13.3934    0.0000 C   0  0  0  0  0  0  0  0  0  0  0  0
  1 16  1  0  0  0  0
  1 26  1  0  0  0  0
  2 28  1  0  0  0  0
  3  7  1  0  0  0  0
  3  8  2  0  0  0  0
  4  8  1  0  0  0  0
  4 12  1  0  0  0  0
  4 21  1  0  0  0  0
  5  7  2  0  0  0  0
  5 10  1  0  0  0  0
  6 29  1  0  0  0  0
  6 30  1  0  0  0  0
  7  9  1  0  0  0  0
  8 11  1  0  0  0  0
  9 13  2  0  0  0  0
  9 15  1  0  0  0  0
 10 11  2  0  0  0  0
 10 14  1  0  0  0  0
 12 19  1  0  0  0  0
 12 20  1  0  0  0  0
 13 16  1  0  0  0  0
 14 22  1  0  0  0  0
 14 23  1  0  0  0  0
 15 18  2  0  0  0  0
 16 17  2  0  0  0  0
 17 18  1  0  0  0  0
 19 24  1  0  0  0  0
 20 25  1  0  0  0  0
 24 27  1  0  0  0  0
 25 27  1  0  0  0  0
 26 28  1  0  0  0  0
 28 29  1  0  0  0  0
M  END
> <PUBCHEM_COMPOUND_ID_TYPE>
0

> <PUBCHEM_TOTAL_CHARGE>
0

> <PUBCHEM_SUBSTANCE_ID>
310939628

> <PUBCHEM_SUBSTANCE_VERSION>
1

> <PUBCHEM_EXT_DATASOURCE_NAME>
4488

> <PUBCHEM_EXT_DATASOURCE_REGID>
SCHEMBL16117558

> <PUBCHEM_SUBSTANCE_COMMENT>
InChI=1S/C24H36N4O2/c1-17(2)22-14-23(28(4)19-10-6-5-7-11-19)27-24(26-22)18-9-8-12-21(13-18)30-16-20(29)15-25-3/h8-9,12-14,17,19-20,25,29H,5-7,10-11,15-16H2,1-4H3
InChIKey=SJYJGDORNNPTGE-UHFFFAOYSA-N

> <PUBCHEM_SUBSTANCE_SYNONYM>
SCHEMBL16117558

> <PUBCHEM_XREF_EXT_ID>
SCHEMBL16117558

> <PUBCHEM_EXT_DATASOURCE_URL>
https://www.surechembl.org/

> <PUBCHEM_EXT_SUBSTANCE_URL>
https://www.surechembl.org/chemical/SCHEMBL16117558

> <PUBCHEM_CID_ASSOCIATIONS>
117606868  1

> <PUBCHEM_COORDINATE_TYPE>
1
3

$$$$
