310945322
  -OEChem-07211613022D

 33 37  0     1  0  0  0  0  0999 V2000
    3.7809    1.3596    0.0000 O   0  0  0  0  0  0  0  0  0  0  0  0
   -1.0057   -0.8940    0.0000 O   0  0  0  0  0  0  0  0  0  0  0  0
   -3.4457   -0.9685    0.0000 O   0  0  0  0  0  0  0  0  0  0  0  0
   -1.2293   -0.6087    0.0000 O   0  0  0  0  0  0  0  0  0  0  0  0
   -1.7285   -1.4296    0.0000 O   0  0  0  0  0  0  0  0  0  0  0  0
    1.9743    0.1117    0.0000 N   0  0  0  0  0  0  0  0  0  0  0  0
    3.6319   -0.0559    0.0000 N   0  0  0  0  0  0  0  0  0  0  0  0
   -1.7135    0.3725    0.0000 N   0  0  0  0  0  0  0  0  0  0  0  0
   -3.2594    1.2106    0.0000 N   0  0  0  0  0  0  0  0  0  0  0  0
    2.3095   -0.6519    0.0000 C   0  0  0  0  0  0  0  0  0  0  0  0
    1.1548    0.3911    0.0000 C   0  0  0  0  0  0  0  0  0  0  0  0
    2.4585    0.8009    0.0000 C   0  0  0  0  0  0  0  0  0  0  0  0
    1.1920    1.2106    0.0000 C   0  0  0  0  0  0  0  0  0  0  0  0
    1.9929    1.4341    0.0000 C   0  0  0  0  0  0  0  0  0  0  0  0
    3.2780    0.6705    0.0000 C   0  0  0  0  0  0  0  0  0  0  0  0
    3.1477   -0.7450    0.0000 C   0  0  0  0  0  0  0  0  0  0  0  0
    1.4900   -0.8009    0.0000 C   0  0  0  0  0  0  0  0  0  0  0  0
    2.4213   -1.4900    0.0000 C   0  0  0  0  0  0  0  0  0  0  0  0
    0.4656   -0.0373    0.0000 C   0  0  0  0  0  0  0  0  0  0  0  0
    1.6204   -1.6018    0.0000 C   0  0  0  0  0  0  0  0  0  0  0  0
   -0.2793    0.3725    0.0000 C   0  0  0  0  0  0  0  0  0  0  0  0
    0.4656    1.6018    0.0000 C   0  0  0  0  0  0  0  0  0  0  0  0
   -0.2608    1.2106    0.0000 C   0  0  0  0  0  0  0  0  0  0  0  0
   -0.9872   -0.0373    0.0000 C   0  0  0  0  0  0  0  0  0  0  0  0
   -2.4399   -0.0559    0.0000 C   0  0  3  0  0  0  0  0  0  0  0  0
   -3.1849    0.3539    0.0000 C   0  0  3  0  0  0  0  0  0  0  0  0
   -2.6076   -0.8567    0.0000 C   0  0  0  0  0  0  0  0  0  0  0  0
   -3.7809   -0.2049    0.0000 C   0  0  0  0  0  0  0  0  0  0  0  0
   -1.7285   -0.8971    0.0000 C   0  0  0  0  0  0  0  0  0  0  0  0
   -1.2182   -0.0540    0.0000 C   0  0  0  0  0  0  0  0  0  0  0  0
   -0.7190   -0.0318    0.0000 C   0  0  0  0  0  0  0  0  0  0  0  0
   -1.7285   -0.0540    0.0000 C   0  0  0  0  0  0  0  0  0  0  0  0
   -1.2293    0.4895    0.0000 C   0  0  0  0  0  0  0  0  0  0  0  0
  1 15  2  0  0  0  0
  2 24  2  0  0  0  0
  3 27  1  0  0  0  0
  3 28  1  0  0  0  0
  4 29  1  0  0  0  0
  4 30  1  0  0  0  0
  5 29  2  0  0  0  0
  6 10  1  0  0  0  0
  6 11  1  0  0  0  0
  6 12  1  0  0  0  0
  7 15  1  0  0  0  0
  7 16  1  0  0  0  0
  8 24  1  0  0  0  0
  8 25  1  0  0  0  0
  9 26  1  0  0  0  0
  9 29  1  0  0  0  0
 10 16  1  0  0  0  0
 10 17  1  0  0  0  0
 10 18  1  0  0  0  0
 11 13  1  0  0  0  0
 11 19  2  0  0  0  0
 12 14  2  0  0  0  0
 12 15  1  0  0  0  0
 13 14  1  0  0  0  0
 13 22  2  0  0  0  0
 17 20  1  0  0  0  0
 18 20  1  0  0  0  0
 19 21  1  0  0  0  0
 21 23  2  0  0  0  0
 21 24  1  0  0  0  0
 22 23  1  0  0  0  0
 25 26  1  0  0  0  0
 25 27  1  0  0  0  0
 26 28  1  0  0  0  0
 30 31  1  0  0  0  0
 30 32  1  0  0  0  0
 30 33  1  0  0  0  0
M  END
> <PUBCHEM_COMPOUND_ID_TYPE>
0

> <PUBCHEM_TOTAL_CHARGE>
0

> <PUBCHEM_SUBSTANCE_ID>
310945322

> <PUBCHEM_SUBSTANCE_VERSION>
1

> <PUBCHEM_EXT_DATASOURCE_NAME>
4488

> <PUBCHEM_EXT_DATASOURCE_REGID>
SCHEMBL16123420

> <PUBCHEM_SUBSTANCE_COMMENT>
InChI=1S/C24H30N4O5/c1-23(2,3)33-22(31)27-17-12-32-11-16(17)26-20(29)15-6-5-14-9-19-21(30)25-13-24(7-4-8-24)28(19)18(14)10-15/h5-6,9-10,16-17H,4,7-8,11-13H2,1-3H3,(H,25,30)(H,26,29)(H,27,31)
InChIKey=URPUBADVVFKQGW-UHFFFAOYSA-N

> <PUBCHEM_SUBSTANCE_SYNONYM>
SCHEMBL16123420

> <PUBCHEM_XREF_EXT_ID>
SCHEMBL16123420

> <PUBCHEM_EXT_DATASOURCE_URL>
https://www.surechembl.org/

> <PUBCHEM_EXT_SUBSTANCE_URL>
https://www.surechembl.org/chemical/SCHEMBL16123420

> <PUBCHEM_CID_ASSOCIATIONS>
117611380  1

> <PUBCHEM_COORDINATE_TYPE>
1
3

$$$$
