310934689
  -OEChem-07211613022D

 36 41  0     1  0  0  0  0  0999 V2000
    3.5372   -5.7538    0.0000 O   0  0  0  0  0  0  0  0  0  0  0  0
    0.7075   -3.3014    0.0000 N   0  0  3  0  0  0  0  0  0  0  0  0
    0.0000   -2.0752    0.0000 N   0  0  0  0  0  0  0  0  0  0  0  0
    0.7075   -0.8017    0.0000 N   0  0  0  0  0  0  0  0  0  0  0  0
    2.8298   -6.9801    0.0000 N   0  0  0  0  0  0  0  0  0  0  0  0
    4.9992   -2.4996    0.0000 N   0  0  0  0  0  0  0  0  0  0  0  0
    2.8298   -9.4325    0.0000 N   0  0  0  0  0  0  0  0  0  0  0  0
    1.4148   -2.0752    0.0000 C   0  0  0  0  0  0  0  0  0  0  0  0
    0.7075   -2.4524    0.0000 C   0  0  0  0  0  0  0  0  0  0  0  0
    1.4621   -1.2262    0.0000 C   0  0  0  0  0  0  0  0  0  0  0  0
    1.4148   -4.5276    0.0000 C   0  0  0  0  0  0  0  0  0  0  0  0
    2.1223   -0.8489    0.0000 C   0  0  0  0  0  0  0  0  0  0  0  0
    2.1223   -2.4524    0.0000 C   0  0  0  0  0  0  0  0  0  0  0  0
    2.8298   -2.0752    0.0000 C   0  0  0  0  0  0  0  0  0  0  0  0
    0.7075   -4.9521    0.0000 C   0  0  0  0  0  0  0  0  0  0  0  0
    1.4148   -3.6787    0.0000 C   0  0  0  0  0  0  0  0  0  0  0  0
    2.8298   -1.2262    0.0000 C   0  0  0  0  0  0  0  0  0  0  0  0
    0.0000   -3.6787    0.0000 C   0  0  0  0  0  0  0  0  0  0  0  0
    2.1223   -5.7538    0.0000 C   0  0  0  0  0  0  0  0  0  0  0  0
    2.1223   -4.9049    0.0000 C   0  0  0  0  0  0  0  0  0  0  0  0
    3.5372   -2.4524    0.0000 C   0  0  0  0  0  0  0  0  0  0  0  0
    0.0000   -4.5276    0.0000 C   0  0  0  0  0  0  0  0  0  0  0  0
    0.0000   -1.2262    0.0000 C   0  0  0  0  0  0  0  0  0  0  0  0
    0.7075   -5.7538    0.0000 C   0  0  0  0  0  0  0  0  0  0  0  0
    2.8298   -6.1311    0.0000 C   0  0  0  0  0  0  0  0  0  0  0  0
    1.4148   -6.1311    0.0000 C   0  0  0  0  0  0  0  0  0  0  0  0
    2.1223    0.0000    0.0000 C   0  0  0  0  0  0  0  0  0  0  0  0
    4.2918   -2.0752    0.0000 C   0  0  0  0  0  0  0  0  0  0  0  0
    3.5844   -3.3014    0.0000 C   0  0  0  0  0  0  0  0  0  0  0  0
    3.5372   -7.3573    0.0000 C   0  0  0  0  0  0  0  0  0  0  0  0
    2.1223   -7.3573    0.0000 C   0  0  0  0  0  0  0  0  0  0  0  0
    4.2446   -3.7258    0.0000 C   0  0  0  0  0  0  0  0  0  0  0  0
    3.5372   -8.2063    0.0000 C   0  0  0  0  0  0  0  0  0  0  0  0
    2.1223   -8.2063    0.0000 C   0  0  0  0  0  0  0  0  0  0  0  0
    2.8298   -8.6308    0.0000 C   0  0  0  0  0  0  0  0  0  0  0  0
    4.9992   -3.3014    0.0000 C   0  0  0  0  0  0  0  0  0  0  0  0
  1 25  2  0  0  0  0
  2  9  1  0  0  0  0
  2 16  1  0  0  0  0
  2 18  1  0  0  0  0
  3  9  1  0  0  0  0
  3 23  2  0  0  0  0
  4 10  2  0  0  0  0
  4 23  1  0  0  0  0
  5 25  1  0  0  0  0
  5 30  1  0  0  0  0
  5 31  1  0  0  0  0
  6 28  1  0  0  0  0
  6 36  2  0  0  0  0
  7 35  1  0  0  0  0
  8  9  2  0  0  0  0
  8 10  1  0  0  0  0
  8 13  1  0  0  0  0
 10 12  1  0  0  0  0
 11 15  2  0  0  0  0
 11 16  1  0  0  0  0
 11 20  1  0  0  0  0
 12 17  2  0  0  0  0
 12 27  1  0  0  0  0
 13 14  2  0  0  0  0
 14 17  1  0  0  0  0
 14 21  1  0  0  0  0
 15 22  1  0  0  0  0
 15 24  1  0  0  0  0
 18 22  1  0  0  0  0
 19 20  2  0  0  0  0
 19 25  1  0  0  0  0
 19 26  1  0  0  0  0
 21 28  2  0  0  0  0
 21 29  1  0  0  0  0
 24 26  2  0  0  0  0
 29 32  2  0  0  0  0
 30 33  1  0  0  0  0
 31 34  1  0  0  0  0
 32 36  1  0  0  0  0
 33 35  1  0  0  0  0
 34 35  1  0  0  0  0
M  END
> <PUBCHEM_COMPOUND_ID_TYPE>
0

> <PUBCHEM_TOTAL_CHARGE>
0

> <PUBCHEM_SUBSTANCE_ID>
310934689

> <PUBCHEM_SUBSTANCE_VERSION>
1

> <PUBCHEM_EXT_DATASOURCE_NAME>
4488

> <PUBCHEM_EXT_DATASOURCE_REGID>
SCHEMBL16112190

> <PUBCHEM_SUBSTANCE_COMMENT>
InChI=1S/C29H30N6O/c1-19-13-23(22-3-2-9-31-16-22)15-26-27(19)32-18-33-28(26)35-10-6-20-4-5-21(14-24(20)17-35)29(36)34-11-7-25(30)8-12-34/h2-5,9,13-16,18,25H,6-8,10-12,17,30H2,1H3
InChIKey=DOWPLBRYTVWUDJ-UHFFFAOYSA-N

> <PUBCHEM_SUBSTANCE_SYNONYM>
SCHEMBL16112190

> <PUBCHEM_XREF_EXT_ID>
SCHEMBL16112190

> <PUBCHEM_EXT_DATASOURCE_URL>
https://www.surechembl.org/

> <PUBCHEM_EXT_SUBSTANCE_URL>
https://www.surechembl.org/chemical/SCHEMBL16112190

> <PUBCHEM_CID_ASSOCIATIONS>
86301685  1

> <PUBCHEM_COORDINATE_TYPE>
1
3

$$$$
