310937268
  -OEChem-07211613022D

 39 43  0     1  0  0  0  0  0999 V2000
   -4.9491   -3.4671    0.0000 O   0  0  0  0  0  0  0  0  0  0  0  0
   -5.6636   -2.2295    0.0000 O   0  0  0  0  0  0  0  0  0  0  0  0
   -5.6636   -0.5795    0.0000 N   0  0  0  0  0  0  0  0  0  0  0  0
   -8.5215   -3.0545    0.0000 N   0  0  3  0  0  0  0  0  0  0  0  0
   -4.9099   -0.9151    0.0000 N   0  0  0  0  0  0  0  0  0  0  0  0
  -12.4380   -1.6146    0.0000 N   0  0  0  0  0  0  0  0  0  0  0  0
  -13.7434   -1.0334    0.0000 N   0  0  0  0  0  0  0  0  0  0  0  0
   -7.0925   -2.2295    0.0000 C   0  0  0  0  0  0  0  0  0  0  0  0
   -7.0925   -3.0545    0.0000 C   0  0  3  0  0  0  0  0  0  0  0  0
   -6.3780   -0.9920    0.0000 C   0  0  0  0  0  0  0  0  0  0  0  0
   -6.3780   -1.8170    0.0000 C   0  0  0  0  0  0  0  0  0  0  0  0
   -7.8070   -3.4671    0.0000 C   0  0  0  0  0  0  0  0  0  0  0  0
   -7.8070   -1.8170    0.0000 C   0  0  0  0  0  0  0  0  0  0  0  0
   -7.0925   -0.5795    0.0000 C   0  0  0  0  0  0  0  0  0  0  0  0
   -9.8272   -2.7770    0.0000 C   0  0  3  0  0  0  0  0  0  0  0  0
   -6.3780   -3.4671    0.0000 C   0  0  0  0  0  0  0  0  0  0  0  0
  -13.2585   -1.7008    0.0000 C   0  0  0  0  0  0  0  0  0  0  0  0
  -13.5941   -2.4545    0.0000 C   0  0  0  0  0  0  0  0  0  0  0  0
   -9.2752   -3.3901    0.0000 C   0  0  0  0  0  0  0  0  0  0  0  0
   -5.5773    0.2410    0.0000 C   0  0  0  0  0  0  0  0  0  0  0  0
  -11.9531   -2.2820    0.0000 C   0  0  0  0  0  0  0  0  0  0  0  0
   -7.8070   -0.9920    0.0000 C   0  0  0  0  0  0  0  0  0  0  0  0
   -4.3578   -0.3020    0.0000 C   0  0  0  0  0  0  0  0  0  0  0  0
   -8.6077   -2.2341    0.0000 C   0  0  0  0  0  0  0  0  0  0  0  0
   -5.6636   -3.0545    0.0000 C   0  0  0  0  0  0  0  0  0  0  0  0
   -9.4147   -2.0625    0.0000 C   0  0  0  0  0  0  0  0  0  0  0  0
   -4.7703    0.4125    0.0000 C   0  0  0  0  0  0  0  0  0  0  0  0
  -10.6477   -2.8633    0.0000 C   0  0  0  0  0  0  0  0  0  0  0  0
  -13.1092   -3.1220    0.0000 C   0  0  0  0  0  0  0  0  0  0  0  0
  -11.1326   -2.1958    0.0000 C   0  0  0  0  0  0  0  0  0  0  0  0
  -12.2887   -3.0357    0.0000 C   0  0  0  0  0  0  0  0  0  0  0  0
  -14.4146   -2.5407    0.0000 C   0  0  0  0  0  0  0  0  0  0  0  0
   -4.2346   -3.0545    0.0000 C   0  0  0  0  0  0  0  0  0  0  0  0
  -14.5640   -1.1196    0.0000 C   0  0  0  0  0  0  0  0  0  0  0  0
  -14.8995   -1.8733    0.0000 C   0  0  0  0  0  0  0  0  0  0  0  0
   -3.5374   -0.3882    0.0000 C   0  0  0  0  0  0  0  0  0  0  0  0
   -3.5201   -3.4671    0.0000 C   0  0  0  0  0  0  0  0  0  0  0  0
   -3.5201   -2.6420    0.0000 C   0  0  0  0  0  0  0  0  0  0  0  0
   -4.2346   -2.2295    0.0000 C   0  0  0  0  0  0  0  0  0  0  0  0
  1 25  1  0  0  0  0
  1 33  1  0  0  0  0
  2 25  2  0  0  0  0
  3  5  1  0  0  0  0
  3 10  1  0  0  0  0
  3 20  1  0  0  0  0
  4 12  1  0  0  0  0
  4 19  1  0  0  0  0
  4 24  1  0  0  0  0
  5 23  2  0  0  0  0
  6 17  1  0  0  0  0
  6 21  2  0  0  0  0
  7 17  1  0  0  0  0
  7 34  1  0  0  0  0
  8  9  1  0  0  0  0
  8 11  1  0  0  0  0
  8 13  2  0  0  0  0
  9 12  1  0  0  0  0
  9 16  1  0  0  0  0
 10 11  2  0  0  0  0
 10 14  1  0  0  0  0
 13 22  1  0  0  0  0
 14 22  2  0  0  0  0
 15 19  1  0  0  0  0
 15 26  1  0  0  0  0
 15 28  1  0  0  0  0
 16 25  1  0  0  0  0
 17 18  2  0  0  0  0
 18 29  1  0  0  0  0
 18 32  1  0  0  0  0
 20 27  2  0  0  0  0
 21 30  1  0  0  0  0
 21 31  1  0  0  0  0
 23 27  1  0  0  0  0
 23 36  1  0  0  0  0
 24 26  1  0  0  0  0
 28 30  1  0  0  0  0
 29 31  2  0  0  0  0
 32 35  1  0  0  0  0
 33 37  1  0  0  0  0
 33 38  1  0  0  0  0
 33 39  1  0  0  0  0
 34 35  1  0  0  0  0
M  END
> <PUBCHEM_COMPOUND_ID_TYPE>
0

> <PUBCHEM_TOTAL_CHARGE>
0

> <PUBCHEM_SUBSTANCE_ID>
310937268

> <PUBCHEM_SUBSTANCE_VERSION>
1

> <PUBCHEM_EXT_DATASOURCE_NAME>
4488

> <PUBCHEM_EXT_DATASOURCE_REGID>
SCHEMBL16115009

> <PUBCHEM_SUBSTANCE_COMMENT>
InChI=1S/C32H43N5O2/c1-23-14-18-37(35-23)29-9-5-7-26(19-29)27(20-30(38)39-32(2,3)4)22-36-17-15-24(21-36)10-12-28-13-11-25-8-6-16-33-31(25)34-28/h5,7,9,11,13-14,18-19,24,27H,6,8,10,12,15-17,20-22H2,1-4H3,(H,33,34)
InChIKey=MWUIIRLEFDZHKB-UHFFFAOYSA-N

> <PUBCHEM_SUBSTANCE_SYNONYM>
SCHEMBL16115009

> <PUBCHEM_XREF_EXT_ID>
SCHEMBL16115009

> <PUBCHEM_EXT_DATASOURCE_URL>
https://www.surechembl.org/

> <PUBCHEM_EXT_SUBSTANCE_URL>
https://www.surechembl.org/chemical/SCHEMBL16115009

> <PUBCHEM_CID_ASSOCIATIONS>
117605062  1

> <PUBCHEM_COORDINATE_TYPE>
1
3

$$$$
