310945159
  -OEChem-07211613022D

 17 17  0     1  0  0  0  0  0999 V2000
   -0.9276   -1.4499    0.0000 S   0  0  0  0  0  0  0  0  0  0  0  0
   -0.7077   -2.2470    0.0000 O   0  0  0  0  0  0  0  0  0  0  0  0
   -1.7110   -1.6698    0.0000 O   0  0  0  0  0  0  0  0  0  0  0  0
   -2.0683    0.6666    0.0000 O   0  0  0  0  0  0  0  0  0  0  0  0
    1.5049   -1.3812    0.0000 O   0  0  0  0  0  0  0  0  0  0  0  0
   -0.6390    0.6803    0.0000 N   0  0  0  0  0  0  0  0  0  0  0  0
    0.7902   -0.1443    0.0000 N   0  0  0  0  0  0  0  0  0  0  0  0
   -0.6390   -0.1306    0.0000 C   0  0  3  0  0  0  0  0  0  0  0  0
    0.0756   -0.5428    0.0000 C   0  0  3  0  0  0  0  0  0  0  0  0
   -1.2575   -0.7077    0.0000 C   0  0  0  0  0  0  0  0  0  0  0  0
   -0.1030   -1.3537    0.0000 C   0  0  0  0  0  0  0  0  0  0  0  0
   -1.3537    1.1063    0.0000 C   0  0  0  0  0  0  0  0  0  0  0  0
    1.4911   -0.5154    0.0000 C   0  0  0  0  0  0  0  0  0  0  0  0
   -1.3537    1.9034    0.0000 C   0  0  0  0  0  0  0  0  0  0  0  0
    2.1233   -0.1306    0.0000 C   0  0  0  0  0  0  0  0  0  0  0  0
   -2.1233    2.2470    0.0000 C   0  0  0  0  0  0  0  0  0  0  0  0
    1.9034    0.3092    0.0000 C   0  0  0  0  0  0  0  0  0  0  0  0
  1  2  2  0  0  0  0
  1  3  2  0  0  0  0
  1 10  1  0  0  0  0
  1 11  1  0  0  0  0
  4 12  2  0  0  0  0
  5 13  2  0  0  0  0
  6  8  1  0  0  0  0
  6 12  1  0  0  0  0
  7  9  1  0  0  0  0
  7 13  1  0  0  0  0
  8  9  1  0  0  0  0
  8 10  1  0  0  0  0
  9 11  1  0  0  0  0
 12 14  1  0  0  0  0
 13 15  1  0  0  0  0
 14 16  2  0  0  0  0
 15 17  1  0  0  0  0
M  END
> <PUBCHEM_COMPOUND_ID_TYPE>
0

> <PUBCHEM_TOTAL_CHARGE>
0

> <PUBCHEM_SUBSTANCE_ID>
310945159

> <PUBCHEM_SUBSTANCE_VERSION>
1

> <PUBCHEM_EXT_DATASOURCE_NAME>
4488

> <PUBCHEM_EXT_DATASOURCE_REGID>
SCHEMBL16123249

> <PUBCHEM_SUBSTANCE_COMMENT>
InChI=1S/C10H16N2O4S/c1-3-9(13)11-7-5-17(15,16)6-8(7)12-10(14)4-2/h3,7-8H,1,4-6H2,2H3,(H,11,13)(H,12,14)
InChIKey=DMMKBYAXWZJTNK-UHFFFAOYSA-N

> <PUBCHEM_SUBSTANCE_SYNONYM>
SCHEMBL16123249

> <PUBCHEM_XREF_EXT_ID>
SCHEMBL16123249

> <PUBCHEM_EXT_DATASOURCE_URL>
https://www.surechembl.org/

> <PUBCHEM_EXT_SUBSTANCE_URL>
https://www.surechembl.org/chemical/SCHEMBL16123249

> <PUBCHEM_CID_ASSOCIATIONS>
117611245  1

> <PUBCHEM_COORDINATE_TYPE>
1
3

$$$$
