310946751
  -OEChem-07211613022D

 20 22  0     1  0  0  0  0  0999 V2000
    1.0717    1.6719    0.0000 N   0  0  0  0  0  0  0  0  0  0  0  0
   -1.8563    1.5144    0.0000 N   0  0  0  0  0  0  0  0  0  0  0  0
    1.8563    2.7519    0.0000 N   0  0  0  0  0  0  0  0  0  0  0  0
   -2.3413    0.8469    0.0000 N   0  0  0  0  0  0  0  0  0  0  0  0
   -0.7019   -0.9458    0.0000 N   0  0  3  0  0  0  0  0  0  0  0  0
    0.2513   -2.9094    0.0000 N   0  0  0  0  0  0  0  0  0  0  0  0
   -1.0717    1.2594    0.0000 C   0  0  0  0  0  0  0  0  0  0  0  0
   -0.3572    1.6719    0.0000 C   0  0  0  0  0  0  0  0  0  0  0  0
   -1.0717    0.4344    0.0000 C   0  0  0  0  0  0  0  0  0  0  0  0
    1.0717    2.4969    0.0000 C   0  0  0  0  0  0  0  0  0  0  0  0
    0.3572    1.2594    0.0000 C   0  0  0  0  0  0  0  0  0  0  0  0
   -0.3572    2.4969    0.0000 C   0  0  0  0  0  0  0  0  0  0  0  0
    0.3572    2.9094    0.0000 C   0  0  0  0  0  0  0  0  0  0  0  0
   -1.8563    0.1795    0.0000 C   0  0  0  0  0  0  0  0  0  0  0  0
    1.8563    1.4170    0.0000 C   0  0  0  0  0  0  0  0  0  0  0  0
   -0.4883   -0.1489    0.0000 C   0  0  0  0  0  0  0  0  0  0  0  0
    2.3413    2.0844    0.0000 C   0  0  0  0  0  0  0  0  0  0  0  0
   -0.1185   -1.5292    0.0000 C   0  0  0  0  0  0  0  0  0  0  0  0
   -1.4988   -1.1593    0.0000 C   0  0  0  0  0  0  0  0  0  0  0  0
   -0.3320   -2.3261    0.0000 C   0  0  0  0  0  0  0  0  0  0  0  0
  1 10  1  0  0  0  0
  1 11  1  0  0  0  0
  1 15  1  0  0  0  0
  2  4  1  0  0  0  0
  2  7  2  0  0  0  0
  3 10  2  0  0  0  0
  3 17  1  0  0  0  0
  4 14  1  0  0  0  0
  5 16  1  0  0  0  0
  5 18  1  0  0  0  0
  5 19  1  0  0  0  0
  6 20  1  0  0  0  0
  7  8  1  0  0  0  0
  7  9  1  0  0  0  0
  8 11  2  0  0  0  0
  8 12  1  0  0  0  0
  9 14  2  0  0  0  0
  9 16  1  0  0  0  0
 10 13  1  0  0  0  0
 12 13  2  0  0  0  0
 15 17  2  0  0  0  0
 18 20  1  0  0  0  0
M  END
> <PUBCHEM_COMPOUND_ID_TYPE>
0

> <PUBCHEM_TOTAL_CHARGE>
0

> <PUBCHEM_SUBSTANCE_ID>
310946751

> <PUBCHEM_SUBSTANCE_VERSION>
1

> <PUBCHEM_EXT_DATASOURCE_NAME>
4488

> <PUBCHEM_EXT_DATASOURCE_REGID>
SCHEMBL16124875

> <PUBCHEM_SUBSTANCE_COMMENT>
InChI=1S/C14H18N6/c1-19(6-4-15)9-12-8-17-18-14(12)11-2-3-13-16-5-7-20(13)10-11/h2-3,5,7-8,10H,4,6,9,15H2,1H3,(H,17,18)
InChIKey=QNMBWKLNYLBZIQ-UHFFFAOYSA-N

> <PUBCHEM_SUBSTANCE_SYNONYM>
SCHEMBL16124875

> <PUBCHEM_XREF_EXT_ID>
SCHEMBL16124875

> <PUBCHEM_EXT_DATASOURCE_URL>
https://www.surechembl.org/

> <PUBCHEM_EXT_SUBSTANCE_URL>
https://www.surechembl.org/chemical/SCHEMBL16124875

> <PUBCHEM_CID_ASSOCIATIONS>
86296137  1

> <PUBCHEM_COORDINATE_TYPE>
1
3

$$$$
