310934326
  -OEChem-07211613022D

 28 31  0     1  0  0  0  0  0999 V2000
   -3.0686    0.7300    0.0000 O   0  0  0  0  0  0  0  0  0  0  0  0
    0.7145    2.0625    0.0000 O   0  0  0  0  0  0  0  0  0  0  0  0
   -2.1434   -0.4125    0.0000 N   0  0  0  0  0  0  0  0  0  0  0  0
   -2.2297   -1.2330    0.0000 N   0  0  0  0  0  0  0  0  0  0  0  0
   -1.4290    0.8250    0.0000 N   0  0  0  0  0  0  0  0  0  0  0  0
    1.4290    0.8250    0.0000 N   0  0  0  0  0  0  0  0  0  0  0  0
    2.9404    1.0240    0.0000 N   0  0  3  0  0  0  0  0  0  0  0  0
   -7.5517   -0.2589    0.0000 N   0  0  0  0  0  0  0  0  0  0  0  0
   -2.8972   -0.0770    0.0000 C   0  0  0  0  0  0  0  0  0  0  0  0
   -3.4492   -0.6901    0.0000 C   0  0  0  0  0  0  0  0  0  0  0  0
   -1.4290    0.0000    0.0000 C   0  0  0  0  0  0  0  0  0  0  0  0
   -4.2697   -0.6038    0.0000 C   0  0  0  0  0  0  0  0  0  0  0  0
   -3.0367   -1.4045    0.0000 C   0  0  0  0  0  0  0  0  0  0  0  0
    0.0000    0.8250    0.0000 C   0  0  0  0  0  0  0  0  0  0  0  0
   -0.7145   -0.4125    0.0000 C   0  0  0  0  0  0  0  0  0  0  0  0
    0.7145    1.2375    0.0000 C   0  0  0  0  0  0  0  0  0  0  0  0
   -0.7145    1.2375    0.0000 C   0  0  0  0  0  0  0  0  0  0  0  0
    0.0000    0.0000    0.0000 C   0  0  0  0  0  0  0  0  0  0  0  0
    2.1434    1.2375    0.0000 C   0  0  3  0  0  0  0  0  0  0  0  0
   -4.6052    0.1499    0.0000 C   0  0  0  0  0  0  0  0  0  0  0  0
   -4.7546   -1.2713    0.0000 C   0  0  0  0  0  0  0  0  0  0  0  0
    2.3570    2.0344    0.0000 C   0  0  0  0  0  0  0  0  0  0  0  0
   -5.9106   -0.4314    0.0000 C   0  0  0  0  0  0  0  0  0  0  0  0
   -5.4257    0.2361    0.0000 C   0  0  0  0  0  0  0  0  0  0  0  0
   -5.5751   -1.1850    0.0000 C   0  0  0  0  0  0  0  0  0  0  0  0
    3.1539    1.8209    0.0000 C   0  0  0  0  0  0  0  0  0  0  0  0
    3.3529    0.3095    0.0000 C   0  0  0  0  0  0  0  0  0  0  0  0
   -6.7312   -0.3451    0.0000 C   0  0  0  0  0  0  0  0  0  0  0  0
  1  9  1  0  0  0  0
  2 16  2  0  0  0  0
  3  4  1  0  0  0  0
  3  9  1  0  0  0  0
  3 11  1  0  0  0  0
  4 13  2  0  0  0  0
  5 11  2  0  0  0  0
  5 17  1  0  0  0  0
  6 16  1  0  0  0  0
  6 19  1  0  0  0  0
  7 19  1  0  0  0  0
  7 26  1  0  0  0  0
  7 27  1  0  0  0  0
  8 28  3  0  0  0  0
  9 10  2  0  0  0  0
 10 12  1  0  0  0  0
 10 13  1  0  0  0  0
 11 15  1  0  0  0  0
 12 20  2  0  0  0  0
 12 21  1  0  0  0  0
 14 16  1  0  0  0  0
 14 17  2  0  0  0  0
 14 18  1  0  0  0  0
 15 18  2  0  0  0  0
 19 22  1  0  0  0  0
 20 24  1  0  0  0  0
 21 25  2  0  0  0  0
 22 26  1  0  0  0  0
 23 24  2  0  0  0  0
 23 25  1  0  0  0  0
 23 28  1  0  0  0  0
M  END
> <PUBCHEM_COMPOUND_ID_TYPE>
0

> <PUBCHEM_TOTAL_CHARGE>
0

> <PUBCHEM_SUBSTANCE_ID>
310934326

> <PUBCHEM_SUBSTANCE_VERSION>
1

> <PUBCHEM_EXT_DATASOURCE_NAME>
4488

> <PUBCHEM_EXT_DATASOURCE_REGID>
SCHEMBL16111787

> <PUBCHEM_SUBSTANCE_COMMENT>
InChI=1S/C20H18N6O2/c1-25-9-8-18(25)24-19(27)15-6-7-17(22-11-15)26-20(28)16(12-23-26)14-4-2-13(10-21)3-5-14/h2-7,11-12,18,28H,8-9H2,1H3,(H,24,27)
InChIKey=FPVPVUZOGJGUKG-UHFFFAOYSA-N

> <PUBCHEM_SUBSTANCE_SYNONYM>
SCHEMBL16111787

> <PUBCHEM_XREF_EXT_ID>
SCHEMBL16111787

> <PUBCHEM_EXT_DATASOURCE_URL>
https://www.surechembl.org/

> <PUBCHEM_EXT_SUBSTANCE_URL>
https://www.surechembl.org/chemical/SCHEMBL16111787

> <PUBCHEM_CID_ASSOCIATIONS>
117602565  1

> <PUBCHEM_COORDINATE_TYPE>
1
3

$$$$
