310933684
  -OEChem-07211613022D

 18 19  0     1  0  0  0  0  0999 V2000
    5.8175   -3.1220    0.0000 Cl  0  0  0  0  0  0  0  0  0  0  0  0
    4.1692   -3.1220    0.0000 F   0  0  0  0  0  0  0  0  0  0  0  0
    2.0749   -2.0943    0.0000 O   0  0  0  0  0  0  0  0  0  0  0  0
    0.6593   -1.1441    0.0000 O   0  0  0  0  0  0  0  0  0  0  0  0
    1.4931    0.0000    0.0000 O   0  0  0  0  0  0  0  0  0  0  0  0
    2.8505   -2.3658    0.0000 N   0  0  0  0  0  0  0  0  0  0  0  0
    2.0749   -1.2798    0.0000 C   0  0  3  0  0  0  0  0  0  0  0  0
    3.3353   -1.6871    0.0000 C   0  0  0  0  0  0  0  0  0  0  0  0
    4.1692   -1.6871    0.0000 C   0  0  0  0  0  0  0  0  0  0  0  0
    2.8505   -1.0278    0.0000 C   0  0  0  0  0  0  0  0  0  0  0  0
    1.4156   -0.8144    0.0000 C   0  0  0  0  0  0  0  0  0  0  0  0
    4.5764   -2.4045    0.0000 C   0  0  0  0  0  0  0  0  0  0  0  0
    5.4102   -2.4045    0.0000 C   0  0  0  0  0  0  0  0  0  0  0  0
    4.5764   -0.9696    0.0000 C   0  0  0  0  0  0  0  0  0  0  0  0
    1.3380   -1.6677    0.0000 C   0  0  0  0  0  0  0  0  0  0  0  0
    5.8175   -1.6871    0.0000 C   0  0  0  0  0  0  0  0  0  0  0  0
    5.4102   -0.9696    0.0000 C   0  0  0  0  0  0  0  0  0  0  0  0
    0.0000   -0.6593    0.0000 C   0  0  0  0  0  0  0  0  0  0  0  0
  1 13  1  0  0  0  0
  2 12  1  0  0  0  0
  3  6  1  0  0  0  0
  3  7  1  0  0  0  0
  4 11  1  0  0  0  0
  4 18  1  0  0  0  0
  5 11  2  0  0  0  0
  6  8  2  0  0  0  0
  7 10  1  0  0  0  0
  7 11  1  0  0  0  0
  7 15  1  0  0  0  0
  8  9  1  0  0  0  0
  8 10  1  0  0  0  0
  9 12  1  0  0  0  0
  9 14  2  0  0  0  0
 12 13  2  0  0  0  0
 13 16  1  0  0  0  0
 14 17  1  0  0  0  0
 16 17  2  0  0  0  0
M  END
> <PUBCHEM_COMPOUND_ID_TYPE>
0

> <PUBCHEM_TOTAL_CHARGE>
0

> <PUBCHEM_SUBSTANCE_ID>
310933684

> <PUBCHEM_SUBSTANCE_VERSION>
1

> <PUBCHEM_EXT_DATASOURCE_NAME>
4488

> <PUBCHEM_EXT_DATASOURCE_REGID>
SCHEMBL16111119

> <PUBCHEM_SUBSTANCE_COMMENT>
InChI=1S/C12H11ClFNO3/c1-12(11(16)17-2)6-9(15-18-12)7-4-3-5-8(13)10(7)14/h3-5H,6H2,1-2H3
InChIKey=ZEJCSSNUPOIATQ-UHFFFAOYSA-N

> <PUBCHEM_SUBSTANCE_SYNONYM>
SCHEMBL16111119

> <PUBCHEM_XREF_EXT_ID>
SCHEMBL16111119

> <PUBCHEM_EXT_DATASOURCE_URL>
https://www.surechembl.org/

> <PUBCHEM_EXT_SUBSTANCE_URL>
https://www.surechembl.org/chemical/SCHEMBL16111119

> <PUBCHEM_CID_ASSOCIATIONS>
117602051  1

> <PUBCHEM_COORDINATE_TYPE>
1
3

$$$$
