310941783
  -OEChem-07211613022D

 17 18  0     1  0  0  0  0  0999 V2000
    0.8520   -2.1438    0.0000 Cl  0  0  0  0  0  0  0  0  0  0  0  0
   -2.2950   -2.1576    0.0000 Cl  0  0  0  0  0  0  0  0  0  0  0  0
    0.1511    0.7558    0.0000 N   0  0  0  0  0  0  0  0  0  0  0  0
   -0.5772   -0.4947    0.0000 C   0  0  0  0  0  0  0  0  0  0  0  0
   -0.5635    0.3436    0.0000 C   0  0  3  0  0  0  0  0  0  0  0  0
   -1.2780   -0.9069    0.0000 C   0  0  0  0  0  0  0  0  0  0  0  0
    0.1238   -0.8933    0.0000 C   0  0  0  0  0  0  0  0  0  0  0  0
    0.1238   -1.7178    0.0000 C   0  0  0  0  0  0  0  0  0  0  0  0
   -1.3055   -1.7315    0.0000 C   0  0  0  0  0  0  0  0  0  0  0  0
   -0.5635   -2.1301    0.0000 C   0  0  0  0  0  0  0  0  0  0  0  0
    0.8796    0.3573    0.0000 C   0  0  0  0  0  0  0  0  0  0  0  0
    0.1511    1.5942    0.0000 C   0  0  0  0  0  0  0  0  0  0  0  0
    1.5804    1.5804    0.0000 C   0  0  0  0  0  0  0  0  0  0  0  0
   -1.3055    0.7421    0.0000 C   0  0  0  0  0  0  0  0  0  0  0  0
    1.5666    0.7558    0.0000 C   0  0  0  0  0  0  0  0  0  0  0  0
    0.8384    1.9926    0.0000 C   0  0  0  0  0  0  0  0  0  0  0  0
    2.2950    1.9926    0.0000 C   0  0  0  0  0  0  0  0  0  0  0  0
  1  8  1  0  0  0  0
  2  9  1  0  0  0  0
  3  5  1  0  0  0  0
  3 11  1  0  0  0  0
  3 12  1  0  0  0  0
  4  5  1  0  0  0  0
  4  6  2  0  0  0  0
  4  7  1  0  0  0  0
  5 14  1  0  0  0  0
  6  9  1  0  0  0  0
  7  8  2  0  0  0  0
  8 10  1  0  0  0  0
  9 10  2  0  0  0  0
 11 15  1  0  0  0  0
 12 16  1  0  0  0  0
 13 15  1  0  0  0  0
 13 16  1  0  0  0  0
 13 17  1  0  0  0  0
M  END
> <PUBCHEM_COMPOUND_ID_TYPE>
0

> <PUBCHEM_TOTAL_CHARGE>
0

> <PUBCHEM_SUBSTANCE_ID>
310941783

> <PUBCHEM_SUBSTANCE_VERSION>
1

> <PUBCHEM_EXT_DATASOURCE_NAME>
4488

> <PUBCHEM_EXT_DATASOURCE_REGID>
SCHEMBL16119814

> <PUBCHEM_SUBSTANCE_COMMENT>
InChI=1S/C14H19Cl2N/c1-10-3-5-17(6-4-10)11(2)12-7-13(15)9-14(16)8-12/h7-11H,3-6H2,1-2H3
InChIKey=DPILIUBSYAXRNN-UHFFFAOYSA-N

> <PUBCHEM_SUBSTANCE_SYNONYM>
SCHEMBL16119814

> <PUBCHEM_XREF_EXT_ID>
SCHEMBL16119814

> <PUBCHEM_EXT_DATASOURCE_URL>
https://www.surechembl.org/

> <PUBCHEM_EXT_SUBSTANCE_URL>
https://www.surechembl.org/chemical/SCHEMBL16119814

> <PUBCHEM_CID_ASSOCIATIONS>
117608534  1

> <PUBCHEM_COORDINATE_TYPE>
1
3

$$$$
