310937952
  -OEChem-07211613022D

 16 17  0     1  0  0  0  0  0999 V2000
    6.0638   -1.5361    0.0000 O   0  0  0  0  0  0  0  0  0  0  0  0
    6.0638   -0.1213    0.0000 O   0  0  0  0  0  0  0  0  0  0  0  0
    0.0000   -0.0404    0.0000 O   0  0  0  0  0  0  0  0  0  0  0  0
    4.3659   -0.1617    0.0000 N   0  0  0  0  0  0  0  0  0  0  0  0
    1.4351   -0.0202    0.0000 N   0  0  0  0  0  0  0  0  0  0  0  0
    3.5776   -0.4245    0.0000 C   0  0  0  0  0  0  0  0  0  0  0  0
    3.5776   -1.2330    0.0000 C   0  0  0  0  0  0  0  0  0  0  0  0
    4.8308   -0.8287    0.0000 C   0  0  3  0  0  0  0  0  0  0  0  0
    4.3659   -1.4957    0.0000 C   0  0  0  0  0  0  0  0  0  0  0  0
    2.8702    0.0000    0.0000 C   0  0  0  0  0  0  0  0  0  0  0  0
    2.1627   -0.4245    0.0000 C   0  0  0  0  0  0  0  0  0  0  0  0
    2.8702   -1.6574    0.0000 C   0  0  0  0  0  0  0  0  0  0  0  0
    5.6595   -0.8287    0.0000 C   0  0  0  0  0  0  0  0  0  0  0  0
    2.1627   -1.2330    0.0000 C   0  0  0  0  0  0  0  0  0  0  0  0
    0.7277   -0.4245    0.0000 C   0  0  0  0  0  0  0  0  0  0  0  0
    0.7277   -1.2532    0.0000 C   0  0  0  0  0  0  0  0  0  0  0  0
  1 13  2  0  0  0  0
  2 13  1  0  0  0  0
  3 15  2  0  0  0  0
  4  6  1  0  0  0  0
  4  8  1  0  0  0  0
  5 11  1  0  0  0  0
  5 15  1  0  0  0  0
  6  7  2  0  0  0  0
  6 10  1  0  0  0  0
  7  9  1  0  0  0  0
  7 12  1  0  0  0  0
  8  9  1  0  0  0  0
  8 13  1  0  0  0  0
 10 11  2  0  0  0  0
 11 14  1  0  0  0  0
 12 14  2  0  0  0  0
 15 16  1  0  0  0  0
M  END
> <PUBCHEM_COMPOUND_ID_TYPE>
0

> <PUBCHEM_TOTAL_CHARGE>
0

> <PUBCHEM_SUBSTANCE_ID>
310937952

> <PUBCHEM_SUBSTANCE_VERSION>
1

> <PUBCHEM_EXT_DATASOURCE_NAME>
4488

> <PUBCHEM_EXT_DATASOURCE_REGID>
SCHEMBL16115783

> <PUBCHEM_SUBSTANCE_COMMENT>
InChI=1S/C11H12N2O3/c1-6(14)12-8-3-2-7-4-10(11(15)16)13-9(7)5-8/h2-3,5,10,13H,4H2,1H3,(H,12,14)(H,15,16)
InChIKey=QSHRXKFBVRHBPL-UHFFFAOYSA-N

> <PUBCHEM_SUBSTANCE_SYNONYM>
SCHEMBL16115783

> <PUBCHEM_XREF_EXT_ID>
SCHEMBL16115783

> <PUBCHEM_EXT_DATASOURCE_URL>
https://www.surechembl.org/

> <PUBCHEM_EXT_SUBSTANCE_URL>
https://www.surechembl.org/chemical/SCHEMBL16115783

> <PUBCHEM_CID_ASSOCIATIONS>
117605555  1

> <PUBCHEM_COORDINATE_TYPE>
1
3

$$$$
