310948657
  -OEChem-07211613022D

 16 18  0     1  0  0  0  0  0999 V2000
    0.3603    3.0688    0.0000 Br  0  0  0  0  0  0  0  0  0  0  0  0
   -0.6512   -0.3256    0.0000 N   0  0  3  0  0  0  0  0  0  0  0  0
   -0.3603    0.9906    0.0000 C   0  0  0  0  0  0  0  0  0  0  0  0
    0.3603    0.5889    0.0000 C   0  0  0  0  0  0  0  0  0  0  0  0
   -0.9698    0.4365    0.0000 C   0  0  0  0  0  0  0  0  0  0  0  0
    0.1801   -0.2425    0.0000 C   0  0  0  0  0  0  0  0  0  0  0  0
   -0.3464    1.8358    0.0000 C   0  0  0  0  0  0  0  0  0  0  0  0
    1.0668    0.9906    0.0000 C   0  0  0  0  0  0  0  0  0  0  0  0
    0.3603    2.2376    0.0000 C   0  0  0  0  0  0  0  0  0  0  0  0
   -1.0668   -1.0460    0.0000 C   0  0  0  0  0  0  0  0  0  0  0  0
    1.0668    1.8219    0.0000 C   0  0  0  0  0  0  0  0  0  0  0  0
   -0.6512   -1.7665    0.0000 C   0  0  0  0  0  0  0  0  0  0  0  0
   -0.9698   -2.5423    0.0000 C   0  0  0  0  0  0  0  0  0  0  0  0
    0.1801   -1.8635    0.0000 C   0  0  0  0  0  0  0  0  0  0  0  0
   -0.3603   -3.0688    0.0000 C   0  0  0  0  0  0  0  0  0  0  0  0
    0.3464   -2.6670    0.0000 C   0  0  0  0  0  0  0  0  0  0  0  0
  1  9  1  0  0  0  0
  2  5  1  0  0  0  0
  2  6  1  0  0  0  0
  2 10  1  0  0  0  0
  3  4  1  0  0  0  0
  3  5  1  0  0  0  0
  3  7  2  0  0  0  0
  4  6  1  0  0  0  0
  4  8  2  0  0  0  0
  7  9  1  0  0  0  0
  8 11  1  0  0  0  0
  9 11  2  0  0  0  0
 10 12  1  0  0  0  0
 12 13  1  0  0  0  0
 12 14  1  0  0  0  0
 13 15  1  0  0  0  0
 14 16  1  0  0  0  0
 15 16  1  0  0  0  0
M  END
> <PUBCHEM_COMPOUND_ID_TYPE>
0

> <PUBCHEM_TOTAL_CHARGE>
0

> <PUBCHEM_SUBSTANCE_ID>
310948657

> <PUBCHEM_SUBSTANCE_VERSION>
1

> <PUBCHEM_EXT_DATASOURCE_NAME>
4488

> <PUBCHEM_EXT_DATASOURCE_REGID>
SCHEMBL16126841

> <PUBCHEM_SUBSTANCE_COMMENT>
InChI=1S/C14H18BrN/c15-14-6-5-12-9-16(10-13(12)7-14)8-11-3-1-2-4-11/h5-7,11H,1-4,8-10H2
InChIKey=PFQYNEWGZVBUIT-UHFFFAOYSA-N

> <PUBCHEM_SUBSTANCE_SYNONYM>
SCHEMBL16126841

> <PUBCHEM_XREF_EXT_ID>
SCHEMBL16126841

> <PUBCHEM_EXT_DATASOURCE_URL>
https://www.surechembl.org/

> <PUBCHEM_EXT_SUBSTANCE_URL>
https://www.surechembl.org/chemical/SCHEMBL16126841

> <PUBCHEM_CID_ASSOCIATIONS>
84738984  1

> <PUBCHEM_COORDINATE_TYPE>
1
3

$$$$
