310932621
  -OEChem-07211613022D

 17 18  0     1  0  0  0  0  0999 V2000
    3.2577    0.0000    0.0000 O   0  0  0  0  0  0  0  0  0  0  0  0
    4.3825   -1.9585    0.0000 O   0  0  0  0  0  0  0  0  0  0  0  0
    5.1000   -0.7175    0.0000 O   0  0  0  0  0  0  0  0  0  0  0  0
    3.6844   -0.7175    0.0000 C   0  0  3  0  0  0  0  0  0  0  0  0
    2.8505   -0.7175    0.0000 C   0  0  3  0  0  0  0  0  0  0  0  0
    4.3825   -1.1247    0.0000 C   0  0  0  0  0  0  0  0  0  0  0  0
    2.1330   -1.1247    0.0000 C   0  0  0  0  0  0  0  0  0  0  0  0
    3.4710   -1.5125    0.0000 C   0  0  0  0  0  0  0  0  0  0  0  0
    2.1330   -1.9585    0.0000 C   0  0  0  0  0  0  0  0  0  0  0  0
    1.4156   -0.7369    0.0000 C   0  0  0  0  0  0  0  0  0  0  0  0
    1.4156   -2.3658    0.0000 C   0  0  0  0  0  0  0  0  0  0  0  0
    0.7175   -1.1247    0.0000 C   0  0  0  0  0  0  0  0  0  0  0  0
    5.1000   -2.3658    0.0000 C   0  0  0  0  0  0  0  0  0  0  0  0
    0.7175   -1.9585    0.0000 C   0  0  0  0  0  0  0  0  0  0  0  0
    5.8174   -1.9392    0.0000 C   0  0  0  0  0  0  0  0  0  0  0  0
    5.1000   -3.1802    0.0000 C   0  0  0  0  0  0  0  0  0  0  0  0
    0.0000   -2.3658    0.0000 C   0  0  0  0  0  0  0  0  0  0  0  0
  1  4  1  0  0  0  0
  1  5  1  0  0  0  0
  2  6  1  0  0  0  0
  2 13  1  0  0  0  0
  3  6  2  0  0  0  0
  4  5  1  0  0  0  0
  4  6  1  0  0  0  0
  4  8  1  0  0  0  0
  5  7  1  0  0  0  0
  7  9  2  0  0  0  0
  7 10  1  0  0  0  0
  9 11  1  0  0  0  0
 10 12  2  0  0  0  0
 11 14  2  0  0  0  0
 12 14  1  0  0  0  0
 13 15  1  0  0  0  0
 13 16  1  0  0  0  0
 14 17  1  0  0  0  0
M  END
> <PUBCHEM_COMPOUND_ID_TYPE>
0

> <PUBCHEM_TOTAL_CHARGE>
0

> <PUBCHEM_SUBSTANCE_ID>
310932621

> <PUBCHEM_SUBSTANCE_VERSION>
1

> <PUBCHEM_EXT_DATASOURCE_NAME>
4488

> <PUBCHEM_EXT_DATASOURCE_REGID>
SCHEMBL16109999

> <PUBCHEM_SUBSTANCE_COMMENT>
InChI=1S/C14H18O3/c1-9(2)16-13(15)14(4)12(17-14)11-7-5-10(3)6-8-11/h5-9,12H,1-4H3
InChIKey=AYTZVNCKEYHXKD-UHFFFAOYSA-N

> <PUBCHEM_SUBSTANCE_SYNONYM>
SCHEMBL16109999

> <PUBCHEM_XREF_EXT_ID>
SCHEMBL16109999

> <PUBCHEM_EXT_DATASOURCE_URL>
https://www.surechembl.org/

> <PUBCHEM_EXT_SUBSTANCE_URL>
https://www.surechembl.org/chemical/SCHEMBL16109999

> <PUBCHEM_CID_ASSOCIATIONS>
117601141  1

> <PUBCHEM_COORDINATE_TYPE>
1
3

$$$$
