310934593
  -OEChem-07211613022D

 22 24  0     1  0  0  0  0  0999 V2000
    0.0000   -2.8857    0.0000 F   0  0  0  0  0  0  0  0  0  0  0  0
    5.2905   -1.4866    0.0000 O   0  0  0  0  0  0  0  0  0  0  0  0
    5.2905   -2.9076    0.0000 O   0  0  0  0  0  0  0  0  0  0  0  0
    1.5522   -4.3723    0.0000 N   0  0  0  0  0  0  0  0  0  0  0  0
    4.0881   -2.1861    0.0000 C   0  0  3  0  0  0  0  0  0  0  0  0
    4.4598   -1.4647    0.0000 C   0  0  0  0  0  0  0  0  0  0  0  0
    3.6072   -2.8639    0.0000 C   0  0  0  0  0  0  0  0  0  0  0  0
    2.8202   -2.6015    0.0000 C   0  0  0  0  0  0  0  0  0  0  0  0
    4.8970   -2.1861    0.0000 C   0  0  0  0  0  0  0  0  0  0  0  0
    3.6072   -1.5303    0.0000 C   0  0  0  0  0  0  0  0  0  0  0  0
    2.8202   -1.7926    0.0000 C   0  0  0  0  0  0  0  0  0  0  0  0
    2.1643   -3.0825    0.0000 C   0  0  0  0  0  0  0  0  0  0  0  0
    4.0225   -0.7652    0.0000 C   0  0  0  0  0  0  0  0  0  0  0  0
    5.4436   -1.5959    0.0000 C   0  0  0  0  0  0  0  0  0  0  0  0
    1.3992   -2.7545    0.0000 C   0  0  0  0  0  0  0  0  0  0  0  0
    2.2080   -3.9132    0.0000 C   0  0  0  0  0  0  0  0  0  0  0  0
    0.7433   -3.2355    0.0000 C   0  0  0  0  0  0  0  0  0  0  0  0
    4.3723   -0.0438    0.0000 C   0  0  0  0  0  0  0  0  0  0  0  0
    5.6403   -0.6996    0.0000 C   0  0  0  0  0  0  0  0  0  0  0  0
    0.7870   -4.0663    0.0000 C   0  0  0  0  0  0  0  0  0  0  0  0
    5.2031    0.0000    0.0000 C   0  0  0  0  0  0  0  0  0  0  0  0
    6.1213   -1.4866    0.0000 C   0  0  0  0  0  0  0  0  0  0  0  0
  1 17  1  0  0  0  0
  2  9  1  0  0  0  0
  2 22  1  0  0  0  0
  3  9  2  0  0  0  0
  4 16  1  0  0  0  0
  4 20  2  0  0  0  0
  5  6  1  0  0  0  0
  5  7  1  0  0  0  0
  5  9  1  0  0  0  0
  5 10  1  0  0  0  0
  6 13  2  0  0  0  0
  6 14  1  0  0  0  0
  7  8  2  0  0  0  0
  8 11  1  0  0  0  0
  8 12  1  0  0  0  0
 10 11  1  0  0  0  0
 12 15  1  0  0  0  0
 12 16  2  0  0  0  0
 13 18  1  0  0  0  0
 14 19  2  0  0  0  0
 15 17  2  0  0  0  0
 17 20  1  0  0  0  0
 18 21  2  0  0  0  0
 19 21  1  0  0  0  0
M  END
> <PUBCHEM_COMPOUND_ID_TYPE>
0

> <PUBCHEM_TOTAL_CHARGE>
0

> <PUBCHEM_SUBSTANCE_ID>
310934593

> <PUBCHEM_SUBSTANCE_VERSION>
1

> <PUBCHEM_EXT_DATASOURCE_NAME>
4488

> <PUBCHEM_EXT_DATASOURCE_REGID>
SCHEMBL16112085

> <PUBCHEM_SUBSTANCE_COMMENT>
InChI=1S/C18H16FNO2/c1-22-17(21)18(15-5-3-2-4-6-15)8-7-13(10-18)14-9-16(19)12-20-11-14/h2-6,9-12H,7-8H2,1H3
InChIKey=VBAUYJLLRMYZQU-UHFFFAOYSA-N

> <PUBCHEM_SUBSTANCE_SYNONYM>
SCHEMBL16112085

> <PUBCHEM_XREF_EXT_ID>
SCHEMBL16112085

> <PUBCHEM_EXT_DATASOURCE_URL>
https://www.surechembl.org/

> <PUBCHEM_EXT_SUBSTANCE_URL>
https://www.surechembl.org/chemical/SCHEMBL16112085

> <PUBCHEM_CID_ASSOCIATIONS>
117602776  1

> <PUBCHEM_COORDINATE_TYPE>
1
3

$$$$
