310940528
  -OEChem-07211613022D

 31 35  0     1  0  0  0  0  0999 V2000
    2.7278   -0.2954    0.0000 O   0  0  0  0  0  0  0  0  0  0  0  0
   -1.4635   -0.4191    0.0000 O   0  0  0  0  0  0  0  0  0  0  0  0
    2.7827    1.1612    0.0000 O   0  0  0  0  0  0  0  0  0  0  0  0
   -2.7827   -2.3980    0.0000 O   0  0  0  0  0  0  0  0  0  0  0  0
    1.5460    0.3504    0.0000 N   0  0  0  0  0  0  0  0  0  0  0  0
    1.3811   -2.0956    0.0000 N   0  0  0  0  0  0  0  0  0  0  0  0
   -2.3842   -3.0850    0.0000 N   0  0  0  0  0  0  0  0  0  0  0  0
    1.3811   -0.3642    0.0000 C   0  0  0  0  0  0  0  0  0  0  0  0
    0.6802   -0.7901    0.0000 C   0  0  0  0  0  0  0  0  0  0  0  0
    2.0956   -0.7764    0.0000 C   0  0  0  0  0  0  0  0  0  0  0  0
    0.6665   -1.6009    0.0000 C   0  0  0  0  0  0  0  0  0  0  0  0
    2.3567    0.5016    0.0000 C   0  0  0  0  0  0  0  0  0  0  0  0
   -0.7764   -1.6146    0.0000 C   0  0  0  0  0  0  0  0  0  0  0  0
   -0.7626   -0.7901    0.0000 C   0  0  0  0  0  0  0  0  0  0  0  0
   -0.0481   -0.3779    0.0000 C   0  0  0  0  0  0  0  0  0  0  0  0
    0.9963    1.0650    0.0000 C   0  0  3  0  0  0  0  0  0  0  0  0
   -0.0344   -2.0132    0.0000 C   0  0  0  0  0  0  0  0  0  0  0  0
   -1.4910   -2.0269    0.0000 C   0  0  0  0  0  0  0  0  0  0  0  0
    2.0818   -1.6146    0.0000 C   0  0  0  0  0  0  0  0  0  0  0  0
    1.2573    1.8620    0.0000 C   0  0  0  0  0  0  0  0  0  0  0  0
   -2.2467   -1.6696    0.0000 C   0  0  0  0  0  0  0  0  0  0  0  0
   -1.5735   -2.8514    0.0000 C   0  0  0  0  0  0  0  0  0  0  0  0
    0.1855    0.8726    0.0000 C   0  0  0  0  0  0  0  0  0  0  0  0
    0.7077    2.4529    0.0000 C   0  0  0  0  0  0  0  0  0  0  0  0
    2.0682    2.0407    0.0000 C   0  0  0  0  0  0  0  0  0  0  0  0
   -2.3980   -0.8726    0.0000 C   0  0  0  0  0  0  0  0  0  0  0  0
   -0.9413   -3.4148    0.0000 C   0  0  0  0  0  0  0  0  0  0  0  0
   -1.4910    0.4741    0.0000 C   0  0  0  0  0  0  0  0  0  0  0  0
    0.9688    3.2636    0.0000 C   0  0  0  0  0  0  0  0  0  0  0  0
    2.3017    2.8239    0.0000 C   0  0  0  0  0  0  0  0  0  0  0  0
    1.7658    3.4148    0.0000 C   0  0  0  0  0  0  0  0  0  0  0  0
  1 10  1  0  0  0  0
  1 12  1  0  0  0  0
  2 14  1  0  0  0  0
  2 28  1  0  0  0  0
  3 12  2  0  0  0  0
  4  7  1  0  0  0  0
  4 21  1  0  0  0  0
  5  8  1  0  0  0  0
  5 12  1  0  0  0  0
  5 16  1  0  0  0  0
  6 11  1  0  0  0  0
  6 19  2  0  0  0  0
  7 22  2  0  0  0  0
  8  9  1  0  0  0  0
  8 10  2  0  0  0  0
  9 11  1  0  0  0  0
  9 15  2  0  0  0  0
 10 19  1  0  0  0  0
 11 17  2  0  0  0  0
 13 14  2  0  0  0  0
 13 17  1  0  0  0  0
 13 18  1  0  0  0  0
 14 15  1  0  0  0  0
 16 20  1  0  0  0  0
 16 23  1  0  0  0  0
 18 21  2  0  0  0  0
 18 22  1  0  0  0  0
 20 24  2  0  0  0  0
 20 25  1  0  0  0  0
 21 26  1  0  0  0  0
 22 27  1  0  0  0  0
 24 29  1  0  0  0  0
 25 30  2  0  0  0  0
 29 31  2  0  0  0  0
 30 31  1  0  0  0  0
M  END
> <PUBCHEM_COMPOUND_ID_TYPE>
0

> <PUBCHEM_TOTAL_CHARGE>
0

> <PUBCHEM_SUBSTANCE_ID>
310940528

> <PUBCHEM_SUBSTANCE_VERSION>
1

> <PUBCHEM_EXT_DATASOURCE_NAME>
4488

> <PUBCHEM_EXT_DATASOURCE_REGID>
SCHEMBL16118482

> <PUBCHEM_SUBSTANCE_COMMENT>
InChI=1S/C24H21N3O4/c1-13-22(15(3)31-26-13)18-10-19-17(11-20(18)29-4)23-21(12-25-19)30-24(28)27(23)14(2)16-8-6-5-7-9-16/h5-12,14H,1-4H3
InChIKey=RYMLIHXLIHUWGD-UHFFFAOYSA-N

> <PUBCHEM_SUBSTANCE_SYNONYM>
SCHEMBL16118482

> <PUBCHEM_XREF_EXT_ID>
SCHEMBL16118482

> <PUBCHEM_EXT_DATASOURCE_URL>
https://www.surechembl.org/

> <PUBCHEM_EXT_SUBSTANCE_URL>
https://www.surechembl.org/chemical/SCHEMBL16118482

> <PUBCHEM_CID_ASSOCIATIONS>
86302789  1

> <PUBCHEM_COORDINATE_TYPE>
1
3

$$$$
