310932403
  -OEChem-07211613022D

 28 31  0     1  0  0  0  0  0999 V2000
    3.2807    0.0000    0.0000 O   0  0  0  0  0  0  0  0  0  0  0  0
    4.4042   -1.9549    0.0000 O   0  0  0  0  0  0  0  0  0  0  0  0
    5.1232   -0.7191    0.0000 O   0  0  0  0  0  0  0  0  0  0  0  0
    2.8537   -3.9099    0.0000 O   0  0  0  0  0  0  0  0  0  0  0  0
    0.0000   -2.3818    0.0000 O   0  0  0  0  0  0  0  0  0  0  0  0
    3.7076   -0.7191    0.0000 C   0  0  3  0  0  0  0  0  0  0  0  0
    2.8762   -0.7191    0.0000 C   0  0  3  0  0  0  0  0  0  0  0  0
    3.4829   -1.5280    0.0000 C   0  0  0  0  0  0  0  0  0  0  0  0
    4.4042   -1.1235    0.0000 C   0  0  0  0  0  0  0  0  0  0  0  0
    2.1572   -1.1235    0.0000 C   0  0  0  0  0  0  0  0  0  0  0  0
    4.0671   -2.1122    0.0000 C   0  0  0  0  0  0  0  0  0  0  0  0
    2.6964   -1.7527    0.0000 C   0  0  0  0  0  0  0  0  0  0  0  0
    2.1572   -1.9774    0.0000 C   0  0  0  0  0  0  0  0  0  0  0  0
    1.4381   -0.7191    0.0000 C   0  0  0  0  0  0  0  0  0  0  0  0
    3.8649   -2.8987    0.0000 C   0  0  0  0  0  0  0  0  0  0  0  0
    2.4718   -2.5392    0.0000 C   0  0  0  0  0  0  0  0  0  0  0  0
    5.1232   -2.3818    0.0000 C   0  0  0  0  0  0  0  0  0  0  0  0
    3.0559   -3.1233    0.0000 C   0  0  0  0  0  0  0  0  0  0  0  0
    1.4381   -2.3818    0.0000 C   0  0  0  0  0  0  0  0  0  0  0  0
    0.7415   -1.1235    0.0000 C   0  0  0  0  0  0  0  0  0  0  0  0
    0.7191   -1.9549    0.0000 C   0  0  0  0  0  0  0  0  0  0  0  0
    5.8648   -1.9549    0.0000 C   0  0  0  0  0  0  0  0  0  0  0  0
    5.1457   -3.1908    0.0000 C   0  0  0  0  0  0  0  0  0  0  0  0
    6.5613   -2.3594    0.0000 C   0  0  0  0  0  0  0  0  0  0  0  0
    5.8423   -3.5953    0.0000 C   0  0  0  0  0  0  0  0  0  0  0  0
    6.5613   -3.1908    0.0000 C   0  0  0  0  0  0  0  0  0  0  0  0
    3.4379   -4.4941    0.0000 C   0  0  0  0  0  0  0  0  0  0  0  0
    0.0000   -3.1908    0.0000 C   0  0  0  0  0  0  0  0  0  0  0  0
  1  6  1  0  0  0  0
  1  7  1  0  0  0  0
  2  9  1  0  0  0  0
  2 17  1  0  0  0  0
  3  9  2  0  0  0  0
  4 18  1  0  0  0  0
  4 27  1  0  0  0  0
  5 21  1  0  0  0  0
  5 28  1  0  0  0  0
  6  7  1  0  0  0  0
  6  8  1  0  0  0  0
  6  9  1  0  0  0  0
  7 10  1  0  0  0  0
  8 11  2  0  0  0  0
  8 12  1  0  0  0  0
 10 13  2  0  0  0  0
 10 14  1  0  0  0  0
 11 15  1  0  0  0  0
 12 16  2  0  0  0  0
 13 19  1  0  0  0  0
 14 20  2  0  0  0  0
 15 18  2  0  0  0  0
 16 18  1  0  0  0  0
 17 22  2  0  0  0  0
 17 23  1  0  0  0  0
 19 21  2  0  0  0  0
 20 21  1  0  0  0  0
 22 24  1  0  0  0  0
 23 25  2  0  0  0  0
 24 26  2  0  0  0  0
 25 26  1  0  0  0  0
M  END
> <PUBCHEM_COMPOUND_ID_TYPE>
0

> <PUBCHEM_TOTAL_CHARGE>
0

> <PUBCHEM_SUBSTANCE_ID>
310932403

> <PUBCHEM_SUBSTANCE_VERSION>
1

> <PUBCHEM_EXT_DATASOURCE_NAME>
4488

> <PUBCHEM_EXT_DATASOURCE_REGID>
SCHEMBL16109771

> <PUBCHEM_SUBSTANCE_COMMENT>
InChI=1S/C23H20O5/c1-25-18-12-8-16(9-13-18)21-23(28-21,17-10-14-19(26-2)15-11-17)22(24)27-20-6-4-3-5-7-20/h3-15,21H,1-2H3
InChIKey=RIGLCEJVTHPNPD-UHFFFAOYSA-N

> <PUBCHEM_SUBSTANCE_SYNONYM>
SCHEMBL16109771

> <PUBCHEM_XREF_EXT_ID>
SCHEMBL16109771

> <PUBCHEM_EXT_DATASOURCE_URL>
https://www.surechembl.org/

> <PUBCHEM_EXT_SUBSTANCE_URL>
https://www.surechembl.org/chemical/SCHEMBL16109771

> <PUBCHEM_CID_ASSOCIATIONS>
117600957  1

> <PUBCHEM_COORDINATE_TYPE>
1
3

$$$$
