310949434
  -OEChem-07211613022D

 32 36  0     1  0  0  0  0  0999 V2000
   -1.8181    1.3837    0.0000 O   0  0  0  0  0  0  0  0  0  0  0  0
   -0.8625    3.0219    0.0000 O   0  0  0  0  0  0  0  0  0  0  0  0
    1.6071    2.7737    0.0000 O   0  0  0  0  0  0  0  0  0  0  0  0
   -3.1956    1.0114    0.0000 O   0  0  0  0  0  0  0  0  0  0  0  0
   -2.1904    0.0062    0.0000 O   0  0  0  0  0  0  0  0  0  0  0  0
    3.7416   -3.0219    0.0000 O   0  0  0  0  0  0  0  0  0  0  0  0
    1.4706    1.3465    0.0000 N   0  0  0  0  0  0  0  0  0  0  0  0
    1.2969   -0.8005    0.0000 N   0  0  0  0  0  0  0  0  0  0  0  0
    0.9742    0.6763    0.0000 C   0  0  0  0  0  0  0  0  0  0  0  0
    1.4706    0.0186    0.0000 C   0  0  0  0  0  0  0  0  0  0  0  0
   -0.1800    1.5202    0.0000 C   0  0  0  0  0  0  0  0  0  0  0  0
    2.2400    0.2668    0.0000 C   0  0  0  0  0  0  0  0  0  0  0  0
    0.3040    2.2028    0.0000 C   0  0  0  0  0  0  0  0  0  0  0  0
   -0.9990    1.6195    0.0000 C   0  0  3  0  0  0  0  0  0  0  0  0
    1.1231    2.0911    0.0000 C   0  0  0  0  0  0  0  0  0  0  0  0
    0.1552    0.7632    0.0000 C   0  0  0  0  0  0  0  0  0  0  0  0
    2.2524    1.0859    0.0000 C   0  0  0  0  0  0  0  0  0  0  0  0
    2.8730   -0.2916    0.0000 C   0  0  0  0  0  0  0  0  0  0  0  0
    2.6868   -1.0983    0.0000 C   0  0  0  0  0  0  0  0  0  0  0  0
    1.9298   -1.3465    0.0000 C   0  0  0  0  0  0  0  0  0  0  0  0
   -0.0186    2.9350    0.0000 C   0  0  0  0  0  0  0  0  0  0  0  0
   -1.3341    2.3393    0.0000 C   0  0  0  0  0  0  0  0  0  0  0  0
   -0.9990    0.7756    0.0000 C   0  0  0  0  0  0  0  0  0  0  0  0
    3.3073   -1.6444    0.0000 C   0  0  0  0  0  0  0  0  0  0  0  0
    3.6672   -0.0807    0.0000 C   0  0  0  0  0  0  0  0  0  0  0  0
    1.7560   -2.1655    0.0000 C   0  0  0  0  0  0  0  0  0  0  0  0
   -2.3890    0.8129    0.0000 C   0  0  0  0  0  0  0  0  0  0  0  0
    3.1336   -2.4510    0.0000 C   0  0  0  0  0  0  0  0  0  0  0  0
    2.3393   -2.6992    0.0000 C   0  0  0  0  0  0  0  0  0  0  0  0
   -1.7064    0.3537    0.0000 C   0  0  0  0  0  0  0  0  0  0  0  0
    3.8782    0.7136    0.0000 C   0  0  0  0  0  0  0  0  0  0  0  0
   -3.8782    0.6019    0.0000 C   0  0  0  0  0  0  0  0  0  0  0  0
  1 14  1  0  0  0  0
  1 27  1  0  0  0  0
  2 21  1  0  0  0  0
  2 22  1  0  0  0  0
  3 15  2  0  0  0  0
  4 27  1  0  0  0  0
  4 32  1  0  0  0  0
  5 27  2  0  0  0  0
  6 28  1  0  0  0  0
  7  9  1  0  0  0  0
  7 15  1  0  0  0  0
  7 17  1  0  0  0  0
  8 10  2  0  0  0  0
  8 20  1  0  0  0  0
  9 10  1  0  0  0  0
  9 16  2  0  0  0  0
 10 12  1  0  0  0  0
 11 13  2  0  0  0  0
 11 14  1  0  0  0  0
 11 16  1  0  0  0  0
 12 17  1  0  0  0  0
 12 18  2  0  0  0  0
 13 15  1  0  0  0  0
 13 21  1  0  0  0  0
 14 22  1  0  0  0  0
 14 23  1  0  0  0  0
 18 19  1  0  0  0  0
 18 25  1  0  0  0  0
 19 20  1  0  0  0  0
 19 24  2  0  0  0  0
 20 26  2  0  0  0  0
 23 30  1  0  0  0  0
 24 28  1  0  0  0  0
 25 31  1  0  0  0  0
 26 29  1  0  0  0  0
 28 29  2  0  0  0  0
M  END
> <PUBCHEM_COMPOUND_ID_TYPE>
0

> <PUBCHEM_TOTAL_CHARGE>
0

> <PUBCHEM_SUBSTANCE_ID>
310949434

> <PUBCHEM_SUBSTANCE_VERSION>
1

> <PUBCHEM_EXT_DATASOURCE_NAME>
4488

> <PUBCHEM_EXT_DATASOURCE_REGID>
SCHEMBL16127628

> <PUBCHEM_SUBSTANCE_COMMENT>
InChI=1S/C24H24N2O6/c1-4-14-15-8-13(27)6-7-19(15)25-21-16(14)10-26-20(21)9-18-17(22(26)28)11-31-12-24(18,5-2)32-23(29)30-3/h6-9,27H,4-5,10-12H2,1-3H3
InChIKey=ABDSQNUOCKVPCY-UHFFFAOYSA-N

> <PUBCHEM_SUBSTANCE_SYNONYM>
SCHEMBL16127628

> <PUBCHEM_XREF_EXT_ID>
SCHEMBL16127628

> <PUBCHEM_EXT_DATASOURCE_URL>
https://www.surechembl.org/

> <PUBCHEM_EXT_SUBSTANCE_URL>
https://www.surechembl.org/chemical/SCHEMBL16127628

> <PUBCHEM_CID_ASSOCIATIONS>
117614885  1

> <PUBCHEM_COORDINATE_TYPE>
1
3

$$$$
