310943556
  -OEChem-07211613022D

 32 35  0     1  0  0  0  0  0999 V2000
    2.1310    2.1792    0.0000 O   0  0  0  0  0  0  0  0  0  0  0  0
    6.2006    0.9692    0.0000 O   0  0  0  0  0  0  0  0  0  0  0  0
    2.8597    0.7355    0.0000 N   0  0  0  0  0  0  0  0  0  0  0  0
   -3.5883   -1.3679    0.0000 N   0  0  3  0  0  0  0  0  0  0  0  0
    0.7561   -2.1792    0.0000 N   0  0  0  0  0  0  0  0  0  0  0  0
   -5.3619   -0.8318    0.0000 N   0  0  3  0  0  0  0  0  0  0  0  0
   -0.7286   -0.5156    0.0000 C   0  0  0  0  0  0  0  0  0  0  0  0
    0.0000   -0.1031    0.0000 C   0  0  0  0  0  0  0  0  0  0  0  0
    1.4298    0.7355    0.0000 C   0  0  0  0  0  0  0  0  0  0  0  0
   -0.7286   -1.3404    0.0000 C   0  0  0  0  0  0  0  0  0  0  0  0
    2.1310    1.1342    0.0000 C   0  0  0  0  0  0  0  0  0  0  0  0
   -2.1585   -1.3542    0.0000 C   0  0  0  0  0  0  0  0  0  0  0  0
    0.7286   -0.4881    0.0000 C   0  0  0  0  0  0  0  0  0  0  0  0
    0.0137    0.7218    0.0000 C   0  0  0  0  0  0  0  0  0  0  0  0
   -1.4436   -0.1169    0.0000 C   0  0  0  0  0  0  0  0  0  0  0  0
   -1.4023   -1.7530    0.0000 C   0  0  0  0  0  0  0  0  0  0  0  0
    1.4161   -0.0894    0.0000 C   0  0  0  0  0  0  0  0  0  0  0  0
    0.7012    1.1342    0.0000 C   0  0  0  0  0  0  0  0  0  0  0  0
   -2.1448   -0.5293    0.0000 C   0  0  0  0  0  0  0  0  0  0  0  0
    3.8358    1.0517    0.0000 C   0  0  0  0  0  0  0  0  0  0  0  0
    4.4545    0.2268    0.0000 C   0  0  3  0  0  0  0  0  0  0  0  0
    2.8734   -0.2818    0.0000 C   0  0  0  0  0  0  0  0  0  0  0  0
   -2.8322   -1.7667    0.0000 C   0  0  0  0  0  0  0  0  0  0  0  0
    0.0137   -1.7667    0.0000 C   0  0  0  0  0  0  0  0  0  0  0  0
    3.8495   -0.5980    0.0000 C   0  0  0  0  0  0  0  0  0  0  0  0
    5.4444    0.2956    0.0000 C   0  0  0  0  0  0  0  0  0  0  0  0
   -4.2482   -1.8355    0.0000 C   0  0  0  0  0  0  0  0  0  0  0  0
   -3.5333   -0.5568    0.0000 C   0  0  0  0  0  0  0  0  0  0  0  0
   -5.0457   -1.6017    0.0000 C   0  0  0  0  0  0  0  0  0  0  0  0
   -4.1245    0.0069    0.0000 C   0  0  0  0  0  0  0  0  0  0  0  0
   -4.9495   -0.1031    0.0000 C   0  0  0  0  0  0  0  0  0  0  0  0
   -6.2006   -0.8455    0.0000 C   0  0  0  0  0  0  0  0  0  0  0  0
  1 11  2  0  0  0  0
  2 26  1  0  0  0  0
  3 11  1  0  0  0  0
  3 20  1  0  0  0  0
  3 22  1  0  0  0  0
  4 23  1  0  0  0  0
  4 27  1  0  0  0  0
  4 28  1  0  0  0  0
  5 24  3  0  0  0  0
  6 29  1  0  0  0  0
  6 31  1  0  0  0  0
  6 32  1  0  0  0  0
  7  8  1  0  0  0  0
  7 10  1  0  0  0  0
  7 15  2  0  0  0  0
  8 13  2  0  0  0  0
  8 14  1  0  0  0  0
  9 11  1  0  0  0  0
  9 17  2  0  0  0  0
  9 18  1  0  0  0  0
 10 16  2  0  0  0  0
 10 24  1  0  0  0  0
 12 16  1  0  0  0  0
 12 19  2  0  0  0  0
 12 23  1  0  0  0  0
 13 17  1  0  0  0  0
 14 18  2  0  0  0  0
 15 19  1  0  0  0  0
 20 21  1  0  0  0  0
 21 25  1  0  0  0  0
 21 26  1  0  0  0  0
 22 25  1  0  0  0  0
 27 29  1  0  0  0  0
 28 30  1  0  0  0  0
 30 31  1  0  0  0  0
M  END
> <PUBCHEM_COMPOUND_ID_TYPE>
0

> <PUBCHEM_TOTAL_CHARGE>
0

> <PUBCHEM_SUBSTANCE_ID>
310943556

> <PUBCHEM_SUBSTANCE_VERSION>
1

> <PUBCHEM_EXT_DATASOURCE_NAME>
4488

> <PUBCHEM_EXT_DATASOURCE_REGID>
SCHEMBL16121623

> <PUBCHEM_SUBSTANCE_COMMENT>
InChI=1S/C26H32N4O2/c1-28-10-2-11-29(14-13-28)17-20-3-8-25(24(15-20)16-27)22-4-6-23(7-5-22)26(32)30-12-9-21(18-30)19-31/h3-8,15,21,31H,2,9-14,17-19H2,1H3
InChIKey=MAZJUZMKJQBQGQ-UHFFFAOYSA-N

> <PUBCHEM_SUBSTANCE_SYNONYM>
SCHEMBL16121623

> <PUBCHEM_XREF_EXT_ID>
SCHEMBL16121623

> <PUBCHEM_EXT_DATASOURCE_URL>
https://www.surechembl.org/

> <PUBCHEM_EXT_SUBSTANCE_URL>
https://www.surechembl.org/chemical/SCHEMBL16121623

> <PUBCHEM_CID_ASSOCIATIONS>
117609967  1

> <PUBCHEM_COORDINATE_TYPE>
1
3

> <PUBCHEM_BONDANNOTATIONS>
21  26  3

$$$$
