310943880
  -OEChem-07211613022D

 14 16  0     1  0  0  0  0  0999 V2000
    2.4040   -0.2923    0.0000 O   0  0  0  0  0  0  0  0  0  0  0  0
   -1.3784   -0.1378    0.0000 N   0  0  0  0  0  0  0  0  0  0  0  0
   -0.0441   -0.6672    0.0000 N   0  0  0  0  0  0  0  0  0  0  0  0
   -1.9629    0.4466    0.0000 N   0  0  0  0  0  0  0  0  0  0  0  0
   -2.7017    0.0827    0.0000 N   0  0  0  0  0  0  0  0  0  0  0  0
   -2.5804   -0.7334    0.0000 N   0  0  0  0  0  0  0  0  0  0  0  0
    1.8637    0.3474    0.0000 C   0  0  3  0  0  0  0  0  0  0  0  0
    1.0697    0.2371    0.0000 C   0  0  0  0  0  0  0  0  0  0  0  0
   -0.5624   -0.0165    0.0000 C   0  0  0  0  0  0  0  0  0  0  0  0
    2.7017    0.4687    0.0000 C   0  0  0  0  0  0  0  0  0  0  0  0
   -0.2536    0.7554    0.0000 C   0  0  0  0  0  0  0  0  0  0  0  0
    0.7719   -0.5459    0.0000 C   0  0  0  0  0  0  0  0  0  0  0  0
    0.5624    0.8657    0.0000 C   0  0  0  0  0  0  0  0  0  0  0  0
   -1.7534   -0.8657    0.0000 C   0  0  0  0  0  0  0  0  0  0  0  0
  7  1  1  1  0  0  0
  1 10  1  0  0  0  0
  2  4  1  0  0  0  0
  2  9  1  0  0  0  0
  2 14  1  0  0  0  0
  3  9  1  0  0  0  0
  3 12  2  0  0  0  0
  4  5  2  0  0  0  0
  5  6  1  0  0  0  0
  6 14  2  0  0  0  0
  7  8  1  0  0  0  0
  7 10  1  0  0  0  0
  8 12  1  0  0  0  0
  8 13  2  0  0  0  0
  9 11  2  0  0  0  0
 11 13  1  0  0  0  0
M  END
> <PUBCHEM_COMPOUND_ID_TYPE>
0

> <PUBCHEM_TOTAL_CHARGE>
0

> <PUBCHEM_SUBSTANCE_ID>
310943880

> <PUBCHEM_SUBSTANCE_VERSION>
1

> <PUBCHEM_EXT_DATASOURCE_NAME>
4488

> <PUBCHEM_EXT_DATASOURCE_REGID>
SCHEMBL16121951

> <PUBCHEM_SUBSTANCE_COMMENT>
InChI=1S/C8H7N5O/c1-2-8(13-5-10-11-12-13)9-3-6(1)7-4-14-7/h1-3,5,7H,4H2/t7-/m1/s1
InChIKey=CPAFRVZPLFANHK-SSDOTTSWSA-N

> <PUBCHEM_SUBSTANCE_SYNONYM>
SCHEMBL16121951

> <PUBCHEM_XREF_EXT_ID>
SCHEMBL16121951

> <PUBCHEM_EXT_DATASOURCE_URL>
https://www.surechembl.org/

> <PUBCHEM_EXT_SUBSTANCE_URL>
https://www.surechembl.org/chemical/SCHEMBL16121951

> <PUBCHEM_CID_ASSOCIATIONS>
117610206  1

> <PUBCHEM_COORDINATE_TYPE>
1
3

> <PUBCHEM_BONDANNOTATIONS>
7  1  5

$$$$
