310931703
  -OEChem-07211613022D

 19 20  0     1  0  0  0  0  0999 V2000
    3.2578    0.0000    0.0000 O   0  0  0  0  0  0  0  0  0  0  0  0
    4.3825   -1.9392    0.0000 O   0  0  0  0  0  0  0  0  0  0  0  0
    5.1000   -0.7175    0.0000 O   0  0  0  0  0  0  0  0  0  0  0  0
    0.0000   -2.3464    0.0000 O   0  0  0  0  0  0  0  0  0  0  0  0
    3.6844   -0.7175    0.0000 C   0  0  3  0  0  0  0  0  0  0  0  0
    2.8505   -0.7175    0.0000 C   0  0  3  0  0  0  0  0  0  0  0  0
    4.3825   -1.1247    0.0000 C   0  0  0  0  0  0  0  0  0  0  0  0
    2.1330   -1.1247    0.0000 C   0  0  0  0  0  0  0  0  0  0  0  0
    3.4711   -1.5125    0.0000 C   0  0  0  0  0  0  0  0  0  0  0  0
    2.1330   -1.9585    0.0000 C   0  0  0  0  0  0  0  0  0  0  0  0
    1.4155   -0.7175    0.0000 C   0  0  0  0  0  0  0  0  0  0  0  0
    1.4155   -2.3658    0.0000 C   0  0  0  0  0  0  0  0  0  0  0  0
    0.7175   -1.1247    0.0000 C   0  0  0  0  0  0  0  0  0  0  0  0
    4.0528   -2.0943    0.0000 C   0  0  0  0  0  0  0  0  0  0  0  0
    0.7175   -1.9392    0.0000 C   0  0  0  0  0  0  0  0  0  0  0  0
    5.1000   -2.3464    0.0000 C   0  0  0  0  0  0  0  0  0  0  0  0
    5.8175   -1.9392    0.0000 C   0  0  0  0  0  0  0  0  0  0  0  0
    5.1000   -3.1608    0.0000 C   0  0  0  0  0  0  0  0  0  0  0  0
    0.0000   -3.1802    0.0000 C   0  0  0  0  0  0  0  0  0  0  0  0
  1  5  1  0  0  0  0
  1  6  1  0  0  0  0
  2  7  1  0  0  0  0
  2 16  1  0  0  0  0
  3  7  2  0  0  0  0
  4 15  1  0  0  0  0
  4 19  1  0  0  0  0
  5  6  1  0  0  0  0
  5  7  1  0  0  0  0
  5  9  1  0  0  0  0
  6  8  1  0  0  0  0
  8 10  2  0  0  0  0
  8 11  1  0  0  0  0
  9 14  1  0  0  0  0
 10 12  1  0  0  0  0
 11 13  2  0  0  0  0
 12 15  2  0  0  0  0
 13 15  1  0  0  0  0
 16 17  1  0  0  0  0
 16 18  1  0  0  0  0
M  END
> <PUBCHEM_COMPOUND_ID_TYPE>
0

> <PUBCHEM_TOTAL_CHARGE>
0

> <PUBCHEM_SUBSTANCE_ID>
310931703

> <PUBCHEM_SUBSTANCE_VERSION>
1

> <PUBCHEM_EXT_DATASOURCE_NAME>
4488

> <PUBCHEM_EXT_DATASOURCE_REGID>
SCHEMBL16109030

> <PUBCHEM_SUBSTANCE_COMMENT>
InChI=1S/C15H20O4/c1-5-15(14(16)18-10(2)3)13(19-15)11-6-8-12(17-4)9-7-11/h6-10,13H,5H2,1-4H3
InChIKey=BRXYCQBNFRZPGO-UHFFFAOYSA-N

> <PUBCHEM_SUBSTANCE_SYNONYM>
SCHEMBL16109030

> <PUBCHEM_XREF_EXT_ID>
SCHEMBL16109030

> <PUBCHEM_EXT_DATASOURCE_URL>
https://www.surechembl.org/

> <PUBCHEM_EXT_SUBSTANCE_URL>
https://www.surechembl.org/chemical/SCHEMBL16109030

> <PUBCHEM_CID_ASSOCIATIONS>
117600403  1

> <PUBCHEM_COORDINATE_TYPE>
1
3

$$$$
