310946591
  -OEChem-07211613022D

 20 19  0     1  0  0  0  0  0999 V2000
   -8.7605    9.6815    0.0000 O   0  0  0  0  0  0  0  0  0  0  0  0
   -7.0000    5.5861    0.0000 O   0  0  0  0  0  0  0  0  0  0  0  0
  -10.1894    9.6815    0.0000 O   0  0  0  0  0  0  0  0  0  0  0  0
   -7.0000    4.1571    0.0000 O   0  0  0  0  0  0  0  0  0  0  0  0
   -9.4750    8.4440    0.0000 N   0  0  0  0  0  0  0  0  0  0  0  0
   -5.7625    6.3006    0.0000 N   0  0  0  0  0  0  0  0  0  0  0  0
   -9.4750    9.2690    0.0000 C   0  0  0  0  0  0  0  0  0  0  0  0
   -6.5875    6.3006    0.0000 C   0  0  3  0  0  0  0  0  0  0  0  0
   -7.0000    7.0150    0.0000 C   0  0  0  0  0  0  0  0  0  0  0  0
   -9.0625    7.7295    0.0000 C   0  0  0  0  0  0  0  0  0  0  0  0
   -7.8250    7.0150    0.0000 C   0  0  0  0  0  0  0  0  0  0  0  0
   -8.2375    7.7295    0.0000 C   0  0  0  0  0  0  0  0  0  0  0  0
   -8.0460    9.2690    0.0000 C   0  0  0  0  0  0  0  0  0  0  0  0
   -7.3316    9.6815    0.0000 C   0  0  0  0  0  0  0  0  0  0  0  0
   -6.5875    4.8716    0.0000 C   0  0  0  0  0  0  0  0  0  0  0  0
   -6.6171    9.2690    0.0000 C   0  0  0  0  0  0  0  0  0  0  0  0
   -5.9026    9.6815    0.0000 C   0  0  0  0  0  0  0  0  0  0  0  0
   -5.1882    9.2690    0.0000 C   0  0  0  0  0  0  0  0  0  0  0  0
   -4.4737    9.6815    0.0000 C   0  0  0  0  0  0  0  0  0  0  0  0
   -3.7592    9.2690    0.0000 C   0  0  0  0  0  0  0  0  0  0  0  0
  1  7  1  0  0  0  0
  1 13  1  0  0  0  0
  2  8  1  0  0  0  0
  2 15  1  0  0  0  0
  3  7  2  0  0  0  0
  4 15  2  0  0  0  0
  5  7  1  0  0  0  0
  5 10  1  0  0  0  0
  6  8  1  0  0  0  0
  8  9  1  0  0  0  0
  9 11  1  0  0  0  0
 10 12  1  0  0  0  0
 11 12  1  0  0  0  0
 13 14  1  0  0  0  0
 14 16  1  0  0  0  0
 16 17  1  0  0  0  0
 17 18  1  0  0  0  0
 18 19  1  0  0  0  0
 19 20  1  0  0  0  0
M  END
> <PUBCHEM_COMPOUND_ID_TYPE>
0

> <PUBCHEM_TOTAL_CHARGE>
0

> <PUBCHEM_SUBSTANCE_ID>
310946591

> <PUBCHEM_SUBSTANCE_VERSION>
1

> <PUBCHEM_EXT_DATASOURCE_NAME>
4488

> <PUBCHEM_EXT_DATASOURCE_REGID>
SCHEMBL16124712

> <PUBCHEM_SUBSTANCE_COMMENT>
InChI=1S/C14H28N2O4/c1-2-3-4-5-8-11-19-14(18)16-10-7-6-9-13(15)20-12-17/h12-13H,2-11,15H2,1H3,(H,16,18)
InChIKey=OECIVARBCNEUQN-UHFFFAOYSA-N

> <PUBCHEM_SUBSTANCE_SYNONYM>
SCHEMBL16124712

> <PUBCHEM_XREF_EXT_ID>
SCHEMBL16124712

> <PUBCHEM_EXT_DATASOURCE_URL>
https://www.surechembl.org/

> <PUBCHEM_EXT_SUBSTANCE_URL>
https://www.surechembl.org/chemical/SCHEMBL16124712

> <PUBCHEM_CID_ASSOCIATIONS>
117612491  1

> <PUBCHEM_COORDINATE_TYPE>
1
3

$$$$
