310936282
  -OEChem-07211613022D

 25 28  0     1  0  0  0  0  0999 V2000
    5.0313   -0.8219    0.0000 O   0  0  0  0  0  0  0  0  0  0  0  0
    5.0313   -2.4907    0.0000 O   0  0  0  0  0  0  0  0  0  0  0  0
    2.1420    0.0000    0.0000 O   0  0  0  0  0  0  0  0  0  0  0  0
    0.0000   -0.4234    0.0000 N   0  0  0  0  0  0  0  0  0  0  0  0
    2.8643   -1.2454    0.0000 C   0  0  0  0  0  0  0  0  0  0  0  0
    2.1420   -0.8219    0.0000 C   0  0  3  0  0  0  0  0  0  0  0  0
    1.4446   -1.2454    0.0000 C   0  0  3  0  0  0  0  0  0  0  0  0
    1.4446   -2.0673    0.0000 C   0  0  0  0  0  0  0  0  0  0  0  0
    4.2840   -1.2454    0.0000 C   0  0  0  0  0  0  0  0  0  0  0  0
    4.2840   -2.0673    0.0000 C   0  0  0  0  0  0  0  0  0  0  0  0
    3.5866   -0.8219    0.0000 C   0  0  0  0  0  0  0  0  0  0  0  0
    0.7223   -3.3127    0.0000 C   0  0  0  0  0  0  0  0  0  0  0  0
    2.8643   -2.0673    0.0000 C   0  0  0  0  0  0  0  0  0  0  0  0
    0.7223   -2.4907    0.0000 C   0  0  0  0  0  0  0  0  0  0  0  0
    1.4446   -3.7112    0.0000 C   0  0  0  0  0  0  0  0  0  0  0  0
    3.5866   -2.4907    0.0000 C   0  0  0  0  0  0  0  0  0  0  0  0
    2.1670   -2.4907    0.0000 C   0  0  0  0  0  0  0  0  0  0  0  0
    2.1670   -3.3127    0.0000 C   0  0  0  0  0  0  0  0  0  0  0  0
    0.7223   -0.8219    0.0000 C   0  0  0  0  0  0  0  0  0  0  0  0
    0.0000   -3.7361    0.0000 C   0  0  0  0  0  0  0  0  0  0  0  0
    1.4446   -4.5580    0.0000 C   0  0  0  0  0  0  0  0  0  0  0  0
    5.7536   -1.2454    0.0000 C   0  0  0  0  0  0  0  0  0  0  0  0
    5.7536   -2.0673    0.0000 C   0  0  0  0  0  0  0  0  0  0  0  0
    0.0000   -4.5580    0.0000 C   0  0  0  0  0  0  0  0  0  0  0  0
    0.7223   -4.9815    0.0000 C   0  0  0  0  0  0  0  0  0  0  0  0
  1  9  1  0  0  0  0
  1 22  1  0  0  0  0
  2 10  1  0  0  0  0
  2 23  1  0  0  0  0
  3  6  1  0  0  0  0
  4 19  3  0  0  0  0
  5  6  1  0  0  0  0
  5 11  2  0  0  0  0
  5 13  1  0  0  0  0
  6  7  1  0  0  0  0
  7  8  1  0  0  0  0
  7 19  1  0  0  0  0
  8 14  2  0  0  0  0
  8 17  1  0  0  0  0
  9 10  2  0  0  0  0
  9 11  1  0  0  0  0
 10 16  1  0  0  0  0
 12 14  1  0  0  0  0
 12 15  2  0  0  0  0
 12 20  1  0  0  0  0
 13 16  2  0  0  0  0
 15 18  1  0  0  0  0
 15 21  1  0  0  0  0
 17 18  2  0  0  0  0
 20 24  2  0  0  0  0
 21 25  2  0  0  0  0
 22 23  1  0  0  0  0
 24 25  1  0  0  0  0
M  END
> <PUBCHEM_COMPOUND_ID_TYPE>
0

> <PUBCHEM_TOTAL_CHARGE>
0

> <PUBCHEM_SUBSTANCE_ID>
310936282

> <PUBCHEM_SUBSTANCE_VERSION>
1

> <PUBCHEM_EXT_DATASOURCE_NAME>
4488

> <PUBCHEM_EXT_DATASOURCE_REGID>
SCHEMBL16113903

> <PUBCHEM_SUBSTANCE_COMMENT>
InChI=1S/C21H17NO3/c22-13-18(16-6-5-14-3-1-2-4-15(14)11-16)21(23)17-7-8-19-20(12-17)25-10-9-24-19/h1-8,11-12,18,21,23H,9-10H2
InChIKey=ZXMNGMKZWJJGES-UHFFFAOYSA-N

> <PUBCHEM_SUBSTANCE_SYNONYM>
SCHEMBL16113903

> <PUBCHEM_XREF_EXT_ID>
SCHEMBL16113903

> <PUBCHEM_EXT_DATASOURCE_URL>
https://www.surechembl.org/

> <PUBCHEM_EXT_SUBSTANCE_URL>
https://www.surechembl.org/chemical/SCHEMBL16113903

> <PUBCHEM_CID_ASSOCIATIONS>
117604225  1

> <PUBCHEM_COORDINATE_TYPE>
1
3

$$$$
