310937052
  -OEChem-07211613022D

 27 28  0     1  0  0  0  0  0999 V2000
   -4.2868    0.4125    0.0000 Cl  0  0  0  0  0  0  0  0  0  0  0  0
   -5.7158    1.2375    0.0000 Cl  0  0  0  0  0  0  0  0  0  0  0  0
   -9.2881   -2.4750    0.0000 S   0  0  0  0  0  0  0  0  0  0  0  0
   -6.4302   -3.3000    0.0000 O   0  0  0  0  0  0  0  0  0  0  0  0
   -3.5724   -3.3000    0.0000 O   0  0  0  0  0  0  0  0  0  0  0  0
   -2.8579   -2.0625    0.0000 O   0  0  0  0  0  0  0  0  0  0  0  0
   -4.2868   -2.0625    0.0000 N   0  3  3  0  0  0  0  0  0  0  0  0
   -5.7158   -2.0625    0.0000 C   0  0  3  0  0  0  0  0  0  0  0  0
   -5.7158   -1.2375    0.0000 C   0  0  0  0  0  0  0  0  0  0  0  0
   -6.4302   -2.4750    0.0000 C   0  0  3  0  0  0  0  0  0  0  0  0
   -5.0013   -2.4750    0.0000 C   0  0  0  0  0  0  0  0  0  0  0  0
   -7.1447   -2.0625    0.0000 C   0  0  0  0  0  0  0  0  0  0  0  0
   -5.0013   -0.8250    0.0000 C   0  0  0  0  0  0  0  0  0  0  0  0
   -3.5724   -2.4750    0.0000 C   0  0  0  0  0  0  0  0  0  0  0  0
   -6.4302   -0.8250    0.0000 C   0  0  0  0  0  0  0  0  0  0  0  0
   -5.0013    0.0000    0.0000 C   0  0  0  0  0  0  0  0  0  0  0  0
   -5.7158    0.4125    0.0000 C   0  0  0  0  0  0  0  0  0  0  0  0
   -7.8592   -2.4750    0.0000 C   0  0  0  0  0  0  0  0  0  0  0  0
   -4.2868   -1.2375    0.0000 C   0  0  0  0  0  0  0  0  0  0  0  0
   -6.4302    0.0000    0.0000 C   0  0  0  0  0  0  0  0  0  0  0  0
   -7.1447   -1.2375    0.0000 C   0  0  0  0  0  0  0  0  0  0  0  0
   -8.5736   -2.0625    0.0000 C   0  0  0  0  0  0  0  0  0  0  0  0
   -4.2868   -2.8875    0.0000 C   0  0  0  0  0  0  0  0  0  0  0  0
   -7.8592   -0.8250    0.0000 C   0  0  0  0  0  0  0  0  0  0  0  0
   -8.5736   -1.2375    0.0000 C   0  0  0  0  0  0  0  0  0  0  0  0
   -3.5724   -0.8250    0.0000 C   0  0  0  0  0  0  0  0  0  0  0  0
  -10.0026   -2.0625    0.0000 C   0  0  0  0  0  0  0  0  0  0  0  0
  1 16  1  0  0  0  0
  2 17  1  0  0  0  0
  3 22  1  0  0  0  0
  3 27  1  0  0  0  0
  4 10  1  0  0  0  0
  5 14  2  0  0  0  0
  6 14  1  0  0  0  0
  7 11  1  0  0  0  0
  7 14  1  0  0  0  0
  7 19  1  0  0  0  0
  7 23  1  0  0  0  0
  8  9  1  0  0  0  0
  8 10  1  0  0  0  0
  8 11  1  0  0  0  0
  9 13  1  0  0  0  0
  9 15  2  0  0  0  0
 10 12  1  0  0  0  0
 12 18  1  0  0  0  0
 12 21  2  0  0  0  0
 13 16  2  0  0  0  0
 15 20  1  0  0  0  0
 16 17  1  0  0  0  0
 17 20  2  0  0  0  0
 18 22  2  0  0  0  0
 19 26  1  0  0  0  0
 21 24  1  0  0  0  0
 22 25  1  0  0  0  0
 24 25  2  0  0  0  0
M  CHG  1   7   1
M  END
> <PUBCHEM_COMPOUND_ID_TYPE>
0

> <PUBCHEM_TOTAL_CHARGE>
1

> <PUBCHEM_SUBSTANCE_ID>
310937052

> <PUBCHEM_SUBSTANCE_VERSION>
1

> <PUBCHEM_EXT_DATASOURCE_NAME>
4488

> <PUBCHEM_EXT_DATASOURCE_REGID>
SCHEMBL16114762

> <PUBCHEM_SUBSTANCE_COMMENT>
InChI=1S/C20H23Cl2NO3S/c1-4-23(2,20(25)26)12-16(13-8-9-17(21)18(22)11-13)19(24)14-6-5-7-15(10-14)27-3/h5-11,16,19,24H,4,12H2,1-3H3/p+1
InChIKey=JRJLDGYXPYUSFQ-UHFFFAOYSA-O

> <PUBCHEM_SUBSTANCE_SYNONYM>
SCHEMBL16114762

> <PUBCHEM_XREF_EXT_ID>
SCHEMBL16114762

> <PUBCHEM_EXT_DATASOURCE_URL>
https://www.surechembl.org/

> <PUBCHEM_EXT_SUBSTANCE_URL>
https://www.surechembl.org/chemical/SCHEMBL16114762

> <PUBCHEM_CID_ASSOCIATIONS>
117604898  1

> <PUBCHEM_COORDINATE_TYPE>
1
3

$$$$
