310947742
  -OEChem-07211613022D

 18 19  0     1  0  0  0  0  0999 V2000
   -0.9259    2.0652    0.0000 Cl  0  0  0  0  0  0  0  0  0  0  0  0
   -2.0050   -1.3977    0.0000 N   0  0  0  0  0  0  0  0  0  0  0  0
   -1.5201   -2.0652    0.0000 N   0  0  0  0  0  0  0  0  0  0  0  0
    0.6935   -0.9852    0.0000 N   0  0  3  0  0  0  0  0  0  0  0  0
   -2.8369    1.0105    0.0000 N   0  0  0  0  0  0  0  0  0  0  0  0
    2.8369   -0.5727    0.0000 N   0  0  0  0  0  0  0  0  0  0  0  0
   -1.5201   -0.7303    0.0000 C   0  0  0  0  0  0  0  0  0  0  0  0
   -0.7354   -0.9852    0.0000 C   0  0  0  0  0  0  0  0  0  0  0  0
   -1.7750    0.0543    0.0000 C   0  0  0  0  0  0  0  0  0  0  0  0
   -0.7354   -1.8102    0.0000 C   0  0  0  0  0  0  0  0  0  0  0  0
   -1.2230    0.6674    0.0000 C   0  0  0  0  0  0  0  0  0  0  0  0
   -0.0210   -0.5727    0.0000 C   0  0  0  0  0  0  0  0  0  0  0  0
   -2.5820    0.2259    0.0000 C   0  0  0  0  0  0  0  0  0  0  0  0
   -1.4779    1.4521    0.0000 C   0  0  0  0  0  0  0  0  0  0  0  0
   -2.2849    1.6236    0.0000 C   0  0  0  0  0  0  0  0  0  0  0  0
    1.4080   -0.5727    0.0000 C   0  0  0  0  0  0  0  0  0  0  0  0
    0.6935   -1.8102    0.0000 C   0  0  0  0  0  0  0  0  0  0  0  0
    2.1224   -0.9852    0.0000 C   0  0  0  0  0  0  0  0  0  0  0  0
  1 14  1  0  0  0  0
  2  3  1  0  0  0  0
  2  7  2  0  0  0  0
  3 10  1  0  0  0  0
  4 12  1  0  0  0  0
  4 16  1  0  0  0  0
  4 17  1  0  0  0  0
  5 13  2  0  0  0  0
  5 15  1  0  0  0  0
  6 18  1  0  0  0  0
  7  8  1  0  0  0  0
  7  9  1  0  0  0  0
  8 10  2  0  0  0  0
  8 12  1  0  0  0  0
  9 11  2  0  0  0  0
  9 13  1  0  0  0  0
 11 14  1  0  0  0  0
 14 15  2  0  0  0  0
 16 18  1  0  0  0  0
M  END
> <PUBCHEM_COMPOUND_ID_TYPE>
0

> <PUBCHEM_TOTAL_CHARGE>
0

> <PUBCHEM_SUBSTANCE_ID>
310947742

> <PUBCHEM_SUBSTANCE_VERSION>
1

> <PUBCHEM_EXT_DATASOURCE_NAME>
4488

> <PUBCHEM_EXT_DATASOURCE_REGID>
SCHEMBL16125914

> <PUBCHEM_SUBSTANCE_COMMENT>
InChI=1S/C12H16ClN5/c1-18(3-2-14)8-10-6-16-17-12(10)9-4-11(13)7-15-5-9/h4-7H,2-3,8,14H2,1H3,(H,16,17)
InChIKey=ZICRHEQOYCWMID-UHFFFAOYSA-N

> <PUBCHEM_SUBSTANCE_SYNONYM>
SCHEMBL16125914

> <PUBCHEM_XREF_EXT_ID>
SCHEMBL16125914

> <PUBCHEM_EXT_DATASOURCE_URL>
https://www.surechembl.org/

> <PUBCHEM_EXT_SUBSTANCE_URL>
https://www.surechembl.org/chemical/SCHEMBL16125914

> <PUBCHEM_CID_ASSOCIATIONS>
86301692  1

> <PUBCHEM_COORDINATE_TYPE>
1
3

$$$$
