310933225
  -OEChem-07211613022D

 24 27  0     1  0  0  0  0  0999 V2000
    3.5453   -1.6159    0.0000 O   0  0  0  0  0  0  0  0  0  0  0  0
    4.6789   -3.5936    0.0000 O   0  0  0  0  0  0  0  0  0  0  0  0
    5.3784   -2.3394    0.0000 O   0  0  0  0  0  0  0  0  0  0  0  0
    0.7959    0.0000    0.0000 O   0  0  0  0  0  0  0  0  0  0  0  0
    3.1354   -2.3394    0.0000 C   0  0  3  0  0  0  0  0  0  0  0  0
    3.9554   -2.3394    0.0000 C   0  0  3  0  0  0  0  0  0  0  0  0
    2.5565   -1.7606    0.0000 C   0  0  0  0  0  0  0  0  0  0  0  0
    2.4118   -2.7495    0.0000 C   0  0  0  0  0  0  0  0  0  0  0  0
    4.6789   -2.7495    0.0000 C   0  0  0  0  0  0  0  0  0  0  0  0
    1.7365   -1.9777    0.0000 C   0  0  0  0  0  0  0  0  0  0  0  0
    2.7495   -0.9647    0.0000 C   0  0  0  0  0  0  0  0  0  0  0  0
    2.4118   -3.5936    0.0000 C   0  0  0  0  0  0  0  0  0  0  0  0
    1.6883   -2.3636    0.0000 C   0  0  0  0  0  0  0  0  0  0  0  0
    1.1577   -1.3988    0.0000 C   0  0  0  0  0  0  0  0  0  0  0  0
    2.1706   -0.3859    0.0000 C   0  0  0  0  0  0  0  0  0  0  0  0
    1.3747   -0.6030    0.0000 C   0  0  0  0  0  0  0  0  0  0  0  0
    5.3784   -4.0036    0.0000 C   0  0  0  0  0  0  0  0  0  0  0  0
    1.6883   -4.0036    0.0000 C   0  0  0  0  0  0  0  0  0  0  0  0
    0.9889   -2.7495    0.0000 C   0  0  0  0  0  0  0  0  0  0  0  0
    0.9647   -3.5936    0.0000 C   0  0  0  0  0  0  0  0  0  0  0  0
    6.1742   -3.7865    0.0000 C   0  0  0  0  0  0  0  0  0  0  0  0
    5.5954   -4.8236    0.0000 C   0  0  0  0  0  0  0  0  0  0  0  0
    6.3913   -4.6066    0.0000 C   0  0  0  0  0  0  0  0  0  0  0  0
    0.0000   -0.2171    0.0000 C   0  0  0  0  0  0  0  0  0  0  0  0
  1  5  1  0  0  0  0
  1  6  1  0  0  0  0
  2  9  1  0  0  0  0
  2 17  1  0  0  0  0
  3  9  2  0  0  0  0
  4 16  1  0  0  0  0
  4 24  1  0  0  0  0
  5  6  1  0  0  0  0
  5  7  1  0  0  0  0
  5  8  1  0  0  0  0
  6  9  1  0  0  0  0
  7 10  2  0  0  0  0
  7 11  1  0  0  0  0
  8 12  2  0  0  0  0
  8 13  1  0  0  0  0
 10 14  1  0  0  0  0
 11 15  2  0  0  0  0
 12 18  1  0  0  0  0
 13 19  2  0  0  0  0
 14 16  2  0  0  0  0
 15 16  1  0  0  0  0
 17 21  1  0  0  0  0
 17 22  1  0  0  0  0
 18 20  2  0  0  0  0
 19 20  1  0  0  0  0
 21 23  1  0  0  0  0
 22 23  1  0  0  0  0
M  END
> <PUBCHEM_COMPOUND_ID_TYPE>
0

> <PUBCHEM_TOTAL_CHARGE>
0

> <PUBCHEM_SUBSTANCE_ID>
310933225

> <PUBCHEM_SUBSTANCE_VERSION>
1

> <PUBCHEM_EXT_DATASOURCE_NAME>
4488

> <PUBCHEM_EXT_DATASOURCE_REGID>
SCHEMBL16110634

> <PUBCHEM_SUBSTANCE_COMMENT>
InChI=1S/C20H20O4/c1-22-16-12-10-15(11-13-16)20(14-6-3-2-4-7-14)18(24-20)19(21)23-17-8-5-9-17/h2-4,6-7,10-13,17-18H,5,8-9H2,1H3
InChIKey=SEAQUGIKRLZHRX-UHFFFAOYSA-N

> <PUBCHEM_SUBSTANCE_SYNONYM>
SCHEMBL16110634

> <PUBCHEM_XREF_EXT_ID>
SCHEMBL16110634

> <PUBCHEM_EXT_DATASOURCE_URL>
https://www.surechembl.org/

> <PUBCHEM_EXT_SUBSTANCE_URL>
https://www.surechembl.org/chemical/SCHEMBL16110634

> <PUBCHEM_CID_ASSOCIATIONS>
117601659  1

> <PUBCHEM_COORDINATE_TYPE>
1
3

$$$$
