310939683
  -OEChem-07211613022D

 39 42  0     1  0  0  0  0  0999 V2000
   -0.0213    7.4046    0.0000 Cl  0  0  0  0  0  0  0  0  0  0  0  0
    3.5510    1.2171    0.0000 O   0  0  0  0  0  0  0  0  0  0  0  0
    2.1221    0.3921    0.0000 O   0  0  0  0  0  0  0  0  0  0  0  0
   -1.4503    4.9296    0.0000 O   0  0  0  0  0  0  0  0  0  0  0  0
    2.8366    7.4046    0.0000 O   0  0  0  0  0  0  0  0  0  0  0  0
   -2.8792    4.1046    0.0000 O   0  0  0  0  0  0  0  0  0  0  0  0
    1.4076    4.1046    0.0000 N   0  0  0  0  0  0  0  0  0  0  0  0
    2.1221    5.3421    0.0000 N   0  0  0  0  0  0  0  0  0  0  0  0
    3.5510    5.3421    0.0000 N   0  0  0  0  0  0  0  0  0  0  0  0
   -4.3082    4.9296    0.0000 N   0  0  0  0  0  0  0  0  0  0  0  0
    2.1221    3.6921    0.0000 C   0  0  0  0  0  0  0  0  0  0  0  0
    1.4076    4.9296    0.0000 C   0  0  0  0  0  0  0  0  0  0  0  0
    2.1221    2.8671    0.0000 C   0  0  0  0  0  0  0  0  0  0  0  0
    2.8366    4.9296    0.0000 C   0  0  0  0  0  0  0  0  0  0  0  0
    0.6931    5.3421    0.0000 C   0  0  0  0  0  0  0  0  0  0  0  0
    2.8366    4.1046    0.0000 C   0  0  0  0  0  0  0  0  0  0  0  0
    2.8366    1.6296    0.0000 C   0  0  0  0  0  0  0  0  0  0  0  0
    2.8366    2.4546    0.0000 C   0  0  0  0  0  0  0  0  0  0  0  0
    2.1221    1.2171    0.0000 C   0  0  0  0  0  0  0  0  0  0  0  0
    1.4076    2.4546    0.0000 C   0  0  0  0  0  0  0  0  0  0  0  0
   -0.0213    4.9296    0.0000 C   0  0  0  0  0  0  0  0  0  0  0  0
    0.6931    6.1671    0.0000 C   0  0  0  0  0  0  0  0  0  0  0  0
   -0.7358    5.3421    0.0000 C   0  0  0  0  0  0  0  0  0  0  0  0
    1.4076    1.6296    0.0000 C   0  0  0  0  0  0  0  0  0  0  0  0
   -0.0213    6.5796    0.0000 C   0  0  0  0  0  0  0  0  0  0  0  0
   -0.7358    6.1671    0.0000 C   0  0  0  0  0  0  0  0  0  0  0  0
    3.5510    6.1671    0.0000 C   0  0  0  0  0  0  0  0  0  0  0  0
    4.2655    4.9296    0.0000 C   0  0  0  0  0  0  0  0  0  0  0  0
    3.5510    0.3921    0.0000 C   0  0  0  0  0  0  0  0  0  0  0  0
    2.8366   -0.0204    0.0000 C   0  0  0  0  0  0  0  0  0  0  0  0
    2.8366    6.5796    0.0000 C   0  0  0  0  0  0  0  0  0  0  0  0
    4.2655    4.1046    0.0000 C   0  0  0  0  0  0  0  0  0  0  0  0
   -2.1647    5.3421    0.0000 C   0  0  0  0  0  0  0  0  0  0  0  0
   -2.8792    4.9296    0.0000 C   0  0  3  0  0  0  0  0  0  0  0  0
    4.9800    3.6921    0.0000 C   0  0  0  0  0  0  0  0  0  0  0  0
   -3.5937    5.3421    0.0000 C   0  0  0  0  0  0  0  0  0  0  0  0
    2.1221    7.8171    0.0000 C   0  0  0  0  0  0  0  0  0  0  0  0
    4.9800    2.8671    0.0000 C   0  0  0  0  0  0  0  0  0  0  0  0
   -5.0226    5.3421    0.0000 C   0  0  0  0  0  0  0  0  0  0  0  0
  1 25  1  0  0  0  0
  2 17  1  0  0  0  0
  2 29  1  0  0  0  0
  3 19  1  0  0  0  0
  3 30  1  0  0  0  0
  4 23  1  0  0  0  0
  4 33  1  0  0  0  0
  5 31  1  0  0  0  0
  5 37  1  0  0  0  0
  6 34  1  0  0  0  0
  7 11  1  0  0  0  0
  7 12  2  0  0  0  0
  8 12  1  0  0  0  0
  8 14  2  0  0  0  0
  9 14  1  0  0  0  0
  9 27  1  0  0  0  0
  9 28  1  0  0  0  0
 10 36  1  0  0  0  0
 10 39  1  0  0  0  0
 11 13  1  0  0  0  0
 11 16  2  0  0  0  0
 12 15  1  0  0  0  0
 13 18  1  0  0  0  0
 13 20  2  0  0  0  0
 14 16  1  0  0  0  0
 15 21  2  0  0  0  0
 15 22  1  0  0  0  0
 17 18  2  0  0  0  0
 17 19  1  0  0  0  0
 19 24  2  0  0  0  0
 20 24  1  0  0  0  0
 21 23  1  0  0  0  0
 22 25  2  0  0  0  0
 23 26  2  0  0  0  0
 25 26  1  0  0  0  0
 27 31  1  0  0  0  0
 28 32  1  0  0  0  0
 29 30  1  0  0  0  0
 32 35  1  0  0  0  0
 33 34  1  0  0  0  0
 34 36  1  0  0  0  0
 35 38  1  0  0  0  0
M  END
> <PUBCHEM_COMPOUND_ID_TYPE>
0

> <PUBCHEM_TOTAL_CHARGE>
0

> <PUBCHEM_SUBSTANCE_ID>
310939683

> <PUBCHEM_SUBSTANCE_VERSION>
1

> <PUBCHEM_EXT_DATASOURCE_NAME>
4488

> <PUBCHEM_EXT_DATASOURCE_REGID>
SCHEMBL16117613

> <PUBCHEM_SUBSTANCE_COMMENT>
InChI=1S/C29H37ClN4O5/c1-4-5-8-34(9-10-36-3)28-17-25(20-6-7-26-27(15-20)38-12-11-37-26)32-29(33-28)21-13-22(30)16-24(14-21)39-19-23(35)18-31-2/h6-7,13-17,23,31,35H,4-5,8-12,18-19H2,1-3H3
InChIKey=CHDGCWYDMBKHSR-UHFFFAOYSA-N

> <PUBCHEM_SUBSTANCE_SYNONYM>
SCHEMBL16117613

> <PUBCHEM_XREF_EXT_ID>
SCHEMBL16117613

> <PUBCHEM_EXT_DATASOURCE_URL>
https://www.surechembl.org/

> <PUBCHEM_EXT_SUBSTANCE_URL>
https://www.surechembl.org/chemical/SCHEMBL16117613

> <PUBCHEM_CID_ASSOCIATIONS>
117606916  1

> <PUBCHEM_COORDINATE_TYPE>
1
3

$$$$
