310939859
  -OEChem-07211613022D

 26 28  0     1  0  0  0  0  0999 V2000
   -4.5695   -0.7145    0.0000 I   0  0  0  0  0  0  0  0  0  0  0  0
   -3.7445   -2.1434    0.0000 Cl  0  0  0  0  0  0  0  0  0  0  0  0
   -1.2695    2.1434    0.0000 O   0  0  0  0  0  0  0  0  0  0  0  0
   -1.2695   -0.7145    0.0000 O   0  0  0  0  0  0  0  0  0  0  0  0
    3.7445    2.1434    0.0000 O   0  0  0  0  0  0  0  0  0  0  0  0
   -0.0320    1.4289    0.0000 N   0  0  0  0  0  0  0  0  0  0  0  0
    2.5070    1.4289    0.0000 N   0  0  0  0  0  0  0  0  0  0  0  0
   -2.0945    0.7145    0.0000 N   0  0  0  0  0  0  0  0  0  0  0  0
    1.2375    1.0164    0.0000 C   0  0  3  0  0  0  0  0  0  0  0  0
    1.2375    1.8414    0.0000 C   0  0  3  0  0  0  0  0  0  0  0  0
    0.4529    0.7615    0.0000 C   0  0  0  0  0  0  0  0  0  0  0  0
    0.4529    2.0964    0.0000 C   0  0  0  0  0  0  0  0  0  0  0  0
    2.0221    0.7615    0.0000 C   0  0  0  0  0  0  0  0  0  0  0  0
    2.0221    2.0964    0.0000 C   0  0  0  0  0  0  0  0  0  0  0  0
   -0.8570    1.4289    0.0000 C   0  0  0  0  0  0  0  0  0  0  0  0
   -2.5070    0.0000    0.0000 C   0  0  0  0  0  0  0  0  0  0  0  0
    3.3320    1.4289    0.0000 C   0  0  0  0  0  0  0  0  0  0  0  0
   -2.0945   -0.7145    0.0000 C   0  0  0  0  0  0  0  0  0  0  0  0
   -1.2695    0.7145    0.0000 C   0  0  0  0  0  0  0  0  0  0  0  0
   -3.7445   -0.7145    0.0000 C   0  0  0  0  0  0  0  0  0  0  0  0
   -3.3320   -1.4289    0.0000 C   0  0  0  0  0  0  0  0  0  0  0  0
   -3.3320    0.0000    0.0000 C   0  0  0  0  0  0  0  0  0  0  0  0
   -2.5070   -1.4289    0.0000 C   0  0  0  0  0  0  0  0  0  0  0  0
    3.7445    0.7145    0.0000 C   0  0  0  0  0  0  0  0  0  0  0  0
   -0.8570   -1.4289    0.0000 C   0  0  0  0  0  0  0  0  0  0  0  0
    4.5695    0.7145    0.0000 C   0  0  0  0  0  0  0  0  0  0  0  0
  1 20  1  0  0  0  0
  2 21  1  0  0  0  0
  3 15  2  0  0  0  0
  4 18  1  0  0  0  0
  4 25  1  0  0  0  0
  5 17  2  0  0  0  0
  6 11  1  0  0  0  0
  6 12  1  0  0  0  0
  6 15  1  0  0  0  0
  7 13  1  0  0  0  0
  7 14  1  0  0  0  0
  7 17  1  0  0  0  0
  8 16  1  0  0  0  0
  8 19  1  0  0  0  0
  9 10  1  0  0  0  0
  9 11  1  0  0  0  0
  9 13  1  0  0  0  0
 10 12  1  0  0  0  0
 10 14  1  0  0  0  0
 15 19  1  0  0  0  0
 16 18  2  0  0  0  0
 16 22  1  0  0  0  0
 17 24  1  0  0  0  0
 18 23  1  0  0  0  0
 20 21  1  0  0  0  0
 20 22  2  0  0  0  0
 21 23  2  0  0  0  0
 24 26  2  0  0  0  0
M  END
> <PUBCHEM_COMPOUND_ID_TYPE>
0

> <PUBCHEM_TOTAL_CHARGE>
0

> <PUBCHEM_SUBSTANCE_ID>
310939859

> <PUBCHEM_SUBSTANCE_VERSION>
1

> <PUBCHEM_EXT_DATASOURCE_NAME>
4488

> <PUBCHEM_EXT_DATASOURCE_REGID>
SCHEMBL16117789

> <PUBCHEM_SUBSTANCE_COMMENT>
InChI=1S/C18H21ClIN3O3/c1-3-17(24)22-7-11-9-23(10-12(11)8-22)18(25)6-21-15-5-14(20)13(19)4-16(15)26-2/h3-5,11-12,21H,1,6-10H2,2H3
InChIKey=HAGWOPGYOWYXPV-UHFFFAOYSA-N

> <PUBCHEM_SUBSTANCE_SYNONYM>
SCHEMBL16117789

> <PUBCHEM_XREF_EXT_ID>
SCHEMBL16117789

> <PUBCHEM_EXT_DATASOURCE_URL>
https://www.surechembl.org/

> <PUBCHEM_EXT_SUBSTANCE_URL>
https://www.surechembl.org/chemical/SCHEMBL16117789

> <PUBCHEM_CID_ASSOCIATIONS>
117607074  1

> <PUBCHEM_COORDINATE_TYPE>
1
3

$$$$
