310933801
  -OEChem-07211613022D

 47 53  0     1  0  0  0  0  0999 V2000
    7.9701   -0.6131    0.0000 Cl  0  0  0  0  0  0  0  0  0  0  0  0
    7.2628   -2.1222    0.0000 F   0  0  0  0  0  0  0  0  0  0  0  0
    3.2541   -3.2541    0.0000 O   0  0  0  0  0  0  0  0  0  0  0  0
    5.4235   -3.6785    0.0000 O   0  0  0  0  0  0  0  0  0  0  0  0
    0.0000   -9.1963    0.0000 O   0  0  0  0  0  0  0  0  0  0  0  0
    9.0548   -2.4523    0.0000 O   0  0  0  0  0  0  0  0  0  0  0  0
    9.7622   -3.6785    0.0000 O   0  0  0  0  0  0  0  0  0  0  0  0
    4.0086   -4.5274    0.0000 N   0  0  0  0  0  0  0  0  0  0  0  0
    3.2541   -7.4042    0.0000 N   0  0  0  0  0  0  0  0  0  0  0  0
    5.6121   -2.2637    0.0000 N   0  0  0  0  0  0  0  0  0  0  0  0
    5.6121   -3.7729    0.0000 N   0  0  0  0  0  0  0  0  0  0  0  0
    6.1309   -4.9518    0.0000 N   0  0  0  0  0  0  0  0  0  0  0  0
    6.0366   -2.9711    0.0000 N   0  0  0  0  0  0  0  0  0  0  0  0
    1.7921   -8.2060    0.0000 N   0  0  0  0  0  0  0  0  0  0  0  0
    4.7161   -4.9518    0.0000 C   0  0  3  0  0  0  0  0  0  0  0  0
    4.7161   -5.7536    0.0000 C   0  0  0  0  0  0  0  0  0  0  0  0
    4.0086   -6.1780    0.0000 C   0  0  0  0  0  0  0  0  0  0  0  0
    3.9615   -6.9798    0.0000 C   0  0  0  0  0  0  0  0  0  0  0  0
    4.0086   -3.6785    0.0000 C   0  0  0  0  0  0  0  0  0  0  0  0
    5.4235   -4.5274    0.0000 C   0  0  0  0  0  0  0  0  0  0  0  0
    3.2541   -5.7536    0.0000 C   0  0  0  0  0  0  0  0  0  0  0  0
    3.2541   -4.9047    0.0000 C   0  0  0  0  0  0  0  0  0  0  0  0
    4.7161   -3.2541    0.0000 C   0  0  0  0  0  0  0  0  0  0  0  0
    5.4235   -6.1780    0.0000 C   0  0  0  0  0  0  0  0  0  0  0  0
    4.6689   -7.4042    0.0000 C   0  0  0  0  0  0  0  0  0  0  0  0
    4.8104   -2.4523    0.0000 C   0  0  0  0  0  0  0  0  0  0  0  0
    5.4235   -7.0269    0.0000 C   0  0  0  0  0  0  0  0  0  0  0  0
    5.9422   -1.5091    0.0000 C   0  0  0  0  0  0  0  0  0  0  0  0
    2.5467   -6.9798    0.0000 C   0  0  0  0  0  0  0  0  0  0  0  0
    3.2541   -8.2531    0.0000 C   0  0  0  0  0  0  0  0  0  0  0  0
    6.7911   -1.4148    0.0000 C   0  0  0  0  0  0  0  0  0  0  0  0
    6.8854   -4.5274    0.0000 C   0  0  0  0  0  0  0  0  0  0  0  0
    2.4995   -8.6304    0.0000 C   0  0  0  0  0  0  0  0  0  0  0  0
    1.7921   -7.4042    0.0000 C   0  0  0  0  0  0  0  0  0  0  0  0
    5.4706   -0.8489    0.0000 C   0  0  0  0  0  0  0  0  0  0  0  0
    1.0847   -8.6304    0.0000 C   0  0  0  0  0  0  0  0  0  0  0  0
    7.1213   -0.6602    0.0000 C   0  0  0  0  0  0  0  0  0  0  0  0
    5.8008   -0.0943    0.0000 C   0  0  0  0  0  0  0  0  0  0  0  0
    6.8854   -3.6785    0.0000 C   0  0  0  0  0  0  0  0  0  0  0  0
    7.5929   -4.9518    0.0000 C   0  0  0  0  0  0  0  0  0  0  0  0
    6.6497    0.0000    0.0000 C   0  0  0  0  0  0  0  0  0  0  0  0
    0.2358   -8.3946    0.0000 C   0  0  0  0  0  0  0  0  0  0  0  0
    0.8489   -9.4321    0.0000 C   0  0  0  0  0  0  0  0  0  0  0  0
    8.3002   -3.6785    0.0000 C   0  0  0  0  0  0  0  0  0  0  0  0
    7.5929   -3.2541    0.0000 C   0  0  0  0  0  0  0  0  0  0  0  0
    8.3002   -4.5274    0.0000 C   0  0  0  0  0  0  0  0  0  0  0  0
    9.0548   -3.2541    0.0000 C   0  0  0  0  0  0  0  0  0  0  0  0
  1 37  1  0  0  0  0
  2 31  1  0  0  0  0
  3 19  2  0  0  0  0
  4 20  2  0  0  0  0
  5 42  1  0  0  0  0
  5 43  1  0  0  0  0
  6 47  2  0  0  0  0
  7 47  1  0  0  0  0
  8 15  1  0  0  0  0
  8 19  1  0  0  0  0
  8 22  1  0  0  0  0
  9 18  1  0  0  0  0
  9 29  1  0  0  0  0
  9 30  1  0  0  0  0
 10 13  1  0  0  0  0
 10 26  1  0  0  0  0
 10 28  1  0  0  0  0
 11 13  2  0  0  0  0
 11 23  1  0  0  0  0
 12 20  1  0  0  0  0
 12 32  1  0  0  0  0
 14 33  1  0  0  0  0
 14 34  1  0  0  0  0
 14 36  1  0  0  0  0
 15 16  1  0  0  0  0
 15 20  1  0  0  0  0
 16 17  2  0  0  0  0
 16 24  1  0  0  0  0
 17 18  1  0  0  0  0
 17 21  1  0  0  0  0
 18 25  2  0  0  0  0
 19 23  1  0  0  0  0
 21 22  1  0  0  0  0
 23 26  2  0  0  0  0
 24 27  2  0  0  0  0
 25 27  1  0  0  0  0
 28 31  1  0  0  0  0
 28 35  2  0  0  0  0
 29 34  1  0  0  0  0
 30 33  1  0  0  0  0
 31 37  2  0  0  0  0
 32 39  2  0  0  0  0
 32 40  1  0  0  0  0
 35 38  1  0  0  0  0
 36 42  1  0  0  0  0
 36 43  1  0  0  0  0
 37 41  1  0  0  0  0
 38 41  2  0  0  0  0
 39 45  1  0  0  0  0
 40 46  2  0  0  0  0
 44 45  2  0  0  0  0
 44 46  1  0  0  0  0
 44 47  1  0  0  0  0
M  END
> <PUBCHEM_COMPOUND_ID_TYPE>
0

> <PUBCHEM_TOTAL_CHARGE>
0

> <PUBCHEM_SUBSTANCE_ID>
310933801

> <PUBCHEM_SUBSTANCE_VERSION>
1

> <PUBCHEM_EXT_DATASOURCE_NAME>
4488

> <PUBCHEM_EXT_DATASOURCE_REGID>
SCHEMBL16111239

> <PUBCHEM_SUBSTANCE_COMMENT>
InChI=1S/C33H31ClFN7O5/c34-25-4-2-6-28(29(25)35)42-17-26(37-38-42)32(44)41-12-11-23-24(30(41)31(43)36-21-9-7-20(8-10-21)33(45)46)3-1-5-27(23)40-15-13-39(14-16-40)22-18-47-19-22/h1-10,17,22,30H,11-16,18-19H2,(H,36,43)(H,45,46)
InChIKey=OEFZJAZPDZGMHT-UHFFFAOYSA-N

> <PUBCHEM_SUBSTANCE_SYNONYM>
SCHEMBL16111239

> <PUBCHEM_XREF_EXT_ID>
SCHEMBL16111239

> <PUBCHEM_EXT_DATASOURCE_URL>
https://www.surechembl.org/

> <PUBCHEM_EXT_SUBSTANCE_URL>
https://www.surechembl.org/chemical/SCHEMBL16111239

> <PUBCHEM_CID_ASSOCIATIONS>
117602149  1

> <PUBCHEM_COORDINATE_TYPE>
1
3

$$$$
