310930944
  -OEChem-07211613022D

 32 35  0     1  0  0  0  0  0999 V2000
   -4.2201    9.5824    0.0000 Cl  0  0  0  0  0  0  0  0  0  0  0  0
   -0.5714    5.5882    0.0000 S   0  0  0  0  0  0  0  0  0  0  0  0
   -1.3839    5.7314    0.0000 O   0  0  0  0  0  0  0  0  0  0  0  0
    0.2410    5.4449    0.0000 O   0  0  0  0  0  0  0  0  0  0  0  0
    0.0016    8.8380    0.0000 O   0  0  0  0  0  0  0  0  0  0  0  0
   -0.7147    4.7757    0.0000 N   0  0  0  0  0  0  0  0  0  0  0  0
    1.1813    5.3060    0.0000 N   0  0  0  0  0  0  0  0  0  0  0  0
    0.4314   11.2754    0.0000 N   0  0  0  0  0  0  0  0  0  0  0  0
    2.0408    8.0596    0.0000 N   0  0  0  0  0  0  0  0  0  0  0  0
   -0.0827    4.2454    0.0000 C   0  0  0  0  0  0  0  0  0  0  0  0
    0.3298    3.5309    0.0000 C   0  0  0  0  0  0  0  0  0  0  0  0
   -0.4952    3.5309    0.0000 C   0  0  0  0  0  0  0  0  0  0  0  0
   -0.4282    6.4006    0.0000 C   0  0  0  0  0  0  0  0  0  0  0  0
    0.5493    4.7757    0.0000 C   0  0  0  0  0  0  0  0  0  0  0  0
    0.3471    6.6828    0.0000 C   0  0  0  0  0  0  0  0  0  0  0  0
    0.4903    7.4953    0.0000 C   0  0  0  0  0  0  0  0  0  0  0  0
   -0.1417    8.0256    0.0000 C   0  0  0  0  0  0  0  0  0  0  0  0
   -1.0602    6.9309    0.0000 C   0  0  0  0  0  0  0  0  0  0  0  0
   -0.9169    7.7434    0.0000 C   0  0  0  0  0  0  0  0  0  0  0  0
   -1.1191   10.7111    0.0000 C   0  0  3  0  0  0  0  0  0  0  0  0
   -0.4871   10.1808    0.0000 C   0  0  3  0  0  0  0  0  0  0  0  0
   -1.8944   10.4289    0.0000 C   0  0  0  0  0  0  0  0  0  0  0  0
   -0.6304    9.3683    0.0000 C   0  0  0  0  0  0  0  0  0  0  0  0
    1.2656    7.7774    0.0000 C   0  0  0  0  0  0  0  0  0  0  0  0
   -0.9759   11.5236    0.0000 C   0  0  0  0  0  0  0  0  0  0  0  0
    0.2881   10.4630    0.0000 C   0  0  0  0  0  0  0  0  0  0  0  0
   -2.5263   10.9592    0.0000 C   0  0  0  0  0  0  0  0  0  0  0  0
   -2.0376    9.6165    0.0000 C   0  0  0  0  0  0  0  0  0  0  0  0
   -0.2006   11.8057    0.0000 C   0  0  0  0  0  0  0  0  0  0  0  0
   -3.4449    9.8646    0.0000 C   0  0  0  0  0  0  0  0  0  0  0  0
   -3.3016   10.6771    0.0000 C   0  0  0  0  0  0  0  0  0  0  0  0
   -2.8129    9.3343    0.0000 C   0  0  0  0  0  0  0  0  0  0  0  0
  1 30  1  0  0  0  0
  2  3  2  0  0  0  0
  2  4  2  0  0  0  0
  2  6  1  0  0  0  0
  2 13  1  0  0  0  0
  5 17  1  0  0  0  0
  5 23  1  0  0  0  0
  6 10  1  0  0  0  0
  7 14  3  0  0  0  0
  8 26  1  0  0  0  0
  8 29  1  0  0  0  0
  9 24  3  0  0  0  0
 10 11  1  0  0  0  0
 10 12  1  0  0  0  0
 10 14  1  0  0  0  0
 11 12  1  0  0  0  0
 13 15  2  0  0  0  0
 13 18  1  0  0  0  0
 15 16  1  0  0  0  0
 16 17  2  0  0  0  0
 16 24  1  0  0  0  0
 17 19  1  0  0  0  0
 18 19  2  0  0  0  0
 20 21  1  0  0  0  0
 20 22  1  0  0  0  0
 20 25  1  0  0  0  0
 21 23  1  0  0  0  0
 21 26  1  0  0  0  0
 22 27  2  0  0  0  0
 22 28  1  0  0  0  0
 25 29  1  0  0  0  0
 27 31  1  0  0  0  0
 28 32  2  0  0  0  0
 30 31  2  0  0  0  0
 30 32  1  0  0  0  0
M  END
> <PUBCHEM_COMPOUND_ID_TYPE>
0

> <PUBCHEM_TOTAL_CHARGE>
0

> <PUBCHEM_SUBSTANCE_ID>
310930944

> <PUBCHEM_SUBSTANCE_VERSION>
1

> <PUBCHEM_EXT_DATASOURCE_NAME>
4488

> <PUBCHEM_EXT_DATASOURCE_REGID>
SCHEMBL16108243

> <PUBCHEM_SUBSTANCE_COMMENT>
InChI=1S/C23H23ClN4O3S/c24-19-3-1-16(2-4-19)21-7-10-27-13-18(21)14-31-22-6-5-20(11-17(22)12-25)32(29,30)28-23(15-26)8-9-23/h1-6,11,18,21,27-28H,7-10,13-14H2
InChIKey=JYDXODVSBUPPCH-UHFFFAOYSA-N

> <PUBCHEM_SUBSTANCE_SYNONYM>
SCHEMBL16108243

> <PUBCHEM_XREF_EXT_ID>
SCHEMBL16108243

> <PUBCHEM_EXT_DATASOURCE_URL>
https://www.surechembl.org/

> <PUBCHEM_EXT_SUBSTANCE_URL>
https://www.surechembl.org/chemical/SCHEMBL16108243

> <PUBCHEM_CID_ASSOCIATIONS>
78111503  1

> <PUBCHEM_COORDINATE_TYPE>
1
3

$$$$
