310936323
  -OEChem-07211613022D

 20 22  0     1  0  0  0  0  0999 V2000
    3.5985   -0.9182    0.0000 S   0  0  0  0  0  0  0  0  0  0  0  0
    0.6949    0.0000    0.0000 N   0  0  0  0  0  0  0  0  0  0  0  0
    1.4146   -2.0599    0.0000 C   0  0  0  0  0  0  0  0  0  0  0  0
    0.7197   -3.3008    0.0000 C   0  0  0  0  0  0  0  0  0  0  0  0
    1.4146   -1.2409    0.0000 C   0  0  3  0  0  0  0  0  0  0  0  0
    1.4146   -3.6978    0.0000 C   0  0  0  0  0  0  0  0  0  0  0  0
    0.6949   -2.4818    0.0000 C   0  0  0  0  0  0  0  0  0  0  0  0
    2.8540   -1.2409    0.0000 C   0  0  0  0  0  0  0  0  0  0  0  0
    2.1343   -0.8190    0.0000 C   0  0  0  0  0  0  0  0  0  0  0  0
    2.1343   -2.4818    0.0000 C   0  0  0  0  0  0  0  0  0  0  0  0
    2.1343   -3.3008    0.0000 C   0  0  0  0  0  0  0  0  0  0  0  0
    0.0000   -3.7226    0.0000 C   0  0  0  0  0  0  0  0  0  0  0  0
    1.4146   -4.5416    0.0000 C   0  0  0  0  0  0  0  0  0  0  0  0
    4.1694   -1.5139    0.0000 C   0  0  0  0  0  0  0  0  0  0  0  0
    2.9533   -2.0599    0.0000 C   0  0  0  0  0  0  0  0  0  0  0  0
    0.6949   -0.8190    0.0000 C   0  0  0  0  0  0  0  0  0  0  0  0
    3.7474   -2.2336    0.0000 C   0  0  0  0  0  0  0  0  0  0  0  0
    0.0000   -4.5416    0.0000 C   0  0  0  0  0  0  0  0  0  0  0  0
    0.6949   -4.9635    0.0000 C   0  0  0  0  0  0  0  0  0  0  0  0
    4.9883   -1.4146    0.0000 C   0  0  0  0  0  0  0  0  0  0  0  0
  1  8  1  0  0  0  0
  1 14  1  0  0  0  0
  2 16  1  0  0  0  0
  3  5  1  0  0  0  0
  3  7  2  0  0  0  0
  3 10  1  0  0  0  0
  4  6  2  0  0  0  0
  4  7  1  0  0  0  0
  4 12  1  0  0  0  0
  5  9  1  0  0  0  0
  5 16  1  0  0  0  0
  6 11  1  0  0  0  0
  6 13  1  0  0  0  0
  8  9  1  0  0  0  0
  8 15  2  0  0  0  0
 10 11  2  0  0  0  0
 12 18  2  0  0  0  0
 13 19  2  0  0  0  0
 14 17  2  0  0  0  0
 14 20  1  0  0  0  0
 15 17  1  0  0  0  0
 18 19  1  0  0  0  0
M  END
> <PUBCHEM_COMPOUND_ID_TYPE>
0

> <PUBCHEM_TOTAL_CHARGE>
0

> <PUBCHEM_SUBSTANCE_ID>
310936323

> <PUBCHEM_SUBSTANCE_VERSION>
1

> <PUBCHEM_EXT_DATASOURCE_NAME>
4488

> <PUBCHEM_EXT_DATASOURCE_REGID>
SCHEMBL16113949

> <PUBCHEM_SUBSTANCE_COMMENT>
InChI=1S/C18H19NS/c1-13-6-9-18(20-13)11-17(12-19)16-8-7-14-4-2-3-5-15(14)10-16/h2-10,17H,11-12,19H2,1H3
InChIKey=RGLNJLQQHULJTK-UHFFFAOYSA-N

> <PUBCHEM_SUBSTANCE_SYNONYM>
SCHEMBL16113949

> <PUBCHEM_XREF_EXT_ID>
SCHEMBL16113949

> <PUBCHEM_EXT_DATASOURCE_URL>
https://www.surechembl.org/

> <PUBCHEM_EXT_SUBSTANCE_URL>
https://www.surechembl.org/chemical/SCHEMBL16113949

> <PUBCHEM_CID_ASSOCIATIONS>
117604268  1

> <PUBCHEM_COORDINATE_TYPE>
1
3

$$$$
