310934290
  -OEChem-07211613022D

 29 29  0     1  0  0  0  0  0999 V2000
    1.5720   -1.3171    0.0000 S   0  0  0  0  0  0  0  0  0  0  0  0
    0.0000   -2.7617    0.0000 O   0  0  0  0  0  0  0  0  0  0  0  0
    0.8923    0.0000    0.0000 O   0  0  0  0  0  0  0  0  0  0  0  0
    0.2550   -1.3171    0.0000 N   0  0  0  0  0  0  0  0  0  0  0  0
    1.3171   -2.1244    0.0000 C   0  0  3  0  0  0  0  0  0  0  0  0
    0.5098   -2.1244    0.0000 C   0  0  0  0  0  0  0  0  0  0  0  0
    0.8923   -0.8072    0.0000 C   0  0  0  0  0  0  0  0  0  0  0  0
    1.8270   -2.7617    0.0000 C   0  0  0  0  0  0  0  0  0  0  0  0
    1.4871   -3.5265    0.0000 C   0  0  0  0  0  0  0  0  0  0  0  0
    1.9545   -4.2063    0.0000 C   0  0  0  0  0  0  0  0  0  0  0  0
    1.6146   -4.9711    0.0000 C   0  0  0  0  0  0  0  0  0  0  0  0
    2.1244   -5.6509    0.0000 C   0  0  0  0  0  0  0  0  0  0  0  0
    2.9742   -5.5659    0.0000 C   0  0  0  0  0  0  0  0  0  0  0  0
    3.3141   -4.8011    0.0000 C   0  0  0  0  0  0  0  0  0  0  0  0
    4.1213   -4.7162    0.0000 C   0  0  0  0  0  0  0  0  0  0  0  0
    4.6312   -5.3959    0.0000 C   0  0  0  0  0  0  0  0  0  0  0  0
    4.2913   -6.1607    0.0000 C   0  0  0  0  0  0  0  0  0  0  0  0
    4.7586   -6.8406    0.0000 C   0  0  0  0  0  0  0  0  0  0  0  0
    5.5659   -6.7556    0.0000 C   0  0  0  0  0  0  0  0  0  0  0  0
    5.9483   -6.0333    0.0000 C   0  0  0  0  0  0  0  0  0  0  0  0
    6.7981   -5.9483    0.0000 C   0  0  0  0  0  0  0  0  0  0  0  0
    7.2655   -6.6281    0.0000 C   0  0  0  0  0  0  0  0  0  0  0  0
    6.9255   -7.3929    0.0000 C   0  0  0  0  0  0  0  0  0  0  0  0
    7.4354   -8.0302    0.0000 C   0  0  0  0  0  0  0  0  0  0  0  0
    8.2427   -7.9452    0.0000 C   0  0  0  0  0  0  0  0  0  0  0  0
    8.5825   -7.1805    0.0000 C   0  0  0  0  0  0  0  0  0  0  0  0
    9.3898   -7.0530    0.0000 C   0  0  0  0  0  0  0  0  0  0  0  0
    9.8997   -7.7753    0.0000 C   0  0  0  0  0  0  0  0  0  0  0  0
    9.5598   -8.4976    0.0000 C   0  0  0  0  0  0  0  0  0  0  0  0
  1  5  1  0  0  0  0
  1  7  1  0  0  0  0
  2  6  2  0  0  0  0
  3  7  2  0  0  0  0
  4  6  1  0  0  0  0
  4  7  1  0  0  0  0
  5  6  1  0  0  0  0
  5  8  1  0  0  0  0
  8  9  1  0  0  0  0
  9 10  1  0  0  0  0
 10 11  1  0  0  0  0
 11 12  2  0  0  0  0
 12 13  1  0  0  0  0
 13 14  1  0  0  0  0
 14 15  2  0  0  0  0
 15 16  1  0  0  0  0
 16 17  1  0  0  0  0
 17 18  2  0  0  0  0
 18 19  1  0  0  0  0
 19 20  1  0  0  0  0
 20 21  2  0  0  0  0
 21 22  1  0  0  0  0
 22 23  1  0  0  0  0
 23 24  2  0  0  0  0
 24 25  1  0  0  0  0
 25 26  1  0  0  0  0
 26 27  2  0  0  0  0
 27 28  1  0  0  0  0
 28 29  1  0  0  0  0
M  END
> <PUBCHEM_COMPOUND_ID_TYPE>
0

> <PUBCHEM_TOTAL_CHARGE>
0

> <PUBCHEM_SUBSTANCE_ID>
310934290

> <PUBCHEM_SUBSTANCE_VERSION>
1

> <PUBCHEM_EXT_DATASOURCE_NAME>
4488

> <PUBCHEM_EXT_DATASOURCE_REGID>
SCHEMBL16111748

> <PUBCHEM_SUBSTANCE_COMMENT>
InChI=1S/C25H35NO2S/c1-2-3-4-5-6-7-8-9-10-11-12-13-14-15-16-17-18-19-20-21-22-23-24(27)26-25(28)29-23/h3-4,6-7,9-10,12-13,15-16,18-19,23H,2,5,8,11,14,17,20-22H2,1H3,(H,26,27,28)/b4-3-,7-6-,10-9-,13-12-,16-15-,19-18-
InChIKey=XMRZIRQYGKCRQW-KUBAVDMBSA-N

> <PUBCHEM_SUBSTANCE_SYNONYM>
SCHEMBL16111748

> <PUBCHEM_XREF_EXT_ID>
SCHEMBL16111748

> <PUBCHEM_EXT_DATASOURCE_URL>
https://www.surechembl.org/

> <PUBCHEM_EXT_SUBSTANCE_URL>
https://www.surechembl.org/chemical/SCHEMBL16111748

> <PUBCHEM_CID_ASSOCIATIONS>
81689729  1

> <PUBCHEM_COORDINATE_TYPE>
1
3

$$$$
