310931879
  -OEChem-07211613022D

 33 36  0     1  0  0  0  0  0999 V2000
    5.9082   -2.0663    0.0000 O   0  0  0  0  0  0  0  0  0  0  0  0
    1.7757   -3.7774    0.0000 O   0  0  0  0  0  0  0  0  0  0  0  0
    5.5208   -3.4868    0.0000 N   0  0  0  0  0  0  0  0  0  0  0  0
    5.9405   -4.1971    0.0000 N   0  0  0  0  0  0  0  0  0  0  0  0
    1.9371   -2.3568    0.0000 N   0  0  0  0  0  0  0  0  0  0  0  0
    1.2914   -0.8394    0.0000 N   0  0  3  0  0  0  0  0  0  0  0  0
    4.2617   -4.0357    0.0000 N   0  0  0  0  0  0  0  0  0  0  0  0
    9.6856   -0.7103    0.0000 N   0  0  0  0  0  0  0  0  0  0  0  0
    6.8444   -3.1962    0.0000 C   0  0  0  0  0  0  0  0  0  0  0  0
    6.0696   -2.8734    0.0000 C   0  0  0  0  0  0  0  0  0  0  0  0
    4.7136   -3.3900    0.0000 C   0  0  0  0  0  0  0  0  0  0  0  0
    7.5547   -2.7765    0.0000 C   0  0  0  0  0  0  0  0  0  0  0  0
    0.8071   -1.5174    0.0000 C   0  0  0  0  0  0  0  0  0  0  0  0
    6.7476   -4.0033    0.0000 C   0  0  0  0  0  0  0  0  0  0  0  0
    3.0993   -3.1962    0.0000 C   0  0  0  0  0  0  0  0  0  0  0  0
    2.2600   -3.0993    0.0000 C   0  0  0  0  0  0  0  0  0  0  0  0
    7.5547   -1.9694    0.0000 C   0  0  0  0  0  0  0  0  0  0  0  0
    1.1300   -2.2600    0.0000 C   0  0  0  0  0  0  0  0  0  0  0  0
    4.3908   -2.6151    0.0000 C   0  0  0  0  0  0  0  0  0  0  0  0
    3.4222   -3.9711    0.0000 C   0  0  0  0  0  0  0  0  0  0  0  0
    3.5514   -2.5505    0.0000 C   0  0  0  0  0  0  0  0  0  0  0  0
    8.2650   -3.1962    0.0000 C   0  0  0  0  0  0  0  0  0  0  0  0
    2.4537   -1.7111    0.0000 C   0  0  0  0  0  0  0  0  0  0  0  0
    2.1308   -0.9362    0.0000 C   0  0  0  0  0  0  0  0  0  0  0  0
    8.2650   -1.5497    0.0000 C   0  0  0  0  0  0  0  0  0  0  0  0
    8.9753   -1.9694    0.0000 C   0  0  0  0  0  0  0  0  0  0  0  0
    8.9753   -2.7765    0.0000 C   0  0  0  0  0  0  0  0  0  0  0  0
    0.0000   -1.4206    0.0000 C   0  0  0  0  0  0  0  0  0  0  0  0
    0.3229   -2.1631    0.0000 C   0  0  0  0  0  0  0  0  0  0  0  0
    0.9685   -0.0969    0.0000 C   0  0  0  0  0  0  0  0  0  0  0  0
    6.8444   -1.5497    0.0000 C   0  0  0  0  0  0  0  0  0  0  0  0
    9.6856   -1.5497    0.0000 C   0  0  0  0  0  0  0  0  0  0  0  0
    0.1614    0.0000    0.0000 C   0  0  0  0  0  0  0  0  0  0  0  0
  1 10  1  0  0  0  0
  2 16  2  0  0  0  0
  3  4  1  0  0  0  0
  3 10  1  0  0  0  0
  3 11  1  0  0  0  0
  4 14  2  0  0  0  0
  5 16  1  0  0  0  0
  5 18  1  0  0  0  0
  5 23  1  0  0  0  0
  6 13  1  0  0  0  0
  6 24  1  0  0  0  0
  6 30  1  0  0  0  0
  7 11  1  0  0  0  0
  7 20  2  0  0  0  0
  8 32  3  0  0  0  0
  9 10  2  0  0  0  0
  9 12  1  0  0  0  0
  9 14  1  0  0  0  0
 11 19  2  0  0  0  0
 12 17  2  0  0  0  0
 12 22  1  0  0  0  0
 13 18  1  0  0  0  0
 13 28  1  0  0  0  0
 13 29  1  0  0  0  0
 15 16  1  0  0  0  0
 15 20  1  0  0  0  0
 15 21  2  0  0  0  0
 17 25  1  0  0  0  0
 17 31  1  0  0  0  0
 19 21  1  0  0  0  0
 22 27  2  0  0  0  0
 23 24  1  0  0  0  0
 25 26  2  0  0  0  0
 26 27  1  0  0  0  0
 26 32  1  0  0  0  0
 30 33  1  0  0  0  0
M  END
> <PUBCHEM_COMPOUND_ID_TYPE>
0

> <PUBCHEM_TOTAL_CHARGE>
0

> <PUBCHEM_SUBSTANCE_ID>
310931879

> <PUBCHEM_SUBSTANCE_VERSION>
1

> <PUBCHEM_EXT_DATASOURCE_NAME>
4488

> <PUBCHEM_EXT_DATASOURCE_REGID>
SCHEMBL16109214

> <PUBCHEM_SUBSTANCE_COMMENT>
InChI=1S/C25H28N6O2/c1-5-30-11-10-29(16-25(30,3)4)23(32)19-7-9-22(27-14-19)31-24(33)21(15-28-31)20-8-6-18(13-26)12-17(20)2/h6-9,12,14-15,33H,5,10-11,16H2,1-4H3
InChIKey=KUMVQFHINQOEKL-UHFFFAOYSA-N

> <PUBCHEM_SUBSTANCE_SYNONYM>
SCHEMBL16109214

> <PUBCHEM_XREF_EXT_ID>
SCHEMBL16109214

> <PUBCHEM_EXT_DATASOURCE_URL>
https://www.surechembl.org/

> <PUBCHEM_EXT_SUBSTANCE_URL>
https://www.surechembl.org/chemical/SCHEMBL16109214

> <PUBCHEM_CID_ASSOCIATIONS>
117600542  1

> <PUBCHEM_COORDINATE_TYPE>
1
3

$$$$
