310939288
  -OEChem-07211613022D

 25 27  0     1  0  0  0  0  0999 V2000
    0.6348    1.0313    0.0000 F   0  0  0  0  0  0  0  0  0  0  0  0
    2.0637   -1.4437    0.0000 F   0  0  0  0  0  0  0  0  0  0  0  0
    2.0637    0.2062    0.0000 O   0  0  0  0  0  0  0  0  0  0  0  0
   -1.5086   -0.2062    0.0000 N   0  0  0  0  0  0  0  0  0  0  0  0
   -2.9376   -1.0313    0.0000 N   0  0  0  0  0  0  0  0  0  0  0  0
   -0.0797   -0.2062    0.0000 C   0  0  0  0  0  0  0  0  0  0  0  0
    1.3492   -0.2062    0.0000 C   0  0  0  0  0  0  0  0  0  0  0  0
    0.6348    0.2062    0.0000 C   0  0  0  0  0  0  0  0  0  0  0  0
    1.3492   -1.0313    0.0000 C   0  0  0  0  0  0  0  0  0  0  0  0
   -0.7942    0.2062    0.0000 C   0  0  3  0  0  0  0  0  0  0  0  0
   -0.0797   -1.0313    0.0000 C   0  0  0  0  0  0  0  0  0  0  0  0
    0.6348   -1.4437    0.0000 C   0  0  0  0  0  0  0  0  0  0  0  0
    2.7782   -0.2062    0.0000 C   0  0  0  0  0  0  0  0  0  0  0  0
   -0.7942    1.0313    0.0000 C   0  0  0  0  0  0  0  0  0  0  0  0
   -2.2231    0.2062    0.0000 C   0  0  0  0  0  0  0  0  0  0  0  0
   -2.9376   -0.2062    0.0000 C   0  0  0  0  0  0  0  0  0  0  0  0
    2.7782   -1.0313    0.0000 C   0  0  0  0  0  0  0  0  0  0  0  0
    3.4927    0.2062    0.0000 C   0  0  0  0  0  0  0  0  0  0  0  0
   -3.7222    0.0487    0.0000 C   0  0  0  0  0  0  0  0  0  0  0  0
    3.4927   -1.4437    0.0000 C   0  0  0  0  0  0  0  0  0  0  0  0
    4.2071   -0.2062    0.0000 C   0  0  0  0  0  0  0  0  0  0  0  0
   -1.5086    1.4437    0.0000 C   0  0  0  0  0  0  0  0  0  0  0  0
    4.2071   -1.0313    0.0000 C   0  0  0  0  0  0  0  0  0  0  0  0
   -3.7222   -1.2862    0.0000 C   0  0  0  0  0  0  0  0  0  0  0  0
   -4.2071   -0.6187    0.0000 C   0  0  0  0  0  0  0  0  0  0  0  0
  1  8  1  0  0  0  0
  2  9  1  0  0  0  0
  3  7  1  0  0  0  0
  3 13  1  0  0  0  0
  4 10  1  0  0  0  0
  4 15  1  0  0  0  0
  5 16  1  0  0  0  0
  5 24  1  0  0  0  0
  6  8  1  0  0  0  0
  6 10  1  0  0  0  0
  6 11  2  0  0  0  0
  7  8  2  0  0  0  0
  7  9  1  0  0  0  0
  9 12  2  0  0  0  0
 10 14  1  0  0  0  0
 11 12  1  0  0  0  0
 13 17  2  0  0  0  0
 13 18  1  0  0  0  0
 14 22  1  0  0  0  0
 15 16  1  0  0  0  0
 16 19  2  0  0  0  0
 17 20  1  0  0  0  0
 18 21  2  0  0  0  0
 19 25  1  0  0  0  0
 20 23  2  0  0  0  0
 21 23  1  0  0  0  0
 24 25  2  0  0  0  0
M  END
> <PUBCHEM_COMPOUND_ID_TYPE>
0

> <PUBCHEM_TOTAL_CHARGE>
0

> <PUBCHEM_SUBSTANCE_ID>
310939288

> <PUBCHEM_SUBSTANCE_VERSION>
1

> <PUBCHEM_EXT_DATASOURCE_NAME>
4488

> <PUBCHEM_EXT_DATASOURCE_REGID>
SCHEMBL16117209

> <PUBCHEM_SUBSTANCE_COMMENT>
InChI=1S/C20H20F2N2O/c1-2-18(24-13-14-7-6-12-23-14)16-10-11-17(21)20(19(16)22)25-15-8-4-3-5-9-15/h3-12,18,23-24H,2,13H2,1H3
InChIKey=IOXSDJTYAPCDTI-UHFFFAOYSA-N

> <PUBCHEM_SUBSTANCE_SYNONYM>
SCHEMBL16117209

> <PUBCHEM_XREF_EXT_ID>
SCHEMBL16117209

> <PUBCHEM_EXT_DATASOURCE_URL>
https://www.surechembl.org/

> <PUBCHEM_EXT_SUBSTANCE_URL>
https://www.surechembl.org/chemical/SCHEMBL16117209

> <PUBCHEM_CID_ASSOCIATIONS>
117606629  1

> <PUBCHEM_COORDINATE_TYPE>
1
3

$$$$
