310931932
  -OEChem-07211613022D

 29 31  0     1  0  0  0  0  0999 V2000
    2.8395   -2.1296    0.0000 O   0  0  0  0  0  0  0  0  0  0  0  0
    0.1183   -2.3663    0.0000 O   0  0  0  0  0  0  0  0  0  0  0  0
    7.3354   -2.2184    0.0000 O   0  0  0  0  0  0  0  0  0  0  0  0
    8.7552   -4.6734    0.0000 O   0  0  0  0  0  0  0  0  0  0  0  0
    3.7269   -0.9761    0.0000 N   0  0  0  0  0  0  0  0  0  0  0  0
    3.6677   -0.1479    0.0000 N   0  0  0  0  0  0  0  0  0  0  0  0
    5.1762   -0.9761    0.0000 N   0  0  0  0  0  0  0  0  0  0  0  0
    0.0000   -0.9761    0.0000 N   0  0  0  0  0  0  0  0  0  0  0  0
    6.5959   -3.4311    0.0000 N   0  0  0  0  0  0  0  0  0  0  0  0
    2.4254   -0.7099    0.0000 C   0  0  0  0  0  0  0  0  0  0  0  0
    2.9874   -1.3014    0.0000 C   0  0  0  0  0  0  0  0  0  0  0  0
    4.4663   -1.3902    0.0000 C   0  0  0  0  0  0  0  0  0  0  0  0
    1.6268   -0.7986    0.0000 C   0  0  0  0  0  0  0  0  0  0  0  0
    2.8395    0.0000    0.0000 C   0  0  0  0  0  0  0  0  0  0  0  0
    4.4663   -2.2184    0.0000 C   0  0  0  0  0  0  0  0  0  0  0  0
    1.3014   -1.5676    0.0000 C   0  0  0  0  0  0  0  0  0  0  0  0
    5.8861   -2.2184    0.0000 C   0  0  0  0  0  0  0  0  0  0  0  0
    1.1535   -0.1479    0.0000 C   0  0  0  0  0  0  0  0  0  0  0  0
    0.4733   -1.6268    0.0000 C   0  0  0  0  0  0  0  0  0  0  0  0
    5.8861   -1.3902    0.0000 C   0  0  0  0  0  0  0  0  0  0  0  0
    5.1762   -2.6029    0.0000 C   0  0  0  0  0  0  0  0  0  0  0  0
    6.5959   -2.6029    0.0000 C   0  0  0  0  0  0  0  0  0  0  0  0
    0.3254   -0.2070    0.0000 C   0  0  0  0  0  0  0  0  0  0  0  0
    7.3354   -3.8451    0.0000 C   0  0  0  0  0  0  0  0  0  0  0  0
    0.5916   -3.0465    0.0000 C   0  0  0  0  0  0  0  0  0  0  0  0
    7.3354   -4.6734    0.0000 C   0  0  0  0  0  0  0  0  0  0  0  0
    8.0453   -5.0875    0.0000 C   0  0  3  0  0  0  0  0  0  0  0  0
    8.0453   -5.9157    0.0000 C   0  0  0  0  0  0  0  0  0  0  0  0
    8.7552   -3.8451    0.0000 C   0  0  0  0  0  0  0  0  0  0  0  0
  1 11  1  0  0  0  0
  2 19  1  0  0  0  0
  2 25  1  0  0  0  0
  3 22  2  0  0  0  0
  4 27  1  0  0  0  0
  4 29  1  0  0  0  0
  5  6  1  0  0  0  0
  5 11  1  0  0  0  0
  5 12  1  0  0  0  0
  6 14  2  0  0  0  0
  7 12  2  0  0  0  0
  7 20  1  0  0  0  0
  8 19  1  0  0  0  0
  8 23  2  0  0  0  0
  9 22  1  0  0  0  0
  9 24  1  0  0  0  0
 10 11  2  0  0  0  0
 10 13  1  0  0  0  0
 10 14  1  0  0  0  0
 12 15  1  0  0  0  0
 13 16  1  0  0  0  0
 13 18  2  0  0  0  0
 15 21  2  0  0  0  0
 16 19  2  0  0  0  0
 17 20  2  0  0  0  0
 17 21  1  0  0  0  0
 17 22  1  0  0  0  0
 18 23  1  0  0  0  0
 24 26  1  0  0  0  0
 26 27  1  0  0  0  0
 27 28  1  0  0  0  0
M  END
> <PUBCHEM_COMPOUND_ID_TYPE>
0

> <PUBCHEM_TOTAL_CHARGE>
0

> <PUBCHEM_SUBSTANCE_ID>
310931932

> <PUBCHEM_SUBSTANCE_VERSION>
1

> <PUBCHEM_EXT_DATASOURCE_NAME>
4488

> <PUBCHEM_EXT_DATASOURCE_REGID>
SCHEMBL16109268

> <PUBCHEM_SUBSTANCE_COMMENT>
InChI=1S/C20H23N5O4/c1-13(28-2)6-8-22-19(26)15-4-5-17(23-11-15)25-20(27)16(12-24-25)14-7-9-21-18(10-14)29-3/h4-5,7,9-13,27H,6,8H2,1-3H3,(H,22,26)
InChIKey=VWXVADUYSWBHCR-UHFFFAOYSA-N

> <PUBCHEM_SUBSTANCE_SYNONYM>
SCHEMBL16109268

> <PUBCHEM_XREF_EXT_ID>
SCHEMBL16109268

> <PUBCHEM_EXT_DATASOURCE_URL>
https://www.surechembl.org/

> <PUBCHEM_EXT_SUBSTANCE_URL>
https://www.surechembl.org/chemical/SCHEMBL16109268

> <PUBCHEM_CID_ASSOCIATIONS>
117600583  1

> <PUBCHEM_COORDINATE_TYPE>
1
3

$$$$
