310945367
  -OEChem-07211613022D

 23 24  0     1  0  0  0  0  0999 V2000
   -1.6257    1.5942    0.0000 O   0  0  0  0  0  0  0  0  0  0  0  0
   -0.4262    0.8366    0.0000 N   0  0  0  0  0  0  0  0  0  0  0  0
    0.7840    0.0684    0.0000 N   0  0  0  0  0  0  0  0  0  0  0  0
   -0.6577    1.6257    0.0000 N   0  0  0  0  0  0  0  0  0  0  0  0
   -1.6889    0.1631    0.0000 N   0  0  0  0  0  0  0  0  0  0  0  0
    0.7314   -1.3627    0.0000 N   0  0  0  0  0  0  0  0  0  0  0  0
   -0.8577    0.1421    0.0000 C   0  0  0  0  0  0  0  0  0  0  0  0
    0.4156    0.8050    0.0000 C   0  0  0  0  0  0  0  0  0  0  0  0
   -0.4683   -0.5840    0.0000 C   0  0  0  0  0  0  0  0  0  0  0  0
    0.3630   -0.6261    0.0000 C   0  0  0  0  0  0  0  0  0  0  0  0
    0.6893    1.5942    0.0000 C   0  0  0  0  0  0  0  0  0  0  0  0
    0.0369    2.0993    0.0000 C   0  0  0  0  0  0  0  0  0  0  0  0
   -0.8892   -1.2996    0.0000 C   0  0  0  0  0  0  0  0  0  0  0  0
   -2.0677    0.8998    0.0000 C   0  0  0  0  0  0  0  0  0  0  0  0
    1.5626   -1.3838    0.0000 C   0  0  3  0  0  0  0  0  0  0  0  0
   -2.8780    0.9523    0.0000 C   0  0  0  0  0  0  0  0  0  0  0  0
    1.9836   -0.6683    0.0000 C   0  0  0  0  0  0  0  0  0  0  0  0
    1.9836   -2.0888    0.0000 C   0  0  0  0  0  0  0  0  0  0  0  0
    2.8148   -0.6683    0.0000 C   0  0  0  0  0  0  0  0  0  0  0  0
   -3.2146    1.7099    0.0000 C   0  0  0  0  0  0  0  0  0  0  0  0
    2.6886   -2.0993    0.0000 C   0  0  0  0  0  0  0  0  0  0  0  0
    3.2146   -1.3838    0.0000 C   0  0  0  0  0  0  0  0  0  0  0  0
    2.9622   -1.8573    0.0000 C   0  0  0  0  0  0  0  0  0  0  0  0
  1 14  2  0  0  0  0
  2  4  1  0  0  0  0
  2  7  1  0  0  0  0
  2  8  1  0  0  0  0
  3  8  1  0  0  0  0
  3 10  2  0  0  0  0
  4 12  2  0  0  0  0
  5  7  1  0  0  0  0
  5 14  1  0  0  0  0
  6 10  1  0  0  0  0
  6 15  1  0  0  0  0
  7  9  2  0  0  0  0
  8 11  2  0  0  0  0
  9 10  1  0  0  0  0
  9 13  1  0  0  0  0
 11 12  1  0  0  0  0
 14 16  1  0  0  0  0
 15 17  1  0  0  0  0
 15 18  1  0  0  0  0
 16 20  2  0  0  0  0
 17 19  1  0  0  0  0
 18 21  1  0  0  0  0
 19 22  1  0  0  0  0
 22 23  1  0  0  0  0
M  END
> <PUBCHEM_COMPOUND_ID_TYPE>
0

> <PUBCHEM_TOTAL_CHARGE>
0

> <PUBCHEM_SUBSTANCE_ID>
310945367

> <PUBCHEM_SUBSTANCE_VERSION>
1

> <PUBCHEM_EXT_DATASOURCE_NAME>
4488

> <PUBCHEM_EXT_DATASOURCE_REGID>
SCHEMBL16123465

> <PUBCHEM_SUBSTANCE_COMMENT>
InChI=1S/C17H25N5O/c1-5-8-9-13(6-2)19-16-12(4)17(21-15(23)7-3)22-14(20-16)10-11-18-22/h7,10-11,13H,3,5-6,8-9H2,1-2,4H3,(H,19,20)(H,21,23)
InChIKey=FNPKXVZWUSJDBF-UHFFFAOYSA-N

> <PUBCHEM_SUBSTANCE_SYNONYM>
SCHEMBL16123465

> <PUBCHEM_XREF_EXT_ID>
SCHEMBL16123465

> <PUBCHEM_EXT_DATASOURCE_URL>
https://www.surechembl.org/

> <PUBCHEM_EXT_SUBSTANCE_URL>
https://www.surechembl.org/chemical/SCHEMBL16123465

> <PUBCHEM_CID_ASSOCIATIONS>
117611422  1

> <PUBCHEM_COORDINATE_TYPE>
1
3

$$$$
