310947741
  -OEChem-07211613022D

 17 18  0     1  0  0  0  0  0999 V2000
   -2.0050   -1.1769    0.0000 N   0  0  0  0  0  0  0  0  0  0  0  0
   -1.5201   -1.8444    0.0000 N   0  0  0  0  0  0  0  0  0  0  0  0
   -2.5820    0.4467    0.0000 N   0  0  0  0  0  0  0  0  0  0  0  0
    0.6935   -0.7644    0.0000 N   0  0  3  0  0  0  0  0  0  0  0  0
    2.8369   -0.3519    0.0000 N   0  0  0  0  0  0  0  0  0  0  0  0
   -1.5201   -0.5095    0.0000 C   0  0  0  0  0  0  0  0  0  0  0  0
   -0.7354   -0.7644    0.0000 C   0  0  0  0  0  0  0  0  0  0  0  0
   -1.7750    0.2751    0.0000 C   0  0  0  0  0  0  0  0  0  0  0  0
   -0.7354   -1.5894    0.0000 C   0  0  0  0  0  0  0  0  0  0  0  0
   -0.0210   -0.3519    0.0000 C   0  0  0  0  0  0  0  0  0  0  0  0
   -1.2230    0.8882    0.0000 C   0  0  0  0  0  0  0  0  0  0  0  0
   -2.8369    1.2313    0.0000 C   0  0  0  0  0  0  0  0  0  0  0  0
   -1.4779    1.6728    0.0000 C   0  0  0  0  0  0  0  0  0  0  0  0
   -2.2849    1.8444    0.0000 C   0  0  0  0  0  0  0  0  0  0  0  0
    1.4080   -0.3519    0.0000 C   0  0  0  0  0  0  0  0  0  0  0  0
    0.6935   -1.5894    0.0000 C   0  0  0  0  0  0  0  0  0  0  0  0
    2.1224   -0.7644    0.0000 C   0  0  0  0  0  0  0  0  0  0  0  0
  1  2  1  0  0  0  0
  1  6  2  0  0  0  0
  2  9  1  0  0  0  0
  3  8  1  0  0  0  0
  3 12  2  0  0  0  0
  4 10  1  0  0  0  0
  4 15  1  0  0  0  0
  4 16  1  0  0  0  0
  5 17  1  0  0  0  0
  6  7  1  0  0  0  0
  6  8  1  0  0  0  0
  7  9  2  0  0  0  0
  7 10  1  0  0  0  0
  8 11  2  0  0  0  0
 11 13  1  0  0  0  0
 12 14  1  0  0  0  0
 13 14  2  0  0  0  0
 15 17  1  0  0  0  0
M  END
> <PUBCHEM_COMPOUND_ID_TYPE>
0

> <PUBCHEM_TOTAL_CHARGE>
0

> <PUBCHEM_SUBSTANCE_ID>
310947741

> <PUBCHEM_SUBSTANCE_VERSION>
1

> <PUBCHEM_EXT_DATASOURCE_NAME>
4488

> <PUBCHEM_EXT_DATASOURCE_REGID>
SCHEMBL16125913

> <PUBCHEM_SUBSTANCE_COMMENT>
InChI=1S/C12H17N5/c1-17(7-5-13)9-10-8-15-16-12(10)11-4-2-3-6-14-11/h2-4,6,8H,5,7,9,13H2,1H3,(H,15,16)
InChIKey=CREOQTRWBNVALP-UHFFFAOYSA-N

> <PUBCHEM_SUBSTANCE_SYNONYM>
SCHEMBL16125913

> <PUBCHEM_XREF_EXT_ID>
SCHEMBL16125913

> <PUBCHEM_EXT_DATASOURCE_URL>
https://www.surechembl.org/

> <PUBCHEM_EXT_SUBSTANCE_URL>
https://www.surechembl.org/chemical/SCHEMBL16125913

> <PUBCHEM_CID_ASSOCIATIONS>
86301854  1

> <PUBCHEM_COORDINATE_TYPE>
1
3

$$$$
