310932351
  -OEChem-07211613022D

 16 15  0     1  0  0  0  0  0999 V2000
    1.5444   -0.8424    0.0000 P   0  0  0  0  0  0  0  0  0  0  0  0
    1.9656   -1.5444    0.0000 P   0  0  0  0  0  0  0  0  0  0  0  0
    0.0000   -2.0709    0.0000 F   0  0  0  0  0  0  0  0  0  0  0  0
    0.4037   -1.3513    0.0000 F   0  0  0  0  0  0  0  0  0  0  0  0
    1.6497   -3.5100    0.0000 F   0  0  0  0  0  0  0  0  0  0  0  0
    1.5444   -1.6672    0.0000 O   0  0  0  0  0  0  0  0  0  0  0  0
    1.9656   -2.3692    0.0000 O   0  0  0  0  0  0  0  0  0  0  0  0
    2.3692   -0.8248    0.0000 O   0  0  0  0  0  0  0  0  0  0  0  0
    0.7196   -0.8424    0.0000 O   0  0  0  0  0  0  0  0  0  0  0  0
    1.5444    0.0000    0.0000 O   0  0  0  0  0  0  0  0  0  0  0  0
    2.7905   -1.5444    0.0000 O   0  0  0  0  0  0  0  0  0  0  0  0
    1.1232   -1.5444    0.0000 O   0  0  0  0  0  0  0  0  0  0  0  0
    1.9656   -0.7196    0.0000 O   0  0  0  0  0  0  0  0  0  0  0  0
    0.8248   -2.0709    0.0000 C   0  0  0  0  0  0  0  0  0  0  0  0
    1.2285   -2.7905    0.0000 C   0  0  3  0  0  0  0  0  0  0  0  0
    0.8248   -3.5100    0.0000 C   0  0  0  0  0  0  0  0  0  0  0  0
  1  6  1  0  0  0  0
  1  8  2  0  0  0  0
  1  9  1  0  0  0  0
  1 10  1  0  0  0  0
  2  7  1  0  0  0  0
  2 11  2  0  0  0  0
  2 12  1  0  0  0  0
  2 13  1  0  0  0  0
  3 14  1  0  0  0  0
  4 14  1  0  0  0  0
  5 15  1  0  0  0  0
  6 14  1  0  0  0  0
  7 15  1  0  0  0  0
 14 15  1  0  0  0  0
 15 16  1  0  0  0  0
M  END
> <PUBCHEM_COMPOUND_ID_TYPE>
0

> <PUBCHEM_TOTAL_CHARGE>
0

> <PUBCHEM_SUBSTANCE_ID>
310932351

> <PUBCHEM_SUBSTANCE_VERSION>
1

> <PUBCHEM_EXT_DATASOURCE_NAME>
4488

> <PUBCHEM_EXT_DATASOURCE_REGID>
SCHEMBL16109717

> <PUBCHEM_SUBSTANCE_COMMENT>
InChI=1S/C3H7F3O8P2/c1-2(4,13-15(7,8)9)3(5,6)14-16(10,11)12/h1H3,(H2,7,8,9)(H2,10,11,12)
InChIKey=VWJOGJOQBKIMFD-UHFFFAOYSA-N

> <PUBCHEM_SUBSTANCE_SYNONYM>
SCHEMBL16109717

> <PUBCHEM_XREF_EXT_ID>
SCHEMBL16109717

> <PUBCHEM_EXT_DATASOURCE_URL>
https://www.surechembl.org/

> <PUBCHEM_EXT_SUBSTANCE_URL>
https://www.surechembl.org/chemical/SCHEMBL16109717

> <PUBCHEM_CID_ASSOCIATIONS>
117600906  1

> <PUBCHEM_COORDINATE_TYPE>
1
3

$$$$
