310933474
  -OEChem-07211613022D

 22 23  0     1  0  0  0  0  0999 V2000
    5.0317   -2.4909    0.0000 O   0  0  0  0  0  0  0  0  0  0  0  0
    4.3093   -1.2454    0.0000 O   0  0  0  0  0  0  0  0  0  0  0  0
    0.7223   -0.7971    0.0000 N   0  0  0  0  0  0  0  0  0  0  0  0
    2.1920    0.0000    0.0000 N   0  0  0  0  0  0  0  0  0  0  0  0
    1.4198   -2.0675    0.0000 C   0  0  0  0  0  0  0  0  0  0  0  0
    2.1422   -2.4909    0.0000 C   0  0  3  0  0  0  0  0  0  0  0  0
    1.4447   -1.2206    0.0000 C   0  0  0  0  0  0  0  0  0  0  0  0
    2.1173   -3.3130    0.0000 C   0  0  0  0  0  0  0  0  0  0  0  0
    0.6975   -2.4660    0.0000 C   0  0  0  0  0  0  0  0  0  0  0  0
    2.8397   -2.0924    0.0000 C   0  0  0  0  0  0  0  0  0  0  0  0
    2.8397   -3.7613    0.0000 C   0  0  0  0  0  0  0  0  0  0  0  0
    1.3949   -3.7364    0.0000 C   0  0  0  0  0  0  0  0  0  0  0  0
    2.1671   -0.8220    0.0000 C   0  0  0  0  0  0  0  0  0  0  0  0
    0.0000   -2.0425    0.0000 C   0  0  0  0  0  0  0  0  0  0  0  0
    0.0000   -1.1957    0.0000 C   0  0  0  0  0  0  0  0  0  0  0  0
    3.6118   -2.4909    0.0000 C   0  0  0  0  0  0  0  0  0  0  0  0
    2.8148   -4.5833    0.0000 C   0  0  0  0  0  0  0  0  0  0  0  0
    1.3700   -4.5584    0.0000 C   0  0  0  0  0  0  0  0  0  0  0  0
    4.3093   -2.0675    0.0000 C   0  0  0  0  0  0  0  0  0  0  0  0
    2.0924   -4.9819    0.0000 C   0  0  0  0  0  0  0  0  0  0  0  0
    5.7541   -2.0675    0.0000 C   0  0  0  0  0  0  0  0  0  0  0  0
    5.7541   -1.2454    0.0000 C   0  0  0  0  0  0  0  0  0  0  0  0
  1 19  1  0  0  0  0
  1 21  1  0  0  0  0
  2 19  2  0  0  0  0
  3  7  2  0  0  0  0
  3 15  1  0  0  0  0
  4 13  3  0  0  0  0
  5  6  1  0  0  0  0
  5  7  1  0  0  0  0
  5  9  2  0  0  0  0
  6  8  1  0  0  0  0
  6 10  1  0  0  0  0
  7 13  1  0  0  0  0
  8 11  2  0  0  0  0
  8 12  1  0  0  0  0
  9 14  1  0  0  0  0
 10 16  1  0  0  0  0
 11 17  1  0  0  0  0
 12 18  2  0  0  0  0
 14 15  2  0  0  0  0
 16 19  1  0  0  0  0
 17 20  2  0  0  0  0
 18 20  1  0  0  0  0
 21 22  1  0  0  0  0
M  END
> <PUBCHEM_COMPOUND_ID_TYPE>
0

> <PUBCHEM_TOTAL_CHARGE>
0

> <PUBCHEM_SUBSTANCE_ID>
310933474

> <PUBCHEM_SUBSTANCE_VERSION>
1

> <PUBCHEM_EXT_DATASOURCE_NAME>
4488

> <PUBCHEM_EXT_DATASOURCE_REGID>
SCHEMBL16110894

> <PUBCHEM_SUBSTANCE_COMMENT>
InChI=1S/C18H18N2O2/c1-2-22-18(21)11-10-15(14-7-4-3-5-8-14)16-9-6-12-20-17(16)13-19/h3-9,12,15H,2,10-11H2,1H3
InChIKey=CSQLEXUFBWFAPD-UHFFFAOYSA-N

> <PUBCHEM_SUBSTANCE_SYNONYM>
SCHEMBL16110894

> <PUBCHEM_XREF_EXT_ID>
SCHEMBL16110894

> <PUBCHEM_EXT_DATASOURCE_URL>
https://www.surechembl.org/

> <PUBCHEM_EXT_SUBSTANCE_URL>
https://www.surechembl.org/chemical/SCHEMBL16110894

> <PUBCHEM_CID_ASSOCIATIONS>
117601870  1

> <PUBCHEM_COORDINATE_TYPE>
1
3

$$$$
