310948347
  -OEChem-07211613022D

 17 18  0     1  0  0  0  0  0999 V2000
   -1.0317    2.3424    0.0000 Br  0  0  0  0  0  0  0  0  0  0  0  0
   -0.8784   -0.9620    0.0000 S   0  0  0  0  0  0  0  0  0  0  0  0
   -1.6870   -1.0597    0.0000 O   0  0  0  0  0  0  0  0  0  0  0  0
   -0.8644   -1.7986    0.0000 O   0  0  0  0  0  0  0  0  0  0  0  0
    1.7567   -2.3424    0.0000 O   0  0  0  0  0  0  0  0  0  0  0  0
   -0.0418   -1.0597    0.0000 N   0  0  3  0  0  0  0  0  0  0  0  0
   -1.0597   -0.1255    0.0000 C   0  0  0  0  0  0  0  0  0  0  0  0
   -0.3486    0.2788    0.0000 C   0  0  0  0  0  0  0  0  0  0  0  0
    0.7389   -1.2688    0.0000 C   0  0  0  0  0  0  0  0  0  0  0  0
    0.2788   -0.2788    0.0000 C   0  0  0  0  0  0  0  0  0  0  0  0
   -1.7567    0.2788    0.0000 C   0  0  0  0  0  0  0  0  0  0  0  0
   -0.3346    1.1015    0.0000 C   0  0  0  0  0  0  0  0  0  0  0  0
   -1.0457    1.5198    0.0000 C   0  0  0  0  0  0  0  0  0  0  0  0
    0.9481   -2.0775    0.0000 C   0  0  0  0  0  0  0  0  0  0  0  0
   -1.7567    1.1015    0.0000 C   0  0  0  0  0  0  0  0  0  0  0  0
    0.5438   -0.4601    0.0000 C   0  0  0  0  0  0  0  0  0  0  0  0
    1.3664   -0.6831    0.0000 C   0  0  0  0  0  0  0  0  0  0  0  0
  1 13  1  0  0  0  0
  2  3  2  0  0  0  0
  2  4  2  0  0  0  0
  2  6  1  0  0  0  0
  2  7  1  0  0  0  0
  5 14  1  0  0  0  0
  6  9  1  0  0  0  0
  6 10  1  0  0  0  0
  7  8  2  0  0  0  0
  7 11  1  0  0  0  0
  8 10  1  0  0  0  0
  8 12  1  0  0  0  0
  9 14  1  0  0  0  0
  9 16  1  0  0  0  0
  9 17  1  0  0  0  0
 11 15  2  0  0  0  0
 12 13  2  0  0  0  0
 13 15  1  0  0  0  0
M  END
> <PUBCHEM_COMPOUND_ID_TYPE>
0

> <PUBCHEM_TOTAL_CHARGE>
0

> <PUBCHEM_SUBSTANCE_ID>
310948347

> <PUBCHEM_SUBSTANCE_VERSION>
1

> <PUBCHEM_EXT_DATASOURCE_NAME>
4488

> <PUBCHEM_EXT_DATASOURCE_REGID>
SCHEMBL16126525

> <PUBCHEM_SUBSTANCE_COMMENT>
InChI=1S/C11H14BrNO3S/c1-11(2,7-14)13-6-8-5-9(12)3-4-10(8)17(13,15)16/h3-5,14H,6-7H2,1-2H3
InChIKey=CACRTTDKQTXHDJ-UHFFFAOYSA-N

> <PUBCHEM_SUBSTANCE_SYNONYM>
SCHEMBL16126525

> <PUBCHEM_XREF_EXT_ID>
SCHEMBL16126525

> <PUBCHEM_EXT_DATASOURCE_URL>
https://www.surechembl.org/

> <PUBCHEM_EXT_SUBSTANCE_URL>
https://www.surechembl.org/chemical/SCHEMBL16126525

> <PUBCHEM_CID_ASSOCIATIONS>
117613911  1

> <PUBCHEM_COORDINATE_TYPE>
1
3

$$$$
