310949341
  -OEChem-07211613022D

  8  7  0     1  0  0  0  0  0999 V2000
    0.7878   -0.2348    0.0000 S   0  0  3  0  0  0  0  0  0  0  0  0
    1.1817    0.4773    0.0000 O   0  0  0  0  0  0  0  0  0  0  0  0
    0.0758   -0.6591    0.0000 N   0  0  0  0  0  0  0  0  0  0  0  0
    1.4998   -0.6439    0.0000 N   0  0  0  0  0  0  0  0  0  0  0  0
   -0.8332   -0.2803    0.0000 C   0  0  0  0  0  0  0  0  0  0  0  0
    1.4998   -0.6439    0.0000 C   0  0  0  0  0  0  0  0  0  0  0  0
   -0.8484    0.6591    0.0000 C   0  0  0  0  0  0  0  0  0  0  0  0
   -1.4998   -0.6439    0.0000 C   0  0  0  0  0  0  0  0  0  0  0  0
  1  2  2  0  0  0  0
  1  3  1  0  0  0  0
  1  6  1  0  0  0  0
  3  5  1  0  0  0  0
  4  6  2  3  0  0  0
  5  7  2  0  0  0  0
  5  8  1  0  0  0  0
M  END
> <PUBCHEM_COMPOUND_ID_TYPE>
0

> <PUBCHEM_TOTAL_CHARGE>
0

> <PUBCHEM_SUBSTANCE_ID>
310949341

> <PUBCHEM_SUBSTANCE_VERSION>
1

> <PUBCHEM_EXT_DATASOURCE_NAME>
4488

> <PUBCHEM_EXT_DATASOURCE_REGID>
SCHEMBL16127531

> <PUBCHEM_SUBSTANCE_COMMENT>
InChI=1S/C4H8N2OS/c1-4(2)6-8(7)3-5/h3,5-6H,1H2,2H3
InChIKey=DDZULPIJXOCXDG-UHFFFAOYSA-N

> <PUBCHEM_SUBSTANCE_SYNONYM>
SCHEMBL16127531

> <PUBCHEM_XREF_EXT_ID>
SCHEMBL16127531

> <PUBCHEM_EXT_DATASOURCE_URL>
https://www.surechembl.org/

> <PUBCHEM_EXT_SUBSTANCE_URL>
https://www.surechembl.org/chemical/SCHEMBL16127531

> <PUBCHEM_CID_ASSOCIATIONS>
117614816  1

> <PUBCHEM_COORDINATE_TYPE>
1
3

$$$$
