310933800
  -OEChem-07211613022D

 36 40  0     1  0  0  0  0  0999 V2000
    1.4839    0.0000    0.0000 Cl  0  0  0  0  0  0  0  0  0  0  0  0
    2.4560   -1.3303    0.0000 F   0  0  0  0  0  0  0  0  0  0  0  0
    1.4839   -5.3214    0.0000 O   0  0  0  0  0  0  0  0  0  0  0  0
    4.2980   -3.6840    0.0000 O   0  0  0  0  0  0  0  0  0  0  0  0
    2.9165   -3.6840    0.0000 O   0  0  0  0  0  0  0  0  0  0  0  0
    4.9632   -9.8241    0.0000 O   0  0  0  0  0  0  0  0  0  0  0  0
    2.8654   -5.3214    0.0000 N   0  0  0  0  0  0  0  0  0  0  0  0
    1.7908   -2.8142    0.0000 N   0  0  0  0  0  0  0  0  0  0  0  0
    5.0144   -7.3680    0.0000 N   0  0  0  0  0  0  0  0  0  0  0  0
    3.0189   -3.7864    0.0000 N   0  0  0  0  0  0  0  0  0  0  0  0
    2.6095   -2.8142    0.0000 N   0  0  0  0  0  0  0  0  0  0  0  0
    3.5817   -4.9120    0.0000 C   0  0  3  0  0  0  0  0  0  0  0  0
    4.2980   -5.3214    0.0000 C   0  0  0  0  0  0  0  0  0  0  0  0
    4.2980   -6.1400    0.0000 C   0  0  0  0  0  0  0  0  0  0  0  0
    2.2002   -4.9120    0.0000 C   0  0  0  0  0  0  0  0  0  0  0  0
    5.0144   -6.5494    0.0000 C   0  0  0  0  0  0  0  0  0  0  0  0
    2.2002   -4.0933    0.0000 C   0  0  0  0  0  0  0  0  0  0  0  0
    2.8654   -6.1400    0.0000 C   0  0  0  0  0  0  0  0  0  0  0  0
    3.5817   -6.5494    0.0000 C   0  0  0  0  0  0  0  0  0  0  0  0
    3.5817   -4.0933    0.0000 C   0  0  0  0  0  0  0  0  0  0  0  0
    5.0144   -4.9120    0.0000 C   0  0  0  0  0  0  0  0  0  0  0  0
    1.5350   -3.5817    0.0000 C   0  0  0  0  0  0  0  0  0  0  0  0
    1.2792   -2.1490    0.0000 C   0  0  0  0  0  0  0  0  0  0  0  0
    5.7307   -6.1400    0.0000 C   0  0  0  0  0  0  0  0  0  0  0  0
    5.7307   -5.3214    0.0000 C   0  0  0  0  0  0  0  0  0  0  0  0
    1.6373   -1.4326    0.0000 C   0  0  0  0  0  0  0  0  0  0  0  0
    5.7307   -7.7774    0.0000 C   0  0  0  0  0  0  0  0  0  0  0  0
    4.2980   -7.7774    0.0000 C   0  0  0  0  0  0  0  0  0  0  0  0
    0.4605   -2.2514    0.0000 C   0  0  0  0  0  0  0  0  0  0  0  0
    1.1768   -0.7675    0.0000 C   0  0  0  0  0  0  0  0  0  0  0  0
    0.0000   -1.5862    0.0000 C   0  0  0  0  0  0  0  0  0  0  0  0
    0.3582   -0.8187    0.0000 C   0  0  0  0  0  0  0  0  0  0  0  0
    5.7307   -8.5961    0.0000 C   0  0  0  0  0  0  0  0  0  0  0  0
    4.2980   -8.5961    0.0000 C   0  0  0  0  0  0  0  0  0  0  0  0
    4.9632   -9.0054    0.0000 C   0  0  0  0  0  0  0  0  0  0  0  0
    5.6795  -10.2334    0.0000 C   0  0  0  0  0  0  0  0  0  0  0  0
  1 30  1  0  0  0  0
  2 26  1  0  0  0  0
  3 15  2  0  0  0  0
  4 20  2  0  0  0  0
  5 20  1  0  0  0  0
  6 35  1  0  0  0  0
  6 36  1  0  0  0  0
  7 12  1  0  0  0  0
  7 15  1  0  0  0  0
  7 18  1  0  0  0  0
  8 11  1  0  0  0  0
  8 22  1  0  0  0  0
  8 23  1  0  0  0  0
  9 16  1  0  0  0  0
  9 27  1  0  0  0  0
  9 28  1  0  0  0  0
 10 11  2  0  0  0  0
 10 17  1  0  0  0  0
 12 13  1  0  0  0  0
 12 20  1  0  0  0  0
 13 14  2  0  0  0  0
 13 21  1  0  0  0  0
 14 16  1  0  0  0  0
 14 19  1  0  0  0  0
 15 17  1  0  0  0  0
 16 24  2  0  0  0  0
 17 22  2  0  0  0  0
 18 19  1  0  0  0  0
 21 25  2  0  0  0  0
 23 26  1  0  0  0  0
 23 29  2  0  0  0  0
 24 25  1  0  0  0  0
 26 30  2  0  0  0  0
 27 33  1  0  0  0  0
 28 34  1  0  0  0  0
 29 31  1  0  0  0  0
 30 32  1  0  0  0  0
 31 32  2  0  0  0  0
 33 35  1  0  0  0  0
 34 35  1  0  0  0  0
M  END
> <PUBCHEM_COMPOUND_ID_TYPE>
0

> <PUBCHEM_TOTAL_CHARGE>
0

> <PUBCHEM_SUBSTANCE_ID>
310933800

> <PUBCHEM_SUBSTANCE_VERSION>
1

> <PUBCHEM_EXT_DATASOURCE_NAME>
4488

> <PUBCHEM_EXT_DATASOURCE_REGID>
SCHEMBL16111238

> <PUBCHEM_SUBSTANCE_COMMENT>
InChI=1S/C25H25ClFN5O4/c1-36-15-8-11-30(12-9-15)20-6-2-4-17-16(20)10-13-31(23(17)25(34)35)24(33)19-14-32(29-28-19)21-7-3-5-18(26)22(21)27/h2-7,14-15,23H,8-13H2,1H3,(H,34,35)
InChIKey=WUMTWFKPGMWMHY-UHFFFAOYSA-N

> <PUBCHEM_SUBSTANCE_SYNONYM>
SCHEMBL16111238

> <PUBCHEM_XREF_EXT_ID>
SCHEMBL16111238

> <PUBCHEM_EXT_DATASOURCE_URL>
https://www.surechembl.org/

> <PUBCHEM_EXT_SUBSTANCE_URL>
https://www.surechembl.org/chemical/SCHEMBL16111238

> <PUBCHEM_CID_ASSOCIATIONS>
117602148  1

> <PUBCHEM_COORDINATE_TYPE>
1
3

$$$$
