310940802
  -OEChem-07211613022D

 41 44  0     1  0  0  0  0  0999 V2000
    5.1681   -1.0150    0.0000 O   0  0  0  0  0  0  0  0  0  0  0  0
    4.0387    0.9435    0.0000 O   0  0  0  0  0  0  0  0  0  0  0  0
    1.6798   -1.0007    0.0000 O   0  0  0  0  0  0  0  0  0  0  0  0
   -0.4789    1.0723    0.0000 O   0  0  0  0  0  0  0  0  0  0  0  0
    3.8242    2.7163    0.0000 O   0  0  0  0  0  0  0  0  0  0  0  0
   -2.6377   -1.0007    0.0000 O   0  0  0  0  0  0  0  0  0  0  0  0
   -5.4969   -1.0007    0.0000 O   0  0  0  0  0  0  0  0  0  0  0  0
    2.3946    0.2430    0.0000 N   0  0  0  0  0  0  0  0  0  0  0  0
    0.2359   -0.1715    0.0000 N   0  0  0  0  0  0  0  0  0  0  0  0
   -1.9085    0.2430    0.0000 N   0  0  0  0  0  0  0  0  0  0  0  0
   -4.0673   -0.1715    0.0000 N   0  0  0  0  0  0  0  0  0  0  0  0
    4.7678   -0.2716    0.0000 C   0  0  3  0  0  0  0  0  0  0  0  0
    4.0387    0.1286    0.0000 C   0  0  0  0  0  0  0  0  0  0  0  0
    4.3675   -0.9864    0.0000 C   0  0  0  0  0  0  0  0  0  0  0  0
    3.3382   -0.2716    0.0000 C   0  0  3  0  0  0  0  0  0  0  0  0
    5.4969    0.1286    0.0000 C   0  0  0  0  0  0  0  0  0  0  0  0
    3.3238   -1.3439    0.0000 C   0  0  0  0  0  0  0  0  0  0  0  0
    1.6798   -0.1286    0.0000 C   0  0  0  0  0  0  0  0  0  0  0  0
    0.9650    0.2716    0.0000 C   0  0  3  0  0  0  0  0  0  0  0  0
    2.6090   -1.7584    0.0000 C   0  0  0  0  0  0  0  0  0  0  0  0
    0.9793    1.1008    0.0000 C   0  0  0  0  0  0  0  0  0  0  0  0
    1.6798    1.5154    0.0000 C   0  0  0  0  0  0  0  0  0  0  0  0
   -0.4789    0.2430    0.0000 C   0  0  0  0  0  0  0  0  0  0  0  0
    1.8513   -1.4296    0.0000 C   0  0  0  0  0  0  0  0  0  0  0  0
    2.5090   -2.5733    0.0000 C   0  0  0  0  0  0  0  0  0  0  0  0
   -1.1794   -0.1430    0.0000 C   0  0  3  0  0  0  0  0  0  0  0  0
    1.3081   -2.0301    0.0000 C   0  0  0  0  0  0  0  0  0  0  0  0
    1.7084   -2.7306    0.0000 C   0  0  0  0  0  0  0  0  0  0  0  0
    2.4089    1.1008    0.0000 C   0  0  0  0  0  0  0  0  0  0  0  0
    1.6941    2.3446    0.0000 C   0  0  0  0  0  0  0  0  0  0  0  0
    3.1094    2.3446    0.0000 C   0  0  0  0  0  0  0  0  0  0  0  0
    3.1094    1.5154    0.0000 C   0  0  0  0  0  0  0  0  0  0  0  0
    2.3803    2.7306    0.0000 C   0  0  0  0  0  0  0  0  0  0  0  0
   -2.6233   -0.1286    0.0000 C   0  0  0  0  0  0  0  0  0  0  0  0
   -3.3525    0.2574    0.0000 C   0  0  0  0  0  0  0  0  0  0  0  0
   -1.1937   -0.9864    0.0000 C   0  0  0  0  0  0  0  0  0  0  0  0
   -4.0673   -0.9722    0.0000 C   0  0  0  0  0  0  0  0  0  0  0  0
   -4.8106    0.2574    0.0000 C   0  0  0  0  0  0  0  0  0  0  0  0
   -4.7535   -1.3724    0.0000 C   0  0  0  0  0  0  0  0  0  0  0  0
   -5.4826   -0.1430    0.0000 C   0  0  0  0  0  0  0  0  0  0  0  0
    4.5676    2.3160    0.0000 C   0  0  0  0  0  0  0  0  0  0  0  0
  1 12  1  0  0  0  0
  1 14  1  0  0  0  0
  2 13  2  0  0  0  0
  3 18  2  0  0  0  0
  4 23  2  0  0  0  0
  5 31  1  0  0  0  0
  5 41  1  0  0  0  0
  6 34  2  0  0  0  0
  7 39  1  0  0  0  0
  7 40  1  0  0  0  0
  8 15  1  0  0  0  0
  8 18  1  0  0  0  0
  9 19  1  0  0  0  0
  9 23  1  0  0  0  0
 10 26  1  0  0  0  0
 10 34  1  0  0  0  0
 11 35  1  0  0  0  0
 11 37  1  0  0  0  0
 11 38  1  0  0  0  0
 12 13  1  0  0  0  0
 12 14  1  0  0  0  0
 12 16  1  0  0  0  0
 13 15  1  0  0  0  0
 15 17  1  0  0  0  0
 17 20  1  0  0  0  0
 18 19  1  0  0  0  0
 19 21  1  0  0  0  0
 20 24  1  0  0  0  0
 20 25  1  0  0  0  0
 21 22  1  0  0  0  0
 22 29  2  0  0  0  0
 22 30  1  0  0  0  0
 23 26  1  0  0  0  0
 24 27  1  0  0  0  0
 25 28  1  0  0  0  0
 26 36  1  0  0  0  0
 27 28  1  0  0  0  0
 29 32  1  0  0  0  0
 30 33  2  0  0  0  0
 31 32  2  0  0  0  0
 31 33  1  0  0  0  0
 34 35  1  0  0  0  0
 37 39  1  0  0  0  0
 38 40  1  0  0  0  0
M  END
> <PUBCHEM_COMPOUND_ID_TYPE>
0

> <PUBCHEM_TOTAL_CHARGE>
0

> <PUBCHEM_SUBSTANCE_ID>
310940802

> <PUBCHEM_SUBSTANCE_VERSION>
1

> <PUBCHEM_EXT_DATASOURCE_NAME>
4488

> <PUBCHEM_EXT_DATASOURCE_REGID>
SCHEMBL16118761

> <PUBCHEM_SUBSTANCE_COMMENT>
InChI=1S/C30H44N4O7/c1-20(31-26(35)18-34-12-14-40-15-13-34)28(37)33-25(17-22-8-10-23(39-3)11-9-22)29(38)32-24(16-21-6-4-5-7-21)27(36)30(2)19-41-30/h8-11,20-21,24-25H,4-7,12-19H2,1-3H3,(H,31,35)(H,32,38)(H,33,37)
InChIKey=ZWGPKLDPIRVKIN-UHFFFAOYSA-N

> <PUBCHEM_SUBSTANCE_SYNONYM>
SCHEMBL16118761

> <PUBCHEM_XREF_EXT_ID>
SCHEMBL16118761

> <PUBCHEM_EXT_DATASOURCE_URL>
https://www.surechembl.org/

> <PUBCHEM_EXT_SUBSTANCE_URL>
https://www.surechembl.org/chemical/SCHEMBL16118761

> <PUBCHEM_CID_ASSOCIATIONS>
86296339  1

> <PUBCHEM_COORDINATE_TYPE>
1
3

$$$$
