310937866
  -OEChem-07211613022D

 22 23  0     1  0  0  0  0  0999 V2000
   -5.0013   -1.1120    0.0000 Br  0  0  0  0  0  0  0  0  0  0  0  0
   -2.8108    0.1979    0.0000 O   0  0  0  0  0  0  0  0  0  0  0  0
    0.0000   -1.5245    0.0000 O   0  0  0  0  0  0  0  0  0  0  0  0
   -0.7144   -0.2870    0.0000 O   0  0  0  0  0  0  0  0  0  0  0  0
   -1.4760    0.1979    0.0000 N   0  0  0  0  0  0  0  0  0  0  0  0
   -2.1434   -1.1120    0.0000 C   0  0  3  0  0  0  0  0  0  0  0  0
   -2.1434   -0.2870    0.0000 C   0  0  0  0  0  0  0  0  0  0  0  0
   -2.8579   -1.5245    0.0000 C   0  0  0  0  0  0  0  0  0  0  0  0
   -1.4290   -1.5245    0.0000 C   0  0  0  0  0  0  0  0  0  0  0  0
   -2.5559    0.9826    0.0000 C   0  0  0  0  0  0  0  0  0  0  0  0
   -3.5724   -1.1120    0.0000 C   0  0  0  0  0  0  0  0  0  0  0  0
   -0.7144   -1.1120    0.0000 C   0  0  0  0  0  0  0  0  0  0  0  0
   -2.8579   -2.3495    0.0000 C   0  0  0  0  0  0  0  0  0  0  0  0
   -1.7309    0.9826    0.0000 C   0  0  0  0  0  0  0  0  0  0  0  0
   -4.2868   -1.5245    0.0000 C   0  0  0  0  0  0  0  0  0  0  0  0
    0.7144   -1.1120    0.0000 C   0  0  0  0  0  0  0  0  0  0  0  0
   -3.5724   -2.7620    0.0000 C   0  0  0  0  0  0  0  0  0  0  0  0
   -4.2868   -2.3495    0.0000 C   0  0  0  0  0  0  0  0  0  0  0  0
   -3.0408    1.6500    0.0000 C   0  0  0  0  0  0  0  0  0  0  0  0
    1.4290   -1.5245    0.0000 C   0  0  0  0  0  0  0  0  0  0  0  0
    1.4290   -0.6995    0.0000 C   0  0  0  0  0  0  0  0  0  0  0  0
    0.7144   -0.2870    0.0000 C   0  0  0  0  0  0  0  0  0  0  0  0
  1 15  1  0  0  0  0
  2  7  1  0  0  0  0
  2 10  1  0  0  0  0
  3 12  1  0  0  0  0
  3 16  1  0  0  0  0
  4 12  2  0  0  0  0
  5  7  2  0  0  0  0
  5 14  1  0  0  0  0
  6  7  1  0  0  0  0
  6  8  1  0  0  0  0
  6  9  1  0  0  0  0
  8 11  1  0  0  0  0
  8 13  2  0  0  0  0
  9 12  1  0  0  0  0
 10 14  2  0  0  0  0
 10 19  1  0  0  0  0
 11 15  2  0  0  0  0
 13 17  1  0  0  0  0
 15 18  1  0  0  0  0
 16 20  1  0  0  0  0
 16 21  1  0  0  0  0
 16 22  1  0  0  0  0
 17 18  2  0  0  0  0
M  END
> <PUBCHEM_COMPOUND_ID_TYPE>
0

> <PUBCHEM_TOTAL_CHARGE>
0

> <PUBCHEM_SUBSTANCE_ID>
310937866

> <PUBCHEM_SUBSTANCE_VERSION>
1

> <PUBCHEM_EXT_DATASOURCE_NAME>
4488

> <PUBCHEM_EXT_DATASOURCE_REGID>
SCHEMBL16115690

> <PUBCHEM_SUBSTANCE_COMMENT>
InChI=1S/C17H20BrNO3/c1-11-10-19-16(21-11)14(9-15(20)22-17(2,3)4)12-6-5-7-13(18)8-12/h5-8,10,14H,9H2,1-4H3
InChIKey=IOGXOVRLRNCRPB-UHFFFAOYSA-N

> <PUBCHEM_SUBSTANCE_SYNONYM>
SCHEMBL16115690

> <PUBCHEM_XREF_EXT_ID>
SCHEMBL16115690

> <PUBCHEM_EXT_DATASOURCE_URL>
https://www.surechembl.org/

> <PUBCHEM_EXT_SUBSTANCE_URL>
https://www.surechembl.org/chemical/SCHEMBL16115690

> <PUBCHEM_CID_ASSOCIATIONS>
117605489  1

> <PUBCHEM_COORDINATE_TYPE>
1
3

$$$$
