310946091
  -OEChem-07211613022D

 37 40  0     1  0  0  0  0  0999 V2000
    2.8661   -7.3052    0.0000 F   0  0  0  0  0  0  0  0  0  0  0  0
    1.7391   -7.0032    0.0000 F   0  0  0  0  0  0  0  0  0  0  0  0
    1.4372   -8.1302    0.0000 F   0  0  0  0  0  0  0  0  0  0  0  0
    3.3891   -9.2572    0.0000 F   0  0  0  0  0  0  0  0  0  0  0  0
    4.2141   -8.4322    0.0000 F   0  0  0  0  0  0  0  0  0  0  0  0
    3.3891   -7.6072    0.0000 F   0  0  0  0  0  0  0  0  0  0  0  0
   -0.7359   -7.0032    0.0000 O   0  0  0  0  0  0  0  0  0  0  0  0
    0.3441   -6.2186    0.0000 O   0  0  0  0  0  0  0  0  0  0  0  0
   -0.5783   -4.9491    0.0000 O   0  0  0  0  0  0  0  0  0  0  0  0
   -2.0707   -3.6391    0.0000 O   0  0  0  0  0  0  0  0  0  0  0  0
   -3.4526   -4.5366    0.0000 O   0  0  0  0  0  0  0  0  0  0  0  0
    2.1516   -9.1466    0.0000 O   0  0  0  0  0  0  0  0  0  0  0  0
   -3.4997   -3.6391    0.0000 O   0  0  0  0  0  0  0  0  0  0  0  0
    0.9141   -9.8611    0.0000 O   0  0  0  0  0  0  0  0  0  0  0  0
   -0.9908   -6.2186    0.0000 C   0  0  3  0  0  0  0  0  0  0  0  0
   -1.6582   -5.7337    0.0000 C   0  0  3  0  0  0  0  0  0  0  0  0
   -0.3234   -5.7337    0.0000 C   0  0  3  0  0  0  0  0  0  0  0  0
    0.0891   -7.0032    0.0000 C   0  0  0  0  0  0  0  0  0  0  0  0
   -1.4033   -4.9491    0.0000 C   0  0  3  0  0  0  0  0  0  0  0  0
   -2.0707   -4.4641    0.0000 C   0  0  3  0  0  0  0  0  0  0  0  0
   -2.4832   -5.7337    0.0000 C   0  0  0  0  0  0  0  0  0  0  0  0
   -2.7382   -4.9491    0.0000 C   0  0  0  0  0  0  0  0  0  0  0  0
    0.9141   -7.0032    0.0000 C   0  0  0  0  0  0  0  0  0  0  0  0
   -0.3234   -7.7177    0.0000 C   0  0  0  0  0  0  0  0  0  0  0  0
    0.9141   -8.4322    0.0000 C   0  0  0  0  0  0  0  0  0  0  0  0
    0.0891   -8.4322    0.0000 C   0  0  0  0  0  0  0  0  0  0  0  0
    1.3266   -7.7177    0.0000 C   0  0  0  0  0  0  0  0  0  0  0  0
   -2.7852   -3.2266    0.0000 C   0  0  0  0  0  0  0  0  0  0  0  0
    1.3266   -9.1466    0.0000 C   0  0  0  0  0  0  0  0  0  0  0  0
    2.5641   -8.4322    0.0000 C   0  0  0  0  0  0  0  0  0  0  0  0
   -2.7852   -2.4016    0.0000 C   0  0  0  0  0  0  0  0  0  0  0  0
    2.1516   -7.7177    0.0000 C   0  0  0  0  0  0  0  0  0  0  0  0
    3.3891   -8.4322    0.0000 C   0  0  0  0  0  0  0  0  0  0  0  0
   -3.4997   -1.9891    0.0000 C   0  0  0  0  0  0  0  0  0  0  0  0
   -2.0707   -1.9891    0.0000 C   0  0  0  0  0  0  0  0  0  0  0  0
   -2.7852   -1.5766    0.0000 C   0  0  0  0  0  0  0  0  0  0  0  0
   -4.2141   -2.4016    0.0000 C   0  0  0  0  0  0  0  0  0  0  0  0
  1 32  1  0  0  0  0
  2 32  1  0  0  0  0
  3 32  1  0  0  0  0
  4 33  1  0  0  0  0
  5 33  1  0  0  0  0
  6 33  1  0  0  0  0
  7 15  1  0  0  0  0
  7 18  1  0  0  0  0
  8 17  1  0  0  0  0
  8 18  1  0  0  0  0
  9 17  1  0  0  0  0
  9 19  1  0  0  0  0
 10 20  1  0  0  0  0
 10 28  1  0  0  0  0
 11 22  2  0  0  0  0
 12 29  1  0  0  0  0
 12 30  1  0  0  0  0
 13 28  2  0  0  0  0
 14 29  2  0  0  0  0
 15 16  1  0  0  0  0
 15 17  1  0  0  0  0
 16 19  1  0  0  0  0
 16 21  1  0  0  0  0
 18 23  1  0  0  0  0
 18 24  1  0  0  0  0
 19 20  1  0  0  0  0
 20 22  1  0  0  0  0
 21 22  1  0  0  0  0
 23 27  1  0  0  0  0
 24 26  1  0  0  0  0
 25 26  1  0  0  0  0
 25 27  1  0  0  0  0
 25 29  1  0  0  0  0
 28 31  1  0  0  0  0
 30 32  1  0  0  0  0
 30 33  1  0  0  0  0
 31 34  1  0  0  0  0
 31 35  1  0  0  0  0
 31 36  1  0  0  0  0
 34 37  1  0  0  0  0
M  END
> <PUBCHEM_COMPOUND_ID_TYPE>
0

> <PUBCHEM_TOTAL_CHARGE>
0

> <PUBCHEM_SUBSTANCE_ID>
310946091

> <PUBCHEM_SUBSTANCE_VERSION>
1

> <PUBCHEM_EXT_DATASOURCE_NAME>
4488

> <PUBCHEM_EXT_DATASOURCE_REGID>
SCHEMBL16124198

> <PUBCHEM_SUBSTANCE_COMMENT>
InChI=1S/C23H28F6O8/c1-4-20(2,3)19(32)34-15-12(30)9-11-13(15)33-17-14(11)36-21(37-17)7-5-10(6-8-21)16(31)35-18(22(24,25)26)23(27,28)29/h10-11,13-15,17-18H,4-9H2,1-3H3
InChIKey=GFSBWIKVYLWVPD-UHFFFAOYSA-N

> <PUBCHEM_SUBSTANCE_SYNONYM>
SCHEMBL16124198

> <PUBCHEM_XREF_EXT_ID>
SCHEMBL16124198

> <PUBCHEM_EXT_DATASOURCE_URL>
https://www.surechembl.org/

> <PUBCHEM_EXT_SUBSTANCE_URL>
https://www.surechembl.org/chemical/SCHEMBL16124198

> <PUBCHEM_CID_ASSOCIATIONS>
117612056  1

> <PUBCHEM_COORDINATE_TYPE>
1
3

$$$$
