310941430
  -OEChem-07211613022D

 33 35  0     1  0  0  0  0  0999 V2000
   -3.2645   -2.9550    0.0000 Cl  0  0  0  0  0  0  0  0  0  0  0  0
   -2.9992    2.7781    0.0000 F   0  0  0  0  0  0  0  0  0  0  0  0
   -1.8939    2.9550    0.0000 F   0  0  0  0  0  0  0  0  0  0  0  0
   -1.7318    1.8496    0.0000 F   0  0  0  0  0  0  0  0  0  0  0  0
   -0.8474   -0.4643    0.0000 F   0  0  0  0  0  0  0  0  0  0  0  0
    0.0369    2.2771    0.0000 F   0  0  0  0  0  0  0  0  0  0  0  0
   -1.8202   -2.1149    0.0000 F   0  0  0  0  0  0  0  0  0  0  0  0
   -1.1864    1.1569    0.0000 O   0  0  0  0  0  0  0  0  0  0  0  0
    3.5298   -0.3759    0.0000 O   0  0  0  0  0  0  0  0  0  0  0  0
    3.9719    0.9800    0.0000 O   0  0  0  0  0  0  0  0  0  0  0  0
   -2.6013    0.8769    0.0000 C   0  0  0  0  0  0  0  0  0  0  0  0
   -2.8518    1.6580    0.0000 C   0  0  0  0  0  0  0  0  0  0  0  0
   -3.2645    0.3906    0.0000 C   0  0  3  0  0  0  0  0  0  0  0  0
   -2.3655    2.3213    0.0000 C   0  0  0  0  0  0  0  0  0  0  0  0
   -3.2792   -0.4495    0.0000 C   0  0  0  0  0  0  0  0  0  0  0  0
   -3.6625    1.6580    0.0000 C   0  0  0  0  0  0  0  0  0  0  0  0
   -3.9130    0.8621    0.0000 C   0  0  0  0  0  0  0  0  0  0  0  0
   -1.8055    0.6117    0.0000 C   0  0  0  0  0  0  0  0  0  0  0  0
   -0.4053    0.9064    0.0000 C   0  0  0  0  0  0  0  0  0  0  0  0
   -2.5570   -0.8621    0.0000 C   0  0  0  0  0  0  0  0  0  0  0  0
   -3.9719   -0.8621    0.0000 C   0  0  0  0  0  0  0  0  0  0  0  0
   -0.2432    0.0958    0.0000 C   0  0  0  0  0  0  0  0  0  0  0  0
    0.2137    1.4665    0.0000 C   0  0  0  0  0  0  0  0  0  0  0  0
   -2.5570   -1.6875    0.0000 C   0  0  0  0  0  0  0  0  0  0  0  0
    1.1569    0.4053    0.0000 C   0  0  0  0  0  0  0  0  0  0  0  0
   -3.2645   -2.1002    0.0000 C   0  0  0  0  0  0  0  0  0  0  0  0
   -3.9719   -1.7023    0.0000 C   0  0  0  0  0  0  0  0  0  0  0  0
    0.5527   -0.1547    0.0000 C   0  0  0  0  0  0  0  0  0  0  0  0
    0.9948    1.2011    0.0000 C   0  0  0  0  0  0  0  0  0  0  0  0
    1.9676    0.1400    0.0000 C   0  0  0  0  0  0  0  0  0  0  0  0
    2.5718    0.7148    0.0000 C   0  0  3  0  0  0  0  0  0  0  0  0
    3.3677    0.4643    0.0000 C   0  0  0  0  0  0  0  0  0  0  0  0
    2.3949    1.5107    0.0000 C   0  0  0  0  0  0  0  0  0  0  0  0
  1 26  1  0  0  0  0
  2 14  1  0  0  0  0
  3 14  1  0  0  0  0
  4 14  1  0  0  0  0
  5 22  1  0  0  0  0
  6 23  1  0  0  0  0
  7 24  1  0  0  0  0
  8 18  1  0  0  0  0
  8 19  1  0  0  0  0
  9 32  2  0  0  0  0
 10 32  1  0  0  0  0
 11 12  2  0  0  0  0
 11 13  1  0  0  0  0
 11 18  1  0  0  0  0
 12 14  1  0  0  0  0
 12 16  1  0  0  0  0
 13 15  1  0  0  0  0
 13 17  1  0  0  0  0
 15 20  2  0  0  0  0
 15 21  1  0  0  0  0
 16 17  2  0  0  0  0
 19 22  2  0  0  0  0
 19 23  1  0  0  0  0
 20 24  1  0  0  0  0
 21 27  2  0  0  0  0
 22 28  1  0  0  0  0
 23 29  2  0  0  0  0
 24 26  2  0  0  0  0
 25 28  2  0  0  0  0
 25 29  1  0  0  0  0
 25 30  1  0  0  0  0
 26 27  1  0  0  0  0
 30 31  1  0  0  0  0
 31 32  1  0  0  0  0
 31 33  1  0  0  0  0
M  END
> <PUBCHEM_COMPOUND_ID_TYPE>
0

> <PUBCHEM_TOTAL_CHARGE>
0

> <PUBCHEM_SUBSTANCE_ID>
310941430

> <PUBCHEM_SUBSTANCE_VERSION>
1

> <PUBCHEM_EXT_DATASOURCE_NAME>
4488

> <PUBCHEM_EXT_DATASOURCE_REGID>
SCHEMBL16119390

> <PUBCHEM_SUBSTANCE_COMMENT>
InChI=1S/C23H17ClF6O3/c1-11(22(31)32)6-12-7-19(26)21(20(27)8-12)33-10-15-14(3-4-16(15)23(28,29)30)13-2-5-17(24)18(25)9-13/h2-5,7-9,11,14H,6,10H2,1H3,(H,31,32)
InChIKey=KLAGOIZTGZRYHR-UHFFFAOYSA-N

> <PUBCHEM_SUBSTANCE_SYNONYM>
SCHEMBL16119390

> <PUBCHEM_XREF_EXT_ID>
SCHEMBL16119390

> <PUBCHEM_EXT_DATASOURCE_URL>
https://www.surechembl.org/

> <PUBCHEM_EXT_SUBSTANCE_URL>
https://www.surechembl.org/chemical/SCHEMBL16119390

> <PUBCHEM_CID_ASSOCIATIONS>
117608255  1

> <PUBCHEM_COORDINATE_TYPE>
1
3

$$$$
