310936183
  -OEChem-07211613022D

 32 35  0     1  0  0  0  0  0999 V2000
    0.3080   -3.7125    0.0000 O   0  0  0  0  0  0  0  0  0  0  0  0
    3.6891   -3.5200    0.0000 O   0  0  0  0  0  0  0  0  0  0  0  0
    3.5448   -4.8470    0.0000 O   0  0  0  0  0  0  0  0  0  0  0  0
    0.7061   -3.8670    0.0000 O   0  0  0  0  0  0  0  0  0  0  0  0
   -0.1380   -5.0200    0.0000 O   0  0  0  0  0  0  0  0  0  0  0  0
   -0.7145   -3.7125    0.0000 N   0  0  0  0  0  0  0  0  0  0  0  0
    0.7953   -3.0468    0.0000 C   0  0  3  0  0  0  0  0  0  0  0  0
    0.1296   -2.5595    0.0000 C   0  0  3  0  0  0  0  0  0  0  0  0
    1.4610   -3.5341    0.0000 C   0  0  0  0  0  0  0  0  0  0  0  0
    0.2188   -1.7393    0.0000 C   0  0  0  0  0  0  0  0  0  0  0  0
    2.2159   -3.2013    0.0000 C   0  0  0  0  0  0  0  0  0  0  0  0
    2.8815   -3.6886    0.0000 C   0  0  0  0  0  0  0  0  0  0  0  0
    1.2826   -2.3811    0.0000 C   0  0  0  0  0  0  0  0  0  0  0  0
   -0.6253   -2.8923    0.0000 C   0  0  0  0  0  0  0  0  0  0  0  0
    1.3718   -4.3543    0.0000 C   0  0  0  0  0  0  0  0  0  0  0  0
    2.7924   -4.5088    0.0000 C   0  0  0  0  0  0  0  0  0  0  0  0
    0.9737   -1.4065    0.0000 C   0  0  0  0  0  0  0  0  0  0  0  0
    2.0375   -4.8416    0.0000 C   0  0  0  0  0  0  0  0  0  0  0  0
    1.0628   -0.5863    0.0000 C   0  0  0  0  0  0  0  0  0  0  0  0
   -0.4469   -1.2520    0.0000 C   0  0  0  0  0  0  0  0  0  0  0  0
    0.3971   -0.0990    0.0000 C   0  0  0  0  0  0  0  0  0  0  0  0
   -0.3577   -0.4318    0.0000 C   0  0  0  0  0  0  0  0  0  0  0  0
    4.0991   -4.2359    0.0000 C   0  0  0  0  0  0  0  0  0  0  0  0
    0.6408   -4.4674    0.0000 C   0  0  0  0  0  0  0  0  0  0  0  0
    2.1028   -2.4703    0.0000 C   0  0  0  0  0  0  0  0  0  0  0  0
    1.8177   -0.2535    0.0000 C   0  0  0  0  0  0  0  0  0  0  0  0
   -0.0488   -4.1998    0.0000 C   0  0  0  0  0  0  0  0  0  0  0  0
    0.4863    0.7212    0.0000 C   0  0  0  0  0  0  0  0  0  0  0  0
   -1.4693   -4.0453    0.0000 C   0  0  0  0  0  0  0  0  0  0  0  0
    1.9069    0.5667    0.0000 C   0  0  0  0  0  0  0  0  0  0  0  0
    1.2412    1.0540    0.0000 C   0  0  0  0  0  0  0  0  0  0  0  0
   -2.1350   -3.5580    0.0000 C   0  0  0  0  0  0  0  0  0  0  0  0
  1  7  1  0  0  0  0
  1 24  1  0  0  0  0
  2 12  1  0  0  0  0
  2 23  1  0  0  0  0
  3 16  1  0  0  0  0
  3 23  1  0  0  0  0
  4 27  2  0  0  0  0
  5 27  1  0  0  0  0
  6 14  1  0  0  0  0
  6 27  1  0  0  0  0
  6 29  1  0  0  0  0
  7  8  1  0  0  0  0
  7  9  1  0  0  0  0
  7 13  1  0  0  0  0
  8 10  1  0  0  0  0
  8 14  1  0  0  0  0
  9 11  2  0  0  0  0
  9 15  1  0  0  0  0
 10 17  2  0  0  0  0
 10 20  1  0  0  0  0
 11 12  1  0  0  0  0
 12 16  2  0  0  0  0
 13 25  1  0  0  0  0
 15 18  2  0  0  0  0
 16 18  1  0  0  0  0
 17 19  1  0  0  0  0
 19 21  1  0  0  0  0
 19 26  2  0  0  0  0
 20 22  2  0  0  0  0
 21 22  1  0  0  0  0
 21 28  2  0  0  0  0
 26 30  1  0  0  0  0
 28 31  1  0  0  0  0
 29 32  1  0  0  0  0
 30 31  2  0  0  0  0
M  END
> <PUBCHEM_COMPOUND_ID_TYPE>
0

> <PUBCHEM_TOTAL_CHARGE>
0

> <PUBCHEM_SUBSTANCE_ID>
310936183

> <PUBCHEM_SUBSTANCE_VERSION>
1

> <PUBCHEM_EXT_DATASOURCE_NAME>
4488

> <PUBCHEM_EXT_DATASOURCE_REGID>
SCHEMBL16113793

> <PUBCHEM_SUBSTANCE_COMMENT>
InChI=1S/C26H29NO5/c1-4-26(30-3,21-12-13-23-24(15-21)32-17-31-23)22(16-27(5-2)25(28)29)20-11-10-18-8-6-7-9-19(18)14-20/h6-15,22H,4-5,16-17H2,1-3H3,(H,28,29)
InChIKey=WCKZJFCVONLAMG-UHFFFAOYSA-N

> <PUBCHEM_SUBSTANCE_SYNONYM>
SCHEMBL16113793

> <PUBCHEM_XREF_EXT_ID>
SCHEMBL16113793

> <PUBCHEM_EXT_DATASOURCE_URL>
https://www.surechembl.org/

> <PUBCHEM_EXT_SUBSTANCE_URL>
https://www.surechembl.org/chemical/SCHEMBL16113793

> <PUBCHEM_CID_ASSOCIATIONS>
117604140  1

> <PUBCHEM_COORDINATE_TYPE>
1
3

$$$$
