310941935
  -OEChem-07211613022D

 26 25  0     1  0  0  0  0  0999 V2000
   -4.1107   -0.9761    0.0000 S   0  0  0  0  0  0  0  0  0  0  0  0
    1.4161    0.0000    0.0000 O   0  0  0  0  0  0  0  0  0  0  0  0
   -1.4710    0.0000    0.0000 O   0  0  0  0  0  0  0  0  0  0  0  0
    2.1309   -1.2511    0.0000 O   0  0  0  0  0  0  0  0  0  0  0  0
   -2.1859    1.2511    0.0000 O   0  0  0  0  0  0  0  0  0  0  0  0
   -3.6295   -2.0760    0.0000 O   0  0  0  0  0  0  0  0  0  0  0  0
    2.1309    2.0760    0.0000 O   0  0  0  0  0  0  0  0  0  0  0  0
    3.0246    0.8386    0.0000 N   0  0  0  0  0  0  0  0  0  0  0  0
   -2.7496   -0.8249    0.0000 N   0  0  0  0  0  0  0  0  0  0  0  0
    2.8734    0.0000    0.0000 C   0  0  3  0  0  0  0  0  0  0  0  0
   -2.8871    0.0137    0.0000 C   0  0  3  0  0  0  0  0  0  0  0  0
    2.1585   -0.3987    0.0000 C   0  0  0  0  0  0  0  0  0  0  0  0
   -2.1859    0.3987    0.0000 C   0  0  0  0  0  0  0  0  0  0  0  0
    3.5883   -0.3987    0.0000 C   0  0  0  0  0  0  0  0  0  0  0  0
   -3.6295    0.4262    0.0000 C   0  0  0  0  0  0  0  0  0  0  0  0
    0.7149   -0.4124    0.0000 C   0  0  3  0  0  0  0  0  0  0  0  0
   -0.0275    0.0000    0.0000 C   0  0  0  0  0  0  0  0  0  0  0  0
   -0.7149   -0.4124    0.0000 C   0  0  0  0  0  0  0  0  0  0  0  0
    2.1447    1.2373    0.0000 C   0  0  0  0  0  0  0  0  0  0  0  0
   -3.6020   -1.2236    0.0000 C   0  0  0  0  0  0  0  0  0  0  0  0
    4.3169    0.0000    0.0000 C   0  0  0  0  0  0  0  0  0  0  0  0
    3.6020   -1.2373    0.0000 C   0  0  0  0  0  0  0  0  0  0  0  0
   -4.3169    0.0000    0.0000 C   0  0  0  0  0  0  0  0  0  0  0  0
   -3.6157    1.2373    0.0000 C   0  0  0  0  0  0  0  0  0  0  0  0
    0.7286   -1.2373    0.0000 C   0  0  0  0  0  0  0  0  0  0  0  0
    1.3610    0.8249    0.0000 C   0  0  0  0  0  0  0  0  0  0  0  0
  1 20  1  0  0  0  0
  2 12  1  0  0  0  0
  2 16  1  0  0  0  0
  3 13  1  0  0  0  0
  3 18  1  0  0  0  0
  4 12  2  0  0  0  0
  5 13  2  0  0  0  0
  6 20  2  0  0  0  0
  7 19  2  0  0  0  0
  8 10  1  0  0  0  0
  8 19  1  0  0  0  0
  9 11  1  0  0  0  0
  9 20  1  0  0  0  0
 10 12  1  0  0  0  0
 10 14  1  0  0  0  0
 11 13  1  0  0  0  0
 11 15  1  0  0  0  0
 14 21  1  0  0  0  0
 14 22  1  0  0  0  0
 15 23  1  0  0  0  0
 15 24  1  0  0  0  0
 16 17  1  0  0  0  0
 16 25  1  0  0  0  0
 17 18  1  0  0  0  0
 19 26  1  0  0  0  0
M  END
> <PUBCHEM_COMPOUND_ID_TYPE>
0

> <PUBCHEM_TOTAL_CHARGE>
0

> <PUBCHEM_SUBSTANCE_ID>
310941935

> <PUBCHEM_SUBSTANCE_VERSION>
1

> <PUBCHEM_EXT_DATASOURCE_NAME>
4488

> <PUBCHEM_EXT_DATASOURCE_REGID>
SCHEMBL16119968

> <PUBCHEM_SUBSTANCE_COMMENT>
InChI=1S/C17H30N2O6S/c1-9(2)13(19-17(23)26)15(21)24-8-7-11(5)25-16(22)14(10(3)4)18-12(6)20/h9-11,13-14H,7-8H2,1-6H3,(H,18,20)(H2,19,23,26)
InChIKey=IEFUMGXGYOHUJL-UHFFFAOYSA-N

> <PUBCHEM_SUBSTANCE_SYNONYM>
SCHEMBL16119968

> <PUBCHEM_XREF_EXT_ID>
SCHEMBL16119968

> <PUBCHEM_EXT_DATASOURCE_URL>
https://www.surechembl.org/

> <PUBCHEM_EXT_SUBSTANCE_URL>
https://www.surechembl.org/chemical/SCHEMBL16119968

> <PUBCHEM_CID_ASSOCIATIONS>
117608659  1

> <PUBCHEM_COORDINATE_TYPE>
1
3

$$$$
