310936847
  -OEChem-07211613022D

 21 22  0     1  0  0  0  0  0999 V2000
    0.0000   -3.7210    0.0000 Cl  0  0  0  0  0  0  0  0  0  0  0  0
    1.4294   -4.5378    0.0000 Cl  0  0  0  0  0  0  0  0  0  0  0  0
    2.1328    0.0000    0.0000 O   0  0  0  0  0  0  0  0  0  0  0  0
    2.3143   -2.6546    0.0000 O   0  0  0  0  0  0  0  0  0  0  0  0
    0.0000   -0.4311    0.0000 N   0  0  0  0  0  0  0  0  0  0  0  0
    1.4294   -1.2479    0.0000 C   0  0  3  0  0  0  0  0  0  0  0  0
    2.1328   -0.8168    0.0000 C   0  0  3  0  0  0  0  0  0  0  0  0
    1.4294   -2.0647    0.0000 C   0  0  0  0  0  0  0  0  0  0  0  0
    2.8588   -1.2479    0.0000 C   0  0  0  0  0  0  0  0  0  0  0  0
    2.8588   -2.0647    0.0000 C   0  0  0  0  0  0  0  0  0  0  0  0
    0.7260   -2.4731    0.0000 C   0  0  0  0  0  0  0  0  0  0  0  0
    0.7260   -3.2899    0.0000 C   0  0  0  0  0  0  0  0  0  0  0  0
    2.1328   -2.4731    0.0000 C   0  0  0  0  0  0  0  0  0  0  0  0
    1.4294   -3.7210    0.0000 C   0  0  0  0  0  0  0  0  0  0  0  0
    3.5622   -0.8168    0.0000 C   0  0  0  0  0  0  0  0  0  0  0  0
    0.7034   -0.8168    0.0000 C   0  0  0  0  0  0  0  0  0  0  0  0
    2.1328   -3.2899    0.0000 C   0  0  0  0  0  0  0  0  0  0  0  0
    3.5622   -2.4731    0.0000 C   0  0  0  0  0  0  0  0  0  0  0  0
    4.2883   -1.2252    0.0000 C   0  0  0  0  0  0  0  0  0  0  0  0
    4.2883   -2.0647    0.0000 C   0  0  0  0  0  0  0  0  0  0  0  0
    2.3143   -3.4714    0.0000 C   0  0  0  0  0  0  0  0  0  0  0  0
  1 12  1  0  0  0  0
  2 14  1  0  0  0  0
  3  7  1  0  0  0  0
  4 10  1  0  0  0  0
  4 21  1  0  0  0  0
  5 16  3  0  0  0  0
  6  7  1  0  0  0  0
  6  8  1  0  0  0  0
  6 16  1  0  0  0  0
  7  9  1  0  0  0  0
  8 11  1  0  0  0  0
  8 13  2  0  0  0  0
  9 10  1  0  0  0  0
  9 15  2  0  0  0  0
 10 18  2  0  0  0  0
 11 12  2  0  0  0  0
 12 14  1  0  0  0  0
 13 17  1  0  0  0  0
 14 17  2  0  0  0  0
 15 19  1  0  0  0  0
 18 20  1  0  0  0  0
 19 20  2  0  0  0  0
M  END
> <PUBCHEM_COMPOUND_ID_TYPE>
0

> <PUBCHEM_TOTAL_CHARGE>
0

> <PUBCHEM_SUBSTANCE_ID>
310936847

> <PUBCHEM_SUBSTANCE_VERSION>
1

> <PUBCHEM_EXT_DATASOURCE_NAME>
4488

> <PUBCHEM_EXT_DATASOURCE_REGID>
SCHEMBL16114539

> <PUBCHEM_SUBSTANCE_COMMENT>
InChI=1S/C16H13Cl2NO2/c1-21-15-5-3-2-4-11(15)16(20)12(9-19)10-6-7-13(17)14(18)8-10/h2-8,12,16,20H,1H3
InChIKey=DWIWMONQKVYYEP-UHFFFAOYSA-N

> <PUBCHEM_SUBSTANCE_SYNONYM>
SCHEMBL16114539

> <PUBCHEM_XREF_EXT_ID>
SCHEMBL16114539

> <PUBCHEM_EXT_DATASOURCE_URL>
https://www.surechembl.org/

> <PUBCHEM_EXT_SUBSTANCE_URL>
https://www.surechembl.org/chemical/SCHEMBL16114539

> <PUBCHEM_CID_ASSOCIATIONS>
117604739  1

> <PUBCHEM_COORDINATE_TYPE>
1
3

$$$$
