310945259
  -OEChem-07211613022D

 38 42  0     1  0  0  0  0  0999 V2000
    1.8042    2.9794    0.0000 O   0  0  0  0  0  0  0  0  0  0  0  0
    3.9898   -0.7526    0.0000 O   0  0  0  0  0  0  0  0  0  0  0  0
    3.2475   -1.9485    0.0000 O   0  0  0  0  0  0  0  0  0  0  0  0
   -1.4330   -0.8350    0.0000 O   0  0  0  0  0  0  0  0  0  0  0  0
    0.2990    0.6701    0.0000 N   0  0  0  0  0  0  0  0  0  0  0  0
    2.5258   -0.7319    0.0000 N   0  0  0  0  0  0  0  0  0  0  0  0
    2.5258    1.7423    0.0000 N   0  0  0  0  0  0  0  0  0  0  0  0
   -2.6908    1.3299    0.0000 N   0  0  0  0  0  0  0  0  0  0  0  0
   -2.6908   -0.0928    0.0000 N   0  0  0  0  0  0  0  0  0  0  0  0
   -4.7733   -2.2578    0.0000 N   0  0  0  0  0  0  0  0  0  0  0  0
    1.8247    0.5052    0.0000 C   0  0  3  0  0  0  0  0  0  0  0  0
    1.0619    0.9176    0.0000 C   0  0  0  0  0  0  0  0  0  0  0  0
    1.1031    1.7423    0.0000 C   0  0  0  0  0  0  0  0  0  0  0  0
   -0.1959    1.3299    0.0000 C   0  0  0  0  0  0  0  0  0  0  0  0
    1.8042    2.1340    0.0000 C   0  0  0  0  0  0  0  0  0  0  0  0
    2.5258    0.0928    0.0000 C   0  0  0  0  0  0  0  0  0  0  0  0
    2.5258    0.9176    0.0000 C   0  0  0  0  0  0  0  0  0  0  0  0
    0.2990    1.9897    0.0000 C   0  0  0  0  0  0  0  0  0  0  0  0
    1.1237    0.0928    0.0000 C   0  0  0  0  0  0  0  0  0  0  0  0
   -1.0206    1.3505    0.0000 C   0  0  0  0  0  0  0  0  0  0  0  0
    1.1031   -0.7526    0.0000 C   0  0  0  0  0  0  0  0  0  0  0  0
    1.8247   -1.1650    0.0000 C   0  0  0  0  0  0  0  0  0  0  0  0
    3.2475   -1.1443    0.0000 C   0  0  0  0  0  0  0  0  0  0  0  0
   -1.4330    0.6083    0.0000 C   0  0  0  0  0  0  0  0  0  0  0  0
   -1.4330    2.0309    0.0000 C   0  0  0  0  0  0  0  0  0  0  0  0
   -2.2784    0.6288    0.0000 C   0  0  0  0  0  0  0  0  0  0  0  0
   -2.2578    2.0516    0.0000 C   0  0  0  0  0  0  0  0  0  0  0  0
    4.0103    0.0928    0.0000 C   0  0  0  0  0  0  0  0  0  0  0  0
   -2.2990   -0.8145    0.0000 C   0  0  0  0  0  0  0  0  0  0  0  0
   -2.7114   -1.5568    0.0000 C   0  0  0  0  0  0  0  0  0  0  0  0
    4.7733    0.1134    0.0000 C   0  0  0  0  0  0  0  0  0  0  0  0
    3.2475    0.0928    0.0000 C   0  0  0  0  0  0  0  0  0  0  0  0
    3.9898    0.9176    0.0000 C   0  0  0  0  0  0  0  0  0  0  0  0
   -3.5361   -1.5773    0.0000 C   0  0  0  0  0  0  0  0  0  0  0  0
   -2.2990   -2.2990    0.0000 C   0  0  0  0  0  0  0  0  0  0  0  0
   -3.9485   -2.2578    0.0000 C   0  0  0  0  0  0  0  0  0  0  0  0
   -2.6908   -2.9794    0.0000 C   0  0  0  0  0  0  0  0  0  0  0  0
   -3.5155   -2.9794    0.0000 C   0  0  0  0  0  0  0  0  0  0  0  0
  1 15  2  0  0  0  0
  2 23  1  0  0  0  0
  2 28  1  0  0  0  0
  3 23  2  0  0  0  0
  4 29  2  0  0  0  0
  5 12  1  0  0  0  0
  5 14  1  0  0  0  0
  6 16  1  0  0  0  0
  6 22  1  0  0  0  0
  6 23  1  0  0  0  0
  7 15  1  0  0  0  0
  7 17  1  0  0  0  0
  8 26  1  0  0  0  0
  8 27  2  0  0  0  0
  9 26  1  0  0  0  0
  9 29  1  0  0  0  0
 10 36  1  0  0  0  0
 11 12  1  0  0  0  0
 11 16  1  0  0  0  0
 11 17  1  0  0  0  0
 11 19  1  0  0  0  0
 12 13  2  0  0  0  0
 13 15  1  0  0  0  0
 13 18  1  0  0  0  0
 14 18  2  0  0  0  0
 14 20  1  0  0  0  0
 19 21  1  0  0  0  0
 20 24  1  0  0  0  0
 20 25  2  0  0  0  0
 21 22  1  0  0  0  0
 24 26  2  0  0  0  0
 25 27  1  0  0  0  0
 28 31  1  0  0  0  0
 28 32  1  0  0  0  0
 28 33  1  0  0  0  0
 29 30  1  0  0  0  0
 30 34  2  0  0  0  0
 30 35  1  0  0  0  0
 34 36  1  0  0  0  0
 35 37  2  0  0  0  0
 36 38  2  0  0  0  0
 37 38  1  0  0  0  0
M  END
> <PUBCHEM_COMPOUND_ID_TYPE>
0

> <PUBCHEM_TOTAL_CHARGE>
0

> <PUBCHEM_SUBSTANCE_ID>
310945259

> <PUBCHEM_SUBSTANCE_VERSION>
1

> <PUBCHEM_EXT_DATASOURCE_NAME>
4488

> <PUBCHEM_EXT_DATASOURCE_REGID>
SCHEMBL16123353

> <PUBCHEM_SUBSTANCE_COMMENT>
InChI=1S/C28H32N6O4/c1-27(2,3)38-26(37)34-11-5-9-28(16-34)15-31-25(36)20-14-21(32-23(20)28)17-8-10-30-22(13-17)33-24(35)18-6-4-7-19(29)12-18/h4,6-8,10,12-14,32H,5,9,11,15-16,29H2,1-3H3,(H,31,36)(H,30,33,35)
InChIKey=MYCNSRAULFUEMV-UHFFFAOYSA-N

> <PUBCHEM_SUBSTANCE_SYNONYM>
SCHEMBL16123353

> <PUBCHEM_XREF_EXT_ID>
SCHEMBL16123353

> <PUBCHEM_EXT_DATASOURCE_URL>
https://www.surechembl.org/

> <PUBCHEM_EXT_SUBSTANCE_URL>
https://www.surechembl.org/chemical/SCHEMBL16123353

> <PUBCHEM_CID_ASSOCIATIONS>
117611326  1

> <PUBCHEM_COORDINATE_TYPE>
1
3

$$$$
