310931403
  -OEChem-07211613022D

 28 29  0     1  0  0  0  0  0999 V2000
    1.4364   -4.9963    0.0000 S   0  0  0  0  0  0  0  0  0  0  0  0
    1.4989   -0.7806    0.0000 S   0  0  0  0  0  0  0  0  0  0  0  0
    2.1546   -6.2453    0.0000 F   0  0  0  0  0  0  0  0  0  0  0  0
    2.8728   -4.9963    0.0000 F   0  0  0  0  0  0  0  0  0  0  0  0
    2.8728   -5.8394    0.0000 F   0  0  0  0  0  0  0  0  0  0  0  0
    0.7182   -4.5903    0.0000 O   0  0  0  0  0  0  0  0  0  0  0  0
    1.9048   -4.2156    0.0000 O   0  0  0  0  0  0  0  0  0  0  0  0
    1.0305   -5.6833    0.0000 O   0  0  0  0  0  0  0  0  0  0  0  0
    0.7182   -1.2803    0.0000 O   0  0  0  0  0  0  0  0  0  0  0  0
    4.3093   -2.4982    0.0000 O   0  0  0  0  0  0  0  0  0  0  0  0
    3.5910   -1.2803    0.0000 O   0  0  0  0  0  0  0  0  0  0  0  0
    2.8416   -0.7806    0.0000 N   0  0  0  0  0  0  0  0  0  0  0  0
    1.4364   -2.4982    0.0000 C   0  0  0  0  0  0  0  0  0  0  0  0
    2.1546   -5.4022    0.0000 C   0  0  0  0  0  0  0  0  0  0  0  0
    0.7182   -3.7472    0.0000 C   0  0  0  0  0  0  0  0  0  0  0  0
    2.1858   -2.0922    0.0000 C   0  0  3  0  0  0  0  0  0  0  0  0
    0.7182   -2.0922    0.0000 C   0  0  0  0  0  0  0  0  0  0  0  0
    1.4364   -3.3413    0.0000 C   0  0  0  0  0  0  0  0  0  0  0  0
    2.1858   -1.2803    0.0000 C   0  0  0  0  0  0  0  0  0  0  0  0
    0.0000   -3.3413    0.0000 C   0  0  0  0  0  0  0  0  0  0  0  0
    0.0000   -2.4982    0.0000 C   0  0  0  0  0  0  0  0  0  0  0  0
    2.8728   -2.4982    0.0000 C   0  0  0  0  0  0  0  0  0  0  0  0
    3.5910   -2.0922    0.0000 C   0  0  0  0  0  0  0  0  0  0  0  0
    1.7487    0.0000    0.0000 C   0  0  0  0  0  0  0  0  0  0  0  0
    2.5606    0.0000    0.0000 C   0  0  0  0  0  0  0  0  0  0  0  0
    0.0000   -0.8743    0.0000 C   0  0  0  0  0  0  0  0  0  0  0  0
    5.0275   -2.0922    0.0000 C   0  0  0  0  0  0  0  0  0  0  0  0
    5.0275   -1.2803    0.0000 C   0  0  0  0  0  0  0  0  0  0  0  0
  1  6  1  0  0  0  0
  1  7  2  0  0  0  0
  1  8  2  0  0  0  0
  1 14  1  0  0  0  0
  2 19  1  0  0  0  0
  2 24  1  0  0  0  0
  3 14  1  0  0  0  0
  4 14  1  0  0  0  0
  5 14  1  0  0  0  0
  6 15  1  0  0  0  0
  9 17  1  0  0  0  0
  9 26  1  0  0  0  0
 10 23  1  0  0  0  0
 10 27  1  0  0  0  0
 11 23  2  0  0  0  0
 12 19  2  0  0  0  0
 12 25  1  0  0  0  0
 13 16  1  0  0  0  0
 13 17  1  0  0  0  0
 13 18  2  0  0  0  0
 15 18  1  0  0  0  0
 15 20  2  0  0  0  0
 16 19  1  0  0  0  0
 16 22  1  0  0  0  0
 17 21  2  0  0  0  0
 20 21  1  0  0  0  0
 22 23  1  0  0  0  0
 24 25  2  0  0  0  0
 27 28  1  0  0  0  0
M  END
> <PUBCHEM_COMPOUND_ID_TYPE>
0

> <PUBCHEM_TOTAL_CHARGE>
0

> <PUBCHEM_SUBSTANCE_ID>
310931403

> <PUBCHEM_SUBSTANCE_VERSION>
1

> <PUBCHEM_EXT_DATASOURCE_NAME>
4488

> <PUBCHEM_EXT_DATASOURCE_REGID>
SCHEMBL16108727

> <PUBCHEM_SUBSTANCE_COMMENT>
InChI=1S/C16H16F3NO6S2/c1-3-25-14(21)9-12(15-20-6-7-27-15)11-8-10(4-5-13(11)24-2)26-28(22,23)16(17,18)19/h4-8,12H,3,9H2,1-2H3
InChIKey=QALSQCJCVUVJFS-UHFFFAOYSA-N

> <PUBCHEM_SUBSTANCE_SYNONYM>
SCHEMBL16108727

> <PUBCHEM_XREF_EXT_ID>
SCHEMBL16108727

> <PUBCHEM_EXT_DATASOURCE_URL>
https://www.surechembl.org/

> <PUBCHEM_EXT_SUBSTANCE_URL>
https://www.surechembl.org/chemical/SCHEMBL16108727

> <PUBCHEM_CID_ASSOCIATIONS>
117600188  1

> <PUBCHEM_COORDINATE_TYPE>
1
3

$$$$
