310932724
  -OEChem-07211613022D

 13 12  0     1  0  0  0  0  0999 V2000
    0.0000   -1.3257    0.0000 Cl  0  0  0  0  0  0  0  0  0  0  0  0
    1.6628   -1.3257    0.0000 Cl  0  0  0  0  0  0  0  0  0  0  0  0
    5.4376   -1.6402    0.0000 N   0  0  0  0  0  0  0  0  0  0  0  0
    4.0221    0.0000    0.0000 N   0  0  0  0  0  0  0  0  0  0  0  0
    4.7411   -1.2358    0.0000 C   0  0  3  0  0  0  0  0  0  0  0  0
    6.2016   -1.3257    0.0000 C   0  0  0  0  0  0  0  0  0  0  0  0
    5.5275   -2.4717    0.0000 C   0  0  0  0  0  0  0  0  0  0  0  0
    4.7411   -0.4045    0.0000 C   0  0  0  0  0  0  0  0  0  0  0  0
    4.0221   -1.6402    0.0000 C   0  0  0  0  0  0  0  0  0  0  0  0
    6.7409   -1.9323    0.0000 C   0  0  0  0  0  0  0  0  0  0  0  0
    6.3364   -2.6514    0.0000 C   0  0  0  0  0  0  0  0  0  0  0  0
    3.3030   -1.2358    0.0000 C   0  0  0  0  0  0  0  0  0  0  0  0
    3.3030   -0.4045    0.0000 C   0  0  0  0  0  0  0  0  0  0  0  0
  5  3  1  1  0  0  0
  3  6  1  0  0  0  0
  3  7  1  0  0  0  0
  4  8  1  0  0  0  0
  4 13  1  0  0  0  0
  5  8  1  0  0  0  0
  5  9  1  0  0  0  0
  6 10  1  0  0  0  0
  7 11  1  0  0  0  0
  9 12  1  0  0  0  0
 10 11  1  0  0  0  0
 12 13  1  0  0  0  0
M  END
> <PUBCHEM_COMPOUND_ID_TYPE>
0

> <PUBCHEM_TOTAL_CHARGE>
0

> <PUBCHEM_SUBSTANCE_ID>
310932724

> <PUBCHEM_SUBSTANCE_VERSION>
1

> <PUBCHEM_EXT_DATASOURCE_NAME>
4488

> <PUBCHEM_EXT_DATASOURCE_REGID>
SCHEMBL16110108

> <PUBCHEM_SUBSTANCE_COMMENT>
InChI=1S/C9H18N2.2ClH/c1-2-7-11(6-1)9-4-3-5-10-8-9;;/h9-10H,1-8H2;2*1H/t9-;;/m0../s1
InChIKey=SOQCKIXFFBCWJC-WWPIYYJJSA-N

> <PUBCHEM_SUBSTANCE_SYNONYM>
SCHEMBL16110108

> <PUBCHEM_XREF_EXT_ID>
SCHEMBL16110108

> <PUBCHEM_EXT_DATASOURCE_URL>
https://www.surechembl.org/

> <PUBCHEM_EXT_SUBSTANCE_URL>
https://www.surechembl.org/chemical/SCHEMBL16110108

> <PUBCHEM_CID_ASSOCIATIONS>
117601231  1
313  2
51656555  2

> <PUBCHEM_COORDINATE_TYPE>
1
3

> <PUBCHEM_BONDANNOTATIONS>
5  3  5

$$$$
