310930144
  -OEChem-07211613022D

 19 20  0     1  0  0  0  0  0999 V2000
    1.2591    0.0000    0.0000 O   0  0  0  0  0  0  0  0  0  0  0  0
    2.4859   -0.7103    0.0000 O   0  0  0  0  0  0  0  0  0  0  0  0
    1.2591   -1.4528    0.0000 N   0  0  0  0  0  0  0  0  0  0  0  0
    1.6788   -6.4569    0.0000 N   0  0  0  0  0  0  0  0  0  0  0  0
    1.6788   -3.5836    0.0000 C   0  0  0  0  0  0  0  0  0  0  0  0
    1.6788   -2.1631    0.0000 C   0  0  3  0  0  0  0  0  0  0  0  0
    2.4859   -3.5836    0.0000 C   0  0  0  0  0  0  0  0  0  0  0  0
    1.2591   -2.8733    0.0000 C   0  0  0  0  0  0  0  0  0  0  0  0
    2.4859   -2.1631    0.0000 C   0  0  0  0  0  0  0  0  0  0  0  0
    2.9056   -2.8733    0.0000 C   0  0  0  0  0  0  0  0  0  0  0  0
    1.2591   -4.2938    0.0000 C   0  0  0  0  0  0  0  0  0  0  0  0
    1.6788   -5.0364    0.0000 C   0  0  0  0  0  0  0  0  0  0  0  0
    2.9056   -4.2938    0.0000 C   0  0  0  0  0  0  0  0  0  0  0  0
    1.6788   -0.7103    0.0000 C   0  0  0  0  0  0  0  0  0  0  0  0
    2.4859   -5.0364    0.0000 C   0  0  0  0  0  0  0  0  0  0  0  0
    0.4197   -1.4528    0.0000 C   0  0  0  0  0  0  0  0  0  0  0  0
    1.2591   -5.7467    0.0000 C   0  0  0  0  0  0  0  0  0  0  0  0
    0.0000   -2.1631    0.0000 C   0  0  0  0  0  0  0  0  0  0  0  0
    0.4197   -2.8733    0.0000 C   0  0  0  0  0  0  0  0  0  0  0  0
  1 14  2  0  0  0  0
  2 14  1  0  0  0  0
  3  6  1  0  0  0  0
  3 14  1  0  0  0  0
  3 16  1  0  0  0  0
  4 17  3  0  0  0  0
  5  7  2  0  0  0  0
  5  8  1  0  0  0  0
  5 11  1  0  0  0  0
  6  8  1  0  0  0  0
  6  9  1  0  0  0  0
  7 10  1  0  0  0  0
  7 13  1  0  0  0  0
  9 10  1  0  0  0  0
 11 12  2  0  0  0  0
 12 15  1  0  0  0  0
 12 17  1  0  0  0  0
 13 15  2  0  0  0  0
 16 18  1  0  0  0  0
 18 19  2  0  0  0  0
M  END
> <PUBCHEM_COMPOUND_ID_TYPE>
0

> <PUBCHEM_TOTAL_CHARGE>
0

> <PUBCHEM_SUBSTANCE_ID>
310930144

> <PUBCHEM_SUBSTANCE_VERSION>
1

> <PUBCHEM_EXT_DATASOURCE_NAME>
4488

> <PUBCHEM_EXT_DATASOURCE_REGID>
SCHEMBL16107402

> <PUBCHEM_SUBSTANCE_COMMENT>
InChI=1S/C15H16N2O2/c1-2-7-17(15(18)19)14-6-5-12-4-3-11(10-16)8-13(12)9-14/h2-4,8,14H,1,5-7,9H2,(H,18,19)
InChIKey=XZXRGKXIOJNVQV-UHFFFAOYSA-N

> <PUBCHEM_SUBSTANCE_SYNONYM>
SCHEMBL16107402

> <PUBCHEM_XREF_EXT_ID>
SCHEMBL16107402

> <PUBCHEM_EXT_DATASOURCE_URL>
https://www.surechembl.org/

> <PUBCHEM_EXT_SUBSTANCE_URL>
https://www.surechembl.org/chemical/SCHEMBL16107402

> <PUBCHEM_CID_ASSOCIATIONS>
117599370  1

> <PUBCHEM_COORDINATE_TYPE>
1
3

$$$$
