310939671
  -OEChem-07211613022D

 30 33  0     1  0  0  0  0  0999 V2000
   -1.1270    1.4083    0.0000 O   0  0  0  0  0  0  0  0  0  0  0  0
   -2.5559    0.5833    0.0000 O   0  0  0  0  0  0  0  0  0  0  0  0
    2.4454    1.8208    0.0000 N   0  0  0  0  0  0  0  0  0  0  0  0
    3.1599    0.5833    0.0000 N   0  0  0  0  0  0  0  0  0  0  0  0
    2.4454   -0.6542    0.0000 N   0  0  3  0  0  0  0  0  0  0  0  0
   -3.9849    1.4083    0.0000 N   0  0  0  0  0  0  0  0  0  0  0  0
    3.1599    1.4083    0.0000 C   0  0  0  0  0  0  0  0  0  0  0  0
    1.7309    1.4083    0.0000 C   0  0  0  0  0  0  0  0  0  0  0  0
    3.8743    1.8208    0.0000 C   0  0  0  0  0  0  0  0  0  0  0  0
    2.4454    0.1708    0.0000 C   0  0  0  0  0  0  0  0  0  0  0  0
    1.0164    1.8208    0.0000 C   0  0  0  0  0  0  0  0  0  0  0  0
    1.7309    0.5833    0.0000 C   0  0  0  0  0  0  0  0  0  0  0  0
    4.6993    1.8208    0.0000 C   0  0  0  0  0  0  0  0  0  0  0  0
    4.2868    2.5353    0.0000 C   0  0  0  0  0  0  0  0  0  0  0  0
    3.1599   -1.0667    0.0000 C   0  0  0  0  0  0  0  0  0  0  0  0
    0.3020    1.4083    0.0000 C   0  0  0  0  0  0  0  0  0  0  0  0
    1.0164    2.6458    0.0000 C   0  0  0  0  0  0  0  0  0  0  0  0
   -0.4125    1.8208    0.0000 C   0  0  0  0  0  0  0  0  0  0  0  0
    0.3020    3.0583    0.0000 C   0  0  0  0  0  0  0  0  0  0  0  0
   -0.4125    2.6458    0.0000 C   0  0  0  0  0  0  0  0  0  0  0  0
    1.7309   -1.0667    0.0000 C   0  0  0  0  0  0  0  0  0  0  0  0
    3.1599   -1.8917    0.0000 C   0  0  0  0  0  0  0  0  0  0  0  0
    3.8743   -0.6542    0.0000 C   0  0  0  0  0  0  0  0  0  0  0  0
    3.8743   -2.3042    0.0000 C   0  0  0  0  0  0  0  0  0  0  0  0
    4.5888   -1.0667    0.0000 C   0  0  0  0  0  0  0  0  0  0  0  0
    4.5888   -1.8917    0.0000 C   0  0  0  0  0  0  0  0  0  0  0  0
   -1.8414    1.8208    0.0000 C   0  0  0  0  0  0  0  0  0  0  0  0
   -2.5559    1.4083    0.0000 C   0  0  3  0  0  0  0  0  0  0  0  0
   -3.2704    1.8208    0.0000 C   0  0  0  0  0  0  0  0  0  0  0  0
   -4.6993    1.8208    0.0000 C   0  0  0  0  0  0  0  0  0  0  0  0
  1 18  1  0  0  0  0
  1 27  1  0  0  0  0
  2 28  1  0  0  0  0
  3  7  1  0  0  0  0
  3  8  2  0  0  0  0
  4  7  2  0  0  0  0
  4 10  1  0  0  0  0
  5 10  1  0  0  0  0
  5 15  1  0  0  0  0
  5 21  1  0  0  0  0
  6 29  1  0  0  0  0
  6 30  1  0  0  0  0
  7  9  1  0  0  0  0
  8 11  1  0  0  0  0
  8 12  1  0  0  0  0
  9 13  1  0  0  0  0
  9 14  1  0  0  0  0
 10 12  2  0  0  0  0
 11 16  2  0  0  0  0
 11 17  1  0  0  0  0
 13 14  1  0  0  0  0
 15 22  1  0  0  0  0
 15 23  1  0  0  0  0
 16 18  1  0  0  0  0
 17 19  2  0  0  0  0
 18 20  2  0  0  0  0
 19 20  1  0  0  0  0
 22 24  1  0  0  0  0
 23 25  1  0  0  0  0
 24 26  1  0  0  0  0
 25 26  1  0  0  0  0
 27 28  1  0  0  0  0
 28 29  1  0  0  0  0
M  END
> <PUBCHEM_COMPOUND_ID_TYPE>
0

> <PUBCHEM_TOTAL_CHARGE>
0

> <PUBCHEM_SUBSTANCE_ID>
310939671

> <PUBCHEM_SUBSTANCE_VERSION>
1

> <PUBCHEM_EXT_DATASOURCE_NAME>
4488

> <PUBCHEM_EXT_DATASOURCE_REGID>
SCHEMBL16117601

> <PUBCHEM_SUBSTANCE_COMMENT>
InChI=1S/C24H34N4O2/c1-25-15-20(29)16-30-21-10-6-7-18(13-21)22-14-23(27-24(26-22)17-11-12-17)28(2)19-8-4-3-5-9-19/h6-7,10,13-14,17,19-20,25,29H,3-5,8-9,11-12,15-16H2,1-2H3
InChIKey=FVGDHNWKAKQDLG-UHFFFAOYSA-N

> <PUBCHEM_SUBSTANCE_SYNONYM>
SCHEMBL16117601

> <PUBCHEM_XREF_EXT_ID>
SCHEMBL16117601

> <PUBCHEM_EXT_DATASOURCE_URL>
https://www.surechembl.org/

> <PUBCHEM_EXT_SUBSTANCE_URL>
https://www.surechembl.org/chemical/SCHEMBL16117601

> <PUBCHEM_CID_ASSOCIATIONS>
117606904  1

> <PUBCHEM_COORDINATE_TYPE>
1
3

$$$$
