310931055
  -OEChem-07211613022D

 36 39  0     1  0  0  0  0  0999 V2000
    2.6815    1.5880    0.0000 S   0  0  0  0  0  0  0  0  0  0  0  0
   -4.2868    8.5917    0.0000 F   0  0  0  0  0  0  0  0  0  0  0  0
   -3.9849    7.4648    0.0000 F   0  0  0  0  0  0  0  0  0  0  0  0
   -3.1599    8.8937    0.0000 F   0  0  0  0  0  0  0  0  0  0  0  0
    0.6819    1.1567    0.0000 O   0  0  0  0  0  0  0  0  0  0  0  0
   -0.7145    1.2375    0.0000 O   0  0  0  0  0  0  0  0  0  0  0  0
   -2.1228    2.6459    0.0000 O   0  0  0  0  0  0  0  0  0  0  0  0
   -0.7145    5.7042    0.0000 O   0  0  0  0  0  0  0  0  0  0  0  0
   -1.4289    6.9417    0.0000 O   0  0  0  0  0  0  0  0  0  0  0  0
    0.6939    2.6459    0.0000 N   0  0  0  0  0  0  0  0  0  0  0  0
   -0.7145    4.0542    0.0000 N   0  0  0  0  0  0  0  0  0  0  0  0
   -2.8579    6.9417    0.0000 N   0  0  0  0  0  0  0  0  0  0  0  0
   -0.1311    2.6459    0.0000 C   0  0  0  0  0  0  0  0  0  0  0  0
   -0.7145    3.2292    0.0000 C   0  0  0  0  0  0  0  0  0  0  0  0
    1.9314    1.9314    0.0000 C   0  0  3  0  0  0  0  0  0  0  0  0
   -0.7145    2.0625    0.0000 C   0  0  0  0  0  0  0  0  0  0  0  0
   -1.2978    2.6459    0.0000 C   0  0  0  0  0  0  0  0  0  0  0  0
    1.5040    1.2257    0.0000 C   0  0  0  0  0  0  0  0  0  0  0  0
    1.1064    1.9314    0.0000 C   0  0  0  0  0  0  0  0  0  0  0  0
   -1.4289    4.4667    0.0000 C   0  0  0  0  0  0  0  0  0  0  0  0
    2.0262    2.7509    0.0000 C   0  0  0  0  0  0  0  0  0  0  0  0
   -1.4289    5.2917    0.0000 C   0  0  0  0  0  0  0  0  0  0  0  0
   -2.1434    5.7042    0.0000 C   0  0  0  0  0  0  0  0  0  0  0  0
    1.8237    0.4652    0.0000 C   0  0  0  0  0  0  0  0  0  0  0  0
    3.2399    2.1952    0.0000 C   0  0  0  0  0  0  0  0  0  0  0  0
    2.8349    2.9140    0.0000 C   0  0  0  0  0  0  0  0  0  0  0  0
   -2.1434    4.0542    0.0000 C   0  0  0  0  0  0  0  0  0  0  0  0
    0.4935    0.3535    0.0000 C   0  0  0  0  0  0  0  0  0  0  0  0
   -2.1434    6.5292    0.0000 C   0  0  0  0  0  0  0  0  0  0  0  0
    1.1992   -0.0739    0.0000 C   0  0  0  0  0  0  0  0  0  0  0  0
   -2.8579    5.2917    0.0000 C   0  0  0  0  0  0  0  0  0  0  0  0
   -2.8579    4.4667    0.0000 C   0  0  0  0  0  0  0  0  0  0  0  0
   -2.8579    7.7667    0.0000 C   0  0  0  0  0  0  0  0  0  0  0  0
   -0.2670    0.0338    0.0000 C   0  0  0  0  0  0  0  0  0  0  0  0
   -3.5724    8.1792    0.0000 C   0  0  0  0  0  0  0  0  0  0  0  0
   -3.5724    6.5292    0.0000 C   0  0  0  0  0  0  0  0  0  0  0  0
  1 15  1  0  0  0  0
  1 25  1  0  0  0  0
  2 35  1  0  0  0  0
  3 35  1  0  0  0  0
  4 35  1  0  0  0  0
  5 18  1  0  0  0  0
  5 28  1  0  0  0  0
  6 16  2  0  0  0  0
  7 17  2  0  0  0  0
  8 22  1  0  0  0  0
  9 29  2  0  0  0  0
 10 13  1  0  0  0  0
 10 19  1  0  0  0  0
 11 14  1  0  0  0  0
 11 20  1  0  0  0  0
 12 29  1  0  0  0  0
 12 33  1  0  0  0  0
 12 36  1  0  0  0  0
 13 14  2  0  0  0  0
 13 16  1  0  0  0  0
 14 17  1  0  0  0  0
 15 18  1  0  0  0  0
 15 19  1  0  0  0  0
 15 21  1  0  0  0  0
 16 17  1  0  0  0  0
 18 24  2  0  0  0  0
 20 22  1  0  0  0  0
 20 27  2  0  0  0  0
 21 26  1  0  0  0  0
 22 23  2  0  0  0  0
 23 29  1  0  0  0  0
 23 31  1  0  0  0  0
 24 30  1  0  0  0  0
 25 26  1  0  0  0  0
 27 32  1  0  0  0  0
 28 30  2  0  0  0  0
 28 34  1  0  0  0  0
 31 32  2  0  0  0  0
 33 35  1  0  0  0  0
M  END
> <PUBCHEM_COMPOUND_ID_TYPE>
0

> <PUBCHEM_TOTAL_CHARGE>
0

> <PUBCHEM_SUBSTANCE_ID>
310931055

> <PUBCHEM_SUBSTANCE_VERSION>
1

> <PUBCHEM_EXT_DATASOURCE_NAME>
4488

> <PUBCHEM_EXT_DATASOURCE_REGID>
SCHEMBL16108357

> <PUBCHEM_SUBSTANCE_COMMENT>
InChI=1S/C24H24F3N3O5S/c1-13-7-8-16(35-13)23(9-4-10-36-23)11-28-17-18(21(33)20(17)32)29-15-6-3-5-14(19(15)31)22(34)30(2)12-24(25,26)27/h3,5-8,28-29,31H,4,9-12H2,1-2H3
InChIKey=KIVRZTYJQJZTPX-UHFFFAOYSA-N

> <PUBCHEM_SUBSTANCE_SYNONYM>
SCHEMBL16108357

> <PUBCHEM_XREF_EXT_ID>
SCHEMBL16108357

> <PUBCHEM_EXT_DATASOURCE_URL>
https://www.surechembl.org/

> <PUBCHEM_EXT_SUBSTANCE_URL>
https://www.surechembl.org/chemical/SCHEMBL16108357

> <PUBCHEM_CID_ASSOCIATIONS>
117599963  1

> <PUBCHEM_COORDINATE_TYPE>
1
3

$$$$
