310937186
  -OEChem-07211613022D

 23 23  0     1  0  0  0  0  0999 V2000
    4.9764    0.0000    0.0000 Br  0  0  0  0  0  0  0  0  0  0  0  0
    5.7420   -2.8950    0.0000 O   0  0  0  0  0  0  0  0  0  0  0  0
    2.8471   -3.7323    0.0000 O   0  0  0  0  0  0  0  0  0  0  0  0
    5.0482   -1.6508    0.0000 O   0  0  0  0  0  0  0  0  0  0  0  0
    0.0000   -2.8231    0.0000 O   0  0  0  0  0  0  0  0  0  0  0  0
    2.1532   -2.4643    0.0000 N   0  0  0  0  0  0  0  0  0  0  0  0
    1.4355   -2.8710    0.0000 N   0  0  0  0  0  0  0  0  0  0  0  0
    3.5887   -2.5121    0.0000 C   0  0  3  0  0  0  0  0  0  0  0  0
    3.5648   -1.6748    0.0000 C   0  0  0  0  0  0  0  0  0  0  0  0
    2.8710   -2.8950    0.0000 C   0  0  0  0  0  0  0  0  0  0  0  0
    4.3305   -2.8950    0.0000 C   0  0  0  0  0  0  0  0  0  0  0  0
    4.2826   -1.2441    0.0000 C   0  0  0  0  0  0  0  0  0  0  0  0
    5.0482   -2.4882    0.0000 C   0  0  0  0  0  0  0  0  0  0  0  0
    2.8471   -1.2681    0.0000 C   0  0  0  0  0  0  0  0  0  0  0  0
    4.2826   -0.4307    0.0000 C   0  0  0  0  0  0  0  0  0  0  0  0
    6.4597   -2.4882    0.0000 C   0  0  0  0  0  0  0  0  0  0  0  0
    2.8231   -0.4546    0.0000 C   0  0  0  0  0  0  0  0  0  0  0  0
    3.5409   -0.0239    0.0000 C   0  0  0  0  0  0  0  0  0  0  0  0
    6.8904   -3.2059    0.0000 C   0  0  0  0  0  0  0  0  0  0  0  0
    7.1775   -2.0815    0.0000 C   0  0  0  0  0  0  0  0  0  0  0  0
    6.0530   -1.7704    0.0000 C   0  0  0  0  0  0  0  0  0  0  0  0
    0.7177   -2.4404    0.0000 C   0  0  0  0  0  0  0  0  0  0  0  0
    0.7177   -1.6030    0.0000 C   0  0  0  0  0  0  0  0  0  0  0  0
  1 15  1  0  0  0  0
  2 13  1  0  0  0  0
  2 16  1  0  0  0  0
  3 10  2  0  0  0  0
  4 13  2  0  0  0  0
  5 22  2  0  0  0  0
  6  7  1  0  0  0  0
  6 10  1  0  0  0  0
  7 22  1  0  0  0  0
  8  9  1  0  0  0  0
  8 10  1  0  0  0  0
  8 11  1  0  0  0  0
  9 12  1  0  0  0  0
  9 14  2  0  0  0  0
 11 13  1  0  0  0  0
 12 15  2  0  0  0  0
 14 17  1  0  0  0  0
 15 18  1  0  0  0  0
 16 19  1  0  0  0  0
 16 20  1  0  0  0  0
 16 21  1  0  0  0  0
 17 18  2  0  0  0  0
 22 23  1  0  0  0  0
M  END
> <PUBCHEM_COMPOUND_ID_TYPE>
0

> <PUBCHEM_TOTAL_CHARGE>
0

> <PUBCHEM_SUBSTANCE_ID>
310937186

> <PUBCHEM_SUBSTANCE_VERSION>
1

> <PUBCHEM_EXT_DATASOURCE_NAME>
4488

> <PUBCHEM_EXT_DATASOURCE_REGID>
SCHEMBL16114913

> <PUBCHEM_SUBSTANCE_COMMENT>
InChI=1S/C16H21BrN2O4/c1-10(20)18-19-15(22)13(9-14(21)23-16(2,3)4)11-6-5-7-12(17)8-11/h5-8,13H,9H2,1-4H3,(H,18,20)(H,19,22)
InChIKey=HYNPWTXZUYZXST-UHFFFAOYSA-N

> <PUBCHEM_SUBSTANCE_SYNONYM>
SCHEMBL16114913

> <PUBCHEM_XREF_EXT_ID>
SCHEMBL16114913

> <PUBCHEM_EXT_DATASOURCE_URL>
https://www.surechembl.org/

> <PUBCHEM_EXT_SUBSTANCE_URL>
https://www.surechembl.org/chemical/SCHEMBL16114913

> <PUBCHEM_CID_ASSOCIATIONS>
117605002  1

> <PUBCHEM_COORDINATE_TYPE>
1
3

$$$$
