310940399
  -OEChem-07211613022D

 20 21  0     1  0  0  0  0  0999 V2000
   -0.6315   -0.1545    0.0000 O   0  0  0  0  0  0  0  0  0  0  0  0
   -1.2899    1.9549    0.0000 O   0  0  0  0  0  0  0  0  0  0  0  0
    0.0269    1.9549    0.0000 O   0  0  0  0  0  0  0  0  0  0  0  0
    0.6718   -0.5710    0.0000 O   0  0  0  0  0  0  0  0  0  0  0  0
   -0.4703   -1.4040    0.0000 O   0  0  0  0  0  0  0  0  0  0  0  0
   -0.6315    1.4981    0.0000 C   0  0  0  0  0  0  0  0  0  0  0  0
    0.0806    0.2755    0.0000 C   0  0  3  0  0  0  0  0  0  0  0  0
   -1.3570    0.2620    0.0000 C   0  0  0  0  0  0  0  0  0  0  0  0
    0.0806    1.0816    0.0000 C   0  0  0  0  0  0  0  0  0  0  0  0
   -1.3436    1.0816    0.0000 C   0  0  0  0  0  0  0  0  0  0  0  0
   -1.0345    2.7476    0.0000 C   0  0  0  0  0  0  0  0  0  0  0  0
   -0.2149    2.7476    0.0000 C   0  0  0  0  0  0  0  0  0  0  0  0
    0.9002    0.4232    0.0000 C   0  0  0  0  0  0  0  0  0  0  0  0
   -2.1632    0.4098    0.0000 C   0  0  0  0  0  0  0  0  0  0  0  0
   -1.6123   -0.5173    0.0000 C   0  0  0  0  0  0  0  0  0  0  0  0
    0.3494   -1.3503    0.0000 C   0  0  0  0  0  0  0  0  0  0  0  0
    1.7198   -0.5710    0.0000 C   0  0  0  0  0  0  0  0  0  0  0  0
    2.1363   -1.2831    0.0000 C   0  0  0  0  0  0  0  0  0  0  0  0
    1.7332   -2.0221    0.0000 C   0  0  0  0  0  0  0  0  0  0  0  0
    2.1632   -2.7476    0.0000 C   0  0  0  0  0  0  0  0  0  0  0  0
  1  7  1  0  0  0  0
  1  8  1  0  0  0  0
  2  6  1  0  0  0  0
  2 11  1  0  0  0  0
  3  6  1  0  0  0  0
  3 12  1  0  0  0  0
  4  7  1  0  0  0  0
  4 16  1  0  0  0  0
  5 16  2  0  0  0  0
  6  9  1  0  0  0  0
  6 10  1  0  0  0  0
  7  9  1  0  0  0  0
  7 13  1  0  0  0  0
  8 10  1  0  0  0  0
  8 14  1  0  0  0  0
  8 15  1  0  0  0  0
 11 12  1  0  0  0  0
 16 17  1  0  0  0  0
 17 18  1  0  0  0  0
 18 19  1  0  0  0  0
 19 20  1  0  0  0  0
M  END
> <PUBCHEM_COMPOUND_ID_TYPE>
0

> <PUBCHEM_TOTAL_CHARGE>
0

> <PUBCHEM_SUBSTANCE_ID>
310940399

> <PUBCHEM_SUBSTANCE_VERSION>
1

> <PUBCHEM_EXT_DATASOURCE_NAME>
4488

> <PUBCHEM_EXT_DATASOURCE_REGID>
SCHEMBL16118347

> <PUBCHEM_SUBSTANCE_COMMENT>
InChI=1S/C15H26O5/c1-5-6-7-12(16)19-14(4)11-15(17-8-9-18-15)10-13(2,3)20-14/h5-11H2,1-4H3
InChIKey=MYRWBSCBCLHNSR-UHFFFAOYSA-N

> <PUBCHEM_SUBSTANCE_SYNONYM>
SCHEMBL16118347

> <PUBCHEM_XREF_EXT_ID>
SCHEMBL16118347

> <PUBCHEM_EXT_DATASOURCE_URL>
https://www.surechembl.org/

> <PUBCHEM_EXT_SUBSTANCE_URL>
https://www.surechembl.org/chemical/SCHEMBL16118347

> <PUBCHEM_CID_ASSOCIATIONS>
117607426  1

> <PUBCHEM_COORDINATE_TYPE>
1
3

$$$$
