310936516
  -OEChem-07211613022D

 25 27  0     1  0  0  0  0  0999 V2000
    4.9181   -2.8354    0.0000 O   0  0  0  0  0  0  0  0  0  0  0  0
    4.9181    0.0000    0.0000 O   0  0  0  0  0  0  0  0  0  0  0  0
    6.1476   -0.7277    0.0000 O   0  0  0  0  0  0  0  0  0  0  0  0
    4.9181   -1.4303    0.0000 N   0  0  0  0  0  0  0  0  0  0  0  0
    3.6885   -4.9934    0.0000 N   0  0  0  0  0  0  0  0  0  0  0  0
    3.6885   -2.1328    0.0000 C   0  0  3  0  0  0  0  0  0  0  0  0
    2.8605   -2.1328    0.0000 C   0  0  0  0  0  0  0  0  0  0  0  0
    4.1151   -2.8354    0.0000 C   0  0  3  0  0  0  0  0  0  0  0  0
    1.6561   -1.4303    0.0000 C   0  0  0  0  0  0  0  0  0  0  0  0
    2.4590   -1.4303    0.0000 C   0  0  0  0  0  0  0  0  0  0  0  0
    1.2295   -2.1579    0.0000 C   0  0  0  0  0  0  0  0  0  0  0  0
    3.6885   -3.5631    0.0000 C   0  0  0  0  0  0  0  0  0  0  0  0
    2.4590   -2.8605    0.0000 C   0  0  0  0  0  0  0  0  0  0  0  0
    4.1151   -1.4303    0.0000 C   0  0  0  0  0  0  0  0  0  0  0  0
    1.6310   -2.8605    0.0000 C   0  0  0  0  0  0  0  0  0  0  0  0
    1.2295   -0.7277    0.0000 C   0  0  0  0  0  0  0  0  0  0  0  0
    0.4266   -2.1579    0.0000 C   0  0  0  0  0  0  0  0  0  0  0  0
    4.0900   -4.2908    0.0000 C   0  0  0  0  0  0  0  0  0  0  0  0
    2.8605   -3.5882    0.0000 C   0  0  0  0  0  0  0  0  0  0  0  0
    5.3447   -0.7277    0.0000 C   0  0  0  0  0  0  0  0  0  0  0  0
    0.4015   -0.7277    0.0000 C   0  0  0  0  0  0  0  0  0  0  0  0
    0.0000   -1.4303    0.0000 C   0  0  0  0  0  0  0  0  0  0  0  0
    2.4590   -4.2908    0.0000 C   0  0  0  0  0  0  0  0  0  0  0  0
    2.8605   -5.0184    0.0000 C   0  0  0  0  0  0  0  0  0  0  0  0
    5.3447   -2.1328    0.0000 C   0  0  0  0  0  0  0  0  0  0  0  0
  1  8  1  0  0  0  0
  2 20  2  0  0  0  0
  3 20  1  0  0  0  0
  4 14  1  0  0  0  0
  4 20  1  0  0  0  0
  4 25  1  0  0  0  0
  5 18  1  0  0  0  0
  5 24  2  0  0  0  0
  6  7  1  0  0  0  0
  6  8  1  0  0  0  0
  6 14  1  0  0  0  0
  7 10  2  0  0  0  0
  7 13  1  0  0  0  0
  8 12  1  0  0  0  0
  9 10  1  0  0  0  0
  9 11  2  0  0  0  0
  9 16  1  0  0  0  0
 11 15  1  0  0  0  0
 11 17  1  0  0  0  0
 12 18  2  0  0  0  0
 12 19  1  0  0  0  0
 13 15  2  0  0  0  0
 16 21  2  0  0  0  0
 17 22  2  0  0  0  0
 19 23  2  0  0  0  0
 21 22  1  0  0  0  0
 23 24  1  0  0  0  0
M  END
> <PUBCHEM_COMPOUND_ID_TYPE>
0

> <PUBCHEM_TOTAL_CHARGE>
0

> <PUBCHEM_SUBSTANCE_ID>
310936516

> <PUBCHEM_SUBSTANCE_VERSION>
1

> <PUBCHEM_EXT_DATASOURCE_NAME>
4488

> <PUBCHEM_EXT_DATASOURCE_REGID>
SCHEMBL16114167

> <PUBCHEM_SUBSTANCE_COMMENT>
InChI=1S/C20H20N2O3/c1-22(20(24)25)13-18(19(23)17-7-4-10-21-12-17)16-9-8-14-5-2-3-6-15(14)11-16/h2-12,18-19,23H,13H2,1H3,(H,24,25)
InChIKey=KQJUXGWWLXOXQU-UHFFFAOYSA-N

> <PUBCHEM_SUBSTANCE_SYNONYM>
SCHEMBL16114167

> <PUBCHEM_XREF_EXT_ID>
SCHEMBL16114167

> <PUBCHEM_EXT_DATASOURCE_URL>
https://www.surechembl.org/

> <PUBCHEM_EXT_SUBSTANCE_URL>
https://www.surechembl.org/chemical/SCHEMBL16114167

> <PUBCHEM_CID_ASSOCIATIONS>
117604443  1

> <PUBCHEM_COORDINATE_TYPE>
1
3

$$$$
