310937480
  -OEChem-07211613022D

 43 47  0     1  0  0  0  0  0999 V2000
    0.0000   -2.0625    0.0000 O   0  0  0  0  0  0  0  0  0  0  0  0
   -2.8579   -2.0625    0.0000 O   0  0  0  0  0  0  0  0  0  0  0  0
   -6.4302    4.1250    0.0000 O   0  0  0  0  0  0  0  0  0  0  0  0
   -7.1447    2.8875    0.0000 O   0  0  0  0  0  0  0  0  0  0  0  0
    0.7846    0.6674    0.0000 N   0  0  3  0  0  0  0  0  0  0  0  0
   -1.4290   -2.0625    0.0000 N   0  0  0  0  0  0  0  0  0  0  0  0
   -3.5724    0.8250    0.0000 N   0  0  0  0  0  0  0  0  0  0  0  0
   -4.2868    2.0625    0.0000 N   0  0  0  0  0  0  0  0  0  0  0  0
   -3.5724   -3.3000    0.0000 N   0  0  0  0  0  0  0  0  0  0  0  0
   -5.7158    2.8875    0.0000 N   0  0  0  0  0  0  0  0  0  0  0  0
    0.0000   -0.4125    0.0000 C   0  0  0  0  0  0  0  0  0  0  0  0
    0.0000    0.4125    0.0000 C   0  0  0  0  0  0  0  0  0  0  0  0
   -0.7144   -0.8250    0.0000 C   0  0  0  0  0  0  0  0  0  0  0  0
   -1.4290    0.4125    0.0000 C   0  0  0  0  0  0  0  0  0  0  0  0
   -0.7144    0.8250    0.0000 C   0  0  0  0  0  0  0  0  0  0  0  0
   -1.4290   -0.4125    0.0000 C   0  0  0  0  0  0  0  0  0  0  0  0
    0.7846   -0.6674    0.0000 C   0  0  0  0  0  0  0  0  0  0  0  0
   -2.1434    0.8250    0.0000 C   0  0  0  0  0  0  0  0  0  0  0  0
   -0.7144   -1.6500    0.0000 C   0  0  0  0  0  0  0  0  0  0  0  0
    1.2696    0.0000    0.0000 C   0  0  0  0  0  0  0  0  0  0  0  0
    1.0396    1.4521    0.0000 C   0  0  0  0  0  0  0  0  0  0  0  0
   -2.8579    0.4125    0.0000 C   0  0  0  0  0  0  0  0  0  0  0  0
   -2.1434    1.6500    0.0000 C   0  0  0  0  0  0  0  0  0  0  0  0
   -3.5724    1.6500    0.0000 C   0  0  0  0  0  0  0  0  0  0  0  0
   -2.1434   -3.3000    0.0000 C   0  0  0  0  0  0  0  0  0  0  0  0
   -2.8579    2.0625    0.0000 C   0  0  0  0  0  0  0  0  0  0  0  0
   -1.4290   -2.8875    0.0000 C   0  0  0  0  0  0  0  0  0  0  0  0
    1.8465    1.6236    0.0000 C   0  0  0  0  0  0  0  0  0  0  0  0
   -2.1434   -4.1250    0.0000 C   0  0  0  0  0  0  0  0  0  0  0  0
   -2.8579   -2.8875    0.0000 C   0  0  0  0  0  0  0  0  0  0  0  0
   -2.8579   -4.5375    0.0000 C   0  0  0  0  0  0  0  0  0  0  0  0
   -4.2868    2.8875    0.0000 C   0  0  0  0  0  0  0  0  0  0  0  0
   -5.0013    1.6500    0.0000 C   0  0  0  0  0  0  0  0  0  0  0  0
   -3.5724   -4.1250    0.0000 C   0  0  0  0  0  0  0  0  0  0  0  0
   -5.0013    3.3000    0.0000 C   0  0  0  0  0  0  0  0  0  0  0  0
   -5.7158    2.0625    0.0000 C   0  0  0  0  0  0  0  0  0  0  0  0
   -1.4290   -4.5375    0.0000 C   0  0  0  0  0  0  0  0  0  0  0  0
    2.3986    1.0105    0.0000 C   0  0  0  0  0  0  0  0  0  0  0  0
    2.1015    2.4082    0.0000 C   0  0  0  0  0  0  0  0  0  0  0  0
   -6.4302    3.3000    0.0000 C   0  0  0  0  0  0  0  0  0  0  0  0
   -4.2868   -4.5375    0.0000 C   0  0  0  0  0  0  0  0  0  0  0  0
   -0.7144   -4.1250    0.0000 C   0  0  0  0  0  0  0  0  0  0  0  0
    0.0000   -4.5375    0.0000 C   0  0  0  0  0  0  0  0  0  0  0  0
  1 19  2  0  0  0  0
  2 30  2  0  0  0  0
  3 40  2  0  0  0  0
  4 40  1  0  0  0  0
  5 12  1  0  0  0  0
  5 20  1  0  0  0  0
  5 21  1  0  0  0  0
  6 19  1  0  0  0  0
  6 27  1  0  0  0  0
  7 22  1  0  0  0  0
  7 24  2  0  0  0  0
  8 24  1  0  0  0  0
  8 32  1  0  0  0  0
  8 33  1  0  0  0  0
  9 30  1  0  0  0  0
  9 34  1  0  0  0  0
 10 35  1  0  0  0  0
 10 36  1  0  0  0  0
 10 40  1  0  0  0  0
 11 12  2  0  0  0  0
 11 13  1  0  0  0  0
 11 17  1  0  0  0  0
 12 15  1  0  0  0  0
 13 16  2  0  0  0  0
 13 19  1  0  0  0  0
 14 15  2  0  0  0  0
 14 16  1  0  0  0  0
 14 18  1  0  0  0  0
 17 20  1  0  0  0  0
 18 22  2  0  0  0  0
 18 23  1  0  0  0  0
 21 28  1  0  0  0  0
 23 26  2  0  0  0  0
 24 26  1  0  0  0  0
 25 27  1  0  0  0  0
 25 29  2  0  0  0  0
 25 30  1  0  0  0  0
 28 38  1  0  0  0  0
 28 39  1  0  0  0  0
 29 31  1  0  0  0  0
 29 37  1  0  0  0  0
 31 34  2  0  0  0  0
 32 35  1  0  0  0  0
 33 36  1  0  0  0  0
 34 41  1  0  0  0  0
 37 42  1  0  0  0  0
 42 43  1  0  0  0  0
M  END
> <PUBCHEM_COMPOUND_ID_TYPE>
0

> <PUBCHEM_TOTAL_CHARGE>
0

> <PUBCHEM_SUBSTANCE_ID>
310937480

> <PUBCHEM_SUBSTANCE_VERSION>
1

> <PUBCHEM_EXT_DATASOURCE_NAME>
4488

> <PUBCHEM_EXT_DATASOURCE_REGID>
SCHEMBL16115250

> <PUBCHEM_SUBSTANCE_COMMENT>
InChI=1S/C33H42N6O4/c1-5-6-23-15-22(4)36-32(41)28(23)19-35-31(40)27-16-25(17-29-26(27)9-10-39(29)20-21(2)3)24-7-8-30(34-18-24)37-11-13-38(14-12-37)33(42)43/h7-8,15-18,21H,5-6,9-14,19-20H2,1-4H3,(H,35,40)(H,36,41)(H,42,43)
InChIKey=VIYJABNBRRJSNV-UHFFFAOYSA-N

> <PUBCHEM_SUBSTANCE_SYNONYM>
SCHEMBL16115250

> <PUBCHEM_XREF_EXT_ID>
SCHEMBL16115250

> <PUBCHEM_EXT_DATASOURCE_URL>
https://www.surechembl.org/

> <PUBCHEM_EXT_SUBSTANCE_URL>
https://www.surechembl.org/chemical/SCHEMBL16115250

> <PUBCHEM_CID_ASSOCIATIONS>
117605220  1

> <PUBCHEM_COORDINATE_TYPE>
1
3

$$$$
