310944821
  -OEChem-07211613022D

 21 22  0     1  0  0  0  0  0999 V2000
    1.7005   -2.4818    0.0000 Cl  0  0  0  0  0  0  0  0  0  0  0  0
    2.5279   -0.2451    0.0000 F   0  0  0  0  0  0  0  0  0  0  0  0
    3.3551   -1.0418    0.0000 F   0  0  0  0  0  0  0  0  0  0  0  0
    2.5279   -1.8691    0.0000 F   0  0  0  0  0  0  0  0  0  0  0  0
   -0.8426    0.3370    0.0000 N   0  0  3  0  0  0  0  0  0  0  0  0
   -2.9262    1.0418    0.0000 N   0  0  0  0  0  0  0  0  0  0  0  0
    1.6392   -1.0111    0.0000 C   0  0  0  0  0  0  0  0  0  0  0  0
    2.4972   -1.0111    0.0000 C   0  0  0  0  0  0  0  0  0  0  0  0
    1.2716   -1.7159    0.0000 C   0  0  0  0  0  0  0  0  0  0  0  0
    0.4137   -0.3064    0.0000 C   0  0  0  0  0  0  0  0  0  0  0  0
    1.2409   -0.3677    0.0000 C   0  0  0  0  0  0  0  0  0  0  0  0
    0.4137   -1.7159    0.0000 C   0  0  0  0  0  0  0  0  0  0  0  0
    0.0153   -1.0418    0.0000 C   0  0  0  0  0  0  0  0  0  0  0  0
    0.0153    0.3677    0.0000 C   0  0  0  0  0  0  0  0  0  0  0  0
   -1.6699    0.3983    0.0000 C   0  0  0  0  0  0  0  0  0  0  0  0
   -2.0988    1.0724    0.0000 C   0  0  0  0  0  0  0  0  0  0  0  0
   -1.6699    1.7771    0.0000 C   0  0  0  0  0  0  0  0  0  0  0  0
   -0.8120    1.1950    0.0000 C   0  0  0  0  0  0  0  0  0  0  0  0
   -3.3551    1.7771    0.0000 C   0  0  0  0  0  0  0  0  0  0  0  0
   -2.0682    2.4512    0.0000 C   0  0  0  0  0  0  0  0  0  0  0  0
   -2.9262    2.4818    0.0000 C   0  0  0  0  0  0  0  0  0  0  0  0
  1  9  1  0  0  0  0
  2  8  1  0  0  0  0
  3  8  1  0  0  0  0
  4  8  1  0  0  0  0
  5 14  1  0  0  0  0
  5 15  1  0  0  0  0
  5 18  1  0  0  0  0
  6 16  1  0  0  0  0
  6 19  1  0  0  0  0
  7  8  1  0  0  0  0
  7  9  1  0  0  0  0
  7 11  2  0  0  0  0
  9 12  2  0  0  0  0
 10 11  1  0  0  0  0
 10 13  2  0  0  0  0
 10 14  1  0  0  0  0
 12 13  1  0  0  0  0
 15 16  1  0  0  0  0
 16 17  2  0  0  0  0
 17 20  1  0  0  0  0
 19 21  1  0  0  0  0
 20 21  2  0  0  0  0
M  END
> <PUBCHEM_COMPOUND_ID_TYPE>
0

> <PUBCHEM_TOTAL_CHARGE>
0

> <PUBCHEM_SUBSTANCE_ID>
310944821

> <PUBCHEM_SUBSTANCE_VERSION>
1

> <PUBCHEM_EXT_DATASOURCE_NAME>
4488

> <PUBCHEM_EXT_DATASOURCE_REGID>
SCHEMBL16122900

> <PUBCHEM_SUBSTANCE_COMMENT>
InChI=1S/C15H16ClF3N2/c1-21(10-12-4-2-3-7-20-12)9-11-5-6-14(16)13(8-11)15(17,18)19/h2-6,8,20H,7,9-10H2,1H3
InChIKey=IBJZUAPQPGEXAX-UHFFFAOYSA-N

> <PUBCHEM_SUBSTANCE_SYNONYM>
SCHEMBL16122900

> <PUBCHEM_XREF_EXT_ID>
SCHEMBL16122900

> <PUBCHEM_EXT_DATASOURCE_URL>
https://www.surechembl.org/

> <PUBCHEM_EXT_SUBSTANCE_URL>
https://www.surechembl.org/chemical/SCHEMBL16122900

> <PUBCHEM_CID_ASSOCIATIONS>
117611029  1

> <PUBCHEM_COORDINATE_TYPE>
1
3

$$$$
