310935266
  -OEChem-07211613022D

 30 33  0     1  0  0  0  0  0999 V2000
    0.1119   -1.1567    0.0000 F   0  0  0  0  0  0  0  0  0  0  0  0
   -0.1934   -4.4718    0.0000 F   0  0  0  0  0  0  0  0  0  0  0  0
    3.1270   -0.6421    0.0000 O   0  0  0  0  0  0  0  0  0  0  0  0
    4.7409   -0.9851    0.0000 O   0  0  0  0  0  0  0  0  0  0  0  0
    5.8028   -1.9413    0.0000 O   0  0  0  0  0  0  0  0  0  0  0  0
    4.1889   -1.5982    0.0000 N   0  0  0  0  0  0  0  0  0  0  0  0
    1.7831   -5.3979    0.0000 N   0  0  0  0  0  0  0  0  0  0  0  0
    2.8299   -2.0398    0.0000 C   0  0  3  0  0  0  0  0  0  0  0  0
    2.2778   -1.4267    0.0000 C   0  0  0  0  0  0  0  0  0  0  0  0
    2.1624   -2.5247    0.0000 C   0  0  0  0  0  0  0  0  0  0  0  0
    3.3819   -1.4267    0.0000 C   0  0  0  0  0  0  0  0  0  0  0  0
    2.4174   -3.3093    0.0000 C   0  0  0  0  0  0  0  0  0  0  0  0
    3.4973   -2.5247    0.0000 C   0  0  0  0  0  0  0  0  0  0  0  0
    1.4709   -1.5982    0.0000 C   0  0  0  0  0  0  0  0  0  0  0  0
    3.2424   -3.3093    0.0000 C   0  0  0  0  0  0  0  0  0  0  0  0
    1.9324   -3.9768    0.0000 C   0  0  0  0  0  0  0  0  0  0  0  0
    2.5328   -0.6421    0.0000 C   0  0  0  0  0  0  0  0  0  0  0  0
    0.9188   -0.9851    0.0000 C   0  0  0  0  0  0  0  0  0  0  0  0
    1.9807   -0.0290    0.0000 C   0  0  0  0  0  0  0  0  0  0  0  0
    1.1738   -0.2005    0.0000 C   0  0  0  0  0  0  0  0  0  0  0  0
    1.1120   -3.8906    0.0000 C   0  0  0  0  0  0  0  0  0  0  0  0
    2.2680   -4.7305    0.0000 C   0  0  0  0  0  0  0  0  0  0  0  0
    1.2159   -2.3829    0.0000 C   0  0  0  0  0  0  0  0  0  0  0  0
    0.6270   -4.5580    0.0000 C   0  0  0  0  0  0  0  0  0  0  0  0
    5.5479   -1.1567    0.0000 C   0  0  3  0  0  0  0  0  0  0  0  0
    0.9626   -5.3117    0.0000 C   0  0  0  0  0  0  0  0  0  0  0  0
    6.0999   -0.5436    0.0000 C   0  0  0  0  0  0  0  0  0  0  0  0
    6.6098   -2.1128    0.0000 C   0  0  0  0  0  0  0  0  0  0  0  0
    6.9069   -0.7151    0.0000 C   0  0  0  0  0  0  0  0  0  0  0  0
    7.1618   -1.4997    0.0000 C   0  0  0  0  0  0  0  0  0  0  0  0
  1 18  1  0  0  0  0
  2 24  1  0  0  0  0
  3 11  2  0  0  0  0
  4  6  1  0  0  0  0
  4 25  1  0  0  0  0
  5 25  1  0  0  0  0
  5 28  1  0  0  0  0
  6 11  1  0  0  0  0
  7 22  2  0  0  0  0
  7 26  1  0  0  0  0
  8  9  1  0  0  0  0
  8 10  1  0  0  0  0
  8 11  1  0  0  0  0
  8 13  1  0  0  0  0
  9 14  2  0  0  0  0
  9 17  1  0  0  0  0
 10 12  2  0  0  0  0
 12 15  1  0  0  0  0
 12 16  1  0  0  0  0
 13 15  1  0  0  0  0
 14 18  1  0  0  0  0
 14 23  1  0  0  0  0
 16 21  2  0  0  0  0
 16 22  1  0  0  0  0
 17 19  2  0  0  0  0
 18 20  2  0  0  0  0
 19 20  1  0  0  0  0
 21 24  1  0  0  0  0
 24 26  2  0  0  0  0
 25 27  1  0  0  0  0
 27 29  1  0  0  0  0
 28 30  1  0  0  0  0
 29 30  1  0  0  0  0
M  END
> <PUBCHEM_COMPOUND_ID_TYPE>
0

> <PUBCHEM_TOTAL_CHARGE>
0

> <PUBCHEM_SUBSTANCE_ID>
310935266

> <PUBCHEM_SUBSTANCE_VERSION>
1

> <PUBCHEM_EXT_DATASOURCE_NAME>
4488

> <PUBCHEM_EXT_DATASOURCE_REGID>
SCHEMBL16112797

> <PUBCHEM_SUBSTANCE_COMMENT>
InChI=1S/C23H24F2N2O3/c1-15-19(5-4-6-20(15)25)23(22(28)27-30-21-7-2-3-10-29-21)9-8-16(12-23)17-11-18(24)14-26-13-17/h4-6,11-14,21H,2-3,7-10H2,1H3,(H,27,28)
InChIKey=PPEQOWRECGKFIA-UHFFFAOYSA-N

> <PUBCHEM_SUBSTANCE_SYNONYM>
SCHEMBL16112797

> <PUBCHEM_XREF_EXT_ID>
SCHEMBL16112797

> <PUBCHEM_EXT_DATASOURCE_URL>
https://www.surechembl.org/

> <PUBCHEM_EXT_SUBSTANCE_URL>
https://www.surechembl.org/chemical/SCHEMBL16112797

> <PUBCHEM_CID_ASSOCIATIONS>
117603337  1

> <PUBCHEM_COORDINATE_TYPE>
1
3

$$$$
