310949659
  -OEChem-07211613022D

 26 27  0     1  0  0  0  0  0999 V2000
   -1.2326    1.4325    0.0000 F   0  0  0  0  0  0  0  0  0  0  0  0
   -0.8195    2.1520    0.0000 F   0  0  0  0  0  0  0  0  0  0  0  0
    0.0067    2.1520    0.0000 F   0  0  0  0  0  0  0  0  0  0  0  0
   -1.6456    0.7128    0.0000 O   0  0  0  0  0  0  0  0  0  0  0  0
   -2.4718    0.7128    0.0000 O   0  0  0  0  0  0  0  0  0  0  0  0
   -3.7109    0.0067    0.0000 O   0  0  0  0  0  0  0  0  0  0  0  0
    3.7109    1.4058    0.0000 O   0  0  0  0  0  0  0  0  0  0  0  0
    3.7109   -0.0333    0.0000 O   0  0  0  0  0  0  0  0  0  0  0  0
   -0.4198   -0.0067    0.0000 N   0  0  0  0  0  0  0  0  0  0  0  0
   -0.0067    0.7262    0.0000 C   0  0  3  0  0  0  0  0  0  0  0  0
   -0.4331    1.4458    0.0000 C   0  0  0  0  0  0  0  0  0  0  0  0
    0.8195    0.6996    0.0000 C   0  0  0  0  0  0  0  0  0  0  0  0
   -1.6722   -0.7262    0.0000 C   0  0  0  0  0  0  0  0  0  0  0  0
   -1.2326   -0.0067    0.0000 C   0  0  0  0  0  0  0  0  0  0  0  0
   -2.4851   -0.7262    0.0000 C   0  0  0  0  0  0  0  0  0  0  0  0
    1.2459    1.4058    0.0000 C   0  0  0  0  0  0  0  0  0  0  0  0
    1.2459   -0.0067    0.0000 C   0  0  0  0  0  0  0  0  0  0  0  0
    2.4718    0.7128    0.0000 C   0  0  0  0  0  0  0  0  0  0  0  0
   -1.2592   -1.4458    0.0000 C   0  0  0  0  0  0  0  0  0  0  0  0
    2.0454    1.4058    0.0000 C   0  0  0  0  0  0  0  0  0  0  0  0
    2.0587   -0.0067    0.0000 C   0  0  0  0  0  0  0  0  0  0  0  0
   -2.9115   -0.0200    0.0000 C   0  0  0  0  0  0  0  0  0  0  0  0
   -2.8982   -1.4591    0.0000 C   0  0  0  0  0  0  0  0  0  0  0  0
   -1.6589   -2.1520    0.0000 C   0  0  0  0  0  0  0  0  0  0  0  0
    3.2846    0.6862    0.0000 C   0  0  0  0  0  0  0  0  0  0  0  0
   -2.4984   -2.1520    0.0000 C   0  0  0  0  0  0  0  0  0  0  0  0
  1 11  1  0  0  0  0
  2 11  1  0  0  0  0
  3 11  1  0  0  0  0
  4 14  2  0  0  0  0
  5 22  2  0  0  0  0
  6 22  1  0  0  0  0
  7 25  2  0  0  0  0
  8 25  1  0  0  0  0
  9 10  1  0  0  0  0
  9 14  1  0  0  0  0
 10 11  1  0  0  0  0
 10 12  1  0  0  0  0
 12 16  2  0  0  0  0
 12 17  1  0  0  0  0
 13 14  1  0  0  0  0
 13 15  2  0  0  0  0
 13 19  1  0  0  0  0
 15 22  1  0  0  0  0
 15 23  1  0  0  0  0
 16 20  1  0  0  0  0
 17 21  2  0  0  0  0
 18 20  2  0  0  0  0
 18 21  1  0  0  0  0
 18 25  1  0  0  0  0
 19 24  2  0  0  0  0
 23 26  2  0  0  0  0
 24 26  1  0  0  0  0
M  END
> <PUBCHEM_COMPOUND_ID_TYPE>
0

> <PUBCHEM_TOTAL_CHARGE>
0

> <PUBCHEM_SUBSTANCE_ID>
310949659

> <PUBCHEM_SUBSTANCE_VERSION>
1

> <PUBCHEM_EXT_DATASOURCE_NAME>
4488

> <PUBCHEM_EXT_DATASOURCE_REGID>
SCHEMBL16127857

> <PUBCHEM_SUBSTANCE_COMMENT>
InChI=1S/C17H12F3NO5/c18-17(19,20)13(9-5-7-10(8-6-9)15(23)24)21-14(22)11-3-1-2-4-12(11)16(25)26/h1-8,13H,(H,21,22)(H,23,24)(H,25,26)
InChIKey=RJOZTELPONLGAN-UHFFFAOYSA-N

> <PUBCHEM_SUBSTANCE_SYNONYM>
SCHEMBL16127857

> <PUBCHEM_XREF_EXT_ID>
SCHEMBL16127857

> <PUBCHEM_EXT_DATASOURCE_URL>
https://www.surechembl.org/

> <PUBCHEM_EXT_SUBSTANCE_URL>
https://www.surechembl.org/chemical/SCHEMBL16127857

> <PUBCHEM_CID_ASSOCIATIONS>
117615035  1

> <PUBCHEM_COORDINATE_TYPE>
1
3

$$$$
