310936483
  -OEChem-07211613022D

 33 34  0     1  0  0  0  0  0999 V2000
   -1.9551   -9.3324    0.0000 S   0  0  0  0  0  0  0  0  0  0  0  0
   -0.2622   -4.6083    0.0000 O   0  0  0  0  0  0  0  0  0  0  0  0
   -0.4185   -6.7854    0.0000 O   0  0  0  0  0  0  0  0  0  0  0  0
   -1.7416  -10.1293    0.0000 O   0  0  0  0  0  0  0  0  0  0  0  0
   -1.1582   -9.1189    0.0000 O   0  0  0  0  0  0  0  0  0  0  0  0
   -2.7520   -9.5459    0.0000 O   0  0  0  0  0  0  0  0  0  0  0  0
   -3.1218  -10.4991    0.0000 O   0  0  0  0  0  0  0  0  0  0  0  0
   -0.8456   -5.1916    0.0000 C   0  0  0  0  0  0  0  0  0  0  0  0
   -1.4289   -5.7750    0.0000 C   0  0  3  0  0  0  0  0  0  0  0  0
   -1.4289   -4.6083    0.0000 C   0  0  0  0  0  0  0  0  0  0  0  0
   -0.2622   -5.7750    0.0000 C   0  0  0  0  0  0  0  0  0  0  0  0
   -1.2154   -6.5719    0.0000 C   0  0  3  0  0  0  0  0  0  0  0  0
   -1.7988   -7.1553    0.0000 C   0  0  0  0  0  0  0  0  0  0  0  0
   -2.1686   -8.5355    0.0000 C   0  0  0  0  0  0  0  0  0  0  0  0
   -2.2258   -5.5615    0.0000 C   0  0  0  0  0  0  0  0  0  0  0  0
   -1.5853   -7.9521    0.0000 C   0  0  0  0  0  0  0  0  0  0  0  0
   -2.0123   -4.0249    0.0000 C   0  0  0  0  0  0  0  0  0  0  0  0
   -2.0123   -5.1916    0.0000 C   0  0  0  0  0  0  0  0  0  0  0  0
   -0.8456   -4.0249    0.0000 C   0  0  0  0  0  0  0  0  0  0  0  0
    0.3211   -5.1916    0.0000 C   0  0  0  0  0  0  0  0  0  0  0  0
   -0.8456   -6.3584    0.0000 C   0  0  0  0  0  0  0  0  0  0  0  0
    0.3211   -6.3584    0.0000 C   0  0  0  0  0  0  0  0  0  0  0  0
   -2.5957   -6.9417    0.0000 C   0  0  0  0  0  0  0  0  0  0  0  0
   -2.9655   -8.3220    0.0000 C   0  0  0  0  0  0  0  0  0  0  0  0
   -3.1790   -7.5251    0.0000 C   0  0  0  0  0  0  0  0  0  0  0  0
   -2.3249  -10.7126    0.0000 C   0  0  0  0  0  0  0  0  0  0  0  0
   -2.4394   -4.7646    0.0000 C   0  0  0  0  0  0  0  0  0  0  0  0
   -2.1114  -11.5095    0.0000 C   0  0  0  0  0  0  0  0  0  0  0  0
   -1.3145  -11.7231    0.0000 C   0  0  0  0  0  0  0  0  0  0  0  0
   -2.6948  -12.0929    0.0000 C   0  0  0  0  0  0  0  0  0  0  0  0
   -1.1010  -12.5199    0.0000 C   0  0  0  0  0  0  0  0  0  0  0  0
   -2.4812  -12.8898    0.0000 C   0  0  0  0  0  0  0  0  0  0  0  0
   -1.6844  -13.1033    0.0000 C   0  0  0  0  0  0  0  0  0  0  0  0
  1  4  1  0  0  0  0
  1  5  2  0  0  0  0
  1  6  2  0  0  0  0
  1 14  1  0  0  0  0
  2  8  1  0  0  0  0
  3 12  1  0  0  0  0
  4 26  1  0  0  0  0
  7 26  2  0  0  0  0
  8  9  1  0  0  0  0
  8 10  1  0  0  0  0
  8 11  1  0  0  0  0
  9 12  1  0  0  0  0
  9 15  1  0  0  0  0
 10 17  1  0  0  0  0
 10 18  1  0  0  0  0
 10 19  1  0  0  0  0
 11 20  1  0  0  0  0
 11 21  1  0  0  0  0
 11 22  1  0  0  0  0
 12 13  1  0  0  0  0
 13 16  1  0  0  0  0
 13 23  2  0  0  0  0
 14 16  2  0  0  0  0
 14 24  1  0  0  0  0
 15 27  1  0  0  0  0
 23 25  1  0  0  0  0
 24 25  2  0  0  0  0
 26 28  1  0  0  0  0
 28 29  2  0  0  0  0
 28 30  1  0  0  0  0
 29 31  1  0  0  0  0
 30 32  2  0  0  0  0
 31 33  2  0  0  0  0
 32 33  1  0  0  0  0
M  END
> <PUBCHEM_COMPOUND_ID_TYPE>
0

> <PUBCHEM_TOTAL_CHARGE>
0

> <PUBCHEM_SUBSTANCE_ID>
310936483

> <PUBCHEM_SUBSTANCE_VERSION>
1

> <PUBCHEM_EXT_DATASOURCE_NAME>
4488

> <PUBCHEM_EXT_DATASOURCE_REGID>
SCHEMBL16114132

> <PUBCHEM_SUBSTANCE_COMMENT>
InChI=1S/C26H36O6S/c1-8-21(26(29,24(2,3)4)25(5,6)7)22(27)19-15-12-16-20(17-19)33(30,31)32-23(28)18-13-10-9-11-14-18/h9-17,21-22,27,29H,8H2,1-7H3
InChIKey=MOYKJPVQBMDAIB-UHFFFAOYSA-N

> <PUBCHEM_SUBSTANCE_SYNONYM>
SCHEMBL16114132

> <PUBCHEM_XREF_EXT_ID>
SCHEMBL16114132

> <PUBCHEM_EXT_DATASOURCE_URL>
https://www.surechembl.org/

> <PUBCHEM_EXT_SUBSTANCE_URL>
https://www.surechembl.org/chemical/SCHEMBL16114132

> <PUBCHEM_CID_ASSOCIATIONS>
117604412  1

> <PUBCHEM_COORDINATE_TYPE>
1
3

$$$$
