310939680
  -OEChem-07211613022D

 35 37  0     1  0  0  0  0  0999 V2000
    2.2491    1.3848    0.0000 F   0  0  0  0  0  0  0  0  0  0  0  0
    0.5991    1.3848    0.0000 F   0  0  0  0  0  0  0  0  0  0  0  0
    1.4241    0.5598    0.0000 F   0  0  0  0  0  0  0  0  0  0  0  0
   -2.1482    5.9221    0.0000 O   0  0  0  0  0  0  0  0  0  0  0  0
   -3.5770    5.0972    0.0000 O   0  0  0  0  0  0  0  0  0  0  0  0
    0.7096    5.0972    0.0000 N   0  0  0  0  0  0  0  0  0  0  0  0
    1.4241    6.3346    0.0000 N   0  0  0  0  0  0  0  0  0  0  0  0
    2.8529    6.3346    0.0000 N   0  0  0  0  0  0  0  0  0  0  0  0
    2.1386    2.6222    0.0000 N   0  0  0  0  0  0  0  0  0  0  0  0
   -5.0060    5.9221    0.0000 N   0  0  0  0  0  0  0  0  0  0  0  0
    1.4241    4.6846    0.0000 C   0  0  0  0  0  0  0  0  0  0  0  0
    0.7096    5.9221    0.0000 C   0  0  0  0  0  0  0  0  0  0  0  0
    1.4241    3.8596    0.0000 C   0  0  0  0  0  0  0  0  0  0  0  0
    2.1386    5.9221    0.0000 C   0  0  0  0  0  0  0  0  0  0  0  0
   -0.0048    6.3346    0.0000 C   0  0  0  0  0  0  0  0  0  0  0  0
    2.1386    5.0972    0.0000 C   0  0  0  0  0  0  0  0  0  0  0  0
    1.4241    2.2098    0.0000 C   0  0  0  0  0  0  0  0  0  0  0  0
    2.1386    3.4472    0.0000 C   0  0  0  0  0  0  0  0  0  0  0  0
    0.7096    3.4472    0.0000 C   0  0  0  0  0  0  0  0  0  0  0  0
    1.4241    1.3848    0.0000 C   0  0  0  0  0  0  0  0  0  0  0  0
    0.7096    2.6222    0.0000 C   0  0  0  0  0  0  0  0  0  0  0  0
   -0.7193    5.9221    0.0000 C   0  0  0  0  0  0  0  0  0  0  0  0
   -0.0048    7.1595    0.0000 C   0  0  0  0  0  0  0  0  0  0  0  0
   -1.4338    6.3346    0.0000 C   0  0  0  0  0  0  0  0  0  0  0  0
   -0.7193    7.5721    0.0000 C   0  0  0  0  0  0  0  0  0  0  0  0
   -1.4338    7.1595    0.0000 C   0  0  0  0  0  0  0  0  0  0  0  0
    3.5674    5.9221    0.0000 C   0  0  0  0  0  0  0  0  0  0  0  0
    2.8529    7.1595    0.0000 C   0  0  0  0  0  0  0  0  0  0  0  0
    4.2818    6.3346    0.0000 C   0  0  0  0  0  0  0  0  0  0  0  0
   -2.8626    6.3346    0.0000 C   0  0  0  0  0  0  0  0  0  0  0  0
   -3.5770    5.9221    0.0000 C   0  0  3  0  0  0  0  0  0  0  0  0
    4.9963    5.9221    0.0000 C   0  0  0  0  0  0  0  0  0  0  0  0
   -4.2915    6.3346    0.0000 C   0  0  0  0  0  0  0  0  0  0  0  0
    5.7108    5.5096    0.0000 C   0  0  0  0  0  0  0  0  0  0  0  0
   -5.7204    6.3346    0.0000 C   0  0  0  0  0  0  0  0  0  0  0  0
  1 20  1  0  0  0  0
  2 20  1  0  0  0  0
  3 20  1  0  0  0  0
  4 24  1  0  0  0  0
  4 30  1  0  0  0  0
  5 31  1  0  0  0  0
  6 11  1  0  0  0  0
  6 12  2  0  0  0  0
  7 12  1  0  0  0  0
  7 14  2  0  0  0  0
  8 14  1  0  0  0  0
  8 27  1  0  0  0  0
  8 28  1  0  0  0  0
  9 17  1  0  0  0  0
  9 18  2  0  0  0  0
 10 33  1  0  0  0  0
 10 35  1  0  0  0  0
 11 13  1  0  0  0  0
 11 16  2  0  0  0  0
 12 15  1  0  0  0  0
 13 18  1  0  0  0  0
 13 19  2  0  0  0  0
 14 16  1  0  0  0  0
 15 22  2  0  0  0  0
 15 23  1  0  0  0  0
 17 20  1  0  0  0  0
 17 21  2  0  0  0  0
 19 21  1  0  0  0  0
 22 24  1  0  0  0  0
 23 25  2  0  0  0  0
 24 26  2  0  0  0  0
 25 26  1  0  0  0  0
 27 29  1  0  0  0  0
 29 32  1  0  0  0  0
 30 31  1  0  0  0  0
 31 33  1  0  0  0  0
 32 34  3  0  0  0  0
M  END
> <PUBCHEM_COMPOUND_ID_TYPE>
0

> <PUBCHEM_TOTAL_CHARGE>
0

> <PUBCHEM_SUBSTANCE_ID>
310939680

> <PUBCHEM_SUBSTANCE_VERSION>
1

> <PUBCHEM_EXT_DATASOURCE_NAME>
4488

> <PUBCHEM_EXT_DATASOURCE_REGID>
SCHEMBL16117610

> <PUBCHEM_SUBSTANCE_COMMENT>
InChI=1S/C25H26F3N5O2/c1-4-5-11-33(3)23-13-21(18-9-10-22(30-14-18)25(26,27)28)31-24(32-23)17-7-6-8-20(12-17)35-16-19(34)15-29-2/h1,6-10,12-14,19,29,34H,5,11,15-16H2,2-3H3
InChIKey=LYNCEHJISBKRBS-UHFFFAOYSA-N

> <PUBCHEM_SUBSTANCE_SYNONYM>
SCHEMBL16117610

> <PUBCHEM_XREF_EXT_ID>
SCHEMBL16117610

> <PUBCHEM_EXT_DATASOURCE_URL>
https://www.surechembl.org/

> <PUBCHEM_EXT_SUBSTANCE_URL>
https://www.surechembl.org/chemical/SCHEMBL16117610

> <PUBCHEM_CID_ASSOCIATIONS>
117606913  1

> <PUBCHEM_COORDINATE_TYPE>
1
3

$$$$
