310929901
  -OEChem-07211613022D

 64 72  0     1  0  0  0  0  0999 V2000
    4.4350   -1.4088    0.0000 S   0  0  0  0  0  0  0  0  0  0  0  0
    2.5045   -2.4001    0.0000 O   0  0  0  0  0  0  0  0  0  0  0  0
    5.0612   -1.9306    0.0000 O   0  0  0  0  0  0  0  0  0  0  0  0
    3.8611   -0.7827    0.0000 O   0  0  0  0  0  0  0  0  0  0  0  0
    4.5916   -0.0522    0.0000 O   0  0  0  0  0  0  0  0  0  0  0  0
    7.4613   -3.3915    0.0000 O   0  0  0  0  0  0  0  0  0  0  0  0
    1.2522   -2.0870    0.0000 O   0  0  0  0  0  0  0  0  0  0  0  0
    8.4527   -6.2612    0.0000 O   0  0  0  0  0  0  0  0  0  0  0  0
    2.8697   -8.2961    0.0000 O   0  0  0  0  0  0  0  0  0  0  0  0
    1.6697   -8.7135    0.0000 O   0  0  0  0  0  0  0  0  0  0  0  0
    3.6524   -0.8348    0.0000 N   0  0  0  0  0  0  0  0  0  0  0  0
    3.9133   -1.9827    0.0000 N   0  0  0  0  0  0  0  0  0  0  0  0
    6.0525   -1.4609    0.0000 N   0  0  0  0  0  0  0  0  0  0  0  0
    8.4527   -3.8611    0.0000 N   0  0  0  0  0  0  0  0  0  0  0  0
    1.4088   -7.5134    0.0000 N   0  0  0  0  0  0  0  0  0  0  0  0
    7.1482   -8.8179    0.0000 N   0  0  0  0  0  0  0  0  0  0  0  0
    2.8697   -0.9914    0.0000 C   0  0  3  0  0  0  0  0  0  0  0  0
    2.0870   -1.3044    0.0000 C   0  0  3  0  0  0  0  0  0  0  0  0
    2.2436   -0.5218    0.0000 C   0  0  0  0  0  0  0  0  0  0  0  0
    3.0785   -1.7740    0.0000 C   0  0  0  0  0  0  0  0  0  0  0  0
    5.0090   -0.7827    0.0000 C   0  0  0  0  0  0  0  0  0  0  0  0
    4.4350   -0.8348    0.0000 C   0  0  0  0  0  0  0  0  0  0  0  0
    1.4088   -1.7740    0.0000 C   0  0  0  0  0  0  0  0  0  0  0  0
    5.2177    0.0000    0.0000 C   0  0  0  0  0  0  0  0  0  0  0  0
    5.8438   -0.5739    0.0000 C   0  0  0  0  0  0  0  0  0  0  0  0
    5.2699   -1.1479    0.0000 C   0  0  3  0  0  0  0  0  0  0  0  0
    4.3307   -0.4174    0.0000 C   0  0  0  0  0  0  0  0  0  0  0  0
    6.6786   -1.4088    0.0000 C   0  0  0  0  0  0  0  0  0  0  0  0
    7.1482   -2.7654    0.0000 C   0  0  3  0  0  0  0  0  0  0  0  0
    0.7827   -2.2436    0.0000 C   0  0  0  0  0  0  0  0  0  0  0  0
    6.6786   -1.9306    0.0000 C   0  0  0  0  0  0  0  0  0  0  0  0
    1.8784   -2.6610    0.0000 C   0  0  0  0  0  0  0  0  0  0  0  0
    7.6700   -4.1742    0.0000 C   0  0  0  0  0  0  0  0  0  0  0  0
    0.7827   -6.8873    0.0000 C   0  0  3  0  0  0  0  0  0  0  0  0
    7.6700   -5.1133    0.0000 C   0  0  0  0  0  0  0  0  0  0  0  0
    8.4527   -5.4264    0.0000 C   0  0  0  0  0  0  0  0  0  0  0  0
    9.0788   -5.1133    0.0000 C   0  0  0  0  0  0  0  0  0  0  0  0
    0.3131   -3.0785    0.0000 C   0  0  0  0  0  0  0  0  0  0  0  0
    9.0788   -4.1742    0.0000 C   0  0  0  0  0  0  0  0  0  0  0  0
    0.3131   -6.2612    0.0000 C   0  0  0  0  0  0  0  0  0  0  0  0
    7.4613   -5.8960    0.0000 C   0  0  0  0  0  0  0  0  0  0  0  0
    9.8614   -5.4264    0.0000 C   0  0  0  0  0  0  0  0  0  0  0  0
    9.8614   -3.8611    0.0000 C   0  0  0  0  0  0  0  0  0  0  0  0
    0.1565   -3.8611    0.0000 C   0  0  0  0  0  0  0  0  0  0  0  0
    2.0870   -7.9831    0.0000 C   0  0  0  0  0  0  0  0  0  0  0  0
    3.6524   -8.4527    0.0000 C   0  0  3  0  0  0  0  0  0  0  0  0
    4.4350   -8.4527    0.0000 C   0  0  3  0  0  0  0  0  0  0  0  0
    0.1565   -5.4264    0.0000 C   0  0  0  0  0  0  0  0  0  0  0  0
   10.4876   -5.1133    0.0000 C   0  0  0  0  0  0  0  0  0  0  0  0
   10.4876   -4.1742    0.0000 C   0  0  0  0  0  0  0  0  0  0  0  0
    0.0000   -4.6437    0.0000 C   0  0  0  0  0  0  0  0  0  0  0  0
    4.1220   -9.1310    0.0000 C   0  0  0  0  0  0  0  0  0  0  0  0
    7.0439   -6.4700    0.0000 C   0  0  0  0  0  0  0  0  0  0  0  0
    7.7743   -6.7308    0.0000 C   0  0  0  0  0  0  0  0  0  0  0  0
    5.2699   -8.1396    0.0000 C   0  0  0  0  0  0  0  0  0  0  0  0
    6.6786   -7.2004    0.0000 C   0  0  0  0  0  0  0  0  0  0  0  0
    6.0525   -7.8265    0.0000 C   0  0  0  0  0  0  0  0  0  0  0  0
    7.8265   -7.5134    0.0000 C   0  0  0  0  0  0  0  0  0  0  0  0
    7.0961   -7.9831    0.0000 C   0  0  0  0  0  0  0  0  0  0  0  0
    7.8787   -9.1831    0.0000 C   0  0  0  0  0  0  0  0  0  0  0  0
    6.4700   -9.2353    0.0000 C   0  0  0  0  0  0  0  0  0  0  0  0
    7.9309   -9.9658    0.0000 C   0  0  0  0  0  0  0  0  0  0  0  0
    6.4700  -10.0701    0.0000 C   0  0  0  0  0  0  0  0  0  0  0  0
    7.2004  -10.4354    0.0000 C   0  0  0  0  0  0  0  0  0  0  0  0
  1  3  2  0  0  0  0
  1  4  2  0  0  0  0
  1 12  1  0  0  0  0
  1 21  1  0  0  0  0
  2 20  2  0  0  0  0
  5 22  2  0  0  0  0
  6 29  1  0  0  0  0
  6 33  1  0  0  0  0
  7 32  2  0  0  0  0
  8 36  1  0  0  0  0
  8 54  1  0  0  0  0
  9 45  1  0  0  0  0
  9 46  1  0  0  0  0
 10 45  2  0  0  0  0
 11 17  1  0  0  0  0
 11 22  1  0  0  0  0
 12 20  1  0  0  0  0
 13 26  1  0  0  0  0
 13 31  1  0  0  0  0
 13 32  1  0  0  0  0
 14 33  1  0  0  0  0
 14 39  2  0  0  0  0
 15 34  1  0  0  0  0
 15 45  1  0  0  0  0
 16 59  1  0  0  0  0
 16 60  1  0  0  0  0
 16 61  1  0  0  0  0
 17 18  1  0  0  0  0
 17 19  1  0  0  0  0
 17 20  1  6  0  0  0
 18 19  1  6  0  0  0
 18 23  1  0  0  0  0
 21 24  1  0  0  0  0
 21 25  1  0  0  0  0
 21 27  1  0  0  0  0
 22 26  1  0  0  0  0
 23 30  2  3  0  0  0
 24 25  1  0  0  0  0
 26 28  1  6  0  0  0
 29 28  1  1  0  0  0
 29 31  1  0  0  0  0
 30 38  1  0  0  0  0
 32 34  1  0  0  0  0
 33 35  2  0  0  0  0
 34 40  1  1  0  0  0
 35 36  1  0  0  0  0
 35 41  1  0  0  0  0
 36 37  2  0  0  0  0
 37 39  1  0  0  0  0
 37 42  1  0  0  0  0
 38 44  1  0  0  0  0
 39 43  1  0  0  0  0
 40 48  1  0  0  0  0
 41 53  2  0  0  0  0
 42 49  2  0  0  0  0
 43 50  2  0  0  0  0
 44 51  1  0  0  0  0
 46 47  1  0  0  0  0
 46 52  1  1  0  0  0
 47 52  1  6  0  0  0
 47 55  1  0  0  0  0
 48 51  1  0  0  0  0
 49 50  1  0  0  0  0
 53 56  1  0  0  0  0
 54 58  1  0  0  0  0
 55 57  1  0  0  0  0
 56 57  1  0  0  0  0
 58 59  1  0  0  0  0
 60 62  1  0  0  0  0
 61 63  1  0  0  0  0
 62 64  1  0  0  0  0
 63 64  1  0  0  0  0
M  END
> <PUBCHEM_COMPOUND_ID_TYPE>
0

> <PUBCHEM_TOTAL_CHARGE>
0

> <PUBCHEM_SUBSTANCE_ID>
310929901

> <PUBCHEM_SUBSTANCE_VERSION>
1

> <PUBCHEM_EXT_DATASOURCE_NAME>
4488

> <PUBCHEM_EXT_DATASOURCE_REGID>
SCHEMBL16107118

> <PUBCHEM_SUBSTANCE_COMMENT>
InChI=1S/C48H64N6O9S/c1-47(22-23-47)64(59,60)52-45(57)48-30-33(48)17-8-3-2-4-10-21-38-44(56)54-31-34(29-39(54)42(55)51-48)62-43-36(19-9-5-7-16-32-28-40(32)63-46(58)50-38)41(35-18-11-12-20-37(35)49-43)61-27-15-26-53-24-13-6-14-25-53/h8-9,11-12,17-20,32-34,38-40H,2-7,10,13-16,21-31H2,1H3,(H,50,58)(H,51,55)(H,52,57)/b17-8-,19-9+/t32-,33-,34-,38+,39+,40-,48-/m1/s1
InChIKey=HPTGJEQAHUTWPQ-KOTJMEHESA-N

> <PUBCHEM_SUBSTANCE_SYNONYM>
SCHEMBL16107118

> <PUBCHEM_XREF_EXT_ID>
SCHEMBL16107118

> <PUBCHEM_EXT_DATASOURCE_URL>
https://www.surechembl.org/

> <PUBCHEM_EXT_SUBSTANCE_URL>
https://www.surechembl.org/chemical/SCHEMBL16107118

> <PUBCHEM_CID_ASSOCIATIONS>
117599162  1

> <PUBCHEM_COORDINATE_TYPE>
1
3

> <PUBCHEM_BONDANNOTATIONS>
17  20  6
18  19  6
26  28  6
29  28  5
34  40  5
46  52  5
47  52  6

$$$$
