310943286
  -OEChem-07211613022D

 40 44  0     1  0  0  0  0  0999 V2000
    4.6443   -1.1284    0.0000 F   0  0  0  0  0  0  0  0  0  0  0  0
    3.8267   -1.9297    0.0000 F   0  0  0  0  0  0  0  0  0  0  0  0
    3.0417   -1.1121    0.0000 F   0  0  0  0  0  0  0  0  0  0  0  0
   -3.2543   -0.2780    0.0000 O   0  0  0  0  0  0  0  0  0  0  0  0
   -4.5299    2.4694    0.0000 O   0  0  0  0  0  0  0  0  0  0  0  0
    2.4040    2.2077    0.0000 O   0  0  0  0  0  0  0  0  0  0  0  0
   -1.8479   -2.7801    0.0000 O   0  0  0  0  0  0  0  0  0  0  0  0
   -3.2543    1.4227    0.0000 N   0  0  0  0  0  0  0  0  0  0  0  0
   -1.8316   -0.2780    0.0000 N   0  0  0  0  0  0  0  0  0  0  0  0
    0.2943    2.6492    0.0000 N   0  0  0  0  0  0  0  0  0  0  0  0
    1.7171    0.9812    0.0000 N   0  0  0  0  0  0  0  0  0  0  0  0
   -2.5348    0.9812    0.0000 C   0  0  0  0  0  0  0  0  0  0  0  0
   -1.1121    0.9812    0.0000 C   0  0  0  0  0  0  0  0  0  0  0  0
   -0.4251    1.3900    0.0000 C   0  0  0  0  0  0  0  0  0  0  0  0
   -2.5511    0.1472    0.0000 C   0  0  0  0  0  0  0  0  0  0  0  0
   -1.8316    1.3900    0.0000 C   0  0  0  0  0  0  0  0  0  0  0  0
   -0.4089    2.2240    0.0000 C   0  0  0  0  0  0  0  0  0  0  0  0
   -1.1447    0.1308    0.0000 C   0  0  0  0  0  0  0  0  0  0  0  0
    0.3107    0.9812    0.0000 C   0  0  0  0  0  0  0  0  0  0  0  0
    1.0139    1.3900    0.0000 C   0  0  0  0  0  0  0  0  0  0  0  0
    3.1398    0.9812    0.0000 C   0  0  0  0  0  0  0  0  0  0  0  0
    2.4040    1.3737    0.0000 C   0  0  0  0  0  0  0  0  0  0  0  0
    1.0139    2.2077    0.0000 C   0  0  0  0  0  0  0  0  0  0  0  0
    3.8430   -0.2617    0.0000 C   0  0  0  0  0  0  0  0  0  0  0  0
   -3.2706   -1.1121    0.0000 C   0  0  3  0  0  0  0  0  0  0  0  0
   -3.9902    1.1284    0.0000 C   0  0  0  0  0  0  0  0  0  0  0  0
   -3.1235    2.2568    0.0000 C   0  0  0  0  0  0  0  0  0  0  0  0
    3.8267   -1.1121    0.0000 C   0  0  0  0  0  0  0  0  0  0  0  0
    3.1398    0.1308    0.0000 C   0  0  0  0  0  0  0  0  0  0  0  0
    3.8430    1.3737    0.0000 C   0  0  0  0  0  0  0  0  0  0  0  0
   -1.1284    2.6165    0.0000 C   0  0  0  0  0  0  0  0  0  0  0  0
    4.5299    0.1308    0.0000 C   0  0  0  0  0  0  0  0  0  0  0  0
   -2.5511   -1.5372    0.0000 C   0  0  0  0  0  0  0  0  0  0  0  0
   -4.6443    1.6516    0.0000 C   0  0  0  0  0  0  0  0  0  0  0  0
   -3.7613    2.7801    0.0000 C   0  0  0  0  0  0  0  0  0  0  0  0
   -3.9575   -1.5372    0.0000 C   0  0  0  0  0  0  0  0  0  0  0  0
    4.5462    0.9648    0.0000 C   0  0  0  0  0  0  0  0  0  0  0  0
   -2.5511   -2.3548    0.0000 C   0  0  3  0  0  0  0  0  0  0  0  0
   -3.9575   -2.3712    0.0000 C   0  0  0  0  0  0  0  0  0  0  0  0
   -3.2706   -2.7637    0.0000 C   0  0  0  0  0  0  0  0  0  0  0  0
  1 28  1  0  0  0  0
  2 28  1  0  0  0  0
  3 28  1  0  0  0  0
  4 15  1  0  0  0  0
  4 25  1  0  0  0  0
  5 34  1  0  0  0  0
  5 35  1  0  0  0  0
  6 22  2  0  0  0  0
  7 38  1  0  0  0  0
  8 12  1  0  0  0  0
  8 26  1  0  0  0  0
  8 27  1  0  0  0  0
  9 15  1  0  0  0  0
  9 18  2  0  0  0  0
 10 17  2  0  0  0  0
 10 23  1  0  0  0  0
 11 20  1  0  0  0  0
 11 22  1  0  0  0  0
 12 15  2  0  0  0  0
 12 16  1  0  0  0  0
 13 14  1  0  0  0  0
 13 16  2  0  0  0  0
 13 18  1  0  0  0  0
 14 17  1  0  0  0  0
 14 19  2  0  0  0  0
 17 31  1  0  0  0  0
 19 20  1  0  0  0  0
 20 23  2  0  0  0  0
 21 22  1  0  0  0  0
 21 29  2  0  0  0  0
 21 30  1  0  0  0  0
 24 28  1  0  0  0  0
 24 29  1  0  0  0  0
 24 32  2  0  0  0  0
 25 33  1  0  0  0  0
 25 36  1  0  0  0  0
 26 34  1  0  0  0  0
 27 35  1  0  0  0  0
 30 37  2  0  0  0  0
 32 37  1  0  0  0  0
 33 38  1  0  0  0  0
 36 39  1  0  0  0  0
 38 40  1  0  0  0  0
 39 40  1  0  0  0  0
M  END
> <PUBCHEM_COMPOUND_ID_TYPE>
0

> <PUBCHEM_TOTAL_CHARGE>
0

> <PUBCHEM_SUBSTANCE_ID>
310943286

> <PUBCHEM_SUBSTANCE_VERSION>
1

> <PUBCHEM_EXT_DATASOURCE_NAME>
4488

> <PUBCHEM_EXT_DATASOURCE_REGID>
SCHEMBL16121348

> <PUBCHEM_SUBSTANCE_COMMENT>
InChI=1S/C29H31F3N4O4/c1-18-25(14-22(17-33-18)35-27(38)19-4-2-5-21(12-19)29(30,31)32)20-13-26(36-8-10-39-11-9-36)28(34-16-20)40-24-7-3-6-23(37)15-24/h2,4-5,12-14,16-17,23-24,37H,3,6-11,15H2,1H3,(H,35,38)
InChIKey=BFOACAOHDXZAEA-UHFFFAOYSA-N

> <PUBCHEM_SUBSTANCE_SYNONYM>
SCHEMBL16121348

> <PUBCHEM_XREF_EXT_ID>
SCHEMBL16121348

> <PUBCHEM_EXT_DATASOURCE_URL>
https://www.surechembl.org/

> <PUBCHEM_EXT_SUBSTANCE_URL>
https://www.surechembl.org/chemical/SCHEMBL16121348

> <PUBCHEM_CID_ASSOCIATIONS>
117609711  1

> <PUBCHEM_COORDINATE_TYPE>
1
3

$$$$
