310936620
  -OEChem-07211613022D

 24 25  0     1  0  0  0  0  0999 V2000
    0.7984   -4.0983    0.0000 S   0  0  0  0  0  0  0  0  0  0  0  0
    0.1065   -5.3225    0.0000 F   0  0  0  0  0  0  0  0  0  0  0  0
    1.5435   -5.2958    0.0000 F   0  0  0  0  0  0  0  0  0  0  0  0
    0.1065   -4.4975    0.0000 F   0  0  0  0  0  0  0  0  0  0  0  0
    0.7984   -3.2733    0.0000 O   0  0  0  0  0  0  0  0  0  0  0  0
    0.0000   -4.0983    0.0000 O   0  0  0  0  0  0  0  0  0  0  0  0
    1.6499   -4.0983    0.0000 O   0  0  0  0  0  0  0  0  0  0  0  0
    2.2354   -0.8250    0.0000 O   0  0  0  0  0  0  0  0  0  0  0  0
    3.8056   -0.9580    0.0000 O   0  0  0  0  0  0  0  0  0  0  0  0
    2.9540   -2.0225    0.0000 C   0  0  3  0  0  0  0  0  0  0  0  0
    3.6459   -1.6234    0.0000 C   0  0  0  0  0  0  0  0  0  0  0  0
    0.8250   -4.8966    0.0000 C   0  0  0  0  0  0  0  0  0  0  0  0
    1.5169   -2.8475    0.0000 C   0  0  0  0  0  0  0  0  0  0  0  0
    2.9273   -1.1975    0.0000 C   0  0  0  0  0  0  0  0  0  0  0  0
    2.9540   -2.8475    0.0000 C   0  0  0  0  0  0  0  0  0  0  0  0
    2.2354   -1.6234    0.0000 C   0  0  0  0  0  0  0  0  0  0  0  0
    2.2354   -3.2733    0.0000 C   0  0  0  0  0  0  0  0  0  0  0  0
    1.5169   -2.0492    0.0000 C   0  0  0  0  0  0  0  0  0  0  0  0
    3.6459   -0.7984    0.0000 C   0  0  0  0  0  0  0  0  0  0  0  0
    4.3644   -2.0225    0.0000 C   0  0  0  0  0  0  0  0  0  0  0  0
    4.3644   -0.3726    0.0000 C   0  0  0  0  0  0  0  0  0  0  0  0
    5.0563   -1.6234    0.0000 C   0  0  0  0  0  0  0  0  0  0  0  0
    5.0563   -0.7984    0.0000 C   0  0  0  0  0  0  0  0  0  0  0  0
    2.2088    0.0000    0.0000 C   0  0  0  0  0  0  0  0  0  0  0  0
  1  5  1  0  0  0  0
  1  6  2  0  0  0  0
  1  7  2  0  0  0  0
  1 12  1  0  0  0  0
  2 12  1  0  0  0  0
  3 12  1  0  0  0  0
  4 12  1  0  0  0  0
  5 13  1  0  0  0  0
  8 14  1  0  0  0  0
  8 24  1  0  0  0  0
  9 14  2  0  0  0  0
 10 11  1  0  0  0  0
 10 14  1  0  0  0  0
 10 15  1  0  0  0  0
 10 16  1  0  0  0  0
 11 19  2  0  0  0  0
 11 20  1  0  0  0  0
 13 17  2  0  0  0  0
 13 18  1  0  0  0  0
 15 17  1  0  0  0  0
 16 18  1  0  0  0  0
 19 21  1  0  0  0  0
 20 22  2  0  0  0  0
 21 23  2  0  0  0  0
 22 23  1  0  0  0  0
M  END
> <PUBCHEM_COMPOUND_ID_TYPE>
0

> <PUBCHEM_TOTAL_CHARGE>
0

> <PUBCHEM_SUBSTANCE_ID>
310936620

> <PUBCHEM_SUBSTANCE_VERSION>
1

> <PUBCHEM_EXT_DATASOURCE_NAME>
4488

> <PUBCHEM_EXT_DATASOURCE_REGID>
SCHEMBL16114280

> <PUBCHEM_SUBSTANCE_COMMENT>
InChI=1S/C15H15F3O5S/c1-22-13(19)14(11-5-3-2-4-6-11)9-7-12(8-10-14)23-24(20,21)15(16,17)18/h2-7H,8-10H2,1H3
InChIKey=FAWKRVFGGJXVPZ-UHFFFAOYSA-N

> <PUBCHEM_SUBSTANCE_SYNONYM>
SCHEMBL16114280

> <PUBCHEM_XREF_EXT_ID>
SCHEMBL16114280

> <PUBCHEM_EXT_DATASOURCE_URL>
https://www.surechembl.org/

> <PUBCHEM_EXT_SUBSTANCE_URL>
https://www.surechembl.org/chemical/SCHEMBL16114280

> <PUBCHEM_CID_ASSOCIATIONS>
117604537  1

> <PUBCHEM_COORDINATE_TYPE>
1
3

$$$$
