310933172
  -OEChem-07211613022D

 14 13  0     1  0  0  0  0  0999 V2000
    1.4348   -0.8250    0.0000 P   0  0  0  0  0  0  0  0  0  0  0  0
    2.1343   -2.8876    0.0000 P   0  0  0  0  0  0  0  0  0  0  0  0
    0.0000   -1.6321    0.0000 F   0  0  0  0  0  0  0  0  0  0  0  0
    1.4348   -1.6501    0.0000 O   0  0  0  0  0  0  0  0  0  0  0  0
    1.4169   -3.2821    0.0000 O   0  0  0  0  0  0  0  0  0  0  0  0
    2.2419   -0.8071    0.0000 O   0  0  0  0  0  0  0  0  0  0  0  0
    0.6098   -0.8250    0.0000 O   0  0  0  0  0  0  0  0  0  0  0  0
    1.4348    0.0000    0.0000 O   0  0  0  0  0  0  0  0  0  0  0  0
    2.5468   -3.5871    0.0000 O   0  0  0  0  0  0  0  0  0  0  0  0
    1.7218   -2.1702    0.0000 O   0  0  0  0  0  0  0  0  0  0  0  0
    2.8517   -2.4751    0.0000 O   0  0  0  0  0  0  0  0  0  0  0  0
    0.7174   -2.0626    0.0000 C   0  0  3  0  0  0  0  0  0  0  0  0
    0.7174   -2.8697    0.0000 C   0  0  3  0  0  0  0  0  0  0  0  0
    0.0000   -3.2821    0.0000 C   0  0  0  0  0  0  0  0  0  0  0  0
  1  4  1  0  0  0  0
  1  6  2  0  0  0  0
  1  7  1  0  0  0  0
  1  8  1  0  0  0  0
  2  5  1  0  0  0  0
  2  9  2  0  0  0  0
  2 10  1  0  0  0  0
  2 11  1  0  0  0  0
  3 12  1  0  0  0  0
  4 12  1  0  0  0  0
  5 13  1  0  0  0  0
 12 13  1  0  0  0  0
 13 14  1  0  0  0  0
M  END
> <PUBCHEM_COMPOUND_ID_TYPE>
0

> <PUBCHEM_TOTAL_CHARGE>
0

> <PUBCHEM_SUBSTANCE_ID>
310933172

> <PUBCHEM_SUBSTANCE_VERSION>
1

> <PUBCHEM_EXT_DATASOURCE_NAME>
4488

> <PUBCHEM_EXT_DATASOURCE_REGID>
SCHEMBL16110581

> <PUBCHEM_SUBSTANCE_COMMENT>
InChI=1S/C3H9FO8P2/c1-2(11-13(5,6)7)3(4)12-14(8,9)10/h2-3H,1H3,(H2,5,6,7)(H2,8,9,10)
InChIKey=WMJBYCZYILXQIP-UHFFFAOYSA-N

> <PUBCHEM_SUBSTANCE_SYNONYM>
SCHEMBL16110581

> <PUBCHEM_XREF_EXT_ID>
SCHEMBL16110581

> <PUBCHEM_EXT_DATASOURCE_URL>
https://www.surechembl.org/

> <PUBCHEM_EXT_SUBSTANCE_URL>
https://www.surechembl.org/chemical/SCHEMBL16110581

> <PUBCHEM_CID_ASSOCIATIONS>
117601619  1

> <PUBCHEM_COORDINATE_TYPE>
1
3

$$$$
