310932380
  -OEChem-07211613022D

 62 64  0     1  0  0  0  0  0999 V2000
    0.0245    4.2904    0.0000 O   0  0  0  0  0  0  0  0  0  0  0  0
    1.4290    1.6500    0.0000 O   0  0  0  0  0  0  0  0  0  0  0  0
    2.1435    0.4125    0.0000 O   0  0  0  0  0  0  0  0  0  0  0  0
    1.5395    2.2702    0.0000 O   0  0  0  0  0  0  0  0  0  0  0  0
    1.9520   -1.7309    0.0000 O   0  0  0  0  0  0  0  0  0  0  0  0
   -2.0249    2.9080    0.0000 O   0  0  0  0  0  0  0  0  0  0  0  0
    2.3215   -2.2897    0.0000 O   0  0  0  0  0  0  0  0  0  0  0  0
    2.7757   -3.7621    0.0000 O   0  0  0  0  0  0  0  0  0  0  0  0
   -2.8579   -0.8250    0.0000 O   0  0  0  0  0  0  0  0  0  0  0  0
   -3.5724    1.2375    0.0000 O   0  0  0  0  0  0  0  0  0  0  0  0
    0.1782    1.3414    0.0000 N   0  0  0  0  0  0  0  0  0  0  0  0
   -0.5185    3.0709    0.0000 N   0  0  0  0  0  0  0  0  0  0  0  0
    3.1895   -1.0165    0.0000 N   0  0  0  0  0  0  0  0  0  0  0  0
    3.3805   -3.2010    0.0000 N   0  0  0  0  0  0  0  0  0  0  0  0
   -2.8579    0.0000    0.0000 N   0  0  0  0  0  0  0  0  0  0  0  0
    0.7145    0.4125    0.0000 C   0  0  3  0  0  0  0  0  0  0  0  0
    1.1270   -0.3020    0.0000 C   0  0  3  0  0  0  0  0  0  0  0  0
    1.4290    0.8250    0.0000 C   0  0  0  0  0  0  0  0  0  0  0  0
    0.7145    2.2702    0.0000 C   0  0  0  0  0  0  0  0  0  0  0  0
    0.3020    2.9847    0.0000 C   0  0  3  0  0  0  0  0  0  0  0  0
    0.0000    0.0000    0.0000 C   0  0  0  0  0  0  0  0  0  0  0  0
   -0.6901    3.8779    0.0000 C   0  0  0  0  0  0  0  0  0  0  0  0
   -1.4437    4.2134    0.0000 C   0  0  0  0  0  0  0  0  0  0  0  0
    1.9520   -0.3020    0.0000 C   0  0  0  0  0  0  0  0  0  0  0  0
    0.6376    3.7383    0.0000 C   0  0  0  0  0  0  0  0  0  0  0  0
    2.3645   -1.0165    0.0000 C   0  0  0  0  0  0  0  0  0  0  0  0
   -2.1112    3.7285    0.0000 C   0  0  0  0  0  0  0  0  0  0  0  0
    0.7145   -1.0165    0.0000 C   0  0  0  0  0  0  0  0  0  0  0  0
   -0.7145    0.4125    0.0000 C   0  0  0  0  0  0  0  0  0  0  0  0
   -1.5300    5.0340    0.0000 C   0  0  0  0  0  0  0  0  0  0  0  0
    3.6020   -1.7309    0.0000 C   0  0  3  0  0  0  0  0  0  0  0  0
   -2.8649    4.0641    0.0000 C   0  0  0  0  0  0  0  0  0  0  0  0
   -1.4290    0.0000    0.0000 C   0  0  0  0  0  0  0  0  0  0  0  0
   -2.2836    5.3695    0.0000 C   0  0  0  0  0  0  0  0  0  0  0  0
    3.1373   -2.4126    0.0000 C   0  0  0  0  0  0  0  0  0  0  0  0
   -2.9511    4.8846    0.0000 C   0  0  0  0  0  0  0  0  0  0  0  0
    4.4247   -1.6693    0.0000 C   0  0  0  0  0  0  0  0  0  0  0  0
   -2.1435    0.4125    0.0000 C   0  0  0  0  0  0  0  0  0  0  0  0
    4.1485   -3.5024    0.0000 C   0  0  0  0  0  0  0  0  0  0  0  0
    4.9859   -2.2741    0.0000 C   0  0  0  0  0  0  0  0  0  0  0  0
    4.8629   -3.0899    0.0000 C   0  0  0  0  0  0  0  0  0  0  0  0
   -3.5724    0.4125    0.0000 C   0  0  0  0  0  0  0  0  0  0  0  0
   -4.2869    0.0000    0.0000 C   0  0  0  0  0  0  0  0  0  0  0  0
   -5.0014    0.4125    0.0000 C   0  0  0  0  0  0  0  0  0  0  0  0
   -5.7159    0.0000    0.0000 C   0  0  0  0  0  0  0  0  0  0  0  0
   -6.4304    0.4125    0.0000 C   0  0  0  0  0  0  0  0  0  0  0  0
   -7.1449    0.0000    0.0000 C   0  0  0  0  0  0  0  0  0  0  0  0
   -7.8594    0.4125    0.0000 C   0  0  0  0  0  0  0  0  0  0  0  0
   -8.5738    0.0000    0.0000 C   0  0  0  0  0  0  0  0  0  0  0  0
   -9.2883    0.4125    0.0000 C   0  0  0  0  0  0  0  0  0  0  0  0
  -10.0028    0.0000    0.0000 C   0  0  0  0  0  0  0  0  0  0  0  0
  -10.7173    0.4125    0.0000 C   0  0  0  0  0  0  0  0  0  0  0  0
  -11.4318    0.0000    0.0000 C   0  0  0  0  0  0  0  0  0  0  0  0
  -12.1463    0.4125    0.0000 C   0  0  0  0  0  0  0  0  0  0  0  0
  -12.8607    0.0000    0.0000 C   0  0  0  0  0  0  0  0  0  0  0  0
  -13.5753    0.4125    0.0000 C   0  0  0  0  0  0  0  0  0  0  0  0
  -14.2897    0.0000    0.0000 C   0  0  0  0  0  0  0  0  0  0  0  0
  -15.0042    0.4125    0.0000 C   0  0  0  0  0  0  0  0  0  0  0  0
  -15.7187    0.0000    0.0000 C   0  0  0  0  0  0  0  0  0  0  0  0
  -16.4332    0.4125    0.0000 C   0  0  0  0  0  0  0  0  0  0  0  0
  -17.1477    0.0000    0.0000 C   0  0  0  0  0  0  0  0  0  0  0  0
  -17.8622    0.4125    0.0000 C   0  0  0  0  0  0  0  0  0  0  0  0
  1 22  1  0  0  0  0
  1 25  1  0  0  0  0
  2 18  2  0  0  0  0
  3 18  1  0  0  0  0
  4 19  2  0  0  0  0
  5 26  2  0  0  0  0
  6 27  2  0  0  0  0
  7 35  2  0  0  0  0
  8 14  1  0  0  0  0
  9 15  1  0  0  0  0
 10 42  2  0  0  0  0
 11 16  1  0  0  0  0
 11 19  1  0  0  0  0
 12 20  1  0  0  0  0
 12 22  1  0  0  0  0
 13 26  1  0  0  0  0
 13 31  1  0  0  0  0
 14 35  1  0  0  0  0
 14 39  1  0  0  0  0
 15 38  1  0  0  0  0
 15 42  1  0  0  0  0
 16 17  1  0  0  0  0
 16 18  1  0  0  0  0
 16 21  1  0  0  0  0
 17 24  1  0  0  0  0
 17 28  1  0  0  0  0
 19 20  1  0  0  0  0
 20 25  1  0  0  0  0
 21 29  1  0  0  0  0
 22 23  2  0  0  0  0
 23 27  1  0  0  0  0
 23 30  1  0  0  0  0
 24 26  1  0  0  0  0
 27 32  1  0  0  0  0
 29 33  1  0  0  0  0
 30 34  2  0  0  0  0
 31 35  1  0  0  0  0
 31 37  1  0  0  0  0
 32 36  2  0  0  0  0
 33 38  1  0  0  0  0
 34 36  1  0  0  0  0
 37 40  1  0  0  0  0
 39 41  1  0  0  0  0
 40 41  1  0  0  0  0
 42 43  1  0  0  0  0
 43 44  1  0  0  0  0
 44 45  1  0  0  0  0
 45 46  1  0  0  0  0
 46 47  1  0  0  0  0
 47 48  1  0  0  0  0
 48 49  1  0  0  0  0
 49 50  1  0  0  0  0
 50 51  1  0  0  0  0
 51 52  1  0  0  0  0
 52 53  1  0  0  0  0
 53 54  1  0  0  0  0
 54 55  1  0  0  0  0
 55 56  1  0  0  0  0
 56 57  1  0  0  0  0
 57 58  1  0  0  0  0
 58 59  1  0  0  0  0
 59 60  1  0  0  0  0
 60 61  1  0  0  0  0
 61 62  1  0  0  0  0
M  END
> <PUBCHEM_COMPOUND_ID_TYPE>
0

> <PUBCHEM_TOTAL_CHARGE>
0

> <PUBCHEM_SUBSTANCE_ID>
310932380

> <PUBCHEM_SUBSTANCE_VERSION>
1

> <PUBCHEM_EXT_DATASOURCE_NAME>
4488

> <PUBCHEM_EXT_DATASOURCE_REGID>
SCHEMBL16109746

> <PUBCHEM_SUBSTANCE_COMMENT>
InChI=1S/C47H77N5O10/c1-3-4-5-6-7-8-9-10-11-12-13-14-15-16-17-18-19-20-30-42(55)51(60)32-26-24-31-47(46(58)59,36(2)34-41(54)48-38-28-23-25-33-52(61)45(38)57)50-43(56)39-35-62-44(49-39)37-27-21-22-29-40(37)53/h21-22,27,29,36,38-39,49,60-61H,3-20,23-26,28,30-35H2,1-2H3,(H,48,54)(H,50,56)(H,58,59)/b44-37+
InChIKey=LZXNAWRFYMBMRU-QDIWCCNHSA-N

> <PUBCHEM_SUBSTANCE_SYNONYM>
SCHEMBL16109746

> <PUBCHEM_XREF_EXT_ID>
SCHEMBL16109746

> <PUBCHEM_EXT_DATASOURCE_URL>
https://www.surechembl.org/

> <PUBCHEM_EXT_SUBSTANCE_URL>
https://www.surechembl.org/chemical/SCHEMBL16109746

> <PUBCHEM_CID_ASSOCIATIONS>
117600935  1

> <PUBCHEM_COORDINATE_TYPE>
1
3

$$$$
