310942963
  -OEChem-07211613022D

 28 31  0     1  0  0  0  0  0999 V2000
    2.0387   -2.1034    0.0000 F   0  0  0  0  0  0  0  0  0  0  0  0
    3.3978   -1.6503    0.0000 F   0  0  0  0  0  0  0  0  0  0  0  0
    2.8477   -2.2652    0.0000 F   0  0  0  0  0  0  0  0  0  0  0  0
   -2.6697   -0.2427    0.0000 O   0  0  0  0  0  0  0  0  0  0  0  0
    2.8801   -0.0809    0.0000 N   0  0  0  0  0  0  0  0  0  0  0  0
   -0.9223   -0.0162    0.0000 N   0  0  0  0  0  0  0  0  0  0  0  0
   -0.6957    1.4400    0.0000 N   0  0  0  0  0  0  0  0  0  0  0  0
   -1.1812    2.1196    0.0000 N   0  0  0  0  0  0  0  0  0  0  0  0
   -3.3978    1.0193    0.0000 N   0  0  0  0  0  0  0  0  0  0  0  0
    1.9901    1.2620    0.0000 C   0  0  0  0  0  0  0  0  0  0  0  0
    2.6050    0.7443    0.0000 C   0  0  3  0  0  0  0  0  0  0  0  0
    2.7830    1.5048    0.0000 C   0  0  0  0  0  0  0  0  0  0  0  0
    2.3299   -0.7119    0.0000 C   0  0  3  0  0  0  0  0  0  0  0  0
   -1.9739    1.0193    0.0000 C   0  0  0  0  0  0  0  0  0  0  0  0
   -1.1812    0.7605    0.0000 C   0  0  0  0  0  0  0  0  0  0  0  0
   -1.9416    1.8607    0.0000 C   0  0  0  0  0  0  0  0  0  0  0  0
    1.5048   -0.5177    0.0000 C   0  0  0  0  0  0  0  0  0  0  0  0
    2.5888   -1.4886    0.0000 C   0  0  0  0  0  0  0  0  0  0  0  0
   -2.6697    0.6149    0.0000 C   0  0  0  0  0  0  0  0  0  0  0  0
   -0.0971   -0.1942    0.0000 C   0  0  0  0  0  0  0  0  0  0  0  0
    1.2135    0.9870    0.0000 C   0  0  0  0  0  0  0  0  0  0  0  0
    1.3753    1.7960    0.0000 C   0  0  0  0  0  0  0  0  0  0  0  0
    0.9708   -1.1326    0.0000 C   0  0  0  0  0  0  0  0  0  0  0  0
    1.2620    0.2589    0.0000 C   0  0  0  0  0  0  0  0  0  0  0  0
   -2.6859    2.2652    0.0000 C   0  0  0  0  0  0  0  0  0  0  0  0
    0.1618   -0.9708    0.0000 C   0  0  0  0  0  0  0  0  0  0  0  0
    0.4530    0.4207    0.0000 C   0  0  0  0  0  0  0  0  0  0  0  0
   -3.3978    1.8445    0.0000 C   0  0  0  0  0  0  0  0  0  0  0  0
  1 18  1  0  0  0  0
  2 18  1  0  0  0  0
  3 18  1  0  0  0  0
  4 19  2  0  0  0  0
  5 11  1  0  0  0  0
  5 13  1  0  0  0  0
  6 15  1  0  0  0  0
  6 20  1  0  0  0  0
  7  8  1  0  0  0  0
  7 15  2  0  0  0  0
  8 16  1  0  0  0  0
  9 19  1  0  0  0  0
  9 28  1  0  0  0  0
 10 11  1  0  0  0  0
 10 12  1  0  0  0  0
 10 21  1  0  0  0  0
 10 22  1  0  0  0  0
 11 12  1  0  0  0  0
 13 17  1  0  0  0  0
 13 18  1  0  0  0  0
 14 15  1  0  0  0  0
 14 16  2  0  0  0  0
 14 19  1  0  0  0  0
 16 25  1  0  0  0  0
 17 23  2  0  0  0  0
 17 24  1  0  0  0  0
 20 26  2  0  0  0  0
 20 27  1  0  0  0  0
 23 26  1  0  0  0  0
 24 27  2  0  0  0  0
 25 28  2  0  0  0  0
M  END
> <PUBCHEM_COMPOUND_ID_TYPE>
0

> <PUBCHEM_TOTAL_CHARGE>
0

> <PUBCHEM_SUBSTANCE_ID>
310942963

> <PUBCHEM_SUBSTANCE_VERSION>
1

> <PUBCHEM_EXT_DATASOURCE_NAME>
4488

> <PUBCHEM_EXT_DATASOURCE_REGID>
SCHEMBL16121022

> <PUBCHEM_SUBSTANCE_COMMENT>
InChI=1S/C19H20F3N5O/c1-18(2)9-13(18)25-15(19(20,21)22)10-3-5-11(6-4-10)24-16-14-12(26-27-16)7-8-23-17(14)28/h3-8,13,15,25H,9H2,1-2H3,(H,23,28)(H2,24,26,27)
InChIKey=DBPFPKVBKSYQFF-UHFFFAOYSA-N

> <PUBCHEM_SUBSTANCE_SYNONYM>
SCHEMBL16121022

> <PUBCHEM_XREF_EXT_ID>
SCHEMBL16121022

> <PUBCHEM_EXT_DATASOURCE_URL>
https://www.surechembl.org/

> <PUBCHEM_EXT_SUBSTANCE_URL>
https://www.surechembl.org/chemical/SCHEMBL16121022

> <PUBCHEM_CID_ASSOCIATIONS>
117609425  1

> <PUBCHEM_COORDINATE_TYPE>
1
3

$$$$
