310946616
  -OEChem-07211613022D

 28 27  0     1  0  0  0  0  0999 V2000
   -2.5421    8.3164    0.0000 O   0  0  0  0  0  0  0  0  0  0  0  0
   -1.1131    8.3164    0.0000 O   0  0  0  0  0  0  0  0  0  0  0  0
    0.3158    8.3164    0.0000 O   0  0  0  0  0  0  0  0  0  0  0  0
   -6.1144    7.9039    0.0000 O   0  0  0  0  0  0  0  0  0  0  0  0
   -3.2565    7.0789    0.0000 O   0  0  0  0  0  0  0  0  0  0  0  0
   -0.3986    7.0789    0.0000 O   0  0  0  0  0  0  0  0  0  0  0  0
   -5.3999    9.1414    0.0000 O   0  0  0  0  0  0  0  0  0  0  0  0
   -8.2578    8.3164    0.0000 O   0  0  0  0  0  0  0  0  0  0  0  0
   -9.9003    9.1133    0.0000 O   0  0  0  0  0  0  0  0  0  0  0  0
  -10.9107   10.1237    0.0000 O   0  5  0  0  0  0  0  0  0  0  0  0
  -11.2805    8.7435    0.0000 O   0  0  0  0  0  0  0  0  0  0  0  0
   -4.6855    7.9039    0.0000 N   0  0  0  0  0  0  0  0  0  0  0  0
  -10.6972    9.3269    0.0000 N   0  3  0  0  0  0  0  0  0  0  0  0
   -1.8276    7.9039    0.0000 C   0  0  3  0  0  0  0  0  0  0  0  0
   -3.2565    7.9039    0.0000 C   0  0  0  0  0  0  0  0  0  0  0  0
   -0.3986    7.9039    0.0000 C   0  0  0  0  0  0  0  0  0  0  0  0
   -3.9710    8.3164    0.0000 C   0  0  0  0  0  0  0  0  0  0  0  0
   -5.3999    8.3164    0.0000 C   0  0  0  0  0  0  0  0  0  0  0  0
   -1.8276    7.0789    0.0000 C   0  0  0  0  0  0  0  0  0  0  0  0
    1.0303    7.9039    0.0000 C   0  0  0  0  0  0  0  0  0  0  0  0
   -6.8289    8.3164    0.0000 C   0  0  0  0  0  0  0  0  0  0  0  0
   -7.5434    7.9039    0.0000 C   0  0  0  0  0  0  0  0  0  0  0  0
    1.7448    8.3164    0.0000 C   0  0  0  0  0  0  0  0  0  0  0  0
   -8.9723    7.9039    0.0000 C   0  0  0  0  0  0  0  0  0  0  0  0
   -9.6868    8.3164    0.0000 C   0  0  0  0  0  0  0  0  0  0  0  0
    2.4592    7.9039    0.0000 C   0  0  0  0  0  0  0  0  0  0  0  0
    3.1737    8.3164    0.0000 C   0  0  0  0  0  0  0  0  0  0  0  0
    3.8882    7.9039    0.0000 C   0  0  0  0  0  0  0  0  0  0  0  0
  1 14  1  0  0  0  0
  1 15  1  0  0  0  0
  2 14  1  0  0  0  0
  2 16  1  0  0  0  0
  3 16  1  0  0  0  0
  3 20  1  0  0  0  0
  4 18  1  0  0  0  0
  4 21  1  0  0  0  0
  5 15  2  0  0  0  0
  6 16  2  0  0  0  0
  7 18  2  0  0  0  0
  8 22  1  0  0  0  0
  8 24  1  0  0  0  0
  9 13  1  0  0  0  0
  9 25  1  0  0  0  0
 10 13  1  0  0  0  0
 11 13  2  0  0  0  0
 12 17  1  0  0  0  0
 12 18  1  0  0  0  0
 14 19  1  0  0  0  0
 15 17  1  0  0  0  0
 20 23  1  0  0  0  0
 21 22  1  0  0  0  0
 23 26  1  0  0  0  0
 24 25  1  0  0  0  0
 26 27  1  0  0  0  0
 27 28  1  0  0  0  0
M  CHG  2  10  -1  13   1
M  END
> <PUBCHEM_COMPOUND_ID_TYPE>
0

> <PUBCHEM_TOTAL_CHARGE>
0

> <PUBCHEM_SUBSTANCE_ID>
310946616

> <PUBCHEM_SUBSTANCE_VERSION>
1

> <PUBCHEM_EXT_DATASOURCE_NAME>
4488

> <PUBCHEM_EXT_DATASOURCE_REGID>
SCHEMBL16124737

> <PUBCHEM_SUBSTANCE_COMMENT>
InChI=1S/C15H26N2O11/c1-3-4-5-6-25-15(20)28-12(2)27-13(18)11-16-14(19)24-9-7-23-8-10-26-17(21)22/h12H,3-11H2,1-2H3,(H,16,19)
InChIKey=JAPSZEUALSFQGF-UHFFFAOYSA-N

> <PUBCHEM_SUBSTANCE_SYNONYM>
SCHEMBL16124737

> <PUBCHEM_XREF_EXT_ID>
SCHEMBL16124737

> <PUBCHEM_EXT_DATASOURCE_URL>
https://www.surechembl.org/

> <PUBCHEM_EXT_SUBSTANCE_URL>
https://www.surechembl.org/chemical/SCHEMBL16124737

> <PUBCHEM_CID_ASSOCIATIONS>
117612516  1

> <PUBCHEM_COORDINATE_TYPE>
1
3

$$$$
