310929911
  -OEChem-07211613022D

 22 24  0     1  0  0  0  0  0999 V2000
    4.1059   -2.4510    0.0000 O   0  0  0  0  0  0  0  0  0  0  0  0
    0.0000   -3.0166    0.0000 O   0  0  0  0  0  0  0  0  0  0  0  0
    0.8379   -4.1688    0.0000 O   0  0  0  0  0  0  0  0  0  0  0  0
    4.8601   -1.2569    0.0000 O   0  0  0  0  0  0  0  0  0  0  0  0
    6.2845   -1.2779    0.0000 O   0  0  0  0  0  0  0  0  0  0  0  0
    1.4035   -2.8700    0.0000 N   0  0  0  0  0  0  0  0  0  0  0  0
    6.2426   -2.8909    0.0000 N   0  0  0  0  0  0  0  0  0  0  0  0
    2.6814   -2.4510    0.0000 C   0  0  3  0  0  0  0  0  0  0  0  0
    2.1996   -1.8015    0.0000 C   0  0  3  0  0  0  0  0  0  0  0  0
    3.0166   -1.7178    0.0000 C   0  0  0  0  0  0  0  0  0  0  0  0
    2.1996   -3.1213    0.0000 C   0  0  0  0  0  0  0  0  0  0  0  0
    1.4035   -2.0530    0.0000 C   0  0  0  0  0  0  0  0  0  0  0  0
    3.3937   -2.8700    0.0000 C   0  0  0  0  0  0  0  0  0  0  0  0
    0.7332   -3.3518    0.0000 C   0  0  0  0  0  0  0  0  0  0  0  0
    4.8182   -2.8700    0.0000 C   0  0  0  0  0  0  0  0  0  0  0  0
    5.5513   -2.4929    0.0000 C   0  0  0  0  0  0  0  0  0  0  0  0
    5.5513   -1.6549    0.0000 C   0  0  0  0  0  0  0  0  0  0  0  0
    4.8391   -3.7079    0.0000 C   0  0  0  0  0  0  0  0  0  0  0  0
    5.5304   -4.1059    0.0000 C   0  0  0  0  0  0  0  0  0  0  0  0
    6.2636   -3.7289    0.0000 C   0  0  0  0  0  0  0  0  0  0  0  0
    4.8810   -0.4190    0.0000 C   0  0  0  0  0  0  0  0  0  0  0  0
    4.1688    0.0000    0.0000 C   0  0  0  0  0  0  0  0  0  0  0  0
  1 13  1  0  0  0  0
  1 15  1  0  0  0  0
  2 14  2  0  0  0  0
  3 14  1  0  0  0  0
  4 17  1  0  0  0  0
  4 21  1  0  0  0  0
  5 17  2  0  0  0  0
  6 11  1  0  0  0  0
  6 12  1  0  0  0  0
  6 14  1  0  0  0  0
  7 16  1  0  0  0  0
  7 20  2  0  0  0  0
  8  9  1  0  0  0  0
  8 10  1  0  0  0  0
  8 11  1  0  0  0  0
  8 13  1  0  0  0  0
  9 10  1  0  0  0  0
  9 12  1  0  0  0  0
 15 16  2  0  0  0  0
 15 18  1  0  0  0  0
 16 17  1  0  0  0  0
 18 19  2  0  0  0  0
 19 20  1  0  0  0  0
 21 22  1  0  0  0  0
M  END
> <PUBCHEM_COMPOUND_ID_TYPE>
0

> <PUBCHEM_TOTAL_CHARGE>
0

> <PUBCHEM_SUBSTANCE_ID>
310929911

> <PUBCHEM_SUBSTANCE_VERSION>
1

> <PUBCHEM_EXT_DATASOURCE_NAME>
4488

> <PUBCHEM_EXT_DATASOURCE_REGID>
SCHEMBL16107128

> <PUBCHEM_SUBSTANCE_COMMENT>
InChI=1S/C15H18N2O5/c1-2-21-13(18)12-11(4-3-5-16-12)22-9-15-6-10(15)7-17(8-15)14(19)20/h3-5,10H,2,6-9H2,1H3,(H,19,20)
InChIKey=YJMADHPYWWFCBW-UHFFFAOYSA-N

> <PUBCHEM_SUBSTANCE_SYNONYM>
SCHEMBL16107128

> <PUBCHEM_XREF_EXT_ID>
SCHEMBL16107128

> <PUBCHEM_EXT_DATASOURCE_URL>
https://www.surechembl.org/

> <PUBCHEM_EXT_SUBSTANCE_URL>
https://www.surechembl.org/chemical/SCHEMBL16107128

> <PUBCHEM_CID_ASSOCIATIONS>
117599172  1

> <PUBCHEM_COORDINATE_TYPE>
1
3

$$$$
