310943883
  -OEChem-07211613022D

 30 33  0     1  0  0  0  0  0999 V2000
   -2.6338   -0.8597    0.0000 N   0  0  3  0  0  0  0  0  0  0  0  0
    3.8364    1.2473    0.0000 N   0  0  0  0  0  0  0  0  0  0  0  0
   -4.4228   -0.3230    0.0000 N   0  0  3  0  0  0  0  0  0  0  0  0
    1.6697   -1.6648    0.0000 N   0  0  0  0  0  0  0  0  0  0  0  0
    0.2485   -0.0149    0.0000 C   0  0  0  0  0  0  0  0  0  0  0  0
    0.2386   -0.8399    0.0000 C   0  0  0  0  0  0  0  0  0  0  0  0
    0.9641    0.4124    0.0000 C   0  0  0  0  0  0  0  0  0  0  0  0
   -1.1927   -0.8498    0.0000 C   0  0  0  0  0  0  0  0  0  0  0  0
   -0.4572   -1.2573    0.0000 C   0  0  0  0  0  0  0  0  0  0  0  0
   -0.4870    0.3827    0.0000 C   0  0  0  0  0  0  0  0  0  0  0  0
   -1.1927   -0.0248    0.0000 C   0  0  0  0  0  0  0  0  0  0  0  0
    1.6996    0.0050    0.0000 C   0  0  0  0  0  0  0  0  0  0  0  0
    0.9641    1.2374    0.0000 C   0  0  0  0  0  0  0  0  0  0  0  0
    2.3953    1.2473    0.0000 C   0  0  0  0  0  0  0  0  0  0  0  0
   -1.8984   -1.2573    0.0000 C   0  0  0  0  0  0  0  0  0  0  0  0
    2.3953    0.4224    0.0000 C   0  0  0  0  0  0  0  0  0  0  0  0
    1.6896    1.6548    0.0000 C   0  0  0  0  0  0  0  0  0  0  0  0
    0.9641   -1.2573    0.0000 C   0  0  0  0  0  0  0  0  0  0  0  0
    3.1109    1.6648    0.0000 C   0  0  0  0  0  0  0  0  0  0  0  0
   -3.3196   -1.3268    0.0000 C   0  0  0  0  0  0  0  0  0  0  0  0
   -2.5841   -0.0248    0.0000 C   0  0  0  0  0  0  0  0  0  0  0  0
   -4.1048   -1.0783    0.0000 C   0  0  0  0  0  0  0  0  0  0  0  0
    3.8463    0.4224    0.0000 C   0  0  0  0  0  0  0  0  0  0  0  0
    4.5421    1.6648    0.0000 C   0  0  0  0  0  0  0  0  0  0  0  0
   -3.1804    0.5317    0.0000 C   0  0  0  0  0  0  0  0  0  0  0  0
   -4.0053    0.4124    0.0000 C   0  0  0  0  0  0  0  0  0  0  0  0
    4.5421    0.0149    0.0000 C   0  0  0  0  0  0  0  0  0  0  0  0
    5.2576    1.2573    0.0000 C   0  0  0  0  0  0  0  0  0  0  0  0
    5.2676    0.4224    0.0000 C   0  0  0  0  0  0  0  0  0  0  0  0
   -5.2676   -0.3230    0.0000 C   0  0  0  0  0  0  0  0  0  0  0  0
  1 15  1  0  0  0  0
  1 20  1  0  0  0  0
  1 21  1  0  0  0  0
  2 19  1  0  0  0  0
  2 23  1  0  0  0  0
  2 24  1  0  0  0  0
  3 22  1  0  0  0  0
  3 26  1  0  0  0  0
  3 30  1  0  0  0  0
  4 18  3  0  0  0  0
  5  6  1  0  0  0  0
  5  7  1  0  0  0  0
  5 10  2  0  0  0  0
  6  9  2  0  0  0  0
  6 18  1  0  0  0  0
  7 12  2  0  0  0  0
  7 13  1  0  0  0  0
  8  9  1  0  0  0  0
  8 11  2  0  0  0  0
  8 15  1  0  0  0  0
 10 11  1  0  0  0  0
 12 16  1  0  0  0  0
 13 17  2  0  0  0  0
 14 16  2  0  0  0  0
 14 17  1  0  0  0  0
 14 19  1  0  0  0  0
 20 22  1  0  0  0  0
 21 25  1  0  0  0  0
 23 27  1  0  0  0  0
 24 28  1  0  0  0  0
 25 26  1  0  0  0  0
 27 29  1  0  0  0  0
 28 29  1  0  0  0  0
M  END
> <PUBCHEM_COMPOUND_ID_TYPE>
0

> <PUBCHEM_TOTAL_CHARGE>
0

> <PUBCHEM_SUBSTANCE_ID>
310943883

> <PUBCHEM_SUBSTANCE_VERSION>
1

> <PUBCHEM_EXT_DATASOURCE_NAME>
4488

> <PUBCHEM_EXT_DATASOURCE_REGID>
SCHEMBL16121954

> <PUBCHEM_SUBSTANCE_COMMENT>
InChI=1S/C26H34N4/c1-28-12-5-15-30(17-16-28)21-23-8-11-26(25(18-23)19-27)24-9-6-22(7-10-24)20-29-13-3-2-4-14-29/h6-11,18H,2-5,12-17,20-21H2,1H3
InChIKey=URBWBKUOMYVAFE-UHFFFAOYSA-N

> <PUBCHEM_SUBSTANCE_SYNONYM>
SCHEMBL16121954

> <PUBCHEM_XREF_EXT_ID>
SCHEMBL16121954

> <PUBCHEM_EXT_DATASOURCE_URL>
https://www.surechembl.org/

> <PUBCHEM_EXT_SUBSTANCE_URL>
https://www.surechembl.org/chemical/SCHEMBL16121954

> <PUBCHEM_CID_ASSOCIATIONS>
117610209  1

> <PUBCHEM_COORDINATE_TYPE>
1
3

$$$$
