310947736
  -OEChem-07211613022D

 25 27  0     1  0  0  0  0  0999 V2000
   -1.8176   -3.0711    0.0000 N   0  0  0  0  0  0  0  0  0  0  0  0
   -1.3327   -3.7386    0.0000 N   0  0  0  0  0  0  0  0  0  0  0  0
   -1.2905   -0.2213    0.0000 N   0  0  0  0  0  0  0  0  0  0  0  0
    0.8809   -2.6586    0.0000 N   0  0  3  0  0  0  0  0  0  0  0  0
   -2.3524    0.7348    0.0000 N   0  0  0  0  0  0  0  0  0  0  0  0
    3.0243   -2.2461    0.0000 N   0  0  0  0  0  0  0  0  0  0  0  0
   -1.3327   -2.4037    0.0000 C   0  0  0  0  0  0  0  0  0  0  0  0
   -1.5876   -1.6191    0.0000 C   0  0  0  0  0  0  0  0  0  0  0  0
   -0.5480   -2.6586    0.0000 C   0  0  0  0  0  0  0  0  0  0  0  0
   -0.5480   -3.4836    0.0000 C   0  0  0  0  0  0  0  0  0  0  0  0
   -1.0356   -1.0060    0.0000 C   0  0  0  0  0  0  0  0  0  0  0  0
   -2.3946   -1.4475    0.0000 C   0  0  0  0  0  0  0  0  0  0  0  0
    0.1664   -2.2461    0.0000 C   0  0  0  0  0  0  0  0  0  0  0  0
   -2.0975   -0.0498    0.0000 C   0  0  0  0  0  0  0  0  0  0  0  0
   -2.6495   -0.6629    0.0000 C   0  0  0  0  0  0  0  0  0  0  0  0
   -1.8004    1.3479    0.0000 C   0  0  0  0  0  0  0  0  0  0  0  0
   -2.0139    2.1448    0.0000 C   0  0  0  0  0  0  0  0  0  0  0  0
    1.5954   -2.2461    0.0000 C   0  0  0  0  0  0  0  0  0  0  0  0
    0.8809   -3.4836    0.0000 C   0  0  0  0  0  0  0  0  0  0  0  0
   -1.4305    2.7281    0.0000 C   0  0  0  0  0  0  0  0  0  0  0  0
   -2.8108    2.3583    0.0000 C   0  0  0  0  0  0  0  0  0  0  0  0
    2.3098   -2.6586    0.0000 C   0  0  0  0  0  0  0  0  0  0  0  0
   -1.6441    3.5250    0.0000 C   0  0  0  0  0  0  0  0  0  0  0  0
   -3.0243    3.1552    0.0000 C   0  0  0  0  0  0  0  0  0  0  0  0
   -2.4410    3.7386    0.0000 C   0  0  0  0  0  0  0  0  0  0  0  0
  1  2  1  0  0  0  0
  1  7  2  0  0  0  0
  2 10  1  0  0  0  0
  3 11  1  0  0  0  0
  3 14  2  0  0  0  0
  4 13  1  0  0  0  0
  4 18  1  0  0  0  0
  4 19  1  0  0  0  0
  5 14  1  0  0  0  0
  5 16  1  0  0  0  0
  6 22  1  0  0  0  0
  7  8  1  0  0  0  0
  7  9  1  0  0  0  0
  8 11  2  0  0  0  0
  8 12  1  0  0  0  0
  9 10  2  0  0  0  0
  9 13  1  0  0  0  0
 12 15  2  0  0  0  0
 14 15  1  0  0  0  0
 16 17  1  0  0  0  0
 17 20  2  0  0  0  0
 17 21  1  0  0  0  0
 18 22  1  0  0  0  0
 20 23  1  0  0  0  0
 21 24  2  0  0  0  0
 23 25  2  0  0  0  0
 24 25  1  0  0  0  0
M  END
> <PUBCHEM_COMPOUND_ID_TYPE>
0

> <PUBCHEM_TOTAL_CHARGE>
0

> <PUBCHEM_SUBSTANCE_ID>
310947736

> <PUBCHEM_SUBSTANCE_VERSION>
1

> <PUBCHEM_EXT_DATASOURCE_NAME>
4488

> <PUBCHEM_EXT_DATASOURCE_REGID>
SCHEMBL16125908

> <PUBCHEM_SUBSTANCE_COMMENT>
InChI=1S/C19H24N6/c1-25(10-9-20)14-17-13-23-24-19(17)16-7-8-18(22-12-16)21-11-15-5-3-2-4-6-15/h2-8,12-13H,9-11,14,20H2,1H3,(H,21,22)(H,23,24)
InChIKey=UFNKYSGOPMXEAS-UHFFFAOYSA-N

> <PUBCHEM_SUBSTANCE_SYNONYM>
SCHEMBL16125908

> <PUBCHEM_XREF_EXT_ID>
SCHEMBL16125908

> <PUBCHEM_EXT_DATASOURCE_URL>
https://www.surechembl.org/

> <PUBCHEM_EXT_SUBSTANCE_URL>
https://www.surechembl.org/chemical/SCHEMBL16125908

> <PUBCHEM_CID_ASSOCIATIONS>
86301852  1

> <PUBCHEM_COORDINATE_TYPE>
1
3

$$$$
