310930963
  -OEChem-07211613022D

 33 37  0     1  0  0  0  0  0999 V2000
    3.9058   -2.7341    0.0000 O   0  0  0  0  0  0  0  0  0  0  0  0
    0.8413   -3.3650    0.0000 O   0  0  0  0  0  0  0  0  0  0  0  0
    5.3480   -2.5238    0.0000 N   0  0  0  0  0  0  0  0  0  0  0  0
    5.7687   -3.7857    0.0000 N   0  0  0  0  0  0  0  0  0  0  0  0
    6.8202   -2.7341    0.0000 N   0  0  0  0  0  0  0  0  0  0  0  0
    4.9574   -3.7857    0.0000 C   0  0  3  0  0  0  0  0  0  0  0  0
    4.6870   -3.0045    0.0000 C   0  0  0  0  0  0  0  0  0  0  0  0
    4.4466   -4.4466    0.0000 C   0  0  0  0  0  0  0  0  0  0  0  0
    5.3179   -4.5368    0.0000 C   0  0  0  0  0  0  0  0  0  0  0  0
    6.0390   -3.0045    0.0000 C   0  0  0  0  0  0  0  0  0  0  0  0
    5.3480   -1.6825    0.0000 C   0  0  0  0  0  0  0  0  0  0  0  0
    3.6354   -4.3866    0.0000 C   0  0  0  0  0  0  0  0  0  0  0  0
    4.8072   -5.2278    0.0000 C   0  0  0  0  0  0  0  0  0  0  0  0
    6.1592   -4.5668    0.0000 C   0  0  0  0  0  0  0  0  0  0  0  0
    5.0475   -5.3780    0.0000 C   0  0  0  0  0  0  0  0  0  0  0  0
    3.1547   -5.0475    0.0000 C   0  0  0  0  0  0  0  0  0  0  0  0
    4.2965   -5.8888    0.0000 C   0  0  0  0  0  0  0  0  0  0  0  0
    4.6570   -1.2619    0.0000 C   0  0  0  0  0  0  0  0  0  0  0  0
    6.0691   -1.2619    0.0000 C   0  0  0  0  0  0  0  0  0  0  0  0
    2.3135   -4.9574    0.0000 C   0  0  0  0  0  0  0  0  0  0  0  0
    3.4852   -5.7987    0.0000 C   0  0  0  0  0  0  0  0  0  0  0  0
    6.5197   -5.3179    0.0000 C   0  0  0  0  0  0  0  0  0  0  0  0
    5.2278   -5.9489    0.0000 C   0  0  0  0  0  0  0  0  0  0  0  0
    6.0691   -6.0090    0.0000 C   0  0  0  0  0  0  0  0  0  0  0  0
    4.6570   -0.4507    0.0000 C   0  0  0  0  0  0  0  0  0  0  0  0
    6.0691   -0.4507    0.0000 C   0  0  0  0  0  0  0  0  0  0  0  0
    1.9830   -4.2063    0.0000 C   0  0  0  0  0  0  0  0  0  0  0  0
    1.8327   -5.6184    0.0000 C   0  0  0  0  0  0  0  0  0  0  0  0
    5.3480    0.0000    0.0000 C   0  0  0  0  0  0  0  0  0  0  0  0
    1.1718   -4.1162    0.0000 C   0  0  0  0  0  0  0  0  0  0  0  0
    1.0215   -5.5583    0.0000 C   0  0  0  0  0  0  0  0  0  0  0  0
    0.6910   -4.7771    0.0000 C   0  0  0  0  0  0  0  0  0  0  0  0
    0.0000   -3.2749    0.0000 C   0  0  0  0  0  0  0  0  0  0  0  0
  1  7  2  0  0  0  0
  2 30  1  0  0  0  0
  2 33  1  0  0  0  0
  3  7  1  0  0  0  0
  3 10  1  0  0  0  0
  3 11  1  0  0  0  0
  4  6  1  0  0  0  0
  4 10  1  0  0  0  0
  5 10  2  3  0  0  0
  6  7  1  0  0  0  0
  6  8  1  0  0  0  0
  6  9  1  0  0  0  0
  8 12  1  0  0  0  0
  8 13  2  0  0  0  0
  9 14  2  0  0  0  0
  9 15  1  0  0  0  0
 11 18  1  0  0  0  0
 11 19  1  0  0  0  0
 12 16  2  0  0  0  0
 13 17  1  0  0  0  0
 14 22  1  0  0  0  0
 15 23  2  0  0  0  0
 16 20  1  0  0  0  0
 16 21  1  0  0  0  0
 17 21  2  0  0  0  0
 18 25  1  0  0  0  0
 19 26  1  0  0  0  0
 20 27  1  0  0  0  0
 20 28  2  0  0  0  0
 22 24  2  0  0  0  0
 23 24  1  0  0  0  0
 25 29  1  0  0  0  0
 26 29  1  0  0  0  0
 27 30  2  0  0  0  0
 28 31  1  0  0  0  0
 30 32  1  0  0  0  0
 31 32  2  0  0  0  0
M  END
> <PUBCHEM_COMPOUND_ID_TYPE>
0

> <PUBCHEM_TOTAL_CHARGE>
0

> <PUBCHEM_SUBSTANCE_ID>
310930963

> <PUBCHEM_SUBSTANCE_VERSION>
1

> <PUBCHEM_EXT_DATASOURCE_NAME>
4488

> <PUBCHEM_EXT_DATASOURCE_REGID>
SCHEMBL16108263

> <PUBCHEM_SUBSTANCE_COMMENT>
InChI=1S/C28H29N3O2/c1-33-25-17-9-11-21(19-25)20-10-8-14-23(18-20)28(22-12-4-2-5-13-22)26(32)31(27(29)30-28)24-15-6-3-7-16-24/h2,4-5,8-14,17-19,24H,3,6-7,15-16H2,1H3,(H2,29,30)
InChIKey=GRHXGIBGTCXXSD-UHFFFAOYSA-N

> <PUBCHEM_SUBSTANCE_SYNONYM>
SCHEMBL16108263

> <PUBCHEM_XREF_EXT_ID>
SCHEMBL16108263

> <PUBCHEM_EXT_DATASOURCE_URL>
https://www.surechembl.org/

> <PUBCHEM_EXT_SUBSTANCE_URL>
https://www.surechembl.org/chemical/SCHEMBL16108263

> <PUBCHEM_CID_ASSOCIATIONS>
86273117  1

> <PUBCHEM_COORDINATE_TYPE>
1
3

$$$$
