310944687
  -OEChem-07211613022D

 32 35  0     1  0  0  0  0  0999 V2000
   -3.3442   -0.5202    0.0000 Cl  0  0  0  0  0  0  0  0  0  0  0  0
   -5.3135    2.3781    0.0000 F   0  0  0  0  0  0  0  0  0  0  0  0
   -0.3220   -0.5078    0.0000 O   0  0  0  0  0  0  0  0  0  0  0  0
    1.1023    1.9693    0.0000 O   0  0  0  0  0  0  0  0  0  0  0  0
    5.3135   -0.7679    0.0000 O   0  0  0  0  0  0  0  0  0  0  0  0
    1.8455    0.7308    0.0000 N   0  0  0  0  0  0  0  0  0  0  0  0
    3.9139   -0.7679    0.0000 N   0  0  0  0  0  0  0  0  0  0  0  0
   -0.3097    1.1395    0.0000 N   0  0  0  0  0  0  0  0  0  0  0  0
    2.6258   -0.3468    0.0000 C   0  0  3  0  0  0  0  0  0  0  0  0
    3.1088    0.3220    0.0000 C   0  0  3  0  0  0  0  0  0  0  0  0
    1.8455   -0.0991    0.0000 C   0  0  0  0  0  0  0  0  0  0  0  0
    2.6258    0.9785    0.0000 C   0  0  0  0  0  0  0  0  0  0  0  0
    3.1213   -1.0156    0.0000 C   0  0  0  0  0  0  0  0  0  0  0  0
    3.9015    0.0619    0.0000 C   0  0  0  0  0  0  0  0  0  0  0  0
   -2.4524    0.7308    0.0000 C   0  0  0  0  0  0  0  0  0  0  0  0
    1.1147    1.1271    0.0000 C   0  0  0  0  0  0  0  0  0  0  0  0
   -1.0280    0.7308    0.0000 C   0  0  0  0  0  0  0  0  0  0  0  0
   -1.0404   -0.0867    0.0000 C   0  0  0  0  0  0  0  0  0  0  0  0
   -2.4524   -0.0867    0.0000 C   0  0  0  0  0  0  0  0  0  0  0  0
   -1.7464    1.1395    0.0000 C   0  0  0  0  0  0  0  0  0  0  0  0
   -3.1832    1.1519    0.0000 C   0  0  0  0  0  0  0  0  0  0  0  0
    4.6075   -1.1766    0.0000 C   0  0  0  0  0  0  0  0  0  0  0  0
   -1.7340   -0.5078    0.0000 C   0  0  0  0  0  0  0  0  0  0  0  0
    0.4088    0.7308    0.0000 C   0  0  0  0  0  0  0  0  0  0  0  0
   -3.8891    0.7308    0.0000 C   0  0  0  0  0  0  0  0  0  0  0  0
   -3.1708    1.9693    0.0000 C   0  0  0  0  0  0  0  0  0  0  0  0
    4.6199   -2.0065    0.0000 C   0  0  0  0  0  0  0  0  0  0  0  0
   -4.5952    1.1395    0.0000 C   0  0  0  0  0  0  0  0  0  0  0  0
   -3.8891    2.3781    0.0000 C   0  0  0  0  0  0  0  0  0  0  0  0
   -4.5952    1.9693    0.0000 C   0  0  0  0  0  0  0  0  0  0  0  0
    0.4088   -0.0991    0.0000 C   0  0  0  0  0  0  0  0  0  0  0  0
    3.8767   -2.3781    0.0000 C   0  0  0  0  0  0  0  0  0  0  0  0
  1 19  1  0  0  0  0
  2 30  1  0  0  0  0
  3 18  1  0  0  0  0
  3 31  1  0  0  0  0
  4 16  2  0  0  0  0
  5 22  2  0  0  0  0
  6 11  1  0  0  0  0
  6 12  1  0  0  0  0
  6 16  1  0  0  0  0
  7 13  1  0  0  0  0
  7 14  1  0  0  0  0
  7 22  1  0  0  0  0
  8 17  1  0  0  0  0
  8 24  1  0  0  0  0
  9 10  1  0  0  0  0
  9 11  1  0  0  0  0
  9 13  1  0  0  0  0
 10 12  1  0  0  0  0
 10 14  1  0  0  0  0
 15 19  2  0  0  0  0
 15 20  1  0  0  0  0
 15 21  1  0  0  0  0
 16 24  1  0  0  0  0
 17 18  1  0  0  0  0
 17 20  2  0  0  0  0
 18 23  2  0  0  0  0
 19 23  1  0  0  0  0
 21 25  2  0  0  0  0
 21 26  1  0  0  0  0
 22 27  1  0  0  0  0
 25 28  1  0  0  0  0
 26 29  2  0  0  0  0
 27 32  2  0  0  0  0
 28 30  2  0  0  0  0
 29 30  1  0  0  0  0
M  END
> <PUBCHEM_COMPOUND_ID_TYPE>
0

> <PUBCHEM_TOTAL_CHARGE>
0

> <PUBCHEM_SUBSTANCE_ID>
310944687

> <PUBCHEM_SUBSTANCE_VERSION>
1

> <PUBCHEM_EXT_DATASOURCE_NAME>
4488

> <PUBCHEM_EXT_DATASOURCE_REGID>
SCHEMBL16122766

> <PUBCHEM_SUBSTANCE_COMMENT>
InChI=1S/C24H25ClFN3O3/c1-3-23(30)28-11-16-13-29(14-17(16)12-28)24(31)10-27-21-8-19(20(25)9-22(21)32-2)15-4-6-18(26)7-5-15/h3-9,16-17,27H,1,10-14H2,2H3
InChIKey=RQSZYAYUKNGNJF-UHFFFAOYSA-N

> <PUBCHEM_SUBSTANCE_SYNONYM>
SCHEMBL16122766

> <PUBCHEM_XREF_EXT_ID>
SCHEMBL16122766

> <PUBCHEM_EXT_DATASOURCE_URL>
https://www.surechembl.org/

> <PUBCHEM_EXT_SUBSTANCE_URL>
https://www.surechembl.org/chemical/SCHEMBL16122766

> <PUBCHEM_CID_ASSOCIATIONS>
117610911  1

> <PUBCHEM_COORDINATE_TYPE>
1
3

$$$$
