310935489
  -OEChem-07211613022D

 27 30  0     1  0  0  0  0  0999 V2000
    3.3790    3.9613    0.0000 F   0  0  0  0  0  0  0  0  0  0  0  0
    5.2463   -0.4353    0.0000 O   0  0  0  0  0  0  0  0  0  0  0  0
    6.2161    0.8996    0.0000 O   0  0  0  0  0  0  0  0  0  0  0  0
   -0.1435   -0.0305    0.0000 N   0  0  0  0  0  0  0  0  0  0  0  0
   -0.6284   -0.6979    0.0000 N   0  0  0  0  0  0  0  0  0  0  0  0
    5.3956    0.9858    0.0000 N   0  0  0  0  0  0  0  0  0  0  0  0
    3.6777    1.1191    0.0000 C   0  0  3  0  0  0  0  0  0  0  0  0
    2.7845    0.1271    0.0000 C   0  0  0  0  0  0  0  0  0  0  0  0
    4.0902    0.4046    0.0000 C   0  0  3  0  0  0  0  0  0  0  0  0
    2.0701   -0.2854    0.0000 C   0  0  0  0  0  0  0  0  0  0  0  0
    4.0133    1.8727    0.0000 C   0  0  0  0  0  0  0  0  0  0  0  0
    2.8708    0.9475    0.0000 C   0  0  0  0  0  0  0  0  0  0  0  0
    3.5382   -0.2085    0.0000 C   0  0  0  0  0  0  0  0  0  0  0  0
    0.6411   -0.2854    0.0000 C   0  0  0  0  0  0  0  0  0  0  0  0
    0.6411   -1.1104    0.0000 C   0  0  0  0  0  0  0  0  0  0  0  0
    1.3556    0.1271    0.0000 C   0  0  0  0  0  0  0  0  0  0  0  0
    3.5284    2.5402    0.0000 C   0  0  0  0  0  0  0  0  0  0  0  0
    4.9107    0.3184    0.0000 C   0  0  0  0  0  0  0  0  0  0  0  0
    2.0701   -1.1104    0.0000 C   0  0  0  0  0  0  0  0  0  0  0  0
    1.3556   -1.5229    0.0000 C   0  0  0  0  0  0  0  0  0  0  0  0
    4.8338    1.9590    0.0000 C   0  0  0  0  0  0  0  0  0  0  0  0
    3.8639    3.2939    0.0000 C   0  0  0  0  0  0  0  0  0  0  0  0
   -0.1435   -1.3654    0.0000 C   0  0  0  0  0  0  0  0  0  0  0  0
    5.1693    2.7127    0.0000 C   0  0  0  0  0  0  0  0  0  0  0  0
    4.6844    3.3801    0.0000 C   0  0  0  0  0  0  0  0  0  0  0  0
    2.7079    2.4539    0.0000 C   0  0  0  0  0  0  0  0  0  0  0  0
   -0.3984    0.7541    0.0000 C   0  0  0  0  0  0  0  0  0  0  0  0
  1 22  1  0  0  0  0
  2 18  2  0  0  0  0
  3  6  1  0  0  0  0
  4  5  1  0  0  0  0
  4 14  1  0  0  0  0
  4 27  1  0  0  0  0
  5 23  2  0  0  0  0
  6 18  1  0  0  0  0
  7  9  1  0  0  0  0
  7 11  1  0  0  0  0
  7 12  1  0  0  0  0
  8 10  1  0  0  0  0
  8 12  2  0  0  0  0
  8 13  1  0  0  0  0
  9 13  1  0  0  0  0
  9 18  1  0  0  0  0
 10 16  2  0  0  0  0
 10 19  1  0  0  0  0
 11 17  2  0  0  0  0
 11 21  1  0  0  0  0
 14 15  2  0  0  0  0
 14 16  1  0  0  0  0
 15 20  1  0  0  0  0
 15 23  1  0  0  0  0
 17 22  1  0  0  0  0
 17 26  1  0  0  0  0
 19 20  2  0  0  0  0
 21 24  2  0  0  0  0
 22 25  2  0  0  0  0
 24 25  1  0  0  0  0
M  END
> <PUBCHEM_COMPOUND_ID_TYPE>
0

> <PUBCHEM_TOTAL_CHARGE>
0

> <PUBCHEM_SUBSTANCE_ID>
310935489

> <PUBCHEM_SUBSTANCE_VERSION>
1

> <PUBCHEM_EXT_DATASOURCE_NAME>
4488

> <PUBCHEM_EXT_DATASOURCE_REGID>
SCHEMBL16113055

> <PUBCHEM_SUBSTANCE_COMMENT>
InChI=1S/C21H20FN3O2/c1-12-16(4-3-5-19(12)22)17-8-15(9-18(17)21(26)24-27)13-6-7-14-11-23-25(2)20(14)10-13/h3-8,10-11,17-18,27H,9H2,1-2H3,(H,24,26)
InChIKey=UOTMERZTLQUVLD-UHFFFAOYSA-N

> <PUBCHEM_SUBSTANCE_SYNONYM>
SCHEMBL16113055

> <PUBCHEM_XREF_EXT_ID>
SCHEMBL16113055

> <PUBCHEM_EXT_DATASOURCE_URL>
https://www.surechembl.org/

> <PUBCHEM_EXT_SUBSTANCE_URL>
https://www.surechembl.org/chemical/SCHEMBL16113055

> <PUBCHEM_CID_ASSOCIATIONS>
117603522  1

> <PUBCHEM_COORDINATE_TYPE>
1
3

$$$$
