310944972
  -OEChem-07211613022D

 36 40  0     1  0  0  0  0  0999 V2000
    3.5366    3.3407    0.0000 O   0  0  0  0  0  0  0  0  0  0  0  0
    0.3093   -0.4640    0.0000 O   0  0  0  0  0  0  0  0  0  0  0  0
   -4.2481   -1.1858    0.0000 O   0  0  0  0  0  0  0  0  0  0  0  0
    2.0312    1.0207    0.0000 N   0  0  0  0  0  0  0  0  0  0  0  0
    4.2481    2.1034    0.0000 N   0  0  0  0  0  0  0  0  0  0  0  0
    4.2481   -0.3815    0.0000 N   0  0  0  0  0  0  0  0  0  0  0  0
   -0.9382    1.6910    0.0000 N   0  0  0  0  0  0  0  0  0  0  0  0
   -0.9382    0.2578    0.0000 N   0  0  0  0  0  0  0  0  0  0  0  0
   -0.9382   -2.6087    0.0000 N   0  0  0  0  0  0  0  0  0  0  0  0
   -3.0108   -1.8971    0.0000 N   0  0  0  0  0  0  0  0  0  0  0  0
    3.5366    0.8661    0.0000 C   0  0  3  0  0  0  0  0  0  0  0  0
    2.8046    1.2888    0.0000 C   0  0  0  0  0  0  0  0  0  0  0  0
    2.8252    2.1034    0.0000 C   0  0  0  0  0  0  0  0  0  0  0  0
    1.5466    1.6807    0.0000 C   0  0  0  0  0  0  0  0  0  0  0  0
    3.5263    2.5055    0.0000 C   0  0  0  0  0  0  0  0  0  0  0  0
    2.0312    2.3509    0.0000 C   0  0  0  0  0  0  0  0  0  0  0  0
    4.2481    1.2683    0.0000 C   0  0  0  0  0  0  0  0  0  0  0  0
    4.2481    0.4537    0.0000 C   0  0  0  0  0  0  0  0  0  0  0  0
    2.8252    0.4434    0.0000 C   0  0  0  0  0  0  0  0  0  0  0  0
    0.7217    1.6910    0.0000 C   0  0  0  0  0  0  0  0  0  0  0  0
    0.2991    0.9795    0.0000 C   0  0  0  0  0  0  0  0  0  0  0  0
    2.8149   -0.3713    0.0000 C   0  0  0  0  0  0  0  0  0  0  0  0
    0.3093    2.4024    0.0000 C   0  0  0  0  0  0  0  0  0  0  0  0
   -0.5259    0.9899    0.0000 C   0  0  0  0  0  0  0  0  0  0  0  0
    3.5572   -0.7836    0.0000 C   0  0  0  0  0  0  0  0  0  0  0  0
   -0.5155    2.4127    0.0000 C   0  0  0  0  0  0  0  0  0  0  0  0
   -0.5465   -0.4434    0.0000 C   0  0  0  0  0  0  0  0  0  0  0  0
   -0.9382   -1.1754    0.0000 C   0  0  0  0  0  0  0  0  0  0  0  0
   -2.1755   -1.8971    0.0000 C   0  0  0  0  0  0  0  0  0  0  0  0
   -1.7632   -1.1754    0.0000 C   0  0  0  0  0  0  0  0  0  0  0  0
   -1.7632   -2.5983    0.0000 C   0  0  0  0  0  0  0  0  0  0  0  0
   -0.5259   -1.8663    0.0000 C   0  0  0  0  0  0  0  0  0  0  0  0
   -3.4025   -1.1754    0.0000 C   0  0  0  0  0  0  0  0  0  0  0  0
   -2.1652   -3.3407    0.0000 C   0  0  0  0  0  0  0  0  0  0  0  0
   -3.0005   -0.4537    0.0000 C   0  0  0  0  0  0  0  0  0  0  0  0
   -3.4850    0.2372    0.0000 C   0  0  0  0  0  0  0  0  0  0  0  0
  1 15  2  0  0  0  0
  2 27  2  0  0  0  0
  3 33  2  0  0  0  0
  4 12  1  0  0  0  0
  4 14  1  0  0  0  0
  5 15  1  0  0  0  0
  5 17  1  0  0  0  0
  6 18  1  0  0  0  0
  6 25  1  0  0  0  0
  7 24  1  0  0  0  0
  7 26  2  0  0  0  0
  8 24  1  0  0  0  0
  8 27  1  0  0  0  0
  9 31  1  0  0  0  0
  9 32  2  0  0  0  0
 10 29  1  0  0  0  0
 10 33  1  0  0  0  0
 11 12  1  0  0  0  0
 11 17  1  0  0  0  0
 11 18  1  0  0  0  0
 11 19  1  0  0  0  0
 12 13  2  0  0  0  0
 13 15  1  0  0  0  0
 13 16  1  0  0  0  0
 14 16  2  0  0  0  0
 14 20  1  0  0  0  0
 19 22  1  0  0  0  0
 20 21  1  0  0  0  0
 20 23  2  0  0  0  0
 21 24  2  0  0  0  0
 22 25  1  0  0  0  0
 23 26  1  0  0  0  0
 27 28  1  0  0  0  0
 28 30  2  0  0  0  0
 28 32  1  0  0  0  0
 29 30  1  0  0  0  0
 29 31  2  0  0  0  0
 31 34  1  0  0  0  0
 33 35  1  0  0  0  0
 35 36  2  0  0  0  0
M  END
> <PUBCHEM_COMPOUND_ID_TYPE>
0

> <PUBCHEM_TOTAL_CHARGE>
0

> <PUBCHEM_SUBSTANCE_ID>
310944972

> <PUBCHEM_SUBSTANCE_VERSION>
1

> <PUBCHEM_EXT_DATASOURCE_NAME>
4488

> <PUBCHEM_EXT_DATASOURCE_REGID>
SCHEMBL16123060

> <PUBCHEM_SUBSTANCE_COMMENT>
InChI=1S/C26H27N7O3/c1-3-22(34)31-19-9-17(12-29-15(19)2)24(35)33-21-10-16(5-8-28-21)20-11-18-23(32-20)26(14-30-25(18)36)6-4-7-27-13-26/h3,5,8-12,27,32H,1,4,6-7,13-14H2,2H3,(H,30,36)(H,31,34)(H,28,33,35)
InChIKey=MTCSYNQYMWGNAE-UHFFFAOYSA-N

> <PUBCHEM_SUBSTANCE_SYNONYM>
SCHEMBL16123060

> <PUBCHEM_XREF_EXT_ID>
SCHEMBL16123060

> <PUBCHEM_EXT_DATASOURCE_URL>
https://www.surechembl.org/

> <PUBCHEM_EXT_SUBSTANCE_URL>
https://www.surechembl.org/chemical/SCHEMBL16123060

> <PUBCHEM_CID_ASSOCIATIONS>
117611122  1

> <PUBCHEM_COORDINATE_TYPE>
1
3

$$$$
