310946597
  -OEChem-07211613022D

 38 37  0     1  0  0  0  0  0999 V2000
    5.8078   -2.1850    0.0000 S   0  0  0  0  0  0  0  0  0  0  0  0
    2.9578   -3.8350    0.0000 O   0  0  0  0  0  0  0  0  0  0  0  0
    2.2434   -7.5475    0.0000 O   0  0  0  0  0  0  0  0  0  0  0  0
    6.5222   -0.9475    0.0000 O   0  0  0  0  0  0  0  0  0  0  0  0
    5.8078   -4.6600    0.0000 O   0  0  0  0  0  0  0  0  0  0  0  0
    6.5222   -3.4225    0.0000 O   0  0  0  0  0  0  0  0  0  0  0  0
    3.6743   -2.5975    0.0000 O   0  0  0  0  0  0  0  0  0  0  0  0
    0.8144   -8.3725    0.0000 O   0  0  0  0  0  0  0  0  0  0  0  0
   10.0945   -2.1850    0.0000 O   0  0  0  0  0  0  0  0  0  0  0  0
    5.0932   -0.9475    0.0000 O   0  0  0  0  0  0  0  0  0  0  0  0
    3.7987   -7.5475    0.0000 O   0  5  0  0  0  0  0  0  0  0  0  0
    3.0210   -6.2006    0.0000 O   0  0  0  0  0  0  0  0  0  0  0  0
    1.5921   -9.7195    0.0000 O   0  5  0  0  0  0  0  0  0  0  0  0
    2.3698   -8.3725    0.0000 O   0  0  0  0  0  0  0  0  0  0  0  0
   10.8722   -3.5320    0.0000 O   0  5  0  0  0  0  0  0  0  0  0  0
   11.6499   -2.1850    0.0000 O   0  0  0  0  0  0  0  0  0  0  0  0
    4.3787   -3.8350    0.0000 N   0  0  0  0  0  0  0  0  0  0  0  0
    3.0210   -7.0986    0.0000 N   0  3  0  0  0  0  0  0  0  0  0  0
    1.5921   -8.8216    0.0000 N   0  3  0  0  0  0  0  0  0  0  0  0
   10.8722   -2.6340    0.0000 N   0  3  0  0  0  0  0  0  0  0  0  0
    5.0932   -3.4225    0.0000 C   0  0  3  0  0  0  0  0  0  0  0  0
    5.8078   -3.8350    0.0000 C   0  0  0  0  0  0  0  0  0  0  0  0
    3.6723   -3.4225    0.0000 C   0  0  0  0  0  0  0  0  0  0  0  0
    5.0932   -2.5975    0.0000 C   0  0  0  0  0  0  0  0  0  0  0  0
    1.5289   -7.1350    0.0000 C   0  0  3  0  0  0  0  0  0  0  0  0
    5.8078   -1.3600    0.0000 C   0  0  0  0  0  0  0  0  0  0  0  0
    1.5289   -6.3100    0.0000 C   0  0  0  0  0  0  0  0  0  0  0  0
    0.8144   -7.5475    0.0000 C   0  0  0  0  0  0  0  0  0  0  0  0
    2.9578   -4.6600    0.0000 C   0  0  0  0  0  0  0  0  0  0  0  0
    2.2434   -5.8975    0.0000 C   0  0  0  0  0  0  0  0  0  0  0  0
    2.2434   -5.0725    0.0000 C   0  0  0  0  0  0  0  0  0  0  0  0
   10.0945   -1.3600    0.0000 C   0  0  3  0  0  0  0  0  0  0  0  0
    7.2367   -1.3600    0.0000 C   0  0  0  0  0  0  0  0  0  0  0  0
    9.3801   -0.9475    0.0000 C   0  0  0  0  0  0  0  0  0  0  0  0
    7.9511   -0.9475    0.0000 C   0  0  0  0  0  0  0  0  0  0  0  0
    8.6657   -1.3600    0.0000 C   0  0  0  0  0  0  0  0  0  0  0  0
   10.8090   -0.9475    0.0000 C   0  0  0  0  0  0  0  0  0  0  0  0
   11.5235   -1.3600    0.0000 C   0  0  0  0  0  0  0  0  0  0  0  0
  1 24  1  0  0  0  0
  1 26  1  0  0  0  0
  2 23  1  0  0  0  0
  2 29  1  0  0  0  0
  3 18  1  0  0  0  0
  3 25  1  0  0  0  0
  4 26  1  0  0  0  0
  4 33  1  0  0  0  0
  5 22  2  0  0  0  0
  6 22  1  0  0  0  0
  7 23  2  0  0  0  0
  8 19  1  0  0  0  0
  8 28  1  0  0  0  0
  9 20  1  0  0  0  0
  9 32  1  0  0  0  0
 10 26  2  0  0  0  0
 11 18  1  0  0  0  0
 12 18  2  0  0  0  0
 13 19  1  0  0  0  0
 14 19  2  0  0  0  0
 15 20  1  0  0  0  0
 16 20  2  0  0  0  0
 17 21  1  0  0  0  0
 17 23  1  0  0  0  0
 21 22  1  0  0  0  0
 21 24  1  0  0  0  0
 25 27  1  0  0  0  0
 25 28  1  0  0  0  0
 27 30  1  0  0  0  0
 29 31  1  0  0  0  0
 30 31  1  0  0  0  0
 32 34  1  0  0  0  0
 32 37  1  0  0  0  0
 33 35  1  0  0  0  0
 34 36  1  0  0  0  0
 35 36  1  0  0  0  0
 37 38  1  0  0  0  0
M  CHG  6  11  -1  13  -1  15  -1  18   1  19   1  20   1
M  END
> <PUBCHEM_COMPOUND_ID_TYPE>
0

> <PUBCHEM_TOTAL_CHARGE>
0

> <PUBCHEM_SUBSTANCE_ID>
310946597

> <PUBCHEM_SUBSTANCE_VERSION>
1

> <PUBCHEM_EXT_DATASOURCE_NAME>
4488

> <PUBCHEM_EXT_DATASOURCE_REGID>
SCHEMBL16124718

> <PUBCHEM_SUBSTANCE_COMMENT>
InChI=1S/C18H30N4O15S/c1-2-13(36-21(29)30)7-3-6-10-34-18(26)38-12-15(16(23)24)19-17(25)33-9-5-4-8-14(37-22(31)32)11-35-20(27)28/h13-15H,2-12H2,1H3,(H,19,25)(H,23,24)
InChIKey=LABADMQLALZLPO-UHFFFAOYSA-N

> <PUBCHEM_SUBSTANCE_SYNONYM>
SCHEMBL16124718

> <PUBCHEM_XREF_EXT_ID>
SCHEMBL16124718

> <PUBCHEM_EXT_DATASOURCE_URL>
https://www.surechembl.org/

> <PUBCHEM_EXT_SUBSTANCE_URL>
https://www.surechembl.org/chemical/SCHEMBL16124718

> <PUBCHEM_CID_ASSOCIATIONS>
117612497  1

> <PUBCHEM_COORDINATE_TYPE>
1
3

$$$$
