310931334
  -OEChem-07211613022D

 19 20  0     1  0  0  0  0  0999 V2000
    2.7600   -1.6074    0.0000 O   0  0  0  0  0  0  0  0  0  0  0  0
    3.8821   -3.5788    0.0000 O   0  0  0  0  0  0  0  0  0  0  0  0
    4.6100   -2.3353    0.0000 O   0  0  0  0  0  0  0  0  0  0  0  0
    2.3353   -2.3353    0.0000 C   0  0  3  0  0  0  0  0  0  0  0  0
    3.1542   -2.3353    0.0000 C   0  0  3  0  0  0  0  0  0  0  0  0
    1.7591   -1.7591    0.0000 C   0  0  0  0  0  0  0  0  0  0  0  0
    3.8821   -2.7600    0.0000 C   0  0  0  0  0  0  0  0  0  0  0  0
    1.6074   -2.7600    0.0000 C   0  0  0  0  0  0  0  0  0  0  0  0
    0.9402   -1.9714    0.0000 C   0  0  0  0  0  0  0  0  0  0  0  0
    1.9714   -0.9402    0.0000 C   0  0  0  0  0  0  0  0  0  0  0  0
    0.3640   -1.3951    0.0000 C   0  0  0  0  0  0  0  0  0  0  0  0
    1.3648   -0.3640    0.0000 C   0  0  0  0  0  0  0  0  0  0  0  0
    1.6074   -3.5788    0.0000 C   0  0  0  0  0  0  0  0  0  0  0  0
    0.5763   -0.6066    0.0000 C   0  0  0  0  0  0  0  0  0  0  0  0
    4.6100   -4.0035    0.0000 C   0  0  0  0  0  0  0  0  0  0  0  0
    0.0000    0.0000    0.0000 C   0  0  0  0  0  0  0  0  0  0  0  0
    4.6100   -4.8223    0.0000 C   0  0  0  0  0  0  0  0  0  0  0  0
    5.3076   -5.2167    0.0000 C   0  0  0  0  0  0  0  0  0  0  0  0
    5.3076   -6.0658    0.0000 C   0  0  0  0  0  0  0  0  0  0  0  0
  1  4  1  0  0  0  0
  1  5  1  0  0  0  0
  2  7  1  0  0  0  0
  2 15  1  0  0  0  0
  3  7  2  0  0  0  0
  4  5  1  0  0  0  0
  4  6  1  0  0  0  0
  4  8  1  0  0  0  0
  5  7  1  0  0  0  0
  6  9  2  0  0  0  0
  6 10  1  0  0  0  0
  8 13  1  0  0  0  0
  9 11  1  0  0  0  0
 10 12  2  0  0  0  0
 11 14  2  0  0  0  0
 12 14  1  0  0  0  0
 14 16  1  0  0  0  0
 15 17  1  0  0  0  0
 17 18  1  0  0  0  0
 18 19  1  0  0  0  0
M  END
> <PUBCHEM_COMPOUND_ID_TYPE>
0

> <PUBCHEM_TOTAL_CHARGE>
0

> <PUBCHEM_SUBSTANCE_ID>
310931334

> <PUBCHEM_SUBSTANCE_VERSION>
1

> <PUBCHEM_EXT_DATASOURCE_NAME>
4488

> <PUBCHEM_EXT_DATASOURCE_REGID>
SCHEMBL16108654

> <PUBCHEM_SUBSTANCE_COMMENT>
InChI=1S/C16H22O3/c1-4-6-11-18-15(17)14-16(5-2,19-14)13-9-7-12(3)8-10-13/h7-10,14H,4-6,11H2,1-3H3
InChIKey=DMKYZXMSRFVCSY-UHFFFAOYSA-N

> <PUBCHEM_SUBSTANCE_SYNONYM>
SCHEMBL16108654

> <PUBCHEM_XREF_EXT_ID>
SCHEMBL16108654

> <PUBCHEM_EXT_DATASOURCE_URL>
https://www.surechembl.org/

> <PUBCHEM_EXT_SUBSTANCE_URL>
https://www.surechembl.org/chemical/SCHEMBL16108654

> <PUBCHEM_CID_ASSOCIATIONS>
117600144  1

> <PUBCHEM_COORDINATE_TYPE>
1
3

$$$$
