310946861
  -OEChem-07211613022D

 34 38  0     1  0  0  0  0  0999 V2000
    5.6361   -0.9590    0.0000 O   0  0  0  0  0  0  0  0  0  0  0  0
    5.5636   -2.3410    0.0000 O   0  0  0  0  0  0  0  0  0  0  0  0
    2.2231    0.6910    0.0000 O   0  0  0  0  0  0  0  0  0  0  0  0
    0.0797    1.9285    0.0000 O   0  0  0  0  0  0  0  0  0  0  0  0
   -0.6348    0.6910    0.0000 N   0  0  0  0  0  0  0  0  0  0  0  0
   -2.0637    0.6910    0.0000 N   0  0  0  0  0  0  0  0  0  0  0  0
    0.7942   -0.1340    0.0000 N   0  0  3  0  0  0  0  0  0  0  0  0
   -4.9216    2.3410    0.0000 N   0  0  0  0  0  0  0  0  0  0  0  0
    4.3665   -1.3715    0.0000 C   0  0  0  0  0  0  0  0  0  0  0  0
    4.3665   -0.5465    0.0000 C   0  0  0  0  0  0  0  0  0  0  0  0
    2.9376   -0.5465    0.0000 C   0  0  0  0  0  0  0  0  0  0  0  0
   -1.3492    1.1035    0.0000 C   0  0  0  0  0  0  0  0  0  0  0  0
   -2.7782    1.1035    0.0000 C   0  0  0  0  0  0  0  0  0  0  0  0
    2.9376   -1.3715    0.0000 C   0  0  0  0  0  0  0  0  0  0  0  0
   -2.7782    1.9285    0.0000 C   0  0  0  0  0  0  0  0  0  0  0  0
    3.6521   -0.1340    0.0000 C   0  0  0  0  0  0  0  0  0  0  0  0
    5.1511   -1.6265    0.0000 C   0  0  0  0  0  0  0  0  0  0  0  0
    2.2231   -0.1340    0.0000 C   0  0  3  0  0  0  0  0  0  0  0  0
    3.6521   -1.7840    0.0000 C   0  0  0  0  0  0  0  0  0  0  0  0
    0.0797    1.1035    0.0000 C   0  0  0  0  0  0  0  0  0  0  0  0
    5.1511   -0.2916    0.0000 C   0  0  0  0  0  0  0  0  0  0  0  0
   -1.3492    1.9285    0.0000 C   0  0  0  0  0  0  0  0  0  0  0  0
    1.5086   -0.5465    0.0000 C   0  0  0  0  0  0  0  0  0  0  0  0
   -0.6348   -0.1340    0.0000 C   0  0  0  0  0  0  0  0  0  0  0  0
   -2.0637    2.3410    0.0000 C   0  0  0  0  0  0  0  0  0  0  0  0
   -3.4927    0.6910    0.0000 C   0  0  0  0  0  0  0  0  0  0  0  0
    0.7942    0.6910    0.0000 C   0  0  0  0  0  0  0  0  0  0  0  0
   -4.2071    1.9285    0.0000 C   0  0  0  0  0  0  0  0  0  0  0  0
   -3.4927    2.3410    0.0000 C   0  0  0  0  0  0  0  0  0  0  0  0
   -4.2071    1.1035    0.0000 C   0  0  0  0  0  0  0  0  0  0  0  0
    0.0797   -0.5465    0.0000 C   0  0  0  0  0  0  0  0  0  0  0  0
    2.2231   -1.7840    0.0000 C   0  0  0  0  0  0  0  0  0  0  0  0
   -4.9216    0.6910    0.0000 C   0  0  0  0  0  0  0  0  0  0  0  0
   -5.6361    1.9285    0.0000 C   0  0  0  0  0  0  0  0  0  0  0  0
  1 17  1  0  0  0  0
  1 21  1  0  0  0  0
  2 17  2  0  0  0  0
  3 18  1  0  0  0  0
  4 20  2  0  0  0  0
  5 12  1  0  0  0  0
  5 20  1  0  0  0  0
  5 24  1  0  0  0  0
  6 12  1  0  0  0  0
  6 13  2  0  0  0  0
  7 23  1  0  0  0  0
  7 27  1  0  0  0  0
  7 31  1  0  0  0  0
  8 28  1  0  0  0  0
  8 34  1  0  0  0  0
  9 10  1  0  0  0  0
  9 17  1  0  0  0  0
  9 19  2  0  0  0  0
 10 16  2  0  0  0  0
 10 21  1  0  0  0  0
 11 14  2  0  0  0  0
 11 16  1  0  0  0  0
 11 18  1  0  0  0  0
 12 22  2  0  0  0  0
 13 15  1  0  0  0  0
 13 26  1  0  0  0  0
 14 19  1  0  0  0  0
 14 32  1  0  0  0  0
 15 25  2  0  0  0  0
 15 29  1  0  0  0  0
 18 23  1  0  0  0  0
 20 27  1  0  0  0  0
 22 25  1  0  0  0  0
 24 31  1  0  0  0  0
 26 30  2  0  0  0  0
 28 29  2  0  0  0  0
 28 30  1  0  0  0  0
 30 33  1  0  0  0  0
M  END
> <PUBCHEM_COMPOUND_ID_TYPE>
0

> <PUBCHEM_TOTAL_CHARGE>
0

> <PUBCHEM_SUBSTANCE_ID>
310946861

> <PUBCHEM_SUBSTANCE_VERSION>
1

> <PUBCHEM_EXT_DATASOURCE_NAME>
4488

> <PUBCHEM_EXT_DATASOURCE_REGID>
SCHEMBL16124985

> <PUBCHEM_SUBSTANCE_COMMENT>
InChI=1S/C26H28N4O4/c1-15-8-20-18(14-34-26(20)33)10-19(15)23(31)12-29-6-7-30(25(32)13-29)24-5-4-17-11-21(27-3)16(2)9-22(17)28-24/h4-5,8-11,23,27,31H,6-7,12-14H2,1-3H3
InChIKey=TYAZZYULPKOHAI-UHFFFAOYSA-N

> <PUBCHEM_SUBSTANCE_SYNONYM>
SCHEMBL16124985

> <PUBCHEM_XREF_EXT_ID>
SCHEMBL16124985

> <PUBCHEM_EXT_DATASOURCE_URL>
https://www.surechembl.org/

> <PUBCHEM_EXT_SUBSTANCE_URL>
https://www.surechembl.org/chemical/SCHEMBL16124985

> <PUBCHEM_CID_ASSOCIATIONS>
117612719  1

> <PUBCHEM_COORDINATE_TYPE>
1
3

$$$$
