310937758
  -OEChem-07211613022D

 32 36  0     1  0  0  0  0  0999 V2000
    2.1164   -4.9218    0.0000 Cl  0  0  0  0  0  0  0  0  0  0  0  0
    0.7629   -0.8613    0.0000 F   0  0  0  0  0  0  0  0  0  0  0  0
    1.4766   -2.0917    0.0000 F   0  0  0  0  0  0  0  0  0  0  0  0
    1.4520   -0.4430    0.0000 F   0  0  0  0  0  0  0  0  0  0  0  0
    3.5437    0.0000    0.0000 O   0  0  0  0  0  0  0  0  0  0  0  0
    6.1276   -3.2730    0.0000 O   0  0  0  0  0  0  0  0  0  0  0  0
    2.8792   -1.2305    0.0000 N   0  0  0  0  0  0  0  0  0  0  0  0
    5.0694   -2.3378    0.0000 N   0  0  0  0  0  0  0  0  0  0  0  0
    5.5370   -1.6488    0.0000 N   0  0  0  0  0  0  0  0  0  0  0  0
    3.5683   -3.2730    0.0000 N   0  0  0  0  0  0  0  0  0  0  0  0
    0.7137   -4.9218    0.0000 N   0  0  0  0  0  0  0  0  0  0  0  0
    4.2820   -2.0671    0.0000 C   0  0  0  0  0  0  0  0  0  0  0  0
    3.5683   -2.4855    0.0000 C   0  0  0  0  0  0  0  0  0  0  0  0
    4.2820   -1.2305    0.0000 C   0  0  0  0  0  0  0  0  0  0  0  0
    2.8792   -2.0671    0.0000 C   0  0  0  0  0  0  0  0  0  0  0  0
    3.5683   -0.8121    0.0000 C   0  0  0  0  0  0  0  0  0  0  0  0
    5.0694   -0.9844    0.0000 C   0  0  0  0  0  0  0  0  0  0  0  0
    2.1410   -2.4855    0.0000 C   0  0  0  0  0  0  0  0  0  0  0  0
    2.1410   -3.2730    0.0000 C   0  0  0  0  0  0  0  0  0  0  0  0
    5.3401   -3.1253    0.0000 C   0  0  3  0  0  0  0  0  0  0  0  0
    2.1656   -0.8367    0.0000 C   0  0  0  0  0  0  0  0  0  0  0  0
    2.8792   -3.6914    0.0000 C   0  0  0  0  0  0  0  0  0  0  0  0
    1.4273   -3.6914    0.0000 C   0  0  0  0  0  0  0  0  0  0  0  0
    1.4520   -1.2551    0.0000 C   0  0  0  0  0  0  0  0  0  0  0  0
    4.7987   -3.7160    0.0000 C   0  0  0  0  0  0  0  0  0  0  0  0
    1.4027   -4.5034    0.0000 C   0  0  0  0  0  0  0  0  0  0  0  0
    0.7137   -3.2976    0.0000 C   0  0  0  0  0  0  0  0  0  0  0  0
    6.3737   -4.0605    0.0000 C   0  0  0  0  0  0  0  0  0  0  0  0
    5.0202   -4.5034    0.0000 C   0  0  0  0  0  0  0  0  0  0  0  0
    5.8323   -4.6511    0.0000 C   0  0  0  0  0  0  0  0  0  0  0  0
    0.0246   -3.6914    0.0000 C   0  0  0  0  0  0  0  0  0  0  0  0
    0.0000   -4.5280    0.0000 C   0  0  0  0  0  0  0  0  0  0  0  0
  1 26  1  0  0  0  0
  2 24  1  0  0  0  0
  3 24  1  0  0  0  0
  4 24  1  0  0  0  0
  5 16  2  0  0  0  0
  6 20  1  0  0  0  0
  6 28  1  0  0  0  0
  7 15  1  0  0  0  0
  7 16  1  0  0  0  0
  7 21  1  0  0  0  0
  8  9  1  0  0  0  0
  8 12  1  0  0  0  0
  8 20  1  0  0  0  0
  9 17  2  0  0  0  0
 10 13  2  0  0  0  0
 10 22  1  0  0  0  0
 11 26  1  0  0  0  0
 11 32  2  0  0  0  0
 12 13  1  0  0  0  0
 12 14  2  0  0  0  0
 13 15  1  0  0  0  0
 14 16  1  0  0  0  0
 14 17  1  0  0  0  0
 15 18  2  0  0  0  0
 18 19  1  0  0  0  0
 19 22  2  0  0  0  0
 19 23  1  0  0  0  0
 20 25  1  0  0  0  0
 21 24  1  0  0  0  0
 23 26  2  0  0  0  0
 23 27  1  0  0  0  0
 25 29  1  0  0  0  0
 27 31  2  0  0  0  0
 28 30  1  0  0  0  0
 29 30  1  0  0  0  0
 31 32  1  0  0  0  0
M  END
> <PUBCHEM_COMPOUND_ID_TYPE>
0

> <PUBCHEM_TOTAL_CHARGE>
0

> <PUBCHEM_SUBSTANCE_ID>
310937758

> <PUBCHEM_SUBSTANCE_VERSION>
1

> <PUBCHEM_EXT_DATASOURCE_NAME>
4488

> <PUBCHEM_EXT_DATASOURCE_REGID>
SCHEMBL16115566

> <PUBCHEM_SUBSTANCE_COMMENT>
InChI=1S/C21H17ClF3N5O2/c22-19-13(4-3-6-26-19)12-8-15-17(27-9-12)18-14(20(31)29(15)11-21(23,24)25)10-28-30(18)16-5-1-2-7-32-16/h3-4,6,8-10,16H,1-2,5,7,11H2
InChIKey=QUGXWWUHELSBDK-UHFFFAOYSA-N

> <PUBCHEM_SUBSTANCE_SYNONYM>
SCHEMBL16115566

> <PUBCHEM_XREF_EXT_ID>
SCHEMBL16115566

> <PUBCHEM_EXT_DATASOURCE_URL>
https://www.surechembl.org/

> <PUBCHEM_EXT_SUBSTANCE_URL>
https://www.surechembl.org/chemical/SCHEMBL16115566

> <PUBCHEM_CID_ASSOCIATIONS>
117605417  1

> <PUBCHEM_COORDINATE_TYPE>
1
3

$$$$
