310941928
  -OEChem-07211613022D

 43 46  0     1  0  0  0  0  0999 V2000
    1.8400   -0.2403    0.0000 S   0  0  0  0  0  0  0  0  0  0  0  0
    1.5792   -1.0367    0.0000 O   0  0  0  0  0  0  0  0  0  0  0  0
    2.0872    0.5561    0.0000 O   0  0  0  0  0  0  0  0  0  0  0  0
   -0.4532    2.9729    0.0000 O   0  0  0  0  0  0  0  0  0  0  0  0
   -4.0920   -2.6982    0.0000 O   0  0  0  0  0  0  0  0  0  0  0  0
   -4.2018    2.2589    0.0000 O   0  0  0  0  0  0  0  0  0  0  0  0
   -5.0120   -1.5860    0.0000 O   0  0  0  0  0  0  0  0  0  0  0  0
    1.0436    0.0069    0.0000 N   0  0  0  0  0  0  0  0  0  0  0  0
    0.3708   -0.4737    0.0000 N   0  0  0  0  0  0  0  0  0  0  0  0
   -1.2633   -1.0642    0.0000 N   0  0  3  0  0  0  0  0  0  0  0  0
   -2.9523    2.9729    0.0000 N   0  0  0  0  0  0  0  0  0  0  0  0
   -3.4603   -1.0230    0.0000 N   0  0  0  0  0  0  0  0  0  0  0  0
    0.7827    0.8308    0.0000 C   0  0  0  0  0  0  0  0  0  0  0  0
   -0.0412    0.8308    0.0000 C   0  0  0  0  0  0  0  0  0  0  0  0
   -0.3021    0.0481    0.0000 C   0  0  0  0  0  0  0  0  0  0  0  0
    2.6365   -0.4875    0.0000 C   0  0  0  0  0  0  0  0  0  0  0  0
   -0.4394    1.5448    0.0000 C   0  0  0  0  0  0  0  0  0  0  0  0
    1.1947    1.5448    0.0000 C   0  0  0  0  0  0  0  0  0  0  0  0
   -0.0412    2.2863    0.0000 C   0  0  0  0  0  0  0  0  0  0  0  0
   -1.0710   -0.2265    0.0000 C   0  0  0  0  0  0  0  0  0  0  0  0
    0.7964    2.2589    0.0000 C   0  0  0  0  0  0  0  0  0  0  0  0
    3.2406    0.0618    0.0000 C   0  0  0  0  0  0  0  0  0  0  0  0
    2.8150   -1.2839    0.0000 C   0  0  0  0  0  0  0  0  0  0  0  0
    4.0371   -0.1854    0.0000 C   0  0  0  0  0  0  0  0  0  0  0  0
    3.5977   -1.5448    0.0000 C   0  0  0  0  0  0  0  0  0  0  0  0
    4.2018   -0.9818    0.0000 C   0  0  0  0  0  0  0  0  0  0  0  0
   -1.2908    2.9866    0.0000 C   0  0  0  0  0  0  0  0  0  0  0  0
   -2.0322   -1.2977    0.0000 C   0  0  0  0  0  0  0  0  0  0  0  0
   -0.6317   -1.6272    0.0000 C   0  0  0  0  0  0  0  0  0  0  0  0
   -1.7027    2.2726    0.0000 C   0  0  0  0  0  0  0  0  0  0  0  0
   -1.6890    3.7007    0.0000 C   0  0  0  0  0  0  0  0  0  0  0  0
   -2.6776   -0.7484    0.0000 C   0  0  0  0  0  0  0  0  0  0  0  0
    5.0120   -1.2839    0.0000 C   0  0  0  0  0  0  0  0  0  0  0  0
   -2.5266    2.2726    0.0000 C   0  0  0  0  0  0  0  0  0  0  0  0
   -2.5266    3.7144    0.0000 C   0  0  0  0  0  0  0  0  0  0  0  0
   -3.7762    3.0004    0.0000 C   0  0  0  0  0  0  0  0  0  0  0  0
   -4.2568   -1.8331    0.0000 C   0  0  0  0  0  0  0  0  0  0  0  0
   -3.2819   -3.0004    0.0000 C   0  0  0  0  0  0  0  0  0  0  0  0
   -4.0920   -0.4600    0.0000 C   0  0  0  0  0  0  0  0  0  0  0  0
   -4.2018    3.7281    0.0000 C   0  0  0  0  0  0  0  0  0  0  0  0
   -3.5016   -3.7281    0.0000 C   0  0  0  0  0  0  0  0  0  0  0  0
   -3.0347   -2.2451    0.0000 C   0  0  0  0  0  0  0  0  0  0  0  0
   -2.4717   -3.2338    0.0000 C   0  0  0  0  0  0  0  0  0  0  0  0
  1  2  2  0  0  0  0
  1  3  2  0  0  0  0
  1  8  1  0  0  0  0
  1 16  1  0  0  0  0
  4 19  1  0  0  0  0
  4 27  1  0  0  0  0
  5 37  1  0  0  0  0
  5 38  1  0  0  0  0
  6 36  2  0  0  0  0
  7 37  2  0  0  0  0
  8  9  1  0  0  0  0
  8 13  1  0  0  0  0
  9 15  2  0  0  0  0
 10 20  1  0  0  0  0
 10 28  1  0  0  0  0
 10 29  1  0  0  0  0
 11 34  1  0  0  0  0
 11 35  1  0  0  0  0
 11 36  1  0  0  0  0
 12 32  1  0  0  0  0
 12 37  1  0  0  0  0
 12 39  1  0  0  0  0
 13 14  1  0  0  0  0
 13 18  2  0  0  0  0
 14 15  1  0  0  0  0
 14 17  2  0  0  0  0
 15 20  1  0  0  0  0
 16 22  2  0  0  0  0
 16 23  1  0  0  0  0
 17 19  1  0  0  0  0
 18 21  1  0  0  0  0
 19 21  2  0  0  0  0
 22 24  1  0  0  0  0
 23 25  2  0  0  0  0
 24 26  2  0  0  0  0
 25 26  1  0  0  0  0
 26 33  1  0  0  0  0
 27 30  1  0  0  0  0
 27 31  1  0  0  0  0
 28 32  1  0  0  0  0
 30 34  1  0  0  0  0
 31 35  1  0  0  0  0
 36 40  1  0  0  0  0
 38 41  1  0  0  0  0
 38 42  1  0  0  0  0
 38 43  1  0  0  0  0
M  END
> <PUBCHEM_COMPOUND_ID_TYPE>
0

> <PUBCHEM_TOTAL_CHARGE>
0

> <PUBCHEM_SUBSTANCE_ID>
310941928

> <PUBCHEM_SUBSTANCE_VERSION>
1

> <PUBCHEM_EXT_DATASOURCE_NAME>
4488

> <PUBCHEM_EXT_DATASOURCE_REGID>
SCHEMBL16119961

> <PUBCHEM_SUBSTANCE_COMMENT>
InChI=1S/C31H43N5O6S/c1-22-8-11-26(12-9-22)43(39,40)36-29-13-10-25(41-24-14-16-35(17-15-24)23(2)37)20-27(29)28(32-36)21-33(6)18-19-34(7)30(38)42-31(3,4)5/h8-13,20,24H,14-19,21H2,1-7H3
InChIKey=FYDNEMBHSASRKA-UHFFFAOYSA-N

> <PUBCHEM_SUBSTANCE_SYNONYM>
SCHEMBL16119961

> <PUBCHEM_XREF_EXT_ID>
SCHEMBL16119961

> <PUBCHEM_EXT_DATASOURCE_URL>
https://www.surechembl.org/

> <PUBCHEM_EXT_SUBSTANCE_URL>
https://www.surechembl.org/chemical/SCHEMBL16119961

> <PUBCHEM_CID_ASSOCIATIONS>
117608654  1

> <PUBCHEM_COORDINATE_TYPE>
1
3

$$$$
