310940442
  -OEChem-07211613022D

 25 28  0     1  0  0  0  0  0999 V2000
    1.2532   -0.1098    0.0000 N   0  0  0  0  0  0  0  0  0  0  0  0
    1.2532   -1.4270    0.0000 N   0  0  3  0  0  0  0  0  0  0  0  0
   -0.2287    0.0549    0.0000 N   0  0  0  0  0  0  0  0  0  0  0  0
   -0.9239   -1.1709    0.0000 N   0  0  0  0  0  0  0  0  0  0  0  0
    0.5031   -0.3293    0.0000 C   0  0  0  0  0  0  0  0  0  0  0  0
    0.4848   -1.1526    0.0000 C   0  0  0  0  0  0  0  0  0  0  0  0
    1.7472   -0.7501    0.0000 C   0  0  3  0  0  0  0  0  0  0  0  0
    1.5094    0.6952    0.0000 C   0  0  0  0  0  0  0  0  0  0  0  0
   -0.9056   -0.3476    0.0000 C   0  0  0  0  0  0  0  0  0  0  0  0
   -0.1921   -1.5551    0.0000 C   0  0  0  0  0  0  0  0  0  0  0  0
   -1.6557    0.0915    0.0000 C   0  0  0  0  0  0  0  0  0  0  0  0
    2.2960    0.8599    0.0000 C   0  0  0  0  0  0  0  0  0  0  0  0
    1.0154    1.2441    0.0000 C   0  0  0  0  0  0  0  0  0  0  0  0
    3.0645   -0.7867    0.0000 C   0  0  0  0  0  0  0  0  0  0  0  0
    1.5276   -2.2138    0.0000 C   0  0  0  0  0  0  0  0  0  0  0  0
   -1.6374    0.9147    0.0000 C   0  0  0  0  0  0  0  0  0  0  0  0
    2.5522    1.6466    0.0000 C   0  0  0  0  0  0  0  0  0  0  0  0
   -2.3327   -0.3293    0.0000 C   0  0  0  0  0  0  0  0  0  0  0  0
    1.2166    2.0491    0.0000 C   0  0  0  0  0  0  0  0  0  0  0  0
    2.0399    2.2138    0.0000 C   0  0  0  0  0  0  0  0  0  0  0  0
    3.0462   -0.5123    0.0000 C   0  0  0  0  0  0  0  0  0  0  0  0
   -2.3876    1.2989    0.0000 C   0  0  0  0  0  0  0  0  0  0  0  0
   -3.0645    0.0549    0.0000 C   0  0  0  0  0  0  0  0  0  0  0  0
   -3.0462    0.8965    0.0000 C   0  0  0  0  0  0  0  0  0  0  0  0
   -0.9239    1.3173    0.0000 C   0  0  0  0  0  0  0  0  0  0  0  0
  1  5  1  0  0  0  0
  1  7  1  0  0  0  0
  1  8  1  0  0  0  0
  2  6  1  0  0  0  0
  2  7  1  0  0  0  0
  2 15  1  0  0  0  0
  3  5  2  0  0  0  0
  3  9  1  0  0  0  0
  4  9  2  0  0  0  0
  4 10  1  0  0  0  0
  5  6  1  0  0  0  0
  6 10  2  0  0  0  0
  7 14  1  0  0  0  0
  8 12  2  0  0  0  0
  8 13  1  0  0  0  0
  9 11  1  0  0  0  0
 11 16  2  0  0  0  0
 11 18  1  0  0  0  0
 12 17  1  0  0  0  0
 12 21  1  0  0  0  0
 13 19  2  0  0  0  0
 16 22  1  0  0  0  0
 16 25  1  0  0  0  0
 17 20  2  0  0  0  0
 18 23  2  0  0  0  0
 19 20  1  0  0  0  0
 22 24  2  0  0  0  0
 23 24  1  0  0  0  0
M  END
> <PUBCHEM_COMPOUND_ID_TYPE>
0

> <PUBCHEM_TOTAL_CHARGE>
0

> <PUBCHEM_SUBSTANCE_ID>
310940442

> <PUBCHEM_SUBSTANCE_VERSION>
1

> <PUBCHEM_EXT_DATASOURCE_NAME>
4488

> <PUBCHEM_EXT_DATASOURCE_REGID>
SCHEMBL16118395

> <PUBCHEM_SUBSTANCE_COMMENT>
InChI=1S/C21H22N4/c1-14-9-5-7-11-17(14)20-22-13-19-21(23-20)25(16(3)24(19)4)18-12-8-6-10-15(18)2/h5-13,16H,1-4H3
InChIKey=ZETJJCZLXCJWDG-UHFFFAOYSA-N

> <PUBCHEM_SUBSTANCE_SYNONYM>
SCHEMBL16118395

> <PUBCHEM_XREF_EXT_ID>
SCHEMBL16118395

> <PUBCHEM_EXT_DATASOURCE_URL>
https://www.surechembl.org/

> <PUBCHEM_EXT_SUBSTANCE_URL>
https://www.surechembl.org/chemical/SCHEMBL16118395

> <PUBCHEM_CID_ASSOCIATIONS>
117607463  1

> <PUBCHEM_COORDINATE_TYPE>
1
3

$$$$
