310947892
  -OEChem-07211613022D

 10 10  0     1  0  0  0  0  0999 V2000
    0.7774    1.2037    0.0000 N   0  0  0  0  0  0  0  0  0  0  0  0
    0.4388    0.4012    0.0000 C   0  0  3  0  0  0  0  0  0  0  0  0
    1.0282   -0.2131    0.0000 C   0  0  3  0  0  0  0  0  0  0  0  0
   -0.6143   -0.6143    0.0000 C   0  0  3  0  0  0  0  0  0  0  0  0
   -0.3761    0.1755    0.0000 C   0  0  0  0  0  0  0  0  0  0  0  0
    0.8025   -0.9906    0.0000 C   0  0  0  0  0  0  0  0  0  0  0  0
   -0.0125   -1.2037    0.0000 C   0  0  0  0  0  0  0  0  0  0  0  0
   -1.1159   -0.9278    0.0000 C   0  0  0  0  0  0  0  0  0  0  0  0
    1.5673   -0.0125    0.0000 C   0  0  0  0  0  0  0  0  0  0  0  0
   -1.5673   -1.1410    0.0000 C   0  0  0  0  0  0  0  0  0  0  0  0
  1  2  1  0  0  0  0
  2  3  1  0  0  0  0
  2  5  1  0  0  0  0
  3  6  1  0  0  0  0
  3  9  1  0  0  0  0
  4  5  1  0  0  0  0
  4  7  1  0  0  0  0
  4  8  1  0  0  0  0
  6  7  1  0  0  0  0
  8 10  1  0  0  0  0
M  END
> <PUBCHEM_COMPOUND_ID_TYPE>
0

> <PUBCHEM_TOTAL_CHARGE>
0

> <PUBCHEM_SUBSTANCE_ID>
310947892

> <PUBCHEM_SUBSTANCE_VERSION>
1

> <PUBCHEM_EXT_DATASOURCE_NAME>
4488

> <PUBCHEM_EXT_DATASOURCE_REGID>
SCHEMBL16126066

> <PUBCHEM_SUBSTANCE_COMMENT>
InChI=1S/C9H19N/c1-3-8-5-4-7(2)9(10)6-8/h7-9H,3-6,10H2,1-2H3
InChIKey=YDCDKLSQHWCYHD-UHFFFAOYSA-N

> <PUBCHEM_SUBSTANCE_SYNONYM>
SCHEMBL16126066

> <PUBCHEM_XREF_EXT_ID>
SCHEMBL16126066

> <PUBCHEM_EXT_DATASOURCE_URL>
https://www.surechembl.org/

> <PUBCHEM_EXT_SUBSTANCE_URL>
https://www.surechembl.org/chemical/SCHEMBL16126066

> <PUBCHEM_CID_ASSOCIATIONS>
117613556  1

> <PUBCHEM_COORDINATE_TYPE>
1
3

> <PUBCHEM_BONDANNOTATIONS>
2  1  3
3  9  3
8  10  3

$$$$
