310937394
  -OEChem-07211613022D

 25 28  0     1  0  0  0  0  0999 V2000
    2.4963    0.5661    0.0000 O   0  0  0  0  0  0  0  0  0  0  0  0
    1.0490    2.1659    0.0000 O   0  0  0  0  0  0  0  0  0  0  0  0
    2.5066    1.9772    0.0000 O   0  0  0  0  0  0  0  0  0  0  0  0
    1.4290   -0.4125    0.0000 C   0  0  3  0  0  0  0  0  0  0  0  0
    0.0000   -0.4125    0.0000 C   0  0  0  0  0  0  0  0  0  0  0  0
   -0.7145   -0.8250    0.0000 C   0  0  0  0  0  0  0  0  0  0  0  0
    0.0000    0.4125    0.0000 C   0  0  0  0  0  0  0  0  0  0  0  0
   -1.4290   -0.4125    0.0000 C   0  0  0  0  0  0  0  0  0  0  0  0
    0.7145    0.8250    0.0000 C   0  0  0  0  0  0  0  0  0  0  0  0
    0.7145   -0.8250    0.0000 C   0  0  0  0  0  0  0  0  0  0  0  0
    0.4850   -1.2805    0.0000 C   0  0  0  0  0  0  0  0  0  0  0  0
   -1.4290    0.4125    0.0000 C   0  0  0  0  0  0  0  0  0  0  0  0
    1.4290    0.4125    0.0000 C   0  0  0  0  0  0  0  0  0  0  0  0
   -0.7145    0.8250    0.0000 C   0  0  0  0  0  0  0  0  0  0  0  0
   -2.1435   -0.8250    0.0000 C   0  0  0  0  0  0  0  0  0  0  0  0
    1.2983    1.3794    0.0000 C   0  0  0  0  0  0  0  0  0  0  0  0
    2.1995   -0.1815    0.0000 C   0  0  0  0  0  0  0  0  0  0  0  0
   -2.1435    0.8250    0.0000 C   0  0  0  0  0  0  0  0  0  0  0  0
    2.0941    1.2627    0.0000 C   0  0  0  0  0  0  0  0  0  0  0  0
   -2.1435   -1.6500    0.0000 C   0  0  0  0  0  0  0  0  0  0  0  0
   -2.8579   -1.2375    0.0000 C   0  0  0  0  0  0  0  0  0  0  0  0
   -2.8579   -0.4125    0.0000 C   0  0  0  0  0  0  0  0  0  0  0  0
   -2.8579    1.2375    0.0000 C   0  0  0  0  0  0  0  0  0  0  0  0
   -2.1435    1.6500    0.0000 C   0  0  0  0  0  0  0  0  0  0  0  0
   -2.8579    0.4125    0.0000 C   0  0  0  0  0  0  0  0  0  0  0  0
  1 17  1  0  0  0  0
  1 19  1  0  0  0  0
  2 16  1  0  0  0  0
  3 19  2  0  0  0  0
  4 10  1  0  0  0  0
  4 11  1  0  0  0  0
  4 13  1  0  0  0  0
  4 17  1  0  0  0  0
  5  6  2  0  0  0  0
  5  7  1  0  0  0  0
  5 10  1  0  0  0  0
  6  8  1  0  0  0  0
  6 11  1  0  0  0  0
  7  9  1  0  0  0  0
  7 14  2  0  0  0  0
  8 12  2  0  0  0  0
  8 15  1  0  0  0  0
  9 13  1  0  0  0  0
  9 16  2  0  0  0  0
 12 14  1  0  0  0  0
 12 18  1  0  0  0  0
 15 20  1  0  0  0  0
 15 21  1  0  0  0  0
 15 22  1  0  0  0  0
 16 19  1  0  0  0  0
 18 23  1  0  0  0  0
 18 24  1  0  0  0  0
 18 25  1  0  0  0  0
M  END
> <PUBCHEM_COMPOUND_ID_TYPE>
0

> <PUBCHEM_TOTAL_CHARGE>
0

> <PUBCHEM_SUBSTANCE_ID>
310937394

> <PUBCHEM_SUBSTANCE_VERSION>
1

> <PUBCHEM_EXT_DATASOURCE_NAME>
4488

> <PUBCHEM_EXT_DATASOURCE_REGID>
SCHEMBL16115152

> <PUBCHEM_SUBSTANCE_COMMENT>
InChI=1S/C22H28O3/c1-20(2,3)16-7-12-13-8-22(9-14(13)17(16)21(4,5)6)10-15(12)18(23)19(24)25-11-22/h7,23H,8-11H2,1-6H3
InChIKey=LSWZBKIGNODCMB-UHFFFAOYSA-N

> <PUBCHEM_SUBSTANCE_SYNONYM>
SCHEMBL16115152

> <PUBCHEM_XREF_EXT_ID>
SCHEMBL16115152

> <PUBCHEM_EXT_DATASOURCE_URL>
https://www.surechembl.org/

> <PUBCHEM_EXT_SUBSTANCE_URL>
https://www.surechembl.org/chemical/SCHEMBL16115152

> <PUBCHEM_CID_ASSOCIATIONS>
117605159  1

> <PUBCHEM_COORDINATE_TYPE>
1
3

$$$$
