310946550
  -OEChem-07211613022D

 22 21  0     1  0  0  0  0  0999 V2000
   -8.0618   16.0417    0.0000 O   0  0  0  0  0  0  0  0  0  0  0  0
   -7.3473   17.2792    0.0000 O   0  0  0  0  0  0  0  0  0  0  0  0
   -3.7750   16.0417    0.0000 O   0  0  0  0  0  0  0  0  0  0  0  0
   -8.7763   17.2792    0.0000 O   0  0  0  0  0  0  0  0  0  0  0  0
   -8.0618   13.5667    0.0000 O   0  0  0  0  0  0  0  0  0  0  0  0
   -7.3473   14.8042    0.0000 O   0  0  0  0  0  0  0  0  0  0  0  0
   -3.0605   14.8042    0.0000 O   0  5  0  0  0  0  0  0  0  0  0  0
   -2.3460   16.0417    0.0000 O   0  0  0  0  0  0  0  0  0  0  0  0
   -9.4908   14.3917    0.0000 N   0  0  0  0  0  0  0  0  0  0  0  0
   -3.0605   15.6292    0.0000 N   0  3  0  0  0  0  0  0  0  0  0  0
   -8.7763   15.6292    0.0000 C   0  0  3  0  0  0  0  0  0  0  0  0
   -8.7763   14.8042    0.0000 C   0  0  3  0  0  0  0  0  0  0  0  0
   -8.0618   16.8667    0.0000 C   0  0  0  0  0  0  0  0  0  0  0  0
   -8.0618   14.3917    0.0000 C   0  0  0  0  0  0  0  0  0  0  0  0
   -3.7750   16.8667    0.0000 C   0  0  3  0  0  0  0  0  0  0  0  0
   -9.4908   16.0417    0.0000 C   0  0  0  0  0  0  0  0  0  0  0  0
   -4.4895   17.2792    0.0000 C   0  0  0  0  0  0  0  0  0  0  0  0
   -6.6329   16.8667    0.0000 C   0  0  0  0  0  0  0  0  0  0  0  0
   -5.2039   16.8667    0.0000 C   0  0  0  0  0  0  0  0  0  0  0  0
   -5.9184   17.2792    0.0000 C   0  0  0  0  0  0  0  0  0  0  0  0
   -3.0605   17.2792    0.0000 C   0  0  0  0  0  0  0  0  0  0  0  0
   -2.3460   16.8667    0.0000 C   0  0  0  0  0  0  0  0  0  0  0  0
  1 11  1  0  0  0  0
  1 13  1  0  0  0  0
  2 13  1  0  0  0  0
  2 18  1  0  0  0  0
  3 10  1  0  0  0  0
  3 15  1  0  0  0  0
  4 13  2  0  0  0  0
  5 14  2  0  0  0  0
  6 14  1  0  0  0  0
  7 10  1  0  0  0  0
  8 10  2  0  0  0  0
  9 12  1  0  0  0  0
 11 12  1  0  0  0  0
 11 16  1  0  0  0  0
 12 14  1  0  0  0  0
 15 17  1  0  0  0  0
 15 21  1  0  0  0  0
 17 19  1  0  0  0  0
 18 20  1  0  0  0  0
 19 20  1  0  0  0  0
 21 22  1  0  0  0  0
M  CHG  2   7  -1  10   1
M  END
> <PUBCHEM_COMPOUND_ID_TYPE>
0

> <PUBCHEM_TOTAL_CHARGE>
0

> <PUBCHEM_SUBSTANCE_ID>
310946550

> <PUBCHEM_SUBSTANCE_VERSION>
1

> <PUBCHEM_EXT_DATASOURCE_NAME>
4488

> <PUBCHEM_EXT_DATASOURCE_REGID>
SCHEMBL16124671

> <PUBCHEM_SUBSTANCE_COMMENT>
InChI=1S/C12H22N2O8/c1-3-9(22-14(18)19)6-4-5-7-20-12(17)21-8(2)10(13)11(15)16/h8-10H,3-7,13H2,1-2H3,(H,15,16)
InChIKey=QYUYFSFDJOXEQT-UHFFFAOYSA-N

> <PUBCHEM_SUBSTANCE_SYNONYM>
SCHEMBL16124671

> <PUBCHEM_XREF_EXT_ID>
SCHEMBL16124671

> <PUBCHEM_EXT_DATASOURCE_URL>
https://www.surechembl.org/

> <PUBCHEM_EXT_SUBSTANCE_URL>
https://www.surechembl.org/chemical/SCHEMBL16124671

> <PUBCHEM_CID_ASSOCIATIONS>
117612452  1

> <PUBCHEM_COORDINATE_TYPE>
1
3

$$$$
