310944030
  -OEChem-07211613022D

 24 26  0     1  0  0  0  0  0999 V2000
   -0.3277    2.9153    0.0000 O   0  0  0  0  0  0  0  0  0  0  0  0
    0.3960    1.6727    0.0000 N   0  0  0  0  0  0  0  0  0  0  0  0
    2.2121    1.2631    0.0000 N   0  0  3  0  0  0  0  0  0  0  0  0
   -1.7478    0.4301    0.0000 C   0  0  0  0  0  0  0  0  0  0  0  0
   -1.0377    1.6727    0.0000 C   0  0  0  0  0  0  0  0  0  0  0  0
   -0.3414    2.0824    0.0000 C   0  0  0  0  0  0  0  0  0  0  0  0
   -1.0377    0.8398    0.0000 C   0  0  0  0  0  0  0  0  0  0  0  0
   -1.7478   -0.4165    0.0000 C   0  0  0  0  0  0  0  0  0  0  0  0
   -2.4852    0.8261    0.0000 C   0  0  0  0  0  0  0  0  0  0  0  0
   -1.7615    2.0687    0.0000 C   0  0  0  0  0  0  0  0  0  0  0  0
   -2.4579    1.6727    0.0000 C   0  0  0  0  0  0  0  0  0  0  0  0
   -2.4442   -0.8261    0.0000 C   0  0  0  0  0  0  0  0  0  0  0  0
   -1.0377   -0.8261    0.0000 C   0  0  0  0  0  0  0  0  0  0  0  0
    1.0377    2.1916    0.0000 C   0  0  0  0  0  0  0  0  0  0  0  0
    0.4097    0.8534    0.0000 C   0  0  0  0  0  0  0  0  0  0  0  0
   -1.7342   -2.0824    0.0000 C   0  0  0  0  0  0  0  0  0  0  0  0
   -2.4442   -1.6590    0.0000 C   0  0  0  0  0  0  0  0  0  0  0  0
   -1.0241   -1.6454    0.0000 C   0  0  0  0  0  0  0  0  0  0  0  0
   -3.0040    0.5121    0.0000 C   0  0  0  0  0  0  0  0  0  0  0  0
    1.8434    2.0141    0.0000 C   0  0  0  0  0  0  0  0  0  0  0  0
    1.0651    0.3482    0.0000 C   0  0  0  0  0  0  0  0  0  0  0  0
    1.8434    0.5121    0.0000 C   0  0  0  0  0  0  0  0  0  0  0  0
   -1.7342   -2.9153    0.0000 C   0  0  0  0  0  0  0  0  0  0  0  0
    3.0040    1.0582    0.0000 C   0  0  0  0  0  0  0  0  0  0  0  0
  1  6  2  0  0  0  0
  2  6  1  0  0  0  0
  2 14  1  0  0  0  0
  2 15  1  0  0  0  0
  3 20  1  0  0  0  0
  3 22  1  0  0  0  0
  3 24  1  0  0  0  0
  4  7  2  0  0  0  0
  4  8  1  0  0  0  0
  4  9  1  0  0  0  0
  5  6  1  0  0  0  0
  5  7  1  0  0  0  0
  5 10  2  0  0  0  0
  8 12  2  0  0  0  0
  8 13  1  0  0  0  0
  9 11  2  0  0  0  0
  9 19  1  0  0  0  0
 10 11  1  0  0  0  0
 12 17  1  0  0  0  0
 13 18  2  0  0  0  0
 14 20  1  0  0  0  0
 15 21  1  0  0  0  0
 16 17  2  0  0  0  0
 16 18  1  0  0  0  0
 16 23  1  0  0  0  0
 21 22  1  0  0  0  0
M  END
> <PUBCHEM_COMPOUND_ID_TYPE>
0

> <PUBCHEM_TOTAL_CHARGE>
0

> <PUBCHEM_SUBSTANCE_ID>
310944030

> <PUBCHEM_SUBSTANCE_VERSION>
1

> <PUBCHEM_EXT_DATASOURCE_NAME>
4488

> <PUBCHEM_EXT_DATASOURCE_REGID>
SCHEMBL16122103

> <PUBCHEM_SUBSTANCE_COMMENT>
InChI=1S/C21H26N2O/c1-16-5-8-18(9-6-16)20-15-19(10-7-17(20)2)21(24)23-12-4-11-22(3)13-14-23/h5-10,15H,4,11-14H2,1-3H3
InChIKey=IKIWLCIMNPXNCT-UHFFFAOYSA-N

> <PUBCHEM_SUBSTANCE_SYNONYM>
SCHEMBL16122103

> <PUBCHEM_XREF_EXT_ID>
SCHEMBL16122103

> <PUBCHEM_EXT_DATASOURCE_URL>
https://www.surechembl.org/

> <PUBCHEM_EXT_SUBSTANCE_URL>
https://www.surechembl.org/chemical/SCHEMBL16122103

> <PUBCHEM_CID_ASSOCIATIONS>
117610330  1

> <PUBCHEM_COORDINATE_TYPE>
1
3

$$$$
