310931488
  -OEChem-07211613022D

 40 43  0     1  0  0  0  0  0999 V2000
    1.5321   -7.8570    0.0000 Cl  0  0  0  0  0  0  0  0  0  0  0  0
    6.5606   -5.8142    0.0000 S   0  0  0  0  0  0  0  0  0  0  0  0
    8.3284   -4.4392    0.0000 S   0  0  0  0  0  0  0  0  0  0  0  0
    6.5606   -4.1249    0.0000 F   0  0  0  0  0  0  0  0  0  0  0  0
    3.6928   -5.7749    0.0000 F   0  0  0  0  0  0  0  0  0  0  0  0
    3.6928   -4.1249    0.0000 O   0  0  0  0  0  0  0  0  0  0  0  0
    6.1284   -6.5213    0.0000 O   0  0  0  0  0  0  0  0  0  0  0  0
    7.2677   -6.2463    0.0000 O   0  0  0  0  0  0  0  0  0  0  0  0
    0.8250   -1.6499    0.0000 O   0  0  0  0  0  0  0  0  0  0  0  0
    2.2785   -1.6499    0.0000 O   0  0  0  0  0  0  0  0  0  0  0  0
    6.9927   -5.1070    0.0000 N   0  0  0  0  0  0  0  0  0  0  0  0
    8.2891   -5.7749    0.0000 N   0  0  0  0  0  0  0  0  0  0  0  0
    1.5321   -2.8678    0.0000 N   0  0  0  0  0  0  0  0  0  0  0  0
    9.1140   -4.7142    0.0000 N   0  0  0  0  0  0  0  0  0  0  0  0
    5.8535   -5.3820    0.0000 C   0  0  0  0  0  0  0  0  0  0  0  0
    5.8535   -4.5570    0.0000 C   0  0  0  0  0  0  0  0  0  0  0  0
    4.4392   -4.5570    0.0000 C   0  0  0  0  0  0  0  0  0  0  0  0
    5.1463   -5.7749    0.0000 C   0  0  0  0  0  0  0  0  0  0  0  0
    4.3999   -5.3820    0.0000 C   0  0  0  0  0  0  0  0  0  0  0  0
    5.1463   -4.1249    0.0000 C   0  0  0  0  0  0  0  0  0  0  0  0
    7.8177   -5.1070    0.0000 C   0  0  0  0  0  0  0  0  0  0  0  0
    2.2785   -4.1249    0.0000 C   0  0  3  0  0  0  0  0  0  0  0  0
    1.5321   -4.5177    0.0000 C   0  0  3  0  0  0  0  0  0  0  0  0
    2.9857   -4.5177    0.0000 C   0  0  0  0  0  0  0  0  0  0  0  0
    1.5321   -5.3427    0.0000 C   0  0  0  0  0  0  0  0  0  0  0  0
    2.2785   -3.2999    0.0000 C   0  0  0  0  0  0  0  0  0  0  0  0
    0.8250   -4.1249    0.0000 C   0  0  0  0  0  0  0  0  0  0  0  0
    0.8250   -3.2999    0.0000 C   0  0  0  0  0  0  0  0  0  0  0  0
    1.5321   -2.0428    0.0000 C   0  0  0  0  0  0  0  0  0  0  0  0
    9.0748   -5.5391    0.0000 C   0  0  0  0  0  0  0  0  0  0  0  0
    2.2785   -5.7749    0.0000 C   0  0  0  0  0  0  0  0  0  0  0  0
    0.8250   -5.7749    0.0000 C   0  0  0  0  0  0  0  0  0  0  0  0
    8.0534   -6.5606    0.0000 C   0  0  0  0  0  0  0  0  0  0  0  0
    0.8250   -0.8250    0.0000 C   0  0  0  0  0  0  0  0  0  0  0  0
    2.2785   -6.5998    0.0000 C   0  0  0  0  0  0  0  0  0  0  0  0
    0.8250   -6.5998    0.0000 C   0  0  0  0  0  0  0  0  0  0  0  0
    1.5321   -7.0320    0.0000 C   0  0  0  0  0  0  0  0  0  0  0  0
    1.6892   -0.8250    0.0000 C   0  0  0  0  0  0  0  0  0  0  0  0
    0.8250    0.0000    0.0000 C   0  0  0  0  0  0  0  0  0  0  0  0
    0.0000   -0.8250    0.0000 C   0  0  0  0  0  0  0  0  0  0  0  0
  1 37  1  0  0  0  0
  2  7  2  0  0  0  0
  2  8  2  0  0  0  0
  2 11  1  0  0  0  0
  2 15  1  0  0  0  0
  3 14  1  0  0  0  0
  3 21  1  0  0  0  0
  4 16  1  0  0  0  0
  5 19  1  0  0  0  0
  6 17  1  0  0  0  0
  6 24  1  0  0  0  0
  9 29  1  0  0  0  0
  9 34  1  0  0  0  0
 10 29  2  0  0  0  0
 11 21  2  0  0  0  0
 12 21  1  0  0  0  0
 12 30  1  0  0  0  0
 12 33  1  0  0  0  0
 13 26  1  0  0  0  0
 13 28  1  0  0  0  0
 13 29  1  0  0  0  0
 14 30  2  0  0  0  0
 15 16  1  0  0  0  0
 15 18  2  0  0  0  0
 16 20  2  0  0  0  0
 17 19  2  0  0  0  0
 17 20  1  0  0  0  0
 18 19  1  0  0  0  0
 22 23  1  0  0  0  0
 22 24  1  0  0  0  0
 22 26  1  0  0  0  0
 23 25  1  0  0  0  0
 23 27  1  0  0  0  0
 25 31  2  0  0  0  0
 25 32  1  0  0  0  0
 27 28  1  0  0  0  0
 31 35  1  0  0  0  0
 32 36  2  0  0  0  0
 34 38  1  0  0  0  0
 34 39  1  0  0  0  0
 34 40  1  0  0  0  0
 35 37  2  0  0  0  0
 36 37  1  0  0  0  0
M  END
> <PUBCHEM_COMPOUND_ID_TYPE>
0

> <PUBCHEM_TOTAL_CHARGE>
0

> <PUBCHEM_SUBSTANCE_ID>
310931488

> <PUBCHEM_SUBSTANCE_VERSION>
1

> <PUBCHEM_EXT_DATASOURCE_NAME>
4488

> <PUBCHEM_EXT_DATASOURCE_REGID>
SCHEMBL16108813

> <PUBCHEM_SUBSTANCE_COMMENT>
InChI=1S/C26H29ClF2N4O5S2/c1-26(2,3)38-25(34)33-10-9-19(16-5-7-18(27)8-6-16)17(13-33)14-37-22-11-21(29)23(12-20(22)28)40(35,36)31-24-32(4)15-30-39-24/h5-8,11-12,15,17,19H,9-10,13-14H2,1-4H3/b31-24+
InChIKey=OQONJWZKBIXROV-QFMPWRQOSA-N

> <PUBCHEM_SUBSTANCE_SYNONYM>
SCHEMBL16108813

> <PUBCHEM_XREF_EXT_ID>
SCHEMBL16108813

> <PUBCHEM_EXT_DATASOURCE_URL>
https://www.surechembl.org/

> <PUBCHEM_EXT_SUBSTANCE_URL>
https://www.surechembl.org/chemical/SCHEMBL16108813

> <PUBCHEM_CID_ASSOCIATIONS>
117600253  1

> <PUBCHEM_COORDINATE_TYPE>
1
3

$$$$
