310946637
  -OEChem-07211613022D

 34 33  0     1  0  0  0  0  0999 V2000
   -6.5805   -4.4813    0.0000 S   0  0  0  0  0  0  0  0  0  0  0  0
   -5.8660   -5.7188    0.0000 O   0  0  0  0  0  0  0  0  0  0  0  0
   -9.4384   -6.1313    0.0000 O   0  0  0  0  0  0  0  0  0  0  0  0
   -6.5805   -6.9563    0.0000 O   0  0  0  0  0  0  0  0  0  0  0  0
   -5.8660   -3.2438    0.0000 O   0  0  0  0  0  0  0  0  0  0  0  0
   -8.7239   -4.8938    0.0000 O   0  0  0  0  0  0  0  0  0  0  0  0
   -7.2949   -3.2438    0.0000 O   0  0  0  0  0  0  0  0  0  0  0  0
  -10.8673   -9.4313    0.0000 O   0  0  0  0  0  0  0  0  0  0  0  0
   -2.2936   -3.6563    0.0000 O   0  0  0  0  0  0  0  0  0  0  0  0
  -10.1528  -10.6688    0.0000 O   0  5  0  0  0  0  0  0  0  0  0  0
   -9.4384   -9.4313    0.0000 O   0  0  0  0  0  0  0  0  0  0  0  0
   -0.8647   -3.6563    0.0000 O   0  5  0  0  0  0  0  0  0  0  0  0
   -1.5792   -2.4188    0.0000 O   0  0  0  0  0  0  0  0  0  0  0  0
   -8.0094   -6.1313    0.0000 N   0  0  0  0  0  0  0  0  0  0  0  0
  -10.1528   -9.8438    0.0000 N   0  3  0  0  0  0  0  0  0  0  0  0
   -1.5792   -3.2438    0.0000 N   0  3  0  0  0  0  0  0  0  0  0  0
   -7.2949   -5.7188    0.0000 C   0  0  3  0  0  0  0  0  0  0  0  0
   -6.5805   -6.1313    0.0000 C   0  0  0  0  0  0  0  0  0  0  0  0
   -7.2949   -4.8938    0.0000 C   0  0  0  0  0  0  0  0  0  0  0  0
   -8.7239   -5.7188    0.0000 C   0  0  0  0  0  0  0  0  0  0  0  0
   -6.5805   -3.6563    0.0000 C   0  0  0  0  0  0  0  0  0  0  0  0
   -5.1515   -6.1313    0.0000 C   0  0  0  0  0  0  0  0  0  0  0  0
   -9.4384   -6.9563    0.0000 C   0  0  0  0  0  0  0  0  0  0  0  0
   -5.1515   -3.6563    0.0000 C   0  0  0  0  0  0  0  0  0  0  0  0
   -4.4371   -5.7188    0.0000 C   0  0  0  0  0  0  0  0  0  0  0  0
  -10.1528   -7.3688    0.0000 C   0  0  0  0  0  0  0  0  0  0  0  0
   -4.4371   -3.2438    0.0000 C   0  0  0  0  0  0  0  0  0  0  0  0
  -10.1528   -8.1938    0.0000 C   0  0  0  0  0  0  0  0  0  0  0  0
   -3.7226   -6.1313    0.0000 C   0  0  0  0  0  0  0  0  0  0  0  0
   -3.7226   -3.6563    0.0000 C   0  0  0  0  0  0  0  0  0  0  0  0
  -10.8673   -8.6063    0.0000 C   0  0  0  0  0  0  0  0  0  0  0  0
   -3.0081   -3.2438    0.0000 C   0  0  0  0  0  0  0  0  0  0  0  0
   -3.0081   -5.7188    0.0000 C   0  0  0  0  0  0  0  0  0  0  0  0
   -2.2936   -6.1313    0.0000 C   0  0  0  0  0  0  0  0  0  0  0  0
  1 19  1  0  0  0  0
  1 21  1  0  0  0  0
  2 18  1  0  0  0  0
  2 22  1  0  0  0  0
  3 20  1  0  0  0  0
  3 23  1  0  0  0  0
  4 18  2  0  0  0  0
  5 21  1  0  0  0  0
  5 24  1  0  0  0  0
  6 20  2  0  0  0  0
  7 21  2  0  0  0  0
  8 15  1  0  0  0  0
  8 31  1  0  0  0  0
  9 16  1  0  0  0  0
  9 32  1  0  0  0  0
 10 15  1  0  0  0  0
 11 15  2  0  0  0  0
 12 16  1  0  0  0  0
 13 16  2  0  0  0  0
 14 17  1  0  0  0  0
 14 20  1  0  0  0  0
 17 18  1  0  0  0  0
 17 19  1  0  0  0  0
 22 25  1  0  0  0  0
 23 26  1  0  0  0  0
 24 27  1  0  0  0  0
 25 29  1  0  0  0  0
 26 28  1  0  0  0  0
 27 30  1  0  0  0  0
 28 31  1  0  0  0  0
 29 33  1  0  0  0  0
 30 32  1  0  0  0  0
 33 34  1  0  0  0  0
M  CHG  4  10  -1  12  -1  15   1  16   1
M  END
> <PUBCHEM_COMPOUND_ID_TYPE>
0

> <PUBCHEM_TOTAL_CHARGE>
0

> <PUBCHEM_SUBSTANCE_ID>
310946637

> <PUBCHEM_SUBSTANCE_VERSION>
1

> <PUBCHEM_EXT_DATASOURCE_NAME>
4488

> <PUBCHEM_EXT_DATASOURCE_REGID>
SCHEMBL16124758

> <PUBCHEM_SUBSTANCE_COMMENT>
InChI=1S/C18H31N3O12S/c1-2-3-4-9-29-16(22)15(19-17(23)30-10-5-7-12-32-20(25)26)14-34-18(24)31-11-6-8-13-33-21(27)28/h15H,2-14H2,1H3,(H,19,23)
InChIKey=CHZXTDOBZDRPLU-UHFFFAOYSA-N

> <PUBCHEM_SUBSTANCE_SYNONYM>
SCHEMBL16124758

> <PUBCHEM_XREF_EXT_ID>
SCHEMBL16124758

> <PUBCHEM_EXT_DATASOURCE_URL>
https://www.surechembl.org/

> <PUBCHEM_EXT_SUBSTANCE_URL>
https://www.surechembl.org/chemical/SCHEMBL16124758

> <PUBCHEM_CID_ASSOCIATIONS>
117612537  1

> <PUBCHEM_COORDINATE_TYPE>
1
3

$$$$
