310935714
  -OEChem-07211613022D

 16 17  0     1  0  0  0  0  0999 V2000
   11.1161    0.4125    0.0000 O   0  0  0  0  0  0  0  0  0  0  0  0
   10.4016   -0.8250    0.0000 O   0  0  0  0  0  0  0  0  0  0  0  0
    9.6871    0.4125    0.0000 N   0  0  0  0  0  0  0  0  0  0  0  0
    8.4583    2.1582    0.0000 N   0  0  0  0  0  0  0  0  0  0  0  0
    8.3814    0.6901    0.0000 C   0  0  0  0  0  0  0  0  0  0  0  0
    8.7939    1.4045    0.0000 C   0  0  3  0  0  0  0  0  0  0  0  0
    8.9334    0.0770    0.0000 C   0  0  0  0  0  0  0  0  0  0  0  0
    9.6009    1.2330    0.0000 C   0  0  0  0  0  0  0  0  0  0  0  0
    7.8622    0.0489    0.0000 C   0  0  0  0  0  0  0  0  0  0  0  0
    7.7402    1.2092    0.0000 C   0  0  0  0  0  0  0  0  0  0  0  0
   10.4016    0.0000    0.0000 C   0  0  0  0  0  0  0  0  0  0  0  0
    7.2210    0.5681    0.0000 C   0  0  0  0  0  0  0  0  0  0  0  0
   11.8306    0.0000    0.0000 C   0  0  0  0  0  0  0  0  0  0  0  0
   11.8306   -0.8250    0.0000 C   0  0  0  0  0  0  0  0  0  0  0  0
   12.5450   -0.4125    0.0000 C   0  0  0  0  0  0  0  0  0  0  0  0
   12.5450    0.4125    0.0000 C   0  0  0  0  0  0  0  0  0  0  0  0
  1 11  1  0  0  0  0
  1 13  1  0  0  0  0
  2 11  2  0  0  0  0
  3  7  1  0  0  0  0
  3  8  1  0  0  0  0
  3 11  1  0  0  0  0
  4  6  1  0  0  0  0
  5  6  1  0  0  0  0
  5  7  1  0  0  0  0
  5  9  1  0  0  0  0
  5 10  1  0  0  0  0
  6  8  1  0  0  0  0
  9 12  1  0  0  0  0
 10 12  1  0  0  0  0
 13 14  1  0  0  0  0
 13 15  1  0  0  0  0
 13 16  1  0  0  0  0
M  END
> <PUBCHEM_COMPOUND_ID_TYPE>
0

> <PUBCHEM_TOTAL_CHARGE>
0

> <PUBCHEM_SUBSTANCE_ID>
310935714

> <PUBCHEM_SUBSTANCE_VERSION>
1

> <PUBCHEM_EXT_DATASOURCE_NAME>
4488

> <PUBCHEM_EXT_DATASOURCE_REGID>
SCHEMBL16113298

> <PUBCHEM_SUBSTANCE_COMMENT>
InChI=1S/C12H22N2O2/c1-11(2,3)16-10(15)14-7-9(13)12(8-14)5-4-6-12/h9H,4-8,13H2,1-3H3
InChIKey=LAGSKIGKSYCEMD-UHFFFAOYSA-N

> <PUBCHEM_SUBSTANCE_SYNONYM>
SCHEMBL16113298

> <PUBCHEM_XREF_EXT_ID>
SCHEMBL16113298

> <PUBCHEM_EXT_DATASOURCE_URL>
https://www.surechembl.org/

> <PUBCHEM_EXT_SUBSTANCE_URL>
https://www.surechembl.org/chemical/SCHEMBL16113298

> <PUBCHEM_CID_ASSOCIATIONS>
82391471  1

> <PUBCHEM_COORDINATE_TYPE>
1
3

$$$$
