310949450
  -OEChem-07211613022D

 16 16  0     1  0  0  0  0  0999 V2000
    1.6112    0.2007    0.0000 O   0  0  0  0  0  0  0  0  0  0  0  0
   -0.3128    2.6322    0.0000 N   0  0  3  0  0  0  0  0  0  0  0  0
    0.4426    1.0505    0.0000 N   0  0  0  0  0  0  0  0  0  0  0  0
    0.4781   -2.5850    0.0000 N   0  0  0  0  0  0  0  0  0  0  0  0
   -0.7377    1.9122    0.0000 C   0  0  3  0  0  0  0  0  0  0  0  0
   -1.5285    2.1010    0.0000 C   0  0  0  0  0  0  0  0  0  0  0  0
   -0.3836    1.1686    0.0000 C   0  0  0  0  0  0  0  0  0  0  0  0
   -0.8793    3.2577    0.0000 C   0  0  0  0  0  0  0  0  0  0  0  0
   -1.6112    2.9273    0.0000 C   0  0  0  0  0  0  0  0  0  0  0  0
    0.7613    0.3187    0.0000 C   0  0  0  0  0  0  0  0  0  0  0  0
    0.5842    2.7384    0.0000 C   0  0  0  0  0  0  0  0  0  0  0  0
    0.3010   -0.3659    0.0000 C   0  0  0  0  0  0  0  0  0  0  0  0
    0.6315   -1.1213    0.0000 C   0  0  0  0  0  0  0  0  0  0  0  0
    0.1475   -1.8178    0.0000 C   0  0  0  0  0  0  0  0  0  0  0  0
    0.0059   -3.2577    0.0000 C   0  0  0  0  0  0  0  0  0  0  0  0
    1.3161   -2.6676    0.0000 C   0  0  0  0  0  0  0  0  0  0  0  0
  1 10  2  0  0  0  0
  2  5  1  0  0  0  0
  2  8  1  0  0  0  0
  2 11  1  0  0  0  0
  3  7  1  0  0  0  0
  3 10  1  0  0  0  0
  4 14  1  0  0  0  0
  4 15  1  0  0  0  0
  4 16  1  0  0  0  0
  5  6  1  0  0  0  0
  5  7  1  0  0  0  0
  6  9  1  0  0  0  0
  8  9  1  0  0  0  0
 10 12  1  0  0  0  0
 12 13  2  0  0  0  0
 13 14  1  0  0  0  0
M  END
> <PUBCHEM_COMPOUND_ID_TYPE>
0

> <PUBCHEM_TOTAL_CHARGE>
0

> <PUBCHEM_SUBSTANCE_ID>
310949450

> <PUBCHEM_SUBSTANCE_VERSION>
1

> <PUBCHEM_EXT_DATASOURCE_NAME>
4488

> <PUBCHEM_EXT_DATASOURCE_REGID>
SCHEMBL16127644

> <PUBCHEM_SUBSTANCE_COMMENT>
InChI=1S/C12H23N3O/c1-14(2)8-5-7-12(16)13-10-11-6-4-9-15(11)3/h5,7,11H,4,6,8-10H2,1-3H3,(H,13,16)/b7-5+
InChIKey=BFBHAHUJERGRDS-FNORWQNLSA-N

> <PUBCHEM_SUBSTANCE_SYNONYM>
SCHEMBL16127644

> <PUBCHEM_XREF_EXT_ID>
SCHEMBL16127644

> <PUBCHEM_EXT_DATASOURCE_URL>
https://www.surechembl.org/

> <PUBCHEM_EXT_SUBSTANCE_URL>
https://www.surechembl.org/chemical/SCHEMBL16127644

> <PUBCHEM_CID_ASSOCIATIONS>
117614896  1

> <PUBCHEM_COORDINATE_TYPE>
1
3

$$$$
