310936408
  -OEChem-07211613022D

 16 16  0     1  0  0  0  0  0999 V2000
    4.1676   -1.4427    0.0000 O   0  0  0  0  0  0  0  0  0  0  0  0
    1.6564   -1.4427    0.0000 O   0  0  0  0  0  0  0  0  0  0  0  0
    2.5112   -0.0178    0.0000 O   0  0  0  0  0  0  0  0  0  0  0  0
    2.5112   -2.8675    0.0000 O   0  0  0  0  0  0  0  0  0  0  0  0
    4.1320   -0.0178    0.0000 O   0  0  0  0  0  0  0  0  0  0  0  0
    2.4756   -1.4427    0.0000 C   0  0  3  0  0  0  0  0  0  0  0  0
    2.9208   -0.7302    0.0000 C   0  0  3  0  0  0  0  0  0  0  0  0
    2.9208   -2.1372    0.0000 C   0  0  3  0  0  0  0  0  0  0  0  0
    3.7223   -0.7302    0.0000 C   0  0  3  0  0  0  0  0  0  0  0  0
    3.7223   -2.1372    0.0000 C   0  0  3  0  0  0  0  0  0  0  0  0
    4.1320   -2.8675    0.0000 C   0  0  0  0  0  0  0  0  0  0  0  0
    1.2467   -0.7302    0.0000 C   0  0  0  0  0  0  0  0  0  0  0  0
    1.6920    0.0000    0.0000 C   0  0  0  0  0  0  0  0  0  0  0  0
    2.9387   -3.5620    0.0000 C   0  0  0  0  0  0  0  0  0  0  0  0
    0.4275   -0.7302    0.0000 C   0  0  0  0  0  0  0  0  0  0  0  0
    0.0000   -0.0178    0.0000 C   0  0  0  0  0  0  0  0  0  0  0  0
  1  9  1  0  0  0  0
  1 10  1  0  0  0  0
  2  6  1  0  0  0  0
  2 12  1  0  0  0  0
  3  7  1  0  0  0  0
  3 13  1  0  0  0  0
  4  8  1  0  0  0  0
  4 14  1  0  0  0  0
  5  9  1  0  0  0  0
  6  7  1  0  0  0  0
  6  8  1  0  0  0  0
  7  9  1  0  0  0  0
  8 10  1  0  0  0  0
 10 11  1  0  0  0  0
 12 15  1  0  0  0  0
 15 16  1  0  0  0  0
M  END
> <PUBCHEM_COMPOUND_ID_TYPE>
0

> <PUBCHEM_TOTAL_CHARGE>
0

> <PUBCHEM_SUBSTANCE_ID>
310936408

> <PUBCHEM_SUBSTANCE_VERSION>
1

> <PUBCHEM_EXT_DATASOURCE_NAME>
4488

> <PUBCHEM_EXT_DATASOURCE_REGID>
SCHEMBL16114046

> <PUBCHEM_SUBSTANCE_COMMENT>
InChI=1S/C11H22O5/c1-5-6-15-9-8(13-3)7(2)16-11(12)10(9)14-4/h7-12H,5-6H2,1-4H3
InChIKey=MOZVTZZNYKFDAS-UHFFFAOYSA-N

> <PUBCHEM_SUBSTANCE_SYNONYM>
SCHEMBL16114046

> <PUBCHEM_XREF_EXT_ID>
SCHEMBL16114046

> <PUBCHEM_EXT_DATASOURCE_URL>
https://www.surechembl.org/

> <PUBCHEM_EXT_SUBSTANCE_URL>
https://www.surechembl.org/chemical/SCHEMBL16114046

> <PUBCHEM_CID_ASSOCIATIONS>
76621622  1

> <PUBCHEM_COORDINATE_TYPE>
1
3

$$$$
