310940846
  -OEChem-07211613022D

 41 44  0     1  0  0  0  0  0999 V2000
    5.1942   -1.4319    0.0000 O   0  0  0  0  0  0  0  0  0  0  0  0
    4.0545    0.5406    0.0000 O   0  0  0  0  0  0  0  0  0  0  0  0
    1.6729   -1.4172    0.0000 O   0  0  0  0  0  0  0  0  0  0  0  0
   -0.4894    0.6721    0.0000 O   0  0  0  0  0  0  0  0  0  0  0  0
    2.4034    3.1705    0.0000 O   0  0  0  0  0  0  0  0  0  0  0  0
   -2.6518   -1.4172    0.0000 O   0  0  0  0  0  0  0  0  0  0  0  0
   -5.5302   -1.4172    0.0000 O   0  0  0  0  0  0  0  0  0  0  0  0
    2.4034   -0.1607    0.0000 N   0  0  0  0  0  0  0  0  0  0  0  0
    0.2411   -0.5844    0.0000 N   0  0  0  0  0  0  0  0  0  0  0  0
   -1.9213   -0.1607    0.0000 N   0  0  0  0  0  0  0  0  0  0  0  0
   -4.0837   -0.5844    0.0000 N   0  0  0  0  0  0  0  0  0  0  0  0
    4.7850   -0.6867    0.0000 C   0  0  3  0  0  0  0  0  0  0  0  0
    4.0691   -0.2776    0.0000 C   0  0  0  0  0  0  0  0  0  0  0  0
    4.3905   -1.4026    0.0000 C   0  0  0  0  0  0  0  0  0  0  0  0
    3.3532   -0.6721    0.0000 C   0  0  3  0  0  0  0  0  0  0  0  0
    5.5302   -0.2776    0.0000 C   0  0  0  0  0  0  0  0  0  0  0  0
    3.3532   -1.7679    0.0000 C   0  0  0  0  0  0  0  0  0  0  0  0
    1.7022   -0.5260    0.0000 C   0  0  0  0  0  0  0  0  0  0  0  0
    0.9716   -0.1315    0.0000 C   0  0  3  0  0  0  0  0  0  0  0  0
    2.6227   -2.1770    0.0000 C   0  0  0  0  0  0  0  0  0  0  0  0
    0.9862    0.7013    0.0000 C   0  0  0  0  0  0  0  0  0  0  0  0
    1.6876    1.1104    0.0000 C   0  0  0  0  0  0  0  0  0  0  0  0
   -0.4894   -0.1607    0.0000 C   0  0  0  0  0  0  0  0  0  0  0  0
    1.8629   -1.8556    0.0000 C   0  0  0  0  0  0  0  0  0  0  0  0
    2.5349   -2.9952    0.0000 C   0  0  0  0  0  0  0  0  0  0  0  0
    1.7022    1.9432    0.0000 C   0  0  0  0  0  0  0  0  0  0  0  0
   -1.1762   -0.5552    0.0000 C   0  0  3  0  0  0  0  0  0  0  0  0
    2.4034    2.3670    0.0000 C   0  0  0  0  0  0  0  0  0  0  0  0
    2.4181    0.7013    0.0000 C   0  0  0  0  0  0  0  0  0  0  0  0
    3.1340    1.9432    0.0000 C   0  0  0  0  0  0  0  0  0  0  0  0
    1.3223   -2.4546    0.0000 C   0  0  0  0  0  0  0  0  0  0  0  0
    1.7314   -3.1705    0.0000 C   0  0  0  0  0  0  0  0  0  0  0  0
    3.1340    1.1104    0.0000 C   0  0  0  0  0  0  0  0  0  0  0  0
   -2.6227   -0.5260    0.0000 C   0  0  0  0  0  0  0  0  0  0  0  0
   -3.3678   -0.1461    0.0000 C   0  0  0  0  0  0  0  0  0  0  0  0
   -1.1908   -1.4026    0.0000 C   0  0  0  0  0  0  0  0  0  0  0  0
    3.8645    2.3670    0.0000 C   0  0  0  0  0  0  0  0  0  0  0  0
   -4.0837   -1.3880    0.0000 C   0  0  0  0  0  0  0  0  0  0  0  0
   -4.8289   -0.1461    0.0000 C   0  0  0  0  0  0  0  0  0  0  0  0
   -4.7704   -1.7971    0.0000 C   0  0  0  0  0  0  0  0  0  0  0  0
   -5.5009   -0.5406    0.0000 C   0  0  0  0  0  0  0  0  0  0  0  0
  1 12  1  0  0  0  0
  1 14  1  0  0  0  0
  2 13  2  0  0  0  0
  3 18  2  0  0  0  0
  4 23  2  0  0  0  0
  5 28  1  0  0  0  0
  6 34  2  0  0  0  0
  7 40  1  0  0  0  0
  7 41  1  0  0  0  0
  8 15  1  0  0  0  0
  8 18  1  0  0  0  0
  9 19  1  0  0  0  0
  9 23  1  0  0  0  0
 10 27  1  0  0  0  0
 10 34  1  0  0  0  0
 11 35  1  0  0  0  0
 11 38  1  0  0  0  0
 11 39  1  0  0  0  0
 12 13  1  0  0  0  0
 12 14  1  0  0  0  0
 12 16  1  0  0  0  0
 13 15  1  0  0  0  0
 15 17  1  0  0  0  0
 17 20  1  0  0  0  0
 18 19  1  0  0  0  0
 19 21  1  0  0  0  0
 20 24  2  0  0  0  0
 20 25  1  0  0  0  0
 21 22  1  0  0  0  0
 22 26  1  0  0  0  0
 22 29  2  0  0  0  0
 23 27  1  0  0  0  0
 24 31  1  0  0  0  0
 25 32  1  0  0  0  0
 26 28  2  0  0  0  0
 27 36  1  0  0  0  0
 28 30  1  0  0  0  0
 29 33  1  0  0  0  0
 30 33  2  0  0  0  0
 30 37  1  0  0  0  0
 31 32  1  0  0  0  0
 34 35  1  0  0  0  0
 38 40  1  0  0  0  0
 39 41  1  0  0  0  0
M  END
> <PUBCHEM_COMPOUND_ID_TYPE>
0

> <PUBCHEM_TOTAL_CHARGE>
0

> <PUBCHEM_SUBSTANCE_ID>
310940846

> <PUBCHEM_SUBSTANCE_VERSION>
1

> <PUBCHEM_EXT_DATASOURCE_NAME>
4488

> <PUBCHEM_EXT_DATASOURCE_REGID>
SCHEMBL16118805

> <PUBCHEM_SUBSTANCE_COMMENT>
InChI=1S/C30H42N4O7/c1-19-8-9-22(16-25(19)35)15-24(33-28(38)20(2)31-26(36)17-34-10-12-40-13-11-34)29(39)32-23(14-21-6-4-5-7-21)27(37)30(3)18-41-30/h6,8-9,16,20,23-24,35H,4-5,7,10-15,17-18H2,1-3H3,(H,31,36)(H,32,39)(H,33,38)
InChIKey=VETFHOUILRNFPB-UHFFFAOYSA-N

> <PUBCHEM_SUBSTANCE_SYNONYM>
SCHEMBL16118805

> <PUBCHEM_XREF_EXT_ID>
SCHEMBL16118805

> <PUBCHEM_EXT_DATASOURCE_URL>
https://www.surechembl.org/

> <PUBCHEM_EXT_SUBSTANCE_URL>
https://www.surechembl.org/chemical/SCHEMBL16118805

> <PUBCHEM_CID_ASSOCIATIONS>
86296925  1

> <PUBCHEM_COORDINATE_TYPE>
1
3

$$$$
