310934489
  -OEChem-07211613022D

 15 16  0     1  0  0  0  0  0999 V2000
    3.7278    0.0000    0.0000 O   0  0  0  0  0  0  0  0  0  0  0  0
    4.5833   -1.4514    0.0000 O   0  0  0  0  0  0  0  0  0  0  0  0
    0.0611   -2.5820    0.0000 O   0  0  0  0  0  0  0  0  0  0  0  0
    1.4208   -1.6347    0.0000 N   0  0  0  0  0  0  0  0  0  0  0  0
    4.5833   -0.0305    0.0000 N   0  0  0  0  0  0  0  0  0  0  0  0
    3.3458   -0.7486    0.0000 C   0  0  3  0  0  0  0  0  0  0  0  0
    2.0778   -1.1458    0.0000 C   0  0  3  0  0  0  0  0  0  0  0  0
    2.8722   -1.4208    0.0000 C   0  0  0  0  0  0  0  0  0  0  0  0
    2.8722   -0.0764    0.0000 C   0  0  0  0  0  0  0  0  0  0  0  0
    4.1708   -0.7486    0.0000 C   0  0  0  0  0  0  0  0  0  0  0  0
    2.0778   -0.3361    0.0000 C   0  0  0  0  0  0  0  0  0  0  0  0
    1.4972   -2.4597    0.0000 C   0  0  0  0  0  0  0  0  0  0  0  0
    0.6722   -1.2986    0.0000 C   0  0  0  0  0  0  0  0  0  0  0  0
    0.8097   -2.9333    0.0000 C   0  0  0  0  0  0  0  0  0  0  0  0
    0.0000   -1.7570    0.0000 C   0  0  0  0  0  0  0  0  0  0  0  0
  1  6  1  0  0  0  0
  2 10  2  0  0  0  0
  3 14  1  0  0  0  0
  3 15  1  0  0  0  0
  4  7  1  0  0  0  0
  4 12  1  0  0  0  0
  4 13  1  0  0  0  0
  5 10  1  0  0  0  0
  6  8  1  0  0  0  0
  6  9  1  0  0  0  0
  6 10  1  0  0  0  0
  7  8  1  0  0  0  0
  7 11  1  0  0  0  0
  9 11  1  0  0  0  0
 12 14  1  0  0  0  0
 13 15  1  0  0  0  0
M  END
> <PUBCHEM_COMPOUND_ID_TYPE>
0

> <PUBCHEM_TOTAL_CHARGE>
0

> <PUBCHEM_SUBSTANCE_ID>
310934489

> <PUBCHEM_SUBSTANCE_VERSION>
1

> <PUBCHEM_EXT_DATASOURCE_NAME>
4488

> <PUBCHEM_EXT_DATASOURCE_REGID>
SCHEMBL16111971

> <PUBCHEM_SUBSTANCE_COMMENT>
InChI=1S/C10H18N2O3/c11-9(13)10(14)2-1-8(7-10)12-3-5-15-6-4-12/h8,14H,1-7H2,(H2,11,13)
InChIKey=JPZCHQSSURLLBL-UHFFFAOYSA-N

> <PUBCHEM_SUBSTANCE_SYNONYM>
SCHEMBL16111971

> <PUBCHEM_XREF_EXT_ID>
SCHEMBL16111971

> <PUBCHEM_EXT_DATASOURCE_URL>
https://www.surechembl.org/

> <PUBCHEM_EXT_SUBSTANCE_URL>
https://www.surechembl.org/chemical/SCHEMBL16111971

> <PUBCHEM_CID_ASSOCIATIONS>
117602691  1

> <PUBCHEM_COORDINATE_TYPE>
1
3

$$$$
