310946425
  -OEChem-07211613022D

 33 32  0     1  0  0  0  0  0999 V2000
    0.5464   -3.9252    0.0000 O   0  0  0  0  0  0  0  0  0  0  0  0
    4.8333   -3.9252    0.0000 O   0  0  0  0  0  0  0  0  0  0  0  0
   -3.0259   -4.3377    0.0000 O   0  0  0  0  0  0  0  0  0  0  0  0
    2.6898   -4.3377    0.0000 O   0  0  0  0  0  0  0  0  0  0  0  0
   -0.1680   -5.1627    0.0000 O   0  0  0  0  0  0  0  0  0  0  0  0
    4.8333   -5.5752    0.0000 O   0  0  0  0  0  0  0  0  0  0  0  0
   -2.3115   -3.1002    0.0000 O   0  0  0  0  0  0  0  0  0  0  0  0
   -0.1680   -2.6877    0.0000 O   0  0  0  0  0  0  0  0  0  0  0  0
    5.5477   -2.6877    0.0000 O   0  5  0  0  0  0  0  0  0  0  0  0
    4.1188   -2.6877    0.0000 O   0  0  0  0  0  0  0  0  0  0  0  0
   -3.7404   -6.4002    0.0000 O   0  0  0  0  0  0  0  0  0  0  0  0
    6.2622   -5.5752    0.0000 O   0  5  0  0  0  0  0  0  0  0  0  0
    5.5477   -4.3377    0.0000 O   0  0  0  0  0  0  0  0  0  0  0  0
   -3.7404   -8.0502    0.0000 O   0  0  0  0  0  0  0  0  0  0  0  0
   -2.3115   -8.0502    0.0000 O   0  5  0  0  0  0  0  0  0  0  0  0
   -3.0259   -6.8127    0.0000 O   0  0  0  0  0  0  0  0  0  0  0  0
   -1.5970   -4.3377    0.0000 N   0  0  0  0  0  0  0  0  0  0  0  0
    4.8333   -3.1002    0.0000 N   0  3  0  0  0  0  0  0  0  0  0  0
    5.5477   -5.1627    0.0000 N   0  3  0  0  0  0  0  0  0  0  0  0
   -3.0259   -7.6377    0.0000 N   0  3  0  0  0  0  0  0  0  0  0  0
   -0.8825   -3.9252    0.0000 C   0  0  3  0  0  0  0  0  0  0  0  0
   -0.1680   -4.3377    0.0000 C   0  0  0  0  0  0  0  0  0  0  0  0
    4.1188   -4.3377    0.0000 C   0  0  3  0  0  0  0  0  0  0  0  0
   -2.3115   -3.9252    0.0000 C   0  0  0  0  0  0  0  0  0  0  0  0
   -0.8825   -3.1002    0.0000 C   0  0  0  0  0  0  0  0  0  0  0  0
    3.4043   -3.9252    0.0000 C   0  0  0  0  0  0  0  0  0  0  0  0
    4.1188   -5.1627    0.0000 C   0  0  0  0  0  0  0  0  0  0  0  0
    1.2609   -4.3377    0.0000 C   0  0  0  0  0  0  0  0  0  0  0  0
    1.9754   -3.9252    0.0000 C   0  0  0  0  0  0  0  0  0  0  0  0
   -3.0259   -5.1627    0.0000 C   0  0  0  0  0  0  0  0  0  0  0  0
   -3.7404   -5.5752    0.0000 C   0  0  0  0  0  0  0  0  0  0  0  0
   -4.4549   -6.8127    0.0000 C   0  0  0  0  0  0  0  0  0  0  0  0
   -4.4549   -7.6377    0.0000 C   0  0  0  0  0  0  0  0  0  0  0  0
  1 22  1  0  0  0  0
  1 28  1  0  0  0  0
  2 18  1  0  0  0  0
  2 23  1  0  0  0  0
  3 24  1  0  0  0  0
  3 30  1  0  0  0  0
  4 26  1  0  0  0  0
  4 29  1  0  0  0  0
  5 22  2  0  0  0  0
  6 19  1  0  0  0  0
  6 27  1  0  0  0  0
  7 24  2  0  0  0  0
  8 25  1  0  0  0  0
  9 18  1  0  0  0  0
 10 18  2  0  0  0  0
 11 31  1  0  0  0  0
 11 32  1  0  0  0  0
 12 19  1  0  0  0  0
 13 19  2  0  0  0  0
 14 20  1  0  0  0  0
 14 33  1  0  0  0  0
 15 20  1  0  0  0  0
 16 20  2  0  0  0  0
 17 21  1  0  0  0  0
 17 24  1  0  0  0  0
 21 22  1  0  0  0  0
 21 25  1  0  0  0  0
 23 26  1  0  0  0  0
 23 27  1  0  0  0  0
 28 29  1  0  0  0  0
 30 31  1  0  0  0  0
 32 33  1  0  0  0  0
M  CHG  6   9  -1  12  -1  15  -1  18   1  19   1  20   1
M  END
> <PUBCHEM_COMPOUND_ID_TYPE>
0

> <PUBCHEM_TOTAL_CHARGE>
0

> <PUBCHEM_SUBSTANCE_ID>
310946425

> <PUBCHEM_SUBSTANCE_VERSION>
1

> <PUBCHEM_EXT_DATASOURCE_NAME>
4488

> <PUBCHEM_EXT_DATASOURCE_REGID>
SCHEMBL16124546

> <PUBCHEM_SUBSTANCE_COMMENT>
InChI=1S/C13H22N4O16/c18-7-11(14-13(20)30-5-1-27-3-6-31-15(21)22)12(19)29-4-2-28-8-10(33-17(25)26)9-32-16(23)24/h10-11,18H,1-9H2,(H,14,20)
InChIKey=XIHGXQGGRQVBHW-UHFFFAOYSA-N

> <PUBCHEM_SUBSTANCE_SYNONYM>
SCHEMBL16124546

> <PUBCHEM_XREF_EXT_ID>
SCHEMBL16124546

> <PUBCHEM_EXT_DATASOURCE_URL>
https://www.surechembl.org/

> <PUBCHEM_EXT_SUBSTANCE_URL>
https://www.surechembl.org/chemical/SCHEMBL16124546

> <PUBCHEM_CID_ASSOCIATIONS>
117612338  1

> <PUBCHEM_COORDINATE_TYPE>
1
3

$$$$
