310937171
  -OEChem-07211613022D

 26 28  0     1  0  0  0  0  0999 V2000
    5.2021   -7.4316    0.0000 F   0  0  0  0  0  0  0  0  0  0  0  0
    4.6819   -6.0939    0.0000 F   0  0  0  0  0  0  0  0  0  0  0  0
    4.1245   -4.7934    0.0000 O   0  0  0  0  0  0  0  0  0  0  0  0
    3.8273   -7.2458    0.0000 O   0  0  0  0  0  0  0  0  0  0  0  0
    0.0000    0.0000    0.0000 O   0  0  0  0  0  0  0  0  0  0  0  0
    1.5235   -2.0066    0.0000 N   0  0  3  0  0  0  0  0  0  0  0  0
    3.5300   -3.4557    0.0000 N   0  0  0  0  0  0  0  0  0  0  0  0
    0.8918   -1.4863    0.0000 N   0  0  0  0  0  0  0  0  0  0  0  0
    1.2633   -0.7060    0.0000 N   0  0  3  0  0  0  0  0  0  0  0  0
    2.4153   -7.0600    0.0000 N   0  0  0  0  0  0  0  0  0  0  0  0
    2.7125   -4.6076    0.0000 C   0  0  0  0  0  0  0  0  0  0  0  0
    2.6011   -5.4250    0.0000 C   0  0  0  0  0  0  0  0  0  0  0  0
    3.4557   -4.3103    0.0000 C   0  0  0  0  0  0  0  0  0  0  0  0
    2.1180   -3.3070    0.0000 C   0  0  0  0  0  0  0  0  0  0  0  0
    2.0437   -4.1617    0.0000 C   0  0  0  0  0  0  0  0  0  0  0  0
    3.2699   -5.9081    0.0000 C   0  0  0  0  0  0  0  0  0  0  0  0
    1.4492   -2.8240    0.0000 C   0  0  0  0  0  0  0  0  0  0  0  0
    2.8612   -3.0098    0.0000 C   0  0  0  0  0  0  0  0  0  0  0  0
    3.1585   -6.7256    0.0000 C   0  0  0  0  0  0  0  0  0  0  0  0
    1.8579   -5.7595    0.0000 C   0  0  0  0  0  0  0  0  0  0  0  0
    2.2295   -1.5978    0.0000 C   0  0  0  0  0  0  0  0  0  0  0  0
    1.7464   -6.5769    0.0000 C   0  0  0  0  0  0  0  0  0  0  0  0
    2.0437   -0.8175    0.0000 C   0  0  0  0  0  0  0  0  0  0  0  0
    0.8175    0.0000    0.0000 C   0  0  0  0  0  0  0  0  0  0  0  0
    4.5704   -6.9486    0.0000 C   0  0  0  0  0  0  0  0  0  0  0  0
    4.9049   -4.4590    0.0000 C   0  0  0  0  0  0  0  0  0  0  0  0
  1 25  1  0  0  0  0
  2 25  1  0  0  0  0
  3 13  1  0  0  0  0
  3 26  1  0  0  0  0
  4 19  1  0  0  0  0
  4 25  1  0  0  0  0
  5 24  1  0  0  0  0
  6  8  1  0  0  0  0
  6 17  1  0  0  0  0
  6 21  1  0  0  0  0
  7 13  2  0  0  0  0
  7 18  1  0  0  0  0
  8  9  1  0  0  0  0
  9 23  1  0  0  0  0
  9 24  1  0  0  0  0
 10 19  1  0  0  0  0
 10 22  2  0  0  0  0
 11 12  1  0  0  0  0
 11 13  1  0  0  0  0
 11 15  2  0  0  0  0
 12 16  1  0  0  0  0
 12 20  2  0  0  0  0
 14 15  1  0  0  0  0
 14 17  1  0  0  0  0
 14 18  2  0  0  0  0
 16 19  2  0  0  0  0
 20 22  1  0  0  0  0
 21 23  2  0  0  0  0
M  END
> <PUBCHEM_COMPOUND_ID_TYPE>
0

> <PUBCHEM_TOTAL_CHARGE>
0

> <PUBCHEM_SUBSTANCE_ID>
310937171

> <PUBCHEM_SUBSTANCE_VERSION>
1

> <PUBCHEM_EXT_DATASOURCE_NAME>
4488

> <PUBCHEM_EXT_DATASOURCE_REGID>
SCHEMBL16114896

> <PUBCHEM_SUBSTANCE_COMMENT>
InChI=1S/C16H17F2N5O3/c1-25-15-13(12-2-3-19-14(7-12)26-16(17)18)6-11(8-20-15)9-22-4-5-23(10-24)21-22/h2-8,16,21,24H,9-10H2,1H3
InChIKey=QBYVQRPXTRAGHE-UHFFFAOYSA-N

> <PUBCHEM_SUBSTANCE_SYNONYM>
SCHEMBL16114896

> <PUBCHEM_XREF_EXT_ID>
SCHEMBL16114896

> <PUBCHEM_EXT_DATASOURCE_URL>
https://www.surechembl.org/

> <PUBCHEM_EXT_SUBSTANCE_URL>
https://www.surechembl.org/chemical/SCHEMBL16114896

> <PUBCHEM_CID_ASSOCIATIONS>
117604991  1

> <PUBCHEM_COORDINATE_TYPE>
1
3

$$$$
