310945199
  -OEChem-07211613022D

 33 37  0     1  0  0  0  0  0999 V2000
   -2.1667   -2.6314    0.0000 F   0  0  0  0  0  0  0  0  0  0  0  0
    3.5261    2.6314    0.0000 O   0  0  0  0  0  0  0  0  0  0  0  0
   -4.2347   -0.4821    0.0000 O   0  0  0  0  0  0  0  0  0  0  0  0
    2.0273    0.2962    0.0000 N   0  0  0  0  0  0  0  0  0  0  0  0
    4.2347    1.3884    0.0000 N   0  0  0  0  0  0  0  0  0  0  0  0
    4.2347   -1.1095    0.0000 N   0  0  0  0  0  0  0  0  0  0  0  0
   -0.9352    0.9701    0.0000 N   0  0  0  0  0  0  0  0  0  0  0  0
   -2.9916   -1.1908    0.0000 N   0  0  0  0  0  0  0  0  0  0  0  0
    3.5261    0.1452    0.0000 C   0  0  3  0  0  0  0  0  0  0  0  0
    2.7941    0.5634    0.0000 C   0  0  0  0  0  0  0  0  0  0  0  0
    2.8173    1.3884    0.0000 C   0  0  0  0  0  0  0  0  0  0  0  0
    1.5510    0.9585    0.0000 C   0  0  0  0  0  0  0  0  0  0  0  0
    2.0273    1.6323    0.0000 C   0  0  0  0  0  0  0  0  0  0  0  0
    3.5144    1.7833    0.0000 C   0  0  0  0  0  0  0  0  0  0  0  0
    4.2347    0.5519    0.0000 C   0  0  0  0  0  0  0  0  0  0  0  0
    0.7145    0.9817    0.0000 C   0  0  0  0  0  0  0  0  0  0  0  0
    4.2347   -0.2730    0.0000 C   0  0  0  0  0  0  0  0  0  0  0  0
    2.8173   -0.2730    0.0000 C   0  0  0  0  0  0  0  0  0  0  0  0
    0.2962    0.2497    0.0000 C   0  0  0  0  0  0  0  0  0  0  0  0
   -0.5170    0.2497    0.0000 C   0  0  0  0  0  0  0  0  0  0  0  0
    2.8173   -1.1095    0.0000 C   0  0  0  0  0  0  0  0  0  0  0  0
    0.3079    1.6788    0.0000 C   0  0  0  0  0  0  0  0  0  0  0  0
   -0.9352   -0.4821    0.0000 C   0  0  0  0  0  0  0  0  0  0  0  0
    3.5493   -1.5161    0.0000 C   0  0  0  0  0  0  0  0  0  0  0  0
   -0.5170    1.6904    0.0000 C   0  0  0  0  0  0  0  0  0  0  0  0
   -1.7601   -0.4821    0.0000 C   0  0  0  0  0  0  0  0  0  0  0  0
   -2.1667   -1.1908    0.0000 C   0  0  0  0  0  0  0  0  0  0  0  0
   -0.5286   -1.1908    0.0000 C   0  0  0  0  0  0  0  0  0  0  0  0
   -1.7601   -1.8995    0.0000 C   0  0  0  0  0  0  0  0  0  0  0  0
   -0.9352   -1.9111    0.0000 C   0  0  0  0  0  0  0  0  0  0  0  0
   -3.3866   -0.4706    0.0000 C   0  0  0  0  0  0  0  0  0  0  0  0
   -3.0032    0.2382    0.0000 C   0  0  0  0  0  0  0  0  0  0  0  0
   -3.4796    0.9236    0.0000 C   0  0  0  0  0  0  0  0  0  0  0  0
  1 29  1  0  0  0  0
  2 14  2  0  0  0  0
  3 31  2  0  0  0  0
  4 10  1  0  0  0  0
  4 12  1  0  0  0  0
  5 14  1  0  0  0  0
  5 15  1  0  0  0  0
  6 17  1  0  0  0  0
  6 24  1  0  0  0  0
  7 20  1  0  0  0  0
  7 25  2  0  0  0  0
  8 27  1  0  0  0  0
  8 31  1  0  0  0  0
  9 10  1  0  0  0  0
  9 15  1  0  0  0  0
  9 17  1  0  0  0  0
  9 18  1  0  0  0  0
 10 11  2  0  0  0  0
 11 13  1  0  0  0  0
 11 14  1  0  0  0  0
 12 13  2  0  0  0  0
 12 16  1  0  0  0  0
 16 19  1  0  0  0  0
 16 22  2  0  0  0  0
 18 21  1  0  0  0  0
 19 20  2  0  0  0  0
 20 23  1  0  0  0  0
 21 24  1  0  0  0  0
 22 25  1  0  0  0  0
 23 26  2  0  0  0  0
 23 28  1  0  0  0  0
 26 27  1  0  0  0  0
 27 29  2  0  0  0  0
 28 30  2  0  0  0  0
 29 30  1  0  0  0  0
 31 32  1  0  0  0  0
 32 33  2  0  0  0  0
M  END
> <PUBCHEM_COMPOUND_ID_TYPE>
0

> <PUBCHEM_TOTAL_CHARGE>
0

> <PUBCHEM_SUBSTANCE_ID>
310945199

> <PUBCHEM_SUBSTANCE_VERSION>
1

> <PUBCHEM_EXT_DATASOURCE_NAME>
4488

> <PUBCHEM_EXT_DATASOURCE_REGID>
SCHEMBL16123289

> <PUBCHEM_SUBSTANCE_COMMENT>
InChI=1S/C25H24FN5O2/c1-2-22(32)30-21-11-15(4-5-18(21)26)19-10-16(6-9-28-19)20-12-17-23(31-20)25(14-29-24(17)33)7-3-8-27-13-25/h2,4-6,9-12,27,31H,1,3,7-8,13-14H2,(H,29,33)(H,30,32)
InChIKey=NWJVNRHQPGGOTB-UHFFFAOYSA-N

> <PUBCHEM_SUBSTANCE_SYNONYM>
SCHEMBL16123289

> <PUBCHEM_XREF_EXT_ID>
SCHEMBL16123289

> <PUBCHEM_EXT_DATASOURCE_URL>
https://www.surechembl.org/

> <PUBCHEM_EXT_SUBSTANCE_URL>
https://www.surechembl.org/chemical/SCHEMBL16123289

> <PUBCHEM_CID_ASSOCIATIONS>
86301993  1

> <PUBCHEM_COORDINATE_TYPE>
1
3

$$$$
