310947365
  -OEChem-07211613022D

 44 48  0     1  0  0  0  0  0999 V2000
   -2.1753    2.2832    0.0000 O   0  0  0  0  0  0  0  0  0  0  0  0
    5.1071    0.2784    0.0000 O   0  0  0  0  0  0  0  0  0  0  0  0
    3.7268   -0.0915    0.0000 O   0  0  0  0  0  0  0  0  0  0  0  0
    0.7528   -0.0342    0.0000 N   0  0  0  0  0  0  0  0  0  0  0  0
    1.2377    0.6332    0.0000 N   0  0  0  0  0  0  0  0  0  0  0  0
   -2.8897    1.0457    0.0000 N   0  0  0  0  0  0  0  0  0  0  0  0
   -0.0319    1.0457    0.0000 C   0  0  0  0  0  0  0  0  0  0  0  0
   -0.0319    0.2207    0.0000 C   0  0  0  0  0  0  0  0  0  0  0  0
    0.7528    1.3006    0.0000 C   0  0  0  0  0  0  0  0  0  0  0  0
   -0.7464    1.4581    0.0000 C   0  0  0  0  0  0  0  0  0  0  0  0
   -1.4608    1.0457    0.0000 C   0  0  0  0  0  0  0  0  0  0  0  0
   -0.7464   -0.1918    0.0000 C   0  0  0  0  0  0  0  0  0  0  0  0
    0.9663   -0.8312    0.0000 C   0  0  0  0  0  0  0  0  0  0  0  0
    0.9663    2.0975    0.0000 C   0  0  0  0  0  0  0  0  0  0  0  0
   -1.4608    0.2207    0.0000 C   0  0  0  0  0  0  0  0  0  0  0  0
    1.7632   -1.0447    0.0000 C   0  0  0  0  0  0  0  0  0  0  0  0
   -2.1753    1.4581    0.0000 C   0  0  0  0  0  0  0  0  0  0  0  0
    3.3569   -1.4717    0.0000 C   0  0  0  0  0  0  0  0  0  0  0  0
    4.1538   -1.6852    0.0000 C   0  0  0  0  0  0  0  0  0  0  0  0
    4.7372   -1.1019    0.0000 C   0  0  0  0  0  0  0  0  0  0  0  0
    1.9768   -1.8416    0.0000 C   0  0  0  0  0  0  0  0  0  0  0  0
    2.3466   -0.4613    0.0000 C   0  0  0  0  0  0  0  0  0  0  0  0
    2.7736   -2.0552    0.0000 C   0  0  0  0  0  0  0  0  0  0  0  0
    3.1435   -0.6749    0.0000 C   0  0  0  0  0  0  0  0  0  0  0  0
    4.5238   -0.3050    0.0000 C   0  0  0  0  0  0  0  0  0  0  0  0
    0.3829    2.6809    0.0000 C   0  0  0  0  0  0  0  0  0  0  0  0
    1.7632    2.3111    0.0000 C   0  0  0  0  0  0  0  0  0  0  0  0
   -3.6042    1.4581    0.0000 C   0  0  3  0  0  0  0  0  0  0  0  0
    4.3674   -2.4821    0.0000 C   0  0  0  0  0  0  0  0  0  0  0  0
    5.5341   -1.3154    0.0000 C   0  0  0  0  0  0  0  0  0  0  0  0
   -4.3187    1.0457    0.0000 C   0  0  0  0  0  0  0  0  0  0  0  0
    5.1643   -2.6957    0.0000 C   0  0  0  0  0  0  0  0  0  0  0  0
    5.7477   -2.1123    0.0000 C   0  0  0  0  0  0  0  0  0  0  0  0
    4.8936    1.0752    0.0000 C   0  0  0  0  0  0  0  0  0  0  0  0
   -3.6042    2.2832    0.0000 C   0  0  0  0  0  0  0  0  0  0  0  0
   -5.0332    1.4581    0.0000 C   0  0  0  0  0  0  0  0  0  0  0  0
   -4.3187    0.2207    0.0000 C   0  0  0  0  0  0  0  0  0  0  0  0
    5.4769    1.6586    0.0000 C   0  0  0  0  0  0  0  0  0  0  0  0
    4.0967    1.2888    0.0000 C   0  0  0  0  0  0  0  0  0  0  0  0
    4.6800    1.8721    0.0000 C   0  0  0  0  0  0  0  0  0  0  0  0
   -5.7477    1.0457    0.0000 C   0  0  0  0  0  0  0  0  0  0  0  0
   -5.0332   -0.1918    0.0000 C   0  0  0  0  0  0  0  0  0  0  0  0
   -5.7477    0.2207    0.0000 C   0  0  0  0  0  0  0  0  0  0  0  0
   -2.8897    2.6957    0.0000 C   0  0  0  0  0  0  0  0  0  0  0  0
  1 17  2  0  0  0  0
  2 25  1  0  0  0  0
  2 34  1  0  0  0  0
  3 25  2  0  0  0  0
  4  5  1  0  0  0  0
  4  8  1  0  0  0  0
  4 13  1  0  0  0  0
  5  9  2  0  0  0  0
  6 17  1  0  0  0  0
  6 28  1  0  0  0  0
  7  8  1  0  0  0  0
  7  9  1  0  0  0  0
  7 10  2  0  0  0  0
  8 12  2  0  0  0  0
  9 14  1  0  0  0  0
 10 11  1  0  0  0  0
 11 15  2  0  0  0  0
 11 17  1  0  0  0  0
 12 15  1  0  0  0  0
 13 16  1  0  0  0  0
 14 26  1  0  0  0  0
 14 27  1  0  0  0  0
 16 21  2  0  0  0  0
 16 22  1  0  0  0  0
 18 19  1  0  0  0  0
 18 23  2  0  0  0  0
 18 24  1  0  0  0  0
 19 20  1  0  0  0  0
 19 29  2  0  0  0  0
 20 25  1  0  0  0  0
 20 30  2  0  0  0  0
 21 23  1  0  0  0  0
 22 24  2  0  0  0  0
 28 31  1  0  0  0  0
 28 35  1  0  0  0  0
 29 32  1  0  0  0  0
 30 33  1  0  0  0  0
 31 36  2  0  0  0  0
 31 37  1  0  0  0  0
 32 33  2  0  0  0  0
 34 38  1  0  0  0  0
 34 39  1  0  0  0  0
 34 40  1  0  0  0  0
 35 44  1  0  0  0  0
 36 41  1  0  0  0  0
 37 42  2  0  0  0  0
 41 43  2  0  0  0  0
 42 43  1  0  0  0  0
M  END
> <PUBCHEM_COMPOUND_ID_TYPE>
0

> <PUBCHEM_TOTAL_CHARGE>
0

> <PUBCHEM_SUBSTANCE_ID>
310947365

> <PUBCHEM_SUBSTANCE_VERSION>
1

> <PUBCHEM_EXT_DATASOURCE_NAME>
4488

> <PUBCHEM_EXT_DATASOURCE_REGID>
SCHEMBL16125521

> <PUBCHEM_SUBSTANCE_COMMENT>
InChI=1S/C38H41N3O3/c1-7-33(28-13-9-8-10-14-28)39-36(42)29-21-22-34-32(23-29)35(25(2)3)40-41(34)24-26-17-19-27(20-18-26)30-15-11-12-16-31(30)37(43)44-38(4,5)6/h8-23,25,33H,7,24H2,1-6H3,(H,39,42)
InChIKey=JOBAYRFQEUKNLZ-UHFFFAOYSA-N

> <PUBCHEM_SUBSTANCE_SYNONYM>
SCHEMBL16125521

> <PUBCHEM_XREF_EXT_ID>
SCHEMBL16125521

> <PUBCHEM_EXT_DATASOURCE_URL>
https://www.surechembl.org/

> <PUBCHEM_EXT_SUBSTANCE_URL>
https://www.surechembl.org/chemical/SCHEMBL16125521

> <PUBCHEM_CID_ASSOCIATIONS>
117613110  1

> <PUBCHEM_COORDINATE_TYPE>
1
3

$$$$
