310945389
  -OEChem-07211613022D

 18 20  0     1  0  0  0  0  0999 V2000
    3.2013   -0.0253    0.0000 O   0  0  0  0  0  0  0  0  0  0  0  0
   -2.6439    0.0929    0.0000 O   0  0  0  0  0  0  0  0  0  0  0  0
    0.1943   -0.6504    0.0000 N   0  0  0  0  0  0  0  0  0  0  0  0
    2.2384    0.2787    0.0000 N   0  0  3  0  0  0  0  0  0  0  0  0
    0.8531   -0.1605    0.0000 C   0  0  0  0  0  0  0  0  0  0  0  0
    0.5997    0.6166    0.0000 C   0  0  0  0  0  0  0  0  0  0  0  0
    1.6640   -0.3632    0.0000 C   0  0  0  0  0  0  0  0  0  0  0  0
   -0.2111    0.6166    0.0000 C   0  0  0  0  0  0  0  0  0  0  0  0
   -0.5153   -0.1605    0.0000 C   0  0  0  0  0  0  0  0  0  0  0  0
    1.1741    1.2247    0.0000 C   0  0  0  0  0  0  0  0  0  0  0  0
   -0.7687    1.2247    0.0000 C   0  0  0  0  0  0  0  0  0  0  0  0
    1.9850    1.0389    0.0000 C   0  0  0  0  0  0  0  0  0  0  0  0
   -1.2755   -0.3295    0.0000 C   0  0  0  0  0  0  0  0  0  0  0  0
   -1.8329    0.2787    0.0000 C   0  0  0  0  0  0  0  0  0  0  0  0
    1.8667    0.1098    0.0000 C   0  0  0  0  0  0  0  0  0  0  0  0
    1.9850   -1.2247    0.0000 C   0  0  0  0  0  0  0  0  0  0  0  0
   -1.5627    1.0559    0.0000 C   0  0  0  0  0  0  0  0  0  0  0  0
   -3.2013    0.6842    0.0000 C   0  0  0  0  0  0  0  0  0  0  0  0
  1  4  1  0  0  0  0
  2 14  1  0  0  0  0
  2 18  1  0  0  0  0
  3  5  1  0  0  0  0
  3  9  1  0  0  0  0
  4  7  1  0  0  0  0
  4 12  1  0  0  0  0
  5  6  2  0  0  0  0
  5  7  1  0  0  0  0
  6  8  1  0  0  0  0
  6 10  1  0  0  0  0
  7 15  1  0  0  0  0
  7 16  1  0  0  0  0
  8  9  2  0  0  0  0
  8 11  1  0  0  0  0
  9 13  1  0  0  0  0
 10 12  2  0  0  0  0
 11 17  2  0  0  0  0
 13 14  2  0  0  0  0
 14 17  1  0  0  0  0
M  END
> <PUBCHEM_COMPOUND_ID_TYPE>
0

> <PUBCHEM_TOTAL_CHARGE>
0

> <PUBCHEM_SUBSTANCE_ID>
310945389

> <PUBCHEM_SUBSTANCE_VERSION>
1

> <PUBCHEM_EXT_DATASOURCE_NAME>
4488

> <PUBCHEM_EXT_DATASOURCE_REGID>
SCHEMBL16123487

> <PUBCHEM_SUBSTANCE_COMMENT>
InChI=1S/C14H16N2O2/c1-14(2)13-11(6-7-16(14)17)10-5-4-9(18-3)8-12(10)15-13/h4-8,15,17H,1-3H3
InChIKey=KDKRRXSJDRPOLX-UHFFFAOYSA-N

> <PUBCHEM_SUBSTANCE_SYNONYM>
SCHEMBL16123487

> <PUBCHEM_XREF_EXT_ID>
SCHEMBL16123487

> <PUBCHEM_EXT_DATASOURCE_URL>
https://www.surechembl.org/

> <PUBCHEM_EXT_SUBSTANCE_URL>
https://www.surechembl.org/chemical/SCHEMBL16123487

> <PUBCHEM_CID_ASSOCIATIONS>
117611439  1

> <PUBCHEM_COORDINATE_TYPE>
1
3

$$$$
