310933773
  -OEChem-07211613022D

 42 47  0     1  0  0  0  0  0999 V2000
    7.4889    4.7399    0.0000 Cl  0  0  0  0  0  0  0  0  0  0  0  0
    5.8479    4.9124    0.0000 F   0  0  0  0  0  0  0  0  0  0  0  0
    2.8579    2.0625    0.0000 O   0  0  0  0  0  0  0  0  0  0  0  0
    0.0000    2.0625    0.0000 O   0  0  0  0  0  0  0  0  0  0  0  0
   -2.1434    5.7750    0.0000 O   0  0  0  0  0  0  0  0  0  0  0  0
    4.8780    3.5776    0.0000 N   0  0  0  0  0  0  0  0  0  0  0  0
    1.4290    2.0625    0.0000 N   0  0  0  0  0  0  0  0  0  0  0  0
    3.6586    4.1205    0.0000 N   0  0  0  0  0  0  0  0  0  0  0  0
    4.4655    4.2920    0.0000 N   0  0  0  0  0  0  0  0  0  0  0  0
    0.0000    4.5375    0.0000 N   0  0  0  0  0  0  0  0  0  0  0  0
    1.4290    0.4125    0.0000 N   0  0  0  0  0  0  0  0  0  0  0  0
    2.1434    3.3000    0.0000 C   0  0  0  0  0  0  0  0  0  0  0  0
    1.4290    2.8875    0.0000 C   0  0  0  0  0  0  0  0  0  0  0  0
    2.8579    2.8875    0.0000 C   0  0  0  0  0  0  0  0  0  0  0  0
    3.5724    3.3000    0.0000 C   0  0  0  0  0  0  0  0  0  0  0  0
    5.6986    3.4913    0.0000 C   0  0  0  0  0  0  0  0  0  0  0  0
    0.7145    4.1250    0.0000 C   0  0  0  0  0  0  0  0  0  0  0  0
    4.3260    2.9645    0.0000 C   0  0  0  0  0  0  0  0  0  0  0  0
    0.7145    3.3000    0.0000 C   0  0  0  0  0  0  0  0  0  0  0  0
    0.7145    0.8250    0.0000 C   0  0  3  0  0  0  0  0  0  0  0  0
    2.1434    4.1250    0.0000 C   0  0  0  0  0  0  0  0  0  0  0  0
    0.7145    1.6500    0.0000 C   0  0  0  0  0  0  0  0  0  0  0  0
    0.0000    0.4125    0.0000 C   0  0  0  0  0  0  0  0  0  0  0  0
    6.1835    4.1588    0.0000 C   0  0  0  0  0  0  0  0  0  0  0  0
    1.4290    4.5375    0.0000 C   0  0  0  0  0  0  0  0  0  0  0  0
    0.0000   -0.4125    0.0000 C   0  0  0  0  0  0  0  0  0  0  0  0
    7.0040    4.0725    0.0000 C   0  0  0  0  0  0  0  0  0  0  0  0
    6.0341    2.7376    0.0000 C   0  0  0  0  0  0  0  0  0  0  0  0
   -0.7145    0.8250    0.0000 C   0  0  0  0  0  0  0  0  0  0  0  0
    0.7145   -0.8250    0.0000 C   0  0  0  0  0  0  0  0  0  0  0  0
   -0.7145    4.1250    0.0000 C   0  0  0  0  0  0  0  0  0  0  0  0
    0.0000    5.3625    0.0000 C   0  0  0  0  0  0  0  0  0  0  0  0
    7.3395    3.3189    0.0000 C   0  0  0  0  0  0  0  0  0  0  0  0
    6.8546    2.6514    0.0000 C   0  0  0  0  0  0  0  0  0  0  0  0
    1.4290   -0.4125    0.0000 C   0  0  0  0  0  0  0  0  0  0  0  0
   -0.7145   -0.8250    0.0000 C   0  0  0  0  0  0  0  0  0  0  0  0
   -1.4290    5.3625    0.0000 C   0  0  0  0  0  0  0  0  0  0  0  0
   -1.4290    0.4125    0.0000 C   0  0  0  0  0  0  0  0  0  0  0  0
   -1.4290    4.5375    0.0000 C   0  0  0  0  0  0  0  0  0  0  0  0
   -0.7145    5.7750    0.0000 C   0  0  0  0  0  0  0  0  0  0  0  0
   -1.4290   -0.4125    0.0000 C   0  0  0  0  0  0  0  0  0  0  0  0
   -2.8579    5.3625    0.0000 C   0  0  0  0  0  0  0  0  0  0  0  0
  1 27  1  0  0  0  0
  2 24  1  0  0  0  0
  3 14  2  0  0  0  0
  4 22  2  0  0  0  0
  5 37  1  0  0  0  0
  5 42  1  0  0  0  0
  6  9  1  0  0  0  0
  6 16  1  0  0  0  0
  6 18  1  0  0  0  0
  7 13  1  0  0  0  0
  7 22  1  0  0  0  0
  8  9  2  0  0  0  0
  8 15  1  0  0  0  0
 10 17  1  0  0  0  0
 10 31  1  0  0  0  0
 10 32  1  0  0  0  0
 11 20  1  0  0  0  0
 11 35  1  0  0  0  0
 12 13  1  0  0  0  0
 12 14  1  0  0  0  0
 12 21  2  0  0  0  0
 13 19  2  0  0  0  0
 14 15  1  0  0  0  0
 15 18  2  0  0  0  0
 16 24  1  0  0  0  0
 16 28  2  0  0  0  0
 17 19  1  0  0  0  0
 17 25  2  0  0  0  0
 20 22  1  0  0  0  0
 20 23  1  0  0  0  0
 21 25  1  0  0  0  0
 23 26  2  0  0  0  0
 23 29  1  0  0  0  0
 24 27  2  0  0  0  0
 26 30  1  0  0  0  0
 26 36  1  0  0  0  0
 27 33  1  0  0  0  0
 28 34  1  0  0  0  0
 29 38  2  0  0  0  0
 30 35  1  0  0  0  0
 31 39  1  0  0  0  0
 32 40  1  0  0  0  0
 33 34  2  0  0  0  0
 36 41  2  0  0  0  0
 37 39  1  0  0  0  0
 37 40  1  0  0  0  0
 38 41  1  0  0  0  0
M  END
> <PUBCHEM_COMPOUND_ID_TYPE>
0

> <PUBCHEM_TOTAL_CHARGE>
0

> <PUBCHEM_SUBSTANCE_ID>
310933773

> <PUBCHEM_SUBSTANCE_VERSION>
1

> <PUBCHEM_EXT_DATASOURCE_NAME>
4488

> <PUBCHEM_EXT_DATASOURCE_REGID>
SCHEMBL16111209

> <PUBCHEM_SUBSTANCE_COMMENT>
InChI=1S/C31H30ClFN6O3/c1-42-21-12-15-38(16-13-21)20-9-10-23(30(40)26-18-39(37-36-26)27-8-4-7-24(32)28(27)33)25(17-20)35-31(41)29-22-6-3-2-5-19(22)11-14-34-29/h2-10,17-18,21,29,34H,11-16H2,1H3,(H,35,41)
InChIKey=ADHWUZYLCGLMFC-UHFFFAOYSA-N

> <PUBCHEM_SUBSTANCE_SYNONYM>
SCHEMBL16111209

> <PUBCHEM_XREF_EXT_ID>
SCHEMBL16111209

> <PUBCHEM_EXT_DATASOURCE_URL>
https://www.surechembl.org/

> <PUBCHEM_EXT_SUBSTANCE_URL>
https://www.surechembl.org/chemical/SCHEMBL16111209

> <PUBCHEM_CID_ASSOCIATIONS>
117602126  1

> <PUBCHEM_COORDINATE_TYPE>
1
3

$$$$
