310935900
  -OEChem-07211613022D

 24 26  0     1  0  0  0  0  0999 V2000
   -2.2060    1.0700    0.0000 Cl  0  0  0  0  0  0  0  0  0  0  0  0
    1.7867   -1.9700    0.0000 F   0  0  0  0  0  0  0  0  0  0  0  0
   -1.2284   -1.4554    0.0000 O   0  0  0  0  0  0  0  0  0  0  0  0
   -2.5453   -3.1962    0.0000 O   0  0  0  0  0  0  0  0  0  0  0  0
   -2.2903   -2.4116    0.0000 N   0  0  0  0  0  0  0  0  0  0  0  0
   -0.0401    1.3400    0.0000 N   0  0  0  0  0  0  0  0  0  0  0  0
   -0.9313   -2.8532    0.0000 C   0  0  3  0  0  0  0  0  0  0  0  0
   -0.3793   -2.2401    0.0000 C   0  0  0  0  0  0  0  0  0  0  0  0
    0.4277   -2.4116    0.0000 C   0  0  0  0  0  0  0  0  0  0  0  0
   -1.4834   -2.2401    0.0000 C   0  0  0  0  0  0  0  0  0  0  0  0
   -0.6342   -1.4554    0.0000 C   0  0  0  0  0  0  0  0  0  0  0  0
   -0.0822   -0.8423    0.0000 C   0  0  0  0  0  0  0  0  0  0  0  0
   -0.2639   -3.3381    0.0000 C   0  0  0  0  0  0  0  0  0  0  0  0
   -1.5988   -3.3381    0.0000 C   0  0  0  0  0  0  0  0  0  0  0  0
    0.9797   -1.7985    0.0000 C   0  0  0  0  0  0  0  0  0  0  0  0
    0.7248   -1.0139    0.0000 C   0  0  0  0  0  0  0  0  0  0  0  0
   -0.3371   -0.0577    0.0000 C   0  0  0  0  0  0  0  0  0  0  0  0
   -0.5188   -4.1227    0.0000 C   0  0  0  0  0  0  0  0  0  0  0  0
   -1.3438   -4.1227    0.0000 C   0  0  0  0  0  0  0  0  0  0  0  0
    0.6826   -3.1962    0.0000 C   0  0  0  0  0  0  0  0  0  0  0  0
   -1.1441    0.1138    0.0000 C   0  0  0  0  0  0  0  0  0  0  0  0
    0.2149    0.5554    0.0000 C   0  0  0  0  0  0  0  0  0  0  0  0
   -1.3991    0.8984    0.0000 C   0  0  0  0  0  0  0  0  0  0  0  0
   -0.8470    1.5115    0.0000 C   0  0  0  0  0  0  0  0  0  0  0  0
  1 23  1  0  0  0  0
  2 15  1  0  0  0  0
  3 10  2  0  0  0  0
  4  5  1  0  0  0  0
  5 10  1  0  0  0  0
  6 22  2  0  0  0  0
  6 24  1  0  0  0  0
  7  8  1  0  0  0  0
  7 10  1  0  0  0  0
  7 13  1  0  0  0  0
  7 14  1  0  0  0  0
  8  9  2  0  0  0  0
  8 11  1  0  0  0  0
  9 15  1  0  0  0  0
  9 20  1  0  0  0  0
 11 12  2  0  0  0  0
 12 16  1  0  0  0  0
 12 17  1  0  0  0  0
 13 18  2  0  0  0  0
 14 19  1  0  0  0  0
 15 16  2  0  0  0  0
 17 21  2  0  0  0  0
 17 22  1  0  0  0  0
 18 19  1  0  0  0  0
 21 23  1  0  0  0  0
 23 24  2  0  0  0  0
M  END
> <PUBCHEM_COMPOUND_ID_TYPE>
0

> <PUBCHEM_TOTAL_CHARGE>
0

> <PUBCHEM_SUBSTANCE_ID>
310935900

> <PUBCHEM_SUBSTANCE_VERSION>
1

> <PUBCHEM_EXT_DATASOURCE_NAME>
4488

> <PUBCHEM_EXT_DATASOURCE_REGID>
SCHEMBL16113495

> <PUBCHEM_SUBSTANCE_COMMENT>
InChI=1S/C18H16ClFN2O2/c1-11-15(18(17(23)22-24)4-2-3-5-18)7-12(8-16(11)20)13-6-14(19)10-21-9-13/h2,4,6-10,24H,3,5H2,1H3,(H,22,23)
InChIKey=NSKDTDLIXKWQIP-UHFFFAOYSA-N

> <PUBCHEM_SUBSTANCE_SYNONYM>
SCHEMBL16113495

> <PUBCHEM_XREF_EXT_ID>
SCHEMBL16113495

> <PUBCHEM_EXT_DATASOURCE_URL>
https://www.surechembl.org/

> <PUBCHEM_EXT_SUBSTANCE_URL>
https://www.surechembl.org/chemical/SCHEMBL16113495

> <PUBCHEM_CID_ASSOCIATIONS>
117603886  1

> <PUBCHEM_COORDINATE_TYPE>
1
3

$$$$
