310935449
  -OEChem-07211613022D

 34 38  0     1  0  0  0  0  0999 V2000
    3.5428   -2.4265    0.0000 Br  0  0  0  0  0  0  0  0  0  0  0  0
    4.9501   -9.7062    0.0000 F   0  0  0  0  0  0  0  0  0  0  0  0
    3.5428   -5.6781    0.0000 O   0  0  0  0  0  0  0  0  0  0  0  0
    0.7279   -3.2516    0.0000 N   0  0  3  0  0  0  0  0  0  0  0  0
    0.0000   -2.0383    0.0000 N   0  0  0  0  0  0  0  0  0  0  0  0
    0.7279   -0.8250    0.0000 N   0  0  0  0  0  0  0  0  0  0  0  0
    2.8148   -6.8914    0.0000 N   0  0  0  0  0  0  0  0  0  0  0  0
    2.8148   -9.3179    0.0000 N   0  0  0  0  0  0  0  0  0  0  0  0
    1.4559   -2.0383    0.0000 C   0  0  0  0  0  0  0  0  0  0  0  0
    0.7279   -2.4265    0.0000 C   0  0  0  0  0  0  0  0  0  0  0  0
    1.4559   -1.2133    0.0000 C   0  0  0  0  0  0  0  0  0  0  0  0
    1.4559   -4.4648    0.0000 C   0  0  0  0  0  0  0  0  0  0  0  0
    0.7279   -4.8531    0.0000 C   0  0  0  0  0  0  0  0  0  0  0  0
    1.4559   -3.6398    0.0000 C   0  0  0  0  0  0  0  0  0  0  0  0
    2.1354   -0.8250    0.0000 C   0  0  0  0  0  0  0  0  0  0  0  0
    2.1354   -2.4265    0.0000 C   0  0  0  0  0  0  0  0  0  0  0  0
    2.1354   -5.6781    0.0000 C   0  0  0  0  0  0  0  0  0  0  0  0
    0.0485   -3.6398    0.0000 C   0  0  0  0  0  0  0  0  0  0  0  0
    2.1354   -4.8531    0.0000 C   0  0  0  0  0  0  0  0  0  0  0  0
    2.8148   -2.0383    0.0000 C   0  0  0  0  0  0  0  0  0  0  0  0
    0.0485   -4.4648    0.0000 C   0  0  0  0  0  0  0  0  0  0  0  0
    2.8148   -1.2133    0.0000 C   0  0  0  0  0  0  0  0  0  0  0  0
    2.8148   -6.0664    0.0000 C   0  0  0  0  0  0  0  0  0  0  0  0
    0.0000   -1.2133    0.0000 C   0  0  0  0  0  0  0  0  0  0  0  0
    0.7279   -5.6781    0.0000 C   0  0  0  0  0  0  0  0  0  0  0  0
    1.4074   -6.0664    0.0000 C   0  0  0  0  0  0  0  0  0  0  0  0
    2.1354    0.0000    0.0000 C   0  0  0  0  0  0  0  0  0  0  0  0
    3.5428   -7.2796    0.0000 C   0  0  0  0  0  0  0  0  0  0  0  0
    2.1354   -7.2796    0.0000 C   0  0  0  0  0  0  0  0  0  0  0  0
    2.8148   -8.4929    0.0000 C   0  0  0  0  0  0  0  0  0  0  0  0
    3.5428   -8.1047    0.0000 C   0  0  0  0  0  0  0  0  0  0  0  0
    2.1354   -8.1047    0.0000 C   0  0  0  0  0  0  0  0  0  0  0  0
    3.5428   -9.7062    0.0000 C   0  0  0  0  0  0  0  0  0  0  0  0
    4.2222   -9.2694    0.0000 C   0  0  0  0  0  0  0  0  0  0  0  0
  1 20  1  0  0  0  0
  2 34  1  0  0  0  0
  3 23  2  0  0  0  0
  4 10  1  0  0  0  0
  4 14  1  0  0  0  0
  4 18  1  0  0  0  0
  5 10  1  0  0  0  0
  5 24  2  0  0  0  0
  6 11  2  0  0  0  0
  6 24  1  0  0  0  0
  7 23  1  0  0  0  0
  7 28  1  0  0  0  0
  7 29  1  0  0  0  0
  8 30  1  0  0  0  0
  8 33  1  0  0  0  0
  9 10  2  0  0  0  0
  9 11  1  0  0  0  0
  9 16  1  0  0  0  0
 11 15  1  0  0  0  0
 12 13  2  0  0  0  0
 12 14  1  0  0  0  0
 12 19  1  0  0  0  0
 13 21  1  0  0  0  0
 13 25  1  0  0  0  0
 15 22  2  0  0  0  0
 15 27  1  0  0  0  0
 16 20  2  0  0  0  0
 17 19  2  0  0  0  0
 17 23  1  0  0  0  0
 17 26  1  0  0  0  0
 18 21  1  0  0  0  0
 20 22  1  0  0  0  0
 25 26  2  0  0  0  0
 28 31  1  0  0  0  0
 29 32  1  0  0  0  0
 30 31  1  0  0  0  0
 30 32  1  0  0  0  0
 33 34  1  0  0  0  0
M  END
> <PUBCHEM_COMPOUND_ID_TYPE>
0

> <PUBCHEM_TOTAL_CHARGE>
0

> <PUBCHEM_SUBSTANCE_ID>
310935449

> <PUBCHEM_SUBSTANCE_VERSION>
1

> <PUBCHEM_EXT_DATASOURCE_NAME>
4488

> <PUBCHEM_EXT_DATASOURCE_REGID>
SCHEMBL16112993

> <PUBCHEM_SUBSTANCE_COMMENT>
InChI=1S/C26H29BrFN5O/c1-17-12-21(27)14-23-24(17)30-16-31-25(23)33-9-4-18-2-3-19(13-20(18)15-33)26(34)32-10-5-22(6-11-32)29-8-7-28/h2-3,12-14,16,22,29H,4-11,15H2,1H3
InChIKey=YIJKPJOIEGMRCU-UHFFFAOYSA-N

> <PUBCHEM_SUBSTANCE_SYNONYM>
SCHEMBL16112993

> <PUBCHEM_XREF_EXT_ID>
SCHEMBL16112993

> <PUBCHEM_EXT_DATASOURCE_URL>
https://www.surechembl.org/

> <PUBCHEM_EXT_SUBSTANCE_URL>
https://www.surechembl.org/chemical/SCHEMBL16112993

> <PUBCHEM_CID_ASSOCIATIONS>
117603490  1

> <PUBCHEM_COORDINATE_TYPE>
1
3

$$$$
