310937416
  -OEChem-07211613022D

 25 28  0     1  0  0  0  0  0999 V2000
    0.0000   -3.0269    0.0000 F   0  0  0  0  0  0  0  0  0  0  0  0
    0.2920   -2.2038    0.0000 F   0  0  0  0  0  0  0  0  0  0  0  0
    6.2662   -2.2303    0.0000 O   0  0  0  0  0  0  0  0  0  0  0  0
    2.1507   -2.9472    0.0000 N   0  0  3  0  0  0  0  0  0  0  0  0
    4.4075   -3.9296    0.0000 N   0  0  0  0  0  0  0  0  0  0  0  0
    4.9917   -1.8321    0.0000 N   0  0  0  0  0  0  0  0  0  0  0  0
    5.7617   -2.9207    0.0000 N   0  0  0  0  0  0  0  0  0  0  0  0
    2.8941   -3.2924    0.0000 C   0  0  0  0  0  0  0  0  0  0  0  0
    3.0003   -4.0889    0.0000 C   0  0  0  0  0  0  0  0  0  0  0  0
    4.3279   -3.1331    0.0000 C   0  0  0  0  0  0  0  0  0  0  0  0
    2.3100   -4.5669    0.0000 C   0  0  0  0  0  0  0  0  0  0  0  0
    4.9917   -2.6552    0.0000 C   0  0  0  0  0  0  0  0  0  0  0  0
    3.5579   -2.7613    0.0000 C   0  0  0  0  0  0  0  0  0  0  0  0
    0.8231   -2.8410    0.0000 C   0  0  0  0  0  0  0  0  0  0  0  0
    1.4338   -3.3720    0.0000 C   0  0  0  0  0  0  0  0  0  0  0  0
    3.7438   -4.4341    0.0000 C   0  0  0  0  0  0  0  0  0  0  0  0
    5.7617   -1.5665    0.0000 C   0  0  0  0  0  0  0  0  0  0  0  0
    1.9648   -2.1507    0.0000 C   0  0  0  0  0  0  0  0  0  0  0  0
    1.9648   -5.3103    0.0000 C   0  0  0  0  0  0  0  0  0  0  0  0
    1.4869   -4.6465    0.0000 C   0  0  0  0  0  0  0  0  0  0  0  0
    6.0272   -0.7700    0.0000 C   0  0  0  0  0  0  0  0  0  0  0  0
    1.1417   -2.0710    0.0000 C   0  0  0  0  0  0  0  0  0  0  0  0
    6.8503   -1.0355    0.0000 C   0  0  0  0  0  0  0  0  0  0  0  0
    6.2927    0.0000    0.0000 C   0  0  0  0  0  0  0  0  0  0  0  0
    5.2572   -0.5310    0.0000 C   0  0  0  0  0  0  0  0  0  0  0  0
  1 14  1  0  0  0  0
  2 14  1  0  0  0  0
  3  7  1  0  0  0  0
  3 17  1  0  0  0  0
  4  8  1  0  0  0  0
  4 15  1  0  0  0  0
  4 18  1  0  0  0  0
  5 10  1  0  0  0  0
  5 16  2  0  0  0  0
  6 12  1  0  0  0  0
  6 17  2  0  0  0  0
  7 12  2  0  0  0  0
  8  9  2  0  0  0  0
  8 13  1  0  0  0  0
  9 11  1  0  0  0  0
  9 16  1  0  0  0  0
 10 12  1  0  0  0  0
 10 13  2  0  0  0  0
 11 19  1  0  0  0  0
 11 20  1  0  0  0  0
 14 15  1  0  0  0  0
 14 22  1  0  0  0  0
 17 21  1  0  0  0  0
 18 22  1  0  0  0  0
 19 20  1  0  0  0  0
 21 23  1  0  0  0  0
 21 24  1  0  0  0  0
 21 25  1  0  0  0  0
M  END
> <PUBCHEM_COMPOUND_ID_TYPE>
0

> <PUBCHEM_TOTAL_CHARGE>
0

> <PUBCHEM_SUBSTANCE_ID>
310937416

> <PUBCHEM_SUBSTANCE_VERSION>
1

> <PUBCHEM_EXT_DATASOURCE_NAME>
4488

> <PUBCHEM_EXT_DATASOURCE_REGID>
SCHEMBL16115174

> <PUBCHEM_SUBSTANCE_COMMENT>
InChI=1S/C18H22F2N4O/c1-17(2,3)16-22-15(23-25-16)13-8-14(12(9-21-13)11-4-5-11)24-7-6-18(19,20)10-24/h8-9,11H,4-7,10H2,1-3H3
InChIKey=BBYXUCNLCLZVKY-UHFFFAOYSA-N

> <PUBCHEM_SUBSTANCE_SYNONYM>
SCHEMBL16115174

> <PUBCHEM_XREF_EXT_ID>
SCHEMBL16115174

> <PUBCHEM_EXT_DATASOURCE_URL>
https://www.surechembl.org/

> <PUBCHEM_EXT_SUBSTANCE_URL>
https://www.surechembl.org/chemical/SCHEMBL16115174

> <PUBCHEM_CID_ASSOCIATIONS>
86276041  1

> <PUBCHEM_COORDINATE_TYPE>
1
3

$$$$
