310939072
  -OEChem-07211613022D

 23 24  0     1  0  0  0  0  0999 V2000
    1.9543    7.6927    0.0000 O   0  0  0  0  0  0  0  0  0  0  0  0
    0.5724    7.6202    0.0000 O   0  0  0  0  0  0  0  0  0  0  0  0
    3.3362    7.6202    0.0000 O   0  0  0  0  0  0  0  0  0  0  0  0
    0.5724   10.0952    0.0000 O   0  0  0  0  0  0  0  0  0  0  0  0
   -2.9999    8.8577    0.0000 C   0  0  0  0  0  0  0  0  0  0  0  0
   -2.2855    8.4452    0.0000 C   0  0  0  0  0  0  0  0  0  0  0  0
   -2.2855    7.6202    0.0000 C   0  0  0  0  0  0  0  0  0  0  0  0
    1.2869    7.2077    0.0000 C   0  0  3  0  0  0  0  0  0  0  0  0
    2.6218    7.2077    0.0000 C   0  0  0  0  0  0  0  0  0  0  0  0
    2.3668    6.4231    0.0000 C   0  0  0  0  0  0  0  0  0  0  0  0
   -3.7144    8.4452    0.0000 C   0  0  0  0  0  0  0  0  0  0  0  0
   -1.5710    8.8577    0.0000 C   0  0  0  0  0  0  0  0  0  0  0  0
    1.5418    6.4231    0.0000 C   0  0  0  0  0  0  0  0  0  0  0  0
   -2.9999    7.2077    0.0000 C   0  0  0  0  0  0  0  0  0  0  0  0
   -0.1421    8.8577    0.0000 C   0  0  0  0  0  0  0  0  0  0  0  0
   -3.7144    7.6202    0.0000 C   0  0  0  0  0  0  0  0  0  0  0  0
   -0.8565    8.4452    0.0000 C   0  0  0  0  0  0  0  0  0  0  0  0
   -2.9999    9.6827    0.0000 C   0  0  0  0  0  0  0  0  0  0  0  0
   -2.9999    8.0327    0.0000 C   0  0  0  0  0  0  0  0  0  0  0  0
    0.5724    8.4452    0.0000 C   0  0  0  0  0  0  0  0  0  0  0  0
   -1.5710    7.2077    0.0000 C   0  0  0  0  0  0  0  0  0  0  0  0
    2.7793    5.7087    0.0000 C   0  0  0  0  0  0  0  0  0  0  0  0
   -0.1421    9.6827    0.0000 C   0  0  0  0  0  0  0  0  0  0  0  0
  1  8  1  0  0  0  0
  1  9  1  0  0  0  0
  2  8  1  0  0  0  0
  2 20  1  0  0  0  0
  3  9  2  0  0  0  0
  4 23  1  0  0  0  0
  5  6  1  0  0  0  0
  5 11  1  0  0  0  0
  5 18  1  0  0  0  0
  5 19  1  0  0  0  0
  6  7  2  0  0  0  0
  6 12  1  0  0  0  0
  7 14  1  0  0  0  0
  7 21  1  0  0  0  0
  8 13  1  0  0  0  0
  9 10  1  0  0  0  0
 10 13  2  0  0  0  0
 10 22  1  0  0  0  0
 11 16  1  0  0  0  0
 12 17  2  0  0  0  0
 14 16  1  0  0  0  0
 15 17  1  0  0  0  0
 15 20  2  0  0  0  0
 15 23  1  0  0  0  0
M  END
> <PUBCHEM_COMPOUND_ID_TYPE>
0

> <PUBCHEM_TOTAL_CHARGE>
0

> <PUBCHEM_SUBSTANCE_ID>
310939072

> <PUBCHEM_SUBSTANCE_VERSION>
1

> <PUBCHEM_EXT_DATASOURCE_NAME>
4488

> <PUBCHEM_EXT_DATASOURCE_REGID>
SCHEMBL16116991

> <PUBCHEM_SUBSTANCE_COMMENT>
InChI=1S/C19H26O4/c1-13-6-5-9-19(3,4)16(13)8-7-15(11-20)12-22-17-10-14(2)18(21)23-17/h7-8,10,12,17,20H,5-6,9,11H2,1-4H3/b8-7+,15-12+
InChIKey=QPLXYEHYTUWHNG-GHKBDNCUSA-N

> <PUBCHEM_SUBSTANCE_SYNONYM>
SCHEMBL16116991

> <PUBCHEM_XREF_EXT_ID>
SCHEMBL16116991

> <PUBCHEM_EXT_DATASOURCE_URL>
https://www.surechembl.org/

> <PUBCHEM_EXT_SUBSTANCE_URL>
https://www.surechembl.org/chemical/SCHEMBL16116991

> <PUBCHEM_CID_ASSOCIATIONS>
117606435  1

> <PUBCHEM_COORDINATE_TYPE>
1
3

$$$$
