310943643
  -OEChem-07211613022D

 35 38  0     1  0  0  0  0  0999 V2000
    3.8830   -1.5612    0.0000 S   0  0  3  0  0  0  0  0  0  0  0  0
   -3.2966   -0.7211    0.0000 O   0  0  0  0  0  0  0  0  0  0  0  0
    2.4566    1.7514    0.0000 O   0  0  0  0  0  0  0  0  0  0  0  0
   -4.6754    1.8941    0.0000 O   0  0  0  0  0  0  0  0  0  0  0  0
    4.7230   -1.5612    0.0000 O   0  0  0  0  0  0  0  0  0  0  0  0
   -3.2966    0.9747    0.0000 N   0  0  0  0  0  0  0  0  0  0  0  0
   -1.8702   -0.7211    0.0000 N   0  0  0  0  0  0  0  0  0  0  0  0
    0.2853    2.1792    0.0000 N   0  0  0  0  0  0  0  0  0  0  0  0
    1.7276    0.5310    0.0000 N   0  0  0  0  0  0  0  0  0  0  0  0
    4.3110   -2.2743    0.0000 N   0  0  0  0  0  0  0  0  0  0  0  0
   -1.1412    0.5310    0.0000 C   0  0  0  0  0  0  0  0  0  0  0  0
   -0.4280    0.9430    0.0000 C   0  0  0  0  0  0  0  0  0  0  0  0
   -2.5834    0.5310    0.0000 C   0  0  0  0  0  0  0  0  0  0  0  0
   -2.5993   -0.2933    0.0000 C   0  0  0  0  0  0  0  0  0  0  0  0
   -1.8702    0.9430    0.0000 C   0  0  0  0  0  0  0  0  0  0  0  0
   -0.4121    1.7831    0.0000 C   0  0  0  0  0  0  0  0  0  0  0  0
    0.3012    0.5310    0.0000 C   0  0  0  0  0  0  0  0  0  0  0  0
    1.0143    0.9430    0.0000 C   0  0  0  0  0  0  0  0  0  0  0  0
   -1.1569   -0.3090    0.0000 C   0  0  0  0  0  0  0  0  0  0  0  0
    3.1857    0.5310    0.0000 C   0  0  0  0  0  0  0  0  0  0  0  0
    2.4408    0.9271    0.0000 C   0  0  0  0  0  0  0  0  0  0  0  0
    3.8989   -0.7052    0.0000 C   0  0  0  0  0  0  0  0  0  0  0  0
    1.0302    1.7672    0.0000 C   0  0  0  0  0  0  0  0  0  0  0  0
    3.1857   -0.2933    0.0000 C   0  0  0  0  0  0  0  0  0  0  0  0
   -3.2333    1.7990    0.0000 C   0  0  0  0  0  0  0  0  0  0  0  0
   -4.0098    0.6261    0.0000 C   0  0  0  0  0  0  0  0  0  0  0  0
    3.8830    0.9271    0.0000 C   0  0  0  0  0  0  0  0  0  0  0  0
    4.6121   -0.2933    0.0000 C   0  0  0  0  0  0  0  0  0  0  0  0
   -1.1569    2.1792    0.0000 C   0  0  0  0  0  0  0  0  0  0  0  0
    4.6121    0.5151    0.0000 C   0  0  0  0  0  0  0  0  0  0  0  0
   -3.9306    2.2743    0.0000 C   0  0  0  0  0  0  0  0  0  0  0  0
   -4.7230    1.0698    0.0000 C   0  0  0  0  0  0  0  0  0  0  0  0
   -3.3124   -1.5453    0.0000 C   0  0  0  0  0  0  0  0  0  0  0  0
    3.1857   -1.9732    0.0000 C   0  0  0  0  0  0  0  0  0  0  0  0
   -4.0257   -1.9732    0.0000 C   0  0  0  0  0  0  0  0  0  0  0  0
  1  5  2  0  0  0  0
  1 10  2  0  0  0  0
  1 22  1  0  0  0  0
  1 34  1  0  0  0  0
  2 14  1  0  0  0  0
  2 33  1  0  0  0  0
  3 21  2  0  0  0  0
  4 31  1  0  0  0  0
  4 32  1  0  0  0  0
  6 13  1  0  0  0  0
  6 25  1  0  0  0  0
  6 26  1  0  0  0  0
  7 14  1  0  0  0  0
  7 19  2  0  0  0  0
  8 16  2  0  0  0  0
  8 23  1  0  0  0  0
  9 18  1  0  0  0  0
  9 21  1  0  0  0  0
 11 12  1  0  0  0  0
 11 15  2  0  0  0  0
 11 19  1  0  0  0  0
 12 16  1  0  0  0  0
 12 17  2  0  0  0  0
 13 14  2  0  0  0  0
 13 15  1  0  0  0  0
 16 29  1  0  0  0  0
 17 18  1  0  0  0  0
 18 23  2  0  0  0  0
 20 21  1  0  0  0  0
 20 24  2  0  0  0  0
 20 27  1  0  0  0  0
 22 24  1  0  0  0  0
 22 28  2  0  0  0  0
 25 31  1  0  0  0  0
 26 32  1  0  0  0  0
 27 30  2  0  0  0  0
 28 30  1  0  0  0  0
 33 35  1  0  0  0  0
M  END
> <PUBCHEM_COMPOUND_ID_TYPE>
0

> <PUBCHEM_TOTAL_CHARGE>
0

> <PUBCHEM_SUBSTANCE_ID>
310943643

> <PUBCHEM_SUBSTANCE_VERSION>
1

> <PUBCHEM_EXT_DATASOURCE_NAME>
4488

> <PUBCHEM_EXT_DATASOURCE_REGID>
SCHEMBL16121711

> <PUBCHEM_SUBSTANCE_COMMENT>
InChI=1S/C25H29N5O4S/c1-4-34-25-23(30-8-10-33-11-9-30)13-19(15-28-25)22-14-20(16-27-17(22)2)29-24(31)18-6-5-7-21(12-18)35(3,26)32/h5-7,12-16,26H,4,8-11H2,1-3H3,(H,29,31)
InChIKey=BNFJEUXJTJPVDW-UHFFFAOYSA-N

> <PUBCHEM_SUBSTANCE_SYNONYM>
SCHEMBL16121711

> <PUBCHEM_XREF_EXT_ID>
SCHEMBL16121711

> <PUBCHEM_EXT_DATASOURCE_URL>
https://www.surechembl.org/

> <PUBCHEM_EXT_SUBSTANCE_URL>
https://www.surechembl.org/chemical/SCHEMBL16121711

> <PUBCHEM_CID_ASSOCIATIONS>
117610034  1

> <PUBCHEM_COORDINATE_TYPE>
1
3

$$$$
