310946511
  -OEChem-07211613022D

 18 17  0     1  0  0  0  0  0999 V2000
    6.0291    2.9312    0.0000 S   0  0  0  0  0  0  0  0  0  0  0  0
    3.8857    2.5187    0.0000 O   0  0  0  0  0  0  0  0  0  0  0  0
    6.0291    0.4562    0.0000 O   0  0  0  0  0  0  0  0  0  0  0  0
    1.7423   -2.0188    0.0000 O   0  0  0  0  0  0  0  0  0  0  0  0
    2.4568   -3.2563    0.0000 O   0  5  0  0  0  0  0  0  0  0  0  0
    3.1712   -2.0188    0.0000 O   0  0  0  0  0  0  0  0  0  0  0  0
    4.6002    1.2812    0.0000 N   0  0  0  0  0  0  0  0  0  0  0  0
    2.4568   -2.4313    0.0000 N   0  3  0  0  0  0  0  0  0  0  0  0
    5.3146    1.6937    0.0000 C   0  0  3  0  0  0  0  0  0  0  0  0
    3.8857    1.6937    0.0000 C   0  0  0  0  0  0  0  0  0  0  0  0
    6.0291    1.2812    0.0000 C   0  0  0  0  0  0  0  0  0  0  0  0
    5.3146    2.5187    0.0000 C   0  0  0  0  0  0  0  0  0  0  0  0
    3.1712    1.2812    0.0000 C   0  0  0  0  0  0  0  0  0  0  0  0
    3.1712    0.4562    0.0000 C   0  0  0  0  0  0  0  0  0  0  0  0
    6.7436    1.6937    0.0000 C   0  0  0  0  0  0  0  0  0  0  0  0
    2.4568    0.0437    0.0000 C   0  0  0  0  0  0  0  0  0  0  0  0
    2.4568   -0.7813    0.0000 C   0  0  0  0  0  0  0  0  0  0  0  0
    1.7423   -1.1938    0.0000 C   0  0  0  0  0  0  0  0  0  0  0  0
  1 12  1  0  0  0  0
  2 10  2  0  0  0  0
  3 11  2  0  0  0  0
  4  8  1  0  0  0  0
  4 18  1  0  0  0  0
  5  8  1  0  0  0  0
  6  8  2  0  0  0  0
  7  9  1  0  0  0  0
  7 10  1  0  0  0  0
  9 11  1  0  0  0  0
  9 12  1  0  0  0  0
 10 13  1  0  0  0  0
 11 15  1  0  0  0  0
 13 14  1  0  0  0  0
 14 16  1  0  0  0  0
 16 17  1  0  0  0  0
 17 18  1  0  0  0  0
M  CHG  2   5  -1   8   1
M  END
> <PUBCHEM_COMPOUND_ID_TYPE>
0

> <PUBCHEM_TOTAL_CHARGE>
0

> <PUBCHEM_SUBSTANCE_ID>
310946511

> <PUBCHEM_SUBSTANCE_VERSION>
1

> <PUBCHEM_EXT_DATASOURCE_NAME>
4488

> <PUBCHEM_EXT_DATASOURCE_REGID>
SCHEMBL16124632

> <PUBCHEM_SUBSTANCE_COMMENT>
InChI=1S/C10H18N2O5S/c1-8(13)9(7-18)11-10(14)5-3-2-4-6-17-12(15)16/h9,18H,2-7H2,1H3,(H,11,14)
InChIKey=BYPGYVSXXDDVRF-UHFFFAOYSA-N

> <PUBCHEM_SUBSTANCE_SYNONYM>
SCHEMBL16124632

> <PUBCHEM_XREF_EXT_ID>
SCHEMBL16124632

> <PUBCHEM_EXT_DATASOURCE_URL>
https://www.surechembl.org/

> <PUBCHEM_EXT_SUBSTANCE_URL>
https://www.surechembl.org/chemical/SCHEMBL16124632

> <PUBCHEM_CID_ASSOCIATIONS>
117612416  1

> <PUBCHEM_COORDINATE_TYPE>
1
3

$$$$
