310943584
  -OEChem-07211613022D

 27 29  0     1  0  0  0  0  0999 V2000
    3.8008   -1.2631    0.0000 O   0  5  0  0  0  0  0  0  0  0  0  0
    4.5192   -0.0348    0.0000 O   0  0  0  0  0  0  0  0  0  0  0  0
    3.8008   -0.4288    0.0000 N   0  3  0  0  0  0  0  0  0  0  0  0
   -1.9120   -1.3094    0.0000 N   0  0  3  0  0  0  0  0  0  0  0  0
    3.7776    1.2167    0.0000 N   0  0  0  0  0  0  0  0  0  0  0  0
    0.2202    1.7730    0.0000 N   0  0  0  0  0  0  0  0  0  0  0  0
   -3.6849   -0.7764    0.0000 N   0  0  3  0  0  0  0  0  0  0  0  0
    0.9154   -0.4635    0.0000 C   0  0  0  0  0  0  0  0  0  0  0  0
    1.6339   -0.0464    0.0000 C   0  0  0  0  0  0  0  0  0  0  0  0
    0.2202   -0.0464    0.0000 C   0  0  0  0  0  0  0  0  0  0  0  0
    3.0707   -0.0348    0.0000 C   0  0  0  0  0  0  0  0  0  0  0  0
    2.3524   -0.4403    0.0000 C   0  0  0  0  0  0  0  0  0  0  0  0
    3.0707    0.7996    0.0000 C   0  0  0  0  0  0  0  0  0  0  0  0
   -0.4982   -1.2979    0.0000 C   0  0  0  0  0  0  0  0  0  0  0  0
    0.9270   -1.2979    0.0000 C   0  0  0  0  0  0  0  0  0  0  0  0
    1.6455    0.7879    0.0000 C   0  0  0  0  0  0  0  0  0  0  0  0
   -0.4867   -0.4751    0.0000 C   0  0  0  0  0  0  0  0  0  0  0  0
    2.3639    1.1936    0.0000 C   0  0  0  0  0  0  0  0  0  0  0  0
    0.2433   -1.7034    0.0000 C   0  0  0  0  0  0  0  0  0  0  0  0
   -1.1936   -1.7150    0.0000 C   0  0  0  0  0  0  0  0  0  0  0  0
    0.2202    0.9618    0.0000 C   0  0  0  0  0  0  0  0  0  0  0  0
   -2.5725   -1.7730    0.0000 C   0  0  0  0  0  0  0  0  0  0  0  0
   -1.8540   -0.4983    0.0000 C   0  0  0  0  0  0  0  0  0  0  0  0
   -3.3721   -1.5412    0.0000 C   0  0  0  0  0  0  0  0  0  0  0  0
   -2.4682    0.0695    0.0000 C   0  0  0  0  0  0  0  0  0  0  0  0
   -3.2678   -0.0579    0.0000 C   0  0  0  0  0  0  0  0  0  0  0  0
   -4.5192   -0.7879    0.0000 C   0  0  0  0  0  0  0  0  0  0  0  0
  1  3  1  0  0  0  0
  2  3  2  0  0  0  0
  3 11  1  0  0  0  0
  4 20  1  0  0  0  0
  4 22  1  0  0  0  0
  4 23  1  0  0  0  0
  5 13  1  0  0  0  0
  6 21  3  0  0  0  0
  7 24  1  0  0  0  0
  7 26  1  0  0  0  0
  7 27  1  0  0  0  0
  8  9  1  0  0  0  0
  8 10  2  0  0  0  0
  8 15  1  0  0  0  0
  9 12  1  0  0  0  0
  9 16  2  0  0  0  0
 10 17  1  0  0  0  0
 10 21  1  0  0  0  0
 11 12  2  0  0  0  0
 11 13  1  0  0  0  0
 13 18  2  0  0  0  0
 14 17  2  0  0  0  0
 14 19  1  0  0  0  0
 14 20  1  0  0  0  0
 15 19  2  0  0  0  0
 16 18  1  0  0  0  0
 22 24  1  0  0  0  0
 23 25  1  0  0  0  0
 25 26  1  0  0  0  0
M  CHG  2   1  -1   3   1
M  END
> <PUBCHEM_COMPOUND_ID_TYPE>
0

> <PUBCHEM_TOTAL_CHARGE>
0

> <PUBCHEM_SUBSTANCE_ID>
310943584

> <PUBCHEM_SUBSTANCE_VERSION>
1

> <PUBCHEM_EXT_DATASOURCE_NAME>
4488

> <PUBCHEM_EXT_DATASOURCE_REGID>
SCHEMBL16121651

> <PUBCHEM_SUBSTANCE_COMMENT>
InChI=1S/C20H23N5O2/c1-23-7-2-8-24(10-9-23)14-15-3-5-18(17(11-15)13-21)16-4-6-19(22)20(12-16)25(26)27/h3-6,11-12H,2,7-10,14,22H2,1H3
InChIKey=GTBYQLPEJLQSCR-UHFFFAOYSA-N

> <PUBCHEM_SUBSTANCE_SYNONYM>
SCHEMBL16121651

> <PUBCHEM_XREF_EXT_ID>
SCHEMBL16121651

> <PUBCHEM_EXT_DATASOURCE_URL>
https://www.surechembl.org/

> <PUBCHEM_EXT_SUBSTANCE_URL>
https://www.surechembl.org/chemical/SCHEMBL16121651

> <PUBCHEM_CID_ASSOCIATIONS>
117609987  1

> <PUBCHEM_COORDINATE_TYPE>
1
3

$$$$
