310936042
  -OEChem-07211613022D

 21 20  0     1  0  0  0  0  0999 V2000
    1.4666   -4.9805    0.0000 O   0  0  0  0  0  0  0  0  0  0  0  0
    3.6055   -2.9028    0.0000 O   0  0  0  0  0  0  0  0  0  0  0  0
    0.7334   -3.7278    0.0000 O   0  0  0  0  0  0  0  0  0  0  0  0
    2.9028   -1.6805    0.0000 O   0  0  0  0  0  0  0  0  0  0  0  0
    2.1694   -3.7583    0.0000 N   0  0  0  0  0  0  0  0  0  0  0  0
    2.1694   -2.9028    0.0000 C   0  0  3  0  0  0  0  0  0  0  0  0
    1.4666   -4.1555    0.0000 C   0  0  0  0  0  0  0  0  0  0  0  0
    2.9028   -2.5055    0.0000 C   0  0  0  0  0  0  0  0  0  0  0  0
    0.7334   -5.4083    0.0000 C   0  0  0  0  0  0  0  0  0  0  0  0
    4.3388   -1.6805    0.0000 C   0  0  0  0  0  0  0  0  0  0  0  0
    4.3388   -2.5055    0.0000 C   0  0  0  0  0  0  0  0  0  0  0  0
    1.4666   -2.5055    0.0000 C   0  0  0  0  0  0  0  0  0  0  0  0
    0.0000   -5.8055    0.0000 C   0  0  0  0  0  0  0  0  0  0  0  0
    0.3055   -4.6749    0.0000 C   0  0  0  0  0  0  0  0  0  0  0  0
    1.1611   -6.1111    0.0000 C   0  0  0  0  0  0  0  0  0  0  0  0
    3.6361   -1.2528    0.0000 C   0  0  0  0  0  0  0  0  0  0  0  0
    5.0416   -1.2528    0.0000 C   0  0  0  0  0  0  0  0  0  0  0  0
    3.6361   -0.4278    0.0000 C   0  0  0  0  0  0  0  0  0  0  0  0
    5.0416   -0.3972    0.0000 C   0  0  0  0  0  0  0  0  0  0  0  0
    2.9028    0.0000    0.0000 C   0  0  0  0  0  0  0  0  0  0  0  0
    4.3388    0.0000    0.0000 C   0  0  0  0  0  0  0  0  0  0  0  0
  1  7  1  0  0  0  0
  1  9  1  0  0  0  0
  2  8  1  0  0  0  0
  2 11  1  0  0  0  0
  3  7  2  0  0  0  0
  4  8  2  0  0  0  0
  5  6  1  0  0  0  0
  5  7  1  0  0  0  0
  6  8  1  0  0  0  0
  6 12  1  0  0  0  0
  9 13  1  0  0  0  0
  9 14  1  0  0  0  0
  9 15  1  0  0  0  0
 10 11  1  0  0  0  0
 10 16  1  0  0  0  0
 10 17  1  0  0  0  0
 16 18  1  0  0  0  0
 17 19  1  0  0  0  0
 18 20  1  0  0  0  0
 19 21  1  0  0  0  0
M  END
> <PUBCHEM_COMPOUND_ID_TYPE>
0

> <PUBCHEM_TOTAL_CHARGE>
0

> <PUBCHEM_SUBSTANCE_ID>
310936042

> <PUBCHEM_SUBSTANCE_VERSION>
1

> <PUBCHEM_EXT_DATASOURCE_NAME>
4488

> <PUBCHEM_EXT_DATASOURCE_REGID>
SCHEMBL16113645

> <PUBCHEM_SUBSTANCE_COMMENT>
InChI=1S/C16H31NO4/c1-7-9-13(10-8-2)11-20-14(18)12(3)17-15(19)21-16(4,5)6/h12-13H,7-11H2,1-6H3,(H,17,19)
InChIKey=ZGOZQFDRVOVQOP-UHFFFAOYSA-N

> <PUBCHEM_SUBSTANCE_SYNONYM>
SCHEMBL16113645

> <PUBCHEM_XREF_EXT_ID>
SCHEMBL16113645

> <PUBCHEM_EXT_DATASOURCE_URL>
https://www.surechembl.org/

> <PUBCHEM_EXT_SUBSTANCE_URL>
https://www.surechembl.org/chemical/SCHEMBL16113645

> <PUBCHEM_CID_ASSOCIATIONS>
74957581  1

> <PUBCHEM_COORDINATE_TYPE>
1
3

$$$$
