310936082
  -OEChem-07211613022D

 23 25  0     1  0  0  0  0  0999 V2000
    4.0354   -4.3216    0.0000 S   0  0  0  0  0  0  0  0  0  0  0  0
    4.9511    0.0000    0.0000 O   0  0  0  0  0  0  0  0  0  0  0  0
    6.2104   -0.7155    0.0000 O   0  0  0  0  0  0  0  0  0  0  0  0
    4.9511   -1.4310    0.0000 N   0  0  0  0  0  0  0  0  0  0  0  0
    2.8906   -2.1465    0.0000 C   0  0  0  0  0  0  0  0  0  0  0  0
    3.7205   -2.1465    0.0000 C   0  0  3  0  0  0  0  0  0  0  0  0
    1.6599   -1.4596    0.0000 C   0  0  0  0  0  0  0  0  0  0  0  0
    1.2592   -2.1465    0.0000 C   0  0  0  0  0  0  0  0  0  0  0  0
    2.4613   -1.4310    0.0000 C   0  0  0  0  0  0  0  0  0  0  0  0
    3.7205   -3.5775    0.0000 C   0  0  0  0  0  0  0  0  0  0  0  0
    4.1212   -2.8619    0.0000 C   0  0  0  0  0  0  0  0  0  0  0  0
    2.4899   -2.8619    0.0000 C   0  0  0  0  0  0  0  0  0  0  0  0
    1.6599   -2.8619    0.0000 C   0  0  0  0  0  0  0  0  0  0  0  0
    4.1212   -1.4310    0.0000 C   0  0  0  0  0  0  0  0  0  0  0  0
    1.2306   -0.7155    0.0000 C   0  0  0  0  0  0  0  0  0  0  0  0
    0.4293   -2.1465    0.0000 C   0  0  0  0  0  0  0  0  0  0  0  0
    2.8906   -3.6919    0.0000 C   0  0  0  0  0  0  0  0  0  0  0  0
    3.4343   -4.8940    0.0000 C   0  0  0  0  0  0  0  0  0  0  0  0
    2.7189   -4.4933    0.0000 C   0  0  0  0  0  0  0  0  0  0  0  0
    0.4006   -0.7155    0.0000 C   0  0  0  0  0  0  0  0  0  0  0  0
    0.0000   -1.4310    0.0000 C   0  0  0  0  0  0  0  0  0  0  0  0
    5.3805   -0.7155    0.0000 C   0  0  0  0  0  0  0  0  0  0  0  0
    3.5488   -5.7239    0.0000 C   0  0  0  0  0  0  0  0  0  0  0  0
  1 10  1  0  0  0  0
  1 18  1  0  0  0  0
  2 22  2  0  0  0  0
  3 22  1  0  0  0  0
  4 14  1  0  0  0  0
  4 22  1  0  0  0  0
  5  6  1  0  0  0  0
  5  9  2  0  0  0  0
  5 12  1  0  0  0  0
  6 11  1  0  0  0  0
  6 14  1  0  0  0  0
  7  8  2  0  0  0  0
  7  9  1  0  0  0  0
  7 15  1  0  0  0  0
  8 13  1  0  0  0  0
  8 16  1  0  0  0  0
 10 11  1  0  0  0  0
 10 17  2  0  0  0  0
 12 13  2  0  0  0  0
 15 20  2  0  0  0  0
 16 21  2  0  0  0  0
 17 19  1  0  0  0  0
 18 19  2  0  0  0  0
 18 23  1  0  0  0  0
 20 21  1  0  0  0  0
M  END
> <PUBCHEM_COMPOUND_ID_TYPE>
0

> <PUBCHEM_TOTAL_CHARGE>
0

> <PUBCHEM_SUBSTANCE_ID>
310936082

> <PUBCHEM_SUBSTANCE_VERSION>
1

> <PUBCHEM_EXT_DATASOURCE_NAME>
4488

> <PUBCHEM_EXT_DATASOURCE_REGID>
SCHEMBL16113688

> <PUBCHEM_SUBSTANCE_COMMENT>
InChI=1S/C19H19NO2S/c1-13-6-9-18(23-13)11-17(12-20-19(21)22)16-8-7-14-4-2-3-5-15(14)10-16/h2-10,17,20H,11-12H2,1H3,(H,21,22)
InChIKey=WDHXIUOLYRVXIB-UHFFFAOYSA-N

> <PUBCHEM_SUBSTANCE_SYNONYM>
SCHEMBL16113688

> <PUBCHEM_XREF_EXT_ID>
SCHEMBL16113688

> <PUBCHEM_EXT_DATASOURCE_URL>
https://www.surechembl.org/

> <PUBCHEM_EXT_SUBSTANCE_URL>
https://www.surechembl.org/chemical/SCHEMBL16113688

> <PUBCHEM_CID_ASSOCIATIONS>
117604048  1

> <PUBCHEM_COORDINATE_TYPE>
1
3

$$$$
