310949372
  -OEChem-07211613022D

 29 30  0     1  0  0  0  0  0999 V2000
    1.7373   -0.6825    0.0000 F   0  0  0  0  0  0  0  0  0  0  0  0
   -1.4022    1.4395    0.0000 F   0  0  0  0  0  0  0  0  0  0  0  0
   -1.1913    2.2337    0.0000 F   0  0  0  0  0  0  0  0  0  0  0  0
   -0.3847    2.4571    0.0000 F   0  0  0  0  0  0  0  0  0  0  0  0
    2.1592    0.9059    0.0000 O   0  0  0  0  0  0  0  0  0  0  0  0
   -0.6329   -2.1965    0.0000 N   0  0  0  0  0  0  0  0  0  0  0  0
    0.2730   -2.4571    0.0000 N   0  0  0  0  0  0  0  0  0  0  0  0
   -2.0724   -1.3775    0.0000 N   0  0  3  0  0  0  0  0  0  0  0  0
   -4.2317   -0.9556    0.0000 N   0  0  0  0  0  0  0  0  0  0  0  0
    0.3475   -0.3102    0.0000 C   0  0  0  0  0  0  0  0  0  0  0  0
    0.1241   -1.1169    0.0000 C   0  0  0  0  0  0  0  0  0  0  0  0
    1.1417   -0.0869    0.0000 C   0  0  0  0  0  0  0  0  0  0  0  0
   -0.0248    1.0672    0.0000 C   0  0  0  0  0  0  0  0  0  0  0  0
    1.3527    0.7073    0.0000 C   0  0  0  0  0  0  0  0  0  0  0  0
   -0.2110    0.2606    0.0000 C   0  0  0  0  0  0  0  0  0  0  0  0
   -0.6453   -1.3650    0.0000 C   0  0  0  0  0  0  0  0  0  0  0  0
   -0.6205    1.6629    0.0000 C   0  0  0  0  0  0  0  0  0  0  0  0
    0.7942    1.2658    0.0000 C   0  0  0  0  0  0  0  0  0  0  0  0
    0.6329   -1.7870    0.0000 C   0  0  0  0  0  0  0  0  0  0  0  0
   -1.3527   -0.9556    0.0000 C   0  0  0  0  0  0  0  0  0  0  0  0
    2.7673    0.3227    0.0000 C   0  0  0  0  0  0  0  0  0  0  0  0
   -2.7921   -0.9556    0.0000 C   0  0  0  0  0  0  0  0  0  0  0  0
    3.5616    0.5336    0.0000 C   0  0  0  0  0  0  0  0  0  0  0  0
   -2.0724   -2.1965    0.0000 C   0  0  0  0  0  0  0  0  0  0  0  0
    4.1572   -0.0372    0.0000 C   0  0  0  0  0  0  0  0  0  0  0  0
   -3.4995   -1.3650    0.0000 C   0  0  0  0  0  0  0  0  0  0  0  0
    4.9266    0.1738    0.0000 C   0  0  0  0  0  0  0  0  0  0  0  0
    3.9338   -0.8439    0.0000 C   0  0  0  0  0  0  0  0  0  0  0  0
   -4.9266   -1.3775    0.0000 C   0  0  0  0  0  0  0  0  0  0  0  0
  1 12  1  0  0  0  0
  2 17  1  0  0  0  0
  3 17  1  0  0  0  0
  4 17  1  0  0  0  0
  5 14  1  0  0  0  0
  5 21  1  0  0  0  0
  6  7  1  0  0  0  0
  6 16  2  0  0  0  0
  7 19  1  0  0  0  0
  8 20  1  0  0  0  0
  8 22  1  0  0  0  0
  8 24  1  0  0  0  0
  9 26  1  0  0  0  0
  9 29  1  0  0  0  0
 10 11  1  0  0  0  0
 10 12  2  0  0  0  0
 10 15  1  0  0  0  0
 11 16  1  0  0  0  0
 11 19  2  0  0  0  0
 12 14  1  0  0  0  0
 13 15  2  0  0  0  0
 13 17  1  0  0  0  0
 13 18  1  0  0  0  0
 14 18  2  0  0  0  0
 16 20  1  0  0  0  0
 21 23  1  0  0  0  0
 22 26  1  0  0  0  0
 23 25  1  0  0  0  0
 25 27  1  0  0  0  0
 25 28  1  0  0  0  0
M  END
> <PUBCHEM_COMPOUND_ID_TYPE>
0

> <PUBCHEM_TOTAL_CHARGE>
0

> <PUBCHEM_SUBSTANCE_ID>
310949372

> <PUBCHEM_SUBSTANCE_VERSION>
1

> <PUBCHEM_EXT_DATASOURCE_NAME>
4488

> <PUBCHEM_EXT_DATASOURCE_REGID>
SCHEMBL16127564

> <PUBCHEM_SUBSTANCE_COMMENT>
InChI=1S/C20H28F4N4O/c1-13(2)5-8-29-18-10-14(20(22,23)24)9-15(19(18)21)16-11-26-27-17(16)12-28(4)7-6-25-3/h9-11,13,25H,5-8,12H2,1-4H3,(H,26,27)
InChIKey=LOOPQELJMYWLBX-UHFFFAOYSA-N

> <PUBCHEM_SUBSTANCE_SYNONYM>
SCHEMBL16127564

> <PUBCHEM_XREF_EXT_ID>
SCHEMBL16127564

> <PUBCHEM_EXT_DATASOURCE_URL>
https://www.surechembl.org/

> <PUBCHEM_EXT_SUBSTANCE_URL>
https://www.surechembl.org/chemical/SCHEMBL16127564

> <PUBCHEM_CID_ASSOCIATIONS>
117614831  1

> <PUBCHEM_COORDINATE_TYPE>
1
3

$$$$
