310944757
  -OEChem-07211613022D

 25 26  0     1  0  0  0  0  0999 V2000
   -4.0540    1.0089    0.0000 Cl  0  0  0  0  0  0  0  0  0  0  0  0
   -4.0540   -0.6477    0.0000 Cl  0  0  0  0  0  0  0  0  0  0  0  0
    0.4172    1.8433    0.0000 O   0  0  0  0  0  0  0  0  0  0  0  0
   -1.0151   -0.6477    0.0000 O   0  0  0  0  0  0  0  0  0  0  0  0
    4.0167   -0.2366    0.0000 O   0  0  0  0  0  0  0  0  0  0  0  0
    3.3067    1.8433    0.0000 O   0  0  0  0  0  0  0  0  0  0  0  0
    2.6093   -0.2242    0.0000 N   0  0  0  0  0  0  0  0  0  0  0  0
    1.1520    0.5978    0.0000 N   0  0  0  0  0  0  0  0  0  0  0  0
   -1.0026    1.0213    0.0000 N   0  0  0  0  0  0  0  0  0  0  0  0
    2.5968    0.6103    0.0000 C   0  0  3  0  0  0  0  0  0  0  0  0
   -1.7250    0.6103    0.0000 C   0  0  0  0  0  0  0  0  0  0  0  0
    1.8745    1.0089    0.0000 C   0  0  0  0  0  0  0  0  0  0  0  0
    0.4172    1.0089    0.0000 C   0  0  0  0  0  0  0  0  0  0  0  0
   -1.7374   -0.2242    0.0000 C   0  0  0  0  0  0  0  0  0  0  0  0
    1.8869   -0.6477    0.0000 C   0  0  0  0  0  0  0  0  0  0  0  0
    1.1645   -0.2366    0.0000 C   0  0  0  0  0  0  0  0  0  0  0  0
   -3.1572    0.5978    0.0000 C   0  0  0  0  0  0  0  0  0  0  0  0
    3.3067   -0.6477    0.0000 C   0  0  0  0  0  0  0  0  0  0  0  0
   -3.1697   -0.2242    0.0000 C   0  0  0  0  0  0  0  0  0  0  0  0
   -2.4349    1.0089    0.0000 C   0  0  0  0  0  0  0  0  0  0  0  0
   -2.4474   -0.6352    0.0000 C   0  0  0  0  0  0  0  0  0  0  0  0
   -0.2803    0.5978    0.0000 C   0  0  0  0  0  0  0  0  0  0  0  0
    3.3191    1.0089    0.0000 C   0  0  0  0  0  0  0  0  0  0  0  0
    3.3191   -1.4697    0.0000 C   0  0  0  0  0  0  0  0  0  0  0  0
    4.0540   -1.8433    0.0000 C   0  0  0  0  0  0  0  0  0  0  0  0
  1 17  1  0  0  0  0
  2 19  1  0  0  0  0
  3 13  2  0  0  0  0
  4 14  1  0  0  0  0
  5 18  2  0  0  0  0
  6 23  1  0  0  0  0
  7 10  1  0  0  0  0
  7 15  1  0  0  0  0
  7 18  1  0  0  0  0
  8 12  1  0  0  0  0
  8 13  1  0  0  0  0
  8 16  1  0  0  0  0
  9 11  1  0  0  0  0
  9 22  1  0  0  0  0
 10 12  1  0  0  0  0
 10 23  1  0  0  0  0
 11 14  1  0  0  0  0
 11 20  2  0  0  0  0
 13 22  1  0  0  0  0
 14 21  2  0  0  0  0
 15 16  1  0  0  0  0
 17 19  2  0  0  0  0
 17 20  1  0  0  0  0
 18 24  1  0  0  0  0
 19 21  1  0  0  0  0
 24 25  2  0  0  0  0
M  END
> <PUBCHEM_COMPOUND_ID_TYPE>
0

> <PUBCHEM_TOTAL_CHARGE>
0

> <PUBCHEM_SUBSTANCE_ID>
310944757

> <PUBCHEM_SUBSTANCE_VERSION>
1

> <PUBCHEM_EXT_DATASOURCE_NAME>
4488

> <PUBCHEM_EXT_DATASOURCE_REGID>
SCHEMBL16122836

> <PUBCHEM_SUBSTANCE_COMMENT>
InChI=1S/C16H19Cl2N3O4/c1-2-15(24)21-4-3-20(8-10(21)9-22)16(25)7-19-13-5-11(17)12(18)6-14(13)23/h2,5-6,10,19,22-23H,1,3-4,7-9H2
InChIKey=DEGXRTDYAOZWQK-UHFFFAOYSA-N

> <PUBCHEM_SUBSTANCE_SYNONYM>
SCHEMBL16122836

> <PUBCHEM_XREF_EXT_ID>
SCHEMBL16122836

> <PUBCHEM_EXT_DATASOURCE_URL>
https://www.surechembl.org/

> <PUBCHEM_EXT_SUBSTANCE_URL>
https://www.surechembl.org/chemical/SCHEMBL16122836

> <PUBCHEM_CID_ASSOCIATIONS>
117610973  1

> <PUBCHEM_COORDINATE_TYPE>
1
3

$$$$
