310948118
  -OEChem-07211613022D

 22 24  0     1  0  0  0  0  0999 V2000
    0.7868    2.2714    0.0000 O   0  0  0  0  0  0  0  0  0  0  0  0
   -0.4453    0.0891    0.0000 N   0  0  3  0  0  0  0  0  0  0  0  0
   -1.2619    0.0000    0.0000 N   0  0  0  0  0  0  0  0  0  0  0  0
   -0.7126   -1.2470    0.0000 N   0  0  0  0  0  0  0  0  0  0  0  0
   -0.1039   -0.6829    0.0000 N   0  0  0  0  0  0  0  0  0  0  0  0
    2.0190    1.5588    0.0000 N   0  0  0  0  0  0  0  0  0  0  0  0
   -1.4548   -0.8017    0.0000 C   0  0  0  0  0  0  0  0  0  0  0  0
   -2.1972   -1.1283    0.0000 C   0  0  0  0  0  0  0  0  0  0  0  0
    0.7720    0.8611    0.0000 C   0  0  0  0  0  0  0  0  0  0  0  0
    1.2025    1.5588    0.0000 C   0  0  0  0  0  0  0  0  0  0  0  0
   -0.0297    0.8313    0.0000 C   0  0  0  0  0  0  0  0  0  0  0  0
   -2.2714   -1.9596    0.0000 C   0  0  0  0  0  0  0  0  0  0  0  0
   -2.8949   -0.6681    0.0000 C   0  0  0  0  0  0  0  0  0  0  0  0
    2.4198    0.8611    0.0000 C   0  0  0  0  0  0  0  0  0  0  0  0
    2.4347    2.3011    0.0000 C   0  0  0  0  0  0  0  0  0  0  0  0
    1.2025    0.1188    0.0000 C   0  0  0  0  0  0  0  0  0  0  0  0
   -2.9988   -2.3011    0.0000 C   0  0  0  0  0  0  0  0  0  0  0  0
   -3.6223   -1.0243    0.0000 C   0  0  0  0  0  0  0  0  0  0  0  0
   -3.6818   -1.8408    0.0000 C   0  0  0  0  0  0  0  0  0  0  0  0
    3.2512    0.8462    0.0000 C   0  0  0  0  0  0  0  0  0  0  0  0
    3.2660    2.2863    0.0000 C   0  0  0  0  0  0  0  0  0  0  0  0
    3.6818    1.5737    0.0000 C   0  0  0  0  0  0  0  0  0  0  0  0
  1 10  2  0  0  0  0
  2  3  1  0  0  0  0
  2  5  1  0  0  0  0
  2 11  1  0  0  0  0
  3  7  2  0  0  0  0
  4  5  1  0  0  0  0
  4  7  1  0  0  0  0
  6 10  1  0  0  0  0
  6 14  1  0  0  0  0
  6 15  1  0  0  0  0
  7  8  1  0  0  0  0
  8 12  2  0  0  0  0
  8 13  1  0  0  0  0
  9 10  1  0  0  0  0
  9 11  1  0  0  0  0
  9 16  2  0  0  0  0
 12 17  1  0  0  0  0
 13 18  2  0  0  0  0
 14 20  1  0  0  0  0
 15 21  1  0  0  0  0
 17 19  2  0  0  0  0
 18 19  1  0  0  0  0
 20 22  1  0  0  0  0
 21 22  1  0  0  0  0
M  END
> <PUBCHEM_COMPOUND_ID_TYPE>
0

> <PUBCHEM_TOTAL_CHARGE>
0

> <PUBCHEM_SUBSTANCE_ID>
310948118

> <PUBCHEM_SUBSTANCE_VERSION>
1

> <PUBCHEM_EXT_DATASOURCE_NAME>
4488

> <PUBCHEM_EXT_DATASOURCE_REGID>
SCHEMBL16126294

> <PUBCHEM_SUBSTANCE_COMMENT>
InChI=1S/C16H21N5O/c1-13(16(22)20-10-6-3-7-11-20)12-21-18-15(17-19-21)14-8-4-2-5-9-14/h2,4-5,8-9,19H,1,3,6-7,10-12H2,(H,17,18)
InChIKey=CDYFUPRYJVMTRY-UHFFFAOYSA-N

> <PUBCHEM_SUBSTANCE_SYNONYM>
SCHEMBL16126294

> <PUBCHEM_XREF_EXT_ID>
SCHEMBL16126294

> <PUBCHEM_EXT_DATASOURCE_URL>
https://www.surechembl.org/

> <PUBCHEM_EXT_SUBSTANCE_URL>
https://www.surechembl.org/chemical/SCHEMBL16126294

> <PUBCHEM_CID_ASSOCIATIONS>
117613735  1

> <PUBCHEM_COORDINATE_TYPE>
1
3

$$$$
