310946282
  -OEChem-07211613022D

 27 29  0     1  0  0  0  0  0999 V2000
    3.9645    5.4093    0.0000 S   0  0  0  0  0  0  0  0  0  0  0  0
   -2.7898   10.0160    0.0000 S   0  0  0  0  0  0  0  0  0  0  0  0
    3.1395    5.4093    0.0000 O   0  0  0  0  0  0  0  0  0  0  0  0
    0.2816    5.4093    0.0000 O   0  0  0  0  0  0  0  0  0  0  0  0
    0.2816    8.7093    0.0000 O   0  0  0  0  0  0  0  0  0  0  0  0
    4.3770    4.6948    0.0000 O   0  0  0  0  0  0  0  0  0  0  0  0
    4.3770    6.1238    0.0000 O   0  0  0  0  0  0  0  0  0  0  0  0
    4.7895    5.4093    0.0000 O   0  0  0  0  0  0  0  0  0  0  0  0
   -1.1473    7.8843    0.0000 O   0  0  0  0  0  0  0  0  0  0  0  0
    0.9961    6.6468    0.0000 N   0  0  0  0  0  0  0  0  0  0  0  0
    2.4251    5.8218    0.0000 N   0  0  0  0  0  0  0  0  0  0  0  0
   -0.4328    7.4718    0.0000 N   0  0  0  0  0  0  0  0  0  0  0  0
   -3.5744    8.9361    0.0000 N   0  0  0  0  0  0  0  0  0  0  0  0
   -3.1596    7.3009    0.0000 N   0  0  0  0  0  0  0  0  0  0  0  0
   -4.2889   10.1736    0.0000 N   0  0  0  0  0  0  0  0  0  0  0  0
    0.9961    5.8218    0.0000 C   0  0  0  0  0  0  0  0  0  0  0  0
    2.4251    6.6468    0.0000 C   0  0  3  0  0  0  0  0  0  0  0  0
    0.9961    7.4718    0.0000 C   0  0  3  0  0  0  0  0  0  0  0  0
    1.7106    6.2343    0.0000 C   0  0  0  0  0  0  0  0  0  0  0  0
    2.4251    7.4718    0.0000 C   0  0  0  0  0  0  0  0  0  0  0  0
    1.7106    7.8843    0.0000 C   0  0  0  0  0  0  0  0  0  0  0  0
    0.2816    7.8843    0.0000 C   0  0  0  0  0  0  0  0  0  0  0  0
   -2.7898    8.6812    0.0000 C   0  0  0  0  0  0  0  0  0  0  0  0
   -2.5762    7.8843    0.0000 C   0  0  3  0  0  0  0  0  0  0  0  0
   -1.8618    7.4718    0.0000 C   0  0  0  0  0  0  0  0  0  0  0  0
   -3.5744    9.7611    0.0000 C   0  0  0  0  0  0  0  0  0  0  0  0
   -2.3048    9.3486    0.0000 C   0  0  0  0  0  0  0  0  0  0  0  0
  1  3  1  0  0  0  0
  1  6  2  0  0  0  0
  1  7  2  0  0  0  0
  1  8  1  0  0  0  0
  2 26  1  0  0  0  0
  2 27  1  0  0  0  0
  3 11  1  0  0  0  0
  4 16  2  0  0  0  0
  5 22  2  0  0  0  0
  9 12  1  0  0  0  0
  9 25  1  0  0  0  0
 10 16  1  0  0  0  0
 10 18  1  0  0  0  0
 10 19  1  0  0  0  0
 11 16  1  0  0  0  0
 11 17  1  0  0  0  0
 12 22  1  0  0  0  0
 13 23  1  0  0  0  0
 13 26  2  0  0  0  0
 14 24  1  0  0  0  0
 15 26  1  0  0  0  0
 17 19  1  6  0  0  0
 17 20  1  0  0  0  0
 18 21  1  0  0  0  0
 18 22  1  6  0  0  0
 20 21  1  0  0  0  0
 23 24  1  0  0  0  0
 23 27  2  0  0  0  0
 24 25  1  0  0  0  0
M  END
> <PUBCHEM_COMPOUND_ID_TYPE>
0

> <PUBCHEM_TOTAL_CHARGE>
0

> <PUBCHEM_SUBSTANCE_ID>
310946282

> <PUBCHEM_SUBSTANCE_VERSION>
1

> <PUBCHEM_EXT_DATASOURCE_NAME>
4488

> <PUBCHEM_EXT_DATASOURCE_REGID>
SCHEMBL16124400

> <PUBCHEM_SUBSTANCE_COMMENT>
InChI=1S/C12H18N6O7S2/c13-7(8-5-26-11(14)15-8)4-24-16-10(19)9-2-1-6-3-17(9)12(20)18(6)25-27(21,22)23/h5-7,9H,1-4,13H2,(H2,14,15)(H,16,19)(H,21,22,23)/t6-,7?,9+/m1/s1
InChIKey=QKPABCFJVIBYKW-YUTBPMSOSA-N

> <PUBCHEM_SUBSTANCE_SYNONYM>
SCHEMBL16124400

> <PUBCHEM_XREF_EXT_ID>
SCHEMBL16124400

> <PUBCHEM_EXT_DATASOURCE_URL>
https://www.surechembl.org/

> <PUBCHEM_EXT_SUBSTANCE_URL>
https://www.surechembl.org/chemical/SCHEMBL16124400

> <PUBCHEM_CID_ASSOCIATIONS>
117612230  1

> <PUBCHEM_COORDINATE_TYPE>
1
3

> <PUBCHEM_BONDANNOTATIONS>
17  19  6
18  22  6

$$$$
