310945970
  -OEChem-07211613022D

 38 41  0     1  0  0  0  0  0999 V2000
    3.6365    0.8180    0.0000 O   0  0  0  0  0  0  0  0  0  0  0  0
    1.3817    0.8180    0.0000 O   0  0  0  0  0  0  0  0  0  0  0  0
    0.6668    0.4056    0.0000 O   0  0  0  0  0  0  0  0  0  0  0  0
   -0.0619    0.8180    0.0000 O   0  0  0  0  0  0  0  0  0  0  0  0
   -2.2066    2.8803    0.0000 O   0  0  0  0  0  0  0  0  0  0  0  0
   -2.9215   -3.2927    0.0000 O   0  0  0  0  0  0  0  0  0  0  0  0
    1.3817   -0.8180    0.0000 N   0  0  0  0  0  0  0  0  0  0  0  0
   -0.7630   -0.4056    0.0000 N   0  0  0  0  0  0  0  0  0  0  0  0
   -1.4780    1.6567    0.0000 N   0  0  0  0  0  0  0  0  0  0  0  0
   -2.9215    1.6567    0.0000 N   0  0  0  0  0  0  0  0  0  0  0  0
    2.8116    0.8318    0.0000 C   0  0  3  0  0  0  0  0  0  0  0  0
    2.1104    0.4194    0.0000 C   0  0  0  0  0  0  0  0  0  0  0  0
    3.2240    0.1443    0.0000 C   0  0  0  0  0  0  0  0  0  0  0  0
    2.0829   -0.4056    0.0000 C   0  0  3  0  0  0  0  0  0  0  0  0
    2.8116    1.6704    0.0000 C   0  0  0  0  0  0  0  0  0  0  0  0
    2.8253   -0.8180    0.0000 C   0  0  0  0  0  0  0  0  0  0  0  0
    0.6668   -0.4194    0.0000 C   0  0  0  0  0  0  0  0  0  0  0  0
   -0.0481   -0.8043    0.0000 C   0  0  3  0  0  0  0  0  0  0  0  0
    2.8116   -1.6430    0.0000 C   0  0  0  0  0  0  0  0  0  0  0  0
   -0.7906    0.4194    0.0000 C   0  0  0  0  0  0  0  0  0  0  0  0
   -0.0619   -1.6430    0.0000 C   0  0  0  0  0  0  0  0  0  0  0  0
   -1.4917    0.8318    0.0000 C   0  0  0  0  0  0  0  0  0  0  0  0
   -0.7630   -2.0417    0.0000 C   0  0  0  0  0  0  0  0  0  0  0  0
    3.5265   -2.0554    0.0000 C   0  0  0  0  0  0  0  0  0  0  0  0
    2.0967   -2.0554    0.0000 C   0  0  0  0  0  0  0  0  0  0  0  0
   -2.2066    2.0691    0.0000 C   0  0  0  0  0  0  0  0  0  0  0  0
   -2.2066    0.4330    0.0000 C   0  0  0  0  0  0  0  0  0  0  0  0
   -1.4917   -1.6430    0.0000 C   0  0  0  0  0  0  0  0  0  0  0  0
   -0.7768   -2.8666    0.0000 C   0  0  0  0  0  0  0  0  0  0  0  0
   -2.9078    0.8318    0.0000 C   0  0  0  0  0  0  0  0  0  0  0  0
   -2.1929   -2.8666    0.0000 C   0  0  0  0  0  0  0  0  0  0  0  0
    3.5265   -2.8666    0.0000 C   0  0  0  0  0  0  0  0  0  0  0  0
    2.0967   -2.8666    0.0000 C   0  0  0  0  0  0  0  0  0  0  0  0
   -2.1792   -2.0417    0.0000 C   0  0  0  0  0  0  0  0  0  0  0  0
   -1.4780   -3.2791    0.0000 C   0  0  0  0  0  0  0  0  0  0  0  0
    2.8253   -3.2653    0.0000 C   0  0  0  0  0  0  0  0  0  0  0  0
   -2.9215    3.2927    0.0000 C   0  0  0  0  0  0  0  0  0  0  0  0
   -3.6365   -2.8941    0.0000 C   0  0  0  0  0  0  0  0  0  0  0  0
  1 11  1  0  0  0  0
  1 13  1  0  0  0  0
  2 12  2  0  0  0  0
  3 17  2  0  0  0  0
  4 20  2  0  0  0  0
  5 26  1  0  0  0  0
  5 37  1  0  0  0  0
  6 31  1  0  0  0  0
  6 38  1  0  0  0  0
  7 14  1  0  0  0  0
  7 17  1  0  0  0  0
  8 18  1  0  0  0  0
  8 20  1  0  0  0  0
  9 22  1  0  0  0  0
  9 26  2  0  0  0  0
 10 26  1  0  0  0  0
 10 30  2  0  0  0  0
 11 12  1  0  0  0  0
 11 13  1  0  0  0  0
 11 15  1  0  0  0  0
 12 14  1  0  0  0  0
 14 16  1  0  0  0  0
 16 19  1  0  0  0  0
 17 18  1  0  0  0  0
 18 21  1  0  0  0  0
 19 24  2  0  0  0  0
 19 25  1  0  0  0  0
 20 22  1  0  0  0  0
 21 23  1  0  0  0  0
 22 27  2  0  0  0  0
 23 28  2  0  0  0  0
 23 29  1  0  0  0  0
 24 32  1  0  0  0  0
 25 33  2  0  0  0  0
 27 30  1  0  0  0  0
 28 34  1  0  0  0  0
 29 35  2  0  0  0  0
 31 34  2  0  0  0  0
 31 35  1  0  0  0  0
 32 36  2  0  0  0  0
 33 36  1  0  0  0  0
M  END
> <PUBCHEM_COMPOUND_ID_TYPE>
0

> <PUBCHEM_TOTAL_CHARGE>
0

> <PUBCHEM_SUBSTANCE_ID>
310945970

> <PUBCHEM_SUBSTANCE_VERSION>
1

> <PUBCHEM_EXT_DATASOURCE_NAME>
4488

> <PUBCHEM_EXT_DATASOURCE_REGID>
SCHEMBL16124075

> <PUBCHEM_SUBSTANCE_COMMENT>
InChI=1S/C28H30N4O6/c1-28(17-38-28)24(33)22(15-18-7-5-4-6-8-18)30-26(35)23(16-19-9-11-20(36-2)12-10-19)31-25(34)21-13-14-29-27(32-21)37-3/h4-14,22-23H,15-17H2,1-3H3,(H,30,35)(H,31,34)
InChIKey=ZPNIOTFNXWDICB-UHFFFAOYSA-N

> <PUBCHEM_SUBSTANCE_SYNONYM>
SCHEMBL16124075

> <PUBCHEM_XREF_EXT_ID>
SCHEMBL16124075

> <PUBCHEM_EXT_DATASOURCE_URL>
https://www.surechembl.org/

> <PUBCHEM_EXT_SUBSTANCE_URL>
https://www.surechembl.org/chemical/SCHEMBL16124075

> <PUBCHEM_CID_ASSOCIATIONS>
117611946  1

> <PUBCHEM_COORDINATE_TYPE>
1
3

$$$$
