310942326
  -OEChem-07211613022D

 37 40  0     1  0  0  0  0  0999 V2000
    3.9002    0.2706    0.0000 F   0  0  0  0  0  0  0  0  0  0  0  0
    4.6558   -0.0562    0.0000 F   0  0  0  0  0  0  0  0  0  0  0  0
   -1.1027   -1.9553    0.0000 O   0  0  0  0  0  0  0  0  0  0  0  0
   -2.5423    0.5054    0.0000 O   0  0  0  0  0  0  0  0  0  0  0  0
   -3.9717   -1.9655    0.0000 O   0  0  0  0  0  0  0  0  0  0  0  0
    0.8985   -0.4237    0.0000 N   0  0  0  0  0  0  0  0  0  0  0  0
   -1.8174   -0.7198    0.0000 N   0  0  0  0  0  0  0  0  0  0  0  0
    1.4192   -1.9859    0.0000 N   0  0  0  0  0  0  0  0  0  0  0  0
    3.2672    1.3222    0.0000 N   0  0  0  0  0  0  0  0  0  0  0  0
   -4.6762   -0.7300    0.0000 N   0  0  0  0  0  0  0  0  0  0  0  0
    0.4901    0.2910    0.0000 C   0  0  0  0  0  0  0  0  0  0  0  0
   -0.3982   -0.6994    0.0000 C   0  0  0  0  0  0  0  0  0  0  0  0
    0.3573   -1.0466    0.0000 C   0  0  0  0  0  0  0  0  0  0  0  0
   -0.3165    0.1174    0.0000 C   0  0  0  0  0  0  0  0  0  0  0  0
    0.8168    1.0567    0.0000 C   0  0  3  0  0  0  0  0  0  0  0  0
   -1.1027   -1.1078    0.0000 C   0  0  0  0  0  0  0  0  0  0  0  0
    1.7153   -0.5871    0.0000 C   0  0  0  0  0  0  0  0  0  0  0  0
    0.6126   -1.8123    0.0000 C   0  0  0  0  0  0  0  0  0  0  0  0
    1.6234    1.1384    0.0000 C   0  0  0  0  0  0  0  0  0  0  0  0
   -0.9393    0.6585    0.0000 C   0  0  0  0  0  0  0  0  0  0  0  0
    1.9706   -1.3630    0.0000 C   0  0  0  0  0  0  0  0  0  0  0  0
    0.3165    1.7102    0.0000 C   0  0  0  0  0  0  0  0  0  0  0  0
    1.9604    1.8940    0.0000 C   0  0  0  0  0  0  0  0  0  0  0  0
    2.1033    0.4850    0.0000 C   0  0  0  0  0  0  0  0  0  0  0  0
   -3.2468   -0.7300    0.0000 C   0  0  0  0  0  0  0  0  0  0  0  0
   -2.5219   -1.1384    0.0000 C   0  0  0  0  0  0  0  0  0  0  0  0
   -3.2366    0.0970    0.0000 C   0  0  0  0  0  0  0  0  0  0  0  0
   -3.9717   -1.1078    0.0000 C   0  0  0  0  0  0  0  0  0  0  0  0
    2.7771    1.9859    0.0000 C   0  0  0  0  0  0  0  0  0  0  0  0
    2.9303    0.5667    0.0000 C   0  0  0  0  0  0  0  0  0  0  0  0
   -3.9819    0.4850    0.0000 C   0  0  0  0  0  0  0  0  0  0  0  0
   -4.6660    0.0970    0.0000 C   0  0  0  0  0  0  0  0  0  0  0  0
    4.0841    1.4141    0.0000 C   0  0  0  0  0  0  0  0  0  0  0  0
    4.5639    0.7505    0.0000 C   0  0  0  0  0  0  0  0  0  0  0  0
   -5.4011    0.4952    0.0000 C   0  0  0  0  0  0  0  0  0  0  0  0
   -2.5525    1.3426    0.0000 C   0  0  0  0  0  0  0  0  0  0  0  0
    5.4011    0.8525    0.0000 C   0  0  0  0  0  0  0  0  0  0  0  0
  1 34  1  0  0  0  0
  2 34  1  0  0  0  0
  3 16  2  0  0  0  0
  4 27  1  0  0  0  0
  4 36  1  0  0  0  0
  5 28  2  0  0  0  0
  6 11  1  0  0  0  0
  6 13  1  0  0  0  0
  6 17  1  0  0  0  0
  7 16  1  0  0  0  0
  7 26  1  0  0  0  0
  8 18  2  0  0  0  0
  8 21  1  0  0  0  0
  9 29  1  0  0  0  0
  9 30  1  0  0  0  0
  9 33  1  0  0  0  0
 10 28  1  0  0  0  0
 10 32  1  0  0  0  0
 11 14  2  0  0  0  0
 11 15  1  0  0  0  0
 12 13  2  0  0  0  0
 12 14  1  0  0  0  0
 12 16  1  0  0  0  0
 13 18  1  0  0  0  0
 14 20  1  0  0  0  0
 15 19  1  0  0  0  0
 15 22  1  0  0  0  0
 17 21  2  0  0  0  0
 19 23  1  0  0  0  0
 19 24  1  0  0  0  0
 23 29  1  0  0  0  0
 24 30  1  0  0  0  0
 25 26  1  0  0  0  0
 25 27  2  0  0  0  0
 25 28  1  0  0  0  0
 27 31  1  0  0  0  0
 31 32  2  0  0  0  0
 32 35  1  0  0  0  0
 33 34  1  0  0  0  0
 34 37  1  0  0  0  0
M  END
> <PUBCHEM_COMPOUND_ID_TYPE>
0

> <PUBCHEM_TOTAL_CHARGE>
0

> <PUBCHEM_SUBSTANCE_ID>
310942326

> <PUBCHEM_SUBSTANCE_VERSION>
1

> <PUBCHEM_EXT_DATASOURCE_NAME>
4488

> <PUBCHEM_EXT_DATASOURCE_REGID>
SCHEMBL16120362

> <PUBCHEM_SUBSTANCE_COMMENT>
InChI=1S/C27H35F2N5O3/c1-16-12-22(37-5)20(25(35)32-16)13-31-26(36)23-18(3)24(34-11-8-30-14-21(23)34)17(2)19-6-9-33(10-7-19)15-27(4,28)29/h8,11-12,14,17,19H,6-7,9-10,13,15H2,1-5H3,(H,31,36)(H,32,35)
InChIKey=YMGQXJLIQPKUCM-UHFFFAOYSA-N

> <PUBCHEM_SUBSTANCE_SYNONYM>
SCHEMBL16120362

> <PUBCHEM_XREF_EXT_ID>
SCHEMBL16120362

> <PUBCHEM_EXT_DATASOURCE_URL>
https://www.surechembl.org/

> <PUBCHEM_EXT_SUBSTANCE_URL>
https://www.surechembl.org/chemical/SCHEMBL16120362

> <PUBCHEM_CID_ASSOCIATIONS>
86299773  1

> <PUBCHEM_COORDINATE_TYPE>
1
3

$$$$
