310937127
  -OEChem-07211613022D

 36 37  0     1  0  0  0  0  0999 V2000
   20.2263    0.2648    0.0000 Cl  0  0  0  0  0  0  0  0  0  0  0  0
   11.4316   -0.8250    0.0000 O   0  0  0  0  0  0  0  0  0  0  0  0
   11.0724    2.5920    0.0000 O   0  0  0  0  0  0  0  0  0  0  0  0
   12.0286    1.5301    0.0000 O   0  0  0  0  0  0  0  0  0  0  0  0
   13.5750    1.2375    0.0000 O   0  0  0  0  0  0  0  0  0  0  0  0
   15.7184   -0.8250    0.0000 O   0  0  0  0  0  0  0  0  0  0  0  0
   10.7171    0.4125    0.0000 N   0  0  0  0  0  0  0  0  0  0  0  0
   12.8605    0.0000    0.0000 N   0  0  0  0  0  0  0  0  0  0  0  0
    7.5425   -0.4377    0.0000 N   0  0  0  0  0  0  0  0  0  0  0  0
   15.0039    0.4125    0.0000 N   0  0  0  0  0  0  0  0  0  0  0  0
    9.9634    0.0770    0.0000 C   0  0  0  0  0  0  0  0  0  0  0  0
   10.6308    1.2330    0.0000 C   0  0  3  0  0  0  0  0  0  0  0  0
    9.4114    0.6901    0.0000 C   0  0  0  0  0  0  0  0  0  0  0  0
    9.8239    1.4045    0.0000 C   0  0  0  0  0  0  0  0  0  0  0  0
   11.4316    0.0000    0.0000 C   0  0  0  0  0  0  0  0  0  0  0  0
    9.7084   -0.7077    0.0000 C   0  0  0  0  0  0  0  0  0  0  0  0
   11.2439    1.7850    0.0000 C   0  0  0  0  0  0  0  0  0  0  0  0
    8.6044    0.5185    0.0000 C   0  0  0  0  0  0  0  0  0  0  0  0
    8.3495   -0.2661    0.0000 C   0  0  0  0  0  0  0  0  0  0  0  0
    8.9015   -0.8792    0.0000 C   0  0  0  0  0  0  0  0  0  0  0  0
   12.1460    0.4125    0.0000 C   0  0  0  0  0  0  0  0  0  0  0  0
   13.5750    0.4125    0.0000 C   0  0  0  0  0  0  0  0  0  0  0  0
   14.2894    0.0000    0.0000 C   0  0  3  0  0  0  0  0  0  0  0  0
   14.2894   -0.8250    0.0000 C   0  0  3  0  0  0  0  0  0  0  0  0
   15.7184    0.0000    0.0000 C   0  0  0  0  0  0  0  0  0  0  0  0
   16.4328    0.4125    0.0000 C   0  0  0  0  0  0  0  0  0  0  0  0
   15.0039   -1.2375    0.0000 C   0  0  0  0  0  0  0  0  0  0  0  0
   17.1473    0.0000    0.0000 C   0  0  0  0  0  0  0  0  0  0  0  0
   13.5750   -1.2375    0.0000 C   0  0  0  0  0  0  0  0  0  0  0  0
   17.1473   -0.8250    0.0000 C   0  0  0  0  0  0  0  0  0  0  0  0
   17.8618    0.4125    0.0000 C   0  0  0  0  0  0  0  0  0  0  0  0
   15.0039   -2.0625    0.0000 C   0  0  0  0  0  0  0  0  0  0  0  0
   17.8618   -1.2375    0.0000 C   0  0  0  0  0  0  0  0  0  0  0  0
   18.5763    0.0000    0.0000 C   0  0  0  0  0  0  0  0  0  0  0  0
   18.5763   -0.8250    0.0000 C   0  0  0  0  0  0  0  0  0  0  0  0
   19.4013    0.2648    0.0000 H   0  0  0  0  0  0  0  0  0  0  0  0
  1 36  1  0  0  0  0
  2 15  2  0  0  0  0
  3 17  2  0  0  0  0
  4 17  1  0  0  0  0
  5 22  2  0  0  0  0
  6 25  2  0  0  0  0
  7 11  1  0  0  0  0
  7 12  1  0  0  0  0
  7 15  1  0  0  0  0
  8 21  1  0  0  0  0
  8 22  1  0  0  0  0
  9 19  1  0  0  0  0
 23 10  1  1  0  0  0
 10 25  1  0  0  0  0
 11 13  2  0  0  0  0
 11 16  1  0  0  0  0
 12 14  1  0  0  0  0
 12 17  1  1  0  0  0
 13 14  1  0  0  0  0
 13 18  1  0  0  0  0
 15 21  1  0  0  0  0
 16 20  2  0  0  0  0
 18 19  2  0  0  0  0
 19 20  1  0  0  0  0
 22 23  1  0  0  0  0
 23 24  1  0  0  0  0
 24 27  1  0  0  0  0
 24 29  1  6  0  0  0
 25 26  1  0  0  0  0
 26 28  1  0  0  0  0
 27 32  1  0  0  0  0
 28 30  2  0  0  0  0
 28 31  1  0  0  0  0
 30 33  1  0  0  0  0
 31 34  2  0  0  0  0
 33 35  2  0  0  0  0
 34 35  1  0  0  0  0
M  END
> <PUBCHEM_COMPOUND_ID_TYPE>
0

> <PUBCHEM_TOTAL_CHARGE>
0

> <PUBCHEM_SUBSTANCE_ID>
310937127

> <PUBCHEM_SUBSTANCE_VERSION>
1

> <PUBCHEM_EXT_DATASOURCE_NAME>
4488

> <PUBCHEM_EXT_DATASOURCE_REGID>
SCHEMBL16114846

> <PUBCHEM_SUBSTANCE_COMMENT>
InChI=1S/C25H30N4O5.ClH/c1-3-15(2)23(28-21(30)11-16-7-5-4-6-8-16)24(32)27-14-22(31)29-19-10-9-18(26)12-17(19)13-20(29)25(33)34;/h4-10,12,15,20,23H,3,11,13-14,26H2,1-2H3,(H,27,32)(H,28,30)(H,33,34);1H/t15-,20-,23-;/m0./s1
InChIKey=IWNLMLBGKQJEKQ-IAGTVPLLSA-N

> <PUBCHEM_SUBSTANCE_SYNONYM>
SCHEMBL16114846

> <PUBCHEM_XREF_EXT_ID>
SCHEMBL16114846

> <PUBCHEM_EXT_DATASOURCE_URL>
https://www.surechembl.org/

> <PUBCHEM_EXT_SUBSTANCE_URL>
https://www.surechembl.org/chemical/SCHEMBL16114846

> <PUBCHEM_CID_ASSOCIATIONS>
117604955  1
313  2
117604956  2

> <PUBCHEM_COORDINATE_TYPE>
1
3

> <PUBCHEM_BONDANNOTATIONS>
23  10  5
12  17  5
24  29  6

$$$$
