310931326
  -OEChem-07211613022D

 26 29  0     1  0  0  0  0  0999 V2000
    5.1868   -3.4744    0.0000 O   0  0  0  0  0  0  0  0  0  0  0  0
    0.0000   -0.8189    0.0000 O   0  0  0  0  0  0  0  0  0  0  0  0
    0.6949   -2.0598    0.0000 N   0  0  0  0  0  0  0  0  0  0  0  0
    1.4394   -0.8189    0.0000 N   0  0  0  0  0  0  0  0  0  0  0  0
    5.6087   -2.7547    0.0000 N   0  0  0  0  0  0  0  0  0  0  0  0
    2.1591   -2.0598    0.0000 C   0  0  0  0  0  0  0  0  0  0  0  0
    1.4394   -2.4817    0.0000 C   0  0  3  0  0  0  0  0  0  0  0  0
    2.1591   -1.2409    0.0000 C   0  0  0  0  0  0  0  0  0  0  0  0
    3.5736   -2.0598    0.0000 C   0  0  0  0  0  0  0  0  0  0  0  0
    0.6949   -1.2409    0.0000 C   0  0  0  0  0  0  0  0  0  0  0  0
    2.8540   -2.4817    0.0000 C   0  0  0  0  0  0  0  0  0  0  0  0
    4.2934   -2.4817    0.0000 C   0  0  0  0  0  0  0  0  0  0  0  0
    1.4394   -3.3007    0.0000 C   0  0  0  0  0  0  0  0  0  0  0  0
    2.8540   -0.8189    0.0000 C   0  0  0  0  0  0  0  0  0  0  0  0
    3.5736   -1.2409    0.0000 C   0  0  0  0  0  0  0  0  0  0  0  0
    4.3926   -3.3007    0.0000 C   0  0  0  0  0  0  0  0  0  0  0  0
    5.0379   -2.1591    0.0000 C   0  0  0  0  0  0  0  0  0  0  0  0
    2.1591   -3.7226    0.0000 C   0  0  0  0  0  0  0  0  0  0  0  0
    0.7197   -3.7226    0.0000 C   0  0  0  0  0  0  0  0  0  0  0  0
    0.0000   -2.4817    0.0000 C   0  0  0  0  0  0  0  0  0  0  0  0
    1.4394    0.0000    0.0000 C   0  0  0  0  0  0  0  0  0  0  0  0
    2.1591   -4.5415    0.0000 C   0  0  0  0  0  0  0  0  0  0  0  0
    0.7197   -4.5415    0.0000 C   0  0  0  0  0  0  0  0  0  0  0  0
    3.7970   -3.8714    0.0000 C   0  0  0  0  0  0  0  0  0  0  0  0
    5.2116   -1.3401    0.0000 C   0  0  0  0  0  0  0  0  0  0  0  0
    1.4394   -4.9634    0.0000 C   0  0  0  0  0  0  0  0  0  0  0  0
  1  5  1  0  0  0  0
  1 16  1  0  0  0  0
  2 10  2  0  0  0  0
  3  7  1  0  0  0  0
  3 10  1  0  0  0  0
  3 20  1  0  0  0  0
  4  8  1  0  0  0  0
  4 10  1  0  0  0  0
  4 21  1  0  0  0  0
  5 17  2  0  0  0  0
  6  7  1  0  0  0  0
  6  8  2  0  0  0  0
  6 11  1  0  0  0  0
  7 13  1  0  0  0  0
  8 14  1  0  0  0  0
  9 11  2  0  0  0  0
  9 12  1  0  0  0  0
  9 15  1  0  0  0  0
 12 16  2  0  0  0  0
 12 17  1  0  0  0  0
 13 18  2  0  0  0  0
 13 19  1  0  0  0  0
 14 15  2  0  0  0  0
 16 24  1  0  0  0  0
 17 25  1  0  0  0  0
 18 22  1  0  0  0  0
 19 23  2  0  0  0  0
 22 26  2  0  0  0  0
 23 26  1  0  0  0  0
M  END
> <PUBCHEM_COMPOUND_ID_TYPE>
0

> <PUBCHEM_TOTAL_CHARGE>
0

> <PUBCHEM_SUBSTANCE_ID>
310931326

> <PUBCHEM_SUBSTANCE_VERSION>
1

> <PUBCHEM_EXT_DATASOURCE_NAME>
4488

> <PUBCHEM_EXT_DATASOURCE_REGID>
SCHEMBL16108644

> <PUBCHEM_SUBSTANCE_COMMENT>
InChI=1S/C21H21N3O2/c1-13-19(14(2)26-22-13)16-10-11-18-17(12-16)20(15-8-6-5-7-9-15)24(4)21(25)23(18)3/h5-12,20H,1-4H3
InChIKey=SLBFOXCUQSFZOQ-UHFFFAOYSA-N

> <PUBCHEM_SUBSTANCE_SYNONYM>
SCHEMBL16108644

> <PUBCHEM_XREF_EXT_ID>
SCHEMBL16108644

> <PUBCHEM_EXT_DATASOURCE_URL>
https://www.surechembl.org/

> <PUBCHEM_EXT_SUBSTANCE_URL>
https://www.surechembl.org/chemical/SCHEMBL16108644

> <PUBCHEM_CID_ASSOCIATIONS>
86273097  1

> <PUBCHEM_COORDINATE_TYPE>
1
3

$$$$
