310931696
  -OEChem-07211613022D

 31 34  0     1  0  0  0  0  0999 V2000
    2.8652   -2.1148    0.0000 O   0  0  0  0  0  0  0  0  0  0  0  0
    0.1364   -2.3877    0.0000 O   0  0  0  0  0  0  0  0  0  0  0  0
    7.3677   -2.2171    0.0000 O   0  0  0  0  0  0  0  0  0  0  0  0
    8.0841   -2.6265    0.0000 O   0  0  0  0  0  0  0  0  0  0  0  0
    3.7862   -0.9892    0.0000 N   0  0  0  0  0  0  0  0  0  0  0  0
    3.6839   -0.1364    0.0000 N   0  0  0  0  0  0  0  0  0  0  0  0
    5.2188   -0.9892    0.0000 N   0  0  0  0  0  0  0  0  0  0  0  0
    0.0000   -0.9892    0.0000 N   0  0  0  0  0  0  0  0  0  0  0  0
    6.6514   -3.4451    0.0000 N   0  0  0  0  0  0  0  0  0  0  0  0
    9.5166   -3.4792    0.0000 N   0  0  3  0  0  0  0  0  0  0  0  0
    2.4559   -0.7163    0.0000 C   0  0  0  0  0  0  0  0  0  0  0  0
    3.0358   -1.3303    0.0000 C   0  0  0  0  0  0  0  0  0  0  0  0
    4.5025   -1.3985    0.0000 C   0  0  0  0  0  0  0  0  0  0  0  0
    1.6373   -0.8186    0.0000 C   0  0  0  0  0  0  0  0  0  0  0  0
    2.8652    0.0000    0.0000 C   0  0  0  0  0  0  0  0  0  0  0  0
    4.5025   -2.2171    0.0000 C   0  0  0  0  0  0  0  0  0  0  0  0
    1.3303   -1.5691    0.0000 C   0  0  0  0  0  0  0  0  0  0  0  0
    5.9351   -2.2171    0.0000 C   0  0  0  0  0  0  0  0  0  0  0  0
    1.1598   -0.1364    0.0000 C   0  0  0  0  0  0  0  0  0  0  0  0
    5.9351   -1.3985    0.0000 C   0  0  0  0  0  0  0  0  0  0  0  0
    5.2188   -2.6265    0.0000 C   0  0  0  0  0  0  0  0  0  0  0  0
    0.4775   -1.6373    0.0000 C   0  0  0  0  0  0  0  0  0  0  0  0
    6.6514   -2.6265    0.0000 C   0  0  0  0  0  0  0  0  0  0  0  0
    0.3411   -0.2046    0.0000 C   0  0  0  0  0  0  0  0  0  0  0  0
    8.0841   -3.4451    0.0000 C   0  0  3  0  0  0  0  0  0  0  0  0
    7.3677   -3.8544    0.0000 C   0  0  0  0  0  0  0  0  0  0  0  0
    8.8004   -3.8544    0.0000 C   0  0  0  0  0  0  0  0  0  0  0  0
    9.5166   -2.6265    0.0000 C   0  0  0  0  0  0  0  0  0  0  0  0
    8.8004   -2.2171    0.0000 C   0  0  0  0  0  0  0  0  0  0  0  0
    0.6140   -3.0699    0.0000 C   0  0  0  0  0  0  0  0  0  0  0  0
   10.2330   -3.8885    0.0000 C   0  0  0  0  0  0  0  0  0  0  0  0
  1 12  1  0  0  0  0
  2 22  1  0  0  0  0
  2 30  1  0  0  0  0
  3 23  2  0  0  0  0
  4 25  1  0  0  0  0
  4 29  1  0  0  0  0
  5  6  1  0  0  0  0
  5 12  1  0  0  0  0
  5 13  1  0  0  0  0
  6 15  2  0  0  0  0
  7 13  2  0  0  0  0
  7 20  1  0  0  0  0
  8 22  1  0  0  0  0
  8 24  2  0  0  0  0
  9 23  1  0  0  0  0
  9 26  1  0  0  0  0
 10 27  1  0  0  0  0
 10 28  1  0  0  0  0
 10 31  1  0  0  0  0
 11 12  2  0  0  0  0
 11 14  1  0  0  0  0
 11 15  1  0  0  0  0
 13 16  1  0  0  0  0
 14 17  1  0  0  0  0
 14 19  2  0  0  0  0
 16 21  2  0  0  0  0
 17 22  2  0  0  0  0
 18 20  2  0  0  0  0
 18 21  1  0  0  0  0
 18 23  1  0  0  0  0
 19 24  1  0  0  0  0
 25 26  1  0  0  0  0
 25 27  1  0  0  0  0
 28 29  1  0  0  0  0
M  END
> <PUBCHEM_COMPOUND_ID_TYPE>
0

> <PUBCHEM_TOTAL_CHARGE>
0

> <PUBCHEM_SUBSTANCE_ID>
310931696

> <PUBCHEM_SUBSTANCE_VERSION>
1

> <PUBCHEM_EXT_DATASOURCE_NAME>
4488

> <PUBCHEM_EXT_DATASOURCE_REGID>
SCHEMBL16109023

> <PUBCHEM_SUBSTANCE_COMMENT>
InChI=1S/C21H24N6O4/c1-26-7-8-31-16(13-26)11-24-20(28)15-3-4-18(23-10-15)27-21(29)17(12-25-27)14-5-6-22-19(9-14)30-2/h3-6,9-10,12,16,29H,7-8,11,13H2,1-2H3,(H,24,28)
InChIKey=HQQNRPKZBMSXOO-UHFFFAOYSA-N

> <PUBCHEM_SUBSTANCE_SYNONYM>
SCHEMBL16109023

> <PUBCHEM_XREF_EXT_ID>
SCHEMBL16109023

> <PUBCHEM_EXT_DATASOURCE_URL>
https://www.surechembl.org/

> <PUBCHEM_EXT_SUBSTANCE_URL>
https://www.surechembl.org/chemical/SCHEMBL16109023

> <PUBCHEM_CID_ASSOCIATIONS>
117600398  1

> <PUBCHEM_COORDINATE_TYPE>
1
3

$$$$
