310938372
  -OEChem-07211613022D

 40 44  0     1  0  0  0  0  0999 V2000
    4.9354   -5.1252    0.0000 O   0  0  0  0  0  0  0  0  0  0  0  0
    3.4801   -2.5310    0.0000 O   0  0  0  0  0  0  0  0  0  0  0  0
    1.9615  -12.6547    0.0000 O   0  0  0  0  0  0  0  0  0  0  0  0
    3.4168  -12.6547    0.0000 O   0  0  0  0  0  0  0  0  0  0  0  0
    1.3920   -4.4925    0.0000 N   0  0  3  0  0  0  0  0  0  0  0  0
    4.1760   -3.8597    0.0000 N   0  0  0  0  0  0  0  0  0  0  0  0
    2.0247   -8.4787    0.0000 N   0  0  0  0  0  0  0  0  0  0  0  0
    2.7208   -9.6809    0.0000 N   0  0  0  0  0  0  0  0  0  0  0  0
    2.7208  -11.3892    0.0000 N   0  0  0  0  0  0  0  0  0  0  0  0
    4.2393   -1.2655    0.0000 N   0  0  0  0  0  0  0  0  0  0  0  0
    2.0247   -5.0619    0.0000 C   0  0  0  0  0  0  0  0  0  0  0  0
    2.7208   -4.6823    0.0000 C   0  0  0  0  0  0  0  0  0  0  0  0
    3.4801   -5.0619    0.0000 C   0  0  0  0  0  0  0  0  0  0  0  0
    2.7208   -6.3274    0.0000 C   0  0  0  0  0  0  0  0  0  0  0  0
    1.9615   -5.9477    0.0000 C   0  0  0  0  0  0  0  0  0  0  0  0
    3.4168   -5.9477    0.0000 C   0  0  0  0  0  0  0  0  0  0  0  0
    2.5310   -3.7964    0.0000 C   0  0  0  0  0  0  0  0  0  0  0  0
    2.7208   -7.1499    0.0000 C   0  0  0  0  0  0  0  0  0  0  0  0
    4.1760   -4.6823    0.0000 C   0  0  0  0  0  0  0  0  0  0  0  0
    1.7084   -3.7331    0.0000 C   0  0  0  0  0  0  0  0  0  0  0  0
    0.5062   -4.6823    0.0000 C   0  0  0  0  0  0  0  0  0  0  0  0
    1.9615   -7.5928    0.0000 C   0  0  0  0  0  0  0  0  0  0  0  0
    3.4168   -7.5928    0.0000 C   0  0  0  0  0  0  0  0  0  0  0  0
    2.7208   -8.8583    0.0000 C   0  0  0  0  0  0  0  0  0  0  0  0
    3.4801   -8.4154    0.0000 C   0  0  0  0  0  0  0  0  0  0  0  0
    4.9354   -2.5942    0.0000 C   0  0  0  0  0  0  0  0  0  0  0  0
    4.9354   -3.4168    0.0000 C   0  0  0  0  0  0  0  0  0  0  0  0
    4.2393   -2.0881    0.0000 C   0  0  0  0  0  0  0  0  0  0  0  0
    5.6946   -2.1513    0.0000 C   0  0  0  0  0  0  0  0  0  0  0  0
    0.2531   -5.4415    0.0000 C   0  0  0  0  0  0  0  0  0  0  0  0
    0.0000   -4.0495    0.0000 C   0  0  0  0  0  0  0  0  0  0  0  0
    2.0247  -10.1238    0.0000 C   0  0  0  0  0  0  0  0  0  0  0  0
    3.4801  -10.1238    0.0000 C   0  0  0  0  0  0  0  0  0  0  0  0
    5.6946   -1.3287    0.0000 C   0  0  0  0  0  0  0  0  0  0  0  0
    4.9986   -0.8226    0.0000 C   0  0  0  0  0  0  0  0  0  0  0  0
    3.4801  -10.9463    0.0000 C   0  0  0  0  0  0  0  0  0  0  0  0
    2.0247  -10.9463    0.0000 C   0  0  0  0  0  0  0  0  0  0  0  0
    2.7208  -12.2118    0.0000 C   0  0  0  0  0  0  0  0  0  0  0  0
    6.4539   -2.5310    0.0000 C   0  0  0  0  0  0  0  0  0  0  0  0
    4.9986    0.0000    0.0000 C   0  0  0  0  0  0  0  0  0  0  0  0
  1 19  2  0  0  0  0
  2 28  2  0  0  0  0
  3 38  2  0  0  0  0
  4 38  1  0  0  0  0
  5 11  1  0  0  0  0
  5 20  1  0  0  0  0
  5 21  1  0  0  0  0
  6 19  1  0  0  0  0
  6 27  1  0  0  0  0
  7 22  2  0  0  0  0
  7 24  1  0  0  0  0
  8 24  1  0  0  0  0
  8 32  1  0  0  0  0
  8 33  1  0  0  0  0
  9 36  1  0  0  0  0
  9 37  1  0  0  0  0
  9 38  1  0  0  0  0
 10 28  1  0  0  0  0
 10 35  1  0  0  0  0
 11 12  2  0  0  0  0
 11 15  1  0  0  0  0
 12 13  1  0  0  0  0
 12 17  1  0  0  0  0
 13 16  2  0  0  0  0
 13 19  1  0  0  0  0
 14 15  2  0  0  0  0
 14 16  1  0  0  0  0
 14 18  1  0  0  0  0
 17 20  1  0  0  0  0
 18 22  1  0  0  0  0
 18 23  2  0  0  0  0
 21 30  1  0  0  0  0
 21 31  1  0  0  0  0
 23 25  1  0  0  0  0
 24 25  2  0  0  0  0
 26 27  1  0  0  0  0
 26 28  1  0  0  0  0
 26 29  2  0  0  0  0
 29 34  1  0  0  0  0
 29 39  1  0  0  0  0
 32 37  1  0  0  0  0
 33 36  1  0  0  0  0
 34 35  2  0  0  0  0
 35 40  1  0  0  0  0
M  END
> <PUBCHEM_COMPOUND_ID_TYPE>
0

> <PUBCHEM_TOTAL_CHARGE>
0

> <PUBCHEM_SUBSTANCE_ID>
310938372

> <PUBCHEM_SUBSTANCE_VERSION>
1

> <PUBCHEM_EXT_DATASOURCE_NAME>
4488

> <PUBCHEM_EXT_DATASOURCE_REGID>
SCHEMBL16116259

> <PUBCHEM_SUBSTANCE_COMMENT>
InChI=1S/C30H36N6O4/c1-18(2)36-8-7-23-24(28(37)32-17-25-19(3)13-20(4)33-29(25)38)14-22(15-26(23)36)21-5-6-27(31-16-21)34-9-11-35(12-10-34)30(39)40/h5-6,13-16,18H,7-12,17H2,1-4H3,(H,32,37)(H,33,38)(H,39,40)
InChIKey=CCDWPNQFVQEZBE-UHFFFAOYSA-N

> <PUBCHEM_SUBSTANCE_SYNONYM>
SCHEMBL16116259

> <PUBCHEM_XREF_EXT_ID>
SCHEMBL16116259

> <PUBCHEM_EXT_DATASOURCE_URL>
https://www.surechembl.org/

> <PUBCHEM_EXT_SUBSTANCE_URL>
https://www.surechembl.org/chemical/SCHEMBL16116259

> <PUBCHEM_CID_ASSOCIATIONS>
117605854  1

> <PUBCHEM_COORDINATE_TYPE>
1
3

$$$$
