310942373
  -OEChem-07211613022D

 23 25  0     1  0  0  0  0  0999 V2000
   -1.7667   -2.4652    0.0000 O   0  0  0  0  0  0  0  0  0  0  0  0
   -2.4926   -1.2326    0.0000 O   0  0  0  0  0  0  0  0  0  0  0  0
    0.6300    2.1639    0.0000 O   0  0  0  0  0  0  0  0  0  0  0  0
    0.2054   -0.8218    0.0000 N   0  0  0  0  0  0  0  0  0  0  0  0
    1.0271   -0.9587    0.0000 N   0  0  0  0  0  0  0  0  0  0  0  0
    1.9722    1.6709    0.0000 N   0  0  0  0  0  0  0  0  0  0  0  0
   -0.2602   -0.1507    0.0000 C   0  0  0  0  0  0  0  0  0  0  0  0
   -0.3013   -1.4791    0.0000 C   0  0  0  0  0  0  0  0  0  0  0  0
   -1.0819   -1.1778    0.0000 C   0  0  0  0  0  0  0  0  0  0  0  0
   -1.0271   -0.3698    0.0000 C   0  0  0  0  0  0  0  0  0  0  0  0
    0.0411    0.6437    0.0000 C   0  0  3  0  0  0  0  0  0  0  0  0
    0.8628    0.7533    0.0000 C   0  0  0  0  0  0  0  0  0  0  0  0
   -1.7667   -1.6161    0.0000 C   0  0  0  0  0  0  0  0  0  0  0  0
    0.0000   -2.2461    0.0000 C   0  0  0  0  0  0  0  0  0  0  0  0
    1.1778    1.5202    0.0000 C   0  0  0  0  0  0  0  0  0  0  0  0
   -1.7120    0.1507    0.0000 C   0  0  0  0  0  0  0  0  0  0  0  0
    1.3284   -1.7393    0.0000 C   0  0  0  0  0  0  0  0  0  0  0  0
    1.3832    0.1233    0.0000 C   0  0  0  0  0  0  0  0  0  0  0  0
    0.8080   -2.3694    0.0000 C   0  0  0  0  0  0  0  0  0  0  0  0
   -0.4930    1.2737    0.0000 C   0  0  0  0  0  0  0  0  0  0  0  0
    2.1913    0.2465    0.0000 C   0  0  0  0  0  0  0  0  0  0  0  0
    2.4926    1.0271    0.0000 C   0  0  0  0  0  0  0  0  0  0  0  0
    2.2598    2.4652    0.0000 C   0  0  0  0  0  0  0  0  0  0  0  0
  1 13  2  0  0  0  0
  2 13  1  0  0  0  0
  3 15  2  0  0  0  0
  4  5  1  0  0  0  0
  4  7  1  0  0  0  0
  4  8  1  0  0  0  0
  5 17  2  0  0  0  0
  6 15  1  0  0  0  0
  6 22  1  0  0  0  0
  6 23  1  0  0  0  0
  7 10  2  0  0  0  0
  7 11  1  0  0  0  0
  8  9  2  0  0  0  0
  8 14  1  0  0  0  0
  9 10  1  0  0  0  0
  9 13  1  0  0  0  0
 10 16  1  0  0  0  0
 11 12  1  0  0  0  0
 11 20  1  0  0  0  0
 12 15  1  0  0  0  0
 12 18  2  0  0  0  0
 14 19  2  0  0  0  0
 17 19  1  0  0  0  0
 18 21  1  0  0  0  0
 21 22  2  0  0  0  0
M  END
> <PUBCHEM_COMPOUND_ID_TYPE>
0

> <PUBCHEM_TOTAL_CHARGE>
0

> <PUBCHEM_SUBSTANCE_ID>
310942373

> <PUBCHEM_SUBSTANCE_VERSION>
1

> <PUBCHEM_EXT_DATASOURCE_NAME>
4488

> <PUBCHEM_EXT_DATASOURCE_REGID>
SCHEMBL16120409

> <PUBCHEM_SUBSTANCE_COMMENT>
InChI=1S/C17H17N3O3/c1-10(12-6-5-9-19(3)16(12)21)15-11(2)14(17(22)23)13-7-4-8-18-20(13)15/h4-10H,1-3H3,(H,22,23)
InChIKey=OECAEGCYGVEAHD-UHFFFAOYSA-N

> <PUBCHEM_SUBSTANCE_SYNONYM>
SCHEMBL16120409

> <PUBCHEM_XREF_EXT_ID>
SCHEMBL16120409

> <PUBCHEM_EXT_DATASOURCE_URL>
https://www.surechembl.org/

> <PUBCHEM_EXT_SUBSTANCE_URL>
https://www.surechembl.org/chemical/SCHEMBL16120409

> <PUBCHEM_CID_ASSOCIATIONS>
117608989  1

> <PUBCHEM_COORDINATE_TYPE>
1
3

$$$$
