310934192
  -OEChem-07211613022D

 25 27  0     1  0  0  0  0  0999 V2000
    7.1776   -2.0337    0.0000 F   0  0  0  0  0  0  0  0  0  0  0  0
    0.0000   -2.8950    0.0000 F   0  0  0  0  0  0  0  0  0  0  0  0
    3.5888   -0.8134    0.0000 O   0  0  0  0  0  0  0  0  0  0  0  0
    5.1918   -0.9809    0.0000 O   0  0  0  0  0  0  0  0  0  0  0  0
    1.4355   -4.5458    0.0000 N   0  0  0  0  0  0  0  0  0  0  0  0
    4.3065   -2.0576    0.0000 C   0  0  3  0  0  0  0  0  0  0  0  0
    5.0243   -1.6269    0.0000 C   0  0  0  0  0  0  0  0  0  0  0  0
    4.3065   -1.2202    0.0000 C   0  0  0  0  0  0  0  0  0  0  0  0
    4.3065   -2.8950    0.0000 C   0  0  0  0  0  0  0  0  0  0  0  0
    3.5888   -1.6508    0.0000 C   0  0  0  0  0  0  0  0  0  0  0  0
    5.7420   -2.0337    0.0000 C   0  0  0  0  0  0  0  0  0  0  0  0
    2.8710   -2.8950    0.0000 C   0  0  0  0  0  0  0  0  0  0  0  0
    5.0243   -0.7895    0.0000 C   0  0  0  0  0  0  0  0  0  0  0  0
    3.6127   -3.3017    0.0000 C   0  0  0  0  0  0  0  0  0  0  0  0
    2.8710   -2.0576    0.0000 C   0  0  0  0  0  0  0  0  0  0  0  0
    6.4598   -1.6269    0.0000 C   0  0  0  0  0  0  0  0  0  0  0  0
    2.1533   -3.3017    0.0000 C   0  0  0  0  0  0  0  0  0  0  0  0
    5.7420   -0.3828    0.0000 C   0  0  0  0  0  0  0  0  0  0  0  0
    6.4598   -0.7895    0.0000 C   0  0  0  0  0  0  0  0  0  0  0  0
    5.7659   -2.8710    0.0000 C   0  0  0  0  0  0  0  0  0  0  0  0
    1.4355   -2.8950    0.0000 C   0  0  0  0  0  0  0  0  0  0  0  0
    2.1293   -4.1390    0.0000 C   0  0  0  0  0  0  0  0  0  0  0  0
    0.7178   -3.3017    0.0000 C   0  0  0  0  0  0  0  0  0  0  0  0
    0.6938   -4.1390    0.0000 C   0  0  0  0  0  0  0  0  0  0  0  0
    3.5888    0.0000    0.0000 C   0  0  0  0  0  0  0  0  0  0  0  0
  1 16  1  0  0  0  0
  2 23  1  0  0  0  0
  3  8  1  0  0  0  0
  3 25  1  0  0  0  0
  4  8  2  0  0  0  0
  5 22  1  0  0  0  0
  5 24  2  0  0  0  0
  6  7  1  0  0  0  0
  6  8  1  0  0  0  0
  6  9  1  0  0  0  0
  6 10  1  0  0  0  0
  7 11  1  0  0  0  0
  7 13  2  0  0  0  0
  9 14  1  0  0  0  0
 10 15  1  0  0  0  0
 11 16  2  0  0  0  0
 11 20  1  0  0  0  0
 12 14  2  0  0  0  0
 12 15  1  0  0  0  0
 12 17  1  0  0  0  0
 13 18  1  0  0  0  0
 16 19  1  0  0  0  0
 17 21  1  0  0  0  0
 17 22  2  0  0  0  0
 18 19  2  0  0  0  0
 21 23  2  0  0  0  0
 23 24  1  0  0  0  0
M  END
> <PUBCHEM_COMPOUND_ID_TYPE>
0

> <PUBCHEM_TOTAL_CHARGE>
0

> <PUBCHEM_SUBSTANCE_ID>
310934192

> <PUBCHEM_SUBSTANCE_VERSION>
1

> <PUBCHEM_EXT_DATASOURCE_NAME>
4488

> <PUBCHEM_EXT_DATASOURCE_REGID>
SCHEMBL16111647

> <PUBCHEM_SUBSTANCE_COMMENT>
InChI=1S/C20H19F2NO2/c1-13-17(4-3-5-18(13)22)20(19(24)25-2)8-6-14(7-9-20)15-10-16(21)12-23-11-15/h3-6,10-12H,7-9H2,1-2H3
InChIKey=GFONQPNJOGDOHU-UHFFFAOYSA-N

> <PUBCHEM_SUBSTANCE_SYNONYM>
SCHEMBL16111647

> <PUBCHEM_XREF_EXT_ID>
SCHEMBL16111647

> <PUBCHEM_EXT_DATASOURCE_URL>
https://www.surechembl.org/

> <PUBCHEM_EXT_SUBSTANCE_URL>
https://www.surechembl.org/chemical/SCHEMBL16111647

> <PUBCHEM_CID_ASSOCIATIONS>
117602464  1

> <PUBCHEM_COORDINATE_TYPE>
1
3

$$$$
