310935267
  -OEChem-07211613022D

 22 24  0     1  0  0  0  0  0999 V2000
    2.8907   -0.0567    0.0000 S   0  0  0  0  0  0  0  0  0  0  0  0
    0.7368   -1.2469    0.0000 O   0  0  0  0  0  0  0  0  0  0  0  0
    4.7611   -1.2753    0.0000 N   0  0  3  0  0  0  0  0  0  0  0  0
    2.2389   -1.2186    0.0000 N   0  0  0  0  0  0  0  0  0  0  0  0
    1.4453    0.0000    0.0000 N   0  0  0  0  0  0  0  0  0  0  0  0
    3.4575   -0.6802    0.0000 C   0  0  0  0  0  0  0  0  0  0  0  0
    2.1538   -0.3967    0.0000 C   0  0  0  0  0  0  0  0  0  0  0  0
    6.0648   -1.8421    0.0000 C   0  0  3  0  0  0  0  0  0  0  0  0
    4.2793   -0.5951    0.0000 C   0  0  0  0  0  0  0  0  0  0  0  0
    5.5830   -1.1903    0.0000 C   0  0  0  0  0  0  0  0  0  0  0  0
    3.0323   -1.3887    0.0000 C   0  0  0  0  0  0  0  0  0  0  0  0
    6.8866   -1.7571    0.0000 C   0  0  0  0  0  0  0  0  0  0  0  0
    4.4210   -2.0121    0.0000 C   0  0  0  0  0  0  0  0  0  0  0  0
    5.6963   -2.6073    0.0000 C   0  0  0  0  0  0  0  0  0  0  0  0
    4.8745   -2.6639    0.0000 C   0  0  0  0  0  0  0  0  0  0  0  0
    7.2266   -1.0203    0.0000 C   0  0  0  0  0  0  0  0  0  0  0  0
    7.3400   -2.4372    0.0000 C   0  0  0  0  0  0  0  0  0  0  0  0
    0.7368   -0.3967    0.0000 C   0  0  0  0  0  0  0  0  0  0  0  0
    8.0485   -0.9352    0.0000 C   0  0  0  0  0  0  0  0  0  0  0  0
    8.1619   -2.3522    0.0000 C   0  0  0  0  0  0  0  0  0  0  0  0
    8.5020   -1.6153    0.0000 C   0  0  0  0  0  0  0  0  0  0  0  0
    0.0000    0.0000    0.0000 C   0  0  0  0  0  0  0  0  0  0  0  0
  1  6  1  0  0  0  0
  1  7  1  0  0  0  0
  2 18  2  0  0  0  0
  3  9  1  0  0  0  0
  3 10  1  0  0  0  0
  3 13  1  0  0  0  0
  4  7  2  0  0  0  0
  4 11  1  0  0  0  0
  5  7  1  0  0  0  0
  5 18  1  0  0  0  0
  6  9  1  0  0  0  0
  6 11  2  0  0  0  0
  8 10  1  0  0  0  0
  8 12  1  0  0  0  0
  8 14  1  0  0  0  0
 12 16  2  0  0  0  0
 12 17  1  0  0  0  0
 13 15  1  0  0  0  0
 14 15  1  0  0  0  0
 16 19  1  0  0  0  0
 17 20  2  0  0  0  0
 18 22  1  0  0  0  0
 19 21  2  0  0  0  0
 20 21  1  0  0  0  0
M  END
> <PUBCHEM_COMPOUND_ID_TYPE>
0

> <PUBCHEM_TOTAL_CHARGE>
0

> <PUBCHEM_SUBSTANCE_ID>
310935267

> <PUBCHEM_SUBSTANCE_VERSION>
1

> <PUBCHEM_EXT_DATASOURCE_NAME>
4488

> <PUBCHEM_EXT_DATASOURCE_REGID>
SCHEMBL16112798

> <PUBCHEM_SUBSTANCE_COMMENT>
InChI=1S/C17H21N3OS/c1-13(21)19-17-18-10-16(22-17)12-20-9-5-8-15(11-20)14-6-3-2-4-7-14/h2-4,6-7,10,15H,5,8-9,11-12H2,1H3,(H,18,19,21)
InChIKey=CEIHSHLBPKZAGZ-UHFFFAOYSA-N

> <PUBCHEM_SUBSTANCE_SYNONYM>
SCHEMBL16112798

> <PUBCHEM_XREF_EXT_ID>
SCHEMBL16112798

> <PUBCHEM_EXT_DATASOURCE_URL>
https://www.surechembl.org/

> <PUBCHEM_EXT_SUBSTANCE_URL>
https://www.surechembl.org/chemical/SCHEMBL16112798

> <PUBCHEM_CID_ASSOCIATIONS>
86275054  1

> <PUBCHEM_COORDINATE_TYPE>
1
3

$$$$
