310935899
  -OEChem-07211613022D

 33 37  0     1  0  0  0  0  0999 V2000
   -2.1434   -3.3000    0.0000 F   0  0  0  0  0  0  0  0  0  0  0  0
    0.7145   -1.6500    0.0000 O   0  0  0  0  0  0  0  0  0  0  0  0
    4.5696   -4.2868    0.0000 O   0  0  0  0  0  0  0  0  0  0  0  0
    5.8071   -3.5724    0.0000 O   0  0  0  0  0  0  0  0  0  0  0  0
    0.7846    0.6674    0.0000 N   0  0  0  0  0  0  0  0  0  0  0  0
   -1.4290   -0.4125    0.0000 N   0  0  0  0  0  0  0  0  0  0  0  0
   -0.7145    0.8250    0.0000 N   0  0  0  0  0  0  0  0  0  0  0  0
    3.7446    0.0000    0.0000 N   0  0  0  0  0  0  0  0  0  0  0  0
    0.0000   -0.4125    0.0000 C   0  0  0  0  0  0  0  0  0  0  0  0
   -0.7145   -0.8250    0.0000 C   0  0  0  0  0  0  0  0  0  0  0  0
    0.0000    0.4125    0.0000 C   0  0  0  0  0  0  0  0  0  0  0  0
    1.2696    0.0000    0.0000 C   0  0  0  0  0  0  0  0  0  0  0  0
   -0.7145   -1.6500    0.0000 C   0  0  0  0  0  0  0  0  0  0  0  0
    0.7846   -0.6674    0.0000 C   0  0  0  0  0  0  0  0  0  0  0  0
    2.0946    0.0000    0.0000 C   0  0  0  0  0  0  0  0  0  0  0  0
    0.0000   -2.0625    0.0000 C   0  0  0  0  0  0  0  0  0  0  0  0
   -1.4290   -2.0625    0.0000 C   0  0  0  0  0  0  0  0  0  0  0  0
   -1.4290    0.4125    0.0000 C   0  0  0  0  0  0  0  0  0  0  0  0
    2.5071   -0.7145    0.0000 C   0  0  0  0  0  0  0  0  0  0  0  0
    3.3321   -0.7145    0.0000 C   0  0  3  0  0  0  0  0  0  0  0  0
    2.5071    0.7145    0.0000 C   0  0  0  0  0  0  0  0  0  0  0  0
   -1.4290   -2.8875    0.0000 C   0  0  0  0  0  0  0  0  0  0  0  0
    0.0000   -2.8875    0.0000 C   0  0  0  0  0  0  0  0  0  0  0  0
    3.7446   -1.4290    0.0000 C   0  0  0  0  0  0  0  0  0  0  0  0
   -0.7145   -3.3000    0.0000 C   0  0  0  0  0  0  0  0  0  0  0  0
    3.3321    0.7145    0.0000 C   0  0  0  0  0  0  0  0  0  0  0  0
    3.3321   -2.1434    0.0000 C   0  0  0  0  0  0  0  0  0  0  0  0
    4.5696   -1.4290    0.0000 C   0  0  0  0  0  0  0  0  0  0  0  0
    4.5696   -2.8579    0.0000 C   0  0  0  0  0  0  0  0  0  0  0  0
    3.7446   -2.8579    0.0000 C   0  0  0  0  0  0  0  0  0  0  0  0
    4.9821   -2.1434    0.0000 C   0  0  0  0  0  0  0  0  0  0  0  0
    1.4290   -2.0625    0.0000 C   0  0  0  0  0  0  0  0  0  0  0  0
    4.9821   -3.5724    0.0000 C   0  0  0  0  0  0  0  0  0  0  0  0
  1 22  1  0  0  0  0
  2 16  1  0  0  0  0
  2 32  1  0  0  0  0
  3 33  2  0  0  0  0
  4 33  1  0  0  0  0
  5 11  1  0  0  0  0
  5 12  1  0  0  0  0
  6 10  1  0  0  0  0
  6 18  2  0  0  0  0
  7 11  2  0  0  0  0
  7 18  1  0  0  0  0
  8 20  1  0  0  0  0
  8 26  1  0  0  0  0
  9 10  2  0  0  0  0
  9 11  1  0  0  0  0
  9 14  1  0  0  0  0
 10 13  1  0  0  0  0
 12 14  2  0  0  0  0
 12 15  1  0  0  0  0
 13 16  1  0  0  0  0
 13 17  2  0  0  0  0
 15 19  1  0  0  0  0
 15 21  2  0  0  0  0
 16 23  2  0  0  0  0
 17 22  1  0  0  0  0
 19 20  1  0  0  0  0
 20 24  1  0  0  0  0
 21 26  1  0  0  0  0
 22 25  2  0  0  0  0
 23 25  1  0  0  0  0
 24 27  1  0  0  0  0
 24 28  1  0  0  0  0
 27 30  1  0  0  0  0
 28 31  1  0  0  0  0
 29 30  1  0  0  0  0
 29 31  1  0  0  0  0
 29 33  1  0  0  0  0
M  END
> <PUBCHEM_COMPOUND_ID_TYPE>
0

> <PUBCHEM_TOTAL_CHARGE>
0

> <PUBCHEM_SUBSTANCE_ID>
310935899

> <PUBCHEM_SUBSTANCE_VERSION>
1

> <PUBCHEM_EXT_DATASOURCE_NAME>
4488

> <PUBCHEM_EXT_DATASOURCE_REGID>
SCHEMBL16113494

> <PUBCHEM_SUBSTANCE_COMMENT>
InChI=1S/C25H27FN4O3/c1-33-22-7-6-17(26)11-18(22)23-19-12-21(30-24(19)29-13-28-23)16-8-9-27-20(10-16)14-2-4-15(5-3-14)25(31)32/h6-8,11-15,20,27H,2-5,9-10H2,1H3,(H,31,32)(H,28,29,30)
InChIKey=AFLVKYHKUXHGNT-UHFFFAOYSA-N

> <PUBCHEM_SUBSTANCE_SYNONYM>
SCHEMBL16113494

> <PUBCHEM_XREF_EXT_ID>
SCHEMBL16113494

> <PUBCHEM_EXT_DATASOURCE_URL>
https://www.surechembl.org/

> <PUBCHEM_EXT_SUBSTANCE_URL>
https://www.surechembl.org/chemical/SCHEMBL16113494

> <PUBCHEM_CID_ASSOCIATIONS>
117603885  1

> <PUBCHEM_COORDINATE_TYPE>
1
3

$$$$
