310938933
  -OEChem-07211613022D

 28 31  0     1  0  0  0  0  0999 V2000
    3.0930    3.3737    0.0000 O   0  0  0  0  0  0  0  0  0  0  0  0
    2.0765    1.0092    0.0000 N   0  0  0  0  0  0  0  0  0  0  0  0
    0.9496    2.9612    0.0000 N   0  0  0  0  0  0  0  0  0  0  0  0
    1.3621    1.4217    0.0000 C   0  0  0  0  0  0  0  0  0  0  0  0
    0.9496    2.1362    0.0000 C   0  0  0  0  0  0  0  0  0  0  0  0
    0.5371    1.4217    0.0000 C   0  0  0  0  0  0  0  0  0  0  0  0
    2.0765    0.1842    0.0000 C   0  0  0  0  0  0  0  0  0  0  0  0
    2.7910    1.4217    0.0000 C   0  0  0  0  0  0  0  0  0  0  0  0
   -0.1774    1.0092    0.0000 C   0  0  0  0  0  0  0  0  0  0  0  0
    1.6640    3.3737    0.0000 C   0  0  3  0  0  0  0  0  0  0  0  0
    1.3621   -0.2283    0.0000 C   0  0  0  0  0  0  0  0  0  0  0  0
    2.7910   -0.2283    0.0000 C   0  0  0  0  0  0  0  0  0  0  0  0
    3.5055    1.0092    0.0000 C   0  0  0  0  0  0  0  0  0  0  0  0
    2.7910    2.2467    0.0000 C   0  0  0  0  0  0  0  0  0  0  0  0
    1.6640    4.1987    0.0000 C   0  0  0  0  0  0  0  0  0  0  0  0
    2.3785    2.9612    0.0000 C   0  0  0  0  0  0  0  0  0  0  0  0
    1.3621   -1.0533    0.0000 C   0  0  0  0  0  0  0  0  0  0  0  0
    2.7910   -1.0533    0.0000 C   0  0  0  0  0  0  0  0  0  0  0  0
    4.2199    1.4217    0.0000 C   0  0  0  0  0  0  0  0  0  0  0  0
    3.5055    2.6592    0.0000 C   0  0  0  0  0  0  0  0  0  0  0  0
    2.3785    4.6112    0.0000 C   0  0  0  0  0  0  0  0  0  0  0  0
    2.0765   -1.4658    0.0000 C   0  0  0  0  0  0  0  0  0  0  0  0
    4.2199    2.2467    0.0000 C   0  0  0  0  0  0  0  0  0  0  0  0
    3.0930    4.1987    0.0000 C   0  0  0  0  0  0  0  0  0  0  0  0
    2.3785    5.4362    0.0000 C   0  0  0  0  0  0  0  0  0  0  0  0
    3.8074    4.6112    0.0000 C   0  0  0  0  0  0  0  0  0  0  0  0
    3.0930    5.8487    0.0000 C   0  0  0  0  0  0  0  0  0  0  0  0
    3.8074    5.4362    0.0000 C   0  0  0  0  0  0  0  0  0  0  0  0
  1 16  1  0  0  0  0
  2  4  1  0  0  0  0
  2  7  1  0  0  0  0
  2  8  1  0  0  0  0
  3  5  2  0  0  0  0
  3 10  1  0  0  0  0
  4  5  1  0  0  0  0
  4  6  2  0  0  0  0
  5  6  1  0  0  0  0
  6  9  1  0  0  0  0
  7 11  1  0  0  0  0
  7 12  1  0  0  0  0
  8 13  1  0  0  0  0
  8 14  1  0  0  0  0
 10 15  1  0  0  0  0
 10 16  1  0  0  0  0
 11 17  1  0  0  0  0
 12 18  1  0  0  0  0
 13 19  1  0  0  0  0
 14 20  1  0  0  0  0
 15 21  1  0  0  0  0
 17 22  1  0  0  0  0
 18 22  1  0  0  0  0
 19 23  1  0  0  0  0
 20 23  1  0  0  0  0
 21 24  2  0  0  0  0
 21 25  1  0  0  0  0
 24 26  1  0  0  0  0
 25 27  2  0  0  0  0
 26 28  2  0  0  0  0
 27 28  1  0  0  0  0
M  END
> <PUBCHEM_COMPOUND_ID_TYPE>
0

> <PUBCHEM_TOTAL_CHARGE>
0

> <PUBCHEM_SUBSTANCE_ID>
310938933

> <PUBCHEM_SUBSTANCE_VERSION>
1

> <PUBCHEM_EXT_DATASOURCE_NAME>
4488

> <PUBCHEM_EXT_DATASOURCE_REGID>
SCHEMBL16116852

> <PUBCHEM_SUBSTANCE_COMMENT>
InChI=1S/C25H36N2O/c1-19-24(26-21(18-28)17-20-11-5-2-6-12-20)25(19)27(22-13-7-3-8-14-22)23-15-9-4-10-16-23/h2,5-6,11-12,21-23,28H,3-4,7-10,13-18H2,1H3/b26-24-
InChIKey=PUAQYHWREQLMEW-LCUIJRPUSA-N

> <PUBCHEM_SUBSTANCE_SYNONYM>
SCHEMBL16116852

> <PUBCHEM_XREF_EXT_ID>
SCHEMBL16116852

> <PUBCHEM_EXT_DATASOURCE_URL>
https://www.surechembl.org/

> <PUBCHEM_EXT_SUBSTANCE_URL>
https://www.surechembl.org/chemical/SCHEMBL16116852

> <PUBCHEM_CID_ASSOCIATIONS>
117606330  1

> <PUBCHEM_COORDINATE_TYPE>
1
3

$$$$
