310940165
  -OEChem-07211613022D

 17 17  0     1  0  0  0  0  0999 V2000
    0.3234   -2.0920    0.0000 O   0  0  0  0  0  0  0  0  0  0  0  0
   -1.1079   -1.9819    0.0000 O   0  0  0  0  0  0  0  0  0  0  0  0
   -0.3785   -0.7845    0.0000 N   0  0  0  0  0  0  0  0  0  0  0  0
   -1.8236    2.3948    0.0000 N   0  0  0  0  0  0  0  0  0  0  0  0
   -0.3923   -1.6103    0.0000 C   0  0  0  0  0  0  0  0  0  0  0  0
    0.3372    0.4542    0.0000 C   0  0  3  0  0  0  0  0  0  0  0  0
   -0.3923    0.8671    0.0000 C   0  0  0  0  0  0  0  0  0  0  0  0
    0.3234   -0.3716    0.0000 C   0  0  0  0  0  0  0  0  0  0  0  0
   -1.0942   -0.3716    0.0000 C   0  0  0  0  0  0  0  0  0  0  0  0
    1.0942   -1.7342    0.0000 C   0  0  0  0  0  0  0  0  0  0  0  0
   -1.0942    0.4542    0.0000 C   0  0  0  0  0  0  0  0  0  0  0  0
   -0.3785    1.7479    0.0000 C   0  0  0  0  0  0  0  0  0  0  0  0
    1.0391    0.8533    0.0000 C   0  0  0  0  0  0  0  0  0  0  0  0
    1.4658   -2.3948    0.0000 C   0  0  0  0  0  0  0  0  0  0  0  0
    0.7363   -1.0460    0.0000 C   0  0  0  0  0  0  0  0  0  0  0  0
    1.8236   -1.3488    0.0000 C   0  0  0  0  0  0  0  0  0  0  0  0
   -1.0942    2.0782    0.0000 C   0  0  0  0  0  0  0  0  0  0  0  0
  1  5  1  0  0  0  0
  1 10  1  0  0  0  0
  2  5  2  0  0  0  0
  3  5  1  0  0  0  0
  3  8  1  0  0  0  0
  3  9  1  0  0  0  0
  4 17  3  0  0  0  0
  6  7  1  0  0  0  0
  6  8  1  0  0  0  0
  6 13  1  0  0  0  0
  7 11  1  0  0  0  0
  7 12  2  0  0  0  0
  9 11  1  0  0  0  0
 10 14  1  0  0  0  0
 10 15  1  0  0  0  0
 10 16  1  0  0  0  0
 12 17  1  0  0  0  0
M  END
> <PUBCHEM_COMPOUND_ID_TYPE>
0

> <PUBCHEM_TOTAL_CHARGE>
0

> <PUBCHEM_SUBSTANCE_ID>
310940165

> <PUBCHEM_SUBSTANCE_VERSION>
1

> <PUBCHEM_EXT_DATASOURCE_NAME>
4488

> <PUBCHEM_EXT_DATASOURCE_REGID>
SCHEMBL16118098

> <PUBCHEM_SUBSTANCE_COMMENT>
InChI=1S/C13H20N2O2/c1-10-9-15(8-6-11(10)5-7-14)12(16)17-13(2,3)4/h5,10H,6,8-9H2,1-4H3/b11-5+
InChIKey=REGTWSJQTFARGI-VZUCSPMQSA-N

> <PUBCHEM_SUBSTANCE_SYNONYM>
SCHEMBL16118098

> <PUBCHEM_XREF_EXT_ID>
SCHEMBL16118098

> <PUBCHEM_EXT_DATASOURCE_URL>
https://www.surechembl.org/

> <PUBCHEM_EXT_SUBSTANCE_URL>
https://www.surechembl.org/chemical/SCHEMBL16118098

> <PUBCHEM_CID_ASSOCIATIONS>
117607278  1

> <PUBCHEM_COORDINATE_TYPE>
1
3

> <PUBCHEM_BONDANNOTATIONS>
12  17  3

$$$$
