310944659
  -OEChem-07211613022D

 29 31  0     1  0  0  0  0  0999 V2000
   -4.6612    1.6567    0.0000 Cl  0  0  0  0  0  0  0  0  0  0  0  0
   -4.6612    0.0124    0.0000 Cl  0  0  0  0  0  0  0  0  0  0  0  0
   -1.6444    0.0124    0.0000 O   0  0  0  0  0  0  0  0  0  0  0  0
   -0.2226    2.4852    0.0000 O   0  0  0  0  0  0  0  0  0  0  0  0
    4.6612   -1.7804    0.0000 O   0  0  0  0  0  0  0  0  0  0  0  0
    1.9535    0.4328    0.0000 N   0  0  0  0  0  0  0  0  0  0  0  0
    3.4495   -1.0633    0.0000 N   0  0  0  0  0  0  0  0  0  0  0  0
    0.5070    1.2488    0.0000 N   0  0  0  0  0  0  0  0  0  0  0  0
   -1.6320    1.6691    0.0000 N   0  0  0  0  0  0  0  0  0  0  0  0
    2.6706    0.0247    0.0000 C   0  0  3  0  0  0  0  0  0  0  0  0
   -2.3491    1.2611    0.0000 C   0  0  0  0  0  0  0  0  0  0  0  0
   -2.3615    0.4328    0.0000 C   0  0  0  0  0  0  0  0  0  0  0  0
    2.6583   -0.8036    0.0000 C   0  0  0  0  0  0  0  0  0  0  0  0
    3.4372    0.2720    0.0000 C   0  0  0  0  0  0  0  0  0  0  0  0
   -0.2226    1.6567    0.0000 C   0  0  0  0  0  0  0  0  0  0  0  0
   -3.7709    1.2488    0.0000 C   0  0  0  0  0  0  0  0  0  0  0  0
    1.2364    0.0124    0.0000 C   0  0  0  0  0  0  0  0  0  0  0  0
    1.9411    1.2488    0.0000 C   0  0  0  0  0  0  0  0  0  0  0  0
   -3.7833    0.4328    0.0000 C   0  0  0  0  0  0  0  0  0  0  0  0
   -3.0538    1.6567    0.0000 C   0  0  0  0  0  0  0  0  0  0  0  0
    3.9193   -0.3833    0.0000 C   0  0  0  0  0  0  0  0  0  0  0  0
   -3.0662    0.0247    0.0000 C   0  0  0  0  0  0  0  0  0  0  0  0
    0.5193    0.4204    0.0000 C   0  0  0  0  0  0  0  0  0  0  0  0
    1.2240    1.6567    0.0000 C   0  0  0  0  0  0  0  0  0  0  0  0
    3.8327   -1.7680    0.0000 C   0  0  0  0  0  0  0  0  0  0  0  0
   -0.9149    1.2488    0.0000 C   0  0  0  0  0  0  0  0  0  0  0  0
    3.4372   -2.4852    0.0000 C   0  0  0  0  0  0  0  0  0  0  0  0
   -0.9273    0.4204    0.0000 C   0  0  0  0  0  0  0  0  0  0  0  0
    2.6212   -2.4481    0.0000 C   0  0  0  0  0  0  0  0  0  0  0  0
  1 16  1  0  0  0  0
  2 19  1  0  0  0  0
  3 12  1  0  0  0  0
  3 28  1  0  0  0  0
  4 15  2  0  0  0  0
  5 25  2  0  0  0  0
  6 10  1  0  0  0  0
  6 17  1  0  0  0  0
  6 18  1  0  0  0  0
  7 13  1  0  0  0  0
  7 21  1  0  0  0  0
  7 25  1  0  0  0  0
  8 15  1  0  0  0  0
  8 23  1  0  0  0  0
  8 24  1  0  0  0  0
  9 11  1  0  0  0  0
  9 26  1  0  0  0  0
 10 13  1  0  0  0  0
 10 14  1  0  0  0  0
 11 12  1  0  0  0  0
 11 20  2  0  0  0  0
 12 22  2  0  0  0  0
 14 21  1  0  0  0  0
 15 26  1  0  0  0  0
 16 19  2  0  0  0  0
 16 20  1  0  0  0  0
 17 23  1  0  0  0  0
 18 24  1  0  0  0  0
 19 22  1  0  0  0  0
 25 27  1  0  0  0  0
 27 29  2  0  0  0  0
M  END
> <PUBCHEM_COMPOUND_ID_TYPE>
0

> <PUBCHEM_TOTAL_CHARGE>
0

> <PUBCHEM_SUBSTANCE_ID>
310944659

> <PUBCHEM_SUBSTANCE_VERSION>
1

> <PUBCHEM_EXT_DATASOURCE_NAME>
4488

> <PUBCHEM_EXT_DATASOURCE_REGID>
SCHEMBL16122737

> <PUBCHEM_SUBSTANCE_COMMENT>
InChI=1S/C20H26Cl2N4O3/c1-3-19(27)26-5-4-14(13-26)24-6-8-25(9-7-24)20(28)12-23-17-10-15(21)16(22)11-18(17)29-2/h3,10-11,14,23H,1,4-9,12-13H2,2H3
InChIKey=HZJTVKBFQVVHKZ-UHFFFAOYSA-N

> <PUBCHEM_SUBSTANCE_SYNONYM>
SCHEMBL16122737

> <PUBCHEM_XREF_EXT_ID>
SCHEMBL16122737

> <PUBCHEM_EXT_DATASOURCE_URL>
https://www.surechembl.org/

> <PUBCHEM_EXT_SUBSTANCE_URL>
https://www.surechembl.org/chemical/SCHEMBL16122737

> <PUBCHEM_CID_ASSOCIATIONS>
117610889  1

> <PUBCHEM_COORDINATE_TYPE>
1
3

$$$$
