310931212
  -OEChem-07211613022D

 25 28  0     1  0  0  0  0  0999 V2000
    5.1781   -2.6402    0.0000 O   0  0  0  0  0  0  0  0  0  0  0  0
    0.0000    0.0000    0.0000 O   0  0  0  0  0  0  0  0  0  0  0  0
    0.7163   -1.2280    0.0000 N   0  0  0  0  0  0  0  0  0  0  0  0
    1.4326    0.0000    0.0000 N   0  0  0  0  0  0  0  0  0  0  0  0
    2.1285   -2.8653    0.0000 N   0  0  0  0  0  0  0  0  0  0  0  0
    5.5874   -1.9239    0.0000 N   0  0  0  0  0  0  0  0  0  0  0  0
    2.1490   -1.2280    0.0000 C   0  0  0  0  0  0  0  0  0  0  0  0
    1.4326   -1.6373    0.0000 C   0  0  3  0  0  0  0  0  0  0  0  0
    2.1490   -0.4093    0.0000 C   0  0  0  0  0  0  0  0  0  0  0  0
    3.5612   -1.2280    0.0000 C   0  0  0  0  0  0  0  0  0  0  0  0
    4.2775   -1.6373    0.0000 C   0  0  0  0  0  0  0  0  0  0  0  0
    2.8448   -1.6373    0.0000 C   0  0  0  0  0  0  0  0  0  0  0  0
    1.4326   -2.4560    0.0000 C   0  0  0  0  0  0  0  0  0  0  0  0
    0.7163   -0.4093    0.0000 C   0  0  0  0  0  0  0  0  0  0  0  0
    2.8448    0.0000    0.0000 C   0  0  0  0  0  0  0  0  0  0  0  0
    3.5612   -0.4093    0.0000 C   0  0  0  0  0  0  0  0  0  0  0  0
    4.3798   -2.4560    0.0000 C   0  0  0  0  0  0  0  0  0  0  0  0
    5.0348   -1.3099    0.0000 C   0  0  0  0  0  0  0  0  0  0  0  0
    0.7163   -2.8653    0.0000 C   0  0  0  0  0  0  0  0  0  0  0  0
    0.0000   -1.6373    0.0000 C   0  0  0  0  0  0  0  0  0  0  0  0
    3.7863   -3.0086    0.0000 C   0  0  0  0  0  0  0  0  0  0  0  0
    5.1985   -0.5116    0.0000 C   0  0  0  0  0  0  0  0  0  0  0  0
    2.1695   -3.6840    0.0000 C   0  0  0  0  0  0  0  0  0  0  0  0
    0.7368   -3.7045    0.0000 C   0  0  0  0  0  0  0  0  0  0  0  0
    1.4531   -4.0933    0.0000 C   0  0  0  0  0  0  0  0  0  0  0  0
  1  6  1  0  0  0  0
  1 17  1  0  0  0  0
  2 14  2  0  0  0  0
  3  8  1  0  0  0  0
  3 14  1  0  0  0  0
  3 20  1  0  0  0  0
  4  9  1  0  0  0  0
  4 14  1  0  0  0  0
  5 13  1  0  0  0  0
  5 23  2  0  0  0  0
  6 18  2  0  0  0  0
  7  8  1  0  0  0  0
  7  9  2  0  0  0  0
  7 12  1  0  0  0  0
  8 13  1  0  0  0  0
  9 15  1  0  0  0  0
 10 11  1  0  0  0  0
 10 12  2  0  0  0  0
 10 16  1  0  0  0  0
 11 17  2  0  0  0  0
 11 18  1  0  0  0  0
 13 19  2  0  0  0  0
 15 16  2  0  0  0  0
 17 21  1  0  0  0  0
 18 22  1  0  0  0  0
 19 24  1  0  0  0  0
 23 25  1  0  0  0  0
 24 25  2  0  0  0  0
M  END
> <PUBCHEM_COMPOUND_ID_TYPE>
0

> <PUBCHEM_TOTAL_CHARGE>
0

> <PUBCHEM_SUBSTANCE_ID>
310931212

> <PUBCHEM_SUBSTANCE_VERSION>
1

> <PUBCHEM_EXT_DATASOURCE_NAME>
4488

> <PUBCHEM_EXT_DATASOURCE_REGID>
SCHEMBL16108521

> <PUBCHEM_SUBSTANCE_COMMENT>
InChI=1S/C19H18N4O2/c1-11-17(12(2)25-22-11)13-7-8-15-14(10-13)18(23(3)19(24)21-15)16-6-4-5-9-20-16/h4-10,18H,1-3H3,(H,21,24)
InChIKey=VOMFLQXKIBRHIU-UHFFFAOYSA-N

> <PUBCHEM_SUBSTANCE_SYNONYM>
SCHEMBL16108521

> <PUBCHEM_XREF_EXT_ID>
SCHEMBL16108521

> <PUBCHEM_EXT_DATASOURCE_URL>
https://www.surechembl.org/

> <PUBCHEM_EXT_SUBSTANCE_URL>
https://www.surechembl.org/chemical/SCHEMBL16108521

> <PUBCHEM_CID_ASSOCIATIONS>
117600060  1

> <PUBCHEM_COORDINATE_TYPE>
1
3

$$$$
