310945573
  -OEChem-07211613022D

 27 30  0     1  0  0  0  0  0999 V2000
   -1.0206   -1.2704    0.0000 N   0  0  0  0  0  0  0  0  0  0  0  0
   -1.0206    1.2276    0.0000 N   0  0  3  0  0  0  0  0  0  0  0  0
    1.1063    1.6415    0.0000 N   0  0  0  0  0  0  0  0  0  0  0  0
   -1.7771    0.0000    0.0000 C   0  0  0  0  0  0  0  0  0  0  0  0
   -1.0777    0.4139    0.0000 C   0  0  0  0  0  0  0  0  0  0  0  0
   -0.3640   -0.8422    0.0000 C   0  0  0  0  0  0  0  0  0  0  0  0
   -1.7914   -0.8422    0.0000 C   0  0  0  0  0  0  0  0  0  0  0  0
    0.3640   -1.2561    0.0000 C   0  0  0  0  0  0  0  0  0  0  0  0
   -0.3640   -0.0143    0.0000 C   0  0  0  0  0  0  0  0  0  0  0  0
    1.7771   -1.2704    0.0000 C   0  0  0  0  0  0  0  0  0  0  0  0
    1.0777   -0.8422    0.0000 C   0  0  0  0  0  0  0  0  0  0  0  0
   -2.5194    0.3997    0.0000 C   0  0  0  0  0  0  0  0  0  0  0  0
    1.7771   -2.0840    0.0000 C   0  0  0  0  0  0  0  0  0  0  0  0
   -2.5051   -1.2418    0.0000 C   0  0  0  0  0  0  0  0  0  0  0  0
    0.3640   -2.0840    0.0000 C   0  0  0  0  0  0  0  0  0  0  0  0
    1.0777   -2.4980    0.0000 C   0  0  0  0  0  0  0  0  0  0  0  0
   -3.2045   -0.0143    0.0000 C   0  0  0  0  0  0  0  0  0  0  0  0
   -3.2045   -0.8422    0.0000 C   0  0  0  0  0  0  0  0  0  0  0  0
   -0.3640    1.6558    0.0000 C   0  0  0  0  0  0  0  0  0  0  0  0
    2.5051   -0.8422    0.0000 C   0  0  0  0  0  0  0  0  0  0  0  0
    2.5051   -2.4980    0.0000 C   0  0  0  0  0  0  0  0  0  0  0  0
   -1.7771    1.6415    0.0000 C   0  0  0  0  0  0  0  0  0  0  0  0
    3.2045   -1.2704    0.0000 C   0  0  0  0  0  0  0  0  0  0  0  0
    3.2045   -2.0840    0.0000 C   0  0  0  0  0  0  0  0  0  0  0  0
    0.3640    1.2418    0.0000 C   0  0  0  0  0  0  0  0  0  0  0  0
    1.0634    2.4980    0.0000 C   0  0  0  0  0  0  0  0  0  0  0  0
    1.7914    1.2418    0.0000 C   0  0  0  0  0  0  0  0  0  0  0  0
  1  6  2  0  0  0  0
  1  7  1  0  0  0  0
  2  5  1  0  0  0  0
  2 19  1  0  0  0  0
  2 22  1  0  0  0  0
  3 25  1  0  0  0  0
  3 26  1  0  0  0  0
  3 27  1  0  0  0  0
  4  5  1  0  0  0  0
  4  7  1  0  0  0  0
  4 12  2  0  0  0  0
  5  9  2  0  0  0  0
  6  8  1  0  0  0  0
  6  9  1  0  0  0  0
  7 14  2  0  0  0  0
  8 11  1  0  0  0  0
  8 15  2  0  0  0  0
 10 11  2  0  0  0  0
 10 13  1  0  0  0  0
 10 20  1  0  0  0  0
 12 17  1  0  0  0  0
 13 16  2  0  0  0  0
 13 21  1  0  0  0  0
 14 18  1  0  0  0  0
 15 16  1  0  0  0  0
 17 18  2  0  0  0  0
 19 25  1  0  0  0  0
 20 23  2  0  0  0  0
 21 24  2  0  0  0  0
 23 24  1  0  0  0  0
M  END
> <PUBCHEM_COMPOUND_ID_TYPE>
0

> <PUBCHEM_TOTAL_CHARGE>
0

> <PUBCHEM_SUBSTANCE_ID>
310945573

> <PUBCHEM_SUBSTANCE_VERSION>
1

> <PUBCHEM_EXT_DATASOURCE_NAME>
4488

> <PUBCHEM_EXT_DATASOURCE_REGID>
SCHEMBL16123671

> <PUBCHEM_SUBSTANCE_COMMENT>
InChI=1S/C24H25N3/c1-26(2)14-15-27(3)24-17-23(25-22-11-7-6-10-21(22)24)20-13-12-18-8-4-5-9-19(18)16-20/h4-13,16-17H,14-15H2,1-3H3
InChIKey=NOWGHVASSUUWTH-UHFFFAOYSA-N

> <PUBCHEM_SUBSTANCE_SYNONYM>
SCHEMBL16123671

> <PUBCHEM_XREF_EXT_ID>
SCHEMBL16123671

> <PUBCHEM_EXT_DATASOURCE_URL>
https://www.surechembl.org/

> <PUBCHEM_EXT_SUBSTANCE_URL>
https://www.surechembl.org/chemical/SCHEMBL16123671

> <PUBCHEM_CID_ASSOCIATIONS>
44297074  1

> <PUBCHEM_COORDINATE_TYPE>
1
3

$$$$
