310932048
  -OEChem-07211613022D

 37 41  0     1  0  0  0  0  0999 V2000
    8.6035   -7.8571    0.0000 Cl  0  0  0  0  0  0  0  0  0  0  0  0
    5.7357   -7.0321    0.0000 O   0  0  0  0  0  0  0  0  0  0  0  0
    2.8678   -6.2071    0.0000 O   0  0  0  0  0  0  0  0  0  0  0  0
    2.1607   -2.4750    0.0000 N   0  0  0  0  0  0  0  0  0  0  0  0
    4.3214   -5.3821    0.0000 N   0  0  0  0  0  0  0  0  0  0  0  0
    2.1607   -4.1249    0.0000 N   0  0  0  0  0  0  0  0  0  0  0  0
    5.7357   -6.2071    0.0000 C   0  0  0  0  0  0  0  0  0  0  0  0
    6.4428   -6.5999    0.0000 C   0  0  0  0  0  0  0  0  0  0  0  0
    2.1607   -1.6500    0.0000 C   0  0  0  0  0  0  0  0  0  0  0  0
    5.7357   -5.3821    0.0000 C   0  0  0  0  0  0  0  0  0  0  0  0
    5.0285   -6.5999    0.0000 C   0  0  0  0  0  0  0  0  0  0  0  0
    2.8678   -1.2571    0.0000 C   0  0  0  0  0  0  0  0  0  0  0  0
    1.4536   -1.2571    0.0000 C   0  0  0  0  0  0  0  0  0  0  0  0
    5.0285   -4.9499    0.0000 C   0  0  0  0  0  0  0  0  0  0  0  0
    4.3214   -6.2071    0.0000 C   0  0  0  0  0  0  0  0  0  0  0  0
    7.1892   -6.2071    0.0000 C   0  0  0  0  0  0  0  0  0  0  0  0
    6.4821   -7.4249    0.0000 C   0  0  0  0  0  0  0  0  0  0  0  0
    1.4536   -2.9071    0.0000 C   0  0  0  0  0  0  0  0  0  0  0  0
    2.8678   -2.9071    0.0000 C   0  0  0  0  0  0  0  0  0  0  0  0
    3.5750   -4.9893    0.0000 C   0  0  0  0  0  0  0  0  0  0  0  0
    2.8678   -3.7321    0.0000 C   0  0  0  0  0  0  0  0  0  0  0  0
    1.4536   -3.7321    0.0000 C   0  0  0  0  0  0  0  0  0  0  0  0
    2.8678   -5.3821    0.0000 C   0  0  3  0  0  0  0  0  0  0  0  0
    2.9071   -0.4321    0.0000 C   0  0  0  0  0  0  0  0  0  0  0  0
    0.7072   -1.6500    0.0000 C   0  0  0  0  0  0  0  0  0  0  0  0
    3.6142   -1.6500    0.0000 C   0  0  0  0  0  0  0  0  0  0  0  0
    1.4536   -0.4321    0.0000 C   0  0  0  0  0  0  0  0  0  0  0  0
    2.1607   -4.9893    0.0000 C   0  0  0  0  0  0  0  0  0  0  0  0
    7.8963   -6.5999    0.0000 C   0  0  0  0  0  0  0  0  0  0  0  0
    7.1499   -7.8571    0.0000 C   0  0  0  0  0  0  0  0  0  0  0  0
    7.8963   -7.4249    0.0000 C   0  0  0  0  0  0  0  0  0  0  0  0
    3.6142    0.0000    0.0000 C   0  0  0  0  0  0  0  0  0  0  0  0
    0.0000   -1.2571    0.0000 C   0  0  0  0  0  0  0  0  0  0  0  0
    4.3214   -1.2571    0.0000 C   0  0  0  0  0  0  0  0  0  0  0  0
    0.7072    0.0000    0.0000 C   0  0  0  0  0  0  0  0  0  0  0  0
    4.3214   -0.4321    0.0000 C   0  0  0  0  0  0  0  0  0  0  0  0
    0.0000   -0.4321    0.0000 C   0  0  0  0  0  0  0  0  0  0  0  0
  1 31  1  0  0  0  0
  2  7  1  0  0  0  0
  3 23  1  0  0  0  0
  4  9  1  0  0  0  0
  4 18  1  0  0  0  0
  4 19  1  0  0  0  0
  5 14  1  0  0  0  0
  5 15  1  0  0  0  0
  5 20  1  0  0  0  0
  6 21  1  0  0  0  0
  6 22  1  0  0  0  0
  6 28  1  0  0  0  0
  7  8  1  0  0  0  0
  7 10  1  0  0  0  0
  7 11  1  0  0  0  0
  8 16  2  0  0  0  0
  8 17  1  0  0  0  0
  9 12  1  0  0  0  0
  9 13  1  0  0  0  0
 10 14  1  0  0  0  0
 11 15  1  0  0  0  0
 12 24  2  0  0  0  0
 12 26  1  0  0  0  0
 13 25  2  0  0  0  0
 13 27  1  0  0  0  0
 16 29  1  0  0  0  0
 17 30  2  0  0  0  0
 18 22  1  0  0  0  0
 19 21  1  0  0  0  0
 20 23  1  0  0  0  0
 23 28  1  0  0  0  0
 24 32  1  0  0  0  0
 25 33  1  0  0  0  0
 26 34  2  0  0  0  0
 27 35  2  0  0  0  0
 29 31  2  0  0  0  0
 30 31  1  0  0  0  0
 32 36  2  0  0  0  0
 33 37  2  0  0  0  0
 34 36  1  0  0  0  0
 35 37  1  0  0  0  0
M  END
> <PUBCHEM_COMPOUND_ID_TYPE>
0

> <PUBCHEM_TOTAL_CHARGE>
0

> <PUBCHEM_SUBSTANCE_ID>
310932048

> <PUBCHEM_SUBSTANCE_VERSION>
1

> <PUBCHEM_EXT_DATASOURCE_NAME>
4488

> <PUBCHEM_EXT_DATASOURCE_REGID>
SCHEMBL16109394

> <PUBCHEM_SUBSTANCE_COMMENT>
InChI=1S/C31H38ClN3O2/c32-28-13-11-27(12-14-28)31(37)15-17-33(18-16-31)23-29(36)24-34-19-21-35(22-20-34)30(25-7-3-1-4-8-25)26-9-5-2-6-10-26/h1-14,29-30,36-37H,15-24H2
InChIKey=YILFVDLORMOKQL-UHFFFAOYSA-N

> <PUBCHEM_SUBSTANCE_SYNONYM>
SCHEMBL16109394

> <PUBCHEM_XREF_EXT_ID>
SCHEMBL16109394

> <PUBCHEM_EXT_DATASOURCE_URL>
https://www.surechembl.org/

> <PUBCHEM_EXT_SUBSTANCE_URL>
https://www.surechembl.org/chemical/SCHEMBL16109394

> <PUBCHEM_CID_ASSOCIATIONS>
9871342  1

> <PUBCHEM_COORDINATE_TYPE>
1
3

$$$$
