310941405
  -OEChem-07211613022D

 40 43  0     1  0  0  0  0  0999 V2000
    5.0650   -1.1722    0.0000 O   0  0  0  0  0  0  0  0  0  0  0  0
    3.9295    0.7888    0.0000 O   0  0  0  0  0  0  0  0  0  0  0  0
    1.7768   -1.0690    0.0000 O   0  0  0  0  0  0  0  0  0  0  0  0
   -0.3760    0.7888    0.0000 O   0  0  0  0  0  0  0  0  0  0  0  0
   -2.5287   -1.2754    0.0000 O   0  0  0  0  0  0  0  0  0  0  0  0
    3.9295    2.4256    0.0000 O   0  0  0  0  0  0  0  0  0  0  0  0
   -5.4041    1.1870    0.0000 O   0  0  0  0  0  0  0  0  0  0  0  0
    2.4993   -0.0368    0.0000 N   0  0  0  0  0  0  0  0  0  0  0  0
    0.3318   -0.4498    0.0000 N   0  0  0  0  0  0  0  0  0  0  0  0
   -1.8211   -0.0368    0.0000 N   0  0  0  0  0  0  0  0  0  0  0  0
    4.6669   -0.4350    0.0000 C   0  0  3  0  0  0  0  0  0  0  0  0
    3.9295   -0.0221    0.0000 C   0  0  0  0  0  0  0  0  0  0  0  0
    4.2539   -1.1280    0.0000 C   0  0  0  0  0  0  0  0  0  0  0  0
    3.2366   -0.4203    0.0000 C   0  0  3  0  0  0  0  0  0  0  0  0
    5.4041   -0.0074    0.0000 C   0  0  0  0  0  0  0  0  0  0  0  0
    3.2219   -1.2459    0.0000 C   0  0  0  0  0  0  0  0  0  0  0  0
    1.7916   -0.4056    0.0000 C   0  0  0  0  0  0  0  0  0  0  0  0
    2.4993   -1.6589    0.0000 C   0  0  0  0  0  0  0  0  0  0  0  0
    1.0690   -0.0074    0.0000 C   0  0  3  0  0  0  0  0  0  0  0  0
    1.0837    0.8183    0.0000 C   0  0  0  0  0  0  0  0  0  0  0  0
    1.7178   -1.4671    0.0000 C   0  0  0  0  0  0  0  0  0  0  0  0
    2.2782   -2.4403    0.0000 C   0  0  0  0  0  0  0  0  0  0  0  0
   -0.3760   -0.0368    0.0000 C   0  0  0  0  0  0  0  0  0  0  0  0
    1.7768    1.2165    0.0000 C   0  0  0  0  0  0  0  0  0  0  0  0
    1.5114   -2.2339    0.0000 C   0  0  0  0  0  0  0  0  0  0  0  0
   -1.0837   -0.4203    0.0000 C   0  0  3  0  0  0  0  0  0  0  0  0
   -2.5287   -0.4056    0.0000 C   0  0  0  0  0  0  0  0  0  0  0  0
   -3.2366   -0.0074    0.0000 C   0  0  0  0  0  0  0  0  0  0  0  0
    1.8063    2.0570    0.0000 C   0  0  0  0  0  0  0  0  0  0  0  0
    2.4993    0.8183    0.0000 C   0  0  0  0  0  0  0  0  0  0  0  0
    3.2219    2.0570    0.0000 C   0  0  0  0  0  0  0  0  0  0  0  0
    2.4845    2.4403    0.0000 C   0  0  0  0  0  0  0  0  0  0  0  0
    3.2219    1.2165    0.0000 C   0  0  0  0  0  0  0  0  0  0  0  0
   -3.9590   -0.4203    0.0000 C   0  0  0  0  0  0  0  0  0  0  0  0
   -3.2366    0.7888    0.0000 C   0  0  0  0  0  0  0  0  0  0  0  0
   -1.0837   -1.2607    0.0000 C   0  0  0  0  0  0  0  0  0  0  0  0
   -4.6669    0.8183    0.0000 C   0  0  0  0  0  0  0  0  0  0  0  0
   -4.6669   -0.0074    0.0000 C   0  0  0  0  0  0  0  0  0  0  0  0
   -3.9738    1.2017    0.0000 C   0  0  0  0  0  0  0  0  0  0  0  0
    4.6816    2.0275    0.0000 C   0  0  0  0  0  0  0  0  0  0  0  0
  1 11  1  0  0  0  0
  1 13  1  0  0  0  0
  2 12  2  0  0  0  0
  3 17  2  0  0  0  0
  4 23  2  0  0  0  0
  5 27  2  0  0  0  0
  6 31  1  0  0  0  0
  6 40  1  0  0  0  0
  7 37  1  0  0  0  0
  8 14  1  0  0  0  0
  8 17  1  0  0  0  0
  9 19  1  0  0  0  0
  9 23  1  0  0  0  0
 10 26  1  0  0  0  0
 10 27  1  0  0  0  0
 11 12  1  0  0  0  0
 11 13  1  0  0  0  0
 11 15  1  0  0  0  0
 12 14  1  0  0  0  0
 14 16  1  0  0  0  0
 16 18  1  0  0  0  0
 17 19  1  0  0  0  0
 18 21  1  0  0  0  0
 18 22  1  0  0  0  0
 19 20  1  0  0  0  0
 20 24  1  0  0  0  0
 21 25  1  0  0  0  0
 22 25  1  0  0  0  0
 23 26  1  0  0  0  0
 24 29  2  0  0  0  0
 24 30  1  0  0  0  0
 26 36  1  0  0  0  0
 27 28  1  0  0  0  0
 28 34  1  0  0  0  0
 28 35  1  0  0  0  0
 29 32  1  0  0  0  0
 30 33  2  0  0  0  0
 31 32  2  0  0  0  0
 31 33  1  0  0  0  0
 34 38  1  0  0  0  0
 35 39  1  0  0  0  0
 37 38  1  0  0  0  0
 37 39  1  0  0  0  0
M  END
> <PUBCHEM_COMPOUND_ID_TYPE>
0

> <PUBCHEM_TOTAL_CHARGE>
0

> <PUBCHEM_SUBSTANCE_ID>
310941405

> <PUBCHEM_SUBSTANCE_VERSION>
1

> <PUBCHEM_EXT_DATASOURCE_NAME>
4488

> <PUBCHEM_EXT_DATASOURCE_REGID>
SCHEMBL16119365

> <PUBCHEM_SUBSTANCE_COMMENT>
InChI=1S/C30H43N3O7/c1-18(31-28(37)21-9-11-22(34)12-10-21)27(36)33-25(16-20-7-13-23(39-3)14-8-20)29(38)32-24(15-19-5-4-6-19)26(35)30(2)17-40-30/h7-8,13-14,18-19,21-22,24-25,34H,4-6,9-12,15-17H2,1-3H3,(H,31,37)(H,32,38)(H,33,36)
InChIKey=VYPOZQXGEZGSAJ-UHFFFAOYSA-N

> <PUBCHEM_SUBSTANCE_SYNONYM>
SCHEMBL16119365

> <PUBCHEM_XREF_EXT_ID>
SCHEMBL16119365

> <PUBCHEM_EXT_DATASOURCE_URL>
https://www.surechembl.org/

> <PUBCHEM_EXT_SUBSTANCE_URL>
https://www.surechembl.org/chemical/SCHEMBL16119365

> <PUBCHEM_CID_ASSOCIATIONS>
117608231  1

> <PUBCHEM_COORDINATE_TYPE>
1
3

$$$$
