310948375
  -OEChem-07211613022D

 33 36  0     1  0  0  0  0  0999 V2000
    1.8883    0.9900    0.0000 S   0  0  0  0  0  0  0  0  0  0  0  0
   -1.7966   -2.4199    0.0000 O   0  0  0  0  0  0  0  0  0  0  0  0
    2.5482   -1.3383    0.0000 O   0  0  0  0  0  0  0  0  0  0  0  0
    2.5665    1.4666    0.0000 O   0  0  0  0  0  0  0  0  0  0  0  0
    2.3832    0.3117    0.0000 O   0  0  0  0  0  0  0  0  0  0  0  0
    4.1431   -0.0366    0.0000 O   0  0  0  0  0  0  0  0  0  0  0  0
   -2.5116    0.2750    0.0000 N   0  0  0  0  0  0  0  0  0  0  0  0
   -1.6866    0.1833    0.0000 N   0  0  0  0  0  0  0  0  0  0  0  0
   -0.7700   -0.9533    0.0000 N   0  0  0  0  0  0  0  0  0  0  0  0
   -3.1898   -2.1083    0.0000 N   0  0  0  0  0  0  0  0  0  0  0  0
   -2.2366   -1.0266    0.0000 C   0  0  0  0  0  0  0  0  0  0  0  0
   -2.8599   -0.4766    0.0000 C   0  0  0  0  0  0  0  0  0  0  0  0
   -1.5399   -0.6049    0.0000 C   0  0  0  0  0  0  0  0  0  0  0  0
    1.3016   -0.2933    0.0000 C   0  0  0  0  0  0  0  0  0  0  0  0
    1.2283    0.5133    0.0000 C   0  0  0  0  0  0  0  0  0  0  0  0
   -2.4199   -1.8333    0.0000 C   0  0  0  0  0  0  0  0  0  0  0  0
   -0.1100   -0.4766    0.0000 C   0  0  0  0  0  0  0  0  0  0  0  0
    2.0716   -0.6600    0.0000 C   0  0  3  0  0  0  0  0  0  0  0  0
   -2.9332    0.9900    0.0000 C   0  0  0  0  0  0  0  0  0  0  0  0
    0.6417   -0.7883    0.0000 C   0  0  0  0  0  0  0  0  0  0  0  0
   -3.6115   -0.7333    0.0000 C   0  0  0  0  0  0  0  0  0  0  0  0
    0.4583    0.8250    0.0000 C   0  0  0  0  0  0  0  0  0  0  0  0
   -0.1650    0.3667    0.0000 C   0  0  0  0  0  0  0  0  0  0  0  0
   -3.7948   -1.5399    0.0000 C   0  0  0  0  0  0  0  0  0  0  0  0
   -3.7582    1.0083    0.0000 C   0  0  0  0  0  0  0  0  0  0  0  0
   -2.5116    1.7232    0.0000 C   0  0  0  0  0  0  0  0  0  0  0  0
    2.7316   -0.1650    0.0000 C   0  0  0  0  0  0  0  0  0  0  0  0
    1.7599   -1.4299    0.0000 C   0  0  0  0  0  0  0  0  0  0  0  0
    1.3933    1.6683    0.0000 C   0  0  0  0  0  0  0  0  0  0  0  0
   -4.1431    1.7049    0.0000 C   0  0  0  0  0  0  0  0  0  0  0  0
   -2.9149    2.4199    0.0000 C   0  0  0  0  0  0  0  0  0  0  0  0
    3.4832   -0.4950    0.0000 C   0  0  0  0  0  0  0  0  0  0  0  0
   -3.7398    2.4199    0.0000 C   0  0  0  0  0  0  0  0  0  0  0  0
  1  4  2  0  0  0  0
  1  5  2  0  0  0  0
  1 15  1  0  0  0  0
  1 29  1  0  0  0  0
  2 16  2  0  0  0  0
  3 18  1  0  0  0  0
  6 32  1  0  0  0  0
  7  8  1  0  0  0  0
  7 12  1  0  0  0  0
  7 19  1  0  0  0  0
  8 13  2  0  0  0  0
  9 13  1  0  0  0  0
  9 17  1  0  0  0  0
 10 16  1  0  0  0  0
 10 24  1  0  0  0  0
 11 12  2  0  0  0  0
 11 13  1  0  0  0  0
 11 16  1  0  0  0  0
 12 21  1  0  0  0  0
 14 15  2  0  0  0  0
 14 18  1  0  0  0  0
 14 20  1  0  0  0  0
 15 22  1  0  0  0  0
 17 20  2  0  0  0  0
 17 23  1  0  0  0  0
 18 27  1  0  0  0  0
 18 28  1  0  0  0  0
 19 25  1  0  0  0  0
 19 26  1  0  0  0  0
 21 24  2  0  0  0  0
 22 23  2  0  0  0  0
 25 30  1  0  0  0  0
 26 31  1  0  0  0  0
 27 32  1  0  0  0  0
 30 33  1  0  0  0  0
 31 33  1  0  0  0  0
M  END
> <PUBCHEM_COMPOUND_ID_TYPE>
0

> <PUBCHEM_TOTAL_CHARGE>
0

> <PUBCHEM_SUBSTANCE_ID>
310948375

> <PUBCHEM_SUBSTANCE_VERSION>
1

> <PUBCHEM_EXT_DATASOURCE_NAME>
4488

> <PUBCHEM_EXT_DATASOURCE_REGID>
SCHEMBL16126556

> <PUBCHEM_SUBSTANCE_COMMENT>
InChI=1S/C23H30N4O5S/c1-23(30,11-13-28)17-14-15(8-9-19(17)33(2,31)32)25-21-20-18(10-12-24-22(20)29)27(26-21)16-6-4-3-5-7-16/h8-10,12,14,16,28,30H,3-7,11,13H2,1-2H3,(H,24,29)(H,25,26)
InChIKey=AGVCPPXUMHWVAK-UHFFFAOYSA-N

> <PUBCHEM_SUBSTANCE_SYNONYM>
SCHEMBL16126556

> <PUBCHEM_XREF_EXT_ID>
SCHEMBL16126556

> <PUBCHEM_EXT_DATASOURCE_URL>
https://www.surechembl.org/

> <PUBCHEM_EXT_SUBSTANCE_URL>
https://www.surechembl.org/chemical/SCHEMBL16126556

> <PUBCHEM_CID_ASSOCIATIONS>
117613938  1

> <PUBCHEM_COORDINATE_TYPE>
1
3

$$$$
