310935618
  -OEChem-07211613022D

 32 36  0     1  0  0  0  0  0999 V2000
    0.0485   -9.7061    0.0000 O   0  0  0  0  0  0  0  0  0  0  0  0
    1.4074   -8.0561    0.0000 N   0  0  3  0  0  0  0  0  0  0  0  0
    2.1353   -6.8428    0.0000 N   0  0  0  0  0  0  0  0  0  0  0  0
    0.7279   -4.4163    0.0000 N   0  0  0  0  0  0  0  0  0  0  0  0
    2.1353   -4.4163    0.0000 N   0  0  0  0  0  0  0  0  0  0  0  0
    1.4074   -9.7061    0.0000 N   0  0  0  0  0  0  0  0  0  0  0  0
    6.3575   -1.2133    0.0000 N   0  0  0  0  0  0  0  0  0  0  0  0
    1.4074   -5.6295    0.0000 C   0  0  0  0  0  0  0  0  0  0  0  0
    0.7279   -6.0178    0.0000 C   0  0  0  0  0  0  0  0  0  0  0  0
    1.4074   -7.2311    0.0000 C   0  0  0  0  0  0  0  0  0  0  0  0
    1.4074   -4.8045    0.0000 C   0  0  0  0  0  0  0  0  0  0  0  0
    0.7279   -6.8428    0.0000 C   0  0  0  0  0  0  0  0  0  0  0  0
    2.1353   -6.0178    0.0000 C   0  0  0  0  0  0  0  0  0  0  0  0
    0.0485   -5.6295    0.0000 C   0  0  0  0  0  0  0  0  0  0  0  0
    0.0000   -4.8045    0.0000 C   0  0  0  0  0  0  0  0  0  0  0  0
    0.7279   -8.4928    0.0000 C   0  0  0  0  0  0  0  0  0  0  0  0
    2.1353   -8.4928    0.0000 C   0  0  0  0  0  0  0  0  0  0  0  0
    0.7279   -9.3178    0.0000 C   0  0  0  0  0  0  0  0  0  0  0  0
    2.8633   -3.2030    0.0000 C   0  0  0  0  0  0  0  0  0  0  0  0
    2.1353   -3.6398    0.0000 C   0  0  0  0  0  0  0  0  0  0  0  0
    4.2707   -2.4265    0.0000 C   0  0  0  0  0  0  0  0  0  0  0  0
    4.9501   -2.0383    0.0000 C   0  0  0  0  0  0  0  0  0  0  0  0
    2.1353   -9.3178    0.0000 C   0  0  0  0  0  0  0  0  0  0  0  0
    3.5427   -3.6398    0.0000 C   0  0  0  0  0  0  0  0  0  0  0  0
    2.8633   -2.4265    0.0000 C   0  0  0  0  0  0  0  0  0  0  0  0
    4.2221   -3.2515    0.0000 C   0  0  0  0  0  0  0  0  0  0  0  0
    3.5427   -1.9897    0.0000 C   0  0  0  0  0  0  0  0  0  0  0  0
    4.9501   -1.1647    0.0000 C   0  0  0  0  0  0  0  0  0  0  0  0
    5.6295   -2.4265    0.0000 C   0  0  0  0  0  0  0  0  0  0  0  0
    5.6781   -0.8250    0.0000 C   0  0  0  0  0  0  0  0  0  0  0  0
    6.3575   -2.0383    0.0000 C   0  0  0  0  0  0  0  0  0  0  0  0
    5.7266    0.0000    0.0000 C   0  0  0  0  0  0  0  0  0  0  0  0
  1 18  2  0  0  0  0
  2 10  1  0  0  0  0
  2 16  1  0  0  0  0
  2 17  1  0  0  0  0
  3 10  1  0  0  0  0
  3 13  2  0  0  0  0
  4 11  1  0  0  0  0
  4 15  2  0  0  0  0
  5 11  1  0  0  0  0
  5 20  1  0  0  0  0
  6 18  1  0  0  0  0
  6 23  1  0  0  0  0
  7 30  1  0  0  0  0
  7 31  2  0  0  0  0
  8  9  1  0  0  0  0
  8 11  2  0  0  0  0
  8 13  1  0  0  0  0
  9 12  1  0  0  0  0
  9 14  2  0  0  0  0
 10 12  2  0  0  0  0
 14 15  1  0  0  0  0
 16 18  1  0  0  0  0
 17 23  1  0  0  0  0
 19 20  1  0  0  0  0
 19 24  2  0  0  0  0
 19 25  1  0  0  0  0
 21 22  1  0  0  0  0
 21 26  2  0  0  0  0
 21 27  1  0  0  0  0
 22 28  1  0  0  0  0
 22 29  2  0  0  0  0
 24 26  1  0  0  0  0
 25 27  2  0  0  0  0
 28 30  2  0  0  0  0
 29 31  1  0  0  0  0
 30 32  1  0  0  0  0
M  END
> <PUBCHEM_COMPOUND_ID_TYPE>
0

> <PUBCHEM_TOTAL_CHARGE>
0

> <PUBCHEM_SUBSTANCE_ID>
310935618

> <PUBCHEM_SUBSTANCE_VERSION>
1

> <PUBCHEM_EXT_DATASOURCE_NAME>
4488

> <PUBCHEM_EXT_DATASOURCE_REGID>
SCHEMBL16113192

> <PUBCHEM_SUBSTANCE_COMMENT>
InChI=1S/C25H24N6O/c1-17-12-20(6-8-26-17)19-4-2-18(3-5-19)14-30-25-22-15-29-23(13-21(22)7-9-28-25)31-11-10-27-24(32)16-31/h2-9,12-13,15H,10-11,14,16H2,1H3,(H,27,32)(H,28,30)
InChIKey=HRRQLWOCKZREKU-UHFFFAOYSA-N

> <PUBCHEM_SUBSTANCE_SYNONYM>
SCHEMBL16113192

> <PUBCHEM_XREF_EXT_ID>
SCHEMBL16113192

> <PUBCHEM_EXT_DATASOURCE_URL>
https://www.surechembl.org/

> <PUBCHEM_EXT_SUBSTANCE_URL>
https://www.surechembl.org/chemical/SCHEMBL16113192

> <PUBCHEM_CID_ASSOCIATIONS>
72699635  1

> <PUBCHEM_COORDINATE_TYPE>
1
3

$$$$
