310949447
  -OEChem-07211613022D

 37 40  0     1  0  0  0  0  0999 V2000
   -2.2690    0.1220    0.0000 S   0  0  0  0  0  0  0  0  0  0  0  0
   -2.1470    2.3666    0.0000 O   0  0  0  0  0  0  0  0  0  0  0  0
   -3.3181    1.5127    0.0000 O   0  0  0  0  0  0  0  0  0  0  0  0
   -0.8295   -4.1232    0.0000 O   0  0  0  0  0  0  0  0  0  0  0  0
    0.8539    3.5621    0.0000 O   0  0  0  0  0  0  0  0  0  0  0  0
   -2.2690   -4.1232    0.0000 O   0  0  0  0  0  0  0  0  0  0  0  0
   -1.5859   -1.1955    0.0000 N   0  0  0  0  0  0  0  0  0  0  0  0
   -0.9515    0.0976    0.0000 N   0  0  0  0  0  0  0  0  0  0  0  0
   -1.5615   -2.8790    0.0000 N   0  0  0  0  0  0  0  0  0  0  0  0
   -1.1711    0.9515    0.0000 C   0  0  0  0  0  0  0  0  0  0  0  0
   -1.5859   -0.3172    0.0000 C   0  0  0  0  0  0  0  0  0  0  0  0
   -2.0250    0.9759    0.0000 C   0  0  0  0  0  0  0  0  0  0  0  0
   -0.6588    1.6347    0.0000 C   0  0  0  0  0  0  0  0  0  0  0  0
   -0.8295   -1.5615    0.0000 C   0  0  3  0  0  0  0  0  0  0  0  0
   -2.4886    1.6103    0.0000 C   0  0  0  0  0  0  0  0  0  0  0  0
   -2.2690   -1.5859    0.0000 C   0  0  0  0  0  0  0  0  0  0  0  0
   -0.8295   -2.4154    0.0000 C   0  0  0  0  0  0  0  0  0  0  0  0
    0.1464    1.5127    0.0000 C   0  0  0  0  0  0  0  0  0  0  0  0
   -0.9759    2.3666    0.0000 C   0  0  0  0  0  0  0  0  0  0  0  0
   -2.2934   -2.4154    0.0000 C   0  0  0  0  0  0  0  0  0  0  0  0
   -1.5615   -3.6597    0.0000 C   0  0  0  0  0  0  0  0  0  0  0  0
    0.3416    2.9277    0.0000 C   0  0  0  0  0  0  0  0  0  0  0  0
    0.6343    2.1226    0.0000 C   0  0  0  0  0  0  0  0  0  0  0  0
   -0.4635    3.0254    0.0000 C   0  0  0  0  0  0  0  0  0  0  0  0
   -0.2684   -0.9759    0.0000 C   0  0  0  0  0  0  0  0  0  0  0  0
   -0.0976   -3.6353    0.0000 C   0  0  0  0  0  0  0  0  0  0  0  0
   -2.6350    3.0741    0.0000 C   0  0  0  0  0  0  0  0  0  0  0  0
    1.6835    3.4645    0.0000 C   0  0  0  0  0  0  0  0  0  0  0  0
    2.0007    2.7326    0.0000 C   0  0  0  0  0  0  0  0  0  0  0  0
    2.1958    4.1232    0.0000 C   0  0  0  0  0  0  0  0  0  0  0  0
   -0.0732   -2.8058    0.0000 C   0  0  0  0  0  0  0  0  0  0  0  0
    0.6099   -3.2205    0.0000 C   0  0  0  0  0  0  0  0  0  0  0  0
    0.6099   -4.0745    0.0000 C   0  0  0  0  0  0  0  0  0  0  0  0
   -2.3178    3.8305    0.0000 C   0  0  0  0  0  0  0  0  0  0  0  0
    2.8302    2.6106    0.0000 C   0  0  0  0  0  0  0  0  0  0  0  0
    3.0009    4.0257    0.0000 C   0  0  0  0  0  0  0  0  0  0  0  0
    3.3181    3.2694    0.0000 C   0  0  0  0  0  0  0  0  0  0  0  0
  1 11  1  0  0  0  0
  1 12  1  0  0  0  0
  2 15  1  0  0  0  0
  2 27  1  0  0  0  0
  3 15  2  0  0  0  0
  4 21  1  0  0  0  0
  4 26  1  0  0  0  0
  5 22  1  0  0  0  0
  5 28  1  0  0  0  0
  6 21  2  0  0  0  0
  7 11  1  0  0  0  0
  7 14  1  0  0  0  0
  7 16  1  0  0  0  0
  8 10  1  0  0  0  0
  8 11  2  0  0  0  0
  9 17  1  0  0  0  0
  9 20  1  0  0  0  0
  9 21  1  0  0  0  0
 10 12  2  0  0  0  0
 10 13  1  0  0  0  0
 12 15  1  0  0  0  0
 13 18  2  0  0  0  0
 13 19  1  0  0  0  0
 14 17  1  0  0  0  0
 14 25  1  0  0  0  0
 16 20  1  0  0  0  0
 18 23  1  0  0  0  0
 19 24  2  0  0  0  0
 22 23  2  0  0  0  0
 22 24  1  0  0  0  0
 26 31  1  0  0  0  0
 26 32  1  0  0  0  0
 26 33  1  0  0  0  0
 27 34  1  0  0  0  0
 28 29  2  0  0  0  0
 28 30  1  0  0  0  0
 29 35  1  0  0  0  0
 30 36  2  0  0  0  0
 35 37  2  0  0  0  0
 36 37  1  0  0  0  0
M  END
> <PUBCHEM_COMPOUND_ID_TYPE>
0

> <PUBCHEM_TOTAL_CHARGE>
0

> <PUBCHEM_SUBSTANCE_ID>
310949447

> <PUBCHEM_SUBSTANCE_VERSION>
1

> <PUBCHEM_EXT_DATASOURCE_NAME>
4488

> <PUBCHEM_EXT_DATASOURCE_REGID>
SCHEMBL16127641

> <PUBCHEM_SUBSTANCE_COMMENT>
InChI=1S/C28H33N3O5S/c1-6-34-25(32)24-23(20-12-14-22(15-13-20)35-21-10-8-7-9-11-21)29-26(37-24)31-17-16-30(18-19(31)2)27(33)36-28(3,4)5/h7-15,19H,6,16-18H2,1-5H3
InChIKey=OZNSRJWNXSHYCF-UHFFFAOYSA-N

> <PUBCHEM_SUBSTANCE_SYNONYM>
SCHEMBL16127641

> <PUBCHEM_XREF_EXT_ID>
SCHEMBL16127641

> <PUBCHEM_EXT_DATASOURCE_URL>
https://www.surechembl.org/

> <PUBCHEM_EXT_SUBSTANCE_URL>
https://www.surechembl.org/chemical/SCHEMBL16127641

> <PUBCHEM_CID_ASSOCIATIONS>
117614894  1

> <PUBCHEM_COORDINATE_TYPE>
1
3

$$$$
