310928974
  -OEChem-07211613022D

 10  9  0     1  0  0  0  0  0999 V2000
    0.4125   -1.4437    0.0000 Cl  0  0  0  0  0  0  0  0  0  0  0  0
    0.7145    1.4437    0.0000 N   0  0  0  0  0  0  0  0  0  0  0  0
   -1.4289   -0.6187    0.0000 N   0  0  0  0  0  0  0  0  0  0  0  0
    0.0000    0.2063    0.0000 C   0  0  3  0  0  0  0  0  0  0  0  0
    0.0000    1.0313    0.0000 C   0  0  0  0  0  0  0  0  0  0  0  0
    0.7145   -0.2062    0.0000 C   0  0  0  0  0  0  0  0  0  0  0  0
    1.4289    0.2063    0.0000 C   0  0  0  0  0  0  0  0  0  0  0  0
   -0.7145   -0.2062    0.0000 C   0  0  0  0  0  0  0  0  0  0  0  0
    1.4289    1.0313    0.0000 C   0  0  0  0  0  0  0  0  0  0  0  0
   -0.4125   -1.4437    0.0000 H   0  0  0  0  0  0  0  0  0  0  0  0
  1 10  1  0  0  0  0
  2  5  1  0  0  0  0
  2  9  1  0  0  0  0
  3  8  3  0  0  0  0
  4  5  1  0  0  0  0
  4  6  1  0  0  0  0
  4  8  1  6  0  0  0
  6  7  1  0  0  0  0
  7  9  1  0  0  0  0
M  END
> <PUBCHEM_COMPOUND_ID_TYPE>
0

> <PUBCHEM_TOTAL_CHARGE>
0

> <PUBCHEM_SUBSTANCE_ID>
310928974

> <PUBCHEM_SUBSTANCE_VERSION>
2

> <PUBCHEM_EXT_DATASOURCE_NAME>
11752

> <PUBCHEM_EXT_DATASOURCE_REGID>
BD292201

> <PUBCHEM_SUBSTANCE_SYNONYM>
(S)-Piperidine-3-carbonitrile hydrochloride
915226-72-1

> <PUBCHEM_GENERIC_REGISTRY_NAME>
915226-72-1

> <PUBCHEM_XREF_EXT_ID>
BD292201

> <PUBCHEM_EXT_DATASOURCE_URL>
http://www.bidepharmatech.com/en/index.html

> <PUBCHEM_EXT_SUBSTANCE_URL>
http://www.bidepharmatech.com/en/goodsview_goodscode_BD292201.html

> <PUBCHEM_CID_ASSOCIATIONS>
67232982  1
313  2
40566295  2

> <PUBCHEM_COORDINATE_TYPE>
1
3

> <PUBCHEM_BONDANNOTATIONS>
4  8  6

$$$$
