310934506
  -OEChem-07211613022D

 19 18  0     1  0  0  0  0  0999 V2000
    0.8250    0.0000    0.0000 P   0  0  0  0  0  0  0  0  0  0  0  0
    2.8875   -1.5395    0.0000 P   0  0  0  0  0  0  0  0  0  0  0  0
    0.8250   -1.6500    0.0000 O   0  0  0  0  0  0  0  0  0  0  0  0
    0.0000    0.0000    0.0000 O   0  0  0  0  0  0  0  0  0  0  0  0
    0.8250    0.8250    0.0000 O   0  0  0  0  0  0  0  0  0  0  0  0
    1.6500    0.0000    0.0000 O   0  0  0  0  0  0  0  0  0  0  0  0
    2.8875   -0.7145    0.0000 O   0  0  0  0  0  0  0  0  0  0  0  0
    3.7125   -1.5395    0.0000 O   0  0  0  0  0  0  0  0  0  0  0  0
    2.8875   -2.3645    0.0000 O   0  0  0  0  0  0  0  0  0  0  0  0
    0.0000   -0.8250    0.0000 N   0  0  3  0  0  0  0  0  0  0  0  0
    0.8250   -0.8250    0.0000 C   0  0  3  0  0  0  0  0  0  0  0  0
    1.6500   -0.8250    0.0000 C   0  0  0  0  0  0  0  0  0  0  0  0
    2.0625   -1.5395    0.0000 C   0  0  0  0  0  0  0  0  0  0  0  0
   -0.4125   -0.1105    0.0000 C   0  0  0  0  0  0  0  0  0  0  0  0
   -0.4125   -1.5395    0.0000 C   0  0  0  0  0  0  0  0  0  0  0  0
   -1.2375   -0.1105    0.0000 C   0  0  0  0  0  0  0  0  0  0  0  0
   -1.6500    0.6039    0.0000 C   0  0  0  0  0  0  0  0  0  0  0  0
   -2.4750    0.6039    0.0000 C   0  0  0  0  0  0  0  0  0  0  0  0
   -2.8875    1.3184    0.0000 C   0  0  0  0  0  0  0  0  0  0  0  0
  1  4  2  0  0  0  0
  1  5  1  0  0  0  0
  1  6  1  0  0  0  0
  1 11  1  0  0  0  0
  2  7  2  0  0  0  0
  2  8  1  0  0  0  0
  2  9  1  0  0  0  0
  2 13  1  0  0  0  0
  3 11  1  0  0  0  0
 10 11  1  0  0  0  0
 10 14  1  0  0  0  0
 10 15  1  0  0  0  0
 11 12  1  0  0  0  0
 12 13  1  0  0  0  0
 14 16  1  0  0  0  0
 16 17  1  0  0  0  0
 17 18  1  0  0  0  0
 18 19  1  0  0  0  0
M  END
> <PUBCHEM_COMPOUND_ID_TYPE>
0

> <PUBCHEM_TOTAL_CHARGE>
0

> <PUBCHEM_SUBSTANCE_ID>
310934506

> <PUBCHEM_SUBSTANCE_VERSION>
1

> <PUBCHEM_EXT_DATASOURCE_NAME>
4488

> <PUBCHEM_EXT_DATASOURCE_REGID>
SCHEMBL16111991

> <PUBCHEM_SUBSTANCE_COMMENT>
InChI=1S/C9H23NO7P2/c1-3-4-5-7-10(2)9(11,19(15,16)17)6-8-18(12,13)14/h11H,3-8H2,1-2H3,(H2,12,13,14)(H2,15,16,17)
InChIKey=AJMADTBWYQYKDX-UHFFFAOYSA-N

> <PUBCHEM_SUBSTANCE_SYNONYM>
SCHEMBL16111991

> <PUBCHEM_XREF_EXT_ID>
SCHEMBL16111991

> <PUBCHEM_EXT_DATASOURCE_URL>
https://www.surechembl.org/

> <PUBCHEM_EXT_SUBSTANCE_URL>
https://www.surechembl.org/chemical/SCHEMBL16111991

> <PUBCHEM_CID_ASSOCIATIONS>
117602703  1

> <PUBCHEM_COORDINATE_TYPE>
1
3

$$$$
