310940794
  -OEChem-07211613022D

 40 43  0     1  0  0  0  0  0999 V2000
    5.0905   -1.1671    0.0000 O   0  0  0  0  0  0  0  0  0  0  0  0
    3.9515    0.8015    0.0000 O   0  0  0  0  0  0  0  0  0  0  0  0
    1.7859   -1.0687    0.0000 O   0  0  0  0  0  0  0  0  0  0  0  0
   -0.3656    0.8015    0.0000 O   0  0  0  0  0  0  0  0  0  0  0  0
    3.9515    2.4609    0.0000 O   0  0  0  0  0  0  0  0  0  0  0  0
   -2.5312   -1.2796    0.0000 O   0  0  0  0  0  0  0  0  0  0  0  0
   -5.4139   -1.2796    0.0000 O   0  0  0  0  0  0  0  0  0  0  0  0
    2.5171   -0.0281    0.0000 N   0  0  0  0  0  0  0  0  0  0  0  0
    0.3516   -0.4500    0.0000 N   0  0  0  0  0  0  0  0  0  0  0  0
   -1.8140   -0.0281    0.0000 N   0  0  0  0  0  0  0  0  0  0  0  0
   -3.9655   -0.4500    0.0000 N   0  0  0  0  0  0  0  0  0  0  0  0
    4.6827   -0.4359    0.0000 C   0  0  3  0  0  0  0  0  0  0  0  0
    3.9515   -0.0281    0.0000 C   0  0  0  0  0  0  0  0  0  0  0  0
    4.2749   -1.1250    0.0000 C   0  0  0  0  0  0  0  0  0  0  0  0
    3.2484   -0.4218    0.0000 C   0  0  3  0  0  0  0  0  0  0  0  0
    5.4139   -0.0281    0.0000 C   0  0  0  0  0  0  0  0  0  0  0  0
    3.2343   -1.2515    0.0000 C   0  0  0  0  0  0  0  0  0  0  0  0
    1.8000   -0.4078    0.0000 C   0  0  0  0  0  0  0  0  0  0  0  0
    2.5171   -1.6734    0.0000 C   0  0  0  0  0  0  0  0  0  0  0  0
    1.0687   -0.0140    0.0000 C   0  0  3  0  0  0  0  0  0  0  0  0
    1.0968    0.8297    0.0000 C   0  0  0  0  0  0  0  0  0  0  0  0
    1.7156   -1.4765    0.0000 C   0  0  0  0  0  0  0  0  0  0  0  0
    2.2921   -2.4609    0.0000 C   0  0  0  0  0  0  0  0  0  0  0  0
    1.7859    1.2375    0.0000 C   0  0  0  0  0  0  0  0  0  0  0  0
   -0.3656   -0.0281    0.0000 C   0  0  0  0  0  0  0  0  0  0  0  0
    1.5187   -2.2640    0.0000 C   0  0  0  0  0  0  0  0  0  0  0  0
   -1.0687   -0.4218    0.0000 C   0  0  3  0  0  0  0  0  0  0  0  0
    2.5171    0.8297    0.0000 C   0  0  0  0  0  0  0  0  0  0  0  0
    1.8140    2.0812    0.0000 C   0  0  0  0  0  0  0  0  0  0  0  0
    3.2343    2.0812    0.0000 C   0  0  0  0  0  0  0  0  0  0  0  0
    3.2343    1.2375    0.0000 C   0  0  0  0  0  0  0  0  0  0  0  0
    2.5171    2.4609    0.0000 C   0  0  0  0  0  0  0  0  0  0  0  0
   -2.5171   -0.4078    0.0000 C   0  0  0  0  0  0  0  0  0  0  0  0
   -3.2343   -0.0140    0.0000 C   0  0  0  0  0  0  0  0  0  0  0  0
   -1.0828   -1.2656    0.0000 C   0  0  0  0  0  0  0  0  0  0  0  0
   -3.9655   -1.2515    0.0000 C   0  0  0  0  0  0  0  0  0  0  0  0
   -4.6968   -0.0140    0.0000 C   0  0  0  0  0  0  0  0  0  0  0  0
   -4.6827   -1.6593    0.0000 C   0  0  0  0  0  0  0  0  0  0  0  0
   -5.3858   -0.4218    0.0000 C   0  0  0  0  0  0  0  0  0  0  0  0
    4.6968    2.0530    0.0000 C   0  0  0  0  0  0  0  0  0  0  0  0
  1 12  1  0  0  0  0
  1 14  1  0  0  0  0
  2 13  2  0  0  0  0
  3 18  2  0  0  0  0
  4 25  2  0  0  0  0
  5 30  1  0  0  0  0
  5 40  1  0  0  0  0
  6 33  2  0  0  0  0
  7 38  1  0  0  0  0
  7 39  1  0  0  0  0
  8 15  1  0  0  0  0
  8 18  1  0  0  0  0
  9 20  1  0  0  0  0
  9 25  1  0  0  0  0
 10 27  1  0  0  0  0
 10 33  1  0  0  0  0
 11 34  1  0  0  0  0
 11 36  1  0  0  0  0
 11 37  1  0  0  0  0
 12 13  1  0  0  0  0
 12 14  1  0  0  0  0
 12 16  1  0  0  0  0
 13 15  1  0  0  0  0
 15 17  1  0  0  0  0
 17 19  1  0  0  0  0
 18 20  1  0  0  0  0
 19 22  1  0  0  0  0
 19 23  1  0  0  0  0
 20 21  1  0  0  0  0
 21 24  1  0  0  0  0
 22 26  1  0  0  0  0
 23 26  1  0  0  0  0
 24 28  2  0  0  0  0
 24 29  1  0  0  0  0
 25 27  1  0  0  0  0
 27 35  1  0  0  0  0
 28 31  1  0  0  0  0
 29 32  2  0  0  0  0
 30 31  2  0  0  0  0
 30 32  1  0  0  0  0
 33 34  1  0  0  0  0
 36 38  1  0  0  0  0
 37 39  1  0  0  0  0
M  END
> <PUBCHEM_COMPOUND_ID_TYPE>
0

> <PUBCHEM_TOTAL_CHARGE>
0

> <PUBCHEM_SUBSTANCE_ID>
310940794

> <PUBCHEM_SUBSTANCE_VERSION>
1

> <PUBCHEM_EXT_DATASOURCE_NAME>
4488

> <PUBCHEM_EXT_DATASOURCE_REGID>
SCHEMBL16118753

> <PUBCHEM_SUBSTANCE_COMMENT>
InChI=1S/C29H42N4O7/c1-19(30-25(34)17-33-11-13-39-14-12-33)27(36)32-24(16-21-7-9-22(38-3)10-8-21)28(37)31-23(15-20-5-4-6-20)26(35)29(2)18-40-29/h7-10,19-20,23-24H,4-6,11-18H2,1-3H3,(H,30,34)(H,31,37)(H,32,36)
InChIKey=WFTXOQIRARNKPQ-UHFFFAOYSA-N

> <PUBCHEM_SUBSTANCE_SYNONYM>
SCHEMBL16118753

> <PUBCHEM_XREF_EXT_ID>
SCHEMBL16118753

> <PUBCHEM_EXT_DATASOURCE_URL>
https://www.surechembl.org/

> <PUBCHEM_EXT_SUBSTANCE_URL>
https://www.surechembl.org/chemical/SCHEMBL16118753

> <PUBCHEM_CID_ASSOCIATIONS>
86296338  1

> <PUBCHEM_COORDINATE_TYPE>
1
3

$$$$
