310947029
  -OEChem-07211613022D

 16 17  0     1  0  0  0  0  0999 V2000
   -2.6786   -0.1217    0.0000 Br  0  0  0  0  0  0  0  0  0  0  0  0
    2.4912   -1.1145    0.0000 S   0  0  0  0  0  0  0  0  0  0  0  0
    1.1988    1.0583    0.0000 O   0  0  0  0  0  0  0  0  0  0  0  0
    1.3861   -0.3465    0.0000 N   0  0  0  0  0  0  0  0  0  0  0  0
    0.8617    0.2903    0.0000 C   0  0  0  0  0  0  0  0  0  0  0  0
    0.0749    0.1966    0.0000 C   0  0  0  0  0  0  0  0  0  0  0  0
    2.1915   -0.3465    0.0000 C   0  0  3  0  0  0  0  0  0  0  0  0
   -0.4495    0.8335    0.0000 C   0  0  0  0  0  0  0  0  0  0  0  0
    1.1613   -1.1332    0.0000 C   0  0  0  0  0  0  0  0  0  0  0  0
   -0.2435   -0.5713    0.0000 C   0  0  0  0  0  0  0  0  0  0  0  0
   -1.2363    0.7212    0.0000 C   0  0  0  0  0  0  0  0  0  0  0  0
   -1.5734   -0.0281    0.0000 C   0  0  0  0  0  0  0  0  0  0  0  0
    1.8544   -1.6015    0.0000 C   0  0  0  0  0  0  0  0  0  0  0  0
   -1.0490   -0.6837    0.0000 C   0  0  0  0  0  0  0  0  0  0  0  0
    2.6786    0.3278    0.0000 C   0  0  0  0  0  0  0  0  0  0  0  0
   -0.1312    1.6015    0.0000 C   0  0  0  0  0  0  0  0  0  0  0  0
  1 12  1  0  0  0  0
  2  7  1  0  0  0  0
  2 13  1  0  0  0  0
  3  5  2  0  0  0  0
  4  5  1  0  0  0  0
  4  7  1  0  0  0  0
  4  9  1  0  0  0  0
  5  6  1  0  0  0  0
  6  8  1  0  0  0  0
  6 10  2  0  0  0  0
  7 15  1  0  0  0  0
  8 11  2  0  0  0  0
  8 16  1  0  0  0  0
  9 13  1  0  0  0  0
 10 14  1  0  0  0  0
 11 12  1  0  0  0  0
 12 14  2  0  0  0  0
M  END
> <PUBCHEM_COMPOUND_ID_TYPE>
0

> <PUBCHEM_TOTAL_CHARGE>
0

> <PUBCHEM_SUBSTANCE_ID>
310947029

> <PUBCHEM_SUBSTANCE_VERSION>
1

> <PUBCHEM_EXT_DATASOURCE_NAME>
4488

> <PUBCHEM_EXT_DATASOURCE_REGID>
SCHEMBL16125182

> <PUBCHEM_SUBSTANCE_COMMENT>
InChI=1S/C12H14BrNOS/c1-8-7-10(13)3-4-11(8)12(15)14-5-6-16-9(14)2/h3-4,7,9H,5-6H2,1-2H3
InChIKey=MSESRPXKJBSGSW-UHFFFAOYSA-N

> <PUBCHEM_SUBSTANCE_SYNONYM>
SCHEMBL16125182

> <PUBCHEM_XREF_EXT_ID>
SCHEMBL16125182

> <PUBCHEM_EXT_DATASOURCE_URL>
https://www.surechembl.org/

> <PUBCHEM_EXT_SUBSTANCE_URL>
https://www.surechembl.org/chemical/SCHEMBL16125182

> <PUBCHEM_CID_ASSOCIATIONS>
117612880  1

> <PUBCHEM_COORDINATE_TYPE>
1
3

$$$$
