310937208
  -OEChem-07211613022D

 21 20  0     1  0  0  0  0  0999 V2000
    4.9577   -3.6815    0.0000 O   0  0  0  0  0  0  0  0  0  0  0  0
    1.4235    0.0000    0.0000 O   0  0  0  0  0  0  0  0  0  0  0  0
    5.6695   -4.9087    0.0000 O   0  0  0  0  0  0  0  0  0  0  0  0
    0.8590   -1.3745    0.0000 O   0  0  0  0  0  0  0  0  0  0  0  0
    2.8225   -3.2642    0.0000 N   0  0  0  0  0  0  0  0  0  0  0  0
    3.5342   -4.4914    0.0000 C   0  0  3  0  0  0  0  0  0  0  0  0
    2.1107   -2.0371    0.0000 C   0  0  3  0  0  0  0  0  0  0  0  0
    3.5342   -3.6815    0.0000 C   0  0  0  0  0  0  0  0  0  0  0  0
    2.8225   -2.4543    0.0000 C   0  0  0  0  0  0  0  0  0  0  0  0
    4.2460   -4.9087    0.0000 C   0  0  0  0  0  0  0  0  0  0  0  0
    2.1107   -1.2272    0.0000 C   0  0  0  0  0  0  0  0  0  0  0  0
    2.8225   -4.9087    0.0000 C   0  0  0  0  0  0  0  0  0  0  0  0
    1.4235   -2.4543    0.0000 C   0  0  0  0  0  0  0  0  0  0  0  0
    4.9577   -4.4914    0.0000 C   0  0  0  0  0  0  0  0  0  0  0  0
    1.3990   -0.8100    0.0000 C   0  0  0  0  0  0  0  0  0  0  0  0
    2.1107   -4.4914    0.0000 C   0  0  0  0  0  0  0  0  0  0  0  0
    0.7118   -2.0371    0.0000 C   0  0  0  0  0  0  0  0  0  0  0  0
    1.3990   -4.9087    0.0000 C   0  0  0  0  0  0  0  0  0  0  0  0
    0.0000   -2.4543    0.0000 C   0  0  0  0  0  0  0  0  0  0  0  0
    0.7118   -1.2272    0.0000 C   0  0  0  0  0  0  0  0  0  0  0  0
    2.1107   -3.6815    0.0000 C   0  0  0  0  0  0  0  0  0  0  0  0
  1 14  2  0  0  0  0
  2 15  2  0  0  0  0
  3 14  1  0  0  0  0
  4 15  1  0  0  0  0
  5  8  1  0  0  0  0
  5  9  1  0  0  0  0
  6  8  1  0  0  0  0
  6 10  1  0  0  0  0
  6 12  1  0  0  0  0
  7  9  1  0  0  0  0
  7 11  1  0  0  0  0
  7 13  1  0  0  0  0
 10 14  1  0  0  0  0
 11 15  1  0  0  0  0
 12 16  1  0  0  0  0
 13 17  1  0  0  0  0
 16 18  1  0  0  0  0
 16 21  1  0  0  0  0
 17 19  1  0  0  0  0
 17 20  1  0  0  0  0
M  END
> <PUBCHEM_COMPOUND_ID_TYPE>
0

> <PUBCHEM_TOTAL_CHARGE>
0

> <PUBCHEM_SUBSTANCE_ID>
310937208

> <PUBCHEM_SUBSTANCE_VERSION>
1

> <PUBCHEM_EXT_DATASOURCE_NAME>
4488

> <PUBCHEM_EXT_DATASOURCE_REGID>
SCHEMBL16114938

> <PUBCHEM_SUBSTANCE_COMMENT>
InChI=1S/C16H31NO4/c1-11(2)5-13(7-15(18)19)9-17-10-14(6-12(3)4)8-16(20)21/h11-14,17H,5-10H2,1-4H3,(H,18,19)(H,20,21)
InChIKey=JQHWCCWUEQOSBZ-UHFFFAOYSA-N

> <PUBCHEM_SUBSTANCE_SYNONYM>
SCHEMBL16114938

> <PUBCHEM_XREF_EXT_ID>
SCHEMBL16114938

> <PUBCHEM_EXT_DATASOURCE_URL>
https://www.surechembl.org/

> <PUBCHEM_EXT_SUBSTANCE_URL>
https://www.surechembl.org/chemical/SCHEMBL16114938

> <PUBCHEM_CID_ASSOCIATIONS>
117605017  1

> <PUBCHEM_COORDINATE_TYPE>
1
3

$$$$
