310941346
  -OEChem-07211613022D

 40 43  0     1  0  0  0  0  0999 V2000
    5.0376    0.6469    0.0000 O   0  0  0  0  0  0  0  0  0  0  0  0
    3.9090   -1.3076    0.0000 O   0  0  0  0  0  0  0  0  0  0  0  0
    1.7618    0.7570    0.0000 O   0  0  0  0  0  0  0  0  0  0  0  0
   -0.3717   -1.3076    0.0000 O   0  0  0  0  0  0  0  0  0  0  0  0
   -2.5188    0.7570    0.0000 O   0  0  0  0  0  0  0  0  0  0  0  0
   -5.3680    0.7570    0.0000 O   0  0  0  0  0  0  0  0  0  0  0  0
    2.4913   -0.4679    0.0000 N   0  0  0  0  0  0  0  0  0  0  0  0
    0.3441   -0.0551    0.0000 N   0  0  0  0  0  0  0  0  0  0  0  0
   -1.8031   -0.4679    0.0000 N   0  0  0  0  0  0  0  0  0  0  0  0
   -3.9365   -0.0551    0.0000 N   0  0  0  0  0  0  0  0  0  0  0  0
    4.6247   -0.0138    0.0000 C   0  0  3  0  0  0  0  0  0  0  0  0
    3.9228   -0.4267    0.0000 C   0  0  0  0  0  0  0  0  0  0  0  0
    4.2393    0.6607    0.0000 C   0  0  0  0  0  0  0  0  0  0  0  0
    3.1932   -0.0413    0.0000 C   0  0  3  0  0  0  0  0  0  0  0  0
    5.3680   -0.4542    0.0000 C   0  0  0  0  0  0  0  0  0  0  0  0
    3.1932    1.2801    0.0000 C   0  0  0  0  0  0  0  0  0  0  0  0
    1.7756   -0.0551    0.0000 C   0  0  0  0  0  0  0  0  0  0  0  0
    1.0736   -0.4404    0.0000 C   0  0  3  0  0  0  0  0  0  0  0  0
    2.4913    1.7067    0.0000 C   0  0  0  0  0  0  0  0  0  0  0  0
    1.0598   -1.2801    0.0000 C   0  0  0  0  0  0  0  0  0  0  0  0
   -0.3579   -0.4267    0.0000 C   0  0  0  0  0  0  0  0  0  0  0  0
    1.7756    1.2939    0.0000 C   0  0  0  0  0  0  0  0  0  0  0  0
    2.4913    2.5050    0.0000 C   0  0  0  0  0  0  0  0  0  0  0  0
    1.7893   -1.6929    0.0000 C   0  0  0  0  0  0  0  0  0  0  0  0
   -1.0873   -0.0413    0.0000 C   0  0  3  0  0  0  0  0  0  0  0  0
    1.0736    1.6929    0.0000 C   0  0  0  0  0  0  0  0  0  0  0  0
    1.7618    2.9179    0.0000 C   0  0  0  0  0  0  0  0  0  0  0  0
    1.7893   -2.5188    0.0000 C   0  0  0  0  0  0  0  0  0  0  0  0
    2.4775   -1.2939    0.0000 C   0  0  0  0  0  0  0  0  0  0  0  0
   -2.5188   -0.0551    0.0000 C   0  0  0  0  0  0  0  0  0  0  0  0
    1.0736    2.5188    0.0000 C   0  0  0  0  0  0  0  0  0  0  0  0
   -3.2070   -0.4404    0.0000 C   0  0  0  0  0  0  0  0  0  0  0  0
   -1.0736    0.7983    0.0000 C   0  0  0  0  0  0  0  0  0  0  0  0
    2.4913   -2.9179    0.0000 C   0  0  0  0  0  0  0  0  0  0  0  0
    3.2070   -1.7067    0.0000 C   0  0  0  0  0  0  0  0  0  0  0  0
    3.2070   -2.5188    0.0000 C   0  0  0  0  0  0  0  0  0  0  0  0
   -3.9365    0.7707    0.0000 C   0  0  0  0  0  0  0  0  0  0  0  0
   -4.6247   -0.4404    0.0000 C   0  0  0  0  0  0  0  0  0  0  0  0
   -4.6660    1.1975    0.0000 C   0  0  0  0  0  0  0  0  0  0  0  0
   -5.3542   -0.0413    0.0000 C   0  0  0  0  0  0  0  0  0  0  0  0
  1 11  1  0  0  0  0
  1 13  1  0  0  0  0
  2 12  2  0  0  0  0
  3 17  2  0  0  0  0
  4 21  2  0  0  0  0
  5 30  2  0  0  0  0
  6 39  1  0  0  0  0
  6 40  1  0  0  0  0
  7 14  1  0  0  0  0
  7 17  1  0  0  0  0
  8 18  1  0  0  0  0
  8 21  1  0  0  0  0
  9 25  1  0  0  0  0
  9 30  1  0  0  0  0
 10 32  1  0  0  0  0
 10 37  1  0  0  0  0
 10 38  1  0  0  0  0
 11 12  1  0  0  0  0
 11 13  1  0  0  0  0
 11 15  1  0  0  0  0
 12 14  1  0  0  0  0
 14 16  1  0  0  0  0
 16 19  1  0  0  0  0
 17 18  1  0  0  0  0
 18 20  1  0  0  0  0
 19 22  2  0  0  0  0
 19 23  1  0  0  0  0
 20 24  1  0  0  0  0
 21 25  1  0  0  0  0
 22 26  1  0  0  0  0
 23 27  2  0  0  0  0
 24 28  2  0  0  0  0
 24 29  1  0  0  0  0
 25 33  1  0  0  0  0
 26 31  2  0  0  0  0
 27 31  1  0  0  0  0
 28 34  1  0  0  0  0
 29 35  1  0  0  0  0
 30 32  1  0  0  0  0
 34 36  1  0  0  0  0
 35 36  1  0  0  0  0
 37 39  1  0  0  0  0
 38 40  1  0  0  0  0
M  END
> <PUBCHEM_COMPOUND_ID_TYPE>
0

> <PUBCHEM_TOTAL_CHARGE>
0

> <PUBCHEM_SUBSTANCE_ID>
310941346

> <PUBCHEM_SUBSTANCE_VERSION>
1

> <PUBCHEM_EXT_DATASOURCE_NAME>
4488

> <PUBCHEM_EXT_DATASOURCE_REGID>
SCHEMBL16119306

> <PUBCHEM_SUBSTANCE_COMMENT>
InChI=1S/C30H42N4O6/c1-21(31-26(35)19-34-13-15-39-16-14-34)28(37)33-25(18-23-11-7-4-8-12-23)29(38)32-24(27(36)30(2)20-40-30)17-22-9-5-3-6-10-22/h3,5-6,9-11,21,24-25H,4,7-8,12-20H2,1-2H3,(H,31,35)(H,32,38)(H,33,37)
InChIKey=GZEXMNUEQOUBQZ-UHFFFAOYSA-N

> <PUBCHEM_SUBSTANCE_SYNONYM>
SCHEMBL16119306

> <PUBCHEM_XREF_EXT_ID>
SCHEMBL16119306

> <PUBCHEM_EXT_DATASOURCE_URL>
https://www.surechembl.org/

> <PUBCHEM_EXT_SUBSTANCE_URL>
https://www.surechembl.org/chemical/SCHEMBL16119306

> <PUBCHEM_CID_ASSOCIATIONS>
117608189  1

> <PUBCHEM_COORDINATE_TYPE>
1
3

$$$$
