310934033
  -OEChem-07211613022D

 29 32  0     1  0  0  0  0  0999 V2000
    5.8000   -5.0000    0.0000 F   0  0  0  0  0  0  0  0  0  0  0  0
    1.4750   -0.4500    0.0000 O   0  0  0  0  0  0  0  0  0  0  0  0
    0.0000   -1.1250    0.0000 O   0  0  0  0  0  0  0  0  0  0  0  0
    2.0750   -2.5500    0.0000 N   0  0  0  0  0  0  0  0  0  0  0  0
    2.8500   -2.8250    0.0000 N   0  0  0  0  0  0  0  0  0  0  0  0
    0.6500   -1.6000    0.0000 N   0  0  0  0  0  0  0  0  0  0  0  0
    3.3250   -2.1500    0.0000 C   0  0  0  0  0  0  0  0  0  0  0  0
    4.1500   -2.1500    0.0000 C   0  0  3  0  0  0  0  0  0  0  0  0
    2.0750   -1.7500    0.0000 C   0  0  0  0  0  0  0  0  0  0  0  0
    2.8500   -1.4750    0.0000 C   0  0  0  0  0  0  0  0  0  0  0  0
    4.5500   -2.8500    0.0000 C   0  0  0  0  0  0  0  0  0  0  0  0
    1.4000   -3.0250    0.0000 C   0  0  0  0  0  0  0  0  0  0  0  0
    4.5500   -1.4250    0.0000 C   0  0  0  0  0  0  0  0  0  0  0  0
    1.4000   -1.2750    0.0000 C   0  0  0  0  0  0  0  0  0  0  0  0
    5.3750   -2.8750    0.0000 C   0  0  0  0  0  0  0  0  0  0  0  0
    4.1500   -3.5750    0.0000 C   0  0  0  0  0  0  0  0  0  0  0  0
    1.4750   -3.8750    0.0000 C   0  0  0  0  0  0  0  0  0  0  0  0
    0.6500   -2.7000    0.0000 C   0  0  0  0  0  0  0  0  0  0  0  0
    4.1500   -0.7000    0.0000 C   0  0  0  0  0  0  0  0  0  0  0  0
    5.3750   -1.4250    0.0000 C   0  0  0  0  0  0  0  0  0  0  0  0
    5.8000   -3.5750    0.0000 C   0  0  0  0  0  0  0  0  0  0  0  0
    4.5500   -4.2750    0.0000 C   0  0  0  0  0  0  0  0  0  0  0  0
    5.3750   -4.3000    0.0000 C   0  0  0  0  0  0  0  0  0  0  0  0
    0.8250   -4.3250    0.0000 C   0  0  0  0  0  0  0  0  0  0  0  0
    0.0000   -3.1750    0.0000 C   0  0  0  0  0  0  0  0  0  0  0  0
    4.5500    0.0000    0.0000 C   0  0  0  0  0  0  0  0  0  0  0  0
    5.7749   -0.7250    0.0000 C   0  0  0  0  0  0  0  0  0  0  0  0
    0.0750   -4.0000    0.0000 C   0  0  0  0  0  0  0  0  0  0  0  0
    5.3750    0.0000    0.0000 C   0  0  0  0  0  0  0  0  0  0  0  0
  1 23  1  0  0  0  0
  2 14  2  0  0  0  0
  3  6  1  0  0  0  0
  4  5  1  0  0  0  0
  4  9  1  0  0  0  0
  4 12  1  0  0  0  0
  5  7  2  0  0  0  0
  6 14  1  0  0  0  0
  7  8  1  0  0  0  0
  7 10  1  0  0  0  0
  8 11  1  0  0  0  0
  8 13  1  0  0  0  0
  9 10  2  0  0  0  0
  9 14  1  0  0  0  0
 11 15  2  0  0  0  0
 11 16  1  0  0  0  0
 12 17  2  0  0  0  0
 12 18  1  0  0  0  0
 13 19  2  0  0  0  0
 13 20  1  0  0  0  0
 15 21  1  0  0  0  0
 16 22  2  0  0  0  0
 17 24  1  0  0  0  0
 18 25  2  0  0  0  0
 19 26  1  0  0  0  0
 20 27  2  0  0  0  0
 21 23  2  0  0  0  0
 22 23  1  0  0  0  0
 24 28  2  0  0  0  0
 25 28  1  0  0  0  0
 26 29  2  0  0  0  0
 27 29  1  0  0  0  0
M  END
> <PUBCHEM_COMPOUND_ID_TYPE>
0

> <PUBCHEM_TOTAL_CHARGE>
0

> <PUBCHEM_SUBSTANCE_ID>
310934033

> <PUBCHEM_SUBSTANCE_VERSION>
1

> <PUBCHEM_EXT_DATASOURCE_NAME>
4488

> <PUBCHEM_EXT_DATASOURCE_REGID>
SCHEMBL16111477

> <PUBCHEM_SUBSTANCE_COMMENT>
InChI=1S/C23H18FN3O2/c24-18-13-11-17(12-14-18)22(16-7-3-1-4-8-16)20-15-21(23(28)26-29)27(25-20)19-9-5-2-6-10-19/h1-15,22,29H,(H,26,28)
InChIKey=QLNYCWGVDFVRGI-UHFFFAOYSA-N

> <PUBCHEM_SUBSTANCE_SYNONYM>
SCHEMBL16111477

> <PUBCHEM_XREF_EXT_ID>
SCHEMBL16111477

> <PUBCHEM_EXT_DATASOURCE_URL>
https://www.surechembl.org/

> <PUBCHEM_EXT_SUBSTANCE_URL>
https://www.surechembl.org/chemical/SCHEMBL16111477

> <PUBCHEM_CID_ASSOCIATIONS>
86292243  1

> <PUBCHEM_COORDINATE_TYPE>
1
3

$$$$
