310947195
  -OEChem-07211613022D

 28 33  0     1  0  0  0  0  0999 V2000
   -2.2998   -1.8350    0.0000 O   0  0  0  0  0  0  0  0  0  0  0  0
   -3.4536   -1.1779    0.0000 O   0  0  0  0  0  0  0  0  0  0  0  0
    2.9729    0.3767    0.0000 O   0  0  0  0  0  0  0  0  0  0  0  0
    2.9729    1.7228    0.0000 O   0  0  0  0  0  0  0  0  0  0  0  0
    0.0080   -0.5850    0.0000 N   0  0  3  0  0  0  0  0  0  0  0  0
    0.0080    0.2645    0.0000 C   0  0  0  0  0  0  0  0  0  0  0  0
   -0.6971    0.6491    0.0000 C   0  0  0  0  0  0  0  0  0  0  0  0
   -1.4023    0.2484    0.0000 C   0  0  0  0  0  0  0  0  0  0  0  0
    0.7292    0.6651    0.0000 C   0  0  0  0  0  0  0  0  0  0  0  0
   -1.4183   -0.5690    0.0000 C   0  0  0  0  0  0  0  0  0  0  0  0
    0.7452    1.4824    0.0000 C   0  0  0  0  0  0  0  0  0  0  0  0
   -2.1235   -0.9856    0.0000 C   0  0  0  0  0  0  0  0  0  0  0  0
   -0.6651   -1.0016    0.0000 C   0  0  0  0  0  0  0  0  0  0  0  0
   -2.8606   -0.5850    0.0000 C   0  0  0  0  0  0  0  0  0  0  0  0
   -0.6811    1.4824    0.0000 C   0  0  0  0  0  0  0  0  0  0  0  0
    1.4664    0.2484    0.0000 C   0  0  0  0  0  0  0  0  0  0  0  0
    2.1715    0.6651    0.0000 C   0  0  0  0  0  0  0  0  0  0  0  0
   -2.1395    0.6330    0.0000 C   0  0  0  0  0  0  0  0  0  0  0  0
    0.0080    1.8831    0.0000 C   0  0  0  0  0  0  0  0  0  0  0  0
    2.1876    1.4824    0.0000 C   0  0  0  0  0  0  0  0  0  0  0  0
    1.4664    1.8831    0.0000 C   0  0  0  0  0  0  0  0  0  0  0  0
   -2.8446    0.2484    0.0000 C   0  0  0  0  0  0  0  0  0  0  0  0
    0.7452   -1.0016    0.0000 C   0  0  0  0  0  0  0  0  0  0  0  0
   -3.1491   -1.8831    0.0000 C   0  0  0  0  0  0  0  0  0  0  0  0
    3.4536    1.0817    0.0000 C   0  0  0  0  0  0  0  0  0  0  0  0
    1.4664   -0.5850    0.0000 C   0  0  0  0  0  0  0  0  0  0  0  0
    2.2036   -1.0016    0.0000 C   0  0  0  0  0  0  0  0  0  0  0  0
    2.8927   -0.5850    0.0000 C   0  0  0  0  0  0  0  0  0  0  0  0
  1 12  1  0  0  0  0
  1 24  1  0  0  0  0
  2 14  1  0  0  0  0
  2 24  1  0  0  0  0
  3 17  1  0  0  0  0
  3 25  1  0  0  0  0
  4 20  1  0  0  0  0
  4 25  1  0  0  0  0
  5  6  1  0  0  0  0
  5 13  1  0  0  0  0
  5 23  1  0  0  0  0
  6  7  2  0  0  0  0
  6  9  1  0  0  0  0
  7  8  1  0  0  0  0
  7 15  1  0  0  0  0
  8 10  1  0  0  0  0
  8 18  2  0  0  0  0
  9 11  2  0  0  0  0
  9 16  1  0  0  0  0
 10 12  2  0  0  0  0
 10 13  1  0  0  0  0
 11 19  1  0  0  0  0
 11 21  1  0  0  0  0
 12 14  1  0  0  0  0
 14 22  2  0  0  0  0
 15 19  2  0  0  0  0
 16 17  2  0  0  0  0
 17 20  1  0  0  0  0
 18 22  1  0  0  0  0
 20 21  2  0  0  0  0
 23 26  1  0  0  0  0
 26 27  1  0  0  0  0
 27 28  1  0  0  0  0
M  END
> <PUBCHEM_COMPOUND_ID_TYPE>
0

> <PUBCHEM_TOTAL_CHARGE>
0

> <PUBCHEM_SUBSTANCE_ID>
310947195

> <PUBCHEM_SUBSTANCE_VERSION>
1

> <PUBCHEM_EXT_DATASOURCE_NAME>
4488

> <PUBCHEM_EXT_DATASOURCE_REGID>
SCHEMBL16125349

> <PUBCHEM_SUBSTANCE_COMMENT>
InChI=1S/C23H21NO4/c1-2-3-8-24-11-18-15(6-7-19-23(18)28-13-25-19)16-5-4-14-9-20-21(27-12-26-20)10-17(14)22(16)24/h4-7,9-10H,2-3,8,11-13H2,1H3
InChIKey=CJOJXALGQUXDDY-UHFFFAOYSA-N

> <PUBCHEM_SUBSTANCE_SYNONYM>
SCHEMBL16125349

> <PUBCHEM_XREF_EXT_ID>
SCHEMBL16125349

> <PUBCHEM_EXT_DATASOURCE_URL>
https://www.surechembl.org/

> <PUBCHEM_EXT_SUBSTANCE_URL>
https://www.surechembl.org/chemical/SCHEMBL16125349

> <PUBCHEM_CID_ASSOCIATIONS>
117613018  1

> <PUBCHEM_COORDINATE_TYPE>
1
3

$$$$
