310937273
  -OEChem-07211613022D

 40 44  0     1  0  0  0  0  0999 V2000
    5.0735   -5.3336    0.0000 O   0  0  0  0  0  0  0  0  0  0  0  0
    7.9788   -5.3770    0.0000 O   0  0  0  0  0  0  0  0  0  0  0  0
    7.2850   -2.6018    0.0000 N   0  0  3  0  0  0  0  0  0  0  0  0
    6.5045   -5.3336    0.0000 N   0  0  0  0  0  0  0  0  0  0  0  0
    2.9053   -2.4717    0.0000 N   0  0  0  0  0  0  0  0  0  0  0  0
    2.1681   -1.2576    0.0000 N   0  0  0  0  0  0  0  0  0  0  0  0
    8.6726   -6.5912    0.0000 N   0  0  0  0  0  0  0  0  0  0  0  0
    0.7372   -0.4336    0.0000 N   0  0  0  0  0  0  0  0  0  0  0  0
    6.5045   -3.6859    0.0000 C   0  0  0  0  0  0  0  0  0  0  0  0
    6.5045   -2.8619    0.0000 C   0  0  0  0  0  0  0  0  0  0  0  0
    5.7673   -4.1195    0.0000 C   0  0  0  0  0  0  0  0  0  0  0  0
    5.0735   -2.8619    0.0000 C   0  0  0  0  0  0  0  0  0  0  0  0
    5.7673   -2.4717    0.0000 C   0  0  0  0  0  0  0  0  0  0  0  0
    5.0735   -3.6859    0.0000 C   0  0  0  0  0  0  0  0  0  0  0  0
    7.2850   -3.9460    0.0000 C   0  0  0  0  0  0  0  0  0  0  0  0
    5.7673   -4.9434    0.0000 C   0  0  0  0  0  0  0  0  0  0  0  0
    4.3363   -2.4717    0.0000 C   0  0  0  0  0  0  0  0  0  0  0  0
    7.7620   -3.2956    0.0000 C   0  0  0  0  0  0  0  0  0  0  0  0
    7.5452   -1.8212    0.0000 C   0  0  0  0  0  0  0  0  0  0  0  0
    7.1983   -6.5912    0.0000 C   0  0  0  0  0  0  0  0  0  0  0  0
    3.6425   -2.8619    0.0000 C   0  0  0  0  0  0  0  0  0  0  0  0
    4.3363   -1.6478    0.0000 C   0  0  0  0  0  0  0  0  0  0  0  0
    7.2416   -7.4151    0.0000 C   0  0  0  0  0  0  0  0  0  0  0  0
    2.8619   -1.6478    0.0000 C   0  0  0  0  0  0  0  0  0  0  0  0
    6.5045   -6.2009    0.0000 C   0  0  0  0  0  0  0  0  0  0  0  0
    7.9355   -6.2009    0.0000 C   0  0  0  0  0  0  0  0  0  0  0  0
    3.5991   -1.2576    0.0000 C   0  0  0  0  0  0  0  0  0  0  0  0
    7.9355   -7.8488    0.0000 C   0  0  0  0  0  0  0  0  0  0  0  0
    8.6726   -7.4585    0.0000 C   0  0  0  0  0  0  0  0  0  0  0  0
    6.9814   -1.2142    0.0000 C   0  0  0  0  0  0  0  0  0  0  0  0
    8.3691   -1.6478    0.0000 C   0  0  0  0  0  0  0  0  0  0  0  0
    6.5045   -7.8488    0.0000 C   0  0  0  0  0  0  0  0  0  0  0  0
    2.1681   -0.4336    0.0000 C   0  0  0  0  0  0  0  0  0  0  0  0
    1.4743   -1.6478    0.0000 C   0  0  0  0  0  0  0  0  0  0  0  0
    0.7372   -1.2576    0.0000 C   0  0  0  0  0  0  0  0  0  0  0  0
    1.4310    0.0000    0.0000 C   0  0  0  0  0  0  0  0  0  0  0  0
    9.3664   -7.8488    0.0000 C   0  0  0  0  0  0  0  0  0  0  0  0
    6.5478   -8.6726    0.0000 C   0  0  0  0  0  0  0  0  0  0  0  0
    5.8107   -7.4585    0.0000 C   0  0  0  0  0  0  0  0  0  0  0  0
    0.0000   -0.0434    0.0000 C   0  0  0  0  0  0  0  0  0  0  0  0
  1 16  2  0  0  0  0
  2 26  2  0  0  0  0
  3 10  1  0  0  0  0
  3 18  1  0  0  0  0
  3 19  1  0  0  0  0
  4 16  1  0  0  0  0
  4 25  1  0  0  0  0
  5 21  1  0  0  0  0
  5 24  2  0  0  0  0
  6 24  1  0  0  0  0
  6 33  1  0  0  0  0
  6 34  1  0  0  0  0
  7 26  1  0  0  0  0
  7 29  1  0  0  0  0
  8 35  1  0  0  0  0
  8 36  1  0  0  0  0
  8 40  1  0  0  0  0
  9 10  2  0  0  0  0
  9 11  1  0  0  0  0
  9 15  1  0  0  0  0
 10 13  1  0  0  0  0
 11 14  2  0  0  0  0
 11 16  1  0  0  0  0
 12 13  2  0  0  0  0
 12 14  1  0  0  0  0
 12 17  1  0  0  0  0
 15 18  1  0  0  0  0
 17 21  2  0  0  0  0
 17 22  1  0  0  0  0
 19 30  1  0  0  0  0
 19 31  1  0  0  0  0
 20 23  2  0  0  0  0
 20 25  1  0  0  0  0
 20 26  1  0  0  0  0
 22 27  2  0  0  0  0
 23 28  1  0  0  0  0
 23 32  1  0  0  0  0
 24 27  1  0  0  0  0
 28 29  2  0  0  0  0
 29 37  1  0  0  0  0
 32 38  1  0  0  0  0
 32 39  1  0  0  0  0
 33 36  1  0  0  0  0
 34 35  1  0  0  0  0
M  END
> <PUBCHEM_COMPOUND_ID_TYPE>
0

> <PUBCHEM_TOTAL_CHARGE>
0

> <PUBCHEM_SUBSTANCE_ID>
310937273

> <PUBCHEM_SUBSTANCE_VERSION>
1

> <PUBCHEM_EXT_DATASOURCE_NAME>
4488

> <PUBCHEM_EXT_DATASOURCE_REGID>
SCHEMBL16115016

> <PUBCHEM_SUBSTANCE_COMMENT>
InChI=1S/C32H42N6O2/c1-20(2)26-15-22(5)35-32(40)28(26)19-34-31(39)27-16-24(17-29-25(27)9-10-38(29)21(3)4)23-7-8-30(33-18-23)37-13-11-36(6)12-14-37/h7-8,15-18,20-21H,9-14,19H2,1-6H3,(H,34,39)(H,35,40)
InChIKey=MTZKKPJMDNHXSW-UHFFFAOYSA-N

> <PUBCHEM_SUBSTANCE_SYNONYM>
SCHEMBL16115016

> <PUBCHEM_XREF_EXT_ID>
SCHEMBL16115016

> <PUBCHEM_EXT_DATASOURCE_URL>
https://www.surechembl.org/

> <PUBCHEM_EXT_SUBSTANCE_URL>
https://www.surechembl.org/chemical/SCHEMBL16115016

> <PUBCHEM_CID_ASSOCIATIONS>
86274119  1

> <PUBCHEM_COORDINATE_TYPE>
1
3

$$$$
