310930408
  -OEChem-07211613022D

 30 33  0     1  0  0  0  0  0999 V2000
   -3.8532    0.5725    0.0000 P   0  0  0  0  0  0  0  0  0  0  0  0
   -3.0686    0.3175    0.0000 O   0  0  0  0  0  0  0  0  0  0  0  0
   -2.5727   -3.2594    0.0000 O   0  0  0  0  0  0  0  0  0  0  0  0
    0.2228   -3.8536    0.0000 O   0  0  0  0  0  0  0  0  0  0  0  0
   -4.0248    1.3795    0.0000 O   0  0  0  0  0  0  0  0  0  0  0  0
   -4.4663    0.0204    0.0000 O   0  0  0  0  0  0  0  0  0  0  0  0
   -3.6817   -0.2345    0.0000 O   0  0  0  0  0  0  0  0  0  0  0  0
   -2.8971   -0.4895    0.0000 N   0  0  3  0  0  0  0  0  0  0  0  0
   -3.0366   -1.8170    0.0000 N   0  0  0  0  0  0  0  0  0  0  0  0
   -3.4491   -1.1026    0.0000 N   0  0  0  0  0  0  0  0  0  0  0  0
   -2.1434   -0.8250    0.0000 C   0  0  3  0  0  0  0  0  0  0  0  0
   -2.2296   -1.6455    0.0000 C   0  0  0  0  0  0  0  0  0  0  0  0
   -1.6165   -2.1975    0.0000 C   0  0  0  0  0  0  0  0  0  0  0  0
   -1.4290   -0.4125    0.0000 C   0  0  0  0  0  0  0  0  0  0  0  0
   -1.7881   -3.0045    0.0000 C   0  0  0  0  0  0  0  0  0  0  0  0
   -0.8320   -1.9426    0.0000 C   0  0  0  0  0  0  0  0  0  0  0  0
   -0.2189   -2.4946    0.0000 C   0  0  0  0  0  0  0  0  0  0  0  0
   -0.7144   -0.8250    0.0000 C   0  0  0  0  0  0  0  0  0  0  0  0
    0.0000   -0.4125    0.0000 C   0  0  0  0  0  0  0  0  0  0  0  0
   -1.4290    0.4125    0.0000 C   0  0  0  0  0  0  0  0  0  0  0  0
   -0.3903   -3.3016    0.0000 C   0  0  0  0  0  0  0  0  0  0  0  0
    0.0000    0.4125    0.0000 C   0  0  0  0  0  0  0  0  0  0  0  0
   -1.1750   -3.5565    0.0000 C   0  0  0  0  0  0  0  0  0  0  0  0
   -0.7144    0.8250    0.0000 C   0  0  0  0  0  0  0  0  0  0  0  0
    0.5658   -2.2396    0.0000 C   0  0  0  0  0  0  0  0  0  0  0  0
    0.7846   -0.6674    0.0000 C   0  0  0  0  0  0  0  0  0  0  0  0
    0.7846    0.6674    0.0000 C   0  0  0  0  0  0  0  0  0  0  0  0
    1.2696    0.0000    0.0000 C   0  0  0  0  0  0  0  0  0  0  0  0
    0.7373   -1.4327    0.0000 C   0  0  0  0  0  0  0  0  0  0  0  0
    1.1789   -2.7917    0.0000 C   0  0  0  0  0  0  0  0  0  0  0  0
  1  2  1  0  0  0  0
  1  5  2  0  0  0  0
  1  6  1  0  0  0  0
  1  7  1  0  0  0  0
  2  8  1  0  0  0  0
  3 15  1  0  0  0  0
  4 21  1  0  0  0  0
  8 10  1  0  0  0  0
  8 11  1  0  0  0  0
  9 10  1  0  0  0  0
  9 12  2  0  0  0  0
 11 12  1  0  0  0  0
 11 14  1  0  0  0  0
 12 13  1  0  0  0  0
 13 15  1  0  0  0  0
 13 16  2  0  0  0  0
 14 18  2  0  0  0  0
 14 20  1  0  0  0  0
 15 23  2  0  0  0  0
 16 17  1  0  0  0  0
 17 21  2  0  0  0  0
 17 25  1  0  0  0  0
 18 19  1  0  0  0  0
 19 22  2  0  0  0  0
 19 26  1  0  0  0  0
 20 24  2  0  0  0  0
 21 23  1  0  0  0  0
 22 24  1  0  0  0  0
 22 27  1  0  0  0  0
 25 29  1  0  0  0  0
 25 30  1  0  0  0  0
 26 28  1  0  0  0  0
 27 28  1  0  0  0  0
M  END
> <PUBCHEM_COMPOUND_ID_TYPE>
0

> <PUBCHEM_TOTAL_CHARGE>
0

> <PUBCHEM_SUBSTANCE_ID>
310930408

> <PUBCHEM_SUBSTANCE_VERSION>
1

> <PUBCHEM_EXT_DATASOURCE_NAME>
4488

> <PUBCHEM_EXT_DATASOURCE_REGID>
SCHEMBL16107695

> <PUBCHEM_SUBSTANCE_COMMENT>
InChI=1S/C20H24N3O6P/c1-11(2)15-9-16(18(25)10-17(15)24)19-20(23(22-21-19)29-30(26,27)28)14-7-6-12-4-3-5-13(12)8-14/h6-11,20,22,24-25H,3-5H2,1-2H3,(H2,26,27,28)
InChIKey=VCZJXQMNRMETER-UHFFFAOYSA-N

> <PUBCHEM_SUBSTANCE_SYNONYM>
SCHEMBL16107695

> <PUBCHEM_XREF_EXT_ID>
SCHEMBL16107695

> <PUBCHEM_EXT_DATASOURCE_URL>
https://www.surechembl.org/

> <PUBCHEM_EXT_SUBSTANCE_URL>
https://www.surechembl.org/chemical/SCHEMBL16107695

> <PUBCHEM_CID_ASSOCIATIONS>
117599552  1

> <PUBCHEM_COORDINATE_TYPE>
1
3

$$$$
