310933511
  -OEChem-07211613022D

 34 37  0     1  0  0  0  0  0999 V2000
    5.5530   -3.2931    0.0000 O   0  0  0  0  0  0  0  0  0  0  0  0
    5.2947   -4.9073    0.0000 O   0  0  0  0  0  0  0  0  0  0  0  0
    0.0000   -4.4231    0.0000 O   0  0  0  0  0  0  0  0  0  0  0  0
    3.9065   -5.3271    0.0000 O   0  0  0  0  0  0  0  0  0  0  0  0
    3.4222   -1.2269    0.0000 O   0  0  0  0  0  0  0  0  0  0  0  0
    4.2294   -3.9388    0.0000 N   0  0  0  0  0  0  0  0  0  0  0  0
    4.2294   -2.6151    0.0000 N   0  0  0  0  0  0  0  0  0  0  0  0
    0.4197   -5.1334    0.0000 N   0  0  0  0  0  0  0  0  0  0  0  0
    1.9371   -0.3874    0.0000 N   0  0  0  0  0  0  0  0  0  0  0  0
    0.5488   -1.2269    0.0000 N   0  0  0  0  0  0  0  0  0  0  0  0
    3.4545   -3.7128    0.0000 C   0  0  0  0  0  0  0  0  0  0  0  0
    3.4545   -2.8411    0.0000 C   0  0  0  0  0  0  0  0  0  0  0  0
    2.7120   -2.4537    0.0000 C   0  0  0  0  0  0  0  0  0  0  0  0
    4.7136   -3.2931    0.0000 C   0  0  0  0  0  0  0  0  0  0  0  0
    2.0339   -3.7128    0.0000 C   0  0  0  0  0  0  0  0  0  0  0  0
    2.7120   -4.1002    0.0000 C   0  0  0  0  0  0  0  0  0  0  0  0
    2.0339   -2.8411    0.0000 C   0  0  0  0  0  0  0  0  0  0  0  0
    1.3237   -4.1325    0.0000 C   0  0  0  0  0  0  0  0  0  0  0  0
    4.4876   -4.7459    0.0000 C   0  0  0  0  0  0  0  0  0  0  0  0
    2.7120   -1.6465    0.0000 C   0  0  3  0  0  0  0  0  0  0  0  0
    0.5488   -3.8096    0.0000 C   0  0  0  0  0  0  0  0  0  0  0  0
    1.2269   -4.9396    0.0000 C   0  0  0  0  0  0  0  0  0  0  0  0
    2.0017   -1.2269    0.0000 C   0  0  0  0  0  0  0  0  0  0  0  0
    5.5530   -5.6822    0.0000 C   0  0  0  0  0  0  0  0  0  0  0  0
    1.2591   -1.6465    0.0000 C   0  0  0  0  0  0  0  0  0  0  0  0
    5.9728   -2.5828    0.0000 C   0  0  0  0  0  0  0  0  0  0  0  0
    0.3551   -3.0025    0.0000 C   0  0  0  0  0  0  0  0  0  0  0  0
    1.8402   -5.4884    0.0000 C   0  0  0  0  0  0  0  0  0  0  0  0
    1.2591    0.0000    0.0000 C   0  0  0  0  0  0  0  0  0  0  0  0
    4.7459   -5.9404    0.0000 C   0  0  0  0  0  0  0  0  0  0  0  0
    5.7791   -6.4570    0.0000 C   0  0  0  0  0  0  0  0  0  0  0  0
    6.3279   -5.4239    0.0000 C   0  0  0  0  0  0  0  0  0  0  0  0
    0.5166   -0.4197    0.0000 C   0  0  0  0  0  0  0  0  0  0  0  0
    5.5530   -1.8726    0.0000 C   0  0  0  0  0  0  0  0  0  0  0  0
  1 14  1  0  0  0  0
  1 26  1  0  0  0  0
  2 19  1  0  0  0  0
  2 24  1  0  0  0  0
  3  8  1  0  0  0  0
  3 21  1  0  0  0  0
  4 19  2  0  0  0  0
  5 20  1  0  0  0  0
  6 11  1  0  0  0  0
  6 14  1  0  0  0  0
  6 19  1  0  0  0  0
  7 12  1  0  0  0  0
  7 14  2  0  0  0  0
  8 22  2  0  0  0  0
  9 23  2  0  0  0  0
  9 29  1  0  0  0  0
 10 25  2  0  0  0  0
 10 33  1  0  0  0  0
 11 12  2  0  0  0  0
 11 16  1  0  0  0  0
 12 13  1  0  0  0  0
 13 17  2  0  0  0  0
 13 20  1  0  0  0  0
 15 16  2  0  0  0  0
 15 17  1  0  0  0  0
 15 18  1  0  0  0  0
 18 21  2  0  0  0  0
 18 22  1  0  0  0  0
 20 23  1  0  0  0  0
 21 27  1  0  0  0  0
 22 28  1  0  0  0  0
 23 25  1  0  0  0  0
 24 30  1  0  0  0  0
 24 31  1  0  0  0  0
 24 32  1  0  0  0  0
 26 34  1  0  0  0  0
 29 33  2  0  0  0  0
M  END
> <PUBCHEM_COMPOUND_ID_TYPE>
0

> <PUBCHEM_TOTAL_CHARGE>
0

> <PUBCHEM_SUBSTANCE_ID>
310933511

> <PUBCHEM_SUBSTANCE_VERSION>
1

> <PUBCHEM_EXT_DATASOURCE_NAME>
4488

> <PUBCHEM_EXT_DATASOURCE_REGID>
SCHEMBL16110933

> <PUBCHEM_SUBSTANCE_COMMENT>
InChI=1S/C24H27N5O5/c1-7-32-22-27-20-16(21(30)17-12-25-8-9-26-17)10-15(19-13(2)28-34-14(19)3)11-18(20)29(22)23(31)33-24(4,5)6/h8-12,21,30H,7H2,1-6H3
InChIKey=BZUYUHJEAGFGES-UHFFFAOYSA-N

> <PUBCHEM_SUBSTANCE_SYNONYM>
SCHEMBL16110933

> <PUBCHEM_XREF_EXT_ID>
SCHEMBL16110933

> <PUBCHEM_EXT_DATASOURCE_URL>
https://www.surechembl.org/

> <PUBCHEM_EXT_SUBSTANCE_URL>
https://www.surechembl.org/chemical/SCHEMBL16110933

> <PUBCHEM_CID_ASSOCIATIONS>
117601903  1

> <PUBCHEM_COORDINATE_TYPE>
1
3

$$$$
