310945647
  -OEChem-07211613022D

 37 40  0     1  0  0  0  0  0999 V2000
   -6.1999   -0.6750    0.0000 P   0  0  0  0  0  0  0  0  0  0  0  0
    5.3249    0.8250    0.0000 O   0  0  0  0  0  0  0  0  0  0  0  0
    2.4000    0.9750    0.0000 O   0  0  0  0  0  0  0  0  0  0  0  0
   -3.3250   -0.6750    0.0000 O   0  0  0  0  0  0  0  0  0  0  0  0
    6.8999   -0.9250    0.0000 O   0  0  0  0  0  0  0  0  0  0  0  0
    6.7249   -2.2249    0.0000 O   0  0  0  0  0  0  0  0  0  0  0  0
   -6.1750   -1.5000    0.0000 O   0  0  0  0  0  0  0  0  0  0  0  0
    4.5000   -0.2250    0.0000 C   0  0  0  0  0  0  0  0  0  0  0  0
    4.5499    0.6000    0.0000 C   0  0  0  0  0  0  0  0  0  0  0  0
   -1.1750    0.6000    0.0000 C   0  0  0  0  0  0  0  0  0  0  0  0
    5.2999   -0.5000    0.0000 C   0  0  3  0  0  0  0  0  0  0  0  0
   -0.4750    1.0250    0.0000 C   0  0  0  0  0  0  0  0  0  0  0  0
   -1.2000   -0.2250    0.0000 C   0  0  0  0  0  0  0  0  0  0  0  0
   -1.9249    1.0250    0.0000 C   0  0  0  0  0  0  0  0  0  0  0  0
    3.1249    0.6000    0.0000 C   0  0  0  0  0  0  0  0  0  0  0  0
    3.7999    1.0000    0.0000 C   0  0  0  0  0  0  0  0  0  0  0  0
    3.8250   -0.6250    0.0000 C   0  0  0  0  0  0  0  0  0  0  0  0
    5.8000    0.2000    0.0000 C   0  0  0  0  0  0  0  0  0  0  0  0
    3.1249   -0.2250    0.0000 C   0  0  0  0  0  0  0  0  0  0  0  0
   -2.6250   -0.2250    0.0000 C   0  0  0  0  0  0  0  0  0  0  0  0
    0.3000    0.6250    0.0000 C   0  0  0  0  0  0  0  0  0  0  0  0
    0.9500    1.0250    0.0000 C   0  0  0  0  0  0  0  0  0  0  0  0
   -1.8750   -0.6250    0.0000 C   0  0  0  0  0  0  0  0  0  0  0  0
   -2.5999    0.6000    0.0000 C   0  0  0  0  0  0  0  0  0  0  0  0
    5.5750   -1.2750    0.0000 C   0  0  0  0  0  0  0  0  0  0  0  0
   -0.4500    1.8250    0.0000 C   0  0  0  0  0  0  0  0  0  0  0  0
    1.6999    0.6000    0.0000 C   0  0  0  0  0  0  0  0  0  0  0  0
    0.9500    1.8250    0.0000 C   0  0  0  0  0  0  0  0  0  0  0  0
    0.2500    2.2249    0.0000 C   0  0  0  0  0  0  0  0  0  0  0  0
    6.4000   -1.4750    0.0000 C   0  0  0  0  0  0  0  0  0  0  0  0
   -0.4250   -0.6750    0.0000 C   0  0  0  0  0  0  0  0  0  0  0  0
   -1.8750    1.8499    0.0000 C   0  0  0  0  0  0  0  0  0  0  0  0
   -4.0500   -0.2500    0.0000 C   0  0  0  0  0  0  0  0  0  0  0  0
   -4.7249   -0.6500    0.0000 C   0  0  0  0  0  0  0  0  0  0  0  0
   -5.4499   -0.2500    0.0000 C   0  0  0  0  0  0  0  0  0  0  0  0
   -6.1750    0.2000    0.0000 C   0  0  0  0  0  0  0  0  0  0  0  0
   -6.8999   -0.2500    0.0000 C   0  0  0  0  0  0  0  0  0  0  0  0
  1  7  2  0  0  0  0
  1 35  1  0  0  0  0
  1 36  1  0  0  0  0
  1 37  1  0  0  0  0
  2  9  1  0  0  0  0
  2 18  1  0  0  0  0
  3 15  1  0  0  0  0
  3 27  1  0  0  0  0
  4 20  1  0  0  0  0
  4 33  1  0  0  0  0
  5 30  2  0  0  0  0
  6 30  1  0  0  0  0
  8  9  1  0  0  0  0
  8 11  1  0  0  0  0
  8 17  2  0  0  0  0
  9 16  2  0  0  0  0
 10 12  1  0  0  0  0
 10 13  2  0  0  0  0
 10 14  1  0  0  0  0
 11 18  1  0  0  0  0
 11 25  1  0  0  0  0
 12 21  2  0  0  0  0
 12 26  1  0  0  0  0
 13 23  1  0  0  0  0
 13 31  1  0  0  0  0
 14 24  2  0  0  0  0
 14 32  1  0  0  0  0
 15 16  1  0  0  0  0
 15 19  2  0  0  0  0
 17 19  1  0  0  0  0
 20 23  2  0  0  0  0
 20 24  1  0  0  0  0
 21 22  1  0  0  0  0
 22 27  1  0  0  0  0
 22 28  2  0  0  0  0
 25 30  1  0  0  0  0
 26 29  2  0  0  0  0
 28 29  1  0  0  0  0
 33 34  1  0  0  0  0
 34 35  1  0  0  0  0
M  END
> <PUBCHEM_COMPOUND_ID_TYPE>
0

> <PUBCHEM_TOTAL_CHARGE>
0

> <PUBCHEM_SUBSTANCE_ID>
310945647

> <PUBCHEM_SUBSTANCE_VERSION>
1

> <PUBCHEM_EXT_DATASOURCE_NAME>
4488

> <PUBCHEM_EXT_DATASOURCE_REGID>
SCHEMBL16123746

> <PUBCHEM_SUBSTANCE_COMMENT>
InChI=1S/C30H35O6P/c1-20-13-26(34-11-6-12-37(3,4)33)14-21(2)30(20)23-8-5-7-22(15-23)18-35-25-9-10-27-24(16-29(31)32)19-36-28(27)17-25/h5,7-10,13-15,17,24H,6,11-12,16,18-19H2,1-4H3,(H,31,32)
InChIKey=XLZHBUIDADYJDZ-UHFFFAOYSA-N

> <PUBCHEM_SUBSTANCE_SYNONYM>
SCHEMBL16123746

> <PUBCHEM_XREF_EXT_ID>
SCHEMBL16123746

> <PUBCHEM_EXT_DATASOURCE_URL>
https://www.surechembl.org/

> <PUBCHEM_EXT_SUBSTANCE_URL>
https://www.surechembl.org/chemical/SCHEMBL16123746

> <PUBCHEM_CID_ASSOCIATIONS>
86269037  1

> <PUBCHEM_COORDINATE_TYPE>
1
3

$$$$
