310940104
  -OEChem-07211613022D

 42 47  0     1  0  0  0  0  0999 V2000
    1.9886   -3.6073    0.0000 S   0  0  0  0  0  0  0  0  0  0  0  0
    2.0811   -4.4213    0.0000 O   0  0  0  0  0  0  0  0  0  0  0  0
    2.7471   -3.9403    0.0000 O   0  0  0  0  0  0  0  0  0  0  0  0
   -3.0061   -3.2928    0.0000 O   0  0  0  0  0  0  0  0  0  0  0  0
   -1.1562    2.7934    0.0000 O   0  0  0  0  0  0  0  0  0  0  0  0
   -2.5436    2.4974    0.0000 O   0  0  0  0  0  0  0  0  0  0  0  0
   -1.5077   -0.9620    0.0000 N   0  0  0  0  0  0  0  0  0  0  0  0
   -1.0082   -1.6279    0.0000 N   0  0  0  0  0  0  0  0  0  0  0  0
    2.2476   -2.8118    0.0000 N   0  0  3  0  0  0  0  0  0  0  0  0
   -1.2487   -3.0893    0.0000 N   0  0  0  0  0  0  0  0  0  0  0  0
   -3.7276   -2.0349    0.0000 N   0  0  0  0  0  0  0  0  0  0  0  0
   -1.6001    1.4429    0.0000 N   0  0  0  0  0  0  0  0  0  0  0  0
    0.8972   -0.6290    0.0000 N   0  0  0  0  0  0  0  0  0  0  0  0
   -1.2487   -0.1850    0.0000 C   0  0  0  0  0  0  0  0  0  0  0  0
   -2.2847   -1.2209    0.0000 C   0  0  0  0  0  0  0  0  0  0  0  0
   -2.3031   -2.0349    0.0000 C   0  0  0  0  0  0  0  0  0  0  0  0
   -1.5077   -2.2939    0.0000 C   0  0  0  0  0  0  0  0  0  0  0  0
    1.1562   -3.6073    0.0000 C   0  0  0  0  0  0  0  0  0  0  0  0
    0.9157   -2.8118    0.0000 C   0  0  0  0  0  0  0  0  0  0  0  0
   -3.0061   -2.4419    0.0000 C   0  0  0  0  0  0  0  0  0  0  0  0
   -0.4532   -3.2558    0.0000 C   0  0  0  0  0  0  0  0  0  0  0  0
    1.5817   -2.3309    0.0000 C   0  0  0  0  0  0  0  0  0  0  0  0
   -2.0256    0.0925    0.0000 C   0  0  0  0  0  0  0  0  0  0  0  0
   -0.6383    0.3700    0.0000 C   0  0  0  0  0  0  0  0  0  0  0  0
   -3.0246   -0.8140    0.0000 C   0  0  0  0  0  0  0  0  0  0  0  0
    0.1202   -2.6453    0.0000 C   0  0  0  0  0  0  0  0  0  0  0  0
   -0.6752   -0.7955    0.0000 C   0  0  0  0  0  0  0  0  0  0  0  0
    0.6197   -4.1993    0.0000 C   0  0  0  0  0  0  0  0  0  0  0  0
   -0.1757   -4.0328    0.0000 C   0  0  0  0  0  0  0  0  0  0  0  0
    3.0431   -2.5529    0.0000 C   0  0  0  0  0  0  0  0  0  0  0  0
   -3.7091   -1.2024    0.0000 C   0  0  0  0  0  0  0  0  0  0  0  0
   -2.1921    0.8695    0.0000 C   0  0  0  0  0  0  0  0  0  0  0  0
   -0.8047    1.1840    0.0000 C   0  0  0  0  0  0  0  0  0  0  0  0
    3.2096   -1.7204    0.0000 C   0  0  0  0  0  0  0  0  0  0  0  0
    0.1018   -0.6290    0.0000 C   0  0  0  0  0  0  0  0  0  0  0  0
   -1.7482    2.2569    0.0000 C   0  0  0  0  0  0  0  0  0  0  0  0
    2.9876   -0.9805    0.0000 C   0  0  0  0  0  0  0  0  0  0  0  0
    3.7276   -1.1469    0.0000 C   0  0  0  0  0  0  0  0  0  0  0  0
   -1.3227    3.6258    0.0000 C   0  0  0  0  0  0  0  0  0  0  0  0
   -1.5077    4.4213    0.0000 C   0  0  0  0  0  0  0  0  0  0  0  0
   -2.1182    3.8478    0.0000 C   0  0  0  0  0  0  0  0  0  0  0  0
   -0.6937    4.1808    0.0000 C   0  0  0  0  0  0  0  0  0  0  0  0
  1  2  2  0  0  0  0
  1  3  2  0  0  0  0
  1  9  1  0  0  0  0
  1 18  1  0  0  0  0
  4 20  2  0  0  0  0
  5 36  1  0  0  0  0
  5 39  1  0  0  0  0
  6 36  2  0  0  0  0
  7  8  1  0  0  0  0
  7 14  1  0  0  0  0
  7 15  1  0  0  0  0
  8 17  2  0  0  0  0
  9 22  1  0  0  0  0
  9 30  1  0  0  0  0
 10 17  1  0  0  0  0
 10 21  1  0  0  0  0
 11 20  1  0  0  0  0
 11 31  1  0  0  0  0
 12 32  1  0  0  0  0
 12 33  1  0  0  0  0
 12 36  1  0  0  0  0
 13 35  3  0  0  0  0
 14 23  1  0  0  0  0
 14 24  1  0  0  0  0
 14 27  1  0  0  0  0
 15 16  2  0  0  0  0
 15 25  1  0  0  0  0
 16 17  1  0  0  0  0
 16 20  1  0  0  0  0
 18 19  1  0  0  0  0
 18 28  2  0  0  0  0
 19 22  1  0  0  0  0
 19 26  2  0  0  0  0
 21 26  1  0  0  0  0
 21 29  2  0  0  0  0
 23 32  1  0  0  0  0
 24 33  1  0  0  0  0
 25 31  2  0  0  0  0
 27 35  1  0  0  0  0
 28 29  1  0  0  0  0
 30 34  1  0  0  0  0
 34 37  1  0  0  0  0
 34 38  1  0  0  0  0
 37 38  1  0  0  0  0
 39 40  1  0  0  0  0
 39 41  1  0  0  0  0
 39 42  1  0  0  0  0
M  END
> <PUBCHEM_COMPOUND_ID_TYPE>
0

> <PUBCHEM_TOTAL_CHARGE>
0

> <PUBCHEM_SUBSTANCE_ID>
310940104

> <PUBCHEM_SUBSTANCE_VERSION>
1

> <PUBCHEM_EXT_DATASOURCE_NAME>
4488

> <PUBCHEM_EXT_DATASOURCE_REGID>
SCHEMBL16118035

> <PUBCHEM_SUBSTANCE_COMMENT>
InChI=1S/C29H35N7O5S/c1-28(2,3)41-27(38)34-14-10-29(9-12-30,11-15-34)36-22-8-13-31-26(37)24(22)25(33-36)32-21-6-7-23-20(16-21)18-35(42(23,39)40)17-19-4-5-19/h6-8,13,16,19H,4-5,9-11,14-15,17-18H2,1-3H3,(H,31,37)(H,32,33)
InChIKey=RCINJTXYIAJDAA-UHFFFAOYSA-N

> <PUBCHEM_SUBSTANCE_SYNONYM>
SCHEMBL16118035

> <PUBCHEM_XREF_EXT_ID>
SCHEMBL16118035

> <PUBCHEM_EXT_DATASOURCE_URL>
https://www.surechembl.org/

> <PUBCHEM_EXT_SUBSTANCE_URL>
https://www.surechembl.org/chemical/SCHEMBL16118035

> <PUBCHEM_CID_ASSOCIATIONS>
86272888  1

> <PUBCHEM_COORDINATE_TYPE>
1
3

$$$$
