310933218
  -OEChem-07211613022D

 33 36  0     1  0  0  0  0  0999 V2000
    8.3536    4.2521    0.0000 F   0  0  0  0  0  0  0  0  0  0  0  0
    8.0516    3.1251    0.0000 F   0  0  0  0  0  0  0  0  0  0  0  0
    7.2266    4.5540    0.0000 F   0  0  0  0  0  0  0  0  0  0  0  0
    6.2102    3.8396    0.0000 O   0  0  0  0  0  0  0  0  0  0  0  0
    3.3523    1.3646    0.0000 O   0  0  0  0  0  0  0  0  0  0  0  0
    6.9246    2.6021    0.0000 O   0  0  0  0  0  0  0  0  0  0  0  0
    0.6538   -0.6979    0.0000 N   0  0  0  0  0  0  0  0  0  0  0  0
    1.1387   -0.0305    0.0000 N   0  0  0  0  0  0  0  0  0  0  0  0
    3.3523   -1.1104    0.0000 N   0  0  0  0  0  0  0  0  0  0  0  0
    4.0668    0.1271    0.0000 N   0  0  0  0  0  0  0  0  0  0  0  0
    5.4957    3.4271    0.0000 N   0  0  3  0  0  0  0  0  0  0  0  0
    4.7812    1.3646    0.0000 N   0  0  0  0  0  0  0  0  0  0  0  0
    0.3739   -3.7192    0.0000 N   0  0  0  0  0  0  0  0  0  0  0  0
    1.9233   -1.1104    0.0000 C   0  0  0  0  0  0  0  0  0  0  0  0
    1.1387   -1.3654    0.0000 C   0  0  0  0  0  0  0  0  0  0  0  0
    1.9233   -0.2854    0.0000 C   0  0  0  0  0  0  0  0  0  0  0  0
    0.8838   -2.1500    0.0000 C   0  0  0  0  0  0  0  0  0  0  0  0
    2.6378    0.1271    0.0000 C   0  0  0  0  0  0  0  0  0  0  0  0
    2.6378   -1.5229    0.0000 C   0  0  0  0  0  0  0  0  0  0  0  0
    3.3523   -0.2854    0.0000 C   0  0  0  0  0  0  0  0  0  0  0  0
    1.4358   -2.7631    0.0000 C   0  0  0  0  0  0  0  0  0  0  0  0
    0.0768   -2.3215    0.0000 C   0  0  0  0  0  0  0  0  0  0  0  0
    4.0668    0.9521    0.0000 C   0  0  0  0  0  0  0  0  0  0  0  0
    1.1809   -3.5477    0.0000 C   0  0  0  0  0  0  0  0  0  0  0  0
    4.7812    2.1896    0.0000 C   0  0  3  0  0  0  0  0  0  0  0  0
    6.9246    3.4271    0.0000 C   0  0  0  0  0  0  0  0  0  0  0  0
    7.6391    3.8396    0.0000 C   0  0  0  0  0  0  0  0  0  0  0  0
    5.4957    2.6021    0.0000 C   0  0  0  0  0  0  0  0  0  0  0  0
   -0.1781   -3.1062    0.0000 C   0  0  0  0  0  0  0  0  0  0  0  0
    4.7812    3.8396    0.0000 C   0  0  0  0  0  0  0  0  0  0  0  0
    4.0668    2.6021    0.0000 C   0  0  0  0  0  0  0  0  0  0  0  0
    4.0668    3.4271    0.0000 C   0  0  0  0  0  0  0  0  0  0  0  0
    1.7329   -4.1608    0.0000 C   0  0  0  0  0  0  0  0  0  0  0  0
  1 27  1  0  0  0  0
  2 27  1  0  0  0  0
  3 27  1  0  0  0  0
  4 11  1  0  0  0  0
  4 26  1  0  0  0  0
  5 23  2  0  0  0  0
  6 26  2  0  0  0  0
  7  8  1  0  0  0  0
  7 15  2  0  0  0  0
  8 16  1  0  0  0  0
  9 19  1  0  0  0  0
  9 20  2  0  0  0  0
 10 20  1  0  0  0  0
 10 23  1  0  0  0  0
 11 28  1  0  0  0  0
 11 30  1  0  0  0  0
 12 23  1  0  0  0  0
 12 25  1  0  0  0  0
 13 24  2  0  0  0  0
 13 29  1  0  0  0  0
 14 15  1  0  0  0  0
 14 16  1  0  0  0  0
 14 19  2  0  0  0  0
 15 17  1  0  0  0  0
 16 18  2  0  0  0  0
 17 21  2  0  0  0  0
 17 22  1  0  0  0  0
 18 20  1  0  0  0  0
 21 24  1  0  0  0  0
 22 29  2  0  0  0  0
 24 33  1  0  0  0  0
 25 28  1  0  0  0  0
 25 31  1  0  0  0  0
 26 27  1  0  0  0  0
 30 32  1  0  0  0  0
 31 32  1  0  0  0  0
M  END
> <PUBCHEM_COMPOUND_ID_TYPE>
0

> <PUBCHEM_TOTAL_CHARGE>
0

> <PUBCHEM_SUBSTANCE_ID>
310933218

> <PUBCHEM_SUBSTANCE_VERSION>
1

> <PUBCHEM_EXT_DATASOURCE_NAME>
4488

> <PUBCHEM_EXT_DATASOURCE_REGID>
SCHEMBL16110627

> <PUBCHEM_SUBSTANCE_COMMENT>
InChI=1S/C20H20F3N7O3/c1-11-7-12(4-5-24-11)17-14-9-25-16(8-15(14)28-29-17)27-19(32)26-13-3-2-6-30(10-13)33-18(31)20(21,22)23/h4-5,7-9,13H,2-3,6,10H2,1H3,(H,28,29)(H2,25,26,27,32)
InChIKey=GXFSMJJGVARQSS-UHFFFAOYSA-N

> <PUBCHEM_SUBSTANCE_SYNONYM>
SCHEMBL16110627

> <PUBCHEM_XREF_EXT_ID>
SCHEMBL16110627

> <PUBCHEM_EXT_DATASOURCE_URL>
https://www.surechembl.org/

> <PUBCHEM_EXT_SUBSTANCE_URL>
https://www.surechembl.org/chemical/SCHEMBL16110627

> <PUBCHEM_CID_ASSOCIATIONS>
117601653  1

> <PUBCHEM_COORDINATE_TYPE>
1
3

$$$$
