310939489
  -OEChem-07211613022D

 26 29  0     1  0  0  0  0  0999 V2000
    3.0855   -0.0527    0.0000 O   0  0  0  0  0  0  0  0  0  0  0  0
   -2.2696    0.0166    0.0000 O   0  0  0  0  0  0  0  0  0  0  0  0
    1.3027    1.2541    0.0000 N   0  0  0  0  0  0  0  0  0  0  0  0
    0.5882    0.8416    0.0000 N   0  0  0  0  0  0  0  0  0  0  0  0
    2.0873    2.3340    0.0000 N   0  0  0  0  0  0  0  0  0  0  0  0
   -0.8407    0.8416    0.0000 N   0  0  0  0  0  0  0  0  0  0  0  0
    2.0873    0.9992    0.0000 C   0  0  0  0  0  0  0  0  0  0  0  0
    2.3009    0.2023    0.0000 C   0  0  0  0  0  0  0  0  0  0  0  0
    1.3027    2.0791    0.0000 C   0  0  0  0  0  0  0  0  0  0  0  0
    3.0855   -0.8777    0.0000 C   0  0  0  0  0  0  0  0  0  0  0  0
    2.3009   -1.1326    0.0000 C   0  0  0  0  0  0  0  0  0  0  0  0
    2.5723    1.6666    0.0000 C   0  0  0  0  0  0  0  0  0  0  0  0
    1.8159   -0.4652    0.0000 C   0  0  0  0  0  0  0  0  0  0  0  0
   -0.1262    1.2541    0.0000 C   0  0  0  0  0  0  0  0  0  0  0  0
    0.5882    2.4916    0.0000 C   0  0  0  0  0  0  0  0  0  0  0  0
   -0.1262    2.0791    0.0000 C   0  0  0  0  0  0  0  0  0  0  0  0
    3.6986   -1.4297    0.0000 C   0  0  0  0  0  0  0  0  0  0  0  0
    2.1293   -1.9396    0.0000 C   0  0  0  0  0  0  0  0  0  0  0  0
    3.5271   -2.2367    0.0000 C   0  0  0  0  0  0  0  0  0  0  0  0
    2.7424   -2.4916    0.0000 C   0  0  0  0  0  0  0  0  0  0  0  0
   -1.5552    1.2541    0.0000 C   0  0  3  0  0  0  0  0  0  0  0  0
   -1.5552    2.0791    0.0000 C   0  0  0  0  0  0  0  0  0  0  0  0
   -2.2696    0.8416    0.0000 C   0  0  0  0  0  0  0  0  0  0  0  0
   -2.2696    2.4916    0.0000 C   0  0  0  0  0  0  0  0  0  0  0  0
   -2.9841    2.0791    0.0000 C   0  0  0  0  0  0  0  0  0  0  0  0
   -3.6986    2.4916    0.0000 C   0  0  0  0  0  0  0  0  0  0  0  0
  1  8  1  0  0  0  0
  1 10  1  0  0  0  0
  2 23  1  0  0  0  0
  3  4  1  0  0  0  0
  3  7  1  0  0  0  0
  3  9  1  0  0  0  0
  4 14  2  0  0  0  0
  5  9  2  0  0  0  0
  5 12  1  0  0  0  0
  6 14  1  0  0  0  0
  6 21  1  0  0  0  0
  7  8  1  0  0  0  0
  7 12  2  0  0  0  0
  8 13  2  0  0  0  0
  9 15  1  0  0  0  0
 10 11  2  0  0  0  0
 10 17  1  0  0  0  0
 11 13  1  0  0  0  0
 11 18  1  0  0  0  0
 14 16  1  0  0  0  0
 15 16  2  0  0  0  0
 17 19  2  0  0  0  0
 18 20  2  0  0  0  0
 19 20  1  0  0  0  0
 21 22  1  0  0  0  0
 21 23  1  0  0  0  0
 22 24  1  0  0  0  0
 24 25  1  0  0  0  0
 25 26  1  0  0  0  0
M  END
> <PUBCHEM_COMPOUND_ID_TYPE>
0

> <PUBCHEM_TOTAL_CHARGE>
0

> <PUBCHEM_SUBSTANCE_ID>
310939489

> <PUBCHEM_SUBSTANCE_VERSION>
1

> <PUBCHEM_EXT_DATASOURCE_NAME>
4488

> <PUBCHEM_EXT_DATASOURCE_REGID>
SCHEMBL16117418

> <PUBCHEM_SUBSTANCE_COMMENT>
InChI=1S/C20H22N4O2/c1-2-3-7-15(13-25)22-19-9-10-20-21-12-16(24(20)23-19)18-11-14-6-4-5-8-17(14)26-18/h4-6,8-12,15,25H,2-3,7,13H2,1H3,(H,22,23)
InChIKey=VQJDTFPJDFMKNW-UHFFFAOYSA-N

> <PUBCHEM_SUBSTANCE_SYNONYM>
SCHEMBL16117418

> <PUBCHEM_XREF_EXT_ID>
SCHEMBL16117418

> <PUBCHEM_EXT_DATASOURCE_URL>
https://www.surechembl.org/

> <PUBCHEM_EXT_SUBSTANCE_URL>
https://www.surechembl.org/chemical/SCHEMBL16117418

> <PUBCHEM_CID_ASSOCIATIONS>
117606796  1

> <PUBCHEM_COORDINATE_TYPE>
1
3

$$$$
