310944557
  -OEChem-07211613022D

 31 34  0     1  0  0  0  0  0999 V2000
   -3.7148   -0.5218    0.0000 Cl  0  0  0  0  0  0  0  0  0  0  0  0
   -2.8327    2.3855    0.0000 F   0  0  0  0  0  0  0  0  0  0  0  0
    0.7454    1.9755    0.0000 O   0  0  0  0  0  0  0  0  0  0  0  0
   -0.6833   -0.5094    0.0000 O   0  0  0  0  0  0  0  0  0  0  0  0
    4.9697   -0.7703    0.0000 O   0  0  0  0  0  0  0  0  0  0  0  0
    1.4909    0.7330    0.0000 N   0  0  0  0  0  0  0  0  0  0  0  0
    3.5534   -0.7703    0.0000 N   0  0  0  0  0  0  0  0  0  0  0  0
   -0.6709    1.1430    0.0000 N   0  0  0  0  0  0  0  0  0  0  0  0
    2.2736   -0.3603    0.0000 C   0  0  3  0  0  0  0  0  0  0  0  0
    2.7582    0.3230    0.0000 C   0  0  3  0  0  0  0  0  0  0  0  0
    1.4909   -0.0994    0.0000 C   0  0  0  0  0  0  0  0  0  0  0  0
    2.2612    0.9815    0.0000 C   0  0  0  0  0  0  0  0  0  0  0  0
    2.7706   -1.0188    0.0000 C   0  0  0  0  0  0  0  0  0  0  0  0
    3.5534    0.0621    0.0000 C   0  0  0  0  0  0  0  0  0  0  0  0
   -2.8203    0.7330    0.0000 C   0  0  0  0  0  0  0  0  0  0  0  0
    0.7454    1.1306    0.0000 C   0  0  0  0  0  0  0  0  0  0  0  0
   -1.3915    0.7454    0.0000 C   0  0  0  0  0  0  0  0  0  0  0  0
   -3.5534    1.1554    0.0000 C   0  0  0  0  0  0  0  0  0  0  0  0
   -2.8327   -0.0994    0.0000 C   0  0  0  0  0  0  0  0  0  0  0  0
   -2.1245    1.1306    0.0000 C   0  0  0  0  0  0  0  0  0  0  0  0
   -1.4039   -0.0869    0.0000 C   0  0  0  0  0  0  0  0  0  0  0  0
    4.2616   -1.1803    0.0000 C   0  0  0  0  0  0  0  0  0  0  0  0
   -2.0997   -0.5094    0.0000 C   0  0  0  0  0  0  0  0  0  0  0  0
    0.0497    0.7330    0.0000 C   0  0  0  0  0  0  0  0  0  0  0  0
   -3.5409    1.9755    0.0000 C   0  0  0  0  0  0  0  0  0  0  0  0
   -4.2740    0.7454    0.0000 C   0  0  0  0  0  0  0  0  0  0  0  0
   -4.2740    2.3730    0.0000 C   0  0  0  0  0  0  0  0  0  0  0  0
    4.2616   -2.0127    0.0000 C   0  0  0  0  0  0  0  0  0  0  0  0
   -4.9697    1.1554    0.0000 C   0  0  0  0  0  0  0  0  0  0  0  0
   -4.9697    1.9755    0.0000 C   0  0  0  0  0  0  0  0  0  0  0  0
    3.5285   -2.3855    0.0000 C   0  0  0  0  0  0  0  0  0  0  0  0
  1 19  1  0  0  0  0
  2 25  1  0  0  0  0
  3 16  2  0  0  0  0
  4 21  1  0  0  0  0
  5 22  2  0  0  0  0
  6 11  1  0  0  0  0
  6 12  1  0  0  0  0
  6 16  1  0  0  0  0
  7 13  1  0  0  0  0
  7 14  1  0  0  0  0
  7 22  1  0  0  0  0
  8 17  1  0  0  0  0
  8 24  1  0  0  0  0
  9 10  1  0  0  0  0
  9 11  1  0  0  0  0
  9 13  1  0  0  0  0
 10 12  1  0  0  0  0
 10 14  1  0  0  0  0
 15 18  1  0  0  0  0
 15 19  1  0  0  0  0
 15 20  2  0  0  0  0
 16 24  1  0  0  0  0
 17 20  1  0  0  0  0
 17 21  2  0  0  0  0
 18 25  1  0  0  0  0
 18 26  2  0  0  0  0
 19 23  2  0  0  0  0
 21 23  1  0  0  0  0
 22 28  1  0  0  0  0
 25 27  2  0  0  0  0
 26 29  1  0  0  0  0
 27 30  1  0  0  0  0
 28 31  2  0  0  0  0
 29 30  2  0  0  0  0
M  END
> <PUBCHEM_COMPOUND_ID_TYPE>
0

> <PUBCHEM_TOTAL_CHARGE>
0

> <PUBCHEM_SUBSTANCE_ID>
310944557

> <PUBCHEM_SUBSTANCE_VERSION>
1

> <PUBCHEM_EXT_DATASOURCE_NAME>
4488

> <PUBCHEM_EXT_DATASOURCE_REGID>
SCHEMBL16122634

> <PUBCHEM_SUBSTANCE_COMMENT>
InChI=1S/C23H23ClFN3O3/c1-2-22(30)27-10-14-12-28(13-15(14)11-27)23(31)9-26-20-7-17(18(24)8-21(20)29)16-5-3-4-6-19(16)25/h2-8,14-15,26,29H,1,9-13H2
InChIKey=NFTAZNOJALAKRH-UHFFFAOYSA-N

> <PUBCHEM_SUBSTANCE_SYNONYM>
SCHEMBL16122634

> <PUBCHEM_XREF_EXT_ID>
SCHEMBL16122634

> <PUBCHEM_EXT_DATASOURCE_URL>
https://www.surechembl.org/

> <PUBCHEM_EXT_SUBSTANCE_URL>
https://www.surechembl.org/chemical/SCHEMBL16122634

> <PUBCHEM_CID_ASSOCIATIONS>
117610792  1

> <PUBCHEM_COORDINATE_TYPE>
1
3

$$$$
