310931872
  -OEChem-07211613022D

 33 37  0     1  0  0  0  0  0999 V2000
    7.0901    8.0799    0.0000 F   0  0  0  0  0  0  0  0  0  0  0  0
    5.5188    5.8779    0.0000 O   0  0  0  0  0  0  0  0  0  0  0  0
    4.7812    1.9354    0.0000 O   0  0  0  0  0  0  0  0  0  0  0  0
    4.0668    5.6479    0.0000 N   0  0  0  0  0  0  0  0  0  0  0  0
    3.3993    6.1329    0.0000 N   0  0  0  0  0  0  0  0  0  0  0  0
    3.3523    1.9354    0.0000 N   0  0  0  0  0  0  0  0  0  0  0  0
    4.7812    4.4104    0.0000 N   0  0  0  0  0  0  0  0  0  0  0  0
    1.9233    1.1104    0.0000 N   0  0  3  0  0  0  0  0  0  0  0  0
    6.9039   10.2547    0.0000 N   0  0  0  0  0  0  0  0  0  0  0  0
    4.4793    6.9175    0.0000 C   0  0  0  0  0  0  0  0  0  0  0  0
    4.7342    6.1329    0.0000 C   0  0  0  0  0  0  0  0  0  0  0  0
    4.9642    7.5849    0.0000 C   0  0  0  0  0  0  0  0  0  0  0  0
    4.0668    4.8229    0.0000 C   0  0  0  0  0  0  0  0  0  0  0  0
    5.7847    7.4987    0.0000 C   0  0  0  0  0  0  0  0  0  0  0  0
    3.6543    6.9175    0.0000 C   0  0  0  0  0  0  0  0  0  0  0  0
    6.2696    8.1661    0.0000 C   0  0  0  0  0  0  0  0  0  0  0  0
    4.0668    3.1729    0.0000 C   0  0  0  0  0  0  0  0  0  0  0  0
    4.6286    8.3386    0.0000 C   0  0  0  0  0  0  0  0  0  0  0  0
    4.0668    2.3479    0.0000 C   0  0  0  0  0  0  0  0  0  0  0  0
    5.9340    8.9198    0.0000 C   0  0  0  0  0  0  0  0  0  0  0  0
    3.3523    4.4104    0.0000 C   0  0  0  0  0  0  0  0  0  0  0  0
    1.9233    1.9354    0.0000 C   0  0  3  0  0  0  0  0  0  0  0  0
    4.7812    3.5854    0.0000 C   0  0  0  0  0  0  0  0  0  0  0  0
    3.3523    3.5854    0.0000 C   0  0  0  0  0  0  0  0  0  0  0  0
    5.1135    9.0060    0.0000 C   0  0  0  0  0  0  0  0  0  0  0  0
    2.6378    2.3479    0.0000 C   0  0  0  0  0  0  0  0  0  0  0  0
    3.3523    1.1104    0.0000 C   0  0  0  0  0  0  0  0  0  0  0  0
    2.6378    0.6979    0.0000 C   0  0  0  0  0  0  0  0  0  0  0  0
    6.1202    6.7450    0.0000 C   0  0  0  0  0  0  0  0  0  0  0  0
    1.1387    2.1904    0.0000 C   0  0  0  0  0  0  0  0  0  0  0  0
    1.1387    0.8555    0.0000 C   0  0  0  0  0  0  0  0  0  0  0  0
    6.4189    9.5872    0.0000 C   0  0  0  0  0  0  0  0  0  0  0  0
    0.6538    1.5229    0.0000 C   0  0  0  0  0  0  0  0  0  0  0  0
  1 16  1  0  0  0  0
  2 11  1  0  0  0  0
  3 19  2  0  0  0  0
  4  5  1  0  0  0  0
  4 11  1  0  0  0  0
  4 13  1  0  0  0  0
  5 15  2  0  0  0  0
  6 19  1  0  0  0  0
  6 26  1  0  0  0  0
  6 27  1  0  0  0  0
  7 13  2  0  0  0  0
  7 23  1  0  0  0  0
  8 22  1  0  0  0  0
  8 28  1  0  0  0  0
  8 31  1  0  0  0  0
  9 32  3  0  0  0  0
 10 11  2  0  0  0  0
 10 12  1  0  0  0  0
 10 15  1  0  0  0  0
 12 14  2  0  0  0  0
 12 18  1  0  0  0  0
 13 21  1  0  0  0  0
 14 16  1  0  0  0  0
 14 29  1  0  0  0  0
 16 20  2  0  0  0  0
 17 19  1  0  0  0  0
 17 23  2  0  0  0  0
 17 24  1  0  0  0  0
 18 25  2  0  0  0  0
 20 25  1  0  0  0  0
 20 32  1  0  0  0  0
 21 24  2  0  0  0  0
 22 26  1  0  0  0  0
 22 30  1  0  0  0  0
 27 28  1  0  0  0  0
 30 33  1  0  0  0  0
 31 33  1  0  0  0  0
M  END
> <PUBCHEM_COMPOUND_ID_TYPE>
0

> <PUBCHEM_TOTAL_CHARGE>
0

> <PUBCHEM_SUBSTANCE_ID>
310931872

> <PUBCHEM_SUBSTANCE_VERSION>
1

> <PUBCHEM_EXT_DATASOURCE_NAME>
4488

> <PUBCHEM_EXT_DATASOURCE_REGID>
SCHEMBL16109207

> <PUBCHEM_SUBSTANCE_COMMENT>
InChI=1S/C24H23FN6O2/c1-15-19(6-4-16(11-26)22(15)25)20-13-28-31(24(20)33)21-7-5-17(12-27-21)23(32)30-10-9-29-8-2-3-18(29)14-30/h4-7,12-13,18,33H,2-3,8-10,14H2,1H3
InChIKey=XCCJFAIABOVJJP-UHFFFAOYSA-N

> <PUBCHEM_SUBSTANCE_SYNONYM>
SCHEMBL16109207

> <PUBCHEM_XREF_EXT_ID>
SCHEMBL16109207

> <PUBCHEM_EXT_DATASOURCE_URL>
https://www.surechembl.org/

> <PUBCHEM_EXT_SUBSTANCE_URL>
https://www.surechembl.org/chemical/SCHEMBL16109207

> <PUBCHEM_CID_ASSOCIATIONS>
117600537  1

> <PUBCHEM_COORDINATE_TYPE>
1
3

$$$$
