310943844
  -OEChem-07211613022D

 32 36  0     1  0  0  0  0  0999 V2000
    2.4290    1.0765    0.0000 O   0  0  0  0  0  0  0  0  0  0  0  0
    5.2333   -0.5686    0.0000 O   0  0  0  0  0  0  0  0  0  0  0  0
   -0.9053   -0.7342    0.0000 O   0  0  0  0  0  0  0  0  0  0  0  0
    5.7523    0.8005    0.0000 O   0  0  0  0  0  0  0  0  0  0  0  0
    3.1135   -0.4030    0.0000 N   0  0  0  0  0  0  0  0  0  0  0  0
    0.1877    0.3809    0.0000 N   0  0  0  0  0  0  0  0  0  0  0  0
   -4.4384    0.6128    0.0000 N   0  0  0  0  0  0  0  0  0  0  0  0
   -3.3344   -0.3146    0.0000 N   0  0  0  0  0  0  0  0  0  0  0  0
   -5.0236    0.0387    0.0000 N   0  0  0  0  0  0  0  0  0  0  0  0
   -5.7523    0.4251    0.0000 N   0  0  0  0  0  0  0  0  0  0  0  0
   -5.6087    1.2310    0.0000 N   0  0  0  0  0  0  0  0  0  0  0  0
    1.7003   -0.2595    0.0000 C   0  0  0  0  0  0  0  0  0  0  0  0
    2.3848    0.2374    0.0000 C   0  0  0  0  0  0  0  0  0  0  0  0
    1.7776   -1.0213    0.0000 C   0  0  0  0  0  0  0  0  0  0  0  0
    3.9305   -0.3036    0.0000 C   0  0  0  0  0  0  0  0  0  0  0  0
    1.0489   -0.7563    0.0000 C   0  0  0  0  0  0  0  0  0  0  0  0
    1.6009    0.5576    0.0000 C   0  0  0  0  0  0  0  0  0  0  0  0
    2.5725   -1.2421    0.0000 C   0  0  0  0  0  0  0  0  0  0  0  0
    0.2761   -0.4251    0.0000 C   0  0  0  0  0  0  0  0  0  0  0  0
    0.8391    0.8777    0.0000 C   0  0  0  0  0  0  0  0  0  0  0  0
    4.3280    0.4140    0.0000 C   0  0  0  0  0  0  0  0  0  0  0  0
    4.4936   -0.9109    0.0000 C   0  0  0  0  0  0  0  0  0  0  0  0
    5.1230    0.2374    0.0000 C   0  0  0  0  0  0  0  0  0  0  0  0
   -0.6514    0.6680    0.0000 C   0  0  0  0  0  0  0  0  0  0  0  0
   -1.1924    0.0387    0.0000 C   0  0  3  0  0  0  0  0  0  0  0  0
   -1.9984    0.1932    0.0000 C   0  0  0  0  0  0  0  0  0  0  0  0
   -3.6324    0.4692    0.0000 C   0  0  0  0  0  0  0  0  0  0  0  0
   -2.5283   -0.4472    0.0000 C   0  0  0  0  0  0  0  0  0  0  0  0
   -2.2744    0.9550    0.0000 C   0  0  0  0  0  0  0  0  0  0  0  0
   -3.0914    1.0986    0.0000 C   0  0  0  0  0  0  0  0  0  0  0  0
   -4.7917    1.3525    0.0000 C   0  0  0  0  0  0  0  0  0  0  0  0
   -1.4463   -1.3525    0.0000 C   0  0  0  0  0  0  0  0  0  0  0  0
  1 13  2  0  0  0  0
  2 22  1  0  0  0  0
  2 23  1  0  0  0  0
  3 25  1  0  0  0  0
  3 32  1  0  0  0  0
  4 23  2  0  0  0  0
  5 13  1  0  0  0  0
  5 15  1  0  0  0  0
  5 18  1  0  0  0  0
  6 19  1  0  0  0  0
  6 20  1  0  0  0  0
  6 24  1  0  0  0  0
  7  9  1  0  0  0  0
  7 27  1  0  0  0  0
  7 31  1  0  0  0  0
  8 27  2  0  0  0  0
  8 28  1  0  0  0  0
  9 10  2  0  0  0  0
 10 11  1  0  0  0  0
 11 31  2  0  0  0  0
 12 13  1  0  0  0  0
 12 14  1  0  0  0  0
 12 16  1  0  0  0  0
 12 17  1  0  0  0  0
 14 18  1  0  0  0  0
 15 21  2  0  0  0  0
 15 22  1  0  0  0  0
 16 19  1  0  0  0  0
 17 20  1  0  0  0  0
 21 23  1  0  0  0  0
 24 25  1  0  0  0  0
 25 26  1  0  0  0  0
 26 28  2  0  0  0  0
 26 29  1  0  0  0  0
 27 30  1  0  0  0  0
 29 30  2  0  0  0  0
M  END
> <PUBCHEM_COMPOUND_ID_TYPE>
0

> <PUBCHEM_TOTAL_CHARGE>
0

> <PUBCHEM_SUBSTANCE_ID>
310943844

> <PUBCHEM_SUBSTANCE_VERSION>
1

> <PUBCHEM_EXT_DATASOURCE_NAME>
4488

> <PUBCHEM_EXT_DATASOURCE_REGID>
SCHEMBL16121915

> <PUBCHEM_SUBSTANCE_COMMENT>
InChI=1S/C21H25N7O4/c1-31-17(15-2-3-18(22-11-15)28-14-23-24-25-28)12-26-7-4-21(5-8-26)6-9-27(20(21)30)16-10-19(29)32-13-16/h2-3,10-11,14,17H,4-9,12-13H2,1H3
InChIKey=SGODGLYQLSDIQM-UHFFFAOYSA-N

> <PUBCHEM_SUBSTANCE_SYNONYM>
SCHEMBL16121915

> <PUBCHEM_XREF_EXT_ID>
SCHEMBL16121915

> <PUBCHEM_EXT_DATASOURCE_URL>
https://www.surechembl.org/

> <PUBCHEM_EXT_SUBSTANCE_URL>
https://www.surechembl.org/chemical/SCHEMBL16121915

> <PUBCHEM_CID_ASSOCIATIONS>
117610182  1

> <PUBCHEM_COORDINATE_TYPE>
1
3

$$$$
