310949381
  -OEChem-07211613022D

 14 14  0     1  0  0  0  0  0999 V2000
   -1.8251    1.2899    0.0000 I   0  0  0  0  0  0  0  0  0  0  0  0
   -1.8602   -0.4124    0.0000 S   0  0  0  0  0  0  0  0  0  0  0  0
   -2.7201    0.0965    0.0000 O   0  0  0  0  0  0  0  0  0  0  0  0
   -2.5622   -1.1319    0.0000 O   0  0  0  0  0  0  0  0  0  0  0  0
    2.7201   -0.4124    0.0000 O   0  0  0  0  0  0  0  0  0  0  0  0
   -1.3688    0.4651    0.0000 N   0  0  3  0  0  0  0  0  0  0  0  0
    1.1231   -0.4124    0.0000 N   0  0  0  0  0  0  0  0  0  0  0  0
   -0.3685    0.4651    0.0000 C   0  0  0  0  0  0  0  0  0  0  0  0
    0.1053   -0.3773    0.0000 C   0  0  0  0  0  0  0  0  0  0  0  0
   -1.3688   -1.2899    0.0000 C   0  0  0  0  0  0  0  0  0  0  0  0
    1.5092    0.2895    0.0000 C   0  0  0  0  0  0  0  0  0  0  0  0
    1.5092   -1.0793    0.0000 C   0  0  0  0  0  0  0  0  0  0  0  0
    2.3340    0.2721    0.0000 C   0  0  0  0  0  0  0  0  0  0  0  0
    2.3165   -1.0968    0.0000 C   0  0  0  0  0  0  0  0  0  0  0  0
  1  6  1  0  0  0  0
  2  3  2  0  0  0  0
  2  4  2  0  0  0  0
  2  6  1  0  0  0  0
  2 10  1  0  0  0  0
  5 13  1  0  0  0  0
  5 14  1  0  0  0  0
  6  8  1  0  0  0  0
  7  9  1  0  0  0  0
  7 11  1  0  0  0  0
  7 12  1  0  0  0  0
  8  9  1  0  0  0  0
 11 13  1  0  0  0  0
 12 14  1  0  0  0  0
M  END
> <PUBCHEM_COMPOUND_ID_TYPE>
0

> <PUBCHEM_TOTAL_CHARGE>
0

> <PUBCHEM_SUBSTANCE_ID>
310949381

> <PUBCHEM_SUBSTANCE_VERSION>
1

> <PUBCHEM_EXT_DATASOURCE_NAME>
4488

> <PUBCHEM_EXT_DATASOURCE_REGID>
SCHEMBL16127573

> <PUBCHEM_SUBSTANCE_COMMENT>
InChI=1S/C7H15IN2O3S/c1-14(11,12)10(8)3-2-9-4-6-13-7-5-9/h2-7H2,1H3
InChIKey=DHCZMTVARPBXTK-UHFFFAOYSA-N

> <PUBCHEM_SUBSTANCE_SYNONYM>
SCHEMBL16127573

> <PUBCHEM_XREF_EXT_ID>
SCHEMBL16127573

> <PUBCHEM_EXT_DATASOURCE_URL>
https://www.surechembl.org/

> <PUBCHEM_EXT_SUBSTANCE_URL>
https://www.surechembl.org/chemical/SCHEMBL16127573

> <PUBCHEM_CID_ASSOCIATIONS>
117614838  1

> <PUBCHEM_COORDINATE_TYPE>
1
3

$$$$
