310946013
  -OEChem-07211613022D

 40 43  0     1  0  0  0  0  0999 V2000
    4.0113    0.6858    0.0000 O   0  0  0  0  0  0  0  0  0  0  0  0
    2.8751   -1.2817    0.0000 O   0  0  0  0  0  0  0  0  0  0  0  0
    0.7275    0.7967    0.0000 O   0  0  0  0  0  0  0  0  0  0  0  0
   -1.4341   -1.2817    0.0000 O   0  0  0  0  0  0  0  0  0  0  0  0
   -4.3023   -1.2817    0.0000 O   0  0  0  0  0  0  0  0  0  0  0  0
    2.8751   -2.9444    0.0000 O   0  0  0  0  0  0  0  0  0  0  0  0
   -2.1546   -2.5287    0.0000 O   0  0  0  0  0  0  0  0  0  0  0  0
    1.4341   -0.4364    0.0000 N   0  0  0  0  0  0  0  0  0  0  0  0
   -2.8751   -0.4364    0.0000 N   0  0  3  0  0  0  0  0  0  0  0  0
   -0.7275   -0.0208    0.0000 N   0  0  0  0  0  0  0  0  0  0  0  0
    3.5956   -0.0070    0.0000 C   0  0  3  0  0  0  0  0  0  0  0  0
    2.8890   -0.4088    0.0000 C   0  0  0  0  0  0  0  0  0  0  0  0
    3.1938    0.6998    0.0000 C   0  0  0  0  0  0  0  0  0  0  0  0
    2.1408   -0.0208    0.0000 C   0  0  3  0  0  0  0  0  0  0  0  0
    4.3162   -0.4642    0.0000 C   0  0  0  0  0  0  0  0  0  0  0  0
    2.1546    1.2956    0.0000 C   0  0  0  0  0  0  0  0  0  0  0  0
    0.6998   -0.0485    0.0000 C   0  0  0  0  0  0  0  0  0  0  0  0
    0.0070   -0.4364    0.0000 C   0  0  3  0  0  0  0  0  0  0  0  0
    1.4203    1.7251    0.0000 C   0  0  0  0  0  0  0  0  0  0  0  0
   -2.1546   -0.0208    0.0000 C   0  0  3  0  0  0  0  0  0  0  0  0
   -1.4341   -0.4226    0.0000 C   0  0  0  0  0  0  0  0  0  0  0  0
    0.0070   -1.2678    0.0000 C   0  0  0  0  0  0  0  0  0  0  0  0
   -2.8890   -1.2678    0.0000 C   0  0  3  0  0  0  0  0  0  0  0  0
    0.7275   -1.6835    0.0000 C   0  0  0  0  0  0  0  0  0  0  0  0
   -3.5956   -0.0347    0.0000 C   0  0  0  0  0  0  0  0  0  0  0  0
    1.4341    2.5426    0.0000 C   0  0  0  0  0  0  0  0  0  0  0  0
    0.7136    1.3094    0.0000 C   0  0  0  0  0  0  0  0  0  0  0  0
   -3.5818   -1.6835    0.0000 C   0  0  0  0  0  0  0  0  0  0  0  0
    0.7275   -2.5149    0.0000 C   0  0  0  0  0  0  0  0  0  0  0  0
    1.4480   -1.2817    0.0000 C   0  0  0  0  0  0  0  0  0  0  0  0
   -2.1685    0.8245    0.0000 C   0  0  0  0  0  0  0  0  0  0  0  0
   -2.1546   -1.6835    0.0000 C   0  0  0  0  0  0  0  0  0  0  0  0
   -4.3162   -0.4364    0.0000 C   0  0  0  0  0  0  0  0  0  0  0  0
    0.7136    2.9444    0.0000 C   0  0  0  0  0  0  0  0  0  0  0  0
    0.0070    1.7251    0.0000 C   0  0  0  0  0  0  0  0  0  0  0  0
    2.1408   -2.5149    0.0000 C   0  0  0  0  0  0  0  0  0  0  0  0
    1.4480   -2.9167    0.0000 C   0  0  0  0  0  0  0  0  0  0  0  0
    2.1546   -1.6974    0.0000 C   0  0  0  0  0  0  0  0  0  0  0  0
    0.0070    2.5564    0.0000 C   0  0  0  0  0  0  0  0  0  0  0  0
    3.5956   -2.5149    0.0000 C   0  0  0  0  0  0  0  0  0  0  0  0
  1 11  1  0  0  0  0
  1 13  1  0  0  0  0
  2 12  2  0  0  0  0
  3 17  2  0  0  0  0
  4 21  2  0  0  0  0
  5 28  1  0  0  0  0
  5 33  1  0  0  0  0
  6 36  1  0  0  0  0
  6 40  1  0  0  0  0
  7 32  1  0  0  0  0
  8 14  1  0  0  0  0
  8 17  1  0  0  0  0
  9 20  1  0  0  0  0
  9 23  1  0  0  0  0
  9 25  1  0  0  0  0
 10 18  1  0  0  0  0
 10 21  1  0  0  0  0
 11 12  1  0  0  0  0
 11 13  1  0  0  0  0
 11 15  1  0  0  0  0
 12 14  1  0  0  0  0
 14 16  1  0  0  0  0
 16 19  1  0  0  0  0
 17 18  1  0  0  0  0
 18 22  1  0  0  0  0
 19 26  2  0  0  0  0
 19 27  1  0  0  0  0
 20 21  1  0  0  0  0
 20 31  1  0  0  0  0
 22 24  1  0  0  0  0
 23 28  1  0  0  0  0
 23 32  1  0  0  0  0
 24 29  2  0  0  0  0
 24 30  1  0  0  0  0
 25 33  1  0  0  0  0
 26 34  1  0  0  0  0
 27 35  2  0  0  0  0
 29 37  1  0  0  0  0
 30 38  2  0  0  0  0
 34 39  2  0  0  0  0
 35 39  1  0  0  0  0
 36 37  2  0  0  0  0
 36 38  1  0  0  0  0
M  END
> <PUBCHEM_COMPOUND_ID_TYPE>
0

> <PUBCHEM_TOTAL_CHARGE>
0

> <PUBCHEM_SUBSTANCE_ID>
310946013

> <PUBCHEM_SUBSTANCE_VERSION>
1

> <PUBCHEM_EXT_DATASOURCE_NAME>
4488

> <PUBCHEM_EXT_DATASOURCE_REGID>
SCHEMBL16124119

> <PUBCHEM_SUBSTANCE_COMMENT>
InChI=1S/C30H39N3O7/c1-20(33-13-14-39-18-23(33)17-34)28(36)32-26(16-22-9-11-24(38-3)12-10-22)29(37)31-25(27(35)30(2)19-40-30)15-21-7-5-4-6-8-21/h4-12,20,23,25-26,34H,13-19H2,1-3H3,(H,31,37)(H,32,36)
InChIKey=VFPFZJMFWGSSAO-UHFFFAOYSA-N

> <PUBCHEM_SUBSTANCE_SYNONYM>
SCHEMBL16124119

> <PUBCHEM_XREF_EXT_ID>
SCHEMBL16124119

> <PUBCHEM_EXT_DATASOURCE_URL>
https://www.surechembl.org/

> <PUBCHEM_EXT_SUBSTANCE_URL>
https://www.surechembl.org/chemical/SCHEMBL16124119

> <PUBCHEM_CID_ASSOCIATIONS>
117611984  1

> <PUBCHEM_COORDINATE_TYPE>
1
3

$$$$
