310937251
  -OEChem-07211613022D

 44 47  0     1  0  0  0  0  0999 V2000
    0.0000   -3.5060    0.0000 F   0  0  0  0  0  0  0  0  0  0  0  0
    5.1560   -8.6620    0.0000 O   0  0  0  0  0  0  0  0  0  0  0  0
    7.2699   -8.2495    0.0000 O   0  0  0  0  0  0  0  0  0  0  0  0
    6.5480   -9.4869    0.0000 O   0  0  0  0  0  0  0  0  0  0  0  0
    4.8466   -3.5060    0.0000 O   0  0  0  0  0  0  0  0  0  0  0  0
    2.4233   -2.1139    0.0000 O   0  0  0  0  0  0  0  0  0  0  0  0
    5.1560   -6.2387    0.0000 N   0  0  0  0  0  0  0  0  0  0  0  0
    4.5373   -5.6716    0.0000 N   0  0  0  0  0  0  0  0  0  0  0  0
    6.5996   -6.2387    0.0000 N   0  0  0  0  0  0  0  0  0  0  0  0
    3.6607   -4.2279    0.0000 N   0  0  0  0  0  0  0  0  0  0  0  0
    5.1560   -7.0637    0.0000 C   0  0  0  0  0  0  0  0  0  0  0  0
    5.8262   -7.4246    0.0000 C   0  0  0  0  0  0  0  0  0  0  0  0
    5.8778   -5.8262    0.0000 C   0  0  0  0  0  0  0  0  0  0  0  0
    4.4857   -7.4761    0.0000 C   0  0  0  0  0  0  0  0  0  0  0  0
    6.5996   -7.0121    0.0000 C   0  0  0  0  0  0  0  0  0  0  0  0
    5.8262   -8.2495    0.0000 C   0  0  3  0  0  0  0  0  0  0  0  0
    4.8982   -4.9497    0.0000 C   0  0  0  0  0  0  0  0  0  0  0  0
    5.6716   -5.0013    0.0000 C   0  0  0  0  0  0  0  0  0  0  0  0
    3.7639   -7.0637    0.0000 C   0  0  0  0  0  0  0  0  0  0  0  0
    6.5480   -8.6620    0.0000 C   0  0  0  0  0  0  0  0  0  0  0  0
    4.4857   -8.3011    0.0000 C   0  0  0  0  0  0  0  0  0  0  0  0
    4.4857   -4.2279    0.0000 C   0  0  0  0  0  0  0  0  0  0  0  0
    7.2699   -7.4246    0.0000 C   0  0  0  0  0  0  0  0  0  0  0  0
    5.1560   -9.4869    0.0000 C   0  0  0  0  0  0  0  0  0  0  0  0
    3.0420   -7.4761    0.0000 C   0  0  0  0  0  0  0  0  0  0  0  0
    3.7639   -6.2903    0.0000 C   0  0  0  0  0  0  0  0  0  0  0  0
    3.7639   -8.7135    0.0000 C   0  0  0  0  0  0  0  0  0  0  0  0
    3.0420   -8.3011    0.0000 C   0  0  0  0  0  0  0  0  0  0  0  0
    3.2483   -3.5060    0.0000 C   0  0  0  0  0  0  0  0  0  0  0  0
    2.4233   -3.5060    0.0000 C   0  0  0  0  0  0  0  0  0  0  0  0
    5.1044  -10.3119    0.0000 C   0  0  0  0  0  0  0  0  0  0  0  0
    4.3310   -9.4869    0.0000 C   0  0  0  0  0  0  0  0  0  0  0  0
    5.9294   -9.4869    0.0000 C   0  0  0  0  0  0  0  0  0  0  0  0
    7.9917   -8.6620    0.0000 C   0  0  0  0  0  0  0  0  0  0  0  0
    3.0420   -5.8778    0.0000 C   0  0  0  0  0  0  0  0  0  0  0  0
    2.0108   -2.8358    0.0000 C   0  0  0  0  0  0  0  0  0  0  0  0
    2.0108   -4.2279    0.0000 C   0  0  0  0  0  0  0  0  0  0  0  0
    1.1859   -2.7842    0.0000 C   0  0  0  0  0  0  0  0  0  0  0  0
    0.7734   -3.5060    0.0000 C   0  0  0  0  0  0  0  0  0  0  0  0
    1.1859   -4.2279    0.0000 C   0  0  0  0  0  0  0  0  0  0  0  0
    8.6620   -8.2495    0.0000 C   0  0  0  0  0  0  0  0  0  0  0  0
    2.0108   -1.3921    0.0000 C   0  0  0  0  0  0  0  0  0  0  0  0
    2.4233   -0.7219    0.0000 C   0  0  0  0  0  0  0  0  0  0  0  0
    2.0108    0.0000    0.0000 C   0  0  0  0  0  0  0  0  0  0  0  0
  1 39  1  0  0  0  0
  2 16  1  0  0  0  0
  2 24  1  0  0  0  0
  3 20  1  0  0  0  0
  3 34  1  0  0  0  0
  4 20  2  0  0  0  0
  5 22  2  0  0  0  0
  6 36  1  0  0  0  0
  6 42  1  0  0  0  0
  7  8  1  0  0  0  0
  7 11  1  0  0  0  0
  7 13  1  0  0  0  0
  8 17  2  0  0  0  0
  9 13  1  0  0  0  0
  9 15  2  0  0  0  0
 10 22  1  0  0  0  0
 10 29  1  0  0  0  0
 11 12  2  0  0  0  0
 11 14  1  0  0  0  0
 12 15  1  0  0  0  0
 12 16  1  0  0  0  0
 13 18  2  0  0  0  0
 14 19  1  0  0  0  0
 14 21  2  0  0  0  0
 15 23  1  0  0  0  0
 16 20  1  0  0  0  0
 17 18  1  0  0  0  0
 17 22  1  0  0  0  0
 19 25  2  0  0  0  0
 19 26  1  0  0  0  0
 21 27  1  0  0  0  0
 24 31  1  0  0  0  0
 24 32  1  0  0  0  0
 24 33  1  0  0  0  0
 25 28  1  0  0  0  0
 26 35  2  0  0  0  0
 27 28  2  0  0  0  0
 29 30  1  0  0  0  0
 30 36  2  0  0  0  0
 30 37  1  0  0  0  0
 34 41  1  0  0  0  0
 36 38  1  0  0  0  0
 37 40  2  0  0  0  0
 38 39  2  0  0  0  0
 39 40  1  0  0  0  0
 42 43  1  0  0  0  0
 43 44  2  0  0  0  0
M  END
> <PUBCHEM_COMPOUND_ID_TYPE>
0

> <PUBCHEM_TOTAL_CHARGE>
0

> <PUBCHEM_SUBSTANCE_ID>
310937251

> <PUBCHEM_SUBSTANCE_VERSION>
1

> <PUBCHEM_EXT_DATASOURCE_NAME>
4488

> <PUBCHEM_EXT_DATASOURCE_REGID>
SCHEMBL16114989

> <PUBCHEM_SUBSTANCE_COMMENT>
InChI=1S/C34H37FN4O5/c1-8-17-43-27-18-24(35)16-15-23(27)20-36-32(40)26-19-28-37-21(4)29(31(33(41)42-10-3)44-34(5,6)7)30(39(28)38-26)25-14-12-11-13-22(25)9-2/h8-9,11-16,18-19,31H,1-2,10,17,20H2,3-7H3,(H,36,40)
InChIKey=LVIQQQKVIVBLJO-UHFFFAOYSA-N

> <PUBCHEM_SUBSTANCE_SYNONYM>
SCHEMBL16114989

> <PUBCHEM_XREF_EXT_ID>
SCHEMBL16114989

> <PUBCHEM_EXT_DATASOURCE_URL>
https://www.surechembl.org/

> <PUBCHEM_EXT_SUBSTANCE_URL>
https://www.surechembl.org/chemical/SCHEMBL16114989

> <PUBCHEM_CID_ASSOCIATIONS>
117605048  1

> <PUBCHEM_COORDINATE_TYPE>
1
3

$$$$
