310937101
  -OEChem-07211613022D

 20 20  0     1  0  0  0  0  0999 V2000
    4.3340   -0.8220    0.0000 Br  0  0  0  0  0  0  0  0  0  0  0  0
    3.6117   -4.5582    0.0000 O   0  0  0  0  0  0  0  0  0  0  0  0
    4.3340   -3.3128    0.0000 O   0  0  0  0  0  0  0  0  0  0  0  0
    1.4696   -2.4908    0.0000 O   0  0  0  0  0  0  0  0  0  0  0  0
    0.7473   -3.7362    0.0000 O   0  0  0  0  0  0  0  0  0  0  0  0
    2.1670   -1.2205    0.0000 N   0  0  0  0  0  0  0  0  0  0  0  0
    2.8894   -3.3128    0.0000 C   0  0  3  0  0  0  0  0  0  0  0  0
    2.8894   -2.4659    0.0000 C   0  0  0  0  0  0  0  0  0  0  0  0
    3.6117   -3.7113    0.0000 C   0  0  0  0  0  0  0  0  0  0  0  0
    3.6117   -2.0425    0.0000 C   0  0  0  0  0  0  0  0  0  0  0  0
    2.1670   -3.7113    0.0000 C   0  0  0  0  0  0  0  0  0  0  0  0
    2.1670   -2.0425    0.0000 C   0  0  0  0  0  0  0  0  0  0  0  0
    3.6117   -1.2205    0.0000 C   0  0  0  0  0  0  0  0  0  0  0  0
    1.4696   -3.3128    0.0000 C   0  0  0  0  0  0  0  0  0  0  0  0
    2.8894   -0.7971    0.0000 C   0  0  0  0  0  0  0  0  0  0  0  0
    0.7473   -2.0674    0.0000 C   0  0  0  0  0  0  0  0  0  0  0  0
    4.3091   -4.9817    0.0000 C   0  0  0  0  0  0  0  0  0  0  0  0
    0.7223   -1.2454    0.0000 C   0  0  0  0  0  0  0  0  0  0  0  0
    0.0249   -0.8469    0.0000 C   0  0  0  0  0  0  0  0  0  0  0  0
    0.0000    0.0000    0.0000 C   0  0  0  0  0  0  0  0  0  0  0  0
  1 13  1  0  0  0  0
  2  9  1  0  0  0  0
  2 17  1  0  0  0  0
  3  9  2  0  0  0  0
  4 14  1  0  0  0  0
  4 16  1  0  0  0  0
  5 14  2  0  0  0  0
  6 12  1  0  0  0  0
  6 15  2  0  0  0  0
  7  8  1  0  0  0  0
  7  9  1  0  0  0  0
  7 11  1  0  0  0  0
  8 10  1  0  0  0  0
  8 12  2  0  0  0  0
 10 13  2  0  0  0  0
 11 14  1  0  0  0  0
 13 15  1  0  0  0  0
 16 18  1  0  0  0  0
 18 19  1  0  0  0  0
 19 20  1  0  0  0  0
M  END
> <PUBCHEM_COMPOUND_ID_TYPE>
0

> <PUBCHEM_TOTAL_CHARGE>
0

> <PUBCHEM_SUBSTANCE_ID>
310937101

> <PUBCHEM_SUBSTANCE_VERSION>
1

> <PUBCHEM_EXT_DATASOURCE_NAME>
4488

> <PUBCHEM_EXT_DATASOURCE_REGID>
SCHEMBL16114817

> <PUBCHEM_SUBSTANCE_COMMENT>
InChI=1S/C14H18BrNO4/c1-3-4-5-20-13(17)7-12(14(18)19-2)10-6-11(15)9-16-8-10/h6,8-9,12H,3-5,7H2,1-2H3
InChIKey=LTKDEIJBWACFSK-UHFFFAOYSA-N

> <PUBCHEM_SUBSTANCE_SYNONYM>
SCHEMBL16114817

> <PUBCHEM_XREF_EXT_ID>
SCHEMBL16114817

> <PUBCHEM_EXT_DATASOURCE_URL>
https://www.surechembl.org/

> <PUBCHEM_EXT_SUBSTANCE_URL>
https://www.surechembl.org/chemical/SCHEMBL16114817

> <PUBCHEM_CID_ASSOCIATIONS>
117604936  1

> <PUBCHEM_COORDINATE_TYPE>
1
3

$$$$
