310946869
  -OEChem-07211613022D

 35 39  0     1  0  0  0  0  0999 V2000
    1.9886   -1.9795    0.0000 S   0  0  0  0  0  0  0  0  0  0  0  0
    1.9338   -2.8005    0.0000 O   0  0  0  0  0  0  0  0  0  0  0  0
    2.8096   -2.1072    0.0000 O   0  0  0  0  0  0  0  0  0  0  0  0
   -3.0285   -1.9612    0.0000 O   0  0  0  0  0  0  0  0  0  0  0  0
   -2.0616    2.8005    0.0000 O   0  0  0  0  0  0  0  0  0  0  0  0
   -1.6237    0.5199    0.0000 N   0  0  0  0  0  0  0  0  0  0  0  0
    2.2075   -1.1768    0.0000 N   0  0  3  0  0  0  0  0  0  0  0  0
   -1.1129   -0.1186    0.0000 N   0  0  0  0  0  0  0  0  0  0  0  0
   -1.2771   -1.5963    0.0000 N   0  0  0  0  0  0  0  0  0  0  0  0
   -3.7948   -0.6477    0.0000 N   0  0  0  0  0  0  0  0  0  0  0  0
    0.7480    1.7788    0.0000 N   0  0  0  0  0  0  0  0  0  0  0  0
    1.1676   -1.9977    0.0000 C   0  0  0  0  0  0  0  0  0  0  0  0
   -2.3900    0.2463    0.0000 C   0  0  0  0  0  0  0  0  0  0  0  0
   -2.3717   -0.5930    0.0000 C   0  0  0  0  0  0  0  0  0  0  0  0
   -1.4048    1.3227    0.0000 C   0  0  0  0  0  0  0  0  0  0  0  0
    0.8757   -1.2315    0.0000 C   0  0  0  0  0  0  0  0  0  0  0  0
   -1.5873   -0.8119    0.0000 C   0  0  0  0  0  0  0  0  0  0  0  0
    1.5142   -0.7206    0.0000 C   0  0  0  0  0  0  0  0  0  0  0  0
    2.9920   -0.8666    0.0000 C   0  0  0  0  0  0  0  0  0  0  0  0
   -0.4744   -1.7241    0.0000 C   0  0  0  0  0  0  0  0  0  0  0  0
   -3.0467   -1.0125    0.0000 C   0  0  0  0  0  0  0  0  0  0  0  0
    0.0729   -1.1037    0.0000 C   0  0  0  0  0  0  0  0  0  0  0  0
    0.6568   -2.6181    0.0000 C   0  0  0  0  0  0  0  0  0  0  0  0
   -3.1380    0.6112    0.0000 C   0  0  0  0  0  0  0  0  0  0  0  0
   -0.1642   -2.4903    0.0000 C   0  0  0  0  0  0  0  0  0  0  0  0
   -2.2622    1.3957    0.0000 C   0  0  0  0  0  0  0  0  0  0  0  0
   -0.9122    1.9430    0.0000 C   0  0  0  0  0  0  0  0  0  0  0  0
   -0.6568    0.9396    0.0000 C   0  0  0  0  0  0  0  0  0  0  0  0
   -3.8130    0.1916    0.0000 C   0  0  0  0  0  0  0  0  0  0  0  0
    2.7366   -0.0821    0.0000 C   0  0  0  0  0  0  0  0  0  0  0  0
    3.8130   -0.6659    0.0000 C   0  0  0  0  0  0  0  0  0  0  0  0
    3.2657   -1.6876    0.0000 C   0  0  0  0  0  0  0  0  0  0  0  0
   -2.5724    2.1437    0.0000 C   0  0  0  0  0  0  0  0  0  0  0  0
   -1.2406    2.6910    0.0000 C   0  0  0  0  0  0  0  0  0  0  0  0
    0.0365    1.3774    0.0000 C   0  0  0  0  0  0  0  0  0  0  0  0
  1  2  2  0  0  0  0
  1  3  2  0  0  0  0
  1  7  1  0  0  0  0
  1 12  1  0  0  0  0
  4 21  2  0  0  0  0
  5 33  1  0  0  0  0
  5 34  1  0  0  0  0
  6  8  1  0  0  0  0
  6 13  1  0  0  0  0
  6 15  1  0  0  0  0
  7 18  1  0  0  0  0
  7 19  1  0  0  0  0
  8 17  2  0  0  0  0
  9 17  1  0  0  0  0
  9 20  1  0  0  0  0
 10 21  1  0  0  0  0
 10 29  1  0  0  0  0
 11 35  3  0  0  0  0
 12 16  1  0  0  0  0
 12 23  2  0  0  0  0
 13 14  2  0  0  0  0
 13 24  1  0  0  0  0
 14 17  1  0  0  0  0
 14 21  1  0  0  0  0
 15 26  1  0  0  0  0
 15 27  1  0  0  0  0
 15 28  1  0  0  0  0
 16 18  1  0  0  0  0
 16 22  2  0  0  0  0
 19 30  1  0  0  0  0
 19 31  1  0  0  0  0
 19 32  1  0  0  0  0
 20 22  1  0  0  0  0
 20 25  2  0  0  0  0
 23 25  1  0  0  0  0
 24 29  2  0  0  0  0
 26 33  1  0  0  0  0
 27 34  1  0  0  0  0
 28 35  1  0  0  0  0
M  END
> <PUBCHEM_COMPOUND_ID_TYPE>
0

> <PUBCHEM_TOTAL_CHARGE>
0

> <PUBCHEM_SUBSTANCE_ID>
310946869

> <PUBCHEM_SUBSTANCE_VERSION>
1

> <PUBCHEM_EXT_DATASOURCE_NAME>
4488

> <PUBCHEM_EXT_DATASOURCE_REGID>
SCHEMBL16124993

> <PUBCHEM_SUBSTANCE_COMMENT>
InChI=1S/C24H28N6O4S/c1-23(2,3)29-15-16-14-17(4-5-19(16)35(29,32)33)27-21-20-18(6-11-26-22(20)31)30(28-21)24(7-10-25)8-12-34-13-9-24/h4-6,11,14H,7-9,12-13,15H2,1-3H3,(H,26,31)(H,27,28)
InChIKey=BVOCKGYWTIFBJM-UHFFFAOYSA-N

> <PUBCHEM_SUBSTANCE_SYNONYM>
SCHEMBL16124993

> <PUBCHEM_XREF_EXT_ID>
SCHEMBL16124993

> <PUBCHEM_EXT_DATASOURCE_URL>
https://www.surechembl.org/

> <PUBCHEM_EXT_SUBSTANCE_URL>
https://www.surechembl.org/chemical/SCHEMBL16124993

> <PUBCHEM_CID_ASSOCIATIONS>
117612727  1

> <PUBCHEM_COORDINATE_TYPE>
1
3

$$$$
