310949537
  -OEChem-07211613022D

 28 31  0     1  0  0  0  0  0999 V2000
   -2.1039   -2.4626    0.0000 Cl  0  0  0  0  0  0  0  0  0  0  0  0
   -3.9266   -1.9390    0.0000 Cl  0  0  0  0  0  0  0  0  0  0  0  0
   -0.7077   -2.1524    0.0000 O   0  0  0  0  0  0  0  0  0  0  0  0
    1.4446    1.0083    0.0000 N   0  0  0  0  0  0  0  0  0  0  0  0
   -0.2618   -0.7756    0.0000 N   0  0  0  0  0  0  0  0  0  0  0  0
    0.1842    1.4155    0.0000 N   0  0  0  0  0  0  0  0  0  0  0  0
    0.9598    1.6870    0.0000 N   0  0  0  0  0  0  0  0  0  0  0  0
    2.6662    1.7258    0.0000 N   0  0  0  0  0  0  0  0  0  0  0  0
    2.6662    0.2908    0.0000 N   0  0  0  0  0  0  0  0  0  0  0  0
    0.9598    0.3102    0.0000 C   0  0  0  0  0  0  0  0  0  0  0  0
    0.1842    0.6011    0.0000 C   0  0  0  0  0  0  0  0  0  0  0  0
   -0.4363    0.0194    0.0000 C   0  0  3  0  0  0  0  0  0  0  0  0
    2.2590    1.0083    0.0000 C   0  0  0  0  0  0  0  0  0  0  0  0
   -0.8628   -1.3186    0.0000 C   0  0  0  0  0  0  0  0  0  0  0  0
    1.1343   -0.4460    0.0000 C   0  0  0  0  0  0  0  0  0  0  0  0
    0.5332   -1.0277    0.0000 C   0  0  0  0  0  0  0  0  0  0  0  0
   -1.6579   -1.0471    0.0000 C   0  0  0  0  0  0  0  0  0  0  0  0
   -2.2396   -1.6288    0.0000 C   0  0  0  0  0  0  0  0  0  0  0  0
   -1.2119    0.2715    0.0000 C   0  0  0  0  0  0  0  0  0  0  0  0
   -1.8324   -0.2715    0.0000 C   0  0  0  0  0  0  0  0  0  0  0  0
    3.4806    1.7258    0.0000 C   0  0  0  0  0  0  0  0  0  0  0  0
    3.5000    0.2715    0.0000 C   0  0  0  0  0  0  0  0  0  0  0  0
   -3.0347   -1.3380    0.0000 C   0  0  0  0  0  0  0  0  0  0  0  0
    3.9072    0.9889    0.0000 C   0  0  0  0  0  0  0  0  0  0  0  0
   -2.6080   -0.0194    0.0000 C   0  0  0  0  0  0  0  0  0  0  0  0
   -3.1898   -0.5623    0.0000 C   0  0  0  0  0  0  0  0  0  0  0  0
    3.9072    2.4626    0.0000 C   0  0  0  0  0  0  0  0  0  0  0  0
    3.9266   -0.4653    0.0000 C   0  0  0  0  0  0  0  0  0  0  0  0
  1 18  1  0  0  0  0
  2 23  1  0  0  0  0
  3 14  2  0  0  0  0
  4  7  1  0  0  0  0
  4 10  1  0  0  0  0
  4 13  1  0  0  0  0
  5 12  1  0  0  0  0
  5 14  1  0  0  0  0
  5 16  1  0  0  0  0
  6  7  1  0  0  0  0
  6 11  1  0  0  0  0
  8 13  1  0  0  0  0
  8 21  2  0  0  0  0
  9 13  2  0  0  0  0
  9 22  1  0  0  0  0
 10 11  2  0  0  0  0
 10 15  1  0  0  0  0
 11 12  1  0  0  0  0
 12 19  1  0  0  0  0
 14 17  1  0  0  0  0
 15 16  2  0  0  0  0
 17 18  1  0  0  0  0
 17 20  2  0  0  0  0
 18 23  2  0  0  0  0
 20 25  1  0  0  0  0
 21 24  1  0  0  0  0
 21 27  1  0  0  0  0
 22 24  2  0  0  0  0
 22 28  1  0  0  0  0
 23 26  1  0  0  0  0
 25 26  2  0  0  0  0
M  END
> <PUBCHEM_COMPOUND_ID_TYPE>
0

> <PUBCHEM_TOTAL_CHARGE>
0

> <PUBCHEM_SUBSTANCE_ID>
310949537

> <PUBCHEM_SUBSTANCE_VERSION>
1

> <PUBCHEM_EXT_DATASOURCE_NAME>
4488

> <PUBCHEM_EXT_DATASOURCE_REGID>
SCHEMBL16127732

> <PUBCHEM_SUBSTANCE_COMMENT>
InChI=1S/C19H18Cl2N6O/c1-10-9-11(2)23-19(22-10)27-15-7-8-26(12(3)17(15)24-25-27)18(28)13-5-4-6-14(20)16(13)21/h4-9,12,24-25H,1-3H3
InChIKey=RCHXTZWMBUKWQI-UHFFFAOYSA-N

> <PUBCHEM_SUBSTANCE_SYNONYM>
SCHEMBL16127732

> <PUBCHEM_XREF_EXT_ID>
SCHEMBL16127732

> <PUBCHEM_EXT_DATASOURCE_URL>
https://www.surechembl.org/

> <PUBCHEM_EXT_SUBSTANCE_URL>
https://www.surechembl.org/chemical/SCHEMBL16127732

> <PUBCHEM_CID_ASSOCIATIONS>
117614962  1

> <PUBCHEM_COORDINATE_TYPE>
1
3

$$$$
