310938184
  -OEChem-07211613022D

 38 43  0     1  0  0  0  0  0999 V2000
   -5.4300   -0.6794    0.0000 F   0  0  0  0  0  0  0  0  0  0  0  0
   -2.8343   -4.8340    0.0000 F   0  0  0  0  0  0  0  0  0  0  0  0
    0.8732    2.5321    0.0000 F   0  0  0  0  0  0  0  0  0  0  0  0
    1.9128    2.0024    0.0000 F   0  0  0  0  0  0  0  0  0  0  0  0
    0.3435    1.4925    0.0000 F   0  0  0  0  0  0  0  0  0  0  0  0
    0.8310    0.3498    0.0000 O   0  0  0  0  0  0  0  0  0  0  0  0
    2.1901    0.7913    0.0000 O   0  0  0  0  0  0  0  0  0  0  0  0
   -3.8410   -2.5730    0.0000 N   0  0  0  0  0  0  0  0  0  0  0  0
    0.1215   -2.3175    0.0000 N   0  0  0  0  0  0  0  0  0  0  0  0
   -3.2640   -0.9494    0.0000 N   0  0  0  0  0  0  0  0  0  0  0  0
    1.8930   -0.6064    0.0000 N   0  0  0  0  0  0  0  0  0  0  0  0
   -5.1105   -2.9855    0.0000 N   0  0  0  0  0  0  0  0  0  0  0  0
   -2.2021    0.0067    0.0000 N   0  0  0  0  0  0  0  0  0  0  0  0
   -3.5611    0.4483    0.0000 N   0  0  0  0  0  0  0  0  0  0  0  0
    0.5340   -1.0479    0.0000 C   0  0  0  0  0  0  0  0  0  0  0  0
   -0.2910   -1.0479    0.0000 C   0  0  0  0  0  0  0  0  0  0  0  0
    0.7889   -1.8326    0.0000 C   0  0  0  0  0  0  0  0  0  0  0  0
   -0.5460   -1.8326    0.0000 C   0  0  0  0  0  0  0  0  0  0  0  0
    1.0860   -0.4349    0.0000 C   0  0  3  0  0  0  0  0  0  0  0  0
   -4.3259   -1.9056    0.0000 C   0  0  0  0  0  0  0  0  0  0  0  0
   -4.0710   -1.1210    0.0000 C   0  0  0  0  0  0  0  0  0  0  0  0
   -0.8431   -0.4349    0.0000 C   0  0  0  0  0  0  0  0  0  0  0  0
   -4.3259   -3.2405    0.0000 C   0  0  0  0  0  0  0  0  0  0  0  0
   -1.6501   -0.6064    0.0000 C   0  0  0  0  0  0  0  0  0  0  0  0
   -1.3530   -2.0041    0.0000 C   0  0  0  0  0  0  0  0  0  0  0  0
    1.5959   -2.0041    0.0000 C   0  0  0  0  0  0  0  0  0  0  0  0
   -3.0091   -0.1648    0.0000 C   0  0  0  0  0  0  0  0  0  0  0  0
   -4.6230   -0.5079    0.0000 C   0  0  0  0  0  0  0  0  0  0  0  0
   -5.1105   -2.1605    0.0000 C   0  0  0  0  0  0  0  0  0  0  0  0
   -1.9050   -1.3910    0.0000 C   0  0  0  0  0  0  0  0  0  0  0  0
   -3.0205   -2.6593    0.0000 C   0  0  0  0  0  0  0  0  0  0  0  0
    2.1479   -1.3910    0.0000 C   0  0  0  0  0  0  0  0  0  0  0  0
   -3.9903   -3.9941    0.0000 C   0  0  0  0  0  0  0  0  0  0  0  0
    1.3831    0.9629    0.0000 C   0  0  0  0  0  0  0  0  0  0  0  0
   -4.3681    0.2768    0.0000 C   0  0  0  0  0  0  0  0  0  0  0  0
   -3.1699   -4.0804    0.0000 C   0  0  0  0  0  0  0  0  0  0  0  0
   -2.6849   -3.4129    0.0000 C   0  0  0  0  0  0  0  0  0  0  0  0
    1.1281    1.7475    0.0000 C   0  0  0  0  0  0  0  0  0  0  0  0
  1 28  1  0  0  0  0
  2 36  1  0  0  0  0
  3 38  1  0  0  0  0
  4 38  1  0  0  0  0
  5 38  1  0  0  0  0
  6 19  1  0  0  0  0
  6 34  1  0  0  0  0
  7 34  2  0  0  0  0
  8 20  1  0  0  0  0
  8 23  1  0  0  0  0
  8 31  1  0  0  0  0
  9 17  1  0  0  0  0
  9 18  1  0  0  0  0
 10 21  1  0  0  0  0
 10 27  2  0  0  0  0
 11 19  1  0  0  0  0
 11 32  1  0  0  0  0
 12 23  2  0  0  0  0
 12 29  1  0  0  0  0
 13 24  1  0  0  0  0
 13 27  1  0  0  0  0
 14 27  1  0  0  0  0
 14 35  2  0  0  0  0
 15 16  1  0  0  0  0
 15 17  2  0  0  0  0
 15 19  1  0  0  0  0
 16 18  1  0  0  0  0
 16 22  2  0  0  0  0
 17 26  1  0  0  0  0
 18 25  2  0  0  0  0
 20 21  1  0  0  0  0
 20 29  2  0  0  0  0
 21 28  2  0  0  0  0
 22 24  1  0  0  0  0
 23 33  1  0  0  0  0
 24 30  2  0  0  0  0
 25 30  1  0  0  0  0
 26 32  1  0  0  0  0
 28 35  1  0  0  0  0
 31 37  2  0  0  0  0
 33 36  2  0  0  0  0
 34 38  1  0  0  0  0
 36 37  1  0  0  0  0
M  END
> <PUBCHEM_COMPOUND_ID_TYPE>
0

> <PUBCHEM_TOTAL_CHARGE>
0

> <PUBCHEM_SUBSTANCE_ID>
310938184

> <PUBCHEM_SUBSTANCE_VERSION>
1

> <PUBCHEM_EXT_DATASOURCE_NAME>
4488

> <PUBCHEM_EXT_DATASOURCE_REGID>
SCHEMBL16116038

> <PUBCHEM_SUBSTANCE_COMMENT>
InChI=1S/C24H16F5N7O2/c25-11-4-6-36-17(10-31-18(36)7-11)20-14(26)9-32-23(35-20)33-12-1-2-15-13(8-12)19-16(34-15)3-5-30-21(19)38-22(37)24(27,28)29/h1-2,4,6-10,21,30,34H,3,5H2,(H,32,33,35)
InChIKey=AHNFQYGRHDDWBI-UHFFFAOYSA-N

> <PUBCHEM_SUBSTANCE_SYNONYM>
SCHEMBL16116038

> <PUBCHEM_XREF_EXT_ID>
SCHEMBL16116038

> <PUBCHEM_EXT_DATASOURCE_URL>
https://www.surechembl.org/

> <PUBCHEM_EXT_SUBSTANCE_URL>
https://www.surechembl.org/chemical/SCHEMBL16116038

> <PUBCHEM_CID_ASSOCIATIONS>
117605723  1

> <PUBCHEM_COORDINATE_TYPE>
1
3

$$$$
