310938642
  -OEChem-07211613022D

 37 41  0     1  0  0  0  0  0999 V2000
   -1.7634    7.6613    0.0000 Cl  0  0  0  0  0  0  0  0  0  0  0  0
   -0.9384    6.8363    0.0000 F   0  0  0  0  0  0  0  0  0  0  0  0
   -2.5884    6.8363    0.0000 F   0  0  0  0  0  0  0  0  0  0  0  0
   -3.4473    3.5767    0.0000 O   0  0  0  0  0  0  0  0  0  0  0  0
    1.4581    5.9008    0.0000 O   0  0  0  0  0  0  0  0  0  0  0  0
    3.1379    6.5195    0.0000 O   0  0  0  0  0  0  0  0  0  0  0  0
    1.7576    6.1497    0.0000 O   0  0  0  0  0  0  0  0  0  0  0  0
   -1.0489    5.5988    0.0000 N   0  0  0  0  0  0  0  0  0  0  0  0
   -0.2643    5.8537    0.0000 N   0  0  0  0  0  0  0  0  0  0  0  0
   -1.7634    4.3613    0.0000 N   0  0  0  0  0  0  0  0  0  0  0  0
    2.7680    3.8044    0.0000 N   0  0  0  0  0  0  0  0  0  0  0  0
    1.4581    4.4718    0.0000 N   0  0  0  0  0  0  0  0  0  0  0  0
    3.5526    4.0593    0.0000 N   0  0  0  0  0  0  0  0  0  0  0  0
   -1.7634    6.0113    0.0000 C   0  0  0  0  0  0  0  0  0  0  0  0
   -1.0489    4.7738    0.0000 C   0  0  0  0  0  0  0  0  0  0  0  0
    0.2206    5.1863    0.0000 C   0  0  3  0  0  0  0  0  0  0  0  0
   -2.4779    4.7738    0.0000 C   0  0  0  0  0  0  0  0  0  0  0  0
   -1.7634    6.8363    0.0000 C   0  0  0  0  0  0  0  0  0  0  0  0
   -0.2643    4.5189    0.0000 C   0  0  0  0  0  0  0  0  0  0  0  0
   -2.4779    5.5988    0.0000 C   0  0  0  0  0  0  0  0  0  0  0  0
    2.2831    4.4718    0.0000 C   0  0  0  0  0  0  0  0  0  0  0  0
    1.0456    5.1863    0.0000 C   0  0  0  0  0  0  0  0  0  0  0  0
    2.7680    5.1393    0.0000 C   0  0  0  0  0  0  0  0  0  0  0  0
   -3.1924    4.3613    0.0000 C   0  0  0  0  0  0  0  0  0  0  0  0
    2.3555    3.0899    0.0000 C   0  0  0  0  0  0  0  0  0  0  0  0
    3.5526    4.8843    0.0000 C   0  0  0  0  0  0  0  0  0  0  0  0
    2.5545    5.9362    0.0000 C   0  0  0  0  0  0  0  0  0  0  0  0
   -3.8598    4.8462    0.0000 C   0  0  0  0  0  0  0  0  0  0  0  0
    1.5305    3.0899    0.0000 C   0  0  0  0  0  0  0  0  0  0  0  0
    2.7680    2.3754    0.0000 C   0  0  0  0  0  0  0  0  0  0  0  0
   -4.2723    3.5767    0.0000 C   0  0  0  0  0  0  0  0  0  0  0  0
   -4.5272    4.3613    0.0000 C   0  0  0  0  0  0  0  0  0  0  0  0
    1.1180    2.3754    0.0000 C   0  0  0  0  0  0  0  0  0  0  0  0
    2.3555    1.6610    0.0000 C   0  0  0  0  0  0  0  0  0  0  0  0
    1.5305    1.6610    0.0000 C   0  0  0  0  0  0  0  0  0  0  0  0
    3.9348    6.3060    0.0000 C   0  0  0  0  0  0  0  0  0  0  0  0
    4.5181    6.8894    0.0000 C   0  0  0  0  0  0  0  0  0  0  0  0
  1 18  1  0  0  0  0
  2 18  1  0  0  0  0
  3 18  1  0  0  0  0
  4 24  1  0  0  0  0
  4 31  1  0  0  0  0
  5 22  2  0  0  0  0
  6 27  1  0  0  0  0
  6 36  1  0  0  0  0
  7 27  2  0  0  0  0
  8  9  1  0  0  0  0
  8 14  1  0  0  0  0
  8 15  1  0  0  0  0
  9 16  1  0  0  0  0
 10 15  1  0  0  0  0
 10 17  2  0  0  0  0
 11 13  1  0  0  0  0
 11 21  1  0  0  0  0
 11 25  1  0  0  0  0
 12 21  1  0  0  0  0
 12 22  1  0  0  0  0
 13 26  2  0  0  0  0
 14 18  1  0  0  0  0
 14 20  2  0  0  0  0
 15 19  2  0  0  0  0
 16 19  1  0  0  0  0
 16 22  1  0  0  0  0
 17 20  1  0  0  0  0
 17 24  1  0  0  0  0
 21 23  2  0  0  0  0
 23 26  1  0  0  0  0
 23 27  1  0  0  0  0
 24 28  2  0  0  0  0
 25 29  2  0  0  0  0
 25 30  1  0  0  0  0
 28 32  1  0  0  0  0
 29 33  1  0  0  0  0
 30 34  2  0  0  0  0
 31 32  2  0  0  0  0
 33 35  2  0  0  0  0
 34 35  1  0  0  0  0
 36 37  1  0  0  0  0
M  END
> <PUBCHEM_COMPOUND_ID_TYPE>
0

> <PUBCHEM_TOTAL_CHARGE>
0

> <PUBCHEM_SUBSTANCE_ID>
310938642

> <PUBCHEM_SUBSTANCE_VERSION>
1

> <PUBCHEM_EXT_DATASOURCE_NAME>
4488

> <PUBCHEM_EXT_DATASOURCE_REGID>
SCHEMBL16116556

> <PUBCHEM_SUBSTANCE_COMMENT>
InChI=1S/C24H19ClF2N6O4/c1-2-36-23(35)15-13-28-32(14-7-4-3-5-8-14)21(15)30-22(34)17-12-20-29-16(18-9-6-10-37-18)11-19(24(25,26)27)33(20)31-17/h3-13,17,31H,2H2,1H3,(H,30,34)
InChIKey=FAZZDSPMERSBKQ-UHFFFAOYSA-N

> <PUBCHEM_SUBSTANCE_SYNONYM>
SCHEMBL16116556

> <PUBCHEM_XREF_EXT_ID>
SCHEMBL16116556

> <PUBCHEM_EXT_DATASOURCE_URL>
https://www.surechembl.org/

> <PUBCHEM_EXT_SUBSTANCE_URL>
https://www.surechembl.org/chemical/SCHEMBL16116556

> <PUBCHEM_CID_ASSOCIATIONS>
117606074  1

> <PUBCHEM_COORDINATE_TYPE>
1
3

$$$$
