310939433
  -OEChem-07211613022D

 26 27  0     1  0  0  0  0  0999 V2000
   -1.1298   10.2108    0.0000 S   0  0  0  0  0  0  0  0  0  0  0  0
   -1.6148    8.7184    0.0000 S   0  0  0  0  0  0  0  0  0  0  0  0
   -1.6148   11.7032    0.0000 S   0  0  0  0  0  0  0  0  0  0  0  0
   -1.6148   14.1782    0.0000 O   0  0  0  0  0  0  0  0  0  0  0  0
   -3.0437   14.1782    0.0000 O   0  0  0  0  0  0  0  0  0  0  0  0
   -2.3994    9.7983    0.0000 N   0  0  0  0  0  0  0  0  0  0  0  0
   -2.3994   10.6233    0.0000 N   0  0  0  0  0  0  0  0  0  0  0  0
   -1.6148    9.5434    0.0000 C   0  0  0  0  0  0  0  0  0  0  0  0
   -1.6148   10.8782    0.0000 C   0  0  0  0  0  0  0  0  0  0  0  0
   -0.9003    7.4809    0.0000 C   0  0  0  0  0  0  0  0  0  0  0  0
   -0.9003    8.3059    0.0000 C   0  0  0  0  0  0  0  0  0  0  0  0
   -0.1858    7.0684    0.0000 C   0  0  0  0  0  0  0  0  0  0  0  0
   -1.6148    7.0684    0.0000 C   0  0  0  0  0  0  0  0  0  0  0  0
   -0.9003    5.8309    0.0000 C   0  0  0  0  0  0  0  0  0  0  0  0
   -0.1858    6.2434    0.0000 C   0  0  0  0  0  0  0  0  0  0  0  0
   -1.6148    6.2434    0.0000 C   0  0  0  0  0  0  0  0  0  0  0  0
   -0.9003   12.1157    0.0000 C   0  0  0  0  0  0  0  0  0  0  0  0
   -0.9003   12.9407    0.0000 C   0  0  0  0  0  0  0  0  0  0  0  0
   -2.3292   14.5907    0.0000 C   0  0  0  0  0  0  0  0  0  0  0  0
   -0.9003    5.0059    0.0000 C   0  0  0  0  0  0  0  0  0  0  0  0
   -2.3307   15.4157    0.0000 C   0  0  3  0  0  0  0  0  0  0  0  0
   -1.6148   13.3532    0.0000 C   0  0  0  0  0  0  0  0  0  0  0  0
   -3.4072   15.4157    0.0000 C   0  0  0  0  0  0  0  0  0  0  0  0
   -1.1575   15.4157    0.0000 C   0  0  0  0  0  0  0  0  0  0  0  0
   -0.1858    4.5934    0.0000 C   0  0  0  0  0  0  0  0  0  0  0  0
   -4.2322   15.4157    0.0000 C   0  0  0  0  0  0  0  0  0  0  0  0
  1  8  1  0  0  0  0
  1  9  1  0  0  0  0
  2  8  1  0  0  0  0
  2 11  1  0  0  0  0
  3  9  1  0  0  0  0
  3 17  1  0  0  0  0
  4 19  1  0  0  0  0
  4 22  1  0  0  0  0
  5 19  2  0  0  0  0
  6  7  1  0  0  0  0
  6  8  2  0  0  0  0
  7  9  2  0  0  0  0
 10 11  1  0  0  0  0
 10 12  2  0  0  0  0
 10 13  1  0  0  0  0
 12 15  1  0  0  0  0
 13 16  2  0  0  0  0
 14 15  2  0  0  0  0
 14 16  1  0  0  0  0
 14 20  1  0  0  0  0
 17 18  1  0  0  0  0
 18 22  1  0  0  0  0
 19 21  1  0  0  0  0
 20 25  2  0  0  0  0
 21 23  1  0  0  0  0
 21 24  1  0  0  0  0
 23 26  1  0  0  0  0
M  END
> <PUBCHEM_COMPOUND_ID_TYPE>
0

> <PUBCHEM_TOTAL_CHARGE>
0

> <PUBCHEM_SUBSTANCE_ID>
310939433

> <PUBCHEM_SUBSTANCE_VERSION>
1

> <PUBCHEM_EXT_DATASOURCE_NAME>
4488

> <PUBCHEM_EXT_DATASOURCE_REGID>
SCHEMBL16117355

> <PUBCHEM_SUBSTANCE_COMMENT>
InChI=1S/C19H24N2O2S3/c1-4-14(3)17(22)23-11-6-12-24-18-20-21-19(26-18)25-13-16-9-7-15(5-2)8-10-16/h5,7-10,14H,2,4,6,11-13H2,1,3H3
InChIKey=ZBMKHUCQKBDSAZ-UHFFFAOYSA-N

> <PUBCHEM_SUBSTANCE_SYNONYM>
SCHEMBL16117355

> <PUBCHEM_XREF_EXT_ID>
SCHEMBL16117355

> <PUBCHEM_EXT_DATASOURCE_URL>
https://www.surechembl.org/

> <PUBCHEM_EXT_SUBSTANCE_URL>
https://www.surechembl.org/chemical/SCHEMBL16117355

> <PUBCHEM_CID_ASSOCIATIONS>
117606757  1

> <PUBCHEM_COORDINATE_TYPE>
1
3

$$$$
