310946758
  -OEChem-07211613022D

 19 21  0     1  0  0  0  0  0999 V2000
   -1.6261   -0.0787    0.0000 N   0  0  0  0  0  0  0  0  0  0  0  0
    0.5173   -1.3162    0.0000 N   0  0  0  0  0  0  0  0  0  0  0  0
   -2.4108    1.0013    0.0000 N   0  0  0  0  0  0  0  0  0  0  0  0
    1.3019   -1.5711    0.0000 N   0  0  0  0  0  0  0  0  0  0  0  0
    2.3123    0.7742    0.0000 N   0  0  3  0  0  0  0  0  0  0  0  0
    2.6822   -0.6060    0.0000 N   0  0  0  0  0  0  0  0  0  0  0  0
    0.5173   -0.4912    0.0000 C   0  0  0  0  0  0  0  0  0  0  0  0
   -0.1972   -0.0787    0.0000 C   0  0  0  0  0  0  0  0  0  0  0  0
    1.3019   -0.2362    0.0000 C   0  0  0  0  0  0  0  0  0  0  0  0
   -1.6261    0.7463    0.0000 C   0  0  0  0  0  0  0  0  0  0  0  0
   -0.9117   -0.4912    0.0000 C   0  0  0  0  0  0  0  0  0  0  0  0
   -0.1972    0.7463    0.0000 C   0  0  0  0  0  0  0  0  0  0  0  0
   -0.9117    1.1588    0.0000 C   0  0  0  0  0  0  0  0  0  0  0  0
    1.7868   -0.9037    0.0000 C   0  0  0  0  0  0  0  0  0  0  0  0
   -2.4108   -0.3336    0.0000 C   0  0  0  0  0  0  0  0  0  0  0  0
    1.5154    0.5607    0.0000 C   0  0  0  0  0  0  0  0  0  0  0  0
   -2.8957    0.3338    0.0000 C   0  0  0  0  0  0  0  0  0  0  0  0
    2.8957    0.1908    0.0000 C   0  0  0  0  0  0  0  0  0  0  0  0
    2.5258    1.5711    0.0000 C   0  0  0  0  0  0  0  0  0  0  0  0
  1 10  1  0  0  0  0
  1 11  1  0  0  0  0
  1 15  1  0  0  0  0
  2  4  1  0  0  0  0
  2  7  2  0  0  0  0
  3 10  2  0  0  0  0
  3 17  1  0  0  0  0
  4 14  1  0  0  0  0
  5 16  1  0  0  0  0
  5 18  1  0  0  0  0
  5 19  1  0  0  0  0
  6 18  1  0  0  0  0
  7  8  1  0  0  0  0
  7  9  1  0  0  0  0
  8 11  2  0  0  0  0
  8 12  1  0  0  0  0
  9 14  2  0  0  0  0
  9 16  1  0  0  0  0
 10 13  1  0  0  0  0
 12 13  2  0  0  0  0
 15 17  2  0  0  0  0
M  END
> <PUBCHEM_COMPOUND_ID_TYPE>
0

> <PUBCHEM_TOTAL_CHARGE>
0

> <PUBCHEM_SUBSTANCE_ID>
310946758

> <PUBCHEM_SUBSTANCE_VERSION>
1

> <PUBCHEM_EXT_DATASOURCE_NAME>
4488

> <PUBCHEM_EXT_DATASOURCE_REGID>
SCHEMBL16124882

> <PUBCHEM_SUBSTANCE_COMMENT>
InChI=1S/C13H16N6/c1-18(9-14)7-11-6-16-17-13(11)10-2-3-12-15-4-5-19(12)8-10/h2-6,8H,7,9,14H2,1H3,(H,16,17)
InChIKey=FCLUVJOGXBNHQQ-UHFFFAOYSA-N

> <PUBCHEM_SUBSTANCE_SYNONYM>
SCHEMBL16124882

> <PUBCHEM_XREF_EXT_ID>
SCHEMBL16124882

> <PUBCHEM_EXT_DATASOURCE_URL>
https://www.surechembl.org/

> <PUBCHEM_EXT_SUBSTANCE_URL>
https://www.surechembl.org/chemical/SCHEMBL16124882

> <PUBCHEM_CID_ASSOCIATIONS>
117612632  1

> <PUBCHEM_COORDINATE_TYPE>
1
3

$$$$
