310948360
  -OEChem-07211613022D

 17 18  0     1  0  0  0  0  0999 V2000
   -0.0343    2.5974    0.0000 Br  0  0  0  0  0  0  0  0  0  0  0  0
    0.5016   -1.2781    0.0000 N   0  0  0  0  0  0  0  0  0  0  0  0
    1.3399   -1.2918    0.0000 N   0  0  0  0  0  0  0  0  0  0  0  0
    0.1580   -2.0201    0.0000 N   0  0  0  0  0  0  0  0  0  0  0  0
   -0.1030   -0.6871    0.0000 C   0  0  3  0  0  0  0  0  0  0  0  0
   -0.0756    0.1374    0.0000 C   0  0  0  0  0  0  0  0  0  0  0  0
    0.6253    0.5360    0.0000 C   0  0  0  0  0  0  0  0  0  0  0  0
   -0.7902   -1.0994    0.0000 C   0  0  0  0  0  0  0  0  0  0  0  0
   -0.7902    0.5497    0.0000 C   0  0  0  0  0  0  0  0  0  0  0  0
    0.6390    1.3330    0.0000 C   0  0  0  0  0  0  0  0  0  0  0  0
   -0.0206    1.7728    0.0000 C   0  0  0  0  0  0  0  0  0  0  0  0
   -0.7902    1.3742    0.0000 C   0  0  0  0  0  0  0  0  0  0  0  0
    1.5185   -2.1575    0.0000 C   0  0  0  0  0  0  0  0  0  0  0  0
    0.8176   -2.5974    0.0000 C   0  0  0  0  0  0  0  0  0  0  0  0
    1.3536    0.0962    0.0000 C   0  0  0  0  0  0  0  0  0  0  0  0
   -1.5185   -0.6596    0.0000 C   0  0  0  0  0  0  0  0  0  0  0  0
   -0.8314   -1.9240    0.0000 C   0  0  0  0  0  0  0  0  0  0  0  0
  1 11  1  0  0  0  0
  2  3  1  0  0  0  0
  2  4  1  0  0  0  0
  2  5  1  0  0  0  0
  3 13  2  0  0  0  0
  4 14  2  0  0  0  0
  5  6  1  0  0  0  0
  5  8  1  0  0  0  0
  6  7  1  0  0  0  0
  6  9  2  0  0  0  0
  7 10  2  0  0  0  0
  7 15  1  0  0  0  0
  8 16  1  0  0  0  0
  8 17  1  0  0  0  0
  9 12  1  0  0  0  0
 10 11  1  0  0  0  0
 11 12  2  0  0  0  0
 13 14  1  0  0  0  0
M  END
> <PUBCHEM_COMPOUND_ID_TYPE>
0

> <PUBCHEM_TOTAL_CHARGE>
0

> <PUBCHEM_SUBSTANCE_ID>
310948360

> <PUBCHEM_SUBSTANCE_VERSION>
1

> <PUBCHEM_EXT_DATASOURCE_NAME>
4488

> <PUBCHEM_EXT_DATASOURCE_REGID>
SCHEMBL16126538

> <PUBCHEM_SUBSTANCE_COMMENT>
InChI=1S/C13H16BrN3/c1-9(2)13(17-15-6-7-16-17)12-5-4-11(14)8-10(12)3/h4-9,13H,1-3H3
InChIKey=YFHRMTMLPGUHOJ-UHFFFAOYSA-N

> <PUBCHEM_SUBSTANCE_SYNONYM>
SCHEMBL16126538

> <PUBCHEM_XREF_EXT_ID>
SCHEMBL16126538

> <PUBCHEM_EXT_DATASOURCE_URL>
https://www.surechembl.org/

> <PUBCHEM_EXT_SUBSTANCE_URL>
https://www.surechembl.org/chemical/SCHEMBL16126538

> <PUBCHEM_CID_ASSOCIATIONS>
117613924  1

> <PUBCHEM_COORDINATE_TYPE>
1
3

$$$$
