310930844
  -OEChem-07211613022D

 24 27  0     1  0  0  0  0  0999 V2000
    1.1068   -6.6077    0.0000 F   0  0  0  0  0  0  0  0  0  0  0  0
    2.7504   -6.7083    0.0000 F   0  0  0  0  0  0  0  0  0  0  0  0
    0.2348   -2.7169    0.0000 O   0  0  0  0  0  0  0  0  0  0  0  0
    1.6770    0.0000    0.0000 O   0  0  0  0  0  0  0  0  0  0  0  0
    1.6770   -2.4820    0.0000 N   0  0  0  0  0  0  0  0  0  0  0  0
    2.0795   -3.7566    0.0000 N   0  0  0  0  0  0  0  0  0  0  0  0
    3.1194   -2.7169    0.0000 N   0  0  0  0  0  0  0  0  0  0  0  0
    1.2410   -3.7566    0.0000 C   0  0  3  0  0  0  0  0  0  0  0  0
    1.0063   -2.9852    0.0000 C   0  0  0  0  0  0  0  0  0  0  0  0
    0.7715   -4.4275    0.0000 C   0  0  0  0  0  0  0  0  0  0  0  0
    1.6100   -4.4946    0.0000 C   0  0  0  0  0  0  0  0  0  0  0  0
    2.3479   -2.9852    0.0000 C   0  0  0  0  0  0  0  0  0  0  0  0
    0.6708   -5.2325    0.0000 C   0  0  0  0  0  0  0  0  0  0  0  0
    0.0000   -4.7628    0.0000 C   0  0  0  0  0  0  0  0  0  0  0  0
    1.6770   -1.6770    0.0000 C   0  0  0  0  0  0  0  0  0  0  0  0
    1.1740   -5.1989    0.0000 C   0  0  0  0  0  0  0  0  0  0  0  0
    2.4485   -4.5616    0.0000 C   0  0  0  0  0  0  0  0  0  0  0  0
    1.5429   -5.9368    0.0000 C   0  0  0  0  0  0  0  0  0  0  0  0
    2.3815   -5.9704    0.0000 C   0  0  0  0  0  0  0  0  0  0  0  0
    2.8175   -5.2660    0.0000 C   0  0  0  0  0  0  0  0  0  0  0  0
    2.3815   -1.2410    0.0000 C   0  0  0  0  0  0  0  0  0  0  0  0
    0.9727   -1.2410    0.0000 C   0  0  0  0  0  0  0  0  0  0  0  0
    2.3815   -0.4361    0.0000 C   0  0  0  0  0  0  0  0  0  0  0  0
    0.9727   -0.4361    0.0000 C   0  0  0  0  0  0  0  0  0  0  0  0
  1 18  1  0  0  0  0
  2 19  1  0  0  0  0
  3  9  2  0  0  0  0
  4 23  1  0  0  0  0
  4 24  1  0  0  0  0
  5  9  1  0  0  0  0
  5 12  1  0  0  0  0
  5 15  1  0  0  0  0
  6  8  1  0  0  0  0
  6 12  1  0  0  0  0
  7 12  2  3  0  0  0
  8  9  1  0  0  0  0
  8 10  1  0  0  0  0
  8 11  1  0  0  0  0
 10 13  1  0  0  0  0
 10 14  1  0  0  0  0
 11 16  1  0  0  0  0
 11 17  2  0  0  0  0
 13 14  1  0  0  0  0
 15 21  1  0  0  0  0
 15 22  1  0  0  0  0
 16 18  2  0  0  0  0
 17 20  1  0  0  0  0
 18 19  1  0  0  0  0
 19 20  2  0  0  0  0
 21 23  1  0  0  0  0
 22 24  1  0  0  0  0
M  END
> <PUBCHEM_COMPOUND_ID_TYPE>
0

> <PUBCHEM_TOTAL_CHARGE>
0

> <PUBCHEM_SUBSTANCE_ID>
310930844

> <PUBCHEM_SUBSTANCE_VERSION>
1

> <PUBCHEM_EXT_DATASOURCE_NAME>
4488

> <PUBCHEM_EXT_DATASOURCE_REGID>
SCHEMBL16108141

> <PUBCHEM_SUBSTANCE_COMMENT>
InChI=1S/C17H19F2N3O2/c18-13-4-3-11(9-14(13)19)17(10-1-2-10)15(23)22(16(20)21-17)12-5-7-24-8-6-12/h3-4,9-10,12H,1-2,5-8H2,(H2,20,21)
InChIKey=NBYSMRWRWNBJDQ-UHFFFAOYSA-N

> <PUBCHEM_SUBSTANCE_SYNONYM>
SCHEMBL16108141

> <PUBCHEM_XREF_EXT_ID>
SCHEMBL16108141

> <PUBCHEM_EXT_DATASOURCE_URL>
https://www.surechembl.org/

> <PUBCHEM_EXT_SUBSTANCE_URL>
https://www.surechembl.org/chemical/SCHEMBL16108141

> <PUBCHEM_CID_ASSOCIATIONS>
117599838  1

> <PUBCHEM_COORDINATE_TYPE>
1
3

$$$$
