310949626
  -OEChem-07211613022D

 26 28  0     1  0  0  0  0  0999 V2000
    2.8072    1.8308    0.0000 O   0  0  0  0  0  0  0  0  0  0  0  0
    1.4850   -1.8308    0.0000 O   0  0  0  0  0  0  0  0  0  0  0  0
   -1.3832   -1.0374    0.0000 O   0  0  0  0  0  0  0  0  0  0  0  0
    2.2987    0.2441    0.0000 N   0  0  3  0  0  0  0  0  0  0  0  0
    2.9699   -0.9154    0.0000 N   0  0  0  0  0  0  0  0  0  0  0  0
    3.5395   -0.3051    0.0000 N   0  0  0  0  0  0  0  0  0  0  0  0
    0.7730   -0.5899    0.0000 N   0  0  0  0  0  0  0  0  0  0  0  0
    2.1969   -0.5899    0.0000 C   0  0  3  0  0  0  0  0  0  0  0  0
    3.0717    0.4068    0.0000 C   0  0  3  0  0  0  0  0  0  0  0  0
    1.4850   -0.9968    0.0000 C   0  0  0  0  0  0  0  0  0  0  0  0
    1.7494    0.8340    0.0000 C   0  0  0  0  0  0  0  0  0  0  0  0
    3.3767    1.2002    0.0000 C   0  0  0  0  0  0  0  0  0  0  0  0
   -2.0952    0.1831    0.0000 C   0  0  0  0  0  0  0  0  0  0  0  0
   -2.1155   -0.6103    0.0000 C   0  0  0  0  0  0  0  0  0  0  0  0
   -1.3629    0.6509    0.0000 C   0  0  0  0  0  0  0  0  0  0  0  0
    1.9935    1.6273    0.0000 C   0  0  0  0  0  0  0  0  0  0  0  0
    0.0610   -1.0171    0.0000 C   0  0  0  0  0  0  0  0  0  0  0  0
   -2.8072    0.6103    0.0000 C   0  0  0  0  0  0  0  0  0  0  0  0
   -2.8072   -1.0374    0.0000 C   0  0  0  0  0  0  0  0  0  0  0  0
   -0.6713   -0.6103    0.0000 C   0  0  0  0  0  0  0  0  0  0  0  0
    0.7933    0.2441    0.0000 C   0  0  0  0  0  0  0  0  0  0  0  0
   -3.5395    0.1831    0.0000 C   0  0  0  0  0  0  0  0  0  0  0  0
   -3.5192   -0.6306    0.0000 C   0  0  0  0  0  0  0  0  0  0  0  0
   -1.3629    1.4443    0.0000 C   0  0  0  0  0  0  0  0  0  0  0  0
   -0.6713    1.0578    0.0000 C   0  0  0  0  0  0  0  0  0  0  0  0
   -0.6509    0.2441    0.0000 C   0  0  0  0  0  0  0  0  0  0  0  0
  1 12  1  0  0  0  0
  1 16  1  0  0  0  0
  2 10  2  0  0  0  0
  3 14  1  0  0  0  0
  3 20  1  0  0  0  0
  4  8  1  0  0  0  0
  4  9  1  0  0  0  0
  4 11  1  0  0  0  0
  5  6  1  0  0  0  0
  5  8  1  0  0  0  0
  6  9  1  0  0  0  0
  7 10  1  0  0  0  0
  7 17  1  0  0  0  0
  7 21  1  0  0  0  0
  8 10  1  0  0  0  0
  9 12  1  0  0  0  0
 11 16  1  0  0  0  0
 13 14  1  0  0  0  0
 13 15  1  0  0  0  0
 13 18  2  0  0  0  0
 14 19  2  0  0  0  0
 15 24  1  0  0  0  0
 15 25  1  0  0  0  0
 15 26  1  0  0  0  0
 17 20  1  0  0  0  0
 18 22  1  0  0  0  0
 19 23  1  0  0  0  0
 22 23  2  0  0  0  0
M  END
> <PUBCHEM_COMPOUND_ID_TYPE>
0

> <PUBCHEM_TOTAL_CHARGE>
0

> <PUBCHEM_SUBSTANCE_ID>
310949626

> <PUBCHEM_SUBSTANCE_VERSION>
1

> <PUBCHEM_EXT_DATASOURCE_NAME>
4488

> <PUBCHEM_EXT_DATASOURCE_REGID>
SCHEMBL16127824

> <PUBCHEM_SUBSTANCE_COMMENT>
InChI=1S/C19H30N4O3/c1-19(2,3)14-7-5-6-8-15(14)26-12-9-22(4)18(24)17-21-20-16-13-25-11-10-23(16)17/h5-8,16-17,20-21H,9-13H2,1-4H3
InChIKey=FRFXRDFDSNFQNG-UHFFFAOYSA-N

> <PUBCHEM_SUBSTANCE_SYNONYM>
SCHEMBL16127824

> <PUBCHEM_XREF_EXT_ID>
SCHEMBL16127824

> <PUBCHEM_EXT_DATASOURCE_URL>
https://www.surechembl.org/

> <PUBCHEM_EXT_SUBSTANCE_URL>
https://www.surechembl.org/chemical/SCHEMBL16127824

> <PUBCHEM_CID_ASSOCIATIONS>
117615013  1

> <PUBCHEM_COORDINATE_TYPE>
1
3

$$$$
