310933932
  -OEChem-07211613022D

 41 46  0     1  0  0  0  0  0999 V2000
    4.3320    3.1611    0.0000 Cl  0  0  0  0  0  0  0  0  0  0  0  0
   11.4767   -1.7889    0.0000 F   0  0  0  0  0  0  0  0  0  0  0  0
    7.9043    1.0986    0.0000 O   0  0  0  0  0  0  0  0  0  0  0  0
    7.1898   -0.1389    0.0000 N   0  0  0  0  0  0  0  0  0  0  0  0
    4.3320   -0.1389    0.0000 N   0  0  0  0  0  0  0  0  0  0  0  0
    7.2369   -1.8613    0.0000 N   0  0  0  0  0  0  0  0  0  0  0  0
    8.5717   -1.8613    0.0000 N   0  0  0  0  0  0  0  0  0  0  0  0
    3.6645   -0.6238    0.0000 N   0  0  0  0  0  0  0  0  0  0  0  0
    3.9195   -1.4084    0.0000 N   0  0  0  0  0  0  0  0  0  0  0  0
    4.7445   -1.4084    0.0000 N   0  0  0  0  0  0  0  0  0  0  0  0
    6.8575   -4.7345    0.0000 N   0  0  0  0  0  0  0  0  0  0  0  0
    4.0605   -3.7221    0.0000 N   0  0  0  0  0  0  0  0  0  0  0  0
    7.9043   -0.5514    0.0000 C   0  0  3  0  0  0  0  0  0  0  0  0
    5.0464    1.0986    0.0000 C   0  0  0  0  0  0  0  0  0  0  0  0
    5.7609    0.6861    0.0000 C   0  0  0  0  0  0  0  0  0  0  0  0
    7.9043   -1.3764    0.0000 C   0  0  0  0  0  0  0  0  0  0  0  0
    4.3320    0.6861    0.0000 C   0  0  0  0  0  0  0  0  0  0  0  0
    7.1898    0.6861    0.0000 C   0  0  0  0  0  0  0  0  0  0  0  0
    6.4754    1.0986    0.0000 C   0  0  0  0  0  0  0  0  0  0  0  0
    6.4754   -0.5514    0.0000 C   0  0  0  0  0  0  0  0  0  0  0  0
    7.4918   -2.6459    0.0000 C   0  0  0  0  0  0  0  0  0  0  0  0
    5.7609   -0.1389    0.0000 C   0  0  0  0  0  0  0  0  0  0  0  0
    5.0464    1.9236    0.0000 C   0  0  0  0  0  0  0  0  0  0  0  0
    8.6188   -0.1389    0.0000 C   0  0  0  0  0  0  0  0  0  0  0  0
    7.0069   -3.3134    0.0000 C   0  0  0  0  0  0  0  0  0  0  0  0
    3.6175    1.0986    0.0000 C   0  0  0  0  0  0  0  0  0  0  0  0
    8.3168   -2.6459    0.0000 C   0  0  0  0  0  0  0  0  0  0  0  0
    4.3320    2.3361    0.0000 C   0  0  0  0  0  0  0  0  0  0  0  0
    9.3332   -0.5514    0.0000 C   0  0  0  0  0  0  0  0  0  0  0  0
    3.6175    1.9236    0.0000 C   0  0  0  0  0  0  0  0  0  0  0  0
    4.9994   -0.6238    0.0000 C   0  0  0  0  0  0  0  0  0  0  0  0
    6.1864   -3.2271    0.0000 C   0  0  0  0  0  0  0  0  0  0  0  0
    7.3424   -4.0670    0.0000 C   0  0  0  0  0  0  0  0  0  0  0  0
    5.7015   -3.8946    0.0000 C   0  0  0  0  0  0  0  0  0  0  0  0
    9.3332   -1.3764    0.0000 C   0  0  0  0  0  0  0  0  0  0  0  0
   10.0477   -0.1389    0.0000 C   0  0  0  0  0  0  0  0  0  0  0  0
    6.0370   -4.6482    0.0000 C   0  0  0  0  0  0  0  0  0  0  0  0
   10.0477   -1.7889    0.0000 C   0  0  0  0  0  0  0  0  0  0  0  0
   10.7622   -0.5514    0.0000 C   0  0  0  0  0  0  0  0  0  0  0  0
   10.7622   -1.3764    0.0000 C   0  0  0  0  0  0  0  0  0  0  0  0
    4.8810   -3.8083    0.0000 C   0  0  0  0  0  0  0  0  0  0  0  0
  1 28  1  0  0  0  0
  2 40  1  0  0  0  0
  3 18  2  0  0  0  0
  4 13  1  0  0  0  0
  4 18  1  0  0  0  0
  4 20  1  0  0  0  0
  5  8  1  0  0  0  0
  5 17  1  0  0  0  0
  5 31  1  0  0  0  0
  6 16  1  0  0  0  0
  6 21  1  0  0  0  0
  7 16  2  0  0  0  0
  7 27  1  0  0  0  0
  8  9  2  0  0  0  0
  9 10  1  0  0  0  0
 10 31  2  0  0  0  0
 11 33  1  0  0  0  0
 11 37  2  0  0  0  0
 12 41  3  0  0  0  0
 13 16  1  0  0  0  0
 13 24  1  0  0  0  0
 14 15  1  0  0  0  0
 14 17  2  0  0  0  0
 14 23  1  0  0  0  0
 15 19  2  0  0  0  0
 15 22  1  0  0  0  0
 17 26  1  0  0  0  0
 18 19  1  0  0  0  0
 20 22  2  0  0  0  0
 21 25  1  0  0  0  0
 21 27  2  0  0  0  0
 23 28  2  0  0  0  0
 24 29  1  0  0  0  0
 25 32  1  0  0  0  0
 25 33  2  0  0  0  0
 26 30  2  0  0  0  0
 28 30  1  0  0  0  0
 29 35  2  0  0  0  0
 29 36  1  0  0  0  0
 32 34  2  0  0  0  0
 34 37  1  0  0  0  0
 34 41  1  0  0  0  0
 35 38  1  0  0  0  0
 36 39  2  0  0  0  0
 38 40  2  0  0  0  0
 39 40  1  0  0  0  0
M  END
> <PUBCHEM_COMPOUND_ID_TYPE>
0

> <PUBCHEM_TOTAL_CHARGE>
0

> <PUBCHEM_SUBSTANCE_ID>
310933932

> <PUBCHEM_SUBSTANCE_VERSION>
1

> <PUBCHEM_EXT_DATASOURCE_NAME>
4488

> <PUBCHEM_EXT_DATASOURCE_REGID>
SCHEMBL16111371

> <PUBCHEM_SUBSTANCE_COMMENT>
InChI=1S/C29H19ClFN9O/c30-22-3-6-26(40-17-35-37-38-40)24(12-22)20-7-8-39(28(41)11-20)27(10-18-1-4-23(31)5-2-18)29-34-16-25(36-29)21-9-19(13-32)14-33-15-21/h1-9,11-12,14-17,27H,10H2,(H,34,36)
InChIKey=LHKYJEUIGNKEDU-UHFFFAOYSA-N

> <PUBCHEM_SUBSTANCE_SYNONYM>
SCHEMBL16111371

> <PUBCHEM_XREF_EXT_ID>
SCHEMBL16111371

> <PUBCHEM_EXT_DATASOURCE_URL>
https://www.surechembl.org/

> <PUBCHEM_EXT_SUBSTANCE_URL>
https://www.surechembl.org/chemical/SCHEMBL16111371

> <PUBCHEM_CID_ASSOCIATIONS>
117602255  1

> <PUBCHEM_COORDINATE_TYPE>
1
3

$$$$
