310949462
  -OEChem-07211613022D

 30 33  0     1  0  0  0  0  0999 V2000
   -1.7439    2.7404    0.0000 Cl  0  0  0  0  0  0  0  0  0  0  0  0
   -3.5262    1.2073    0.0000 F   0  0  0  0  0  0  0  0  0  0  0  0
   -3.8520    2.2614    0.0000 F   0  0  0  0  0  0  0  0  0  0  0  0
   -2.7979    2.5871    0.0000 F   0  0  0  0  0  0  0  0  0  0  0  0
   -0.3258    2.7596    0.0000 O   0  0  0  0  0  0  0  0  0  0  0  0
    0.3833    1.5140    0.0000 N   0  0  0  0  0  0  0  0  0  0  0  0
    2.5680    0.4216    0.0000 N   0  0  0  0  0  0  0  0  0  0  0  0
    2.5680    1.7631    0.0000 N   0  0  0  0  0  0  0  0  0  0  0  0
    3.0471    1.0924    0.0000 N   0  0  0  0  0  0  0  0  0  0  0  0
    2.2805   -0.9774    0.0000 N   0  0  0  0  0  0  0  0  0  0  0  0
    1.8015    1.5140    0.0000 C   0  0  0  0  0  0  0  0  0  0  0  0
    1.7631    0.6899    0.0000 C   0  0  0  0  0  0  0  0  0  0  0  0
    1.0732    1.9356    0.0000 C   0  0  3  0  0  0  0  0  0  0  0  0
   -0.3449    1.9164    0.0000 C   0  0  0  0  0  0  0  0  0  0  0  0
   -1.0348    1.5140    0.0000 C   0  0  0  0  0  0  0  0  0  0  0  0
    1.0924    0.2683    0.0000 C   0  0  0  0  0  0  0  0  0  0  0  0
   -1.7631    1.9164    0.0000 C   0  0  0  0  0  0  0  0  0  0  0  0
    0.3641    0.6708    0.0000 C   0  0  0  0  0  0  0  0  0  0  0  0
    2.7979   -0.3641    0.0000 C   0  0  0  0  0  0  0  0  0  0  0  0
   -2.4530    1.5140    0.0000 C   0  0  0  0  0  0  0  0  0  0  0  0
   -3.1621    1.9164    0.0000 C   0  0  0  0  0  0  0  0  0  0  0  0
   -1.0540    0.6708    0.0000 C   0  0  0  0  0  0  0  0  0  0  0  0
   -2.4530    0.6708    0.0000 C   0  0  0  0  0  0  0  0  0  0  0  0
    1.0924    2.7596    0.0000 C   0  0  0  0  0  0  0  0  0  0  0  0
    3.6028   -0.5557    0.0000 C   0  0  0  0  0  0  0  0  0  0  0  0
   -1.7439    0.2683    0.0000 C   0  0  0  0  0  0  0  0  0  0  0  0
    2.5105   -1.7631    0.0000 C   0  0  0  0  0  0  0  0  0  0  0  0
    3.8520   -1.3032    0.0000 C   0  0  0  0  0  0  0  0  0  0  0  0
    3.3154   -1.9739    0.0000 C   0  0  0  0  0  0  0  0  0  0  0  0
    3.5837   -2.7596    0.0000 C   0  0  0  0  0  0  0  0  0  0  0  0
  1 17  1  0  0  0  0
  2 21  1  0  0  0  0
  3 21  1  0  0  0  0
  4 21  1  0  0  0  0
  5 14  2  0  0  0  0
  6 13  1  0  0  0  0
  6 14  1  0  0  0  0
  6 18  1  0  0  0  0
  7  9  1  0  0  0  0
  7 12  1  0  0  0  0
  7 19  1  0  0  0  0
  8  9  1  0  0  0  0
  8 11  1  0  0  0  0
 10 19  2  0  0  0  0
 10 27  1  0  0  0  0
 11 12  2  0  0  0  0
 11 13  1  0  0  0  0
 12 16  1  0  0  0  0
 13 24  1  0  0  0  0
 14 15  1  0  0  0  0
 15 17  2  0  0  0  0
 15 22  1  0  0  0  0
 16 18  2  0  0  0  0
 17 20  1  0  0  0  0
 19 25  1  0  0  0  0
 20 21  1  0  0  0  0
 20 23  2  0  0  0  0
 22 26  2  0  0  0  0
 23 26  1  0  0  0  0
 25 28  2  0  0  0  0
 27 29  2  0  0  0  0
 28 29  1  0  0  0  0
 29 30  1  0  0  0  0
M  END
> <PUBCHEM_COMPOUND_ID_TYPE>
0

> <PUBCHEM_TOTAL_CHARGE>
0

> <PUBCHEM_SUBSTANCE_ID>
310949462

> <PUBCHEM_SUBSTANCE_VERSION>
1

> <PUBCHEM_EXT_DATASOURCE_NAME>
4488

> <PUBCHEM_EXT_DATASOURCE_REGID>
SCHEMBL16127656

> <PUBCHEM_SUBSTANCE_COMMENT>
InChI=1S/C20H17ClF3N5O/c1-11-6-7-16(25-10-11)29-15-8-9-28(12(2)18(15)26-27-29)19(30)13-4-3-5-14(17(13)21)20(22,23)24/h3-10,12,26-27H,1-2H3
InChIKey=RDSFARSCCJASCU-UHFFFAOYSA-N

> <PUBCHEM_SUBSTANCE_SYNONYM>
SCHEMBL16127656

> <PUBCHEM_XREF_EXT_ID>
SCHEMBL16127656

> <PUBCHEM_EXT_DATASOURCE_URL>
https://www.surechembl.org/

> <PUBCHEM_EXT_SUBSTANCE_URL>
https://www.surechembl.org/chemical/SCHEMBL16127656

> <PUBCHEM_CID_ASSOCIATIONS>
117614907  1

> <PUBCHEM_COORDINATE_TYPE>
1
3

$$$$
