310935126
  -OEChem-07211613022D

 27 30  0     1  0  0  0  0  0999 V2000
    0.0000   -2.8987    0.0000 Br  0  0  0  0  0  0  0  0  0  0  0  0
    2.5739   -3.8983    0.0000 S   0  0  0  0  0  0  0  0  0  0  0  0
    6.8970   -0.6497    0.0000 F   0  0  0  0  0  0  0  0  0  0  0  0
    5.7225   -1.4993    0.0000 O   0  0  0  0  0  0  0  0  0  0  0  0
    5.7225   -2.8987    0.0000 O   0  0  0  0  0  0  0  0  0  0  0  0
    1.7992   -2.8238    0.0000 N   0  0  0  0  0  0  0  0  0  0  0  0
    4.4980   -2.1991    0.0000 C   0  0  3  0  0  0  0  0  0  0  0  0
    4.8979   -1.4744    0.0000 C   0  0  0  0  0  0  0  0  0  0  0  0
    3.2486   -2.5988    0.0000 C   0  0  0  0  0  0  0  0  0  0  0  0
    4.0233   -2.8737    0.0000 C   0  0  0  0  0  0  0  0  0  0  0  0
    2.5739   -3.0737    0.0000 C   0  0  0  0  0  0  0  0  0  0  0  0
    4.0233   -1.5243    0.0000 C   0  0  0  0  0  0  0  0  0  0  0  0
    5.3227   -2.1991    0.0000 C   0  0  0  0  0  0  0  0  0  0  0  0
    3.2486   -1.7992    0.0000 C   0  0  0  0  0  0  0  0  0  0  0  0
    1.2995   -3.4735    0.0000 C   0  0  0  0  0  0  0  0  0  0  0  0
    5.8724   -1.5743    0.0000 C   0  0  0  0  0  0  0  0  0  0  0  0
    1.7992   -4.1732    0.0000 C   0  0  0  0  0  0  0  0  0  0  0  0
    4.4481   -0.7746    0.0000 C   0  0  0  0  0  0  0  0  0  0  0  0
    0.4748   -3.5735    0.0000 C   0  0  0  0  0  0  0  0  0  0  0  0
    6.0724   -0.6997    0.0000 C   0  0  0  0  0  0  0  0  0  0  0  0
    1.4494   -4.9229    0.0000 C   0  0  0  0  0  0  0  0  0  0  0  0
    4.8229   -0.0250    0.0000 C   0  0  0  0  0  0  0  0  0  0  0  0
    5.6476    0.0000    0.0000 C   0  0  0  0  0  0  0  0  0  0  0  0
    0.1499   -4.2982    0.0000 C   0  0  0  0  0  0  0  0  0  0  0  0
    6.1473   -2.0991    0.0000 C   0  0  0  0  0  0  0  0  0  0  0  0
    0.6497   -4.9978    0.0000 C   0  0  0  0  0  0  0  0  0  0  0  0
    6.5472   -1.4993    0.0000 C   0  0  0  0  0  0  0  0  0  0  0  0
  1 19  1  0  0  0  0
  2 11  1  0  0  0  0
  2 17  1  0  0  0  0
  3 20  1  0  0  0  0
  4 13  1  0  0  0  0
  4 27  1  0  0  0  0
  5 13  2  0  0  0  0
  6 11  2  0  0  0  0
  6 15  1  0  0  0  0
  7  8  1  0  0  0  0
  7 10  1  0  0  0  0
  7 12  1  0  0  0  0
  7 13  1  0  0  0  0
  8 16  1  0  0  0  0
  8 18  2  0  0  0  0
  9 10  2  0  0  0  0
  9 11  1  0  0  0  0
  9 14  1  0  0  0  0
 12 14  1  0  0  0  0
 15 17  2  0  0  0  0
 15 19  1  0  0  0  0
 16 20  2  0  0  0  0
 16 25  1  0  0  0  0
 17 21  1  0  0  0  0
 18 22  1  0  0  0  0
 19 24  2  0  0  0  0
 20 23  1  0  0  0  0
 21 26  2  0  0  0  0
 22 23  2  0  0  0  0
 24 26  1  0  0  0  0
M  END
> <PUBCHEM_COMPOUND_ID_TYPE>
0

> <PUBCHEM_TOTAL_CHARGE>
0

> <PUBCHEM_SUBSTANCE_ID>
310935126

> <PUBCHEM_SUBSTANCE_VERSION>
1

> <PUBCHEM_EXT_DATASOURCE_NAME>
4488

> <PUBCHEM_EXT_DATASOURCE_REGID>
SCHEMBL16112653

> <PUBCHEM_SUBSTANCE_COMMENT>
InChI=1S/C21H17BrFNO2S/c1-12-14(5-3-7-16(12)23)21(20(25)26-2)10-9-13(11-21)19-24-18-15(22)6-4-8-17(18)27-19/h3-8,11H,9-10H2,1-2H3
InChIKey=JUUAXFLWJLSFAS-UHFFFAOYSA-N

> <PUBCHEM_SUBSTANCE_SYNONYM>
SCHEMBL16112653

> <PUBCHEM_XREF_EXT_ID>
SCHEMBL16112653

> <PUBCHEM_EXT_DATASOURCE_URL>
https://www.surechembl.org/

> <PUBCHEM_EXT_SUBSTANCE_URL>
https://www.surechembl.org/chemical/SCHEMBL16112653

> <PUBCHEM_CID_ASSOCIATIONS>
117603214  1

> <PUBCHEM_COORDINATE_TYPE>
1
3

$$$$
