310930090
  -OEChem-07211613022D

 23 24  0     1  0  0  0  0  0999 V2000
    0.8250   -8.3418    0.0000 S   0  0  0  0  0  0  0  0  0  0  0  0
    2.2000   -0.7792    0.0000 S   0  0  0  0  0  0  0  0  0  0  0  0
    0.8250   -7.5168    0.0000 O   0  0  0  0  0  0  0  0  0  0  0  0
    1.6500   -8.3418    0.0000 O   0  0  0  0  0  0  0  0  0  0  0  0
    0.0000   -8.3418    0.0000 O   0  0  0  0  0  0  0  0  0  0  0  0
    0.8250   -9.1668    0.0000 O   0  0  0  0  0  0  0  0  0  0  0  0
    2.2917   -5.8667    0.0000 N   0  0  3  0  0  0  0  0  0  0  0  0
    2.2459   -2.5209    0.0000 N   0  0  0  0  0  0  0  0  0  0  0  0
    1.5125   -2.1083    0.0000 N   0  0  0  0  0  0  0  0  0  0  0  0
    0.8709   -0.7792    0.0000 N   0  0  0  0  0  0  0  0  0  0  0  0
    2.2459   -5.0417    0.0000 C   0  0  0  0  0  0  0  0  0  0  0  0
    2.2459   -3.3459    0.0000 C   0  0  0  0  0  0  0  0  0  0  0  0
    2.9792   -3.7584    0.0000 C   0  0  0  0  0  0  0  0  0  0  0  0
    2.9792   -4.5834    0.0000 C   0  0  0  0  0  0  0  0  0  0  0  0
    1.5584   -4.5834    0.0000 C   0  0  0  0  0  0  0  0  0  0  0  0
    1.5584   -3.7584    0.0000 C   0  0  0  0  0  0  0  0  0  0  0  0
    1.5125   -1.2833    0.0000 C   0  0  0  0  0  0  0  0  0  0  0  0
    1.5584   -6.2793    0.0000 C   0  0  0  0  0  0  0  0  0  0  0  0
    1.5584   -7.1043    0.0000 C   0  0  0  0  0  0  0  0  0  0  0  0
    3.7125   -3.3459    0.0000 C   0  0  0  0  0  0  0  0  0  0  0  0
    2.9792   -6.2334    0.0000 C   0  0  0  0  0  0  0  0  0  0  0  0
    1.9709    0.0000    0.0000 C   0  0  0  0  0  0  0  0  0  0  0  0
    1.1000    0.0000    0.0000 C   0  0  0  0  0  0  0  0  0  0  0  0
  1  3  1  0  0  0  0
  1  4  2  0  0  0  0
  1  5  2  0  0  0  0
  1  6  1  0  0  0  0
  2 17  1  0  0  0  0
  2 22  1  0  0  0  0
  3 19  1  0  0  0  0
  7 11  1  0  0  0  0
  7 18  1  0  0  0  0
  7 21  1  0  0  0  0
  8  9  2  0  0  0  0
  8 12  1  0  0  0  0
  9 17  1  0  0  0  0
 10 17  2  0  0  0  0
 10 23  1  0  0  0  0
 11 14  1  0  0  0  0
 11 15  2  0  0  0  0
 12 13  1  0  0  0  0
 12 16  2  0  0  0  0
 13 14  2  0  0  0  0
 13 20  1  0  0  0  0
 15 16  1  0  0  0  0
 18 19  1  0  0  0  0
 22 23  2  0  0  0  0
M  END
> <PUBCHEM_COMPOUND_ID_TYPE>
0

> <PUBCHEM_TOTAL_CHARGE>
0

> <PUBCHEM_SUBSTANCE_ID>
310930090

> <PUBCHEM_SUBSTANCE_VERSION>
1

> <PUBCHEM_EXT_DATASOURCE_NAME>
4488

> <PUBCHEM_EXT_DATASOURCE_REGID>
SCHEMBL16107334

> <PUBCHEM_SUBSTANCE_COMMENT>
InChI=1S/C13H16N4O4S2/c1-10-9-11(17(2)6-7-21-23(18,19)20)3-4-12(10)15-16-13-14-5-8-22-13/h3-5,8-9H,6-7H2,1-2H3,(H,18,19,20)/b16-15+
InChIKey=RZNLGYRRARZVHX-FOCLMDBBSA-N

> <PUBCHEM_SUBSTANCE_SYNONYM>
SCHEMBL16107334

> <PUBCHEM_XREF_EXT_ID>
SCHEMBL16107334

> <PUBCHEM_EXT_DATASOURCE_URL>
https://www.surechembl.org/

> <PUBCHEM_EXT_SUBSTANCE_URL>
https://www.surechembl.org/chemical/SCHEMBL16107334

> <PUBCHEM_CID_ASSOCIATIONS>
89559260  1

> <PUBCHEM_COORDINATE_TYPE>
1
3

$$$$
