310933323
  -OEChem-07211613022D

 33 37  0     1  0  0  0  0  0999 V2000
    2.2688   -0.0229    0.0000 O   0  0  0  0  0  0  0  0  0  0  0  0
    0.0000   -3.5064    0.0000 O   0  0  0  0  0  0  0  0  0  0  0  0
    5.5002   -2.3835    0.0000 O   0  0  0  0  0  0  0  0  0  0  0  0
    4.1940   -1.7188    0.0000 N   0  0  0  0  0  0  0  0  0  0  0  0
    4.1940   -3.0481    0.0000 N   0  0  0  0  0  0  0  0  0  0  0  0
    1.4668   -1.4438    0.0000 N   0  0  0  0  0  0  0  0  0  0  0  0
    0.3896   -4.2169    0.0000 N   0  0  0  0  0  0  0  0  0  0  0  0
    2.6814   -0.7334    0.0000 C   0  0  3  0  0  0  0  0  0  0  0  0
    2.6814   -1.5584    0.0000 C   0  0  0  0  0  0  0  0  0  0  0  0
    3.4148   -1.9480    0.0000 C   0  0  0  0  0  0  0  0  0  0  0  0
    3.4148   -2.8189    0.0000 C   0  0  0  0  0  0  0  0  0  0  0  0
    3.5064   -0.7334    0.0000 C   0  0  0  0  0  0  0  0  0  0  0  0
    1.8563   -0.7563    0.0000 C   0  0  0  0  0  0  0  0  0  0  0  0
    1.9938   -2.8189    0.0000 C   0  0  0  0  0  0  0  0  0  0  0  0
    1.9938   -1.9480    0.0000 C   0  0  0  0  0  0  0  0  0  0  0  0
    2.6814   -3.2085    0.0000 C   0  0  0  0  0  0  0  0  0  0  0  0
    1.2834   -3.2314    0.0000 C   0  0  0  0  0  0  0  0  0  0  0  0
    4.6752   -2.3835    0.0000 C   0  0  0  0  0  0  0  0  0  0  0  0
    3.9190   -1.4209    0.0000 C   0  0  0  0  0  0  0  0  0  0  0  0
    3.9190    0.0000    0.0000 C   0  0  0  0  0  0  0  0  0  0  0  0
    0.5271   -2.9106    0.0000 C   0  0  0  0  0  0  0  0  0  0  0  0
    1.1917   -4.0335    0.0000 C   0  0  0  0  0  0  0  0  0  0  0  0
    1.4438   -0.0229    0.0000 C   0  0  0  0  0  0  0  0  0  0  0  0
    4.7440   -1.4209    0.0000 C   0  0  0  0  0  0  0  0  0  0  0  0
    4.7210    0.0000    0.0000 C   0  0  0  0  0  0  0  0  0  0  0  0
    0.6417   -1.4896    0.0000 C   0  0  0  0  0  0  0  0  0  0  0  0
    0.6188   -0.0688    0.0000 C   0  0  0  0  0  0  0  0  0  0  0  0
    5.1565   -0.7104    0.0000 C   0  0  0  0  0  0  0  0  0  0  0  0
    0.2292   -0.7792    0.0000 C   0  0  0  0  0  0  0  0  0  0  0  0
    0.3438   -2.0856    0.0000 C   0  0  0  0  0  0  0  0  0  0  0  0
    1.8105   -4.5835    0.0000 C   0  0  0  0  0  0  0  0  0  0  0  0
    5.1565   -2.1313    0.0000 C   0  0  0  0  0  0  0  0  0  0  0  0
    5.9815   -2.1313    0.0000 C   0  0  0  0  0  0  0  0  0  0  0  0
  1  8  1  0  0  0  0
  2  7  1  0  0  0  0
  2 21  1  0  0  0  0
  3 18  2  0  0  0  0
  4 10  1  0  0  0  0
  4 18  1  0  0  0  0
  5 11  1  0  0  0  0
  5 18  1  0  0  0  0
  6 13  1  0  0  0  0
  6 26  2  0  0  0  0
  7 22  2  0  0  0  0
  8  9  1  0  0  0  0
  8 12  1  0  0  0  0
  8 13  1  0  0  0  0
  9 10  1  0  0  0  0
  9 15  2  0  0  0  0
 10 11  2  0  0  0  0
 11 16  1  0  0  0  0
 12 19  1  0  0  0  0
 12 20  2  0  0  0  0
 13 23  2  0  0  0  0
 14 15  1  0  0  0  0
 14 16  2  0  0  0  0
 14 17  1  0  0  0  0
 17 21  2  0  0  0  0
 17 22  1  0  0  0  0
 19 24  2  0  0  0  0
 20 25  1  0  0  0  0
 21 30  1  0  0  0  0
 22 31  1  0  0  0  0
 23 27  1  0  0  0  0
 24 28  1  0  0  0  0
 24 32  1  0  0  0  0
 25 28  2  0  0  0  0
 26 29  1  0  0  0  0
 27 29  2  0  0  0  0
 32 33  1  0  0  0  0
M  END
> <PUBCHEM_COMPOUND_ID_TYPE>
0

> <PUBCHEM_TOTAL_CHARGE>
0

> <PUBCHEM_SUBSTANCE_ID>
310933323

> <PUBCHEM_SUBSTANCE_VERSION>
1

> <PUBCHEM_EXT_DATASOURCE_NAME>
4488

> <PUBCHEM_EXT_DATASOURCE_REGID>
SCHEMBL16110735

> <PUBCHEM_SUBSTANCE_COMMENT>
InChI=1S/C26H24N4O3/c1-4-17-8-7-9-19(12-17)26(32,22-10-5-6-11-27-22)20-13-18(23-15(2)30-33-16(23)3)14-21-24(20)29-25(31)28-21/h5-14,32H,4H2,1-3H3,(H2,28,29,31)
InChIKey=FQIQEVJNEKTHNR-UHFFFAOYSA-N

> <PUBCHEM_SUBSTANCE_SYNONYM>
SCHEMBL16110735

> <PUBCHEM_XREF_EXT_ID>
SCHEMBL16110735

> <PUBCHEM_EXT_DATASOURCE_URL>
https://www.surechembl.org/

> <PUBCHEM_EXT_SUBSTANCE_URL>
https://www.surechembl.org/chemical/SCHEMBL16110735

> <PUBCHEM_CID_ASSOCIATIONS>
117601737  1

> <PUBCHEM_COORDINATE_TYPE>
1
3

$$$$
