310937154
  -OEChem-07211613022D

 26 29  0     1  0  0  0  0  0999 V2000
    2.6309    3.3027    0.0000 O   0  0  0  0  0  0  0  0  0  0  0  0
    3.6929    4.2588    0.0000 O   0  0  0  0  0  0  0  0  0  0  0  0
   -0.7144   -0.8250    0.0000 N   0  0  0  0  0  0  0  0  0  0  0  0
    3.9899    2.8611    0.0000 N   0  0  0  0  0  0  0  0  0  0  0  0
    5.0518    3.8172    0.0000 N   0  0  0  0  0  0  0  0  0  0  0  0
    2.1434    0.8250    0.0000 C   0  0  3  0  0  0  0  0  0  0  0  0
    1.4290    0.4125    0.0000 C   0  0  3  0  0  0  0  0  0  0  0  0
    2.1434    1.6500    0.0000 C   0  0  3  0  0  0  0  0  0  0  0  0
    0.7144    0.8250    0.0000 C   0  0  3  0  0  0  0  0  0  0  0  0
    2.9280    1.9049    0.0000 C   0  0  3  0  0  0  0  0  0  0  0  0
    0.0000    0.4125    0.0000 C   0  0  3  0  0  0  0  0  0  0  0  0
    0.0000   -0.4125    0.0000 C   0  0  3  0  0  0  0  0  0  0  0  0
    2.9280    0.5701    0.0000 C   0  0  0  0  0  0  0  0  0  0  0  0
    1.4290    2.0625    0.0000 C   0  0  0  0  0  0  0  0  0  0  0  0
    0.7144    1.6500    0.0000 C   0  0  0  0  0  0  0  0  0  0  0  0
    1.4290   -0.4125    0.0000 C   0  0  0  0  0  0  0  0  0  0  0  0
    3.4130    1.2375    0.0000 C   0  0  0  0  0  0  0  0  0  0  0  0
    3.1830    2.6896    0.0000 C   0  0  0  0  0  0  0  0  0  0  0  0
    0.7144   -0.8250    0.0000 C   0  0  0  0  0  0  0  0  0  0  0  0
   -0.7144    0.8250    0.0000 C   0  0  0  0  0  0  0  0  0  0  0  0
   -1.4290    0.4125    0.0000 C   0  0  0  0  0  0  0  0  0  0  0  0
   -1.4290   -0.4125    0.0000 C   0  0  0  0  0  0  0  0  0  0  0  0
    4.2449    3.6457    0.0000 C   0  0  0  0  0  0  0  0  0  0  0  0
    5.3068    4.6018    0.0000 C   0  0  0  0  0  0  0  0  0  0  0  0
    4.7548    5.2149    0.0000 C   0  0  0  0  0  0  0  0  0  0  0  0
    6.1138    4.7734    0.0000 C   0  0  0  0  0  0  0  0  0  0  0  0
  1 18  2  0  0  0  0
  2 23  2  0  0  0  0
  3 12  1  0  0  0  0
  3 22  1  0  0  0  0
  4 18  1  0  0  0  0
  4 23  1  0  0  0  0
  5 23  1  0  0  0  0
  5 24  1  0  0  0  0
  6  7  1  0  0  0  0
  6  8  1  0  0  0  0
  6 13  1  0  0  0  0
  7  9  1  0  0  0  0
  7 16  1  0  0  0  0
  8 10  1  0  0  0  0
  8 14  1  0  0  0  0
  9 11  1  0  0  0  0
  9 15  1  0  0  0  0
 10 17  1  0  0  0  0
 10 18  1  0  0  0  0
 11 12  1  0  0  0  0
 11 20  1  0  0  0  0
 12 19  1  0  0  0  0
 13 17  1  0  0  0  0
 14 15  1  0  0  0  0
 16 19  1  0  0  0  0
 20 21  1  0  0  0  0
 21 22  1  0  0  0  0
 24 25  1  0  0  0  0
 24 26  1  0  0  0  0
M  END
> <PUBCHEM_COMPOUND_ID_TYPE>
0

> <PUBCHEM_TOTAL_CHARGE>
0

> <PUBCHEM_SUBSTANCE_ID>
310937154

> <PUBCHEM_SUBSTANCE_VERSION>
1

> <PUBCHEM_EXT_DATASOURCE_NAME>
4488

> <PUBCHEM_EXT_DATASOURCE_REGID>
SCHEMBL16114877

> <PUBCHEM_SUBSTANCE_COMMENT>
InChI=1S/C21H35N3O2/c1-12(2)23-21(26)24-20(25)18-8-7-13-14-9-10-19-17(4-3-11-22-19)15(14)5-6-16(13)18/h12-19,22H,3-11H2,1-2H3,(H2,23,24,25,26)
InChIKey=YIPRHMUVNYDCMH-UHFFFAOYSA-N

> <PUBCHEM_SUBSTANCE_SYNONYM>
SCHEMBL16114877

> <PUBCHEM_XREF_EXT_ID>
SCHEMBL16114877

> <PUBCHEM_EXT_DATASOURCE_URL>
https://www.surechembl.org/

> <PUBCHEM_EXT_SUBSTANCE_URL>
https://www.surechembl.org/chemical/SCHEMBL16114877

> <PUBCHEM_CID_ASSOCIATIONS>
117604978  1

> <PUBCHEM_COORDINATE_TYPE>
1
3

$$$$
