310942404
  -OEChem-07211613022D

 21 23  0     1  0  0  0  0  0999 V2000
   -2.3326   -1.3544    0.0000 O   0  0  0  0  0  0  0  0  0  0  0  0
   -2.6883    0.0136    0.0000 O   0  0  0  0  0  0  0  0  0  0  0  0
    0.0068   -0.3010    0.0000 N   0  0  0  0  0  0  0  0  0  0  0  0
    0.7593   -0.6293    0.0000 N   0  0  0  0  0  0  0  0  0  0  0  0
   -0.2394    0.4651    0.0000 C   0  0  0  0  0  0  0  0  0  0  0  0
   -0.6636   -0.7798    0.0000 C   0  0  0  0  0  0  0  0  0  0  0  0
   -1.3339   -0.3010    0.0000 C   0  0  0  0  0  0  0  0  0  0  0  0
   -1.0739    0.4925    0.0000 C   0  0  0  0  0  0  0  0  0  0  0  0
    0.2394    1.1492    0.0000 C   0  0  3  0  0  0  0  0  0  0  0  0
   -2.1000   -0.5199    0.0000 C   0  0  0  0  0  0  0  0  0  0  0  0
   -0.5678   -1.6006    0.0000 C   0  0  0  0  0  0  0  0  0  0  0  0
    1.0603    1.0671    0.0000 C   0  0  0  0  0  0  0  0  0  0  0  0
   -1.5528    1.1629    0.0000 C   0  0  0  0  0  0  0  0  0  0  0  0
    0.8550   -1.4638    0.0000 C   0  0  0  0  0  0  0  0  0  0  0  0
    0.1984   -1.9290    0.0000 C   0  0  0  0  0  0  0  0  0  0  0  0
   -0.0889    1.9290    0.0000 C   0  0  0  0  0  0  0  0  0  0  0  0
    1.4023    0.3147    0.0000 C   0  0  0  0  0  0  0  0  0  0  0  0
    1.5528    1.7238    0.0000 C   0  0  0  0  0  0  0  0  0  0  0  0
    2.2094    0.2326    0.0000 C   0  0  0  0  0  0  0  0  0  0  0  0
    2.3600    1.6417    0.0000 C   0  0  0  0  0  0  0  0  0  0  0  0
    2.6883    0.8619    0.0000 C   0  0  0  0  0  0  0  0  0  0  0  0
  1 10  2  0  0  0  0
  2 10  1  0  0  0  0
  3  4  1  0  0  0  0
  3  5  1  0  0  0  0
  3  6  1  0  0  0  0
  4 14  2  0  0  0  0
  5  8  2  0  0  0  0
  5  9  1  0  0  0  0
  6  7  2  0  0  0  0
  6 11  1  0  0  0  0
  7  8  1  0  0  0  0
  7 10  1  0  0  0  0
  8 13  1  0  0  0  0
  9 12  1  0  0  0  0
  9 16  1  0  0  0  0
 11 15  2  0  0  0  0
 12 17  2  0  0  0  0
 12 18  1  0  0  0  0
 14 15  1  0  0  0  0
 17 19  1  0  0  0  0
 18 20  2  0  0  0  0
 19 21  2  0  0  0  0
 20 21  1  0  0  0  0
M  END
> <PUBCHEM_COMPOUND_ID_TYPE>
0

> <PUBCHEM_TOTAL_CHARGE>
0

> <PUBCHEM_SUBSTANCE_ID>
310942404

> <PUBCHEM_SUBSTANCE_VERSION>
1

> <PUBCHEM_EXT_DATASOURCE_NAME>
4488

> <PUBCHEM_EXT_DATASOURCE_REGID>
SCHEMBL16120440

> <PUBCHEM_SUBSTANCE_COMMENT>
InChI=1S/C17H16N2O2/c1-11(13-7-4-3-5-8-13)16-12(2)15(17(20)21)14-9-6-10-18-19(14)16/h3-11H,1-2H3,(H,20,21)
InChIKey=IOKDBMZDGJSUSF-UHFFFAOYSA-N

> <PUBCHEM_SUBSTANCE_SYNONYM>
SCHEMBL16120440

> <PUBCHEM_XREF_EXT_ID>
SCHEMBL16120440

> <PUBCHEM_EXT_DATASOURCE_URL>
https://www.surechembl.org/

> <PUBCHEM_EXT_SUBSTANCE_URL>
https://www.surechembl.org/chemical/SCHEMBL16120440

> <PUBCHEM_CID_ASSOCIATIONS>
117609008  1

> <PUBCHEM_COORDINATE_TYPE>
1
3

$$$$
