310946480
  -OEChem-07211613022D

 15 14  0     1  0  0  0  0  0999 V2000
    4.2908  -12.0445    0.0000 O   0  0  0  0  0  0  0  0  0  0  0  0
    2.8618  -12.0445    0.0000 O   0  0  0  0  0  0  0  0  0  0  0  0
    3.0753  -15.3164    0.0000 O   0  0  0  0  0  0  0  0  0  0  0  0
    2.3609  -14.0789    0.0000 O   0  0  0  0  0  0  0  0  0  0  0  0
    5.5147  -10.2372    0.0000 O   0  0  0  0  0  0  0  0  0  0  0  0
    3.5763  -13.2820    0.0000 N   0  0  0  0  0  0  0  0  0  0  0  0
    3.7898  -14.0789    0.0000 C   0  0  3  0  0  0  0  0  0  0  0  0
    3.5763  -12.4570    0.0000 C   0  0  0  0  0  0  0  0  0  0  0  0
    3.0753  -14.4914    0.0000 C   0  0  0  0  0  0  0  0  0  0  0  0
    4.5043  -11.2476    0.0000 C   0  0  0  0  0  0  0  0  0  0  0  0
    4.5867  -14.2924    0.0000 C   0  0  0  0  0  0  0  0  0  0  0  0
    5.3012  -11.0341    0.0000 C   0  0  0  0  0  0  0  0  0  0  0  0
    6.3116  -10.0237    0.0000 C   0  0  0  0  0  0  0  0  0  0  0  0
    6.5251   -9.2268    0.0000 C   0  0  0  0  0  0  0  0  0  0  0  0
    7.3220   -9.0133    0.0000 C   0  0  0  0  0  0  0  0  0  0  0  0
  1  8  1  0  0  0  0
  1 10  1  0  0  0  0
  2  8  2  0  0  0  0
  3  9  2  0  0  0  0
  4  9  1  0  0  0  0
  5 12  1  0  0  0  0
  5 13  1  0  0  0  0
  6  7  1  0  0  0  0
  6  8  1  0  0  0  0
  7  9  1  0  0  0  0
  7 11  1  0  0  0  0
 10 12  1  0  0  0  0
 13 14  1  0  0  0  0
 14 15  1  0  0  0  0
M  END
> <PUBCHEM_COMPOUND_ID_TYPE>
0

> <PUBCHEM_TOTAL_CHARGE>
0

> <PUBCHEM_SUBSTANCE_ID>
310946480

> <PUBCHEM_SUBSTANCE_VERSION>
1

> <PUBCHEM_EXT_DATASOURCE_NAME>
4488

> <PUBCHEM_EXT_DATASOURCE_REGID>
SCHEMBL16124601

> <PUBCHEM_SUBSTANCE_COMMENT>
InChI=1S/C9H17NO5/c1-3-4-14-5-6-15-9(13)10-7(2)8(11)12/h7H,3-6H2,1-2H3,(H,10,13)(H,11,12)
InChIKey=AQARWEPFCVZELW-UHFFFAOYSA-N

> <PUBCHEM_SUBSTANCE_SYNONYM>
SCHEMBL16124601

> <PUBCHEM_XREF_EXT_ID>
SCHEMBL16124601

> <PUBCHEM_EXT_DATASOURCE_URL>
https://www.surechembl.org/

> <PUBCHEM_EXT_SUBSTANCE_URL>
https://www.surechembl.org/chemical/SCHEMBL16124601

> <PUBCHEM_CID_ASSOCIATIONS>
117612387  1

> <PUBCHEM_COORDINATE_TYPE>
1
3

$$$$
