310935689
  -OEChem-07211613022D

 29 33  0     1  0  0  0  0  0999 V2000
    0.7583   -2.2749    0.0000 Cl  0  0  0  0  0  0  0  0  0  0  0  0
    3.0332   -1.0110    0.0000 N   0  0  3  0  0  0  0  0  0  0  0  0
    0.7583   -5.5608    0.0000 N   0  0  0  0  0  0  0  0  0  0  0  0
    0.0722   -4.3331    0.0000 N   0  0  0  0  0  0  0  0  0  0  0  0
    0.2527   -0.1805    0.0000 N   0  0  0  0  0  0  0  0  0  0  0  0
    0.5777   -1.5888    0.0000 N   0  0  0  0  0  0  0  0  0  0  0  0
    2.8526   -1.8054    0.0000 C   0  0  0  0  0  0  0  0  0  0  0  0
    2.1665   -3.0692    0.0000 C   0  0  0  0  0  0  0  0  0  0  0  0
    3.6109   -2.2388    0.0000 C   0  0  0  0  0  0  0  0  0  0  0  0
    1.4444   -3.5025    0.0000 C   0  0  0  0  0  0  0  0  0  0  0  0
    2.1665   -2.2749    0.0000 C   0  0  0  0  0  0  0  0  0  0  0  0
    0.7583   -3.1053    0.0000 C   0  0  0  0  0  0  0  0  0  0  0  0
    2.9248   -3.5025    0.0000 C   0  0  0  0  0  0  0  0  0  0  0  0
    0.7583   -4.7303    0.0000 C   0  0  0  0  0  0  0  0  0  0  0  0
    3.6109   -3.0692    0.0000 C   0  0  0  0  0  0  0  0  0  0  0  0
    1.4805   -4.3331    0.0000 C   0  0  0  0  0  0  0  0  0  0  0  0
    4.1886   -1.6610    0.0000 C   0  0  0  0  0  0  0  0  0  0  0  0
    3.8636   -0.9027    0.0000 C   0  0  0  0  0  0  0  0  0  0  0  0
    2.4554   -0.3972    0.0000 C   0  0  0  0  0  0  0  0  0  0  0  0
    0.0361   -3.5025    0.0000 C   0  0  0  0  0  0  0  0  0  0  0  0
    1.6610   -0.6138    0.0000 C   0  0  0  0  0  0  0  0  0  0  0  0
    1.4805   -5.9940    0.0000 C   0  0  0  0  0  0  0  0  0  0  0  0
    0.0361   -5.9940    0.0000 C   0  0  0  0  0  0  0  0  0  0  0  0
    1.0472    0.0000    0.0000 C   0  0  0  0  0  0  0  0  0  0  0  0
    1.3721   -1.3721    0.0000 C   0  0  0  0  0  0  0  0  0  0  0  0
    1.4805   -6.8246    0.0000 C   0  0  0  0  0  0  0  0  0  0  0  0
    0.0361   -6.8246    0.0000 C   0  0  0  0  0  0  0  0  0  0  0  0
    0.7583   -7.2218    0.0000 C   0  0  0  0  0  0  0  0  0  0  0  0
    0.0000   -0.9749    0.0000 C   0  0  0  0  0  0  0  0  0  0  0  0
  1 12  1  0  0  0  0
  2  7  1  0  0  0  0
  2 18  1  0  0  0  0
  2 19  1  0  0  0  0
  3 14  1  0  0  0  0
  3 22  1  0  0  0  0
  3 23  1  0  0  0  0
  4 14  1  0  0  0  0
  4 20  2  0  0  0  0
  5 24  2  0  0  0  0
  5 29  1  0  0  0  0
  6 25  1  0  0  0  0
  6 29  2  0  0  0  0
  7  9  2  0  0  0  0
  7 11  1  0  0  0  0
  8 10  1  0  0  0  0
  8 11  2  0  0  0  0
  8 13  1  0  0  0  0
  9 15  1  0  0  0  0
  9 17  1  0  0  0  0
 10 12  2  0  0  0  0
 10 16  1  0  0  0  0
 12 20  1  0  0  0  0
 13 15  2  0  0  0  0
 14 16  2  0  0  0  0
 17 18  1  0  0  0  0
 19 21  1  0  0  0  0
 21 24  1  0  0  0  0
 21 25  2  0  0  0  0
 22 26  1  0  0  0  0
 23 27  1  0  0  0  0
 26 28  1  0  0  0  0
 27 28  1  0  0  0  0
M  END
> <PUBCHEM_COMPOUND_ID_TYPE>
0

> <PUBCHEM_TOTAL_CHARGE>
0

> <PUBCHEM_SUBSTANCE_ID>
310935689

> <PUBCHEM_SUBSTANCE_VERSION>
1

> <PUBCHEM_EXT_DATASOURCE_NAME>
4488

> <PUBCHEM_EXT_DATASOURCE_REGID>
SCHEMBL16113272

> <PUBCHEM_SUBSTANCE_COMMENT>
InChI=1S/C23H24ClN5/c24-21-14-27-23(28-7-2-1-3-8-28)11-20(21)19-5-4-18-6-9-29(22(18)10-19)15-17-12-25-16-26-13-17/h4-5,10-14,16H,1-3,6-9,15H2
InChIKey=CSHZCMFDSZVLDR-UHFFFAOYSA-N

> <PUBCHEM_SUBSTANCE_SYNONYM>
SCHEMBL16113272

> <PUBCHEM_XREF_EXT_ID>
SCHEMBL16113272

> <PUBCHEM_EXT_DATASOURCE_URL>
https://www.surechembl.org/

> <PUBCHEM_EXT_SUBSTANCE_URL>
https://www.surechembl.org/chemical/SCHEMBL16113272

> <PUBCHEM_CID_ASSOCIATIONS>
117603698  1

> <PUBCHEM_COORDINATE_TYPE>
1
3

$$$$
