310943586
  -OEChem-07211613022D

 27 29  0     1  0  0  0  0  0999 V2000
    4.5982    2.2637    0.0000 O   0  0  0  0  0  0  0  0  0  0  0  0
   -1.9949   -1.8110    0.0000 N   0  0  3  0  0  0  0  0  0  0  0  0
    3.7210    1.7544    0.0000 N   0  0  0  0  0  0  0  0  0  0  0  0
   -3.7776   -1.2733    0.0000 N   0  0  3  0  0  0  0  0  0  0  0  0
    0.1415    1.3016    0.0000 N   0  0  0  0  0  0  0  0  0  0  0  0
    4.4426    0.3112    0.0000 N   0  0  0  0  0  0  0  0  0  0  0  0
    0.8772   -0.9479    0.0000 C   0  0  0  0  0  0  0  0  0  0  0  0
    1.5847   -0.5235    0.0000 C   0  0  0  0  0  0  0  0  0  0  0  0
    0.1415   -0.5376    0.0000 C   0  0  0  0  0  0  0  0  0  0  0  0
   -0.5659   -1.7827    0.0000 C   0  0  0  0  0  0  0  0  0  0  0  0
   -0.5518   -0.9479    0.0000 C   0  0  0  0  0  0  0  0  0  0  0  0
    0.8631   -1.7827    0.0000 C   0  0  0  0  0  0  0  0  0  0  0  0
    0.1557   -2.1788    0.0000 C   0  0  0  0  0  0  0  0  0  0  0  0
    1.5988    0.3112    0.0000 C   0  0  0  0  0  0  0  0  0  0  0  0
    2.2920   -0.9197    0.0000 C   0  0  0  0  0  0  0  0  0  0  0  0
    3.0136    0.3254    0.0000 C   0  0  0  0  0  0  0  0  0  0  0  0
   -1.2592   -2.2071    0.0000 C   0  0  0  0  0  0  0  0  0  0  0  0
    2.2779    0.7074    0.0000 C   0  0  0  0  0  0  0  0  0  0  0  0
    2.9994   -0.5235    0.0000 C   0  0  0  0  0  0  0  0  0  0  0  0
    0.1415    0.4810    0.0000 C   0  0  0  0  0  0  0  0  0  0  0  0
    3.7210    0.7357    0.0000 C   0  0  0  0  0  0  0  0  0  0  0  0
   -2.6599   -2.2637    0.0000 C   0  0  0  0  0  0  0  0  0  0  0  0
   -1.9383   -0.9762    0.0000 C   0  0  0  0  0  0  0  0  0  0  0  0
   -3.4522   -2.0232    0.0000 C   0  0  0  0  0  0  0  0  0  0  0  0
   -2.5467   -0.4103    0.0000 C   0  0  0  0  0  0  0  0  0  0  0  0
   -3.3390   -0.5376    0.0000 C   0  0  0  0  0  0  0  0  0  0  0  0
   -4.5982   -1.2733    0.0000 C   0  0  0  0  0  0  0  0  0  0  0  0
  1  3  1  0  0  0  0
  2 17  1  0  0  0  0
  2 22  1  0  0  0  0
  2 23  1  0  0  0  0
  3 21  2  0  0  0  0
  4 24  1  0  0  0  0
  4 26  1  0  0  0  0
  4 27  1  0  0  0  0
  5 20  3  0  0  0  0
  6 21  1  0  0  0  0
  7  8  1  0  0  0  0
  7  9  2  0  0  0  0
  7 12  1  0  0  0  0
  8 14  2  0  0  0  0
  8 15  1  0  0  0  0
  9 11  1  0  0  0  0
  9 20  1  0  0  0  0
 10 11  2  0  0  0  0
 10 13  1  0  0  0  0
 10 17  1  0  0  0  0
 12 13  2  0  0  0  0
 14 18  1  0  0  0  0
 15 19  2  0  0  0  0
 16 18  2  0  0  0  0
 16 19  1  0  0  0  0
 16 21  1  0  0  0  0
 22 24  1  0  0  0  0
 23 25  1  0  0  0  0
 25 26  1  0  0  0  0
M  END
> <PUBCHEM_COMPOUND_ID_TYPE>
0

> <PUBCHEM_TOTAL_CHARGE>
0

> <PUBCHEM_SUBSTANCE_ID>
310943586

> <PUBCHEM_SUBSTANCE_VERSION>
1

> <PUBCHEM_EXT_DATASOURCE_NAME>
4488

> <PUBCHEM_EXT_DATASOURCE_REGID>
SCHEMBL16121653

> <PUBCHEM_SUBSTANCE_COMMENT>
InChI=1S/C21H25N5O/c1-25-9-2-10-26(12-11-25)15-16-3-8-20(19(13-16)14-22)17-4-6-18(7-5-17)21(23)24-27/h3-8,13,27H,2,9-12,15H2,1H3,(H2,23,24)
InChIKey=IJVSUTVRPLTPGO-UHFFFAOYSA-N

> <PUBCHEM_SUBSTANCE_SYNONYM>
SCHEMBL16121653

> <PUBCHEM_XREF_EXT_ID>
SCHEMBL16121653

> <PUBCHEM_EXT_DATASOURCE_URL>
https://www.surechembl.org/

> <PUBCHEM_EXT_SUBSTANCE_URL>
https://www.surechembl.org/chemical/SCHEMBL16121653

> <PUBCHEM_CID_ASSOCIATIONS>
86302154  1

> <PUBCHEM_COORDINATE_TYPE>
1
3

$$$$
