310946825
  -OEChem-07211613022D

 43 45  0     1  0  0  0  0  0999 V2000
   -0.4673   -1.2098    0.0000 O   0  0  0  0  0  0  0  0  0  0  0  0
   -0.4673    1.6481    0.0000 O   0  0  0  0  0  0  0  0  0  0  0  0
   -4.5923    0.2192    0.0000 O   0  0  0  0  0  0  0  0  0  0  0  0
   -1.2923    0.2192    0.0000 N   0  0  0  0  0  0  0  0  0  0  0  0
    2.0077    0.2192    0.0000 N   0  0  0  0  0  0  0  0  0  0  0  0
   -2.1173    0.2192    0.0000 C   0  0  0  0  0  0  0  0  0  0  0  0
   -2.5298   -0.4953    0.0000 C   0  0  0  0  0  0  0  0  0  0  0  0
   -3.3548   -0.4953    0.0000 C   0  0  0  0  0  0  0  0  0  0  0  0
   -0.4673    0.2192    0.0000 C   0  0  0  0  0  0  0  0  0  0  0  0
   -3.7673    0.2192    0.0000 C   0  0  0  0  0  0  0  0  0  0  0  0
   -3.3548    0.9336    0.0000 C   0  0  0  0  0  0  0  0  0  0  0  0
   -0.0548   -0.4953    0.0000 C   0  0  0  0  0  0  0  0  0  0  0  0
   -0.0548    0.9336    0.0000 C   0  0  0  0  0  0  0  0  0  0  0  0
   -2.5298    0.9336    0.0000 C   0  0  0  0  0  0  0  0  0  0  0  0
    1.1827    0.2192    0.0000 C   0  0  0  0  0  0  0  0  0  0  0  0
    0.7702   -0.4953    0.0000 C   0  0  0  0  0  0  0  0  0  0  0  0
    0.7702    0.9336    0.0000 C   0  0  0  0  0  0  0  0  0  0  0  0
   -2.1173   -1.2098    0.0000 C   0  0  0  0  0  0  0  0  0  0  0  0
   -3.7673   -1.2098    0.0000 C   0  0  0  0  0  0  0  0  0  0  0  0
   -3.7673    1.6481    0.0000 C   0  0  0  0  0  0  0  0  0  0  0  0
   -2.5298   -1.9243    0.0000 C   0  0  0  0  0  0  0  0  0  0  0  0
   -3.3548   -1.9243    0.0000 C   0  0  0  0  0  0  0  0  0  0  0  0
    2.4202   -0.4953    0.0000 C   0  0  0  0  0  0  0  0  0  0  0  0
    2.4202    0.9336    0.0000 C   0  0  0  0  0  0  0  0  0  0  0  0
    2.0077   -1.2098    0.0000 C   0  0  3  0  0  0  0  0  0  0  0  0
    3.2452    0.9336    0.0000 C   0  0  3  0  0  0  0  0  0  0  0  0
   -4.5923    1.6481    0.0000 C   0  0  0  0  0  0  0  0  0  0  0  0
   -0.0548   -1.9243    0.0000 C   0  0  0  0  0  0  0  0  0  0  0  0
   -0.0548    2.3626    0.0000 C   0  0  0  0  0  0  0  0  0  0  0  0
    2.4202   -1.9243    0.0000 C   0  0  0  0  0  0  0  0  0  0  0  0
    3.6577    1.6481    0.0000 C   0  0  0  0  0  0  0  0  0  0  0  0
    1.1827   -1.2098    0.0000 C   0  0  0  0  0  0  0  0  0  0  0  0
    3.6577    0.2192    0.0000 C   0  0  0  0  0  0  0  0  0  0  0  0
   -5.0048    2.3626    0.0000 C   0  0  0  0  0  0  0  0  0  0  0  0
    2.0077   -2.6387    0.0000 C   0  0  0  0  0  0  0  0  0  0  0  0
    4.4827    1.6481    0.0000 C   0  0  0  0  0  0  0  0  0  0  0  0
    0.7702   -0.4953    0.0000 C   0  0  0  0  0  0  0  0  0  0  0  0
    3.2452   -0.4953    0.0000 C   0  0  0  0  0  0  0  0  0  0  0  0
   -5.8298    2.3626    0.0000 C   0  0  0  0  0  0  0  0  0  0  0  0
    2.4202   -3.3532    0.0000 C   0  0  0  0  0  0  0  0  0  0  0  0
    4.8952    2.3626    0.0000 C   0  0  0  0  0  0  0  0  0  0  0  0
    2.0077   -4.0677    0.0000 C   0  0  0  0  0  0  0  0  0  0  0  0
    5.7202    2.3626    0.0000 C   0  0  0  0  0  0  0  0  0  0  0  0
  1 12  1  0  0  0  0
  1 28  1  0  0  0  0
  2 13  1  0  0  0  0
  2 29  1  0  0  0  0
  3 10  2  0  0  0  0
  4  6  2  3  0  0  0
  4  9  1  0  0  0  0
  5 15  1  0  0  0  0
  5 23  1  0  0  0  0
  5 24  1  0  0  0  0
  6  7  1  0  0  0  0
  6 14  1  0  0  0  0
  7  8  1  0  0  0  0
  7 18  2  0  0  0  0
  8 10  1  0  0  0  0
  8 19  2  0  0  0  0
  9 12  2  0  0  0  0
  9 13  1  0  0  0  0
 10 11  1  0  0  0  0
 11 14  2  0  0  0  0
 11 20  1  0  0  0  0
 12 16  1  0  0  0  0
 13 17  2  0  0  0  0
 15 16  2  0  0  0  0
 15 17  1  0  0  0  0
 18 21  1  0  0  0  0
 19 22  1  0  0  0  0
 20 27  1  0  0  0  0
 21 22  2  0  0  0  0
 23 25  1  0  0  0  0
 24 26  1  0  0  0  0
 25 30  1  0  0  0  0
 25 32  1  0  0  0  0
 26 31  1  0  0  0  0
 26 33  1  0  0  0  0
 27 34  1  0  0  0  0
 30 35  1  0  0  0  0
 31 36  1  0  0  0  0
 32 37  1  0  0  0  0
 33 38  1  0  0  0  0
 34 39  1  0  0  0  0
 35 40  1  0  0  0  0
 36 41  1  0  0  0  0
 40 42  1  0  0  0  0
 41 43  1  0  0  0  0
M  END
> <PUBCHEM_COMPOUND_ID_TYPE>
0

> <PUBCHEM_TOTAL_CHARGE>
0

> <PUBCHEM_SUBSTANCE_ID>
310946825

> <PUBCHEM_SUBSTANCE_VERSION>
1

> <PUBCHEM_EXT_DATASOURCE_NAME>
4488

> <PUBCHEM_EXT_DATASOURCE_REGID>
SCHEMBL16124949

> <PUBCHEM_SUBSTANCE_COMMENT>
InChI=1S/C38H56N2O3/c1-8-13-18-28(11-4)26-40(27-29(12-5)19-14-9-2)31-24-35(42-6)37(36(25-31)43-7)39-34-23-30(20-15-10-3)38(41)33-22-17-16-21-32(33)34/h16-17,21-25,28-29H,8-15,18-20,26-27H2,1-7H3
InChIKey=IUMWLJFSCQTVQD-UHFFFAOYSA-N

> <PUBCHEM_SUBSTANCE_SYNONYM>
SCHEMBL16124949

> <PUBCHEM_XREF_EXT_ID>
SCHEMBL16124949

> <PUBCHEM_EXT_DATASOURCE_URL>
https://www.surechembl.org/

> <PUBCHEM_EXT_SUBSTANCE_URL>
https://www.surechembl.org/chemical/SCHEMBL16124949

> <PUBCHEM_CID_ASSOCIATIONS>
117612685  1

> <PUBCHEM_COORDINATE_TYPE>
1
3

$$$$
