310945948
  -OEChem-07211613022D

 38 41  0     1  0  0  0  0  0999 V2000
    3.6370    1.4438    0.0000 O   0  0  0  0  0  0  0  0  0  0  0  0
    1.3819    1.4438    0.0000 O   0  0  0  0  0  0  0  0  0  0  0  0
    0.6669    1.0313    0.0000 O   0  0  0  0  0  0  0  0  0  0  0  0
   -0.0618    1.4438    0.0000 O   0  0  0  0  0  0  0  0  0  0  0  0
   -2.9219   -2.6813    0.0000 O   0  0  0  0  0  0  0  0  0  0  0  0
    1.3819   -0.1925    0.0000 N   0  0  0  0  0  0  0  0  0  0  0  0
   -0.7632    0.2200    0.0000 N   0  0  0  0  0  0  0  0  0  0  0  0
   -2.9219    1.4575    0.0000 N   0  0  0  0  0  0  0  0  0  0  0  0
   -2.1932    2.6813    0.0000 N   0  0  0  0  0  0  0  0  0  0  0  0
   -2.1932    0.2200    0.0000 N   0  0  0  0  0  0  0  0  0  0  0  0
    2.8119    1.4438    0.0000 C   0  0  3  0  0  0  0  0  0  0  0  0
    2.1106    1.0313    0.0000 C   0  0  0  0  0  0  0  0  0  0  0  0
    3.2382    0.7563    0.0000 C   0  0  0  0  0  0  0  0  0  0  0  0
    2.0832    0.2063    0.0000 C   0  0  3  0  0  0  0  0  0  0  0  0
    2.8119    2.2826    0.0000 C   0  0  0  0  0  0  0  0  0  0  0  0
    0.6669    0.1925    0.0000 C   0  0  0  0  0  0  0  0  0  0  0  0
    2.8257   -0.2063    0.0000 C   0  0  0  0  0  0  0  0  0  0  0  0
   -0.0481   -0.1925    0.0000 C   0  0  3  0  0  0  0  0  0  0  0  0
   -1.4919    1.4575    0.0000 C   0  0  0  0  0  0  0  0  0  0  0  0
    2.8119   -1.0175    0.0000 C   0  0  0  0  0  0  0  0  0  0  0  0
   -0.7769    1.0313    0.0000 C   0  0  0  0  0  0  0  0  0  0  0  0
   -0.0618   -1.0313    0.0000 C   0  0  0  0  0  0  0  0  0  0  0  0
   -2.1932    1.0450    0.0000 C   0  0  0  0  0  0  0  0  0  0  0  0
   -0.7632   -1.4300    0.0000 C   0  0  0  0  0  0  0  0  0  0  0  0
   -1.4782    2.2688    0.0000 C   0  0  0  0  0  0  0  0  0  0  0  0
   -2.9082    2.2826    0.0000 C   0  0  0  0  0  0  0  0  0  0  0  0
    3.5270   -1.4300    0.0000 C   0  0  0  0  0  0  0  0  0  0  0  0
    2.0969   -1.4438    0.0000 C   0  0  0  0  0  0  0  0  0  0  0  0
   -1.4919   -1.0313    0.0000 C   0  0  0  0  0  0  0  0  0  0  0  0
   -0.7769   -2.2550    0.0000 C   0  0  0  0  0  0  0  0  0  0  0  0
   -2.2069   -2.2550    0.0000 C   0  0  0  0  0  0  0  0  0  0  0  0
   -2.1932   -1.4300    0.0000 C   0  0  0  0  0  0  0  0  0  0  0  0
   -1.4919   -2.6538    0.0000 C   0  0  0  0  0  0  0  0  0  0  0  0
    3.5270   -2.2550    0.0000 C   0  0  0  0  0  0  0  0  0  0  0  0
    2.0969   -2.2413    0.0000 C   0  0  0  0  0  0  0  0  0  0  0  0
    2.8119   -2.6538    0.0000 C   0  0  0  0  0  0  0  0  0  0  0  0
   -3.6370    2.6675    0.0000 C   0  0  0  0  0  0  0  0  0  0  0  0
   -3.6370   -2.2688    0.0000 C   0  0  0  0  0  0  0  0  0  0  0  0
  1 11  1  0  0  0  0
  1 13  1  0  0  0  0
  2 12  2  0  0  0  0
  3 16  2  0  0  0  0
  4 21  2  0  0  0  0
  5 31  1  0  0  0  0
  5 38  1  0  0  0  0
  6 14  1  0  0  0  0
  6 16  1  0  0  0  0
  7 18  1  0  0  0  0
  7 21  1  0  0  0  0
  8 23  2  0  0  0  0
  8 26  1  0  0  0  0
  9 25  1  0  0  0  0
  9 26  2  0  0  0  0
 10 23  1  0  0  0  0
 11 12  1  0  0  0  0
 11 13  1  0  0  0  0
 11 15  1  0  0  0  0
 12 14  1  0  0  0  0
 14 17  1  0  0  0  0
 16 18  1  0  0  0  0
 17 20  1  0  0  0  0
 18 22  1  0  0  0  0
 19 21  1  0  0  0  0
 19 23  1  0  0  0  0
 19 25  2  0  0  0  0
 20 27  2  0  0  0  0
 20 28  1  0  0  0  0
 22 24  1  0  0  0  0
 24 29  2  0  0  0  0
 24 30  1  0  0  0  0
 26 37  1  0  0  0  0
 27 34  1  0  0  0  0
 28 35  2  0  0  0  0
 29 32  1  0  0  0  0
 30 33  2  0  0  0  0
 31 32  2  0  0  0  0
 31 33  1  0  0  0  0
 34 36  2  0  0  0  0
 35 36  1  0  0  0  0
M  END
> <PUBCHEM_COMPOUND_ID_TYPE>
0

> <PUBCHEM_TOTAL_CHARGE>
0

> <PUBCHEM_SUBSTANCE_ID>
310945948

> <PUBCHEM_SUBSTANCE_VERSION>
1

> <PUBCHEM_EXT_DATASOURCE_NAME>
4488

> <PUBCHEM_EXT_DATASOURCE_REGID>
SCHEMBL16124053

> <PUBCHEM_SUBSTANCE_COMMENT>
InChI=1S/C28H31N5O5/c1-17-30-15-21(25(29)31-17)26(35)33-23(14-19-9-11-20(37-3)12-10-19)27(36)32-22(24(34)28(2)16-38-28)13-18-7-5-4-6-8-18/h4-12,15,22-23H,13-14,16H2,1-3H3,(H,32,36)(H,33,35)(H2,29,30,31)
InChIKey=INUDRPAANGJBDB-UHFFFAOYSA-N

> <PUBCHEM_SUBSTANCE_SYNONYM>
SCHEMBL16124053

> <PUBCHEM_XREF_EXT_ID>
SCHEMBL16124053

> <PUBCHEM_EXT_DATASOURCE_URL>
https://www.surechembl.org/

> <PUBCHEM_EXT_SUBSTANCE_URL>
https://www.surechembl.org/chemical/SCHEMBL16124053

> <PUBCHEM_CID_ASSOCIATIONS>
117611930  1

> <PUBCHEM_COORDINATE_TYPE>
1
3

$$$$
