310929179
  -OEChem-07211613022D

 59 64  0     1  0  0  0  0  0999 V2000
    0.7126   -2.4941    0.0000 S   0  0  0  0  0  0  0  0  0  0  0  0
    3.5630   -2.4941    0.0000 O   0  0  0  0  0  0  0  0  0  0  0  0
    0.2375   -1.7815    0.0000 O   0  0  0  0  0  0  0  0  0  0  0  0
    1.0689   -3.2068    0.0000 O   0  0  0  0  0  0  0  0  0  0  0  0
    7.0667   -1.1877    0.0000 O   0  0  0  0  0  0  0  0  0  0  0  0
    4.9883   -4.1568    0.0000 O   0  0  0  0  0  0  0  0  0  0  0  0
   11.3424   -3.6224    0.0000 O   0  0  0  0  0  0  0  0  0  0  0  0
   12.7675   -0.3563    0.0000 O   0  0  0  0  0  0  0  0  0  0  0  0
   17.8152   -2.4348    0.0000 O   0  0  0  0  0  0  0  0  0  0  0  0
    1.4252   -2.0785    0.0000 N   0  0  0  0  0  0  0  0  0  0  0  0
    3.5630   -4.1568    0.0000 N   0  0  0  0  0  0  0  0  0  0  0  0
    4.2756   -2.9098    0.0000 N   0  0  0  0  0  0  0  0  0  0  0  0
    9.9171   -1.1877    0.0000 N   0  0  0  0  0  0  0  0  0  0  0  0
    9.2639   -2.3753    0.0000 N   0  0  0  0  0  0  0  0  0  0  0  0
   13.5395   -1.6033    0.0000 N   0  0  0  0  0  0  0  0  0  0  0  0
   16.3900   -1.6033    0.0000 N   0  0  0  0  0  0  0  0  0  0  0  0
    2.1378   -2.4941    0.0000 C   0  0  3  0  0  0  0  0  0  0  0  0
    2.8504   -2.9098    0.0000 C   0  0  3  0  0  0  0  0  0  0  0  0
    2.0785   -1.6628    0.0000 C   0  0  0  0  0  0  0  0  0  0  0  0
    2.8504   -3.7412    0.0000 C   0  0  0  0  0  0  0  0  0  0  0  0
    1.4252   -2.9098    0.0000 C   0  0  0  0  0  0  0  0  0  0  0  0
    2.1378   -4.1568    0.0000 C   0  0  0  0  0  0  0  0  0  0  0  0
    1.4252   -3.7412    0.0000 C   0  0  0  0  0  0  0  0  0  0  0  0
    2.9692   -1.6628    0.0000 C   0  0  0  0  0  0  0  0  0  0  0  0
    2.0785   -0.8314    0.0000 C   0  0  0  0  0  0  0  0  0  0  0  0
    1.3065   -1.6628    0.0000 C   0  0  0  0  0  0  0  0  0  0  0  0
    4.2756   -3.7412    0.0000 C   0  0  0  0  0  0  0  0  0  0  0  0
    4.9883   -1.6628    0.0000 C   0  0  0  0  0  0  0  0  0  0  0  0
    4.9883   -2.4941    0.0000 C   0  0  0  0  0  0  0  0  0  0  0  0
    5.6415   -1.2470    0.0000 C   0  0  0  0  0  0  0  0  0  0  0  0
    0.0000   -2.9098    0.0000 C   0  0  0  0  0  0  0  0  0  0  0  0
    6.3541   -1.6628    0.0000 C   0  0  0  0  0  0  0  0  0  0  0  0
    3.5036   -1.6628    0.0000 C   0  0  0  0  0  0  0  0  0  0  0  0
    5.7008   -2.8504    0.0000 C   0  0  0  0  0  0  0  0  0  0  0  0
    6.4135   -2.4941    0.0000 C   0  0  0  0  0  0  0  0  0  0  0  0
    4.2163   -1.2470    0.0000 C   0  0  0  0  0  0  0  0  0  0  0  0
    5.6415   -0.4157    0.0000 C   0  0  0  0  0  0  0  0  0  0  0  0
    7.8386   -1.6033    0.0000 C   0  0  0  0  0  0  0  0  0  0  0  0
    4.2163   -0.4750    0.0000 C   0  0  0  0  0  0  0  0  0  0  0  0
    4.9288    0.0000    0.0000 C   0  0  0  0  0  0  0  0  0  0  0  0
    8.4919   -1.1283    0.0000 C   0  0  0  0  0  0  0  0  0  0  0  0
    9.2045   -1.6033    0.0000 C   0  0  0  0  0  0  0  0  0  0  0  0
    7.8386   -2.3753    0.0000 C   0  0  0  0  0  0  0  0  0  0  0  0
   10.6297   -1.6033    0.0000 C   0  0  0  0  0  0  0  0  0  0  0  0
   12.0549   -1.6033    0.0000 C   0  0  0  0  0  0  0  0  0  0  0  0
   11.3424   -1.1877    0.0000 C   0  0  0  0  0  0  0  0  0  0  0  0
    8.5513   -2.8504    0.0000 C   0  0  0  0  0  0  0  0  0  0  0  0
   11.3424   -2.7910    0.0000 C   0  0  0  0  0  0  0  0  0  0  0  0
   10.6297   -2.3753    0.0000 C   0  0  0  0  0  0  0  0  0  0  0  0
   12.0549   -2.3753    0.0000 C   0  0  0  0  0  0  0  0  0  0  0  0
   12.7675   -1.1877    0.0000 C   0  0  0  0  0  0  0  0  0  0  0  0
   14.2522   -1.1877    0.0000 C   0  0  0  0  0  0  0  0  0  0  0  0
   12.1143   -4.0381    0.0000 C   0  0  0  0  0  0  0  0  0  0  0  0
   14.9647   -1.6033    0.0000 C   0  0  0  0  0  0  0  0  0  0  0  0
   15.6774   -1.1877    0.0000 C   0  0  0  0  0  0  0  0  0  0  0  0
   17.1025   -1.1283    0.0000 C   0  0  0  0  0  0  0  0  0  0  0  0
   16.3900   -2.3753    0.0000 C   0  0  0  0  0  0  0  0  0  0  0  0
   17.8152   -1.6033    0.0000 C   0  0  0  0  0  0  0  0  0  0  0  0
   17.1025   -2.7910    0.0000 C   0  0  0  0  0  0  0  0  0  0  0  0
  1  3  2  0  0  0  0
  1  4  2  0  0  0  0
  1 10  1  0  0  0  0
  1 31  1  0  0  0  0
  2 18  1  0  0  0  0
  2 33  1  0  0  0  0
  5 32  1  0  0  0  0
  5 38  1  0  0  0  0
  6 27  2  0  0  0  0
  7 48  1  0  0  0  0
  7 53  1  0  0  0  0
  8 51  2  0  0  0  0
  9 58  1  0  0  0  0
  9 59  1  0  0  0  0
 10 17  1  0  0  0  0
 11 20  1  0  0  0  0
 11 27  1  0  0  0  0
 12 27  1  0  0  0  0
 12 29  1  0  0  0  0
 13 42  1  0  0  0  0
 13 44  1  0  0  0  0
 14 42  1  0  0  0  0
 14 47  2  0  0  0  0
 15 51  1  0  0  0  0
 15 52  1  0  0  0  0
 16 55  1  0  0  0  0
 16 56  1  0  0  0  0
 16 57  1  0  0  0  0
 17 18  1  0  0  0  0
 17 19  1  0  0  0  0
 17 21  1  0  0  0  0
 18 20  1  0  0  0  0
 19 24  1  0  0  0  0
 19 25  1  0  0  0  0
 19 26  1  0  0  0  0
 20 22  2  0  0  0  0
 21 23  2  0  0  0  0
 22 23  1  0  0  0  0
 28 29  1  0  0  0  0
 28 30  2  0  0  0  0
 28 36  1  0  0  0  0
 29 34  2  0  0  0  0
 30 32  1  0  0  0  0
 30 37  1  0  0  0  0
 32 35  2  0  0  0  0
 34 35  1  0  0  0  0
 36 39  2  0  0  0  0
 37 40  2  0  0  0  0
 38 41  1  0  0  0  0
 38 43  2  0  0  0  0
 39 40  1  0  0  0  0
 41 42  2  0  0  0  0
 43 47  1  0  0  0  0
 44 46  1  0  0  0  0
 44 49  2  0  0  0  0
 45 46  2  0  0  0  0
 45 50  1  0  0  0  0
 45 51  1  0  0  0  0
 48 49  1  0  0  0  0
 48 50  2  0  0  0  0
 52 54  1  0  0  0  0
 54 55  1  0  0  0  0
 56 58  1  0  0  0  0
 57 59  1  0  0  0  0
M  END
> <PUBCHEM_COMPOUND_ID_TYPE>
0

> <PUBCHEM_TOTAL_CHARGE>
0

> <PUBCHEM_SUBSTANCE_ID>
310929179

> <PUBCHEM_SUBSTANCE_VERSION>
1

> <PUBCHEM_EXT_DATASOURCE_NAME>
4488

> <PUBCHEM_EXT_DATASOURCE_REGID>
SCHEMBL16106342

> <PUBCHEM_SUBSTANCE_COMMENT>
InChI=1S/C43H53N7O8S/c1-42(2,3)43(49-59(6,53)54)17-9-13-36(39(43)56-5)48-41(52)47-35-14-15-37(34-12-8-7-11-33(34)35)58-31-16-19-44-38(28-31)46-30-25-29(26-32(27-30)55-4)40(51)45-18-10-20-50-21-23-57-24-22-50/h7-9,11-17,19,25-28,39,49H,10,18,20-24H2,1-6H3,(H,44,46)(H,45,51)(H2,47,48,52)
InChIKey=TYAHTAYQXHBLHI-UHFFFAOYSA-N

> <PUBCHEM_SUBSTANCE_SYNONYM>
SCHEMBL16106342

> <PUBCHEM_XREF_EXT_ID>
SCHEMBL16106342

> <PUBCHEM_EXT_DATASOURCE_URL>
https://www.surechembl.org/

> <PUBCHEM_EXT_SUBSTANCE_URL>
https://www.surechembl.org/chemical/SCHEMBL16106342

> <PUBCHEM_CID_ASSOCIATIONS>
117598636  1

> <PUBCHEM_COORDINATE_TYPE>
1
3

$$$$
