310934762
  -OEChem-07211613022D

 39 44  0     1  0  0  0  0  0999 V2000
    3.7750   -4.2443    0.0000 F   0  0  0  0  0  0  0  0  0  0  0  0
    4.6663   -8.4374    0.0000 O   0  0  0  0  0  0  0  0  0  0  0  0
    5.7282   -7.4812    0.0000 O   0  0  0  0  0  0  0  0  0  0  0  0
   -0.3020   -2.9196    0.0000 N   0  0  0  0  0  0  0  0  0  0  0  0
    3.2652   -5.8135    0.0000 N   0  0  3  0  0  0  0  0  0  0  0  0
    0.7599   -1.9634    0.0000 N   0  0  0  0  0  0  0  0  0  0  0  0
   -1.1270   -2.9196    0.0000 N   0  0  0  0  0  0  0  0  0  0  0  0
    4.3693   -7.0397    0.0000 N   0  0  0  0  0  0  0  0  0  0  0  0
    0.7144    0.8250    0.0000 N   0  0  0  0  0  0  0  0  0  0  0  0
   -0.0470   -2.1349    0.0000 C   0  0  0  0  0  0  0  0  0  0  0  0
   -0.7144   -1.6500    0.0000 C   0  0  0  0  0  0  0  0  0  0  0  0
   -0.7144   -0.8250    0.0000 C   0  0  0  0  0  0  0  0  0  0  0  0
    2.7131   -5.2004    0.0000 C   0  0  0  0  0  0  0  0  0  0  0  0
    1.0571   -3.3611    0.0000 C   0  0  0  0  0  0  0  0  0  0  0  0
    3.0102   -6.5981    0.0000 C   0  0  3  0  0  0  0  0  0  0  0  0
    1.6090   -3.9742    0.0000 C   0  0  0  0  0  0  0  0  0  0  0  0
    0.0000   -0.4125    0.0000 C   0  0  0  0  0  0  0  0  0  0  0  0
    0.2500   -3.5327    0.0000 C   0  0  0  0  0  0  0  0  0  0  0  0
   -1.3819   -2.1349    0.0000 C   0  0  0  0  0  0  0  0  0  0  0  0
    2.9681   -4.4158    0.0000 C   0  0  0  0  0  0  0  0  0  0  0  0
    2.2033   -6.7697    0.0000 C   0  0  0  0  0  0  0  0  0  0  0  0
    1.3120   -2.5765    0.0000 C   0  0  0  0  0  0  0  0  0  0  0  0
    2.4160   -3.8027    0.0000 C   0  0  0  0  0  0  0  0  0  0  0  0
    0.0000    0.4125    0.0000 C   0  0  0  0  0  0  0  0  0  0  0  0
    1.9062   -5.3719    0.0000 C   0  0  0  0  0  0  0  0  0  0  0  0
    1.3541   -4.7588    0.0000 C   0  0  0  0  0  0  0  0  0  0  0  0
    3.5622   -7.2112    0.0000 C   0  0  0  0  0  0  0  0  0  0  0  0
    4.0721   -5.6419    0.0000 C   0  0  0  0  0  0  0  0  0  0  0  0
   -1.4290   -0.4125    0.0000 C   0  0  0  0  0  0  0  0  0  0  0  0
    4.6242   -6.2550    0.0000 C   0  0  0  0  0  0  0  0  0  0  0  0
    0.7144   -0.8250    0.0000 C   0  0  0  0  0  0  0  0  0  0  0  0
   -0.7144    0.8250    0.0000 C   0  0  0  0  0  0  0  0  0  0  0  0
   -1.4290    0.4125    0.0000 C   0  0  0  0  0  0  0  0  0  0  0  0
    4.9212   -7.6528    0.0000 C   0  0  0  0  0  0  0  0  0  0  0  0
    1.9897   -7.5665    0.0000 C   0  0  0  0  0  0  0  0  0  0  0  0
    1.4064   -6.9832    0.0000 C   0  0  0  0  0  0  0  0  0  0  0  0
    1.6199   -6.1863    0.0000 C   0  0  0  0  0  0  0  0  0  0  0  0
    1.4290   -0.4125    0.0000 C   0  0  0  0  0  0  0  0  0  0  0  0
    1.4290    0.4125    0.0000 C   0  0  0  0  0  0  0  0  0  0  0  0
  1 20  1  0  0  0  0
  2 34  2  0  0  0  0
  3 34  1  0  0  0  0
  4  7  1  0  0  0  0
  4 10  1  0  0  0  0
  4 18  1  0  0  0  0
  5 13  1  0  0  0  0
  5 15  1  0  0  0  0
  5 28  1  0  0  0  0
  6 10  1  0  0  0  0
  6 22  2  0  0  0  0
  7 19  2  0  0  0  0
  8 27  1  0  0  0  0
  8 30  1  0  0  0  0
  8 34  1  0  0  0  0
  9 24  1  0  0  0  0
  9 39  2  0  0  0  0
 10 11  2  0  0  0  0
 11 12  1  0  0  0  0
 11 19  1  0  0  0  0
 12 17  2  0  0  0  0
 12 29  1  0  0  0  0
 13 20  1  0  0  0  0
 13 25  2  0  0  0  0
 14 16  1  0  0  0  0
 14 18  2  0  0  0  0
 14 22  1  0  0  0  0
 15 21  1  0  0  0  0
 15 27  1  0  0  0  0
 16 23  1  0  0  0  0
 16 26  2  0  0  0  0
 17 24  1  0  0  0  0
 17 31  1  0  0  0  0
 20 23  2  0  0  0  0
 21 35  1  0  0  0  0
 21 36  1  0  0  0  0
 21 37  1  0  0  0  0
 24 32  2  0  0  0  0
 25 26  1  0  0  0  0
 28 30  1  0  0  0  0
 29 33  2  0  0  0  0
 31 38  2  0  0  0  0
 32 33  1  0  0  0  0
 38 39  1  0  0  0  0
M  END
> <PUBCHEM_COMPOUND_ID_TYPE>
0

> <PUBCHEM_TOTAL_CHARGE>
0

> <PUBCHEM_SUBSTANCE_ID>
310934762

> <PUBCHEM_SUBSTANCE_VERSION>
1

> <PUBCHEM_EXT_DATASOURCE_NAME>
4488

> <PUBCHEM_EXT_DATASOURCE_REGID>
SCHEMBL16112264

> <PUBCHEM_SUBSTANCE_COMMENT>
InChI=1S/C30H29FN6O2/c1-30(2,3)27-18-35(29(38)39)12-13-36(27)26-10-9-19(14-24(26)31)20-15-33-28-23(16-34-37(28)17-20)21-6-4-8-25-22(21)7-5-11-32-25/h4-11,14-17,27H,12-13,18H2,1-3H3,(H,38,39)
InChIKey=CXLNRFFTPMJGFO-UHFFFAOYSA-N

> <PUBCHEM_SUBSTANCE_SYNONYM>
SCHEMBL16112264

> <PUBCHEM_XREF_EXT_ID>
SCHEMBL16112264

> <PUBCHEM_EXT_DATASOURCE_URL>
https://www.surechembl.org/

> <PUBCHEM_EXT_SUBSTANCE_URL>
https://www.surechembl.org/chemical/SCHEMBL16112264

> <PUBCHEM_CID_ASSOCIATIONS>
117602912  1

> <PUBCHEM_COORDINATE_TYPE>
1
3

$$$$
