310945626
  -OEChem-07211613022D

 31 32  0     1  0  0  0  0  0999 V2000
    1.6973    0.0536    0.0000 N   0  0  0  0  0  0  0  0  0  0  0  0
   -1.8402   -0.0178    0.0000 N   0  0  0  0  0  0  0  0  0  0  0  0
   -0.0893    1.0898    0.0000 N   0  0  0  0  0  0  0  0  0  0  0  0
   -2.4834   -0.6610    0.0000 C   0  0  0  0  0  0  0  0  0  0  0  0
    2.4834   -0.6432    0.0000 C   0  0  0  0  0  0  0  0  0  0  0  0
   -3.2874   -0.4467    0.0000 C   0  0  0  0  0  0  0  0  0  0  0  0
    2.2869   -1.4293    0.0000 C   0  0  0  0  0  0  0  0  0  0  0  0
   -2.2690   -1.4293    0.0000 C   0  0  0  0  0  0  0  0  0  0  0  0
    3.2338   -0.3930    0.0000 C   0  0  0  0  0  0  0  0  0  0  0  0
   -3.8234   -1.0362    0.0000 C   0  0  0  0  0  0  0  0  0  0  0  0
    2.8944   -1.9831    0.0000 C   0  0  0  0  0  0  0  0  0  0  0  0
   -2.8228   -2.0367    0.0000 C   0  0  0  0  0  0  0  0  0  0  0  0
    3.8412   -0.9469    0.0000 C   0  0  0  0  0  0  0  0  0  0  0  0
   -3.6090   -1.7866    0.0000 C   0  0  0  0  0  0  0  0  0  0  0  0
    3.6447   -1.7330    0.0000 C   0  0  0  0  0  0  0  0  0  0  0  0
   -3.5018    0.3574    0.0000 C   0  0  0  0  0  0  0  0  0  0  0  0
    1.5186   -1.7152    0.0000 C   0  0  0  0  0  0  0  0  0  0  0  0
   -1.4293   -1.6079    0.0000 C   0  0  0  0  0  0  0  0  0  0  0  0
    3.4125    0.4109    0.0000 C   0  0  0  0  0  0  0  0  0  0  0  0
   -4.6452   -0.8575    0.0000 C   0  0  0  0  0  0  0  0  0  0  0  0
    2.7157   -2.8050    0.0000 C   0  0  0  0  0  0  0  0  0  0  0  0
   -2.5727   -2.8050    0.0000 C   0  0  0  0  0  0  0  0  0  0  0  0
    4.6452   -0.7146    0.0000 C   0  0  0  0  0  0  0  0  0  0  0  0
   -4.1986   -2.4119    0.0000 C   0  0  0  0  0  0  0  0  0  0  0  0
    4.2700   -2.3047    0.0000 C   0  0  0  0  0  0  0  0  0  0  0  0
    1.6973    1.1792    0.0000 C   0  0  0  0  0  0  0  0  0  0  0  0
   -1.8581    1.0541    0.0000 C   0  0  0  0  0  0  0  0  0  0  0  0
    0.7504    1.6973    0.0000 C   0  0  3  0  0  0  0  0  0  0  0  0
   -0.9648    1.6615    0.0000 C   0  0  3  0  0  0  0  0  0  0  0  0
    0.6968    2.7693    0.0000 C   0  0  0  0  0  0  0  0  0  0  0  0
   -0.9648    2.8050    0.0000 C   0  0  0  0  0  0  0  0  0  0  0  0
  1  5  1  0  0  0  0
  1 26  1  0  0  0  0
  2  4  1  0  0  0  0
  2 27  1  0  0  0  0
  3 28  1  0  0  0  0
  3 29  1  0  0  0  0
  4  6  2  0  0  0  0
  4  8  1  0  0  0  0
  5  7  2  0  0  0  0
  5  9  1  0  0  0  0
  6 10  1  0  0  0  0
  6 16  1  0  0  0  0
  7 11  1  0  0  0  0
  7 17  1  0  0  0  0
  8 12  2  0  0  0  0
  8 18  1  0  0  0  0
  9 13  2  0  0  0  0
  9 19  1  0  0  0  0
 10 14  2  0  0  0  0
 10 20  1  0  0  0  0
 11 15  2  0  0  0  0
 11 21  1  0  0  0  0
 12 14  1  0  0  0  0
 12 22  1  0  0  0  0
 13 15  1  0  0  0  0
 13 23  1  0  0  0  0
 14 24  1  0  0  0  0
 15 25  1  0  0  0  0
 26 28  1  0  0  0  0
 27 29  1  0  0  0  0
 28 30  1  0  0  0  0
 29 31  1  0  0  0  0
M  END
> <PUBCHEM_COMPOUND_ID_TYPE>
0

> <PUBCHEM_TOTAL_CHARGE>
0

> <PUBCHEM_SUBSTANCE_ID>
310945626

> <PUBCHEM_SUBSTANCE_VERSION>
1

> <PUBCHEM_EXT_DATASOURCE_NAME>
4488

> <PUBCHEM_EXT_DATASOURCE_REGID>
SCHEMBL16123725

> <PUBCHEM_SUBSTANCE_COMMENT>
InChI=1S/C28H45N3/c1-15(13-29-27-23(9)19(5)17(3)20(6)24(27)10)31-16(2)14-30-28-25(11)21(7)18(4)22(8)26(28)12/h15-16,29-31H,13-14H2,1-12H3
InChIKey=MAMBMPJDEBNUBP-UHFFFAOYSA-N

> <PUBCHEM_SUBSTANCE_SYNONYM>
SCHEMBL16123725

> <PUBCHEM_XREF_EXT_ID>
SCHEMBL16123725

> <PUBCHEM_EXT_DATASOURCE_URL>
https://www.surechembl.org/

> <PUBCHEM_EXT_SUBSTANCE_URL>
https://www.surechembl.org/chemical/SCHEMBL16123725

> <PUBCHEM_CID_ASSOCIATIONS>
117611641  1

> <PUBCHEM_COORDINATE_TYPE>
1
3

$$$$
