310947027
  -OEChem-07211613022D

 17 17  0     1  0  0  0  0  0999 V2000
   -2.5193    0.0952    0.0000 O   0  0  0  0  0  0  0  0  0  0  0  0
   -3.8140   -0.3364    0.0000 O   0  0  0  0  0  0  0  0  0  0  0  0
    2.6082   -1.1740    0.0000 O   0  0  0  0  0  0  0  0  0  0  0  0
    4.0297   -1.1359    0.0000 O   0  0  0  0  0  0  0  0  0  0  0  0
   -3.3063    0.3617    0.0000 C   0  0  0  0  0  0  0  0  0  0  0  0
   -2.5193   -0.7552    0.0000 C   0  0  3  0  0  0  0  0  0  0  0  0
   -3.2935   -1.0090    0.0000 C   0  0  0  0  0  0  0  0  0  0  0  0
   -1.7578   -1.1740    0.0000 C   0  0  0  0  0  0  0  0  0  0  0  0
   -3.3063    1.1867    0.0000 C   0  0  0  0  0  0  0  0  0  0  0  0
   -4.0297    0.7678    0.0000 C   0  0  0  0  0  0  0  0  0  0  0  0
   -1.0471   -0.7678    0.0000 C   0  0  0  0  0  0  0  0  0  0  0  0
   -0.2856   -1.1867    0.0000 C   0  0  0  0  0  0  0  0  0  0  0  0
    0.4125   -0.7552    0.0000 C   0  0  0  0  0  0  0  0  0  0  0  0
    1.1740   -1.1740    0.0000 C   0  0  0  0  0  0  0  0  0  0  0  0
    3.3570   -0.7425    0.0000 C   0  0  0  0  0  0  0  0  0  0  0  0
    1.8848   -0.7552    0.0000 C   0  0  0  0  0  0  0  0  0  0  0  0
    3.3316    0.0698    0.0000 C   0  0  0  0  0  0  0  0  0  0  0  0
  1  5  1  0  0  0  0
  1  6  1  0  0  0  0
  2  5  1  0  0  0  0
  2  7  1  0  0  0  0
  3 15  1  0  0  0  0
  3 16  1  0  0  0  0
  4 15  2  0  0  0  0
  5  9  1  0  0  0  0
  5 10  1  0  0  0  0
  6  7  1  0  0  0  0
  6  8  1  0  0  0  0
  8 11  2  0  0  0  0
 11 12  1  0  0  0  0
 12 13  1  0  0  0  0
 13 14  1  0  0  0  0
 14 16  1  0  0  0  0
 15 17  1  0  0  0  0
M  END
> <PUBCHEM_COMPOUND_ID_TYPE>
0

> <PUBCHEM_TOTAL_CHARGE>
0

> <PUBCHEM_SUBSTANCE_ID>
310947027

> <PUBCHEM_SUBSTANCE_VERSION>
1

> <PUBCHEM_EXT_DATASOURCE_NAME>
4488

> <PUBCHEM_EXT_DATASOURCE_REGID>
SCHEMBL16125180

> <PUBCHEM_SUBSTANCE_COMMENT>
InChI=1S/C13H22O4/c1-11(14)15-9-7-5-4-6-8-12-10-16-13(2,3)17-12/h6,8,12H,4-5,7,9-10H2,1-3H3/b8-6+
InChIKey=YCQARLLGRVSISK-SOFGYWHQSA-N

> <PUBCHEM_SUBSTANCE_SYNONYM>
SCHEMBL16125180

> <PUBCHEM_XREF_EXT_ID>
SCHEMBL16125180

> <PUBCHEM_EXT_DATASOURCE_URL>
https://www.surechembl.org/

> <PUBCHEM_EXT_SUBSTANCE_URL>
https://www.surechembl.org/chemical/SCHEMBL16125180

> <PUBCHEM_CID_ASSOCIATIONS>
58918247  1

> <PUBCHEM_COORDINATE_TYPE>
1
3

> <PUBCHEM_BONDANNOTATIONS>
12  11  3

$$$$
