310940923
  -OEChem-07211613022D

 11 11  0     1  0  0  0  0  0999 V2000
    2.1403    0.7460    0.0000 I   0  0  0  0  0  0  0  0  0  0  0  0
   -2.1403    0.8157    0.0000 O   0  0  0  0  0  0  0  0  0  0  0  0
    1.4850   -0.4392    0.0000 O   0  0  0  0  0  0  0  0  0  0  0  0
    0.0348    0.3973    0.0000 N   0  0  3  0  0  0  0  0  0  0  0  0
   -1.4152   -0.4392    0.0000 N   0  0  0  0  0  0  0  0  0  0  0  0
   -0.7181    0.8296    0.0000 C   0  0  0  0  0  0  0  0  0  0  0  0
   -1.4013    0.4113    0.0000 C   0  0  0  0  0  0  0  0  0  0  0  0
    0.7320    0.8296    0.0000 C   0  0  0  0  0  0  0  0  0  0  0  0
    0.0348   -0.4113    0.0000 C   0  0  0  0  0  0  0  0  0  0  0  0
    1.4850    0.4392    0.0000 C   0  0  0  0  0  0  0  0  0  0  0  0
   -0.6763   -0.8296    0.0000 C   0  0  0  0  0  0  0  0  0  0  0  0
  1 10  1  0  0  0  0
  2  7  2  0  0  0  0
  3 10  2  0  0  0  0
  4  6  1  0  0  0  0
  4  8  1  0  0  0  0
  4  9  1  0  0  0  0
  5  7  1  0  0  0  0
  5 11  1  0  0  0  0
  6  7  1  0  0  0  0
  8 10  1  0  0  0  0
  9 11  1  0  0  0  0
M  END
> <PUBCHEM_COMPOUND_ID_TYPE>
0

> <PUBCHEM_TOTAL_CHARGE>
0

> <PUBCHEM_SUBSTANCE_ID>
310940923

> <PUBCHEM_SUBSTANCE_VERSION>
1

> <PUBCHEM_EXT_DATASOURCE_NAME>
4488

> <PUBCHEM_EXT_DATASOURCE_REGID>
SCHEMBL16118882

> <PUBCHEM_SUBSTANCE_COMMENT>
InChI=1S/C6H9IN2O2/c7-5(10)3-9-2-1-8-6(11)4-9/h1-4H2,(H,8,11)
InChIKey=VZZJRDUTTVGNBQ-UHFFFAOYSA-N

> <PUBCHEM_SUBSTANCE_SYNONYM>
SCHEMBL16118882

> <PUBCHEM_XREF_EXT_ID>
SCHEMBL16118882

> <PUBCHEM_EXT_DATASOURCE_URL>
https://www.surechembl.org/

> <PUBCHEM_EXT_SUBSTANCE_URL>
https://www.surechembl.org/chemical/SCHEMBL16118882

> <PUBCHEM_CID_ASSOCIATIONS>
117607832  1

> <PUBCHEM_COORDINATE_TYPE>
1
3

$$$$
