310934214
  -OEChem-07211613022D

 51 56  0     1  0  0  0  0  0999 V2000
    9.0854   -0.5938    0.0000 Cl  0  0  0  0  0  0  0  0  0  0  0  0
    8.4322   -2.0784    0.0000 F   0  0  0  0  0  0  0  0  0  0  0  0
    4.3943   -3.2066    0.0000 O   0  0  0  0  0  0  0  0  0  0  0  0
    6.5914   -3.6817    0.0000 O   0  0  0  0  0  0  0  0  0  0  0  0
    1.4846   -8.1947    0.0000 O   0  0  0  0  0  0  0  0  0  0  0  0
   10.1543   -2.4347    0.0000 O   0  0  0  0  0  0  0  0  0  0  0  0
   10.8668   -3.6817    0.0000 O   0  0  0  0  0  0  0  0  0  0  0  0
    5.1068   -4.5130    0.0000 N   0  0  0  0  0  0  0  0  0  0  0  0
    6.7695   -2.2565    0.0000 N   0  0  0  0  0  0  0  0  0  0  0  0
    6.7695   -3.8004    0.0000 N   0  0  0  0  0  0  0  0  0  0  0  0
    7.3040   -4.9287    0.0000 N   0  0  0  0  0  0  0  0  0  0  0  0
    7.1852   -2.9691    0.0000 N   0  0  0  0  0  0  0  0  0  0  0  0
    2.1971   -9.4417    0.0000 N   0  0  0  0  0  0  0  0  0  0  0  0
    0.7126  -11.0450    0.0000 N   0  0  0  0  0  0  0  0  0  0  0  0
    5.8194   -4.9287    0.0000 C   0  0  3  0  0  0  0  0  0  0  0  0
    5.8194   -5.7600    0.0000 C   0  0  0  0  0  0  0  0  0  0  0  0
    5.1068   -6.1757    0.0000 C   0  0  0  0  0  0  0  0  0  0  0  0
    5.1068   -7.0070    0.0000 C   0  0  0  0  0  0  0  0  0  0  0  0
    5.1068   -3.6817    0.0000 C   0  0  0  0  0  0  0  0  0  0  0  0
    6.5914   -4.5130    0.0000 C   0  0  0  0  0  0  0  0  0  0  0  0
    4.3943   -4.9287    0.0000 C   0  0  0  0  0  0  0  0  0  0  0  0
    4.3943   -5.7600    0.0000 C   0  0  0  0  0  0  0  0  0  0  0  0
    5.8788   -3.2660    0.0000 C   0  0  0  0  0  0  0  0  0  0  0  0
    6.5320   -6.1757    0.0000 C   0  0  0  0  0  0  0  0  0  0  0  0
    4.3943   -7.3633    0.0000 C   0  0  0  0  0  0  0  0  0  0  0  0
    5.8194   -7.4227    0.0000 C   0  0  0  0  0  0  0  0  0  0  0  0
    5.9382   -2.4347    0.0000 C   0  0  0  0  0  0  0  0  0  0  0  0
    6.5320   -7.0070    0.0000 C   0  0  0  0  0  0  0  0  0  0  0  0
    7.0664   -1.4846    0.0000 C   0  0  0  0  0  0  0  0  0  0  0  0
    4.3349   -8.2541    0.0000 C   0  0  0  0  0  0  0  0  0  0  0  0
    3.6817   -6.9477    0.0000 C   0  0  0  0  0  0  0  0  0  0  0  0
    7.8978   -1.4252    0.0000 C   0  0  0  0  0  0  0  0  0  0  0  0
    8.0165   -4.5130    0.0000 C   0  0  0  0  0  0  0  0  0  0  0  0
    6.5914   -0.8314    0.0000 C   0  0  0  0  0  0  0  0  0  0  0  0
    2.9097   -8.1947    0.0000 C   0  0  0  0  0  0  0  0  0  0  0  0
    8.2541   -0.6532    0.0000 C   0  0  0  0  0  0  0  0  0  0  0  0
    3.6223   -8.6103    0.0000 C   0  0  0  0  0  0  0  0  0  0  0  0
    2.9691   -7.3633    0.0000 C   0  0  0  0  0  0  0  0  0  0  0  0
    8.0165   -3.6817    0.0000 C   0  0  0  0  0  0  0  0  0  0  0  0
    8.7291   -4.9287    0.0000 C   0  0  0  0  0  0  0  0  0  0  0  0
    6.9477   -0.1187    0.0000 C   0  0  0  0  0  0  0  0  0  0  0  0
    7.7790    0.0000    0.0000 C   0  0  0  0  0  0  0  0  0  0  0  0
    2.1971   -8.6103    0.0000 C   0  0  0  0  0  0  0  0  0  0  0  0
    9.4417   -3.6817    0.0000 C   0  0  0  0  0  0  0  0  0  0  0  0
    8.7291   -3.2660    0.0000 C   0  0  0  0  0  0  0  0  0  0  0  0
    9.4417   -4.5130    0.0000 C   0  0  0  0  0  0  0  0  0  0  0  0
   10.1543   -3.2660    0.0000 C   0  0  0  0  0  0  0  0  0  0  0  0
    1.4846   -9.8574    0.0000 C   0  0  0  0  0  0  0  0  0  0  0  0
    1.4252  -10.6888    0.0000 C   0  0  0  0  0  0  0  0  0  0  0  0
    0.0000  -10.6293    0.0000 C   0  0  0  0  0  0  0  0  0  0  0  0
    0.7126  -11.8763    0.0000 C   0  0  0  0  0  0  0  0  0  0  0  0
  1 36  1  0  0  0  0
  2 32  1  0  0  0  0
  3 19  2  0  0  0  0
  4 20  2  0  0  0  0
  5 43  2  0  0  0  0
  6 47  2  0  0  0  0
  7 47  1  0  0  0  0
  8 15  1  0  0  0  0
  8 19  1  0  0  0  0
  8 21  1  0  0  0  0
  9 12  1  0  0  0  0
  9 27  1  0  0  0  0
  9 29  1  0  0  0  0
 10 12  2  0  0  0  0
 10 23  1  0  0  0  0
 11 20  1  0  0  0  0
 11 33  1  0  0  0  0
 13 43  1  0  0  0  0
 13 48  1  0  0  0  0
 14 49  1  0  0  0  0
 14 50  1  0  0  0  0
 14 51  1  0  0  0  0
 15 16  1  0  0  0  0
 15 20  1  0  0  0  0
 16 17  2  0  0  0  0
 16 24  1  0  0  0  0
 17 18  1  0  0  0  0
 17 22  1  0  0  0  0
 18 25  1  0  0  0  0
 18 26  2  0  0  0  0
 19 23  1  0  0  0  0
 21 22  1  0  0  0  0
 23 27  2  0  0  0  0
 24 28  2  0  0  0  0
 25 30  2  0  0  0  0
 25 31  1  0  0  0  0
 26 28  1  0  0  0  0
 29 32  1  0  0  0  0
 29 34  2  0  0  0  0
 30 37  1  0  0  0  0
 31 38  2  0  0  0  0
 32 36  2  0  0  0  0
 33 39  2  0  0  0  0
 33 40  1  0  0  0  0
 34 41  1  0  0  0  0
 35 37  2  0  0  0  0
 35 38  1  0  0  0  0
 35 43  1  0  0  0  0
 36 42  1  0  0  0  0
 39 45  1  0  0  0  0
 40 46  2  0  0  0  0
 41 42  2  0  0  0  0
 44 45  2  0  0  0  0
 44 46  1  0  0  0  0
 44 47  1  0  0  0  0
 48 49  1  0  0  0  0
M  END
> <PUBCHEM_COMPOUND_ID_TYPE>
0

> <PUBCHEM_TOTAL_CHARGE>
0

> <PUBCHEM_SUBSTANCE_ID>
310934214

> <PUBCHEM_SUBSTANCE_VERSION>
1

> <PUBCHEM_EXT_DATASOURCE_NAME>
4488

> <PUBCHEM_EXT_DATASOURCE_REGID>
SCHEMBL16111669

> <PUBCHEM_SUBSTANCE_COMMENT>
InChI=1S/C37H33ClFN7O5/c1-44(2)20-18-40-34(47)23-11-9-22(10-12-23)26-5-3-6-28-27(26)17-19-45(33(28)35(48)41-25-15-13-24(14-16-25)37(50)51)36(49)30-21-46(43-42-30)31-8-4-7-29(38)32(31)39/h3-16,21,33H,17-20H2,1-2H3,(H,40,47)(H,41,48)(H,50,51)
InChIKey=QBESKCQOPGRWTA-UHFFFAOYSA-N

> <PUBCHEM_SUBSTANCE_SYNONYM>
SCHEMBL16111669

> <PUBCHEM_XREF_EXT_ID>
SCHEMBL16111669

> <PUBCHEM_EXT_DATASOURCE_URL>
https://www.surechembl.org/

> <PUBCHEM_EXT_SUBSTANCE_URL>
https://www.surechembl.org/chemical/SCHEMBL16111669

> <PUBCHEM_CID_ASSOCIATIONS>
86298354  1

> <PUBCHEM_COORDINATE_TYPE>
1
3

$$$$
