310946796
  -OEChem-07211613022D

 22 24  0     1  0  0  0  0  0999 V2000
   -1.8408    5.6793    0.0000 N   0  0  0  0  0  0  0  0  0  0  0  0
   -2.1034    2.8801    0.0000 N   0  0  0  0  0  0  0  0  0  0  0  0
   -2.6237    5.4192    0.0000 N   0  0  0  0  0  0  0  0  0  0  0  0
   -1.6185    2.2127    0.0000 N   0  0  0  0  0  0  0  0  0  0  0  0
    0.5951    3.2926    0.0000 N   0  0  3  0  0  0  0  0  0  0  0  0
   -1.6185    3.5476    0.0000 C   0  0  0  0  0  0  0  0  0  0  0  0
   -1.8320    4.3445    0.0000 C   0  0  0  0  0  0  0  0  0  0  0  0
   -0.8339    3.2926    0.0000 C   0  0  0  0  0  0  0  0  0  0  0  0
   -1.3515    5.0151    0.0000 C   0  0  0  0  0  0  0  0  0  0  0  0
   -2.6183    4.5943    0.0000 C   0  0  0  0  0  0  0  0  0  0  0  0
   -1.6272    6.4762    0.0000 C   0  0  0  0  0  0  0  0  0  0  0  0
   -0.8339    2.4676    0.0000 C   0  0  0  0  0  0  0  0  0  0  0  0
   -0.1194    3.7051    0.0000 C   0  0  0  0  0  0  0  0  0  0  0  0
   -0.8303    6.6897    0.0000 C   0  0  0  0  0  0  0  0  0  0  0  0
   -2.2106    7.0596    0.0000 C   0  0  0  0  0  0  0  0  0  0  0  0
   -0.6168    7.4866    0.0000 C   0  0  0  0  0  0  0  0  0  0  0  0
   -1.9971    7.8565    0.0000 C   0  0  0  0  0  0  0  0  0  0  0  0
   -1.2002    8.0700    0.0000 C   0  0  0  0  0  0  0  0  0  0  0  0
    1.3096    3.7051    0.0000 C   0  0  0  0  0  0  0  0  0  0  0  0
    0.5951    2.4676    0.0000 C   0  0  0  0  0  0  0  0  0  0  0  0
    2.0240    3.2926    0.0000 C   0  0  0  0  0  0  0  0  0  0  0  0
    2.7385    3.7051    0.0000 C   0  0  0  0  0  0  0  0  0  0  0  0
  1  3  1  0  0  0  0
  1  9  1  0  0  0  0
  1 11  1  0  0  0  0
  2  4  1  0  0  0  0
  2  6  2  0  0  0  0
  3 10  2  0  0  0  0
  4 12  1  0  0  0  0
  5 13  1  0  0  0  0
  5 19  1  0  0  0  0
  5 20  1  0  0  0  0
  6  7  1  0  0  0  0
  6  8  1  0  0  0  0
  7  9  2  0  0  0  0
  7 10  1  0  0  0  0
  8 12  2  0  0  0  0
  8 13  1  0  0  0  0
 11 14  2  0  0  0  0
 11 15  1  0  0  0  0
 14 16  1  0  0  0  0
 15 17  2  0  0  0  0
 16 18  2  0  0  0  0
 17 18  1  0  0  0  0
 19 21  1  0  0  0  0
 21 22  1  0  0  0  0
M  END
> <PUBCHEM_COMPOUND_ID_TYPE>
0

> <PUBCHEM_TOTAL_CHARGE>
0

> <PUBCHEM_SUBSTANCE_ID>
310946796

> <PUBCHEM_SUBSTANCE_VERSION>
1

> <PUBCHEM_EXT_DATASOURCE_NAME>
4488

> <PUBCHEM_EXT_DATASOURCE_REGID>
SCHEMBL16124920

> <PUBCHEM_SUBSTANCE_COMMENT>
InChI=1S/C17H21N5/c1-3-9-21(2)12-14-10-18-20-17(14)15-11-19-22(13-15)16-7-5-4-6-8-16/h4-8,10-11,13H,3,9,12H2,1-2H3,(H,18,20)
InChIKey=YUPRPBWRAIVHTP-UHFFFAOYSA-N

> <PUBCHEM_SUBSTANCE_SYNONYM>
SCHEMBL16124920

> <PUBCHEM_XREF_EXT_ID>
SCHEMBL16124920

> <PUBCHEM_EXT_DATASOURCE_URL>
https://www.surechembl.org/

> <PUBCHEM_EXT_SUBSTANCE_URL>
https://www.surechembl.org/chemical/SCHEMBL16124920

> <PUBCHEM_CID_ASSOCIATIONS>
117612657  1

> <PUBCHEM_COORDINATE_TYPE>
1
3

$$$$
