310939663
  -OEChem-07211613022D

 39 42  0     1  0  0  0  0  0999 V2000
    5.0012  -11.8780    0.0000 O   0  0  0  0  0  0  0  0  0  0  0  0
    5.0012  -10.2280    0.0000 O   0  0  0  0  0  0  0  0  0  0  0  0
   -2.1434  -11.8780    0.0000 O   0  0  0  0  0  0  0  0  0  0  0  0
    1.4759  -16.4879    0.0000 O   0  0  0  0  0  0  0  0  0  0  0  0
   -3.5723  -12.7030    0.0000 O   0  0  0  0  0  0  0  0  0  0  0  0
    1.4289  -11.4655    0.0000 N   0  0  0  0  0  0  0  0  0  0  0  0
    0.7144  -12.7030    0.0000 N   0  0  0  0  0  0  0  0  0  0  0  0
    1.4289  -13.9405    0.0000 N   0  0  0  0  0  0  0  0  0  0  0  0
    2.8579  -16.4155    0.0000 N   0  0  0  0  0  0  0  0  0  0  0  0
   -5.0012  -11.8780    0.0000 N   0  0  0  0  0  0  0  0  0  0  0  0
    2.1433  -11.8780    0.0000 C   0  0  0  0  0  0  0  0  0  0  0  0
    0.7144  -11.8780    0.0000 C   0  0  0  0  0  0  0  0  0  0  0  0
    2.8579  -11.4655    0.0000 C   0  0  0  0  0  0  0  0  0  0  0  0
    0.0000  -11.4655    0.0000 C   0  0  0  0  0  0  0  0  0  0  0  0
    1.4289  -13.1156    0.0000 C   0  0  0  0  0  0  0  0  0  0  0  0
    2.1433  -12.7030    0.0000 C   0  0  0  0  0  0  0  0  0  0  0  0
    3.5723  -11.8780    0.0000 C   0  0  0  0  0  0  0  0  0  0  0  0
    4.2868  -11.4655    0.0000 C   0  0  0  0  0  0  0  0  0  0  0  0
    2.8579  -10.6405    0.0000 C   0  0  0  0  0  0  0  0  0  0  0  0
    4.2868  -10.6405    0.0000 C   0  0  0  0  0  0  0  0  0  0  0  0
   -0.7144  -11.8780    0.0000 C   0  0  0  0  0  0  0  0  0  0  0  0
    3.5723  -10.2280    0.0000 C   0  0  0  0  0  0  0  0  0  0  0  0
    0.0000  -10.6405    0.0000 C   0  0  0  0  0  0  0  0  0  0  0  0
   -1.4289  -11.4655    0.0000 C   0  0  0  0  0  0  0  0  0  0  0  0
   -0.7144  -10.2280    0.0000 C   0  0  0  0  0  0  0  0  0  0  0  0
   -1.4289  -10.6405    0.0000 C   0  0  0  0  0  0  0  0  0  0  0  0
    2.1434  -14.3530    0.0000 C   0  0  0  0  0  0  0  0  0  0  0  0
    2.1434  -15.1781    0.0000 C   0  0  0  0  0  0  0  0  0  0  0  0
    2.1904  -16.9004    0.0000 C   0  0  0  0  0  0  0  0  0  0  0  0
    2.8579  -15.5905    0.0000 C   0  0  0  0  0  0  0  0  0  0  0  0
   -2.8579  -11.4655    0.0000 C   0  0  0  0  0  0  0  0  0  0  0  0
    5.0012  -12.7030    0.0000 C   0  0  0  0  0  0  0  0  0  0  0  0
    3.5253  -16.9004    0.0000 C   0  0  0  0  0  0  0  0  0  0  0  0
    5.7157  -10.6405    0.0000 C   0  0  0  0  0  0  0  0  0  0  0  0
    2.4453  -17.6850    0.0000 C   0  0  0  0  0  0  0  0  0  0  0  0
   -3.5723  -11.8780    0.0000 C   0  0  3  0  0  0  0  0  0  0  0  0
    3.2704  -17.6850    0.0000 C   0  0  0  0  0  0  0  0  0  0  0  0
   -4.2868  -11.4655    0.0000 C   0  0  0  0  0  0  0  0  0  0  0  0
   -5.7157  -11.4655    0.0000 C   0  0  0  0  0  0  0  0  0  0  0  0
  1 18  1  0  0  0  0
  1 32  1  0  0  0  0
  2 20  1  0  0  0  0
  2 34  1  0  0  0  0
  3 24  1  0  0  0  0
  3 31  1  0  0  0  0
  4 29  2  0  0  0  0
  5 36  1  0  0  0  0
  6 11  1  0  0  0  0
  6 12  2  0  0  0  0
  7 12  1  0  0  0  0
  7 15  2  0  0  0  0
  8 15  1  0  0  0  0
  8 27  1  0  0  0  0
  9 29  1  0  0  0  0
  9 30  1  0  0  0  0
  9 33  1  0  0  0  0
 10 38  1  0  0  0  0
 10 39  1  0  0  0  0
 11 13  1  0  0  0  0
 11 16  2  0  0  0  0
 12 14  1  0  0  0  0
 13 17  1  0  0  0  0
 13 19  2  0  0  0  0
 14 21  2  0  0  0  0
 14 23  1  0  0  0  0
 15 16  1  0  0  0  0
 17 18  2  0  0  0  0
 18 20  1  0  0  0  0
 19 22  1  0  0  0  0
 20 22  2  0  0  0  0
 21 24  1  0  0  0  0
 23 25  2  0  0  0  0
 24 26  2  0  0  0  0
 25 26  1  0  0  0  0
 27 28  1  0  0  0  0
 28 30  1  0  0  0  0
 29 35  1  0  0  0  0
 31 36  1  0  0  0  0
 33 37  1  0  0  0  0
 35 37  1  0  0  0  0
 36 38  1  0  0  0  0
M  END
> <PUBCHEM_COMPOUND_ID_TYPE>
0

> <PUBCHEM_TOTAL_CHARGE>
0

> <PUBCHEM_SUBSTANCE_ID>
310939663

> <PUBCHEM_SUBSTANCE_VERSION>
1

> <PUBCHEM_EXT_DATASOURCE_NAME>
4488

> <PUBCHEM_EXT_DATASOURCE_REGID>
SCHEMBL16117593

> <PUBCHEM_SUBSTANCE_COMMENT>
InChI=1S/C29H37N5O5/c1-30-18-22(35)19-39-23-8-4-7-21(15-23)29-32-24(20-10-11-25(37-2)26(16-20)38-3)17-27(33-29)31-12-6-14-34-13-5-9-28(34)36/h4,7-8,10-11,15-17,22,30,35H,5-6,9,12-14,18-19H2,1-3H3,(H,31,32,33)
InChIKey=ZAVWMYQPONOYMU-UHFFFAOYSA-N

> <PUBCHEM_SUBSTANCE_SYNONYM>
SCHEMBL16117593

> <PUBCHEM_XREF_EXT_ID>
SCHEMBL16117593

> <PUBCHEM_EXT_DATASOURCE_URL>
https://www.surechembl.org/

> <PUBCHEM_EXT_SUBSTANCE_URL>
https://www.surechembl.org/chemical/SCHEMBL16117593

> <PUBCHEM_CID_ASSOCIATIONS>
85472933  1

> <PUBCHEM_COORDINATE_TYPE>
1
3

$$$$
