310936366
  -OEChem-07211613022D

 26 29  0     1  0  0  0  0  0999 V2000
    6.3439   -0.6543    0.0000 F   0  0  0  0  0  0  0  0  0  0  0  0
    5.1775   -2.9301    0.0000 O   0  0  0  0  0  0  0  0  0  0  0  0
    5.1775   -1.4793    0.0000 O   0  0  0  0  0  0  0  0  0  0  0  0
    1.5077   -5.2059    0.0000 N   0  0  0  0  0  0  0  0  0  0  0  0
    0.0000   -4.5232    0.0000 N   0  0  0  0  0  0  0  0  0  0  0  0
    3.9542   -2.1905    0.0000 C   0  0  3  0  0  0  0  0  0  0  0  0
    4.3240   -1.4793    0.0000 C   0  0  0  0  0  0  0  0  0  0  0  0
    3.4706   -2.8732    0.0000 C   0  0  0  0  0  0  0  0  0  0  0  0
    2.6741   -2.6172    0.0000 C   0  0  0  0  0  0  0  0  0  0  0  0
    3.4706   -1.5361    0.0000 C   0  0  0  0  0  0  0  0  0  0  0  0
    4.7792   -2.1905    0.0000 C   0  0  0  0  0  0  0  0  0  0  0  0
    5.3197   -1.5931    0.0000 C   0  0  0  0  0  0  0  0  0  0  0  0
    2.0198   -3.1008    0.0000 C   0  0  0  0  0  0  0  0  0  0  0  0
    2.6741   -1.7922    0.0000 C   0  0  0  0  0  0  0  0  0  0  0  0
    3.8689   -0.7681    0.0000 C   0  0  0  0  0  0  0  0  0  0  0  0
    5.5189   -0.6828    0.0000 C   0  0  0  0  0  0  0  0  0  0  0  0
    2.0767   -3.9258    0.0000 C   0  0  0  0  0  0  0  0  0  0  0  0
    1.4224   -4.3810    0.0000 C   0  0  0  0  0  0  0  0  0  0  0  0
    1.2517   -2.7594    0.0000 C   0  0  0  0  0  0  0  0  0  0  0  0
    0.6828   -4.0396    0.0000 C   0  0  0  0  0  0  0  0  0  0  0  0
    4.2672   -0.0284    0.0000 C   0  0  0  0  0  0  0  0  0  0  0  0
    0.5974   -3.2430    0.0000 C   0  0  0  0  0  0  0  0  0  0  0  0
    5.0921    0.0000    0.0000 C   0  0  0  0  0  0  0  0  0  0  0  0
    5.6042   -2.1051    0.0000 C   0  0  0  0  0  0  0  0  0  0  0  0
    0.8250   -5.6895    0.0000 C   0  0  0  0  0  0  0  0  0  0  0  0
    0.0854   -5.3481    0.0000 C   0  0  0  0  0  0  0  0  0  0  0  0
  1 16  1  0  0  0  0
  2 11  2  0  0  0  0
  3 11  1  0  0  0  0
  4 18  2  0  0  0  0
  4 25  1  0  0  0  0
  5 20  2  0  0  0  0
  5 26  1  0  0  0  0
  6  7  1  0  0  0  0
  6  8  1  0  0  0  0
  6 10  1  0  0  0  0
  6 11  1  0  0  0  0
  7 12  1  0  0  0  0
  7 15  2  0  0  0  0
  8  9  2  0  0  0  0
  9 13  1  0  0  0  0
  9 14  1  0  0  0  0
 10 14  1  0  0  0  0
 12 16  2  0  0  0  0
 12 24  1  0  0  0  0
 13 17  2  0  0  0  0
 13 19  1  0  0  0  0
 15 21  1  0  0  0  0
 16 23  1  0  0  0  0
 17 18  1  0  0  0  0
 18 20  1  0  0  0  0
 19 22  2  0  0  0  0
 20 22  1  0  0  0  0
 21 23  2  0  0  0  0
 25 26  2  0  0  0  0
M  END
> <PUBCHEM_COMPOUND_ID_TYPE>
0

> <PUBCHEM_TOTAL_CHARGE>
0

> <PUBCHEM_SUBSTANCE_ID>
310936366

> <PUBCHEM_SUBSTANCE_VERSION>
1

> <PUBCHEM_EXT_DATASOURCE_NAME>
4488

> <PUBCHEM_EXT_DATASOURCE_REGID>
SCHEMBL16114000

> <PUBCHEM_SUBSTANCE_COMMENT>
InChI=1S/C21H17FN2O2/c1-13-16(3-2-4-17(13)22)21(20(25)26)8-7-15(12-21)14-5-6-18-19(11-14)24-10-9-23-18/h2-6,9-12H,7-8H2,1H3,(H,25,26)
InChIKey=ICDJPBCBMHFDJK-UHFFFAOYSA-N

> <PUBCHEM_SUBSTANCE_SYNONYM>
SCHEMBL16114000

> <PUBCHEM_XREF_EXT_ID>
SCHEMBL16114000

> <PUBCHEM_EXT_DATASOURCE_URL>
https://www.surechembl.org/

> <PUBCHEM_EXT_SUBSTANCE_URL>
https://www.surechembl.org/chemical/SCHEMBL16114000

> <PUBCHEM_CID_ASSOCIATIONS>
117604308  1

> <PUBCHEM_COORDINATE_TYPE>
1
3

$$$$
