310948355
  -OEChem-07211613022D

 21 22  0     1  0  0  0  0  0999 V2000
   -1.3608    3.4845    0.0000 Br  0  0  0  0  0  0  0  0  0  0  0  0
   -1.1959    0.1856    0.0000 S   0  0  0  0  0  0  0  0  0  0  0  0
   -1.1959   -0.6392    0.0000 O   0  0  0  0  0  0  0  0  0  0  0  0
   -2.0068    0.1031    0.0000 O   0  0  0  0  0  0  0  0  0  0  0  0
    0.8522   -2.0413    0.0000 O   0  0  0  0  0  0  0  0  0  0  0  0
    2.0756   -1.3265    0.0000 O   0  0  0  0  0  0  0  0  0  0  0  0
   -0.3711    0.1031    0.0000 N   0  0  3  0  0  0  0  0  0  0  0  0
   -1.3608    1.0103    0.0000 C   0  0  0  0  0  0  0  0  0  0  0  0
   -0.6598    1.4227    0.0000 C   0  0  0  0  0  0  0  0  0  0  0  0
   -0.0550    0.8729    0.0000 C   0  0  0  0  0  0  0  0  0  0  0  0
   -2.0756    1.4227    0.0000 C   0  0  0  0  0  0  0  0  0  0  0  0
   -0.6598    2.2337    0.0000 C   0  0  0  0  0  0  0  0  0  0  0  0
    0.0275   -0.5980    0.0000 C   0  0  0  0  0  0  0  0  0  0  0  0
   -1.3608    2.6598    0.0000 C   0  0  0  0  0  0  0  0  0  0  0  0
   -2.0756    2.2337    0.0000 C   0  0  0  0  0  0  0  0  0  0  0  0
    0.8660   -0.6254    0.0000 C   0  0  0  0  0  0  0  0  0  0  0  0
    1.2371   -1.2989    0.0000 C   0  0  0  0  0  0  0  0  0  0  0  0
    1.2646   -2.7422    0.0000 C   0  0  0  0  0  0  0  0  0  0  0  0
    1.9106   -2.2199    0.0000 C   0  0  0  0  0  0  0  0  0  0  0  0
    1.9106   -3.2783    0.0000 C   0  0  0  0  0  0  0  0  0  0  0  0
    0.8660   -3.4845    0.0000 C   0  0  0  0  0  0  0  0  0  0  0  0
  1 14  1  0  0  0  0
  2  3  2  0  0  0  0
  2  4  2  0  0  0  0
  2  7  1  0  0  0  0
  2  8  1  0  0  0  0
  5 17  1  0  0  0  0
  5 18  1  0  0  0  0
  6 17  2  0  0  0  0
  7 10  1  0  0  0  0
  7 13  1  0  0  0  0
  8  9  2  0  0  0  0
  8 11  1  0  0  0  0
  9 10  1  0  0  0  0
  9 12  1  0  0  0  0
 11 15  2  0  0  0  0
 12 14  2  0  0  0  0
 13 16  1  0  0  0  0
 14 15  1  0  0  0  0
 16 17  1  0  0  0  0
 18 19  1  0  0  0  0
 18 20  1  0  0  0  0
 18 21  1  0  0  0  0
M  END
> <PUBCHEM_COMPOUND_ID_TYPE>
0

> <PUBCHEM_TOTAL_CHARGE>
0

> <PUBCHEM_SUBSTANCE_ID>
310948355

> <PUBCHEM_SUBSTANCE_VERSION>
1

> <PUBCHEM_EXT_DATASOURCE_NAME>
4488

> <PUBCHEM_EXT_DATASOURCE_REGID>
SCHEMBL16126533

> <PUBCHEM_SUBSTANCE_COMMENT>
InChI=1S/C14H18BrNO4S/c1-14(2,3)20-13(17)6-7-16-9-10-8-11(15)4-5-12(10)21(16,18)19/h4-5,8H,6-7,9H2,1-3H3
InChIKey=NLJVDYAZOHHXMA-UHFFFAOYSA-N

> <PUBCHEM_SUBSTANCE_SYNONYM>
SCHEMBL16126533

> <PUBCHEM_XREF_EXT_ID>
SCHEMBL16126533

> <PUBCHEM_EXT_DATASOURCE_URL>
https://www.surechembl.org/

> <PUBCHEM_EXT_SUBSTANCE_URL>
https://www.surechembl.org/chemical/SCHEMBL16126533

> <PUBCHEM_CID_ASSOCIATIONS>
117613919  1

> <PUBCHEM_COORDINATE_TYPE>
1
3

$$$$
