310945596
  -OEChem-07211613022D

 21 21  0     1  0  0  0  0  0999 V2000
   -0.3486   -0.0569    0.0000 N   0  0  0  0  0  0  0  0  0  0  0  0
    1.7710    1.1949    0.0000 N   0  0  0  0  0  0  0  0  0  0  0  0
   -1.0598   -0.4695    0.0000 C   0  0  3  0  0  0  0  0  0  0  0  0
   -1.0740   -1.2945    0.0000 C   0  0  0  0  0  0  0  0  0  0  0  0
    1.0598    0.7823    0.0000 C   0  0  0  0  0  0  0  0  0  0  0  0
    0.3343   -0.4695    0.0000 C   0  0  0  0  0  0  0  0  0  0  0  0
   -0.3343    0.7823    0.0000 C   0  0  0  0  0  0  0  0  0  0  0  0
    1.0456   -0.0569    0.0000 C   0  0  0  0  0  0  0  0  0  0  0  0
    0.3201    1.2092    0.0000 C   0  0  0  0  0  0  0  0  0  0  0  0
   -1.7853   -1.7355    0.0000 C   0  0  0  0  0  0  0  0  0  0  0  0
   -0.3486   -1.7355    0.0000 C   0  0  0  0  0  0  0  0  0  0  0  0
   -1.8137   -0.0569    0.0000 C   0  0  0  0  0  0  0  0  0  0  0  0
   -2.4824   -1.3088    0.0000 C   0  0  0  0  0  0  0  0  0  0  0  0
    1.7710    2.0343    0.0000 C   0  0  0  0  0  0  0  0  0  0  0  0
    2.4824    0.7823    0.0000 C   0  0  0  0  0  0  0  0  0  0  0  0
   -1.7995   -2.4327    0.0000 C   0  0  0  0  0  0  0  0  0  0  0  0
   -0.3486   -2.4327    0.0000 C   0  0  0  0  0  0  0  0  0  0  0  0
   -3.1795   -1.7213    0.0000 C   0  0  0  0  0  0  0  0  0  0  0  0
    1.0456    2.4327    0.0000 C   0  0  0  0  0  0  0  0  0  0  0  0
    3.1795    1.2235    0.0000 C   0  0  0  0  0  0  0  0  0  0  0  0
   -3.1083   -2.4327    0.0000 C   0  0  0  0  0  0  0  0  0  0  0  0
  1  3  1  0  0  0  0
  1  6  1  0  0  0  0
  1  7  1  0  0  0  0
  2  5  1  0  0  0  0
  2 14  1  0  0  0  0
  2 15  1  0  0  0  0
  3  4  1  0  0  0  0
  3 12  1  0  0  0  0
  4 10  1  0  0  0  0
  4 11  2  0  0  0  0
  5  8  1  0  0  0  0
  5  9  1  0  0  0  0
  6  8  1  0  0  0  0
  7  9  1  0  0  0  0
 10 13  2  0  0  0  0
 10 16  1  0  0  0  0
 11 17  1  0  0  0  0
 13 18  1  0  0  0  0
 14 19  1  0  0  0  0
 15 20  1  0  0  0  0
 18 21  2  0  0  0  0
M  END
> <PUBCHEM_COMPOUND_ID_TYPE>
0

> <PUBCHEM_TOTAL_CHARGE>
0

> <PUBCHEM_SUBSTANCE_ID>
310945596

> <PUBCHEM_SUBSTANCE_VERSION>
1

> <PUBCHEM_EXT_DATASOURCE_NAME>
4488

> <PUBCHEM_EXT_DATASOURCE_REGID>
SCHEMBL16123695

> <PUBCHEM_SUBSTANCE_COMMENT>
InChI=1S/C19H34N2/c1-7-11-16(5)19(8-2)17(6)21-14-12-18(13-15-21)20(9-3)10-4/h7-8,11,17-18H,1,9-10,12-15H2,2-6H3/b16-11+,19-8+
InChIKey=TVOQCMHOTQVXDF-SXZUIPJJSA-N

> <PUBCHEM_SUBSTANCE_SYNONYM>
SCHEMBL16123695

> <PUBCHEM_XREF_EXT_ID>
SCHEMBL16123695

> <PUBCHEM_EXT_DATASOURCE_URL>
https://www.surechembl.org/

> <PUBCHEM_EXT_SUBSTANCE_URL>
https://www.surechembl.org/chemical/SCHEMBL16123695

> <PUBCHEM_CID_ASSOCIATIONS>
117611619  1

> <PUBCHEM_COORDINATE_TYPE>
1
3

$$$$
