310946095
  -OEChem-07211613022D

 20 22  0     1  0  0  0  0  0999 V2000
   -0.8263  -13.1880    0.0000 O   0  0  0  0  0  0  0  0  0  0  0  0
   -1.5408  -11.9505    0.0000 O   0  0  0  0  0  0  0  0  0  0  0  0
    0.6026  -13.1880    0.0000 C   0  0  3  0  0  0  0  0  0  0  0  0
   -0.1118  -12.7755    0.0000 C   0  0  3  0  0  0  0  0  0  0  0  0
    1.3171  -12.7755    0.0000 C   0  0  3  0  0  0  0  0  0  0  0  0
    1.3171  -11.9505    0.0000 C   0  0  3  0  0  0  0  0  0  0  0  0
    0.6026  -11.5380    0.0000 C   0  0  3  0  0  0  0  0  0  0  0  0
   -0.1118  -11.9505    0.0000 C   0  0  0  0  0  0  0  0  0  0  0  0
    0.8162  -12.3349    0.0000 C   0  0  0  0  0  0  0  0  0  0  0  0
    2.0316  -11.5380    0.0000 C   0  0  3  0  0  0  0  0  0  0  0  0
    2.0316  -13.1880    0.0000 C   0  0  0  0  0  0  0  0  0  0  0  0
   -0.1118  -13.6005    0.0000 C   0  0  0  0  0  0  0  0  0  0  0  0
    2.7460  -11.9505    0.0000 C   0  0  0  0  0  0  0  0  0  0  0  0
   -1.5408  -12.7755    0.0000 C   0  0  0  0  0  0  0  0  0  0  0  0
    2.7460  -12.7755    0.0000 C   0  0  0  0  0  0  0  0  0  0  0  0
    2.2451  -12.3349    0.0000 C   0  0  0  0  0  0  0  0  0  0  0  0
   -2.2552  -13.1880    0.0000 C   0  0  0  0  0  0  0  0  0  0  0  0
    2.0316  -13.1318    0.0000 C   0  0  0  0  0  0  0  0  0  0  0  0
   -2.6677  -12.4735    0.0000 C   0  0  0  0  0  0  0  0  0  0  0  0
   -1.8427  -13.9025    0.0000 C   0  0  0  0  0  0  0  0  0  0  0  0
  1  4  1  0  0  0  0
  1 14  1  0  0  0  0
  2 14  2  0  0  0  0
  3  4  1  0  0  0  0
  3  5  1  0  0  0  0
  3  9  1  0  0  0  0
  4  8  1  0  0  0  0
  4 12  1  0  0  0  0
  5  6  1  0  0  0  0
  5 11  1  0  0  0  0
  6  7  1  0  0  0  0
  6 10  1  0  0  0  0
  7  8  1  0  0  0  0
  7  9  1  0  0  0  0
 10 13  1  0  0  0  0
 10 16  1  0  0  0  0
 11 15  1  0  0  0  0
 13 15  1  0  0  0  0
 14 17  1  0  0  0  0
 16 18  1  0  0  0  0
 17 19  1  0  0  0  0
 17 20  1  0  0  0  0
M  END
> <PUBCHEM_COMPOUND_ID_TYPE>
0

> <PUBCHEM_TOTAL_CHARGE>
0

> <PUBCHEM_SUBSTANCE_ID>
310946095

> <PUBCHEM_SUBSTANCE_VERSION>
1

> <PUBCHEM_EXT_DATASOURCE_NAME>
4488

> <PUBCHEM_EXT_DATASOURCE_REGID>
SCHEMBL16124203

> <PUBCHEM_SUBSTANCE_COMMENT>
InChI=1S/C18H30O2/c1-5-12-7-6-8-14-15-9-13(16(12)14)10-18(15,4)20-17(19)11(2)3/h11-16H,5-10H2,1-4H3
InChIKey=IZDMEXKBHUVOMB-UHFFFAOYSA-N

> <PUBCHEM_SUBSTANCE_SYNONYM>
SCHEMBL16124203

> <PUBCHEM_XREF_EXT_ID>
SCHEMBL16124203

> <PUBCHEM_EXT_DATASOURCE_URL>
https://www.surechembl.org/

> <PUBCHEM_EXT_SUBSTANCE_URL>
https://www.surechembl.org/chemical/SCHEMBL16124203

> <PUBCHEM_CID_ASSOCIATIONS>
117612060  1

> <PUBCHEM_COORDINATE_TYPE>
1
3

> <PUBCHEM_BONDANNOTATIONS>
17  19  3
17  20  3

$$$$
