310940279
  -OEChem-07211613022D

 37 39  0     1  0  0  0  0  0999 V2000
    4.5538   -0.4350    0.0000 Cl  0  0  0  0  0  0  0  0  0  0  0  0
    1.9724   -1.9434    0.0000 Cl  0  0  0  0  0  0  0  0  0  0  0  0
    5.3660   -1.8854    0.0000 F   0  0  0  0  0  0  0  0  0  0  0  0
    3.3066    0.3191    0.0000 O   0  0  0  0  0  0  0  0  0  0  0  0
   -3.6837   -0.2611    0.0000 O   0  0  0  0  0  0  0  0  0  0  0  0
   -0.4061    1.1602    0.0000 N   0  0  0  0  0  0  0  0  0  0  0  0
   -0.4931    2.0013    0.0000 N   0  0  0  0  0  0  0  0  0  0  0  0
   -2.0884   -0.6381    0.0000 N   0  0  0  0  0  0  0  0  0  0  0  0
   -4.0317   -1.6823    0.0000 N   0  0  0  0  0  0  0  0  0  0  0  0
    3.3066   -1.1602    0.0000 C   0  0  0  0  0  0  0  0  0  0  0  0
    4.1478   -1.1892    0.0000 C   0  0  0  0  0  0  0  0  0  0  0  0
    0.8122    1.7404    0.0000 C   0  0  0  0  0  0  0  0  0  0  0  0
    2.9006   -0.4641    0.0000 C   0  0  3  0  0  0  0  0  0  0  0  0
    2.9295   -1.9143    0.0000 C   0  0  0  0  0  0  0  0  0  0  0  0
   -0.9572    0.5221    0.0000 C   0  0  0  0  0  0  0  0  0  0  0  0
    1.6533    1.7113    0.0000 C   0  0  0  0  0  0  0  0  0  0  0  0
    4.5538   -1.8854    0.0000 C   0  0  0  0  0  0  0  0  0  0  0  0
    0.4061    0.9861    0.0000 C   0  0  0  0  0  0  0  0  0  0  0  0
    2.8425    1.0152    0.0000 C   0  0  0  0  0  0  0  0  0  0  0  0
    0.2900    2.2914    0.0000 C   0  0  0  0  0  0  0  0  0  0  0  0
    3.3356   -2.6395    0.0000 C   0  0  0  0  0  0  0  0  0  0  0  0
    2.0304    1.0442    0.0000 C   0  0  0  0  0  0  0  0  0  0  0  0
    4.1767   -2.6105    0.0000 C   0  0  0  0  0  0  0  0  0  0  0  0
   -0.7252   -0.2611    0.0000 C   0  0  0  0  0  0  0  0  0  0  0  0
   -1.7693    0.7541    0.0000 C   0  0  0  0  0  0  0  0  0  0  0  0
   -1.3052   -0.8411    0.0000 C   0  0  0  0  0  0  0  0  0  0  0  0
   -2.2624    0.2030    0.0000 C   0  0  0  0  0  0  0  0  0  0  0  0
    2.0304    2.4654    0.0000 C   0  0  0  0  0  0  0  0  0  0  0  0
    2.0884   -0.4641    0.0000 C   0  0  0  0  0  0  0  0  0  0  0  0
    3.2486    1.7983    0.0000 C   0  0  0  0  0  0  0  0  0  0  0  0
   -2.6395   -1.2472    0.0000 C   0  0  0  0  0  0  0  0  0  0  0  0
   -3.4517   -1.1022    0.0000 C   0  0  0  0  0  0  0  0  0  0  0  0
    2.6105    2.4074    0.0000 C   0  0  0  0  0  0  0  0  0  0  0  0
    2.7265    2.6395    0.0000 C   0  0  0  0  0  0  0  0  0  0  0  0
   -4.8439   -1.4213    0.0000 C   0  0  0  0  0  0  0  0  0  0  0  0
   -5.0469   -0.6671    0.0000 C   0  0  0  0  0  0  0  0  0  0  0  0
   -5.3660   -2.0884    0.0000 C   0  0  0  0  0  0  0  0  0  0  0  0
  1 11  1  0  0  0  0
  2 14  1  0  0  0  0
  3 17  1  0  0  0  0
  4 13  1  0  0  0  0
  4 19  1  0  0  0  0
  5 32  2  0  0  0  0
  6  7  1  0  0  0  0
  6 15  1  0  0  0  0
  6 18  1  0  0  0  0
  7 20  2  0  0  0  0
  8 26  1  0  0  0  0
  8 27  1  0  0  0  0
  8 31  1  0  0  0  0
  9 32  1  0  0  0  0
  9 35  1  0  0  0  0
 10 11  2  0  0  0  0
 10 13  1  0  0  0  0
 10 14  1  0  0  0  0
 11 17  1  0  0  0  0
 12 16  1  0  0  0  0
 12 18  2  0  0  0  0
 12 20  1  0  0  0  0
 13 29  1  0  0  0  0
 14 21  2  0  0  0  0
 15 24  1  0  0  0  0
 15 25  1  0  0  0  0
 16 22  2  0  0  0  0
 16 28  1  0  0  0  0
 17 23  2  0  0  0  0
 19 22  1  0  0  0  0
 19 30  2  0  0  0  0
 21 23  1  0  0  0  0
 24 26  1  0  0  0  0
 25 27  1  0  0  0  0
 28 33  2  0  0  0  0
 30 34  1  0  0  0  0
 31 32  1  0  0  0  0
 35 36  1  0  0  0  0
 35 37  1  0  0  0  0
M  END
> <PUBCHEM_COMPOUND_ID_TYPE>
0

> <PUBCHEM_TOTAL_CHARGE>
0

> <PUBCHEM_SUBSTANCE_ID>
310940279

> <PUBCHEM_SUBSTANCE_VERSION>
1

> <PUBCHEM_EXT_DATASOURCE_NAME>
4488

> <PUBCHEM_EXT_DATASOURCE_REGID>
SCHEMBL16118222

> <PUBCHEM_SUBSTANCE_COMMENT>
InChI=1S/C28H35Cl2FN4O2/c1-6-20(14-23(7-2)37-19(5)27-24(29)8-9-25(31)28(27)30)21-15-32-35(16-21)22-10-12-34(13-11-22)17-26(36)33-18(3)4/h6-9,14-16,18-19,22H,1,10-13,17H2,2-5H3,(H,33,36)/b20-14+,23-7+
InChIKey=FAOQKTGKRMVGJD-RGNLBJFCSA-N

> <PUBCHEM_SUBSTANCE_SYNONYM>
SCHEMBL16118222

> <PUBCHEM_XREF_EXT_ID>
SCHEMBL16118222

> <PUBCHEM_EXT_DATASOURCE_URL>
https://www.surechembl.org/

> <PUBCHEM_EXT_SUBSTANCE_URL>
https://www.surechembl.org/chemical/SCHEMBL16118222

> <PUBCHEM_CID_ASSOCIATIONS>
117607362  1

> <PUBCHEM_COORDINATE_TYPE>
1
3

$$$$
