310942887
  -OEChem-07211613022D

 41 44  0     1  0  0  0  0  0999 V2000
    1.8313    0.2023    0.0000 Cl  0  0  0  0  0  0  0  0  0  0  0  0
   -2.7750    2.7189    0.0000 Cl  0  0  0  0  0  0  0  0  0  0  0  0
    3.3368    2.6965    0.0000 S   0  0  0  0  0  0  0  0  0  0  0  0
    4.8873    1.8426    0.0000 S   0  0  0  0  0  0  0  0  0  0  0  0
    1.8987    3.5278    0.0000 F   0  0  0  0  0  0  0  0  0  0  0  0
    0.4157    1.0561    0.0000 O   0  0  0  0  0  0  0  0  0  0  0  0
    2.9099    3.4155    0.0000 O   0  0  0  0  0  0  0  0  0  0  0  0
    3.7413    1.9549    0.0000 O   0  0  0  0  0  0  0  0  0  0  0  0
   -4.7075   -1.1010    0.0000 O   0  0  0  0  0  0  0  0  0  0  0  0
   -4.8423   -2.4492    0.0000 O   0  0  0  0  0  0  0  0  0  0  0  0
   -6.1007   -1.6403    0.0000 O   0  0  0  0  0  0  0  0  0  0  0  0
   -1.7639   -3.5278    0.0000 O   0  0  0  0  0  0  0  0  0  0  0  0
   -1.0449   -2.2695    0.0000 O   0  0  0  0  0  0  0  0  0  0  0  0
    4.0783    3.1008    0.0000 N   0  0  0  0  0  0  0  0  0  0  0  0
    5.5613    3.0110    0.0000 N   0  0  0  0  0  0  0  0  0  0  0  0
   -2.4829   -1.4381    0.0000 N   0  0  3  0  0  0  0  0  0  0  0  0
    2.5953    2.2920    0.0000 C   0  0  0  0  0  0  0  0  0  0  0  0
    1.8537    2.7189    0.0000 C   0  0  0  0  0  0  0  0  0  0  0  0
    1.1347    1.4831    0.0000 C   0  0  0  0  0  0  0  0  0  0  0  0
    1.8763    1.0561    0.0000 C   0  0  0  0  0  0  0  0  0  0  0  0
    2.5728    1.4381    0.0000 C   0  0  0  0  0  0  0  0  0  0  0  0
    1.1797    2.2920    0.0000 C   0  0  0  0  0  0  0  0  0  0  0  0
   -0.3483    1.5055    0.0000 C   0  0  0  0  0  0  0  0  0  0  0  0
    4.7973    2.6965    0.0000 C   0  0  0  0  0  0  0  0  0  0  0  0
   -1.0449    1.0786    0.0000 C   0  0  0  0  0  0  0  0  0  0  0  0
   -0.3258    2.3144    0.0000 C   0  0  0  0  0  0  0  0  0  0  0  0
   -1.7415    1.4831    0.0000 C   0  0  0  0  0  0  0  0  0  0  0  0
   -3.9435   -1.4381    0.0000 C   0  0  0  0  0  0  0  0  0  0  0  0
   -1.7639    2.3144    0.0000 C   0  0  0  0  0  0  0  0  0  0  0  0
   -1.0449    0.2247    0.0000 C   0  0  0  0  0  0  0  0  0  0  0  0
   -1.0673    2.7189    0.0000 C   0  0  0  0  0  0  0  0  0  0  0  0
   -4.0558   -2.2470    0.0000 C   0  0  0  0  0  0  0  0  0  0  0  0
    5.6962    1.6853    0.0000 C   0  0  0  0  0  0  0  0  0  0  0  0
    6.1007    2.4043    0.0000 C   0  0  0  0  0  0  0  0  0  0  0  0
   -5.2468   -1.7302    0.0000 C   0  0  0  0  0  0  0  0  0  0  0  0
   -3.2244   -1.0336    0.0000 C   0  0  0  0  0  0  0  0  0  0  0  0
   -1.7415   -0.1798    0.0000 C   0  0  0  0  0  0  0  0  0  0  0  0
   -1.7863   -1.0336    0.0000 C   0  0  0  0  0  0  0  0  0  0  0  0
   -2.4829   -2.2695    0.0000 C   0  0  0  0  0  0  0  0  0  0  0  0
   -3.3818   -2.8312    0.0000 C   0  0  0  0  0  0  0  0  0  0  0  0
   -1.7639   -2.6515    0.0000 C   0  0  0  0  0  0  0  0  0  0  0  0
  1 20  1  0  0  0  0
  2 29  1  0  0  0  0
  3  7  2  0  0  0  0
  3  8  2  0  0  0  0
  3 14  1  0  0  0  0
  3 17  1  0  0  0  0
  4 24  1  0  0  0  0
  4 33  1  0  0  0  0
  5 18  1  0  0  0  0
  6 19  1  0  0  0  0
  6 23  1  0  0  0  0
  9 28  1  0  0  0  0
  9 35  1  0  0  0  0
 10 32  1  0  0  0  0
 10 35  1  0  0  0  0
 11 35  2  0  0  0  0
 12 41  2  0  0  0  0
 13 41  1  0  0  0  0
 14 24  1  0  0  0  0
 15 24  2  0  0  0  0
 15 34  1  0  0  0  0
 16 36  1  0  0  0  0
 16 38  1  0  0  0  0
 16 39  1  0  0  0  0
 17 18  1  0  0  0  0
 17 21  2  0  0  0  0
 18 22  2  0  0  0  0
 19 20  2  0  0  0  0
 19 22  1  0  0  0  0
 20 21  1  0  0  0  0
 23 25  1  0  0  0  0
 23 26  2  0  0  0  0
 25 27  2  0  0  0  0
 25 30  1  0  0  0  0
 26 31  1  0  0  0  0
 27 29  1  0  0  0  0
 28 32  2  0  0  0  0
 28 36  1  0  0  0  0
 29 31  2  0  0  0  0
 30 37  1  0  0  0  0
 32 40  1  0  0  0  0
 33 34  2  0  0  0  0
 37 38  1  0  0  0  0
 39 41  1  0  0  0  0
M  END
> <PUBCHEM_COMPOUND_ID_TYPE>
0

> <PUBCHEM_TOTAL_CHARGE>
0

> <PUBCHEM_SUBSTANCE_ID>
310942887

> <PUBCHEM_SUBSTANCE_VERSION>
1

> <PUBCHEM_EXT_DATASOURCE_NAME>
4488

> <PUBCHEM_EXT_DATASOURCE_REGID>
SCHEMBL16120945

> <PUBCHEM_SUBSTANCE_COMMENT>
InChI=1S/C25H22Cl2FN3O8S2/c1-14-21(39-25(34)37-14)12-31(13-23(32)33)7-2-3-15-9-16(26)4-5-19(15)38-20-11-18(28)22(10-17(20)27)41(35,36)30-24-29-6-8-40-24/h4-6,8-11H,2-3,7,12-13H2,1H3,(H,29,30)(H,32,33)
InChIKey=FVLJCJMQFVCVMM-UHFFFAOYSA-N

> <PUBCHEM_SUBSTANCE_SYNONYM>
SCHEMBL16120945

> <PUBCHEM_XREF_EXT_ID>
SCHEMBL16120945

> <PUBCHEM_EXT_DATASOURCE_URL>
https://www.surechembl.org/

> <PUBCHEM_EXT_SUBSTANCE_URL>
https://www.surechembl.org/chemical/SCHEMBL16120945

> <PUBCHEM_CID_ASSOCIATIONS>
117609373  1

> <PUBCHEM_COORDINATE_TYPE>
1
3

$$$$
