310948345
  -OEChem-07211613022D

 18 19  0     1  0  0  0  0  0999 V2000
   -2.8473   -0.8037    0.0000 Br  0  0  0  0  0  0  0  0  0  0  0  0
    0.3811    0.6790    0.0000 S   0  0  0  0  0  0  0  0  0  0  0  0
    1.4340    1.1222    0.0000 F   0  0  0  0  0  0  0  0  0  0  0  0
    2.5424    1.4410    0.0000 F   0  0  0  0  0  0  0  0  0  0  0  0
    2.8473    0.3049    0.0000 F   0  0  0  0  0  0  0  0  0  0  0  0
    1.0599    1.1916    0.0000 O   0  0  0  0  0  0  0  0  0  0  0  0
   -0.2564    0.2217    0.0000 O   0  0  0  0  0  0  0  0  0  0  0  0
    0.9075    0.0139    0.0000 N   0  0  3  0  0  0  0  0  0  0  0  0
   -0.3811    0.4296    0.0000 C   0  0  0  0  0  0  0  0  0  0  0  0
   -0.3811   -0.3880    0.0000 C   0  0  0  0  0  0  0  0  0  0  0  0
    0.4087   -0.6512    0.0000 C   0  0  3  0  0  0  0  0  0  0  0  0
    1.7388    0.0277    0.0000 C   0  0  0  0  0  0  0  0  0  0  0  0
   -1.0876    0.8313    0.0000 C   0  0  0  0  0  0  0  0  0  0  0  0
   -1.0876   -0.8037    0.0000 C   0  0  0  0  0  0  0  0  0  0  0  0
    2.1407    0.7205    0.0000 C   0  0  0  0  0  0  0  0  0  0  0  0
   -1.8220   -0.4018    0.0000 C   0  0  0  0  0  0  0  0  0  0  0  0
   -1.8082    0.4296    0.0000 C   0  0  0  0  0  0  0  0  0  0  0  0
    0.6720   -1.4410    0.0000 C   0  0  0  0  0  0  0  0  0  0  0  0
  1 16  1  0  0  0  0
  2  6  2  0  0  0  0
  2  7  2  0  0  0  0
  2  8  1  0  0  0  0
  2  9  1  0  0  0  0
  3 15  1  0  0  0  0
  4 15  1  0  0  0  0
  5 15  1  0  0  0  0
  8 11  1  0  0  0  0
  8 12  1  0  0  0  0
  9 10  1  0  0  0  0
  9 13  2  0  0  0  0
 10 11  1  0  0  0  0
 10 14  2  0  0  0  0
 11 18  1  0  0  0  0
 12 15  1  0  0  0  0
 13 17  1  0  0  0  0
 14 16  1  0  0  0  0
 16 17  2  0  0  0  0
M  END
> <PUBCHEM_COMPOUND_ID_TYPE>
0

> <PUBCHEM_TOTAL_CHARGE>
0

> <PUBCHEM_SUBSTANCE_ID>
310948345

> <PUBCHEM_SUBSTANCE_VERSION>
1

> <PUBCHEM_EXT_DATASOURCE_NAME>
4488

> <PUBCHEM_EXT_DATASOURCE_REGID>
SCHEMBL16126523

> <PUBCHEM_SUBSTANCE_COMMENT>
InChI=1S/C10H9BrF3NO2S/c1-6-8-4-7(11)2-3-9(8)18(16,17)15(6)5-10(12,13)14/h2-4,6H,5H2,1H3
InChIKey=WQOLHUJUCPPDTI-UHFFFAOYSA-N

> <PUBCHEM_SUBSTANCE_SYNONYM>
SCHEMBL16126523

> <PUBCHEM_XREF_EXT_ID>
SCHEMBL16126523

> <PUBCHEM_EXT_DATASOURCE_URL>
https://www.surechembl.org/

> <PUBCHEM_EXT_SUBSTANCE_URL>
https://www.surechembl.org/chemical/SCHEMBL16126523

> <PUBCHEM_CID_ASSOCIATIONS>
117613909  1

> <PUBCHEM_COORDINATE_TYPE>
1
3

$$$$
