310945174
  -OEChem-07211613022D

 30 34  0     1  0  0  0  0  0999 V2000
    3.4124    0.3985    0.0000 O   0  0  0  0  0  0  0  0  0  0  0  0
   -1.2684   -1.8915    0.0000 O   0  0  0  0  0  0  0  0  0  0  0  0
   -1.9869    2.6659    0.0000 O   0  0  0  0  0  0  0  0  0  0  0  0
    1.6838   -0.9037    0.0000 N   0  0  0  0  0  0  0  0  0  0  0  0
    3.3339   -1.0720    0.0000 N   0  0  0  0  0  0  0  0  0  0  0  0
   -1.9869   -0.6455    0.0000 N   0  0  0  0  0  0  0  0  0  0  0  0
   -2.7053    1.4312    0.0000 N   0  0  0  0  0  0  0  0  0  0  0  0
    2.0206   -1.6557    0.0000 C   0  0  0  0  0  0  0  0  0  0  0  0
    0.8868   -0.6343    0.0000 C   0  0  0  0  0  0  0  0  0  0  0  0
    2.1665   -0.2301    0.0000 C   0  0  0  0  0  0  0  0  0  0  0  0
    0.8981    0.1852    0.0000 C   0  0  0  0  0  0  0  0  0  0  0  0
    1.6950    0.4321    0.0000 C   0  0  0  0  0  0  0  0  0  0  0  0
    2.9859   -0.3311    0.0000 C   0  0  0  0  0  0  0  0  0  0  0  0
    2.8513   -1.7455    0.0000 C   0  0  0  0  0  0  0  0  0  0  0  0
    1.2348   -1.8803    0.0000 C   0  0  0  0  0  0  0  0  0  0  0  0
    2.2338   -2.4527    0.0000 C   0  0  0  0  0  0  0  0  0  0  0  0
    0.1796   -1.0496    0.0000 C   0  0  0  0  0  0  0  0  0  0  0  0
    1.4368   -2.6659    0.0000 C   0  0  0  0  0  0  0  0  0  0  0  0
   -0.5388   -0.6455    0.0000 C   0  0  0  0  0  0  0  0  0  0  0  0
    0.1796    0.5894    0.0000 C   0  0  0  0  0  0  0  0  0  0  0  0
   -0.5388    0.1852    0.0000 C   0  0  0  0  0  0  0  0  0  0  0  0
   -1.2572   -1.0384    0.0000 C   0  0  0  0  0  0  0  0  0  0  0  0
   -1.9869    0.1852    0.0000 C   0  0  0  0  0  0  0  0  0  0  0  0
   -2.6828   -1.0496    0.0000 C   0  0  0  0  0  0  0  0  0  0  0  0
   -2.6940    0.6006    0.0000 C   0  0  3  0  0  0  0  0  0  0  0  0
   -3.4124   -0.6455    0.0000 C   0  0  0  0  0  0  0  0  0  0  0  0
   -3.4124    0.1852    0.0000 C   0  0  0  0  0  0  0  0  0  0  0  0
   -1.9869    1.8353    0.0000 C   0  0  0  0  0  0  0  0  0  0  0  0
   -1.2572    1.4312    0.0000 C   0  0  0  0  0  0  0  0  0  0  0  0
   -0.5612    1.9027    0.0000 C   0  0  0  0  0  0  0  0  0  0  0  0
  1 13  2  0  0  0  0
  2 22  2  0  0  0  0
  3 28  2  0  0  0  0
  4  8  1  0  0  0  0
  4  9  1  0  0  0  0
  4 10  1  0  0  0  0
  5 13  1  0  0  0  0
  5 14  1  0  0  0  0
  6 22  1  0  0  0  0
  6 23  1  0  0  0  0
  6 24  1  0  0  0  0
  7 25  1  0  0  0  0
  7 28  1  0  0  0  0
  8 14  1  0  0  0  0
  8 15  1  0  0  0  0
  8 16  1  0  0  0  0
  9 11  1  0  0  0  0
  9 17  2  0  0  0  0
 10 12  2  0  0  0  0
 10 13  1  0  0  0  0
 11 12  1  0  0  0  0
 11 20  2  0  0  0  0
 15 18  1  0  0  0  0
 16 18  1  0  0  0  0
 17 19  1  0  0  0  0
 19 21  2  0  0  0  0
 19 22  1  0  0  0  0
 20 21  1  0  0  0  0
 23 25  1  0  0  0  0
 24 26  1  0  0  0  0
 25 27  1  0  0  0  0
 26 27  1  0  0  0  0
 28 29  1  0  0  0  0
 29 30  2  0  0  0  0
M  END
> <PUBCHEM_COMPOUND_ID_TYPE>
0

> <PUBCHEM_TOTAL_CHARGE>
0

> <PUBCHEM_SUBSTANCE_ID>
310945174

> <PUBCHEM_SUBSTANCE_VERSION>
1

> <PUBCHEM_EXT_DATASOURCE_NAME>
4488

> <PUBCHEM_EXT_DATASOURCE_REGID>
SCHEMBL16123264

> <PUBCHEM_SUBSTANCE_COMMENT>
InChI=1S/C23H26N4O3/c1-2-20(28)25-17-5-3-10-26(13-17)22(30)16-7-6-15-11-19-21(29)24-14-23(8-4-9-23)27(19)18(15)12-16/h2,6-7,11-12,17H,1,3-5,8-10,13-14H2,(H,24,29)(H,25,28)
InChIKey=WWUCXFCODJTJIW-UHFFFAOYSA-N

> <PUBCHEM_SUBSTANCE_SYNONYM>
SCHEMBL16123264

> <PUBCHEM_XREF_EXT_ID>
SCHEMBL16123264

> <PUBCHEM_EXT_DATASOURCE_URL>
https://www.surechembl.org/

> <PUBCHEM_EXT_SUBSTANCE_URL>
https://www.surechembl.org/chemical/SCHEMBL16123264

> <PUBCHEM_CID_ASSOCIATIONS>
117611260  1

> <PUBCHEM_COORDINATE_TYPE>
1
3

$$$$
