310943848
  -OEChem-07211613022D

 27 30  0     1  0  0  0  0  0999 V2000
    3.4010    1.5511    0.0000 S   0  0  0  0  0  0  0  0  0  0  0  0
    3.8842    0.4450    0.0000 N   0  0  0  0  0  0  0  0  0  0  0  0
    4.4563    0.9408    0.0000 N   0  0  0  0  0  0  0  0  0  0  0  0
   -2.7017   -1.7546    0.0000 N   0  0  3  0  0  0  0  0  0  0  0  0
    4.4945    2.2122    0.0000 N   0  0  0  0  0  0  0  0  0  0  0  0
   -4.4945   -1.1951    0.0000 N   0  0  3  0  0  0  0  0  0  0  0  0
    2.5110    0.4323    0.0000 C   0  0  0  0  0  0  0  0  0  0  0  0
    3.2358    0.8264    0.0000 C   0  0  0  0  0  0  0  0  0  0  0  0
    1.0743   -0.3942    0.0000 C   0  0  0  0  0  0  0  0  0  0  0  0
    0.1589   -0.9154    0.0000 C   0  0  0  0  0  0  0  0  0  0  0  0
    1.7864    0.8264    0.0000 C   0  0  0  0  0  0  0  0  0  0  0  0
    2.4983   -0.4069    0.0000 C   0  0  0  0  0  0  0  0  0  0  0  0
    1.0870    0.4069    0.0000 C   0  0  0  0  0  0  0  0  0  0  0  0
    1.7864   -0.8137    0.0000 C   0  0  0  0  0  0  0  0  0  0  0  0
    4.1384    1.6274    0.0000 C   0  0  0  0  0  0  0  0  0  0  0  0
   -1.2778   -1.7419    0.0000 C   0  0  0  0  0  0  0  0  0  0  0  0
   -0.5785   -0.5086    0.0000 C   0  0  0  0  0  0  0  0  0  0  0  0
    0.1462   -1.7419    0.0000 C   0  0  0  0  0  0  0  0  0  0  0  0
   -1.2650   -0.9154    0.0000 C   0  0  0  0  0  0  0  0  0  0  0  0
   -0.5785   -2.1487    0.0000 C   0  0  0  0  0  0  0  0  0  0  0  0
   -1.9770   -2.1613    0.0000 C   0  0  0  0  0  0  0  0  0  0  0  0
   -3.3883   -2.2122    0.0000 C   0  0  0  0  0  0  0  0  0  0  0  0
   -2.6509   -0.9154    0.0000 C   0  0  0  0  0  0  0  0  0  0  0  0
   -4.2021   -1.9580    0.0000 C   0  0  0  0  0  0  0  0  0  0  0  0
   -3.2740   -0.3560    0.0000 C   0  0  0  0  0  0  0  0  0  0  0  0
   -4.0749   -0.4832    0.0000 C   0  0  0  0  0  0  0  0  0  0  0  0
   -4.4945   -1.1951    0.0000 C   0  0  0  0  0  0  0  0  0  0  0  0
  1  8  1  0  0  0  0
  1 15  1  0  0  0  0
  2  3  1  0  0  0  0
  2  8  2  0  0  0  0
  3 15  2  0  0  0  0
  4 21  1  0  0  0  0
  4 22  1  0  0  0  0
  4 23  1  0  0  0  0
  5 15  1  0  0  0  0
  6 24  1  0  0  0  0
  6 26  1  0  0  0  0
  6 27  1  0  0  0  0
  7  8  1  0  0  0  0
  7 11  2  0  0  0  0
  7 12  1  0  0  0  0
  9 10  1  0  0  0  0
  9 13  2  0  0  0  0
  9 14  1  0  0  0  0
 10 17  2  0  0  0  0
 10 18  1  0  0  0  0
 11 13  1  0  0  0  0
 12 14  2  0  0  0  0
 16 19  2  0  0  0  0
 16 20  1  0  0  0  0
 16 21  1  0  0  0  0
 17 19  1  0  0  0  0
 18 20  2  0  0  0  0
 22 24  1  0  0  0  0
 23 25  1  0  0  0  0
 25 26  1  0  0  0  0
M  END
> <PUBCHEM_COMPOUND_ID_TYPE>
0

> <PUBCHEM_TOTAL_CHARGE>
0

> <PUBCHEM_SUBSTANCE_ID>
310943848

> <PUBCHEM_SUBSTANCE_VERSION>
1

> <PUBCHEM_EXT_DATASOURCE_NAME>
4488

> <PUBCHEM_EXT_DATASOURCE_REGID>
SCHEMBL16121919

> <PUBCHEM_SUBSTANCE_COMMENT>
InChI=1S/C21H25N5S/c1-25-11-2-12-26(14-13-25)15-16-3-5-17(6-4-16)18-7-9-19(10-8-18)20-23-24-21(22)27-20/h3-10H,2,11-15H2,1H3,(H2,22,24)
InChIKey=HMHSPAKNLSAAMP-UHFFFAOYSA-N

> <PUBCHEM_SUBSTANCE_SYNONYM>
SCHEMBL16121919

> <PUBCHEM_XREF_EXT_ID>
SCHEMBL16121919

> <PUBCHEM_EXT_DATASOURCE_URL>
https://www.surechembl.org/

> <PUBCHEM_EXT_SUBSTANCE_URL>
https://www.surechembl.org/chemical/SCHEMBL16121919

> <PUBCHEM_CID_ASSOCIATIONS>
86300026  1

> <PUBCHEM_COORDINATE_TYPE>
1
3

$$$$
