310940499
  -OEChem-07211613022D

 25 27  0     1  0  0  0  0  0999 V2000
    0.0412   -2.7111    0.0000 S   0  0  0  0  0  0  0  0  0  0  0  0
   -0.1855   -3.5152    0.0000 O   0  0  0  0  0  0  0  0  0  0  0  0
   -0.8246   -2.7111    0.0000 O   0  0  0  0  0  0  0  0  0  0  0  0
   -1.4226   -1.8865    0.0000 O   0  0  0  0  0  0  0  0  0  0  0  0
   -0.7215   -0.6289    0.0000 N   0  0  0  0  0  0  0  0  0  0  0  0
    0.0000   -1.8865    0.0000 C   0  0  3  0  0  0  0  0  0  0  0  0
   -0.7010   -1.4535    0.0000 C   0  0  0  0  0  0  0  0  0  0  0  0
   -0.7215    1.8865    0.0000 C   0  0  0  0  0  0  0  0  0  0  0  0
   -0.7421    1.0617    0.0000 C   0  0  0  0  0  0  0  0  0  0  0  0
   -0.0206    2.3193    0.0000 C   0  0  0  0  0  0  0  0  0  0  0  0
    0.8040   -1.6184    0.0000 C   0  0  0  0  0  0  0  0  0  0  0  0
    0.8040   -2.9585    0.0000 C   0  0  0  0  0  0  0  0  0  0  0  0
    0.7421    1.8659    0.0000 C   0  0  0  0  0  0  0  0  0  0  0  0
    0.0000   -0.2371    0.0000 C   0  0  0  0  0  0  0  0  0  0  0  0
   -1.4432   -0.2165    0.0000 C   0  0  0  0  0  0  0  0  0  0  0  0
    0.0206    0.6289    0.0000 C   0  0  0  0  0  0  0  0  0  0  0  0
   -1.4226    0.6289    0.0000 C   0  0  0  0  0  0  0  0  0  0  0  0
    1.2988   -2.2781    0.0000 C   0  0  0  0  0  0  0  0  0  0  0  0
   -1.4432    2.2781    0.0000 C   0  0  0  0  0  0  0  0  0  0  0  0
    0.0000    3.0616    0.0000 C   0  0  0  0  0  0  0  0  0  0  0  0
   -1.4638    3.1028    0.0000 C   0  0  0  0  0  0  0  0  0  0  0  0
   -0.7215    3.5152    0.0000 C   0  0  0  0  0  0  0  0  0  0  0  0
    1.4432    2.3193    0.0000 C   0  0  0  0  0  0  0  0  0  0  0  0
    1.4638    1.4741    0.0000 C   0  0  0  0  0  0  0  0  0  0  0  0
    0.7421    1.0411    0.0000 C   0  0  0  0  0  0  0  0  0  0  0  0
  1  2  2  0  0  0  0
  1  3  2  0  0  0  0
  1  6  1  0  0  0  0
  1 12  1  0  0  0  0
  4  7  2  0  0  0  0
  5  7  1  0  0  0  0
  5 14  1  0  0  0  0
  5 15  1  0  0  0  0
  6  7  1  0  0  0  0
  6 11  1  0  0  0  0
  8  9  1  0  0  0  0
  8 10  2  0  0  0  0
  8 19  1  0  0  0  0
  9 16  1  0  0  0  0
  9 17  1  0  0  0  0
 10 13  1  0  0  0  0
 10 20  1  0  0  0  0
 11 18  1  0  0  0  0
 12 18  1  0  0  0  0
 13 23  1  0  0  0  0
 13 24  1  0  0  0  0
 13 25  1  0  0  0  0
 14 16  1  0  0  0  0
 15 17  1  0  0  0  0
 19 21  2  0  0  0  0
 20 22  2  0  0  0  0
 21 22  1  0  0  0  0
M  END
> <PUBCHEM_COMPOUND_ID_TYPE>
0

> <PUBCHEM_TOTAL_CHARGE>
0

> <PUBCHEM_SUBSTANCE_ID>
310940499

> <PUBCHEM_SUBSTANCE_VERSION>
1

> <PUBCHEM_EXT_DATASOURCE_NAME>
4488

> <PUBCHEM_EXT_DATASOURCE_REGID>
SCHEMBL16118453

> <PUBCHEM_SUBSTANCE_COMMENT>
InChI=1S/C20H29NO3S/c1-20(2,3)17-8-5-4-7-16(17)15-10-12-21(13-11-15)19(22)18-9-6-14-25(18,23)24/h4-5,7-8,15,18H,6,9-14H2,1-3H3
InChIKey=KJGYTTFVGPCUAG-UHFFFAOYSA-N

> <PUBCHEM_SUBSTANCE_SYNONYM>
SCHEMBL16118453

> <PUBCHEM_XREF_EXT_ID>
SCHEMBL16118453

> <PUBCHEM_EXT_DATASOURCE_URL>
https://www.surechembl.org/

> <PUBCHEM_EXT_SUBSTANCE_URL>
https://www.surechembl.org/chemical/SCHEMBL16118453

> <PUBCHEM_CID_ASSOCIATIONS>
117607514  1

> <PUBCHEM_COORDINATE_TYPE>
1
3

$$$$
