310939132
  -OEChem-07211613022D

 24 25  0     1  0  0  0  0  0999 V2000
   -0.3572    0.6187    0.0000 F   0  0  0  0  0  0  0  0  0  0  0  0
   -1.7862   -1.8563    0.0000 F   0  0  0  0  0  0  0  0  0  0  0  0
   -1.7862   -0.2063    0.0000 O   0  0  0  0  0  0  0  0  0  0  0  0
    3.2151    1.0313    0.0000 O   0  0  0  0  0  0  0  0  0  0  0  0
    1.0717    0.6188    0.0000 N   0  0  0  0  0  0  0  0  0  0  0  0
   -1.0717   -0.6188    0.0000 C   0  0  0  0  0  0  0  0  0  0  0  0
   -0.3572   -0.2063    0.0000 C   0  0  0  0  0  0  0  0  0  0  0  0
    0.3572   -0.6188    0.0000 C   0  0  0  0  0  0  0  0  0  0  0  0
   -1.0717   -1.4438    0.0000 C   0  0  0  0  0  0  0  0  0  0  0  0
    1.0717   -0.2062    0.0000 C   0  0  3  0  0  0  0  0  0  0  0  0
    0.3572   -1.4438    0.0000 C   0  0  0  0  0  0  0  0  0  0  0  0
   -0.3572   -1.8562    0.0000 C   0  0  0  0  0  0  0  0  0  0  0  0
   -2.5006   -0.6188    0.0000 C   0  0  0  0  0  0  0  0  0  0  0  0
    1.7862   -0.6187    0.0000 C   0  0  0  0  0  0  0  0  0  0  0  0
    1.7862    1.0313    0.0000 C   0  0  3  0  0  0  0  0  0  0  0  0
   -2.5006   -1.4438    0.0000 C   0  0  0  0  0  0  0  0  0  0  0  0
   -3.2151   -0.2063    0.0000 C   0  0  0  0  0  0  0  0  0  0  0  0
   -3.2151   -1.8563    0.0000 C   0  0  0  0  0  0  0  0  0  0  0  0
   -3.9296   -0.6188    0.0000 C   0  0  0  0  0  0  0  0  0  0  0  0
    2.5006    0.6188    0.0000 C   0  0  0  0  0  0  0  0  0  0  0  0
    1.7862   -1.4437    0.0000 C   0  0  0  0  0  0  0  0  0  0  0  0
   -3.9296   -1.4438    0.0000 C   0  0  0  0  0  0  0  0  0  0  0  0
    1.7862    1.8563    0.0000 C   0  0  0  0  0  0  0  0  0  0  0  0
    3.9296    0.6188    0.0000 C   0  0  0  0  0  0  0  0  0  0  0  0
  1  7  1  0  0  0  0
  2  9  1  0  0  0  0
  3  6  1  0  0  0  0
  3 13  1  0  0  0  0
  4 20  1  0  0  0  0
  4 24  1  0  0  0  0
  5 10  1  0  0  0  0
  5 15  1  0  0  0  0
  6  7  1  0  0  0  0
  6  9  2  0  0  0  0
  7  8  2  0  0  0  0
  8 10  1  0  0  0  0
  8 11  1  0  0  0  0
  9 12  1  0  0  0  0
 10 14  1  0  0  0  0
 11 12  2  0  0  0  0
 13 16  2  0  0  0  0
 13 17  1  0  0  0  0
 14 21  1  0  0  0  0
 15 20  1  0  0  0  0
 15 23  1  0  0  0  0
 16 18  1  0  0  0  0
 17 19  2  0  0  0  0
 18 22  2  0  0  0  0
 19 22  1  0  0  0  0
M  END
> <PUBCHEM_COMPOUND_ID_TYPE>
0

> <PUBCHEM_TOTAL_CHARGE>
0

> <PUBCHEM_SUBSTANCE_ID>
310939132

> <PUBCHEM_SUBSTANCE_VERSION>
1

> <PUBCHEM_EXT_DATASOURCE_NAME>
4488

> <PUBCHEM_EXT_DATASOURCE_REGID>
SCHEMBL16117053

> <PUBCHEM_SUBSTANCE_COMMENT>
InChI=1S/C19H23F2NO2/c1-4-17(22-13(2)12-23-3)15-10-11-16(20)19(18(15)21)24-14-8-6-5-7-9-14/h5-11,13,17,22H,4,12H2,1-3H3
InChIKey=ZTWYYZDRHVMPAA-UHFFFAOYSA-N

> <PUBCHEM_SUBSTANCE_SYNONYM>
SCHEMBL16117053

> <PUBCHEM_XREF_EXT_ID>
SCHEMBL16117053

> <PUBCHEM_EXT_DATASOURCE_URL>
https://www.surechembl.org/

> <PUBCHEM_EXT_SUBSTANCE_URL>
https://www.surechembl.org/chemical/SCHEMBL16117053

> <PUBCHEM_CID_ASSOCIATIONS>
117606487  1

> <PUBCHEM_COORDINATE_TYPE>
1
3

$$$$
