310937521
  -OEChem-07211613022D

 34 36  0     1  0  0  0  0  0999 V2000
    0.1500   -0.7125    0.0000 F   0  0  0  0  0  0  0  0  0  0  0  0
    9.8253   -1.1250    0.0000 F   0  0  0  0  0  0  0  0  0  0  0  0
    9.1128   -2.4001    0.0000 F   0  0  0  0  0  0  0  0  0  0  0  0
    9.1128   -1.5375    0.0000 F   0  0  0  0  0  0  0  0  0  0  0  0
    6.0002   -2.1750    0.0000 O   0  0  0  0  0  0  0  0  0  0  0  0
   10.5378   -3.2251    0.0000 O   0  0  0  0  0  0  0  0  0  0  0  0
   11.2503   -1.9501    0.0000 O   0  0  0  0  0  0  0  0  0  0  0  0
    1.0125   -2.1750    0.0000 N   0  0  0  0  0  0  0  0  0  0  0  0
    2.2500   -1.4250    0.0000 N   0  0  0  0  0  0  0  0  0  0  0  0
    3.5251   -0.7125    0.0000 N   0  0  0  0  0  0  0  0  0  0  0  0
    2.2500    0.0000    0.0000 N   0  0  0  0  0  0  0  0  0  0  0  0
    0.0000   -3.0751    0.0000 N   0  0  0  0  0  0  0  0  0  0  0  0
    7.4252   -0.5625    0.0000 N   0  0  0  0  0  0  0  0  0  0  0  0
    1.4250   -1.4250    0.0000 C   0  0  0  0  0  0  0  0  0  0  0  0
    2.6626   -0.7125    0.0000 C   0  0  0  0  0  0  0  0  0  0  0  0
    0.9750   -0.7125    0.0000 C   0  0  0  0  0  0  0  0  0  0  0  0
    3.9376   -1.4626    0.0000 C   0  0  0  0  0  0  0  0  0  0  0  0
    1.4250    0.0000    0.0000 C   0  0  0  0  0  0  0  0  0  0  0  0
    5.1752   -2.1750    0.0000 C   0  0  0  0  0  0  0  0  0  0  0  0
    4.7626   -1.4626    0.0000 C   0  0  0  0  0  0  0  0  0  0  0  0
    0.1875   -2.2876    0.0000 C   0  0  0  0  0  0  0  0  0  0  0  0
    1.3500   -2.9251    0.0000 C   0  0  0  0  0  0  0  0  0  0  0  0
    3.9376   -2.8876    0.0000 C   0  0  0  0  0  0  0  0  0  0  0  0
    3.5251   -2.1750    0.0000 C   0  0  0  0  0  0  0  0  0  0  0  0
    4.7626   -2.8876    0.0000 C   0  0  0  0  0  0  0  0  0  0  0  0
    0.7500   -3.4876    0.0000 C   0  0  0  0  0  0  0  0  0  0  0  0
    6.4127   -1.4626    0.0000 C   0  0  3  0  0  0  0  0  0  0  0  0
    3.5251   -3.6001    0.0000 C   0  0  0  0  0  0  0  0  0  0  0  0
    7.2377   -1.3500    0.0000 C   0  0  0  0  0  0  0  0  0  0  0  0
    6.0751   -0.6750    0.0000 C   0  0  0  0  0  0  0  0  0  0  0  0
    9.8253   -1.9501    0.0000 C   0  0  0  0  0  0  0  0  0  0  0  0
    6.7127   -0.1500    0.0000 C   0  0  0  0  0  0  0  0  0  0  0  0
   10.5378   -2.4001    0.0000 C   0  0  0  0  0  0  0  0  0  0  0  0
    3.9376   -4.3501    0.0000 C   0  0  0  0  0  0  0  0  0  0  0  0
  1 16  1  0  0  0  0
  2 31  1  0  0  0  0
  3 31  1  0  0  0  0
  4 31  1  0  0  0  0
  5 19  1  0  0  0  0
 27  5  1  1  0  0  0
  6 33  2  0  0  0  0
  7 33  1  0  0  0  0
  8 14  1  0  0  0  0
  8 21  1  0  0  0  0
  8 22  1  0  0  0  0
  9 14  2  0  0  0  0
  9 15  1  0  0  0  0
 10 15  1  0  0  0  0
 10 17  1  0  0  0  0
 11 15  2  0  0  0  0
 11 18  1  0  0  0  0
 12 21  2  0  0  0  0
 12 26  1  0  0  0  0
 13 29  1  0  0  0  0
 13 32  1  0  0  0  0
 14 16  1  0  0  0  0
 16 18  2  0  0  0  0
 17 20  2  0  0  0  0
 17 24  1  0  0  0  0
 19 20  1  0  0  0  0
 19 25  2  0  0  0  0
 22 26  2  0  0  0  0
 23 24  2  0  0  0  0
 23 25  1  0  0  0  0
 23 28  1  0  0  0  0
 27 29  1  0  0  0  0
 27 30  1  0  0  0  0
 28 34  1  0  0  0  0
 30 32  1  0  0  0  0
 31 33  1  0  0  0  0
M  END
> <PUBCHEM_COMPOUND_ID_TYPE>
0

> <PUBCHEM_TOTAL_CHARGE>
0

> <PUBCHEM_SUBSTANCE_ID>
310937521

> <PUBCHEM_SUBSTANCE_VERSION>
1

> <PUBCHEM_EXT_DATASOURCE_NAME>
4488

> <PUBCHEM_EXT_DATASOURCE_REGID>
SCHEMBL16115295

> <PUBCHEM_SUBSTANCE_COMMENT>
InChI=1S/C19H21FN6O.C2HF3O2/c1-2-13-7-14(9-16(8-13)27-15-3-4-21-10-15)24-19-23-11-17(20)18(25-19)26-6-5-22-12-26;3-2(4,5)1(6)7/h5-9,11-12,15,21H,2-4,10H2,1H3,(H,23,24,25);(H,6,7)/t15-;/m0./s1
InChIKey=NREWFWMXVAXLIZ-RSAXXLAASA-N

> <PUBCHEM_SUBSTANCE_SYNONYM>
SCHEMBL16115295

> <PUBCHEM_XREF_EXT_ID>
SCHEMBL16115295

> <PUBCHEM_EXT_DATASOURCE_URL>
https://www.surechembl.org/

> <PUBCHEM_EXT_SUBSTANCE_URL>
https://www.surechembl.org/chemical/SCHEMBL16115295

> <PUBCHEM_CID_ASSOCIATIONS>
86301430  1
6422  2
86301431  2

> <PUBCHEM_COORDINATE_TYPE>
1
3

> <PUBCHEM_BONDANNOTATIONS>
27  5  5

$$$$
