310941933
  -OEChem-07211613022D

 22 21  0     1  0  0  0  0  0999 V2000
   -0.0125    1.6375    0.0000 O   0  0  0  0  0  0  0  0  0  0  0  0
   -0.7375    2.8876    0.0000 O   0  0  0  0  0  0  0  0  0  0  0  0
   -0.7375   -0.4500    0.0000 O   0  0  0  0  0  0  0  0  0  0  0  0
    2.8750    1.6375    0.0000 O   0  0  0  0  0  0  0  0  0  0  0  0
   -1.3126    0.8000    0.0000 N   0  0  0  0  0  0  0  0  0  0  0  0
   -1.4500    1.6501    0.0000 C   0  0  3  0  0  0  0  0  0  0  0  0
   -0.7375    2.0376    0.0000 C   0  0  0  0  0  0  0  0  0  0  0  0
   -2.1751    2.0500    0.0000 C   0  0  0  0  0  0  0  0  0  0  0  0
   -0.7250    0.4125    0.0000 C   0  0  0  0  0  0  0  0  0  0  0  0
    0.0000    0.8000    0.0000 C   0  0  0  0  0  0  0  0  0  0  0  0
    0.7125    2.0500    0.0000 C   0  0  0  0  0  0  0  0  0  0  0  0
   -2.8750    1.6250    0.0000 C   0  0  0  0  0  0  0  0  0  0  0  0
   -2.1751    2.8750    0.0000 C   0  0  0  0  0  0  0  0  0  0  0  0
    1.4500    1.6375    0.0000 C   0  0  0  0  0  0  0  0  0  0  0  0
    0.7125    0.3875    0.0000 C   0  0  0  0  0  0  0  0  0  0  0  0
    2.1500    2.0500    0.0000 C   0  0  3  0  0  0  0  0  0  0  0  0
    0.6625   -0.4125    0.0000 C   0  0  0  0  0  0  0  0  0  0  0  0
    1.4001   -0.8250    0.0000 C   0  0  0  0  0  0  0  0  0  0  0  0
    2.1625    2.8750    0.0000 C   0  0  0  0  0  0  0  0  0  0  0  0
    1.3126   -1.6000    0.0000 C   0  0  0  0  0  0  0  0  0  0  0  0
    2.0500   -2.0376    0.0000 C   0  0  0  0  0  0  0  0  0  0  0  0
    2.0126   -2.8876    0.0000 C   0  0  0  0  0  0  0  0  0  0  0  0
  1  7  1  0  0  0  0
  1 11  1  0  0  0  0
  2  7  2  0  0  0  0
  3  9  2  0  0  0  0
  4 16  1  0  0  0  0
  5  6  1  0  0  0  0
  5  9  1  0  0  0  0
  6  7  1  0  0  0  0
  6  8  1  0  0  0  0
  8 12  1  0  0  0  0
  8 13  1  0  0  0  0
  9 10  1  0  0  0  0
 10 15  1  0  0  0  0
 11 14  1  0  0  0  0
 14 16  1  0  0  0  0
 15 17  1  0  0  0  0
 16 19  1  0  0  0  0
 17 18  1  0  0  0  0
 18 20  1  0  0  0  0
 20 21  1  0  0  0  0
 21 22  1  0  0  0  0
M  END
> <PUBCHEM_COMPOUND_ID_TYPE>
0

> <PUBCHEM_TOTAL_CHARGE>
0

> <PUBCHEM_SUBSTANCE_ID>
310941933

> <PUBCHEM_SUBSTANCE_VERSION>
1

> <PUBCHEM_EXT_DATASOURCE_NAME>
4488

> <PUBCHEM_EXT_DATASOURCE_REGID>
SCHEMBL16119966

> <PUBCHEM_SUBSTANCE_COMMENT>
InChI=1S/C17H33NO4/c1-5-6-7-8-9-10-15(20)18-16(13(2)3)17(21)22-12-11-14(4)19/h13-14,16,19H,5-12H2,1-4H3,(H,18,20)
InChIKey=GYWCWTTYYAESDF-UHFFFAOYSA-N

> <PUBCHEM_SUBSTANCE_SYNONYM>
SCHEMBL16119966

> <PUBCHEM_XREF_EXT_ID>
SCHEMBL16119966

> <PUBCHEM_EXT_DATASOURCE_URL>
https://www.surechembl.org/

> <PUBCHEM_EXT_SUBSTANCE_URL>
https://www.surechembl.org/chemical/SCHEMBL16119966

> <PUBCHEM_CID_ASSOCIATIONS>
71526058  1

> <PUBCHEM_COORDINATE_TYPE>
1
3

$$$$
