310948812
  -OEChem-07211613022D

 32 34  0     1  0  0  0  0  0999 V2000
   -1.7394   -0.2063    0.0000 F   0  0  0  0  0  0  0  0  0  0  0  0
   -2.1518    1.8013    0.0000 O   0  0  0  0  0  0  0  0  0  0  0  0
    0.4056    2.6812    0.0000 O   0  0  0  0  0  0  0  0  0  0  0  0
   -3.2656    0.1925    0.0000 O   0  0  0  0  0  0  0  0  0  0  0  0
   -3.9806    1.4299    0.0000 O   0  0  0  0  0  0  0  0  0  0  0  0
    1.1206   -0.2063    0.0000 N   0  0  3  0  0  0  0  0  0  0  0  0
    1.1206    1.4437    0.0000 N   0  0  0  0  0  0  0  0  0  0  0  0
    1.8356    2.6812    0.0000 N   0  0  0  0  0  0  0  0  0  0  0  0
    3.9806    2.2687    0.0000 N   0  0  0  0  0  0  0  0  0  0  0  0
    3.2656    1.0312    0.0000 N   0  0  0  0  0  0  0  0  0  0  0  0
    0.3918    0.2200    0.0000 C   0  0  0  0  0  0  0  0  0  0  0  0
    0.4056    1.0449    0.0000 C   0  0  0  0  0  0  0  0  0  0  0  0
   -1.0106    1.0312    0.0000 C   0  0  0  0  0  0  0  0  0  0  0  0
   -1.0244    0.2063    0.0000 C   0  0  0  0  0  0  0  0  0  0  0  0
   -0.3093   -0.2063    0.0000 C   0  0  0  0  0  0  0  0  0  0  0  0
   -0.3093    1.4299    0.0000 C   0  0  0  0  0  0  0  0  0  0  0  0
    1.1068   -1.0312    0.0000 C   0  0  0  0  0  0  0  0  0  0  0  0
    1.8219    0.2063    0.0000 C   0  0  0  0  0  0  0  0  0  0  0  0
    1.1344    2.2687    0.0000 C   0  0  0  0  0  0  0  0  0  0  0  0
    0.4056   -1.4575    0.0000 C   0  0  0  0  0  0  0  0  0  0  0  0
    1.8219   -1.4575    0.0000 C   0  0  0  0  0  0  0  0  0  0  0  0
    2.5506   -0.2063    0.0000 C   0  0  0  0  0  0  0  0  0  0  0  0
   -3.3343    1.0587    0.0000 C   0  0  0  0  0  0  0  0  0  0  0  0
    2.5506    2.2687    0.0000 C   0  0  0  0  0  0  0  0  0  0  0  0
    0.4056   -2.2687    0.0000 C   0  0  0  0  0  0  0  0  0  0  0  0
    1.8219   -2.2825    0.0000 C   0  0  0  0  0  0  0  0  0  0  0  0
    1.1206   -2.6812    0.0000 C   0  0  0  0  0  0  0  0  0  0  0  0
    3.2380    2.6812    0.0000 C   0  0  0  0  0  0  0  0  0  0  0  0
    2.5506    1.4437    0.0000 C   0  0  0  0  0  0  0  0  0  0  0  0
    3.2656    0.2063    0.0000 C   0  0  0  0  0  0  0  0  0  0  0  0
    2.5644   -1.0587    0.0000 C   0  0  0  0  0  0  0  0  0  0  0  0
    3.9668    1.4437    0.0000 C   0  0  0  0  0  0  0  0  0  0  0  0
  1 14  1  0  0  0  0
  2 13  1  0  0  0  0
  2 23  1  0  0  0  0
  3 19  2  0  0  0  0
  4 23  2  0  0  0  0
  5 23  1  0  0  0  0
  6 11  1  0  0  0  0
  6 17  1  0  0  0  0
  6 18  1  0  0  0  0
  7 12  1  0  0  0  0
  7 19  1  0  0  0  0
  8 19  1  0  0  0  0
  8 24  1  0  0  0  0
  9 28  2  0  0  0  0
  9 32  1  0  0  0  0
 10 29  1  0  0  0  0
 10 32  2  0  0  0  0
 11 12  1  0  0  0  0
 11 15  2  0  0  0  0
 12 16  2  0  0  0  0
 13 14  2  0  0  0  0
 13 16  1  0  0  0  0
 14 15  1  0  0  0  0
 17 20  1  0  0  0  0
 17 21  1  0  0  0  0
 18 22  1  0  0  0  0
 20 25  1  0  0  0  0
 21 26  1  0  0  0  0
 22 30  1  0  0  0  0
 22 31  1  0  0  0  0
 24 28  1  0  0  0  0
 24 29  2  0  0  0  0
 25 27  1  0  0  0  0
 26 27  1  0  0  0  0
M  END
> <PUBCHEM_COMPOUND_ID_TYPE>
0

> <PUBCHEM_TOTAL_CHARGE>
0

> <PUBCHEM_SUBSTANCE_ID>
310948812

> <PUBCHEM_SUBSTANCE_VERSION>
1

> <PUBCHEM_EXT_DATASOURCE_NAME>
4488

> <PUBCHEM_EXT_DATASOURCE_REGID>
SCHEMBL16126996

> <PUBCHEM_SUBSTANCE_COMMENT>
InChI=1S/C22H28FN5O4/c1-14(2)12-28(16-6-4-3-5-7-16)19-8-17(23)20(32-22(30)31)9-18(19)27-21(29)26-15-10-24-13-25-11-15/h8-11,13-14,16H,3-7,12H2,1-2H3,(H,30,31)(H2,26,27,29)
InChIKey=LZERYBVIVBVZJH-UHFFFAOYSA-N

> <PUBCHEM_SUBSTANCE_SYNONYM>
SCHEMBL16126996

> <PUBCHEM_XREF_EXT_ID>
SCHEMBL16126996

> <PUBCHEM_EXT_DATASOURCE_URL>
https://www.surechembl.org/

> <PUBCHEM_EXT_SUBSTANCE_URL>
https://www.surechembl.org/chemical/SCHEMBL16126996

> <PUBCHEM_CID_ASSOCIATIONS>
117614351  1

> <PUBCHEM_COORDINATE_TYPE>
1
3

$$$$
