310940317
  -OEChem-07211613022D

 44 46  0     1  0  0  0  0  0999 V2000
    5.6601    0.2873    0.0000 Cl  0  0  0  0  0  0  0  0  0  0  0  0
    3.0112   -1.1620    0.0000 Cl  0  0  0  0  0  0  0  0  0  0  0  0
    6.5098   -1.1120    0.0000 F   0  0  0  0  0  0  0  0  0  0  0  0
    4.4106    0.9871    0.0000 O   0  0  0  0  0  0  0  0  0  0  0  0
   -1.5118   -1.2869    0.0000 O   0  0  0  0  0  0  0  0  0  0  0  0
   -6.0100   -1.6118    0.0000 O   0  0  0  0  0  0  0  0  0  0  0  0
   -5.5351   -0.3124    0.0000 O   0  0  0  0  0  0  0  0  0  0  0  0
    0.6372    1.8367    0.0000 N   0  0  0  0  0  0  0  0  0  0  0  0
    0.5123    2.6364    0.0000 N   0  0  0  0  0  0  0  0  0  0  0  0
   -1.1370    0.0875    0.0000 N   0  0  0  0  0  0  0  0  0  0  0  0
    5.2102    2.4115    0.0000 N   0  0  0  0  0  0  0  0  0  0  0  0
   -4.5355   -1.2869    0.0000 N   0  0  0  0  0  0  0  0  0  0  0  0
    4.4106   -0.4373    0.0000 C   0  0  0  0  0  0  0  0  0  0  0  0
    5.2352   -0.4623    0.0000 C   0  0  0  0  0  0  0  0  0  0  0  0
    1.8617    2.3865    0.0000 C   0  0  0  0  0  0  0  0  0  0  0  0
    3.9858    0.2624    0.0000 C   0  0  3  0  0  0  0  0  0  0  0  0
    4.0107   -1.1620    0.0000 C   0  0  0  0  0  0  0  0  0  0  0  0
    2.6863    2.3615    0.0000 C   0  0  0  0  0  0  0  0  0  0  0  0
    0.0375    1.2370    0.0000 C   0  0  0  0  0  0  0  0  0  0  0  0
    1.4618    1.6618    0.0000 C   0  0  0  0  0  0  0  0  0  0  0  0
    3.9858    1.6618    0.0000 C   0  0  0  0  0  0  0  0  0  0  0  0
    5.6601   -1.1370    0.0000 C   0  0  0  0  0  0  0  0  0  0  0  0
    1.2620    2.9363    0.0000 C   0  0  0  0  0  0  0  0  0  0  0  0
    3.1112    1.7118    0.0000 C   0  0  0  0  0  0  0  0  0  0  0  0
    4.4356   -1.8367    0.0000 C   0  0  0  0  0  0  0  0  0  0  0  0
    5.2602   -1.8367    0.0000 C   0  0  0  0  0  0  0  0  0  0  0  0
    0.2624    0.4623    0.0000 C   0  0  0  0  0  0  0  0  0  0  0  0
   -0.7622    1.4369    0.0000 C   0  0  0  0  0  0  0  0  0  0  0  0
    4.3606    2.4115    0.0000 C   0  0  0  0  0  0  0  0  0  0  0  0
   -0.3374   -0.1374    0.0000 C   0  0  0  0  0  0  0  0  0  0  0  0
   -1.3369    0.8871    0.0000 C   0  0  0  0  0  0  0  0  0  0  0  0
    3.0862    3.0862    0.0000 C   0  0  0  0  0  0  0  0  0  0  0  0
    3.1611    0.2374    0.0000 C   0  0  0  0  0  0  0  0  0  0  0  0
   -1.7368   -0.4873    0.0000 C   0  0  0  0  0  0  0  0  0  0  0  0
    3.8109    3.2361    0.0000 C   0  0  0  0  0  0  0  0  0  0  0  0
   -2.5614   -0.3124    0.0000 C   0  0  0  0  0  0  0  0  0  0  0  0
    3.7359    3.0362    0.0000 C   0  0  0  0  0  0  0  0  0  0  0  0
   -3.1611   -0.9121    0.0000 C   0  0  0  0  0  0  0  0  0  0  0  0
   -3.9858   -0.7372    0.0000 C   0  0  0  0  0  0  0  0  0  0  0  0
   -5.8100   -2.4115    0.0000 C   0  0  0  0  0  0  0  0  0  0  0  0
   -5.3852   -1.0621    0.0000 C   0  0  0  0  0  0  0  0  0  0  0  0
   -6.5098   -2.6364    0.0000 C   0  0  0  0  0  0  0  0  0  0  0  0
   -5.1103   -2.2616    0.0000 C   0  0  0  0  0  0  0  0  0  0  0  0
   -5.6351   -3.2361    0.0000 C   0  0  0  0  0  0  0  0  0  0  0  0
  1 14  1  0  0  0  0
  2 17  1  0  0  0  0
  3 22  1  0  0  0  0
  4 16  1  0  0  0  0
  4 21  1  0  0  0  0
  5 34  2  0  0  0  0
  6 40  1  0  0  0  0
  6 41  1  0  0  0  0
  7 41  2  0  0  0  0
  8  9  1  0  0  0  0
  8 19  1  0  0  0  0
  8 20  1  0  0  0  0
  9 23  2  0  0  0  0
 10 30  1  0  0  0  0
 10 31  1  0  0  0  0
 10 34  1  0  0  0  0
 11 29  1  0  0  0  0
 12 39  1  0  0  0  0
 12 41  1  0  0  0  0
 13 14  2  0  0  0  0
 13 16  1  0  0  0  0
 13 17  1  0  0  0  0
 14 22  1  0  0  0  0
 15 18  1  0  0  0  0
 15 20  2  0  0  0  0
 15 23  1  0  0  0  0
 16 33  1  0  0  0  0
 17 25  2  0  0  0  0
 18 24  2  0  0  0  0
 18 32  1  0  0  0  0
 19 27  1  0  0  0  0
 19 28  1  0  0  0  0
 21 24  1  0  0  0  0
 21 29  2  0  0  0  0
 22 26  2  0  0  0  0
 25 26  1  0  0  0  0
 27 30  1  0  0  0  0
 28 31  1  0  0  0  0
 29 35  1  0  0  0  0
 32 37  2  0  0  0  0
 34 36  1  0  0  0  0
 36 38  1  0  0  0  0
 38 39  1  0  0  0  0
 40 42  1  0  0  0  0
 40 43  1  0  0  0  0
 40 44  1  0  0  0  0
M  END
> <PUBCHEM_COMPOUND_ID_TYPE>
0

> <PUBCHEM_TOTAL_CHARGE>
0

> <PUBCHEM_SUBSTANCE_ID>
310940317

> <PUBCHEM_SUBSTANCE_VERSION>
1

> <PUBCHEM_EXT_DATASOURCE_NAME>
4488

> <PUBCHEM_EXT_DATASOURCE_REGID>
SCHEMBL16118261

> <PUBCHEM_SUBSTANCE_COMMENT>
InChI=1S/C32H42Cl2FN5O4/c1-7-22(17-27(20(2)36)43-21(3)29-25(33)10-11-26(35)30(29)34)23-18-38-40(19-23)24-12-15-39(16-13-24)28(41)9-8-14-37-31(42)44-32(4,5)6/h7,10-11,17-19,21,24H,1,8-9,12-16,36H2,2-6H3,(H,37,42)/b22-17+,27-20-
InChIKey=SXJSUOKCEWLFCW-AUKDUTSYSA-N

> <PUBCHEM_SUBSTANCE_SYNONYM>
SCHEMBL16118261

> <PUBCHEM_XREF_EXT_ID>
SCHEMBL16118261

> <PUBCHEM_EXT_DATASOURCE_URL>
https://www.surechembl.org/

> <PUBCHEM_EXT_SUBSTANCE_URL>
https://www.surechembl.org/chemical/SCHEMBL16118261

> <PUBCHEM_CID_ASSOCIATIONS>
117607386  1

> <PUBCHEM_COORDINATE_TYPE>
1
3

$$$$
