310939951
  -OEChem-07211613022D

 31 34  0     1  0  0  0  0  0999 V2000
   -2.1434    4.0896    0.0000 Cl  0  0  0  0  0  0  0  0  0  0  0  0
   -0.7145    1.6146    0.0000 O   0  0  0  0  0  0  0  0  0  0  0  0
    2.1434   -4.5021    0.0000 O   0  0  0  0  0  0  0  0  0  0  0  0
    0.7145    2.4396    0.0000 N   0  0  3  0  0  0  0  0  0  0  0  0
    1.4289   -1.2729    0.0000 N   0  0  0  0  0  0  0  0  0  0  0  0
    1.4289   -3.2646    0.0000 N   0  0  0  0  0  0  0  0  0  0  0  0
    1.4289    0.3771    0.0000 N   0  0  0  0  0  0  0  0  0  0  0  0
    0.0000    2.8521    0.0000 C   0  0  0  0  0  0  0  0  0  0  0  0
    1.4289   -2.0979    0.0000 C   0  0  0  0  0  0  0  0  0  0  0  0
    1.4289    1.2021    0.0000 C   0  0  3  0  0  0  0  0  0  0  0  0
   -0.7145    2.4396    0.0000 C   0  0  0  0  0  0  0  0  0  0  0  0
    0.8456   -2.6812    0.0000 C   0  0  0  0  0  0  0  0  0  0  0  0
    2.0123   -2.6812    0.0000 C   0  0  0  0  0  0  0  0  0  0  0  0
    0.7145    1.6146    0.0000 C   0  0  0  0  0  0  0  0  0  0  0  0
    0.0000    3.6771    0.0000 C   0  0  0  0  0  0  0  0  0  0  0  0
   -0.7145    4.0896    0.0000 C   0  0  0  0  0  0  0  0  0  0  0  0
   -1.4289    3.6771    0.0000 C   0  0  0  0  0  0  0  0  0  0  0  0
    0.7145   -0.8604    0.0000 C   0  0  0  0  0  0  0  0  0  0  0  0
    2.1434   -0.8604    0.0000 C   0  0  0  0  0  0  0  0  0  0  0  0
    0.7145   -0.0354    0.0000 C   0  0  0  0  0  0  0  0  0  0  0  0
    2.1434   -0.0354    0.0000 C   0  0  0  0  0  0  0  0  0  0  0  0
   -1.4289    2.8521    0.0000 C   0  0  0  0  0  0  0  0  0  0  0  0
    1.4289    2.8521    0.0000 C   0  0  0  0  0  0  0  0  0  0  0  0
    1.4289   -4.0896    0.0000 C   0  0  0  0  0  0  0  0  0  0  0  0
    2.1434    1.6146    0.0000 C   0  0  0  0  0  0  0  0  0  0  0  0
    2.1434    2.4396    0.0000 C   0  0  0  0  0  0  0  0  0  0  0  0
   -0.7145    4.9146    0.0000 C   0  0  0  0  0  0  0  0  0  0  0  0
    0.7145   -4.5021    0.0000 C   0  0  0  0  0  0  0  0  0  0  0  0
   -1.4289    1.2021    0.0000 C   0  0  0  0  0  0  0  0  0  0  0  0
    0.0000    5.3271    0.0000 C   0  0  0  0  0  0  0  0  0  0  0  0
    0.7145   -5.3271    0.0000 C   0  0  0  0  0  0  0  0  0  0  0  0
  1 17  1  0  0  0  0
  2 11  1  0  0  0  0
  2 29  1  0  0  0  0
  3 24  2  0  0  0  0
  4  8  1  0  0  0  0
  4 14  1  0  0  0  0
  4 23  1  0  0  0  0
  5  9  1  0  0  0  0
  5 18  1  0  0  0  0
  5 19  1  0  0  0  0
  6 12  1  0  0  0  0
  6 13  1  0  0  0  0
  6 24  1  0  0  0  0
  7 10  1  0  0  0  0
  7 20  1  0  0  0  0
  7 21  1  0  0  0  0
  8 11  1  0  0  0  0
  8 15  2  0  0  0  0
  9 12  1  0  0  0  0
  9 13  1  0  0  0  0
 10 14  1  0  0  0  0
 10 25  1  0  0  0  0
 11 22  2  0  0  0  0
 15 16  1  0  0  0  0
 16 17  2  0  0  0  0
 16 27  1  0  0  0  0
 17 22  1  0  0  0  0
 18 20  1  0  0  0  0
 19 21  1  0  0  0  0
 23 26  1  0  0  0  0
 24 28  1  0  0  0  0
 25 26  1  0  0  0  0
 27 30  1  0  0  0  0
 28 31  2  0  0  0  0
M  END
> <PUBCHEM_COMPOUND_ID_TYPE>
0

> <PUBCHEM_TOTAL_CHARGE>
0

> <PUBCHEM_SUBSTANCE_ID>
310939951

> <PUBCHEM_SUBSTANCE_VERSION>
1

> <PUBCHEM_EXT_DATASOURCE_NAME>
4488

> <PUBCHEM_EXT_DATASOURCE_REGID>
SCHEMBL16117881

> <PUBCHEM_SUBSTANCE_COMMENT>
InChI=1S/C24H35ClN4O2/c1-4-18-13-22(23(31-3)14-21(18)25)28-8-6-7-19(15-28)26-9-11-27(12-10-26)20-16-29(17-20)24(30)5-2/h5,13-14,19-20H,2,4,6-12,15-17H2,1,3H3
InChIKey=TZUGYMHFCZPDHQ-UHFFFAOYSA-N

> <PUBCHEM_SUBSTANCE_SYNONYM>
SCHEMBL16117881

> <PUBCHEM_XREF_EXT_ID>
SCHEMBL16117881

> <PUBCHEM_EXT_DATASOURCE_URL>
https://www.surechembl.org/

> <PUBCHEM_EXT_SUBSTANCE_URL>
https://www.surechembl.org/chemical/SCHEMBL16117881

> <PUBCHEM_CID_ASSOCIATIONS>
86279295  1

> <PUBCHEM_COORDINATE_TYPE>
1
3

$$$$
