310930384
  -OEChem-07211613022D

 31 34  0     1  0  0  0  0  0999 V2000
    0.6146   -6.9284    0.0000 F   0  0  0  0  0  0  0  0  0  0  0  0
    1.2851    0.0000    0.0000 F   0  0  0  0  0  0  0  0  0  0  0  0
    0.3353  -10.6720    0.0000 O   0  0  0  0  0  0  0  0  0  0  0  0
    1.6763  -11.1749    0.0000 O   0  0  0  0  0  0  0  0  0  0  0  0
    3.4083   -4.4700    0.0000 O   0  0  0  0  0  0  0  0  0  0  0  0
    2.0115   -6.0903    0.0000 N   0  0  3  0  0  0  0  0  0  0  0  0
    2.0115   -4.4700    0.0000 N   0  0  0  0  0  0  0  0  0  0  0  0
    2.6819    0.0000    0.0000 N   0  0  0  0  0  0  0  0  0  0  0  0
    1.3410   -9.7780    0.0000 C   0  0  0  0  0  0  0  0  0  0  0  0
    0.6146   -9.3310    0.0000 C   0  0  0  0  0  0  0  0  0  0  0  0
    1.2851   -8.1577    0.0000 C   0  0  0  0  0  0  0  0  0  0  0  0
    1.1175  -10.5602    0.0000 C   0  0  0  0  0  0  0  0  0  0  0  0
    0.6146   -8.5487    0.0000 C   0  0  0  0  0  0  0  0  0  0  0  0
    1.2851   -7.3195    0.0000 C   0  0  3  0  0  0  0  0  0  0  0  0
    2.0115   -9.3869    0.0000 C   0  0  0  0  0  0  0  0  0  0  0  0
    0.0000   -9.8897    0.0000 C   0  0  0  0  0  0  0  0  0  0  0  0
    2.0115   -8.6046    0.0000 C   0  0  0  0  0  0  0  0  0  0  0  0
    2.0115   -6.9284    0.0000 C   0  0  0  0  0  0  0  0  0  0  0  0
    2.6819   -4.8610    0.0000 C   0  0  0  0  0  0  0  0  0  0  0  0
    2.6819   -5.6992    0.0000 C   0  0  0  0  0  0  0  0  0  0  0  0
    1.2851   -5.6992    0.0000 C   0  0  0  0  0  0  0  0  0  0  0  0
    1.2851   -4.8610    0.0000 C   0  0  0  0  0  0  0  0  0  0  0  0
    1.2851   -2.4585    0.0000 C   0  0  0  0  0  0  0  0  0  0  0  0
    2.0115   -3.6877    0.0000 C   0  0  0  0  0  0  0  0  0  0  0  0
    2.0115   -1.2292    0.0000 C   0  0  0  0  0  0  0  0  0  0  0  0
    1.2851   -3.2407    0.0000 C   0  0  0  0  0  0  0  0  0  0  0  0
    2.0115   -2.0115    0.0000 C   0  0  0  0  0  0  0  0  0  0  0  0
    1.2851   -0.8381    0.0000 C   0  0  0  0  0  0  0  0  0  0  0  0
    0.5587   -2.0115    0.0000 C   0  0  0  0  0  0  0  0  0  0  0  0
    0.5587   -1.2292    0.0000 C   0  0  0  0  0  0  0  0  0  0  0  0
    2.6819   -0.8381    0.0000 C   0  0  0  0  0  0  0  0  0  0  0  0
  1 14  1  0  0  0  0
  2 28  1  0  0  0  0
  3 12  1  0  0  0  0
  3 16  1  0  0  0  0
  4 12  2  0  0  0  0
  5 19  2  0  0  0  0
  6 18  1  0  0  0  0
  6 20  1  0  0  0  0
  6 21  1  0  0  0  0
  7 19  1  0  0  0  0
  7 22  1  0  0  0  0
  7 24  1  0  0  0  0
  8 31  3  0  0  0  0
  9 10  2  0  0  0  0
  9 12  1  0  0  0  0
  9 15  1  0  0  0  0
 10 13  1  0  0  0  0
 10 16  1  0  0  0  0
 11 13  2  0  0  0  0
 11 14  1  0  0  0  0
 11 17  1  0  0  0  0
 14 18  1  0  0  0  0
 15 17  2  0  0  0  0
 19 20  1  0  0  0  0
 21 22  1  0  0  0  0
 23 26  1  0  0  0  0
 23 27  2  0  0  0  0
 23 29  1  0  0  0  0
 24 26  1  0  0  0  0
 25 27  1  0  0  0  0
 25 28  2  0  0  0  0
 25 31  1  0  0  0  0
 28 30  1  0  0  0  0
 29 30  2  0  0  0  0
M  END
> <PUBCHEM_COMPOUND_ID_TYPE>
0

> <PUBCHEM_TOTAL_CHARGE>
0

> <PUBCHEM_SUBSTANCE_ID>
310930384

> <PUBCHEM_SUBSTANCE_VERSION>
1

> <PUBCHEM_EXT_DATASOURCE_NAME>
4488

> <PUBCHEM_EXT_DATASOURCE_REGID>
SCHEMBL16107669

> <PUBCHEM_SUBSTANCE_COMMENT>
InChI=1S/C23H21F2N3O3/c24-20-4-1-15(9-17(20)11-26)5-6-28-8-7-27(13-22(28)29)12-21(25)16-2-3-19-18(10-16)14-31-23(19)30/h1-4,9-10,21H,5-8,12-14H2
InChIKey=QLRARRCLXPTDQE-UHFFFAOYSA-N

> <PUBCHEM_SUBSTANCE_SYNONYM>
SCHEMBL16107669

> <PUBCHEM_XREF_EXT_ID>
SCHEMBL16107669

> <PUBCHEM_EXT_DATASOURCE_URL>
https://www.surechembl.org/

> <PUBCHEM_EXT_SUBSTANCE_URL>
https://www.surechembl.org/chemical/SCHEMBL16107669

> <PUBCHEM_CID_ASSOCIATIONS>
117599536  1

> <PUBCHEM_COORDINATE_TYPE>
1
3

$$$$
