310935555
  -OEChem-07211613022D

 26 28  0     1  0  0  0  0  0999 V2000
    7.0003   -0.6534    0.0000 F   0  0  0  0  0  0  0  0  0  0  0  0
    0.0000   -2.2168    0.0000 F   0  0  0  0  0  0  0  0  0  0  0  0
    0.1167   -3.6402    0.0000 F   0  0  0  0  0  0  0  0  0  0  0  0
    0.8167   -2.1467    0.0000 F   0  0  0  0  0  0  0  0  0  0  0  0
    5.8102   -2.9168    0.0000 O   0  0  0  0  0  0  0  0  0  0  0  0
    5.8102   -1.4934    0.0000 O   0  0  0  0  0  0  0  0  0  0  0  0
    2.0534   -4.4102    0.0000 N   0  0  0  0  0  0  0  0  0  0  0  0
    4.5735   -2.1934    0.0000 C   0  0  3  0  0  0  0  0  0  0  0  0
    4.9702   -1.4701    0.0000 C   0  0  0  0  0  0  0  0  0  0  0  0
    3.3135   -2.6135    0.0000 C   0  0  0  0  0  0  0  0  0  0  0  0
    4.1068   -2.8701    0.0000 C   0  0  0  0  0  0  0  0  0  0  0  0
    4.1068   -1.5400    0.0000 C   0  0  0  0  0  0  0  0  0  0  0  0
    5.4136   -2.1934    0.0000 C   0  0  0  0  0  0  0  0  0  0  0  0
    2.6601   -3.1035    0.0000 C   0  0  0  0  0  0  0  0  0  0  0  0
    5.9503   -1.5867    0.0000 C   0  0  0  0  0  0  0  0  0  0  0  0
    3.3135   -1.7967    0.0000 C   0  0  0  0  0  0  0  0  0  0  0  0
    4.5269   -0.7701    0.0000 C   0  0  0  0  0  0  0  0  0  0  0  0
    1.2134   -3.2435    0.0000 C   0  0  0  0  0  0  0  0  0  0  0  0
    1.8901   -2.7768    0.0000 C   0  0  0  0  0  0  0  0  0  0  0  0
    6.1603   -0.7000    0.0000 C   0  0  0  0  0  0  0  0  0  0  0  0
    0.4667   -2.8935    0.0000 C   0  0  0  0  0  0  0  0  0  0  0  0
    2.7068   -3.9202    0.0000 C   0  0  0  0  0  0  0  0  0  0  0  0
    4.9002   -0.0233    0.0000 C   0  0  0  0  0  0  0  0  0  0  0  0
    5.7169    0.0000    0.0000 C   0  0  0  0  0  0  0  0  0  0  0  0
    1.2834   -4.0835    0.0000 C   0  0  0  0  0  0  0  0  0  0  0  0
    6.2303   -2.1001    0.0000 C   0  0  0  0  0  0  0  0  0  0  0  0
  1 20  1  0  0  0  0
  2 21  1  0  0  0  0
  3 21  1  0  0  0  0
  4 21  1  0  0  0  0
  5 13  2  0  0  0  0
  6 13  1  0  0  0  0
  7 22  1  0  0  0  0
  7 25  2  0  0  0  0
  8  9  1  0  0  0  0
  8 11  1  0  0  0  0
  8 12  1  0  0  0  0
  8 13  1  0  0  0  0
  9 15  1  0  0  0  0
  9 17  2  0  0  0  0
 10 11  2  0  0  0  0
 10 14  1  0  0  0  0
 10 16  1  0  0  0  0
 12 16  1  0  0  0  0
 14 19  1  0  0  0  0
 14 22  2  0  0  0  0
 15 20  2  0  0  0  0
 15 26  1  0  0  0  0
 17 23  1  0  0  0  0
 18 19  2  0  0  0  0
 18 21  1  0  0  0  0
 18 25  1  0  0  0  0
 20 24  1  0  0  0  0
 23 24  2  0  0  0  0
M  END
> <PUBCHEM_COMPOUND_ID_TYPE>
0

> <PUBCHEM_TOTAL_CHARGE>
0

> <PUBCHEM_SUBSTANCE_ID>
310935555

> <PUBCHEM_SUBSTANCE_VERSION>
1

> <PUBCHEM_EXT_DATASOURCE_NAME>
4488

> <PUBCHEM_EXT_DATASOURCE_REGID>
SCHEMBL16113126

> <PUBCHEM_SUBSTANCE_COMMENT>
InChI=1S/C19H15F4NO2/c1-11-15(3-2-4-16(11)20)18(17(25)26)6-5-12(8-18)13-7-14(10-24-9-13)19(21,22)23/h2-4,7-10H,5-6H2,1H3,(H,25,26)
InChIKey=HPEHEMJRRBZRFF-UHFFFAOYSA-N

> <PUBCHEM_SUBSTANCE_SYNONYM>
SCHEMBL16113126

> <PUBCHEM_XREF_EXT_ID>
SCHEMBL16113126

> <PUBCHEM_EXT_DATASOURCE_URL>
https://www.surechembl.org/

> <PUBCHEM_EXT_SUBSTANCE_URL>
https://www.surechembl.org/chemical/SCHEMBL16113126

> <PUBCHEM_CID_ASSOCIATIONS>
117603580  1

> <PUBCHEM_COORDINATE_TYPE>
1
3

$$$$
