310933459
  -OEChem-07211613022D

 38 41  0     1  0  0  0  0  0999 V2000
    0.0000    0.0000    0.0000 F   0  0  0  0  0  0  0  0  0  0  0  0
    0.0357   -1.4294    0.0000 F   0  0  0  0  0  0  0  0  0  0  0  0
    0.8219    0.0000    0.0000 F   0  0  0  0  0  0  0  0  0  0  0  0
    6.1464   -3.9666    0.0000 O   0  0  0  0  0  0  0  0  0  0  0  0
    5.8963   -5.5747    0.0000 O   0  0  0  0  0  0  0  0  0  0  0  0
    0.6075   -5.1101    0.0000 O   0  0  0  0  0  0  0  0  0  0  0  0
    4.0023   -1.8940    0.0000 O   0  0  0  0  0  0  0  0  0  0  0  0
    4.5027   -6.0392    0.0000 O   0  0  0  0  0  0  0  0  0  0  0  0
    4.8243   -4.6456    0.0000 N   0  0  0  0  0  0  0  0  0  0  0  0
    4.8243   -3.3234    0.0000 N   0  0  0  0  0  0  0  0  0  0  0  0
    1.0006   -5.8249    0.0000 N   0  0  0  0  0  0  0  0  0  0  0  0
    1.8940   -2.3585    0.0000 N   0  0  0  0  0  0  0  0  0  0  0  0
    4.0380   -4.3954    0.0000 C   0  0  0  0  0  0  0  0  0  0  0  0
    4.0380   -3.5378    0.0000 C   0  0  0  0  0  0  0  0  0  0  0  0
    3.3234   -3.1447    0.0000 C   0  0  0  0  0  0  0  0  0  0  0  0
    5.3245   -3.9666    0.0000 C   0  0  0  0  0  0  0  0  0  0  0  0
    2.6087   -4.3954    0.0000 C   0  0  0  0  0  0  0  0  0  0  0  0
    3.3234   -4.7885    0.0000 C   0  0  0  0  0  0  0  0  0  0  0  0
    2.6087   -3.5378    0.0000 C   0  0  0  0  0  0  0  0  0  0  0  0
    1.8940   -4.8243    0.0000 C   0  0  0  0  0  0  0  0  0  0  0  0
    3.2877   -2.3228    0.0000 C   0  0  3  0  0  0  0  0  0  0  0  0
    5.0744   -5.4317    0.0000 C   0  0  0  0  0  0  0  0  0  0  0  0
    2.5729   -1.9297    0.0000 C   0  0  0  0  0  0  0  0  0  0  0  0
    1.1435   -4.5027    0.0000 C   0  0  0  0  0  0  0  0  0  0  0  0
    1.8225   -5.6462    0.0000 C   0  0  0  0  0  0  0  0  0  0  0  0
    2.5729   -1.0721    0.0000 C   0  0  0  0  0  0  0  0  0  0  0  0
    6.1464   -6.3608    0.0000 C   0  0  0  0  0  0  0  0  0  0  0  0
    1.1435   -1.1435    0.0000 C   0  0  0  0  0  0  0  0  0  0  0  0
    1.1435   -1.9655    0.0000 C   0  0  0  0  0  0  0  0  0  0  0  0
    1.8582   -0.7147    0.0000 C   0  0  0  0  0  0  0  0  0  0  0  0
    6.5753   -3.2519    0.0000 C   0  0  0  0  0  0  0  0  0  0  0  0
    0.4288   -0.7147    0.0000 C   0  0  0  0  0  0  0  0  0  0  0  0
    0.9649   -3.6807    0.0000 C   0  0  0  0  0  0  0  0  0  0  0  0
    2.4300   -6.1822    0.0000 C   0  0  0  0  0  0  0  0  0  0  0  0
    5.3245   -6.6467    0.0000 C   0  0  0  0  0  0  0  0  0  0  0  0
    6.3966   -7.1470    0.0000 C   0  0  0  0  0  0  0  0  0  0  0  0
    6.9327   -6.1107    0.0000 C   0  0  0  0  0  0  0  0  0  0  0  0
    6.1464   -2.5372    0.0000 C   0  0  0  0  0  0  0  0  0  0  0  0
  1 32  1  0  0  0  0
  2 32  1  0  0  0  0
  3 32  1  0  0  0  0
  4 16  1  0  0  0  0
  4 31  1  0  0  0  0
  5 22  1  0  0  0  0
  5 27  1  0  0  0  0
  6 11  1  0  0  0  0
  6 24  1  0  0  0  0
  7 21  1  0  0  0  0
  8 22  2  0  0  0  0
  9 13  1  0  0  0  0
  9 16  1  0  0  0  0
  9 22  1  0  0  0  0
 10 14  1  0  0  0  0
 10 16  2  0  0  0  0
 11 25  2  0  0  0  0
 12 23  1  0  0  0  0
 12 29  2  0  0  0  0
 13 14  2  0  0  0  0
 13 18  1  0  0  0  0
 14 15  1  0  0  0  0
 15 19  2  0  0  0  0
 15 21  1  0  0  0  0
 17 18  2  0  0  0  0
 17 19  1  0  0  0  0
 17 20  1  0  0  0  0
 20 24  2  0  0  0  0
 20 25  1  0  0  0  0
 21 23  1  0  0  0  0
 23 26  2  0  0  0  0
 24 33  1  0  0  0  0
 25 34  1  0  0  0  0
 26 30  1  0  0  0  0
 27 35  1  0  0  0  0
 27 36  1  0  0  0  0
 27 37  1  0  0  0  0
 28 29  1  0  0  0  0
 28 30  2  0  0  0  0
 28 32  1  0  0  0  0
 31 38  1  0  0  0  0
M  END
> <PUBCHEM_COMPOUND_ID_TYPE>
0

> <PUBCHEM_TOTAL_CHARGE>
0

> <PUBCHEM_SUBSTANCE_ID>
310933459

> <PUBCHEM_SUBSTANCE_VERSION>
1

> <PUBCHEM_EXT_DATASOURCE_NAME>
4488

> <PUBCHEM_EXT_DATASOURCE_REGID>
SCHEMBL16110877

> <PUBCHEM_SUBSTANCE_COMMENT>
InChI=1S/C26H27F3N4O5/c1-7-36-23-31-21-17(22(34)18-9-8-16(12-30-18)26(27,28)29)10-15(20-13(2)32-38-14(20)3)11-19(21)33(23)24(35)37-25(4,5)6/h8-12,22,34H,7H2,1-6H3
InChIKey=FGBRTDLCQOJVGG-UHFFFAOYSA-N

> <PUBCHEM_SUBSTANCE_SYNONYM>
SCHEMBL16110877

> <PUBCHEM_XREF_EXT_ID>
SCHEMBL16110877

> <PUBCHEM_EXT_DATASOURCE_URL>
https://www.surechembl.org/

> <PUBCHEM_EXT_SUBSTANCE_URL>
https://www.surechembl.org/chemical/SCHEMBL16110877

> <PUBCHEM_CID_ASSOCIATIONS>
117601859  1

> <PUBCHEM_COORDINATE_TYPE>
1
3

$$$$
