310930584
  -OEChem-07211613022D

 51 55  0     1  0  0  0  0  0999 V2000
    9.7767   -4.2405    0.0000 Cl  0  0  0  0  0  0  0  0  0  0  0  0
    1.5313   -7.8528    0.0000 Cl  0  0  0  0  0  0  0  0  0  0  0  0
    6.5571   -5.8110    0.0000 S   0  0  0  0  0  0  0  0  0  0  0  0
    8.2847   -4.4368    0.0000 S   0  0  0  0  0  0  0  0  0  0  0  0
    6.5571   -4.1227    0.0000 F   0  0  0  0  0  0  0  0  0  0  0  0
    3.6908   -5.7718    0.0000 F   0  0  0  0  0  0  0  0  0  0  0  0
    6.1252   -6.5178    0.0000 O   0  0  0  0  0  0  0  0  0  0  0  0
    7.2638   -6.2429    0.0000 O   0  0  0  0  0  0  0  0  0  0  0  0
    3.6908   -4.1227    0.0000 O   0  0  0  0  0  0  0  0  0  0  0  0
    5.7718   -2.9055    0.0000 O   0  0  0  0  0  0  0  0  0  0  0  0
    3.2589   -4.3190    0.0000 O   0  0  0  0  0  0  0  0  0  0  0  0
    0.8246   -1.6491    0.0000 O   0  0  0  0  0  0  0  0  0  0  0  0
    2.2773   -1.6491    0.0000 O   0  0  0  0  0  0  0  0  0  0  0  0
    6.9890   -5.1043    0.0000 N   0  0  0  0  0  0  0  0  0  0  0  0
    8.2847   -5.7718    0.0000 N   0  0  0  0  0  0  0  0  0  0  0  0
    1.5313   -2.8663    0.0000 N   0  0  0  0  0  0  0  0  0  0  0  0
    5.8503   -5.3792    0.0000 C   0  0  0  0  0  0  0  0  0  0  0  0
    7.8135   -5.1043    0.0000 C   0  0  0  0  0  0  0  0  0  0  0  0
    5.8503   -4.5546    0.0000 C   0  0  0  0  0  0  0  0  0  0  0  0
    5.1436   -5.7718    0.0000 C   0  0  0  0  0  0  0  0  0  0  0  0
    6.5571   -4.3583    0.0000 C   0  0  0  0  0  0  0  0  0  0  0  0
    4.3975   -5.3792    0.0000 C   0  0  0  0  0  0  0  0  0  0  0  0
    4.4368   -4.5546    0.0000 C   0  0  0  0  0  0  0  0  0  0  0  0
    5.1436   -4.1227    0.0000 C   0  0  0  0  0  0  0  0  0  0  0  0
    5.7325   -4.3583    0.0000 C   0  0  0  0  0  0  0  0  0  0  0  0
    9.0699   -4.7117    0.0000 C   0  0  0  0  0  0  0  0  0  0  0  0
    5.3399   -3.6516    0.0000 C   0  0  0  0  0  0  0  0  0  0  0  0
    9.0699   -5.5362    0.0000 C   0  0  0  0  0  0  0  0  0  0  0  0
    2.2773   -4.1227    0.0000 C   0  0  3  0  0  0  0  0  0  0  0  0
    1.5313   -4.5154    0.0000 C   0  0  3  0  0  0  0  0  0  0  0  0
    5.3006   -5.0651    0.0000 C   0  0  0  0  0  0  0  0  0  0  0  0
    2.9840   -4.5154    0.0000 C   0  0  0  0  0  0  0  0  0  0  0  0
    4.5154   -3.6123    0.0000 C   0  0  0  0  0  0  0  0  0  0  0  0
    1.5313   -5.3399    0.0000 C   0  0  0  0  0  0  0  0  0  0  0  0
    4.0835   -4.3190    0.0000 C   0  0  0  0  0  0  0  0  0  0  0  0
    2.2773   -3.2982    0.0000 C   0  0  0  0  0  0  0  0  0  0  0  0
    4.5154   -5.0651    0.0000 C   0  0  0  0  0  0  0  0  0  0  0  0
    0.8246   -4.1227    0.0000 C   0  0  0  0  0  0  0  0  0  0  0  0
    0.8246   -3.2982    0.0000 C   0  0  0  0  0  0  0  0  0  0  0  0
    1.5313   -2.0417    0.0000 C   0  0  0  0  0  0  0  0  0  0  0  0
    2.2773   -5.7718    0.0000 C   0  0  0  0  0  0  0  0  0  0  0  0
    0.8246   -5.7718    0.0000 C   0  0  0  0  0  0  0  0  0  0  0  0
    2.2773   -6.5963    0.0000 C   0  0  0  0  0  0  0  0  0  0  0  0
    0.8246   -6.5963    0.0000 C   0  0  0  0  0  0  0  0  0  0  0  0
    1.5313   -7.0282    0.0000 C   0  0  0  0  0  0  0  0  0  0  0  0
    0.8246   -0.8246    0.0000 C   0  0  0  0  0  0  0  0  0  0  0  0
    5.3399   -2.1988    0.0000 C   0  0  0  0  0  0  0  0  0  0  0  0
    2.8270   -5.0258    0.0000 C   0  0  0  0  0  0  0  0  0  0  0  0
    1.6884   -0.8246    0.0000 C   0  0  0  0  0  0  0  0  0  0  0  0
    0.8246    0.0000    0.0000 C   0  0  0  0  0  0  0  0  0  0  0  0
    0.0000   -0.8246    0.0000 C   0  0  0  0  0  0  0  0  0  0  0  0
  1 26  1  0  0  0  0
  2 45  1  0  0  0  0
  3  7  2  0  0  0  0
  3  8  2  0  0  0  0
  3 14  1  0  0  0  0
  3 17  1  0  0  0  0
  4 18  1  0  0  0  0
  4 26  1  0  0  0  0
  5 19  1  0  0  0  0
  6 22  1  0  0  0  0
  9 23  1  0  0  0  0
  9 32  1  0  0  0  0
 10 27  1  0  0  0  0
 10 47  1  0  0  0  0
 11 35  1  0  0  0  0
 11 48  1  0  0  0  0
 12 40  1  0  0  0  0
 12 46  1  0  0  0  0
 13 40  2  0  0  0  0
 14 18  1  0  0  0  0
 14 21  1  0  0  0  0
 15 18  2  0  0  0  0
 15 28  1  0  0  0  0
 16 36  1  0  0  0  0
 16 39  1  0  0  0  0
 16 40  1  0  0  0  0
 17 19  1  0  0  0  0
 17 20  2  0  0  0  0
 19 24  2  0  0  0  0
 20 22  1  0  0  0  0
 21 25  1  0  0  0  0
 22 23  2  0  0  0  0
 23 24  1  0  0  0  0
 25 27  2  0  0  0  0
 25 31  1  0  0  0  0
 26 28  2  0  0  0  0
 27 33  1  0  0  0  0
 29 30  1  0  0  0  0
 29 32  1  0  0  0  0
 29 36  1  0  0  0  0
 30 34  1  0  0  0  0
 30 38  1  0  0  0  0
 31 37  2  0  0  0  0
 33 35  2  0  0  0  0
 34 41  2  0  0  0  0
 34 42  1  0  0  0  0
 35 37  1  0  0  0  0
 38 39  1  0  0  0  0
 41 43  1  0  0  0  0
 42 44  2  0  0  0  0
 43 45  2  0  0  0  0
 44 45  1  0  0  0  0
 46 49  1  0  0  0  0
 46 50  1  0  0  0  0
 46 51  1  0  0  0  0
M  END
> <PUBCHEM_COMPOUND_ID_TYPE>
0

> <PUBCHEM_TOTAL_CHARGE>
0

> <PUBCHEM_SUBSTANCE_ID>
310930584

> <PUBCHEM_SUBSTANCE_VERSION>
1

> <PUBCHEM_EXT_DATASOURCE_NAME>
4488

> <PUBCHEM_EXT_DATASOURCE_REGID>
SCHEMBL16107879

> <PUBCHEM_SUBSTANCE_COMMENT>
InChI=1S/C35H37Cl2F2N3O7S2/c1-35(2,3)49-34(43)41-13-12-26(21-6-9-24(36)10-7-21)23(18-41)20-48-30-15-28(39)31(16-27(30)38)51(44,45)42(33-40-17-32(37)50-33)19-22-8-11-25(46-4)14-29(22)47-5/h6-11,14-17,23,26H,12-13,18-20H2,1-5H3
InChIKey=HKMSQELPBHNWNV-UHFFFAOYSA-N

> <PUBCHEM_SUBSTANCE_SYNONYM>
SCHEMBL16107879

> <PUBCHEM_XREF_EXT_ID>
SCHEMBL16107879

> <PUBCHEM_EXT_DATASOURCE_URL>
https://www.surechembl.org/

> <PUBCHEM_EXT_SUBSTANCE_URL>
https://www.surechembl.org/chemical/SCHEMBL16107879

> <PUBCHEM_CID_ASSOCIATIONS>
117599668  1

> <PUBCHEM_COORDINATE_TYPE>
1
3

$$$$
