310946469
  -OEChem-07211613022D

 15 14  0     1  0  0  0  0  0999 V2000
   -1.5104  -15.1430    0.0000 O   0  0  0  0  0  0  0  0  0  0  0  0
   -2.2249  -16.3805    0.0000 O   0  0  0  0  0  0  0  0  0  0  0  0
   -3.6538  -13.9055    0.0000 O   0  0  0  0  0  0  0  0  0  0  0  0
   -3.6538  -15.5555    0.0000 N   0  0  0  0  0  0  0  0  0  0  0  0
   -2.9394  -15.1430    0.0000 C   0  0  3  0  0  0  0  0  0  0  0  0
   -2.2249  -15.5555    0.0000 C   0  0  0  0  0  0  0  0  0  0  0  0
   -2.9394  -14.3180    0.0000 C   0  0  3  0  0  0  0  0  0  0  0  0
   -0.7960  -15.5555    0.0000 C   0  0  0  0  0  0  0  0  0  0  0  0
   -2.2249  -13.9055    0.0000 C   0  0  0  0  0  0  0  0  0  0  0  0
   -0.0815  -15.1430    0.0000 C   0  0  0  0  0  0  0  0  0  0  0  0
    0.6330  -15.5555    0.0000 C   0  0  0  0  0  0  0  0  0  0  0  0
    1.3474  -15.1430    0.0000 C   0  0  0  0  0  0  0  0  0  0  0  0
    2.0619  -15.5555    0.0000 C   0  0  0  0  0  0  0  0  0  0  0  0
    2.7764  -15.1430    0.0000 C   0  0  0  0  0  0  0  0  0  0  0  0
    3.4909  -15.5555    0.0000 C   0  0  0  0  0  0  0  0  0  0  0  0
  1  6  1  0  0  0  0
  1  8  1  0  0  0  0
  2  6  2  0  0  0  0
  3  7  1  0  0  0  0
  4  5  1  0  0  0  0
  5  6  1  0  0  0  0
  5  7  1  0  0  0  0
  7  9  1  0  0  0  0
  8 10  1  0  0  0  0
 10 11  1  0  0  0  0
 11 12  1  0  0  0  0
 12 13  1  0  0  0  0
 13 14  1  0  0  0  0
 14 15  1  0  0  0  0
M  END
> <PUBCHEM_COMPOUND_ID_TYPE>
0

> <PUBCHEM_TOTAL_CHARGE>
0

> <PUBCHEM_SUBSTANCE_ID>
310946469

> <PUBCHEM_SUBSTANCE_VERSION>
1

> <PUBCHEM_EXT_DATASOURCE_NAME>
4488

> <PUBCHEM_EXT_DATASOURCE_REGID>
SCHEMBL16124590

> <PUBCHEM_SUBSTANCE_COMMENT>
InChI=1S/C11H23NO3/c1-3-4-5-6-7-8-15-11(14)10(12)9(2)13/h9-10,13H,3-8,12H2,1-2H3
InChIKey=CWDNJXYCVJOCPU-UHFFFAOYSA-N

> <PUBCHEM_SUBSTANCE_SYNONYM>
SCHEMBL16124590

> <PUBCHEM_XREF_EXT_ID>
SCHEMBL16124590

> <PUBCHEM_EXT_DATASOURCE_URL>
https://www.surechembl.org/

> <PUBCHEM_EXT_SUBSTANCE_URL>
https://www.surechembl.org/chemical/SCHEMBL16124590

> <PUBCHEM_CID_ASSOCIATIONS>
14657675  1

> <PUBCHEM_COORDINATE_TYPE>
1
3

$$$$
