310946595
  -OEChem-07211613022D

 26 25  0     1  0  0  0  0  0999 V2000
   -7.5110   -2.1850    0.0000 S   0  0  0  0  0  0  0  0  0  0  0  0
   -7.5110   -4.6600    0.0000 O   0  0  0  0  0  0  0  0  0  0  0  0
   -6.7965   -3.4226    0.0000 O   0  0  0  0  0  0  0  0  0  0  0  0
   -9.6445   -2.5976    0.0000 O   0  0  0  0  0  0  0  0  0  0  0  0
   -8.2254   -0.9475    0.0000 O   0  0  0  0  0  0  0  0  0  0  0  0
  -11.7899   -7.1351    0.0000 O   0  0  0  0  0  0  0  0  0  0  0  0
  -11.0754   -8.3726    0.0000 O   0  5  0  0  0  0  0  0  0  0  0  0
  -10.3609   -7.1351    0.0000 O   0  0  0  0  0  0  0  0  0  0  0  0
   -8.9400   -3.8350    0.0000 N   0  0  0  0  0  0  0  0  0  0  0  0
  -11.0754   -7.5476    0.0000 N   0  3  0  0  0  0  0  0  0  0  0  0
   -8.2254   -3.4226    0.0000 C   0  0  3  0  0  0  0  0  0  0  0  0
   -7.5110   -3.8350    0.0000 C   0  0  0  0  0  0  0  0  0  0  0  0
   -8.2254   -2.5976    0.0000 C   0  0  0  0  0  0  0  0  0  0  0  0
   -9.6465   -3.4226    0.0000 C   0  0  0  0  0  0  0  0  0  0  0  0
   -7.5110   -1.3600    0.0000 C   0  0  0  0  0  0  0  0  0  0  0  0
  -10.3609   -3.8350    0.0000 C   0  0  0  0  0  0  0  0  0  0  0  0
   -6.7965   -0.9475    0.0000 C   0  0  0  0  0  0  0  0  0  0  0  0
  -10.3609   -4.6600    0.0000 C   0  0  0  0  0  0  0  0  0  0  0  0
  -11.0755   -5.0726    0.0000 C   0  0  0  0  0  0  0  0  0  0  0  0
   -6.0821   -1.3600    0.0000 C   0  0  0  0  0  0  0  0  0  0  0  0
  -11.0755   -5.8976    0.0000 C   0  0  0  0  0  0  0  0  0  0  0  0
  -11.7899   -6.3101    0.0000 C   0  0  0  0  0  0  0  0  0  0  0  0
   -5.3675   -0.9475    0.0000 C   0  0  0  0  0  0  0  0  0  0  0  0
   -4.6530   -1.3600    0.0000 C   0  0  0  0  0  0  0  0  0  0  0  0
   -3.9386   -0.9475    0.0000 C   0  0  0  0  0  0  0  0  0  0  0  0
   -3.2241   -1.3600    0.0000 C   0  0  0  0  0  0  0  0  0  0  0  0
  1 13  1  0  0  0  0
  1 15  1  0  0  0  0
  2 12  2  0  0  0  0
  3 12  1  0  0  0  0
  4 14  2  0  0  0  0
  5 15  2  0  0  0  0
  6 10  1  0  0  0  0
  6 22  1  0  0  0  0
  7 10  1  0  0  0  0
  8 10  2  0  0  0  0
  9 11  1  0  0  0  0
  9 14  1  0  0  0  0
 11 12  1  0  0  0  0
 11 13  1  0  0  0  0
 14 16  1  0  0  0  0
 15 17  1  0  0  0  0
 16 18  1  0  0  0  0
 17 20  1  0  0  0  0
 18 19  1  0  0  0  0
 19 21  1  0  0  0  0
 20 23  1  0  0  0  0
 21 22  1  0  0  0  0
 23 24  1  0  0  0  0
 24 25  1  0  0  0  0
 25 26  1  0  0  0  0
M  CHG  2   7  -1  10   1
M  END
> <PUBCHEM_COMPOUND_ID_TYPE>
0

> <PUBCHEM_TOTAL_CHARGE>
0

> <PUBCHEM_SUBSTANCE_ID>
310946595

> <PUBCHEM_SUBSTANCE_VERSION>
1

> <PUBCHEM_EXT_DATASOURCE_NAME>
4488

> <PUBCHEM_EXT_DATASOURCE_REGID>
SCHEMBL16124716

> <PUBCHEM_SUBSTANCE_COMMENT>
InChI=1S/C16H28N2O7S/c1-2-3-4-7-10-15(20)26-12-13(16(21)22)17-14(19)9-6-5-8-11-25-18(23)24/h13H,2-12H2,1H3,(H,17,19)(H,21,22)
InChIKey=IXDINEIESJMZQH-UHFFFAOYSA-N

> <PUBCHEM_SUBSTANCE_SYNONYM>
SCHEMBL16124716

> <PUBCHEM_XREF_EXT_ID>
SCHEMBL16124716

> <PUBCHEM_EXT_DATASOURCE_URL>
https://www.surechembl.org/

> <PUBCHEM_EXT_SUBSTANCE_URL>
https://www.surechembl.org/chemical/SCHEMBL16124716

> <PUBCHEM_CID_ASSOCIATIONS>
117612495  1

> <PUBCHEM_COORDINATE_TYPE>
1
3

$$$$
