310941248
  -OEChem-07211613022D

 42 45  0     1  0  0  0  0  0999 V2000
    5.0464   -0.9282    0.0000 O   0  0  0  0  0  0  0  0  0  0  0  0
    3.9189    1.0381    0.0000 O   0  0  0  0  0  0  0  0  0  0  0  0
    1.7876   -1.0381    0.0000 O   0  0  0  0  0  0  0  0  0  0  0  0
   -0.3575    1.0381    0.0000 O   0  0  0  0  0  0  0  0  0  0  0  0
    3.9189    2.6882    0.0000 O   0  0  0  0  0  0  0  0  0  0  0  0
   -2.5026   -1.0381    0.0000 O   0  0  0  0  0  0  0  0  0  0  0  0
   -5.3490   -1.0381    0.0000 O   0  0  0  0  0  0  0  0  0  0  0  0
    2.5026    0.2131    0.0000 N   0  0  0  0  0  0  0  0  0  0  0  0
    0.3575   -0.1994    0.0000 N   0  0  0  0  0  0  0  0  0  0  0  0
   -1.7738    0.2131    0.0000 N   0  0  0  0  0  0  0  0  0  0  0  0
   -3.9189   -0.1994    0.0000 N   0  0  0  0  0  0  0  0  0  0  0  0
    4.6477   -0.1994    0.0000 C   0  0  3  0  0  0  0  0  0  0  0  0
    3.9189    0.1994    0.0000 C   0  0  0  0  0  0  0  0  0  0  0  0
    4.2489   -0.9145    0.0000 C   0  0  0  0  0  0  0  0  0  0  0  0
    3.2176   -0.1994    0.0000 C   0  0  3  0  0  0  0  0  0  0  0  0
    3.2039   -1.0244    0.0000 C   0  0  0  0  0  0  0  0  0  0  0  0
    5.3490    0.2269    0.0000 C   0  0  0  0  0  0  0  0  0  0  0  0
    1.7876   -0.1719    0.0000 C   0  0  0  0  0  0  0  0  0  0  0  0
    2.5026   -1.4369    0.0000 C   0  0  0  0  0  0  0  0  0  0  0  0
    3.9189   -1.4369    0.0000 C   0  0  0  0  0  0  0  0  0  0  0  0
    1.0588    0.2131    0.0000 C   0  0  3  0  0  0  0  0  0  0  0  0
    2.4888   -2.2619    0.0000 C   0  0  0  0  0  0  0  0  0  0  0  0
    3.9189   -2.2619    0.0000 C   0  0  0  0  0  0  0  0  0  0  0  0
    1.0863    1.0519    0.0000 C   0  0  0  0  0  0  0  0  0  0  0  0
    3.2314   -2.6745    0.0000 C   0  0  0  0  0  0  0  0  0  0  0  0
    1.7738    1.4644    0.0000 C   0  0  0  0  0  0  0  0  0  0  0  0
   -0.3575    0.1994    0.0000 C   0  0  0  0  0  0  0  0  0  0  0  0
   -1.0588   -0.1857    0.0000 C   0  0  3  0  0  0  0  0  0  0  0  0
    1.7738   -2.6882    0.0000 C   0  0  0  0  0  0  0  0  0  0  0  0
    2.4888    1.0519    0.0000 C   0  0  0  0  0  0  0  0  0  0  0  0
    1.8013    2.2895    0.0000 C   0  0  0  0  0  0  0  0  0  0  0  0
    3.2176    2.2895    0.0000 C   0  0  0  0  0  0  0  0  0  0  0  0
    3.2039    1.4644    0.0000 C   0  0  0  0  0  0  0  0  0  0  0  0
    2.5164    2.6882    0.0000 C   0  0  0  0  0  0  0  0  0  0  0  0
   -2.5026   -0.1719    0.0000 C   0  0  0  0  0  0  0  0  0  0  0  0
   -1.0588   -1.0381    0.0000 C   0  0  0  0  0  0  0  0  0  0  0  0
   -3.2176    0.2131    0.0000 C   0  0  0  0  0  0  0  0  0  0  0  0
   -3.9189   -1.0244    0.0000 C   0  0  0  0  0  0  0  0  0  0  0  0
   -4.6477    0.2131    0.0000 C   0  0  0  0  0  0  0  0  0  0  0  0
   -4.6202   -1.4369    0.0000 C   0  0  0  0  0  0  0  0  0  0  0  0
   -5.3352   -0.1994    0.0000 C   0  0  0  0  0  0  0  0  0  0  0  0
    4.6615    2.2619    0.0000 C   0  0  0  0  0  0  0  0  0  0  0  0
  1 12  1  0  0  0  0
  1 14  1  0  0  0  0
  2 13  2  0  0  0  0
  3 18  2  0  0  0  0
  4 27  2  0  0  0  0
  5 32  1  0  0  0  0
  5 42  1  0  0  0  0
  6 35  2  0  0  0  0
  7 40  1  0  0  0  0
  7 41  1  0  0  0  0
  8 15  1  0  0  0  0
  8 18  1  0  0  0  0
  9 21  1  0  0  0  0
  9 27  1  0  0  0  0
 10 28  1  0  0  0  0
 10 35  1  0  0  0  0
 11 37  1  0  0  0  0
 11 38  1  0  0  0  0
 11 39  1  0  0  0  0
 12 13  1  0  0  0  0
 12 14  1  0  0  0  0
 12 17  1  0  0  0  0
 13 15  1  0  0  0  0
 15 16  1  0  0  0  0
 16 19  1  0  0  0  0
 16 20  2  0  0  0  0
 18 21  1  0  0  0  0
 19 22  2  0  0  0  0
 20 23  1  0  0  0  0
 21 24  1  0  0  0  0
 22 25  1  0  0  0  0
 22 29  1  0  0  0  0
 23 25  2  0  0  0  0
 24 26  1  0  0  0  0
 26 30  2  0  0  0  0
 26 31  1  0  0  0  0
 27 28  1  0  0  0  0
 28 36  1  0  0  0  0
 30 33  1  0  0  0  0
 31 34  2  0  0  0  0
 32 33  2  0  0  0  0
 32 34  1  0  0  0  0
 35 37  1  0  0  0  0
 38 40  1  0  0  0  0
 39 41  1  0  0  0  0
M  END
> <PUBCHEM_COMPOUND_ID_TYPE>
0

> <PUBCHEM_TOTAL_CHARGE>
0

> <PUBCHEM_SUBSTANCE_ID>
310941248

> <PUBCHEM_SUBSTANCE_VERSION>
1

> <PUBCHEM_EXT_DATASOURCE_NAME>
4488

> <PUBCHEM_EXT_DATASOURCE_REGID>
SCHEMBL16119208

> <PUBCHEM_SUBSTANCE_COMMENT>
InChI=1S/C31H40N4O7/c1-20-6-5-7-23(16-20)27(28(37)31(3)19-42-31)34-30(39)25(17-22-8-10-24(40-4)11-9-22)33-29(38)21(2)32-26(36)18-35-12-14-41-15-13-35/h5-11,16,21,25,27H,12-15,17-19H2,1-4H3,(H,32,36)(H,33,38)(H,34,39)
InChIKey=PXDZAEYGAUWVEO-UHFFFAOYSA-N

> <PUBCHEM_SUBSTANCE_SYNONYM>
SCHEMBL16119208

> <PUBCHEM_XREF_EXT_ID>
SCHEMBL16119208

> <PUBCHEM_EXT_DATASOURCE_URL>
https://www.surechembl.org/

> <PUBCHEM_EXT_SUBSTANCE_URL>
https://www.surechembl.org/chemical/SCHEMBL16119208

> <PUBCHEM_CID_ASSOCIATIONS>
117608107  1

> <PUBCHEM_COORDINATE_TYPE>
1
3

$$$$
