310943022
  -OEChem-07211613022D

 32 34  0     1  0  0  0  0  0999 V2000
   -2.1934    1.2561    0.0000 O   0  0  0  0  0  0  0  0  0  0  0  0
    5.0304    1.2561    0.0000 O   0  0  0  0  0  0  0  0  0  0  0  0
   -3.6307    0.4187    0.0000 O   0  0  0  0  0  0  0  0  0  0  0  0
    0.7186    0.4187    0.0000 N   0  0  0  0  0  0  0  0  0  0  0  0
    1.4435    1.6685    0.0000 N   0  0  0  0  0  0  0  0  0  0  0  0
    2.8808    1.6685    0.0000 N   0  0  0  0  0  0  0  0  0  0  0  0
   -0.7186   -2.9058    0.0000 N   0  0  0  0  0  0  0  0  0  0  0  0
   -5.0554    1.2561    0.0000 N   0  0  0  0  0  0  0  0  0  0  0  0
    0.7061    1.2561    0.0000 C   0  0  0  0  0  0  0  0  0  0  0  0
    1.4435    0.0187    0.0000 C   0  0  0  0  0  0  0  0  0  0  0  0
   -0.0187    1.6810    0.0000 C   0  0  0  0  0  0  0  0  0  0  0  0
    1.4185   -0.8311    0.0000 C   0  0  0  0  0  0  0  0  0  0  0  0
    2.1684    1.2686    0.0000 C   0  0  0  0  0  0  0  0  0  0  0  0
    2.1559    0.4187    0.0000 C   0  0  0  0  0  0  0  0  0  0  0  0
   -0.7436    1.2686    0.0000 C   0  0  0  0  0  0  0  0  0  0  0  0
   -0.0062    2.5059    0.0000 C   0  0  0  0  0  0  0  0  0  0  0  0
   -1.4560    1.6810    0.0000 C   0  0  0  0  0  0  0  0  0  0  0  0
    0.7186   -1.2436    0.0000 C   0  0  0  0  0  0  0  0  0  0  0  0
    2.1559   -1.2436    0.0000 C   0  0  0  0  0  0  0  0  0  0  0  0
    0.7061   -2.0684    0.0000 C   0  0  0  0  0  0  0  0  0  0  0  0
   -1.4435    2.5059    0.0000 C   0  0  0  0  0  0  0  0  0  0  0  0
   -0.7436    2.9058    0.0000 C   0  0  0  0  0  0  0  0  0  0  0  0
    2.1559   -2.0684    0.0000 C   0  0  0  0  0  0  0  0  0  0  0  0
    1.4185   -2.4808    0.0000 C   0  0  0  0  0  0  0  0  0  0  0  0
    3.6057    1.2561    0.0000 C   0  0  0  0  0  0  0  0  0  0  0  0
   -0.0187   -2.4933    0.0000 C   0  0  0  0  0  0  0  0  0  0  0  0
   -2.9058    1.6685    0.0000 C   0  0  0  0  0  0  0  0  0  0  0  0
   -3.6057    1.2686    0.0000 C   0  0  3  0  0  0  0  0  0  0  0  0
    4.3180    1.6685    0.0000 C   0  0  0  0  0  0  0  0  0  0  0  0
   -4.3431    1.6685    0.0000 C   0  0  0  0  0  0  0  0  0  0  0  0
    5.7678    1.6685    0.0000 C   0  0  0  0  0  0  0  0  0  0  0  0
   -5.7678    1.6560    0.0000 C   0  0  0  0  0  0  0  0  0  0  0  0
  1 17  1  0  0  0  0
  1 27  1  0  0  0  0
  2 29  1  0  0  0  0
  2 31  1  0  0  0  0
  3 28  1  0  0  0  0
  4  9  1  0  0  0  0
  4 10  2  0  0  0  0
  5  9  2  0  0  0  0
  5 13  1  0  0  0  0
  6 13  1  0  0  0  0
  6 25  1  0  0  0  0
  7 26  3  0  0  0  0
  8 30  1  0  0  0  0
  8 32  1  0  0  0  0
  9 11  1  0  0  0  0
 10 12  1  0  0  0  0
 10 14  1  0  0  0  0
 11 15  2  0  0  0  0
 11 16  1  0  0  0  0
 12 18  1  0  0  0  0
 12 19  2  0  0  0  0
 13 14  2  0  0  0  0
 15 17  1  0  0  0  0
 16 22  2  0  0  0  0
 17 21  2  0  0  0  0
 18 20  2  0  0  0  0
 19 23  1  0  0  0  0
 20 24  1  0  0  0  0
 20 26  1  0  0  0  0
 21 22  1  0  0  0  0
 23 24  2  0  0  0  0
 25 29  1  0  0  0  0
 27 28  1  0  0  0  0
 28 30  1  0  0  0  0
M  END
> <PUBCHEM_COMPOUND_ID_TYPE>
0

> <PUBCHEM_TOTAL_CHARGE>
0

> <PUBCHEM_SUBSTANCE_ID>
310943022

> <PUBCHEM_SUBSTANCE_VERSION>
1

> <PUBCHEM_EXT_DATASOURCE_NAME>
4488

> <PUBCHEM_EXT_DATASOURCE_REGID>
SCHEMBL16121081

> <PUBCHEM_SUBSTANCE_COMMENT>
InChI=1S/C24H27N5O3/c1-26-15-20(30)16-32-21-8-4-7-19(12-21)24-28-22(13-23(29-24)27-9-10-31-2)18-6-3-5-17(11-18)14-25/h3-8,11-13,20,26,30H,9-10,15-16H2,1-2H3,(H,27,28,29)
InChIKey=RXSFFEWQVAYLPA-UHFFFAOYSA-N

> <PUBCHEM_SUBSTANCE_SYNONYM>
SCHEMBL16121081

> <PUBCHEM_XREF_EXT_ID>
SCHEMBL16121081

> <PUBCHEM_EXT_DATASOURCE_URL>
https://www.surechembl.org/

> <PUBCHEM_EXT_SUBSTANCE_URL>
https://www.surechembl.org/chemical/SCHEMBL16121081

> <PUBCHEM_CID_ASSOCIATIONS>
85471894  1

> <PUBCHEM_COORDINATE_TYPE>
1
3

$$$$
