310933427
  -OEChem-07211613022D

 33 36  0     1  0  0  0  0  0999 V2000
    3.1923   -6.9584    0.0000 O   0  0  0  0  0  0  0  0  0  0  0  0
    3.1564   -2.2955    0.0000 O   0  0  0  0  0  0  0  0  0  0  0  0
    6.1335   -2.1162    0.0000 O   0  0  0  0  0  0  0  0  0  0  0  0
    0.8250   -1.6499    0.0000 O   0  0  0  0  0  0  0  0  0  0  0  0
    2.2597   -1.6499    0.0000 O   0  0  0  0  0  0  0  0  0  0  0  0
    4.7346   -2.6543    0.0000 N   0  0  0  0  0  0  0  0  0  0  0  0
    5.7389   -3.5509    0.0000 N   0  0  0  0  0  0  0  0  0  0  0  0
    1.5423   -2.8695    0.0000 N   0  0  0  0  0  0  0  0  0  0  0  0
    4.0172   -7.1736    0.0000 N   0  0  0  0  0  0  0  0  0  0  0  0
    3.6227   -3.6585    0.0000 C   0  0  0  0  0  0  0  0  0  0  0  0
    4.3759   -3.4075    0.0000 C   0  0  0  0  0  0  0  0  0  0  0  0
    5.0215   -3.9813    0.0000 C   0  0  0  0  0  0  0  0  0  0  0  0
    4.0531   -5.0215    0.0000 C   0  0  0  0  0  0  0  0  0  0  0  0
    2.9771   -3.1205    0.0000 C   0  0  3  0  0  0  0  0  0  0  0  0
    3.4075   -4.4477    0.0000 C   0  0  0  0  0  0  0  0  0  0  0  0
    3.8737   -5.8107    0.0000 C   0  0  0  0  0  0  0  0  0  0  0  0
    2.1879   -3.3716    0.0000 C   0  0  3  0  0  0  0  0  0  0  0  0
    4.8063   -4.7705    0.0000 C   0  0  0  0  0  0  0  0  0  0  0  0
    5.5596   -2.7260    0.0000 C   0  0  0  0  0  0  0  0  0  0  0  0
    3.1205   -6.1693    0.0000 C   0  0  0  0  0  0  0  0  0  0  0  0
    4.4118   -6.4563    0.0000 C   0  0  0  0  0  0  0  0  0  0  0  0
    1.9369   -4.1607    0.0000 C   0  0  0  0  0  0  0  0  0  0  0  0
    1.5423   -2.0445    0.0000 C   0  0  0  0  0  0  0  0  0  0  0  0
    0.8609   -3.3716    0.0000 C   0  0  0  0  0  0  0  0  0  0  0  0
    1.1119   -4.1607    0.0000 C   0  0  0  0  0  0  0  0  0  0  0  0
    2.4031   -5.7748    0.0000 C   0  0  0  0  0  0  0  0  0  0  0  0
    5.2367   -6.3487    0.0000 C   0  0  0  0  0  0  0  0  0  0  0  0
    0.8250   -0.8250    0.0000 C   0  0  0  0  0  0  0  0  0  0  0  0
    5.8824   -1.3630    0.0000 C   0  0  0  0  0  0  0  0  0  0  0  0
    1.6499   -0.8250    0.0000 C   0  0  0  0  0  0  0  0  0  0  0  0
    0.8250    0.0000    0.0000 C   0  0  0  0  0  0  0  0  0  0  0  0
    0.0000   -0.8250    0.0000 C   0  0  0  0  0  0  0  0  0  0  0  0
    5.0933   -1.1478    0.0000 C   0  0  0  0  0  0  0  0  0  0  0  0
  1  9  1  0  0  0  0
  1 20  1  0  0  0  0
  2 14  1  0  0  0  0
  3 19  1  0  0  0  0
  3 29  1  0  0  0  0
  4 23  1  0  0  0  0
  4 28  1  0  0  0  0
  5 23  2  0  0  0  0
  6 11  1  0  0  0  0
  6 19  2  0  0  0  0
  7 12  1  0  0  0  0
  7 19  1  0  0  0  0
  8 17  1  0  0  0  0
  8 23  1  0  0  0  0
  8 24  1  0  0  0  0
  9 21  2  0  0  0  0
 10 11  1  0  0  0  0
 10 14  1  0  0  0  0
 10 15  2  0  0  0  0
 11 12  2  0  0  0  0
 12 18  1  0  0  0  0
 13 15  1  0  0  0  0
 13 16  1  0  0  0  0
 13 18  2  0  0  0  0
 14 17  1  0  0  0  0
 16 20  2  0  0  0  0
 16 21  1  0  0  0  0
 17 22  1  0  0  0  0
 20 26  1  0  0  0  0
 21 27  1  0  0  0  0
 22 25  1  0  0  0  0
 24 25  1  0  0  0  0
 28 30  1  0  0  0  0
 28 31  1  0  0  0  0
 28 32  1  0  0  0  0
 29 33  1  0  0  0  0
M  END
> <PUBCHEM_COMPOUND_ID_TYPE>
0

> <PUBCHEM_TOTAL_CHARGE>
0

> <PUBCHEM_SUBSTANCE_ID>
310933427

> <PUBCHEM_SUBSTANCE_VERSION>
1

> <PUBCHEM_EXT_DATASOURCE_NAME>
4488

> <PUBCHEM_EXT_DATASOURCE_REGID>
SCHEMBL16110844

> <PUBCHEM_SUBSTANCE_COMMENT>
InChI=1S/C24H32N4O5/c1-7-31-22-25-17-12-15(19-13(2)27-33-14(19)3)11-16(20(17)26-22)21(29)18-9-8-10-28(18)23(30)32-24(4,5)6/h11-12,18,21,29H,7-10H2,1-6H3,(H,25,26)
InChIKey=LKLPWSDVCZASLF-UHFFFAOYSA-N

> <PUBCHEM_SUBSTANCE_SYNONYM>
SCHEMBL16110844

> <PUBCHEM_XREF_EXT_ID>
SCHEMBL16110844

> <PUBCHEM_EXT_DATASOURCE_URL>
https://www.surechembl.org/

> <PUBCHEM_EXT_SUBSTANCE_URL>
https://www.surechembl.org/chemical/SCHEMBL16110844

> <PUBCHEM_CID_ASSOCIATIONS>
117601830  1

> <PUBCHEM_COORDINATE_TYPE>
1
3

$$$$
