310947004
  -OEChem-07211613022D

 33 36  0     1  0  0  0  0  0999 V2000
   -2.8334   -2.0625    0.0000 O   0  0  0  0  0  0  0  0  0  0  0  0
   -4.2624    0.4125    0.0000 O   0  0  0  0  0  0  0  0  0  0  0  0
   -2.1190    2.4750    0.0000 O   0  0  0  0  0  0  0  0  0  0  0  0
   -3.5479    1.6500    0.0000 O   0  0  0  0  0  0  0  0  0  0  0  0
   -1.4045    0.4125    0.0000 N   0  0  0  0  0  0  0  0  0  0  0  0
    0.0244    0.4125    0.0000 N   0  0  0  0  0  0  0  0  0  0  0  0
    1.4534    0.4125    0.0000 N   0  0  0  0  0  0  0  0  0  0  0  0
    1.4534   -1.2375    0.0000 N   0  0  0  0  0  0  0  0  0  0  0  0
    4.1519    0.8250    0.0000 N   0  0  0  0  0  0  0  0  0  0  0  0
    3.6669    1.4924    0.0000 N   0  0  0  0  0  0  0  0  0  0  0  0
   -0.6900    0.0000    0.0000 C   0  0  0  0  0  0  0  0  0  0  0  0
    0.7389    0.0000    0.0000 C   0  0  0  0  0  0  0  0  0  0  0  0
    0.7389   -0.8250    0.0000 C   0  0  0  0  0  0  0  0  0  0  0  0
   -2.1190    0.0000    0.0000 C   0  0  0  0  0  0  0  0  0  0  0  0
    2.1678    0.0000    0.0000 C   0  0  0  0  0  0  0  0  0  0  0  0
   -0.6900   -0.8250    0.0000 C   0  0  0  0  0  0  0  0  0  0  0  0
    2.8823    0.4125    0.0000 C   0  0  0  0  0  0  0  0  0  0  0  0
    0.0244   -1.2375    0.0000 C   0  0  0  0  0  0  0  0  0  0  0  0
    2.1678   -0.8250    0.0000 C   0  0  0  0  0  0  0  0  0  0  0  0
   -2.8334    0.4125    0.0000 C   0  0  0  0  0  0  0  0  0  0  0  0
   -2.1190   -0.8250    0.0000 C   0  0  0  0  0  0  0  0  0  0  0  0
   -1.4045    1.2375    0.0000 C   0  0  0  0  0  0  0  0  0  0  0  0
   -2.8334   -1.2375    0.0000 C   0  0  0  0  0  0  0  0  0  0  0  0
   -3.5479    0.0000    0.0000 C   0  0  0  0  0  0  0  0  0  0  0  0
    3.6669    0.1576    0.0000 C   0  0  0  0  0  0  0  0  0  0  0  0
   -3.5479   -0.8250    0.0000 C   0  0  0  0  0  0  0  0  0  0  0  0
    2.8823    1.2375    0.0000 C   0  0  0  0  0  0  0  0  0  0  0  0
   -2.1190    1.6500    0.0000 C   0  0  3  0  0  0  0  0  0  0  0  0
   -2.8334    1.2375    0.0000 C   0  0  0  0  0  0  0  0  0  0  0  0
    4.9769    0.8250    0.0000 C   0  0  0  0  0  0  0  0  0  0  0  0
   -2.1190   -2.4750    0.0000 C   0  0  0  0  0  0  0  0  0  0  0  0
   -4.9769    0.0000    0.0000 C   0  0  0  0  0  0  0  0  0  0  0  0
   -4.2624    1.2375    0.0000 C   0  0  0  0  0  0  0  0  0  0  0  0
  1 23  1  0  0  0  0
  1 31  1  0  0  0  0
  2 24  1  0  0  0  0
  2 32  1  0  0  0  0
  3 28  1  0  0  0  0
  4 29  1  0  0  0  0
  4 33  1  0  0  0  0
  5 11  1  0  0  0  0
  5 14  1  0  0  0  0
  5 22  1  0  0  0  0
  6 11  1  0  0  0  0
  6 12  2  0  0  0  0
  7 12  1  0  0  0  0
  7 15  2  0  0  0  0
  8 13  1  0  0  0  0
  8 19  2  0  0  0  0
  9 10  1  0  0  0  0
  9 25  1  0  0  0  0
  9 30  1  0  0  0  0
 10 27  2  0  0  0  0
 11 16  2  0  0  0  0
 12 13  1  0  0  0  0
 13 18  2  0  0  0  0
 14 20  2  0  0  0  0
 14 21  1  0  0  0  0
 15 17  1  0  0  0  0
 15 19  1  0  0  0  0
 16 18  1  0  0  0  0
 17 25  2  0  0  0  0
 17 27  1  0  0  0  0
 20 24  1  0  0  0  0
 21 23  2  0  0  0  0
 22 28  1  0  0  0  0
 23 26  1  0  0  0  0
 24 26  2  0  0  0  0
 28 29  1  0  0  0  0
M  END
> <PUBCHEM_COMPOUND_ID_TYPE>
0

> <PUBCHEM_TOTAL_CHARGE>
0

> <PUBCHEM_SUBSTANCE_ID>
310947004

> <PUBCHEM_SUBSTANCE_VERSION>
1

> <PUBCHEM_EXT_DATASOURCE_NAME>
4488

> <PUBCHEM_EXT_DATASOURCE_REGID>
SCHEMBL16125156

> <PUBCHEM_SUBSTANCE_COMMENT>
InChI=1S/C23H26N6O4/c1-28-12-15(10-25-28)21-11-24-20-5-6-22(27-23(20)26-21)29(13-17(30)14-31-2)16-7-18(32-3)9-19(8-16)33-4/h5-12,17,30H,13-14H2,1-4H3
InChIKey=ZTEDUGXIOICJMB-UHFFFAOYSA-N

> <PUBCHEM_SUBSTANCE_SYNONYM>
SCHEMBL16125156

> <PUBCHEM_XREF_EXT_ID>
SCHEMBL16125156

> <PUBCHEM_EXT_DATASOURCE_URL>
https://www.surechembl.org/

> <PUBCHEM_EXT_SUBSTANCE_URL>
https://www.surechembl.org/chemical/SCHEMBL16125156

> <PUBCHEM_CID_ASSOCIATIONS>
117612858  1

> <PUBCHEM_COORDINATE_TYPE>
1
3

$$$$
