310936816
  -OEChem-07211613022D

 20 22  0     1  0  0  0  0  0999 V2000
    0.0000   -4.9783    0.0000 F   0  0  0  0  0  0  0  0  0  0  0  0
    1.2517   -5.6895    0.0000 F   0  0  0  0  0  0  0  0  0  0  0  0
    0.9388   -2.3896    0.0000 O   0  0  0  0  0  0  0  0  0  0  0  0
    2.3896   -2.3896    0.0000 O   0  0  0  0  0  0  0  0  0  0  0  0
    1.6499   -1.1663    0.0000 N   0  0  0  0  0  0  0  0  0  0  0  0
    2.4749   -2.1051    0.0000 N   0  0  0  0  0  0  0  0  0  0  0  0
    2.4749   -3.5275    0.0000 N   0  0  0  0  0  0  0  0  0  0  0  0
    2.4749   -0.6828    0.0000 C   0  0  3  0  0  0  0  0  0  0  0  0
    0.8534   -0.6828    0.0000 C   0  0  3  0  0  0  0  0  0  0  0  0
    2.0767   -1.3939    0.0000 C   0  0  3  0  0  0  0  0  0  0  0  0
    1.2517   -1.3939    0.0000 C   0  0  0  0  0  0  0  0  0  0  0  0
    2.0767    0.0000    0.0000 C   0  0  0  0  0  0  0  0  0  0  0  0
    1.2517    0.0000    0.0000 C   0  0  0  0  0  0  0  0  0  0  0  0
    1.6499   -1.9913    0.0000 C   0  0  0  0  0  0  0  0  0  0  0  0
    2.0767   -2.8163    0.0000 C   0  0  0  0  0  0  0  0  0  0  0  0
    1.2517   -4.2387    0.0000 C   0  0  0  0  0  0  0  0  0  0  0  0
    1.2232   -2.8163    0.0000 C   0  0  0  0  0  0  0  0  0  0  0  0
    2.1051   -4.2671    0.0000 C   0  0  0  0  0  0  0  0  0  0  0  0
    0.8534   -3.5559    0.0000 C   0  0  0  0  0  0  0  0  0  0  0  0
    0.8534   -4.9783    0.0000 C   0  0  0  0  0  0  0  0  0  0  0  0
  1 20  1  0  0  0  0
  2 20  1  0  0  0  0
  3 14  2  0  0  0  0
  4 14  1  0  0  0  0
  5  8  1  0  0  0  0
  5  9  1  0  0  0  0
  5 14  1  0  0  0  0
  6 10  1  0  0  0  0
  6 15  1  0  0  0  0
  7 15  1  0  0  0  0
  7 18  2  0  0  0  0
  8 10  1  0  0  0  0
  8 12  1  0  0  0  0
  9 11  1  0  0  0  0
  9 13  1  0  0  0  0
 10 11  1  0  0  0  0
 12 13  1  0  0  0  0
 15 17  2  0  0  0  0
 16 18  1  0  0  0  0
 16 19  2  0  0  0  0
 16 20  1  0  0  0  0
 17 19  1  0  0  0  0
M  END
> <PUBCHEM_COMPOUND_ID_TYPE>
0

> <PUBCHEM_TOTAL_CHARGE>
0

> <PUBCHEM_SUBSTANCE_ID>
310936816

> <PUBCHEM_SUBSTANCE_VERSION>
1

> <PUBCHEM_EXT_DATASOURCE_NAME>
4488

> <PUBCHEM_EXT_DATASOURCE_REGID>
SCHEMBL16114503

> <PUBCHEM_SUBSTANCE_COMMENT>
InChI=1S/C13H15F2N3O2/c14-12(15)7-1-4-11(16-6-7)17-9-5-8-2-3-10(9)18(8)13(19)20/h1,4,6,8-10,12H,2-3,5H2,(H,16,17)(H,19,20)
InChIKey=NVPIIIFGVWBCEJ-UHFFFAOYSA-N

> <PUBCHEM_SUBSTANCE_SYNONYM>
SCHEMBL16114503

> <PUBCHEM_XREF_EXT_ID>
SCHEMBL16114503

> <PUBCHEM_EXT_DATASOURCE_URL>
https://www.surechembl.org/

> <PUBCHEM_EXT_SUBSTANCE_URL>
https://www.surechembl.org/chemical/SCHEMBL16114503

> <PUBCHEM_CID_ASSOCIATIONS>
117604709  1

> <PUBCHEM_COORDINATE_TYPE>
1
3

$$$$
