310935122
  -OEChem-07211613022D

 39 45  0     1  0  0  0  0  0999 V2000
    3.5373   -5.7540    0.0000 O   0  0  0  0  0  0  0  0  0  0  0  0
    0.7074   -3.3015    0.0000 N   0  0  3  0  0  0  0  0  0  0  0  0
    0.0000   -2.0752    0.0000 N   0  0  0  0  0  0  0  0  0  0  0  0
    0.7074   -0.8018    0.0000 N   0  0  0  0  0  0  0  0  0  0  0  0
    2.8298   -6.9803    0.0000 N   0  0  0  0  0  0  0  0  0  0  0  0
    4.4334   -4.4806    0.0000 N   0  0  0  0  0  0  0  0  0  0  0  0
    5.2352   -4.5749    0.0000 N   0  0  0  0  0  0  0  0  0  0  0  0
    2.8298   -9.4328    0.0000 N   0  0  0  0  0  0  0  0  0  0  0  0
    1.4149   -2.0752    0.0000 C   0  0  0  0  0  0  0  0  0  0  0  0
    0.7074   -2.4525    0.0000 C   0  0  0  0  0  0  0  0  0  0  0  0
    1.4621   -1.2263    0.0000 C   0  0  0  0  0  0  0  0  0  0  0  0
    2.8298   -2.0752    0.0000 C   0  0  0  0  0  0  0  0  0  0  0  0
    2.1224   -2.4525    0.0000 C   0  0  0  0  0  0  0  0  0  0  0  0
    2.1224   -0.8489    0.0000 C   0  0  0  0  0  0  0  0  0  0  0  0
    1.4149   -4.5277    0.0000 C   0  0  0  0  0  0  0  0  0  0  0  0
    3.5373   -2.4525    0.0000 C   0  0  0  0  0  0  0  0  0  0  0  0
    2.8298   -1.2263    0.0000 C   0  0  0  0  0  0  0  0  0  0  0  0
    1.4149   -3.6788    0.0000 C   0  0  0  0  0  0  0  0  0  0  0  0
    0.7074   -4.9522    0.0000 C   0  0  0  0  0  0  0  0  0  0  0  0
    0.0000   -3.6788    0.0000 C   0  0  0  0  0  0  0  0  0  0  0  0
    2.1224   -5.7540    0.0000 C   0  0  0  0  0  0  0  0  0  0  0  0
    2.1224   -4.9050    0.0000 C   0  0  0  0  0  0  0  0  0  0  0  0
    0.0000   -1.2263    0.0000 C   0  0  0  0  0  0  0  0  0  0  0  0
    4.2448   -3.6788    0.0000 C   0  0  0  0  0  0  0  0  0  0  0  0
    0.0000   -4.5277    0.0000 C   0  0  0  0  0  0  0  0  0  0  0  0
    3.5373   -3.2543    0.0000 C   0  0  0  0  0  0  0  0  0  0  0  0
    4.9994   -3.3015    0.0000 C   0  0  0  0  0  0  0  0  0  0  0  0
    4.2919   -2.0752    0.0000 C   0  0  0  0  0  0  0  0  0  0  0  0
    0.7074   -5.7540    0.0000 C   0  0  0  0  0  0  0  0  0  0  0  0
    2.8298   -6.1313    0.0000 C   0  0  0  0  0  0  0  0  0  0  0  0
    1.4149   -6.1313    0.0000 C   0  0  0  0  0  0  0  0  0  0  0  0
    4.9522   -2.4525    0.0000 C   0  0  0  0  0  0  0  0  0  0  0  0
    2.1224    0.0000    0.0000 C   0  0  0  0  0  0  0  0  0  0  0  0
    5.5654   -3.8203    0.0000 C   0  0  0  0  0  0  0  0  0  0  0  0
    3.5373   -7.3576    0.0000 C   0  0  0  0  0  0  0  0  0  0  0  0
    2.1224   -7.3576    0.0000 C   0  0  0  0  0  0  0  0  0  0  0  0
    3.5373   -8.2066    0.0000 C   0  0  0  0  0  0  0  0  0  0  0  0
    2.1224   -8.2066    0.0000 C   0  0  0  0  0  0  0  0  0  0  0  0
    2.8298   -8.6310    0.0000 C   0  0  0  0  0  0  0  0  0  0  0  0
  1 30  2  0  0  0  0
  2 10  1  0  0  0  0
  2 18  1  0  0  0  0
  2 20  1  0  0  0  0
  3 10  1  0  0  0  0
  3 23  2  0  0  0  0
  4 11  2  0  0  0  0
  4 23  1  0  0  0  0
  5 30  1  0  0  0  0
  5 35  1  0  0  0  0
  5 36  1  0  0  0  0
  6  7  1  0  0  0  0
  6 24  1  0  0  0  0
  7 34  2  0  0  0  0
  8 39  1  0  0  0  0
  9 10  2  0  0  0  0
  9 11  1  0  0  0  0
  9 13  1  0  0  0  0
 11 14  1  0  0  0  0
 12 13  2  0  0  0  0
 12 16  1  0  0  0  0
 12 17  1  0  0  0  0
 14 17  2  0  0  0  0
 14 33  1  0  0  0  0
 15 18  1  0  0  0  0
 15 19  2  0  0  0  0
 15 22  1  0  0  0  0
 16 26  2  0  0  0  0
 16 28  1  0  0  0  0
 19 25  1  0  0  0  0
 19 29  1  0  0  0  0
 20 25  1  0  0  0  0
 21 22  2  0  0  0  0
 21 30  1  0  0  0  0
 21 31  1  0  0  0  0
 24 26  1  0  0  0  0
 24 27  2  0  0  0  0
 27 32  1  0  0  0  0
 27 34  1  0  0  0  0
 28 32  2  0  0  0  0
 29 31  2  0  0  0  0
 35 37  1  0  0  0  0
 36 38  1  0  0  0  0
 37 39  1  0  0  0  0
 38 39  1  0  0  0  0
M  END
> <PUBCHEM_COMPOUND_ID_TYPE>
0

> <PUBCHEM_TOTAL_CHARGE>
0

> <PUBCHEM_SUBSTANCE_ID>
310935122

> <PUBCHEM_SUBSTANCE_VERSION>
1

> <PUBCHEM_EXT_DATASOURCE_NAME>
4488

> <PUBCHEM_EXT_DATASOURCE_REGID>
SCHEMBL16112649

> <PUBCHEM_SUBSTANCE_COMMENT>
InChI=1S/C31H31N7O/c1-19-12-24(21-3-5-23-16-35-36-28(23)15-21)14-27-29(19)33-18-34-30(27)38-9-6-20-2-4-22(13-25(20)17-38)31(39)37-10-7-26(32)8-11-37/h2-5,12-16,18,26H,6-11,17,32H2,1H3,(H,35,36)
InChIKey=VPZCJDFIBIBDQR-UHFFFAOYSA-N

> <PUBCHEM_SUBSTANCE_SYNONYM>
SCHEMBL16112649

> <PUBCHEM_XREF_EXT_ID>
SCHEMBL16112649

> <PUBCHEM_EXT_DATASOURCE_URL>
https://www.surechembl.org/

> <PUBCHEM_EXT_SUBSTANCE_URL>
https://www.surechembl.org/chemical/SCHEMBL16112649

> <PUBCHEM_CID_ASSOCIATIONS>
86299885  1

> <PUBCHEM_COORDINATE_TYPE>
1
3

$$$$
