310945012
  -OEChem-07211613022D

 30 34  0     1  0  0  0  0  0999 V2000
    3.3591    1.2970    0.0000 O   0  0  0  0  0  0  0  0  0  0  0  0
   -3.4558    0.6288    0.0000 O   0  0  0  0  0  0  0  0  0  0  0  0
    1.8554   -1.0244    0.0000 N   0  0  0  0  0  0  0  0  0  0  0  0
   -1.0992   -0.0924    0.0000 N   0  0  0  0  0  0  0  0  0  0  0  0
    4.0801    0.0571    0.0000 N   0  0  0  0  0  0  0  0  0  0  0  0
   -1.2486   -1.5168    0.0000 N   0  0  0  0  0  0  0  0  0  0  0  0
   -3.3767   -1.7103    0.0000 N   0  0  3  0  0  0  0  0  0  0  0  0
   -2.1456    0.0396    0.0000 N   0  0  0  0  0  0  0  0  0  0  0  0
    1.3718   -0.3473    0.0000 C   0  0  0  0  0  0  0  0  0  0  0  0
    1.8466    0.3122    0.0000 C   0  0  0  0  0  0  0  0  0  0  0  0
    2.6468    0.0571    0.0000 C   0  0  0  0  0  0  0  0  0  0  0  0
    0.5540   -0.2594    0.0000 C   0  0  0  0  0  0  0  0  0  0  0  0
    2.6292   -0.7606    0.0000 C   0  0  0  0  0  0  0  0  0  0  0  0
    0.2198    0.4880    0.0000 C   0  0  0  0  0  0  0  0  0  0  0  0
    3.3591    0.4617    0.0000 C   0  0  0  0  0  0  0  0  0  0  0  0
    1.5212    1.0684    0.0000 C   0  0  0  0  0  0  0  0  0  0  0  0
    0.0703   -0.9277    0.0000 C   0  0  0  0  0  0  0  0  0  0  0  0
    0.6947    1.1475    0.0000 C   0  0  0  0  0  0  0  0  0  0  0  0
   -0.7650   -0.8398    0.0000 C   0  0  0  0  0  0  0  0  0  0  0  0
    3.3767   -1.1739    0.0000 C   0  0  0  0  0  0  0  0  0  0  0  0
   -0.6067    0.5760    0.0000 C   0  0  0  0  0  0  0  0  0  0  0  0
   -2.0753   -1.4290    0.0000 C   0  0  3  0  0  0  0  0  0  0  0  0
    4.0713   -0.7694    0.0000 C   0  0  0  0  0  0  0  0  0  0  0  0
   -2.4797   -0.7166    0.0000 C   0  0  3  0  0  0  0  0  0  0  0  0
   -2.6204   -2.0444    0.0000 C   0  0  0  0  0  0  0  0  0  0  0  0
   -3.2887   -0.8837    0.0000 C   0  0  0  0  0  0  0  0  0  0  0  0
   -2.6204    0.7078    0.0000 C   0  0  0  0  0  0  0  0  0  0  0  0
   -4.0801   -2.1148    0.0000 C   0  0  0  0  0  0  0  0  0  0  0  0
   -2.2951    1.4729    0.0000 C   0  0  0  0  0  0  0  0  0  0  0  0
   -2.8227    2.1148    0.0000 C   0  0  0  0  0  0  0  0  0  0  0  0
  1 15  2  0  0  0  0
  2 27  2  0  0  0  0
  3  9  1  0  0  0  0
  3 13  1  0  0  0  0
  4 19  2  0  0  0  0
  4 21  1  0  0  0  0
  5 15  1  0  0  0  0
  5 23  1  0  0  0  0
  6 19  1  0  0  0  0
  6 22  1  0  0  0  0
  7 25  1  0  0  0  0
  7 26  1  0  0  0  0
  7 28  1  0  0  0  0
  8 24  1  0  0  0  0
  8 27  1  0  0  0  0
  9 10  2  0  0  0  0
  9 12  1  0  0  0  0
 10 11  1  0  0  0  0
 10 16  1  0  0  0  0
 11 13  2  0  0  0  0
 11 15  1  0  0  0  0
 12 14  1  0  0  0  0
 12 17  2  0  0  0  0
 13 20  1  0  0  0  0
 14 18  1  0  0  0  0
 14 21  2  0  0  0  0
 16 18  1  0  0  0  0
 17 19  1  0  0  0  0
 20 23  1  0  0  0  0
 22 24  1  0  0  0  0
 22 25  1  0  0  0  0
 24 26  1  0  0  0  0
 27 29  1  0  0  0  0
 29 30  2  0  0  0  0
M  END
> <PUBCHEM_COMPOUND_ID_TYPE>
0

> <PUBCHEM_TOTAL_CHARGE>
0

> <PUBCHEM_SUBSTANCE_ID>
310945012

> <PUBCHEM_SUBSTANCE_VERSION>
1

> <PUBCHEM_EXT_DATASOURCE_NAME>
4488

> <PUBCHEM_EXT_DATASOURCE_REGID>
SCHEMBL16123100

> <PUBCHEM_SUBSTANCE_COMMENT>
InChI=1S/C22H26N6O2/c1-3-19(29)26-17-11-28(2)10-16(17)25-18-8-14-12(9-24-18)4-5-13-20-15(27-21(13)14)6-7-23-22(20)30/h3,8-9,16-17,27H,1,4-7,10-11H2,2H3,(H,23,30)(H,24,25)(H,26,29)
InChIKey=VLQKSBQCLCHXKK-UHFFFAOYSA-N

> <PUBCHEM_SUBSTANCE_SYNONYM>
SCHEMBL16123100

> <PUBCHEM_XREF_EXT_ID>
SCHEMBL16123100

> <PUBCHEM_EXT_DATASOURCE_URL>
https://www.surechembl.org/

> <PUBCHEM_EXT_SUBSTANCE_URL>
https://www.surechembl.org/chemical/SCHEMBL16123100

> <PUBCHEM_CID_ASSOCIATIONS>
117611150  1

> <PUBCHEM_COORDINATE_TYPE>
1
3

$$$$
