310946267
  -OEChem-07211613022D

 25 27  0     1  0  0  0  0  0999 V2000
    3.2563   -1.8724    0.0000 S   0  0  0  0  0  0  0  0  0  0  0  0
    2.4313   -1.8724    0.0000 O   0  0  0  0  0  0  0  0  0  0  0  0
   -0.1643   -1.8724    0.0000 O   0  0  0  0  0  0  0  0  0  0  0  0
   -0.2954    1.5985    0.0000 O   0  0  0  0  0  0  0  0  0  0  0  0
    3.2563   -1.0474    0.0000 O   0  0  0  0  0  0  0  0  0  0  0  0
    3.2563   -2.6974    0.0000 O   0  0  0  0  0  0  0  0  0  0  0  0
    4.0813   -1.8724    0.0000 O   0  0  0  0  0  0  0  0  0  0  0  0
   -1.7244    0.7735    0.0000 O   0  0  0  0  0  0  0  0  0  0  0  0
    0.4190   -0.4640    0.0000 N   0  0  0  0  0  0  0  0  0  0  0  0
    1.8480   -1.2890    0.0000 N   0  0  0  0  0  0  0  0  0  0  0  0
   -1.0099    0.3610    0.0000 N   0  0  0  0  0  0  0  0  0  0  0  0
   -3.7367    0.1901    0.0000 N   0  0  0  0  0  0  0  0  0  0  0  0
    0.4190   -1.2890    0.0000 C   0  0  0  0  0  0  0  0  0  0  0  0
    1.8480   -0.4640    0.0000 C   0  0  3  0  0  0  0  0  0  0  0  0
    0.4190    0.3610    0.0000 C   0  0  3  0  0  0  0  0  0  0  0  0
    1.1335   -0.8765    0.0000 C   0  0  0  0  0  0  0  0  0  0  0  0
    1.8480    0.3610    0.0000 C   0  0  0  0  0  0  0  0  0  0  0  0
    1.1335    0.7735    0.0000 C   0  0  0  0  0  0  0  0  0  0  0  0
   -0.2954    0.7735    0.0000 C   0  0  0  0  0  0  0  0  0  0  0  0
   -3.3669    1.5704    0.0000 C   0  0  0  0  0  0  0  0  0  0  0  0
   -3.1533    0.7735    0.0000 C   0  0  3  0  0  0  0  0  0  0  0  0
   -2.4389    0.3610    0.0000 C   0  0  0  0  0  0  0  0  0  0  0  0
   -2.9544    2.2849    0.0000 C   0  0  0  0  0  0  0  0  0  0  0  0
   -4.0813    1.9829    0.0000 C   0  0  0  0  0  0  0  0  0  0  0  0
   -3.6688    2.6974    0.0000 C   0  0  0  0  0  0  0  0  0  0  0  0
  1  2  1  0  0  0  0
  1  5  2  0  0  0  0
  1  6  2  0  0  0  0
  1  7  1  0  0  0  0
  2 10  1  0  0  0  0
  3 13  2  0  0  0  0
  4 19  2  0  0  0  0
  8 11  1  0  0  0  0
  8 22  1  0  0  0  0
  9 13  1  0  0  0  0
  9 15  1  0  0  0  0
  9 16  1  0  0  0  0
 10 13  1  0  0  0  0
 10 14  1  0  0  0  0
 11 19  1  0  0  0  0
 12 21  1  0  0  0  0
 14 16  1  6  0  0  0
 14 17  1  0  0  0  0
 15 18  1  0  0  0  0
 15 19  1  6  0  0  0
 17 18  1  0  0  0  0
 20 21  1  0  0  0  0
 20 23  1  0  0  0  0
 20 24  1  0  0  0  0
 21 22  1  0  0  0  0
 23 25  1  0  0  0  0
 24 25  1  0  0  0  0
M  END
> <PUBCHEM_COMPOUND_ID_TYPE>
0

> <PUBCHEM_TOTAL_CHARGE>
0

> <PUBCHEM_SUBSTANCE_ID>
310946267

> <PUBCHEM_SUBSTANCE_VERSION>
1

> <PUBCHEM_EXT_DATASOURCE_NAME>
4488

> <PUBCHEM_EXT_DATASOURCE_REGID>
SCHEMBL16124385

> <PUBCHEM_SUBSTANCE_COMMENT>
InChI=1S/C13H22N4O7S/c14-10(8-2-1-3-8)7-23-15-12(18)11-5-4-9-6-16(11)13(19)17(9)24-25(20,21)22/h8-11H,1-7,14H2,(H,15,18)(H,20,21,22)/t9-,10?,11+/m1/s1
InChIKey=NEFRSHFEOHYQDN-FBKFWFMHSA-N

> <PUBCHEM_SUBSTANCE_SYNONYM>
SCHEMBL16124385

> <PUBCHEM_XREF_EXT_ID>
SCHEMBL16124385

> <PUBCHEM_EXT_DATASOURCE_URL>
https://www.surechembl.org/

> <PUBCHEM_EXT_SUBSTANCE_URL>
https://www.surechembl.org/chemical/SCHEMBL16124385

> <PUBCHEM_CID_ASSOCIATIONS>
117612215  1

> <PUBCHEM_COORDINATE_TYPE>
1
3

> <PUBCHEM_BONDANNOTATIONS>
14  16  6
15  19  6

$$$$
