310942331
  -OEChem-07211613022D

 32 35  0     1  0  0  0  0  0999 V2000
   -0.4901   -1.9192    0.0000 O   0  0  0  0  0  0  0  0  0  0  0  0
   -3.3382   -1.8988    0.0000 O   0  0  0  0  0  0  0  0  0  0  0  0
    1.5313   -0.4083    0.0000 N   0  0  0  0  0  0  0  0  0  0  0  0
    2.3378   -0.5819    0.0000 N   0  0  0  0  0  0  0  0  0  0  0  0
   -1.1944   -0.6635    0.0000 N   0  0  0  0  0  0  0  0  0  0  0  0
    3.9202    1.3170    0.0000 N   0  0  0  0  0  0  0  0  0  0  0  0
   -4.0427   -0.6533    0.0000 N   0  0  0  0  0  0  0  0  0  0  0  0
    1.1229    0.3063    0.0000 C   0  0  0  0  0  0  0  0  0  0  0  0
    0.2246   -0.6737    0.0000 C   0  0  0  0  0  0  0  0  0  0  0  0
    0.9800   -1.0209    0.0000 C   0  0  0  0  0  0  0  0  0  0  0  0
    0.3267    0.1531    0.0000 C   0  0  0  0  0  0  0  0  0  0  0  0
    1.4701    1.0719    0.0000 C   0  0  3  0  0  0  0  0  0  0  0  0
   -0.4798   -1.0617    0.0000 C   0  0  0  0  0  0  0  0  0  0  0  0
    1.2250   -1.7967    0.0000 C   0  0  0  0  0  0  0  0  0  0  0  0
    2.2867    1.1434    0.0000 C   0  0  0  0  0  0  0  0  0  0  0  0
   -0.2961    0.7043    0.0000 C   0  0  0  0  0  0  0  0  0  0  0  0
    2.5930   -1.3680    0.0000 C   0  0  0  0  0  0  0  0  0  0  0  0
    2.0417   -1.9804    0.0000 C   0  0  0  0  0  0  0  0  0  0  0  0
    0.9800    1.7355    0.0000 C   0  0  0  0  0  0  0  0  0  0  0  0
   -2.6236   -0.6533    0.0000 C   0  0  0  0  0  0  0  0  0  0  0  0
    2.6236    1.8988    0.0000 C   0  0  0  0  0  0  0  0  0  0  0  0
    2.7666    0.4798    0.0000 C   0  0  0  0  0  0  0  0  0  0  0  0
   -1.8886   -1.0719    0.0000 C   0  0  0  0  0  0  0  0  0  0  0  0
   -3.3280   -1.0413    0.0000 C   0  0  0  0  0  0  0  0  0  0  0  0
   -2.6134    0.1736    0.0000 C   0  0  0  0  0  0  0  0  0  0  0  0
    3.4607    1.9804    0.0000 C   0  0  0  0  0  0  0  0  0  0  0  0
    3.5832    0.5615    0.0000 C   0  0  0  0  0  0  0  0  0  0  0  0
   -3.3280    0.5819    0.0000 C   0  0  0  0  0  0  0  0  0  0  0  0
   -4.0324    0.1736    0.0000 C   0  0  0  0  0  0  0  0  0  0  0  0
   -1.8783    0.5819    0.0000 C   0  0  0  0  0  0  0  0  0  0  0  0
   -4.7572    0.6022    0.0000 C   0  0  0  0  0  0  0  0  0  0  0  0
    4.7572    1.3986    0.0000 C   0  0  0  0  0  0  0  0  0  0  0  0
  1 13  2  0  0  0  0
  2 24  2  0  0  0  0
  3  4  1  0  0  0  0
  3  8  1  0  0  0  0
  3 10  1  0  0  0  0
  4 17  2  0  0  0  0
  5 13  1  0  0  0  0
  5 23  1  0  0  0  0
  6 26  1  0  0  0  0
  6 27  1  0  0  0  0
  6 32  1  0  0  0  0
  7 24  1  0  0  0  0
  7 29  1  0  0  0  0
  8 11  2  0  0  0  0
  8 12  1  0  0  0  0
  9 10  2  0  0  0  0
  9 11  1  0  0  0  0
  9 13  1  0  0  0  0
 10 14  1  0  0  0  0
 11 16  1  0  0  0  0
 12 15  1  0  0  0  0
 12 19  1  0  0  0  0
 14 18  2  0  0  0  0
 15 21  1  0  0  0  0
 15 22  1  0  0  0  0
 17 18  1  0  0  0  0
 20 23  1  0  0  0  0
 20 24  1  0  0  0  0
 20 25  2  0  0  0  0
 21 26  1  0  0  0  0
 22 27  1  0  0  0  0
 25 28  1  0  0  0  0
 25 30  1  0  0  0  0
 28 29  2  0  0  0  0
 29 31  1  0  0  0  0
M  END
> <PUBCHEM_COMPOUND_ID_TYPE>
0

> <PUBCHEM_TOTAL_CHARGE>
0

> <PUBCHEM_SUBSTANCE_ID>
310942331

> <PUBCHEM_SUBSTANCE_VERSION>
1

> <PUBCHEM_EXT_DATASOURCE_NAME>
4488

> <PUBCHEM_EXT_DATASOURCE_REGID>
SCHEMBL16120367

> <PUBCHEM_SUBSTANCE_COMMENT>
InChI=1S/C25H33N5O2/c1-15-13-16(2)28-24(31)20(15)14-26-25(32)22-18(4)23(30-21(22)7-6-10-27-30)17(3)19-8-11-29(5)12-9-19/h6-7,10,13,17,19H,8-9,11-12,14H2,1-5H3,(H,26,32)(H,28,31)
InChIKey=XRNJIEDASMUKHA-UHFFFAOYSA-N

> <PUBCHEM_SUBSTANCE_SYNONYM>
SCHEMBL16120367

> <PUBCHEM_XREF_EXT_ID>
SCHEMBL16120367

> <PUBCHEM_EXT_DATASOURCE_URL>
https://www.surechembl.org/

> <PUBCHEM_EXT_SUBSTANCE_URL>
https://www.surechembl.org/chemical/SCHEMBL16120367

> <PUBCHEM_CID_ASSOCIATIONS>
86299699  1

> <PUBCHEM_COORDINATE_TYPE>
1
3

$$$$
