310938908
  -OEChem-07211613022D

 13 13  0     1  0  0  0  0  0999 V2000
   -2.1625    0.0000    0.0000 O   0  0  0  0  0  0  0  0  0  0  0  0
   -1.4271   -0.4113    0.0000 N   0  0  3  0  0  0  0  0  0  0  0  0
   -0.7166    0.0125    0.0000 C   0  0  0  0  0  0  0  0  0  0  0  0
   -0.7042    0.8351    0.0000 C   0  0  0  0  0  0  0  0  0  0  0  0
    0.7291    0.8476    0.0000 C   0  0  0  0  0  0  0  0  0  0  0  0
    0.0187   -0.3989    0.0000 C   0  0  0  0  0  0  0  0  0  0  0  0
   -0.0062    1.2340    0.0000 C   0  0  0  0  0  0  0  0  0  0  0  0
    0.7291    0.0125    0.0000 C   0  0  0  0  0  0  0  0  0  0  0  0
   -1.3399    1.1841    0.0000 C   0  0  0  0  0  0  0  0  0  0  0  0
    1.4396    1.2464    0.0000 C   0  0  0  0  0  0  0  0  0  0  0  0
   -1.4396   -1.2464    0.0000 C   0  0  0  0  0  0  0  0  0  0  0  0
   -2.8855   -0.4487    0.0000 C   0  0  0  0  0  0  0  0  0  0  0  0
    2.8855    0.4237    0.0000 C   0  0  0  0  0  0  0  0  0  0  0  0
  1  2  1  0  0  0  0
  1 12  1  0  0  0  0
  2  3  1  0  0  0  0
  2 11  1  0  0  0  0
  3  4  2  0  0  0  0
  3  6  1  0  0  0  0
  4  7  1  0  0  0  0
  4  9  1  0  0  0  0
  5  7  2  0  0  0  0
  5  8  1  0  0  0  0
  5 10  1  0  0  0  0
  6  8  2  0  0  0  0
 10 13  1  0  0  0  0
M  END
> <PUBCHEM_COMPOUND_ID_TYPE>
0

> <PUBCHEM_TOTAL_CHARGE>
0

> <PUBCHEM_SUBSTANCE_ID>
310938908

> <PUBCHEM_SUBSTANCE_VERSION>
1

> <PUBCHEM_EXT_DATASOURCE_NAME>
4488

> <PUBCHEM_EXT_DATASOURCE_REGID>
SCHEMBL16116827

> <PUBCHEM_SUBSTANCE_COMMENT>
InChI=1S/C11H17NO/c1-5-10-6-7-11(9(2)8-10)12(3)13-4/h6-8H,5H2,1-4H3
InChIKey=SWRPKMGNIWSXEO-UHFFFAOYSA-N

> <PUBCHEM_SUBSTANCE_SYNONYM>
SCHEMBL16116827

> <PUBCHEM_XREF_EXT_ID>
SCHEMBL16116827

> <PUBCHEM_EXT_DATASOURCE_URL>
https://www.surechembl.org/

> <PUBCHEM_EXT_SUBSTANCE_URL>
https://www.surechembl.org/chemical/SCHEMBL16116827

> <PUBCHEM_CID_ASSOCIATIONS>
117606305  1

> <PUBCHEM_COORDINATE_TYPE>
1
3

$$$$
