310930306
  -OEChem-07211613022D

 23 24  0     1  0  0  0  0  0999 V2000
    0.8249   -8.3411    0.0000 S   0  0  0  0  0  0  0  0  0  0  0  0
    0.8708   -0.7791    0.0000 S   0  0  0  0  0  0  0  0  0  0  0  0
    0.8249   -7.5162    0.0000 O   0  0  0  0  0  0  0  0  0  0  0  0
    1.6499   -8.3411    0.0000 O   0  0  0  0  0  0  0  0  0  0  0  0
    0.0000   -8.3411    0.0000 O   0  0  0  0  0  0  0  0  0  0  0  0
    0.8249   -9.1661    0.0000 O   0  0  0  0  0  0  0  0  0  0  0  0
    2.2915   -5.8663    0.0000 N   0  0  3  0  0  0  0  0  0  0  0  0
    2.2457   -2.5207    0.0000 N   0  0  0  0  0  0  0  0  0  0  0  0
    1.5124   -2.1082    0.0000 N   0  0  0  0  0  0  0  0  0  0  0  0
    2.1999   -0.7791    0.0000 N   0  0  0  0  0  0  0  0  0  0  0  0
    1.0999    0.0000    0.0000 N   0  0  0  0  0  0  0  0  0  0  0  0
    2.2915   -5.0413    0.0000 C   0  0  0  0  0  0  0  0  0  0  0  0
    2.2457   -3.3456    0.0000 C   0  0  0  0  0  0  0  0  0  0  0  0
    2.9790   -3.7581    0.0000 C   0  0  0  0  0  0  0  0  0  0  0  0
    2.9790   -4.5830    0.0000 C   0  0  0  0  0  0  0  0  0  0  0  0
    1.5583   -4.5830    0.0000 C   0  0  0  0  0  0  0  0  0  0  0  0
    1.5583   -3.7581    0.0000 C   0  0  0  0  0  0  0  0  0  0  0  0
    1.5124   -1.2833    0.0000 C   0  0  0  0  0  0  0  0  0  0  0  0
    1.5583   -6.2787    0.0000 C   0  0  0  0  0  0  0  0  0  0  0  0
    1.5583   -7.1037    0.0000 C   0  0  0  0  0  0  0  0  0  0  0  0
    3.7123   -3.3456    0.0000 C   0  0  0  0  0  0  0  0  0  0  0  0
    1.9249    0.0000    0.0000 C   0  0  0  0  0  0  0  0  0  0  0  0
    2.9790   -6.2787    0.0000 C   0  0  0  0  0  0  0  0  0  0  0  0
  1  3  1  0  0  0  0
  1  4  2  0  0  0  0
  1  5  2  0  0  0  0
  1  6  1  0  0  0  0
  2 11  1  0  0  0  0
  2 18  1  0  0  0  0
  3 20  1  0  0  0  0
  7 12  1  0  0  0  0
  7 19  1  0  0  0  0
  7 23  1  0  0  0  0
  8  9  2  0  0  0  0
  8 13  1  0  0  0  0
  9 18  1  0  0  0  0
 10 18  2  0  0  0  0
 10 22  1  0  0  0  0
 11 22  2  0  0  0  0
 12 15  1  0  0  0  0
 12 16  2  0  0  0  0
 13 14  1  0  0  0  0
 13 17  2  0  0  0  0
 14 15  2  0  0  0  0
 14 21  1  0  0  0  0
 16 17  1  0  0  0  0
 19 20  1  0  0  0  0
M  END
> <PUBCHEM_COMPOUND_ID_TYPE>
0

> <PUBCHEM_TOTAL_CHARGE>
0

> <PUBCHEM_SUBSTANCE_ID>
310930306

> <PUBCHEM_SUBSTANCE_VERSION>
1

> <PUBCHEM_EXT_DATASOURCE_NAME>
4488

> <PUBCHEM_EXT_DATASOURCE_REGID>
SCHEMBL16107587

> <PUBCHEM_SUBSTANCE_COMMENT>
InChI=1S/C12H15N5O4S2/c1-9-7-10(17(2)5-6-21-23(18,19)20)3-4-11(9)15-16-12-13-8-14-22-12/h3-4,7-8H,5-6H2,1-2H3,(H,18,19,20)/b16-15+
InChIKey=JZVQHKLUZJLQMD-FOCLMDBBSA-N

> <PUBCHEM_SUBSTANCE_SYNONYM>
SCHEMBL16107587

> <PUBCHEM_XREF_EXT_ID>
SCHEMBL16107587

> <PUBCHEM_EXT_DATASOURCE_URL>
https://www.surechembl.org/

> <PUBCHEM_EXT_SUBSTANCE_URL>
https://www.surechembl.org/chemical/SCHEMBL16107587

> <PUBCHEM_CID_ASSOCIATIONS>
89559088  1

> <PUBCHEM_COORDINATE_TYPE>
1
3

$$$$
