310940005
  -OEChem-07211613022D

 13 13  0     1  0  0  0  0  0999 V2000
    6.5019  -16.5726    0.0000 O   0  0  0  0  0  0  0  0  0  0  0  0
    5.7874  -16.9851    0.0000 O   0  0  0  0  0  0  0  0  0  0  0  0
    7.2163  -17.8101    0.0000 N   0  0  0  0  0  0  0  0  0  0  0  0
    7.2163  -19.4601    0.0000 N   0  0  0  0  0  0  0  0  0  0  0  0
    5.0729  -18.2226    0.0000 N   0  0  0  0  0  0  0  0  0  0  0  0
    6.5019  -18.2226    0.0000 C   0  0  3  0  0  0  0  0  0  0  0  0
    7.2163  -16.9851    0.0000 C   0  0  0  0  0  0  0  0  0  0  0  0
    5.7874  -17.8101    0.0000 C   0  0  0  0  0  0  0  0  0  0  0  0
    7.9308  -18.2226    0.0000 C   0  0  0  0  0  0  0  0  0  0  0  0
    6.5019  -19.0476    0.0000 C   0  0  0  0  0  0  0  0  0  0  0  0
    7.9308  -19.0476    0.0000 C   0  0  0  0  0  0  0  0  0  0  0  0
    7.9308  -16.5726    0.0000 C   0  0  0  0  0  0  0  0  0  0  0  0
    8.6453  -16.9851    0.0000 C   0  0  0  0  0  0  0  0  0  0  0  0
  1  7  2  0  0  0  0
  2  8  2  0  0  0  0
  3  6  1  0  0  0  0
  3  7  1  0  0  0  0
  3  9  1  0  0  0  0
  4 10  1  0  0  0  0
  4 11  1  0  0  0  0
  5  8  1  0  0  0  0
  6  8  1  0  0  0  0
  6 10  1  0  0  0  0
  7 12  1  0  0  0  0
  9 11  1  0  0  0  0
 12 13  2  0  0  0  0
M  END
> <PUBCHEM_COMPOUND_ID_TYPE>
0

> <PUBCHEM_TOTAL_CHARGE>
0

> <PUBCHEM_SUBSTANCE_ID>
310940005

> <PUBCHEM_SUBSTANCE_VERSION>
1

> <PUBCHEM_EXT_DATASOURCE_NAME>
4488

> <PUBCHEM_EXT_DATASOURCE_REGID>
SCHEMBL16117935

> <PUBCHEM_SUBSTANCE_COMMENT>
InChI=1S/C8H13N3O2/c1-2-7(12)11-4-3-10-5-6(11)8(9)13/h2,6,10H,1,3-5H2,(H2,9,13)
InChIKey=QEFUUCROFWTFBC-UHFFFAOYSA-N

> <PUBCHEM_SUBSTANCE_SYNONYM>
SCHEMBL16117935

> <PUBCHEM_XREF_EXT_ID>
SCHEMBL16117935

> <PUBCHEM_EXT_DATASOURCE_URL>
https://www.surechembl.org/

> <PUBCHEM_EXT_SUBSTANCE_URL>
https://www.surechembl.org/chemical/SCHEMBL16117935

> <PUBCHEM_CID_ASSOCIATIONS>
65629792  1

> <PUBCHEM_COORDINATE_TYPE>
1
3

$$$$
