310940568
  -OEChem-07211613022D

 16 17  0     1  0  0  0  0  0999 V2000
   -0.4583    0.7950    0.0000 F   0  0  0  0  0  0  0  0  0  0  0  0
   -0.8698    1.8238    0.0000 F   0  0  0  0  0  0  0  0  0  0  0  0
    0.1777    2.2166    0.0000 F   0  0  0  0  0  0  0  0  0  0  0  0
    0.6641    0.3273    0.0000 N   0  0  3  0  0  0  0  0  0  0  0  0
   -0.1029   -2.2166    0.0000 N   0  0  0  0  0  0  0  0  0  0  0  0
   -0.9260   -2.0296    0.0000 N   0  0  0  0  0  0  0  0  0  0  0  0
   -0.2525   -0.8698    0.0000 C   0  0  0  0  0  0  0  0  0  0  0  0
    0.2899   -1.4684    0.0000 C   0  0  0  0  0  0  0  0  0  0  0  0
   -0.9821   -1.1878    0.0000 C   0  0  0  0  0  0  0  0  0  0  0  0
   -0.0467   -0.0467    0.0000 C   0  0  0  0  0  0  0  0  0  0  0  0
   -0.1403    1.5245    0.0000 C   0  0  0  0  0  0  0  0  0  0  0  0
    0.6080    1.1504    0.0000 C   0  0  0  0  0  0  0  0  0  0  0  0
    1.1504   -1.4497    0.0000 C   0  0  0  0  0  0  0  0  0  0  0  0
    1.4310   -0.0094    0.0000 C   0  0  0  0  0  0  0  0  0  0  0  0
    1.6180   -0.7576    0.0000 C   0  0  0  0  0  0  0  0  0  0  0  0
   -1.6180   -0.8137    0.0000 C   0  0  0  0  0  0  0  0  0  0  0  0
  1 11  1  0  0  0  0
  2 11  1  0  0  0  0
  3 11  1  0  0  0  0
  4 10  1  0  0  0  0
  4 12  1  0  0  0  0
  4 14  1  0  0  0  0
  5  6  1  0  0  0  0
  5  8  1  0  0  0  0
  6  9  2  0  0  0  0
  7  8  2  0  0  0  0
  7  9  1  0  0  0  0
  7 10  1  0  0  0  0
  8 13  1  0  0  0  0
  9 16  1  0  0  0  0
 11 12  1  0  0  0  0
 13 15  1  0  0  0  0
 14 15  1  0  0  0  0
M  END
> <PUBCHEM_COMPOUND_ID_TYPE>
0

> <PUBCHEM_TOTAL_CHARGE>
0

> <PUBCHEM_SUBSTANCE_ID>
310940568

> <PUBCHEM_SUBSTANCE_VERSION>
1

> <PUBCHEM_EXT_DATASOURCE_NAME>
4488

> <PUBCHEM_EXT_DATASOURCE_REGID>
SCHEMBL16118522

> <PUBCHEM_SUBSTANCE_COMMENT>
InChI=1S/C10H14F3N3/c1-7-8-5-16(6-10(11,12)13)4-2-3-9(8)15-14-7/h2-6H2,1H3,(H,14,15)
InChIKey=KPHWTHQCCLSJTJ-UHFFFAOYSA-N

> <PUBCHEM_SUBSTANCE_SYNONYM>
SCHEMBL16118522

> <PUBCHEM_XREF_EXT_ID>
SCHEMBL16118522

> <PUBCHEM_EXT_DATASOURCE_URL>
https://www.surechembl.org/

> <PUBCHEM_EXT_SUBSTANCE_URL>
https://www.surechembl.org/chemical/SCHEMBL16118522

> <PUBCHEM_CID_ASSOCIATIONS>
117607566  1

> <PUBCHEM_COORDINATE_TYPE>
1
3

$$$$
