310947676
  -OEChem-07211613022D

 25 26  0     1  0  0  0  0  0999 V2000
    0.7669   -9.3924    0.0000 F   0  0  0  0  0  0  0  0  0  0  0  0
   -0.2435   -8.3820    0.0000 F   0  0  0  0  0  0  0  0  0  0  0  0
    0.5534   -8.5955    0.0000 F   0  0  0  0  0  0  0  0  0  0  0  0
   -3.3738  -10.5019    0.0000 F   0  0  0  0  0  0  0  0  0  0  0  0
   -3.0040   -9.1217    0.0000 F   0  0  0  0  0  0  0  0  0  0  0  0
   -3.5873   -9.7050    0.0000 F   0  0  0  0  0  0  0  0  0  0  0  0
    0.0150  -13.0193    0.0000 N   0  0  0  0  0  0  0  0  0  0  0  0
   -0.7696  -13.2743    0.0000 N   0  0  0  0  0  0  0  0  0  0  0  0
    1.4439  -12.1943    0.0000 N   0  0  3  0  0  0  0  0  0  0  0  0
   -0.9832  -11.1425    0.0000 C   0  0  0  0  0  0  0  0  0  0  0  0
   -0.6133   -9.7622    0.0000 C   0  0  0  0  0  0  0  0  0  0  0  0
   -1.9936  -10.1321    0.0000 C   0  0  0  0  0  0  0  0  0  0  0  0
   -0.7696  -11.9394    0.0000 C   0  0  0  0  0  0  0  0  0  0  0  0
   -1.7800  -10.9290    0.0000 C   0  0  0  0  0  0  0  0  0  0  0  0
   -0.3998  -10.5591    0.0000 C   0  0  0  0  0  0  0  0  0  0  0  0
   -1.4102   -9.5487    0.0000 C   0  0  0  0  0  0  0  0  0  0  0  0
   -0.0300   -9.1789    0.0000 C   0  0  0  0  0  0  0  0  0  0  0  0
   -2.7905   -9.9186    0.0000 C   0  0  0  0  0  0  0  0  0  0  0  0
    0.0150  -12.1943    0.0000 C   0  0  0  0  0  0  0  0  0  0  0  0
   -1.2546  -12.6068    0.0000 C   0  0  0  0  0  0  0  0  0  0  0  0
    0.7295  -11.7818    0.0000 C   0  0  0  0  0  0  0  0  0  0  0  0
    2.1584  -11.7818    0.0000 C   0  0  0  0  0  0  0  0  0  0  0  0
    1.4439  -13.0193    0.0000 C   0  0  0  0  0  0  0  0  0  0  0  0
    2.8729  -12.1943    0.0000 C   0  0  0  0  0  0  0  0  0  0  0  0
    3.5873  -11.7818    0.0000 C   0  0  0  0  0  0  0  0  0  0  0  0
  1 17  1  0  0  0  0
  2 17  1  0  0  0  0
  3 17  1  0  0  0  0
  4 18  1  0  0  0  0
  5 18  1  0  0  0  0
  6 18  1  0  0  0  0
  7  8  1  0  0  0  0
  7 19  2  0  0  0  0
  8 20  1  0  0  0  0
  9 21  1  0  0  0  0
  9 22  1  0  0  0  0
  9 23  1  0  0  0  0
 10 13  1  0  0  0  0
 10 14  2  0  0  0  0
 10 15  1  0  0  0  0
 11 15  2  0  0  0  0
 11 16  1  0  0  0  0
 11 17  1  0  0  0  0
 12 14  1  0  0  0  0
 12 16  2  0  0  0  0
 12 18  1  0  0  0  0
 13 19  1  0  0  0  0
 13 20  2  0  0  0  0
 19 21  1  0  0  0  0
 22 24  1  0  0  0  0
 24 25  1  0  0  0  0
M  END
> <PUBCHEM_COMPOUND_ID_TYPE>
0

> <PUBCHEM_TOTAL_CHARGE>
0

> <PUBCHEM_SUBSTANCE_ID>
310947676

> <PUBCHEM_SUBSTANCE_VERSION>
1

> <PUBCHEM_EXT_DATASOURCE_NAME>
4488

> <PUBCHEM_EXT_DATASOURCE_REGID>
SCHEMBL16125844

> <PUBCHEM_SUBSTANCE_COMMENT>
InChI=1S/C16H17F6N3/c1-3-4-25(2)9-14-13(8-23-24-14)10-5-11(15(17,18)19)7-12(6-10)16(20,21)22/h5-8H,3-4,9H2,1-2H3,(H,23,24)
InChIKey=PAYYUYHHFVTYHZ-UHFFFAOYSA-N

> <PUBCHEM_SUBSTANCE_SYNONYM>
SCHEMBL16125844

> <PUBCHEM_XREF_EXT_ID>
SCHEMBL16125844

> <PUBCHEM_EXT_DATASOURCE_URL>
https://www.surechembl.org/

> <PUBCHEM_EXT_SUBSTANCE_URL>
https://www.surechembl.org/chemical/SCHEMBL16125844

> <PUBCHEM_CID_ASSOCIATIONS>
117613391  1

> <PUBCHEM_COORDINATE_TYPE>
1
3

$$$$
