310932389
  -OEChem-07211613022D

 34 38  0     1  0  0  0  0  0999 V2000
    4.0121   -2.1326    0.0000 O   0  0  0  0  0  0  0  0  0  0  0  0
    8.4941   -2.2049    0.0000 O   0  0  0  0  0  0  0  0  0  0  0  0
   10.5182   -1.7711    0.0000 O   0  0  0  0  0  0  0  0  0  0  0  0
    4.9158   -0.9759    0.0000 N   0  0  0  0  0  0  0  0  0  0  0  0
    4.8434   -0.1446    0.0000 N   0  0  0  0  0  0  0  0  0  0  0  0
    6.3616   -0.9759    0.0000 N   0  0  0  0  0  0  0  0  0  0  0  0
    7.7712   -3.4338    0.0000 N   0  0  0  0  0  0  0  0  0  0  0  0
    0.0000   -1.8434    0.0000 N   0  0  0  0  0  0  0  0  0  0  0  0
    4.1928   -1.3012    0.0000 C   0  0  0  0  0  0  0  0  0  0  0  0
    3.6145   -0.7229    0.0000 C   0  0  0  0  0  0  0  0  0  0  0  0
    5.6387   -1.3735    0.0000 C   0  0  0  0  0  0  0  0  0  0  0  0
    9.2170   -3.5061    0.0000 C   0  0  0  0  0  0  0  0  0  0  0  0
    2.8193   -0.7952    0.0000 C   0  0  0  0  0  0  0  0  0  0  0  0
    8.4941   -3.8675    0.0000 C   0  0  3  0  0  0  0  0  0  0  0  0
    9.7953   -4.1205    0.0000 C   0  0  0  0  0  0  0  0  0  0  0  0
    4.0121    0.0000    0.0000 C   0  0  0  0  0  0  0  0  0  0  0  0
    7.0483   -2.2049    0.0000 C   0  0  0  0  0  0  0  0  0  0  0  0
    7.7712   -2.6024    0.0000 C   0  0  0  0  0  0  0  0  0  0  0  0
    5.6387   -2.2049    0.0000 C   0  0  0  0  0  0  0  0  0  0  0  0
    8.5664   -4.6627    0.0000 C   0  0  0  0  0  0  0  0  0  0  0  0
    9.5062   -2.7109    0.0000 C   0  0  0  0  0  0  0  0  0  0  0  0
    9.3977   -4.8434    0.0000 C   0  0  0  0  0  0  0  0  0  0  0  0
    7.0483   -1.3735    0.0000 C   0  0  0  0  0  0  0  0  0  0  0  0
    6.3616   -2.6024    0.0000 C   0  0  0  0  0  0  0  0  0  0  0  0
   10.3013   -2.5663    0.0000 C   0  0  0  0  0  0  0  0  0  0  0  0
   10.5906   -3.9398    0.0000 C   0  0  0  0  0  0  0  0  0  0  0  0
    2.4579   -1.5542    0.0000 C   0  0  0  0  0  0  0  0  0  0  0  0
    2.3133   -0.1446    0.0000 C   0  0  0  0  0  0  0  0  0  0  0  0
   10.8435   -3.1807    0.0000 C   0  0  0  0  0  0  0  0  0  0  0  0
    1.1566   -0.9759    0.0000 C   0  0  0  0  0  0  0  0  0  0  0  0
    1.6627   -1.6627    0.0000 C   0  0  0  0  0  0  0  0  0  0  0  0
    1.4819   -0.2530    0.0000 C   0  0  0  0  0  0  0  0  0  0  0  0
    0.3615   -1.0844    0.0000 C   0  0  0  0  0  0  0  0  0  0  0  0
    9.9761   -1.1566    0.0000 C   0  0  0  0  0  0  0  0  0  0  0  0
  1  9  1  0  0  0  0
  2 18  2  0  0  0  0
  3 25  1  0  0  0  0
  3 34  1  0  0  0  0
  4  5  1  0  0  0  0
  4  9  1  0  0  0  0
  4 11  1  0  0  0  0
  5 16  2  0  0  0  0
  6 11  2  0  0  0  0
  6 23  1  0  0  0  0
  7 14  1  0  0  0  0
  7 18  1  0  0  0  0
  8 33  3  0  0  0  0
  9 10  2  0  0  0  0
 10 13  1  0  0  0  0
 10 16  1  0  0  0  0
 11 19  1  0  0  0  0
 12 14  1  0  0  0  0
 12 15  2  0  0  0  0
 12 21  1  0  0  0  0
 13 27  2  0  0  0  0
 13 28  1  0  0  0  0
 14 20  1  0  0  0  0
 15 22  1  0  0  0  0
 15 26  1  0  0  0  0
 17 18  1  0  0  0  0
 17 23  2  0  0  0  0
 17 24  1  0  0  0  0
 19 24  2  0  0  0  0
 20 22  1  0  0  0  0
 21 25  2  0  0  0  0
 25 29  1  0  0  0  0
 26 29  2  0  0  0  0
 27 31  1  0  0  0  0
 28 32  2  0  0  0  0
 30 31  2  0  0  0  0
 30 32  1  0  0  0  0
 30 33  1  0  0  0  0
M  END
> <PUBCHEM_COMPOUND_ID_TYPE>
0

> <PUBCHEM_TOTAL_CHARGE>
0

> <PUBCHEM_SUBSTANCE_ID>
310932389

> <PUBCHEM_SUBSTANCE_VERSION>
1

> <PUBCHEM_EXT_DATASOURCE_NAME>
4488

> <PUBCHEM_EXT_DATASOURCE_REGID>
SCHEMBL16109756

> <PUBCHEM_SUBSTANCE_COMMENT>
InChI=1S/C26H21N5O3/c1-34-20-9-6-17-7-10-23(21(17)12-20)30-25(32)19-8-11-24(28-14-19)31-26(33)22(15-29-31)18-4-2-16(13-27)3-5-18/h2-6,8-9,11-12,14-15,23,33H,7,10H2,1H3,(H,30,32)
InChIKey=SAYHULGBUOTBTE-UHFFFAOYSA-N

> <PUBCHEM_SUBSTANCE_SYNONYM>
SCHEMBL16109756

> <PUBCHEM_XREF_EXT_ID>
SCHEMBL16109756

> <PUBCHEM_EXT_DATASOURCE_URL>
https://www.surechembl.org/

> <PUBCHEM_EXT_SUBSTANCE_URL>
https://www.surechembl.org/chemical/SCHEMBL16109756

> <PUBCHEM_CID_ASSOCIATIONS>
117600944  1

> <PUBCHEM_COORDINATE_TYPE>
1
3

$$$$
