310937333
  -OEChem-07211613022D

 37 42  0     1  0  0  0  0  0999 V2000
   -5.1605   -0.2424    0.0000 F   0  0  0  0  0  0  0  0  0  0  0  0
  -12.2250   -0.6125    0.0000 F   0  0  0  0  0  0  0  0  0  0  0  0
  -11.3183    0.1217    0.0000 F   0  0  0  0  0  0  0  0  0  0  0  0
  -12.9592    0.2942    0.0000 F   0  0  0  0  0  0  0  0  0  0  0  0
  -11.2988    1.3640    0.0000 O   0  0  0  0  0  0  0  0  0  0  0  0
  -12.7200    1.5133    0.0000 O   0  0  0  0  0  0  0  0  0  0  0  0
   -9.5657    3.5120    0.0000 N   0  0  0  0  0  0  0  0  0  0  0  0
   -5.4800   -2.5485    0.0000 N   0  0  0  0  0  0  0  0  0  0  0  0
  -11.8801    2.6694    0.0000 N   0  0  0  0  0  0  0  0  0  0  0  0
   -7.3265   -0.5125    0.0000 N   0  0  0  0  0  0  0  0  0  0  0  0
   -8.3884    0.4437    0.0000 N   0  0  0  0  0  0  0  0  0  0  0  0
   -6.2646   -2.8035    0.0000 N   0  0  0  0  0  0  0  0  0  0  0  0
   -7.0294    0.8853    0.0000 N   0  0  0  0  0  0  0  0  0  0  0  0
  -10.4589    2.5200    0.0000 C   0  0  0  0  0  0  0  0  0  0  0  0
   -9.7053    2.1845    0.0000 C   0  0  0  0  0  0  0  0  0  0  0  0
  -10.3727    3.3405    0.0000 C   0  0  0  0  0  0  0  0  0  0  0  0
   -9.1532    2.7976    0.0000 C   0  0  0  0  0  0  0  0  0  0  0  0
  -11.2126    2.1845    0.0000 C   0  0  3  0  0  0  0  0  0  0  0  0
   -9.4503    1.3998    0.0000 C   0  0  0  0  0  0  0  0  0  0  0  0
   -6.2646   -1.4686    0.0000 C   0  0  0  0  0  0  0  0  0  0  0  0
   -8.6434    1.2283    0.0000 C   0  0  0  0  0  0  0  0  0  0  0  0
   -6.5195   -0.6840    0.0000 C   0  0  0  0  0  0  0  0  0  0  0  0
   -5.4800   -1.7235    0.0000 C   0  0  0  0  0  0  0  0  0  0  0  0
   -8.3463    2.6260    0.0000 C   0  0  0  0  0  0  0  0  0  0  0  0
  -11.0401    3.8254    0.0000 C   0  0  0  0  0  0  0  0  0  0  0  0
   -7.5814    0.2722    0.0000 C   0  0  0  0  0  0  0  0  0  0  0  0
   -8.0913    1.8414    0.0000 C   0  0  0  0  0  0  0  0  0  0  0  0
   -5.9675   -0.0709    0.0000 C   0  0  0  0  0  0  0  0  0  0  0  0
   -6.7495   -2.1360    0.0000 C   0  0  0  0  0  0  0  0  0  0  0  0
  -11.7938    3.4899    0.0000 C   0  0  0  0  0  0  0  0  0  0  0  0
  -12.0525    1.0284    0.0000 C   0  0  0  0  0  0  0  0  0  0  0  0
   -4.7655   -1.3110    0.0000 C   0  0  0  0  0  0  0  0  0  0  0  0
   -6.2224    0.7137    0.0000 C   0  0  0  0  0  0  0  0  0  0  0  0
   -4.7655   -2.9610    0.0000 C   0  0  0  0  0  0  0  0  0  0  0  0
  -12.1388    0.2079    0.0000 C   0  0  0  0  0  0  0  0  0  0  0  0
   -4.0510   -1.7235    0.0000 C   0  0  0  0  0  0  0  0  0  0  0  0
   -4.0510   -2.5485    0.0000 C   0  0  0  0  0  0  0  0  0  0  0  0
  1 28  1  0  0  0  0
  2 35  1  0  0  0  0
  3 35  1  0  0  0  0
  4 35  1  0  0  0  0
  5 18  1  0  0  0  0
  5 31  1  0  0  0  0
  6 31  2  0  0  0  0
  7 16  1  0  0  0  0
  7 17  1  0  0  0  0
  8 12  1  0  0  0  0
  8 23  1  0  0  0  0
  8 34  1  0  0  0  0
  9 18  1  0  0  0  0
  9 30  1  0  0  0  0
 10 22  1  0  0  0  0
 10 26  2  0  0  0  0
 11 21  1  0  0  0  0
 11 26  1  0  0  0  0
 12 29  2  0  0  0  0
 13 26  1  0  0  0  0
 13 33  2  0  0  0  0
 14 15  1  0  0  0  0
 14 16  2  0  0  0  0
 14 18  1  0  0  0  0
 15 17  1  0  0  0  0
 15 19  2  0  0  0  0
 16 25  1  0  0  0  0
 17 24  2  0  0  0  0
 19 21  1  0  0  0  0
 20 22  1  0  0  0  0
 20 23  2  0  0  0  0
 20 29  1  0  0  0  0
 21 27  2  0  0  0  0
 22 28  2  0  0  0  0
 23 32  1  0  0  0  0
 24 27  1  0  0  0  0
 25 30  1  0  0  0  0
 28 33  1  0  0  0  0
 31 35  1  0  0  0  0
 32 36  2  0  0  0  0
 34 37  2  0  0  0  0
 36 37  1  0  0  0  0
M  END
> <PUBCHEM_COMPOUND_ID_TYPE>
0

> <PUBCHEM_TOTAL_CHARGE>
0

> <PUBCHEM_SUBSTANCE_ID>
310937333

> <PUBCHEM_SUBSTANCE_VERSION>
1

> <PUBCHEM_EXT_DATASOURCE_NAME>
4488

> <PUBCHEM_EXT_DATASOURCE_REGID>
SCHEMBL16115084

> <PUBCHEM_SUBSTANCE_COMMENT>
InChI=1S/C24H17F4N7O2/c25-15-11-30-23(34-20(15)14-10-31-35-8-2-1-3-18(14)35)32-12-4-5-16-13(9-12)19-17(33-16)6-7-29-21(19)37-22(36)24(26,27)28/h1-5,8-11,21,29,33H,6-7H2,(H,30,32,34)
InChIKey=GDOMRLQYOXPDNB-UHFFFAOYSA-N

> <PUBCHEM_SUBSTANCE_SYNONYM>
SCHEMBL16115084

> <PUBCHEM_XREF_EXT_ID>
SCHEMBL16115084

> <PUBCHEM_EXT_DATASOURCE_URL>
https://www.surechembl.org/

> <PUBCHEM_EXT_SUBSTANCE_URL>
https://www.surechembl.org/chemical/SCHEMBL16115084

> <PUBCHEM_CID_ASSOCIATIONS>
117605111  1

> <PUBCHEM_COORDINATE_TYPE>
1
3

$$$$
