310931500
  -OEChem-07211613022D

 50 54  0     1  0  0  0  0  0999 V2000
    6.5530   -5.8075    0.0000 S   0  0  0  0  0  0  0  0  0  0  0  0
    5.7290   -4.2771    0.0000 S   0  0  0  0  0  0  0  0  0  0  0  0
    6.5530   -4.1201    0.0000 F   0  0  0  0  0  0  0  0  0  0  0  0
    3.6886   -5.7682    0.0000 F   0  0  0  0  0  0  0  0  0  0  0  0
    6.1214   -6.5138    0.0000 O   0  0  0  0  0  0  0  0  0  0  0  0
    7.2593   -6.2391    0.0000 O   0  0  0  0  0  0  0  0  0  0  0  0
    3.6886   -4.1201    0.0000 O   0  0  0  0  0  0  0  0  0  0  0  0
    9.4568   -5.1404    0.0000 O   0  0  0  0  0  0  0  0  0  0  0  0
    9.4960   -2.2759    0.0000 O   0  0  0  0  0  0  0  0  0  0  0  0
    0.8240   -1.6481    0.0000 O   0  0  0  0  0  0  0  0  0  0  0  0
    2.2759   -1.6481    0.0000 O   0  0  0  0  0  0  0  0  0  0  0  0
    6.9847   -5.1012    0.0000 N   0  0  0  0  0  0  0  0  0  0  0  0
    6.9062   -3.6100    0.0000 N   0  0  0  0  0  0  0  0  0  0  0  0
    5.5720   -3.4531    0.0000 N   0  0  0  0  0  0  0  0  0  0  0  0
    1.5304   -2.8645    0.0000 N   0  0  0  0  0  0  0  0  0  0  0  0
    5.8467   -5.3759    0.0000 C   0  0  0  0  0  0  0  0  0  0  0  0
    5.8467   -4.5518    0.0000 C   0  0  0  0  0  0  0  0  0  0  0  0
    6.5530   -4.3556    0.0000 C   0  0  0  0  0  0  0  0  0  0  0  0
    5.1404   -5.7682    0.0000 C   0  0  0  0  0  0  0  0  0  0  0  0
    7.8087   -5.1012    0.0000 C   0  0  0  0  0  0  0  0  0  0  0  0
    4.3949   -5.3759    0.0000 C   0  0  0  0  0  0  0  0  0  0  0  0
    4.4341   -4.5518    0.0000 C   0  0  0  0  0  0  0  0  0  0  0  0
    5.1404   -4.1201    0.0000 C   0  0  0  0  0  0  0  0  0  0  0  0
    8.2404   -4.3949    0.0000 C   0  0  0  0  0  0  0  0  0  0  0  0
    9.0644   -4.3949    0.0000 C   0  0  0  0  0  0  0  0  0  0  0  0
    2.2759   -4.1201    0.0000 C   0  0  3  0  0  0  0  0  0  0  0  0
    1.5304   -4.5126    0.0000 C   0  0  3  0  0  0  0  0  0  0  0  0
    7.8479   -3.6493    0.0000 C   0  0  0  0  0  0  0  0  0  0  0  0
    2.9822   -4.5126    0.0000 C   0  0  0  0  0  0  0  0  0  0  0  0
    6.3176   -3.0607    0.0000 C   0  0  0  0  0  0  0  0  0  0  0  0
    9.4960   -3.6886    0.0000 C   0  0  0  0  0  0  0  0  0  0  0  0
    1.5304   -5.3366    0.0000 C   0  0  0  0  0  0  0  0  0  0  0  0
    2.2759   -3.2961    0.0000 C   0  0  0  0  0  0  0  0  0  0  0  0
    9.0644   -2.9822    0.0000 C   0  0  0  0  0  0  0  0  0  0  0  0
    8.2404   -2.9822    0.0000 C   0  0  0  0  0  0  0  0  0  0  0  0
    0.8240   -4.1201    0.0000 C   0  0  0  0  0  0  0  0  0  0  0  0
    0.8240   -3.2961    0.0000 C   0  0  0  0  0  0  0  0  0  0  0  0
    1.5304   -2.0405    0.0000 C   0  0  0  0  0  0  0  0  0  0  0  0
    0.8240   -5.7682    0.0000 C   0  0  0  0  0  0  0  0  0  0  0  0
    2.2367   -5.7682    0.0000 C   0  0  0  0  0  0  0  0  0  0  0  0
    0.8240   -6.5923    0.0000 C   0  0  0  0  0  0  0  0  0  0  0  0
    2.2759   -6.5923    0.0000 C   0  0  0  0  0  0  0  0  0  0  0  0
    1.5304   -7.0239    0.0000 C   0  0  0  0  0  0  0  0  0  0  0  0
    0.8240   -0.8240    0.0000 C   0  0  0  0  0  0  0  0  0  0  0  0
   10.2808   -5.1404    0.0000 C   0  0  0  0  0  0  0  0  0  0  0  0
    9.1036   -1.5304    0.0000 C   0  0  0  0  0  0  0  0  0  0  0  0
    1.5304   -7.8479    0.0000 C   0  0  0  0  0  0  0  0  0  0  0  0
    1.6873   -0.8240    0.0000 C   0  0  0  0  0  0  0  0  0  0  0  0
    0.8240    0.0000    0.0000 C   0  0  0  0  0  0  0  0  0  0  0  0
    0.0000   -0.8240    0.0000 C   0  0  0  0  0  0  0  0  0  0  0  0
  1  5  2  0  0  0  0
  1  6  2  0  0  0  0
  1 12  1  0  0  0  0
  1 16  1  0  0  0  0
  2 14  1  0  0  0  0
  2 18  1  0  0  0  0
  3 17  1  0  0  0  0
  4 21  1  0  0  0  0
  7 22  1  0  0  0  0
  7 29  1  0  0  0  0
  8 25  1  0  0  0  0
  8 45  1  0  0  0  0
  9 34  1  0  0  0  0
  9 46  1  0  0  0  0
 10 38  1  0  0  0  0
 10 44  1  0  0  0  0
 11 38  2  0  0  0  0
 12 18  1  0  0  0  0
 12 20  1  0  0  0  0
 13 18  2  0  0  0  0
 13 30  1  0  0  0  0
 14 30  2  0  0  0  0
 15 33  1  0  0  0  0
 15 37  1  0  0  0  0
 15 38  1  0  0  0  0
 16 17  1  0  0  0  0
 16 19  2  0  0  0  0
 17 23  2  0  0  0  0
 19 21  1  0  0  0  0
 20 24  1  0  0  0  0
 21 22  2  0  0  0  0
 22 23  1  0  0  0  0
 24 25  2  0  0  0  0
 24 28  1  0  0  0  0
 25 31  1  0  0  0  0
 26 27  1  0  0  0  0
 26 29  1  0  0  0  0
 26 33  1  0  0  0  0
 27 32  1  0  0  0  0
 27 36  1  0  0  0  0
 28 35  2  0  0  0  0
 31 34  2  0  0  0  0
 32 39  2  0  0  0  0
 32 40  1  0  0  0  0
 34 35  1  0  0  0  0
 36 37  1  0  0  0  0
 39 41  1  0  0  0  0
 40 42  2  0  0  0  0
 41 43  2  0  0  0  0
 42 43  1  0  0  0  0
 43 47  1  0  0  0  0
 44 48  1  0  0  0  0
 44 49  1  0  0  0  0
 44 50  1  0  0  0  0
M  END
> <PUBCHEM_COMPOUND_ID_TYPE>
0

> <PUBCHEM_TOTAL_CHARGE>
0

> <PUBCHEM_SUBSTANCE_ID>
310931500

> <PUBCHEM_SUBSTANCE_VERSION>
1

> <PUBCHEM_EXT_DATASOURCE_NAME>
4488

> <PUBCHEM_EXT_DATASOURCE_REGID>
SCHEMBL16108825

> <PUBCHEM_SUBSTANCE_COMMENT>
InChI=1S/C35H40F2N4O7S2/c1-22-7-9-23(10-8-22)27-13-14-40(34(42)48-35(2,3)4)18-25(27)20-47-31-16-29(37)32(17-28(31)36)50(43,44)41(33-38-21-39-49-33)19-24-11-12-26(45-5)15-30(24)46-6/h7-12,15-17,21,25,27H,13-14,18-20H2,1-6H3
InChIKey=LQOXIWKJEIYIHD-UHFFFAOYSA-N

> <PUBCHEM_SUBSTANCE_SYNONYM>
SCHEMBL16108825

> <PUBCHEM_XREF_EXT_ID>
SCHEMBL16108825

> <PUBCHEM_EXT_DATASOURCE_URL>
https://www.surechembl.org/

> <PUBCHEM_EXT_SUBSTANCE_URL>
https://www.surechembl.org/chemical/SCHEMBL16108825

> <PUBCHEM_CID_ASSOCIATIONS>
117600262  1

> <PUBCHEM_COORDINATE_TYPE>
1
3

$$$$
