310945214
  -OEChem-07211613022D

 40 45  0     1  0  0  0  0  0999 V2000
    0.5297    3.5340    0.0000 Cl  0  0  0  0  0  0  0  0  0  0  0  0
   -4.0549   -2.5267    0.0000 O   0  0  0  0  0  0  0  0  0  0  0  0
    3.6729   -1.4674    0.0000 O   0  0  0  0  0  0  0  0  0  0  0  0
   -2.8914   -1.6411    0.0000 N   0  0  0  0  0  0  0  0  0  0  0  0
   -3.3082   -0.9117    0.0000 N   0  0  0  0  0  0  0  0  0  0  0  0
    4.3501    3.9334    0.0000 N   0  0  0  0  0  0  0  0  0  0  0  0
    0.8249    1.8495    0.0000 C   0  0  0  0  0  0  0  0  0  0  0  0
    0.8075    1.0159    0.0000 C   0  0  0  0  0  0  0  0  0  0  0  0
    1.5195    2.2662    0.0000 C   0  0  0  0  0  0  0  0  0  0  0  0
    0.0781    2.2836    0.0000 C   0  0  0  0  0  0  0  0  0  0  0  0
    0.1129    0.5991    0.0000 C   0  0  0  0  0  0  0  0  0  0  0  0
    1.5369    0.5991    0.0000 C   0  0  0  0  0  0  0  0  0  0  0  0
    1.5369    3.0998    0.0000 C   0  0  0  0  0  0  0  0  0  0  0  0
   -1.2938   -0.2344    0.0000 C   0  0  0  0  0  0  0  0  0  0  0  0
   -0.6165    0.9985    0.0000 C   0  0  0  0  0  0  0  0  0  0  0  0
    0.0955   -0.2518    0.0000 C   0  0  0  0  0  0  0  0  0  0  0  0
   -0.6686    2.0579    0.0000 C   0  0  0  0  0  0  0  0  0  0  0  0
   -0.0955    3.0477    0.0000 C   0  0  0  0  0  0  0  0  0  0  0  0
    2.2141    1.8668    0.0000 C   0  0  0  0  0  0  0  0  0  0  0  0
   -2.0058   -0.6513    0.0000 C   0  0  0  0  0  0  0  0  0  0  0  0
    1.5369   -0.2518    0.0000 C   0  0  0  0  0  0  0  0  0  0  0  0
    2.2141    0.9985    0.0000 C   0  0  0  0  0  0  0  0  0  0  0  0
   -1.2764    0.5991    0.0000 C   0  0  0  0  0  0  0  0  0  0  0  0
   -0.5991   -0.6513    0.0000 C   0  0  0  0  0  0  0  0  0  0  0  0
   -0.8770    2.8567    0.0000 C   0  0  0  0  0  0  0  0  0  0  0  0
    2.2315    3.4993    0.0000 C   0  0  0  0  0  0  0  0  0  0  0  0
    2.9435    3.0998    0.0000 C   0  0  0  0  0  0  0  0  0  0  0  0
    2.9261    2.2662    0.0000 C   0  0  0  0  0  0  0  0  0  0  0  0
   -2.1100   -1.4848    0.0000 C   0  0  0  0  0  0  0  0  0  0  0  0
   -2.7699   -0.3213    0.0000 C   0  0  0  0  0  0  0  0  0  0  0  0
    2.2315   -0.6513    0.0000 C   0  0  0  0  0  0  0  0  0  0  0  0
    2.9261    0.5818    0.0000 C   0  0  0  0  0  0  0  0  0  0  0  0
    2.9435   -0.2344    0.0000 C   0  0  0  0  0  0  0  0  0  0  0  0
   -3.2214   -2.4052    0.0000 C   0  0  3  0  0  0  0  0  0  0  0  0
    3.6555    3.5340    0.0000 C   0  0  0  0  0  0  0  0  0  0  0  0
   -2.7178   -3.0303    0.0000 C   0  0  0  0  0  0  0  0  0  0  0  0
    3.6555   -0.6513    0.0000 C   0  0  0  0  0  0  0  0  0  0  0  0
   -4.3501   -3.2908    0.0000 C   0  0  0  0  0  0  0  0  0  0  0  0
   -3.0303   -3.8118    0.0000 C   0  0  0  0  0  0  0  0  0  0  0  0
   -3.8118   -3.9334    0.0000 C   0  0  0  0  0  0  0  0  0  0  0  0
  1 13  1  0  0  0  0
  2 34  1  0  0  0  0
  2 38  1  0  0  0  0
  3 37  2  0  0  0  0
  4  5  1  0  0  0  0
  4 29  1  0  0  0  0
  4 34  1  0  0  0  0
  5 30  2  0  0  0  0
  6 35  3  0  0  0  0
  7  8  2  0  0  0  0
  7  9  1  0  0  0  0
  7 10  1  0  0  0  0
  8 11  1  0  0  0  0
  8 12  1  0  0  0  0
  9 13  1  0  0  0  0
  9 19  2  0  0  0  0
 10 17  1  0  0  0  0
 10 18  1  0  0  0  0
 11 15  2  0  0  0  0
 11 16  1  0  0  0  0
 12 21  2  0  0  0  0
 12 22  1  0  0  0  0
 13 26  2  0  0  0  0
 14 20  1  0  0  0  0
 14 23  2  0  0  0  0
 14 24  1  0  0  0  0
 15 23  1  0  0  0  0
 16 24  2  0  0  0  0
 17 25  1  0  0  0  0
 18 25  1  0  0  0  0
 19 28  1  0  0  0  0
 20 29  2  0  0  0  0
 20 30  1  0  0  0  0
 21 31  1  0  0  0  0
 22 32  2  0  0  0  0
 26 27  1  0  0  0  0
 27 28  2  0  0  0  0
 27 35  1  0  0  0  0
 31 33  2  0  0  0  0
 32 33  1  0  0  0  0
 33 37  1  0  0  0  0
 34 36  1  0  0  0  0
 36 39  1  0  0  0  0
 38 40  1  0  0  0  0
 39 40  1  0  0  0  0
M  END
> <PUBCHEM_COMPOUND_ID_TYPE>
0

> <PUBCHEM_TOTAL_CHARGE>
0

> <PUBCHEM_SUBSTANCE_ID>
310945214

> <PUBCHEM_SUBSTANCE_VERSION>
1

> <PUBCHEM_EXT_DATASOURCE_NAME>
4488

> <PUBCHEM_EXT_DATASOURCE_REGID>
SCHEMBL16123304

> <PUBCHEM_SUBSTANCE_COMMENT>
InChI=1S/C34H30ClN3O2/c35-31-18-24(19-36)9-16-30(31)34(26-4-3-5-26)33(27-10-7-23(22-39)8-11-27)28-14-12-25(13-15-28)29-20-37-38(21-29)32-6-1-2-17-40-32/h7-16,18,20-22,26,32H,1-6,17H2/b34-33+
InChIKey=JARLYRFGMOKREA-JEIPZWNWSA-N

> <PUBCHEM_SUBSTANCE_SYNONYM>
SCHEMBL16123304

> <PUBCHEM_XREF_EXT_ID>
SCHEMBL16123304

> <PUBCHEM_EXT_DATASOURCE_URL>
https://www.surechembl.org/

> <PUBCHEM_EXT_SUBSTANCE_URL>
https://www.surechembl.org/chemical/SCHEMBL16123304

> <PUBCHEM_CID_ASSOCIATIONS>
117611289  1

> <PUBCHEM_COORDINATE_TYPE>
1
3

$$$$
