310949764
  -OEChem-07211613022D

 56 59  0     1  0  0  0  0  0999 V2000
   -3.5477    1.0176    0.0000 O   0  0  0  0  0  0  0  0  0  0  0  0
    3.5477    1.0176    0.0000 O   0  0  0  0  0  0  0  0  0  0  0  0
   -2.1176    1.8426    0.0000 O   0  0  0  0  0  0  0  0  0  0  0  0
    2.1360    1.8426    0.0000 O   0  0  0  0  0  0  0  0  0  0  0  0
   -4.9595    1.0176    0.0000 O   0  0  0  0  0  0  0  0  0  0  0  0
    4.9595    1.0176    0.0000 O   0  0  0  0  0  0  0  0  0  0  0  0
   -1.4209    3.0710    0.0000 O   0  0  0  0  0  0  0  0  0  0  0  0
   -4.9595    1.8426    0.0000 O   0  0  0  0  0  0  0  0  0  0  0  0
    1.4209    3.0710    0.0000 O   0  0  0  0  0  0  0  0  0  0  0  0
    4.9595    1.8426    0.0000 O   0  0  0  0  0  0  0  0  0  0  0  0
   -5.6745    3.0710    0.0000 O   0  0  0  0  0  0  0  0  0  0  0  0
    5.6745    3.0710    0.0000 O   0  0  0  0  0  0  0  0  0  0  0  0
   -4.9595   -1.4392    0.0000 C   0  0  0  0  0  0  0  0  0  0  0  0
   -4.2627   -0.1925    0.0000 C   0  0  0  0  0  0  0  0  0  0  0  0
    4.9595   -1.4392    0.0000 C   0  0  0  0  0  0  0  0  0  0  0  0
   -4.2627   -1.8243    0.0000 C   0  0  0  0  0  0  0  0  0  0  0  0
    4.2444   -0.1925    0.0000 C   0  0  0  0  0  0  0  0  0  0  0  0
    4.2627   -1.8426    0.0000 C   0  0  0  0  0  0  0  0  0  0  0  0
   -0.7059    1.8426    0.0000 C   0  0  0  0  0  0  0  0  0  0  0  0
   -4.9411   -0.6142    0.0000 C   0  0  0  0  0  0  0  0  0  0  0  0
    4.9595   -0.6142    0.0000 C   0  0  0  0  0  0  0  0  0  0  0  0
   -4.2444    0.6142    0.0000 C   0  0  0  0  0  0  0  0  0  0  0  0
    4.2444    0.6325    0.0000 C   0  0  0  0  0  0  0  0  0  0  0  0
   -1.4209    2.2459    0.0000 C   0  0  0  0  0  0  0  0  0  0  0  0
   -3.5477   -0.6142    0.0000 C   0  0  0  0  0  0  0  0  0  0  0  0
   -3.5477   -1.4392    0.0000 C   0  0  0  0  0  0  0  0  0  0  0  0
    3.5660   -0.6142    0.0000 C   0  0  0  0  0  0  0  0  0  0  0  0
    3.5660   -1.4392    0.0000 C   0  0  0  0  0  0  0  0  0  0  0  0
    0.0091    2.2643    0.0000 C   0  0  0  0  0  0  0  0  0  0  0  0
   -5.6561   -1.8426    0.0000 C   0  0  0  0  0  0  0  0  0  0  0  0
   -3.5294    1.8609    0.0000 C   0  0  3  0  0  0  0  0  0  0  0  0
    5.6745   -1.8426    0.0000 C   0  0  0  0  0  0  0  0  0  0  0  0
    0.7242    1.8792    0.0000 C   0  0  0  0  0  0  0  0  0  0  0  0
   -4.2627   -2.6677    0.0000 C   0  0  0  0  0  0  0  0  0  0  0  0
    4.2811   -2.6677    0.0000 C   0  0  0  0  0  0  0  0  0  0  0  0
    3.5660    1.8609    0.0000 C   0  0  3  0  0  0  0  0  0  0  0  0
    1.4026    2.2459    0.0000 C   0  0  0  0  0  0  0  0  0  0  0  0
   -2.8693    2.2459    0.0000 C   0  0  0  0  0  0  0  0  0  0  0  0
   -5.6561   -2.6677    0.0000 C   0  0  0  0  0  0  0  0  0  0  0  0
   -4.9595   -3.0710    0.0000 C   0  0  0  0  0  0  0  0  0  0  0  0
    5.6745   -2.6677    0.0000 C   0  0  0  0  0  0  0  0  0  0  0  0
    4.9777   -3.0710    0.0000 C   0  0  0  0  0  0  0  0  0  0  0  0
   -0.2659    1.1092    0.0000 C   0  0  0  0  0  0  0  0  0  0  0  0
   -1.1275    1.1275    0.0000 C   0  0  0  0  0  0  0  0  0  0  0  0
    2.8326    2.2643    0.0000 C   0  0  0  0  0  0  0  0  0  0  0  0
   -4.2811    2.2459    0.0000 C   0  0  0  0  0  0  0  0  0  0  0  0
    4.2444    2.2643    0.0000 C   0  0  0  0  0  0  0  0  0  0  0  0
    0.7059    0.9992    0.0000 C   0  0  0  0  0  0  0  0  0  0  0  0
   -5.6745    2.2459    0.0000 C   0  0  0  0  0  0  0  0  0  0  0  0
    5.6561    2.2459    0.0000 C   0  0  0  0  0  0  0  0  0  0  0  0
   -6.3712    1.8609    0.0000 C   0  0  0  0  0  0  0  0  0  0  0  0
    6.3895    1.8609    0.0000 C   0  0  0  0  0  0  0  0  0  0  0  0
   -7.0679    2.3376    0.0000 C   0  0  0  0  0  0  0  0  0  0  0  0
   -6.3529    0.9992    0.0000 C   0  0  0  0  0  0  0  0  0  0  0  0
    7.0679    2.3560    0.0000 C   0  0  0  0  0  0  0  0  0  0  0  0
    6.4078    0.9992    0.0000 C   0  0  0  0  0  0  0  0  0  0  0  0
  1 22  1  0  0  0  0
  1 31  1  0  0  0  0
  2 23  1  0  0  0  0
  2 36  1  0  0  0  0
  3 24  1  0  0  0  0
  3 38  1  0  0  0  0
  4 37  1  0  0  0  0
  4 45  1  0  0  0  0
  5 22  2  0  0  0  0
  6 23  2  0  0  0  0
  7 24  2  0  0  0  0
  8 46  1  0  0  0  0
  8 49  1  0  0  0  0
  9 37  2  0  0  0  0
 10 47  1  0  0  0  0
 10 50  1  0  0  0  0
 11 49  2  0  0  0  0
 12 50  2  0  0  0  0
 13 16  2  0  0  0  0
 13 20  1  0  0  0  0
 13 30  1  0  0  0  0
 14 20  2  0  0  0  0
 14 22  1  0  0  0  0
 14 25  1  0  0  0  0
 15 18  1  0  0  0  0
 15 21  2  0  0  0  0
 15 32  1  0  0  0  0
 16 26  1  0  0  0  0
 16 34  1  0  0  0  0
 17 21  1  0  0  0  0
 17 23  1  0  0  0  0
 17 27  2  0  0  0  0
 18 28  2  0  0  0  0
 18 35  1  0  0  0  0
 19 24  1  0  0  0  0
 19 29  1  0  0  0  0
 19 43  1  0  0  0  0
 19 44  1  0  0  0  0
 25 26  2  0  0  0  0
 27 28  1  0  0  0  0
 29 33  1  0  0  0  0
 30 39  2  0  0  0  0
 31 38  1  0  0  0  0
 31 46  1  0  0  0  0
 32 41  2  0  0  0  0
 33 37  1  0  0  0  0
 33 48  2  0  0  0  0
 34 40  2  0  0  0  0
 35 42  2  0  0  0  0
 36 45  1  0  0  0  0
 36 47  1  0  0  0  0
 39 40  1  0  0  0  0
 41 42  1  0  0  0  0
 49 51  1  0  0  0  0
 50 52  1  0  0  0  0
 51 53  2  0  0  0  0
 51 54  1  0  0  0  0
 52 55  2  0  0  0  0
 52 56  1  0  0  0  0
M  END
> <PUBCHEM_COMPOUND_ID_TYPE>
0

> <PUBCHEM_TOTAL_CHARGE>
0

> <PUBCHEM_SUBSTANCE_ID>
310949764

> <PUBCHEM_SUBSTANCE_VERSION>
1

> <PUBCHEM_EXT_DATASOURCE_NAME>
4488

> <PUBCHEM_EXT_DATASOURCE_REGID>
SCHEMBL16127962

> <PUBCHEM_SUBSTANCE_COMMENT>
InChI=1S/C44H44O12/c1-27(2)38(45)51-23-36(55-41(48)34-18-16-30-12-8-10-14-32(30)20-34)25-53-40(47)29(5)22-44(6,7)43(50)54-26-37(24-52-39(46)28(3)4)56-42(49)35-19-17-31-13-9-11-15-33(31)21-35/h8-21,36-37H,1,3,5,22-26H2,2,4,6-7H3
InChIKey=AHHVZHOOJBSJGX-UHFFFAOYSA-N

> <PUBCHEM_SUBSTANCE_SYNONYM>
SCHEMBL16127962

> <PUBCHEM_XREF_EXT_ID>
SCHEMBL16127962

> <PUBCHEM_EXT_DATASOURCE_URL>
https://www.surechembl.org/

> <PUBCHEM_EXT_SUBSTANCE_URL>
https://www.surechembl.org/chemical/SCHEMBL16127962

> <PUBCHEM_CID_ASSOCIATIONS>
117615090  1

> <PUBCHEM_COORDINATE_TYPE>
1
3

$$$$
