310947495
  -OEChem-07211613022D

 12 11  0     1  0  0  0  0  0999 V2000
   -8.0417    3.0261    0.0000 O   0  0  0  0  0  0  0  0  0  0  0  0
   -8.7562    4.2636    0.0000 O   0  0  0  0  0  0  0  0  0  0  0  0
  -10.8522    4.6406    0.0000 O   0  0  0  0  0  0  0  0  0  0  0  0
   -9.4706    3.0261    0.0000 N   0  0  0  0  0  0  0  0  0  0  0  0
  -10.1377    3.4031    0.0000 N   0  0  0  0  0  0  0  0  0  0  0  0
   -8.9748    2.1914    0.0000 C   0  0  3  0  0  0  0  0  0  0  0  0
   -8.7562    3.4386    0.0000 C   0  0  0  0  0  0  0  0  0  0  0  0
  -10.8522    3.8156    0.0000 C   0  0  0  0  0  0  0  0  0  0  0  0
   -8.0469    2.1914    0.0000 C   0  0  0  0  0  0  0  0  0  0  0  0
   -7.3272    3.4386    0.0000 C   0  0  0  0  0  0  0  0  0  0  0  0
  -11.5667    3.4031    0.0000 C   0  0  0  0  0  0  0  0  0  0  0  0
   -6.6128    3.0261    0.0000 C   0  0  0  0  0  0  0  0  0  0  0  0
  1  7  1  0  0  0  0
  1 10  1  0  0  0  0
  2  7  2  0  0  0  0
  3  8  2  0  0  0  0
  4  6  1  0  0  0  0
  4  7  1  0  0  0  0
  5  6  1  0  0  0  0
  5  8  1  0  0  0  0
  6  9  1  0  0  0  0
  8 11  1  0  0  0  0
 10 12  1  0  0  0  0
M  END
> <PUBCHEM_COMPOUND_ID_TYPE>
0

> <PUBCHEM_TOTAL_CHARGE>
0

> <PUBCHEM_SUBSTANCE_ID>
310947495

> <PUBCHEM_SUBSTANCE_VERSION>
1

> <PUBCHEM_EXT_DATASOURCE_NAME>
4488

> <PUBCHEM_EXT_DATASOURCE_REGID>
SCHEMBL16125657

> <PUBCHEM_SUBSTANCE_COMMENT>
InChI=1S/C7H14N2O3/c1-4-12-7(11)9-5(2)8-6(3)10/h5H,4H2,1-3H3,(H,8,10)(H,9,11)
InChIKey=HXXVPKXWNYHWOD-UHFFFAOYSA-N

> <PUBCHEM_SUBSTANCE_SYNONYM>
SCHEMBL16125657

> <PUBCHEM_XREF_EXT_ID>
SCHEMBL16125657

> <PUBCHEM_EXT_DATASOURCE_URL>
https://www.surechembl.org/

> <PUBCHEM_EXT_SUBSTANCE_URL>
https://www.surechembl.org/chemical/SCHEMBL16125657

> <PUBCHEM_CID_ASSOCIATIONS>
117613221  1

> <PUBCHEM_COORDINATE_TYPE>
1
3

$$$$
