310931553
  -OEChem-07211613022D

 21 23  0     1  0  0  0  0  0999 V2000
    0.0000   -0.7277    0.0000 Cl  0  0  0  0  0  0  0  0  0  0  0  0
    5.2756   -0.0404    0.0000 O   0  0  0  0  0  0  0  0  0  0  0  0
    5.2756   -1.4150    0.0000 O   0  0  0  0  0  0  0  0  0  0  0  0
    3.6788   -2.8501    0.0000 O   0  0  0  0  0  0  0  0  0  0  0  0
    2.4458   -2.1426    0.0000 O   0  0  0  0  0  0  0  0  0  0  0  0
    4.8916   -0.7277    0.0000 C   0  0  0  0  0  0  0  0  0  0  0  0
    3.6788   -1.4351    0.0000 C   0  0  3  0  0  0  0  0  0  0  0  0
    3.2543   -0.7277    0.0000 C   0  0  3  0  0  0  0  0  0  0  0  0
    4.4873   -1.4351    0.0000 C   0  0  0  0  0  0  0  0  0  0  0  0
    4.4873    0.0000    0.0000 C   0  0  0  0  0  0  0  0  0  0  0  0
    2.4458   -0.7277    0.0000 C   0  0  0  0  0  0  0  0  0  0  0  0
    3.6788    0.0000    0.0000 C   0  0  0  0  0  0  0  0  0  0  0  0
    3.2543   -2.1426    0.0000 C   0  0  0  0  0  0  0  0  0  0  0  0
    6.0640   -0.3234    0.0000 C   0  0  0  0  0  0  0  0  0  0  0  0
    6.0640   -1.1319    0.0000 C   0  0  0  0  0  0  0  0  0  0  0  0
    2.0213   -1.4351    0.0000 C   0  0  0  0  0  0  0  0  0  0  0  0
    2.0213   -0.0202    0.0000 C   0  0  0  0  0  0  0  0  0  0  0  0
    1.2330   -1.4351    0.0000 C   0  0  0  0  0  0  0  0  0  0  0  0
    1.2330   -0.0202    0.0000 C   0  0  0  0  0  0  0  0  0  0  0  0
    0.8086   -0.7277    0.0000 C   0  0  0  0  0  0  0  0  0  0  0  0
    3.2543   -3.5575    0.0000 C   0  0  0  0  0  0  0  0  0  0  0  0
  1 20  1  0  0  0  0
  2  6  1  0  0  0  0
  2 14  1  0  0  0  0
  3  6  1  0  0  0  0
  3 15  1  0  0  0  0
  4 13  1  0  0  0  0
  4 21  1  0  0  0  0
  5 13  2  0  0  0  0
  6  9  1  0  0  0  0
  6 10  1  0  0  0  0
  7  8  1  0  0  0  0
  7  9  1  0  0  0  0
  7 13  1  0  0  0  0
  8 11  1  0  0  0  0
  8 12  1  0  0  0  0
 10 12  1  0  0  0  0
 11 16  2  0  0  0  0
 11 17  1  0  0  0  0
 14 15  1  0  0  0  0
 16 18  1  0  0  0  0
 17 19  2  0  0  0  0
 18 20  2  0  0  0  0
 19 20  1  0  0  0  0
M  END
> <PUBCHEM_COMPOUND_ID_TYPE>
0

> <PUBCHEM_TOTAL_CHARGE>
0

> <PUBCHEM_SUBSTANCE_ID>
310931553

> <PUBCHEM_SUBSTANCE_VERSION>
1

> <PUBCHEM_EXT_DATASOURCE_NAME>
4488

> <PUBCHEM_EXT_DATASOURCE_REGID>
SCHEMBL16108879

> <PUBCHEM_SUBSTANCE_COMMENT>
InChI=1S/C16H19ClO4/c1-19-15(18)14-10-16(20-8-9-21-16)7-6-13(14)11-2-4-12(17)5-3-11/h2-5,13-14H,6-10H2,1H3
InChIKey=JILPMANVVQLHRG-UHFFFAOYSA-N

> <PUBCHEM_SUBSTANCE_SYNONYM>
SCHEMBL16108879

> <PUBCHEM_XREF_EXT_ID>
SCHEMBL16108879

> <PUBCHEM_EXT_DATASOURCE_URL>
https://www.surechembl.org/

> <PUBCHEM_EXT_SUBSTANCE_URL>
https://www.surechembl.org/chemical/SCHEMBL16108879

> <PUBCHEM_CID_ASSOCIATIONS>
117600301  1

> <PUBCHEM_COORDINATE_TYPE>
1
3

$$$$
