310938696
  -OEChem-07211613022D

 26 25  0     1  0  0  0  0  0999 V2000
    0.2601   -0.9217    0.0000 Cl  0  0  0  0  0  0  0  0  0  0  0  0
   -0.4543   -2.9842    0.0000 Cl  0  0  0  0  0  0  0  0  0  0  0  0
   -1.1688   -0.9217    0.0000 Cl  0  0  0  0  0  0  0  0  0  0  0  0
    0.9746   -2.9842    0.0000 Cl  0  0  0  0  0  0  0  0  0  0  0  0
    1.6891   -0.9217    0.0000 Cl  0  0  0  0  0  0  0  0  0  0  0  0
   -1.8833   -2.9842    0.0000 Cl  0  0  0  0  0  0  0  0  0  0  0  0
   -2.5977   -0.9217    0.0000 Cl  0  0  0  0  0  0  0  0  0  0  0  0
    2.4035   -2.9842    0.0000 Cl  0  0  0  0  0  0  0  0  0  0  0  0
   -3.3122   -2.9842    0.0000 Cl  0  0  0  0  0  0  0  0  0  0  0  0
    3.1180   -0.9217    0.0000 Cl  0  0  0  0  0  0  0  0  0  0  0  0
   -4.0267   -0.9217    0.0000 Cl  0  0  0  0  0  0  0  0  0  0  0  0
    3.8325   -2.9842    0.0000 Cl  0  0  0  0  0  0  0  0  0  0  0  0
   -0.4543   -2.1592    0.0000 C   0  0  3  0  0  0  0  0  0  0  0  0
    0.2601   -1.7467    0.0000 C   0  0  3  0  0  0  0  0  0  0  0  0
   -1.1688   -1.7467    0.0000 C   0  0  3  0  0  0  0  0  0  0  0  0
    0.9746   -2.1592    0.0000 C   0  0  3  0  0  0  0  0  0  0  0  0
   -1.8833   -2.1592    0.0000 C   0  0  3  0  0  0  0  0  0  0  0  0
    1.6891   -1.7467    0.0000 C   0  0  3  0  0  0  0  0  0  0  0  0
   -2.5977   -1.7467    0.0000 C   0  0  3  0  0  0  0  0  0  0  0  0
    2.4035   -2.1592    0.0000 C   0  0  3  0  0  0  0  0  0  0  0  0
   -3.3122   -2.1592    0.0000 C   0  0  3  0  0  0  0  0  0  0  0  0
    3.1180   -1.7467    0.0000 C   0  0  3  0  0  0  0  0  0  0  0  0
   -4.0267   -1.7467    0.0000 C   0  0  3  0  0  0  0  0  0  0  0  0
    3.8325   -2.1592    0.0000 C   0  0  3  0  0  0  0  0  0  0  0  0
   -4.7412   -2.1592    0.0000 C   0  0  0  0  0  0  0  0  0  0  0  0
    4.7403   -1.6500    0.0000 C   0  0  0  0  0  0  0  0  0  0  0  0
  1 14  1  0  0  0  0
  2 13  1  0  0  0  0
  3 15  1  0  0  0  0
  4 16  1  0  0  0  0
  5 18  1  0  0  0  0
  6 17  1  0  0  0  0
  7 19  1  0  0  0  0
  8 20  1  0  0  0  0
  9 21  1  0  0  0  0
 10 22  1  0  0  0  0
 11 23  1  0  0  0  0
 12 24  1  0  0  0  0
 13 14  1  0  0  0  0
 13 15  1  0  0  0  0
 14 16  1  0  0  0  0
 15 17  1  0  0  0  0
 16 18  1  0  0  0  0
 17 19  1  0  0  0  0
 18 20  1  0  0  0  0
 19 21  1  0  0  0  0
 20 22  1  0  0  0  0
 21 23  1  0  0  0  0
 22 24  1  0  0  0  0
 23 25  1  0  0  0  0
 24 26  1  0  0  0  0
M  END
> <PUBCHEM_COMPOUND_ID_TYPE>
0

> <PUBCHEM_TOTAL_CHARGE>
0

> <PUBCHEM_SUBSTANCE_ID>
310938696

> <PUBCHEM_SUBSTANCE_VERSION>
1

> <PUBCHEM_EXT_DATASOURCE_NAME>
4488

> <PUBCHEM_EXT_DATASOURCE_REGID>
SCHEMBL16116610

> <PUBCHEM_SUBSTANCE_COMMENT>
InChI=1S/C14H18Cl12/c1-3(15)5(17)7(19)9(21)11(23)13(25)14(26)12(24)10(22)8(20)6(18)4(2)16/h3-14H,1-2H3
InChIKey=WBMVSRLHJVQHEG-UHFFFAOYSA-N

> <PUBCHEM_SUBSTANCE_SYNONYM>
SCHEMBL16116610

> <PUBCHEM_XREF_EXT_ID>
SCHEMBL16116610

> <PUBCHEM_EXT_DATASOURCE_URL>
https://www.surechembl.org/

> <PUBCHEM_EXT_SUBSTANCE_URL>
https://www.surechembl.org/chemical/SCHEMBL16116610

> <PUBCHEM_CID_ASSOCIATIONS>
117606126  1

> <PUBCHEM_COORDINATE_TYPE>
1
3

$$$$
