310944888
  -OEChem-07211613022D

 44 50  0     1  0  0  0  0  0999 V2000
   -0.4828    3.7101    0.0000 Cl  0  0  0  0  0  0  0  0  0  0  0  0
    2.6820    3.7101    0.0000 F   0  0  0  0  0  0  0  0  0  0  0  0
   -5.1315   -2.2976    0.0000 O   0  0  0  0  0  0  0  0  0  0  0  0
   -3.9515   -1.4393    0.0000 N   0  0  0  0  0  0  0  0  0  0  0  0
   -4.3627   -0.7241    0.0000 N   0  0  0  0  0  0  0  0  0  0  0  0
    4.8812   -0.0983    0.0000 N   0  0  0  0  0  0  0  0  0  0  0  0
    4.2018   -1.2605    0.0000 N   0  0  0  0  0  0  0  0  0  0  0  0
    5.4355   -0.7241    0.0000 N   0  0  0  0  0  0  0  0  0  0  0  0
    5.0243   -1.4393    0.0000 N   0  0  0  0  0  0  0  0  0  0  0  0
   -0.1788    2.0831    0.0000 C   0  0  0  0  0  0  0  0  0  0  0  0
   -0.2146    1.2426    0.0000 C   0  0  0  0  0  0  0  0  0  0  0  0
    0.5185    2.4943    0.0000 C   0  0  0  0  0  0  0  0  0  0  0  0
   -0.9119    2.5122    0.0000 C   0  0  0  0  0  0  0  0  0  0  0  0
   -0.8940    0.8493    0.0000 C   0  0  0  0  0  0  0  0  0  0  0  0
    0.5364    0.8493    0.0000 C   0  0  0  0  0  0  0  0  0  0  0  0
    0.5364    3.3346    0.0000 C   0  0  0  0  0  0  0  0  0  0  0  0
   -2.3423    0.0089    0.0000 C   0  0  0  0  0  0  0  0  0  0  0  0
   -1.6449    1.2426    0.0000 C   0  0  0  0  0  0  0  0  0  0  0  0
   -0.9119    0.0089    0.0000 C   0  0  0  0  0  0  0  0  0  0  0  0
   -1.6986    2.3155    0.0000 C   0  0  0  0  0  0  0  0  0  0  0  0
   -1.1264    3.2810    0.0000 C   0  0  0  0  0  0  0  0  0  0  0  0
    1.2337    2.1009    0.0000 C   0  0  0  0  0  0  0  0  0  0  0  0
   -3.0575   -0.4023    0.0000 C   0  0  0  0  0  0  0  0  0  0  0  0
    0.5542   -0.0089    0.0000 C   0  0  0  0  0  0  0  0  0  0  0  0
    1.2337    1.2426    0.0000 C   0  0  0  0  0  0  0  0  0  0  0  0
   -2.3244    0.8314    0.0000 C   0  0  0  0  0  0  0  0  0  0  0  0
   -1.6271   -0.4023    0.0000 C   0  0  0  0  0  0  0  0  0  0  0  0
   -1.8953    3.0843    0.0000 C   0  0  0  0  0  0  0  0  0  0  0  0
    1.2694    3.7280    0.0000 C   0  0  0  0  0  0  0  0  0  0  0  0
    1.9668    3.3346    0.0000 C   0  0  0  0  0  0  0  0  0  0  0  0
    1.9489    2.4943    0.0000 C   0  0  0  0  0  0  0  0  0  0  0  0
   -3.1469   -1.2426    0.0000 C   0  0  0  0  0  0  0  0  0  0  0  0
    1.9668    0.0089    0.0000 C   0  0  0  0  0  0  0  0  0  0  0  0
    1.2516   -0.4023    0.0000 C   0  0  0  0  0  0  0  0  0  0  0  0
    1.9489    0.8314    0.0000 C   0  0  0  0  0  0  0  0  0  0  0  0
   -3.8084   -0.0805    0.0000 C   0  0  0  0  0  0  0  0  0  0  0  0
   -4.2912   -2.1903    0.0000 C   0  0  3  0  0  0  0  0  0  0  0  0
    2.6999   -0.4023    0.0000 C   0  0  0  0  0  0  0  0  0  0  0  0
   -3.7905   -2.8161    0.0000 C   0  0  0  0  0  0  0  0  0  0  0  0
    3.3793   -0.0089    0.0000 C   0  0  0  0  0  0  0  0  0  0  0  0
   -5.4355   -3.0664    0.0000 C   0  0  0  0  0  0  0  0  0  0  0  0
   -4.0945   -3.6028    0.0000 C   0  0  0  0  0  0  0  0  0  0  0  0
    4.1124   -0.4202    0.0000 C   0  0  0  0  0  0  0  0  0  0  0  0
   -4.8991   -3.7280    0.0000 C   0  0  0  0  0  0  0  0  0  0  0  0
  1 16  1  0  0  0  0
  2 30  1  0  0  0  0
  3 37  1  0  0  0  0
  3 41  1  0  0  0  0
  4  5  1  0  0  0  0
  4 32  1  0  0  0  0
  4 37  1  0  0  0  0
  5 36  2  0  0  0  0
  6  8  2  0  0  0  0
  6 43  1  0  0  0  0
  7  9  1  0  0  0  0
  7 43  2  0  0  0  0
  8  9  1  0  0  0  0
 10 11  2  0  0  0  0
 10 12  1  0  0  0  0
 10 13  1  0  0  0  0
 11 14  1  0  0  0  0
 11 15  1  0  0  0  0
 12 16  1  0  0  0  0
 12 22  2  0  0  0  0
 13 20  1  0  0  0  0
 13 21  1  0  0  0  0
 14 18  2  0  0  0  0
 14 19  1  0  0  0  0
 15 24  2  0  0  0  0
 15 25  1  0  0  0  0
 16 29  2  0  0  0  0
 17 23  1  0  0  0  0
 17 26  2  0  0  0  0
 17 27  1  0  0  0  0
 18 26  1  0  0  0  0
 19 27  2  0  0  0  0
 20 28  1  0  0  0  0
 21 28  1  0  0  0  0
 22 31  1  0  0  0  0
 23 32  2  0  0  0  0
 23 36  1  0  0  0  0
 24 34  1  0  0  0  0
 25 35  2  0  0  0  0
 29 30  1  0  0  0  0
 30 31  2  0  0  0  0
 33 34  2  0  0  0  0
 33 35  1  0  0  0  0
 33 38  1  0  0  0  0
 37 39  1  0  0  0  0
 38 40  2  0  0  0  0
 39 42  1  0  0  0  0
 40 43  1  0  0  0  0
 41 44  1  0  0  0  0
 42 44  1  0  0  0  0
M  END
> <PUBCHEM_COMPOUND_ID_TYPE>
0

> <PUBCHEM_TOTAL_CHARGE>
0

> <PUBCHEM_SUBSTANCE_ID>
310944888

> <PUBCHEM_SUBSTANCE_VERSION>
1

> <PUBCHEM_EXT_DATASOURCE_NAME>
4488

> <PUBCHEM_EXT_DATASOURCE_REGID>
SCHEMBL16122972

> <PUBCHEM_SUBSTANCE_COMMENT>
InChI=1S/C35H32ClFN6O/c36-31-20-29(37)16-17-30(31)35(25-4-3-5-25)34(26-10-7-23(8-11-26)9-18-32-39-41-42-40-32)27-14-12-24(13-15-27)28-21-38-43(22-28)33-6-1-2-19-44-33/h7-18,20-22,25,33H,1-6,19H2,(H,39,40,41,42)/b18-9+,35-34+
InChIKey=VTFGEXIKYUSSCB-VZJPBNRNSA-N

> <PUBCHEM_SUBSTANCE_SYNONYM>
SCHEMBL16122972

> <PUBCHEM_XREF_EXT_ID>
SCHEMBL16122972

> <PUBCHEM_EXT_DATASOURCE_URL>
https://www.surechembl.org/

> <PUBCHEM_EXT_SUBSTANCE_URL>
https://www.surechembl.org/chemical/SCHEMBL16122972

> <PUBCHEM_CID_ASSOCIATIONS>
117611074  1

> <PUBCHEM_COORDINATE_TYPE>
1
3

$$$$
