310934604
  -OEChem-07211613022D

 20 22  0     1  0  0  0  0  0999 V2000
    2.7623   -1.8948    0.0000 S   0  0  0  0  0  0  0  0  0  0  0  0
    1.9176   -4.0179    0.0000 O   0  0  0  0  0  0  0  0  0  0  0  0
    0.8218   -0.2283    0.0000 O   0  0  0  0  0  0  0  0  0  0  0  0
    2.1916    0.0000    0.0000 N   0  0  0  0  0  0  0  0  0  0  0  0
    0.0000   -1.3926    0.0000 N   0  0  0  0  0  0  0  0  0  0  0  0
    2.2372   -1.2328    0.0000 C   0  0  3  0  0  0  0  0  0  0  0  0
    1.4382   -1.5295    0.0000 C   0  0  3  0  0  0  0  0  0  0  0  0
    2.2372   -2.6025    0.0000 C   0  0  3  0  0  0  0  0  0  0  0  0
    1.4382   -2.3286    0.0000 C   0  0  0  0  0  0  0  0  0  0  0  0
    1.7122   -0.6621    0.0000 C   0  0  0  0  0  0  0  0  0  0  0  0
    2.9906   -1.0958    0.0000 C   0  0  0  0  0  0  0  0  0  0  0  0
    2.4655   -3.4015    0.0000 C   0  0  0  0  0  0  0  0  0  0  0  0
    0.7534   -1.0502    0.0000 C   0  0  0  0  0  0  0  0  0  0  0  0
    2.9906   -0.2968    0.0000 C   0  0  0  0  0  0  0  0  0  0  0  0
    3.2874   -3.6070    0.0000 C   0  0  0  0  0  0  0  0  0  0  0  0
    3.8582   -2.9906    0.0000 C   0  0  0  0  0  0  0  0  0  0  0  0
    3.5385   -4.3832    0.0000 C   0  0  0  0  0  0  0  0  0  0  0  0
    4.6572   -3.1961    0.0000 C   0  0  0  0  0  0  0  0  0  0  0  0
    4.3147   -4.5659    0.0000 C   0  0  0  0  0  0  0  0  0  0  0  0
    4.9082   -3.9951    0.0000 C   0  0  0  0  0  0  0  0  0  0  0  0
  1  6  1  0  0  0  0
  1  8  1  0  0  0  0
  2 12  2  0  0  0  0
  3 13  2  0  0  0  0
  4 10  1  0  0  0  0
  4 14  1  0  0  0  0
  5 13  1  0  0  0  0
  6  7  1  0  0  0  0
  6 10  1  0  0  0  0
  6 11  1  0  0  0  0
  7  9  1  0  0  0  0
  7 13  1  0  0  0  0
  8  9  1  0  0  0  0
  8 12  1  0  0  0  0
 11 14  1  0  0  0  0
 12 15  1  0  0  0  0
 15 16  1  0  0  0  0
 15 17  1  0  0  0  0
 16 18  1  0  0  0  0
 17 19  1  0  0  0  0
 18 20  1  0  0  0  0
 19 20  1  0  0  0  0
M  END
> <PUBCHEM_COMPOUND_ID_TYPE>
0

> <PUBCHEM_TOTAL_CHARGE>
0

> <PUBCHEM_SUBSTANCE_ID>
310934604

> <PUBCHEM_SUBSTANCE_VERSION>
1

> <PUBCHEM_EXT_DATASOURCE_NAME>
4488

> <PUBCHEM_EXT_DATASOURCE_REGID>
SCHEMBL16112099

> <PUBCHEM_SUBSTANCE_COMMENT>
InChI=1S/C15H24N2O2S/c16-14(19)11-8-12(20-15(11)6-7-17-9-15)13(18)10-4-2-1-3-5-10/h10-12,17H,1-9H2,(H2,16,19)
InChIKey=PHGAJYGIOCUZPE-UHFFFAOYSA-N

> <PUBCHEM_SUBSTANCE_SYNONYM>
SCHEMBL16112099

> <PUBCHEM_XREF_EXT_ID>
SCHEMBL16112099

> <PUBCHEM_EXT_DATASOURCE_URL>
https://www.surechembl.org/

> <PUBCHEM_EXT_SUBSTANCE_URL>
https://www.surechembl.org/chemical/SCHEMBL16112099

> <PUBCHEM_CID_ASSOCIATIONS>
117602782  1

> <PUBCHEM_COORDINATE_TYPE>
1
3

$$$$
