310935823
  -OEChem-07211613022D

 26 31  0     1  0  0  0  0  0999 V2000
    1.5406    0.0881    0.0000 O   0  0  0  0  0  0  0  0  0  0  0  0
    2.2944    0.5775    0.0000 O   0  0  0  0  0  0  0  0  0  0  0  0
   -0.5136   -2.2294    0.0000 O   0  0  0  0  0  0  0  0  0  0  0  0
   -0.5136   -0.5794    0.0000 C   0  0  3  0  0  0  0  0  0  0  0  0
    0.2711    0.5006    0.0000 C   0  0  3  0  0  0  0  0  0  0  0  0
   -0.5136    0.2456    0.0000 C   0  0  3  0  0  0  0  0  0  0  0  0
    0.7560   -0.1669    0.0000 C   0  0  3  0  0  0  0  0  0  0  0  0
   -1.2280   -0.9919    0.0000 C   0  0  3  0  0  0  0  0  0  0  0  0
    1.5406    0.9131    0.0000 C   0  0  3  0  0  0  0  0  0  0  0  0
   -1.9425   -0.5794    0.0000 C   0  0  3  0  0  0  0  0  0  0  0  0
    0.2711   -0.8343    0.0000 C   0  0  0  0  0  0  0  0  0  0  0  0
    0.7560    1.1680    0.0000 C   0  0  0  0  0  0  0  0  0  0  0  0
   -2.6570   -0.9919    0.0000 C   0  0  3  0  0  0  0  0  0  0  0  0
   -1.2280   -1.8169    0.0000 C   0  0  0  0  0  0  0  0  0  0  0  0
   -1.2280    0.6581    0.0000 C   0  0  0  0  0  0  0  0  0  0  0  0
   -1.9425    0.2456    0.0000 C   0  0  0  0  0  0  0  0  0  0  0  0
   -2.6570   -1.8169    0.0000 C   0  0  3  0  0  0  0  0  0  0  0  0
    1.4544    1.7336    0.0000 C   0  0  0  0  0  0  0  0  0  0  0  0
   -1.9425   -2.2294    0.0000 C   0  0  0  0  0  0  0  0  0  0  0  0
   -3.3715   -0.5794    0.0000 C   0  0  0  0  0  0  0  0  0  0  0  0
   -3.3715   -2.2294    0.0000 C   0  0  0  0  0  0  0  0  0  0  0  0
    2.9618    1.0624    0.0000 C   0  0  0  0  0  0  0  0  0  0  0  0
    2.1219    2.2185    0.0000 C   0  0  0  0  0  0  0  0  0  0  0  0
   -4.0859   -0.9919    0.0000 C   0  0  0  0  0  0  0  0  0  0  0  0
    2.8755    1.8830    0.0000 C   0  0  0  0  0  0  0  0  0  0  0  0
   -4.0859   -1.8169    0.0000 C   0  0  0  0  0  0  0  0  0  0  0  0
  1  7  1  0  0  0  0
  1  9  1  0  0  0  0
  2  9  1  0  0  0  0
  2 22  1  0  0  0  0
  3 14  2  0  0  0  0
  4  6  1  0  0  0  0
  4  8  1  0  0  0  0
  4 11  1  0  0  0  0
  5  6  1  0  0  0  0
  5  7  1  0  0  0  0
  5 12  1  0  0  0  0
  6 15  1  0  0  0  0
  7 11  1  0  0  0  0
  8 10  1  0  0  0  0
  8 14  1  0  0  0  0
  9 12  1  0  0  0  0
  9 18  1  0  0  0  0
 10 13  1  0  0  0  0
 10 16  1  0  0  0  0
 13 17  1  0  0  0  0
 13 20  1  0  0  0  0
 14 19  1  0  0  0  0
 15 16  1  0  0  0  0
 17 19  1  0  0  0  0
 17 21  1  0  0  0  0
 18 23  1  0  0  0  0
 20 24  1  0  0  0  0
 21 26  1  0  0  0  0
 22 25  2  0  0  0  0
 23 25  1  0  0  0  0
 24 26  1  0  0  0  0
M  END
> <PUBCHEM_COMPOUND_ID_TYPE>
0

> <PUBCHEM_TOTAL_CHARGE>
0

> <PUBCHEM_SUBSTANCE_ID>
310935823

> <PUBCHEM_SUBSTANCE_VERSION>
1

> <PUBCHEM_EXT_DATASOURCE_NAME>
4488

> <PUBCHEM_EXT_DATASOURCE_REGID>
SCHEMBL16113413

> <PUBCHEM_SUBSTANCE_COMMENT>
InChI=1S/C23H32O3/c24-20-11-14-5-1-2-6-15(14)17-8-7-16-18(22(17)20)12-21-19(16)13-23(26-21)9-3-4-10-25-23/h4,10,14-19,21-22H,1-3,5-9,11-13H2
InChIKey=OBYVXTGJFPPMPG-UHFFFAOYSA-N

> <PUBCHEM_SUBSTANCE_SYNONYM>
SCHEMBL16113413

> <PUBCHEM_XREF_EXT_ID>
SCHEMBL16113413

> <PUBCHEM_EXT_DATASOURCE_URL>
https://www.surechembl.org/

> <PUBCHEM_EXT_SUBSTANCE_URL>
https://www.surechembl.org/chemical/SCHEMBL16113413

> <PUBCHEM_CID_ASSOCIATIONS>
117603814  1

> <PUBCHEM_COORDINATE_TYPE>
1
3

$$$$
