310935088
  -OEChem-07211613022D

 35 39  0     1  0  0  0  0  0999 V2000
    0.0589   -6.0106    0.0000 Cl  0  0  0  0  0  0  0  0  0  0  0  0
    0.3536   -9.5462    0.0000 O   0  0  0  0  0  0  0  0  0  0  0  0
    5.0088    0.0000    0.0000 O   0  0  0  0  0  0  0  0  0  0  0  0
    5.7160   -1.2374    0.0000 O   0  0  0  0  0  0  0  0  0  0  0  0
    1.4732   -3.8303    0.0000 N   0  0  0  0  0  0  0  0  0  0  0  0
    0.4125   -8.1319    0.0000 N   0  0  0  0  0  0  0  0  0  0  0  0
    1.6499   -8.8980    0.0000 N   0  0  0  0  0  0  0  0  0  0  0  0
    1.5910  -11.7854    0.0000 N   0  0  0  0  0  0  0  0  0  0  0  0
    1.7089   -4.5963    0.0000 C   0  0  0  0  0  0  0  0  0  0  0  0
    1.7089   -6.0106    0.0000 C   0  0  0  0  0  0  0  0  0  0  0  0
    2.5339   -4.5963    0.0000 C   0  0  0  0  0  0  0  0  0  0  0  0
    1.2964   -6.7177    0.0000 C   0  0  0  0  0  0  0  0  0  0  0  0
    1.2964   -5.3624    0.0000 C   0  0  0  0  0  0  0  0  0  0  0  0
    2.1214   -3.2999    0.0000 C   0  0  3  0  0  0  0  0  0  0  0  0
    2.8285   -3.8303    0.0000 C   0  0  0  0  0  0  0  0  0  0  0  0
    0.4714   -6.7177    0.0000 C   0  0  0  0  0  0  0  0  0  0  0  0
    2.5339   -6.0695    0.0000 C   0  0  0  0  0  0  0  0  0  0  0  0
    2.9464   -5.3624    0.0000 C   0  0  0  0  0  0  0  0  0  0  0  0
    1.7089   -7.4837    0.0000 C   0  0  0  0  0  0  0  0  0  0  0  0
    1.2374   -8.1909    0.0000 C   0  0  0  0  0  0  0  0  0  0  0  0
    2.1214   -2.4749    0.0000 C   0  0  0  0  0  0  0  0  0  0  0  0
    0.0000   -7.4248    0.0000 C   0  0  0  0  0  0  0  0  0  0  0  0
    2.8874   -2.0624    0.0000 C   0  0  0  0  0  0  0  0  0  0  0  0
    1.1785   -9.6051    0.0000 C   0  0  0  0  0  0  0  0  0  0  0  0
    1.5910  -10.3123    0.0000 C   0  0  3  0  0  0  0  0  0  0  0  0
    2.8874   -1.2374    0.0000 C   0  0  0  0  0  0  0  0  0  0  0  0
    3.5945   -2.4749    0.0000 C   0  0  0  0  0  0  0  0  0  0  0  0
    4.3017   -1.2374    0.0000 C   0  0  0  0  0  0  0  0  0  0  0  0
    3.5945   -0.8250    0.0000 C   0  0  0  0  0  0  0  0  0  0  0  0
    4.3017   -2.0624    0.0000 C   0  0  0  0  0  0  0  0  0  0  0  0
    1.1785  -11.0193    0.0000 C   0  0  0  0  0  0  0  0  0  0  0  0
    2.4160  -10.3712    0.0000 C   0  0  0  0  0  0  0  0  0  0  0  0
    5.0088   -0.8250    0.0000 C   0  0  0  0  0  0  0  0  0  0  0  0
    2.8285  -11.0783    0.0000 C   0  0  0  0  0  0  0  0  0  0  0  0
    2.4160  -11.7854    0.0000 C   0  0  0  0  0  0  0  0  0  0  0  0
  1 16  1  0  0  0  0
  2 24  2  0  0  0  0
  3 33  2  0  0  0  0
  4 33  1  0  0  0  0
  5  9  1  0  0  0  0
  5 14  1  0  0  0  0
  6 20  1  0  0  0  0
  6 22  2  0  0  0  0
  7 20  1  0  0  0  0
  7 24  1  0  0  0  0
  8 31  1  0  0  0  0
  8 35  1  0  0  0  0
  9 11  2  0  0  0  0
  9 13  1  0  0  0  0
 10 12  1  0  0  0  0
 10 13  2  0  0  0  0
 10 17  1  0  0  0  0
 11 15  1  0  0  0  0
 11 18  1  0  0  0  0
 12 16  2  0  0  0  0
 12 19  1  0  0  0  0
 14 15  1  0  0  0  0
 14 21  1  0  0  0  0
 16 22  1  0  0  0  0
 17 18  2  0  0  0  0
 19 20  2  0  0  0  0
 21 23  1  0  0  0  0
 23 26  2  0  0  0  0
 23 27  1  0  0  0  0
 24 25  1  0  0  0  0
 25 31  1  0  0  0  0
 25 32  1  0  0  0  0
 26 29  1  0  0  0  0
 27 30  2  0  0  0  0
 28 29  2  0  0  0  0
 28 30  1  0  0  0  0
 28 33  1  0  0  0  0
 32 34  1  0  0  0  0
 34 35  1  0  0  0  0
M  END
> <PUBCHEM_COMPOUND_ID_TYPE>
0

> <PUBCHEM_TOTAL_CHARGE>
0

> <PUBCHEM_SUBSTANCE_ID>
310935088

> <PUBCHEM_SUBSTANCE_VERSION>
1

> <PUBCHEM_EXT_DATASOURCE_NAME>
4488

> <PUBCHEM_EXT_DATASOURCE_REGID>
SCHEMBL16112614

> <PUBCHEM_SUBSTANCE_COMMENT>
InChI=1S/C27H27ClN4O3/c28-23-15-30-25(32-26(33)20-2-1-9-29-14-20)13-22(23)18-7-8-19-11-21(31-24(19)12-18)10-16-3-5-17(6-4-16)27(34)35/h3-8,12-13,15,20-21,29,31H,1-2,9-11,14H2,(H,34,35)(H,30,32,33)
InChIKey=MSMRXGKUSQTZLG-UHFFFAOYSA-N

> <PUBCHEM_SUBSTANCE_SYNONYM>
SCHEMBL16112614

> <PUBCHEM_XREF_EXT_ID>
SCHEMBL16112614

> <PUBCHEM_EXT_DATASOURCE_URL>
https://www.surechembl.org/

> <PUBCHEM_EXT_SUBSTANCE_URL>
https://www.surechembl.org/chemical/SCHEMBL16112614

> <PUBCHEM_CID_ASSOCIATIONS>
117603182  1

> <PUBCHEM_COORDINATE_TYPE>
1
3

$$$$
