310933036
  -OEChem-07211613022D

 33 36  0     1  0  0  0  0  0999 V2000
    5.1348   -1.2743    0.0000 O   0  0  0  0  0  0  0  0  0  0  0  0
    0.0375   -5.8094    0.0000 O   0  0  0  0  0  0  0  0  0  0  0  0
    8.7703    0.0000    0.0000 O   0  0  0  0  0  0  0  0  0  0  0  0
    9.5200   -1.2743    0.0000 O   0  0  0  0  0  0  0  0  0  0  0  0
    2.9235   -5.0224    0.0000 N   0  0  0  0  0  0  0  0  0  0  0  0
    3.6731   -2.0989    0.0000 N   0  0  0  0  0  0  0  0  0  0  0  0
    5.8469   -2.5112    0.0000 N   0  0  0  0  0  0  0  0  0  0  0  0
    0.7121   -7.0837    0.0000 N   0  0  0  0  0  0  0  0  0  0  0  0
    3.6731   -3.7855    0.0000 C   0  0  0  0  0  0  0  0  0  0  0  0
    4.4226   -3.3732    0.0000 C   0  0  0  0  0  0  0  0  0  0  0  0
    3.6731   -4.6101    0.0000 C   0  0  0  0  0  0  0  0  0  0  0  0
    4.4226   -2.5112    0.0000 C   0  0  3  0  0  0  0  0  0  0  0  0
    5.1348   -2.0989    0.0000 C   0  0  0  0  0  0  0  0  0  0  0  0
    2.9609   -3.3358    0.0000 C   0  0  0  0  0  0  0  0  0  0  0  0
    5.1348   -3.7480    0.0000 C   0  0  0  0  0  0  0  0  0  0  0  0
    4.3852   -5.0224    0.0000 C   0  0  0  0  0  0  0  0  0  0  0  0
    5.1348   -4.6101    0.0000 C   0  0  0  0  0  0  0  0  0  0  0  0
    2.9609   -2.5112    0.0000 C   0  0  0  0  0  0  0  0  0  0  0  0
    2.9235   -5.8469    0.0000 C   0  0  0  0  0  0  0  0  0  0  0  0
    2.2113   -4.5726    0.0000 C   0  0  0  0  0  0  0  0  0  0  0  0
    1.4617   -5.8094    0.0000 C   0  0  0  0  0  0  0  0  0  0  0  0
    2.2113   -6.2592    0.0000 C   0  0  0  0  0  0  0  0  0  0  0  0
    1.4992   -4.9848    0.0000 C   0  0  0  0  0  0  0  0  0  0  0  0
    6.5965   -2.0989    0.0000 C   0  0  0  0  0  0  0  0  0  0  0  0
    0.7496   -6.2217    0.0000 C   0  0  0  0  0  0  0  0  0  0  0  0
    6.5965   -1.2743    0.0000 C   0  0  0  0  0  0  0  0  0  0  0  0
    7.3086   -2.5112    0.0000 C   0  0  0  0  0  0  0  0  0  0  0  0
    8.0582   -1.2743    0.0000 C   0  0  0  0  0  0  0  0  0  0  0  0
    7.3086   -0.8246    0.0000 C   0  0  0  0  0  0  0  0  0  0  0  0
    8.0582   -2.0989    0.0000 C   0  0  0  0  0  0  0  0  0  0  0  0
    8.7703   -0.8246    0.0000 C   0  0  0  0  0  0  0  0  0  0  0  0
    0.0000   -7.4960    0.0000 C   0  0  0  0  0  0  0  0  0  0  0  0
    1.4617   -7.4960    0.0000 C   0  0  0  0  0  0  0  0  0  0  0  0
  1 13  2  0  0  0  0
  2 25  2  0  0  0  0
  3 31  2  0  0  0  0
  4 31  1  0  0  0  0
  5 11  1  0  0  0  0
  5 19  1  0  0  0  0
  5 20  1  0  0  0  0
  6 12  1  0  0  0  0
  6 18  1  0  0  0  0
  7 13  1  0  0  0  0
  7 24  1  0  0  0  0
  8 25  1  0  0  0  0
  8 32  1  0  0  0  0
  8 33  1  0  0  0  0
  9 10  2  0  0  0  0
  9 11  1  0  0  0  0
  9 14  1  0  0  0  0
 10 12  1  0  0  0  0
 10 15  1  0  0  0  0
 11 16  2  0  0  0  0
 12 13  1  0  0  0  0
 14 18  1  0  0  0  0
 15 17  2  0  0  0  0
 16 17  1  0  0  0  0
 19 22  1  0  0  0  0
 20 23  1  0  0  0  0
 21 22  1  0  0  0  0
 21 23  1  0  0  0  0
 21 25  1  0  0  0  0
 24 26  2  0  0  0  0
 24 27  1  0  0  0  0
 26 29  1  0  0  0  0
 27 30  2  0  0  0  0
 28 29  2  0  0  0  0
 28 30  1  0  0  0  0
 28 31  1  0  0  0  0
M  END
> <PUBCHEM_COMPOUND_ID_TYPE>
0

> <PUBCHEM_TOTAL_CHARGE>
0

> <PUBCHEM_SUBSTANCE_ID>
310933036

> <PUBCHEM_SUBSTANCE_VERSION>
1

> <PUBCHEM_EXT_DATASOURCE_NAME>
4488

> <PUBCHEM_EXT_DATASOURCE_REGID>
SCHEMBL16110436

> <PUBCHEM_SUBSTANCE_COMMENT>
InChI=1S/C25H30N4O4/c1-28(2)24(31)16-11-14-29(15-12-16)21-5-3-4-20-19(21)10-13-26-22(20)23(30)27-18-8-6-17(7-9-18)25(32)33/h3-9,16,22,26H,10-15H2,1-2H3,(H,27,30)(H,32,33)
InChIKey=KZEKHJKYWKSHAP-UHFFFAOYSA-N

> <PUBCHEM_SUBSTANCE_SYNONYM>
SCHEMBL16110436

> <PUBCHEM_XREF_EXT_ID>
SCHEMBL16110436

> <PUBCHEM_EXT_DATASOURCE_URL>
https://www.surechembl.org/

> <PUBCHEM_EXT_SUBSTANCE_URL>
https://www.surechembl.org/chemical/SCHEMBL16110436

> <PUBCHEM_CID_ASSOCIATIONS>
117601501  1

> <PUBCHEM_COORDINATE_TYPE>
1
3

$$$$
