310939146
  -OEChem-07211613022D

 24 26  0     1  0  0  0  0  0999 V2000
   -0.1480    0.5333    0.0000 F   0  0  0  0  0  0  0  0  0  0  0  0
   -1.5769   -1.9417    0.0000 F   0  0  0  0  0  0  0  0  0  0  0  0
   -1.5769   -0.2917    0.0000 O   0  0  0  0  0  0  0  0  0  0  0  0
    1.2810    0.5333    0.0000 N   0  0  0  0  0  0  0  0  0  0  0  0
    3.7203    1.9417    0.0000 N   0  0  0  0  0  0  0  0  0  0  0  0
    0.5665   -0.7042    0.0000 C   0  0  0  0  0  0  0  0  0  0  0  0
   -0.1480   -0.2917    0.0000 C   0  0  0  0  0  0  0  0  0  0  0  0
   -0.8624   -0.7042    0.0000 C   0  0  0  0  0  0  0  0  0  0  0  0
    1.2810   -0.2917    0.0000 C   0  0  3  0  0  0  0  0  0  0  0  0
   -0.8624   -1.5292    0.0000 C   0  0  0  0  0  0  0  0  0  0  0  0
    0.5665   -1.5292    0.0000 C   0  0  0  0  0  0  0  0  0  0  0  0
    1.9954    0.9458    0.0000 C   0  0  0  0  0  0  0  0  0  0  0  0
   -0.1480   -1.9417    0.0000 C   0  0  0  0  0  0  0  0  0  0  0  0
   -2.2914   -0.7042    0.0000 C   0  0  0  0  0  0  0  0  0  0  0  0
    3.0059    1.5292    0.0000 C   0  0  0  0  0  0  0  0  0  0  0  0
    2.7923    0.7323    0.0000 C   0  0  0  0  0  0  0  0  0  0  0  0
    2.2090    1.7427    0.0000 C   0  0  0  0  0  0  0  0  0  0  0  0
    1.9954   -0.7042    0.0000 C   0  0  0  0  0  0  0  0  0  0  0  0
   -2.2914   -1.5292    0.0000 C   0  0  0  0  0  0  0  0  0  0  0  0
   -3.0059   -0.2917    0.0000 C   0  0  0  0  0  0  0  0  0  0  0  0
    1.9954   -1.5292    0.0000 C   0  0  0  0  0  0  0  0  0  0  0  0
   -3.0059   -1.9417    0.0000 C   0  0  0  0  0  0  0  0  0  0  0  0
   -3.7203   -0.7042    0.0000 C   0  0  0  0  0  0  0  0  0  0  0  0
   -3.7203   -1.5292    0.0000 C   0  0  0  0  0  0  0  0  0  0  0  0
  1  7  1  0  0  0  0
  2 10  1  0  0  0  0
  3  8  1  0  0  0  0
  3 14  1  0  0  0  0
  4  9  1  0  0  0  0
  4 12  1  0  0  0  0
  5 15  1  0  0  0  0
  6  7  2  0  0  0  0
  6  9  1  0  0  0  0
  6 11  1  0  0  0  0
  7  8  1  0  0  0  0
  8 10  2  0  0  0  0
  9 18  1  0  0  0  0
 10 13  1  0  0  0  0
 11 13  2  0  0  0  0
 12 16  1  0  0  0  0
 12 17  1  0  0  0  0
 14 19  2  0  0  0  0
 14 20  1  0  0  0  0
 15 16  1  0  0  0  0
 15 17  1  0  0  0  0
 18 21  1  0  0  0  0
 19 22  1  0  0  0  0
 20 23  2  0  0  0  0
 22 24  2  0  0  0  0
 23 24  1  0  0  0  0
M  END
> <PUBCHEM_COMPOUND_ID_TYPE>
0

> <PUBCHEM_TOTAL_CHARGE>
0

> <PUBCHEM_SUBSTANCE_ID>
310939146

> <PUBCHEM_SUBSTANCE_VERSION>
1

> <PUBCHEM_EXT_DATASOURCE_NAME>
4488

> <PUBCHEM_EXT_DATASOURCE_REGID>
SCHEMBL16117067

> <PUBCHEM_SUBSTANCE_COMMENT>
InChI=1S/C19H22F2N2O/c1-2-17(23-13-10-12(22)11-13)15-8-9-16(20)19(18(15)21)24-14-6-4-3-5-7-14/h3-9,12-13,17,23H,2,10-11,22H2,1H3
InChIKey=BZHYCLYDKBMTRE-UHFFFAOYSA-N

> <PUBCHEM_SUBSTANCE_SYNONYM>
SCHEMBL16117067

> <PUBCHEM_XREF_EXT_ID>
SCHEMBL16117067

> <PUBCHEM_EXT_DATASOURCE_URL>
https://www.surechembl.org/

> <PUBCHEM_EXT_SUBSTANCE_URL>
https://www.surechembl.org/chemical/SCHEMBL16117067

> <PUBCHEM_CID_ASSOCIATIONS>
117606501  1

> <PUBCHEM_COORDINATE_TYPE>
1
3

$$$$
