310935076
  -OEChem-07211613022D

 39 44  0     1  0  0  0  0  0999 V2000
    1.1946   -6.4249    0.0000 O   0  0  0  0  0  0  0  0  0  0  0  0
    1.2592   -2.1632    0.0000 N   0  0  3  0  0  0  0  0  0  0  0  0
    1.2592   -0.7103    0.0000 N   0  0  0  0  0  0  0  0  0  0  0  0
    2.5183   -0.0323    0.0000 N   0  0  0  0  0  0  0  0  0  0  0  0
    2.4537   -5.7146    0.0000 N   0  0  0  0  0  0  0  0  0  0  0  0
    4.1326   -4.2940    0.0000 N   0  0  0  0  0  0  0  0  0  0  0  0
    5.3272   -5.0366    0.0000 N   0  0  0  0  0  0  0  0  0  0  0  0
    4.9075   -5.7792    0.0000 N   0  0  0  0  0  0  0  0  0  0  0  0
    2.4860   -1.4528    0.0000 C   0  0  0  0  0  0  0  0  0  0  0  0
    1.6789   -1.4528    0.0000 C   0  0  0  0  0  0  0  0  0  0  0  0
    2.9380   -0.7426    0.0000 C   0  0  0  0  0  0  0  0  0  0  0  0
    3.7129   -2.1632    0.0000 C   0  0  0  0  0  0  0  0  0  0  0  0
    3.7452   -0.7426    0.0000 C   0  0  0  0  0  0  0  0  0  0  0  0
    2.8735   -2.1632    0.0000 C   0  0  0  0  0  0  0  0  0  0  0  0
    1.2269   -3.5837    0.0000 C   0  0  0  0  0  0  0  0  0  0  0  0
    1.6466   -2.8735    0.0000 C   0  0  0  0  0  0  0  0  0  0  0  0
    0.4197   -3.5837    0.0000 C   0  0  0  0  0  0  0  0  0  0  0  0
    4.1326   -1.4528    0.0000 C   0  0  0  0  0  0  0  0  0  0  0  0
    4.1326   -2.9057    0.0000 C   0  0  0  0  0  0  0  0  0  0  0  0
    0.4197   -2.1309    0.0000 C   0  0  0  0  0  0  0  0  0  0  0  0
    1.2269   -5.0043    0.0000 C   0  0  0  0  0  0  0  0  0  0  0  0
    1.6466   -4.2940    0.0000 C   0  0  0  0  0  0  0  0  0  0  0  0
    0.0000   -2.8735    0.0000 C   0  0  0  0  0  0  0  0  0  0  0  0
    1.6789    0.0000    0.0000 C   0  0  0  0  0  0  0  0  0  0  0  0
    0.0000   -4.2617    0.0000 C   0  0  0  0  0  0  0  0  0  0  0  0
    1.6466   -5.7146    0.0000 C   0  0  0  0  0  0  0  0  0  0  0  0
    0.3875   -5.0043    0.0000 C   0  0  0  0  0  0  0  0  0  0  0  0
    3.6806   -3.5837    0.0000 C   0  0  0  0  0  0  0  0  0  0  0  0
    4.9398   -2.9057    0.0000 C   0  0  0  0  0  0  0  0  0  0  0  0
    4.1649   -0.0323    0.0000 C   0  0  0  0  0  0  0  0  0  0  0  0
    4.9398   -4.2940    0.0000 C   0  0  0  0  0  0  0  0  0  0  0  0
    5.3594   -3.5837    0.0000 C   0  0  0  0  0  0  0  0  0  0  0  0
    2.8735   -5.0043    0.0000 C   0  0  0  0  0  0  0  0  0  0  0  0
    2.8412   -6.4572    0.0000 C   0  0  0  0  0  0  0  0  0  0  0  0
    3.7129   -5.0366    0.0000 C   0  0  0  0  0  0  0  0  0  0  0  0
    3.6806   -6.4572    0.0000 C   0  0  0  0  0  0  0  0  0  0  0  0
    4.1003   -5.7469    0.0000 C   0  0  0  0  0  0  0  0  0  0  0  0
    6.1666   -5.0366    0.0000 C   0  0  0  0  0  0  0  0  0  0  0  0
    5.0689   -5.9083    0.0000 C   0  0  0  0  0  0  0  0  0  0  0  0
  1 26  2  0  0  0  0
  2 10  1  0  0  0  0
  2 16  1  0  0  0  0
  2 20  1  0  0  0  0
  3 10  1  0  0  0  0
  3 24  2  0  0  0  0
  4 11  2  0  0  0  0
  4 24  1  0  0  0  0
  5 26  1  0  0  0  0
  5 33  1  0  0  0  0
  5 34  1  0  0  0  0
  6 28  2  0  0  0  0
  6 31  1  0  0  0  0
  7 31  1  0  0  0  0
  7 38  1  0  0  0  0
  7 39  1  0  0  0  0
  8 37  1  0  0  0  0
  9 10  2  0  0  0  0
  9 11  1  0  0  0  0
  9 14  1  0  0  0  0
 11 13  1  0  0  0  0
 12 14  2  0  0  0  0
 12 18  1  0  0  0  0
 12 19  1  0  0  0  0
 13 18  2  0  0  0  0
 13 30  1  0  0  0  0
 15 16  1  0  0  0  0
 15 17  2  0  0  0  0
 15 22  1  0  0  0  0
 17 23  1  0  0  0  0
 17 25  1  0  0  0  0
 19 28  1  0  0  0  0
 19 29  2  0  0  0  0
 20 23  1  0  0  0  0
 21 22  2  0  0  0  0
 21 26  1  0  0  0  0
 21 27  1  0  0  0  0
 25 27  2  0  0  0  0
 29 32  1  0  0  0  0
 31 32  2  0  0  0  0
 33 35  1  0  0  0  0
 34 36  1  0  0  0  0
 35 37  1  0  0  0  0
 36 37  1  0  0  0  0
M  END
> <PUBCHEM_COMPOUND_ID_TYPE>
0

> <PUBCHEM_TOTAL_CHARGE>
0

> <PUBCHEM_SUBSTANCE_ID>
310935076

> <PUBCHEM_SUBSTANCE_VERSION>
1

> <PUBCHEM_EXT_DATASOURCE_NAME>
4488

> <PUBCHEM_EXT_DATASOURCE_REGID>
SCHEMBL16112602

> <PUBCHEM_SUBSTANCE_COMMENT>
InChI=1S/C31H35N7O/c1-20-14-24(23-6-7-28(33-17-23)36(2)3)16-27-29(20)34-19-35-30(27)38-11-8-21-4-5-22(15-25(21)18-38)31(39)37-12-9-26(32)10-13-37/h4-7,14-17,19,26H,8-13,18,32H2,1-3H3
InChIKey=TUURSZJJCBUPMN-UHFFFAOYSA-N

> <PUBCHEM_SUBSTANCE_SYNONYM>
SCHEMBL16112602

> <PUBCHEM_XREF_EXT_ID>
SCHEMBL16112602

> <PUBCHEM_EXT_DATASOURCE_URL>
https://www.surechembl.org/

> <PUBCHEM_EXT_SUBSTANCE_URL>
https://www.surechembl.org/chemical/SCHEMBL16112602

> <PUBCHEM_CID_ASSOCIATIONS>
86301206  1

> <PUBCHEM_COORDINATE_TYPE>
1
3

$$$$
