310934759
  -OEChem-07211613022D

 34 37  0     1  0  0  0  0  0999 V2000
    5.3820   -0.7071    0.0000 S   0  0  0  0  0  0  0  0  0  0  0  0
    2.4749    0.0000    0.0000 O   0  0  0  0  0  0  0  0  0  0  0  0
    6.2070   -0.7071    0.0000 O   0  0  0  0  0  0  0  0  0  0  0  0
    5.7749    0.0000    0.0000 O   0  0  0  0  0  0  0  0  0  0  0  0
    1.6499   -1.4142    0.0000 O   0  0  0  0  0  0  0  0  0  0  0  0
    1.6893   -2.8285    0.0000 O   0  0  0  0  0  0  0  0  0  0  0  0
    3.2999   -1.4142    0.0000 N   0  0  0  0  0  0  0  0  0  0  0  0
    2.4749   -1.4142    0.0000 N   0  0  0  0  0  0  0  0  0  0  0  0
    3.6928   -0.7071    0.0000 C   0  0  0  0  0  0  0  0  0  0  0  0
    2.8678   -0.7071    0.0000 C   0  0  0  0  0  0  0  0  0  0  0  0
    4.1249   -1.4142    0.0000 C   0  0  0  0  0  0  0  0  0  0  0  0
    4.1249    0.0000    0.0000 C   0  0  0  0  0  0  0  0  0  0  0  0
    4.9499   -1.4142    0.0000 C   0  0  0  0  0  0  0  0  0  0  0  0
    4.9499    0.0000    0.0000 C   0  0  0  0  0  0  0  0  0  0  0  0
    3.7321   -2.1214    0.0000 C   0  0  0  0  0  0  0  0  0  0  0  0
    3.2999   -2.8678    0.0000 C   0  0  0  0  0  0  0  0  0  0  0  0
    1.2178   -2.1214    0.0000 C   0  0  3  0  0  0  0  0  0  0  0  0
    2.4749   -2.8678    0.0000 C   0  0  0  0  0  0  0  0  0  0  0  0
    3.7321   -3.5749    0.0000 C   0  0  0  0  0  0  0  0  0  0  0  0
    2.5142   -4.2820    0.0000 C   0  0  0  0  0  0  0  0  0  0  0  0
    2.0821   -3.5749    0.0000 C   0  0  0  0  0  0  0  0  0  0  0  0
    3.3392   -4.2820    0.0000 C   0  0  0  0  0  0  0  0  0  0  0  0
    0.4321   -2.1214    0.0000 C   0  0  0  0  0  0  0  0  0  0  0  0
    2.0821   -4.9892    0.0000 C   0  0  0  0  0  0  0  0  0  0  0  0
    1.2178   -3.5356    0.0000 C   0  0  0  0  0  0  0  0  0  0  0  0
    0.0000   -2.8285    0.0000 C   0  0  0  0  0  0  0  0  0  0  0  0
    2.5142   -5.6963    0.0000 C   0  0  0  0  0  0  0  0  0  0  0  0
    2.1214   -6.4427    0.0000 C   0  0  0  0  0  0  0  0  0  0  0  0
    0.4321   -3.5356    0.0000 C   0  0  0  0  0  0  0  0  0  0  0  0
    2.5142   -7.1498    0.0000 C   0  0  0  0  0  0  0  0  0  0  0  0
    1.2964   -6.4427    0.0000 C   0  0  0  0  0  0  0  0  0  0  0  0
    2.1214   -7.8570    0.0000 C   0  0  0  0  0  0  0  0  0  0  0  0
    0.9035   -7.1498    0.0000 C   0  0  0  0  0  0  0  0  0  0  0  0
    1.2964   -7.8570    0.0000 C   0  0  0  0  0  0  0  0  0  0  0  0
  1  3  2  0  0  0  0
  1  4  2  0  0  0  0
  1 13  1  0  0  0  0
  1 14  1  0  0  0  0
  2 10  2  0  0  0  0
  5  8  1  0  0  0  0
  5 17  1  0  0  0  0
  6 17  1  0  0  0  0
  6 25  1  0  0  0  0
  7  9  1  0  0  0  0
  7 15  1  0  0  0  0
  8 10  1  0  0  0  0
  9 10  1  0  0  0  0
  9 11  1  0  0  0  0
  9 12  1  0  0  0  0
 11 13  1  0  0  0  0
 12 14  1  0  0  0  0
 15 16  1  0  0  0  0
 16 18  2  0  0  0  0
 16 19  1  0  0  0  0
 17 23  1  0  0  0  0
 18 21  1  0  0  0  0
 19 22  2  0  0  0  0
 20 21  2  0  0  0  0
 20 22  1  0  0  0  0
 20 24  1  0  0  0  0
 23 26  1  0  0  0  0
 24 27  3  0  0  0  0
 25 29  1  0  0  0  0
 26 29  1  0  0  0  0
 27 28  1  0  0  0  0
 28 30  2  0  0  0  0
 28 31  1  0  0  0  0
 30 32  1  0  0  0  0
 31 33  2  0  0  0  0
 32 34  2  0  0  0  0
 33 34  1  0  0  0  0
M  END
> <PUBCHEM_COMPOUND_ID_TYPE>
0

> <PUBCHEM_TOTAL_CHARGE>
0

> <PUBCHEM_SUBSTANCE_ID>
310934759

> <PUBCHEM_SUBSTANCE_VERSION>
1

> <PUBCHEM_EXT_DATASOURCE_NAME>
4488

> <PUBCHEM_EXT_DATASOURCE_REGID>
SCHEMBL16112261

> <PUBCHEM_SUBSTANCE_COMMENT>
InChI=1S/C26H30N2O5S/c29-25(28-33-24-8-4-5-17-32-24)26(15-18-34(30,31)19-16-26)27-20-23-13-11-22(12-14-23)10-9-21-6-2-1-3-7-21/h1-3,6-7,11-14,24,27H,4-5,8,15-20H2,(H,28,29)
InChIKey=CQRAELCWFQQYBW-UHFFFAOYSA-N

> <PUBCHEM_SUBSTANCE_SYNONYM>
SCHEMBL16112261

> <PUBCHEM_XREF_EXT_ID>
SCHEMBL16112261

> <PUBCHEM_EXT_DATASOURCE_URL>
https://www.surechembl.org/

> <PUBCHEM_EXT_SUBSTANCE_URL>
https://www.surechembl.org/chemical/SCHEMBL16112261

> <PUBCHEM_CID_ASSOCIATIONS>
117602910  1

> <PUBCHEM_COORDINATE_TYPE>
1
3

$$$$
