310932128
  -OEChem-07211613022D

 51 56  0     1  0  0  0  0  0999 V2000
   -4.2868   -2.4750    0.0000 Cl  0  0  0  0  0  0  0  0  0  0  0  0
   -2.8579   -1.6500    0.0000 F   0  0  0  0  0  0  0  0  0  0  0  0
   -0.7145    1.2375    0.0000 O   0  0  0  0  0  0  0  0  0  0  0  0
   -1.4289    0.8250    0.0000 O   0  0  0  0  0  0  0  0  0  0  0  0
   -0.0000    4.9500    0.0000 O   0  0  0  0  0  0  0  0  0  0  0  0
    1.4289    4.9500    0.0000 O   0  0  0  0  0  0  0  0  0  0  0  0
   -0.7145   -0.4125    0.0000 N   0  0  0  0  0  0  0  0  0  0  0  0
    1.4289   -2.4750    0.0000 N   0  0  3  0  0  0  0  0  0  0  0  0
    0.7145    1.2375    0.0000 N   0  0  0  0  0  0  0  0  0  0  0  0
   -4.2868    0.8250    0.0000 N   0  0  0  0  0  0  0  0  0  0  0  0
    2.3264   -4.4120    0.0000 N   0  0  0  0  0  0  0  0  0  0  0  0
   -4.9543    1.3099    0.0000 N   0  0  0  0  0  0  0  0  0  0  0  0
   -4.6993    2.0945    0.0000 N   0  0  0  0  0  0  0  0  0  0  0  0
   -3.8743    2.0945    0.0000 N   0  0  0  0  0  0  0  0  0  0  0  0
    0.7145   -0.4125    0.0000 C   0  0  0  0  0  0  0  0  0  0  0  0
    0.0000    0.0000    0.0000 C   0  0  3  0  0  0  0  0  0  0  0  0
    0.7145   -1.2375    0.0000 C   0  0  0  0  0  0  0  0  0  0  0  0
    1.4289   -1.6500    0.0000 C   0  0  0  0  0  0  0  0  0  0  0  0
    0.0000    0.8250    0.0000 C   0  0  0  0  0  0  0  0  0  0  0  0
    0.0000   -1.6500    0.0000 C   0  0  0  0  0  0  0  0  0  0  0  0
   -0.7145   -1.2375    0.0000 C   0  0  0  0  0  0  0  0  0  0  0  0
    1.4289    0.0000    0.0000 C   0  0  0  0  0  0  0  0  0  0  0  0
   -1.4289   -0.0000    0.0000 C   0  0  0  0  0  0  0  0  0  0  0  0
    2.1434   -1.2375    0.0000 C   0  0  0  0  0  0  0  0  0  0  0  0
    2.1434   -0.4125    0.0000 C   0  0  0  0  0  0  0  0  0  0  0  0
   -3.5724   -0.4125    0.0000 C   0  0  0  0  0  0  0  0  0  0  0  0
    2.0964   -2.9599    0.0000 C   0  0  0  0  0  0  0  0  0  0  0  0
   -4.2868   -0.0000    0.0000 C   0  0  0  0  0  0  0  0  0  0  0  0
    0.7615   -2.9599    0.0000 C   0  0  0  0  0  0  0  0  0  0  0  0
   -2.1434   -0.4125    0.0000 C   0  0  0  0  0  0  0  0  0  0  0  0
    1.8414   -3.7445    0.0000 C   0  0  3  0  0  0  0  0  0  0  0  0
   -3.5724   -1.2375    0.0000 C   0  0  0  0  0  0  0  0  0  0  0  0
   -2.8579   -0.0000    0.0000 C   0  0  0  0  0  0  0  0  0  0  0  0
    1.0164   -3.7445    0.0000 C   0  0  0  0  0  0  0  0  0  0  0  0
    0.7145    2.0625    0.0000 C   0  0  0  0  0  0  0  0  0  0  0  0
   -4.2868   -1.6500    0.0000 C   0  0  0  0  0  0  0  0  0  0  0  0
   -5.0013   -0.4125    0.0000 C   0  0  0  0  0  0  0  0  0  0  0  0
   -5.0013   -1.2375    0.0000 C   0  0  0  0  0  0  0  0  0  0  0  0
   -3.6194    1.3099    0.0000 C   0  0  0  0  0  0  0  0  0  0  0  0
    1.4289    2.4750    0.0000 C   0  0  0  0  0  0  0  0  0  0  0  0
   -0.0000    2.4750    0.0000 C   0  0  0  0  0  0  0  0  0  0  0  0
    0.7145    3.7125    0.0000 C   0  0  0  0  0  0  0  0  0  0  0  0
    1.4289    3.3000    0.0000 C   0  0  0  0  0  0  0  0  0  0  0  0
   -0.0000    3.3000    0.0000 C   0  0  0  0  0  0  0  0  0  0  0  0
    0.7145    4.5375    0.0000 C   0  0  0  0  0  0  0  0  0  0  0  0
    3.1468   -4.3257    0.0000 C   0  0  0  0  0  0  0  0  0  0  0  0
    1.9908   -5.1657    0.0000 C   0  0  0  0  0  0  0  0  0  0  0  0
   -0.0000    5.7750    0.0000 C   0  0  0  0  0  0  0  0  0  0  0  0
   -0.0000    6.6000    0.0000 C   0  0  0  0  0  0  0  0  0  0  0  0
   -0.8250    5.7750    0.0000 C   0  0  0  0  0  0  0  0  0  0  0  0
    0.8250    5.7750    0.0000 C   0  0  0  0  0  0  0  0  0  0  0  0
  1 36  1  0  0  0  0
  2 32  1  0  0  0  0
  3 19  2  0  0  0  0
  4 23  2  0  0  0  0
  5 45  1  0  0  0  0
  5 48  1  0  0  0  0
  6 45  2  0  0  0  0
  7 16  1  0  0  0  0
  7 21  1  0  0  0  0
  7 23  1  0  0  0  0
  8 18  1  6  0  0  0
  8 27  1  0  0  0  0
  8 29  1  0  0  0  0
  9 19  1  0  0  0  0
  9 35  1  0  0  0  0
 10 12  1  0  0  0  0
 10 28  1  0  0  0  0
 10 39  1  0  0  0  0
 11 31  1  0  0  0  0
 11 46  1  0  0  0  0
 11 47  1  0  0  0  0
 12 13  2  0  0  0  0
 13 14  1  0  0  0  0
 14 39  2  0  0  0  0
 15 16  1  0  0  0  0
 15 17  2  0  0  0  0
 15 22  1  0  0  0  0
 16 19  1  6  0  0  0
 17 18  1  0  0  0  0
 17 20  1  0  0  0  0
 18 24  2  0  0  0  0
 20 21  1  0  0  0  0
 22 25  2  0  0  0  0
 23 30  1  0  0  0  0
 24 25  1  0  0  0  0
 26 28  1  0  0  0  0
 26 32  2  0  0  0  0
 26 33  1  0  0  0  0
 27 31  1  0  0  0  0
 28 37  2  0  0  0  0
 29 34  1  0  0  0  0
 30 33  2  0  0  0  0
 31 34  1  0  0  0  0
 32 36  1  0  0  0  0
 35 40  2  0  0  0  0
 35 41  1  0  0  0  0
 36 38  2  0  0  0  0
 37 38  1  0  0  0  0
 40 43  1  0  0  0  0
 41 44  2  0  0  0  0
 42 43  2  0  0  0  0
 42 44  1  0  0  0  0
 42 45  1  0  0  0  0
 48 49  1  0  0  0  0
 48 50  1  0  0  0  0
 48 51  1  0  0  0  0
M  END
> <PUBCHEM_COMPOUND_ID_TYPE>
0

> <PUBCHEM_TOTAL_CHARGE>
0

> <PUBCHEM_SUBSTANCE_ID>
310932128

> <PUBCHEM_SUBSTANCE_VERSION>
1

> <PUBCHEM_EXT_DATASOURCE_NAME>
4488

> <PUBCHEM_EXT_DATASOURCE_REGID>
SCHEMBL16109480

> <PUBCHEM_SUBSTANCE_COMMENT>
InChI=1S/C37H40ClFN8O4/c1-37(2,3)51-36(50)23-9-11-24(12-10-23)41-35(49)34-27-7-6-8-30(45-19-17-25(21-45)44(4)5)26(27)18-20-46(34)32(48)16-13-28-31(47-22-40-42-43-47)15-14-29(38)33(28)39/h6-16,22,25,34H,17-21H2,1-5H3,(H,41,49)/t25?,34-/m0/s1
InChIKey=WRSOKRBWXAXPRJ-NCJJPXCVSA-N

> <PUBCHEM_SUBSTANCE_SYNONYM>
SCHEMBL16109480

> <PUBCHEM_XREF_EXT_ID>
SCHEMBL16109480

> <PUBCHEM_EXT_DATASOURCE_URL>
https://www.surechembl.org/

> <PUBCHEM_EXT_SUBSTANCE_URL>
https://www.surechembl.org/chemical/SCHEMBL16109480

> <PUBCHEM_CID_ASSOCIATIONS>
117600740  1

> <PUBCHEM_COORDINATE_TYPE>
1
3

> <PUBCHEM_BONDANNOTATIONS>
16  19  6
33  26  3
8  18  6

$$$$
