310941223
  -OEChem-07211613022D

 42 45  0     1  0  0  0  0  0999 V2000
    5.0812   -1.1062    0.0000 O   0  0  0  0  0  0  0  0  0  0  0  0
    3.9394    0.8493    0.0000 O   0  0  0  0  0  0  0  0  0  0  0  0
    1.7841   -1.2204    0.0000 O   0  0  0  0  0  0  0  0  0  0  0  0
   -0.3853    0.8493    0.0000 O   0  0  0  0  0  0  0  0  0  0  0  0
    2.4978    3.3470    0.0000 O   0  0  0  0  0  0  0  0  0  0  0  0
   -2.5406   -1.2204    0.0000 O   0  0  0  0  0  0  0  0  0  0  0  0
   -5.4236   -1.2204    0.0000 O   0  0  0  0  0  0  0  0  0  0  0  0
    2.5121    0.0214    0.0000 N   0  0  0  0  0  0  0  0  0  0  0  0
    0.3425   -0.3925    0.0000 N   0  0  0  0  0  0  0  0  0  0  0  0
   -1.8269    0.0214    0.0000 N   0  0  0  0  0  0  0  0  0  0  0  0
   -3.9822   -0.3925    0.0000 N   0  0  0  0  0  0  0  0  0  0  0  0
    4.6673   -0.3782    0.0000 C   0  0  3  0  0  0  0  0  0  0  0  0
    3.9394    0.0357    0.0000 C   0  0  0  0  0  0  0  0  0  0  0  0
    4.2677   -1.0919    0.0000 C   0  0  0  0  0  0  0  0  0  0  0  0
    3.2399   -0.3639    0.0000 C   0  0  3  0  0  0  0  0  0  0  0  0
    5.4236    0.0499    0.0000 C   0  0  0  0  0  0  0  0  0  0  0  0
    3.2257   -1.6913    0.0000 C   0  0  0  0  0  0  0  0  0  0  0  0
    1.7984   -0.3497    0.0000 C   0  0  0  0  0  0  0  0  0  0  0  0
    1.0705    0.0499    0.0000 C   0  0  3  0  0  0  0  0  0  0  0  0
    2.5121   -2.1052    0.0000 C   0  0  0  0  0  0  0  0  0  0  0  0
    1.0848    0.8921    0.0000 C   0  0  0  0  0  0  0  0  0  0  0  0
    1.7841    1.2917    0.0000 C   0  0  0  0  0  0  0  0  0  0  0  0
   -0.3853    0.0357    0.0000 C   0  0  0  0  0  0  0  0  0  0  0  0
    1.7841   -1.7199    0.0000 C   0  0  0  0  0  0  0  0  0  0  0  0
    2.5121   -2.9331    0.0000 C   0  0  0  0  0  0  0  0  0  0  0  0
    1.7984    2.1195    0.0000 C   0  0  0  0  0  0  0  0  0  0  0  0
   -1.0848   -0.3639    0.0000 C   0  0  3  0  0  0  0  0  0  0  0  0
    2.5121    2.5335    0.0000 C   0  0  0  0  0  0  0  0  0  0  0  0
    2.5121    0.8921    0.0000 C   0  0  0  0  0  0  0  0  0  0  0  0
    3.2257    2.1337    0.0000 C   0  0  0  0  0  0  0  0  0  0  0  0
    3.2257    1.2917    0.0000 C   0  0  0  0  0  0  0  0  0  0  0  0
    1.0848   -2.1195    0.0000 C   0  0  0  0  0  0  0  0  0  0  0  0
    1.7841   -3.3470    0.0000 C   0  0  0  0  0  0  0  0  0  0  0  0
    1.0848   -2.9473    0.0000 C   0  0  0  0  0  0  0  0  0  0  0  0
   -2.5406   -0.3497    0.0000 C   0  0  0  0  0  0  0  0  0  0  0  0
   -1.0991   -1.2061    0.0000 C   0  0  0  0  0  0  0  0  0  0  0  0
   -3.2685    0.0357    0.0000 C   0  0  0  0  0  0  0  0  0  0  0  0
    3.9679    2.5192    0.0000 C   0  0  0  0  0  0  0  0  0  0  0  0
   -3.9822   -1.1918    0.0000 C   0  0  0  0  0  0  0  0  0  0  0  0
   -4.7101    0.0357    0.0000 C   0  0  0  0  0  0  0  0  0  0  0  0
   -4.6958   -1.6057    0.0000 C   0  0  0  0  0  0  0  0  0  0  0  0
   -5.4094   -0.3639    0.0000 C   0  0  0  0  0  0  0  0  0  0  0  0
  1 12  1  0  0  0  0
  1 14  1  0  0  0  0
  2 13  2  0  0  0  0
  3 18  2  0  0  0  0
  4 23  2  0  0  0  0
  5 28  1  0  0  0  0
  6 35  2  0  0  0  0
  7 41  1  0  0  0  0
  7 42  1  0  0  0  0
  8 15  1  0  0  0  0
  8 18  1  0  0  0  0
  9 19  1  0  0  0  0
  9 23  1  0  0  0  0
 10 27  1  0  0  0  0
 10 35  1  0  0  0  0
 11 37  1  0  0  0  0
 11 39  1  0  0  0  0
 11 40  1  0  0  0  0
 12 13  1  0  0  0  0
 12 14  1  0  0  0  0
 12 16  1  0  0  0  0
 13 15  1  0  0  0  0
 15 17  1  0  0  0  0
 17 20  1  0  0  0  0
 18 19  1  0  0  0  0
 19 21  1  0  0  0  0
 20 24  2  0  0  0  0
 20 25  1  0  0  0  0
 21 22  1  0  0  0  0
 22 26  1  0  0  0  0
 22 29  2  0  0  0  0
 23 27  1  0  0  0  0
 24 32  1  0  0  0  0
 25 33  1  0  0  0  0
 26 28  2  0  0  0  0
 27 36  1  0  0  0  0
 28 30  1  0  0  0  0
 29 31  1  0  0  0  0
 30 31  2  0  0  0  0
 30 38  1  0  0  0  0
 32 34  1  0  0  0  0
 33 34  1  0  0  0  0
 35 37  1  0  0  0  0
 39 41  1  0  0  0  0
 40 42  1  0  0  0  0
M  END
> <PUBCHEM_COMPOUND_ID_TYPE>
0

> <PUBCHEM_TOTAL_CHARGE>
0

> <PUBCHEM_SUBSTANCE_ID>
310941223

> <PUBCHEM_SUBSTANCE_VERSION>
1

> <PUBCHEM_EXT_DATASOURCE_NAME>
4488

> <PUBCHEM_EXT_DATASOURCE_REGID>
SCHEMBL16119183

> <PUBCHEM_SUBSTANCE_COMMENT>
InChI=1S/C31H44N4O7/c1-20-9-10-23(17-26(20)36)16-25(34-29(39)21(2)32-27(37)18-35-11-13-41-14-12-35)30(40)33-24(28(38)31(3)19-42-31)15-22-7-5-4-6-8-22/h7,9-10,17,21,24-25,36H,4-6,8,11-16,18-19H2,1-3H3,(H,32,37)(H,33,40)(H,34,39)
InChIKey=HHTGIMKCGQZMEV-UHFFFAOYSA-N

> <PUBCHEM_SUBSTANCE_SYNONYM>
SCHEMBL16119183

> <PUBCHEM_XREF_EXT_ID>
SCHEMBL16119183

> <PUBCHEM_EXT_DATASOURCE_URL>
https://www.surechembl.org/

> <PUBCHEM_EXT_SUBSTANCE_URL>
https://www.surechembl.org/chemical/SCHEMBL16119183

> <PUBCHEM_CID_ASSOCIATIONS>
86296926  1

> <PUBCHEM_COORDINATE_TYPE>
1
3

$$$$
