310942291
  -OEChem-07211613022D

 22 24  0     1  0  0  0  0  0999 V2000
   -2.1787   -2.0554    0.0000 O   0  0  0  0  0  0  0  0  0  0  0  0
   -2.8913   -0.8359    0.0000 O   0  0  0  0  0  0  0  0  0  0  0  0
   -0.2192   -0.4247    0.0000 N   0  0  0  0  0  0  0  0  0  0  0  0
    0.5892   -0.5481    0.0000 N   0  0  0  0  0  0  0  0  0  0  0  0
    2.0554    1.4388    0.0000 N   0  0  0  0  0  0  0  0  0  0  0  0
   -0.6715    0.2604    0.0000 C   0  0  0  0  0  0  0  0  0  0  0  0
   -0.7262   -1.0688    0.0000 C   0  0  0  0  0  0  0  0  0  0  0  0
   -1.5073   -0.7811    0.0000 C   0  0  0  0  0  0  0  0  0  0  0  0
   -1.4388    0.0411    0.0000 C   0  0  0  0  0  0  0  0  0  0  0  0
   -0.3700    1.0414    0.0000 C   0  0  3  0  0  0  0  0  0  0  0  0
   -2.1787   -1.2058    0.0000 C   0  0  0  0  0  0  0  0  0  0  0  0
   -0.4385   -1.8362    0.0000 C   0  0  0  0  0  0  0  0  0  0  0  0
    0.4247    1.1647    0.0000 C   0  0  0  0  0  0  0  0  0  0  0  0
   -2.1239    0.5755    0.0000 C   0  0  0  0  0  0  0  0  0  0  0  0
    0.8907   -1.3155    0.0000 C   0  0  0  0  0  0  0  0  0  0  0  0
    0.3837   -1.9594    0.0000 C   0  0  0  0  0  0  0  0  0  0  0  0
   -0.9181    1.6854    0.0000 C   0  0  0  0  0  0  0  0  0  0  0  0
    0.7262    1.9458    0.0000 C   0  0  0  0  0  0  0  0  0  0  0  0
    0.9592    0.5207    0.0000 C   0  0  0  0  0  0  0  0  0  0  0  0
    1.5347    2.0554    0.0000 C   0  0  0  0  0  0  0  0  0  0  0  0
    1.7539    0.6577    0.0000 C   0  0  0  0  0  0  0  0  0  0  0  0
    2.8913    1.5758    0.0000 C   0  0  0  0  0  0  0  0  0  0  0  0
  1 11  2  0  0  0  0
  2 11  1  0  0  0  0
  3  4  1  0  0  0  0
  3  6  1  0  0  0  0
  3  7  1  0  0  0  0
  4 15  2  0  0  0  0
  5 20  1  0  0  0  0
  5 21  1  0  0  0  0
  5 22  1  0  0  0  0
  6  9  2  0  0  0  0
  6 10  1  0  0  0  0
  7  8  2  0  0  0  0
  7 12  1  0  0  0  0
  8  9  1  0  0  0  0
  8 11  1  0  0  0  0
  9 14  1  0  0  0  0
 10 13  1  0  0  0  0
 10 17  1  0  0  0  0
 12 16  2  0  0  0  0
 13 18  1  0  0  0  0
 13 19  1  0  0  0  0
 15 16  1  0  0  0  0
 18 20  1  0  0  0  0
 19 21  1  0  0  0  0
M  END
> <PUBCHEM_COMPOUND_ID_TYPE>
0

> <PUBCHEM_TOTAL_CHARGE>
0

> <PUBCHEM_SUBSTANCE_ID>
310942291

> <PUBCHEM_SUBSTANCE_VERSION>
1

> <PUBCHEM_EXT_DATASOURCE_NAME>
4488

> <PUBCHEM_EXT_DATASOURCE_REGID>
SCHEMBL16120326

> <PUBCHEM_SUBSTANCE_COMMENT>
InChI=1S/C17H23N3O2/c1-11(13-6-9-19(3)10-7-13)16-12(2)15(17(21)22)14-5-4-8-18-20(14)16/h4-5,8,11,13H,6-7,9-10H2,1-3H3,(H,21,22)
InChIKey=CSPXFTIULOKMDH-UHFFFAOYSA-N

> <PUBCHEM_SUBSTANCE_SYNONYM>
SCHEMBL16120326

> <PUBCHEM_XREF_EXT_ID>
SCHEMBL16120326

> <PUBCHEM_EXT_DATASOURCE_URL>
https://www.surechembl.org/

> <PUBCHEM_EXT_SUBSTANCE_URL>
https://www.surechembl.org/chemical/SCHEMBL16120326

> <PUBCHEM_CID_ASSOCIATIONS>
117608939  1

> <PUBCHEM_COORDINATE_TYPE>
1
3

$$$$
