310930053
  -OEChem-07211613022D

 27 29  0     1  0  0  0  0  0999 V2000
    0.8555   -3.3304    0.0000 S   0  0  0  0  0  0  0  0  0  0  0  0
    0.8555   -2.5054    0.0000 O   0  0  0  0  0  0  0  0  0  0  0  0
    1.6805   -3.3304    0.0000 O   0  0  0  0  0  0  0  0  0  0  0  0
    0.0000   -3.3304    0.0000 O   0  0  0  0  0  0  0  0  0  0  0  0
    0.8555   -4.1553    0.0000 O   0  0  0  0  0  0  0  0  0  0  0  0
    6.7219   -3.3304    0.0000 N   0  0  0  0  0  0  0  0  0  0  0  0
    7.3940   -2.1999    0.0000 N   0  0  0  0  0  0  0  0  0  0  0  0
    5.8969   -2.1082    0.0000 N   0  0  0  0  0  0  0  0  0  0  0  0
    5.1636   -2.5054    0.0000 N   0  0  0  0  0  0  0  0  0  0  0  0
    2.2915   -0.8555    0.0000 N   0  0  3  0  0  0  0  0  0  0  0  0
    7.5163   -3.5443    0.0000 C   0  0  0  0  0  0  0  0  0  0  0  0
    7.9440   -2.8110    0.0000 C   0  0  0  0  0  0  0  0  0  0  0  0
    6.6302   -2.5360    0.0000 C   0  0  0  0  0  0  0  0  0  0  0  0
    4.4608   -2.0777    0.0000 C   0  0  0  0  0  0  0  0  0  0  0  0
    2.9943   -1.2527    0.0000 C   0  0  0  0  0  0  0  0  0  0  0  0
    3.7276   -2.5054    0.0000 C   0  0  0  0  0  0  0  0  0  0  0  0
    2.9943   -2.0777    0.0000 C   0  0  0  0  0  0  0  0  0  0  0  0
    7.9440   -4.2470    0.0000 C   0  0  0  0  0  0  0  0  0  0  0  0
    8.7690   -2.8110    0.0000 C   0  0  0  0  0  0  0  0  0  0  0  0
    4.4608   -1.2527    0.0000 C   0  0  0  0  0  0  0  0  0  0  0  0
    3.7276   -0.8249    0.0000 C   0  0  0  0  0  0  0  0  0  0  0  0
    8.7384   -4.2470    0.0000 C   0  0  0  0  0  0  0  0  0  0  0  0
    9.1662   -3.5137    0.0000 C   0  0  0  0  0  0  0  0  0  0  0  0
    1.5582   -1.2527    0.0000 C   0  0  0  0  0  0  0  0  0  0  0  0
    3.7276   -3.3304    0.0000 C   0  0  0  0  0  0  0  0  0  0  0  0
    1.5582   -2.0777    0.0000 C   0  0  0  0  0  0  0  0  0  0  0  0
    2.2915    0.0000    0.0000 C   0  0  0  0  0  0  0  0  0  0  0  0
  1  2  1  0  0  0  0
  1  3  2  0  0  0  0
  1  4  2  0  0  0  0
  1  5  1  0  0  0  0
  2 26  1  0  0  0  0
  6 11  1  0  0  0  0
  6 13  2  0  0  0  0
  7 12  1  0  0  0  0
  7 13  1  0  0  0  0
  8  9  2  0  0  0  0
  8 13  1  0  0  0  0
  9 14  1  0  0  0  0
 10 15  1  0  0  0  0
 10 24  1  0  0  0  0
 10 27  1  0  0  0  0
 11 12  2  0  0  0  0
 11 18  1  0  0  0  0
 12 19  1  0  0  0  0
 14 16  1  0  0  0  0
 14 20  2  0  0  0  0
 15 17  1  0  0  0  0
 15 21  2  0  0  0  0
 16 17  2  0  0  0  0
 16 25  1  0  0  0  0
 18 22  2  0  0  0  0
 19 23  2  0  0  0  0
 20 21  1  0  0  0  0
 22 23  1  0  0  0  0
 24 26  1  0  0  0  0
M  END
> <PUBCHEM_COMPOUND_ID_TYPE>
0

> <PUBCHEM_TOTAL_CHARGE>
0

> <PUBCHEM_SUBSTANCE_ID>
310930053

> <PUBCHEM_SUBSTANCE_VERSION>
1

> <PUBCHEM_EXT_DATASOURCE_NAME>
4488

> <PUBCHEM_EXT_DATASOURCE_REGID>
SCHEMBL16107293

> <PUBCHEM_SUBSTANCE_COMMENT>
InChI=1S/C17H19N5O4S/c1-12-11-13(22(2)9-10-26-27(23,24)25)7-8-14(12)20-21-17-18-15-5-3-4-6-16(15)19-17/h3-8,11H,9-10H2,1-2H3,(H,18,19)(H,23,24,25)/b21-20+
InChIKey=OPJUZNNZTITVLJ-QZQOTICOSA-N

> <PUBCHEM_SUBSTANCE_SYNONYM>
SCHEMBL16107293

> <PUBCHEM_XREF_EXT_ID>
SCHEMBL16107293

> <PUBCHEM_EXT_DATASOURCE_URL>
https://www.surechembl.org/

> <PUBCHEM_EXT_SUBSTANCE_URL>
https://www.surechembl.org/chemical/SCHEMBL16107293

> <PUBCHEM_CID_ASSOCIATIONS>
117599297  1

> <PUBCHEM_COORDINATE_TYPE>
1
3

$$$$
