310938282
  -OEChem-07211613022D

 14 14  0     1  0  0  0  0  0999 V2000
    2.8861   -1.7121    0.0000 O   0  0  0  0  0  0  0  0  0  0  0  0
    1.4349   -1.9241    0.0000 O   0  0  0  0  0  0  0  0  0  0  0  0
    4.1906   -1.0272    0.0000 O   0  0  0  0  0  0  0  0  0  0  0  0
    0.7990   -3.2611    0.0000 O   0  0  0  0  0  0  0  0  0  0  0  0
    2.1035   -1.4512    0.0000 C   0  0  3  0  0  0  0  0  0  0  0  0
    2.1035   -0.6196    0.0000 C   0  0  0  0  0  0  0  0  0  0  0  0
    3.3590   -1.0272    0.0000 C   0  0  0  0  0  0  0  0  0  0  0  0
    2.8861   -0.3587    0.0000 C   0  0  0  0  0  0  0  0  0  0  0  0
    1.4349   -0.1468    0.0000 C   0  0  0  0  0  0  0  0  0  0  0  0
    1.5164   -2.7393    0.0000 C   0  0  0  0  0  0  0  0  0  0  0  0
    0.6848   -0.4892    0.0000 C   0  0  0  0  0  0  0  0  0  0  0  0
    2.2338   -3.0655    0.0000 C   0  0  0  0  0  0  0  0  0  0  0  0
    0.5870   -1.3207    0.0000 C   0  0  0  0  0  0  0  0  0  0  0  0
    0.0000    0.0000    0.0000 C   0  0  0  0  0  0  0  0  0  0  0  0
  1  5  1  0  0  0  0
  1  7  1  0  0  0  0
  2  5  1  0  0  0  0
  2 10  1  0  0  0  0
  3  7  2  0  0  0  0
  4 10  2  0  0  0  0
  5  6  1  0  0  0  0
  6  8  2  0  0  0  0
  6  9  1  0  0  0  0
  7  8  1  0  0  0  0
  9 11  2  0  0  0  0
 10 12  1  0  0  0  0
 11 13  1  0  0  0  0
 11 14  1  0  0  0  0
M  END
> <PUBCHEM_COMPOUND_ID_TYPE>
0

> <PUBCHEM_TOTAL_CHARGE>
0

> <PUBCHEM_SUBSTANCE_ID>
310938282

> <PUBCHEM_SUBSTANCE_VERSION>
1

> <PUBCHEM_EXT_DATASOURCE_NAME>
4488

> <PUBCHEM_EXT_DATASOURCE_REGID>
SCHEMBL16116152

> <PUBCHEM_SUBSTANCE_COMMENT>
InChI=1S/C10H12O4/c1-6(2)4-8-5-9(12)14-10(8)13-7(3)11/h4-5,10H,1-3H3
InChIKey=FSXXLBWHYCEOON-UHFFFAOYSA-N

> <PUBCHEM_SUBSTANCE_SYNONYM>
SCHEMBL16116152

> <PUBCHEM_XREF_EXT_ID>
SCHEMBL16116152

> <PUBCHEM_EXT_DATASOURCE_URL>
https://www.surechembl.org/

> <PUBCHEM_EXT_SUBSTANCE_URL>
https://www.surechembl.org/chemical/SCHEMBL16116152

> <PUBCHEM_CID_ASSOCIATIONS>
117605788  1

> <PUBCHEM_COORDINATE_TYPE>
1
3

$$$$
