310940543
  -OEChem-07211613022D

 31 35  0     1  0  0  0  0  0999 V2000
    2.6247   -0.2954    0.0000 O   0  0  0  0  0  0  0  0  0  0  0  0
   -1.5666   -0.4329    0.0000 O   0  0  0  0  0  0  0  0  0  0  0  0
    2.8446    1.1062    0.0000 O   0  0  0  0  0  0  0  0  0  0  0  0
   -2.8446   -2.3568    0.0000 O   0  0  0  0  0  0  0  0  0  0  0  0
    1.4979    0.3779    0.0000 N   0  0  0  0  0  0  0  0  0  0  0  0
    1.3330   -2.0545    0.0000 N   0  0  0  0  0  0  0  0  0  0  0  0
   -2.4324   -3.0851    0.0000 N   0  0  0  0  0  0  0  0  0  0  0  0
    0.7695    3.1676    0.0000 N   0  0  0  0  0  0  0  0  0  0  0  0
    1.3055   -0.3505    0.0000 C   0  0  0  0  0  0  0  0  0  0  0  0
    0.5909   -0.7764    0.0000 C   0  0  0  0  0  0  0  0  0  0  0  0
    2.0201   -0.7627    0.0000 C   0  0  0  0  0  0  0  0  0  0  0  0
    0.5772   -1.5873    0.0000 C   0  0  0  0  0  0  0  0  0  0  0  0
    2.2674    0.5153    0.0000 C   0  0  0  0  0  0  0  0  0  0  0  0
   -0.8520   -1.6010    0.0000 C   0  0  0  0  0  0  0  0  0  0  0  0
   -0.8383   -0.7764    0.0000 C   0  0  0  0  0  0  0  0  0  0  0  0
   -0.1374   -0.3642    0.0000 C   0  0  0  0  0  0  0  0  0  0  0  0
    0.8658    1.0376    0.0000 C   0  0  3  0  0  0  0  0  0  0  0  0
   -0.1374   -1.9995    0.0000 C   0  0  0  0  0  0  0  0  0  0  0  0
   -1.5666   -2.0133    0.0000 C   0  0  0  0  0  0  0  0  0  0  0  0
    2.0063   -1.6010    0.0000 C   0  0  0  0  0  0  0  0  0  0  0  0
    1.0994    1.8346    0.0000 C   0  0  0  0  0  0  0  0  0  0  0  0
   -2.3224   -1.6560    0.0000 C   0  0  0  0  0  0  0  0  0  0  0  0
   -1.6903   -2.8378    0.0000 C   0  0  0  0  0  0  0  0  0  0  0  0
    0.0824    0.8039    0.0000 C   0  0  0  0  0  0  0  0  0  0  0  0
    0.5222    2.4117    0.0000 C   0  0  0  0  0  0  0  0  0  0  0  0
    1.8964    2.0545    0.0000 C   0  0  0  0  0  0  0  0  0  0  0  0
   -2.4874   -0.8589    0.0000 C   0  0  0  0  0  0  0  0  0  0  0  0
   -1.0581   -3.4149    0.0000 C   0  0  0  0  0  0  0  0  0  0  0  0
   -1.5804    0.4878    0.0000 C   0  0  0  0  0  0  0  0  0  0  0  0
    2.1163    2.8516    0.0000 C   0  0  0  0  0  0  0  0  0  0  0  0
    1.5391    3.4149    0.0000 C   0  0  0  0  0  0  0  0  0  0  0  0
  1 11  1  0  0  0  0
  1 13  1  0  0  0  0
  2 15  1  0  0  0  0
  2 29  1  0  0  0  0
  3 13  2  0  0  0  0
  4  7  1  0  0  0  0
  4 22  1  0  0  0  0
  5  9  1  0  0  0  0
  5 13  1  0  0  0  0
  5 17  1  0  0  0  0
  6 12  2  0  0  0  0
  6 20  1  0  0  0  0
  7 23  2  0  0  0  0
  8 25  1  0  0  0  0
  8 31  2  0  0  0  0
  9 10  2  0  0  0  0
  9 11  1  0  0  0  0
 10 12  1  0  0  0  0
 10 16  1  0  0  0  0
 11 20  2  0  0  0  0
 12 18  1  0  0  0  0
 14 15  1  0  0  0  0
 14 18  2  0  0  0  0
 14 19  1  0  0  0  0
 15 16  2  0  0  0  0
 17 21  1  0  0  0  0
 17 24  1  0  0  0  0
 19 22  2  0  0  0  0
 19 23  1  0  0  0  0
 21 25  2  0  0  0  0
 21 26  1  0  0  0  0
 22 27  1  0  0  0  0
 23 28  1  0  0  0  0
 26 30  2  0  0  0  0
 30 31  1  0  0  0  0
M  END
> <PUBCHEM_COMPOUND_ID_TYPE>
0

> <PUBCHEM_TOTAL_CHARGE>
0

> <PUBCHEM_SUBSTANCE_ID>
310940543

> <PUBCHEM_SUBSTANCE_VERSION>
1

> <PUBCHEM_EXT_DATASOURCE_NAME>
4488

> <PUBCHEM_EXT_DATASOURCE_REGID>
SCHEMBL16118497

> <PUBCHEM_SUBSTANCE_COMMENT>
InChI=1S/C23H20N4O4/c1-12-21(14(3)31-26-12)17-8-18-16(9-19(17)29-4)22-20(11-25-18)30-23(28)27(22)13(2)15-6-5-7-24-10-15/h5-11,13H,1-4H3
InChIKey=CMRWIFKEFJSRTR-UHFFFAOYSA-N

> <PUBCHEM_SUBSTANCE_SYNONYM>
SCHEMBL16118497

> <PUBCHEM_XREF_EXT_ID>
SCHEMBL16118497

> <PUBCHEM_EXT_DATASOURCE_URL>
https://www.surechembl.org/

> <PUBCHEM_EXT_SUBSTANCE_URL>
https://www.surechembl.org/chemical/SCHEMBL16118497

> <PUBCHEM_CID_ASSOCIATIONS>
117607544  1

> <PUBCHEM_COORDINATE_TYPE>
1
3

$$$$
