310945721
  -OEChem-07211613022D

 14 15  0     1  0  0  0  0  0999 V2000
    1.2894    0.5232    0.0000 S   0  0  0  0  0  0  0  0  0  0  0  0
    1.8687   -0.0748    0.0000 O   0  0  0  0  0  0  0  0  0  0  0  0
    2.0742    0.7101    0.0000 O   0  0  0  0  0  0  0  0  0  0  0  0
    0.5793    0.1308    0.0000 N   0  0  3  0  0  0  0  0  0  0  0  0
   -0.5045   -1.7752    0.0000 N   0  0  0  0  0  0  0  0  0  0  0  0
   -1.3081   -1.5884    0.0000 N   0  0  0  0  0  0  0  0  0  0  0  0
   -0.6727   -0.4485    0.0000 C   0  0  0  0  0  0  0  0  0  0  0  0
   -0.1308   -1.0278    0.0000 C   0  0  0  0  0  0  0  0  0  0  0  0
   -0.2616    0.2803    0.0000 C   0  0  0  0  0  0  0  0  0  0  0  0
    0.6354   -0.6914    0.0000 C   0  0  0  0  0  0  0  0  0  0  0  0
   -1.4015   -0.7474    0.0000 C   0  0  0  0  0  0  0  0  0  0  0  0
    1.3081    1.3081    0.0000 C   0  0  0  0  0  0  0  0  0  0  0  0
   -2.0742   -0.3363    0.0000 C   0  0  0  0  0  0  0  0  0  0  0  0
    0.5606    1.7752    0.0000 C   0  0  0  0  0  0  0  0  0  0  0  0
  1  2  2  0  0  0  0
  1  3  2  0  0  0  0
  1  4  1  0  0  0  0
  1 12  1  0  0  0  0
  4  9  1  0  0  0  0
  4 10  1  0  0  0  0
  5  6  1  0  0  0  0
  5  8  1  0  0  0  0
  6 11  2  0  0  0  0
  7  8  2  0  0  0  0
  7  9  1  0  0  0  0
  7 11  1  0  0  0  0
  8 10  1  0  0  0  0
 11 13  1  0  0  0  0
 12 14  1  0  0  0  0
M  END
> <PUBCHEM_COMPOUND_ID_TYPE>
0

> <PUBCHEM_TOTAL_CHARGE>
0

> <PUBCHEM_SUBSTANCE_ID>
310945721

> <PUBCHEM_SUBSTANCE_VERSION>
1

> <PUBCHEM_EXT_DATASOURCE_NAME>
4488

> <PUBCHEM_EXT_DATASOURCE_REGID>
SCHEMBL16123825

> <PUBCHEM_SUBSTANCE_COMMENT>
InChI=1S/C8H13N3O2S/c1-3-14(12,13)11-4-7-6(2)9-10-8(7)5-11/h3-5H2,1-2H3,(H,9,10)
InChIKey=NVEVQSWVVKCLJV-UHFFFAOYSA-N

> <PUBCHEM_SUBSTANCE_SYNONYM>
SCHEMBL16123825

> <PUBCHEM_XREF_EXT_ID>
SCHEMBL16123825

> <PUBCHEM_EXT_DATASOURCE_URL>
https://www.surechembl.org/

> <PUBCHEM_EXT_SUBSTANCE_URL>
https://www.surechembl.org/chemical/SCHEMBL16123825

> <PUBCHEM_CID_ASSOCIATIONS>
117611718  1

> <PUBCHEM_COORDINATE_TYPE>
1
3

$$$$
