310941272
  -OEChem-07211613022D

 41 44  0     1  0  0  0  0  0999 V2000
    5.2041   -1.4326    0.0000 O   0  0  0  0  0  0  0  0  0  0  0  0
    4.0639    0.5408    0.0000 O   0  0  0  0  0  0  0  0  0  0  0  0
    1.6811   -1.4180    0.0000 O   0  0  0  0  0  0  0  0  0  0  0  0
   -0.4824    0.6725    0.0000 O   0  0  0  0  0  0  0  0  0  0  0  0
    2.3974    3.1722    0.0000 O   0  0  0  0  0  0  0  0  0  0  0  0
    3.8446    2.3389    0.0000 O   0  0  0  0  0  0  0  0  0  0  0  0
   -2.6459   -1.4180    0.0000 O   0  0  0  0  0  0  0  0  0  0  0  0
   -5.5257   -1.4180    0.0000 O   0  0  0  0  0  0  0  0  0  0  0  0
    2.3974   -0.1608    0.0000 N   0  0  0  0  0  0  0  0  0  0  0  0
    0.2339   -0.5847    0.0000 N   0  0  0  0  0  0  0  0  0  0  0  0
   -1.9296   -0.1608    0.0000 N   0  0  0  0  0  0  0  0  0  0  0  0
   -4.0931   -0.5847    0.0000 N   0  0  0  0  0  0  0  0  0  0  0  0
    4.7948   -0.6870    0.0000 C   0  0  3  0  0  0  0  0  0  0  0  0
    4.0492   -0.2777    0.0000 C   0  0  0  0  0  0  0  0  0  0  0  0
    4.3855   -1.3887    0.0000 C   0  0  0  0  0  0  0  0  0  0  0  0
    3.3622   -0.6725    0.0000 C   0  0  3  0  0  0  0  0  0  0  0  0
    5.5257   -0.2631    0.0000 C   0  0  0  0  0  0  0  0  0  0  0  0
    3.3476   -1.7688    0.0000 C   0  0  0  0  0  0  0  0  0  0  0  0
    1.6957   -0.5263    0.0000 C   0  0  0  0  0  0  0  0  0  0  0  0
    0.9502   -0.1315    0.0000 C   0  0  3  0  0  0  0  0  0  0  0  0
    2.6313   -2.1781    0.0000 C   0  0  0  0  0  0  0  0  0  0  0  0
    0.9794    0.7017    0.0000 C   0  0  0  0  0  0  0  0  0  0  0  0
    1.6957    1.1110    0.0000 C   0  0  0  0  0  0  0  0  0  0  0  0
   -0.4824   -0.1608    0.0000 C   0  0  0  0  0  0  0  0  0  0  0  0
    1.8712   -1.8565    0.0000 C   0  0  0  0  0  0  0  0  0  0  0  0
    2.5290   -2.9967    0.0000 C   0  0  0  0  0  0  0  0  0  0  0  0
    1.7103    1.9589    0.0000 C   0  0  0  0  0  0  0  0  0  0  0  0
   -1.1840   -0.5408    0.0000 C   0  0  3  0  0  0  0  0  0  0  0  0
    2.4120    2.3682    0.0000 C   0  0  0  0  0  0  0  0  0  0  0  0
    2.4120    0.7017    0.0000 C   0  0  0  0  0  0  0  0  0  0  0  0
    3.1283    1.9589    0.0000 C   0  0  0  0  0  0  0  0  0  0  0  0
    1.3302   -2.4704    0.0000 C   0  0  0  0  0  0  0  0  0  0  0  0
    1.7250   -3.1722    0.0000 C   0  0  0  0  0  0  0  0  0  0  0  0
    3.1283    1.1110    0.0000 C   0  0  0  0  0  0  0  0  0  0  0  0
   -2.6313   -0.5263    0.0000 C   0  0  0  0  0  0  0  0  0  0  0  0
   -3.3914   -0.1462    0.0000 C   0  0  0  0  0  0  0  0  0  0  0  0
   -1.1987   -1.4033    0.0000 C   0  0  0  0  0  0  0  0  0  0  0  0
   -4.0785   -1.3887    0.0000 C   0  0  0  0  0  0  0  0  0  0  0  0
   -4.8094   -0.1462    0.0000 C   0  0  0  0  0  0  0  0  0  0  0  0
   -4.7802   -1.7981    0.0000 C   0  0  0  0  0  0  0  0  0  0  0  0
   -5.5111   -0.5408    0.0000 C   0  0  0  0  0  0  0  0  0  0  0  0
  1 13  1  0  0  0  0
  1 15  1  0  0  0  0
  2 14  2  0  0  0  0
  3 19  2  0  0  0  0
  4 24  2  0  0  0  0
  5 29  1  0  0  0  0
  6 31  1  0  0  0  0
  7 35  2  0  0  0  0
  8 40  1  0  0  0  0
  8 41  1  0  0  0  0
  9 16  1  0  0  0  0
  9 19  1  0  0  0  0
 10 20  1  0  0  0  0
 10 24  1  0  0  0  0
 11 28  1  0  0  0  0
 11 35  1  0  0  0  0
 12 36  1  0  0  0  0
 12 38  1  0  0  0  0
 12 39  1  0  0  0  0
 13 14  1  0  0  0  0
 13 15  1  0  0  0  0
 13 17  1  0  0  0  0
 14 16  1  0  0  0  0
 16 18  1  0  0  0  0
 18 21  1  0  0  0  0
 19 20  1  0  0  0  0
 20 22  1  0  0  0  0
 21 25  1  0  0  0  0
 21 26  1  0  0  0  0
 22 23  1  0  0  0  0
 23 27  1  0  0  0  0
 23 30  2  0  0  0  0
 24 28  1  0  0  0  0
 25 32  1  0  0  0  0
 26 33  1  0  0  0  0
 27 29  2  0  0  0  0
 28 37  1  0  0  0  0
 29 31  1  0  0  0  0
 30 34  1  0  0  0  0
 31 34  2  0  0  0  0
 32 33  1  0  0  0  0
 35 36  1  0  0  0  0
 38 40  1  0  0  0  0
 39 41  1  0  0  0  0
M  END
> <PUBCHEM_COMPOUND_ID_TYPE>
0

> <PUBCHEM_TOTAL_CHARGE>
0

> <PUBCHEM_SUBSTANCE_ID>
310941272

> <PUBCHEM_SUBSTANCE_VERSION>
1

> <PUBCHEM_EXT_DATASOURCE_NAME>
4488

> <PUBCHEM_EXT_DATASOURCE_REGID>
SCHEMBL16119232

> <PUBCHEM_SUBSTANCE_COMMENT>
InChI=1S/C29H42N4O8/c1-18(30-25(36)16-33-9-11-40-12-10-33)27(38)32-22(14-20-7-8-23(34)24(35)15-20)28(39)31-21(13-19-5-3-4-6-19)26(37)29(2)17-41-29/h7-8,15,18-19,21-22,34-35H,3-6,9-14,16-17H2,1-2H3,(H,30,36)(H,31,39)(H,32,38)
InChIKey=KJTBONIOPBNOQA-UHFFFAOYSA-N

> <PUBCHEM_SUBSTANCE_SYNONYM>
SCHEMBL16119232

> <PUBCHEM_XREF_EXT_ID>
SCHEMBL16119232

> <PUBCHEM_EXT_DATASOURCE_URL>
https://www.surechembl.org/

> <PUBCHEM_EXT_SUBSTANCE_URL>
https://www.surechembl.org/chemical/SCHEMBL16119232

> <PUBCHEM_CID_ASSOCIATIONS>
86297506  1

> <PUBCHEM_COORDINATE_TYPE>
1
3

$$$$
