310947128
  -OEChem-07211613022D

  9  9  0     1  0  0  0  0  0999 V2000
    1.0754   -1.2449    0.0000 P   0  0  0  0  0  0  0  0  0  0  0  0
    1.0754   -0.4199    0.0000 N   0  0  0  0  0  0  0  0  0  0  0  0
    1.0754    1.2449    0.0000 N   0  0  0  0  0  0  0  0  0  0  0  0
    0.3389    0.0074    0.0000 C   0  0  3  0  0  0  0  0  0  0  0  0
    0.3683    0.8323    0.0000 C   0  0  3  0  0  0  0  0  0  0  0  0
   -0.3536   -0.4051    0.0000 C   0  0  0  0  0  0  0  0  0  0  0  0
   -0.3683    1.2301    0.0000 C   0  0  0  0  0  0  0  0  0  0  0  0
   -1.0754    0.0074    0.0000 C   0  0  0  0  0  0  0  0  0  0  0  0
   -1.0754    0.8323    0.0000 C   0  0  0  0  0  0  0  0  0  0  0  0
  1  2  1  0  0  0  0
  2  4  1  0  0  0  0
  3  5  1  0  0  0  0
  4  5  1  0  0  0  0
  4  6  1  0  0  0  0
  5  7  1  0  0  0  0
  6  8  1  0  0  0  0
  7  9  1  0  0  0  0
  8  9  1  0  0  0  0
M  END
> <PUBCHEM_COMPOUND_ID_TYPE>
0

> <PUBCHEM_TOTAL_CHARGE>
0

> <PUBCHEM_SUBSTANCE_ID>
310947128

> <PUBCHEM_SUBSTANCE_VERSION>
1

> <PUBCHEM_EXT_DATASOURCE_NAME>
4488

> <PUBCHEM_EXT_DATASOURCE_REGID>
SCHEMBL16125282

> <PUBCHEM_SUBSTANCE_COMMENT>
InChI=1S/C6H15N2P/c7-5-3-1-2-4-6(5)8-9/h5-6,8H,1-4,7,9H2
InChIKey=RXVQBVOYKQYPCU-UHFFFAOYSA-N

> <PUBCHEM_SUBSTANCE_SYNONYM>
SCHEMBL16125282

> <PUBCHEM_XREF_EXT_ID>
SCHEMBL16125282

> <PUBCHEM_EXT_DATASOURCE_URL>
https://www.surechembl.org/

> <PUBCHEM_EXT_SUBSTANCE_URL>
https://www.surechembl.org/chemical/SCHEMBL16125282

> <PUBCHEM_CID_ASSOCIATIONS>
117612976  1

> <PUBCHEM_COORDINATE_TYPE>
1
3

$$$$
