310947759
  -OEChem-07211613022D

 36 38  0     1  0  0  0  0  0999 V2000
    0.1557   -2.9682    0.0000 O   0  0  0  0  0  0  0  0  0  0  0  0
   -2.2766    2.5395    0.0000 O   0  0  0  0  0  0  0  0  0  0  0  0
    3.9121    2.3849    0.0000 O   0  0  0  0  0  0  0  0  0  0  0  0
    2.5318    2.0150    0.0000 O   0  0  0  0  0  0  0  0  0  0  0  0
   -0.2141   -1.5880    0.0000 N   0  0  0  0  0  0  0  0  0  0  0  0
   -0.8816   -1.1031    0.0000 N   0  0  0  0  0  0  0  0  0  0  0  0
    1.5786    0.0514    0.0000 N   0  0  3  0  0  0  0  0  0  0  0  0
   -1.0391    1.8250    0.0000 N   0  0  0  0  0  0  0  0  0  0  0  0
    3.5422    1.0046    0.0000 N   0  0  0  0  0  0  0  0  0  0  0  0
   -0.6266   -0.3184    0.0000 C   0  0  0  0  0  0  0  0  0  0  0  0
    0.1984   -0.3184    0.0000 C   0  0  0  0  0  0  0  0  0  0  0  0
   -1.0391    0.3960    0.0000 C   0  0  0  0  0  0  0  0  0  0  0  0
    0.4533   -1.1031    0.0000 C   0  0  0  0  0  0  0  0  0  0  0  0
   -0.4277   -2.3849    0.0000 C   0  0  3  0  0  0  0  0  0  0  0  0
    0.7817    0.2649    0.0000 C   0  0  0  0  0  0  0  0  0  0  0  0
   -0.6266    1.1105    0.0000 C   0  0  0  0  0  0  0  0  0  0  0  0
   -1.8641    0.3960    0.0000 C   0  0  0  0  0  0  0  0  0  0  0  0
   -1.2245   -2.5984    0.0000 C   0  0  0  0  0  0  0  0  0  0  0  0
   -1.8641    1.8250    0.0000 C   0  0  0  0  0  0  0  0  0  0  0  0
   -2.2766    1.1105    0.0000 C   0  0  0  0  0  0  0  0  0  0  0  0
   -0.0578   -3.7651    0.0000 C   0  0  0  0  0  0  0  0  0  0  0  0
   -1.4381   -3.3953    0.0000 C   0  0  0  0  0  0  0  0  0  0  0  0
    2.1620    0.6348    0.0000 C   0  0  0  0  0  0  0  0  0  0  0  0
   -0.8547   -3.9786    0.0000 C   0  0  0  0  0  0  0  0  0  0  0  0
    2.9589    0.4212    0.0000 C   0  0  0  0  0  0  0  0  0  0  0  0
    1.7921   -0.7455    0.0000 C   0  0  0  0  0  0  0  0  0  0  0  0
    3.3287    1.8015    0.0000 C   0  0  0  0  0  0  0  0  0  0  0  0
    3.6985    3.1818    0.0000 C   0  0  0  0  0  0  0  0  0  0  0  0
   -3.1016    2.5395    0.0000 C   0  0  0  0  0  0  0  0  0  0  0  0
    4.3391    0.7911    0.0000 C   0  0  0  0  0  0  0  0  0  0  0  0
   -3.5141    3.2539    0.0000 C   0  0  0  0  0  0  0  0  0  0  0  0
    3.4850    3.9786    0.0000 C   0  0  0  0  0  0  0  0  0  0  0  0
    2.9017    3.3953    0.0000 C   0  0  0  0  0  0  0  0  0  0  0  0
    4.2819    3.7651    0.0000 C   0  0  0  0  0  0  0  0  0  0  0  0
   -4.3391    3.2539    0.0000 C   0  0  0  0  0  0  0  0  0  0  0  0
   -3.1016    3.9684    0.0000 C   0  0  0  0  0  0  0  0  0  0  0  0
  1 14  1  0  0  0  0
  1 21  1  0  0  0  0
  2 19  1  0  0  0  0
  2 29  1  0  0  0  0
  3 27  1  0  0  0  0
  3 28  1  0  0  0  0
  4 27  2  0  0  0  0
  5  6  1  0  0  0  0
  5 13  1  0  0  0  0
  5 14  1  0  0  0  0
  6 10  2  0  0  0  0
  7 15  1  0  0  0  0
  7 23  1  0  0  0  0
  7 26  1  0  0  0  0
  8 16  2  0  0  0  0
  8 19  1  0  0  0  0
  9 25  1  0  0  0  0
  9 27  1  0  0  0  0
  9 30  1  0  0  0  0
 10 11  1  0  0  0  0
 10 12  1  0  0  0  0
 11 13  2  0  0  0  0
 11 15  1  0  0  0  0
 12 16  1  0  0  0  0
 12 17  2  0  0  0  0
 14 18  1  0  0  0  0
 17 20  1  0  0  0  0
 18 22  1  0  0  0  0
 19 20  2  0  0  0  0
 21 24  1  0  0  0  0
 22 24  1  0  0  0  0
 23 25  1  0  0  0  0
 28 32  1  0  0  0  0
 28 33  1  0  0  0  0
 28 34  1  0  0  0  0
 29 31  1  0  0  0  0
 31 35  1  0  0  0  0
 31 36  1  0  0  0  0
M  END
> <PUBCHEM_COMPOUND_ID_TYPE>
0

> <PUBCHEM_TOTAL_CHARGE>
0

> <PUBCHEM_SUBSTANCE_ID>
310947759

> <PUBCHEM_SUBSTANCE_VERSION>
1

> <PUBCHEM_EXT_DATASOURCE_NAME>
4488

> <PUBCHEM_EXT_DATASOURCE_REGID>
SCHEMBL16125931

> <PUBCHEM_SUBSTANCE_COMMENT>
InChI=1S/C27H43N5O4/c1-20(2)19-35-23-12-11-21(16-28-23)25-22(18-32(29-25)24-10-8-9-15-34-24)17-30(6)13-14-31(7)26(33)36-27(3,4)5/h11-12,16,18,20,24H,8-10,13-15,17,19H2,1-7H3
InChIKey=PPDBSAIUBVCLCO-UHFFFAOYSA-N

> <PUBCHEM_SUBSTANCE_SYNONYM>
SCHEMBL16125931

> <PUBCHEM_XREF_EXT_ID>
SCHEMBL16125931

> <PUBCHEM_EXT_DATASOURCE_URL>
https://www.surechembl.org/

> <PUBCHEM_EXT_SUBSTANCE_URL>
https://www.surechembl.org/chemical/SCHEMBL16125931

> <PUBCHEM_CID_ASSOCIATIONS>
117613434  1

> <PUBCHEM_COORDINATE_TYPE>
1
3

$$$$
