310941116
  -OEChem-07211613022D

 43 46  0     1  0  0  0  0  0999 V2000
    5.0442   -1.3144    0.0000 O   0  0  0  0  0  0  0  0  0  0  0  0
    3.9156    0.6400    0.0000 O   0  0  0  0  0  0  0  0  0  0  0  0
    1.7686   -1.4245    0.0000 O   0  0  0  0  0  0  0  0  0  0  0  0
    2.4843    3.1174    0.0000 O   0  0  0  0  0  0  0  0  0  0  0  0
   -0.3647    0.6400    0.0000 O   0  0  0  0  0  0  0  0  0  0  0  0
    3.9156    2.2916    0.0000 O   0  0  0  0  0  0  0  0  0  0  0  0
   -2.5118   -1.4245    0.0000 O   0  0  0  0  0  0  0  0  0  0  0  0
   -5.3609   -1.4245    0.0000 O   0  0  0  0  0  0  0  0  0  0  0  0
    2.4980   -0.1720    0.0000 N   0  0  0  0  0  0  0  0  0  0  0  0
    0.3510   -0.5849    0.0000 N   0  0  0  0  0  0  0  0  0  0  0  0
   -1.7961   -0.1720    0.0000 N   0  0  0  0  0  0  0  0  0  0  0  0
   -3.9294   -0.5849    0.0000 N   0  0  0  0  0  0  0  0  0  0  0  0
    4.6313   -0.5849    0.0000 C   0  0  3  0  0  0  0  0  0  0  0  0
    3.9019   -0.1858    0.0000 C   0  0  0  0  0  0  0  0  0  0  0  0
    4.2460   -1.3006    0.0000 C   0  0  0  0  0  0  0  0  0  0  0  0
    3.2137   -0.5849    0.0000 C   0  0  3  0  0  0  0  0  0  0  0  0
    5.3609   -0.1720    0.0000 C   0  0  0  0  0  0  0  0  0  0  0  0
    3.2000   -1.9200    0.0000 C   0  0  0  0  0  0  0  0  0  0  0  0
    1.7823   -0.5574    0.0000 C   0  0  0  0  0  0  0  0  0  0  0  0
    1.0529   -0.1720    0.0000 C   0  0  3  0  0  0  0  0  0  0  0  0
    2.4980   -2.3191    0.0000 C   0  0  0  0  0  0  0  0  0  0  0  0
    1.0667    0.6537    0.0000 C   0  0  0  0  0  0  0  0  0  0  0  0
    1.7823    1.0667    0.0000 C   0  0  0  0  0  0  0  0  0  0  0  0
   -0.3647   -0.1995    0.0000 C   0  0  0  0  0  0  0  0  0  0  0  0
    1.7823    1.8925    0.0000 C   0  0  0  0  0  0  0  0  0  0  0  0
    2.4843    2.3053    0.0000 C   0  0  0  0  0  0  0  0  0  0  0  0
    1.7823   -1.9200    0.0000 C   0  0  0  0  0  0  0  0  0  0  0  0
    2.4843   -3.1449    0.0000 C   0  0  0  0  0  0  0  0  0  0  0  0
    2.4843    0.6675    0.0000 C   0  0  0  0  0  0  0  0  0  0  0  0
    3.2137    1.8925    0.0000 C   0  0  0  0  0  0  0  0  0  0  0  0
   -1.0667   -0.5712    0.0000 C   0  0  3  0  0  0  0  0  0  0  0  0
    3.2000    1.0667    0.0000 C   0  0  0  0  0  0  0  0  0  0  0  0
    1.0667   -2.3191    0.0000 C   0  0  0  0  0  0  0  0  0  0  0  0
    1.7961   -3.5578    0.0000 C   0  0  0  0  0  0  0  0  0  0  0  0
    1.0667   -3.1449    0.0000 C   0  0  0  0  0  0  0  0  0  0  0  0
   -2.5118   -0.5574    0.0000 C   0  0  0  0  0  0  0  0  0  0  0  0
   -1.0667   -1.4245    0.0000 C   0  0  0  0  0  0  0  0  0  0  0  0
   -3.2275   -0.1720    0.0000 C   0  0  0  0  0  0  0  0  0  0  0  0
    3.2275    3.5578    0.0000 C   0  0  0  0  0  0  0  0  0  0  0  0
   -3.9432   -1.4245    0.0000 C   0  0  0  0  0  0  0  0  0  0  0  0
   -4.6451   -0.1720    0.0000 C   0  0  0  0  0  0  0  0  0  0  0  0
   -4.6313   -1.8236    0.0000 C   0  0  0  0  0  0  0  0  0  0  0  0
   -5.3471   -0.5849    0.0000 C   0  0  0  0  0  0  0  0  0  0  0  0
  1 13  1  0  0  0  0
  1 15  1  0  0  0  0
  2 14  2  0  0  0  0
  3 19  2  0  0  0  0
  4 26  1  0  0  0  0
  4 39  1  0  0  0  0
  5 24  2  0  0  0  0
  6 30  1  0  0  0  0
  7 36  2  0  0  0  0
  8 42  1  0  0  0  0
  8 43  1  0  0  0  0
  9 16  1  0  0  0  0
  9 19  1  0  0  0  0
 10 20  1  0  0  0  0
 10 24  1  0  0  0  0
 11 31  1  0  0  0  0
 11 36  1  0  0  0  0
 12 38  1  0  0  0  0
 12 40  1  0  0  0  0
 12 41  1  0  0  0  0
 13 14  1  0  0  0  0
 13 15  1  0  0  0  0
 13 17  1  0  0  0  0
 14 16  1  0  0  0  0
 16 18  1  0  0  0  0
 18 21  1  0  0  0  0
 19 20  1  0  0  0  0
 20 22  1  0  0  0  0
 21 27  2  0  0  0  0
 21 28  1  0  0  0  0
 22 23  1  0  0  0  0
 23 25  1  0  0  0  0
 23 29  2  0  0  0  0
 24 31  1  0  0  0  0
 25 26  2  0  0  0  0
 26 30  1  0  0  0  0
 27 33  1  0  0  0  0
 28 34  2  0  0  0  0
 29 32  1  0  0  0  0
 30 32  2  0  0  0  0
 31 37  1  0  0  0  0
 33 35  2  0  0  0  0
 34 35  1  0  0  0  0
 36 38  1  0  0  0  0
 40 42  1  0  0  0  0
 41 43  1  0  0  0  0
M  END
> <PUBCHEM_COMPOUND_ID_TYPE>
0

> <PUBCHEM_TOTAL_CHARGE>
0

> <PUBCHEM_SUBSTANCE_ID>
310941116

> <PUBCHEM_SUBSTANCE_VERSION>
1

> <PUBCHEM_EXT_DATASOURCE_NAME>
4488

> <PUBCHEM_EXT_DATASOURCE_REGID>
SCHEMBL16119076

> <PUBCHEM_SUBSTANCE_COMMENT>
InChI=1S/C31H40N4O8/c1-20(32-27(37)18-35-11-13-42-14-12-35)29(39)34-24(16-22-9-10-25(36)26(17-22)41-3)30(40)33-23(28(38)31(2)19-43-31)15-21-7-5-4-6-8-21/h4-10,17,20,23-24,36H,11-16,18-19H2,1-3H3,(H,32,37)(H,33,40)(H,34,39)
InChIKey=TXOKALPNIFQYQZ-UHFFFAOYSA-N

> <PUBCHEM_SUBSTANCE_SYNONYM>
SCHEMBL16119076

> <PUBCHEM_XREF_EXT_ID>
SCHEMBL16119076

> <PUBCHEM_EXT_DATASOURCE_URL>
https://www.surechembl.org/

> <PUBCHEM_EXT_SUBSTANCE_URL>
https://www.surechembl.org/chemical/SCHEMBL16119076

> <PUBCHEM_CID_ASSOCIATIONS>
117607999  1

> <PUBCHEM_COORDINATE_TYPE>
1
3

$$$$
