310939078
  -OEChem-07211613022D

 26 28  0     1  0  0  0  0  0999 V2000
    2.5237   -2.1434    0.0000 F   0  0  0  0  0  0  0  0  0  0  0  0
    2.5237    0.7145    0.0000 F   0  0  0  0  0  0  0  0  0  0  0  0
    1.4437   -1.4991    0.0000 O   0  0  0  0  0  0  0  0  0  0  0  0
   -0.4612    0.7145    0.0000 O   0  0  0  0  0  0  0  0  0  0  0  0
    1.0313   -0.2295    0.0000 N   0  0  0  0  0  0  0  0  0  0  0  0
    1.6987   -0.7145    0.0000 C   0  0  0  0  0  0  0  0  0  0  0  0
    0.3638   -0.7145    0.0000 C   0  0  3  0  0  0  0  0  0  0  0  0
    2.5237   -0.7145    0.0000 C   0  0  0  0  0  0  0  0  0  0  0  0
   -0.4612   -0.7145    0.0000 C   0  0  0  0  0  0  0  0  0  0  0  0
   -0.8737    0.0000    0.0000 C   0  0  0  0  0  0  0  0  0  0  0  0
    2.9362   -1.4289    0.0000 C   0  0  0  0  0  0  0  0  0  0  0  0
    2.9362    0.0000    0.0000 C   0  0  0  0  0  0  0  0  0  0  0  0
    0.6187   -1.4991    0.0000 C   0  0  0  0  0  0  0  0  0  0  0  0
   -0.8737   -1.4289    0.0000 C   0  0  0  0  0  0  0  0  0  0  0  0
   -1.6987    0.0000    0.0000 C   0  0  0  0  0  0  0  0  0  0  0  0
   -2.1112   -0.7145    0.0000 C   0  0  0  0  0  0  0  0  0  0  0  0
    3.7612   -1.4289    0.0000 C   0  0  0  0  0  0  0  0  0  0  0  0
    3.7612    0.0000    0.0000 C   0  0  0  0  0  0  0  0  0  0  0  0
   -1.6987   -1.4289    0.0000 C   0  0  0  0  0  0  0  0  0  0  0  0
    4.1737   -0.7145    0.0000 C   0  0  0  0  0  0  0  0  0  0  0  0
   -2.9362   -0.7145    0.0000 C   0  0  0  0  0  0  0  0  0  0  0  0
   -0.8737    1.4289    0.0000 C   0  0  0  0  0  0  0  0  0  0  0  0
   -3.3487    0.0000    0.0000 C   0  0  0  0  0  0  0  0  0  0  0  0
   -0.4612    2.1434    0.0000 C   0  0  0  0  0  0  0  0  0  0  0  0
   -4.1737    0.0000    0.0000 C   0  0  0  0  0  0  0  0  0  0  0  0
   -2.9362    0.7145    0.0000 C   0  0  0  0  0  0  0  0  0  0  0  0
  1 11  1  0  0  0  0
  2 12  1  0  0  0  0
  3  6  1  0  0  0  0
  3 13  1  0  0  0  0
  4 10  1  0  0  0  0
  4 22  1  0  0  0  0
  5  6  2  0  0  0  0
  5  7  1  0  0  0  0
  6  8  1  0  0  0  0
  7  9  1  0  0  0  0
  7 13  1  0  0  0  0
  8 11  2  0  0  0  0
  8 12  1  0  0  0  0
  9 10  2  0  0  0  0
  9 14  1  0  0  0  0
 10 15  1  0  0  0  0
 11 17  1  0  0  0  0
 12 18  2  0  0  0  0
 14 19  2  0  0  0  0
 15 16  2  0  0  0  0
 16 19  1  0  0  0  0
 16 21  1  0  0  0  0
 17 20  2  0  0  0  0
 18 20  1  0  0  0  0
 21 23  1  0  0  0  0
 22 24  1  0  0  0  0
 23 25  1  0  0  0  0
 23 26  1  0  0  0  0
M  END
> <PUBCHEM_COMPOUND_ID_TYPE>
0

> <PUBCHEM_TOTAL_CHARGE>
0

> <PUBCHEM_SUBSTANCE_ID>
310939078

> <PUBCHEM_SUBSTANCE_VERSION>
1

> <PUBCHEM_EXT_DATASOURCE_NAME>
4488

> <PUBCHEM_EXT_DATASOURCE_REGID>
SCHEMBL16116997

> <PUBCHEM_SUBSTANCE_COMMENT>
InChI=1S/C21H23F2NO2/c1-4-25-19-11-14(10-13(2)3)8-9-15(19)18-12-26-21(24-18)20-16(22)6-5-7-17(20)23/h5-9,11,13,18H,4,10,12H2,1-3H3
InChIKey=WSKICYYZXNNJJX-UHFFFAOYSA-N

> <PUBCHEM_SUBSTANCE_SYNONYM>
SCHEMBL16116997

> <PUBCHEM_XREF_EXT_ID>
SCHEMBL16116997

> <PUBCHEM_EXT_DATASOURCE_URL>
https://www.surechembl.org/

> <PUBCHEM_EXT_SUBSTANCE_URL>
https://www.surechembl.org/chemical/SCHEMBL16116997

> <PUBCHEM_CID_ASSOCIATIONS>
117606440  1

> <PUBCHEM_COORDINATE_TYPE>
1
3

$$$$
