310942289
  -OEChem-07211613022D

 23 24  0     1  0  0  0  0  0999 V2000
   -2.5587   -0.7065    0.0000 O   0  0  0  0  0  0  0  0  0  0  0  0
   -1.8453   -1.9551    0.0000 O   0  0  0  0  0  0  0  0  0  0  0  0
    0.1166   -0.3087    0.0000 N   0  0  0  0  0  0  0  0  0  0  0  0
    0.9261   -0.4322    0.0000 N   0  0  0  0  0  0  0  0  0  0  0  0
    2.3804    1.5709    0.0000 N   0  0  0  0  0  0  0  0  0  0  0  0
   -0.3499    0.3773    0.0000 C   0  0  0  0  0  0  0  0  0  0  0  0
   -1.1593   -0.6654    0.0000 C   0  0  0  0  0  0  0  0  0  0  0  0
   -0.3910   -0.9672    0.0000 C   0  0  0  0  0  0  0  0  0  0  0  0
   -1.1044    0.1578    0.0000 C   0  0  0  0  0  0  0  0  0  0  0  0
   -0.0343    1.1593    0.0000 C   0  0  3  0  0  0  0  0  0  0  0  0
   -1.8453   -1.1044    0.0000 C   0  0  0  0  0  0  0  0  0  0  0  0
   -0.0891   -1.7356    0.0000 C   0  0  0  0  0  0  0  0  0  0  0  0
    0.7614    1.2965    0.0000 C   0  0  3  0  0  0  0  0  0  0  0  0
   -1.7630    0.6928    0.0000 C   0  0  0  0  0  0  0  0  0  0  0  0
    1.2279   -1.2142    0.0000 C   0  0  0  0  0  0  0  0  0  0  0  0
    0.7203   -1.8727    0.0000 C   0  0  0  0  0  0  0  0  0  0  0  0
   -0.5694    1.8316    0.0000 C   0  0  0  0  0  0  0  0  0  0  0  0
    1.2828    0.6517    0.0000 C   0  0  0  0  0  0  0  0  0  0  0  0
    1.0084    1.9551    0.0000 C   0  0  0  0  0  0  0  0  0  0  0  0
   -3.2310   -1.1319    0.0000 C   0  0  0  0  0  0  0  0  0  0  0  0
    2.0922    0.7889    0.0000 C   0  0  0  0  0  0  0  0  0  0  0  0
   -3.1898   -1.9551    0.0000 C   0  0  0  0  0  0  0  0  0  0  0  0
    3.2310    1.7081    0.0000 C   0  0  0  0  0  0  0  0  0  0  0  0
  1 11  1  0  0  0  0
  1 20  1  0  0  0  0
  2 11  2  0  0  0  0
  3  4  1  0  0  0  0
  3  6  1  0  0  0  0
  3  8  1  0  0  0  0
  4 15  2  0  0  0  0
  5 21  1  0  0  0  0
  5 23  1  0  0  0  0
  6  9  2  0  0  0  0
  6 10  1  0  0  0  0
  7  8  2  0  0  0  0
  7  9  1  0  0  0  0
  7 11  1  0  0  0  0
  8 12  1  0  0  0  0
  9 14  1  0  0  0  0
 10 13  1  0  0  0  0
 10 17  1  0  0  0  0
 12 16  2  0  0  0  0
 13 18  1  0  0  0  0
 13 19  1  0  0  0  0
 15 16  1  0  0  0  0
 18 21  1  0  0  0  0
 20 22  1  0  0  0  0
M  END
> <PUBCHEM_COMPOUND_ID_TYPE>
0

> <PUBCHEM_TOTAL_CHARGE>
0

> <PUBCHEM_SUBSTANCE_ID>
310942289

> <PUBCHEM_SUBSTANCE_VERSION>
1

> <PUBCHEM_EXT_DATASOURCE_NAME>
4488

> <PUBCHEM_EXT_DATASOURCE_REGID>
SCHEMBL16120324

> <PUBCHEM_SUBSTANCE_COMMENT>
InChI=1S/C18H27N3O2/c1-6-23-18(22)16-14(4)17(13(3)12(2)9-11-19-5)21-15(16)8-7-10-20-21/h7-8,10,12-13,19H,6,9,11H2,1-5H3
InChIKey=UTEROYKLCLIXRU-UHFFFAOYSA-N

> <PUBCHEM_SUBSTANCE_SYNONYM>
SCHEMBL16120324

> <PUBCHEM_XREF_EXT_ID>
SCHEMBL16120324

> <PUBCHEM_EXT_DATASOURCE_URL>
https://www.surechembl.org/

> <PUBCHEM_EXT_SUBSTANCE_URL>
https://www.surechembl.org/chemical/SCHEMBL16120324

> <PUBCHEM_CID_ASSOCIATIONS>
117608938  1

> <PUBCHEM_COORDINATE_TYPE>
1
3

$$$$
