310937883
  -OEChem-07211613022D

 30 33  0     1  0  0  0  0  0999 V2000
    1.3622   -1.3088    0.0000 S   0  0  0  0  0  0  0  0  0  0  0  0
    2.8313   -0.4274    0.0000 O   0  0  0  0  0  0  0  0  0  0  0  0
    4.9682   -4.9415    0.0000 O   0  0  0  0  0  0  0  0  0  0  0  0
    1.2287   -2.6443    0.0000 N   0  0  0  0  0  0  0  0  0  0  0  0
    3.5525   -2.4841    0.0000 N   0  0  0  0  0  0  0  0  0  0  0  0
    2.1102   -1.6561    0.0000 C   0  0  0  0  0  0  0  0  0  0  0  0
    2.0300   -2.4574    0.0000 C   0  0  0  0  0  0  0  0  0  0  0  0
    2.8313   -1.2554    0.0000 C   0  0  0  0  0  0  0  0  0  0  0  0
    3.5525   -1.6561    0.0000 C   0  0  3  0  0  0  0  0  0  0  0  0
    2.6443   -2.9916    0.0000 C   0  0  0  0  0  0  0  0  0  0  0  0
    0.8280   -1.9499    0.0000 C   0  0  0  0  0  0  0  0  0  0  0  0
    4.2470   -1.2554    0.0000 C   0  0  0  0  0  0  0  0  0  0  0  0
    4.2470   -2.8848    0.0000 C   0  0  0  0  0  0  0  0  0  0  0  0
    3.4457   -2.7512    0.0000 C   0  0  0  0  0  0  0  0  0  0  0  0
    2.5108   -3.7929    0.0000 C   0  0  0  0  0  0  0  0  0  0  0  0
    4.2737   -0.4274    0.0000 C   0  0  0  0  0  0  0  0  0  0  0  0
    4.9682   -1.6561    0.0000 C   0  0  0  0  0  0  0  0  0  0  0  0
    0.0000   -1.8697    0.0000 C   0  0  0  0  0  0  0  0  0  0  0  0
    4.2470   -3.7128    0.0000 C   0  0  0  0  0  0  0  0  0  0  0  0
    4.9682   -2.4574    0.0000 C   0  0  0  0  0  0  0  0  0  0  0  0
    4.0601   -3.2587    0.0000 C   0  0  0  0  0  0  0  0  0  0  0  0
    3.0985   -4.3539    0.0000 C   0  0  0  0  0  0  0  0  0  0  0  0
    4.9682   -4.1134    0.0000 C   0  0  0  0  0  0  0  0  0  0  0  0
    4.9682    0.0000    0.0000 C   0  0  0  0  0  0  0  0  0  0  0  0
    5.6627   -1.2554    0.0000 C   0  0  0  0  0  0  0  0  0  0  0  0
    3.8731   -4.0867    0.0000 C   0  0  0  0  0  0  0  0  0  0  0  0
    5.6627   -2.8848    0.0000 C   0  0  0  0  0  0  0  0  0  0  0  0
    5.6627   -3.6861    0.0000 C   0  0  0  0  0  0  0  0  0  0  0  0
    5.6894   -0.4274    0.0000 C   0  0  0  0  0  0  0  0  0  0  0  0
    5.6894   -5.3422    0.0000 C   0  0  0  0  0  0  0  0  0  0  0  0
  1  6  1  0  0  0  0
  1 11  1  0  0  0  0
  2  8  2  0  0  0  0
  3 23  1  0  0  0  0
  3 30  1  0  0  0  0
  4  7  1  0  0  0  0
  4 11  2  0  0  0  0
  5  9  1  0  0  0  0
  5 13  1  0  0  0  0
  6  7  2  0  0  0  0
  6  8  1  0  0  0  0
  7 10  1  0  0  0  0
  8  9  1  0  0  0  0
  9 12  1  0  0  0  0
 10 14  2  0  0  0  0
 10 15  1  0  0  0  0
 11 18  1  0  0  0  0
 12 16  2  0  0  0  0
 12 17  1  0  0  0  0
 13 19  1  0  0  0  0
 13 20  2  0  0  0  0
 14 21  1  0  0  0  0
 15 22  2  0  0  0  0
 16 24  1  0  0  0  0
 17 25  2  0  0  0  0
 19 23  2  0  0  0  0
 20 27  1  0  0  0  0
 21 26  2  0  0  0  0
 22 26  1  0  0  0  0
 23 28  1  0  0  0  0
 24 29  2  0  0  0  0
 25 29  1  0  0  0  0
 27 28  2  0  0  0  0
M  END
> <PUBCHEM_COMPOUND_ID_TYPE>
0

> <PUBCHEM_TOTAL_CHARGE>
0

> <PUBCHEM_SUBSTANCE_ID>
310937883

> <PUBCHEM_SUBSTANCE_VERSION>
1

> <PUBCHEM_EXT_DATASOURCE_NAME>
4488

> <PUBCHEM_EXT_DATASOURCE_REGID>
SCHEMBL16115710

> <PUBCHEM_SUBSTANCE_COMMENT>
InChI=1S/C25H22N2O2S/c1-17-26-23(19-12-7-4-8-13-19)25(30-17)24(28)22(18-10-5-3-6-11-18)27-20-14-9-15-21(16-20)29-2/h3-16,22,27H,1-2H3
InChIKey=DEWOUTDXPSGMEE-UHFFFAOYSA-N

> <PUBCHEM_SUBSTANCE_SYNONYM>
SCHEMBL16115710

> <PUBCHEM_XREF_EXT_ID>
SCHEMBL16115710

> <PUBCHEM_EXT_DATASOURCE_URL>
https://www.surechembl.org/

> <PUBCHEM_EXT_SUBSTANCE_URL>
https://www.surechembl.org/chemical/SCHEMBL16115710

> <PUBCHEM_CID_ASSOCIATIONS>
117605506  1

> <PUBCHEM_COORDINATE_TYPE>
1
3

$$$$
