310945206
  -OEChem-07211613022D

 39 43  0     1  0  0  0  0  0999 V2000
    0.1657   -2.5939    0.0000 F   0  0  0  0  0  0  0  0  0  0  0  0
   -0.1086   -3.6909    0.0000 F   0  0  0  0  0  0  0  0  0  0  0  0
   -1.2170   -3.3938    0.0000 F   0  0  0  0  0  0  0  0  0  0  0  0
    3.5138    3.6909    0.0000 O   0  0  0  0  0  0  0  0  0  0  0  0
    0.2914   -0.1143    0.0000 O   0  0  0  0  0  0  0  0  0  0  0  0
   -4.2337   -0.8342    0.0000 O   0  0  0  0  0  0  0  0  0  0  0  0
    2.0169    1.3713    0.0000 N   0  0  0  0  0  0  0  0  0  0  0  0
    4.2337    2.4568    0.0000 N   0  0  0  0  0  0  0  0  0  0  0  0
    4.2337   -0.0343    0.0000 N   0  0  0  0  0  0  0  0  0  0  0  0
   -0.9427    0.6057    0.0000 N   0  0  0  0  0  0  0  0  0  0  0  0
   -0.9427    2.0454    0.0000 N   0  0  0  0  0  0  0  0  0  0  0  0
   -2.9996   -1.5427    0.0000 N   0  0  0  0  0  0  0  0  0  0  0  0
    3.5023    1.2112    0.0000 C   0  0  3  0  0  0  0  0  0  0  0  0
    2.7939    1.6340    0.0000 C   0  0  0  0  0  0  0  0  0  0  0  0
    2.7939    2.4454    0.0000 C   0  0  0  0  0  0  0  0  0  0  0  0
    1.5255    2.0340    0.0000 C   0  0  0  0  0  0  0  0  0  0  0  0
    3.5023    2.8453    0.0000 C   0  0  0  0  0  0  0  0  0  0  0  0
    2.0169    2.7082    0.0000 C   0  0  0  0  0  0  0  0  0  0  0  0
    4.2222    1.6226    0.0000 C   0  0  0  0  0  0  0  0  0  0  0  0
    4.2222    0.7884    0.0000 C   0  0  0  0  0  0  0  0  0  0  0  0
    2.8053    0.7999    0.0000 C   0  0  0  0  0  0  0  0  0  0  0  0
    0.7028    2.0454    0.0000 C   0  0  0  0  0  0  0  0  0  0  0  0
    0.2914    1.3255    0.0000 C   0  0  0  0  0  0  0  0  0  0  0  0
    2.7939   -0.0343    0.0000 C   0  0  0  0  0  0  0  0  0  0  0  0
    0.2914    2.7424    0.0000 C   0  0  0  0  0  0  0  0  0  0  0  0
   -0.5314    1.3255    0.0000 C   0  0  0  0  0  0  0  0  0  0  0  0
    3.5138   -0.4456    0.0000 C   0  0  0  0  0  0  0  0  0  0  0  0
   -0.9542   -0.8342    0.0000 C   0  0  0  0  0  0  0  0  0  0  0  0
   -0.9427   -2.2625    0.0000 C   0  0  0  0  0  0  0  0  0  0  0  0
   -0.5542   -0.1028    0.0000 C   0  0  0  0  0  0  0  0  0  0  0  0
   -0.5314   -2.9939    0.0000 C   0  0  0  0  0  0  0  0  0  0  0  0
   -0.5427   -1.5427    0.0000 C   0  0  0  0  0  0  0  0  0  0  0  0
   -2.1882   -1.5540    0.0000 C   0  0  0  0  0  0  0  0  0  0  0  0
   -0.5314    2.7539    0.0000 C   0  0  0  0  0  0  0  0  0  0  0  0
   -1.7654   -0.8342    0.0000 C   0  0  0  0  0  0  0  0  0  0  0  0
   -1.7769   -2.2511    0.0000 C   0  0  0  0  0  0  0  0  0  0  0  0
   -3.3995   -0.8342    0.0000 C   0  0  0  0  0  0  0  0  0  0  0  0
   -3.0110   -0.1028    0.0000 C   0  0  0  0  0  0  0  0  0  0  0  0
   -3.4909    0.5714    0.0000 C   0  0  0  0  0  0  0  0  0  0  0  0
  1 31  1  0  0  0  0
  2 31  1  0  0  0  0
  3 31  1  0  0  0  0
  4 17  2  0  0  0  0
  5 30  2  0  0  0  0
  6 37  2  0  0  0  0
  7 14  1  0  0  0  0
  7 16  1  0  0  0  0
  8 17  1  0  0  0  0
  8 19  1  0  0  0  0
  9 20  1  0  0  0  0
  9 27  1  0  0  0  0
 10 26  1  0  0  0  0
 10 30  1  0  0  0  0
 11 26  1  0  0  0  0
 11 34  2  0  0  0  0
 12 33  1  0  0  0  0
 12 37  1  0  0  0  0
 13 14  1  0  0  0  0
 13 19  1  0  0  0  0
 13 20  1  0  0  0  0
 13 21  1  0  0  0  0
 14 15  2  0  0  0  0
 15 17  1  0  0  0  0
 15 18  1  0  0  0  0
 16 18  2  0  0  0  0
 16 22  1  0  0  0  0
 21 24  1  0  0  0  0
 22 23  1  0  0  0  0
 22 25  2  0  0  0  0
 23 26  2  0  0  0  0
 24 27  1  0  0  0  0
 25 34  1  0  0  0  0
 28 30  1  0  0  0  0
 28 32  1  0  0  0  0
 28 35  2  0  0  0  0
 29 31  1  0  0  0  0
 29 32  2  0  0  0  0
 29 36  1  0  0  0  0
 33 35  1  0  0  0  0
 33 36  2  0  0  0  0
 37 38  1  0  0  0  0
 38 39  2  0  0  0  0
M  END
> <PUBCHEM_COMPOUND_ID_TYPE>
0

> <PUBCHEM_TOTAL_CHARGE>
0

> <PUBCHEM_SUBSTANCE_ID>
310945206

> <PUBCHEM_SUBSTANCE_VERSION>
1

> <PUBCHEM_EXT_DATASOURCE_NAME>
4488

> <PUBCHEM_EXT_DATASOURCE_REGID>
SCHEMBL16123296

> <PUBCHEM_SUBSTANCE_COMMENT>
InChI=1S/C27H25F3N6O3/c1-2-22(37)34-18-9-16(8-17(11-18)27(28,29)30)24(38)36-21-10-15(4-7-32-21)20-12-19-23(35-20)26(14-33-25(19)39)5-3-6-31-13-26/h2,4,7-12,31,35H,1,3,5-6,13-14H2,(H,33,39)(H,34,37)(H,32,36,38)
InChIKey=IZNQGDOYHLJFIL-UHFFFAOYSA-N

> <PUBCHEM_SUBSTANCE_SYNONYM>
SCHEMBL16123296

> <PUBCHEM_XREF_EXT_ID>
SCHEMBL16123296

> <PUBCHEM_EXT_DATASOURCE_URL>
https://www.surechembl.org/

> <PUBCHEM_EXT_SUBSTANCE_URL>
https://www.surechembl.org/chemical/SCHEMBL16123296

> <PUBCHEM_CID_ASSOCIATIONS>
117611284  1

> <PUBCHEM_COORDINATE_TYPE>
1
3

$$$$
