310930311
  -OEChem-07211613022D

 19 20  0     1  0  0  0  0  0999 V2000
    5.6118    0.0000    0.0000 O   0  0  0  0  0  0  0  0  0  0  0  0
    6.8589   -0.7126    0.0000 O   0  0  0  0  0  0  0  0  0  0  0  0
    3.5631   -2.1378    0.0000 N   0  0  0  0  0  0  0  0  0  0  0  0
    5.6118   -1.4252    0.0000 N   0  0  0  0  0  0  0  0  0  0  0  0
    0.1781   -5.9384    0.0000 N   0  0  0  0  0  0  0  0  0  0  0  0
    1.8706   -3.5334    0.0000 C   0  0  0  0  0  0  0  0  0  0  0  0
    1.0689   -3.2364    0.0000 C   0  0  0  0  0  0  0  0  0  0  0  0
    2.3457   -2.8504    0.0000 C   0  0  3  0  0  0  0  0  0  0  0  0
    1.0689   -2.4348    0.0000 C   0  0  0  0  0  0  0  0  0  0  0  0
    1.8706   -2.1675    0.0000 C   0  0  0  0  0  0  0  0  0  0  0  0
    0.4751   -3.8006    0.0000 C   0  0  0  0  0  0  0  0  0  0  0  0
    2.0191   -4.3053    0.0000 C   0  0  0  0  0  0  0  0  0  0  0  0
    0.6235   -4.5726    0.0000 C   0  0  0  0  0  0  0  0  0  0  0  0
    1.4252   -4.8695    0.0000 C   0  0  0  0  0  0  0  0  0  0  0  0
    3.1474   -2.8504    0.0000 C   0  0  0  0  0  0  0  0  0  0  0  0
    0.0000   -5.1367    0.0000 C   0  0  0  0  0  0  0  0  0  0  0  0
    4.3944   -2.1378    0.0000 C   0  0  0  0  0  0  0  0  0  0  0  0
    4.8101   -1.4252    0.0000 C   0  0  0  0  0  0  0  0  0  0  0  0
    6.0275   -0.7126    0.0000 C   0  0  0  0  0  0  0  0  0  0  0  0
  1 19  2  0  0  0  0
  2 19  1  0  0  0  0
  3 15  1  0  0  0  0
  3 17  1  0  0  0  0
  4 18  1  0  0  0  0
  4 19  1  0  0  0  0
  5 16  3  0  0  0  0
  6  7  2  0  0  0  0
  6  8  1  0  0  0  0
  6 12  1  0  0  0  0
  7  9  1  0  0  0  0
  7 11  1  0  0  0  0
  8 10  1  0  0  0  0
  8 15  1  0  0  0  0
  9 10  1  0  0  0  0
 11 13  2  0  0  0  0
 12 14  2  0  0  0  0
 13 14  1  0  0  0  0
 13 16  1  0  0  0  0
 17 18  1  0  0  0  0
M  END
> <PUBCHEM_COMPOUND_ID_TYPE>
0

> <PUBCHEM_TOTAL_CHARGE>
0

> <PUBCHEM_SUBSTANCE_ID>
310930311

> <PUBCHEM_SUBSTANCE_VERSION>
1

> <PUBCHEM_EXT_DATASOURCE_NAME>
4488

> <PUBCHEM_EXT_DATASOURCE_REGID>
SCHEMBL16107592

> <PUBCHEM_SUBSTANCE_COMMENT>
InChI=1S/C14H17N3O2/c15-8-10-1-4-13-11(7-10)2-3-12(13)9-16-5-6-17-14(18)19/h1,4,7,12,16-17H,2-3,5-6,9H2,(H,18,19)
InChIKey=RPBUDWQBXFWWQZ-UHFFFAOYSA-N

> <PUBCHEM_SUBSTANCE_SYNONYM>
SCHEMBL16107592

> <PUBCHEM_XREF_EXT_ID>
SCHEMBL16107592

> <PUBCHEM_EXT_DATASOURCE_URL>
https://www.surechembl.org/

> <PUBCHEM_EXT_SUBSTANCE_URL>
https://www.surechembl.org/chemical/SCHEMBL16107592

> <PUBCHEM_CID_ASSOCIATIONS>
117599487  1

> <PUBCHEM_COORDINATE_TYPE>
1
3

$$$$
