310939605
  -OEChem-07211613022D

 34 37  0     1  0  0  0  0  0999 V2000
   -1.3492    2.0785    0.0000 O   0  0  0  0  0  0  0  0  0  0  0  0
    2.1877   -2.7304    0.0000 O   0  0  0  0  0  0  0  0  0  0  0  0
   -2.7782    1.2535    0.0000 O   0  0  0  0  0  0  0  0  0  0  0  0
    2.2231    2.4910    0.0000 N   0  0  0  0  0  0  0  0  0  0  0  0
    1.5086    1.2535    0.0000 N   0  0  0  0  0  0  0  0  0  0  0  0
    2.2231    0.0160    0.0000 N   0  0  0  0  0  0  0  0  0  0  0  0
    3.6521   -2.4590    0.0000 N   0  0  0  0  0  0  0  0  0  0  0  0
   -4.2071    2.0785    0.0000 N   0  0  0  0  0  0  0  0  0  0  0  0
    1.5086    2.0785    0.0000 C   0  0  0  0  0  0  0  0  0  0  0  0
    2.9376    2.0785    0.0000 C   0  0  0  0  0  0  0  0  0  0  0  0
    0.7942    2.4910    0.0000 C   0  0  0  0  0  0  0  0  0  0  0  0
    2.2231    0.8410    0.0000 C   0  0  0  0  0  0  0  0  0  0  0  0
    3.6521    2.4910    0.0000 C   0  0  0  0  0  0  0  0  0  0  0  0
    2.9376    1.2535    0.0000 C   0  0  0  0  0  0  0  0  0  0  0  0
    0.0797    2.0785    0.0000 C   0  0  0  0  0  0  0  0  0  0  0  0
   -0.6348    2.4910    0.0000 C   0  0  0  0  0  0  0  0  0  0  0  0
    0.7942    3.3160    0.0000 C   0  0  0  0  0  0  0  0  0  0  0  0
    3.6521    3.3160    0.0000 C   0  0  0  0  0  0  0  0  0  0  0  0
    4.4367    2.2361    0.0000 C   0  0  0  0  0  0  0  0  0  0  0  0
   -0.6348    3.3160    0.0000 C   0  0  0  0  0  0  0  0  0  0  0  0
    0.0797    3.7285    0.0000 C   0  0  0  0  0  0  0  0  0  0  0  0
    4.4367    3.5710    0.0000 C   0  0  0  0  0  0  0  0  0  0  0  0
    4.9216    2.9035    0.0000 C   0  0  0  0  0  0  0  0  0  0  0  0
    2.9376   -0.3965    0.0000 C   0  0  0  0  0  0  0  0  0  0  0  0
    2.9846   -2.9439    0.0000 C   0  0  0  0  0  0  0  0  0  0  0  0
    2.9376   -1.2215    0.0000 C   0  0  0  0  0  0  0  0  0  0  0  0
    3.6521   -1.6340    0.0000 C   0  0  0  0  0  0  0  0  0  0  0  0
   -2.0637    2.4910    0.0000 C   0  0  0  0  0  0  0  0  0  0  0  0
    4.3195   -2.9439    0.0000 C   0  0  0  0  0  0  0  0  0  0  0  0
    3.2396   -3.7285    0.0000 C   0  0  0  0  0  0  0  0  0  0  0  0
    4.0646   -3.7285    0.0000 C   0  0  0  0  0  0  0  0  0  0  0  0
   -2.7782    2.0785    0.0000 C   0  0  3  0  0  0  0  0  0  0  0  0
   -3.4927    2.4910    0.0000 C   0  0  0  0  0  0  0  0  0  0  0  0
   -4.9216    2.4910    0.0000 C   0  0  0  0  0  0  0  0  0  0  0  0
  1 16  1  0  0  0  0
  1 28  1  0  0  0  0
  2 25  2  0  0  0  0
  3 32  1  0  0  0  0
  4  9  2  0  0  0  0
  4 10  1  0  0  0  0
  5  9  1  0  0  0  0
  5 12  2  0  0  0  0
  6 12  1  0  0  0  0
  6 24  1  0  0  0  0
  7 25  1  0  0  0  0
  7 27  1  0  0  0  0
  7 29  1  0  0  0  0
  8 33  1  0  0  0  0
  8 34  1  0  0  0  0
  9 11  1  0  0  0  0
 10 13  1  0  0  0  0
 10 14  2  0  0  0  0
 11 15  2  0  0  0  0
 11 17  1  0  0  0  0
 12 14  1  0  0  0  0
 13 18  2  0  0  0  0
 13 19  1  0  0  0  0
 15 16  1  0  0  0  0
 16 20  2  0  0  0  0
 17 21  2  0  0  0  0
 18 22  1  0  0  0  0
 19 23  1  0  0  0  0
 20 21  1  0  0  0  0
 22 23  1  0  0  0  0
 24 26  1  0  0  0  0
 25 30  1  0  0  0  0
 26 27  1  0  0  0  0
 28 32  1  0  0  0  0
 29 31  1  0  0  0  0
 30 31  1  0  0  0  0
 32 33  1  0  0  0  0
M  END
> <PUBCHEM_COMPOUND_ID_TYPE>
0

> <PUBCHEM_TOTAL_CHARGE>
0

> <PUBCHEM_SUBSTANCE_ID>
310939605

> <PUBCHEM_SUBSTANCE_VERSION>
1

> <PUBCHEM_EXT_DATASOURCE_NAME>
4488

> <PUBCHEM_EXT_DATASOURCE_REGID>
SCHEMBL16117535

> <PUBCHEM_SUBSTANCE_COMMENT>
InChI=1S/C26H35N5O3/c1-27-17-21(32)18-34-22-10-4-9-20(15-22)26-29-23(19-7-2-3-8-19)16-24(30-26)28-12-6-14-31-13-5-11-25(31)33/h4,7,9-10,15-16,21,27,32H,2-3,5-6,8,11-14,17-18H2,1H3,(H,28,29,30)
InChIKey=ZJOUZPMRTGSEBC-UHFFFAOYSA-N

> <PUBCHEM_SUBSTANCE_SYNONYM>
SCHEMBL16117535

> <PUBCHEM_XREF_EXT_ID>
SCHEMBL16117535

> <PUBCHEM_EXT_DATASOURCE_URL>
https://www.surechembl.org/

> <PUBCHEM_EXT_SUBSTANCE_URL>
https://www.surechembl.org/chemical/SCHEMBL16117535

> <PUBCHEM_CID_ASSOCIATIONS>
85472299  1

> <PUBCHEM_COORDINATE_TYPE>
1
3

$$$$
