310941319
  -OEChem-07211613022D

 45 49  0     1  0  0  0  0  0999 V2000
    5.0460    0.6677    0.0000 O   0  0  0  0  0  0  0  0  0  0  0  0
    3.9215   -1.2861    0.0000 O   0  0  0  0  0  0  0  0  0  0  0  0
    1.7710    0.7801    0.0000 O   0  0  0  0  0  0  0  0  0  0  0  0
   -1.0964    1.9467    0.0000 O   0  0  0  0  0  0  0  0  0  0  0  0
   -0.3795   -1.2861    0.0000 O   0  0  0  0  0  0  0  0  0  0  0  0
   -2.5300    0.7801    0.0000 O   0  0  0  0  0  0  0  0  0  0  0  0
    3.9215   -2.9446    0.0000 O   0  0  0  0  0  0  0  0  0  0  0  0
   -5.3834    0.7801    0.0000 O   0  0  0  0  0  0  0  0  0  0  0  0
    2.4879   -0.4709    0.0000 N   0  0  0  0  0  0  0  0  0  0  0  0
    0.3374   -0.0492    0.0000 N   0  0  0  0  0  0  0  0  0  0  0  0
   -1.7991   -0.4709    0.0000 N   0  0  0  0  0  0  0  0  0  0  0  0
   -3.9496   -0.0492    0.0000 N   0  0  0  0  0  0  0  0  0  0  0  0
    4.6524   -0.0071    0.0000 C   0  0  3  0  0  0  0  0  0  0  0  0
    3.9356   -0.4146    0.0000 C   0  0  0  0  0  0  0  0  0  0  0  0
    4.2589    0.6817    0.0000 C   0  0  0  0  0  0  0  0  0  0  0  0
    3.2187   -0.0211    0.0000 C   0  0  3  0  0  0  0  0  0  0  0  0
    5.3834   -0.4427    0.0000 C   0  0  0  0  0  0  0  0  0  0  0  0
    3.2187    1.2861    0.0000 C   0  0  0  0  0  0  0  0  0  0  0  0
    1.7710   -0.0492    0.0000 C   0  0  0  0  0  0  0  0  0  0  0  0
    1.0823   -0.4427    0.0000 C   0  0  3  0  0  0  0  0  0  0  0  0
   -1.0823   -0.0211    0.0000 C   0  0  3  0  0  0  0  0  0  0  0  0
   -0.3655   -0.4146    0.0000 C   0  0  0  0  0  0  0  0  0  0  0  0
   -1.0823    0.8082    0.0000 C   0  0  0  0  0  0  0  0  0  0  0  0
    2.5019    1.7218    0.0000 C   0  0  0  0  0  0  0  0  0  0  0  0
    1.0682   -1.2721    0.0000 C   0  0  0  0  0  0  0  0  0  0  0  0
   -1.6585    1.3845    0.0000 C   0  0  0  0  0  0  0  0  0  0  0  0
   -0.5060    1.3985    0.0000 C   0  0  0  0  0  0  0  0  0  0  0  0
    1.7991   -1.6796    0.0000 C   0  0  0  0  0  0  0  0  0  0  0  0
   -2.5300   -0.0492    0.0000 C   0  0  0  0  0  0  0  0  0  0  0  0
    1.7851    1.3142    0.0000 C   0  0  0  0  0  0  0  0  0  0  0  0
    2.5019    2.5230    0.0000 C   0  0  0  0  0  0  0  0  0  0  0  0
    2.4879   -1.2861    0.0000 C   0  0  0  0  0  0  0  0  0  0  0  0
    1.7991   -2.5089    0.0000 C   0  0  0  0  0  0  0  0  0  0  0  0
   -3.2047   -0.4287    0.0000 C   0  0  0  0  0  0  0  0  0  0  0  0
    1.0823    1.7078    0.0000 C   0  0  0  0  0  0  0  0  0  0  0  0
    1.7710    2.9446    0.0000 C   0  0  0  0  0  0  0  0  0  0  0  0
    3.2187   -2.4949    0.0000 C   0  0  0  0  0  0  0  0  0  0  0  0
    3.2187   -1.6937    0.0000 C   0  0  0  0  0  0  0  0  0  0  0  0
    2.5019   -2.9166    0.0000 C   0  0  0  0  0  0  0  0  0  0  0  0
    1.0823    2.5371    0.0000 C   0  0  0  0  0  0  0  0  0  0  0  0
   -3.9496    0.7941    0.0000 C   0  0  0  0  0  0  0  0  0  0  0  0
   -4.6384   -0.4287    0.0000 C   0  0  0  0  0  0  0  0  0  0  0  0
   -4.6805    1.2158    0.0000 C   0  0  0  0  0  0  0  0  0  0  0  0
   -5.3693   -0.0211    0.0000 C   0  0  0  0  0  0  0  0  0  0  0  0
    4.6665   -2.5230    0.0000 C   0  0  0  0  0  0  0  0  0  0  0  0
  1 13  1  0  0  0  0
  1 15  1  0  0  0  0
  2 14  2  0  0  0  0
  3 19  2  0  0  0  0
  4 26  1  0  0  0  0
  4 27  1  0  0  0  0
  5 22  2  0  0  0  0
  6 29  2  0  0  0  0
  7 37  1  0  0  0  0
  7 45  1  0  0  0  0
  8 43  1  0  0  0  0
  8 44  1  0  0  0  0
  9 16  1  0  0  0  0
  9 19  1  0  0  0  0
 10 20  1  0  0  0  0
 10 22  1  0  0  0  0
 11 21  1  0  0  0  0
 11 29  1  0  0  0  0
 12 34  1  0  0  0  0
 12 41  1  0  0  0  0
 12 42  1  0  0  0  0
 13 14  1  0  0  0  0
 13 15  1  0  0  0  0
 13 17  1  0  0  0  0
 14 16  1  0  0  0  0
 16 18  1  0  0  0  0
 18 24  1  0  0  0  0
 19 20  1  0  0  0  0
 20 25  1  0  0  0  0
 21 22  1  0  0  0  0
 21 23  1  0  0  0  0
 23 26  1  0  0  0  0
 23 27  1  0  0  0  0
 24 30  2  0  0  0  0
 24 31  1  0  0  0  0
 25 28  1  0  0  0  0
 28 32  2  0  0  0  0
 28 33  1  0  0  0  0
 29 34  1  0  0  0  0
 30 35  1  0  0  0  0
 31 36  2  0  0  0  0
 32 38  1  0  0  0  0
 33 39  2  0  0  0  0
 35 40  2  0  0  0  0
 36 40  1  0  0  0  0
 37 38  2  0  0  0  0
 37 39  1  0  0  0  0
 41 43  1  0  0  0  0
 42 44  1  0  0  0  0
M  END
> <PUBCHEM_COMPOUND_ID_TYPE>
0

> <PUBCHEM_TOTAL_CHARGE>
0

> <PUBCHEM_SUBSTANCE_ID>
310941319

> <PUBCHEM_SUBSTANCE_VERSION>
1

> <PUBCHEM_EXT_DATASOURCE_NAME>
4488

> <PUBCHEM_EXT_DATASOURCE_REGID>
SCHEMBL16119279

> <PUBCHEM_SUBSTANCE_COMMENT>
InChI=1S/C33H42N4O8/c1-33(21-45-33)30(39)26(16-22-6-4-3-5-7-22)34-31(40)27(17-23-8-10-25(42-2)11-9-23)35-32(41)29(24-19-44-20-24)36-28(38)18-37-12-14-43-15-13-37/h3-11,24,26-27,29H,12-21H2,1-2H3,(H,34,40)(H,35,41)(H,36,38)
InChIKey=HRSROUCJYJNGSE-UHFFFAOYSA-N

> <PUBCHEM_SUBSTANCE_SYNONYM>
SCHEMBL16119279

> <PUBCHEM_XREF_EXT_ID>
SCHEMBL16119279

> <PUBCHEM_EXT_DATASOURCE_URL>
https://www.surechembl.org/

> <PUBCHEM_EXT_SUBSTANCE_URL>
https://www.surechembl.org/chemical/SCHEMBL16119279

> <PUBCHEM_CID_ASSOCIATIONS>
117608167  1

> <PUBCHEM_COORDINATE_TYPE>
1
3

$$$$
