310937731
  -OEChem-07211613022D

 33 36  0     1  0  0  0  0  0999 V2000
    2.4622   -1.1104    0.0000 O   0  0  0  0  0  0  0  0  0  0  0  0
    1.7622   -2.3656    0.0000 N   0  0  0  0  0  0  0  0  0  0  0  0
    3.1864   -3.1864    0.0000 N   0  0  0  0  0  0  0  0  0  0  0  0
    3.1864   -2.3656    0.0000 C   0  0  3  0  0  0  0  0  0  0  0  0
    2.4622   -1.9553    0.0000 C   0  0  0  0  0  0  0  0  0  0  0  0
    3.9105   -1.9553    0.0000 C   0  0  0  0  0  0  0  0  0  0  0  0
    1.8346   -3.1864    0.0000 C   0  0  3  0  0  0  0  0  0  0  0  0
    2.6070   -3.4761    0.0000 C   0  0  0  0  0  0  0  0  0  0  0  0
    5.3348   -1.1104    0.0000 C   0  0  0  0  0  0  0  0  0  0  0  0
    3.9105   -1.1104    0.0000 C   0  0  0  0  0  0  0  0  0  0  0  0
    4.6106   -2.3415    0.0000 C   0  0  0  0  0  0  0  0  0  0  0  0
    1.0862   -1.8829    0.0000 C   0  0  0  0  0  0  0  0  0  0  0  0
    6.0590   -0.7000    0.0000 C   0  0  0  0  0  0  0  0  0  0  0  0
    1.2553   -3.7416    0.0000 C   0  0  0  0  0  0  0  0  0  0  0  0
    4.6106   -0.7000    0.0000 C   0  0  0  0  0  0  0  0  0  0  0  0
    5.3348   -1.9553    0.0000 C   0  0  0  0  0  0  0  0  0  0  0  0
    3.8864   -3.5968    0.0000 C   0  0  0  0  0  0  0  0  0  0  0  0
    3.2347   -2.9691    0.0000 C   0  0  0  0  0  0  0  0  0  0  0  0
    2.7277   -4.2968    0.0000 C   0  0  0  0  0  0  0  0  0  0  0  0
    0.3138   -2.1243    0.0000 C   0  0  0  0  0  0  0  0  0  0  0  0
    0.4345   -3.6450    0.0000 C   0  0  0  0  0  0  0  0  0  0  0  0
    3.9105   -4.4175    0.0000 C   0  0  0  0  0  0  0  0  0  0  0  0
    4.6106   -3.1864    0.0000 C   0  0  0  0  0  0  0  0  0  0  0  0
    0.0000   -2.9209    0.0000 C   0  0  0  0  0  0  0  0  0  0  0  0
    4.0071   -3.2588    0.0000 C   0  0  0  0  0  0  0  0  0  0  0  0
    3.5002   -4.5865    0.0000 C   0  0  0  0  0  0  0  0  0  0  0  0
    6.4693   -1.4483    0.0000 C   0  0  0  0  0  0  0  0  0  0  0  0
    6.7590   -0.3138    0.0000 C   0  0  0  0  0  0  0  0  0  0  0  0
    5.6486    0.0000    0.0000 C   0  0  0  0  0  0  0  0  0  0  0  0
    4.1519   -4.0796    0.0000 C   0  0  0  0  0  0  0  0  0  0  0  0
    4.6106   -4.8279    0.0000 C   0  0  0  0  0  0  0  0  0  0  0  0
    5.3348   -3.5968    0.0000 C   0  0  0  0  0  0  0  0  0  0  0  0
    5.3106   -4.4175    0.0000 C   0  0  0  0  0  0  0  0  0  0  0  0
  1  5  2  0  0  0  0
  2  5  1  0  0  0  0
  2  7  1  0  0  0  0
  2 12  1  0  0  0  0
  3  4  1  0  0  0  0
  3 17  1  0  0  0  0
  4  5  1  0  0  0  0
  4  6  1  0  0  0  0
  6 10  2  0  0  0  0
  6 11  1  0  0  0  0
  7  8  1  0  0  0  0
  7 14  1  0  0  0  0
  8 18  2  0  0  0  0
  8 19  1  0  0  0  0
  9 13  1  0  0  0  0
  9 15  2  0  0  0  0
  9 16  1  0  0  0  0
 10 15  1  0  0  0  0
 11 16  2  0  0  0  0
 12 20  1  0  0  0  0
 13 27  1  0  0  0  0
 13 28  1  0  0  0  0
 13 29  1  0  0  0  0
 14 21  1  0  0  0  0
 17 22  2  0  0  0  0
 17 23  1  0  0  0  0
 18 25  1  0  0  0  0
 19 26  2  0  0  0  0
 20 24  1  0  0  0  0
 21 24  1  0  0  0  0
 22 31  1  0  0  0  0
 23 32  2  0  0  0  0
 25 30  2  0  0  0  0
 26 30  1  0  0  0  0
 31 33  2  0  0  0  0
 32 33  1  0  0  0  0
M  END
> <PUBCHEM_COMPOUND_ID_TYPE>
0

> <PUBCHEM_TOTAL_CHARGE>
0

> <PUBCHEM_SUBSTANCE_ID>
310937731

> <PUBCHEM_SUBSTANCE_VERSION>
1

> <PUBCHEM_EXT_DATASOURCE_NAME>
4488

> <PUBCHEM_EXT_DATASOURCE_REGID>
SCHEMBL16115530

> <PUBCHEM_SUBSTANCE_COMMENT>
InChI=1S/C30H36N2O/c1-30(2,3)25-20-18-24(19-21-25)28(31-26-15-9-5-10-16-26)29(33)32-22-12-6-11-17-27(32)23-13-7-4-8-14-23/h4-5,7-10,13-16,18-21,27-28,31H,6,11-12,17,22H2,1-3H3
InChIKey=ITCHPTBCVOHEJI-UHFFFAOYSA-N

> <PUBCHEM_SUBSTANCE_SYNONYM>
SCHEMBL16115530

> <PUBCHEM_XREF_EXT_ID>
SCHEMBL16115530

> <PUBCHEM_EXT_DATASOURCE_URL>
https://www.surechembl.org/

> <PUBCHEM_EXT_SUBSTANCE_URL>
https://www.surechembl.org/chemical/SCHEMBL16115530

> <PUBCHEM_CID_ASSOCIATIONS>
46179631  1

> <PUBCHEM_COORDINATE_TYPE>
1
3

$$$$
