310930801
  -OEChem-07211613022D

 36 40  0     1  0  0  0  0  0999 V2000
    2.8579   -2.4750    0.0000 F   0  0  0  0  0  0  0  0  0  0  0  0
    0.7145   -4.5375    0.0000 F   0  0  0  0  0  0  0  0  0  0  0  0
   -0.4125   -4.8395    0.0000 F   0  0  0  0  0  0  0  0  0  0  0  0
    0.4125   -3.4105    0.0000 F   0  0  0  0  0  0  0  0  0  0  0  0
    1.4289   -2.4750    0.0000 O   0  0  0  0  0  0  0  0  0  0  0  0
    0.7145   -1.2375    0.0000 N   0  0  0  0  0  0  0  0  0  0  0  0
    1.4289    0.0000    0.0000 N   0  0  0  0  0  0  0  0  0  0  0  0
   -0.7145   -0.4125    0.0000 N   0  0  0  0  0  0  0  0  0  0  0  0
   -1.4289    0.8250    0.0000 N   0  0  0  0  0  0  0  0  0  0  0  0
   -2.3149   -1.2195    0.0000 N   0  0  0  0  0  0  0  0  0  0  0  0
   -2.8579    0.8250    0.0000 N   0  0  0  0  0  0  0  0  0  0  0  0
   -3.4710   -0.5520    0.0000 N   0  0  0  0  0  0  0  0  0  0  0  0
    0.7145   -0.4125    0.0000 C   0  0  0  0  0  0  0  0  0  0  0  0
    2.1434   -1.2375    0.0000 C   0  0  0  0  0  0  0  0  0  0  0  0
    1.4289   -1.6500    0.0000 C   0  0  0  0  0  0  0  0  0  0  0  0
    2.1434   -0.4125    0.0000 C   0  0  0  0  0  0  0  0  0  0  0  0
    0.0000   -1.6500    0.0000 C   0  0  0  0  0  0  0  0  0  0  0  0
    0.0000    0.0000    0.0000 C   0  0  3  0  0  0  0  0  0  0  0  0
    2.8579   -1.6500    0.0000 C   0  0  0  0  0  0  0  0  0  0  0  0
   -1.4289    0.0000    0.0000 C   0  0  0  0  0  0  0  0  0  0  0  0
    2.8579    0.0000    0.0000 C   0  0  0  0  0  0  0  0  0  0  0  0
   -2.1434   -0.4125    0.0000 C   0  0  0  0  0  0  0  0  0  0  0  0
    0.0000   -2.4750    0.0000 C   0  0  0  0  0  0  0  0  0  0  0  0
   -0.7145   -1.2375    0.0000 C   0  0  0  0  0  0  0  0  0  0  0  0
   -2.8579    0.0000    0.0000 C   0  0  0  0  0  0  0  0  0  0  0  0
    3.5724   -1.2375    0.0000 C   0  0  0  0  0  0  0  0  0  0  0  0
   -0.7145   -2.8875    0.0000 C   0  0  0  0  0  0  0  0  0  0  0  0
    0.0000    0.8250    0.0000 C   0  0  0  0  0  0  0  0  0  0  0  0
    3.5724   -0.4125    0.0000 C   0  0  0  0  0  0  0  0  0  0  0  0
   -1.4289   -1.6500    0.0000 C   0  0  0  0  0  0  0  0  0  0  0  0
   -1.4289   -2.4750    0.0000 C   0  0  0  0  0  0  0  0  0  0  0  0
   -2.1434    1.2375    0.0000 C   0  0  0  0  0  0  0  0  0  0  0  0
   -0.7145   -3.7125    0.0000 C   0  0  0  0  0  0  0  0  0  0  0  0
   -3.1354   -1.3057    0.0000 C   0  0  0  0  0  0  0  0  0  0  0  0
    0.0000   -4.1250    0.0000 C   0  0  0  0  0  0  0  0  0  0  0  0
    0.7145    1.2375    0.0000 C   0  0  0  0  0  0  0  0  0  0  0  0
  1 19  1  0  0  0  0
  2 35  1  0  0  0  0
  3 35  1  0  0  0  0
  4 35  1  0  0  0  0
  5 15  2  0  0  0  0
  6 13  1  0  0  0  0
  6 15  1  0  0  0  0
  6 17  1  0  0  0  0
  7 13  2  0  0  0  0
  7 16  1  0  0  0  0
  8 18  1  0  0  0  0
  8 20  1  0  0  0  0
  9 20  1  0  0  0  0
  9 32  2  0  0  0  0
 10 22  1  0  0  0  0
 10 34  2  0  0  0  0
 11 25  2  0  0  0  0
 11 32  1  0  0  0  0
 12 25  1  0  0  0  0
 12 34  1  0  0  0  0
 13 18  1  0  0  0  0
 14 15  1  0  0  0  0
 14 16  1  0  0  0  0
 14 19  2  0  0  0  0
 16 21  2  0  0  0  0
 17 23  2  0  0  0  0
 17 24  1  0  0  0  0
 18 28  1  0  0  0  0
 19 26  1  0  0  0  0
 20 22  2  0  0  0  0
 21 29  1  0  0  0  0
 22 25  1  0  0  0  0
 23 27  1  0  0  0  0
 24 30  2  0  0  0  0
 26 29  2  0  0  0  0
 27 31  2  0  0  0  0
 27 33  1  0  0  0  0
 28 36  1  0  0  0  0
 30 31  1  0  0  0  0
 33 35  1  0  0  0  0
M  END
> <PUBCHEM_COMPOUND_ID_TYPE>
0

> <PUBCHEM_TOTAL_CHARGE>
0

> <PUBCHEM_SUBSTANCE_ID>
310930801

> <PUBCHEM_SUBSTANCE_VERSION>
1

> <PUBCHEM_EXT_DATASOURCE_NAME>
4488

> <PUBCHEM_EXT_DATASOURCE_REGID>
SCHEMBL16108098

> <PUBCHEM_SUBSTANCE_COMMENT>
InChI=1S/C24H19F4N7O/c1-2-16(33-21-19-20(30-11-29-19)31-12-32-21)22-34-17-8-4-7-15(25)18(17)23(36)35(22)14-6-3-5-13(9-14)10-24(26,27)28/h3-9,11-12,16H,2,10H2,1H3,(H2,29,30,31,32,33)
InChIKey=JSFCONAGIRFNEB-UHFFFAOYSA-N

> <PUBCHEM_SUBSTANCE_SYNONYM>
SCHEMBL16108098

> <PUBCHEM_XREF_EXT_ID>
SCHEMBL16108098

> <PUBCHEM_EXT_DATASOURCE_URL>
https://www.surechembl.org/

> <PUBCHEM_EXT_SUBSTANCE_URL>
https://www.surechembl.org/chemical/SCHEMBL16108098

> <PUBCHEM_CID_ASSOCIATIONS>
117599811  1

> <PUBCHEM_COORDINATE_TYPE>
1
3

$$$$
