310944038
  -OEChem-07211613022D

 22 24  0     1  0  0  0  0  0999 V2000
   -1.9292   -1.2496    0.0000 N   0  0  0  0  0  0  0  0  0  0  0  0
   -2.4922   -1.8674    0.0000 N   0  0  0  0  0  0  0  0  0  0  0  0
    0.2815   -1.5791    0.0000 N   0  0  3  0  0  0  0  0  0  0  0  0
    2.4510   -1.1672    0.0000 N   0  0  0  0  0  0  0  0  0  0  0  0
   -2.4373    1.2221    0.0000 C   0  0  0  0  0  0  0  0  0  0  0  0
   -2.0940   -0.3982    0.0000 C   0  0  0  0  0  0  0  0  0  0  0  0
   -1.1466   -1.5517    0.0000 C   0  0  0  0  0  0  0  0  0  0  0  0
   -3.0552    0.6591    0.0000 C   0  0  0  0  0  0  0  0  0  0  0  0
   -1.6546    0.9612    0.0000 C   0  0  0  0  0  0  0  0  0  0  0  0
   -2.8767   -0.1373    0.0000 C   0  0  0  0  0  0  0  0  0  0  0  0
   -1.4761    0.1511    0.0000 C   0  0  0  0  0  0  0  0  0  0  0  0
   -3.1925    1.5517    0.0000 C   0  0  0  0  0  0  0  0  0  0  0  0
   -1.9018    1.8262    0.0000 C   0  0  0  0  0  0  0  0  0  0  0  0
   -1.2564   -2.3892    0.0000 C   0  0  0  0  0  0  0  0  0  0  0  0
   -0.4326   -1.1397    0.0000 C   0  0  0  0  0  0  0  0  0  0  0  0
   -2.0665   -2.5403    0.0000 C   0  0  0  0  0  0  0  0  0  0  0  0
   -3.1101    2.3755    0.0000 C   0  0  0  0  0  0  0  0  0  0  0  0
   -2.3000    2.5403    0.0000 C   0  0  0  0  0  0  0  0  0  0  0  0
    1.0092   -1.1534    0.0000 C   0  0  0  0  0  0  0  0  0  0  0  0
    0.3090   -2.4030    0.0000 C   0  0  0  0  0  0  0  0  0  0  0  0
    1.7370   -1.5517    0.0000 C   0  0  0  0  0  0  0  0  0  0  0  0
    3.1925   -1.5791    0.0000 C   0  0  0  0  0  0  0  0  0  0  0  0
  1  2  1  0  0  0  0
  1  6  1  0  0  0  0
  1  7  1  0  0  0  0
  2 16  2  0  0  0  0
  3 15  1  0  0  0  0
  3 19  1  0  0  0  0
  3 20  1  0  0  0  0
  4 21  1  0  0  0  0
  4 22  1  0  0  0  0
  5  8  1  0  0  0  0
  5  9  1  0  0  0  0
  5 12  1  0  0  0  0
  5 13  1  0  0  0  0
  6 10  1  0  0  0  0
  6 11  1  0  0  0  0
  7 14  2  0  0  0  0
  7 15  1  0  0  0  0
  8 10  1  0  0  0  0
  9 11  1  0  0  0  0
 12 17  1  0  0  0  0
 13 18  1  0  0  0  0
 14 16  1  0  0  0  0
 17 18  1  0  0  0  0
 19 21  1  0  0  0  0
M  END
> <PUBCHEM_COMPOUND_ID_TYPE>
0

> <PUBCHEM_TOTAL_CHARGE>
0

> <PUBCHEM_SUBSTANCE_ID>
310944038

> <PUBCHEM_SUBSTANCE_VERSION>
1

> <PUBCHEM_EXT_DATASOURCE_NAME>
4488

> <PUBCHEM_EXT_DATASOURCE_REGID>
SCHEMBL16122111

> <PUBCHEM_SUBSTANCE_COMMENT>
InChI=1S/C18H32N4/c1-19-13-14-21(2)15-17-7-12-20-22(17)16-5-10-18(11-6-16)8-3-4-9-18/h7,12,16,19H,3-6,8-11,13-15H2,1-2H3
InChIKey=PSCKTEZSICKYOL-UHFFFAOYSA-N

> <PUBCHEM_SUBSTANCE_SYNONYM>
SCHEMBL16122111

> <PUBCHEM_XREF_EXT_ID>
SCHEMBL16122111

> <PUBCHEM_EXT_DATASOURCE_URL>
https://www.surechembl.org/

> <PUBCHEM_EXT_SUBSTANCE_URL>
https://www.surechembl.org/chemical/SCHEMBL16122111

> <PUBCHEM_CID_ASSOCIATIONS>
90460402  1

> <PUBCHEM_COORDINATE_TYPE>
1
3

$$$$
