310933540
  -OEChem-07211613022D

 13 11  0     1  0  0  0  0  0999 V2000
    0.0000   -1.4395    0.0000 Cl  0  0  0  0  0  0  0  0  0  0  0  0
    1.6581   -1.4395    0.0000 Cl  0  0  0  0  0  0  0  0  0  0  0  0
    4.0269   -1.2390    0.0000 N   0  0  3  0  0  0  0  0  0  0  0  0
    5.4663   -2.8789    0.0000 N   0  0  0  0  0  0  0  0  0  0  0  0
    4.7557   -1.6399    0.0000 C   0  0  3  0  0  0  0  0  0  0  0  0
    4.7557   -2.4599    0.0000 C   0  0  3  0  0  0  0  0  0  0  0  0
    3.3163   -1.6399    0.0000 C   0  0  0  0  0  0  0  0  0  0  0  0
    4.0269   -2.8789    0.0000 C   0  0  0  0  0  0  0  0  0  0  0  0
    5.4663   -1.2208    0.0000 C   0  0  0  0  0  0  0  0  0  0  0  0
    3.3163   -2.4599    0.0000 C   0  0  0  0  0  0  0  0  0  0  0  0
    4.0269   -0.4008    0.0000 C   0  0  0  0  0  0  0  0  0  0  0  0
    5.4482   -0.3827    0.0000 C   0  0  0  0  0  0  0  0  0  0  0  0
    3.2980    0.0000    0.0000 C   0  0  0  0  0  0  0  0  0  0  0  0
  3  5  1  0  0  0  0
  3  7  1  0  0  0  0
  3 11  1  0  0  0  0
  4  6  1  0  0  0  0
  5  6  1  0  0  0  0
  5  9  1  0  0  0  0
  6  8  1  0  0  0  0
  7 10  1  0  0  0  0
  8 10  1  0  0  0  0
  9 12  1  0  0  0  0
 11 13  1  0  0  0  0
M  END
> <PUBCHEM_COMPOUND_ID_TYPE>
0

> <PUBCHEM_TOTAL_CHARGE>
0

> <PUBCHEM_SUBSTANCE_ID>
310933540

> <PUBCHEM_SUBSTANCE_VERSION>
1

> <PUBCHEM_EXT_DATASOURCE_NAME>
4488

> <PUBCHEM_EXT_DATASOURCE_REGID>
SCHEMBL16110963

> <PUBCHEM_SUBSTANCE_COMMENT>
InChI=1S/C9H20N2.2ClH/c1-3-9-8(10)6-5-7-11(9)4-2;;/h8-9H,3-7,10H2,1-2H3;2*1H
InChIKey=OBUKWBPDCKRSLG-UHFFFAOYSA-N

> <PUBCHEM_SUBSTANCE_SYNONYM>
SCHEMBL16110963

> <PUBCHEM_XREF_EXT_ID>
SCHEMBL16110963

> <PUBCHEM_EXT_DATASOURCE_URL>
https://www.surechembl.org/

> <PUBCHEM_EXT_SUBSTANCE_URL>
https://www.surechembl.org/chemical/SCHEMBL16110963

> <PUBCHEM_CID_ASSOCIATIONS>
117601928  1
313  2
83682125  2

> <PUBCHEM_COORDINATE_TYPE>
1
3

$$$$
