310932650
  -OEChem-07211613022D

 25 27  0     1  0  0  0  0  0999 V2000
    3.2980    0.0000    0.0000 O   0  0  0  0  0  0  0  0  0  0  0  0
    4.4353   -1.9618    0.0000 O   0  0  0  0  0  0  0  0  0  0  0  0
    5.1461   -0.7108    0.0000 O   0  0  0  0  0  0  0  0  0  0  0  0
    3.7245   -0.7108    0.0000 C   0  0  3  0  0  0  0  0  0  0  0  0
    2.9000   -0.7108    0.0000 C   0  0  3  0  0  0  0  0  0  0  0  0
    3.4971   -1.5353    0.0000 C   0  0  0  0  0  0  0  0  0  0  0  0
    4.4353   -1.1373    0.0000 C   0  0  0  0  0  0  0  0  0  0  0  0
    2.1608   -1.1373    0.0000 C   0  0  0  0  0  0  0  0  0  0  0  0
    4.0941   -2.1324    0.0000 C   0  0  0  0  0  0  0  0  0  0  0  0
    2.7010   -1.7627    0.0000 C   0  0  0  0  0  0  0  0  0  0  0  0
    2.1608   -1.9618    0.0000 C   0  0  0  0  0  0  0  0  0  0  0  0
    1.4500   -0.7392    0.0000 C   0  0  0  0  0  0  0  0  0  0  0  0
    3.8667   -2.9284    0.0000 C   0  0  0  0  0  0  0  0  0  0  0  0
    2.5020   -2.5588    0.0000 C   0  0  0  0  0  0  0  0  0  0  0  0
    1.4500   -2.3882    0.0000 C   0  0  0  0  0  0  0  0  0  0  0  0
    0.7392   -1.1373    0.0000 C   0  0  0  0  0  0  0  0  0  0  0  0
    0.7392   -1.9618    0.0000 C   0  0  0  0  0  0  0  0  0  0  0  0
    5.1461   -2.3882    0.0000 C   0  0  0  0  0  0  0  0  0  0  0  0
    3.0706   -3.1275    0.0000 C   0  0  0  0  0  0  0  0  0  0  0  0
    5.1461   -3.2127    0.0000 C   0  0  0  0  0  0  0  0  0  0  0  0
    0.0000   -2.3882    0.0000 C   0  0  0  0  0  0  0  0  0  0  0  0
    5.8569   -3.6108    0.0000 C   0  0  0  0  0  0  0  0  0  0  0  0
    5.8853   -4.4353    0.0000 C   0  0  0  0  0  0  0  0  0  0  0  0
    6.5961   -4.8618    0.0000 C   0  0  0  0  0  0  0  0  0  0  0  0
    6.5961   -5.6863    0.0000 C   0  0  0  0  0  0  0  0  0  0  0  0
  1  4  1  0  0  0  0
  1  5  1  0  0  0  0
  2  7  1  0  0  0  0
  2 18  1  0  0  0  0
  3  7  2  0  0  0  0
  4  5  1  0  0  0  0
  4  6  1  0  0  0  0
  4  7  1  0  0  0  0
  5  8  1  0  0  0  0
  6  9  2  0  0  0  0
  6 10  1  0  0  0  0
  8 11  2  0  0  0  0
  8 12  1  0  0  0  0
  9 13  1  0  0  0  0
 10 14  2  0  0  0  0
 11 15  1  0  0  0  0
 12 16  2  0  0  0  0
 13 19  2  0  0  0  0
 14 19  1  0  0  0  0
 15 17  2  0  0  0  0
 16 17  1  0  0  0  0
 17 21  1  0  0  0  0
 18 20  1  0  0  0  0
 20 22  1  0  0  0  0
 22 23  1  0  0  0  0
 23 24  1  0  0  0  0
 24 25  1  0  0  0  0
M  END
> <PUBCHEM_COMPOUND_ID_TYPE>
0

> <PUBCHEM_TOTAL_CHARGE>
0

> <PUBCHEM_SUBSTANCE_ID>
310932650

> <PUBCHEM_SUBSTANCE_VERSION>
1

> <PUBCHEM_EXT_DATASOURCE_NAME>
4488

> <PUBCHEM_EXT_DATASOURCE_REGID>
SCHEMBL16110029

> <PUBCHEM_SUBSTANCE_COMMENT>
InChI=1S/C22H26O3/c1-3-4-5-9-16-24-21(23)22(19-10-7-6-8-11-19)20(25-22)18-14-12-17(2)13-15-18/h6-8,10-15,20H,3-5,9,16H2,1-2H3
InChIKey=WDNOGXQDYGIUNJ-UHFFFAOYSA-N

> <PUBCHEM_SUBSTANCE_SYNONYM>
SCHEMBL16110029

> <PUBCHEM_XREF_EXT_ID>
SCHEMBL16110029

> <PUBCHEM_EXT_DATASOURCE_URL>
https://www.surechembl.org/

> <PUBCHEM_EXT_SUBSTANCE_URL>
https://www.surechembl.org/chemical/SCHEMBL16110029

> <PUBCHEM_CID_ASSOCIATIONS>
117601167  1

> <PUBCHEM_COORDINATE_TYPE>
1
3

$$$$
