310935106
  -OEChem-07211613022D

 24 26  0     1  0  0  0  0  0999 V2000
   -2.0035   -0.3544    0.0000 F   0  0  0  0  0  0  0  0  0  0  0  0
    0.0032   -5.3493    0.0000 F   0  0  0  0  0  0  0  0  0  0  0  0
    1.0116    0.1602    0.0000 O   0  0  0  0  0  0  0  0  0  0  0  0
    2.0735   -0.7959    0.0000 O   0  0  0  0  0  0  0  0  0  0  0  0
   -1.4884   -3.7557    0.0000 N   0  0  0  0  0  0  0  0  0  0  0  0
    0.7145   -1.2375    0.0000 C   0  0  3  0  0  0  0  0  0  0  0  0
    0.1624   -0.6244    0.0000 C   0  0  0  0  0  0  0  0  0  0  0  0
    0.0470   -1.7224    0.0000 C   0  0  0  0  0  0  0  0  0  0  0  0
    0.3020   -2.5070    0.0000 C   0  0  0  0  0  0  0  0  0  0  0  0
    1.3819   -1.7224    0.0000 C   0  0  0  0  0  0  0  0  0  0  0  0
    1.2665   -0.6244    0.0000 C   0  0  0  0  0  0  0  0  0  0  0  0
   -0.6445   -0.7959    0.0000 C   0  0  0  0  0  0  0  0  0  0  0  0
    1.1270   -2.5070    0.0000 C   0  0  0  0  0  0  0  0  0  0  0  0
    0.4174    0.1602    0.0000 C   0  0  0  0  0  0  0  0  0  0  0  0
   -1.1966   -0.1828    0.0000 C   0  0  0  0  0  0  0  0  0  0  0  0
   -0.1830   -3.1745    0.0000 C   0  0  0  0  0  0  0  0  0  0  0  0
   -0.9416    0.6018    0.0000 C   0  0  0  0  0  0  0  0  0  0  0  0
   -0.1347    0.7733    0.0000 C   0  0  0  0  0  0  0  0  0  0  0  0
    0.1526   -3.9282    0.0000 C   0  0  0  0  0  0  0  0  0  0  0  0
   -1.0034   -3.0882    0.0000 C   0  0  0  0  0  0  0  0  0  0  0  0
   -0.8995   -1.5806    0.0000 C   0  0  0  0  0  0  0  0  0  0  0  0
   -0.3323   -4.5956    0.0000 C   0  0  0  0  0  0  0  0  0  0  0  0
   -1.4937    1.2149    0.0000 C   0  0  0  0  0  0  0  0  0  0  0  0
   -1.1528   -4.5094    0.0000 C   0  0  0  0  0  0  0  0  0  0  0  0
  1 15  1  0  0  0  0
  2 22  1  0  0  0  0
  3 11  2  0  0  0  0
  4 11  1  0  0  0  0
  5 20  2  0  0  0  0
  5 24  1  0  0  0  0
  6  7  1  0  0  0  0
  6  8  1  0  0  0  0
  6 10  1  0  0  0  0
  6 11  1  0  0  0  0
  7 12  2  0  0  0  0
  7 14  1  0  0  0  0
  8  9  2  0  0  0  0
  9 13  1  0  0  0  0
  9 16  1  0  0  0  0
 10 13  1  0  0  0  0
 12 15  1  0  0  0  0
 12 21  1  0  0  0  0
 14 18  2  0  0  0  0
 15 17  2  0  0  0  0
 16 19  2  0  0  0  0
 16 20  1  0  0  0  0
 17 18  1  0  0  0  0
 17 23  1  0  0  0  0
 19 22  1  0  0  0  0
 22 24  2  0  0  0  0
M  END
> <PUBCHEM_COMPOUND_ID_TYPE>
0

> <PUBCHEM_TOTAL_CHARGE>
0

> <PUBCHEM_SUBSTANCE_ID>
310935106

> <PUBCHEM_SUBSTANCE_VERSION>
1

> <PUBCHEM_EXT_DATASOURCE_NAME>
4488

> <PUBCHEM_EXT_DATASOURCE_REGID>
SCHEMBL16112633

> <PUBCHEM_SUBSTANCE_COMMENT>
InChI=1S/C19H17F2NO2/c1-11-3-4-16(12(2)17(11)21)19(18(23)24)6-5-13(8-19)14-7-15(20)10-22-9-14/h3-4,7-10H,5-6H2,1-2H3,(H,23,24)
InChIKey=UJGJANVYYLPJHU-UHFFFAOYSA-N

> <PUBCHEM_SUBSTANCE_SYNONYM>
SCHEMBL16112633

> <PUBCHEM_XREF_EXT_ID>
SCHEMBL16112633

> <PUBCHEM_EXT_DATASOURCE_URL>
https://www.surechembl.org/

> <PUBCHEM_EXT_SUBSTANCE_URL>
https://www.surechembl.org/chemical/SCHEMBL16112633

> <PUBCHEM_CID_ASSOCIATIONS>
117603198  1

> <PUBCHEM_COORDINATE_TYPE>
1
3

$$$$
