310931602
  -OEChem-07211613022D

 33 37  0     1  0  0  0  0  0999 V2000
   -2.0926   -0.2184    0.0000 O   0  0  0  0  0  0  0  0  0  0  0  0
   -5.0413   -1.1696    0.0000 O   0  0  0  0  0  0  0  0  0  0  0  0
    2.8579    0.8250    0.0000 O   0  0  0  0  0  0  0  0  0  0  0  0
   -3.3220    0.6108    0.0000 N   0  0  0  0  0  0  0  0  0  0  0  0
   -2.7369    1.8106    0.0000 N   0  0  0  0  0  0  0  0  0  0  0  0
   -4.1797    1.8358    0.0000 N   0  0  0  0  0  0  0  0  0  0  0  0
   -2.1434    1.2375    0.0000 C   0  0  3  0  0  0  0  0  0  0  0  0
   -2.5051    0.4960    0.0000 C   0  0  0  0  0  0  0  0  0  0  0  0
   -1.4290    0.8250    0.0000 C   0  0  0  0  0  0  0  0  0  0  0  0
   -1.6131    1.8695    0.0000 C   0  0  0  0  0  0  0  0  0  0  0  0
   -3.4653    1.4233    0.0000 C   0  0  0  0  0  0  0  0  0  0  0  0
   -3.8951    0.0174    0.0000 C   0  0  0  0  0  0  0  0  0  0  0  0
   -0.7145    1.2375    0.0000 C   0  0  0  0  0  0  0  0  0  0  0  0
   -1.4290    0.0000    0.0000 C   0  0  0  0  0  0  0  0  0  0  0  0
   -0.8007    1.7263    0.0000 C   0  0  0  0  0  0  0  0  0  0  0  0
   -1.8953    2.6447    0.0000 C   0  0  0  0  0  0  0  0  0  0  0  0
    0.0000    0.8250    0.0000 C   0  0  0  0  0  0  0  0  0  0  0  0
   -4.6956    0.2169    0.0000 C   0  0  0  0  0  0  0  0  0  0  0  0
   -3.6677   -0.7757    0.0000 C   0  0  0  0  0  0  0  0  0  0  0  0
   -0.7145   -0.4125    0.0000 C   0  0  0  0  0  0  0  0  0  0  0  0
    0.7145    1.2375    0.0000 C   0  0  0  0  0  0  0  0  0  0  0  0
    0.0000    0.0000    0.0000 C   0  0  0  0  0  0  0  0  0  0  0  0
   -0.2704    2.3582    0.0000 C   0  0  0  0  0  0  0  0  0  0  0  0
   -1.3650    3.2767    0.0000 C   0  0  0  0  0  0  0  0  0  0  0  0
   -0.5525    3.1335    0.0000 C   0  0  0  0  0  0  0  0  0  0  0  0
   -5.2687   -0.3765    0.0000 C   0  0  0  0  0  0  0  0  0  0  0  0
   -4.2409   -1.3691    0.0000 C   0  0  0  0  0  0  0  0  0  0  0  0
    1.4290    0.8250    0.0000 C   0  0  0  0  0  0  0  0  0  0  0  0
    0.7145    2.0625    0.0000 C   0  0  0  0  0  0  0  0  0  0  0  0
    2.1434    1.2375    0.0000 C   0  0  0  0  0  0  0  0  0  0  0  0
    1.4290    2.4750    0.0000 C   0  0  0  0  0  0  0  0  0  0  0  0
    2.1434    2.0625    0.0000 C   0  0  0  0  0  0  0  0  0  0  0  0
    3.5724    1.2375    0.0000 C   0  0  0  0  0  0  0  0  0  0  0  0
  1  8  2  0  0  0  0
  2 26  1  0  0  0  0
  2 27  1  0  0  0  0
  3 30  1  0  0  0  0
  3 33  1  0  0  0  0
  4  8  1  0  0  0  0
  4 11  1  0  0  0  0
  4 12  1  0  0  0  0
  5  7  1  0  0  0  0
  5 11  1  0  0  0  0
  6 11  2  3  0  0  0
  7  8  1  0  0  0  0
  7  9  1  0  0  0  0
  7 10  1  0  0  0  0
  9 13  1  0  0  0  0
  9 14  2  0  0  0  0
 10 15  2  0  0  0  0
 10 16  1  0  0  0  0
 12 18  1  0  0  0  0
 12 19  1  0  0  0  0
 13 17  2  0  0  0  0
 14 20  1  0  0  0  0
 15 23  1  0  0  0  0
 16 24  2  0  0  0  0
 17 21  1  0  0  0  0
 17 22  1  0  0  0  0
 18 26  1  0  0  0  0
 19 27  1  0  0  0  0
 20 22  2  0  0  0  0
 21 28  1  0  0  0  0
 21 29  2  0  0  0  0
 23 25  2  0  0  0  0
 24 25  1  0  0  0  0
 28 30  2  0  0  0  0
 29 31  1  0  0  0  0
 30 32  1  0  0  0  0
 31 32  2  0  0  0  0
M  END
> <PUBCHEM_COMPOUND_ID_TYPE>
0

> <PUBCHEM_TOTAL_CHARGE>
0

> <PUBCHEM_SUBSTANCE_ID>
310931602

> <PUBCHEM_SUBSTANCE_VERSION>
1

> <PUBCHEM_EXT_DATASOURCE_NAME>
4488

> <PUBCHEM_EXT_DATASOURCE_REGID>
SCHEMBL16108928

> <PUBCHEM_SUBSTANCE_COMMENT>
InChI=1S/C27H27N3O3/c1-32-24-12-6-8-20(18-24)19-7-5-11-22(17-19)27(21-9-3-2-4-10-21)25(31)30(26(28)29-27)23-13-15-33-16-14-23/h2-12,17-18,23H,13-16H2,1H3,(H2,28,29)
InChIKey=ZJGDHDGFYURDGA-UHFFFAOYSA-N

> <PUBCHEM_SUBSTANCE_SYNONYM>
SCHEMBL16108928

> <PUBCHEM_XREF_EXT_ID>
SCHEMBL16108928

> <PUBCHEM_EXT_DATASOURCE_URL>
https://www.surechembl.org/

> <PUBCHEM_EXT_SUBSTANCE_URL>
https://www.surechembl.org/chemical/SCHEMBL16108928

> <PUBCHEM_CID_ASSOCIATIONS>
86273112  1

> <PUBCHEM_COORDINATE_TYPE>
1
3

$$$$
