310947863
  -OEChem-07211613022D

 21 23  0     1  0  0  0  0  0999 V2000
    0.3984    0.2962    0.0000 N   0  0  0  0  0  0  0  0  0  0  0  0
    2.4249    1.2227    0.0000 N   0  0  0  0  0  0  0  0  0  0  0  0
   -0.3160   -1.7663    0.0000 N   0  0  0  0  0  0  0  0  0  0  0  0
    1.0659    0.7811    0.0000 C   0  0  0  0  0  0  0  0  0  0  0  0
   -0.2690    0.7811    0.0000 C   0  0  0  0  0  0  0  0  0  0  0  0
    0.8109    1.5657    0.0000 C   0  0  0  0  0  0  0  0  0  0  0  0
   -0.0141    1.5657    0.0000 C   0  0  0  0  0  0  0  0  0  0  0  0
    1.8729    0.6096    0.0000 C   0  0  0  0  0  0  0  0  0  0  0  0
    0.3984   -0.5288    0.0000 C   0  0  3  0  0  0  0  0  0  0  0  0
   -1.0760    0.6096    0.0000 C   0  0  0  0  0  0  0  0  0  0  0  0
    1.3630    2.1788    0.0000 C   0  0  0  0  0  0  0  0  0  0  0  0
   -0.5661    2.1788    0.0000 C   0  0  0  0  0  0  0  0  0  0  0  0
   -1.6280    1.2227    0.0000 C   0  0  0  0  0  0  0  0  0  0  0  0
   -1.3731    2.0073    0.0000 C   0  0  0  0  0  0  0  0  0  0  0  0
    2.1699    2.0073    0.0000 C   0  0  0  0  0  0  0  0  0  0  0  0
   -0.3160   -0.9413    0.0000 C   0  0  0  0  0  0  0  0  0  0  0  0
    2.0864   -0.1873    0.0000 C   0  0  0  0  0  0  0  0  0  0  0  0
    1.1129   -0.9413    0.0000 C   0  0  0  0  0  0  0  0  0  0  0  0
   -2.4249    1.0091    0.0000 C   0  0  0  0  0  0  0  0  0  0  0  0
    0.3984   -2.1788    0.0000 C   0  0  0  0  0  0  0  0  0  0  0  0
   -1.0305   -2.1788    0.0000 C   0  0  0  0  0  0  0  0  0  0  0  0
  1  4  1  0  0  0  0
  1  5  1  0  0  0  0
  1  9  1  0  0  0  0
  2  8  2  0  0  0  0
  2 15  1  0  0  0  0
  3 16  1  0  0  0  0
  3 20  1  0  0  0  0
  3 21  1  0  0  0  0
  4  6  2  0  0  0  0
  4  8  1  0  0  0  0
  5  7  1  0  0  0  0
  5 10  2  0  0  0  0
  6  7  1  0  0  0  0
  6 11  1  0  0  0  0
  7 12  2  0  0  0  0
  8 17  1  0  0  0  0
  9 16  1  0  0  0  0
  9 18  1  0  0  0  0
 10 13  1  0  0  0  0
 11 15  2  0  0  0  0
 12 14  1  0  0  0  0
 13 14  2  0  0  0  0
 13 19  1  0  0  0  0
M  END
> <PUBCHEM_COMPOUND_ID_TYPE>
0

> <PUBCHEM_TOTAL_CHARGE>
0

> <PUBCHEM_SUBSTANCE_ID>
310947863

> <PUBCHEM_SUBSTANCE_VERSION>
1

> <PUBCHEM_EXT_DATASOURCE_NAME>
4488

> <PUBCHEM_EXT_DATASOURCE_REGID>
SCHEMBL16126037

> <PUBCHEM_SUBSTANCE_COMMENT>
InChI=1S/C18H23N3/c1-12-6-7-15-16-8-9-19-14(3)18(16)21(17(15)10-12)13(2)11-20(4)5/h6-10,13H,11H2,1-5H3
InChIKey=CPPBBURCEWBUPO-UHFFFAOYSA-N

> <PUBCHEM_SUBSTANCE_SYNONYM>
SCHEMBL16126037

> <PUBCHEM_XREF_EXT_ID>
SCHEMBL16126037

> <PUBCHEM_EXT_DATASOURCE_URL>
https://www.surechembl.org/

> <PUBCHEM_EXT_SUBSTANCE_URL>
https://www.surechembl.org/chemical/SCHEMBL16126037

> <PUBCHEM_CID_ASSOCIATIONS>
117613527  1

> <PUBCHEM_COORDINATE_TYPE>
1
3

$$$$
