310945556
  -OEChem-07211613022D

 12 12  0     1  0  0  0  0  0999 V2000
   -1.9164    0.2638    0.0000 N   0  0  0  0  0  0  0  0  0  0  0  0
    0.2916   -0.0694    0.0000 N   0  0  3  0  0  0  0  0  0  0  0  0
   -2.0553   -1.0694    0.0000 N   0  0  0  0  0  0  0  0  0  0  0  0
    2.4581    0.3333    0.0000 N   0  0  0  0  0  0  0  0  0  0  0  0
   -1.1388   -0.0417    0.0000 C   0  0  0  0  0  0  0  0  0  0  0  0
   -0.4305    0.3610    0.0000 C   0  0  0  0  0  0  0  0  0  0  0  0
   -1.2360   -0.8610    0.0000 C   0  0  0  0  0  0  0  0  0  0  0  0
   -2.4581   -0.3472    0.0000 C   0  0  0  0  0  0  0  0  0  0  0  0
   -2.0831    1.0694    0.0000 C   0  0  0  0  0  0  0  0  0  0  0  0
    1.0138    0.3610    0.0000 C   0  0  0  0  0  0  0  0  0  0  0  0
    0.3333   -0.8888    0.0000 C   0  0  0  0  0  0  0  0  0  0  0  0
    1.7637   -0.0417    0.0000 C   0  0  0  0  0  0  0  0  0  0  0  0
  1  5  1  0  0  0  0
  1  8  1  0  0  0  0
  1  9  1  0  0  0  0
  2  6  1  0  0  0  0
  2 10  1  0  0  0  0
  2 11  1  0  0  0  0
  3  7  1  0  0  0  0
  3  8  2  0  0  0  0
  4 12  1  0  0  0  0
  5  6  1  0  0  0  0
  5  7  2  0  0  0  0
 10 12  1  0  0  0  0
M  END
> <PUBCHEM_COMPOUND_ID_TYPE>
0

> <PUBCHEM_TOTAL_CHARGE>
0

> <PUBCHEM_SUBSTANCE_ID>
310945556

> <PUBCHEM_SUBSTANCE_VERSION>
1

> <PUBCHEM_EXT_DATASOURCE_NAME>
4488

> <PUBCHEM_EXT_DATASOURCE_REGID>
SCHEMBL16123654

> <PUBCHEM_SUBSTANCE_COMMENT>
InChI=1S/C8H16N4/c1-11(4-3-9)6-8-5-10-7-12(8)2/h5,7H,3-4,6,9H2,1-2H3
InChIKey=KKGQNRLMPNHDON-UHFFFAOYSA-N

> <PUBCHEM_SUBSTANCE_SYNONYM>
SCHEMBL16123654

> <PUBCHEM_XREF_EXT_ID>
SCHEMBL16123654

> <PUBCHEM_EXT_DATASOURCE_URL>
https://www.surechembl.org/

> <PUBCHEM_EXT_SUBSTANCE_URL>
https://www.surechembl.org/chemical/SCHEMBL16123654

> <PUBCHEM_CID_ASSOCIATIONS>
66117750  1

> <PUBCHEM_COORDINATE_TYPE>
1
3

$$$$
