310931144
  -OEChem-07211613022D

 37 40  0     1  0  0  0  0  0999 V2000
    6.8551   -1.5861    0.0000 Cl  0  0  0  0  0  0  0  0  0  0  0  0
    7.0380    1.5884    0.0000 S   0  0  0  0  0  0  0  0  0  0  0  0
    7.0850   -0.1340    0.0000 S   0  0  0  0  0  0  0  0  0  0  0  0
    5.6091    0.7634    0.0000 F   0  0  0  0  0  0  0  0  0  0  0  0
    5.6091    4.0634    0.0000 F   0  0  0  0  0  0  0  0  0  0  0  0
    4.8946    7.7759    0.0000 F   0  0  0  0  0  0  0  0  0  0  0  0
    6.3235    6.9509    0.0000 F   0  0  0  0  0  0  0  0  0  0  0  0
    4.1801    3.2384    0.0000 O   0  0  0  0  0  0  0  0  0  0  0  0
    7.4505    2.3029    0.0000 O   0  0  0  0  0  0  0  0  0  0  0  0
    6.6255    0.8739    0.0000 O   0  0  0  0  0  0  0  0  0  0  0  0
    0.6078    4.4759    0.0000 O   0  0  0  0  0  0  0  0  0  0  0  0
    7.7525    1.1759    0.0000 N   0  0  0  0  0  0  0  0  0  0  0  0
    2.0367    4.4759    0.0000 N   0  0  0  0  0  0  0  0  0  0  0  0
    8.4199   -0.1340    0.0000 N   0  0  0  0  0  0  0  0  0  0  0  0
    1.3222    3.2384    0.0000 N   0  0  0  0  0  0  0  0  0  0  0  0
    6.3235    2.0009    0.0000 C   0  0  0  0  0  0  0  0  0  0  0  0
    5.6091    1.5884    0.0000 C   0  0  0  0  0  0  0  0  0  0  0  0
    4.8946    2.8259    0.0000 C   0  0  0  0  0  0  0  0  0  0  0  0
    6.3235    2.8259    0.0000 C   0  0  0  0  0  0  0  0  0  0  0  0
    5.6091    3.2384    0.0000 C   0  0  0  0  0  0  0  0  0  0  0  0
    4.8946    2.0009    0.0000 C   0  0  0  0  0  0  0  0  0  0  0  0
    7.7525    0.3509    0.0000 C   0  0  0  0  0  0  0  0  0  0  0  0
    3.4656    5.3009    0.0000 C   0  0  3  0  0  0  0  0  0  0  0  0
    3.4656    4.4759    0.0000 C   0  0  3  0  0  0  0  0  0  0  0  0
    4.1801    5.7134    0.0000 C   0  0  0  0  0  0  0  0  0  0  0  0
    4.1801    4.0634    0.0000 C   0  0  0  0  0  0  0  0  0  0  0  0
    2.7512    4.0634    0.0000 C   0  0  0  0  0  0  0  0  0  0  0  0
    2.7512    5.7134    0.0000 C   0  0  0  0  0  0  0  0  0  0  0  0
    7.3400   -0.9187    0.0000 C   0  0  0  0  0  0  0  0  0  0  0  0
    4.1801    6.5384    0.0000 C   0  0  0  0  0  0  0  0  0  0  0  0
    2.0367    5.3009    0.0000 C   0  0  0  0  0  0  0  0  0  0  0  0
    4.8946    5.3009    0.0000 C   0  0  0  0  0  0  0  0  0  0  0  0
    8.1650   -0.9187    0.0000 C   0  0  0  0  0  0  0  0  0  0  0  0
    4.8946    6.9509    0.0000 C   0  0  0  0  0  0  0  0  0  0  0  0
    5.6091    6.5384    0.0000 C   0  0  0  0  0  0  0  0  0  0  0  0
    1.3222    4.0634    0.0000 C   0  0  0  0  0  0  0  0  0  0  0  0
    5.6091    5.7134    0.0000 C   0  0  0  0  0  0  0  0  0  0  0  0
  1 29  1  0  0  0  0
  2  9  2  0  0  0  0
  2 10  2  0  0  0  0
  2 12  1  0  0  0  0
  2 16  1  0  0  0  0
  3 22  1  0  0  0  0
  3 29  1  0  0  0  0
  4 17  1  0  0  0  0
  5 20  1  0  0  0  0
  6 34  1  0  0  0  0
  7 35  1  0  0  0  0
  8 18  1  0  0  0  0
  8 26  1  0  0  0  0
 11 36  2  0  0  0  0
 12 22  1  0  0  0  0
 13 27  1  0  0  0  0
 13 31  1  0  0  0  0
 13 36  1  0  0  0  0
 14 22  2  0  0  0  0
 14 33  1  0  0  0  0
 15 36  1  0  0  0  0
 16 17  1  0  0  0  0
 16 19  2  0  0  0  0
 17 21  2  0  0  0  0
 18 20  2  0  0  0  0
 18 21  1  0  0  0  0
 19 20  1  0  0  0  0
 23 24  1  0  0  0  0
 23 25  1  0  0  0  0
 23 28  1  0  0  0  0
 24 26  1  0  0  0  0
 24 27  1  0  0  0  0
 25 30  2  0  0  0  0
 25 32  1  0  0  0  0
 28 31  1  0  0  0  0
 29 33  2  0  0  0  0
 30 34  1  0  0  0  0
 32 37  2  0  0  0  0
 34 35  2  0  0  0  0
 35 37  1  0  0  0  0
M  END
> <PUBCHEM_COMPOUND_ID_TYPE>
0

> <PUBCHEM_TOTAL_CHARGE>
0

> <PUBCHEM_SUBSTANCE_ID>
310931144

> <PUBCHEM_SUBSTANCE_VERSION>
1

> <PUBCHEM_EXT_DATASOURCE_NAME>
4488

> <PUBCHEM_EXT_DATASOURCE_REGID>
SCHEMBL16108449

> <PUBCHEM_SUBSTANCE_COMMENT>
InChI=1S/C22H19ClF4N4O4S2/c23-20-8-29-22(36-20)30-37(33,34)19-7-16(26)18(6-17(19)27)35-10-12-9-31(21(28)32)4-3-13(12)11-1-2-14(24)15(25)5-11/h1-2,5-8,12-13H,3-4,9-10H2,(H2,28,32)(H,29,30)
InChIKey=DCTXGZORGKDRBN-UHFFFAOYSA-N

> <PUBCHEM_SUBSTANCE_SYNONYM>
SCHEMBL16108449

> <PUBCHEM_XREF_EXT_ID>
SCHEMBL16108449

> <PUBCHEM_EXT_DATASOURCE_URL>
https://www.surechembl.org/

> <PUBCHEM_EXT_SUBSTANCE_URL>
https://www.surechembl.org/chemical/SCHEMBL16108449

> <PUBCHEM_CID_ASSOCIATIONS>
78111501  1

> <PUBCHEM_COORDINATE_TYPE>
1
3

$$$$
