310947419
  -OEChem-07211613022D

 27 29  0     1  0  0  0  0  0999 V2000
    2.3805    0.3337    0.0000 S   0  0  0  0  0  0  0  0  0  0  0  0
    2.1670   -0.4632    0.0000 O   0  0  0  0  0  0  0  0  0  0  0  0
    3.1774    0.5472    0.0000 O   0  0  0  0  0  0  0  0  0  0  0  0
    1.1430    2.4771    0.0000 O   0  0  0  0  0  0  0  0  0  0  0  0
   -1.4044   -1.7627    0.0000 N   0  0  0  0  0  0  0  0  0  0  0  0
    1.5555    0.3337    0.0000 N   0  0  3  0  0  0  0  0  0  0  0  0
    1.1430   -1.8097    0.0000 N   0  0  0  0  0  0  0  0  0  0  0  0
   -0.9195   -1.0952    0.0000 C   0  0  0  0  0  0  0  0  0  0  0  0
   -1.4044   -0.4278    0.0000 C   0  0  0  0  0  0  0  0  0  0  0  0
   -2.1891   -0.6827    0.0000 C   0  0  0  0  0  0  0  0  0  0  0  0
   -2.1891   -1.5077    0.0000 C   0  0  0  0  0  0  0  0  0  0  0  0
   -0.0945   -1.0952    0.0000 C   0  0  0  0  0  0  0  0  0  0  0  0
    1.1430   -0.3808    0.0000 C   0  0  0  0  0  0  0  0  0  0  0  0
    0.3180   -0.3808    0.0000 C   0  0  0  0  0  0  0  0  0  0  0  0
   -2.9035   -0.2702    0.0000 C   0  0  0  0  0  0  0  0  0  0  0  0
   -2.9035   -1.9202    0.0000 C   0  0  0  0  0  0  0  0  0  0  0  0
    0.3180   -1.8097    0.0000 C   0  0  0  0  0  0  0  0  0  0  0  0
   -1.1909    0.3691    0.0000 C   0  0  0  0  0  0  0  0  0  0  0  0
    1.5555   -1.0952    0.0000 C   0  0  0  0  0  0  0  0  0  0  0  0
   -0.9919   -2.4771    0.0000 C   0  0  0  0  0  0  0  0  0  0  0  0
   -3.6180   -0.6827    0.0000 C   0  0  0  0  0  0  0  0  0  0  0  0
   -3.6180   -1.5077    0.0000 C   0  0  0  0  0  0  0  0  0  0  0  0
    1.1430    1.0482    0.0000 C   0  0  0  0  0  0  0  0  0  0  0  0
    2.7930    1.0482    0.0000 C   0  0  0  0  0  0  0  0  0  0  0  0
   -0.3940    0.5826    0.0000 C   0  0  0  0  0  0  0  0  0  0  0  0
    1.5555    1.7627    0.0000 C   0  0  0  0  0  0  0  0  0  0  0  0
    3.6180    1.0482    0.0000 C   0  0  0  0  0  0  0  0  0  0  0  0
  1  2  2  0  0  0  0
  1  3  2  0  0  0  0
  1  6  1  0  0  0  0
  1 24  1  0  0  0  0
  4 26  1  0  0  0  0
  5  8  1  0  0  0  0
  5 11  1  0  0  0  0
  5 20  1  0  0  0  0
  6 13  1  0  0  0  0
  6 23  1  0  0  0  0
  7 17  1  0  0  0  0
  7 19  2  0  0  0  0
  8  9  2  0  0  0  0
  8 12  1  0  0  0  0
  9 10  1  0  0  0  0
  9 18  1  0  0  0  0
 10 11  1  0  0  0  0
 10 15  2  0  0  0  0
 11 16  2  0  0  0  0
 12 14  1  0  0  0  0
 12 17  2  0  0  0  0
 13 14  2  0  0  0  0
 13 19  1  0  0  0  0
 15 21  1  0  0  0  0
 16 22  1  0  0  0  0
 18 25  1  0  0  0  0
 21 22  2  0  0  0  0
 23 26  1  0  0  0  0
 24 27  1  0  0  0  0
M  END
> <PUBCHEM_COMPOUND_ID_TYPE>
0

> <PUBCHEM_TOTAL_CHARGE>
0

> <PUBCHEM_SUBSTANCE_ID>
310947419

> <PUBCHEM_SUBSTANCE_VERSION>
1

> <PUBCHEM_EXT_DATASOURCE_NAME>
4488

> <PUBCHEM_EXT_DATASOURCE_REGID>
SCHEMBL16125580

> <PUBCHEM_SUBSTANCE_COMMENT>
InChI=1S/C20H25N3O3S/c1-4-17-18-8-6-7-9-19(18)22(3)20(17)15-12-16(14-21-13-15)23(10-11-24)27(25,26)5-2/h6-9,12-14,24H,4-5,10-11H2,1-3H3
InChIKey=KZVDLAZPTWDXOT-UHFFFAOYSA-N

> <PUBCHEM_SUBSTANCE_SYNONYM>
SCHEMBL16125580

> <PUBCHEM_XREF_EXT_ID>
SCHEMBL16125580

> <PUBCHEM_EXT_DATASOURCE_URL>
https://www.surechembl.org/

> <PUBCHEM_EXT_SUBSTANCE_URL>
https://www.surechembl.org/chemical/SCHEMBL16125580

> <PUBCHEM_CID_ASSOCIATIONS>
117613152  1

> <PUBCHEM_COORDINATE_TYPE>
1
3

$$$$
