310932125
  -OEChem-07211613022D

 25 27  0     1  0  0  0  0  0999 V2000
    2.1025   -5.3228    0.0000 O   0  0  0  0  0  0  0  0  0  0  0  0
    3.5396   -5.3228    0.0000 O   0  0  0  0  0  0  0  0  0  0  0  0
    2.8210   -2.4484    0.0000 N   0  0  3  0  0  0  0  0  0  0  0  0
    2.8210   -4.0985    0.0000 N   0  0  0  0  0  0  0  0  0  0  0  0
    0.6919   -0.4258    0.0000 N   0  0  0  0  0  0  0  0  0  0  0  0
    2.8210   -1.6234    0.0000 C   0  0  0  0  0  0  0  0  0  0  0  0
    2.1291   -1.2243    0.0000 C   0  0  0  0  0  0  0  0  0  0  0  0
    2.1291   -3.6993    0.0000 C   0  0  3  0  0  0  0  0  0  0  0  0
    2.1291   -0.4258    0.0000 C   0  0  0  0  0  0  0  0  0  0  0  0
    2.1291   -2.8743    0.0000 C   0  0  0  0  0  0  0  0  0  0  0  0
    1.4105   -4.0985    0.0000 C   0  0  0  0  0  0  0  0  0  0  0  0
    0.6919   -1.2509    0.0000 C   0  0  0  0  0  0  0  0  0  0  0  0
    1.4105   -1.6501    0.0000 C   0  0  0  0  0  0  0  0  0  0  0  0
    3.5396   -2.8743    0.0000 C   0  0  0  0  0  0  0  0  0  0  0  0
    3.5396   -3.6993    0.0000 C   0  0  0  0  0  0  0  0  0  0  0  0
    3.5396   -1.2243    0.0000 C   0  0  0  0  0  0  0  0  0  0  0  0
    1.4105    0.0000    0.0000 C   0  0  0  0  0  0  0  0  0  0  0  0
    2.8210   -4.9235    0.0000 C   0  0  0  0  0  0  0  0  0  0  0  0
    2.8210    0.0000    0.0000 C   0  0  0  0  0  0  0  0  0  0  0  0
    3.5130   -0.3992    0.0000 C   0  0  0  0  0  0  0  0  0  0  0  0
    0.9847   -3.3800    0.0000 C   0  0  0  0  0  0  0  0  0  0  0  0
    0.6919   -4.5243    0.0000 C   0  0  0  0  0  0  0  0  0  0  0  0
    1.8364   -4.8171    0.0000 C   0  0  0  0  0  0  0  0  0  0  0  0
    0.0000   -1.6501    0.0000 C   0  0  0  0  0  0  0  0  0  0  0  0
    0.6919   -2.0759    0.0000 C   0  0  0  0  0  0  0  0  0  0  0  0
  1 18  2  0  0  0  0
  2 18  1  0  0  0  0
  3  6  1  0  0  0  0
  3 10  1  0  0  0  0
  3 14  1  0  0  0  0
  4  8  1  0  0  0  0
  4 15  1  0  0  0  0
  4 18  1  0  0  0  0
  5 12  1  0  0  0  0
  5 17  1  0  0  0  0
  6  7  1  0  0  0  0
  6 16  2  0  0  0  0
  7  9  2  0  0  0  0
  7 13  1  0  0  0  0
  8 10  1  0  0  0  0
  8 11  1  0  0  0  0
  9 17  1  0  0  0  0
  9 19  1  0  0  0  0
 11 21  1  0  0  0  0
 11 22  1  0  0  0  0
 11 23  1  0  0  0  0
 12 13  1  0  0  0  0
 12 24  1  0  0  0  0
 12 25  1  0  0  0  0
 14 15  1  0  0  0  0
 16 20  1  0  0  0  0
 19 20  2  0  0  0  0
M  END
> <PUBCHEM_COMPOUND_ID_TYPE>
0

> <PUBCHEM_TOTAL_CHARGE>
0

> <PUBCHEM_SUBSTANCE_ID>
310932125

> <PUBCHEM_SUBSTANCE_VERSION>
1

> <PUBCHEM_EXT_DATASOURCE_NAME>
4488

> <PUBCHEM_EXT_DATASOURCE_REGID>
SCHEMBL16109477

> <PUBCHEM_SUBSTANCE_COMMENT>
InChI=1S/C20H31N3O2/c1-19(2,3)17-13-22(9-10-23(17)18(24)25)16-8-6-7-14-12-21-20(4,5)11-15(14)16/h6-8,17,21H,9-13H2,1-5H3,(H,24,25)
InChIKey=YIANXYHKABAGGL-UHFFFAOYSA-N

> <PUBCHEM_SUBSTANCE_SYNONYM>
SCHEMBL16109477

> <PUBCHEM_XREF_EXT_ID>
SCHEMBL16109477

> <PUBCHEM_EXT_DATASOURCE_URL>
https://www.surechembl.org/

> <PUBCHEM_EXT_SUBSTANCE_URL>
https://www.surechembl.org/chemical/SCHEMBL16109477

> <PUBCHEM_CID_ASSOCIATIONS>
117600737  1

> <PUBCHEM_COORDINATE_TYPE>
1
3

$$$$
