310949473
  -OEChem-07211613022D

 30 33  0     1  0  0  0  0  0999 V2000
   -3.5584    2.0903    0.0000 F   0  0  0  0  0  0  0  0  0  0  0  0
   -4.2779    1.6626    0.0000 F   0  0  0  0  0  0  0  0  0  0  0  0
   -3.5584    0.3986    0.0000 F   0  0  0  0  0  0  0  0  0  0  0  0
   -0.0194    2.4987    0.0000 O   0  0  0  0  0  0  0  0  0  0  0  0
   -2.8584    1.6626    0.0000 O   0  0  0  0  0  0  0  0  0  0  0  0
    2.8196   -0.0097    0.0000 N   0  0  0  0  0  0  0  0  0  0  0  0
    0.7000    1.2542    0.0000 N   0  0  0  0  0  0  0  0  0  0  0  0
    2.9556    1.3903    0.0000 N   0  0  0  0  0  0  0  0  0  0  0  0
    3.3640    0.6709    0.0000 N   0  0  0  0  0  0  0  0  0  0  0  0
    2.1195   -1.2542    0.0000 N   0  0  0  0  0  0  0  0  0  0  0  0
    2.0806    0.3986    0.0000 C   0  0  0  0  0  0  0  0  0  0  0  0
    2.1973    1.2153    0.0000 C   0  0  0  0  0  0  0  0  0  0  0  0
    1.4000    1.6626    0.0000 C   0  0  3  0  0  0  0  0  0  0  0  0
   -0.0194    1.6431    0.0000 C   0  0  0  0  0  0  0  0  0  0  0  0
    1.4390   -0.0097    0.0000 C   0  0  0  0  0  0  0  0  0  0  0  0
    2.8196   -0.8459    0.0000 C   0  0  0  0  0  0  0  0  0  0  0  0
    0.7194    0.3986    0.0000 C   0  0  0  0  0  0  0  0  0  0  0  0
   -0.7194    1.2542    0.0000 C   0  0  0  0  0  0  0  0  0  0  0  0
    3.5584   -1.2737    0.0000 C   0  0  0  0  0  0  0  0  0  0  0  0
    1.4390    2.5181    0.0000 C   0  0  0  0  0  0  0  0  0  0  0  0
   -1.4000    1.6431    0.0000 C   0  0  0  0  0  0  0  0  0  0  0  0
   -2.1195    1.2542    0.0000 C   0  0  0  0  0  0  0  0  0  0  0  0
   -0.7389    0.3986    0.0000 C   0  0  0  0  0  0  0  0  0  0  0  0
    3.5196   -2.0903    0.0000 C   0  0  0  0  0  0  0  0  0  0  0  0
    2.1390   -2.1097    0.0000 C   0  0  0  0  0  0  0  0  0  0  0  0
   -2.1195    0.3986    0.0000 C   0  0  0  0  0  0  0  0  0  0  0  0
   -1.4195   -0.0097    0.0000 C   0  0  0  0  0  0  0  0  0  0  0  0
    2.8584   -2.5181    0.0000 C   0  0  0  0  0  0  0  0  0  0  0  0
   -3.5584    1.2737    0.0000 C   0  0  0  0  0  0  0  0  0  0  0  0
    4.2779   -2.5181    0.0000 C   0  0  0  0  0  0  0  0  0  0  0  0
  1 29  1  0  0  0  0
  2 29  1  0  0  0  0
  3 29  1  0  0  0  0
  4 14  2  0  0  0  0
  5 22  1  0  0  0  0
  5 29  1  0  0  0  0
  6  9  1  0  0  0  0
  6 11  1  0  0  0  0
  6 16  1  0  0  0  0
  7 13  1  0  0  0  0
  7 14  1  0  0  0  0
  7 17  1  0  0  0  0
  8  9  2  0  0  0  0
  8 12  1  0  0  0  0
 10 16  1  0  0  0  0
 10 25  2  0  0  0  0
 11 12  2  0  0  0  0
 11 15  1  0  0  0  0
 12 13  1  0  0  0  0
 13 20  1  0  0  0  0
 14 18  1  0  0  0  0
 15 17  1  0  0  0  0
 16 19  2  0  0  0  0
 18 21  2  0  0  0  0
 18 23  1  0  0  0  0
 19 24  1  0  0  0  0
 21 22  1  0  0  0  0
 22 26  2  0  0  0  0
 23 27  2  0  0  0  0
 24 28  2  0  0  0  0
 24 30  1  0  0  0  0
 25 28  1  0  0  0  0
 26 27  1  0  0  0  0
M  END
> <PUBCHEM_COMPOUND_ID_TYPE>
0

> <PUBCHEM_TOTAL_CHARGE>
0

> <PUBCHEM_SUBSTANCE_ID>
310949473

> <PUBCHEM_SUBSTANCE_VERSION>
1

> <PUBCHEM_EXT_DATASOURCE_NAME>
4488

> <PUBCHEM_EXT_DATASOURCE_REGID>
SCHEMBL16127667

> <PUBCHEM_SUBSTANCE_COMMENT>
InChI=1S/C20H18F3N5O2/c1-12-6-8-24-17(10-12)28-16-7-9-27(13(2)18(16)25-26-28)19(29)14-4-3-5-15(11-14)30-20(21,22)23/h3-6,8,10-11,13H,7,9H2,1-2H3
InChIKey=UDJPXRFMDNQEJW-UHFFFAOYSA-N

> <PUBCHEM_SUBSTANCE_SYNONYM>
SCHEMBL16127667

> <PUBCHEM_XREF_EXT_ID>
SCHEMBL16127667

> <PUBCHEM_EXT_DATASOURCE_URL>
https://www.surechembl.org/

> <PUBCHEM_EXT_SUBSTANCE_URL>
https://www.surechembl.org/chemical/SCHEMBL16127667

> <PUBCHEM_CID_ASSOCIATIONS>
117614916  1

> <PUBCHEM_COORDINATE_TYPE>
1
3

$$$$
