310946797
  -OEChem-07211613022D

 19 20  0     1  0  0  0  0  0999 V2000
   -0.6168    1.2024    0.0000 O   0  0  0  0  0  0  0  0  0  0  0  0
   -1.8408   -0.6049    0.0000 N   0  0  0  0  0  0  0  0  0  0  0  0
   -2.1034   -3.4040    0.0000 N   0  0  0  0  0  0  0  0  0  0  0  0
   -2.6237   -0.8649    0.0000 N   0  0  0  0  0  0  0  0  0  0  0  0
   -1.6185   -4.0715    0.0000 N   0  0  0  0  0  0  0  0  0  0  0  0
    0.5951   -2.9915    0.0000 N   0  0  3  0  0  0  0  0  0  0  0  0
   -1.6185   -2.7366    0.0000 C   0  0  0  0  0  0  0  0  0  0  0  0
   -1.8320   -1.9397    0.0000 C   0  0  0  0  0  0  0  0  0  0  0  0
   -0.8339   -2.9915    0.0000 C   0  0  0  0  0  0  0  0  0  0  0  0
   -1.3515   -1.2691    0.0000 C   0  0  0  0  0  0  0  0  0  0  0  0
   -2.6183   -1.6899    0.0000 C   0  0  0  0  0  0  0  0  0  0  0  0
   -0.8339   -3.8165    0.0000 C   0  0  0  0  0  0  0  0  0  0  0  0
   -0.1194   -2.5790    0.0000 C   0  0  0  0  0  0  0  0  0  0  0  0
   -1.6272    0.1920    0.0000 C   0  0  0  0  0  0  0  0  0  0  0  0
    1.3096   -2.5790    0.0000 C   0  0  0  0  0  0  0  0  0  0  0  0
   -0.8303    0.4056    0.0000 C   0  0  0  0  0  0  0  0  0  0  0  0
    0.5951   -3.8165    0.0000 C   0  0  0  0  0  0  0  0  0  0  0  0
    2.0240   -2.9915    0.0000 C   0  0  0  0  0  0  0  0  0  0  0  0
    2.7385   -2.5790    0.0000 C   0  0  0  0  0  0  0  0  0  0  0  0
  1 16  1  0  0  0  0
  2  4  1  0  0  0  0
  2 10  1  0  0  0  0
  2 14  1  0  0  0  0
  3  5  1  0  0  0  0
  3  7  2  0  0  0  0
  4 11  2  0  0  0  0
  5 12  1  0  0  0  0
  6 13  1  0  0  0  0
  6 15  1  0  0  0  0
  6 17  1  0  0  0  0
  7  8  1  0  0  0  0
  7  9  1  0  0  0  0
  8 10  2  0  0  0  0
  8 11  1  0  0  0  0
  9 12  2  0  0  0  0
  9 13  1  0  0  0  0
 14 16  1  0  0  0  0
 15 18  1  0  0  0  0
 18 19  1  0  0  0  0
M  END
> <PUBCHEM_COMPOUND_ID_TYPE>
0

> <PUBCHEM_TOTAL_CHARGE>
0

> <PUBCHEM_SUBSTANCE_ID>
310946797

> <PUBCHEM_SUBSTANCE_VERSION>
1

> <PUBCHEM_EXT_DATASOURCE_NAME>
4488

> <PUBCHEM_EXT_DATASOURCE_REGID>
SCHEMBL16124921

> <PUBCHEM_SUBSTANCE_COMMENT>
InChI=1S/C13H21N5O/c1-3-4-17(2)9-11-7-14-16-13(11)12-8-15-18(10-12)5-6-19/h7-8,10,19H,3-6,9H2,1-2H3,(H,14,16)
InChIKey=AFRKLUJLPZCCOQ-UHFFFAOYSA-N

> <PUBCHEM_SUBSTANCE_SYNONYM>
SCHEMBL16124921

> <PUBCHEM_XREF_EXT_ID>
SCHEMBL16124921

> <PUBCHEM_EXT_DATASOURCE_URL>
https://www.surechembl.org/

> <PUBCHEM_EXT_SUBSTANCE_URL>
https://www.surechembl.org/chemical/SCHEMBL16124921

> <PUBCHEM_CID_ASSOCIATIONS>
117612658  1

> <PUBCHEM_COORDINATE_TYPE>
1
3

$$$$
