310945209
  -OEChem-07211613022D

 30 34  0     1  0  0  0  0  0999 V2000
    3.3787    1.3142    0.0000 O   0  0  0  0  0  0  0  0  0  0  0  0
   -3.4485    0.6397    0.0000 O   0  0  0  0  0  0  0  0  0  0  0  0
    1.8783   -1.0119    0.0000 N   0  0  0  0  0  0  0  0  0  0  0  0
    0.0756   -0.9188    0.0000 N   0  0  0  0  0  0  0  0  0  0  0  0
   -1.0758   -0.0698    0.0000 N   0  0  0  0  0  0  0  0  0  0  0  0
    4.0998    0.0814    0.0000 N   0  0  0  0  0  0  0  0  0  0  0  0
   -1.2270   -1.5120    0.0000 N   0  0  0  0  0  0  0  0  0  0  0  0
   -3.3671   -1.6980    0.0000 N   0  0  3  0  0  0  0  0  0  0  0  0
   -2.1342    0.0582    0.0000 N   0  0  0  0  0  0  0  0  0  0  0  0
    1.3899   -0.3257    0.0000 C   0  0  0  0  0  0  0  0  0  0  0  0
    1.8667    0.3373    0.0000 C   0  0  0  0  0  0  0  0  0  0  0  0
    2.6692    0.0814    0.0000 C   0  0  0  0  0  0  0  0  0  0  0  0
    0.5757   -0.2326    0.0000 C   0  0  0  0  0  0  0  0  0  0  0  0
    2.6460   -0.7443    0.0000 C   0  0  0  0  0  0  0  0  0  0  0  0
    0.2384    0.5117    0.0000 C   0  0  0  0  0  0  0  0  0  0  0  0
    3.3787    0.4769    0.0000 C   0  0  0  0  0  0  0  0  0  0  0  0
    1.5411    1.0933    0.0000 C   0  0  0  0  0  0  0  0  0  0  0  0
    0.7152    1.1747    0.0000 C   0  0  0  0  0  0  0  0  0  0  0  0
   -0.7502   -0.8257    0.0000 C   0  0  0  0  0  0  0  0  0  0  0  0
    3.4019   -1.1631    0.0000 C   0  0  0  0  0  0  0  0  0  0  0  0
   -0.5874    0.5931    0.0000 C   0  0  0  0  0  0  0  0  0  0  0  0
   -2.0644   -1.4073    0.0000 C   0  0  3  0  0  0  0  0  0  0  0  0
    4.0998   -0.7560    0.0000 C   0  0  0  0  0  0  0  0  0  0  0  0
   -2.4832   -0.6979    0.0000 C   0  0  3  0  0  0  0  0  0  0  0  0
   -2.5994   -2.0353    0.0000 C   0  0  0  0  0  0  0  0  0  0  0  0
   -3.2740   -0.8723    0.0000 C   0  0  0  0  0  0  0  0  0  0  0  0
   -2.5994    0.7327    0.0000 C   0  0  0  0  0  0  0  0  0  0  0  0
   -4.0998   -2.1284    0.0000 C   0  0  0  0  0  0  0  0  0  0  0  0
   -2.2854    1.5004    0.0000 C   0  0  0  0  0  0  0  0  0  0  0  0
   -2.8437    2.1284    0.0000 C   0  0  0  0  0  0  0  0  0  0  0  0
  1 16  2  0  0  0  0
  2 27  2  0  0  0  0
  3 10  1  0  0  0  0
  3 14  1  0  0  0  0
  4 13  2  0  0  0  0
  4 19  1  0  0  0  0
  5 19  2  0  0  0  0
  5 21  1  0  0  0  0
  6 16  1  0  0  0  0
  6 23  1  0  0  0  0
  7 19  1  0  0  0  0
  7 22  1  0  0  0  0
  8 25  1  0  0  0  0
  8 26  1  0  0  0  0
  8 28  1  0  0  0  0
  9 24  1  0  0  0  0
  9 27  1  0  0  0  0
 10 11  2  0  0  0  0
 10 13  1  0  0  0  0
 11 12  1  0  0  0  0
 11 17  1  0  0  0  0
 12 14  2  0  0  0  0
 12 16  1  0  0  0  0
 13 15  1  0  0  0  0
 14 20  1  0  0  0  0
 15 18  1  0  0  0  0
 15 21  2  0  0  0  0
 17 18  1  0  0  0  0
 20 23  1  0  0  0  0
 22 24  1  0  0  0  0
 22 25  1  0  0  0  0
 24 26  1  0  0  0  0
 27 29  1  0  0  0  0
 29 30  2  0  0  0  0
M  END
> <PUBCHEM_COMPOUND_ID_TYPE>
0

> <PUBCHEM_TOTAL_CHARGE>
0

> <PUBCHEM_SUBSTANCE_ID>
310945209

> <PUBCHEM_SUBSTANCE_VERSION>
1

> <PUBCHEM_EXT_DATASOURCE_NAME>
4488

> <PUBCHEM_EXT_DATASOURCE_REGID>
SCHEMBL16123299

> <PUBCHEM_SUBSTANCE_COMMENT>
InChI=1S/C21H25N7O2/c1-3-16(29)24-14-9-28(2)10-15(14)26-21-23-8-11-4-5-12-17-13(6-7-22-20(17)30)25-19(12)18(11)27-21/h3,8,14-15,25H,1,4-7,9-10H2,2H3,(H,22,30)(H,24,29)(H,23,26,27)
InChIKey=KORIIRDLKROHOX-UHFFFAOYSA-N

> <PUBCHEM_SUBSTANCE_SYNONYM>
SCHEMBL16123299

> <PUBCHEM_XREF_EXT_ID>
SCHEMBL16123299

> <PUBCHEM_EXT_DATASOURCE_URL>
https://www.surechembl.org/

> <PUBCHEM_EXT_SUBSTANCE_URL>
https://www.surechembl.org/chemical/SCHEMBL16123299

> <PUBCHEM_CID_ASSOCIATIONS>
86300603  1

> <PUBCHEM_COORDINATE_TYPE>
1
3

$$$$
