310936856
  -OEChem-07211613022D

 24 25  0     1  0  0  0  0  0999 V2000
    0.8250   -1.4224    0.0000 Cl  0  0  0  0  0  0  0  0  0  0  0  0
    0.0000   -2.8449    0.0000 Cl  0  0  0  0  0  0  0  0  0  0  0  0
    4.4949   -3.5561    0.0000 O   0  0  0  0  0  0  0  0  0  0  0  0
    5.7467   -1.4224    0.0000 O   0  0  0  0  0  0  0  0  0  0  0  0
    4.4949   -0.7112    0.0000 O   0  0  0  0  0  0  0  0  0  0  0  0
    4.4949   -2.1336    0.0000 N   0  0  0  0  0  0  0  0  0  0  0  0
    3.2716   -2.8449    0.0000 C   0  0  3  0  0  0  0  0  0  0  0  0
    2.4466   -2.8449    0.0000 C   0  0  0  0  0  0  0  0  0  0  0  0
    3.6983   -3.5561    0.0000 C   0  0  3  0  0  0  0  0  0  0  0  0
    2.0483   -2.1336    0.0000 C   0  0  0  0  0  0  0  0  0  0  0  0
    3.2716   -4.2673    0.0000 C   0  0  0  0  0  0  0  0  0  0  0  0
    1.2233   -2.1336    0.0000 C   0  0  0  0  0  0  0  0  0  0  0  0
    2.0483   -3.5561    0.0000 C   0  0  0  0  0  0  0  0  0  0  0  0
    0.8250   -2.8449    0.0000 C   0  0  0  0  0  0  0  0  0  0  0  0
    3.6983   -2.1336    0.0000 C   0  0  0  0  0  0  0  0  0  0  0  0
    1.2233   -3.5561    0.0000 C   0  0  0  0  0  0  0  0  0  0  0  0
    3.6983   -4.9785    0.0000 C   0  0  0  0  0  0  0  0  0  0  0  0
    2.4466   -4.2673    0.0000 C   0  0  0  0  0  0  0  0  0  0  0  0
    4.9216   -1.4224    0.0000 C   0  0  0  0  0  0  0  0  0  0  0  0
    3.2716   -5.6898    0.0000 C   0  0  0  0  0  0  0  0  0  0  0  0
    2.0483   -4.9785    0.0000 C   0  0  0  0  0  0  0  0  0  0  0  0
    2.4466   -5.6898    0.0000 C   0  0  0  0  0  0  0  0  0  0  0  0
    6.1449   -0.7112    0.0000 C   0  0  0  0  0  0  0  0  0  0  0  0
    5.7182    0.0000    0.0000 C   0  0  0  0  0  0  0  0  0  0  0  0
  1 12  1  0  0  0  0
  2 14  1  0  0  0  0
  3  9  1  0  0  0  0
  4 19  1  0  0  0  0
  4 23  1  0  0  0  0
  5 19  2  0  0  0  0
  6 15  1  0  0  0  0
  6 19  1  0  0  0  0
  7  8  1  0  0  0  0
  7  9  1  0  0  0  0
  7 15  1  0  0  0  0
  8 10  1  0  0  0  0
  8 13  2  0  0  0  0
  9 11  1  0  0  0  0
 10 12  2  0  0  0  0
 11 17  2  0  0  0  0
 11 18  1  0  0  0  0
 12 14  1  0  0  0  0
 13 16  1  0  0  0  0
 14 16  2  0  0  0  0
 17 20  1  0  0  0  0
 18 21  2  0  0  0  0
 20 22  2  0  0  0  0
 21 22  1  0  0  0  0
 23 24  1  0  0  0  0
M  END
> <PUBCHEM_COMPOUND_ID_TYPE>
0

> <PUBCHEM_TOTAL_CHARGE>
0

> <PUBCHEM_SUBSTANCE_ID>
310936856

> <PUBCHEM_SUBSTANCE_VERSION>
1

> <PUBCHEM_EXT_DATASOURCE_NAME>
4488

> <PUBCHEM_EXT_DATASOURCE_REGID>
SCHEMBL16114549

> <PUBCHEM_SUBSTANCE_COMMENT>
InChI=1S/C18H19Cl2NO3/c1-2-24-18(23)21-11-14(13-8-9-15(19)16(20)10-13)17(22)12-6-4-3-5-7-12/h3-10,14,17,22H,2,11H2,1H3,(H,21,23)
InChIKey=HOFNBZHKQXJOCT-UHFFFAOYSA-N

> <PUBCHEM_SUBSTANCE_SYNONYM>
SCHEMBL16114549

> <PUBCHEM_XREF_EXT_ID>
SCHEMBL16114549

> <PUBCHEM_EXT_DATASOURCE_URL>
https://www.surechembl.org/

> <PUBCHEM_EXT_SUBSTANCE_URL>
https://www.surechembl.org/chemical/SCHEMBL16114549

> <PUBCHEM_CID_ASSOCIATIONS>
117604749  1

> <PUBCHEM_COORDINATE_TYPE>
1
3

$$$$
