310942927
  -OEChem-07211613022D

 27 31  0     1  0  0  0  0  0999 V2000
   -0.3666    1.4472    0.0000 O   0  0  0  0  0  0  0  0  0  0  0  0
   -0.3666   -1.0484    0.0000 O   0  0  0  0  0  0  0  0  0  0  0  0
   -3.2480    1.4472    0.0000 O   0  0  0  0  0  0  0  0  0  0  0  0
    3.2609   -1.4601    0.0000 O   0  0  0  0  0  0  0  0  0  0  0  0
   -5.5378    1.4472    0.0000 O   0  0  0  0  0  0  0  0  0  0  0  0
    5.5378   -1.4601    0.0000 O   0  0  0  0  0  0  0  0  0  0  0  0
   -1.0999    0.2122    0.0000 C   0  0  0  0  0  0  0  0  0  0  0  0
   -0.3666   -0.1994    0.0000 C   0  0  0  0  0  0  0  0  0  0  0  0
    0.3537    0.1994    0.0000 C   0  0  0  0  0  0  0  0  0  0  0  0
   -1.0870    1.0355    0.0000 C   0  0  0  0  0  0  0  0  0  0  0  0
    1.0999   -0.2122    0.0000 C   0  0  0  0  0  0  0  0  0  0  0  0
    0.3666    1.0227    0.0000 C   0  0  0  0  0  0  0  0  0  0  0  0
   -1.8073    1.4343    0.0000 C   0  0  0  0  0  0  0  0  0  0  0  0
   -2.5277    1.0227    0.0000 C   0  0  0  0  0  0  0  0  0  0  0  0
   -1.8073   -0.2122    0.0000 C   0  0  0  0  0  0  0  0  0  0  0  0
   -2.5277    0.1994    0.0000 C   0  0  0  0  0  0  0  0  0  0  0  0
    1.0999   -1.0355    0.0000 C   0  0  0  0  0  0  0  0  0  0  0  0
    1.8073    0.1865    0.0000 C   0  0  0  0  0  0  0  0  0  0  0  0
    2.5277   -1.0355    0.0000 C   0  0  0  0  0  0  0  0  0  0  0  0
   -4.7146    1.4601    0.0000 C   0  0  3  0  0  0  0  0  0  0  0  0
    1.8073   -1.4601    0.0000 C   0  0  0  0  0  0  0  0  0  0  0  0
    2.5277   -0.2251    0.0000 C   0  0  0  0  0  0  0  0  0  0  0  0
   -3.9684    1.0355    0.0000 C   0  0  0  0  0  0  0  0  0  0  0  0
    4.7017   -1.4729    0.0000 C   0  0  3  0  0  0  0  0  0  0  0  0
   -5.1391    2.1547    0.0000 C   0  0  0  0  0  0  0  0  0  0  0  0
    3.9684   -1.0484    0.0000 C   0  0  0  0  0  0  0  0  0  0  0  0
    5.1134   -2.1547    0.0000 C   0  0  0  0  0  0  0  0  0  0  0  0
  1 10  1  0  0  0  0
  1 12  1  0  0  0  0
  2  8  2  0  0  0  0
  3 14  1  0  0  0  0
  3 23  1  0  0  0  0
  4 19  1  0  0  0  0
  4 26  1  0  0  0  0
  5 20  1  0  0  0  0
  5 25  1  0  0  0  0
  6 24  1  0  0  0  0
  6 27  1  0  0  0  0
  7  8  1  0  0  0  0
  7 10  1  0  0  0  0
  7 15  2  0  0  0  0
  8  9  1  0  0  0  0
  9 11  1  0  0  0  0
  9 12  2  0  0  0  0
 10 13  2  0  0  0  0
 11 17  2  0  0  0  0
 11 18  1  0  0  0  0
 13 14  1  0  0  0  0
 14 16  2  0  0  0  0
 15 16  1  0  0  0  0
 17 21  1  0  0  0  0
 18 22  2  0  0  0  0
 19 21  2  0  0  0  0
 19 22  1  0  0  0  0
 20 23  1  0  0  0  0
 20 25  1  0  0  0  0
 24 26  1  0  0  0  0
 24 27  1  0  0  0  0
M  END
> <PUBCHEM_COMPOUND_ID_TYPE>
0

> <PUBCHEM_TOTAL_CHARGE>
0

> <PUBCHEM_SUBSTANCE_ID>
310942927

> <PUBCHEM_SUBSTANCE_VERSION>
1

> <PUBCHEM_EXT_DATASOURCE_NAME>
4488

> <PUBCHEM_EXT_DATASOURCE_REGID>
SCHEMBL16120985

> <PUBCHEM_SUBSTANCE_COMMENT>
InChI=1S/C21H18O6/c22-21-18-6-5-15(24-9-17-11-26-17)7-20(18)27-12-19(21)13-1-3-14(4-2-13)23-8-16-10-25-16/h1-7,12,16-17H,8-11H2
InChIKey=FEZJUCJCRGCMPV-UHFFFAOYSA-N

> <PUBCHEM_SUBSTANCE_SYNONYM>
SCHEMBL16120985

> <PUBCHEM_XREF_EXT_ID>
SCHEMBL16120985

> <PUBCHEM_EXT_DATASOURCE_URL>
https://www.surechembl.org/

> <PUBCHEM_EXT_SUBSTANCE_URL>
https://www.surechembl.org/chemical/SCHEMBL16120985

> <PUBCHEM_CID_ASSOCIATIONS>
71698606  1

> <PUBCHEM_COORDINATE_TYPE>
1
3

$$$$
