310942453
  -OEChem-07211613022D

 20 21  0     1  0  0  0  0  0999 V2000
   -2.1777   -0.1907    0.0000 S   0  0  3  0  0  0  0  0  0  0  0  0
   -2.1777   -1.0157    0.0000 O   0  0  0  0  0  0  0  0  0  0  0  0
    2.1600    2.2841    0.0000 O   0  0  0  0  0  0  0  0  0  0  0  0
   -0.7229   -0.1907    0.0000 N   0  0  0  0  0  0  0  0  0  0  0  0
    0.7140   -0.1907    0.0000 N   0  0  0  0  0  0  0  0  0  0  0  0
   -1.4504    1.0423    0.0000 N   0  0  0  0  0  0  0  0  0  0  0  0
   -0.0044    0.2262    0.0000 C   0  0  0  0  0  0  0  0  0  0  0  0
    0.0044    1.0512    0.0000 C   0  0  0  0  0  0  0  0  0  0  0  0
   -1.4504    0.2262    0.0000 C   0  0  0  0  0  0  0  0  0  0  0  0
   -0.7318    1.4504    0.0000 C   0  0  0  0  0  0  0  0  0  0  0  0
    0.7229   -1.0157    0.0000 C   0  0  0  0  0  0  0  0  0  0  0  0
    0.7140    1.4504    0.0000 C   0  0  0  0  0  0  0  0  0  0  0  0
    0.0576   -1.5036    0.0000 C   0  0  0  0  0  0  0  0  0  0  0  0
    1.3882   -1.5036    0.0000 C   0  0  0  0  0  0  0  0  0  0  0  0
    1.4592    1.0512    0.0000 C   0  0  0  0  0  0  0  0  0  0  0  0
    0.3060   -2.2841    0.0000 C   0  0  0  0  0  0  0  0  0  0  0  0
    1.1310   -2.2841    0.0000 C   0  0  0  0  0  0  0  0  0  0  0  0
   -2.9051    0.2173    0.0000 C   0  0  0  0  0  0  0  0  0  0  0  0
    2.1600    1.4504    0.0000 C   0  0  0  0  0  0  0  0  0  0  0  0
    2.9051    1.0512    0.0000 C   0  0  0  0  0  0  0  0  0  0  0  0
  1  2  2  0  0  0  0
  1  9  1  0  0  0  0
  1 18  1  0  0  0  0
  3 19  2  0  0  0  0
  4  7  2  0  0  0  0
  4  9  1  0  0  0  0
  5  7  1  0  0  0  0
  5 11  1  0  0  0  0
  6  9  2  0  0  0  0
  6 10  1  0  0  0  0
  7  8  1  0  0  0  0
  8 10  2  0  0  0  0
  8 12  1  0  0  0  0
 11 13  1  0  0  0  0
 11 14  1  0  0  0  0
 12 15  2  0  0  0  0
 13 16  1  0  0  0  0
 14 17  1  0  0  0  0
 15 19  1  0  0  0  0
 16 17  1  0  0  0  0
 19 20  1  0  0  0  0
M  END
> <PUBCHEM_COMPOUND_ID_TYPE>
0

> <PUBCHEM_TOTAL_CHARGE>
0

> <PUBCHEM_SUBSTANCE_ID>
310942453

> <PUBCHEM_SUBSTANCE_VERSION>
1

> <PUBCHEM_EXT_DATASOURCE_NAME>
4488

> <PUBCHEM_EXT_DATASOURCE_REGID>
SCHEMBL16120489

> <PUBCHEM_SUBSTANCE_COMMENT>
InChI=1S/C14H19N3O2S/c1-10(18)7-8-11-9-15-14(20(2)19)17-13(11)16-12-5-3-4-6-12/h7-9,12H,3-6H2,1-2H3,(H,15,16,17)/b8-7+
InChIKey=YQVSEVQUHMJDFO-BQYQJAHWSA-N

> <PUBCHEM_SUBSTANCE_SYNONYM>
SCHEMBL16120489

> <PUBCHEM_XREF_EXT_ID>
SCHEMBL16120489

> <PUBCHEM_EXT_DATASOURCE_URL>
https://www.surechembl.org/

> <PUBCHEM_EXT_SUBSTANCE_URL>
https://www.surechembl.org/chemical/SCHEMBL16120489

> <PUBCHEM_CID_ASSOCIATIONS>
90466346  1

> <PUBCHEM_COORDINATE_TYPE>
1
3

$$$$
