310931332
  -OEChem-07211613022D

 18 19  0     1  0  0  0  0  0999 V2000
    3.5172   -1.6031    0.0000 O   0  0  0  0  0  0  0  0  0  0  0  0
    4.6417   -3.5650    0.0000 O   0  0  0  0  0  0  0  0  0  0  0  0
    5.3596   -2.3209    0.0000 O   0  0  0  0  0  0  0  0  0  0  0  0
    0.7896    0.0000    0.0000 O   0  0  0  0  0  0  0  0  0  0  0  0
    3.1104   -2.3209    0.0000 C   0  0  3  0  0  0  0  0  0  0  0  0
    3.9479   -2.3209    0.0000 C   0  0  3  0  0  0  0  0  0  0  0  0
    2.5362   -1.7467    0.0000 C   0  0  0  0  0  0  0  0  0  0  0  0
    4.6417   -2.7276    0.0000 C   0  0  0  0  0  0  0  0  0  0  0  0
    2.3927   -2.7276    0.0000 C   0  0  0  0  0  0  0  0  0  0  0  0
    1.7227   -1.9620    0.0000 C   0  0  0  0  0  0  0  0  0  0  0  0
    2.7515   -0.9571    0.0000 C   0  0  0  0  0  0  0  0  0  0  0  0
    1.1485   -1.3877    0.0000 C   0  0  0  0  0  0  0  0  0  0  0  0
    2.1534   -0.3589    0.0000 C   0  0  0  0  0  0  0  0  0  0  0  0
    1.3638   -0.5742    0.0000 C   0  0  0  0  0  0  0  0  0  0  0  0
    5.3596   -3.9718    0.0000 C   0  0  0  0  0  0  0  0  0  0  0  0
    6.0773   -3.5411    0.0000 C   0  0  0  0  0  0  0  0  0  0  0  0
    5.3596   -4.7853    0.0000 C   0  0  0  0  0  0  0  0  0  0  0  0
    0.0000   -0.2154    0.0000 C   0  0  0  0  0  0  0  0  0  0  0  0
  1  5  1  0  0  0  0
  1  6  1  0  0  0  0
  2  8  1  0  0  0  0
  2 15  1  0  0  0  0
  3  8  2  0  0  0  0
  4 14  1  0  0  0  0
  4 18  1  0  0  0  0
  5  6  1  0  0  0  0
  5  7  1  0  0  0  0
  5  9  1  0  0  0  0
  6  8  1  0  0  0  0
  7 10  2  0  0  0  0
  7 11  1  0  0  0  0
 10 12  1  0  0  0  0
 11 13  2  0  0  0  0
 12 14  2  0  0  0  0
 13 14  1  0  0  0  0
 15 16  1  0  0  0  0
 15 17  1  0  0  0  0
M  END
> <PUBCHEM_COMPOUND_ID_TYPE>
0

> <PUBCHEM_TOTAL_CHARGE>
0

> <PUBCHEM_SUBSTANCE_ID>
310931332

> <PUBCHEM_SUBSTANCE_VERSION>
1

> <PUBCHEM_EXT_DATASOURCE_NAME>
4488

> <PUBCHEM_EXT_DATASOURCE_REGID>
SCHEMBL16108652

> <PUBCHEM_SUBSTANCE_COMMENT>
InChI=1S/C14H18O4/c1-9(2)17-13(15)12-14(3,18-12)10-5-7-11(16-4)8-6-10/h5-9,12H,1-4H3
InChIKey=UZBISKIXFHJVGG-UHFFFAOYSA-N

> <PUBCHEM_SUBSTANCE_SYNONYM>
SCHEMBL16108652

> <PUBCHEM_XREF_EXT_ID>
SCHEMBL16108652

> <PUBCHEM_EXT_DATASOURCE_URL>
https://www.surechembl.org/

> <PUBCHEM_EXT_SUBSTANCE_URL>
https://www.surechembl.org/chemical/SCHEMBL16108652

> <PUBCHEM_CID_ASSOCIATIONS>
117600142  1

> <PUBCHEM_COORDINATE_TYPE>
1
3

$$$$
