310940102
  -OEChem-07211613022D

 42 46  0     1  0  0  0  0  0999 V2000
    1.8796   -3.6441    0.0000 S   0  0  0  0  0  0  0  0  0  0  0  0
    2.6468   -3.9893    0.0000 O   0  0  0  0  0  0  0  0  0  0  0  0
    1.9563   -4.4688    0.0000 O   0  0  0  0  0  0  0  0  0  0  0  0
   -3.1838   -3.3180    0.0000 O   0  0  0  0  0  0  0  0  0  0  0  0
   -1.3234    2.8194    0.0000 O   0  0  0  0  0  0  0  0  0  0  0  0
   -2.7235    2.5317    0.0000 O   0  0  0  0  0  0  0  0  0  0  0  0
   -1.6686   -0.9781    0.0000 N   0  0  0  0  0  0  0  0  0  0  0  0
   -1.1700   -1.6495    0.0000 N   0  0  0  0  0  0  0  0  0  0  0  0
    2.1289   -2.8386    0.0000 N   0  0  3  0  0  0  0  0  0  0  0  0
   -1.4001   -3.1071    0.0000 N   0  0  0  0  0  0  0  0  0  0  0  0
   -3.9126   -2.0714    0.0000 N   0  0  0  0  0  0  0  0  0  0  0  0
   -1.7645    1.4576    0.0000 N   0  0  0  0  0  0  0  0  0  0  0  0
    0.7672   -0.6329    0.0000 N   0  0  0  0  0  0  0  0  0  0  0  0
   -1.4001   -0.1918    0.0000 C   0  0  0  0  0  0  0  0  0  0  0  0
   -2.4550   -1.2275    0.0000 C   0  0  0  0  0  0  0  0  0  0  0  0
   -2.4742   -2.0522    0.0000 C   0  0  0  0  0  0  0  0  0  0  0  0
   -1.6686   -2.3208    0.0000 C   0  0  0  0  0  0  0  0  0  0  0  0
    1.0165   -3.6250    0.0000 C   0  0  0  0  0  0  0  0  0  0  0  0
    0.7672   -2.8386    0.0000 C   0  0  0  0  0  0  0  0  0  0  0  0
   -3.1838   -2.4550    0.0000 C   0  0  0  0  0  0  0  0  0  0  0  0
   -0.5946   -3.2797    0.0000 C   0  0  0  0  0  0  0  0  0  0  0  0
   -2.2057    0.0959    0.0000 C   0  0  0  0  0  0  0  0  0  0  0  0
   -0.7864    0.4028    0.0000 C   0  0  0  0  0  0  0  0  0  0  0  0
   -3.2030   -0.8247    0.0000 C   0  0  0  0  0  0  0  0  0  0  0  0
    1.4385   -2.3591    0.0000 C   0  0  0  0  0  0  0  0  0  0  0  0
   -0.0383   -2.6851    0.0000 C   0  0  0  0  0  0  0  0  0  0  0  0
   -0.8439   -0.7864    0.0000 C   0  0  0  0  0  0  0  0  0  0  0  0
    0.4795   -4.2387    0.0000 C   0  0  0  0  0  0  0  0  0  0  0  0
   -0.3068   -4.0852    0.0000 C   0  0  0  0  0  0  0  0  0  0  0  0
   -3.8935   -1.2275    0.0000 C   0  0  0  0  0  0  0  0  0  0  0  0
   -2.3783    0.8823    0.0000 C   0  0  0  0  0  0  0  0  0  0  0  0
   -0.9590    1.1891    0.0000 C   0  0  0  0  0  0  0  0  0  0  0  0
    2.9153   -2.5893    0.0000 C   0  0  0  0  0  0  0  0  0  0  0  0
   -0.0383   -0.6329    0.0000 C   0  0  0  0  0  0  0  0  0  0  0  0
   -1.9180    2.2823    0.0000 C   0  0  0  0  0  0  0  0  0  0  0  0
    3.1071   -1.7645    0.0000 C   0  0  0  0  0  0  0  0  0  0  0  0
   -1.4960    3.6441    0.0000 C   0  0  0  0  0  0  0  0  0  0  0  0
    2.5317   -1.1700    0.0000 C   0  0  0  0  0  0  0  0  0  0  0  0
    3.9126   -1.4960    0.0000 C   0  0  0  0  0  0  0  0  0  0  0  0
   -1.6686    4.4688    0.0000 C   0  0  0  0  0  0  0  0  0  0  0  0
   -2.2823    3.8743    0.0000 C   0  0  0  0  0  0  0  0  0  0  0  0
   -0.8439    4.1812    0.0000 C   0  0  0  0  0  0  0  0  0  0  0  0
  1  2  2  0  0  0  0
  1  3  2  0  0  0  0
  1  9  1  0  0  0  0
  1 18  1  0  0  0  0
  4 20  2  0  0  0  0
  5 35  1  0  0  0  0
  5 37  1  0  0  0  0
  6 35  2  0  0  0  0
  7  8  1  0  0  0  0
  7 14  1  0  0  0  0
  7 15  1  0  0  0  0
  8 17  2  0  0  0  0
  9 25  1  0  0  0  0
  9 33  1  0  0  0  0
 10 17  1  0  0  0  0
 10 21  1  0  0  0  0
 11 20  1  0  0  0  0
 11 30  1  0  0  0  0
 12 31  1  0  0  0  0
 12 32  1  0  0  0  0
 12 35  1  0  0  0  0
 13 34  3  0  0  0  0
 14 22  1  0  0  0  0
 14 23  1  0  0  0  0
 14 27  1  0  0  0  0
 15 16  2  0  0  0  0
 15 24  1  0  0  0  0
 16 17  1  0  0  0  0
 16 20  1  0  0  0  0
 18 19  1  0  0  0  0
 18 28  2  0  0  0  0
 19 25  1  0  0  0  0
 19 26  2  0  0  0  0
 21 26  1  0  0  0  0
 21 29  2  0  0  0  0
 22 31  1  0  0  0  0
 23 32  1  0  0  0  0
 24 30  2  0  0  0  0
 27 34  1  0  0  0  0
 28 29  1  0  0  0  0
 33 36  1  0  0  0  0
 36 38  1  0  0  0  0
 36 39  1  0  0  0  0
 37 40  1  0  0  0  0
 37 41  1  0  0  0  0
 37 42  1  0  0  0  0
M  END
> <PUBCHEM_COMPOUND_ID_TYPE>
0

> <PUBCHEM_TOTAL_CHARGE>
0

> <PUBCHEM_SUBSTANCE_ID>
310940102

> <PUBCHEM_SUBSTANCE_VERSION>
1

> <PUBCHEM_EXT_DATASOURCE_NAME>
4488

> <PUBCHEM_EXT_DATASOURCE_REGID>
SCHEMBL16118033

> <PUBCHEM_SUBSTANCE_COMMENT>
InChI=1S/C29H37N7O5S/c1-19(2)17-35-18-20-16-21(6-7-23(20)42(35,39)40)32-25-24-22(8-13-31-26(24)37)36(33-25)29(9-12-30)10-14-34(15-11-29)27(38)41-28(3,4)5/h6-8,13,16,19H,9-11,14-15,17-18H2,1-5H3,(H,31,37)(H,32,33)
InChIKey=VSYMPFPBMYXWMG-UHFFFAOYSA-N

> <PUBCHEM_SUBSTANCE_SYNONYM>
SCHEMBL16118033

> <PUBCHEM_XREF_EXT_ID>
SCHEMBL16118033

> <PUBCHEM_EXT_DATASOURCE_URL>
https://www.surechembl.org/

> <PUBCHEM_EXT_SUBSTANCE_URL>
https://www.surechembl.org/chemical/SCHEMBL16118033

> <PUBCHEM_CID_ASSOCIATIONS>
117607237  1

> <PUBCHEM_COORDINATE_TYPE>
1
3

$$$$
