310933582
  -OEChem-07211613022D

 36 40  0     1  0  0  0  0  0999 V2000
    0.0230   -2.6465    0.0000 F   0  0  0  0  0  0  0  0  0  0  0  0
    1.4499   -2.6236    0.0000 F   0  0  0  0  0  0  0  0  0  0  0  0
    0.0000   -1.8411    0.0000 F   0  0  0  0  0  0  0  0  0  0  0  0
    6.4438   -0.7134    0.0000 F   0  0  0  0  0  0  0  0  0  0  0  0
    2.7616   -0.0460    0.0000 O   0  0  0  0  0  0  0  0  0  0  0  0
    0.4833   -3.5210    0.0000 O   0  0  0  0  0  0  0  0  0  0  0  0
    6.0065   -2.3934    0.0000 O   0  0  0  0  0  0  0  0  0  0  0  0
    4.6947   -1.7490    0.0000 N   0  0  0  0  0  0  0  0  0  0  0  0
    1.9562   -1.4728    0.0000 N   0  0  0  0  0  0  0  0  0  0  0  0
    4.6947   -3.0608    0.0000 N   0  0  0  0  0  0  0  0  0  0  0  0
    4.3726   -0.0460    0.0000 N   0  0  0  0  0  0  0  0  0  0  0  0
    0.8975   -4.2345    0.0000 N   0  0  0  0  0  0  0  0  0  0  0  0
    3.1759   -0.7594    0.0000 C   0  0  3  0  0  0  0  0  0  0  0  0
    3.1759   -1.5879    0.0000 C   0  0  0  0  0  0  0  0  0  0  0  0
    3.9123   -1.9791    0.0000 C   0  0  0  0  0  0  0  0  0  0  0  0
    2.3474   -0.7594    0.0000 C   0  0  0  0  0  0  0  0  0  0  0  0
    4.0044   -0.7365    0.0000 C   0  0  0  0  0  0  0  0  0  0  0  0
    3.9123   -2.8307    0.0000 C   0  0  0  0  0  0  0  0  0  0  0  0
    2.4855   -1.9791    0.0000 C   0  0  0  0  0  0  0  0  0  0  0  0
    2.4855   -2.8307    0.0000 C   0  0  0  0  0  0  0  0  0  0  0  0
    3.1759   -3.2219    0.0000 C   0  0  0  0  0  0  0  0  0  0  0  0
    1.7951   -3.2449    0.0000 C   0  0  0  0  0  0  0  0  0  0  0  0
    5.1780   -2.3934    0.0000 C   0  0  0  0  0  0  0  0  0  0  0  0
    1.9331   -0.0460    0.0000 C   0  0  0  0  0  0  0  0  0  0  0  0
    1.1277   -1.5189    0.0000 C   0  0  0  0  0  0  0  0  0  0  0  0
    4.4186   -1.4728    0.0000 C   0  0  0  0  0  0  0  0  0  0  0  0
    1.0356   -2.9227    0.0000 C   0  0  0  0  0  0  0  0  0  0  0  0
    1.7030   -4.0504    0.0000 C   0  0  0  0  0  0  0  0  0  0  0  0
    0.7365   -2.2323    0.0000 C   0  0  0  0  0  0  0  0  0  0  0  0
    1.1046   -0.0920    0.0000 C   0  0  0  0  0  0  0  0  0  0  0  0
    0.7365   -0.7825    0.0000 C   0  0  0  0  0  0  0  0  0  0  0  0
    5.2240    0.0000    0.0000 C   0  0  0  0  0  0  0  0  0  0  0  0
    5.2471   -1.4268    0.0000 C   0  0  0  0  0  0  0  0  0  0  0  0
    5.6153   -0.7134    0.0000 C   0  0  0  0  0  0  0  0  0  0  0  0
    0.8515   -2.1173    0.0000 C   0  0  0  0  0  0  0  0  0  0  0  0
    2.3013   -4.6027    0.0000 C   0  0  0  0  0  0  0  0  0  0  0  0
  1 29  1  0  0  0  0
  2 29  1  0  0  0  0
  3 29  1  0  0  0  0
  4 34  1  0  0  0  0
  5 13  1  0  0  0  0
  6 12  1  0  0  0  0
  6 27  1  0  0  0  0
  7 23  2  0  0  0  0
  8 15  1  0  0  0  0
  8 23  1  0  0  0  0
  9 16  1  0  0  0  0
  9 25  2  0  0  0  0
 10 18  1  0  0  0  0
 10 23  1  0  0  0  0
 11 17  1  0  0  0  0
 11 32  2  0  0  0  0
 12 28  2  0  0  0  0
 13 14  1  0  0  0  0
 13 16  1  0  0  0  0
 13 17  1  0  0  0  0
 14 15  1  0  0  0  0
 14 19  2  0  0  0  0
 15 18  2  0  0  0  0
 16 24  2  0  0  0  0
 17 26  2  0  0  0  0
 18 21  1  0  0  0  0
 19 20  1  0  0  0  0
 20 21  2  0  0  0  0
 20 22  1  0  0  0  0
 22 27  2  0  0  0  0
 22 28  1  0  0  0  0
 24 30  1  0  0  0  0
 25 29  1  0  0  0  0
 25 31  1  0  0  0  0
 26 33  1  0  0  0  0
 27 35  1  0  0  0  0
 28 36  1  0  0  0  0
 30 31  2  0  0  0  0
 32 34  1  0  0  0  0
 33 34  2  0  0  0  0
M  END
> <PUBCHEM_COMPOUND_ID_TYPE>
0

> <PUBCHEM_TOTAL_CHARGE>
0

> <PUBCHEM_SUBSTANCE_ID>
310933582

> <PUBCHEM_SUBSTANCE_VERSION>
1

> <PUBCHEM_EXT_DATASOURCE_NAME>
4488

> <PUBCHEM_EXT_DATASOURCE_REGID>
SCHEMBL16111009

> <PUBCHEM_SUBSTANCE_COMMENT>
InChI=1S/C24H17F4N5O3/c1-11-20(12(2)36-33-11)13-8-15(21-16(9-13)30-22(34)32-21)23(35,17-7-6-14(25)10-29-17)18-4-3-5-19(31-18)24(26,27)28/h3-10,35H,1-2H3,(H2,30,32,34)
InChIKey=UZSNFLIOYAFNOD-UHFFFAOYSA-N

> <PUBCHEM_SUBSTANCE_SYNONYM>
SCHEMBL16111009

> <PUBCHEM_XREF_EXT_ID>
SCHEMBL16111009

> <PUBCHEM_EXT_DATASOURCE_URL>
https://www.surechembl.org/

> <PUBCHEM_EXT_SUBSTANCE_URL>
https://www.surechembl.org/chemical/SCHEMBL16111009

> <PUBCHEM_CID_ASSOCIATIONS>
117601966  1

> <PUBCHEM_COORDINATE_TYPE>
1
3

$$$$
