310938030
  -OEChem-07211613022D

 38 41  0     1  0  0  0  0  0999 V2000
   -0.3195    1.8936    0.0000 F   0  0  0  0  0  0  0  0  0  0  0  0
    8.1595    0.4794    0.0000 F   0  0  0  0  0  0  0  0  0  0  0  0
    8.8740    0.0669    0.0000 F   0  0  0  0  0  0  0  0  0  0  0  0
    8.1595    1.3044    0.0000 F   0  0  0  0  0  0  0  0  0  0  0  0
    5.6264    1.6966    0.0000 O   0  0  0  0  0  0  0  0  0  0  0  0
    9.5884    2.1294    0.0000 O   0  0  0  0  0  0  0  0  0  0  0  0
   10.3030    0.8919    0.0000 O   0  0  0  0  0  0  0  0  0  0  0  0
    0.7846    0.6674    0.0000 N   0  0  0  0  0  0  0  0  0  0  0  0
    1.8465    1.6236    0.0000 N   0  0  0  0  0  0  0  0  0  0  0  0
    0.7846   -0.6674    0.0000 N   0  0  0  0  0  0  0  0  0  0  0  0
    1.5495    3.0213    0.0000 N   0  0  0  0  0  0  0  0  0  0  0  0
    2.9084    2.5797    0.0000 N   0  0  0  0  0  0  0  0  0  0  0  0
    6.7215   -0.1359    0.0000 N   0  0  0  0  0  0  0  0  0  0  0  0
    0.0000    0.4125    0.0000 C   0  0  0  0  0  0  0  0  0  0  0  0
    1.0396    1.4521    0.0000 C   0  0  0  0  0  0  0  0  0  0  0  0
    0.0000   -0.4125    0.0000 C   0  0  0  0  0  0  0  0  0  0  0  0
    0.4875    2.0652    0.0000 C   0  0  0  0  0  0  0  0  0  0  0  0
    1.2696    0.0000    0.0000 C   0  0  0  0  0  0  0  0  0  0  0  0
    2.1015    2.4082    0.0000 C   0  0  0  0  0  0  0  0  0  0  0  0
   -0.7144    0.8250    0.0000 C   0  0  0  0  0  0  0  0  0  0  0  0
   -0.7144   -0.8250    0.0000 C   0  0  0  0  0  0  0  0  0  0  0  0
    0.7424    2.8498    0.0000 C   0  0  0  0  0  0  0  0  0  0  0  0
    3.4605    1.9666    0.0000 C   0  0  0  0  0  0  0  0  0  0  0  0
   -1.4290    0.4125    0.0000 C   0  0  0  0  0  0  0  0  0  0  0  0
   -1.4290   -0.4125    0.0000 C   0  0  0  0  0  0  0  0  0  0  0  0
    4.8195    1.5251    0.0000 C   0  0  0  0  0  0  0  0  0  0  0  0
    4.2674    2.1382    0.0000 C   0  0  0  0  0  0  0  0  0  0  0  0
    3.2055    1.1820    0.0000 C   0  0  0  0  0  0  0  0  0  0  0  0
    3.7576    0.5690    0.0000 C   0  0  0  0  0  0  0  0  0  0  0  0
    4.5645    0.7404    0.0000 C   0  0  0  0  0  0  0  0  0  0  0  0
    6.1785    1.0835    0.0000 C   0  0  3  0  0  0  0  0  0  0  0  0
    3.5027   -0.2157    0.0000 C   0  0  0  0  0  0  0  0  0  0  0  0
    6.0069    0.2766    0.0000 C   0  0  0  0  0  0  0  0  0  0  0  0
    6.9989    1.1697    0.0000 C   0  0  0  0  0  0  0  0  0  0  0  0
    7.3345    0.4161    0.0000 C   0  0  0  0  0  0  0  0  0  0  0  0
    8.8740    0.8919    0.0000 C   0  0  0  0  0  0  0  0  0  0  0  0
    2.6957   -0.3872    0.0000 C   0  0  0  0  0  0  0  0  0  0  0  0
    9.5884    1.3044    0.0000 C   0  0  0  0  0  0  0  0  0  0  0  0
  1 17  1  0  0  0  0
  2 36  1  0  0  0  0
  3 36  1  0  0  0  0
  4 36  1  0  0  0  0
  5 26  1  0  0  0  0
  5 31  1  0  0  0  0
  6 38  2  0  0  0  0
  7 38  1  0  0  0  0
  8 14  1  0  0  0  0
  8 15  1  0  0  0  0
  8 18  1  0  0  0  0
  9 15  2  0  0  0  0
  9 19  1  0  0  0  0
 10 16  1  0  0  0  0
 10 18  2  0  0  0  0
 11 19  2  0  0  0  0
 11 22  1  0  0  0  0
 12 19  1  0  0  0  0
 12 23  1  0  0  0  0
 13 33  1  0  0  0  0
 13 35  1  0  0  0  0
 14 16  1  0  0  0  0
 14 20  2  0  0  0  0
 15 17  1  0  0  0  0
 16 21  2  0  0  0  0
 17 22  2  0  0  0  0
 20 24  1  0  0  0  0
 21 25  1  0  0  0  0
 23 27  2  0  0  0  0
 23 28  1  0  0  0  0
 24 25  2  0  0  0  0
 26 27  1  0  0  0  0
 26 30  2  0  0  0  0
 28 29  2  0  0  0  0
 29 30  1  0  0  0  0
 29 32  1  0  0  0  0
 31 33  1  0  0  0  0
 31 34  1  0  0  0  0
 32 37  1  0  0  0  0
 34 35  1  0  0  0  0
 36 38  1  0  0  0  0
M  END
> <PUBCHEM_COMPOUND_ID_TYPE>
0

> <PUBCHEM_TOTAL_CHARGE>
0

> <PUBCHEM_SUBSTANCE_ID>
310938030

> <PUBCHEM_SUBSTANCE_VERSION>
1

> <PUBCHEM_EXT_DATASOURCE_NAME>
4488

> <PUBCHEM_EXT_DATASOURCE_REGID>
SCHEMBL16115870

> <PUBCHEM_SUBSTANCE_COMMENT>
InChI=1S/C23H23FN6O.C2HF3O2/c1-2-15-9-16(11-18(10-15)31-17-7-8-25-12-17)28-23-26-13-19(24)22(29-23)30-14-27-20-5-3-4-6-21(20)30;3-2(4,5)1(6)7/h3-6,9-11,13-14,17,25H,2,7-8,12H2,1H3,(H,26,28,29);(H,6,7)
InChIKey=MVIGMPVWEJMBSG-UHFFFAOYSA-N

> <PUBCHEM_SUBSTANCE_SYNONYM>
SCHEMBL16115870

> <PUBCHEM_XREF_EXT_ID>
SCHEMBL16115870

> <PUBCHEM_EXT_DATASOURCE_URL>
https://www.surechembl.org/

> <PUBCHEM_EXT_SUBSTANCE_URL>
https://www.surechembl.org/chemical/SCHEMBL16115870

> <PUBCHEM_CID_ASSOCIATIONS>
86301753  1
6422  2
86301754  2

> <PUBCHEM_COORDINATE_TYPE>
1
3

$$$$
