310945189
  -OEChem-07211613022D

 35 39  0     1  0  0  0  0  0999 V2000
    3.5813    2.9438    0.0000 O   0  0  0  0  0  0  0  0  0  0  0  0
    0.3187   -0.8250    0.0000 O   0  0  0  0  0  0  0  0  0  0  0  0
   -3.4500   -1.5375    0.0000 O   0  0  0  0  0  0  0  0  0  0  0  0
    2.0625    0.6375    0.0000 N   0  0  0  0  0  0  0  0  0  0  0  0
    4.3126    1.7062    0.0000 N   0  0  0  0  0  0  0  0  0  0  0  0
    4.3126   -0.7500    0.0000 N   0  0  0  0  0  0  0  0  0  0  0  0
   -0.9375    1.3125    0.0000 N   0  0  0  0  0  0  0  0  0  0  0  0
   -0.9375   -0.1125    0.0000 N   0  0  0  0  0  0  0  0  0  0  0  0
   -2.1938   -0.8250    0.0000 N   0  0  0  0  0  0  0  0  0  0  0  0
    3.5813    0.4875    0.0000 C   0  0  3  0  0  0  0  0  0  0  0  0
    2.8313    0.9000    0.0000 C   0  0  0  0  0  0  0  0  0  0  0  0
    2.8500    1.7062    0.0000 C   0  0  0  0  0  0  0  0  0  0  0  0
    1.5563    1.2938    0.0000 C   0  0  0  0  0  0  0  0  0  0  0  0
    3.5626    2.1000    0.0000 C   0  0  0  0  0  0  0  0  0  0  0  0
    2.0625    1.9501    0.0000 C   0  0  0  0  0  0  0  0  0  0  0  0
    4.2938    0.8812    0.0000 C   0  0  0  0  0  0  0  0  0  0  0  0
    4.2938    0.0750    0.0000 C   0  0  0  0  0  0  0  0  0  0  0  0
    2.8688    0.0750    0.0000 C   0  0  0  0  0  0  0  0  0  0  0  0
    0.7125    1.3125    0.0000 C   0  0  0  0  0  0  0  0  0  0  0  0
    0.3187    0.5813    0.0000 C   0  0  0  0  0  0  0  0  0  0  0  0
    2.8500   -0.7500    0.0000 C   0  0  0  0  0  0  0  0  0  0  0  0
    0.3187    2.0063    0.0000 C   0  0  0  0  0  0  0  0  0  0  0  0
   -0.5250    0.6000    0.0000 C   0  0  0  0  0  0  0  0  0  0  0  0
    3.5813   -1.1625    0.0000 C   0  0  0  0  0  0  0  0  0  0  0  0
   -0.5063    2.0063    0.0000 C   0  0  0  0  0  0  0  0  0  0  0  0
   -0.5438   -0.8063    0.0000 C   0  0  0  0  0  0  0  0  0  0  0  0
   -0.9562   -1.5375    0.0000 C   0  0  0  0  0  0  0  0  0  0  0  0
   -1.7812   -1.5375    0.0000 C   0  0  0  0  0  0  0  0  0  0  0  0
   -0.5438   -2.2688    0.0000 C   0  0  0  0  0  0  0  0  0  0  0  0
   -2.1938   -2.2500    0.0000 C   0  0  0  0  0  0  0  0  0  0  0  0
   -0.9375   -2.9438    0.0000 C   0  0  0  0  0  0  0  0  0  0  0  0
   -1.7625   -2.9438    0.0000 C   0  0  0  0  0  0  0  0  0  0  0  0
   -3.0375   -0.7875    0.0000 C   0  0  0  0  0  0  0  0  0  0  0  0
   -3.4500   -0.1312    0.0000 C   0  0  0  0  0  0  0  0  0  0  0  0
   -4.3126   -0.2062    0.0000 C   0  0  0  0  0  0  0  0  0  0  0  0
  1 14  2  0  0  0  0
  2 26  2  0  0  0  0
  3 33  2  0  0  0  0
  4 11  1  0  0  0  0
  4 13  1  0  0  0  0
  5 14  1  0  0  0  0
  5 16  1  0  0  0  0
  6 17  1  0  0  0  0
  6 24  1  0  0  0  0
  7 23  1  0  0  0  0
  7 25  2  0  0  0  0
  8 23  1  0  0  0  0
  8 26  1  0  0  0  0
  9 28  1  0  0  0  0
  9 33  1  0  0  0  0
 10 11  1  0  0  0  0
 10 16  1  0  0  0  0
 10 17  1  0  0  0  0
 10 18  1  0  0  0  0
 11 12  2  0  0  0  0
 12 14  1  0  0  0  0
 12 15  1  0  0  0  0
 13 15  2  0  0  0  0
 13 19  1  0  0  0  0
 18 21  1  0  0  0  0
 19 20  1  0  0  0  0
 19 22  2  0  0  0  0
 20 23  2  0  0  0  0
 21 24  1  0  0  0  0
 22 25  1  0  0  0  0
 26 27  1  0  0  0  0
 27 28  2  0  0  0  0
 27 29  1  0  0  0  0
 28 30  1  0  0  0  0
 29 31  2  0  0  0  0
 30 32  2  0  0  0  0
 31 32  1  0  0  0  0
 33 34  1  0  0  0  0
 34 35  2  0  0  0  0
M  END
> <PUBCHEM_COMPOUND_ID_TYPE>
0

> <PUBCHEM_TOTAL_CHARGE>
0

> <PUBCHEM_SUBSTANCE_ID>
310945189

> <PUBCHEM_SUBSTANCE_VERSION>
1

> <PUBCHEM_EXT_DATASOURCE_NAME>
4488

> <PUBCHEM_EXT_DATASOURCE_REGID>
SCHEMBL16123279

> <PUBCHEM_SUBSTANCE_COMMENT>
InChI=1S/C26H26N6O3/c1-2-22(33)30-19-7-4-3-6-17(19)25(35)32-21-12-16(8-11-28-21)20-13-18-23(31-20)26(15-29-24(18)34)9-5-10-27-14-26/h2-4,6-8,11-13,27,31H,1,5,9-10,14-15H2,(H,29,34)(H,30,33)(H,28,32,35)
InChIKey=YQCHCLJBTANCKL-UHFFFAOYSA-N

> <PUBCHEM_SUBSTANCE_SYNONYM>
SCHEMBL16123279

> <PUBCHEM_XREF_EXT_ID>
SCHEMBL16123279

> <PUBCHEM_EXT_DATASOURCE_URL>
https://www.surechembl.org/

> <PUBCHEM_EXT_SUBSTANCE_URL>
https://www.surechembl.org/chemical/SCHEMBL16123279

> <PUBCHEM_CID_ASSOCIATIONS>
86301989  1

> <PUBCHEM_COORDINATE_TYPE>
1
3

$$$$
