310933696
  -OEChem-07211613022D

 18 20  0     1  0  0  0  0  0999 V2000
    0.0000   -2.4543    0.0000 O   0  0  0  0  0  0  0  0  0  0  0  0
    1.3990   -2.4543    0.0000 N   0  0  0  0  0  0  0  0  0  0  0  0
    1.3990   -0.8099    0.0000 N   0  0  3  0  0  0  0  0  0  0  0  0
    3.5342   -4.4668    0.0000 N   0  0  0  0  0  0  0  0  0  0  0  0
    1.3990   -3.2642    0.0000 C   0  0  0  0  0  0  0  0  0  0  0  0
    2.0862   -3.6815    0.0000 C   0  0  0  0  0  0  0  0  0  0  0  0
    2.1107   -4.4914    0.0000 C   0  0  0  0  0  0  0  0  0  0  0  0
    0.6872   -2.0616    0.0000 C   0  0  0  0  0  0  0  0  0  0  0  0
    0.6872   -3.6815    0.0000 C   0  0  0  0  0  0  0  0  0  0  0  0
    2.1107   -2.0616    0.0000 C   0  0  0  0  0  0  0  0  0  0  0  0
    2.7979   -3.2642    0.0000 C   0  0  0  0  0  0  0  0  0  0  0  0
    0.6872   -1.2271    0.0000 C   0  0  0  0  0  0  0  0  0  0  0  0
    1.4235   -4.9086    0.0000 C   0  0  0  0  0  0  0  0  0  0  0  0
    0.7117   -4.5159    0.0000 C   0  0  0  0  0  0  0  0  0  0  0  0
    2.1107   -1.2271    0.0000 C   0  0  0  0  0  0  0  0  0  0  0  0
    2.8225   -4.8841    0.0000 C   0  0  0  0  0  0  0  0  0  0  0  0
    3.5342   -3.6569    0.0000 C   0  0  0  0  0  0  0  0  0  0  0  0
    1.3990    0.0000    0.0000 C   0  0  0  0  0  0  0  0  0  0  0  0
  1  8  2  0  0  0  0
  2  5  1  0  0  0  0
  2  8  1  0  0  0  0
  2 10  1  0  0  0  0
  3 12  1  0  0  0  0
  3 15  1  0  0  0  0
  3 18  1  0  0  0  0
  4 16  2  0  0  0  0
  4 17  1  0  0  0  0
  5  6  1  0  0  0  0
  5  9  2  0  0  0  0
  6  7  2  0  0  0  0
  6 11  1  0  0  0  0
  7 13  1  0  0  0  0
  7 16  1  0  0  0  0
  8 12  1  0  0  0  0
  9 14  1  0  0  0  0
 10 15  1  0  0  0  0
 11 17  2  0  0  0  0
 13 14  2  0  0  0  0
M  END
> <PUBCHEM_COMPOUND_ID_TYPE>
0

> <PUBCHEM_TOTAL_CHARGE>
0

> <PUBCHEM_SUBSTANCE_ID>
310933696

> <PUBCHEM_SUBSTANCE_VERSION>
1

> <PUBCHEM_EXT_DATASOURCE_NAME>
4488

> <PUBCHEM_EXT_DATASOURCE_REGID>
SCHEMBL16111131

> <PUBCHEM_SUBSTANCE_COMMENT>
InChI=1S/C14H15N3O/c1-16-7-8-17(14(18)10-16)13-4-2-3-11-9-15-6-5-12(11)13/h2-6,9H,7-8,10H2,1H3
InChIKey=UFXHBDOZGSSFLZ-UHFFFAOYSA-N

> <PUBCHEM_SUBSTANCE_SYNONYM>
SCHEMBL16111131

> <PUBCHEM_XREF_EXT_ID>
SCHEMBL16111131

> <PUBCHEM_EXT_DATASOURCE_URL>
https://www.surechembl.org/

> <PUBCHEM_EXT_SUBSTANCE_URL>
https://www.surechembl.org/chemical/SCHEMBL16111131

> <PUBCHEM_CID_ASSOCIATIONS>
117602062  1

> <PUBCHEM_COORDINATE_TYPE>
1
3

$$$$
