310937168
  -OEChem-07211613022D

 25 26  0     1  0  0  0  0  0999 V2000
    2.9358   -2.9005    0.0000 O   0  0  0  0  0  0  0  0  0  0  0  0
    1.4856   -2.9358    0.0000 N   0  0  0  0  0  0  0  0  0  0  0  0
    3.6433   -4.1738    0.0000 C   0  0  0  0  0  0  0  0  0  0  0  0
    2.9358   -3.7494    0.0000 C   0  0  0  0  0  0  0  0  0  0  0  0
    2.9358   -5.4119    0.0000 C   0  0  0  0  0  0  0  0  0  0  0  0
    2.2284   -4.1738    0.0000 C   0  0  0  0  0  0  0  0  0  0  0  0
    4.3861   -3.7494    0.0000 C   0  0  0  0  0  0  0  0  0  0  0  0
    3.6433   -4.9874    0.0000 C   0  0  0  0  0  0  0  0  0  0  0  0
    2.9358   -6.2608    0.0000 C   0  0  0  0  0  0  0  0  0  0  0  0
    2.2284   -4.9874    0.0000 C   0  0  0  0  0  0  0  0  0  0  0  0
    1.4856   -3.7494    0.0000 C   0  0  0  0  0  0  0  0  0  0  0  0
    4.8105   -4.4922    0.0000 C   0  0  0  0  0  0  0  0  0  0  0  0
    5.0935   -3.3249    0.0000 C   0  0  0  0  0  0  0  0  0  0  0  0
    3.9616   -3.0420    0.0000 C   0  0  0  0  0  0  0  0  0  0  0  0
    0.7428   -2.5114    0.0000 C   0  0  3  0  0  0  0  0  0  0  0  0
    2.0869   -6.2608    0.0000 C   0  0  0  0  0  0  0  0  0  0  0  0
    2.9358   -7.0743    0.0000 C   0  0  0  0  0  0  0  0  0  0  0  0
    3.7494   -6.2608    0.0000 C   0  0  0  0  0  0  0  0  0  0  0  0
    0.7428   -1.6625    0.0000 C   0  0  0  0  0  0  0  0  0  0  0  0
    0.0000   -1.2380    0.0000 C   0  0  0  0  0  0  0  0  0  0  0  0
    1.4502   -1.2380    0.0000 C   0  0  0  0  0  0  0  0  0  0  0  0
    0.0354   -2.9358    0.0000 C   0  0  0  0  0  0  0  0  0  0  0  0
    0.0000   -0.4245    0.0000 C   0  0  0  0  0  0  0  0  0  0  0  0
    1.4502   -0.4245    0.0000 C   0  0  0  0  0  0  0  0  0  0  0  0
    0.7428    0.0000    0.0000 C   0  0  0  0  0  0  0  0  0  0  0  0
  1  4  1  0  0  0  0
  2 11  2  0  0  0  0
  2 15  1  0  0  0  0
  3  4  2  0  0  0  0
  3  7  1  0  0  0  0
  3  8  1  0  0  0  0
  4  6  1  0  0  0  0
  5  8  2  0  0  0  0
  5  9  1  0  0  0  0
  5 10  1  0  0  0  0
  6 10  2  0  0  0  0
  6 11  1  0  0  0  0
  7 12  1  0  0  0  0
  7 13  1  0  0  0  0
  7 14  1  0  0  0  0
  9 16  1  0  0  0  0
  9 17  1  0  0  0  0
  9 18  1  0  0  0  0
 15 19  1  0  0  0  0
 15 22  1  0  0  0  0
 19 20  2  0  0  0  0
 19 21  1  0  0  0  0
 20 23  1  0  0  0  0
 21 24  2  0  0  0  0
 23 25  2  0  0  0  0
 24 25  1  0  0  0  0
M  END
> <PUBCHEM_COMPOUND_ID_TYPE>
0

> <PUBCHEM_TOTAL_CHARGE>
0

> <PUBCHEM_SUBSTANCE_ID>
310937168

> <PUBCHEM_SUBSTANCE_VERSION>
1

> <PUBCHEM_EXT_DATASOURCE_NAME>
4488

> <PUBCHEM_EXT_DATASOURCE_REGID>
SCHEMBL16114893

> <PUBCHEM_SUBSTANCE_COMMENT>
InChI=1S/C23H31NO/c1-16(17-11-9-8-10-12-17)24-15-18-13-19(22(2,3)4)14-20(21(18)25)23(5,6)7/h8-16,25H,1-7H3/b24-15+
InChIKey=CZVGRCMYFSAJHK-BUVRLJJBSA-N

> <PUBCHEM_SUBSTANCE_SYNONYM>
SCHEMBL16114893

> <PUBCHEM_XREF_EXT_ID>
SCHEMBL16114893

> <PUBCHEM_EXT_DATASOURCE_URL>
https://www.surechembl.org/

> <PUBCHEM_EXT_SUBSTANCE_URL>
https://www.surechembl.org/chemical/SCHEMBL16114893

> <PUBCHEM_CID_ASSOCIATIONS>
117604988  1

> <PUBCHEM_COORDINATE_TYPE>
1
3

$$$$
