310946566
  -OEChem-07211613022D

 25 25  0     1  0  0  0  0  0999 V2000
    2.7046    3.2178    0.0000 O   0  0  0  0  0  0  0  0  0  0  0  0
    2.7046    4.5527    0.0000 O   0  0  0  0  0  0  0  0  0  0  0  0
    4.9181    3.4728    0.0000 O   0  0  0  0  0  0  0  0  0  0  0  0
    1.3946    3.8853    0.0000 O   0  0  0  0  0  0  0  0  0  0  0  0
    5.4191    2.2634    0.0000 O   0  0  0  0  0  0  0  0  0  0  0  0
    6.1421    5.2801    0.0000 O   0  0  0  0  0  0  0  0  0  0  0  0
    6.6430    4.0707    0.0000 N   0  0  0  0  0  0  0  0  0  0  0  0
    3.4892    3.4728    0.0000 C   0  0  0  0  0  0  0  0  0  0  0  0
    3.4892    4.2978    0.0000 C   0  0  0  0  0  0  0  0  0  0  0  0
    6.4295    3.2738    0.0000 C   0  0  3  0  0  0  0  0  0  0  0  0
    2.2196    3.8853    0.0000 C   0  0  0  0  0  0  0  0  0  0  0  0
    5.6326    3.0603    0.0000 C   0  0  0  0  0  0  0  0  0  0  0  0
    4.2037    3.0603    0.0000 C   0  0  0  0  0  0  0  0  0  0  0  0
    7.0128    2.6904    0.0000 C   0  0  3  0  0  0  0  0  0  0  0  0
    6.8565    4.8676    0.0000 C   0  0  0  0  0  0  0  0  0  0  0  0
    4.2037    4.7103    0.0000 C   0  0  0  0  0  0  0  0  0  0  0  0
    7.8097    2.9040    0.0000 C   0  0  0  0  0  0  0  0  0  0  0  0
    6.7993    1.8935    0.0000 C   0  0  0  0  0  0  0  0  0  0  0  0
    7.5710    5.2801    0.0000 C   0  0  0  0  0  0  0  0  0  0  0  0
    7.5710    6.1051    0.0000 C   0  0  0  0  0  0  0  0  0  0  0  0
    8.3931    2.3206    0.0000 C   0  0  0  0  0  0  0  0  0  0  0  0
    8.3679    6.3186    0.0000 C   0  0  0  0  0  0  0  0  0  0  0  0
    8.5814    7.1155    0.0000 C   0  0  0  0  0  0  0  0  0  0  0  0
    9.3783    7.3290    0.0000 C   0  0  0  0  0  0  0  0  0  0  0  0
    9.5918    8.1259    0.0000 C   0  0  0  0  0  0  0  0  0  0  0  0
  1  8  1  0  0  0  0
  1 11  1  0  0  0  0
  2  9  1  0  0  0  0
  2 11  1  0  0  0  0
  3 12  1  0  0  0  0
  3 13  1  0  0  0  0
  4 11  2  0  0  0  0
  5 12  2  0  0  0  0
  6 15  2  0  0  0  0
  7 10  1  0  0  0  0
  7 15  1  0  0  0  0
  8  9  2  0  0  0  0
  8 13  1  0  0  0  0
  9 16  1  0  0  0  0
 10 12  1  0  0  0  0
 10 14  1  0  0  0  0
 14 17  1  0  0  0  0
 14 18  1  0  0  0  0
 15 19  1  0  0  0  0
 17 21  1  0  0  0  0
 19 20  1  0  0  0  0
 20 22  1  0  0  0  0
 22 23  1  0  0  0  0
 23 24  1  0  0  0  0
 24 25  1  0  0  0  0
M  END
> <PUBCHEM_COMPOUND_ID_TYPE>
0

> <PUBCHEM_TOTAL_CHARGE>
0

> <PUBCHEM_SUBSTANCE_ID>
310946566

> <PUBCHEM_SUBSTANCE_VERSION>
1

> <PUBCHEM_EXT_DATASOURCE_NAME>
4488

> <PUBCHEM_EXT_DATASOURCE_REGID>
SCHEMBL16124687

> <PUBCHEM_SUBSTANCE_COMMENT>
InChI=1S/C18H29NO6/c1-5-7-8-9-10-15(20)19-16(12(3)6-2)17(21)23-11-14-13(4)24-18(22)25-14/h12,16H,5-11H2,1-4H3,(H,19,20)
InChIKey=VBUKFNDNVBEOEI-UHFFFAOYSA-N

> <PUBCHEM_SUBSTANCE_SYNONYM>
SCHEMBL16124687

> <PUBCHEM_XREF_EXT_ID>
SCHEMBL16124687

> <PUBCHEM_EXT_DATASOURCE_URL>
https://www.surechembl.org/

> <PUBCHEM_EXT_SUBSTANCE_URL>
https://www.surechembl.org/chemical/SCHEMBL16124687

> <PUBCHEM_CID_ASSOCIATIONS>
117612468  1

> <PUBCHEM_COORDINATE_TYPE>
1
3

$$$$
