310942136
  -OEChem-07211613022D

  6  5  0     1  0  0  0  0  0999 V2000
    0.0054   -0.6119    0.0000 I   0  0  0  0  0  0  0  0  0  0  0  0
    1.4634    0.2288    0.0000 O   0  0  0  0  0  0  0  0  0  0  0  0
   -1.4634    0.2395    0.0000 N   0  0  0  0  0  0  0  0  0  0  0  0
    0.0054    0.1969    0.0000 C   0  0  3  0  0  0  0  0  0  0  0  0
    0.7184    0.6119    0.0000 C   0  0  0  0  0  0  0  0  0  0  0  0
   -0.7396    0.6119    0.0000 C   0  0  0  0  0  0  0  0  0  0  0  0
  1  4  1  0  0  0  0
  2  5  1  0  0  0  0
  3  6  1  0  0  0  0
  4  5  1  0  0  0  0
  4  6  1  0  0  0  0
M  END
> <PUBCHEM_COMPOUND_ID_TYPE>
0

> <PUBCHEM_TOTAL_CHARGE>
0

> <PUBCHEM_SUBSTANCE_ID>
310942136

> <PUBCHEM_SUBSTANCE_VERSION>
1

> <PUBCHEM_EXT_DATASOURCE_NAME>
4488

> <PUBCHEM_EXT_DATASOURCE_REGID>
SCHEMBL16120171

> <PUBCHEM_SUBSTANCE_COMMENT>
InChI=1S/C3H8INO/c4-3(1-5)2-6/h3,6H,1-2,5H2
InChIKey=BCMAKFVJTNQBDG-UHFFFAOYSA-N

> <PUBCHEM_SUBSTANCE_SYNONYM>
SCHEMBL16120171

> <PUBCHEM_XREF_EXT_ID>
SCHEMBL16120171

> <PUBCHEM_EXT_DATASOURCE_URL>
https://www.surechembl.org/

> <PUBCHEM_EXT_SUBSTANCE_URL>
https://www.surechembl.org/chemical/SCHEMBL16120171

> <PUBCHEM_CID_ASSOCIATIONS>
117608795  1

> <PUBCHEM_COORDINATE_TYPE>
1
3

$$$$
