310935987
  -OEChem-07211613022D

 42 47  0     1  0  0  0  0  0999 V2000
   -5.7158   -2.0625    0.0000 F   0  0  0  0  0  0  0  0  0  0  0  0
   -6.4302   -3.3000    0.0000 F   0  0  0  0  0  0  0  0  0  0  0  0
   -1.4290   -5.3625    0.0000 O   0  0  0  0  0  0  0  0  0  0  0  0
   -4.2868   -2.0625    0.0000 O   0  0  0  0  0  0  0  0  0  0  0  0
    0.7144   -1.6500    0.0000 N   0  0  3  0  0  0  0  0  0  0  0  0
    1.4290   -0.4125    0.0000 N   0  0  0  0  0  0  0  0  0  0  0  0
    0.7144    0.8250    0.0000 N   0  0  0  0  0  0  0  0  0  0  0  0
   -2.1434   -4.1250    0.0000 N   0  0  0  0  0  0  0  0  0  0  0  0
   -3.5724   -0.8250    0.0000 N   0  0  0  0  0  0  0  0  0  0  0  0
   -4.2868   -2.8875    0.0000 N   0  0  0  0  0  0  0  0  0  0  0  0
    0.0000   -0.4125    0.0000 C   0  0  0  0  0  0  0  0  0  0  0  0
    0.7144   -0.8250    0.0000 C   0  0  0  0  0  0  0  0  0  0  0  0
    0.0000    0.4125    0.0000 C   0  0  0  0  0  0  0  0  0  0  0  0
   -1.4290   -0.4125    0.0000 C   0  0  0  0  0  0  0  0  0  0  0  0
   -0.7144    0.8250    0.0000 C   0  0  0  0  0  0  0  0  0  0  0  0
   -0.7144   -0.8250    0.0000 C   0  0  0  0  0  0  0  0  0  0  0  0
    0.0000   -2.8875    0.0000 C   0  0  0  0  0  0  0  0  0  0  0  0
    0.0000   -2.0625    0.0000 C   0  0  0  0  0  0  0  0  0  0  0  0
    0.7144   -3.3000    0.0000 C   0  0  0  0  0  0  0  0  0  0  0  0
   -1.4290    0.4125    0.0000 C   0  0  0  0  0  0  0  0  0  0  0  0
    1.4290   -2.0625    0.0000 C   0  0  0  0  0  0  0  0  0  0  0  0
   -2.1434   -0.8250    0.0000 C   0  0  0  0  0  0  0  0  0  0  0  0
   -0.7144   -4.1250    0.0000 C   0  0  0  0  0  0  0  0  0  0  0  0
   -0.7144   -3.3000    0.0000 C   0  0  0  0  0  0  0  0  0  0  0  0
    1.4290   -2.8875    0.0000 C   0  0  0  0  0  0  0  0  0  0  0  0
    1.4290    0.4125    0.0000 C   0  0  0  0  0  0  0  0  0  0  0  0
    0.7144   -4.1250    0.0000 C   0  0  0  0  0  0  0  0  0  0  0  0
   -1.4290   -4.5375    0.0000 C   0  0  0  0  0  0  0  0  0  0  0  0
    0.0000   -4.5375    0.0000 C   0  0  0  0  0  0  0  0  0  0  0  0
   -0.7144    1.6500    0.0000 C   0  0  0  0  0  0  0  0  0  0  0  0
   -2.8579   -0.4125    0.0000 C   0  0  0  0  0  0  0  0  0  0  0  0
   -2.1434   -1.6500    0.0000 C   0  0  0  0  0  0  0  0  0  0  0  0
   -2.8579   -2.0625    0.0000 C   0  0  0  0  0  0  0  0  0  0  0  0
   -3.5724   -1.6500    0.0000 C   0  0  0  0  0  0  0  0  0  0  0  0
   -2.8579   -4.5375    0.0000 C   0  0  0  0  0  0  0  0  0  0  0  0
   -2.1434   -3.3000    0.0000 C   0  0  0  0  0  0  0  0  0  0  0  0
   -3.5724   -3.3000    0.0000 C   0  0  0  0  0  0  0  0  0  0  0  0
   -3.5724   -4.1250    0.0000 C   0  0  0  0  0  0  0  0  0  0  0  0
   -2.8579   -2.8875    0.0000 C   0  0  0  0  0  0  0  0  0  0  0  0
   -5.0013   -3.3000    0.0000 C   0  0  0  0  0  0  0  0  0  0  0  0
   -5.0013   -1.6500    0.0000 C   0  0  0  0  0  0  0  0  0  0  0  0
   -5.7158   -2.8875    0.0000 C   0  0  0  0  0  0  0  0  0  0  0  0
  1 42  1  0  0  0  0
  2 42  1  0  0  0  0
  3 28  2  0  0  0  0
  4 34  1  0  0  0  0
  4 41  1  0  0  0  0
  5 12  1  0  0  0  0
  5 18  1  0  0  0  0
  5 21  1  0  0  0  0
  6 12  1  0  0  0  0
  6 26  2  0  0  0  0
  7 13  2  0  0  0  0
  7 26  1  0  0  0  0
  8 28  1  0  0  0  0
  8 35  1  0  0  0  0
  8 36  1  0  0  0  0
  9 31  2  0  0  0  0
  9 34  1  0  0  0  0
 10 37  1  0  0  0  0
 10 40  1  0  0  0  0
 11 12  2  0  0  0  0
 11 13  1  0  0  0  0
 11 16  1  0  0  0  0
 13 15  1  0  0  0  0
 14 16  2  0  0  0  0
 14 20  1  0  0  0  0
 14 22  1  0  0  0  0
 15 20  2  0  0  0  0
 15 30  1  0  0  0  0
 17 18  1  0  0  0  0
 17 19  2  0  0  0  0
 17 24  1  0  0  0  0
 19 25  1  0  0  0  0
 19 27  1  0  0  0  0
 21 25  1  0  0  0  0
 22 31  1  0  0  0  0
 22 32  2  0  0  0  0
 23 24  2  0  0  0  0
 23 28  1  0  0  0  0
 23 29  1  0  0  0  0
 27 29  2  0  0  0  0
 32 33  1  0  0  0  0
 33 34  2  0  0  0  0
 35 38  1  0  0  0  0
 36 39  1  0  0  0  0
 37 38  1  0  0  0  0
 37 39  1  0  0  0  0
 40 42  1  0  0  0  0
M  END
> <PUBCHEM_COMPOUND_ID_TYPE>
0

> <PUBCHEM_TOTAL_CHARGE>
0

> <PUBCHEM_SUBSTANCE_ID>
310935987

> <PUBCHEM_SUBSTANCE_VERSION>
1

> <PUBCHEM_EXT_DATASOURCE_NAME>
4488

> <PUBCHEM_EXT_DATASOURCE_REGID>
SCHEMBL16113588

> <PUBCHEM_SUBSTANCE_COMMENT>
InChI=1S/C32H34F2N6O2/c1-20-13-24(23-5-6-29(42-2)36-16-23)15-27-30(20)37-19-38-31(27)40-10-7-21-3-4-22(14-25(21)18-40)32(41)39-11-8-26(9-12-39)35-17-28(33)34/h3-6,13-16,19,26,28,35H,7-12,17-18H2,1-2H3
InChIKey=ATZNDOGVCOBEPK-UHFFFAOYSA-N

> <PUBCHEM_SUBSTANCE_SYNONYM>
SCHEMBL16113588

> <PUBCHEM_XREF_EXT_ID>
SCHEMBL16113588

> <PUBCHEM_EXT_DATASOURCE_URL>
https://www.surechembl.org/

> <PUBCHEM_EXT_SUBSTANCE_URL>
https://www.surechembl.org/chemical/SCHEMBL16113588

> <PUBCHEM_CID_ASSOCIATIONS>
117603961  1

> <PUBCHEM_COORDINATE_TYPE>
1
3

$$$$
