310949845
  -OEChem-07211613022D

 12 13  0     1  0  0  0  0  0999 V2000
    0.7109    0.4204    0.0000 N   0  0  3  0  0  0  0  0  0  0  0  0
   -0.0062    0.0123    0.0000 C   0  0  3  0  0  0  0  0  0  0  0  0
   -0.0186   -0.8036    0.0000 C   0  0  0  0  0  0  0  0  0  0  0  0
   -0.7356    0.4204    0.0000 C   0  0  3  0  0  0  0  0  0  0  0  0
    0.7109   -1.2240    0.0000 C   0  0  0  0  0  0  0  0  0  0  0  0
   -0.7109   -1.2240    0.0000 C   0  0  0  0  0  0  0  0  0  0  0  0
    1.4280    0.0123    0.0000 C   0  0  0  0  0  0  0  0  0  0  0  0
   -1.4280    0.0123    0.0000 C   0  0  0  0  0  0  0  0  0  0  0  0
    1.4156   -0.8160    0.0000 C   0  0  0  0  0  0  0  0  0  0  0  0
   -1.4280   -0.8160    0.0000 C   0  0  0  0  0  0  0  0  0  0  0  0
    0.7109    0.9520    0.0000 C   0  0  0  0  0  0  0  0  0  0  0  0
   -0.7109    1.2240    0.0000 C   0  0  0  0  0  0  0  0  0  0  0  0
  1  2  1  0  0  0  0
  1  7  1  0  0  0  0
  1 11  1  0  0  0  0
  2  3  1  0  0  0  0
  2  4  1  0  0  0  0
  3  5  1  0  0  0  0
  3  6  2  0  0  0  0
  4  8  1  0  0  0  0
  4 12  1  0  0  0  0
  5  9  1  0  0  0  0
  6 10  1  0  0  0  0
  7  9  1  0  0  0  0
  8 10  2  0  0  0  0
M  END
> <PUBCHEM_COMPOUND_ID_TYPE>
0

> <PUBCHEM_TOTAL_CHARGE>
0

> <PUBCHEM_SUBSTANCE_ID>
310949845

> <PUBCHEM_SUBSTANCE_VERSION>
1

> <PUBCHEM_EXT_DATASOURCE_NAME>
4488

> <PUBCHEM_EXT_DATASOURCE_REGID>
SCHEMBL16128049

> <PUBCHEM_SUBSTANCE_COMMENT>
InChI=1S/C11H17N/c1-9-5-3-6-10-7-4-8-12(2)11(9)10/h3,5-6,9,11H,4,7-8H2,1-2H3
InChIKey=OUBFPOIQXCISIV-UHFFFAOYSA-N

> <PUBCHEM_SUBSTANCE_SYNONYM>
SCHEMBL16128049

> <PUBCHEM_XREF_EXT_ID>
SCHEMBL16128049

> <PUBCHEM_EXT_DATASOURCE_URL>
https://www.surechembl.org/

> <PUBCHEM_EXT_SUBSTANCE_URL>
https://www.surechembl.org/chemical/SCHEMBL16128049

> <PUBCHEM_CID_ASSOCIATIONS>
117615155  1

> <PUBCHEM_COORDINATE_TYPE>
1
3

$$$$
