310940801
  -OEChem-07211613022D

 42 45  0     1  0  0  0  0  0999 V2000
    5.1246    0.6837    0.0000 O   0  0  0  0  0  0  0  0  0  0  0  0
    3.9730   -1.3028    0.0000 O   0  0  0  0  0  0  0  0  0  0  0  0
    1.7994    0.7845    0.0000 O   0  0  0  0  0  0  0  0  0  0  0  0
    1.0796    2.5408    0.0000 O   0  0  0  0  0  0  0  0  0  0  0  0
   -0.3743   -1.3028    0.0000 O   0  0  0  0  0  0  0  0  0  0  0  0
    3.9730   -2.9726    0.0000 O   0  0  0  0  0  0  0  0  0  0  0  0
   -2.5335    0.7845    0.0000 O   0  0  0  0  0  0  0  0  0  0  0  0
   -5.4413    0.7845    0.0000 O   0  0  0  0  0  0  0  0  0  0  0  0
    2.5335   -0.4679    0.0000 N   0  0  0  0  0  0  0  0  0  0  0  0
    0.3599   -0.0504    0.0000 N   0  0  0  0  0  0  0  0  0  0  0  0
   -1.8138   -0.4679    0.0000 N   0  0  0  0  0  0  0  0  0  0  0  0
   -3.9874   -0.0504    0.0000 N   0  0  0  0  0  0  0  0  0  0  0  0
    4.6928   -0.0072    0.0000 C   0  0  3  0  0  0  0  0  0  0  0  0
    3.9874   -0.4247    0.0000 C   0  0  0  0  0  0  0  0  0  0  0  0
    4.3041    0.6837    0.0000 C   0  0  0  0  0  0  0  0  0  0  0  0
    3.2389   -0.0216    0.0000 C   0  0  3  0  0  0  0  0  0  0  0  0
    5.4413   -0.4535    0.0000 C   0  0  0  0  0  0  0  0  0  0  0  0
    3.2533    1.3028    0.0000 C   0  0  0  0  0  0  0  0  0  0  0  0
    1.7994   -0.0360    0.0000 C   0  0  0  0  0  0  0  0  0  0  0  0
    1.0940   -0.4391    0.0000 C   0  0  3  0  0  0  0  0  0  0  0  0
    2.5192    1.7346    0.0000 C   0  0  0  0  0  0  0  0  0  0  0  0
    1.0940   -1.2884    0.0000 C   0  0  0  0  0  0  0  0  0  0  0  0
    1.8138   -1.6915    0.0000 C   0  0  0  0  0  0  0  0  0  0  0  0
   -0.3599   -0.4247    0.0000 C   0  0  0  0  0  0  0  0  0  0  0  0
    1.8138    1.3172    0.0000 C   0  0  0  0  0  0  0  0  0  0  0  0
    2.5335    2.5551    0.0000 C   0  0  0  0  0  0  0  0  0  0  0  0
   -1.0796   -0.0216    0.0000 C   0  0  3  0  0  0  0  0  0  0  0  0
    2.5335   -1.3028    0.0000 C   0  0  0  0  0  0  0  0  0  0  0  0
    1.8281   -2.5408    0.0000 C   0  0  0  0  0  0  0  0  0  0  0  0
    1.0940    1.7202    0.0000 C   0  0  0  0  0  0  0  0  0  0  0  0
    1.7994    2.9726    0.0000 C   0  0  0  0  0  0  0  0  0  0  0  0
    3.2389   -2.5264    0.0000 C   0  0  0  0  0  0  0  0  0  0  0  0
    3.2533   -1.7057    0.0000 C   0  0  0  0  0  0  0  0  0  0  0  0
    2.5480   -2.9437    0.0000 C   0  0  0  0  0  0  0  0  0  0  0  0
   -2.5480   -0.0360    0.0000 C   0  0  0  0  0  0  0  0  0  0  0  0
   -3.2533   -0.4391    0.0000 C   0  0  0  0  0  0  0  0  0  0  0  0
   -1.0652    0.8277    0.0000 C   0  0  0  0  0  0  0  0  0  0  0  0
   -3.9874    0.8133    0.0000 C   0  0  0  0  0  0  0  0  0  0  0  0
   -4.6928   -0.4391    0.0000 C   0  0  0  0  0  0  0  0  0  0  0  0
   -4.7216    1.2308    0.0000 C   0  0  0  0  0  0  0  0  0  0  0  0
   -5.4269   -0.0360    0.0000 C   0  0  0  0  0  0  0  0  0  0  0  0
    4.7360   -2.5264    0.0000 C   0  0  0  0  0  0  0  0  0  0  0  0
  1 13  1  0  0  0  0
  1 15  1  0  0  0  0
  2 14  2  0  0  0  0
  3 19  2  0  0  0  0
  4 30  1  0  0  0  0
  4 31  1  0  0  0  0
  5 24  2  0  0  0  0
  6 32  1  0  0  0  0
  6 42  1  0  0  0  0
  7 35  2  0  0  0  0
  8 40  1  0  0  0  0
  8 41  1  0  0  0  0
  9 16  1  0  0  0  0
  9 19  1  0  0  0  0
 10 20  1  0  0  0  0
 10 24  1  0  0  0  0
 11 27  1  0  0  0  0
 11 35  1  0  0  0  0
 12 36  1  0  0  0  0
 12 38  1  0  0  0  0
 12 39  1  0  0  0  0
 13 14  1  0  0  0  0
 13 15  1  0  0  0  0
 13 17  1  0  0  0  0
 14 16  1  0  0  0  0
 16 18  1  0  0  0  0
 18 21  1  0  0  0  0
 19 20  1  0  0  0  0
 20 22  1  0  0  0  0
 21 25  2  0  0  0  0
 21 26  1  0  0  0  0
 22 23  1  0  0  0  0
 23 28  2  0  0  0  0
 23 29  1  0  0  0  0
 24 27  1  0  0  0  0
 25 30  1  0  0  0  0
 26 31  1  0  0  0  0
 27 37  1  0  0  0  0
 28 33  1  0  0  0  0
 29 34  2  0  0  0  0
 32 33  2  0  0  0  0
 32 34  1  0  0  0  0
 35 36  1  0  0  0  0
 38 40  1  0  0  0  0
 39 41  1  0  0  0  0
M  END
> <PUBCHEM_COMPOUND_ID_TYPE>
0

> <PUBCHEM_TOTAL_CHARGE>
0

> <PUBCHEM_SUBSTANCE_ID>
310940801

> <PUBCHEM_SUBSTANCE_VERSION>
1

> <PUBCHEM_EXT_DATASOURCE_NAME>
4488

> <PUBCHEM_EXT_DATASOURCE_REGID>
SCHEMBL16118760

> <PUBCHEM_SUBSTANCE_COMMENT>
InChI=1S/C30H42N4O8/c1-20(31-26(35)18-34-10-14-41-15-11-34)28(37)33-25(17-21-4-6-23(39-3)7-5-21)29(38)32-24(27(36)30(2)19-42-30)16-22-8-12-40-13-9-22/h4-8,20,24-25H,9-19H2,1-3H3,(H,31,35)(H,32,38)(H,33,37)
InChIKey=JBIOQZBMEMDPLK-UHFFFAOYSA-N

> <PUBCHEM_SUBSTANCE_SYNONYM>
SCHEMBL16118760

> <PUBCHEM_XREF_EXT_ID>
SCHEMBL16118760

> <PUBCHEM_EXT_DATASOURCE_URL>
https://www.surechembl.org/

> <PUBCHEM_EXT_SUBSTANCE_URL>
https://www.surechembl.org/chemical/SCHEMBL16118760

> <PUBCHEM_CID_ASSOCIATIONS>
86296919  1

> <PUBCHEM_COORDINATE_TYPE>
1
3

$$$$
