310945841
  -OEChem-07211613022D

 40 42  0     1  0  0  0  0  0999 V2000
    4.8172   -1.4177    0.0000 O   0  0  0  0  0  0  0  0  0  0  0  0
    3.6886    0.5368    0.0000 O   0  0  0  0  0  0  0  0  0  0  0  0
    1.3213   -1.4039    0.0000 O   0  0  0  0  0  0  0  0  0  0  0  0
    3.4822    2.2985    0.0000 O   0  0  0  0  0  0  0  0  0  0  0  0
   -0.8258    0.6606    0.0000 O   0  0  0  0  0  0  0  0  0  0  0  0
    2.0370    3.1243    0.0000 O   0  0  0  0  0  0  0  0  0  0  0  0
   -2.9729   -1.4039    0.0000 O   0  0  0  0  0  0  0  0  0  0  0  0
   -5.1200   -0.9909    0.0000 O   0  0  0  0  0  0  0  0  0  0  0  0
    2.0508   -0.1652    0.0000 N   0  0  0  0  0  0  0  0  0  0  0  0
   -0.0963   -0.5780    0.0000 N   0  0  0  0  0  0  0  0  0  0  0  0
   -2.2572   -0.1652    0.0000 N   0  0  0  0  0  0  0  0  0  0  0  0
    4.4180   -0.6744    0.0000 C   0  0  3  0  0  0  0  0  0  0  0  0
    3.6886   -0.2891    0.0000 C   0  0  0  0  0  0  0  0  0  0  0  0
    4.0189   -1.3901    0.0000 C   0  0  0  0  0  0  0  0  0  0  0  0
    3.0005   -0.6744    0.0000 C   0  0  3  0  0  0  0  0  0  0  0  0
    5.1200   -0.2615    0.0000 C   0  0  0  0  0  0  0  0  0  0  0  0
    2.9866   -1.7480    0.0000 C   0  0  0  0  0  0  0  0  0  0  0  0
    1.3351   -0.5368    0.0000 C   0  0  0  0  0  0  0  0  0  0  0  0
    0.6194   -0.1377    0.0000 C   0  0  3  0  0  0  0  0  0  0  0  0
    2.2572   -2.1471    0.0000 C   0  0  0  0  0  0  0  0  0  0  0  0
    0.6331    0.6882    0.0000 C   0  0  0  0  0  0  0  0  0  0  0  0
    1.3351    1.1011    0.0000 C   0  0  0  0  0  0  0  0  0  0  0  0
   -0.8258   -0.1652    0.0000 C   0  0  0  0  0  0  0  0  0  0  0  0
    1.5140   -1.8305    0.0000 C   0  0  0  0  0  0  0  0  0  0  0  0
    2.1746   -2.9729    0.0000 C   0  0  0  0  0  0  0  0  0  0  0  0
    1.3488    1.9269    0.0000 C   0  0  0  0  0  0  0  0  0  0  0  0
    2.0508    2.3260    0.0000 C   0  0  0  0  0  0  0  0  0  0  0  0
    2.7665    1.9131    0.0000 C   0  0  0  0  0  0  0  0  0  0  0  0
    2.0508    0.6882    0.0000 C   0  0  0  0  0  0  0  0  0  0  0  0
   -1.5277   -0.5505    0.0000 C   0  0  3  0  0  0  0  0  0  0  0  0
    2.7665    1.1011    0.0000 C   0  0  0  0  0  0  0  0  0  0  0  0
    0.9634   -2.4362    0.0000 C   0  0  0  0  0  0  0  0  0  0  0  0
    1.3626   -3.1243    0.0000 C   0  0  0  0  0  0  0  0  0  0  0  0
   -2.9591   -0.5368    0.0000 C   0  0  0  0  0  0  0  0  0  0  0  0
   -3.6886   -0.1514    0.0000 C   0  0  0  0  0  0  0  0  0  0  0  0
   -4.4043   -0.5643    0.0000 C   0  0  0  0  0  0  0  0  0  0  0  0
   -1.5277   -1.3901    0.0000 C   0  0  0  0  0  0  0  0  0  0  0  0
    4.2254    1.8994    0.0000 C   0  0  0  0  0  0  0  0  0  0  0  0
   -4.3905   -1.3901    0.0000 C   0  0  0  0  0  0  0  0  0  0  0  0
   -5.1200   -0.1652    0.0000 C   0  0  0  0  0  0  0  0  0  0  0  0
  1 12  1  0  0  0  0
  1 14  1  0  0  0  0
  2 13  2  0  0  0  0
  3 18  2  0  0  0  0
  4 28  1  0  0  0  0
  4 38  1  0  0  0  0
  5 23  2  0  0  0  0
  6 27  1  0  0  0  0
  7 34  2  0  0  0  0
  8 36  1  0  0  0  0
  9 15  1  0  0  0  0
  9 18  1  0  0  0  0
 10 19  1  0  0  0  0
 10 23  1  0  0  0  0
 11 30  1  0  0  0  0
 11 34  1  0  0  0  0
 12 13  1  0  0  0  0
 12 14  1  0  0  0  0
 12 16  1  0  0  0  0
 13 15  1  0  0  0  0
 15 17  1  0  0  0  0
 17 20  1  0  0  0  0
 18 19  1  0  0  0  0
 19 21  1  0  0  0  0
 20 24  2  0  0  0  0
 20 25  1  0  0  0  0
 21 22  1  0  0  0  0
 22 26  1  0  0  0  0
 22 29  2  0  0  0  0
 23 30  1  0  0  0  0
 24 32  1  0  0  0  0
 25 33  1  0  0  0  0
 26 27  2  0  0  0  0
 27 28  1  0  0  0  0
 28 31  2  0  0  0  0
 29 31  1  0  0  0  0
 30 37  1  0  0  0  0
 32 33  1  0  0  0  0
 34 35  1  0  0  0  0
 35 36  1  0  0  0  0
 36 39  1  0  0  0  0
 36 40  1  0  0  0  0
M  END
> <PUBCHEM_COMPOUND_ID_TYPE>
0

> <PUBCHEM_TOTAL_CHARGE>
0

> <PUBCHEM_SUBSTANCE_ID>
310945841

> <PUBCHEM_SUBSTANCE_VERSION>
1

> <PUBCHEM_EXT_DATASOURCE_NAME>
4488

> <PUBCHEM_EXT_DATASOURCE_REGID>
SCHEMBL16123946

> <PUBCHEM_SUBSTANCE_COMMENT>
InChI=1S/C29H41N3O8/c1-17(30-24(34)15-28(2,3)38)26(36)32-21(13-19-10-11-23(39-5)22(33)14-19)27(37)31-20(12-18-8-6-7-9-18)25(35)29(4)16-40-29/h8,10-11,14,17,20-21,33,38H,6-7,9,12-13,15-16H2,1-5H3,(H,30,34)(H,31,37)(H,32,36)
InChIKey=NLLIRZAUQAJCBJ-UHFFFAOYSA-N

> <PUBCHEM_SUBSTANCE_SYNONYM>
SCHEMBL16123946

> <PUBCHEM_XREF_EXT_ID>
SCHEMBL16123946

> <PUBCHEM_EXT_DATASOURCE_URL>
https://www.surechembl.org/

> <PUBCHEM_EXT_SUBSTANCE_URL>
https://www.surechembl.org/chemical/SCHEMBL16123946

> <PUBCHEM_CID_ASSOCIATIONS>
117611827  1

> <PUBCHEM_COORDINATE_TYPE>
1
3

$$$$
