310943085
  -OEChem-07211613022D

 31 33  0     1  0  0  0  0  0999 V2000
    0.3604    3.1073    0.0000 Cl  0  0  0  0  0  0  0  0  0  0  0  0
   -1.0938    0.6214    0.0000 O   0  0  0  0  0  0  0  0  0  0  0  0
    4.6486   -2.6972    0.0000 O   0  0  0  0  0  0  0  0  0  0  0  0
   -2.5232   -0.2113    0.0000 O   0  0  0  0  0  0  0  0  0  0  0  0
    1.8022   -0.1989    0.0000 N   0  0  0  0  0  0  0  0  0  0  0  0
    2.5232    1.0441    0.0000 N   0  0  0  0  0  0  0  0  0  0  0  0
   -3.9400    0.6214    0.0000 N   0  0  0  0  0  0  0  0  0  0  0  0
    1.7898    0.6339    0.0000 C   0  0  0  0  0  0  0  0  0  0  0  0
    1.0689    1.0441    0.0000 C   0  0  0  0  0  0  0  0  0  0  0  0
    2.5107   -0.6090    0.0000 C   0  0  0  0  0  0  0  0  0  0  0  0
    3.2316    0.6339    0.0000 C   0  0  0  0  0  0  0  0  0  0  0  0
    2.4983   -1.4418    0.0000 C   0  0  3  0  0  0  0  0  0  0  0  0
    3.2316   -0.2113    0.0000 C   0  0  0  0  0  0  0  0  0  0  0  0
    0.3604    0.6339    0.0000 C   0  0  0  0  0  0  0  0  0  0  0  0
    1.0689    1.8644    0.0000 C   0  0  0  0  0  0  0  0  0  0  0  0
   -0.3729    1.0441    0.0000 C   0  0  0  0  0  0  0  0  0  0  0  0
    3.2316   -1.8520    0.0000 C   0  0  0  0  0  0  0  0  0  0  0  0
    0.3604    2.2745    0.0000 C   0  0  0  0  0  0  0  0  0  0  0  0
    3.9400    1.0441    0.0000 C   0  0  0  0  0  0  0  0  0  0  0  0
   -0.3480    1.8644    0.0000 C   0  0  0  0  0  0  0  0  0  0  0  0
    3.2316   -2.6847    0.0000 C   0  0  0  0  0  0  0  0  0  0  0  0
    3.9525   -1.4418    0.0000 C   0  0  0  0  0  0  0  0  0  0  0  0
    1.8022   -1.8644    0.0000 C   0  0  0  0  0  0  0  0  0  0  0  0
    3.9400    1.8520    0.0000 C   0  0  0  0  0  0  0  0  0  0  0  0
    4.6610    0.6339    0.0000 C   0  0  0  0  0  0  0  0  0  0  0  0
   -1.7898    1.0441    0.0000 C   0  0  0  0  0  0  0  0  0  0  0  0
    4.6610   -1.8644    0.0000 C   0  0  0  0  0  0  0  0  0  0  0  0
    3.9525   -3.1073    0.0000 C   0  0  0  0  0  0  0  0  0  0  0  0
   -2.5107    0.6339    0.0000 C   0  0  3  0  0  0  0  0  0  0  0  0
   -3.2316    1.0316    0.0000 C   0  0  0  0  0  0  0  0  0  0  0  0
   -4.6610    1.0316    0.0000 C   0  0  0  0  0  0  0  0  0  0  0  0
  1 18  1  0  0  0  0
  2 16  1  0  0  0  0
  2 26  1  0  0  0  0
  3 27  1  0  0  0  0
  3 28  1  0  0  0  0
  4 29  1  0  0  0  0
  5  8  1  0  0  0  0
  5 10  2  0  0  0  0
  6  8  2  0  0  0  0
  6 11  1  0  0  0  0
  7 30  1  0  0  0  0
  7 31  1  0  0  0  0
  8  9  1  0  0  0  0
  9 14  2  0  0  0  0
  9 15  1  0  0  0  0
 10 12  1  0  0  0  0
 10 13  1  0  0  0  0
 11 13  2  0  0  0  0
 11 19  1  0  0  0  0
 12 17  1  0  0  0  0
 12 23  1  0  0  0  0
 14 16  1  0  0  0  0
 15 18  2  0  0  0  0
 16 20  2  0  0  0  0
 17 21  1  0  0  0  0
 17 22  1  0  0  0  0
 18 20  1  0  0  0  0
 19 24  1  0  0  0  0
 19 25  1  0  0  0  0
 21 28  1  0  0  0  0
 22 27  1  0  0  0  0
 26 29  1  0  0  0  0
 29 30  1  0  0  0  0
M  END
> <PUBCHEM_COMPOUND_ID_TYPE>
0

> <PUBCHEM_TOTAL_CHARGE>
0

> <PUBCHEM_SUBSTANCE_ID>
310943085

> <PUBCHEM_SUBSTANCE_VERSION>
1

> <PUBCHEM_EXT_DATASOURCE_NAME>
4488

> <PUBCHEM_EXT_DATASOURCE_REGID>
SCHEMBL16121144

> <PUBCHEM_SUBSTANCE_COMMENT>
InChI=1S/C24H34ClN3O3/c1-15(2)22-12-23(16(3)17-5-7-30-8-6-17)28-24(27-22)18-9-19(25)11-21(10-18)31-14-20(29)13-26-4/h9-12,15-17,20,26,29H,5-8,13-14H2,1-4H3
InChIKey=YKUGQOMFAXSXLB-UHFFFAOYSA-N

> <PUBCHEM_SUBSTANCE_SYNONYM>
SCHEMBL16121144

> <PUBCHEM_XREF_EXT_ID>
SCHEMBL16121144

> <PUBCHEM_EXT_DATASOURCE_URL>
https://www.surechembl.org/

> <PUBCHEM_EXT_SUBSTANCE_URL>
https://www.surechembl.org/chemical/SCHEMBL16121144

> <PUBCHEM_CID_ASSOCIATIONS>
117609520  1

> <PUBCHEM_COORDINATE_TYPE>
1
3

$$$$
