310937908
  -OEChem-07211613022D

 30 32  0     1  0  0  0  0  0999 V2000
    0.0000   -1.2572    0.0000 Br  0  0  0  0  0  0  0  0  0  0  0  0
    0.7071   -4.1250    0.0000 O   0  0  0  0  0  0  0  0  0  0  0  0
    3.6143   -4.1643    0.0000 O   0  0  0  0  0  0  0  0  0  0  0  0
    2.9465   -1.4143    0.0000 N   0  0  3  0  0  0  0  0  0  0  0  0
    2.1215   -4.1250    0.0000 N   0  0  0  0  0  0  0  0  0  0  0  0
    4.2822   -5.3822    0.0000 N   0  0  0  0  0  0  0  0  0  0  0  0
    2.1608   -2.4750    0.0000 C   0  0  0  0  0  0  0  0  0  0  0  0
    2.9465   -2.7500    0.0000 C   0  0  0  0  0  0  0  0  0  0  0  0
    2.1608   -1.6500    0.0000 C   0  0  0  0  0  0  0  0  0  0  0  0
    1.4143   -2.9072    0.0000 C   0  0  0  0  0  0  0  0  0  0  0  0
    3.4179   -2.0822    0.0000 C   0  0  0  0  0  0  0  0  0  0  0  0
    1.4143   -1.2572    0.0000 C   0  0  0  0  0  0  0  0  0  0  0  0
    0.7071   -2.4750    0.0000 C   0  0  0  0  0  0  0  0  0  0  0  0
    1.4143   -3.7322    0.0000 C   0  0  0  0  0  0  0  0  0  0  0  0
    0.7071   -1.6500    0.0000 C   0  0  0  0  0  0  0  0  0  0  0  0
    3.1821   -0.6286    0.0000 C   0  0  0  0  0  0  0  0  0  0  0  0
    3.1821   -3.5357    0.0000 C   0  0  0  0  0  0  0  0  0  0  0  0
    3.7322   -2.8679    0.0000 C   0  0  0  0  0  0  0  0  0  0  0  0
    2.8679   -5.3822    0.0000 C   0  0  0  0  0  0  0  0  0  0  0  0
    2.1215   -4.9500    0.0000 C   0  0  0  0  0  0  0  0  0  0  0  0
    2.8679   -6.2072    0.0000 C   0  0  0  0  0  0  0  0  0  0  0  0
    3.5750   -4.9893    0.0000 C   0  0  0  0  0  0  0  0  0  0  0  0
    2.6322    0.0000    0.0000 C   0  0  0  0  0  0  0  0  0  0  0  0
    3.9678   -0.4322    0.0000 C   0  0  0  0  0  0  0  0  0  0  0  0
    3.5750   -6.6000    0.0000 C   0  0  0  0  0  0  0  0  0  0  0  0
    4.3214   -6.2072    0.0000 C   0  0  0  0  0  0  0  0  0  0  0  0
    2.1608   -6.6393    0.0000 C   0  0  0  0  0  0  0  0  0  0  0  0
    5.0286   -6.6393    0.0000 C   0  0  0  0  0  0  0  0  0  0  0  0
    2.1608   -7.4643    0.0000 C   0  0  0  0  0  0  0  0  0  0  0  0
    2.9072   -7.8572    0.0000 C   0  0  0  0  0  0  0  0  0  0  0  0
  1 15  1  0  0  0  0
  2 14  2  0  0  0  0
  3 22  2  0  0  0  0
  4  9  1  0  0  0  0
  4 11  1  0  0  0  0
  4 16  1  0  0  0  0
  5 14  1  0  0  0  0
  5 20  1  0  0  0  0
  6 22  1  0  0  0  0
  6 26  1  0  0  0  0
  7  8  1  0  0  0  0
  7  9  2  0  0  0  0
  7 10  1  0  0  0  0
  8 11  1  0  0  0  0
  8 17  1  0  0  0  0
  8 18  1  0  0  0  0
  9 12  1  0  0  0  0
 10 13  2  0  0  0  0
 10 14  1  0  0  0  0
 12 15  2  0  0  0  0
 13 15  1  0  0  0  0
 16 23  1  0  0  0  0
 16 24  1  0  0  0  0
 19 20  1  0  0  0  0
 19 21  2  0  0  0  0
 19 22  1  0  0  0  0
 21 25  1  0  0  0  0
 21 27  1  0  0  0  0
 25 26  2  0  0  0  0
 26 28  1  0  0  0  0
 27 29  1  0  0  0  0
 29 30  1  0  0  0  0
M  END
> <PUBCHEM_COMPOUND_ID_TYPE>
0

> <PUBCHEM_TOTAL_CHARGE>
0

> <PUBCHEM_SUBSTANCE_ID>
310937908

> <PUBCHEM_SUBSTANCE_VERSION>
1

> <PUBCHEM_EXT_DATASOURCE_NAME>
4488

> <PUBCHEM_EXT_DATASOURCE_REGID>
SCHEMBL16115737

> <PUBCHEM_SUBSTANCE_COMMENT>
InChI=1S/C24H32BrN3O2/c1-7-8-16-9-15(4)27-23(30)19(16)12-26-22(29)18-10-17(25)11-20-21(18)24(5,6)13-28(20)14(2)3/h9-11,14H,7-8,12-13H2,1-6H3,(H,26,29)(H,27,30)
InChIKey=NWTUVXQOGHKHBL-UHFFFAOYSA-N

> <PUBCHEM_SUBSTANCE_SYNONYM>
SCHEMBL16115737

> <PUBCHEM_XREF_EXT_ID>
SCHEMBL16115737

> <PUBCHEM_EXT_DATASOURCE_URL>
https://www.surechembl.org/

> <PUBCHEM_EXT_SUBSTANCE_URL>
https://www.surechembl.org/chemical/SCHEMBL16115737

> <PUBCHEM_CID_ASSOCIATIONS>
86272206  1

> <PUBCHEM_COORDINATE_TYPE>
1
3

$$$$
