310935204
  -OEChem-07211613022D

 44 46  0     1  0  0  0  0  0999 V2000
   33.5801   -7.0125    0.0000 O   0  0  0  0  0  0  0  0  0  0  0  0
   29.2933   -2.0625    0.0000 O   0  0  0  0  0  0  0  0  0  0  0  0
   27.1499   -1.6500    0.0000 O   0  0  0  0  0  0  0  0  0  0  0  0
   28.5788   -1.6500    0.0000 O   0  0  0  0  0  0  0  0  0  0  0  0
   25.7210   -4.1250    0.0000 O   0  0  0  0  0  0  0  0  0  0  0  0
   22.8631   -3.3000    0.0000 O   0  0  0  0  0  0  0  0  0  0  0  0
   20.7197   -2.8875    0.0000 O   0  0  0  0  0  0  0  0  0  0  0  0
   18.5762   -3.3000    0.0000 O   0  0  0  0  0  0  0  0  0  0  0  0
   33.5801   -5.3625    0.0000 N   0  0  0  0  0  0  0  0  0  0  0  0
   35.7235   -5.7750    0.0000 N   0  0  0  0  0  0  0  0  0  0  0  0
   35.0091   -4.5375    0.0000 N   0  0  0  0  0  0  0  0  0  0  0  0
   35.0091   -7.0125    0.0000 N   0  0  0  0  0  0  0  0  0  0  0  0
   32.1512   -4.5375    0.0000 N   0  0  0  0  0  0  0  0  0  0  0  0
   36.4380   -7.0125    0.0000 N   0  0  0  0  0  0  0  0  0  0  0  0
   28.5788   -3.3000    0.0000 N   0  0  0  0  0  0  0  0  0  0  0  0
   25.0065   -2.8875    0.0000 N   0  0  0  0  0  0  0  0  0  0  0  0
   20.0052   -4.1250    0.0000 N   0  0  0  0  0  0  0  0  0  0  0  0
   34.2946   -5.7750    0.0000 C   0  0  0  0  0  0  0  0  0  0  0  0
   35.0091   -5.3625    0.0000 C   0  0  0  0  0  0  0  0  0  0  0  0
   34.2946   -6.6000    0.0000 C   0  0  0  0  0  0  0  0  0  0  0  0
   33.5801   -4.5375    0.0000 C   0  0  0  0  0  0  0  0  0  0  0  0
   35.7235   -6.6000    0.0000 C   0  0  0  0  0  0  0  0  0  0  0  0
   34.2946   -4.1250    0.0000 C   0  0  0  0  0  0  0  0  0  0  0  0
   32.8657   -4.1250    0.0000 C   0  0  0  0  0  0  0  0  0  0  0  0
   31.4367   -4.1250    0.0000 C   0  0  0  0  0  0  0  0  0  0  0  0
   30.0078   -3.3000    0.0000 C   0  0  0  0  0  0  0  0  0  0  0  0
   29.2933   -2.8875    0.0000 C   0  0  0  0  0  0  0  0  0  0  0  0
   31.4367   -3.3000    0.0000 C   0  0  0  0  0  0  0  0  0  0  0  0
   30.7223   -4.5375    0.0000 C   0  0  0  0  0  0  0  0  0  0  0  0
   30.7223   -2.8875    0.0000 C   0  0  0  0  0  0  0  0  0  0  0  0
   30.0078   -4.1250    0.0000 C   0  0  0  0  0  0  0  0  0  0  0  0
   27.8644   -2.8875    0.0000 C   0  0  3  0  0  0  0  0  0  0  0  0
   27.8644   -2.0625    0.0000 C   0  0  0  0  0  0  0  0  0  0  0  0
   27.1499   -3.3000    0.0000 C   0  0  0  0  0  0  0  0  0  0  0  0
   26.4354   -2.8875    0.0000 C   0  0  0  0  0  0  0  0  0  0  0  0
   25.7210   -3.3000    0.0000 C   0  0  0  0  0  0  0  0  0  0  0  0
   24.2920   -3.3000    0.0000 C   0  0  0  0  0  0  0  0  0  0  0  0
   23.5775   -2.8875    0.0000 C   0  0  0  0  0  0  0  0  0  0  0  0
   20.0052   -3.3000    0.0000 C   0  0  3  0  0  0  0  0  0  0  0  0
   22.1486   -2.8875    0.0000 C   0  0  0  0  0  0  0  0  0  0  0  0
   21.4341   -3.3000    0.0000 C   0  0  0  0  0  0  0  0  0  0  0  0
   19.2907   -2.8875    0.0000 C   0  0  0  0  0  0  0  0  0  0  0  0
   17.8618   -2.8875    0.0000 C   0  0  0  0  0  0  0  0  0  0  0  0
   17.1473   -3.3000    0.0000 C   0  0  0  0  0  0  0  0  0  0  0  0
  1 20  1  0  0  0  0
  2 27  2  0  0  0  0
  3 33  2  0  0  0  0
  4 33  1  0  0  0  0
  5 36  2  0  0  0  0
  6 38  1  0  0  0  0
  6 40  1  0  0  0  0
  7 39  1  0  0  0  0
  7 41  1  0  0  0  0
  8 42  1  0  0  0  0
  8 43  1  0  0  0  0
  9 18  2  0  0  0  0
  9 21  1  0  0  0  0
 10 19  1  0  0  0  0
 10 22  2  0  0  0  0
 11 19  2  0  0  0  0
 11 23  1  0  0  0  0
 12 20  2  0  0  0  0
 12 22  1  0  0  0  0
 13 24  1  0  0  0  0
 13 25  1  0  0  0  0
 14 22  1  0  0  0  0
 15 27  1  0  0  0  0
 15 32  1  0  0  0  0
 16 36  1  0  0  0  0
 16 37  1  0  0  0  0
 17 39  1  0  0  0  0
 18 19  1  0  0  0  0
 18 20  1  0  0  0  0
 21 23  2  0  0  0  0
 21 24  1  0  0  0  0
 25 28  2  0  0  0  0
 25 29  1  0  0  0  0
 26 27  1  0  0  0  0
 26 30  2  0  0  0  0
 26 31  1  0  0  0  0
 28 30  1  0  0  0  0
 29 31  2  0  0  0  0
 32 33  1  0  0  0  0
 32 34  1  0  0  0  0
 34 35  1  0  0  0  0
 35 36  1  0  0  0  0
 37 38  1  0  0  0  0
 39 42  1  0  0  0  0
 40 41  1  0  0  0  0
 43 44  1  0  0  0  0
M  END
> <PUBCHEM_COMPOUND_ID_TYPE>
0

> <PUBCHEM_TOTAL_CHARGE>
0

> <PUBCHEM_SUBSTANCE_ID>
310935204

> <PUBCHEM_SUBSTANCE_VERSION>
1

> <PUBCHEM_EXT_DATASOURCE_NAME>
4488

> <PUBCHEM_EXT_DATASOURCE_REGID>
SCHEMBL16112732

> <PUBCHEM_SUBSTANCE_COMMENT>
InChI=1S/C27H37N9O8/c1-2-42-15-20(28)44-12-11-43-10-9-30-21(37)8-7-19(26(40)41)34-24(38)16-3-5-17(6-4-16)31-13-18-14-32-23-22(33-18)25(39)36-27(29)35-23/h3-6,14,19-20,31H,2,7-13,15,28H2,1H3,(H,30,37)(H,34,38)(H,40,41)(H3,29,32,35,36,39)
InChIKey=ZOUSBBCGRBGMOA-UHFFFAOYSA-N

> <PUBCHEM_SUBSTANCE_SYNONYM>
SCHEMBL16112732

> <PUBCHEM_XREF_EXT_ID>
SCHEMBL16112732

> <PUBCHEM_EXT_DATASOURCE_URL>
https://www.surechembl.org/

> <PUBCHEM_EXT_SUBSTANCE_URL>
https://www.surechembl.org/chemical/SCHEMBL16112732

> <PUBCHEM_CID_ASSOCIATIONS>
117603284  1

> <PUBCHEM_COORDINATE_TYPE>
1
3

$$$$
