310932819
  -OEChem-07211613022D

 11 11  0     1  0  0  0  0  0999 V2000
    1.7465    1.0941    0.0000 Br  0  0  0  0  0  0  0  0  0  0  0  0
    1.2616    1.7616    0.0000 Br  0  0  0  0  0  0  0  0  0  0  0  0
    1.7465    0.0966    0.0000 Br  0  0  0  0  0  0  0  0  0  0  0  0
   -0.3435    0.5954    0.0000 P   0  0  3  0  0  0  0  0  0  0  0  0
    0.1414    1.2629    0.0000 O   0  0  0  0  0  0  0  0  0  0  0  0
    0.1414   -0.0721    0.0000 O   0  0  0  0  0  0  0  0  0  0  0  0
   -1.0580    0.1829    0.0000 O   0  0  0  0  0  0  0  0  0  0  0  0
   -1.0580    1.0079    0.0000 O   0  0  0  0  0  0  0  0  0  0  0  0
    0.9261    1.0079    0.0000 C   0  0  0  0  0  0  0  0  0  0  0  0
    0.9261    0.1829    0.0000 C   0  0  3  0  0  0  0  0  0  0  0  0
    1.2616   -0.5708    0.0000 C   0  0  0  0  0  0  0  0  0  0  0  0
  1  9  1  0  0  0  0
  2  9  1  0  0  0  0
  3 10  1  0  0  0  0
  4  5  1  0  0  0  0
  4  6  1  0  0  0  0
  4  7  2  0  0  0  0
  4  8  1  0  0  0  0
  5  9  1  0  0  0  0
  6 10  1  0  0  0  0
  9 10  1  0  0  0  0
 10 11  1  0  0  0  0
M  END
> <PUBCHEM_COMPOUND_ID_TYPE>
0

> <PUBCHEM_TOTAL_CHARGE>
0

> <PUBCHEM_SUBSTANCE_ID>
310932819

> <PUBCHEM_SUBSTANCE_VERSION>
1

> <PUBCHEM_EXT_DATASOURCE_NAME>
4488

> <PUBCHEM_EXT_DATASOURCE_REGID>
SCHEMBL16110207

> <PUBCHEM_SUBSTANCE_COMMENT>
InChI=1S/C3H4Br3O4P/c1-2(4)3(5,6)10-11(7,8)9-2/h1H3,(H,7,8)
InChIKey=HRWNGLOHYWCVMX-UHFFFAOYSA-N

> <PUBCHEM_SUBSTANCE_SYNONYM>
SCHEMBL16110207

> <PUBCHEM_XREF_EXT_ID>
SCHEMBL16110207

> <PUBCHEM_EXT_DATASOURCE_URL>
https://www.surechembl.org/

> <PUBCHEM_EXT_SUBSTANCE_URL>
https://www.surechembl.org/chemical/SCHEMBL16110207

> <PUBCHEM_CID_ASSOCIATIONS>
117601309  1

> <PUBCHEM_COORDINATE_TYPE>
1
3

$$$$
