310929889
  -OEChem-07211613022D

 31 34  0     1  0  0  0  0  0999 V2000
   -2.0945   -1.0164    0.0000 O   0  0  0  0  0  0  0  0  0  0  0  0
   -2.5070   -1.7309    0.0000 O   0  0  0  0  0  0  0  0  0  0  0  0
   -1.0396    1.8646    0.0000 O   0  0  0  0  0  0  0  0  0  0  0  0
   -4.5695    0.4125    0.0000 O   0  0  0  0  0  0  0  0  0  0  0  0
   -3.3320   -3.1599    0.0000 O   0  0  0  0  0  0  0  0  0  0  0  0
   -4.9820   -3.1599    0.0000 O   0  0  0  0  0  0  0  0  0  0  0  0
   -5.0683    0.5185    0.0000 O   0  0  0  0  0  0  0  0  0  0  0  0
   -5.8070   -0.3020    0.0000 O   0  0  0  0  0  0  0  0  0  0  0  0
   -3.3320   -0.3020    0.0000 N   0  0  0  0  0  0  0  0  0  0  0  0
   -1.2695    0.4125    0.0000 N   0  0  0  0  0  0  0  0  0  0  0  0
    0.7145   -1.2375    0.0000 N   0  0  0  0  0  0  0  0  0  0  0  0
   -3.7445   -1.0164    0.0000 C   0  0  0  0  0  0  0  0  0  0  0  0
   -2.0945    0.4125    0.0000 C   0  0  3  0  0  0  0  0  0  0  0  0
   -2.5070   -0.3020    0.0000 C   0  0  0  0  0  0  0  0  0  0  0  0
   -4.5695   -1.0164    0.0000 C   0  0  0  0  0  0  0  0  0  0  0  0
   -3.3320   -1.7309    0.0000 C   0  0  0  0  0  0  0  0  0  0  0  0
   -0.7846    1.0799    0.0000 C   0  0  0  0  0  0  0  0  0  0  0  0
   -3.7445    0.4125    0.0000 C   0  0  0  0  0  0  0  0  0  0  0  0
    0.0000    0.8250    0.0000 C   0  0  0  0  0  0  0  0  0  0  0  0
    0.0000    0.0000    0.0000 C   0  0  0  0  0  0  0  0  0  0  0  0
   -0.7846   -0.2549    0.0000 C   0  0  0  0  0  0  0  0  0  0  0  0
   -3.7445   -2.4454    0.0000 C   0  0  0  0  0  0  0  0  0  0  0  0
   -2.5070    1.1270    0.0000 C   0  0  0  0  0  0  0  0  0  0  0  0
   -4.5695   -2.4454    0.0000 C   0  0  0  0  0  0  0  0  0  0  0  0
   -4.9820   -1.7309    0.0000 C   0  0  0  0  0  0  0  0  0  0  0  0
   -3.3320    1.1270    0.0000 C   0  0  0  0  0  0  0  0  0  0  0  0
    0.7145   -0.4125    0.0000 C   0  0  0  0  0  0  0  0  0  0  0  0
   -4.9820   -0.3020    0.0000 C   0  0  0  0  0  0  0  0  0  0  0  0
    0.7145    1.2375    0.0000 C   0  0  0  0  0  0  0  0  0  0  0  0
    1.4289    0.0000    0.0000 C   0  0  0  0  0  0  0  0  0  0  0  0
    1.4289    0.8250    0.0000 C   0  0  0  0  0  0  0  0  0  0  0  0
  1 14  2  0  0  0  0
  2 16  1  0  0  0  0
  3 17  2  0  0  0  0
  4 18  2  0  0  0  0
  5 22  1  0  0  0  0
  6 24  1  0  0  0  0
  7 28  2  0  0  0  0
  8 28  1  0  0  0  0
  9 12  1  0  0  0  0
  9 14  1  0  0  0  0
  9 18  1  0  0  0  0
 10 13  1  0  0  0  0
 10 17  1  0  0  0  0
 10 21  1  0  0  0  0
 11 27  1  0  0  0  0
 12 15  2  0  0  0  0
 12 16  1  0  0  0  0
 13 14  1  0  0  0  0
 13 23  1  0  0  0  0
 15 25  1  0  0  0  0
 15 28  1  0  0  0  0
 16 22  2  0  0  0  0
 17 19  1  0  0  0  0
 18 26  1  0  0  0  0
 19 20  1  0  0  0  0
 19 29  2  0  0  0  0
 20 21  1  0  0  0  0
 20 27  2  0  0  0  0
 22 24  1  0  0  0  0
 23 26  1  0  0  0  0
 24 25  2  0  0  0  0
 27 30  1  0  0  0  0
 29 31  1  0  0  0  0
 30 31  2  0  0  0  0
M  END
> <PUBCHEM_COMPOUND_ID_TYPE>
0

> <PUBCHEM_TOTAL_CHARGE>
0

> <PUBCHEM_SUBSTANCE_ID>
310929889

> <PUBCHEM_SUBSTANCE_VERSION>
1

> <PUBCHEM_EXT_DATASOURCE_NAME>
4488

> <PUBCHEM_EXT_DATASOURCE_REGID>
SCHEMBL16107105

> <PUBCHEM_SUBSTANCE_COMMENT>
InChI=1S/C20H17N3O8/c21-11-3-1-2-8-10(11)7-22(18(8)28)12-4-5-14(25)23(19(12)29)15-9(20(30)31)6-13(24)16(26)17(15)27/h1-3,6,12,24,26-27H,4-5,7,21H2,(H,30,31)
InChIKey=FJMLKJLEAZJLSB-UHFFFAOYSA-N

> <PUBCHEM_SUBSTANCE_SYNONYM>
SCHEMBL16107105

> <PUBCHEM_XREF_EXT_ID>
SCHEMBL16107105

> <PUBCHEM_EXT_DATASOURCE_URL>
https://www.surechembl.org/

> <PUBCHEM_EXT_SUBSTANCE_URL>
https://www.surechembl.org/chemical/SCHEMBL16107105

> <PUBCHEM_CID_ASSOCIATIONS>
117599152  1

> <PUBCHEM_COORDINATE_TYPE>
1
3

$$$$
