310933102
  -OEChem-07211613022D

 10 10  0     1  0  0  0  0  0999 V2000
   -2.0202    0.6901    0.0000 P   0  0  3  0  0  0  0  0  0  0  0  0
   -1.4682    0.0770    0.0000 O   0  0  0  0  0  0  0  0  0  0  0  0
   -1.6077    1.4045    0.0000 O   0  0  0  0  0  0  0  0  0  0  0  0
   -2.6877    0.2051    0.0000 O   0  0  0  0  0  0  0  0  0  0  0  0
   -2.7739    1.0256    0.0000 O   0  0  0  0  0  0  0  0  0  0  0  0
    1.4290    0.8250    0.0000 N   0  0  0  0  0  0  0  0  0  0  0  0
   -0.7145    0.4125    0.0000 C   0  0  3  0  0  0  0  0  0  0  0  0
   -0.8007    1.2330    0.0000 C   0  0  0  0  0  0  0  0  0  0  0  0
    0.0000    0.0000    0.0000 C   0  0  0  0  0  0  0  0  0  0  0  0
    0.7145    0.4125    0.0000 C   0  0  0  0  0  0  0  0  0  0  0  0
  1  2  1  0  0  0  0
  1  3  1  0  0  0  0
  1  4  2  0  0  0  0
  1  5  1  0  0  0  0
  2  7  1  0  0  0  0
  3  8  1  0  0  0  0
  6 10  3  0  0  0  0
  7  8  1  0  0  0  0
  7  9  1  0  0  0  0
  9 10  1  0  0  0  0
M  END
> <PUBCHEM_COMPOUND_ID_TYPE>
0

> <PUBCHEM_TOTAL_CHARGE>
0

> <PUBCHEM_SUBSTANCE_ID>
310933102

> <PUBCHEM_SUBSTANCE_VERSION>
1

> <PUBCHEM_EXT_DATASOURCE_NAME>
4488

> <PUBCHEM_EXT_DATASOURCE_REGID>
SCHEMBL16110504

> <PUBCHEM_SUBSTANCE_COMMENT>
InChI=1S/C4H6NO4P/c5-2-1-4-3-8-10(6,7)9-4/h4H,1,3H2,(H,6,7)
InChIKey=VFHCZBVOVJHAAC-UHFFFAOYSA-N

> <PUBCHEM_SUBSTANCE_SYNONYM>
SCHEMBL16110504

> <PUBCHEM_XREF_EXT_ID>
SCHEMBL16110504

> <PUBCHEM_EXT_DATASOURCE_URL>
https://www.surechembl.org/

> <PUBCHEM_EXT_SUBSTANCE_URL>
https://www.surechembl.org/chemical/SCHEMBL16110504

> <PUBCHEM_CID_ASSOCIATIONS>
117601559  1

> <PUBCHEM_COORDINATE_TYPE>
1
3

$$$$
