310938759
  -OEChem-07211613022D

 15 15  0     1  0  0  0  0  0999 V2000
   -1.5237    3.2146    0.0000 N   0  0  3  0  0  0  0  0  0  0  0  0
   -2.2381    2.8021    0.0000 C   0  0  0  0  0  0  0  0  0  0  0  0
   -2.9526    3.2146    0.0000 C   0  0  0  0  0  0  0  0  0  0  0  0
   -2.2381    1.9771    0.0000 C   0  0  0  0  0  0  0  0  0  0  0  0
   -0.8092    2.8021    0.0000 C   0  0  0  0  0  0  0  0  0  0  0  0
   -1.5237    4.0396    0.0000 C   0  0  0  0  0  0  0  0  0  0  0  0
   -2.9526    4.0396    0.0000 C   0  0  0  0  0  0  0  0  0  0  0  0
   -3.6671    2.8021    0.0000 C   0  0  0  0  0  0  0  0  0  0  0  0
   -2.2381    4.4521    0.0000 C   0  0  0  0  0  0  0  0  0  0  0  0
   -3.0631    1.9771    0.0000 C   0  0  0  0  0  0  0  0  0  0  0  0
   -1.4131    1.9771    0.0000 C   0  0  0  0  0  0  0  0  0  0  0  0
   -0.3967    3.5166    0.0000 C   0  0  0  0  0  0  0  0  0  0  0  0
   -1.2217    2.0876    0.0000 C   0  0  0  0  0  0  0  0  0  0  0  0
   -4.0796    3.5166    0.0000 C   0  0  0  0  0  0  0  0  0  0  0  0
   -3.2546    2.0876    0.0000 C   0  0  0  0  0  0  0  0  0  0  0  0
  1  2  1  0  0  0  0
  1  5  1  0  0  0  0
  1  6  1  0  0  0  0
  2  3  1  0  0  0  0
  2  4  2  0  0  0  0
  3  7  1  0  0  0  0
  3  8  2  0  0  0  0
  4 10  1  0  0  0  0
  4 11  1  0  0  0  0
  5 12  1  0  0  0  0
  5 13  1  0  0  0  0
  6  9  1  0  0  0  0
  7  9  1  0  0  0  0
  8 14  1  0  0  0  0
  8 15  1  0  0  0  0
M  END
> <PUBCHEM_COMPOUND_ID_TYPE>
0

> <PUBCHEM_TOTAL_CHARGE>
0

> <PUBCHEM_SUBSTANCE_ID>
310938759

> <PUBCHEM_SUBSTANCE_VERSION>
1

> <PUBCHEM_EXT_DATASOURCE_NAME>
4488

> <PUBCHEM_EXT_DATASOURCE_REGID>
SCHEMBL16116675

> <PUBCHEM_SUBSTANCE_COMMENT>
InChI=1S/C14H25N/c1-10(2)13-8-7-9-15(12(5)6)14(13)11(3)4/h12H,7-9H2,1-6H3
InChIKey=XUEZXESSUJUDTE-UHFFFAOYSA-N

> <PUBCHEM_SUBSTANCE_SYNONYM>
SCHEMBL16116675

> <PUBCHEM_XREF_EXT_ID>
SCHEMBL16116675

> <PUBCHEM_EXT_DATASOURCE_URL>
https://www.surechembl.org/

> <PUBCHEM_EXT_SUBSTANCE_URL>
https://www.surechembl.org/chemical/SCHEMBL16116675

> <PUBCHEM_CID_ASSOCIATIONS>
117606172  1

> <PUBCHEM_COORDINATE_TYPE>
1
3

> <PUBCHEM_BONDANNOTATIONS>
4  10  3
4  11  3
5  12  3
5  13  3
8  14  3
8  15  3

$$$$
