310933648
  -OEChem-07211613022D

 29 32  0     1  0  0  0  0  0999 V2000
    1.9100   -2.8992    0.0000 O   0  0  0  0  0  0  0  0  0  0  0  0
    0.0000   -5.6960    0.0000 O   0  0  0  0  0  0  0  0  0  0  0  0
    5.6277   -4.5704    0.0000 O   0  0  0  0  0  0  0  0  0  0  0  0
    4.2634   -3.8882    0.0000 N   0  0  0  0  0  0  0  0  0  0  0  0
    4.2634   -5.2526    0.0000 N   0  0  0  0  0  0  0  0  0  0  0  0
    3.9565   -2.1829    0.0000 N   0  0  0  0  0  0  0  0  0  0  0  0
    0.4093   -6.4463    0.0000 N   0  0  0  0  0  0  0  0  0  0  0  0
    2.7627   -3.7518    0.0000 C   0  0  0  0  0  0  0  0  0  0  0  0
    2.7286   -2.8992    0.0000 C   0  0  3  0  0  0  0  0  0  0  0  0
    3.4790   -4.1270    0.0000 C   0  0  0  0  0  0  0  0  0  0  0  0
    3.4790   -5.0138    0.0000 C   0  0  0  0  0  0  0  0  0  0  0  0
    2.0465   -5.0138    0.0000 C   0  0  0  0  0  0  0  0  0  0  0  0
    2.0465   -4.1270    0.0000 C   0  0  0  0  0  0  0  0  0  0  0  0
    1.3302   -5.4231    0.0000 C   0  0  0  0  0  0  0  0  0  0  0  0
    3.5813   -2.8992    0.0000 C   0  0  0  0  0  0  0  0  0  0  0  0
    2.7627   -5.4231    0.0000 C   0  0  0  0  0  0  0  0  0  0  0  0
    4.7751   -4.5704    0.0000 C   0  0  0  0  0  0  0  0  0  0  0  0
    3.1379   -2.1829    0.0000 C   0  0  0  0  0  0  0  0  0  0  0  0
    0.5457   -5.1161    0.0000 C   0  0  0  0  0  0  0  0  0  0  0  0
    1.2279   -6.2417    0.0000 C   0  0  0  0  0  0  0  0  0  0  0  0
    3.9906   -3.6154    0.0000 C   0  0  0  0  0  0  0  0  0  0  0  0
    2.7286   -1.4666    0.0000 C   0  0  0  0  0  0  0  0  0  0  0  0
    4.8091   -2.1488    0.0000 C   0  0  0  0  0  0  0  0  0  0  0  0
    4.8433   -3.5813    0.0000 C   0  0  0  0  0  0  0  0  0  0  0  0
    0.3752   -4.2976    0.0000 C   0  0  0  0  0  0  0  0  0  0  0  0
    1.8759   -6.8215    0.0000 C   0  0  0  0  0  0  0  0  0  0  0  0
    5.2526   -2.8650    0.0000 C   0  0  0  0  0  0  0  0  0  0  0  0
    3.1379   -0.7162    0.0000 C   0  0  0  0  0  0  0  0  0  0  0  0
    2.7286    0.0000    0.0000 C   0  0  0  0  0  0  0  0  0  0  0  0
  1  9  1  0  0  0  0
  2  7  1  0  0  0  0
  2 19  1  0  0  0  0
  3 17  2  0  0  0  0
  4 10  1  0  0  0  0
  4 17  1  0  0  0  0
  5 11  1  0  0  0  0
  5 17  1  0  0  0  0
  6 15  1  0  0  0  0
  6 23  2  0  0  0  0
  7 20  2  0  0  0  0
  8  9  1  0  0  0  0
  8 10  1  0  0  0  0
  8 13  2  0  0  0  0
  9 15  1  0  0  0  0
  9 18  1  0  0  0  0
 10 11  2  0  0  0  0
 11 16  1  0  0  0  0
 12 13  1  0  0  0  0
 12 14  1  0  0  0  0
 12 16  2  0  0  0  0
 14 19  2  0  0  0  0
 14 20  1  0  0  0  0
 15 21  2  0  0  0  0
 18 22  1  0  0  0  0
 19 25  1  0  0  0  0
 20 26  1  0  0  0  0
 21 24  1  0  0  0  0
 22 28  1  0  0  0  0
 23 27  1  0  0  0  0
 24 27  2  0  0  0  0
 28 29  2  0  0  0  0
M  END
> <PUBCHEM_COMPOUND_ID_TYPE>
0

> <PUBCHEM_TOTAL_CHARGE>
0

> <PUBCHEM_SUBSTANCE_ID>
310933648

> <PUBCHEM_SUBSTANCE_VERSION>
1

> <PUBCHEM_EXT_DATASOURCE_NAME>
4488

> <PUBCHEM_EXT_DATASOURCE_REGID>
SCHEMBL16111079

> <PUBCHEM_SUBSTANCE_COMMENT>
InChI=1S/C22H22N4O3/c1-4-5-9-22(28,18-8-6-7-10-23-18)16-11-15(19-13(2)26-29-14(19)3)12-17-20(16)25-21(27)24-17/h4,6-8,10-12,28H,1,5,9H2,2-3H3,(H2,24,25,27)
InChIKey=QZGIDLVREAIJRE-UHFFFAOYSA-N

> <PUBCHEM_SUBSTANCE_SYNONYM>
SCHEMBL16111079

> <PUBCHEM_XREF_EXT_ID>
SCHEMBL16111079

> <PUBCHEM_EXT_DATASOURCE_URL>
https://www.surechembl.org/

> <PUBCHEM_EXT_SUBSTANCE_URL>
https://www.surechembl.org/chemical/SCHEMBL16111079

> <PUBCHEM_CID_ASSOCIATIONS>
117602020  1

> <PUBCHEM_COORDINATE_TYPE>
1
3

$$$$
