310946645
  -OEChem-07211613022D

 23 22  0     1  0  0  0  0  0999 V2000
   -6.4140  -11.0141    0.0000 O   0  0  0  0  0  0  0  0  0  0  0  0
   -9.0096  -10.6724    0.0000 O   0  0  0  0  0  0  0  0  0  0  0  0
  -11.4488  -14.9826    0.0000 O   0  0  0  0  0  0  0  0  0  0  0  0
  -10.7161  -16.2518    0.0000 O   0  5  0  0  0  0  0  0  0  0  0  0
   -9.9833  -14.9826    0.0000 O   0  0  0  0  0  0  0  0  0  0  0  0
   -5.6995  -12.2515    0.0000 N   0  0  0  0  0  0  0  0  0  0  0  0
  -10.0200  -11.6827    0.0000 N   0  0  0  0  0  0  0  0  0  0  0  0
   -7.1284  -13.0765    0.0000 N   0  0  0  0  0  0  0  0  0  0  0  0
  -10.7161  -15.4057    0.0000 N   0  3  0  0  0  0  0  0  0  0  0  0
   -7.1284  -12.2515    0.0000 C   0  0  3  0  0  0  0  0  0  0  0  0
   -6.4140  -11.8391    0.0000 C   0  0  0  0  0  0  0  0  0  0  0  0
   -7.8429  -11.8391    0.0000 C   0  0  0  0  0  0  0  0  0  0  0  0
   -9.2231  -11.4691    0.0000 C   0  0  0  0  0  0  0  0  0  0  0  0
   -8.6397  -12.0526    0.0000 C   0  0  0  0  0  0  0  0  0  0  0  0
   -4.9851  -11.8391    0.0000 C   0  0  0  0  0  0  0  0  0  0  0  0
  -10.0200  -12.5077    0.0000 C   0  0  0  0  0  0  0  0  0  0  0  0
  -10.7345  -12.9202    0.0000 C   0  0  0  0  0  0  0  0  0  0  0  0
  -10.7345  -13.7452    0.0000 C   0  0  0  0  0  0  0  0  0  0  0  0
   -4.2706  -12.2515    0.0000 C   0  0  0  0  0  0  0  0  0  0  0  0
  -11.4488  -14.1577    0.0000 C   0  0  0  0  0  0  0  0  0  0  0  0
   -3.5562  -11.8391    0.0000 C   0  0  0  0  0  0  0  0  0  0  0  0
   -2.8418  -12.2515    0.0000 C   0  0  0  0  0  0  0  0  0  0  0  0
   -2.1274  -11.8391    0.0000 C   0  0  0  0  0  0  0  0  0  0  0  0
  1 11  2  0  0  0  0
  2 13  2  0  0  0  0
  3  9  1  0  0  0  0
  3 20  1  0  0  0  0
  4  9  1  0  0  0  0
  5  9  2  0  0  0  0
  6 11  1  0  0  0  0
  6 15  1  0  0  0  0
  7 13  1  0  0  0  0
  7 16  1  0  0  0  0
  8 10  1  0  0  0  0
 10 11  1  0  0  0  0
 10 12  1  0  0  0  0
 12 14  1  0  0  0  0
 13 14  1  0  0  0  0
 15 19  1  0  0  0  0
 16 17  1  0  0  0  0
 17 18  1  0  0  0  0
 18 20  1  0  0  0  0
 19 21  1  0  0  0  0
 21 22  1  0  0  0  0
 22 23  1  0  0  0  0
M  CHG  2   4  -1   9   1
M  END
> <PUBCHEM_COMPOUND_ID_TYPE>
0

> <PUBCHEM_TOTAL_CHARGE>
0

> <PUBCHEM_SUBSTANCE_ID>
310946645

> <PUBCHEM_SUBSTANCE_VERSION>
1

> <PUBCHEM_EXT_DATASOURCE_NAME>
4488

> <PUBCHEM_EXT_DATASOURCE_REGID>
SCHEMBL16124766

> <PUBCHEM_SUBSTANCE_COMMENT>
InChI=1S/C14H28N4O5/c1-2-3-4-10-17-14(20)12(15)7-8-13(19)16-9-5-6-11-23-18(21)22/h12H,2-11,15H2,1H3,(H,16,19)(H,17,20)
InChIKey=PBFMXMDVXNJAEA-UHFFFAOYSA-N

> <PUBCHEM_SUBSTANCE_SYNONYM>
SCHEMBL16124766

> <PUBCHEM_XREF_EXT_ID>
SCHEMBL16124766

> <PUBCHEM_EXT_DATASOURCE_URL>
https://www.surechembl.org/

> <PUBCHEM_EXT_SUBSTANCE_URL>
https://www.surechembl.org/chemical/SCHEMBL16124766

> <PUBCHEM_CID_ASSOCIATIONS>
117612545  1

> <PUBCHEM_COORDINATE_TYPE>
1
3

$$$$
