310946270
  -OEChem-07211613022D

 26 28  0     1  0  0  0  0  0999 V2000
    3.1550   12.5442    0.0000 S   0  0  0  0  0  0  0  0  0  0  0  0
   -4.3839   16.0711    0.0000 S   0  0  0  0  0  0  0  0  0  0  0  0
    2.3300   12.5442    0.0000 O   0  0  0  0  0  0  0  0  0  0  0  0
   -0.5279   12.5442    0.0000 O   0  0  0  0  0  0  0  0  0  0  0  0
   -0.5279   15.8442    0.0000 O   0  0  0  0  0  0  0  0  0  0  0  0
    3.5675   11.8298    0.0000 O   0  0  0  0  0  0  0  0  0  0  0  0
    3.5675   13.2587    0.0000 O   0  0  0  0  0  0  0  0  0  0  0  0
    3.9800   12.5442    0.0000 O   0  0  0  0  0  0  0  0  0  0  0  0
   -1.9568   15.0192    0.0000 O   0  0  0  0  0  0  0  0  0  0  0  0
    0.1866   13.7817    0.0000 N   0  0  0  0  0  0  0  0  0  0  0  0
    1.6155   12.9567    0.0000 N   0  0  0  0  0  0  0  0  0  0  0  0
   -1.2424   14.6067    0.0000 N   0  0  0  0  0  0  0  0  0  0  0  0
   -3.1144   16.4836    0.0000 N   0  0  0  0  0  0  0  0  0  0  0  0
   -3.9691   14.4359    0.0000 N   0  0  0  0  0  0  0  0  0  0  0  0
    0.1866   12.9567    0.0000 C   0  0  0  0  0  0  0  0  0  0  0  0
    1.6155   13.7817    0.0000 C   0  0  3  0  0  0  0  0  0  0  0  0
    0.1866   14.6067    0.0000 C   0  0  3  0  0  0  0  0  0  0  0  0
    0.9010   13.3692    0.0000 C   0  0  0  0  0  0  0  0  0  0  0  0
    1.6155   14.6067    0.0000 C   0  0  0  0  0  0  0  0  0  0  0  0
    0.9010   15.0192    0.0000 C   0  0  0  0  0  0  0  0  0  0  0  0
   -0.5279   15.0192    0.0000 C   0  0  0  0  0  0  0  0  0  0  0  0
   -3.5993   15.8161    0.0000 C   0  0  0  0  0  0  0  0  0  0  0  0
   -3.3858   15.0192    0.0000 C   0  0  3  0  0  0  0  0  0  0  0  0
   -2.6713   14.6067    0.0000 C   0  0  0  0  0  0  0  0  0  0  0  0
   -4.3839   16.8961    0.0000 C   0  0  0  0  0  0  0  0  0  0  0  0
   -3.5993   17.1510    0.0000 C   0  0  0  0  0  0  0  0  0  0  0  0
  1  3  1  0  0  0  0
  1  6  2  0  0  0  0
  1  7  2  0  0  0  0
  1  8  1  0  0  0  0
  2 22  1  0  0  0  0
  2 25  1  0  0  0  0
  3 11  1  0  0  0  0
  4 15  2  0  0  0  0
  5 21  2  0  0  0  0
  9 12  1  0  0  0  0
  9 24  1  0  0  0  0
 10 15  1  0  0  0  0
 10 17  1  0  0  0  0
 10 18  1  0  0  0  0
 11 15  1  0  0  0  0
 11 16  1  0  0  0  0
 12 21  1  0  0  0  0
 13 22  2  0  0  0  0
 13 26  1  0  0  0  0
 14 23  1  0  0  0  0
 16 18  1  6  0  0  0
 16 19  1  0  0  0  0
 17 20  1  0  0  0  0
 17 21  1  6  0  0  0
 19 20  1  0  0  0  0
 22 23  1  0  0  0  0
 23 24  1  0  0  0  0
 25 26  2  0  0  0  0
M  END
> <PUBCHEM_COMPOUND_ID_TYPE>
0

> <PUBCHEM_TOTAL_CHARGE>
0

> <PUBCHEM_SUBSTANCE_ID>
310946270

> <PUBCHEM_SUBSTANCE_VERSION>
1

> <PUBCHEM_EXT_DATASOURCE_NAME>
4488

> <PUBCHEM_EXT_DATASOURCE_REGID>
SCHEMBL16124388

> <PUBCHEM_SUBSTANCE_COMMENT>
InChI=1S/C12H17N5O7S2/c13-8(11-14-3-4-25-11)6-23-15-10(18)9-2-1-7-5-16(9)12(19)17(7)24-26(20,21)22/h3-4,7-9H,1-2,5-6,13H2,(H,15,18)(H,20,21,22)/t7-,8?,9+/m1/s1
InChIKey=JUXWWNIQYMHPGN-NBXIYJJMSA-N

> <PUBCHEM_SUBSTANCE_SYNONYM>
SCHEMBL16124388

> <PUBCHEM_XREF_EXT_ID>
SCHEMBL16124388

> <PUBCHEM_EXT_DATASOURCE_URL>
https://www.surechembl.org/

> <PUBCHEM_EXT_SUBSTANCE_URL>
https://www.surechembl.org/chemical/SCHEMBL16124388

> <PUBCHEM_CID_ASSOCIATIONS>
117612218  1

> <PUBCHEM_COORDINATE_TYPE>
1
3

> <PUBCHEM_BONDANNOTATIONS>
16  18  6
17  21  6

$$$$
