310930986
  -OEChem-07211613022D

 23 26  0     1  0  0  0  0  0999 V2000
    5.6582   -1.0463    0.0000 S   0  0  0  0  0  0  0  0  0  0  0  0
    4.5053   -2.2847    0.0000 O   0  0  0  0  0  0  0  0  0  0  0  0
    5.5729   -0.8328    0.0000 O   0  0  0  0  0  0  0  0  0  0  0  0
    0.0000   -1.9644    0.0000 O   0  0  0  0  0  0  0  0  0  0  0  0
    4.2491   -0.1708    0.0000 N   0  0  0  0  0  0  0  0  0  0  0  0
    0.4057   -2.6903    0.0000 N   0  0  0  0  0  0  0  0  0  0  0  0
    4.2491   -1.4947    0.0000 C   0  0  3  0  0  0  0  0  0  0  0  0
    3.4590   -1.2811    0.0000 C   0  0  0  0  0  0  0  0  0  0  0  0
    3.4590   -0.4057    0.0000 C   0  0  0  0  0  0  0  0  0  0  0  0
    4.7401   -0.8328    0.0000 C   0  0  0  0  0  0  0  0  0  0  0  0
    5.0604   -1.6441    0.0000 C   0  0  0  0  0  0  0  0  0  0  0  0
    2.7117   -1.6654    0.0000 C   0  0  0  0  0  0  0  0  0  0  0  0
    2.0284   -1.2811    0.0000 C   0  0  0  0  0  0  0  0  0  0  0  0
    1.3025   -1.6868    0.0000 C   0  0  0  0  0  0  0  0  0  0  0  0
    2.7117    0.0000    0.0000 C   0  0  0  0  0  0  0  0  0  0  0  0
    2.0284   -0.4057    0.0000 C   0  0  0  0  0  0  0  0  0  0  0  0
    5.4447   -2.3701    0.0000 C   0  0  0  0  0  0  0  0  0  0  0  0
    0.5551   -1.3665    0.0000 C   0  0  0  0  0  0  0  0  0  0  0  0
    1.2171   -2.5195    0.0000 C   0  0  0  0  0  0  0  0  0  0  0  0
    6.4056   -1.4306    0.0000 C   0  0  0  0  0  0  0  0  0  0  0  0
    6.2561   -2.2419    0.0000 C   0  0  0  0  0  0  0  0  0  0  0  0
    0.3630   -0.5551    0.0000 C   0  0  0  0  0  0  0  0  0  0  0  0
    1.8363   -3.0747    0.0000 C   0  0  0  0  0  0  0  0  0  0  0  0
  1 11  1  0  0  0  0
  1 20  1  0  0  0  0
  2  7  1  0  0  0  0
  3 10  2  0  0  0  0
  4  6  1  0  0  0  0
  4 18  1  0  0  0  0
  5  9  1  0  0  0  0
  5 10  1  0  0  0  0
  6 19  2  0  0  0  0
  7  8  1  0  0  0  0
  7 10  1  0  0  0  0
  7 11  1  0  0  0  0
  8  9  2  0  0  0  0
  8 12  1  0  0  0  0
  9 15  1  0  0  0  0
 11 17  2  0  0  0  0
 12 13  2  0  0  0  0
 13 14  1  0  0  0  0
 13 16  1  0  0  0  0
 14 18  2  0  0  0  0
 14 19  1  0  0  0  0
 15 16  2  0  0  0  0
 17 21  1  0  0  0  0
 18 22  1  0  0  0  0
 19 23  1  0  0  0  0
 20 21  2  0  0  0  0
M  END
> <PUBCHEM_COMPOUND_ID_TYPE>
0

> <PUBCHEM_TOTAL_CHARGE>
0

> <PUBCHEM_SUBSTANCE_ID>
310930986

> <PUBCHEM_SUBSTANCE_VERSION>
1

> <PUBCHEM_EXT_DATASOURCE_NAME>
4488

> <PUBCHEM_EXT_DATASOURCE_REGID>
SCHEMBL16108286

> <PUBCHEM_SUBSTANCE_COMMENT>
InChI=1S/C17H14N2O3S/c1-9-15(10(2)22-19-9)11-5-6-13-12(8-11)17(21,16(20)18-13)14-4-3-7-23-14/h3-8,21H,1-2H3,(H,18,20)
InChIKey=VEAFBTNRZDWWGE-UHFFFAOYSA-N

> <PUBCHEM_SUBSTANCE_SYNONYM>
SCHEMBL16108286

> <PUBCHEM_XREF_EXT_ID>
SCHEMBL16108286

> <PUBCHEM_EXT_DATASOURCE_URL>
https://www.surechembl.org/

> <PUBCHEM_EXT_SUBSTANCE_URL>
https://www.surechembl.org/chemical/SCHEMBL16108286

> <PUBCHEM_CID_ASSOCIATIONS>
117599922  1

> <PUBCHEM_COORDINATE_TYPE>
1
3

$$$$
