310946197
  -OEChem-07211613022D

 16 19  0     1  0  0  0  0  0999 V2000
   -0.7034   -0.7903    0.0000 O   0  0  0  0  0  0  0  0  0  0  0  0
   -1.6043    0.7903    0.0000 O   0  0  0  0  0  0  0  0  0  0  0  0
    1.3513   -0.4267    0.0000 C   0  0  3  0  0  0  0  0  0  0  0  0
    1.0511   -0.7587    0.0000 C   0  0  3  0  0  0  0  0  0  0  0  0
    0.2291   -0.2687    0.0000 C   0  0  3  0  0  0  0  0  0  0  0  0
    1.6517   -0.7587    0.0000 C   0  0  3  0  0  0  0  0  0  0  0  0
    0.4663    0.5374    0.0000 C   0  0  3  0  0  0  0  0  0  0  0  0
    0.8614   -0.1580    0.0000 C   0  0  0  0  0  0  0  0  0  0  0  0
    1.4304   -1.4067    0.0000 C   0  0  0  0  0  0  0  0  0  0  0  0
    1.8730   -0.1580    0.0000 C   0  0  0  0  0  0  0  0  0  0  0  0
    2.2364    0.5374    0.0000 C   0  0  3  0  0  0  0  0  0  0  0  0
    2.4736   -0.2528    0.0000 C   0  0  0  0  0  0  0  0  0  0  0  0
    1.3513    1.4067    0.0000 C   0  0  0  0  0  0  0  0  0  0  0  0
    0.2450   -1.3118    0.0000 C   0  0  0  0  0  0  0  0  0  0  0  0
   -1.6043   -0.2687    0.0000 C   0  0  0  0  0  0  0  0  0  0  0  0
   -2.4736   -0.8061    0.0000 C   0  0  0  0  0  0  0  0  0  0  0  0
  1  5  1  0  0  0  0
  1 15  1  0  0  0  0
  2 15  2  0  0  0  0
  3  4  1  0  0  0  0
  3  6  1  0  0  0  0
  3  8  1  0  0  0  0
  3 10  1  0  0  0  0
  4  5  1  0  0  0  0
  4  9  1  0  0  0  0
  5  7  1  0  0  0  0
  5 14  1  0  0  0  0
  6  9  1  0  0  0  0
  6 12  1  0  0  0  0
  7  8  1  0  0  0  0
  7 13  1  0  0  0  0
 10 11  1  0  0  0  0
 11 12  1  0  0  0  0
 11 13  1  0  0  0  0
 15 16  1  0  0  0  0
M  END
> <PUBCHEM_COMPOUND_ID_TYPE>
0

> <PUBCHEM_TOTAL_CHARGE>
0

> <PUBCHEM_SUBSTANCE_ID>
310946197

> <PUBCHEM_SUBSTANCE_VERSION>
1

> <PUBCHEM_EXT_DATASOURCE_NAME>
4488

> <PUBCHEM_EXT_DATASOURCE_REGID>
SCHEMBL16124309

> <PUBCHEM_SUBSTANCE_COMMENT>
InChI=1S/C14H20O2/c1-8(15)16-13(2)11-4-9-3-10-5-12(13)14(10,6-9)7-11/h9-12H,3-7H2,1-2H3
InChIKey=LUYAZJWDJZKTJY-UHFFFAOYSA-N

> <PUBCHEM_SUBSTANCE_SYNONYM>
SCHEMBL16124309

> <PUBCHEM_XREF_EXT_ID>
SCHEMBL16124309

> <PUBCHEM_EXT_DATASOURCE_URL>
https://www.surechembl.org/

> <PUBCHEM_EXT_SUBSTANCE_URL>
https://www.surechembl.org/chemical/SCHEMBL16124309

> <PUBCHEM_CID_ASSOCIATIONS>
117612148  1

> <PUBCHEM_COORDINATE_TYPE>
1
3

$$$$
