310934259
  -OEChem-07211613022D

 24 26  0     1  0  0  0  0  0999 V2000
    6.4659   -0.6533    0.0000 F   0  0  0  0  0  0  0  0  0  0  0  0
    0.0000   -2.8612    0.0000 F   0  0  0  0  0  0  0  0  0  0  0  0
    0.1351   -4.5058    0.0000 F   0  0  0  0  0  0  0  0  0  0  0  0
    5.2944   -2.8837    0.0000 O   0  0  0  0  0  0  0  0  0  0  0  0
    5.2944   -1.4869    0.0000 O   0  0  0  0  0  0  0  0  0  0  0  0
    1.5545   -4.3481    0.0000 N   0  0  0  0  0  0  0  0  0  0  0  0
    4.0778   -2.1853    0.0000 C   0  0  3  0  0  0  0  0  0  0  0  0
    4.4382   -1.4419    0.0000 C   0  0  0  0  0  0  0  0  0  0  0  0
    3.6047   -2.8387    0.0000 C   0  0  0  0  0  0  0  0  0  0  0  0
    2.8161   -2.5908    0.0000 C   0  0  0  0  0  0  0  0  0  0  0  0
    3.6047   -1.5095    0.0000 C   0  0  0  0  0  0  0  0  0  0  0  0
    4.8889   -2.1853    0.0000 C   0  0  0  0  0  0  0  0  0  0  0  0
    5.4295   -1.5770    0.0000 C   0  0  0  0  0  0  0  0  0  0  0  0
    2.8161   -1.7798    0.0000 C   0  0  0  0  0  0  0  0  0  0  0  0
    2.1628   -3.0640    0.0000 C   0  0  0  0  0  0  0  0  0  0  0  0
    4.0102   -0.7660    0.0000 C   0  0  0  0  0  0  0  0  0  0  0  0
    5.6323   -0.6759    0.0000 C   0  0  0  0  0  0  0  0  0  0  0  0
    1.3968   -2.7485    0.0000 C   0  0  0  0  0  0  0  0  0  0  0  0
    2.2079   -3.8750    0.0000 C   0  0  0  0  0  0  0  0  0  0  0  0
    0.7435   -3.1992    0.0000 C   0  0  0  0  0  0  0  0  0  0  0  0
    4.3707   -0.0225    0.0000 C   0  0  0  0  0  0  0  0  0  0  0  0
    5.2042    0.0000    0.0000 C   0  0  0  0  0  0  0  0  0  0  0  0
    0.8111   -4.0327    0.0000 C   0  0  0  0  0  0  0  0  0  0  0  0
    5.6999   -2.0952    0.0000 C   0  0  0  0  0  0  0  0  0  0  0  0
  1 17  1  0  0  0  0
  2 20  1  0  0  0  0
  3 23  1  0  0  0  0
  4 12  2  0  0  0  0
  5 12  1  0  0  0  0
  6 19  1  0  0  0  0
  6 23  2  0  0  0  0
  7  8  1  0  0  0  0
  7  9  1  0  0  0  0
  7 11  1  0  0  0  0
  7 12  1  0  0  0  0
  8 13  1  0  0  0  0
  8 16  2  0  0  0  0
  9 10  2  0  0  0  0
 10 14  1  0  0  0  0
 10 15  1  0  0  0  0
 11 14  1  0  0  0  0
 13 17  2  0  0  0  0
 13 24  1  0  0  0  0
 15 18  1  0  0  0  0
 15 19  2  0  0  0  0
 16 21  1  0  0  0  0
 17 22  1  0  0  0  0
 18 20  2  0  0  0  0
 20 23  1  0  0  0  0
 21 22  2  0  0  0  0
M  END
> <PUBCHEM_COMPOUND_ID_TYPE>
0

> <PUBCHEM_TOTAL_CHARGE>
0

> <PUBCHEM_SUBSTANCE_ID>
310934259

> <PUBCHEM_SUBSTANCE_VERSION>
1

> <PUBCHEM_EXT_DATASOURCE_NAME>
4488

> <PUBCHEM_EXT_DATASOURCE_REGID>
SCHEMBL16111717

> <PUBCHEM_SUBSTANCE_COMMENT>
InChI=1S/C18H14F3NO2/c1-10-13(3-2-4-14(10)19)18(17(23)24)6-5-11(8-18)12-7-15(20)16(21)22-9-12/h2-4,7-9H,5-6H2,1H3,(H,23,24)
InChIKey=GITVIWUKLHRNNV-UHFFFAOYSA-N

> <PUBCHEM_SUBSTANCE_SYNONYM>
SCHEMBL16111717

> <PUBCHEM_XREF_EXT_ID>
SCHEMBL16111717

> <PUBCHEM_EXT_DATASOURCE_URL>
https://www.surechembl.org/

> <PUBCHEM_EXT_SUBSTANCE_URL>
https://www.surechembl.org/chemical/SCHEMBL16111717

> <PUBCHEM_CID_ASSOCIATIONS>
117602515  1

> <PUBCHEM_COORDINATE_TYPE>
1
3

$$$$
