310933741
  -OEChem-07211613022D

 17 18  0     1  0  0  0  0  0999 V2000
    5.1563   -3.1282    0.0000 Cl  0  0  0  0  0  0  0  0  0  0  0  0
    3.5063   -3.1282    0.0000 F   0  0  0  0  0  0  0  0  0  0  0  0
    3.5063   -0.2750    0.0000 F   0  0  0  0  0  0  0  0  0  0  0  0
    1.4266   -2.1141    0.0000 O   0  0  0  0  0  0  0  0  0  0  0  0
    0.8250    0.0000    0.0000 O   0  0  0  0  0  0  0  0  0  0  0  0
    0.0000   -1.1516    0.0000 O   0  0  0  0  0  0  0  0  0  0  0  0
    2.2000   -2.3891    0.0000 N   0  0  0  0  0  0  0  0  0  0  0  0
    3.5063   -1.7016    0.0000 C   0  0  0  0  0  0  0  0  0  0  0  0
    2.6813   -1.7016    0.0000 C   0  0  0  0  0  0  0  0  0  0  0  0
    3.9188   -2.4063    0.0000 C   0  0  0  0  0  0  0  0  0  0  0  0
    3.9188   -0.9797    0.0000 C   0  0  0  0  0  0  0  0  0  0  0  0
    1.4266   -1.3063    0.0000 C   0  0  3  0  0  0  0  0  0  0  0  0
    2.2000   -1.0313    0.0000 C   0  0  0  0  0  0  0  0  0  0  0  0
    4.7438   -2.4063    0.0000 C   0  0  0  0  0  0  0  0  0  0  0  0
    4.7438   -0.9797    0.0000 C   0  0  0  0  0  0  0  0  0  0  0  0
    5.1563   -1.7016    0.0000 C   0  0  0  0  0  0  0  0  0  0  0  0
    0.7391   -0.8250    0.0000 C   0  0  0  0  0  0  0  0  0  0  0  0
  1 14  1  0  0  0  0
  2 10  1  0  0  0  0
  3 11  1  0  0  0  0
  4  7  1  0  0  0  0
  4 12  1  0  0  0  0
  5 17  2  0  0  0  0
  6 17  1  0  0  0  0
  7  9  2  0  0  0  0
  8  9  1  0  0  0  0
  8 10  1  0  0  0  0
  8 11  2  0  0  0  0
  9 13  1  0  0  0  0
 10 14  2  0  0  0  0
 11 15  1  0  0  0  0
 12 13  1  0  0  0  0
 12 17  1  0  0  0  0
 14 16  1  0  0  0  0
 15 16  2  0  0  0  0
M  END
> <PUBCHEM_COMPOUND_ID_TYPE>
0

> <PUBCHEM_TOTAL_CHARGE>
0

> <PUBCHEM_SUBSTANCE_ID>
310933741

> <PUBCHEM_SUBSTANCE_VERSION>
1

> <PUBCHEM_EXT_DATASOURCE_NAME>
4488

> <PUBCHEM_EXT_DATASOURCE_REGID>
SCHEMBL16111176

> <PUBCHEM_SUBSTANCE_COMMENT>
InChI=1S/C10H6ClF2NO3/c11-4-1-2-5(12)8(9(4)13)6-3-7(10(15)16)17-14-6/h1-2,7H,3H2,(H,15,16)
InChIKey=AKPYALCPZPVVAN-UHFFFAOYSA-N

> <PUBCHEM_SUBSTANCE_SYNONYM>
SCHEMBL16111176

> <PUBCHEM_XREF_EXT_ID>
SCHEMBL16111176

> <PUBCHEM_EXT_DATASOURCE_URL>
https://www.surechembl.org/

> <PUBCHEM_EXT_SUBSTANCE_URL>
https://www.surechembl.org/chemical/SCHEMBL16111176

> <PUBCHEM_CID_ASSOCIATIONS>
117602102  1

> <PUBCHEM_COORDINATE_TYPE>
1
3

$$$$
