310938907
  -OEChem-07211613022D

 35 39  0     1  0  0  0  0  0999 V2000
   -4.3939   -0.4288    0.0000 Cl  0  0  0  0  0  0  0  0  0  0  0  0
    0.7893    3.3125    0.0000 O   0  0  0  0  0  0  0  0  0  0  0  0
   -0.6401   -0.8390    0.0000 O   0  0  0  0  0  0  0  0  0  0  0  0
    0.0683   -2.0820    0.0000 O   0  0  0  0  0  0  0  0  0  0  0  0
   -4.2323   -2.0820    0.0000 O   0  0  0  0  0  0  0  0  0  0  0  0
    0.0932    0.4040    0.0000 N   0  0  0  0  0  0  0  0  0  0  0  0
    1.5350    0.4040    0.0000 N   0  0  0  0  0  0  0  0  0  0  0  0
    1.5350   -2.0820    0.0000 N   0  0  0  0  0  0  0  0  0  0  0  0
    0.8017    1.6594    0.0000 C   0  0  0  0  0  0  0  0  0  0  0  0
    0.8017    0.8266    0.0000 C   0  0  0  0  0  0  0  0  0  0  0  0
    0.0932    2.0944    0.0000 C   0  0  3  0  0  0  0  0  0  0  0  0
    1.5102    2.0820    0.0000 C   0  0  3  0  0  0  0  0  0  0  0  0
    0.0808   -0.4164    0.0000 C   0  0  0  0  0  0  0  0  0  0  0  0
    0.8017   -0.8266    0.0000 C   0  0  0  0  0  0  0  0  0  0  0  0
    0.4537    2.6662    0.0000 C   0  0  0  0  0  0  0  0  0  0  0  0
    1.1622    2.6662    0.0000 C   0  0  0  0  0  0  0  0  0  0  0  0
    0.0932    2.8899    0.0000 C   0  0  0  0  0  0  0  0  0  0  0  0
    1.5226    2.8899    0.0000 C   0  0  0  0  0  0  0  0  0  0  0  0
    1.5226   -0.4288    0.0000 C   0  0  0  0  0  0  0  0  0  0  0  0
    0.8017   -1.6594    0.0000 C   0  0  0  0  0  0  0  0  0  0  0  0
   -1.3486   -0.4164    0.0000 C   0  0  0  0  0  0  0  0  0  0  0  0
   -2.0696   -0.8266    0.0000 C   0  0  0  0  0  0  0  0  0  0  0  0
   -2.7780   -0.4288    0.0000 C   0  0  0  0  0  0  0  0  0  0  0  0
   -3.4990   -0.8390    0.0000 C   0  0  0  0  0  0  0  0  0  0  0  0
   -3.4990   -1.6594    0.0000 C   0  0  0  0  0  0  0  0  0  0  0  0
   -2.0696   -1.6594    0.0000 C   0  0  0  0  0  0  0  0  0  0  0  0
    2.2436   -1.6594    0.0000 C   0  0  0  0  0  0  0  0  0  0  0  0
   -2.7780   -2.0696    0.0000 C   0  0  0  0  0  0  0  0  0  0  0  0
    2.9520   -2.0696    0.0000 C   0  0  0  0  0  0  0  0  0  0  0  0
    2.9645   -2.9024    0.0000 C   0  0  0  0  0  0  0  0  0  0  0  0
    3.6854   -1.6718    0.0000 C   0  0  0  0  0  0  0  0  0  0  0  0
    3.6854   -3.3125    0.0000 C   0  0  0  0  0  0  0  0  0  0  0  0
    4.3939   -2.0820    0.0000 C   0  0  0  0  0  0  0  0  0  0  0  0
   -4.2323   -2.8774    0.0000 C   0  0  0  0  0  0  0  0  0  0  0  0
    4.3939   -2.9024    0.0000 C   0  0  0  0  0  0  0  0  0  0  0  0
  1 24  1  0  0  0  0
  2 17  1  0  0  0  0
  2 18  1  0  0  0  0
  3 13  1  0  0  0  0
  3 21  1  0  0  0  0
  4 20  2  0  0  0  0
  5 25  1  0  0  0  0
  5 34  1  0  0  0  0
  6 10  1  0  0  0  0
  6 13  2  0  0  0  0
  7 10  2  0  0  0  0
  7 19  1  0  0  0  0
  8 20  1  0  0  0  0
  8 27  1  0  0  0  0
  9 10  1  0  0  0  0
  9 11  1  0  0  0  0
  9 12  1  0  0  0  0
 11 15  1  0  0  0  0
 11 17  1  0  0  0  0
 12 16  1  0  0  0  0
 12 18  1  0  0  0  0
 13 14  1  0  0  0  0
 14 19  2  0  0  0  0
 14 20  1  0  0  0  0
 15 16  1  0  0  0  0
 21 22  1  0  0  0  0
 22 23  2  0  0  0  0
 22 26  1  0  0  0  0
 23 24  1  0  0  0  0
 24 25  2  0  0  0  0
 25 28  1  0  0  0  0
 26 28  2  0  0  0  0
 27 29  1  0  0  0  0
 29 30  2  0  0  0  0
 29 31  1  0  0  0  0
 30 32  1  0  0  0  0
 31 33  2  0  0  0  0
 32 35  2  0  0  0  0
 33 35  1  0  0  0  0
M  END
> <PUBCHEM_COMPOUND_ID_TYPE>
0

> <PUBCHEM_TOTAL_CHARGE>
0

> <PUBCHEM_SUBSTANCE_ID>
310938907

> <PUBCHEM_SUBSTANCE_VERSION>
1

> <PUBCHEM_EXT_DATASOURCE_NAME>
4488

> <PUBCHEM_EXT_DATASOURCE_REGID>
SCHEMBL16116826

> <PUBCHEM_SUBSTANCE_COMMENT>
InChI=1S/C27H28ClN3O4/c1-33-23-10-7-18(11-22(23)28)14-35-27-21(26(32)30-12-17-5-3-2-4-6-17)13-29-25(31-27)24-19-8-9-20(24)16-34-15-19/h2-7,10-11,13,19-20,24H,8-9,12,14-16H2,1H3,(H,30,32)
InChIKey=RBECIVIOBYGDEL-UHFFFAOYSA-N

> <PUBCHEM_SUBSTANCE_SYNONYM>
SCHEMBL16116826

> <PUBCHEM_XREF_EXT_ID>
SCHEMBL16116826

> <PUBCHEM_EXT_DATASOURCE_URL>
https://www.surechembl.org/

> <PUBCHEM_EXT_SUBSTANCE_URL>
https://www.surechembl.org/chemical/SCHEMBL16116826

> <PUBCHEM_CID_ASSOCIATIONS>
117606304  1

> <PUBCHEM_COORDINATE_TYPE>
1
3

$$$$
