310931693
  -OEChem-07211613022D

 50 54  0     1  0  0  0  0  0999 V2000
    1.5304   -7.8482    0.0000 Cl  0  0  0  0  0  0  0  0  0  0  0  0
    6.5532   -5.8077    0.0000 S   0  0  0  0  0  0  0  0  0  0  0  0
    5.7292   -4.2772    0.0000 S   0  0  0  0  0  0  0  0  0  0  0  0
    3.6886   -5.7684    0.0000 F   0  0  0  0  0  0  0  0  0  0  0  0
    5.1406   -3.2963    0.0000 F   0  0  0  0  0  0  0  0  0  0  0  0
    6.1216   -6.5140    0.0000 O   0  0  0  0  0  0  0  0  0  0  0  0
    7.2595   -6.2393    0.0000 O   0  0  0  0  0  0  0  0  0  0  0  0
    3.6886   -4.1203    0.0000 O   0  0  0  0  0  0  0  0  0  0  0  0
    9.4570   -5.1406    0.0000 O   0  0  0  0  0  0  0  0  0  0  0  0
    0.8241   -1.6481    0.0000 O   0  0  0  0  0  0  0  0  0  0  0  0
    9.4963   -2.2759    0.0000 O   0  0  0  0  0  0  0  0  0  0  0  0
    2.2759   -1.6481    0.0000 O   0  0  0  0  0  0  0  0  0  0  0  0
    6.9849   -5.1013    0.0000 N   0  0  0  0  0  0  0  0  0  0  0  0
    6.9064   -3.6102    0.0000 N   0  0  0  0  0  0  0  0  0  0  0  0
    5.5722   -3.4532    0.0000 N   0  0  0  0  0  0  0  0  0  0  0  0
    1.5304   -2.8646    0.0000 N   0  0  0  0  0  0  0  0  0  0  0  0
    5.8469   -5.3760    0.0000 C   0  0  0  0  0  0  0  0  0  0  0  0
    6.5532   -4.3557    0.0000 C   0  0  0  0  0  0  0  0  0  0  0  0
    4.4342   -4.5520    0.0000 C   0  0  0  0  0  0  0  0  0  0  0  0
    5.1406   -5.7684    0.0000 C   0  0  0  0  0  0  0  0  0  0  0  0
    5.8469   -4.5520    0.0000 C   0  0  0  0  0  0  0  0  0  0  0  0
    4.3950   -5.3760    0.0000 C   0  0  0  0  0  0  0  0  0  0  0  0
    5.1406   -4.1203    0.0000 C   0  0  0  0  0  0  0  0  0  0  0  0
    7.8090   -5.1013    0.0000 C   0  0  0  0  0  0  0  0  0  0  0  0
    8.2406   -4.3950    0.0000 C   0  0  0  0  0  0  0  0  0  0  0  0
    9.0647   -4.3950    0.0000 C   0  0  0  0  0  0  0  0  0  0  0  0
    2.2759   -4.1203    0.0000 C   0  0  3  0  0  0  0  0  0  0  0  0
    1.5304   -4.5127    0.0000 C   0  0  3  0  0  0  0  0  0  0  0  0
    2.9823   -4.5127    0.0000 C   0  0  0  0  0  0  0  0  0  0  0  0
    7.8482   -3.6494    0.0000 C   0  0  0  0  0  0  0  0  0  0  0  0
    6.3178   -3.0608    0.0000 C   0  0  0  0  0  0  0  0  0  0  0  0
    1.5304   -5.3368    0.0000 C   0  0  0  0  0  0  0  0  0  0  0  0
    2.2759   -3.2963    0.0000 C   0  0  0  0  0  0  0  0  0  0  0  0
    9.4963   -3.6886    0.0000 C   0  0  0  0  0  0  0  0  0  0  0  0
    9.0647   -2.9823    0.0000 C   0  0  0  0  0  0  0  0  0  0  0  0
    0.8241   -4.1203    0.0000 C   0  0  0  0  0  0  0  0  0  0  0  0
    8.2406   -2.9823    0.0000 C   0  0  0  0  0  0  0  0  0  0  0  0
    0.8241   -3.2963    0.0000 C   0  0  0  0  0  0  0  0  0  0  0  0
    1.5304   -2.0405    0.0000 C   0  0  0  0  0  0  0  0  0  0  0  0
    2.2759   -5.7684    0.0000 C   0  0  0  0  0  0  0  0  0  0  0  0
    0.8241   -5.7684    0.0000 C   0  0  0  0  0  0  0  0  0  0  0  0
    2.2759   -6.5925    0.0000 C   0  0  0  0  0  0  0  0  0  0  0  0
    0.8241   -6.5925    0.0000 C   0  0  0  0  0  0  0  0  0  0  0  0
    1.5304   -7.0241    0.0000 C   0  0  0  0  0  0  0  0  0  0  0  0
    0.8241   -0.8241    0.0000 C   0  0  0  0  0  0  0  0  0  0  0  0
   10.2811   -5.1406    0.0000 C   0  0  0  0  0  0  0  0  0  0  0  0
    9.1039   -1.5304    0.0000 C   0  0  0  0  0  0  0  0  0  0  0  0
    1.6873   -0.8241    0.0000 C   0  0  0  0  0  0  0  0  0  0  0  0
    0.8241    0.0000    0.0000 C   0  0  0  0  0  0  0  0  0  0  0  0
    0.0000   -0.8241    0.0000 C   0  0  0  0  0  0  0  0  0  0  0  0
  1 44  1  0  0  0  0
  2  6  2  0  0  0  0
  2  7  2  0  0  0  0
  2 13  1  0  0  0  0
  2 17  1  0  0  0  0
  3 15  1  0  0  0  0
  3 18  1  0  0  0  0
  4 22  1  0  0  0  0
  5 23  1  0  0  0  0
  8 19  1  0  0  0  0
  8 29  1  0  0  0  0
  9 26  1  0  0  0  0
  9 46  1  0  0  0  0
 10 39  1  0  0  0  0
 10 45  1  0  0  0  0
 11 35  1  0  0  0  0
 11 47  1  0  0  0  0
 12 39  2  0  0  0  0
 13 18  1  0  0  0  0
 13 24  1  0  0  0  0
 14 18  2  0  0  0  0
 14 31  1  0  0  0  0
 15 31  2  0  0  0  0
 16 33  1  0  0  0  0
 16 38  1  0  0  0  0
 16 39  1  0  0  0  0
 17 20  2  0  0  0  0
 17 21  1  0  0  0  0
 19 22  2  0  0  0  0
 19 23  1  0  0  0  0
 20 22  1  0  0  0  0
 21 23  2  0  0  0  0
 24 25  1  0  0  0  0
 25 26  2  0  0  0  0
 25 30  1  0  0  0  0
 26 34  1  0  0  0  0
 27 28  1  0  0  0  0
 27 29  1  0  0  0  0
 27 33  1  0  0  0  0
 28 32  1  0  0  0  0
 28 36  1  0  0  0  0
 30 37  2  0  0  0  0
 32 40  2  0  0  0  0
 32 41  1  0  0  0  0
 34 35  2  0  0  0  0
 35 37  1  0  0  0  0
 36 38  1  0  0  0  0
 40 42  1  0  0  0  0
 41 43  2  0  0  0  0
 42 44  2  0  0  0  0
 43 44  1  0  0  0  0
 45 48  1  0  0  0  0
 45 49  1  0  0  0  0
 45 50  1  0  0  0  0
M  END
> <PUBCHEM_COMPOUND_ID_TYPE>
0

> <PUBCHEM_TOTAL_CHARGE>
0

> <PUBCHEM_SUBSTANCE_ID>
310931693

> <PUBCHEM_SUBSTANCE_VERSION>
1

> <PUBCHEM_EXT_DATASOURCE_NAME>
4488

> <PUBCHEM_EXT_DATASOURCE_REGID>
SCHEMBL16109020

> <PUBCHEM_SUBSTANCE_COMMENT>
InChI=1S/C34H37ClF2N4O7S2/c1-34(2,3)48-33(42)40-13-12-27(21-6-9-24(35)10-7-21)23(17-40)19-47-31-28(36)15-26(16-29(31)37)50(43,44)41(32-38-20-39-49-32)18-22-8-11-25(45-4)14-30(22)46-5/h6-11,14-16,20,23,27H,12-13,17-19H2,1-5H3
InChIKey=XJDHTRDDBOQZLG-UHFFFAOYSA-N

> <PUBCHEM_SUBSTANCE_SYNONYM>
SCHEMBL16109020

> <PUBCHEM_XREF_EXT_ID>
SCHEMBL16109020

> <PUBCHEM_EXT_DATASOURCE_URL>
https://www.surechembl.org/

> <PUBCHEM_EXT_SUBSTANCE_URL>
https://www.surechembl.org/chemical/SCHEMBL16109020

> <PUBCHEM_CID_ASSOCIATIONS>
117600394  1

> <PUBCHEM_COORDINATE_TYPE>
1
3

$$$$
