310944139
  -OEChem-07211613022D

 33 35  0     1  0  0  0  0  0999 V2000
   -4.2468    3.6773    0.0000 F   0  0  0  0  0  0  0  0  0  0  0  0
   -0.4500   -2.5242    0.0000 O   0  0  0  0  0  0  0  0  0  0  0  0
    3.6843   -0.8930    0.0000 O   0  0  0  0  0  0  0  0  0  0  0  0
    3.1781   -2.2570    0.0000 O   0  0  0  0  0  0  0  0  0  0  0  0
   -1.0406   -1.2164    0.0000 N   0  0  0  0  0  0  0  0  0  0  0  0
   -1.6594   -0.6680    0.0000 N   0  0  0  0  0  0  0  0  0  0  0  0
    0.8578    0.4570    0.0000 N   0  0  3  0  0  0  0  0  0  0  0  0
    2.1797   -1.2867    0.0000 N   0  0  0  0  0  0  0  0  0  0  0  0
   -0.5203    0.0070    0.0000 C   0  0  0  0  0  0  0  0  0  0  0  0
   -1.3640    0.1195    0.0000 C   0  0  0  0  0  0  0  0  0  0  0  0
   -0.3375   -0.7664    0.0000 C   0  0  0  0  0  0  0  0  0  0  0  0
   -1.1531   -2.0179    0.0000 C   0  0  3  0  0  0  0  0  0  0  0  0
    0.0562    0.6539    0.0000 C   0  0  0  0  0  0  0  0  0  0  0  0
   -1.7718    0.8086    0.0000 C   0  0  0  0  0  0  0  0  0  0  0  0
   -1.8843   -2.3695    0.0000 C   0  0  0  0  0  0  0  0  0  0  0  0
   -2.6015    0.8226    0.0000 C   0  0  0  0  0  0  0  0  0  0  0  0
   -3.0093    1.5398    0.0000 C   0  0  0  0  0  0  0  0  0  0  0  0
   -0.5484   -3.3398    0.0000 C   0  0  0  0  0  0  0  0  0  0  0  0
   -1.9687   -3.1992    0.0000 C   0  0  0  0  0  0  0  0  0  0  0  0
    1.1109   -0.3023    0.0000 C   0  0  0  0  0  0  0  0  0  0  0  0
   -1.2797   -3.6773    0.0000 C   0  0  0  0  0  0  0  0  0  0  0  0
   -2.6015    2.2429    0.0000 C   0  0  0  0  0  0  0  0  0  0  0  0
   -3.8530    1.5539    0.0000 C   0  0  0  0  0  0  0  0  0  0  0  0
    1.4625    1.0617    0.0000 C   0  0  0  0  0  0  0  0  0  0  0  0
   -3.8390    2.9883    0.0000 C   0  0  0  0  0  0  0  0  0  0  0  0
   -3.0093    2.9742    0.0000 C   0  0  0  0  0  0  0  0  0  0  0  0
   -4.2468    2.2711    0.0000 C   0  0  0  0  0  0  0  0  0  0  0  0
    1.9266   -0.4852    0.0000 C   0  0  0  0  0  0  0  0  0  0  0  0
    3.5156   -0.0492    0.0000 C   0  0  0  0  0  0  0  0  0  0  0  0
    3.0093   -1.4555    0.0000 C   0  0  0  0  0  0  0  0  0  0  0  0
    4.2468    0.1336    0.0000 C   0  0  0  0  0  0  0  0  0  0  0  0
    2.7562   -0.2180    0.0000 C   0  0  0  0  0  0  0  0  0  0  0  0
    3.3327    0.7523    0.0000 C   0  0  0  0  0  0  0  0  0  0  0  0
  1 25  1  0  0  0  0
  2 12  1  0  0  0  0
  2 18  1  0  0  0  0
  3 29  1  0  0  0  0
  3 30  1  0  0  0  0
  4 30  2  0  0  0  0
  5  6  1  0  0  0  0
  5 11  1  0  0  0  0
  5 12  1  0  0  0  0
  6 10  2  0  0  0  0
  7 13  1  0  0  0  0
  7 20  1  0  0  0  0
  7 24  1  0  0  0  0
  8 28  1  0  0  0  0
  8 30  1  0  0  0  0
  9 10  1  0  0  0  0
  9 11  2  0  0  0  0
  9 13  1  0  0  0  0
 10 14  1  0  0  0  0
 12 15  1  0  0  0  0
 14 16  2  0  0  0  0
 15 19  1  0  0  0  0
 16 17  1  0  0  0  0
 17 22  2  0  0  0  0
 17 23  1  0  0  0  0
 18 21  1  0  0  0  0
 19 21  1  0  0  0  0
 20 28  1  0  0  0  0
 22 26  1  0  0  0  0
 23 27  2  0  0  0  0
 25 26  2  0  0  0  0
 25 27  1  0  0  0  0
 29 31  1  0  0  0  0
 29 32  1  0  0  0  0
 29 33  1  0  0  0  0
M  END
> <PUBCHEM_COMPOUND_ID_TYPE>
0

> <PUBCHEM_TOTAL_CHARGE>
0

> <PUBCHEM_SUBSTANCE_ID>
310944139

> <PUBCHEM_SUBSTANCE_VERSION>
1

> <PUBCHEM_EXT_DATASOURCE_NAME>
4488

> <PUBCHEM_EXT_DATASOURCE_REGID>
SCHEMBL16122214

> <PUBCHEM_SUBSTANCE_COMMENT>
InChI=1S/C25H35FN4O3/c1-25(2,3)33-24(31)27-14-15-29(4)17-20-18-30(23-7-5-6-16-32-23)28-22(20)13-10-19-8-11-21(26)12-9-19/h8-13,18,23H,5-7,14-17H2,1-4H3,(H,27,31)/b13-10+
InChIKey=JXJYQUWHOCVDJJ-JLHYYAGUSA-N

> <PUBCHEM_SUBSTANCE_SYNONYM>
SCHEMBL16122214

> <PUBCHEM_XREF_EXT_ID>
SCHEMBL16122214

> <PUBCHEM_EXT_DATASOURCE_URL>
https://www.surechembl.org/

> <PUBCHEM_EXT_SUBSTANCE_URL>
https://www.surechembl.org/chemical/SCHEMBL16122214

> <PUBCHEM_CID_ASSOCIATIONS>
117610420  1

> <PUBCHEM_COORDINATE_TYPE>
1
3

$$$$
