310940832
  -OEChem-07211613022D

 42 46  0     1  0  0  0  0  0999 V2000
    5.2172   -1.4602    0.0000 O   0  0  0  0  0  0  0  0  0  0  0  0
    4.0764    0.5020    0.0000 O   0  0  0  0  0  0  0  0  0  0  0  0
    1.6884   -1.4602    0.0000 O   0  0  0  0  0  0  0  0  0  0  0  0
   -0.4868    0.6388    0.0000 O   0  0  0  0  0  0  0  0  0  0  0  0
   -2.6619   -1.4602    0.0000 O   0  0  0  0  0  0  0  0  0  0  0  0
   -5.5519    1.0495    0.0000 O   0  0  0  0  0  0  0  0  0  0  0  0
    2.4033   -0.1977    0.0000 N   0  0  0  0  0  0  0  0  0  0  0  0
    0.2434   -0.6236    0.0000 N   0  0  0  0  0  0  0  0  0  0  0  0
    2.5859    3.1181    0.0000 N   0  0  0  0  0  0  0  0  0  0  0  0
    3.7570    2.4489    0.0000 N   0  0  0  0  0  0  0  0  0  0  0  0
   -1.9317   -0.1977    0.0000 N   0  0  0  0  0  0  0  0  0  0  0  0
    4.8066   -0.7301    0.0000 C   0  0  3  0  0  0  0  0  0  0  0  0
    4.0612   -0.3195    0.0000 C   0  0  0  0  0  0  0  0  0  0  0  0
    4.3958   -1.4450    0.0000 C   0  0  0  0  0  0  0  0  0  0  0  0
    3.3616   -0.7148    0.0000 C   0  0  3  0  0  0  0  0  0  0  0  0
    5.5519   -0.3195    0.0000 C   0  0  0  0  0  0  0  0  0  0  0  0
    3.3616   -1.7948    0.0000 C   0  0  0  0  0  0  0  0  0  0  0  0
    1.7036   -0.5780    0.0000 C   0  0  0  0  0  0  0  0  0  0  0  0
    0.9734   -0.1673    0.0000 C   0  0  3  0  0  0  0  0  0  0  0  0
    1.6732    1.0799    0.0000 C   0  0  0  0  0  0  0  0  0  0  0  0
    2.6315   -2.2208    0.0000 C   0  0  0  0  0  0  0  0  0  0  0  0
    2.4185    2.3272    0.0000 C   0  0  0  0  0  0  0  0  0  0  0  0
    0.9887    0.6692    0.0000 C   0  0  0  0  0  0  0  0  0  0  0  0
    3.1333    1.9165    0.0000 C   0  0  0  0  0  0  0  0  0  0  0  0
    1.7036    1.9165    0.0000 C   0  0  0  0  0  0  0  0  0  0  0  0
    2.4185    0.6692    0.0000 C   0  0  0  0  0  0  0  0  0  0  0  0
    3.1333    1.0799    0.0000 C   0  0  0  0  0  0  0  0  0  0  0  0
   -0.4868   -0.1977    0.0000 C   0  0  0  0  0  0  0  0  0  0  0  0
    1.8708   -1.9013    0.0000 C   0  0  0  0  0  0  0  0  0  0  0  0
    2.5250   -3.0421    0.0000 C   0  0  0  0  0  0  0  0  0  0  0  0
   -1.1864   -0.5932    0.0000 C   0  0  3  0  0  0  0  0  0  0  0  0
    3.4224    3.2094    0.0000 C   0  0  0  0  0  0  0  0  0  0  0  0
   -2.6466   -0.5628    0.0000 C   0  0  0  0  0  0  0  0  0  0  0  0
    1.3234   -2.4945    0.0000 C   0  0  0  0  0  0  0  0  0  0  0  0
    1.7340   -3.2094    0.0000 C   0  0  0  0  0  0  0  0  0  0  0  0
   -3.3919   -0.1673    0.0000 C   0  0  0  0  0  0  0  0  0  0  0  0
   -4.0916   -0.5780    0.0000 C   0  0  0  0  0  0  0  0  0  0  0  0
   -3.3767    0.6541    0.0000 C   0  0  0  0  0  0  0  0  0  0  0  0
   -1.2016   -1.4450    0.0000 C   0  0  0  0  0  0  0  0  0  0  0  0
   -4.8066    0.6541    0.0000 C   0  0  0  0  0  0  0  0  0  0  0  0
   -4.8066   -0.1673    0.0000 C   0  0  0  0  0  0  0  0  0  0  0  0
   -4.1068    1.0648    0.0000 C   0  0  0  0  0  0  0  0  0  0  0  0
  1 12  1  0  0  0  0
  1 14  1  0  0  0  0
  2 13  2  0  0  0  0
  3 18  2  0  0  0  0
  4 28  2  0  0  0  0
  5 33  2  0  0  0  0
  6 40  1  0  0  0  0
  7 15  1  0  0  0  0
  7 18  1  0  0  0  0
  8 19  1  0  0  0  0
  8 28  1  0  0  0  0
  9 22  1  0  0  0  0
  9 32  2  0  0  0  0
 10 24  1  0  0  0  0
 10 32  1  0  0  0  0
 11 31  1  0  0  0  0
 11 33  1  0  0  0  0
 12 13  1  0  0  0  0
 12 14  1  0  0  0  0
 12 16  1  0  0  0  0
 13 15  1  0  0  0  0
 15 17  1  0  0  0  0
 17 21  1  0  0  0  0
 18 19  1  0  0  0  0
 19 23  1  0  0  0  0
 20 23  1  0  0  0  0
 20 25  1  0  0  0  0
 20 26  2  0  0  0  0
 21 29  1  0  0  0  0
 21 30  1  0  0  0  0
 22 24  1  0  0  0  0
 22 25  2  0  0  0  0
 24 27  2  0  0  0  0
 26 27  1  0  0  0  0
 28 31  1  0  0  0  0
 29 34  1  0  0  0  0
 30 35  1  0  0  0  0
 31 39  1  0  0  0  0
 33 36  1  0  0  0  0
 34 35  1  0  0  0  0
 36 37  1  0  0  0  0
 36 38  1  0  0  0  0
 37 41  1  0  0  0  0
 38 42  1  0  0  0  0
 40 41  1  0  0  0  0
 40 42  1  0  0  0  0
M  END
> <PUBCHEM_COMPOUND_ID_TYPE>
0

> <PUBCHEM_TOTAL_CHARGE>
0

> <PUBCHEM_SUBSTANCE_ID>
310940832

> <PUBCHEM_SUBSTANCE_VERSION>
1

> <PUBCHEM_EXT_DATASOURCE_NAME>
4488

> <PUBCHEM_EXT_DATASOURCE_REGID>
SCHEMBL16118791

> <PUBCHEM_SUBSTANCE_COMMENT>
InChI=1S/C31H43N5O6/c1-18(34-29(40)21-8-10-22(37)11-9-21)28(39)36-26(15-20-7-12-23-24(14-20)33-17-32-23)30(41)35-25(13-19-5-3-4-6-19)27(38)31(2)16-42-31/h7,12,14,17-19,21-22,25-26,37H,3-6,8-11,13,15-16H2,1-2H3,(H,32,33)(H,34,40)(H,35,41)(H,36,39)
InChIKey=MMVKCJIGAVEWIZ-UHFFFAOYSA-N

> <PUBCHEM_SUBSTANCE_SYNONYM>
SCHEMBL16118791

> <PUBCHEM_XREF_EXT_ID>
SCHEMBL16118791

> <PUBCHEM_EXT_DATASOURCE_URL>
https://www.surechembl.org/

> <PUBCHEM_EXT_SUBSTANCE_URL>
https://www.surechembl.org/chemical/SCHEMBL16118791

> <PUBCHEM_CID_ASSOCIATIONS>
86296131  1

> <PUBCHEM_COORDINATE_TYPE>
1
3

$$$$
