310939042
  -OEChem-07211613022D

 21 20  0     1  0  0  0  0  0999 V2000
   -0.8112    0.4995    0.0000 O   0  0  0  0  0  0  0  0  0  0  0  0
   -1.5256    1.7370    0.0000 O   0  0  0  0  0  0  0  0  0  0  0  0
   -1.3323   -1.7370    0.0000 O   0  0  0  0  0  0  0  0  0  0  0  0
   -2.2401   -0.3255    0.0000 N   0  0  0  0  0  0  0  0  0  0  0  0
   -2.2401    0.4995    0.0000 C   0  0  3  0  0  0  0  0  0  0  0  0
   -1.5256    0.9120    0.0000 C   0  0  0  0  0  0  0  0  0  0  0  0
   -2.9546    0.9120    0.0000 C   0  0  0  0  0  0  0  0  0  0  0  0
   -1.3323   -0.9120    0.0000 C   0  0  0  0  0  0  0  0  0  0  0  0
   -0.6178   -0.4995    0.0000 C   0  0  0  0  0  0  0  0  0  0  0  0
   -2.9546    1.7370    0.0000 C   0  0  0  0  0  0  0  0  0  0  0  0
   -3.6690    0.4995    0.0000 C   0  0  0  0  0  0  0  0  0  0  0  0
   -0.0967    0.9120    0.0000 C   0  0  0  0  0  0  0  0  0  0  0  0
    0.0967   -0.9120    0.0000 C   0  0  0  0  0  0  0  0  0  0  0  0
    0.6178    0.4995    0.0000 C   0  0  0  0  0  0  0  0  0  0  0  0
    0.8112   -0.4995    0.0000 C   0  0  0  0  0  0  0  0  0  0  0  0
    1.5256   -0.9120    0.0000 C   0  0  0  0  0  0  0  0  0  0  0  0
    1.3323    0.9120    0.0000 C   0  0  0  0  0  0  0  0  0  0  0  0
    2.2401   -0.4995    0.0000 C   0  0  0  0  0  0  0  0  0  0  0  0
    2.0467    0.4995    0.0000 C   0  0  0  0  0  0  0  0  0  0  0  0
    2.9546   -0.9120    0.0000 C   0  0  0  0  0  0  0  0  0  0  0  0
    3.6690   -0.4995    0.0000 C   0  0  0  0  0  0  0  0  0  0  0  0
  1  6  1  0  0  0  0
  1 12  1  0  0  0  0
  2  6  2  0  0  0  0
  3  8  2  0  0  0  0
  4  5  1  0  0  0  0
  4  8  1  0  0  0  0
  5  6  1  0  0  0  0
  5  7  1  0  0  0  0
  7 10  1  0  0  0  0
  7 11  1  0  0  0  0
  8  9  1  0  0  0  0
  9 13  1  0  0  0  0
 12 14  1  0  0  0  0
 13 15  1  0  0  0  0
 14 17  1  0  0  0  0
 15 16  1  0  0  0  0
 16 18  1  0  0  0  0
 17 19  1  0  0  0  0
 18 20  1  0  0  0  0
 20 21  1  0  0  0  0
M  END
> <PUBCHEM_COMPOUND_ID_TYPE>
0

> <PUBCHEM_TOTAL_CHARGE>
0

> <PUBCHEM_SUBSTANCE_ID>
310939042

> <PUBCHEM_SUBSTANCE_VERSION>
1

> <PUBCHEM_EXT_DATASOURCE_NAME>
4488

> <PUBCHEM_EXT_DATASOURCE_REGID>
SCHEMBL16116961

> <PUBCHEM_SUBSTANCE_COMMENT>
InChI=1S/C17H33NO3/c1-5-7-9-10-11-12-15(19)18-16(14(3)4)17(20)21-13-8-6-2/h14,16H,5-13H2,1-4H3,(H,18,19)
InChIKey=REJDTCAAGACGPL-UHFFFAOYSA-N

> <PUBCHEM_SUBSTANCE_SYNONYM>
SCHEMBL16116961

> <PUBCHEM_XREF_EXT_ID>
SCHEMBL16116961

> <PUBCHEM_EXT_DATASOURCE_URL>
https://www.surechembl.org/

> <PUBCHEM_EXT_SUBSTANCE_URL>
https://www.surechembl.org/chemical/SCHEMBL16116961

> <PUBCHEM_CID_ASSOCIATIONS>
117606412  1

> <PUBCHEM_COORDINATE_TYPE>
1
3

$$$$
