310937666
  -OEChem-07211613022D

 35 38  0     1  0  0  0  0  0999 V2000
    3.4618    0.4125    0.0000 S   0  0  0  0  0  0  0  0  0  0  0  0
    1.3184   -1.6500    0.0000 O   0  0  0  0  0  0  0  0  0  0  0  0
    4.2868    0.4125    0.0000 O   0  0  0  0  0  0  0  0  0  0  0  0
    3.8743    1.1270    0.0000 O   0  0  0  0  0  0  0  0  0  0  0  0
   -1.5395    1.6500    0.0000 O   0  0  0  0  0  0  0  0  0  0  0  0
   -2.9684   -0.8250    0.0000 O   0  0  0  0  0  0  0  0  0  0  0  0
    2.0329   -0.4125    0.0000 N   0  0  0  0  0  0  0  0  0  0  0  0
   -0.1106   -0.8250    0.0000 N   0  0  0  0  0  0  0  0  0  0  0  0
    2.7474   -0.8250    0.0000 C   0  0  3  0  0  0  0  0  0  0  0  0
    1.3184   -0.8250    0.0000 C   0  0  0  0  0  0  0  0  0  0  0  0
    0.6040   -0.4125    0.0000 C   0  0  3  0  0  0  0  0  0  0  0  0
    3.4618   -0.4125    0.0000 C   0  0  0  0  0  0  0  0  0  0  0  0
    2.7474   -1.6500    0.0000 C   0  0  0  0  0  0  0  0  0  0  0  0
    2.0329    0.4125    0.0000 C   0  0  0  0  0  0  0  0  0  0  0  0
    0.6040    0.4125    0.0000 C   0  0  0  0  0  0  0  0  0  0  0  0
    2.7474    0.8250    0.0000 C   0  0  0  0  0  0  0  0  0  0  0  0
   -0.8250   -0.4125    0.0000 C   0  0  0  0  0  0  0  0  0  0  0  0
    2.0329   -2.0625    0.0000 C   0  0  0  0  0  0  0  0  0  0  0  0
    3.4618   -2.0625    0.0000 C   0  0  0  0  0  0  0  0  0  0  0  0
    1.3184    0.8250    0.0000 C   0  0  0  0  0  0  0  0  0  0  0  0
   -0.1106    0.8250    0.0000 C   0  0  0  0  0  0  0  0  0  0  0  0
   -1.5395   -0.8250    0.0000 C   0  0  0  0  0  0  0  0  0  0  0  0
   -0.8250    0.4125    0.0000 C   0  0  0  0  0  0  0  0  0  0  0  0
   -1.5395    0.8250    0.0000 C   0  0  0  0  0  0  0  0  0  0  0  0
   -2.2540   -0.4125    0.0000 C   0  0  0  0  0  0  0  0  0  0  0  0
   -2.2540    0.4125    0.0000 C   0  0  0  0  0  0  0  0  0  0  0  0
    1.3184    1.6500    0.0000 C   0  0  0  0  0  0  0  0  0  0  0  0
   -0.1106    1.6500    0.0000 C   0  0  0  0  0  0  0  0  0  0  0  0
    0.6040    2.0625    0.0000 C   0  0  0  0  0  0  0  0  0  0  0  0
    2.0329   -2.8875    0.0000 C   0  0  0  0  0  0  0  0  0  0  0  0
    3.4618   -2.8875    0.0000 C   0  0  0  0  0  0  0  0  0  0  0  0
    2.7474   -3.3000    0.0000 C   0  0  0  0  0  0  0  0  0  0  0  0
    0.6040    2.8875    0.0000 C   0  0  0  0  0  0  0  0  0  0  0  0
   -2.2540    2.0625    0.0000 C   0  0  0  0  0  0  0  0  0  0  0  0
   -3.6829   -0.4125    0.0000 C   0  0  0  0  0  0  0  0  0  0  0  0
  1  3  2  0  0  0  0
  1  4  2  0  0  0  0
  1 12  1  0  0  0  0
  1 16  1  0  0  0  0
  2 10  2  0  0  0  0
  5 24  1  0  0  0  0
  5 34  1  0  0  0  0
  6 25  1  0  0  0  0
  6 35  1  0  0  0  0
  7  9  1  0  0  0  0
  7 10  1  0  0  0  0
  7 14  1  0  0  0  0
  8 11  1  0  0  0  0
  8 17  1  0  0  0  0
  9 12  1  0  0  0  0
  9 13  1  0  0  0  0
 10 11  1  0  0  0  0
 11 15  1  0  0  0  0
 13 18  2  0  0  0  0
 13 19  1  0  0  0  0
 14 16  1  0  0  0  0
 15 20  2  0  0  0  0
 15 21  1  0  0  0  0
 17 22  2  0  0  0  0
 17 23  1  0  0  0  0
 18 30  1  0  0  0  0
 19 31  2  0  0  0  0
 20 27  1  0  0  0  0
 21 28  2  0  0  0  0
 22 25  1  0  0  0  0
 23 24  2  0  0  0  0
 24 26  1  0  0  0  0
 25 26  2  0  0  0  0
 27 29  2  0  0  0  0
 28 29  1  0  0  0  0
 29 33  1  0  0  0  0
 30 32  2  0  0  0  0
 31 32  1  0  0  0  0
M  END
> <PUBCHEM_COMPOUND_ID_TYPE>
0

> <PUBCHEM_TOTAL_CHARGE>
0

> <PUBCHEM_SUBSTANCE_ID>
310937666

> <PUBCHEM_SUBSTANCE_VERSION>
1

> <PUBCHEM_EXT_DATASOURCE_NAME>
4488

> <PUBCHEM_EXT_DATASOURCE_REGID>
SCHEMBL16115456

> <PUBCHEM_SUBSTANCE_COMMENT>
InChI=1S/C27H30N2O5S/c1-19-9-11-21(12-10-19)26(28-22-15-23(33-2)17-24(16-22)34-3)27(30)29-13-14-35(31,32)18-25(29)20-7-5-4-6-8-20/h4-12,15-17,25-26,28H,13-14,18H2,1-3H3
InChIKey=CSQZVZIPRFJVET-UHFFFAOYSA-N

> <PUBCHEM_SUBSTANCE_SYNONYM>
SCHEMBL16115456

> <PUBCHEM_XREF_EXT_ID>
SCHEMBL16115456

> <PUBCHEM_EXT_DATASOURCE_URL>
https://www.surechembl.org/

> <PUBCHEM_EXT_SUBSTANCE_URL>
https://www.surechembl.org/chemical/SCHEMBL16115456

> <PUBCHEM_CID_ASSOCIATIONS>
117605353  1

> <PUBCHEM_COORDINATE_TYPE>
1
3

$$$$
