310936064
  -OEChem-07211613022D

 24 26  0     1  0  0  0  0  0999 V2000
   -0.7145    2.0625    0.0000 F   0  0  0  0  0  0  0  0  0  0  0  0
    5.7613    0.9898    0.0000 F   0  0  0  0  0  0  0  0  0  0  0  0
    1.4290    0.8250    0.0000 O   0  0  0  0  0  0  0  0  0  0  0  0
    0.7145   -1.2375    0.0000 O   0  0  0  0  0  0  0  0  0  0  0  0
    0.7145   -0.4125    0.0000 N   0  0  0  0  0  0  0  0  0  0  0  0
    5.5750   -1.1850    0.0000 N   0  0  0  0  0  0  0  0  0  0  0  0
    2.1434   -0.4125    0.0000 C   0  0  3  0  0  0  0  0  0  0  0  0
    1.4290    0.0000    0.0000 C   0  0  0  0  0  0  0  0  0  0  0  0
    0.0000    0.0000    0.0000 C   0  0  0  0  0  0  0  0  0  0  0  0
    3.4492   -0.6901    0.0000 C   0  0  0  0  0  0  0  0  0  0  0  0
    2.8971   -0.0770    0.0000 C   0  0  0  0  0  0  0  0  0  0  0  0
    0.0000    0.8250    0.0000 C   0  0  0  0  0  0  0  0  0  0  0  0
    4.2696   -0.6038    0.0000 C   0  0  0  0  0  0  0  0  0  0  0  0
    2.2296   -1.2330    0.0000 C   0  0  0  0  0  0  0  0  0  0  0  0
    3.0367   -1.4045    0.0000 C   0  0  0  0  0  0  0  0  0  0  0  0
   -0.7145    1.2375    0.0000 C   0  0  0  0  0  0  0  0  0  0  0  0
   -0.7145   -0.4125    0.0000 C   0  0  0  0  0  0  0  0  0  0  0  0
    4.6052    0.1499    0.0000 C   0  0  0  0  0  0  0  0  0  0  0  0
    4.7546   -1.2713    0.0000 C   0  0  0  0  0  0  0  0  0  0  0  0
   -1.4290    0.8250    0.0000 C   0  0  0  0  0  0  0  0  0  0  0  0
   -1.4290    0.0000    0.0000 C   0  0  0  0  0  0  0  0  0  0  0  0
    5.4257    0.2361    0.0000 C   0  0  0  0  0  0  0  0  0  0  0  0
    0.7145    1.2375    0.0000 C   0  0  0  0  0  0  0  0  0  0  0  0
    5.9106   -0.4314    0.0000 C   0  0  0  0  0  0  0  0  0  0  0  0
  1 16  1  0  0  0  0
  2 22  1  0  0  0  0
  3  8  2  0  0  0  0
  4  5  1  0  0  0  0
  5  8  1  0  0  0  0
  5  9  1  0  0  0  0
  6 19  2  0  0  0  0
  6 24  1  0  0  0  0
  7  8  1  0  0  0  0
  7 11  1  0  0  0  0
  7 14  1  0  0  0  0
  9 12  1  0  0  0  0
  9 17  2  0  0  0  0
 10 11  2  0  0  0  0
 10 13  1  0  0  0  0
 10 15  1  0  0  0  0
 12 16  2  0  0  0  0
 12 23  1  0  0  0  0
 13 18  2  0  0  0  0
 13 19  1  0  0  0  0
 14 15  1  0  0  0  0
 16 20  1  0  0  0  0
 17 21  1  0  0  0  0
 18 22  1  0  0  0  0
 20 21  2  0  0  0  0
 22 24  2  0  0  0  0
M  END
> <PUBCHEM_COMPOUND_ID_TYPE>
0

> <PUBCHEM_TOTAL_CHARGE>
0

> <PUBCHEM_SUBSTANCE_ID>
310936064

> <PUBCHEM_SUBSTANCE_VERSION>
1

> <PUBCHEM_EXT_DATASOURCE_NAME>
4488

> <PUBCHEM_EXT_DATASOURCE_REGID>
SCHEMBL16113670

> <PUBCHEM_SUBSTANCE_COMMENT>
InChI=1S/C18H16F2N2O2/c1-11-16(20)3-2-4-17(11)22(24)18(23)13-6-5-12(7-13)14-8-15(19)10-21-9-14/h2-4,7-10,13,24H,5-6H2,1H3
InChIKey=QHIJGQUQBSUNSA-UHFFFAOYSA-N

> <PUBCHEM_SUBSTANCE_SYNONYM>
SCHEMBL16113670

> <PUBCHEM_XREF_EXT_ID>
SCHEMBL16113670

> <PUBCHEM_EXT_DATASOURCE_URL>
https://www.surechembl.org/

> <PUBCHEM_EXT_SUBSTANCE_URL>
https://www.surechembl.org/chemical/SCHEMBL16113670

> <PUBCHEM_CID_ASSOCIATIONS>
117604029  1

> <PUBCHEM_COORDINATE_TYPE>
1
3

$$$$
