310936853
  -OEChem-07211613022D

 28 30  0     1  0  0  0  0  0999 V2000
    8.8042   -4.3579    0.0000 F   0  0  0  0  0  0  0  0  0  0  0  0
    8.8337   -2.9151    0.0000 F   0  0  0  0  0  0  0  0  0  0  0  0
    5.1529   -0.7361    0.0000 O   0  0  0  0  0  0  0  0  0  0  0  0
    7.5675   -3.6218    0.0000 O   0  0  0  0  0  0  0  0  0  0  0  0
    0.8245   -5.3002    0.0000 O   0  0  0  0  0  0  0  0  0  0  0  0
    0.0000   -4.1224    0.0000 O   0  0  0  0  0  0  0  0  0  0  0  0
    4.7407   -2.8562    0.0000 N   0  0  0  0  0  0  0  0  0  0  0  0
    2.6501   -3.5924    0.0000 N   0  0  3  0  0  0  0  0  0  0  0  0
    1.4134   -4.0046    0.0000 N   0  0  0  0  0  0  0  0  0  0  0  0
    3.9162   -1.4428    0.0000 N   0  0  0  0  0  0  0  0  0  0  0  0
    2.1790   -4.2696    0.0000 N   0  0  0  0  0  0  0  0  0  0  0  0
    5.1235   -2.1495    0.0000 C   0  0  0  0  0  0  0  0  0  0  0  0
    5.9480   -2.1790    0.0000 C   0  0  0  0  0  0  0  0  0  0  0  0
    4.7407   -1.4428    0.0000 C   0  0  0  0  0  0  0  0  0  0  0  0
    3.9162   -2.8857    0.0000 C   0  0  0  0  0  0  0  0  0  0  0  0
    3.4746   -3.5924    0.0000 C   0  0  0  0  0  0  0  0  0  0  0  0
    3.5040   -2.1495    0.0000 C   0  0  0  0  0  0  0  0  0  0  0  0
    6.3602   -2.8857    0.0000 C   0  0  0  0  0  0  0  0  0  0  0  0
    7.1847   -2.9151    0.0000 C   0  0  0  0  0  0  0  0  0  0  0  0
    6.3897   -1.4723    0.0000 C   0  0  0  0  0  0  0  0  0  0  0  0
    2.1790   -2.9151    0.0000 C   0  0  0  0  0  0  0  0  0  0  0  0
    1.4134   -3.1801    0.0000 C   0  0  0  0  0  0  0  0  0  0  0  0
    0.7361   -4.4757    0.0000 C   0  0  0  0  0  0  0  0  0  0  0  0
    7.5970   -2.2084    0.0000 C   0  0  0  0  0  0  0  0  0  0  0  0
    7.2141   -1.4723    0.0000 C   0  0  0  0  0  0  0  0  0  0  0  0
    8.4214   -3.6218    0.0000 C   0  0  0  0  0  0  0  0  0  0  0  0
    4.7407    0.0000    0.0000 C   0  0  0  0  0  0  0  0  0  0  0  0
    0.1472   -5.7713    0.0000 C   0  0  0  0  0  0  0  0  0  0  0  0
  1 26  1  0  0  0  0
  2 26  1  0  0  0  0
  3 14  1  0  0  0  0
  3 27  1  0  0  0  0
  4 19  1  0  0  0  0
  4 26  1  0  0  0  0
  5 23  1  0  0  0  0
  5 28  1  0  0  0  0
  6 23  2  0  0  0  0
  7 12  1  0  0  0  0
  7 15  2  0  0  0  0
  8 11  1  0  0  0  0
  8 16  1  0  0  0  0
  8 21  1  0  0  0  0
  9 11  1  0  0  0  0
  9 22  1  0  0  0  0
  9 23  1  0  0  0  0
 10 14  1  0  0  0  0
 10 17  2  0  0  0  0
 12 13  1  0  0  0  0
 12 14  2  0  0  0  0
 13 18  1  0  0  0  0
 13 20  2  0  0  0  0
 15 16  1  0  0  0  0
 15 17  1  0  0  0  0
 18 19  2  0  0  0  0
 19 24  1  0  0  0  0
 20 25  1  0  0  0  0
 21 22  2  0  0  0  0
 24 25  2  0  0  0  0
M  END
> <PUBCHEM_COMPOUND_ID_TYPE>
0

> <PUBCHEM_TOTAL_CHARGE>
0

> <PUBCHEM_SUBSTANCE_ID>
310936853

> <PUBCHEM_SUBSTANCE_VERSION>
1

> <PUBCHEM_EXT_DATASOURCE_NAME>
4488

> <PUBCHEM_EXT_DATASOURCE_REGID>
SCHEMBL16114546

> <PUBCHEM_SUBSTANCE_COMMENT>
InChI=1S/C17H17F2N5O4/c1-26-15-14(11-4-3-5-13(8-11)28-16(18)19)21-12(9-20-15)10-23-6-7-24(22-23)17(25)27-2/h3-9,16,22H,10H2,1-2H3
InChIKey=WFRVAVMVAHIYGA-UHFFFAOYSA-N

> <PUBCHEM_SUBSTANCE_SYNONYM>
SCHEMBL16114546

> <PUBCHEM_XREF_EXT_ID>
SCHEMBL16114546

> <PUBCHEM_EXT_DATASOURCE_URL>
https://www.surechembl.org/

> <PUBCHEM_EXT_SUBSTANCE_URL>
https://www.surechembl.org/chemical/SCHEMBL16114546

> <PUBCHEM_CID_ASSOCIATIONS>
117604745  1

> <PUBCHEM_COORDINATE_TYPE>
1
3

$$$$
