310946246
  -OEChem-07211613022D

 25 27  0     1  0  0  0  0  0999 V2000
    3.2993   -4.9567    0.0000 S   0  0  0  0  0  0  0  0  0  0  0  0
    2.4743   -4.9567    0.0000 O   0  0  0  0  0  0  0  0  0  0  0  0
   -0.3836   -4.9567    0.0000 O   0  0  0  0  0  0  0  0  0  0  0  0
   -0.3836   -1.6567    0.0000 O   0  0  0  0  0  0  0  0  0  0  0  0
    3.7118   -5.6712    0.0000 O   0  0  0  0  0  0  0  0  0  0  0  0
    3.7118   -4.2422    0.0000 O   0  0  0  0  0  0  0  0  0  0  0  0
   -1.8125   -2.4817    0.0000 O   0  0  0  0  0  0  0  0  0  0  0  0
    0.3309   -3.7192    0.0000 N   0  0  0  0  0  0  0  0  0  0  0  0
    1.7599   -4.5442    0.0000 N   0  0  0  0  0  0  0  0  0  0  0  0
   -1.0980   -2.8942    0.0000 N   0  0  0  0  0  0  0  0  0  0  0  0
   -3.8248   -3.0651    0.0000 N   0  0  0  0  0  0  0  0  0  0  0  0
    0.3309   -4.5442    0.0000 C   0  0  0  0  0  0  0  0  0  0  0  0
    1.7599   -3.7192    0.0000 C   0  0  3  0  0  0  0  0  0  0  0  0
    0.3309   -2.8942    0.0000 C   0  0  3  0  0  0  0  0  0  0  0  0
    1.0454   -4.1317    0.0000 C   0  0  0  0  0  0  0  0  0  0  0  0
    1.7599   -2.8942    0.0000 C   0  0  0  0  0  0  0  0  0  0  0  0
    1.0454   -2.4817    0.0000 C   0  0  0  0  0  0  0  0  0  0  0  0
   -0.3836   -2.4817    0.0000 C   0  0  0  0  0  0  0  0  0  0  0  0
    4.1243   -4.9567    0.0000 C   0  0  0  0  0  0  0  0  0  0  0  0
   -3.4550   -1.6848    0.0000 C   0  0  0  0  0  0  0  0  0  0  0  0
   -3.2414   -2.4817    0.0000 C   0  0  3  0  0  0  0  0  0  0  0  0
   -2.5270   -2.8942    0.0000 C   0  0  0  0  0  0  0  0  0  0  0  0
   -3.0425   -0.9704    0.0000 C   0  0  0  0  0  0  0  0  0  0  0  0
   -4.1694   -1.2723    0.0000 C   0  0  0  0  0  0  0  0  0  0  0  0
   -3.7569   -0.5579    0.0000 C   0  0  0  0  0  0  0  0  0  0  0  0
  1  2  1  0  0  0  0
  1  5  2  0  0  0  0
  1  6  2  0  0  0  0
  1 19  1  0  0  0  0
  2  9  1  0  0  0  0
  3 12  2  0  0  0  0
  4 18  2  0  0  0  0
  7 10  1  0  0  0  0
  7 22  1  0  0  0  0
  8 12  1  0  0  0  0
  8 14  1  0  0  0  0
  8 15  1  0  0  0  0
  9 12  1  0  0  0  0
  9 13  1  0  0  0  0
 10 18  1  0  0  0  0
 11 21  1  0  0  0  0
 13 15  1  6  0  0  0
 13 16  1  0  0  0  0
 14 17  1  0  0  0  0
 14 18  1  6  0  0  0
 16 17  1  0  0  0  0
 20 21  1  0  0  0  0
 20 23  1  0  0  0  0
 20 24  1  0  0  0  0
 21 22  1  0  0  0  0
 23 25  1  0  0  0  0
 24 25  1  0  0  0  0
M  END
> <PUBCHEM_COMPOUND_ID_TYPE>
0

> <PUBCHEM_TOTAL_CHARGE>
0

> <PUBCHEM_SUBSTANCE_ID>
310946246

> <PUBCHEM_SUBSTANCE_VERSION>
1

> <PUBCHEM_EXT_DATASOURCE_NAME>
4488

> <PUBCHEM_EXT_DATASOURCE_REGID>
SCHEMBL16124364

> <PUBCHEM_SUBSTANCE_COMMENT>
InChI=1S/C14H24N4O6S/c1-25(21,22)24-18-10-5-6-12(17(7-10)14(18)20)13(19)16-23-8-11(15)9-3-2-4-9/h9-12H,2-8,15H2,1H3,(H,16,19)/t10-,11?,12+/m1/s1
InChIKey=WFQVCGPBSVBYCC-LWALXPGCSA-N

> <PUBCHEM_SUBSTANCE_SYNONYM>
SCHEMBL16124364

> <PUBCHEM_XREF_EXT_ID>
SCHEMBL16124364

> <PUBCHEM_EXT_DATASOURCE_URL>
https://www.surechembl.org/

> <PUBCHEM_EXT_SUBSTANCE_URL>
https://www.surechembl.org/chemical/SCHEMBL16124364

> <PUBCHEM_CID_ASSOCIATIONS>
117612194  1

> <PUBCHEM_COORDINATE_TYPE>
1
3

> <PUBCHEM_BONDANNOTATIONS>
13  15  6
14  18  6

$$$$
