310935238
  -OEChem-07211613022D

 27 29  0     1  0  0  0  0  0999 V2000
   -0.7144    2.0625    0.0000 F   0  0  0  0  0  0  0  0  0  0  0  0
    4.7689    3.1714    0.0000 F   0  0  0  0  0  0  0  0  0  0  0  0
    3.9720    3.3849    0.0000 F   0  0  0  0  0  0  0  0  0  0  0  0
    4.9859    2.3884    0.0000 F   0  0  0  0  0  0  0  0  0  0  0  0
   -0.6283   -0.9013    0.0000 O   0  0  0  0  0  0  0  0  0  0  0  0
    0.4664   -1.8197    0.0000 O   0  0  0  0  0  0  0  0  0  0  0  0
    3.8398    1.2015    0.0000 N   0  0  0  0  0  0  0  0  0  0  0  0
    0.7144   -0.4125    0.0000 C   0  0  3  0  0  0  0  0  0  0  0  0
    0.0000    0.0000    0.0000 C   0  0  0  0  0  0  0  0  0  0  0  0
    1.3079   -0.9856    0.0000 C   0  0  3  0  0  0  0  0  0  0  0  0
    1.0762    0.3290    0.0000 C   0  0  0  0  0  0  0  0  0  0  0  0
    1.8931    0.2142    0.0000 C   0  0  0  0  0  0  0  0  0  0  0  0
    0.1842   -1.0445    0.0000 C   0  0  0  0  0  0  0  0  0  0  0  0
    2.0363   -0.5983    0.0000 C   0  0  0  0  0  0  0  0  0  0  0  0
    0.0000    0.8250    0.0000 C   0  0  0  0  0  0  0  0  0  0  0  0
    2.4662    0.8076    0.0000 C   0  0  0  0  0  0  0  0  0  0  0  0
   -0.7144   -0.4125    0.0000 C   0  0  0  0  0  0  0  0  0  0  0  0
   -0.7144    1.2375    0.0000 C   0  0  0  0  0  0  0  0  0  0  0  0
    1.1931   -1.8026    0.0000 C   0  0  0  0  0  0  0  0  0  0  0  0
    3.2667    0.6081    0.0000 C   0  0  0  0  0  0  0  0  0  0  0  0
    2.2388    1.6007    0.0000 C   0  0  0  0  0  0  0  0  0  0  0  0
    3.6124    1.9946    0.0000 C   0  0  0  0  0  0  0  0  0  0  0  0
   -1.4290    0.0000    0.0000 C   0  0  0  0  0  0  0  0  0  0  0  0
   -1.4290    0.8250    0.0000 C   0  0  0  0  0  0  0  0  0  0  0  0
    4.1855    2.5880    0.0000 C   0  0  0  0  0  0  0  0  0  0  0  0
    2.8119    2.1941    0.0000 C   0  0  0  0  0  0  0  0  0  0  0  0
    0.7144    1.2375    0.0000 C   0  0  0  0  0  0  0  0  0  0  0  0
  1 18  1  0  0  0  0
  2 25  1  0  0  0  0
  3 25  1  0  0  0  0
  4 25  1  0  0  0  0
  5 13  2  0  0  0  0
  6 13  1  0  0  0  0
  7 20  2  0  0  0  0
  7 22  1  0  0  0  0
  8  9  1  0  0  0  0
  8 10  1  0  0  0  0
  8 11  1  0  0  0  0
  8 13  1  0  0  0  0
  9 15  1  0  0  0  0
  9 17  2  0  0  0  0
 10 14  1  0  0  0  0
 10 19  1  0  0  0  0
 11 12  2  0  0  0  0
 12 14  1  0  0  0  0
 12 16  1  0  0  0  0
 15 18  2  0  0  0  0
 15 27  1  0  0  0  0
 16 20  1  0  0  0  0
 16 21  2  0  0  0  0
 17 23  1  0  0  0  0
 18 24  1  0  0  0  0
 21 26  1  0  0  0  0
 22 25  1  0  0  0  0
 22 26  2  0  0  0  0
 23 24  2  0  0  0  0
M  END
> <PUBCHEM_COMPOUND_ID_TYPE>
0

> <PUBCHEM_TOTAL_CHARGE>
0

> <PUBCHEM_SUBSTANCE_ID>
310935238

> <PUBCHEM_SUBSTANCE_VERSION>
1

> <PUBCHEM_EXT_DATASOURCE_NAME>
4488

> <PUBCHEM_EXT_DATASOURCE_REGID>
SCHEMBL16112766

> <PUBCHEM_SUBSTANCE_COMMENT>
InChI=1S/C20H17F4NO2/c1-11-8-14(13-6-7-17(25-10-13)20(22,23)24)9-19(11,18(26)27)15-4-3-5-16(21)12(15)2/h3-7,9-11H,8H2,1-2H3,(H,26,27)
InChIKey=CYRKTAIGJZYWPK-UHFFFAOYSA-N

> <PUBCHEM_SUBSTANCE_SYNONYM>
SCHEMBL16112766

> <PUBCHEM_XREF_EXT_ID>
SCHEMBL16112766

> <PUBCHEM_EXT_DATASOURCE_URL>
https://www.surechembl.org/

> <PUBCHEM_EXT_SUBSTANCE_URL>
https://www.surechembl.org/chemical/SCHEMBL16112766

> <PUBCHEM_CID_ASSOCIATIONS>
117603315  1

> <PUBCHEM_COORDINATE_TYPE>
1
3

$$$$
