310947219
  -OEChem-07211613022D

 24 25  0     1  0  0  0  0  0999 V2000
   -2.0131   -3.9578    0.0000 F   0  0  0  0  0  0  0  0  0  0  0  0
   -0.6329   -3.5880    0.0000 F   0  0  0  0  0  0  0  0  0  0  0  0
    0.3776   -4.5984    0.0000 F   0  0  0  0  0  0  0  0  0  0  0  0
    0.1640   -3.8015    0.0000 F   0  0  0  0  0  0  0  0  0  0  0  0
   -1.6439   -7.8128    0.0000 N   0  0  0  0  0  0  0  0  0  0  0  0
   -1.1590   -8.4803    0.0000 N   0  0  0  0  0  0  0  0  0  0  0  0
    1.0546   -7.4003    0.0000 N   0  0  3  0  0  0  0  0  0  0  0  0
   -3.3362   -7.3017    0.0000 N   0  0  0  0  0  0  0  0  0  0  0  0
   -1.3725   -6.3485    0.0000 C   0  0  0  0  0  0  0  0  0  0  0  0
   -1.0027   -4.9683    0.0000 C   0  0  0  0  0  0  0  0  0  0  0  0
   -1.1590   -7.1454    0.0000 C   0  0  0  0  0  0  0  0  0  0  0  0
   -2.1694   -6.1350    0.0000 C   0  0  0  0  0  0  0  0  0  0  0  0
   -0.7892   -5.7652    0.0000 C   0  0  0  0  0  0  0  0  0  0  0  0
   -1.7996   -4.7547    0.0000 C   0  0  0  0  0  0  0  0  0  0  0  0
   -0.4193   -4.3849    0.0000 C   0  0  0  0  0  0  0  0  0  0  0  0
   -0.3744   -7.4003    0.0000 C   0  0  0  0  0  0  0  0  0  0  0  0
   -2.3830   -5.3381    0.0000 C   0  0  0  0  0  0  0  0  0  0  0  0
   -0.3744   -8.2253    0.0000 C   0  0  0  0  0  0  0  0  0  0  0  0
   -2.7528   -6.7184    0.0000 C   0  0  0  0  0  0  0  0  0  0  0  0
    0.3401   -6.9878    0.0000 C   0  0  0  0  0  0  0  0  0  0  0  0
    1.7690   -6.9878    0.0000 C   0  0  0  0  0  0  0  0  0  0  0  0
    1.0546   -8.2253    0.0000 C   0  0  0  0  0  0  0  0  0  0  0  0
    2.4835   -7.4003    0.0000 C   0  0  0  0  0  0  0  0  0  0  0  0
    3.1980   -6.9878    0.0000 C   0  0  0  0  0  0  0  0  0  0  0  0
  1 14  1  0  0  0  0
  2 15  1  0  0  0  0
  3 15  1  0  0  0  0
  4 15  1  0  0  0  0
  5  6  1  0  0  0  0
  5 11  2  0  0  0  0
  6 18  1  0  0  0  0
  7 20  1  0  0  0  0
  7 21  1  0  0  0  0
  7 22  1  0  0  0  0
  8 19  3  0  0  0  0
  9 11  1  0  0  0  0
  9 12  2  0  0  0  0
  9 13  1  0  0  0  0
 10 13  2  0  0  0  0
 10 14  1  0  0  0  0
 10 15  1  0  0  0  0
 11 16  1  0  0  0  0
 12 17  1  0  0  0  0
 12 19  1  0  0  0  0
 14 17  2  0  0  0  0
 16 18  2  0  0  0  0
 16 20  1  0  0  0  0
 21 23  1  0  0  0  0
 23 24  1  0  0  0  0
M  END
> <PUBCHEM_COMPOUND_ID_TYPE>
0

> <PUBCHEM_TOTAL_CHARGE>
0

> <PUBCHEM_SUBSTANCE_ID>
310947219

> <PUBCHEM_SUBSTANCE_VERSION>
1

> <PUBCHEM_EXT_DATASOURCE_NAME>
4488

> <PUBCHEM_EXT_DATASOURCE_REGID>
SCHEMBL16125374

> <PUBCHEM_SUBSTANCE_COMMENT>
InChI=1S/C16H16F4N4/c1-3-4-24(2)9-11-8-22-23-15(11)12-6-13(16(18,19)20)14(17)5-10(12)7-21/h5-6,8H,3-4,9H2,1-2H3,(H,22,23)
InChIKey=LANFOAXXUMZCIL-UHFFFAOYSA-N

> <PUBCHEM_SUBSTANCE_SYNONYM>
SCHEMBL16125374

> <PUBCHEM_XREF_EXT_ID>
SCHEMBL16125374

> <PUBCHEM_EXT_DATASOURCE_URL>
https://www.surechembl.org/

> <PUBCHEM_EXT_SUBSTANCE_URL>
https://www.surechembl.org/chemical/SCHEMBL16125374

> <PUBCHEM_CID_ASSOCIATIONS>
117613034  1

> <PUBCHEM_COORDINATE_TYPE>
1
3

$$$$
