310945572
  -OEChem-07211613022D

 25 28  0     1  0  0  0  0  0999 V2000
    2.5338    2.6694    0.0000 O   0  0  0  0  0  0  0  0  0  0  0  0
   -0.3354   -1.4560    0.0000 N   0  0  0  0  0  0  0  0  0  0  0  0
    0.3926    1.4275    0.0000 N   0  0  0  0  0  0  0  0  0  0  0  0
   -0.3926    0.1999    0.0000 C   0  0  0  0  0  0  0  0  0  0  0  0
   -1.0921   -0.1999    0.0000 C   0  0  0  0  0  0  0  0  0  0  0  0
   -1.1063   -1.0278    0.0000 C   0  0  0  0  0  0  0  0  0  0  0  0
    0.3354   -1.0278    0.0000 C   0  0  0  0  0  0  0  0  0  0  0  0
   -0.3640    1.0421    0.0000 C   0  0  3  0  0  0  0  0  0  0  0  0
    0.3497   -0.2284    0.0000 C   0  0  0  0  0  0  0  0  0  0  0  0
    1.0778   -1.4418    0.0000 C   0  0  0  0  0  0  0  0  0  0  0  0
   -1.8343    0.1855    0.0000 C   0  0  0  0  0  0  0  0  0  0  0  0
   -1.8200   -1.4418    0.0000 C   0  0  0  0  0  0  0  0  0  0  0  0
    1.0921    1.0278    0.0000 C   0  0  0  0  0  0  0  0  0  0  0  0
    0.3640    2.2554    0.0000 C   0  0  0  0  0  0  0  0  0  0  0  0
   -2.5338   -0.2284    0.0000 C   0  0  0  0  0  0  0  0  0  0  0  0
   -2.5338   -1.0421    0.0000 C   0  0  0  0  0  0  0  0  0  0  0  0
   -1.1206    1.4418    0.0000 C   0  0  0  0  0  0  0  0  0  0  0  0
    1.0778   -2.2839    0.0000 C   0  0  0  0  0  0  0  0  0  0  0  0
    1.7915   -1.0421    0.0000 C   0  0  0  0  0  0  0  0  0  0  0  0
    1.7772    1.4275    0.0000 C   0  0  0  0  0  0  0  0  0  0  0  0
    1.0635    2.6694    0.0000 C   0  0  0  0  0  0  0  0  0  0  0  0
    1.7629    2.2554    0.0000 C   0  0  0  0  0  0  0  0  0  0  0  0
    1.7915   -2.6694    0.0000 C   0  0  0  0  0  0  0  0  0  0  0  0
    2.5052   -1.4560    0.0000 C   0  0  0  0  0  0  0  0  0  0  0  0
    2.5052   -2.2839    0.0000 C   0  0  0  0  0  0  0  0  0  0  0  0
  1 22  2  0  0  0  0
  2  6  1  0  0  0  0
  2  7  2  0  0  0  0
  3  8  1  0  0  0  0
  3 13  1  0  0  0  0
  3 14  1  0  0  0  0
  4  5  1  0  0  0  0
  4  8  1  0  0  0  0
  4  9  2  0  0  0  0
  5  6  1  0  0  0  0
  5 11  2  0  0  0  0
  6 12  2  0  0  0  0
  7  9  1  0  0  0  0
  7 10  1  0  0  0  0
  8 17  1  0  0  0  0
 10 18  2  0  0  0  0
 10 19  1  0  0  0  0
 11 15  1  0  0  0  0
 12 16  1  0  0  0  0
 13 20  1  0  0  0  0
 14 21  1  0  0  0  0
 15 16  2  0  0  0  0
 18 23  1  0  0  0  0
 19 24  2  0  0  0  0
 20 22  1  0  0  0  0
 21 22  1  0  0  0  0
 23 25  2  0  0  0  0
 24 25  1  0  0  0  0
M  END
> <PUBCHEM_COMPOUND_ID_TYPE>
0

> <PUBCHEM_TOTAL_CHARGE>
0

> <PUBCHEM_SUBSTANCE_ID>
310945572

> <PUBCHEM_SUBSTANCE_VERSION>
1

> <PUBCHEM_EXT_DATASOURCE_NAME>
4488

> <PUBCHEM_EXT_DATASOURCE_REGID>
SCHEMBL16123670

> <PUBCHEM_SUBSTANCE_COMMENT>
InChI=1S/C22H22N2O/c1-16(24-13-11-18(25)12-14-24)20-15-22(17-7-3-2-4-8-17)23-21-10-6-5-9-19(20)21/h2-10,15-16H,11-14H2,1H3
InChIKey=KOPXBOBCBZYCTI-UHFFFAOYSA-N

> <PUBCHEM_SUBSTANCE_SYNONYM>
SCHEMBL16123670

> <PUBCHEM_XREF_EXT_ID>
SCHEMBL16123670

> <PUBCHEM_EXT_DATASOURCE_URL>
https://www.surechembl.org/

> <PUBCHEM_EXT_SUBSTANCE_URL>
https://www.surechembl.org/chemical/SCHEMBL16123670

> <PUBCHEM_CID_ASSOCIATIONS>
117611602  1

> <PUBCHEM_COORDINATE_TYPE>
1
3

$$$$
