310930964
  -OEChem-07211613022D

 33 37  0     1  0  0  0  0  0999 V2000
    6.0044   -3.1235    0.0000 O   0  0  0  0  0  0  0  0  0  0  0  0
    9.0672   -3.4874    0.0000 O   0  0  0  0  0  0  0  0  0  0  0  0
    7.0052   -2.0621    0.0000 N   0  0  0  0  0  0  0  0  0  0  0  0
    6.1864   -1.0007    0.0000 N   0  0  0  0  0  0  0  0  0  0  0  0
    7.6419   -0.7278    0.0000 N   0  0  0  0  0  0  0  0  0  0  0  0
    0.0000   -1.6679    0.0000 N   0  0  0  0  0  0  0  0  0  0  0  0
    5.7315   -1.6679    0.0000 C   0  0  3  0  0  0  0  0  0  0  0  0
    6.2167   -2.3351    0.0000 C   0  0  0  0  0  0  0  0  0  0  0  0
    5.0037   -1.2433    0.0000 C   0  0  0  0  0  0  0  0  0  0  0  0
    5.3676   -2.3957    0.0000 C   0  0  0  0  0  0  0  0  0  0  0  0
    6.9748   -1.2130    0.0000 C   0  0  0  0  0  0  0  0  0  0  0  0
    7.6723   -2.5170    0.0000 C   0  0  0  0  0  0  0  0  0  0  0  0
    4.3062   -1.6679    0.0000 C   0  0  0  0  0  0  0  0  0  0  0  0
    5.0037   -0.4245    0.0000 C   0  0  0  0  0  0  0  0  0  0  0  0
    5.8225   -3.0932    0.0000 C   0  0  0  0  0  0  0  0  0  0  0  0
    4.5488   -2.4867    0.0000 C   0  0  0  0  0  0  0  0  0  0  0  0
    3.5784   -1.2737    0.0000 C   0  0  0  0  0  0  0  0  0  0  0  0
    7.6419   -3.3357    0.0000 C   0  0  0  0  0  0  0  0  0  0  0  0
    8.4607   -2.1834    0.0000 C   0  0  0  0  0  0  0  0  0  0  0  0
    4.2758    0.0000    0.0000 C   0  0  0  0  0  0  0  0  0  0  0  0
    2.8809   -1.6679    0.0000 C   0  0  0  0  0  0  0  0  0  0  0  0
    3.5784   -0.4245    0.0000 C   0  0  0  0  0  0  0  0  0  0  0  0
    5.4585   -3.8513    0.0000 C   0  0  0  0  0  0  0  0  0  0  0  0
    4.1849   -3.2145    0.0000 C   0  0  0  0  0  0  0  0  0  0  0  0
    4.6398   -3.9119    0.0000 C   0  0  0  0  0  0  0  0  0  0  0  0
    8.3091   -3.8210    0.0000 C   0  0  0  0  0  0  0  0  0  0  0  0
    9.0976   -2.6383    0.0000 C   0  0  0  0  0  0  0  0  0  0  0  0
    2.1531   -1.2737    0.0000 C   0  0  0  0  0  0  0  0  0  0  0  0
    2.8809   -2.5170    0.0000 C   0  0  0  0  0  0  0  0  0  0  0  0
    1.4556   -1.6679    0.0000 C   0  0  0  0  0  0  0  0  0  0  0  0
    2.1531   -2.9112    0.0000 C   0  0  0  0  0  0  0  0  0  0  0  0
    1.4556   -2.5170    0.0000 C   0  0  0  0  0  0  0  0  0  0  0  0
    0.7278   -1.2737    0.0000 C   0  0  0  0  0  0  0  0  0  0  0  0
  1  8  2  0  0  0  0
  2 26  1  0  0  0  0
  2 27  1  0  0  0  0
  3  8  1  0  0  0  0
  3 11  1  0  0  0  0
  3 12  1  0  0  0  0
  4  7  1  0  0  0  0
  4 11  1  0  0  0  0
  5 11  2  3  0  0  0
  6 33  3  0  0  0  0
  7  8  1  0  0  0  0
  7  9  1  0  0  0  0
  7 10  1  0  0  0  0
  9 13  2  0  0  0  0
  9 14  1  0  0  0  0
 10 15  1  0  0  0  0
 10 16  1  0  0  0  0
 12 18  1  0  0  0  0
 12 19  1  0  0  0  0
 13 17  1  0  0  0  0
 14 20  2  0  0  0  0
 15 23  1  0  0  0  0
 16 24  1  0  0  0  0
 17 21  1  0  0  0  0
 17 22  2  0  0  0  0
 18 26  1  0  0  0  0
 19 27  1  0  0  0  0
 20 22  1  0  0  0  0
 21 28  1  0  0  0  0
 21 29  2  0  0  0  0
 23 25  1  0  0  0  0
 24 25  1  0  0  0  0
 28 30  2  0  0  0  0
 29 31  1  0  0  0  0
 30 32  1  0  0  0  0
 30 33  1  0  0  0  0
 31 32  2  0  0  0  0
M  END
> <PUBCHEM_COMPOUND_ID_TYPE>
0

> <PUBCHEM_TOTAL_CHARGE>
0

> <PUBCHEM_SUBSTANCE_ID>
310930964

> <PUBCHEM_SUBSTANCE_VERSION>
1

> <PUBCHEM_EXT_DATASOURCE_NAME>
4488

> <PUBCHEM_EXT_DATASOURCE_REGID>
SCHEMBL16108264

> <PUBCHEM_SUBSTANCE_COMMENT>
InChI=1S/C27H30N4O2/c28-18-19-6-4-7-20(16-19)21-8-5-11-23(17-21)27(22-9-2-1-3-10-22)25(32)31(26(29)30-27)24-12-14-33-15-13-24/h4-8,11,16-17,22,24H,1-3,9-10,12-15H2,(H2,29,30)
InChIKey=RGKLNXMOFKHAKH-UHFFFAOYSA-N

> <PUBCHEM_SUBSTANCE_SYNONYM>
SCHEMBL16108264

> <PUBCHEM_XREF_EXT_ID>
SCHEMBL16108264

> <PUBCHEM_EXT_DATASOURCE_URL>
https://www.surechembl.org/

> <PUBCHEM_EXT_SUBSTANCE_URL>
https://www.surechembl.org/chemical/SCHEMBL16108264

> <PUBCHEM_CID_ASSOCIATIONS>
117599904  1

> <PUBCHEM_COORDINATE_TYPE>
1
3

$$$$
