310931919
  -OEChem-07211613022D

 31 34  0     1  0  0  0  0  0999 V2000
    0.6875   -2.7500    0.0000 Cl  0  0  0  0  0  0  0  0  0  0  0  0
    3.6094   -5.4312    0.0000 O   0  0  0  0  0  0  0  0  0  0  0  0
    0.7219   -5.1906    0.0000 O   0  0  0  0  0  0  0  0  0  0  0  0
    4.1937   -1.4438    0.0000 O   0  0  0  0  0  0  0  0  0  0  0  0
    4.9500   -1.9594    0.0000 O   0  0  0  0  0  0  0  0  0  0  0  0
    5.6719   -3.1625    0.0000 O   0  0  0  0  0  0  0  0  0  0  0  0
    2.8875   -1.4438    0.0000 N   0  0  0  0  0  0  0  0  0  0  0  0
    3.1281   -0.6875    0.0000 N   0  0  0  0  0  0  0  0  0  0  0  0
    2.8188   -5.6375    0.0000 C   0  0  0  0  0  0  0  0  0  0  0  0
    2.0969   -5.2250    0.0000 C   0  0  0  0  0  0  0  0  0  0  0  0
    2.8188   -6.4969    0.0000 C   0  0  0  0  0  0  0  0  0  0  0  0
    2.0969   -4.4000    0.0000 C   0  0  0  0  0  0  0  0  0  0  0  0
    4.0907   -6.0844    0.0000 C   0  0  0  0  0  0  0  0  0  0  0  0
    1.4094   -5.6031    0.0000 C   0  0  0  0  0  0  0  0  0  0  0  0
    3.5750   -6.7375    0.0000 C   0  0  0  0  0  0  0  0  0  0  0  0
    2.8188   -3.1625    0.0000 C   0  0  0  0  0  0  0  0  0  0  0  0
    2.8188   -3.9875    0.0000 C   0  0  0  0  0  0  0  0  0  0  0  0
    2.0625   -6.8750    0.0000 C   0  0  0  0  0  0  0  0  0  0  0  0
    3.5406   -2.7500    0.0000 C   0  0  3  0  0  0  0  0  0  0  0  0
    1.3750   -6.4625    0.0000 C   0  0  0  0  0  0  0  0  0  0  0  0
    1.3750   -3.9875    0.0000 C   0  0  0  0  0  0  0  0  0  0  0  0
    1.4094   -3.1625    0.0000 C   0  0  0  0  0  0  0  0  0  0  0  0
    3.5406   -1.9594    0.0000 C   0  0  0  0  0  0  0  0  0  0  0  0
    2.0969   -2.7844    0.0000 C   0  0  0  0  0  0  0  0  0  0  0  0
    4.9157   -6.0844    0.0000 C   0  0  0  0  0  0  0  0  0  0  0  0
    4.4688   -5.3625    0.0000 C   0  0  0  0  0  0  0  0  0  0  0  0
    4.2281   -3.1625    0.0000 C   0  0  0  0  0  0  0  0  0  0  0  0
    3.9531   -0.6531    0.0000 C   0  0  0  0  0  0  0  0  0  0  0  0
    4.9500   -2.7500    0.0000 C   0  0  0  0  0  0  0  0  0  0  0  0
    0.0000   -5.6031    0.0000 C   0  0  0  0  0  0  0  0  0  0  0  0
    4.4344    0.0000    0.0000 C   0  0  0  0  0  0  0  0  0  0  0  0
  1 22  1  0  0  0  0
  2  9  1  0  0  0  0
  2 13  1  0  0  0  0
  3 14  1  0  0  0  0
  3 30  1  0  0  0  0
  4 23  1  0  0  0  0
  4 28  1  0  0  0  0
  5 29  2  0  0  0  0
  6 29  1  0  0  0  0
  7  8  1  0  0  0  0
  7 23  2  0  0  0  0
  8 28  2  0  0  0  0
  9 10  1  0  0  0  0
  9 11  2  0  0  0  0
 10 12  1  0  0  0  0
 10 14  2  0  0  0  0
 11 15  1  0  0  0  0
 11 18  1  0  0  0  0
 12 17  1  0  0  0  0
 12 21  2  0  0  0  0
 13 15  1  0  0  0  0
 13 25  1  0  0  0  0
 13 26  1  0  0  0  0
 14 20  1  0  0  0  0
 16 17  2  0  0  0  0
 16 19  1  0  0  0  0
 16 24  1  0  0  0  0
 18 20  2  0  0  0  0
 19 23  1  0  0  0  0
 19 27  1  0  0  0  0
 21 22  1  0  0  0  0
 22 24  2  0  0  0  0
 27 29  1  0  0  0  0
 28 31  1  0  0  0  0
M  END
> <PUBCHEM_COMPOUND_ID_TYPE>
0

> <PUBCHEM_TOTAL_CHARGE>
0

> <PUBCHEM_SUBSTANCE_ID>
310931919

> <PUBCHEM_SUBSTANCE_VERSION>
1

> <PUBCHEM_EXT_DATASOURCE_NAME>
4488

> <PUBCHEM_EXT_DATASOURCE_REGID>
SCHEMBL16109254

> <PUBCHEM_SUBSTANCE_COMMENT>
InChI=1S/C23H23ClN2O5/c1-12-25-26-22(30-12)17(10-19(27)28)14-7-15(9-16(24)8-14)20-18(29-4)6-5-13-11-23(2,3)31-21(13)20/h5-9,17H,10-11H2,1-4H3,(H,27,28)
InChIKey=FCWHIBPZBSSULK-UHFFFAOYSA-N

> <PUBCHEM_SUBSTANCE_SYNONYM>
SCHEMBL16109254

> <PUBCHEM_XREF_EXT_ID>
SCHEMBL16109254

> <PUBCHEM_EXT_DATASOURCE_URL>
https://www.surechembl.org/

> <PUBCHEM_EXT_SUBSTANCE_URL>
https://www.surechembl.org/chemical/SCHEMBL16109254

> <PUBCHEM_CID_ASSOCIATIONS>
86281943  1

> <PUBCHEM_COORDINATE_TYPE>
1
3

$$$$
