310944304
  -OEChem-07211613022D

 16 18  0     1  0  0  0  0  0999 V2000
    2.4533    0.7073    0.0000 O   0  0  0  0  0  0  0  0  0  0  0  0
    1.7350   -0.5305    0.0000 O   0  0  0  0  0  0  0  0  0  0  0  0
   -1.1382   -0.5194    0.0000 N   0  0  0  0  0  0  0  0  0  0  0  0
   -0.4310    0.7073    0.0000 N   0  0  0  0  0  0  0  0  0  0  0  0
   -1.9008   -0.1879    0.0000 N   0  0  0  0  0  0  0  0  0  0  0  0
   -2.4533   -0.7957    0.0000 N   0  0  0  0  0  0  0  0  0  0  0  0
   -2.0444   -1.5139    0.0000 N   0  0  0  0  0  0  0  0  0  0  0  0
    1.0167    0.7073    0.0000 C   0  0  0  0  0  0  0  0  0  0  0  0
    1.7460    1.1161    0.0000 C   0  0  3  0  0  0  0  0  0  0  0  0
    1.0057   -0.1105    0.0000 C   0  0  0  0  0  0  0  0  0  0  0  0
   -0.4199   -0.1105    0.0000 C   0  0  0  0  0  0  0  0  0  0  0  0
    0.3095   -0.5194    0.0000 C   0  0  0  0  0  0  0  0  0  0  0  0
    0.2873    1.1161    0.0000 C   0  0  0  0  0  0  0  0  0  0  0  0
    2.4312    1.5139    0.0000 C   0  0  0  0  0  0  0  0  0  0  0  0
   -1.2377   -1.3482    0.0000 C   0  0  0  0  0  0  0  0  0  0  0  0
    1.7350   -1.3482    0.0000 C   0  0  0  0  0  0  0  0  0  0  0  0
  9  1  1  1  0  0  0
  1 14  1  0  0  0  0
  2 10  1  0  0  0  0
  2 16  1  0  0  0  0
  3  5  1  0  0  0  0
  3 11  1  0  0  0  0
  3 15  1  0  0  0  0
  4 11  2  0  0  0  0
  4 13  1  0  0  0  0
  5  6  2  0  0  0  0
  6  7  1  0  0  0  0
  7 15  2  0  0  0  0
  8  9  1  0  0  0  0
  8 10  1  0  0  0  0
  8 13  2  0  0  0  0
  9 14  1  0  0  0  0
 10 12  2  0  0  0  0
 11 12  1  0  0  0  0
M  END
> <PUBCHEM_COMPOUND_ID_TYPE>
0

> <PUBCHEM_TOTAL_CHARGE>
0

> <PUBCHEM_SUBSTANCE_ID>
310944304

> <PUBCHEM_SUBSTANCE_VERSION>
1

> <PUBCHEM_EXT_DATASOURCE_NAME>
4488

> <PUBCHEM_EXT_DATASOURCE_REGID>
SCHEMBL16122379

> <PUBCHEM_SUBSTANCE_COMMENT>
InChI=1S/C9H9N5O2/c1-15-7-2-9(14-5-11-12-13-14)10-3-6(7)8-4-16-8/h2-3,5,8H,4H2,1H3/t8-/m1/s1
InChIKey=JQHQPUHUSHUMRX-MRVPVSSYSA-N

> <PUBCHEM_SUBSTANCE_SYNONYM>
SCHEMBL16122379

> <PUBCHEM_XREF_EXT_ID>
SCHEMBL16122379

> <PUBCHEM_EXT_DATASOURCE_URL>
https://www.surechembl.org/

> <PUBCHEM_EXT_SUBSTANCE_URL>
https://www.surechembl.org/chemical/SCHEMBL16122379

> <PUBCHEM_CID_ASSOCIATIONS>
117610569  1

> <PUBCHEM_COORDINATE_TYPE>
1
3

> <PUBCHEM_BONDANNOTATIONS>
9  1  5

$$$$
