310944743
  -OEChem-07211613022D

 27 29  0     1  0  0  0  0  0999 V2000
   -4.0762    1.5744    0.0000 Cl  0  0  0  0  0  0  0  0  0  0  0  0
   -4.0762   -0.0809    0.0000 Cl  0  0  0  0  0  0  0  0  0  0  0  0
   -1.0393   -0.0809    0.0000 O   0  0  0  0  0  0  0  0  0  0  0  0
    0.3920    2.4084    0.0000 O   0  0  0  0  0  0  0  0  0  0  0  0
    4.0762   -1.6989    0.0000 O   0  0  0  0  0  0  0  0  0  0  0  0
    2.8440   -0.9770    0.0000 N   0  0  0  0  0  0  0  0  0  0  0  0
    1.1264    1.1638    0.0000 N   0  0  0  0  0  0  0  0  0  0  0  0
   -1.0268    1.5744    0.0000 N   0  0  0  0  0  0  0  0  0  0  0  0
    1.8483   -0.0809    0.0000 C   0  0  3  0  0  0  0  0  0  0  0  0
    2.5453    0.3422    0.0000 C   0  0  3  0  0  0  0  0  0  0  0  0
    2.0101   -0.8899    0.0000 C   0  0  0  0  0  0  0  0  0  0  0  0
    1.1388    0.3298    0.0000 C   0  0  0  0  0  0  0  0  0  0  0  0
    3.1801   -0.2178    0.0000 C   0  0  0  0  0  0  0  0  0  0  0  0
   -1.7488    1.1762    0.0000 C   0  0  0  0  0  0  0  0  0  0  0  0
    2.5576    1.1638    0.0000 C   0  0  0  0  0  0  0  0  0  0  0  0
    0.3920    1.5744    0.0000 C   0  0  0  0  0  0  0  0  0  0  0  0
   -1.7612    0.3422    0.0000 C   0  0  0  0  0  0  0  0  0  0  0  0
    1.8358    1.5744    0.0000 C   0  0  0  0  0  0  0  0  0  0  0  0
    3.2423   -1.6989    0.0000 C   0  0  0  0  0  0  0  0  0  0  0  0
   -3.1925    1.1638    0.0000 C   0  0  0  0  0  0  0  0  0  0  0  0
   -3.1925    0.3422    0.0000 C   0  0  0  0  0  0  0  0  0  0  0  0
   -2.4706    1.5744    0.0000 C   0  0  0  0  0  0  0  0  0  0  0  0
   -2.4581   -0.0684    0.0000 C   0  0  0  0  0  0  0  0  0  0  0  0
   -0.3049    1.1638    0.0000 C   0  0  0  0  0  0  0  0  0  0  0  0
    2.8440   -2.4084    0.0000 C   0  0  0  0  0  0  0  0  0  0  0  0
   -0.3173    0.3298    0.0000 C   0  0  0  0  0  0  0  0  0  0  0  0
    2.0101   -2.3710    0.0000 C   0  0  0  0  0  0  0  0  0  0  0  0
  1 20  1  0  0  0  0
  2 21  1  0  0  0  0
  3 17  1  0  0  0  0
  3 26  1  0  0  0  0
  4 16  2  0  0  0  0
  5 19  2  0  0  0  0
  6 11  1  0  0  0  0
  6 13  1  0  0  0  0
  6 19  1  0  0  0  0
  7 12  1  0  0  0  0
  7 16  1  0  0  0  0
  7 18  1  0  0  0  0
  8 14  1  0  0  0  0
  8 24  1  0  0  0  0
  9 10  1  0  0  0  0
  9 11  1  0  0  0  0
  9 12  1  0  0  0  0
 10 13  1  0  0  0  0
 10 15  1  0  0  0  0
 14 17  2  0  0  0  0
 14 22  1  0  0  0  0
 15 18  1  0  0  0  0
 16 24  1  0  0  0  0
 17 23  1  0  0  0  0
 19 25  1  0  0  0  0
 20 21  1  0  0  0  0
 20 22  2  0  0  0  0
 21 23  2  0  0  0  0
 25 27  2  0  0  0  0
M  END
> <PUBCHEM_COMPOUND_ID_TYPE>
0

> <PUBCHEM_TOTAL_CHARGE>
0

> <PUBCHEM_SUBSTANCE_ID>
310944743

> <PUBCHEM_SUBSTANCE_VERSION>
1

> <PUBCHEM_EXT_DATASOURCE_NAME>
4488

> <PUBCHEM_EXT_DATASOURCE_REGID>
SCHEMBL16122822

> <PUBCHEM_SUBSTANCE_COMMENT>
InChI=1S/C19H23Cl2N3O3/c1-3-18(25)24-9-12-4-5-23(10-13(12)11-24)19(26)8-22-16-6-14(20)15(21)7-17(16)27-2/h3,6-7,12-13,22H,1,4-5,8-11H2,2H3
InChIKey=CBCURWNOECRTTN-UHFFFAOYSA-N

> <PUBCHEM_SUBSTANCE_SYNONYM>
SCHEMBL16122822

> <PUBCHEM_XREF_EXT_ID>
SCHEMBL16122822

> <PUBCHEM_EXT_DATASOURCE_URL>
https://www.surechembl.org/

> <PUBCHEM_EXT_SUBSTANCE_URL>
https://www.surechembl.org/chemical/SCHEMBL16122822

> <PUBCHEM_CID_ASSOCIATIONS>
117610960  1

> <PUBCHEM_COORDINATE_TYPE>
1
3

$$$$
