310938079
  -OEChem-07211613022D

 41 46  0     1  0  0  0  0  0999 V2000
    1.9339    2.3355    0.0000 S   0  0  0  0  0  0  0  0  0  0  0  0
   -3.6175   -0.1276    0.0000 F   0  0  0  0  0  0  0  0  0  0  0  0
    2.6857   -3.3391    0.0000 F   0  0  0  0  0  0  0  0  0  0  0  0
    3.7253   -2.8094    0.0000 F   0  0  0  0  0  0  0  0  0  0  0  0
    2.1560   -2.2995    0.0000 F   0  0  0  0  0  0  0  0  0  0  0  0
    2.6435   -1.1567    0.0000 O   0  0  0  0  0  0  0  0  0  0  0  0
    1.1089    2.3355    0.0000 O   0  0  0  0  0  0  0  0  0  0  0  0
    2.7589    2.3355    0.0000 O   0  0  0  0  0  0  0  0  0  0  0  0
    4.0025   -1.5983    0.0000 O   0  0  0  0  0  0  0  0  0  0  0  0
    1.9339    1.5105    0.0000 N   0  0  0  0  0  0  0  0  0  0  0  0
    3.7054   -0.2006    0.0000 N   0  0  0  0  0  0  0  0  0  0  0  0
   -0.3896   -0.8137    0.0000 N   0  0  0  0  0  0  0  0  0  0  0  0
   -3.1076   -1.6968    0.0000 N   0  0  0  0  0  0  0  0  0  0  0  0
   -1.7486   -1.2553    0.0000 N   0  0  0  0  0  0  0  0  0  0  0  0
   -1.4515    0.1425    0.0000 N   0  0  0  0  0  0  0  0  0  0  0  0
   -3.6505   -2.9163    0.0000 N   0  0  0  0  0  0  0  0  0  0  0  0
    2.3464    0.2410    0.0000 C   0  0  0  0  0  0  0  0  0  0  0  0
    2.6014    1.0256    0.0000 C   0  0  0  0  0  0  0  0  0  0  0  0
    1.5214    0.2410    0.0000 C   0  0  0  0  0  0  0  0  0  0  0  0
    1.2665    1.0256    0.0000 C   0  0  0  0  0  0  0  0  0  0  0  0
    2.8985   -0.3721    0.0000 C   0  0  3  0  0  0  0  0  0  0  0  0
    0.9694   -0.3721    0.0000 C   0  0  0  0  0  0  0  0  0  0  0  0
    0.4595    1.1971    0.0000 C   0  0  0  0  0  0  0  0  0  0  0  0
    3.4084    1.1971    0.0000 C   0  0  0  0  0  0  0  0  0  0  0  0
    0.1624   -0.2006    0.0000 C   0  0  0  0  0  0  0  0  0  0  0  0
   -0.0925    0.5840    0.0000 C   0  0  0  0  0  0  0  0  0  0  0  0
    3.9604    0.5840    0.0000 C   0  0  0  0  0  0  0  0  0  0  0  0
    1.9339    3.1605    0.0000 C   0  0  0  0  0  0  0  0  0  0  0  0
   -2.5556   -1.0837    0.0000 C   0  0  0  0  0  0  0  0  0  0  0  0
   -1.1966   -0.6422    0.0000 C   0  0  0  0  0  0  0  0  0  0  0  0
    3.1956   -1.7698    0.0000 C   0  0  0  0  0  0  0  0  0  0  0  0
   -3.9281   -1.6106    0.0000 C   0  0  0  0  0  0  0  0  0  0  0  0
   -4.2636   -2.3643    0.0000 C   0  0  0  0  0  0  0  0  0  0  0  0
   -2.8105   -0.2991    0.0000 C   0  0  0  0  0  0  0  0  0  0  0  0
    2.9406   -2.5545    0.0000 C   0  0  0  0  0  0  0  0  0  0  0  0
   -2.9361   -2.5038    0.0000 C   0  0  0  0  0  0  0  0  0  0  0  0
   -2.2585    0.3140    0.0000 C   0  0  0  0  0  0  0  0  0  0  0  0
   -4.4130   -0.9431    0.0000 C   0  0  0  0  0  0  0  0  0  0  0  0
   -5.0841   -2.4505    0.0000 C   0  0  0  0  0  0  0  0  0  0  0  0
   -5.2335   -1.0294    0.0000 C   0  0  0  0  0  0  0  0  0  0  0  0
   -5.5690   -1.7831    0.0000 C   0  0  0  0  0  0  0  0  0  0  0  0
  1  7  2  0  0  0  0
  1  8  2  0  0  0  0
  1 10  1  0  0  0  0
  1 28  1  0  0  0  0
  2 34  1  0  0  0  0
  3 35  1  0  0  0  0
  4 35  1  0  0  0  0
  5 35  1  0  0  0  0
  6 21  1  0  0  0  0
  6 31  1  0  0  0  0
  9 31  2  0  0  0  0
 10 18  1  0  0  0  0
 10 20  1  0  0  0  0
 11 21  1  0  0  0  0
 11 27  1  0  0  0  0
 12 25  1  0  0  0  0
 12 30  1  0  0  0  0
 13 29  1  0  0  0  0
 13 32  1  0  0  0  0
 13 36  1  0  0  0  0
 14 29  1  0  0  0  0
 14 30  2  0  0  0  0
 15 30  1  0  0  0  0
 15 37  2  0  0  0  0
 16 33  1  0  0  0  0
 16 36  2  0  0  0  0
 17 18  2  0  0  0  0
 17 19  1  0  0  0  0
 17 21  1  0  0  0  0
 18 24  1  0  0  0  0
 19 20  1  0  0  0  0
 19 22  2  0  0  0  0
 20 23  2  0  0  0  0
 22 25  1  0  0  0  0
 23 26  1  0  0  0  0
 24 27  1  0  0  0  0
 25 26  2  0  0  0  0
 29 34  2  0  0  0  0
 31 35  1  0  0  0  0
 32 33  1  0  0  0  0
 32 38  2  0  0  0  0
 33 39  2  0  0  0  0
 34 37  1  0  0  0  0
 38 40  1  0  0  0  0
 39 41  1  0  0  0  0
 40 41  2  0  0  0  0
M  END
> <PUBCHEM_COMPOUND_ID_TYPE>
0

> <PUBCHEM_TOTAL_CHARGE>
0

> <PUBCHEM_SUBSTANCE_ID>
310938079

> <PUBCHEM_SUBSTANCE_VERSION>
1

> <PUBCHEM_EXT_DATASOURCE_NAME>
4488

> <PUBCHEM_EXT_DATASOURCE_REGID>
SCHEMBL16115924

> <PUBCHEM_SUBSTANCE_COMMENT>
InChI=1S/C25H19F4N7O4S/c1-41(38,39)36-17-7-6-13(10-14(17)20-19(36)8-9-30-22(20)40-23(37)25(27,28)29)33-24-31-11-15(26)21(34-24)35-12-32-16-4-2-3-5-18(16)35/h2-7,10-12,22,30H,8-9H2,1H3,(H,31,33,34)
InChIKey=HGWUOZKLYYELHG-UHFFFAOYSA-N

> <PUBCHEM_SUBSTANCE_SYNONYM>
SCHEMBL16115924

> <PUBCHEM_XREF_EXT_ID>
SCHEMBL16115924

> <PUBCHEM_EXT_DATASOURCE_URL>
https://www.surechembl.org/

> <PUBCHEM_EXT_SUBSTANCE_URL>
https://www.surechembl.org/chemical/SCHEMBL16115924

> <PUBCHEM_CID_ASSOCIATIONS>
117605646  1

> <PUBCHEM_COORDINATE_TYPE>
1
3

$$$$
