310944723
  -OEChem-07211613022D

 20 22  0     1  0  0  0  0  0999 V2000
    1.7406   -2.8492    0.0000 O   0  0  0  0  0  0  0  0  0  0  0  0
    1.5157   -0.6856    0.0000 N   0  0  3  0  0  0  0  0  0  0  0  0
    2.0084   -1.3604    0.0000 N   0  0  0  0  0  0  0  0  0  0  0  0
    0.7230   -0.9319    0.0000 C   0  0  0  0  0  0  0  0  0  0  0  0
    0.7123   -1.7567    0.0000 C   0  0  0  0  0  0  0  0  0  0  0  0
    1.5049   -1.9923    0.0000 C   0  0  0  0  0  0  0  0  0  0  0  0
    1.7192    0.1393    0.0000 C   0  0  0  0  0  0  0  0  0  0  0  0
    0.0160   -0.5249    0.0000 C   0  0  0  0  0  0  0  0  0  0  0  0
    0.0160   -2.1744    0.0000 C   0  0  0  0  0  0  0  0  0  0  0  0
    1.1193    0.7284    0.0000 C   0  0  0  0  0  0  0  0  0  0  0  0
   -0.7016   -0.9319    0.0000 C   0  0  0  0  0  0  0  0  0  0  0  0
   -0.7016   -1.7674    0.0000 C   0  0  0  0  0  0  0  0  0  0  0  0
    0.3267    0.5142    0.0000 C   0  0  0  0  0  0  0  0  0  0  0  0
    1.3443    1.5425    0.0000 C   0  0  0  0  0  0  0  0  0  0  0  0
   -0.0268    1.8960    0.0000 C   0  0  0  0  0  0  0  0  0  0  0  0
   -0.2410    1.0925    0.0000 C   0  0  0  0  0  0  0  0  0  0  0  0
    0.7659    2.1102    0.0000 C   0  0  0  0  0  0  0  0  0  0  0  0
   -0.6266    2.4957    0.0000 C   0  0  0  0  0  0  0  0  0  0  0  0
   -1.4300    2.2815    0.0000 C   0  0  0  0  0  0  0  0  0  0  0  0
   -2.0084    2.8492    0.0000 C   0  0  0  0  0  0  0  0  0  0  0  0
  1  6  2  0  0  0  0
  2  3  1  0  0  0  0
  2  4  1  0  0  0  0
  2  7  1  0  0  0  0
  3  6  1  0  0  0  0
  4  5  2  0  0  0  0
  4  8  1  0  0  0  0
  5  6  1  0  0  0  0
  5  9  1  0  0  0  0
  7 10  1  0  0  0  0
  8 11  2  0  0  0  0
  9 12  2  0  0  0  0
 10 13  2  0  0  0  0
 10 14  1  0  0  0  0
 11 12  1  0  0  0  0
 13 16  1  0  0  0  0
 14 17  2  0  0  0  0
 15 16  2  0  0  0  0
 15 17  1  0  0  0  0
 15 18  1  0  0  0  0
 18 19  1  0  0  0  0
 19 20  1  0  0  0  0
M  END
> <PUBCHEM_COMPOUND_ID_TYPE>
0

> <PUBCHEM_TOTAL_CHARGE>
0

> <PUBCHEM_SUBSTANCE_ID>
310944723

> <PUBCHEM_SUBSTANCE_VERSION>
1

> <PUBCHEM_EXT_DATASOURCE_NAME>
4488

> <PUBCHEM_EXT_DATASOURCE_REGID>
SCHEMBL16122802

> <PUBCHEM_SUBSTANCE_COMMENT>
InChI=1S/C17H18N2O/c1-2-5-13-8-10-14(11-9-13)12-19-16-7-4-3-6-15(16)17(20)18-19/h3-4,6-11H,2,5,12H2,1H3,(H,18,20)
InChIKey=JZUIOJDOHBWIHE-UHFFFAOYSA-N

> <PUBCHEM_SUBSTANCE_SYNONYM>
SCHEMBL16122802

> <PUBCHEM_XREF_EXT_ID>
SCHEMBL16122802

> <PUBCHEM_EXT_DATASOURCE_URL>
https://www.surechembl.org/

> <PUBCHEM_EXT_SUBSTANCE_URL>
https://www.surechembl.org/chemical/SCHEMBL16122802

> <PUBCHEM_CID_ASSOCIATIONS>
117610943  1

> <PUBCHEM_COORDINATE_TYPE>
1
3

$$$$
