310941838
  -OEChem-07211613022D

 26 27  0     1  0  0  0  0  0999 V2000
   -1.2813   -0.3661    0.0000 O   0  0  0  0  0  0  0  0  0  0  0  0
   -0.0458   -2.5626    0.0000 N   0  0  3  0  0  0  0  0  0  0  0  0
   -1.3270    1.0983    0.0000 N   0  0  0  0  0  0  0  0  0  0  0  0
    1.1898   -0.3203    0.0000 C   0  0  0  0  0  0  0  0  0  0  0  0
   -0.0458   -1.0525    0.0000 C   0  0  0  0  0  0  0  0  0  0  0  0
   -0.4576   -0.3661    0.0000 C   0  0  0  0  0  0  0  0  0  0  0  0
   -0.0458    0.3661    0.0000 C   0  0  0  0  0  0  0  0  0  0  0  0
    2.1050   -0.3661    0.0000 C   0  0  0  0  0  0  0  0  0  0  0  0
    0.8237   -1.0525    0.0000 C   0  0  0  0  0  0  0  0  0  0  0  0
    0.8237    0.3203    0.0000 C   0  0  0  0  0  0  0  0  0  0  0  0
   -0.4119   -1.8762    0.0000 C   0  0  0  0  0  0  0  0  0  0  0  0
   -0.4119    1.0983    0.0000 C   0  0  0  0  0  0  0  0  0  0  0  0
    2.5168    0.3661    0.0000 C   0  0  0  0  0  0  0  0  0  0  0  0
    2.9744   -0.3661    0.0000 C   0  0  0  0  0  0  0  0  0  0  0  0
    2.5168   -1.0983    0.0000 C   0  0  0  0  0  0  0  0  0  0  0  0
   -1.7389    1.8304    0.0000 C   0  0  0  0  0  0  0  0  0  0  0  0
    0.4576   -2.4711    0.0000 C   0  0  0  0  0  0  0  0  0  0  0  0
   -0.4576   -3.2948    0.0000 C   0  0  0  0  0  0  0  0  0  0  0  0
   -2.5626    1.8762    0.0000 C   0  0  0  0  0  0  0  0  0  0  0  0
   -1.3270    2.5626    0.0000 C   0  0  0  0  0  0  0  0  0  0  0  0
   -2.9744    2.5626    0.0000 C   0  0  0  0  0  0  0  0  0  0  0  0
   -1.7389    3.2948    0.0000 C   0  0  0  0  0  0  0  0  0  0  0  0
    0.8694   -2.6083    0.0000 C   0  0  0  0  0  0  0  0  0  0  0  0
   -2.5626    3.2490    0.0000 C   0  0  0  0  0  0  0  0  0  0  0  0
   -1.2813   -3.2948    0.0000 C   0  0  0  0  0  0  0  0  0  0  0  0
    1.2813   -3.2948    0.0000 C   0  0  0  0  0  0  0  0  0  0  0  0
  1  6  1  0  0  0  0
  2 11  1  0  0  0  0
  2 17  1  0  0  0  0
  2 18  1  0  0  0  0
  3 12  2  0  0  0  0
  3 16  1  0  0  0  0
  4  8  1  0  0  0  0
  4  9  1  0  0  0  0
  4 10  2  0  0  0  0
  5  6  1  0  0  0  0
  5  9  2  0  0  0  0
  5 11  1  0  0  0  0
  6  7  2  0  0  0  0
  7 10  1  0  0  0  0
  7 12  1  0  0  0  0
  8 13  1  0  0  0  0
  8 14  1  0  0  0  0
  8 15  1  0  0  0  0
 16 19  1  0  0  0  0
 16 20  1  0  0  0  0
 17 23  1  0  0  0  0
 18 25  1  0  0  0  0
 19 21  1  0  0  0  0
 20 22  1  0  0  0  0
 21 24  1  0  0  0  0
 22 24  1  0  0  0  0
 23 26  1  0  0  0  0
M  END
> <PUBCHEM_COMPOUND_ID_TYPE>
0

> <PUBCHEM_TOTAL_CHARGE>
0

> <PUBCHEM_SUBSTANCE_ID>
310941838

> <PUBCHEM_SUBSTANCE_VERSION>
1

> <PUBCHEM_EXT_DATASOURCE_NAME>
4488

> <PUBCHEM_EXT_DATASOURCE_REGID>
SCHEMBL16119870

> <PUBCHEM_SUBSTANCE_COMMENT>
InChI=1S/C23H38N2O/c1-6-13-25(7-2)17-19-15-20(23(3,4)5)14-18(22(19)26)16-24-21-11-9-8-10-12-21/h14-16,21,26H,6-13,17H2,1-5H3/b24-16+
InChIKey=KURCPVFVHRQIBE-LFVJCYFKSA-N

> <PUBCHEM_SUBSTANCE_SYNONYM>
SCHEMBL16119870

> <PUBCHEM_XREF_EXT_ID>
SCHEMBL16119870

> <PUBCHEM_EXT_DATASOURCE_URL>
https://www.surechembl.org/

> <PUBCHEM_EXT_SUBSTANCE_URL>
https://www.surechembl.org/chemical/SCHEMBL16119870

> <PUBCHEM_CID_ASSOCIATIONS>
117608580  1

> <PUBCHEM_COORDINATE_TYPE>
1
3

$$$$
