310933001
  -OEChem-07211613022D

 14 15  0     1  0  0  0  0  0999 V2000
    2.1989   -0.8167    0.0000 N   0  0  3  0  0  0  0  0  0  0  0  0
    3.0994   -2.7643    0.0000 N   0  0  0  0  0  0  0  0  0  0  0  0
    1.7800   -2.0942    0.0000 C   0  0  3  0  0  0  0  0  0  0  0  0
    2.6177   -2.0942    0.0000 C   0  0  3  0  0  0  0  0  0  0  0  0
    2.8690   -1.3194    0.0000 C   0  0  3  0  0  0  0  0  0  0  0  0
    1.2984   -2.7643    0.0000 C   0  0  0  0  0  0  0  0  0  0  0  0
    1.5288   -1.3194    0.0000 C   0  0  0  0  0  0  0  0  0  0  0  0
    1.6334   -3.5182    0.0000 C   0  0  0  0  0  0  0  0  0  0  0  0
    0.4817   -2.6806    0.0000 C   0  0  0  0  0  0  0  0  0  0  0  0
    3.6439   -1.0471    0.0000 C   0  0  0  0  0  0  0  0  0  0  0  0
    2.1989    0.0000    0.0000 C   0  0  0  0  0  0  0  0  0  0  0  0
    1.1518   -4.1883    0.0000 C   0  0  0  0  0  0  0  0  0  0  0  0
    0.0000   -3.3507    0.0000 C   0  0  0  0  0  0  0  0  0  0  0  0
    0.3141   -4.1046    0.0000 C   0  0  0  0  0  0  0  0  0  0  0  0
  1  5  1  0  0  0  0
  1  7  1  0  0  0  0
  1 11  1  0  0  0  0
  2  4  1  0  0  0  0
  3  4  1  0  0  0  0
  3  6  1  0  0  0  0
  3  7  1  0  0  0  0
  4  5  1  0  0  0  0
  5 10  1  0  0  0  0
  6  8  2  0  0  0  0
  6  9  1  0  0  0  0
  8 12  1  0  0  0  0
  9 13  2  0  0  0  0
 12 14  2  0  0  0  0
 13 14  1  0  0  0  0
M  END
> <PUBCHEM_COMPOUND_ID_TYPE>
0

> <PUBCHEM_TOTAL_CHARGE>
0

> <PUBCHEM_SUBSTANCE_ID>
310933001

> <PUBCHEM_SUBSTANCE_VERSION>
1

> <PUBCHEM_EXT_DATASOURCE_NAME>
4488

> <PUBCHEM_EXT_DATASOURCE_REGID>
SCHEMBL16110399

> <PUBCHEM_SUBSTANCE_COMMENT>
InChI=1S/C12H18N2/c1-9-12(13)11(8-14(9)2)10-6-4-3-5-7-10/h3-7,9,11-12H,8,13H2,1-2H3
InChIKey=XDXIBDOXKMDUTM-UHFFFAOYSA-N

> <PUBCHEM_SUBSTANCE_SYNONYM>
SCHEMBL16110399

> <PUBCHEM_XREF_EXT_ID>
SCHEMBL16110399

> <PUBCHEM_EXT_DATASOURCE_URL>
https://www.surechembl.org/

> <PUBCHEM_EXT_SUBSTANCE_URL>
https://www.surechembl.org/chemical/SCHEMBL16110399

> <PUBCHEM_CID_ASSOCIATIONS>
117601472  1

> <PUBCHEM_COORDINATE_TYPE>
1
3

$$$$
