310938596
  -OEChem-07211613022D

 12 13  0     1  0  0  0  0  0999 V2000
   -2.2244   14.4224    0.0000 N   0  0  0  0  0  0  0  0  0  0  0  0
   -2.2244   16.4065    0.0000 C   0  0  0  0  0  0  0  0  0  0  0  0
   -1.8119   15.6920    0.0000 C   0  0  3  0  0  0  0  0  0  0  0  0
   -2.6369   15.6920    0.0000 C   0  0  3  0  0  0  0  0  0  0  0  0
   -2.8918   14.9074    0.0000 C   0  0  0  0  0  0  0  0  0  0  0  0
   -1.5570   14.9074    0.0000 C   0  0  0  0  0  0  0  0  0  0  0  0
   -2.2244   13.5974    0.0000 C   0  0  0  0  0  0  0  0  0  0  0  0
   -2.6369   17.1209    0.0000 C   0  0  0  0  0  0  0  0  0  0  0  0
   -1.8119   17.1209    0.0000 C   0  0  0  0  0  0  0  0  0  0  0  0
   -1.3994   13.5974    0.0000 C   0  0  0  0  0  0  0  0  0  0  0  0
   -3.0494   13.5974    0.0000 C   0  0  0  0  0  0  0  0  0  0  0  0
   -2.2244   12.7724    0.0000 C   0  0  0  0  0  0  0  0  0  0  0  0
  1  5  1  0  0  0  0
  1  6  1  0  0  0  0
  1  7  1  0  0  0  0
  2  3  1  0  0  0  0
  2  4  1  0  0  0  0
  2  8  1  0  0  0  0
  2  9  1  0  0  0  0
  3  4  1  0  0  0  0
  3  6  1  0  0  0  0
  4  5  1  0  0  0  0
  7 10  1  0  0  0  0
  7 11  1  0  0  0  0
  7 12  1  0  0  0  0
M  END
> <PUBCHEM_COMPOUND_ID_TYPE>
0

> <PUBCHEM_TOTAL_CHARGE>
0

> <PUBCHEM_SUBSTANCE_ID>
310938596

> <PUBCHEM_SUBSTANCE_VERSION>
1

> <PUBCHEM_EXT_DATASOURCE_NAME>
4488

> <PUBCHEM_EXT_DATASOURCE_REGID>
SCHEMBL16116510

> <PUBCHEM_SUBSTANCE_COMMENT>
InChI=1S/C11H21N/c1-10(2,3)12-6-8-9(7-12)11(8,4)5/h8-9H,6-7H2,1-5H3
InChIKey=IYELFTHIIFOFEZ-UHFFFAOYSA-N

> <PUBCHEM_SUBSTANCE_SYNONYM>
SCHEMBL16116510

> <PUBCHEM_XREF_EXT_ID>
SCHEMBL16116510

> <PUBCHEM_EXT_DATASOURCE_URL>
https://www.surechembl.org/

> <PUBCHEM_EXT_SUBSTANCE_URL>
https://www.surechembl.org/chemical/SCHEMBL16116510

> <PUBCHEM_CID_ASSOCIATIONS>
117606029  1

> <PUBCHEM_COORDINATE_TYPE>
1
3

> <PUBCHEM_BONDANNOTATIONS>
7  10  3
7  11  3

$$$$
