310942914
  -OEChem-07211613022D

 18 19  0     1  0  0  0  0  0999 V2000
    4.0387   -0.8332    0.0000 Br  0  0  0  0  0  0  0  0  0  0  0  0
   -2.6105   -1.2457    0.0000 O   0  0  0  0  0  0  0  0  0  0  0  0
    0.2460   -1.2457    0.0000 O   0  0  0  0  0  0  0  0  0  0  0  0
   -2.6105    1.2457    0.0000 O   0  0  0  0  0  0  0  0  0  0  0  0
   -1.8805    0.0079    0.0000 C   0  0  0  0  0  0  0  0  0  0  0  0
   -1.8805   -0.8173    0.0000 C   0  0  0  0  0  0  0  0  0  0  0  0
   -2.6105    0.4047    0.0000 C   0  0  0  0  0  0  0  0  0  0  0  0
   -1.1664   -1.2299    0.0000 C   0  0  0  0  0  0  0  0  0  0  0  0
   -0.4681   -0.8014    0.0000 C   0  0  0  0  0  0  0  0  0  0  0  0
   -1.1823    0.4047    0.0000 C   0  0  0  0  0  0  0  0  0  0  0  0
   -3.3246   -0.8173    0.0000 C   0  0  3  0  0  0  0  0  0  0  0  0
   -3.3088    0.0079    0.0000 C   0  0  0  0  0  0  0  0  0  0  0  0
   -0.4681    0.0079    0.0000 C   0  0  0  0  0  0  0  0  0  0  0  0
   -4.0387   -1.2457    0.0000 C   0  0  0  0  0  0  0  0  0  0  0  0
    1.1664   -0.8332    0.0000 C   0  0  0  0  0  0  0  0  0  0  0  0
    1.8964   -1.2299    0.0000 C   0  0  0  0  0  0  0  0  0  0  0  0
    2.5947   -0.8332    0.0000 C   0  0  0  0  0  0  0  0  0  0  0  0
    3.3246   -1.2299    0.0000 C   0  0  0  0  0  0  0  0  0  0  0  0
  1 18  1  0  0  0  0
  2  6  1  0  0  0  0
  2 11  1  0  0  0  0
  3  9  1  0  0  0  0
  3 15  1  0  0  0  0
  4  7  2  0  0  0  0
  5  6  2  0  0  0  0
  5  7  1  0  0  0  0
  5 10  1  0  0  0  0
  6  8  1  0  0  0  0
  7 12  1  0  0  0  0
  8  9  2  0  0  0  0
  9 13  1  0  0  0  0
 10 13  2  0  0  0  0
 11 12  1  0  0  0  0
 11 14  1  0  0  0  0
 15 16  1  0  0  0  0
 16 17  1  0  0  0  0
 17 18  1  0  0  0  0
M  END
> <PUBCHEM_COMPOUND_ID_TYPE>
0

> <PUBCHEM_TOTAL_CHARGE>
0

> <PUBCHEM_SUBSTANCE_ID>
310942914

> <PUBCHEM_SUBSTANCE_VERSION>
1

> <PUBCHEM_EXT_DATASOURCE_NAME>
4488

> <PUBCHEM_EXT_DATASOURCE_REGID>
SCHEMBL16120972

> <PUBCHEM_SUBSTANCE_COMMENT>
InChI=1S/C14H17BrO3/c1-10-8-13(16)12-5-4-11(9-14(12)18-10)17-7-3-2-6-15/h4-5,9-10H,2-3,6-8H2,1H3
InChIKey=IJTLHHMMQZUGFU-UHFFFAOYSA-N

> <PUBCHEM_SUBSTANCE_SYNONYM>
SCHEMBL16120972

> <PUBCHEM_XREF_EXT_ID>
SCHEMBL16120972

> <PUBCHEM_EXT_DATASOURCE_URL>
https://www.surechembl.org/

> <PUBCHEM_EXT_SUBSTANCE_URL>
https://www.surechembl.org/chemical/SCHEMBL16120972

> <PUBCHEM_CID_ASSOCIATIONS>
117609389  1

> <PUBCHEM_COORDINATE_TYPE>
1
3

$$$$
