310944985
  -OEChem-07211613022D

 28 31  0     1  0  0  0  0  0999 V2000
    3.5151    1.2647    0.0000 O   0  0  0  0  0  0  0  0  0  0  0  0
   -3.4321    0.7422    0.0000 O   0  0  0  0  0  0  0  0  0  0  0  0
    1.7812   -0.9322    0.0000 N   0  0  0  0  0  0  0  0  0  0  0  0
    0.0594   -0.8609    0.0000 N   0  0  0  0  0  0  0  0  0  0  0  0
   -1.2232   -1.4785    0.0000 N   0  0  0  0  0  0  0  0  0  0  0  0
   -3.3489   -1.7516    0.0000 N   0  0  3  0  0  0  0  0  0  0  0  0
    4.0614   -0.0059    0.0000 N   0  0  0  0  0  0  0  0  0  0  0  0
   -1.1282   -0.0534    0.0000 N   0  0  0  0  0  0  0  0  0  0  0  0
   -2.1732    0.0415    0.0000 N   0  0  0  0  0  0  0  0  0  0  0  0
    1.3301   -0.2316    0.0000 C   0  0  0  0  0  0  0  0  0  0  0  0
    2.6482    0.1009    0.0000 C   0  0  0  0  0  0  0  0  0  0  0  0
    2.5652   -0.7184    0.0000 C   0  0  0  0  0  0  0  0  0  0  0  0
    0.5225   -0.1604    0.0000 C   0  0  0  0  0  0  0  0  0  0  0  0
    1.8644    0.3979    0.0000 C   0  0  0  0  0  0  0  0  0  0  0  0
    3.3727    0.4453    0.0000 C   0  0  0  0  0  0  0  0  0  0  0  0
   -2.0544   -1.4073    0.0000 C   0  0  3  0  0  0  0  0  0  0  0  0
   -0.7719   -0.7778    0.0000 C   0  0  0  0  0  0  0  0  0  0  0  0
   -2.4820   -0.7303    0.0000 C   0  0  3  0  0  0  0  0  0  0  0  0
    3.2776   -1.1935    0.0000 C   0  0  0  0  0  0  0  0  0  0  0  0
    0.1544    0.5759    0.0000 C   0  0  0  0  0  0  0  0  0  0  0  0
   -2.5770   -2.0485    0.0000 C   0  0  0  0  0  0  0  0  0  0  0  0
   -3.2776   -0.9203    0.0000 C   0  0  0  0  0  0  0  0  0  0  0  0
    4.0020   -0.8372    0.0000 C   0  0  0  0  0  0  0  0  0  0  0  0
   -0.6650    0.6353    0.0000 C   0  0  0  0  0  0  0  0  0  0  0  0
   -2.5889    0.7541    0.0000 C   0  0  0  0  0  0  0  0  0  0  0  0
   -4.0614   -2.1554    0.0000 C   0  0  0  0  0  0  0  0  0  0  0  0
   -2.2088    1.4904    0.0000 C   0  0  0  0  0  0  0  0  0  0  0  0
   -2.7077    2.1554    0.0000 C   0  0  0  0  0  0  0  0  0  0  0  0
  1 15  2  0  0  0  0
  2 25  2  0  0  0  0
  3 10  1  0  0  0  0
  3 12  1  0  0  0  0
  4 13  2  0  0  0  0
  4 17  1  0  0  0  0
  5 16  1  0  0  0  0
  5 17  1  0  0  0  0
  6 21  1  0  0  0  0
  6 22  1  0  0  0  0
  6 26  1  0  0  0  0
  7 15  1  0  0  0  0
  7 23  1  0  0  0  0
  8 17  2  0  0  0  0
  8 24  1  0  0  0  0
  9 18  1  0  0  0  0
  9 25  1  0  0  0  0
 10 13  1  0  0  0  0
 10 14  2  0  0  0  0
 11 12  2  0  0  0  0
 11 14  1  0  0  0  0
 11 15  1  0  0  0  0
 12 19  1  0  0  0  0
 13 20  1  0  0  0  0
 16 18  1  0  0  0  0
 16 21  1  0  0  0  0
 18 22  1  0  0  0  0
 19 23  1  0  0  0  0
 20 24  2  0  0  0  0
 25 27  1  0  0  0  0
 27 28  2  0  0  0  0
M  END
> <PUBCHEM_COMPOUND_ID_TYPE>
0

> <PUBCHEM_TOTAL_CHARGE>
0

> <PUBCHEM_SUBSTANCE_ID>
310944985

> <PUBCHEM_SUBSTANCE_VERSION>
1

> <PUBCHEM_EXT_DATASOURCE_NAME>
4488

> <PUBCHEM_EXT_DATASOURCE_REGID>
SCHEMBL16123073

> <PUBCHEM_SUBSTANCE_COMMENT>
InChI=1S/C19H23N7O2/c1-3-17(27)23-15-9-26(2)10-16(15)25-19-21-7-5-13(24-19)14-8-11-12(22-14)4-6-20-18(11)28/h3,5,7-8,15-16,22H,1,4,6,9-10H2,2H3,(H,20,28)(H,23,27)(H,21,24,25)
InChIKey=GUWSAHQJDNKBNG-UHFFFAOYSA-N

> <PUBCHEM_SUBSTANCE_SYNONYM>
SCHEMBL16123073

> <PUBCHEM_XREF_EXT_ID>
SCHEMBL16123073

> <PUBCHEM_EXT_DATASOURCE_URL>
https://www.surechembl.org/

> <PUBCHEM_EXT_SUBSTANCE_URL>
https://www.surechembl.org/chemical/SCHEMBL16123073

> <PUBCHEM_CID_ASSOCIATIONS>
86300463  1

> <PUBCHEM_COORDINATE_TYPE>
1
3

$$$$
