310942407
  -OEChem-07211613022D

 18 19  0     1  0  0  0  0  0999 V2000
   -1.5954   -0.6086    0.0000 O   0  0  0  0  0  0  0  0  0  0  0  0
   -0.8718   -1.8257    0.0000 O   0  0  0  0  0  0  0  0  0  0  0  0
    1.1349   -0.2303    0.0000 N   0  0  0  0  0  0  0  0  0  0  0  0
    1.9738   -0.3454    0.0000 N   0  0  0  0  0  0  0  0  0  0  0  0
    1.8093    1.3652    0.0000 N   0  0  0  0  0  0  0  0  0  0  0  0
   -0.1809   -0.5592    0.0000 C   0  0  0  0  0  0  0  0  0  0  0  0
    0.6086   -0.8553    0.0000 C   0  0  0  0  0  0  0  0  0  0  0  0
    0.6744    0.4605    0.0000 C   0  0  0  0  0  0  0  0  0  0  0  0
   -0.1152    0.2467    0.0000 C   0  0  0  0  0  0  0  0  0  0  0  0
   -0.8718   -0.9869    0.0000 C   0  0  0  0  0  0  0  0  0  0  0  0
    0.9705    1.2336    0.0000 C   0  0  3  0  0  0  0  0  0  0  0  0
    0.9211   -1.6119    0.0000 C   0  0  0  0  0  0  0  0  0  0  0  0
   -0.8060    0.7895    0.0000 C   0  0  0  0  0  0  0  0  0  0  0  0
    1.7435   -1.7435    0.0000 C   0  0  0  0  0  0  0  0  0  0  0  0
    2.2698   -1.1184    0.0000 C   0  0  0  0  0  0  0  0  0  0  0  0
    0.4112    1.8915    0.0000 C   0  0  0  0  0  0  0  0  0  0  0  0
   -2.2698   -1.0691    0.0000 C   0  0  0  0  0  0  0  0  0  0  0  0
   -2.2041   -1.8915    0.0000 C   0  0  0  0  0  0  0  0  0  0  0  0
  1 10  1  0  0  0  0
  1 17  1  0  0  0  0
  2 10  2  0  0  0  0
  3  4  1  0  0  0  0
  3  7  1  0  0  0  0
  3  8  1  0  0  0  0
  4 15  2  0  0  0  0
  5 11  1  0  0  0  0
  6  7  2  0  0  0  0
  6  9  1  0  0  0  0
  6 10  1  0  0  0  0
  7 12  1  0  0  0  0
  8  9  2  0  0  0  0
  8 11  1  0  0  0  0
  9 13  1  0  0  0  0
 11 16  1  0  0  0  0
 12 14  2  0  0  0  0
 14 15  1  0  0  0  0
 17 18  1  0  0  0  0
M  END
> <PUBCHEM_COMPOUND_ID_TYPE>
0

> <PUBCHEM_TOTAL_CHARGE>
0

> <PUBCHEM_SUBSTANCE_ID>
310942407

> <PUBCHEM_SUBSTANCE_VERSION>
1

> <PUBCHEM_EXT_DATASOURCE_NAME>
4488

> <PUBCHEM_EXT_DATASOURCE_REGID>
SCHEMBL16120443

> <PUBCHEM_SUBSTANCE_COMMENT>
InChI=1S/C13H17N3O2/c1-4-18-13(17)11-8(2)12(9(3)14)16-10(11)6-5-7-15-16/h5-7,9H,4,14H2,1-3H3
InChIKey=SCNRKROXDFSVLZ-UHFFFAOYSA-N

> <PUBCHEM_SUBSTANCE_SYNONYM>
SCHEMBL16120443

> <PUBCHEM_XREF_EXT_ID>
SCHEMBL16120443

> <PUBCHEM_EXT_DATASOURCE_URL>
https://www.surechembl.org/

> <PUBCHEM_EXT_SUBSTANCE_URL>
https://www.surechembl.org/chemical/SCHEMBL16120443

> <PUBCHEM_CID_ASSOCIATIONS>
117609011  1

> <PUBCHEM_COORDINATE_TYPE>
1
3

$$$$
