310940234
  -OEChem-07211613022D

 31 34  0     1  0  0  0  0  0999 V2000
    3.1749   -0.3528    0.0000 Cl  0  0  0  0  0  0  0  0  0  0  0  0
    0.5239   -1.7852    0.0000 Cl  0  0  0  0  0  0  0  0  0  0  0  0
    4.0087   -1.8280    0.0000 F   0  0  0  0  0  0  0  0  0  0  0  0
    1.9135    0.3741    0.0000 O   0  0  0  0  0  0  0  0  0  0  0  0
   -1.8066    1.2935    0.0000 N   0  0  0  0  0  0  0  0  0  0  0  0
   -1.8921    2.1060    0.0000 N   0  0  0  0  0  0  0  0  0  0  0  0
   -2.7046   -0.4383    0.0000 N   0  0  0  0  0  0  0  0  0  0  0  0
    1.5287    2.5336    0.0000 N   0  0  0  0  0  0  0  0  0  0  0  0
    2.7687    1.8066    0.0000 N   0  0  0  0  0  0  0  0  0  0  0  0
   -4.0087    2.3411    0.0000 N   0  0  0  0  0  0  0  0  0  0  0  0
   -2.4053    0.6735    0.0000 C   0  0  0  0  0  0  0  0  0  0  0  0
   -0.5665    1.8066    0.0000 C   0  0  0  0  0  0  0  0  0  0  0  0
   -0.9728    1.1011    0.0000 C   0  0  0  0  0  0  0  0  0  0  0  0
   -1.9777   -0.0535    0.0000 C   0  0  0  0  0  0  0  0  0  0  0  0
   -3.1108    0.2459    0.0000 C   0  0  0  0  0  0  0  0  0  0  0  0
    0.2459    1.7852    0.0000 C   0  0  0  0  0  0  0  0  0  0  0  0
   -2.6191    1.4645    0.0000 C   0  0  0  0  0  0  0  0  0  0  0  0
   -1.1439    2.3839    0.0000 C   0  0  0  0  0  0  0  0  0  0  0  0
    1.9349   -1.1011    0.0000 C   0  0  0  0  0  0  0  0  0  0  0  0
    1.5073    1.0583    0.0000 C   0  0  0  0  0  0  0  0  0  0  0  0
    0.6735    1.0797    0.0000 C   0  0  0  0  0  0  0  0  0  0  0  0
    1.5073   -0.3741    0.0000 C   0  0  3  0  0  0  0  0  0  0  0  0
    2.7474   -1.1011    0.0000 C   0  0  0  0  0  0  0  0  0  0  0  0
    1.9135    1.8066    0.0000 C   0  0  0  0  0  0  0  0  0  0  0  0
    0.7162    2.4908    0.0000 C   0  0  0  0  0  0  0  0  0  0  0  0
    1.5073   -1.8066    0.0000 C   0  0  0  0  0  0  0  0  0  0  0  0
    3.1536   -1.8066    0.0000 C   0  0  0  0  0  0  0  0  0  0  0  0
    1.9349   -2.5121    0.0000 C   0  0  0  0  0  0  0  0  0  0  0  0
   -3.3460    1.9349    0.0000 C   0  0  0  0  0  0  0  0  0  0  0  0
    2.7474   -2.5336    0.0000 C   0  0  0  0  0  0  0  0  0  0  0  0
    0.6735   -0.3956    0.0000 C   0  0  0  0  0  0  0  0  0  0  0  0
  1 23  1  0  0  0  0
  2 26  1  0  0  0  0
  3 27  1  0  0  0  0
  4 20  1  0  0  0  0
  4 22  1  0  0  0  0
  5  6  1  0  0  0  0
  5 11  1  0  0  0  0
  5 13  1  0  0  0  0
  6 18  2  0  0  0  0
  7 14  1  0  0  0  0
  7 15  1  0  0  0  0
  8 24  1  0  0  0  0
  8 25  2  0  0  0  0
  9 24  1  0  0  0  0
 10 29  3  0  0  0  0
 11 14  1  0  0  0  0
 11 15  1  0  0  0  0
 11 17  1  0  0  0  0
 12 13  2  0  0  0  0
 12 16  1  0  0  0  0
 12 18  1  0  0  0  0
 16 21  2  0  0  0  0
 16 25  1  0  0  0  0
 17 29  1  0  0  0  0
 19 22  1  0  0  0  0
 19 23  2  0  0  0  0
 19 26  1  0  0  0  0
 20 21  1  0  0  0  0
 20 24  2  0  0  0  0
 22 31  1  0  0  0  0
 23 27  1  0  0  0  0
 26 28  2  0  0  0  0
 27 30  2  0  0  0  0
 28 30  1  0  0  0  0
M  END
> <PUBCHEM_COMPOUND_ID_TYPE>
0

> <PUBCHEM_TOTAL_CHARGE>
0

> <PUBCHEM_SUBSTANCE_ID>
310940234

> <PUBCHEM_SUBSTANCE_VERSION>
1

> <PUBCHEM_EXT_DATASOURCE_NAME>
4488

> <PUBCHEM_EXT_DATASOURCE_REGID>
SCHEMBL16118168

> <PUBCHEM_SUBSTANCE_COMMENT>
InChI=1S/C21H19Cl2FN6O/c1-12(18-15(22)2-3-16(24)19(18)23)31-17-6-13(7-28-20(17)26)14-8-29-30(9-14)21(4-5-25)10-27-11-21/h2-3,6-9,12,27H,4,10-11H2,1H3,(H2,26,28)
InChIKey=KPXQUYZZRDDCDW-UHFFFAOYSA-N

> <PUBCHEM_SUBSTANCE_SYNONYM>
SCHEMBL16118168

> <PUBCHEM_XREF_EXT_ID>
SCHEMBL16118168

> <PUBCHEM_EXT_DATASOURCE_URL>
https://www.surechembl.org/

> <PUBCHEM_EXT_SUBSTANCE_URL>
https://www.surechembl.org/chemical/SCHEMBL16118168

> <PUBCHEM_CID_ASSOCIATIONS>
86268566  1

> <PUBCHEM_COORDINATE_TYPE>
1
3

$$$$
