310949531
  -OEChem-07211613022D

 34 35  0     1  0  0  0  0  0999 V2000
   -3.9916   -0.6711    0.0000 O   0  0  0  0  0  0  0  0  0  0  0  0
   -2.5655   -1.4960    0.0000 O   0  0  0  0  0  0  0  0  0  0  0  0
   -1.1255   -0.6711    0.0000 O   0  0  0  0  0  0  0  0  0  0  0  0
   -3.9916    0.9647    0.0000 O   0  0  0  0  0  0  0  0  0  0  0  0
   -3.2786   -0.1957    0.0000 C   0  0  0  0  0  0  0  0  0  0  0  0
   -2.5375   -0.6012    0.0000 C   0  0  0  0  0  0  0  0  0  0  0  0
   -1.8246    0.6292    0.0000 C   0  0  3  0  0  0  0  0  0  0  0  0
   -1.8385   -0.1957    0.0000 C   0  0  3  0  0  0  0  0  0  0  0  0
   -3.2506    0.6151    0.0000 C   0  0  0  0  0  0  0  0  0  0  0  0
   -2.5516    1.0346    0.0000 C   0  0  3  0  0  0  0  0  0  0  0  0
   -1.1115    1.0346    0.0000 C   0  0  0  0  0  0  0  0  0  0  0  0
   -2.5516    1.8734    0.0000 C   0  0  0  0  0  0  0  0  0  0  0  0
   -4.7326   -0.2097    0.0000 C   0  0  0  0  0  0  0  0  0  0  0  0
   -0.3705    0.6292    0.0000 C   0  0  0  0  0  0  0  0  0  0  0  0
   -5.4316   -0.6151    0.0000 C   0  0  0  0  0  0  0  0  0  0  0  0
   -1.7965   -1.8734    0.0000 C   0  0  0  0  0  0  0  0  0  0  0  0
    0.3425    1.0346    0.0000 C   0  0  0  0  0  0  0  0  0  0  0  0
   -6.1586   -0.2237    0.0000 C   0  0  0  0  0  0  0  0  0  0  0  0
   -5.4316   -1.4401    0.0000 C   0  0  0  0  0  0  0  0  0  0  0  0
    1.0695    0.6292    0.0000 C   0  0  0  0  0  0  0  0  0  0  0  0
   -6.8717   -0.6292    0.0000 C   0  0  0  0  0  0  0  0  0  0  0  0
   -6.1586   -1.8455    0.0000 C   0  0  0  0  0  0  0  0  0  0  0  0
    0.3425    1.8734    0.0000 C   0  0  0  0  0  0  0  0  0  0  0  0
   -6.8717   -1.4401    0.0000 C   0  0  0  0  0  0  0  0  0  0  0  0
    1.7686    1.0346    0.0000 C   0  0  0  0  0  0  0  0  0  0  0  0
    2.5236    0.6292    0.0000 C   0  0  0  0  0  0  0  0  0  0  0  0
    3.2366    1.0346    0.0000 C   0  0  0  0  0  0  0  0  0  0  0  0
    3.9636    0.6292    0.0000 C   0  0  0  0  0  0  0  0  0  0  0  0
    3.2366    1.8734    0.0000 C   0  0  0  0  0  0  0  0  0  0  0  0
    4.6627    1.0346    0.0000 C   0  0  0  0  0  0  0  0  0  0  0  0
    5.4176    0.6292    0.0000 C   0  0  0  0  0  0  0  0  0  0  0  0
    6.1167    1.0486    0.0000 C   0  0  0  0  0  0  0  0  0  0  0  0
    6.1307    1.8734    0.0000 C   0  0  0  0  0  0  0  0  0  0  0  0
    6.8717    0.6292    0.0000 C   0  0  0  0  0  0  0  0  0  0  0  0
  1  5  1  0  0  0  0
  1 13  1  0  0  0  0
  2  6  1  0  0  0  0
  2 16  1  0  0  0  0
  3  8  1  0  0  0  0
  4  9  2  0  0  0  0
  5  6  2  0  0  0  0
  5  9  1  0  0  0  0
  6  8  1  0  0  0  0
  7  8  1  0  0  0  0
  7 10  1  0  0  0  0
  7 11  1  0  0  0  0
  9 10  1  0  0  0  0
 10 12  1  0  0  0  0
 11 14  1  0  0  0  0
 13 15  1  0  0  0  0
 14 17  2  0  0  0  0
 15 18  2  0  0  0  0
 15 19  1  0  0  0  0
 17 20  1  0  0  0  0
 17 23  1  0  0  0  0
 18 21  1  0  0  0  0
 19 22  2  0  0  0  0
 20 25  1  0  0  0  0
 21 24  2  0  0  0  0
 22 24  1  0  0  0  0
 25 26  1  0  0  0  0
 26 27  2  0  0  0  0
 27 28  1  0  0  0  0
 27 29  1  0  0  0  0
 28 30  1  0  0  0  0
 30 31  1  0  0  0  0
 31 32  2  0  0  0  0
 32 33  1  0  0  0  0
 32 34  1  0  0  0  0
M  END
> <PUBCHEM_COMPOUND_ID_TYPE>
0

> <PUBCHEM_TOTAL_CHARGE>
0

> <PUBCHEM_SUBSTANCE_ID>
310949531

> <PUBCHEM_SUBSTANCE_VERSION>
1

> <PUBCHEM_EXT_DATASOURCE_NAME>
4488

> <PUBCHEM_EXT_DATASOURCE_REGID>
SCHEMBL16127726

> <PUBCHEM_SUBSTANCE_COMMENT>
InChI=1S/C30H42O4/c1-21(2)12-10-13-22(3)14-11-15-23(4)18-19-26-24(5)27(31)30(29(33-6)28(26)32)34-20-25-16-8-7-9-17-25/h7-9,12,14,16-18,24,26,28,32H,10-11,13,15,19-20H2,1-6H3/b22-14+,23-18+
InChIKey=RNSFJWCEBWZUBI-BSEQPRGQSA-N

> <PUBCHEM_SUBSTANCE_SYNONYM>
SCHEMBL16127726

> <PUBCHEM_XREF_EXT_ID>
SCHEMBL16127726

> <PUBCHEM_EXT_DATASOURCE_URL>
https://www.surechembl.org/

> <PUBCHEM_EXT_SUBSTANCE_URL>
https://www.surechembl.org/chemical/SCHEMBL16127726

> <PUBCHEM_CID_ASSOCIATIONS>
78320126  1

> <PUBCHEM_COORDINATE_TYPE>
1
3

$$$$
