310938112
  -OEChem-07211613022D

 31 34  0     1  0  0  0  0  0999 V2000
   -5.8336    3.2419    0.0000 O   0  0  0  0  0  0  0  0  0  0  0  0
   -5.6843    4.6630    0.0000 O   0  0  0  0  0  0  0  0  0  0  0  0
    0.0000    0.0000    0.0000 N   0  0  0  0  0  0  0  0  0  0  0  0
    1.4289    0.0000    0.0000 N   0  0  0  0  0  0  0  0  0  0  0  0
   -3.0366    2.2295    0.0000 N   0  0  3  0  0  0  0  0  0  0  0  0
    0.7145   -0.4125    0.0000 C   0  0  0  0  0  0  0  0  0  0  0  0
    0.7145   -1.2375    0.0000 C   0  0  0  0  0  0  0  0  0  0  0  0
   -0.7145   -0.4125    0.0000 C   0  0  0  0  0  0  0  0  0  0  0  0
    0.0000   -1.6500    0.0000 C   0  0  0  0  0  0  0  0  0  0  0  0
   -2.1434    1.2375    0.0000 C   0  0  3  0  0  0  0  0  0  0  0  0
   -0.7145   -1.2375    0.0000 C   0  0  0  0  0  0  0  0  0  0  0  0
   -1.4289   -0.0000    0.0000 C   0  0  0  0  0  0  0  0  0  0  0  0
    1.4289   -1.6500    0.0000 C   0  0  0  0  0  0  0  0  0  0  0  0
   -1.4289    0.8250    0.0000 C   0  0  0  0  0  0  0  0  0  0  0  0
   -2.2296    2.0580    0.0000 C   0  0  0  0  0  0  0  0  0  0  0  0
   -2.8971    0.9019    0.0000 C   0  0  0  0  0  0  0  0  0  0  0  0
   -3.4491    1.5150    0.0000 C   0  0  0  0  0  0  0  0  0  0  0  0
    2.1434   -0.4125    0.0000 C   0  0  0  0  0  0  0  0  0  0  0  0
    2.1434   -1.2375    0.0000 C   0  0  0  0  0  0  0  0  0  0  0  0
   -3.3722    2.9832    0.0000 C   0  0  0  0  0  0  0  0  0  0  0  0
   -4.1927    3.0694    0.0000 C   0  0  0  0  0  0  0  0  0  0  0  0
   -5.3487    3.9093    0.0000 C   0  0  0  0  0  0  0  0  0  0  0  0
   -6.6541    3.3281    0.0000 C   0  0  0  0  0  0  0  0  0  0  0  0
   -4.5282    3.8231    0.0000 C   0  0  0  0  0  0  0  0  0  0  0  0
   -7.0478    2.6031    0.0000 C   0  0  0  0  0  0  0  0  0  0  0  0
   -6.8884    4.1192    0.0000 C   0  0  0  0  0  0  0  0  0  0  0  0
   -7.8388    2.3688    0.0000 C   0  0  0  0  0  0  0  0  0  0  0  0
   -7.6134    4.5128    0.0000 C   0  0  0  0  0  0  0  0  0  0  0  0
   -8.5638    2.7624    0.0000 C   0  0  0  0  0  0  0  0  0  0  0  0
   -8.4045    4.2785    0.0000 C   0  0  0  0  0  0  0  0  0  0  0  0
   -8.7981    3.5535    0.0000 C   0  0  0  0  0  0  0  0  0  0  0  0
  1 22  1  0  0  0  0
  1 23  1  0  0  0  0
  2 22  2  0  0  0  0
  3  6  1  0  0  0  0
  3  8  2  0  0  0  0
  4  6  1  0  0  0  0
  4 18  2  0  0  0  0
  5 15  1  0  0  0  0
  5 17  1  0  0  0  0
  5 20  1  0  0  0  0
  6  7  2  0  0  0  0
  7  9  1  0  0  0  0
  7 13  1  0  0  0  0
  8 11  1  0  0  0  0
  8 12  1  0  0  0  0
  9 11  2  0  0  0  0
 10 14  1  0  0  0  0
 10 15  1  0  0  0  0
 10 16  1  0  0  0  0
 12 14  1  0  0  0  0
 13 19  2  0  0  0  0
 16 17  1  0  0  0  0
 18 19  1  0  0  0  0
 20 21  1  0  0  0  0
 21 24  2  0  0  0  0
 22 24  1  0  0  0  0
 23 25  2  0  0  0  0
 23 26  1  0  0  0  0
 25 27  1  0  0  0  0
 26 28  1  0  0  0  0
 27 29  2  0  0  0  0
 28 30  1  0  0  0  0
 29 31  1  0  0  0  0
 30 31  1  0  0  0  0
M  END
> <PUBCHEM_COMPOUND_ID_TYPE>
0

> <PUBCHEM_TOTAL_CHARGE>
0

> <PUBCHEM_SUBSTANCE_ID>
310938112

> <PUBCHEM_SUBSTANCE_VERSION>
1

> <PUBCHEM_EXT_DATASOURCE_NAME>
4488

> <PUBCHEM_EXT_DATASOURCE_REGID>
SCHEMBL16115961

> <PUBCHEM_SUBSTANCE_COMMENT>
InChI=1S/C26H31N3O2/c30-25(31-24-9-4-2-1-3-5-10-24)11-7-18-29-19-16-21(20-29)12-14-23-15-13-22-8-6-17-27-26(22)28-23/h2,4,6-9,11,13,15,17,21H,1,3,5,10,12,14,16,18-20H2
InChIKey=RLVQFNXHFYVQCG-UHFFFAOYSA-N

> <PUBCHEM_SUBSTANCE_SYNONYM>
SCHEMBL16115961

> <PUBCHEM_XREF_EXT_ID>
SCHEMBL16115961

> <PUBCHEM_EXT_DATASOURCE_URL>
https://www.surechembl.org/

> <PUBCHEM_EXT_SUBSTANCE_URL>
https://www.surechembl.org/chemical/SCHEMBL16115961

> <PUBCHEM_CID_ASSOCIATIONS>
117605674  1

> <PUBCHEM_COORDINATE_TYPE>
1
3

> <PUBCHEM_BONDANNOTATIONS>
24  22  3
25  27  3
29  31  3

$$$$
