310932087
  -OEChem-07211613022D

 22 21  0     1  0  0  0  0  0999 V2000
    3.7125    0.1105    0.0000 F   0  0  0  0  0  0  0  0  0  0  0  0
    3.7125   -1.5395    0.0000 F   0  0  0  0  0  0  0  0  0  0  0  0
    4.5375   -1.5395    0.0000 F   0  0  0  0  0  0  0  0  0  0  0  0
    2.8875    0.1105    0.0000 F   0  0  0  0  0  0  0  0  0  0  0  0
    2.8875   -1.5395    0.0000 F   0  0  0  0  0  0  0  0  0  0  0  0
    5.3625    0.1105    0.0000 F   0  0  0  0  0  0  0  0  0  0  0  0
    5.3625   -1.5395    0.0000 F   0  0  0  0  0  0  0  0  0  0  0  0
    2.0625   -1.5395    0.0000 F   0  0  0  0  0  0  0  0  0  0  0  0
    2.0625    0.1105    0.0000 F   0  0  0  0  0  0  0  0  0  0  0  0
    7.0125   -0.7145    0.0000 F   0  0  0  0  0  0  0  0  0  0  0  0
    6.1875    0.1105    0.0000 F   0  0  0  0  0  0  0  0  0  0  0  0
    6.1875   -1.5395    0.0000 F   0  0  0  0  0  0  0  0  0  0  0  0
    0.0000    0.0000    0.0000 O   0  0  0  0  0  0  0  0  0  0  0  0
    3.7125   -0.7145    0.0000 C   0  0  0  0  0  0  0  0  0  0  0  0
    4.5375   -0.7145    0.0000 C   0  0  3  0  0  0  0  0  0  0  0  0
    2.8875   -0.7145    0.0000 C   0  0  0  0  0  0  0  0  0  0  0  0
    5.3625   -0.7145    0.0000 C   0  0  0  0  0  0  0  0  0  0  0  0
    2.0625   -0.7145    0.0000 C   0  0  0  0  0  0  0  0  0  0  0  0
    6.1875   -0.7145    0.0000 C   0  0  0  0  0  0  0  0  0  0  0  0
    4.5375    0.1105    0.0000 C   0  0  0  0  0  0  0  0  0  0  0  0
    1.2375   -0.7145    0.0000 C   0  0  0  0  0  0  0  0  0  0  0  0
    0.8250    0.0000    0.0000 C   0  0  0  0  0  0  0  0  0  0  0  0
  1 14  1  0  0  0  0
  2 14  1  0  0  0  0
  3 15  1  0  0  0  0
  4 16  1  0  0  0  0
  5 16  1  0  0  0  0
  6 17  1  0  0  0  0
  7 17  1  0  0  0  0
  8 18  1  0  0  0  0
  9 18  1  0  0  0  0
 10 19  1  0  0  0  0
 11 19  1  0  0  0  0
 12 19  1  0  0  0  0
 13 22  1  0  0  0  0
 14 15  1  0  0  0  0
 14 16  1  0  0  0  0
 15 17  1  0  0  0  0
 15 20  1  0  0  0  0
 16 18  1  0  0  0  0
 17 19  1  0  0  0  0
 18 21  1  0  0  0  0
 21 22  1  0  0  0  0
M  END
> <PUBCHEM_COMPOUND_ID_TYPE>
0

> <PUBCHEM_TOTAL_CHARGE>
0

> <PUBCHEM_SUBSTANCE_ID>
310932087

> <PUBCHEM_SUBSTANCE_VERSION>
1

> <PUBCHEM_EXT_DATASOURCE_NAME>
4488

> <PUBCHEM_EXT_DATASOURCE_REGID>
SCHEMBL16109435

> <PUBCHEM_SUBSTANCE_COMMENT>
InChI=1S/C9H8F12O/c1-4(10,7(15,16)9(19,20)21)6(13,14)8(17,18)5(11,12)2-3-22/h22H,2-3H2,1H3
InChIKey=YJNAGZYYJPQWGW-UHFFFAOYSA-N

> <PUBCHEM_SUBSTANCE_SYNONYM>
SCHEMBL16109435

> <PUBCHEM_XREF_EXT_ID>
SCHEMBL16109435

> <PUBCHEM_EXT_DATASOURCE_URL>
https://www.surechembl.org/

> <PUBCHEM_EXT_SUBSTANCE_URL>
https://www.surechembl.org/chemical/SCHEMBL16109435

> <PUBCHEM_CID_ASSOCIATIONS>
110094  1

> <PUBCHEM_COORDINATE_TYPE>
1
3

$$$$
