310947725
  -OEChem-07211613022D

 18 19  0     1  0  0  0  0  0999 V2000
   -1.8564   -1.1769    0.0000 N   0  0  0  0  0  0  0  0  0  0  0  0
   -1.3715   -1.8444    0.0000 N   0  0  0  0  0  0  0  0  0  0  0  0
    0.8420   -0.7644    0.0000 N   0  0  3  0  0  0  0  0  0  0  0  0
   -1.3294    1.6728    0.0000 N   0  0  0  0  0  0  0  0  0  0  0  0
    2.9855   -0.3519    0.0000 N   0  0  0  0  0  0  0  0  0  0  0  0
   -1.3715   -0.5095    0.0000 C   0  0  0  0  0  0  0  0  0  0  0  0
   -1.6265    0.2751    0.0000 C   0  0  0  0  0  0  0  0  0  0  0  0
   -0.5869   -0.7644    0.0000 C   0  0  0  0  0  0  0  0  0  0  0  0
   -2.4334    0.4467    0.0000 C   0  0  0  0  0  0  0  0  0  0  0  0
   -0.5869   -1.5894    0.0000 C   0  0  0  0  0  0  0  0  0  0  0  0
    0.1276   -0.3519    0.0000 C   0  0  0  0  0  0  0  0  0  0  0  0
   -1.0744    0.8882    0.0000 C   0  0  0  0  0  0  0  0  0  0  0  0
   -2.6884    1.2313    0.0000 C   0  0  0  0  0  0  0  0  0  0  0  0
   -2.1363    1.8444    0.0000 C   0  0  0  0  0  0  0  0  0  0  0  0
   -2.9855   -0.1664    0.0000 C   0  0  0  0  0  0  0  0  0  0  0  0
    1.5565   -0.3519    0.0000 C   0  0  0  0  0  0  0  0  0  0  0  0
    0.8420   -1.5894    0.0000 C   0  0  0  0  0  0  0  0  0  0  0  0
    2.2710   -0.7644    0.0000 C   0  0  0  0  0  0  0  0  0  0  0  0
  1  2  1  0  0  0  0
  1  6  2  0  0  0  0
  2 10  1  0  0  0  0
  3 11  1  0  0  0  0
  3 16  1  0  0  0  0
  3 17  1  0  0  0  0
  4 12  2  0  0  0  0
  4 14  1  0  0  0  0
  5 18  1  0  0  0  0
  6  7  1  0  0  0  0
  6  8  1  0  0  0  0
  7  9  2  0  0  0  0
  7 12  1  0  0  0  0
  8 10  2  0  0  0  0
  8 11  1  0  0  0  0
  9 13  1  0  0  0  0
  9 15  1  0  0  0  0
 13 14  2  0  0  0  0
 16 18  1  0  0  0  0
M  END
> <PUBCHEM_COMPOUND_ID_TYPE>
0

> <PUBCHEM_TOTAL_CHARGE>
0

> <PUBCHEM_SUBSTANCE_ID>
310947725

> <PUBCHEM_SUBSTANCE_VERSION>
1

> <PUBCHEM_EXT_DATASOURCE_NAME>
4488

> <PUBCHEM_EXT_DATASOURCE_REGID>
SCHEMBL16125897

> <PUBCHEM_SUBSTANCE_COMMENT>
InChI=1S/C13H19N5/c1-10-3-5-15-8-12(10)13-11(7-16-17-13)9-18(2)6-4-14/h3,5,7-8H,4,6,9,14H2,1-2H3,(H,16,17)
InChIKey=UQRWUHPYAXQPIQ-UHFFFAOYSA-N

> <PUBCHEM_SUBSTANCE_SYNONYM>
SCHEMBL16125897

> <PUBCHEM_XREF_EXT_ID>
SCHEMBL16125897

> <PUBCHEM_EXT_DATASOURCE_URL>
https://www.surechembl.org/

> <PUBCHEM_EXT_SUBSTANCE_URL>
https://www.surechembl.org/chemical/SCHEMBL16125897

> <PUBCHEM_CID_ASSOCIATIONS>
86301690  1

> <PUBCHEM_COORDINATE_TYPE>
1
3

$$$$
