310939631
  -OEChem-07211613022D

 29 31  0     1  0  0  0  0  0999 V2000
   -1.0717   -9.7389    0.0000 O   0  0  0  0  0  0  0  0  0  0  0  0
   -2.5006  -10.5639    0.0000 O   0  0  0  0  0  0  0  0  0  0  0  0
    2.5006   -9.3264    0.0000 N   0  0  0  0  0  0  0  0  0  0  0  0
    1.7862  -10.5639    0.0000 N   0  0  0  0  0  0  0  0  0  0  0  0
    3.9296   -9.3264    0.0000 N   0  0  0  0  0  0  0  0  0  0  0  0
    2.5006  -11.8014    0.0000 N   0  0  0  0  0  0  0  0  0  0  0  0
   -3.9296   -9.7389    0.0000 N   0  0  0  0  0  0  0  0  0  0  0  0
    1.7862   -9.7389    0.0000 C   0  0  0  0  0  0  0  0  0  0  0  0
    1.0717   -9.3264    0.0000 C   0  0  0  0  0  0  0  0  0  0  0  0
    3.2151   -9.7389    0.0000 C   0  0  0  0  0  0  0  0  0  0  0  0
    2.5006  -10.9764    0.0000 C   0  0  0  0  0  0  0  0  0  0  0  0
    3.2151  -10.5639    0.0000 C   0  0  0  0  0  0  0  0  0  0  0  0
    0.3572   -9.7389    0.0000 C   0  0  0  0  0  0  0  0  0  0  0  0
   -0.3572   -9.3264    0.0000 C   0  0  0  0  0  0  0  0  0  0  0  0
    1.0717   -8.5014    0.0000 C   0  0  0  0  0  0  0  0  0  0  0  0
    3.2151  -12.2139    0.0000 C   0  0  0  0  0  0  0  0  0  0  0  0
   -0.3572   -8.5014    0.0000 C   0  0  0  0  0  0  0  0  0  0  0  0
    0.3572   -8.0889    0.0000 C   0  0  0  0  0  0  0  0  0  0  0  0
    3.2151  -13.0389    0.0000 C   0  0  0  0  0  0  0  0  0  0  0  0
    3.9296  -11.8014    0.0000 C   0  0  0  0  0  0  0  0  0  0  0  0
    4.6441   -9.7389    0.0000 C   0  0  0  0  0  0  0  0  0  0  0  0
    3.9296   -8.5014    0.0000 C   0  0  0  0  0  0  0  0  0  0  0  0
   -1.7862   -9.3264    0.0000 C   0  0  0  0  0  0  0  0  0  0  0  0
    3.9296  -13.4514    0.0000 C   0  0  0  0  0  0  0  0  0  0  0  0
    4.6441  -12.2139    0.0000 C   0  0  0  0  0  0  0  0  0  0  0  0
   -2.5006   -9.7389    0.0000 C   0  0  3  0  0  0  0  0  0  0  0  0
    4.6441  -13.0389    0.0000 C   0  0  0  0  0  0  0  0  0  0  0  0
   -3.2151   -9.3264    0.0000 C   0  0  0  0  0  0  0  0  0  0  0  0
   -4.6441   -9.3264    0.0000 C   0  0  0  0  0  0  0  0  0  0  0  0
  1 14  1  0  0  0  0
  1 23  1  0  0  0  0
  2 26  1  0  0  0  0
  3  8  2  0  0  0  0
  3 10  1  0  0  0  0
  4  8  1  0  0  0  0
  4 11  2  0  0  0  0
  5 10  1  0  0  0  0
  5 21  1  0  0  0  0
  5 22  1  0  0  0  0
  6 11  1  0  0  0  0
  6 16  1  0  0  0  0
  7 28  1  0  0  0  0
  7 29  1  0  0  0  0
  8  9  1  0  0  0  0
  9 13  2  0  0  0  0
  9 15  1  0  0  0  0
 10 12  2  0  0  0  0
 11 12  1  0  0  0  0
 13 14  1  0  0  0  0
 14 17  2  0  0  0  0
 15 18  2  0  0  0  0
 16 19  1  0  0  0  0
 16 20  1  0  0  0  0
 17 18  1  0  0  0  0
 19 24  1  0  0  0  0
 20 25  1  0  0  0  0
 23 26  1  0  0  0  0
 24 27  1  0  0  0  0
 25 27  1  0  0  0  0
 26 28  1  0  0  0  0
M  END
> <PUBCHEM_COMPOUND_ID_TYPE>
0

> <PUBCHEM_TOTAL_CHARGE>
0

> <PUBCHEM_SUBSTANCE_ID>
310939631

> <PUBCHEM_SUBSTANCE_VERSION>
1

> <PUBCHEM_EXT_DATASOURCE_NAME>
4488

> <PUBCHEM_EXT_DATASOURCE_REGID>
SCHEMBL16117561

> <PUBCHEM_SUBSTANCE_COMMENT>
InChI=1S/C22H33N5O2/c1-23-14-18(28)15-29-19-11-7-8-16(12-19)22-25-20(13-21(26-22)27(2)3)24-17-9-5-4-6-10-17/h7-8,11-13,17-18,23,28H,4-6,9-10,14-15H2,1-3H3,(H,24,25,26)
InChIKey=BEIVWGRVSBYBKJ-UHFFFAOYSA-N

> <PUBCHEM_SUBSTANCE_SYNONYM>
SCHEMBL16117561

> <PUBCHEM_XREF_EXT_ID>
SCHEMBL16117561

> <PUBCHEM_EXT_DATASOURCE_URL>
https://www.surechembl.org/

> <PUBCHEM_EXT_SUBSTANCE_URL>
https://www.surechembl.org/chemical/SCHEMBL16117561

> <PUBCHEM_CID_ASSOCIATIONS>
117606871  1

> <PUBCHEM_COORDINATE_TYPE>
1
3

$$$$
