310937084
  -OEChem-07211613022D

 16 17  0     1  0  0  0  0  0999 V2000
    1.6682   -3.6181    0.0000 S   0  0  0  0  0  0  0  0  0  0  0  0
    1.2349   -2.8815    0.0000 O   0  0  0  0  0  0  0  0  0  0  0  0
    0.0867   -2.4482    0.0000 O   0  0  0  0  0  0  0  0  0  0  0  0
    1.5599   -2.4482    0.0000 O   0  0  0  0  0  0  0  0  0  0  0  0
    0.9316   -4.0514    0.0000 O   0  0  0  0  0  0  0  0  0  0  0  0
    2.4048   -3.1848    0.0000 O   0  0  0  0  0  0  0  0  0  0  0  0
    0.8233   -1.1916    0.0000 N   0  0  0  0  0  0  0  0  0  0  0  0
    1.6465   -0.7150    0.0000 C   0  0  3  0  0  0  0  0  0  0  0  0
    0.0000   -0.7150    0.0000 C   0  0  3  0  0  0  0  0  0  0  0  0
    1.2349   -1.4299    0.0000 C   0  0  3  0  0  0  0  0  0  0  0  0
    0.4116   -1.4299    0.0000 C   0  0  0  0  0  0  0  0  0  0  0  0
    1.2349    0.0000    0.0000 C   0  0  0  0  0  0  0  0  0  0  0  0
    0.4116    0.0000    0.0000 C   0  0  0  0  0  0  0  0  0  0  0  0
    0.8233   -2.0365    0.0000 C   0  0  0  0  0  0  0  0  0  0  0  0
    1.6682   -2.1448    0.0000 C   0  0  0  0  0  0  0  0  0  0  0  0
    2.1015   -4.3331    0.0000 C   0  0  0  0  0  0  0  0  0  0  0  0
  1  2  1  0  0  0  0
  1  5  2  0  0  0  0
  1  6  2  0  0  0  0
  1 16  1  0  0  0  0
  2 15  1  0  0  0  0
  3 14  2  0  0  0  0
  4 14  1  0  0  0  0
  7  8  1  0  0  0  0
  7  9  1  0  0  0  0
  7 14  1  0  0  0  0
  8 10  1  0  0  0  0
  8 12  1  0  0  0  0
  9 11  1  0  0  0  0
  9 13  1  0  0  0  0
 10 11  1  0  0  0  0
 10 15  1  0  0  0  0
 12 13  1  0  0  0  0
M  END
> <PUBCHEM_COMPOUND_ID_TYPE>
0

> <PUBCHEM_TOTAL_CHARGE>
0

> <PUBCHEM_SUBSTANCE_ID>
310937084

> <PUBCHEM_SUBSTANCE_VERSION>
1

> <PUBCHEM_EXT_DATASOURCE_NAME>
4488

> <PUBCHEM_EXT_DATASOURCE_REGID>
SCHEMBL16114797

> <PUBCHEM_SUBSTANCE_COMMENT>
InChI=1S/C9H15NO5S/c1-16(13,14)15-5-6-4-7-2-3-8(6)10(7)9(11)12/h6-8H,2-5H2,1H3,(H,11,12)
InChIKey=TVKGVYZOKRRSMQ-UHFFFAOYSA-N

> <PUBCHEM_SUBSTANCE_SYNONYM>
SCHEMBL16114797

> <PUBCHEM_XREF_EXT_ID>
SCHEMBL16114797

> <PUBCHEM_EXT_DATASOURCE_URL>
https://www.surechembl.org/

> <PUBCHEM_EXT_SUBSTANCE_URL>
https://www.surechembl.org/chemical/SCHEMBL16114797

> <PUBCHEM_CID_ASSOCIATIONS>
117604921  1

> <PUBCHEM_COORDINATE_TYPE>
1
3

$$$$
