310946467
  -OEChem-07211613022D

 16 16  0     1  0  0  0  0  0999 V2000
   -1.4233  -10.2771    0.0000 O   0  0  0  0  0  0  0  0  0  0  0  0
   -2.1378  -11.5146    0.0000 O   0  0  0  0  0  0  0  0  0  0  0  0
   -3.5667   -9.0396    0.0000 O   0  0  0  0  0  0  0  0  0  0  0  0
   -3.5667  -10.6896    0.0000 N   0  0  0  0  0  0  0  0  0  0  0  0
    0.0057  -10.2771    0.0000 C   0  0  0  0  0  0  0  0  0  0  0  0
   -2.1378  -10.6896    0.0000 C   0  0  0  0  0  0  0  0  0  0  0  0
   -2.8522  -10.2771    0.0000 C   0  0  3  0  0  0  0  0  0  0  0  0
   -0.7088  -10.6896    0.0000 C   0  0  0  0  0  0  0  0  0  0  0  0
    1.4346   -9.4521    0.0000 C   0  0  0  0  0  0  0  0  0  0  0  0
    0.7201  -10.6896    0.0000 C   0  0  0  0  0  0  0  0  0  0  0  0
    0.0057   -9.4521    0.0000 C   0  0  0  0  0  0  0  0  0  0  0  0
    1.4346  -10.2771    0.0000 C   0  0  0  0  0  0  0  0  0  0  0  0
    0.7201   -9.0396    0.0000 C   0  0  0  0  0  0  0  0  0  0  0  0
   -2.8522   -9.4521    0.0000 C   0  0  0  0  0  0  0  0  0  0  0  0
    2.1491   -9.0396    0.0000 C   0  0  0  0  0  0  0  0  0  0  0  0
    2.8635   -9.4521    0.0000 C   0  0  0  0  0  0  0  0  0  0  0  0
  1  6  1  0  0  0  0
  1  8  1  0  0  0  0
  2  6  2  0  0  0  0
  3 14  1  0  0  0  0
  4  7  1  0  0  0  0
  5  8  1  0  0  0  0
  5 10  2  0  0  0  0
  5 11  1  0  0  0  0
  6  7  1  0  0  0  0
  7 14  1  0  0  0  0
  9 12  2  0  0  0  0
  9 13  1  0  0  0  0
  9 15  1  0  0  0  0
 10 12  1  0  0  0  0
 11 13  2  0  0  0  0
 15 16  1  0  0  0  0
M  END
> <PUBCHEM_COMPOUND_ID_TYPE>
0

> <PUBCHEM_TOTAL_CHARGE>
0

> <PUBCHEM_SUBSTANCE_ID>
310946467

> <PUBCHEM_SUBSTANCE_VERSION>
1

> <PUBCHEM_EXT_DATASOURCE_NAME>
4488

> <PUBCHEM_EXT_DATASOURCE_REGID>
SCHEMBL16124588

> <PUBCHEM_SUBSTANCE_COMMENT>
InChI=1S/C12H17NO3/c1-2-9-3-5-10(6-4-9)8-16-12(15)11(13)7-14/h3-6,11,14H,2,7-8,13H2,1H3
InChIKey=QKLOLLSZABHDCD-UHFFFAOYSA-N

> <PUBCHEM_SUBSTANCE_SYNONYM>
SCHEMBL16124588

> <PUBCHEM_XREF_EXT_ID>
SCHEMBL16124588

> <PUBCHEM_EXT_DATASOURCE_URL>
https://www.surechembl.org/

> <PUBCHEM_EXT_SUBSTANCE_URL>
https://www.surechembl.org/chemical/SCHEMBL16124588

> <PUBCHEM_CID_ASSOCIATIONS>
117612377  1

> <PUBCHEM_COORDINATE_TYPE>
1
3

$$$$
