310940426
  -OEChem-07211613022D

 14 13  0     1  0  0  0  0  0999 V2000
   -0.3674    0.2117    0.0000 S   0  0  0  0  0  0  0  0  0  0  0  0
    0.3550   -0.2117    0.0000 S   0  0  0  0  0  0  0  0  0  0  0  0
   -2.5219   -1.0336    0.0000 O   0  0  0  0  0  0  0  0  0  0  0  0
   -3.2441    0.2117    0.0000 O   0  0  0  0  0  0  0  0  0  0  0  0
    2.5094    1.0336    0.0000 O   0  0  0  0  0  0  0  0  0  0  0  0
   -1.5380    1.0336    0.0000 N   0  0  0  0  0  0  0  0  0  0  0  0
   -1.7995    0.2117    0.0000 C   0  0  3  0  0  0  0  0  0  0  0  0
   -2.5094   -0.1869    0.0000 C   0  0  0  0  0  0  0  0  0  0  0  0
    1.7995   -0.1993    0.0000 C   0  0  3  0  0  0  0  0  0  0  0  0
   -1.0648   -0.1993    0.0000 C   0  0  0  0  0  0  0  0  0  0  0  0
    1.0772    0.2117    0.0000 C   0  0  0  0  0  0  0  0  0  0  0  0
    2.5219    0.1993    0.0000 C   0  0  0  0  0  0  0  0  0  0  0  0
    1.8120   -0.8468    0.0000 C   0  0  0  0  0  0  0  0  0  0  0  0
    3.2441   -0.1993    0.0000 C   0  0  0  0  0  0  0  0  0  0  0  0
  1  2  1  0  0  0  0
  1 10  1  0  0  0  0
  2 11  1  0  0  0  0
  3  8  2  0  0  0  0
  4  8  1  0  0  0  0
  5 12  2  0  0  0  0
  6  7  1  0  0  0  0
  7  8  1  0  0  0  0
  7 10  1  0  0  0  0
  9 11  1  0  0  0  0
  9 12  1  0  0  0  0
  9 13  1  0  0  0  0
 12 14  1  0  0  0  0
M  END
> <PUBCHEM_COMPOUND_ID_TYPE>
0

> <PUBCHEM_TOTAL_CHARGE>
0

> <PUBCHEM_SUBSTANCE_ID>
310940426

> <PUBCHEM_SUBSTANCE_VERSION>
1

> <PUBCHEM_EXT_DATASOURCE_NAME>
4488

> <PUBCHEM_EXT_DATASOURCE_REGID>
SCHEMBL16118377

> <PUBCHEM_SUBSTANCE_COMMENT>
InChI=1S/C8H15NO3S2/c1-5(6(2)10)3-13-14-4-7(9)8(11)12/h5,7H,3-4,9H2,1-2H3,(H,11,12)
InChIKey=WUSPDWAKGKDJGY-UHFFFAOYSA-N

> <PUBCHEM_SUBSTANCE_SYNONYM>
SCHEMBL16118377

> <PUBCHEM_XREF_EXT_ID>
SCHEMBL16118377

> <PUBCHEM_EXT_DATASOURCE_URL>
https://www.surechembl.org/

> <PUBCHEM_EXT_SUBSTANCE_URL>
https://www.surechembl.org/chemical/SCHEMBL16118377

> <PUBCHEM_CID_ASSOCIATIONS>
117607451  1

> <PUBCHEM_COORDINATE_TYPE>
1
3

$$$$
