310946887
  -OEChem-07211613022D

 47 50  0     1  0  0  0  0  0999 V2000
    0.6017    3.0653    0.0000 S   0  0  0  0  0  0  0  0  0  0  0  0
    2.2704    3.0653    0.0000 F   0  0  0  0  0  0  0  0  0  0  0  0
    3.6021   -0.9781    0.0000 O   0  0  0  0  0  0  0  0  0  0  0  0
    1.1832   -4.9384    0.0000 O   0  0  0  0  0  0  0  0  0  0  0  0
   -0.1203    2.6481    0.0000 O   0  0  0  0  0  0  0  0  0  0  0  0
    1.3238    3.4825    0.0000 O   0  0  0  0  0  0  0  0  0  0  0  0
    0.6732   -5.7769    0.0000 O   0  0  0  0  0  0  0  0  0  0  0  0
   -2.7036    4.6217    0.0000 O   0  0  0  0  0  0  0  0  0  0  0  0
   -1.7891    5.7769    0.0000 O   0  0  0  0  0  0  0  0  0  0  0  0
    0.8424   -1.4114    0.0000 N   0  0  0  0  0  0  0  0  0  0  0  0
    1.0189   -0.5931    0.0000 N   0  0  0  0  0  0  0  0  0  0  0  0
    2.2704    0.2092    0.0000 N   0  0  0  0  0  0  0  0  0  0  0  0
    3.1529   -2.3259    0.0000 N   0  0  0  0  0  0  0  0  0  0  0  0
   -0.8905   -3.0800    0.0000 N   0  0  0  0  0  0  0  0  0  0  0  0
    0.1845    3.7874    0.0000 N   0  0  0  0  0  0  0  0  0  0  0  0
   -1.1794    0.0166    0.0000 N   0  0  0  0  0  0  0  0  0  0  0  0
    0.0882   -1.7323    0.0000 C   0  0  0  0  0  0  0  0  0  0  0  0
    1.5644   -1.8125    0.0000 C   0  0  0  0  0  0  0  0  0  0  0  0
    2.1902   -1.2509    0.0000 C   0  0  0  0  0  0  0  0  0  0  0  0
    1.8372   -0.5128    0.0000 C   0  0  0  0  0  0  0  0  0  0  0  0
    2.9603   -1.5397    0.0000 C   0  0  0  0  0  0  0  0  0  0  0  0
    0.4252   -2.4864    0.0000 C   0  0  0  0  0  0  0  0  0  0  0  0
   -0.7300   -1.6520    0.0000 C   0  0  0  0  0  0  0  0  0  0  0  0
    1.7570   -2.6147    0.0000 C   0  0  0  0  0  0  0  0  0  0  0  0
    0.1845   -0.9140    0.0000 C   0  0  0  0  0  0  0  0  0  0  0  0
    1.8532    0.9313    0.0000 C   0  0  0  0  0  0  0  0  0  0  0  0
    2.5432   -2.8715    0.0000 C   0  0  0  0  0  0  0  0  0  0  0  0
   -0.0562   -3.1603    0.0000 C   0  0  0  0  0  0  0  0  0  0  0  0
   -1.2114   -2.3420    0.0000 C   0  0  0  0  0  0  0  0  0  0  0  0
    1.0189    2.3593    0.0000 C   0  0  0  0  0  0  0  0  0  0  0  0
    1.8372    2.3593    0.0000 C   0  0  0  0  0  0  0  0  0  0  0  0
    2.2544    1.6212    0.0000 C   0  0  0  0  0  0  0  0  0  0  0  0
    1.0189    0.9473    0.0000 C   0  0  0  0  0  0  0  0  0  0  0  0
   -0.5054   -0.4326    0.0000 C   0  0  0  0  0  0  0  0  0  0  0  0
    0.6732   -5.2331    0.0000 C   0  0  0  0  0  0  0  0  0  0  0  0
    0.6177    1.6212    0.0000 C   0  0  0  0  0  0  0  0  0  0  0  0
   -0.6498    3.8034    0.0000 C   0  0  3  0  0  0  0  0  0  0  0  0
    1.1945   -4.3719    0.0000 C   0  0  0  0  0  0  0  0  0  0  0  0
   -1.8853    4.9586    0.0000 C   0  0  0  0  0  0  0  0  0  0  0  0
   -1.0349    3.0653    0.0000 C   0  0  0  0  0  0  0  0  0  0  0  0
   -2.8159    3.7553    0.0000 C   0  0  0  0  0  0  0  0  0  0  0  0
    1.7044   -4.3492    0.0000 C   0  0  0  0  0  0  0  0  0  0  0  0
    0.6732   -4.3719    0.0000 C   0  0  0  0  0  0  0  0  0  0  0  0
    1.1832   -3.8166    0.0000 C   0  0  0  0  0  0  0  0  0  0  0  0
   -3.6021    3.8194    0.0000 C   0  0  0  0  0  0  0  0  0  0  0  0
   -2.0137    3.6750    0.0000 C   0  0  0  0  0  0  0  0  0  0  0  0
   -2.8962    2.9209    0.0000 C   0  0  0  0  0  0  0  0  0  0  0  0
  1  5  2  0  0  0  0
  1  6  2  0  0  0  0
  1 15  1  0  0  0  0
  1 30  1  0  0  0  0
  2 31  1  0  0  0  0
  3 21  2  0  0  0  0
  4 35  1  0  0  0  0
  4 38  1  0  0  0  0
  7 35  2  0  0  0  0
  8 39  1  0  0  0  0
  8 41  1  0  0  0  0
  9 39  2  0  0  0  0
 10 11  1  0  0  0  0
 10 17  1  0  0  0  0
 10 18  1  0  0  0  0
 11 20  2  0  0  0  0
 12 20  1  0  0  0  0
 12 26  1  0  0  0  0
 13 21  1  0  0  0  0
 13 27  1  0  0  0  0
 14 28  1  0  0  0  0
 14 29  1  0  0  0  0
 14 35  1  0  0  0  0
 15 37  1  0  0  0  0
 16 34  3  0  0  0  0
 17 22  1  0  0  0  0
 17 23  1  0  0  0  0
 17 25  1  0  0  0  0
 18 19  2  0  0  0  0
 18 24  1  0  0  0  0
 19 20  1  0  0  0  0
 19 21  1  0  0  0  0
 22 28  1  0  0  0  0
 23 29  1  0  0  0  0
 24 27  2  0  0  0  0
 25 34  1  0  0  0  0
 26 32  1  0  0  0  0
 26 33  2  0  0  0  0
 30 31  1  0  0  0  0
 30 36  2  0  0  0  0
 31 32  2  0  0  0  0
 33 36  1  0  0  0  0
 37 39  1  0  0  0  0
 37 40  1  0  0  0  0
 38 42  1  0  0  0  0
 38 43  1  0  0  0  0
 38 44  1  0  0  0  0
 41 45  1  0  0  0  0
 41 46  1  0  0  0  0
 41 47  1  0  0  0  0
M  END
> <PUBCHEM_COMPOUND_ID_TYPE>
0

> <PUBCHEM_TOTAL_CHARGE>
0

> <PUBCHEM_SUBSTANCE_ID>
310946887

> <PUBCHEM_SUBSTANCE_VERSION>
1

> <PUBCHEM_EXT_DATASOURCE_NAME>
4488

> <PUBCHEM_EXT_DATASOURCE_REGID>
SCHEMBL16125011

> <PUBCHEM_SUBSTANCE_COMMENT>
InChI=1S/C31H40FN7O7S/c1-19(27(41)45-29(2,3)4)37-47(43,44)23-9-8-20(18-21(23)32)35-25-24-22(10-15-34-26(24)40)39(36-25)31(11-14-33)12-16-38(17-13-31)28(42)46-30(5,6)7/h8-10,15,18-19,37H,11-13,16-17H2,1-7H3,(H,34,40)(H,35,36)
InChIKey=CEEAROSCJKXGGL-UHFFFAOYSA-N

> <PUBCHEM_SUBSTANCE_SYNONYM>
SCHEMBL16125011

> <PUBCHEM_XREF_EXT_ID>
SCHEMBL16125011

> <PUBCHEM_EXT_DATASOURCE_URL>
https://www.surechembl.org/

> <PUBCHEM_EXT_SUBSTANCE_URL>
https://www.surechembl.org/chemical/SCHEMBL16125011

> <PUBCHEM_CID_ASSOCIATIONS>
117612745  1

> <PUBCHEM_COORDINATE_TYPE>
1
3

$$$$
