310944698
  -OEChem-07211613022D

 14 15  0     1  0  0  0  0  0999 V2000
    2.2731    1.2393    0.0000 F   0  0  0  0  0  0  0  0  0  0  0  0
    1.8621    0.5293    0.0000 F   0  0  0  0  0  0  0  0  0  0  0  0
   -2.2731   -0.4172    0.0000 O   0  0  0  0  0  0  0  0  0  0  0  0
    1.4386    1.2517    0.0000 C   0  0  0  0  0  0  0  0  0  0  0  0
    0.6290    1.2643    0.0000 C   0  0  3  0  0  0  0  0  0  0  0  0
    1.0400    1.9493    0.0000 C   0  0  0  0  0  0  0  0  0  0  0  0
   -0.1059    0.8408    0.0000 C   0  0  0  0  0  0  0  0  0  0  0  0
   -0.8283    1.2393    0.0000 C   0  0  0  0  0  0  0  0  0  0  0  0
   -0.1059    0.0062    0.0000 C   0  0  0  0  0  0  0  0  0  0  0  0
   -0.8158   -0.4048    0.0000 C   0  0  0  0  0  0  0  0  0  0  0  0
   -1.5507    0.0062    0.0000 C   0  0  0  0  0  0  0  0  0  0  0  0
   -1.5257    0.8283    0.0000 C   0  0  0  0  0  0  0  0  0  0  0  0
   -0.8283    2.0739    0.0000 C   0  0  0  0  0  0  0  0  0  0  0  0
   -0.8158   -2.0739    0.0000 C   0  0  0  0  0  0  0  0  0  0  0  0
  1  4  1  0  0  0  0
  2  4  1  0  0  0  0
  3 11  1  0  0  0  0
  4  5  1  0  0  0  0
  4  6  1  0  0  0  0
  5  6  1  0  0  0  0
  5  7  1  0  0  0  0
  7  8  2  0  0  0  0
  7  9  1  0  0  0  0
  8 12  1  0  0  0  0
  8 13  1  0  0  0  0
  9 10  2  0  0  0  0
 10 11  1  0  0  0  0
 10 14  1  0  0  0  0
 11 12  2  0  0  0  0
M  END
> <PUBCHEM_COMPOUND_ID_TYPE>
0

> <PUBCHEM_TOTAL_CHARGE>
0

> <PUBCHEM_SUBSTANCE_ID>
310944698

> <PUBCHEM_SUBSTANCE_VERSION>
1

> <PUBCHEM_EXT_DATASOURCE_NAME>
4488

> <PUBCHEM_EXT_DATASOURCE_REGID>
SCHEMBL16122777

> <PUBCHEM_SUBSTANCE_COMMENT>
InChI=1S/C11H12F2O/c1-6-4-10(14)7(2)3-8(6)9-5-11(9,12)13/h3-4,9,14H,5H2,1-2H3
InChIKey=VSZZFTPAOMNCIO-UHFFFAOYSA-N

> <PUBCHEM_SUBSTANCE_SYNONYM>
SCHEMBL16122777

> <PUBCHEM_XREF_EXT_ID>
SCHEMBL16122777

> <PUBCHEM_EXT_DATASOURCE_URL>
https://www.surechembl.org/

> <PUBCHEM_EXT_SUBSTANCE_URL>
https://www.surechembl.org/chemical/SCHEMBL16122777

> <PUBCHEM_CID_ASSOCIATIONS>
117610922  1

> <PUBCHEM_COORDINATE_TYPE>
1
3

$$$$
