310944516
  -OEChem-07211613022D

 33 37  0     1  0  0  0  0  0999 V2000
    2.5785    1.2535    0.0000 O   0  0  0  0  0  0  0  0  0  0  0  0
    1.5340   -1.4295    0.0000 O   0  0  0  0  0  0  0  0  0  0  0  0
    5.3934    0.3189    0.0000 O   0  0  0  0  0  0  0  0  0  0  0  0
    5.5364    1.7813    0.0000 O   0  0  0  0  0  0  0  0  0  0  0  0
    3.2823   -0.0330    0.0000 N   0  0  0  0  0  0  0  0  0  0  0  0
    0.3573    0.4068    0.0000 N   0  0  3  0  0  0  0  0  0  0  0  0
   -4.1949    1.0226    0.0000 N   0  0  0  0  0  0  0  0  0  0  0  0
   -2.0067    1.1106    0.0000 N   0  0  0  0  0  0  0  0  0  0  0  0
   -2.7985    1.3525    0.0000 N   0  0  0  0  0  0  0  0  0  0  0  0
   -4.4698    1.8033    0.0000 N   0  0  0  0  0  0  0  0  0  0  0  0
   -5.2945    1.7813    0.0000 N   0  0  0  0  0  0  0  0  0  0  0  0
   -5.5364    0.9897    0.0000 N   0  0  0  0  0  0  0  0  0  0  0  0
    1.9518   -0.0550    0.0000 C   0  0  3  0  0  0  0  0  0  0  0  0
    2.6005    0.4288    0.0000 C   0  0  0  0  0  0  0  0  0  0  0  0
    1.3360   -0.6268    0.0000 C   0  0  3  0  0  0  0  0  0  0  0  0
    2.2156   -0.8247    0.0000 C   0  0  0  0  0  0  0  0  0  0  0  0
    4.0520    0.2529    0.0000 C   0  0  0  0  0  0  0  0  0  0  0  0
    1.7538    0.7477    0.0000 C   0  0  0  0  0  0  0  0  0  0  0  0
    3.0403   -0.8137    0.0000 C   0  0  0  0  0  0  0  0  0  0  0  0
    0.5443   -0.3739    0.0000 C   0  0  0  0  0  0  0  0  0  0  0  0
    4.2719    1.0446    0.0000 C   0  0  0  0  0  0  0  0  0  0  0  0
    0.9622    0.9786    0.0000 C   0  0  0  0  0  0  0  0  0  0  0  0
    4.7557   -0.1870    0.0000 C   0  0  0  0  0  0  0  0  0  0  0  0
    5.0746    1.0776    0.0000 C   0  0  0  0  0  0  0  0  0  0  0  0
   -0.4343    0.6488    0.0000 C   0  0  0  0  0  0  0  0  0  0  0  0
    3.7441    1.6824    0.0000 C   0  0  0  0  0  0  0  0  0  0  0  0
   -1.0281    0.0880    0.0000 C   0  0  0  0  0  0  0  0  0  0  0  0
    0.8192   -1.8033    0.0000 C   0  0  0  0  0  0  0  0  0  0  0  0
   -1.8199    0.3409    0.0000 C   0  0  0  0  0  0  0  0  0  0  0  0
   -3.4142    0.7917    0.0000 C   0  0  0  0  0  0  0  0  0  0  0  0
   -2.4246   -0.2419    0.0000 C   0  0  0  0  0  0  0  0  0  0  0  0
   -3.2163    0.0000    0.0000 C   0  0  0  0  0  0  0  0  0  0  0  0
   -4.8437    0.5388    0.0000 C   0  0  0  0  0  0  0  0  0  0  0  0
  1 14  2  0  0  0  0
  2 15  1  0  0  0  0
  2 28  1  0  0  0  0
  3 23  1  0  0  0  0
  3 24  1  0  0  0  0
  4 24  2  0  0  0  0
  5 14  1  0  0  0  0
  5 17  1  0  0  0  0
  5 19  1  0  0  0  0
  6 20  1  0  0  0  0
  6 22  1  0  0  0  0
  6 25  1  0  0  0  0
  7 10  1  0  0  0  0
  7 30  1  0  0  0  0
  7 33  1  0  0  0  0
  8  9  1  0  0  0  0
  8 29  2  0  0  0  0
  9 30  2  0  0  0  0
 10 11  2  0  0  0  0
 11 12  1  0  0  0  0
 12 33  2  0  0  0  0
 13 14  1  0  0  0  0
 13 15  1  0  0  0  0
 13 16  1  0  0  0  0
 13 18  1  0  0  0  0
 15 20  1  0  0  0  0
 16 19  1  0  0  0  0
 17 21  2  0  0  0  0
 17 23  1  0  0  0  0
 18 22  1  0  0  0  0
 21 24  1  0  0  0  0
 21 26  1  0  0  0  0
 25 27  1  0  0  0  0
 27 29  1  0  0  0  0
 29 31  1  0  0  0  0
 30 32  1  0  0  0  0
 31 32  2  0  0  0  0
M  END
> <PUBCHEM_COMPOUND_ID_TYPE>
0

> <PUBCHEM_TOTAL_CHARGE>
0

> <PUBCHEM_SUBSTANCE_ID>
310944516

> <PUBCHEM_SUBSTANCE_VERSION>
1

> <PUBCHEM_EXT_DATASOURCE_NAME>
4488

> <PUBCHEM_EXT_DATASOURCE_REGID>
SCHEMBL16122591

> <PUBCHEM_SUBSTANCE_COMMENT>
InChI=1S/C21H26N8O4/c1-14-16(12-33-19(14)30)28-10-7-21(20(28)31)6-9-27(11-17(21)32-2)8-5-15-3-4-18(24-23-15)29-13-22-25-26-29/h3-4,13,17H,5-12H2,1-2H3
InChIKey=JOMLFMOOJYJVBJ-UHFFFAOYSA-N

> <PUBCHEM_SUBSTANCE_SYNONYM>
SCHEMBL16122591

> <PUBCHEM_XREF_EXT_ID>
SCHEMBL16122591

> <PUBCHEM_EXT_DATASOURCE_URL>
https://www.surechembl.org/

> <PUBCHEM_EXT_SUBSTANCE_URL>
https://www.surechembl.org/chemical/SCHEMBL16122591

> <PUBCHEM_CID_ASSOCIATIONS>
117610751  1

> <PUBCHEM_COORDINATE_TYPE>
1
3

$$$$
