310931209
  -OEChem-07211613022D

 33 37  0     1  0  0  0  0  0999 V2000
   -2.0926   -0.2184    0.0000 O   0  0  0  0  0  0  0  0  0  0  0  0
   -1.6472    4.0520    0.0000 O   0  0  0  0  0  0  0  0  0  0  0  0
   -3.3220    0.6108    0.0000 N   0  0  0  0  0  0  0  0  0  0  0  0
   -2.7369    1.8106    0.0000 N   0  0  0  0  0  0  0  0  0  0  0  0
   -4.1797    1.8358    0.0000 N   0  0  0  0  0  0  0  0  0  0  0  0
    1.4290    0.8250    0.0000 N   0  0  0  0  0  0  0  0  0  0  0  0
   -2.1434    1.2375    0.0000 C   0  0  3  0  0  0  0  0  0  0  0  0
   -2.5051    0.4960    0.0000 C   0  0  0  0  0  0  0  0  0  0  0  0
   -1.4290    0.8250    0.0000 C   0  0  0  0  0  0  0  0  0  0  0  0
   -1.6131    1.8695    0.0000 C   0  0  0  0  0  0  0  0  0  0  0  0
   -3.4653    1.4233    0.0000 C   0  0  0  0  0  0  0  0  0  0  0  0
   -3.8951    0.0174    0.0000 C   0  0  0  0  0  0  0  0  0  0  0  0
   -0.7145    1.2375    0.0000 C   0  0  0  0  0  0  0  0  0  0  0  0
   -1.8953    2.6447    0.0000 C   0  0  0  0  0  0  0  0  0  0  0  0
   -1.4290    0.0000    0.0000 C   0  0  0  0  0  0  0  0  0  0  0  0
   -0.8007    1.7263    0.0000 C   0  0  0  0  0  0  0  0  0  0  0  0
    0.0000    0.8250    0.0000 C   0  0  0  0  0  0  0  0  0  0  0  0
   -1.3650    3.2767    0.0000 C   0  0  0  0  0  0  0  0  0  0  0  0
   -3.6677   -0.7757    0.0000 C   0  0  0  0  0  0  0  0  0  0  0  0
   -4.6956    0.2169    0.0000 C   0  0  0  0  0  0  0  0  0  0  0  0
   -0.7145   -0.4125    0.0000 C   0  0  0  0  0  0  0  0  0  0  0  0
   -0.2704    2.3582    0.0000 C   0  0  0  0  0  0  0  0  0  0  0  0
    0.0000    0.0000    0.0000 C   0  0  0  0  0  0  0  0  0  0  0  0
    0.7145    1.2375    0.0000 C   0  0  0  0  0  0  0  0  0  0  0  0
   -0.5525    3.1335    0.0000 C   0  0  0  0  0  0  0  0  0  0  0  0
   -4.2409   -1.3691    0.0000 C   0  0  0  0  0  0  0  0  0  0  0  0
   -5.2687   -0.3765    0.0000 C   0  0  0  0  0  0  0  0  0  0  0  0
    0.7145    2.0625    0.0000 C   0  0  0  0  0  0  0  0  0  0  0  0
   -5.0413   -1.1696    0.0000 C   0  0  0  0  0  0  0  0  0  0  0  0
    2.1434    1.2375    0.0000 C   0  0  0  0  0  0  0  0  0  0  0  0
    1.4290    2.4750    0.0000 C   0  0  0  0  0  0  0  0  0  0  0  0
   -1.1169    4.6839    0.0000 C   0  0  0  0  0  0  0  0  0  0  0  0
    2.1434    2.0625    0.0000 C   0  0  0  0  0  0  0  0  0  0  0  0
  1  8  2  0  0  0  0
  2 18  1  0  0  0  0
  2 32  1  0  0  0  0
  3  8  1  0  0  0  0
  3 11  1  0  0  0  0
  3 12  1  0  0  0  0
  4  7  1  0  0  0  0
  4 11  1  0  0  0  0
  5 11  2  3  0  0  0
  6 24  2  0  0  0  0
  6 30  1  0  0  0  0
  7  8  1  0  0  0  0
  7  9  1  0  0  0  0
  7 10  1  0  0  0  0
  9 13  1  0  0  0  0
  9 15  2  0  0  0  0
 10 14  1  0  0  0  0
 10 16  2  0  0  0  0
 12 19  1  0  0  0  0
 12 20  1  0  0  0  0
 13 17  2  0  0  0  0
 14 18  2  0  0  0  0
 15 21  1  0  0  0  0
 16 22  1  0  0  0  0
 17 23  1  0  0  0  0
 17 24  1  0  0  0  0
 18 25  1  0  0  0  0
 19 26  1  0  0  0  0
 20 27  1  0  0  0  0
 21 23  2  0  0  0  0
 22 25  2  0  0  0  0
 24 28  1  0  0  0  0
 26 29  1  0  0  0  0
 27 29  1  0  0  0  0
 28 31  2  0  0  0  0
 30 33  2  0  0  0  0
 31 33  1  0  0  0  0
M  END
> <PUBCHEM_COMPOUND_ID_TYPE>
0

> <PUBCHEM_TOTAL_CHARGE>
0

> <PUBCHEM_SUBSTANCE_ID>
310931209

> <PUBCHEM_SUBSTANCE_VERSION>
1

> <PUBCHEM_EXT_DATASOURCE_NAME>
4488

> <PUBCHEM_EXT_DATASOURCE_REGID>
SCHEMBL16108518

> <PUBCHEM_SUBSTANCE_COMMENT>
InChI=1S/C27H28N4O2/c1-33-23-14-8-11-21(18-23)27(20-10-7-9-19(17-20)24-15-5-6-16-29-24)25(32)31(26(28)30-27)22-12-3-2-4-13-22/h5-11,14-18,22H,2-4,12-13H2,1H3,(H2,28,30)
InChIKey=CRDRZDLBPSTWEC-UHFFFAOYSA-N

> <PUBCHEM_SUBSTANCE_SYNONYM>
SCHEMBL16108518

> <PUBCHEM_XREF_EXT_ID>
SCHEMBL16108518

> <PUBCHEM_EXT_DATASOURCE_URL>
https://www.surechembl.org/

> <PUBCHEM_EXT_SUBSTANCE_URL>
https://www.surechembl.org/chemical/SCHEMBL16108518

> <PUBCHEM_CID_ASSOCIATIONS>
86272882  1

> <PUBCHEM_COORDINATE_TYPE>
1
3

$$$$
