310932665
  -OEChem-07211613022D

 30 33  0     1  0  0  0  0  0999 V2000
    2.2784   -0.0230    0.0000 O   0  0  0  0  0  0  0  0  0  0  0  0
    0.0000   -3.5213    0.0000 O   0  0  0  0  0  0  0  0  0  0  0  0
    5.5466   -2.3935    0.0000 O   0  0  0  0  0  0  0  0  0  0  0  0
    4.2117   -1.7261    0.0000 N   0  0  0  0  0  0  0  0  0  0  0  0
    4.2117   -3.0610    0.0000 N   0  0  0  0  0  0  0  0  0  0  0  0
    1.4730   -1.4500    0.0000 N   0  0  0  0  0  0  0  0  0  0  0  0
    0.3913   -4.2347    0.0000 N   0  0  0  0  0  0  0  0  0  0  0  0
    2.6927   -0.7365    0.0000 C   0  0  3  0  0  0  0  0  0  0  0  0
    2.7157   -1.5650    0.0000 C   0  0  0  0  0  0  0  0  0  0  0  0
    3.4292   -1.9563    0.0000 C   0  0  0  0  0  0  0  0  0  0  0  0
    3.4292   -2.8308    0.0000 C   0  0  0  0  0  0  0  0  0  0  0  0
    2.0023   -2.8308    0.0000 C   0  0  0  0  0  0  0  0  0  0  0  0
    2.0023   -1.9563    0.0000 C   0  0  0  0  0  0  0  0  0  0  0  0
    1.8642   -0.7365    0.0000 C   0  0  0  0  0  0  0  0  0  0  0  0
    3.5213   -0.7365    0.0000 C   0  0  0  0  0  0  0  0  0  0  0  0
    1.3118   -3.2451    0.0000 C   0  0  0  0  0  0  0  0  0  0  0  0
    2.7157   -3.2221    0.0000 C   0  0  0  0  0  0  0  0  0  0  0  0
    4.7180   -2.3935    0.0000 C   0  0  0  0  0  0  0  0  0  0  0  0
    0.5524   -2.9229    0.0000 C   0  0  0  0  0  0  0  0  0  0  0  0
    1.2198   -4.0506    0.0000 C   0  0  0  0  0  0  0  0  0  0  0  0
    1.4500   -0.0230    0.0000 C   0  0  0  0  0  0  0  0  0  0  0  0
    3.9355   -0.0230    0.0000 C   0  0  0  0  0  0  0  0  0  0  0  0
    3.9355   -1.4500    0.0000 C   0  0  0  0  0  0  0  0  0  0  0  0
    0.6444   -1.4960    0.0000 C   0  0  0  0  0  0  0  0  0  0  0  0
    0.6214   -0.0690    0.0000 C   0  0  0  0  0  0  0  0  0  0  0  0
    0.3683   -2.0944    0.0000 C   0  0  0  0  0  0  0  0  0  0  0  0
    1.8412   -4.6030    0.0000 C   0  0  0  0  0  0  0  0  0  0  0  0
    0.2301   -0.7825    0.0000 C   0  0  0  0  0  0  0  0  0  0  0  0
    4.7641    0.0000    0.0000 C   0  0  0  0  0  0  0  0  0  0  0  0
    4.7641   -1.4269    0.0000 C   0  0  0  0  0  0  0  0  0  0  0  0
  1  8  1  0  0  0  0
  2  7  1  0  0  0  0
  2 19  1  0  0  0  0
  3 18  2  0  0  0  0
  4 10  1  0  0  0  0
  4 18  1  0  0  0  0
  5 11  1  0  0  0  0
  5 18  1  0  0  0  0
  6 14  1  0  0  0  0
  6 24  2  0  0  0  0
  7 20  2  0  0  0  0
  8  9  1  0  0  0  0
  8 14  1  0  0  0  0
  8 15  1  0  0  0  0
  9 10  1  0  0  0  0
  9 13  2  0  0  0  0
 10 11  2  0  0  0  0
 11 17  1  0  0  0  0
 12 13  1  0  0  0  0
 12 16  1  0  0  0  0
 12 17  2  0  0  0  0
 14 21  2  0  0  0  0
 15 22  1  0  0  0  0
 15 23  1  0  0  0  0
 16 19  2  0  0  0  0
 16 20  1  0  0  0  0
 19 26  1  0  0  0  0
 20 27  1  0  0  0  0
 21 25  1  0  0  0  0
 22 29  1  0  0  0  0
 23 30  1  0  0  0  0
 24 28  1  0  0  0  0
 25 28  2  0  0  0  0
M  END
> <PUBCHEM_COMPOUND_ID_TYPE>
0

> <PUBCHEM_TOTAL_CHARGE>
0

> <PUBCHEM_SUBSTANCE_ID>
310932665

> <PUBCHEM_SUBSTANCE_VERSION>
1

> <PUBCHEM_EXT_DATASOURCE_NAME>
4488

> <PUBCHEM_EXT_DATASOURCE_REGID>
SCHEMBL16110044

> <PUBCHEM_SUBSTANCE_COMMENT>
InChI=1S/C23H26N4O3/c1-5-16(6-2)23(29,19-9-7-8-10-24-19)17-11-15(20-13(3)27-30-14(20)4)12-18-21(17)26-22(28)25-18/h7-12,16,29H,5-6H2,1-4H3,(H2,25,26,28)
InChIKey=FYXUJTPSTCVDHB-UHFFFAOYSA-N

> <PUBCHEM_SUBSTANCE_SYNONYM>
SCHEMBL16110044

> <PUBCHEM_XREF_EXT_ID>
SCHEMBL16110044

> <PUBCHEM_EXT_DATASOURCE_URL>
https://www.surechembl.org/

> <PUBCHEM_EXT_SUBSTANCE_URL>
https://www.surechembl.org/chemical/SCHEMBL16110044

> <PUBCHEM_CID_ASSOCIATIONS>
117601180  1

> <PUBCHEM_COORDINATE_TYPE>
1
3

$$$$
