310935049
  -OEChem-07211613022D

 27 30  0     1  0  0  0  0  0999 V2000
    7.1317   -1.6293    0.0000 F   0  0  0  0  0  0  0  0  0  0  0  0
    5.1551   -0.5876    0.0000 O   0  0  0  0  0  0  0  0  0  0  0  0
    3.5792   -0.4274    0.0000 O   0  0  0  0  0  0  0  0  0  0  0  0
    1.4423   -4.9147    0.0000 N   0  0  0  0  0  0  0  0  0  0  0  0
    0.0267   -4.0867    0.0000 N   0  0  0  0  0  0  0  0  0  0  0  0
    4.3004   -1.6561    0.0000 C   0  0  3  0  0  0  0  0  0  0  0  0
    4.9949   -1.2287    0.0000 C   0  0  0  0  0  0  0  0  0  0  0  0
    4.3004   -0.8280    0.0000 C   0  0  0  0  0  0  0  0  0  0  0  0
    4.3004   -2.4841    0.0000 C   0  0  0  0  0  0  0  0  0  0  0  0
    3.5792   -1.2554    0.0000 C   0  0  0  0  0  0  0  0  0  0  0  0
    5.7160   -1.6293    0.0000 C   0  0  0  0  0  0  0  0  0  0  0  0
    2.8580   -2.4841    0.0000 C   0  0  0  0  0  0  0  0  0  0  0  0
    2.1636   -2.8847    0.0000 C   0  0  0  0  0  0  0  0  0  0  0  0
    3.5792   -2.8847    0.0000 C   0  0  0  0  0  0  0  0  0  0  0  0
    2.8580   -1.6561    0.0000 C   0  0  0  0  0  0  0  0  0  0  0  0
    4.9949   -0.4007    0.0000 C   0  0  0  0  0  0  0  0  0  0  0  0
    6.4105   -1.2287    0.0000 C   0  0  0  0  0  0  0  0  0  0  0  0
    1.4423   -4.0867    0.0000 C   0  0  0  0  0  0  0  0  0  0  0  0
    2.1368   -3.7128    0.0000 C   0  0  0  0  0  0  0  0  0  0  0  0
    0.7479   -3.6860    0.0000 C   0  0  0  0  0  0  0  0  0  0  0  0
    1.4423   -2.4841    0.0000 C   0  0  0  0  0  0  0  0  0  0  0  0
    5.7160    0.0000    0.0000 C   0  0  0  0  0  0  0  0  0  0  0  0
    6.4105   -0.4007    0.0000 C   0  0  0  0  0  0  0  0  0  0  0  0
    0.7212   -2.8847    0.0000 C   0  0  0  0  0  0  0  0  0  0  0  0
    5.7160   -2.4574    0.0000 C   0  0  0  0  0  0  0  0  0  0  0  0
    0.7212   -5.3421    0.0000 C   0  0  0  0  0  0  0  0  0  0  0  0
    0.0000   -4.9147    0.0000 C   0  0  0  0  0  0  0  0  0  0  0  0
  1 17  1  0  0  0  0
  2  8  2  0  0  0  0
  3  8  1  0  0  0  0
  4 18  2  0  0  0  0
  4 26  1  0  0  0  0
  5 20  2  0  0  0  0
  5 27  1  0  0  0  0
  6  7  1  0  0  0  0
  6  8  1  0  0  0  0
  6  9  1  0  0  0  0
  6 10  1  0  0  0  0
  7 11  1  0  0  0  0
  7 16  2  0  0  0  0
  9 14  1  0  0  0  0
 10 15  1  0  0  0  0
 11 17  2  0  0  0  0
 11 25  1  0  0  0  0
 12 13  1  0  0  0  0
 12 14  2  0  0  0  0
 12 15  1  0  0  0  0
 13 19  2  0  0  0  0
 13 21  1  0  0  0  0
 16 22  1  0  0  0  0
 17 23  1  0  0  0  0
 18 19  1  0  0  0  0
 18 20  1  0  0  0  0
 20 24  1  0  0  0  0
 21 24  2  0  0  0  0
 22 23  2  0  0  0  0
 26 27  2  0  0  0  0
M  END
> <PUBCHEM_COMPOUND_ID_TYPE>
0

> <PUBCHEM_TOTAL_CHARGE>
0

> <PUBCHEM_SUBSTANCE_ID>
310935049

> <PUBCHEM_SUBSTANCE_VERSION>
1

> <PUBCHEM_EXT_DATASOURCE_NAME>
4488

> <PUBCHEM_EXT_DATASOURCE_REGID>
SCHEMBL16112569

> <PUBCHEM_SUBSTANCE_COMMENT>
InChI=1S/C22H19FN2O2/c1-14-17(3-2-4-18(14)23)22(21(26)27)9-7-15(8-10-22)16-5-6-19-20(13-16)25-12-11-24-19/h2-7,11-13H,8-10H2,1H3,(H,26,27)
InChIKey=CDYMDAGRCHGRSX-UHFFFAOYSA-N

> <PUBCHEM_SUBSTANCE_SYNONYM>
SCHEMBL16112569

> <PUBCHEM_XREF_EXT_ID>
SCHEMBL16112569

> <PUBCHEM_EXT_DATASOURCE_URL>
https://www.surechembl.org/

> <PUBCHEM_EXT_SUBSTANCE_URL>
https://www.surechembl.org/chemical/SCHEMBL16112569

> <PUBCHEM_CID_ASSOCIATIONS>
117603152  1

> <PUBCHEM_COORDINATE_TYPE>
1
3

$$$$
