310934028
  -OEChem-07211613022D

 26 29  0     1  0  0  0  0  0999 V2000
    0.6948   -8.6841    0.0000 O   0  0  0  0  0  0  0  0  0  0  0  0
    2.1276   -8.6841    0.0000 O   0  0  0  0  0  0  0  0  0  0  0  0
    1.4329   -5.8184    0.0000 N   0  0  0  0  0  0  0  0  0  0  0  0
    0.6948   -1.3026    0.0000 N   0  0  0  0  0  0  0  0  0  0  0  0
    1.4329   -7.4684    0.0000 N   0  0  0  0  0  0  0  0  0  0  0  0
    0.7382   -4.6026    0.0000 N   0  0  0  0  0  0  0  0  0  0  0  0
    2.1710   -1.3026    0.0000 N   0  0  0  0  0  0  0  0  0  0  0  0
    0.1302   -0.7382    0.0000 N   0  0  0  0  0  0  0  0  0  0  0  0
    1.4329   -4.9934    0.0000 C   0  0  0  0  0  0  0  0  0  0  0  0
    0.6948   -6.2092    0.0000 C   0  0  3  0  0  0  0  0  0  0  0  0
    2.1276   -6.2092    0.0000 C   0  0  3  0  0  0  0  0  0  0  0  0
    1.4329   -2.5184    0.0000 C   0  0  0  0  0  0  0  0  0  0  0  0
    1.4329   -3.3434    0.0000 C   0  0  0  0  0  0  0  0  0  0  0  0
    1.4329   -0.8684    0.0000 C   0  0  0  0  0  0  0  0  0  0  0  0
    0.7382   -2.1276    0.0000 C   0  0  0  0  0  0  0  0  0  0  0  0
    2.1276   -7.0342    0.0000 C   0  0  0  0  0  0  0  0  0  0  0  0
    0.6948   -7.0342    0.0000 C   0  0  0  0  0  0  0  0  0  0  0  0
    2.1276   -4.5592    0.0000 C   0  0  0  0  0  0  0  0  0  0  0  0
    0.6948   -3.7776    0.0000 C   0  0  0  0  0  0  0  0  0  0  0  0
    2.1276   -3.7342    0.0000 C   0  0  0  0  0  0  0  0  0  0  0  0
    2.1710   -2.0842    0.0000 C   0  0  0  0  0  0  0  0  0  0  0  0
    1.4329   -8.2934    0.0000 C   0  0  0  0  0  0  0  0  0  0  0  0
    1.2592   -0.0868    0.0000 C   0  0  0  0  0  0  0  0  0  0  0  0
    0.4342    0.0000    0.0000 C   0  0  0  0  0  0  0  0  0  0  0  0
    0.0000   -5.8184    0.0000 C   0  0  0  0  0  0  0  0  0  0  0  0
    2.8658   -5.8184    0.0000 C   0  0  0  0  0  0  0  0  0  0  0  0
  1 22  2  0  0  0  0
  2 22  1  0  0  0  0
  3  9  1  0  0  0  0
  3 10  1  0  0  0  0
  3 11  1  0  0  0  0
  4  8  1  0  0  0  0
  4 14  1  0  0  0  0
  4 15  1  0  0  0  0
  5 16  1  0  0  0  0
  5 17  1  0  0  0  0
  5 22  1  0  0  0  0
  6  9  1  0  0  0  0
  6 19  2  0  0  0  0
  7 14  1  0  0  0  0
  7 21  2  0  0  0  0
  8 24  2  0  0  0  0
  9 18  2  0  0  0  0
 10 17  1  0  0  0  0
 10 25  1  0  0  0  0
 11 16  1  0  0  0  0
 11 26  1  0  0  0  0
 12 13  1  0  0  0  0
 12 15  2  0  0  0  0
 12 21  1  0  0  0  0
 13 19  1  0  0  0  0
 13 20  2  0  0  0  0
 14 23  2  0  0  0  0
 18 20  1  0  0  0  0
 23 24  1  0  0  0  0
M  END
> <PUBCHEM_COMPOUND_ID_TYPE>
0

> <PUBCHEM_TOTAL_CHARGE>
0

> <PUBCHEM_SUBSTANCE_ID>
310934028

> <PUBCHEM_SUBSTANCE_VERSION>
1

> <PUBCHEM_EXT_DATASOURCE_NAME>
4488

> <PUBCHEM_EXT_DATASOURCE_REGID>
SCHEMBL16111472

> <PUBCHEM_SUBSTANCE_COMMENT>
InChI=1S/C18H20N6O2/c1-12-9-22(18(25)26)10-13(2)24(12)17-4-3-14(7-20-17)15-8-19-16-5-6-21-23(16)11-15/h3-8,11-13H,9-10H2,1-2H3,(H,25,26)
InChIKey=YROSMEZVPMXXQV-UHFFFAOYSA-N

> <PUBCHEM_SUBSTANCE_SYNONYM>
SCHEMBL16111472

> <PUBCHEM_XREF_EXT_ID>
SCHEMBL16111472

> <PUBCHEM_EXT_DATASOURCE_URL>
https://www.surechembl.org/

> <PUBCHEM_EXT_SUBSTANCE_URL>
https://www.surechembl.org/chemical/SCHEMBL16111472

> <PUBCHEM_CID_ASSOCIATIONS>
117602328  1

> <PUBCHEM_COORDINATE_TYPE>
1
3

$$$$
