310931507
  -OEChem-07211613022D

 27 30  0     1  0  0  0  0  0999 V2000
    0.7435   -2.7374    0.0000 O   0  0  0  0  0  0  0  0  0  0  0  0
    2.1966    0.0000    0.0000 O   0  0  0  0  0  0  0  0  0  0  0  0
    3.2781   -6.6914    0.0000 O   0  0  0  0  0  0  0  0  0  0  0  0
    2.1966   -2.5008    0.0000 N   0  0  0  0  0  0  0  0  0  0  0  0
    2.6022   -3.7512    0.0000 N   0  0  0  0  0  0  0  0  0  0  0  0
    3.6499   -2.7374    0.0000 N   0  0  0  0  0  0  0  0  0  0  0  0
    1.7911   -3.7512    0.0000 C   0  0  3  0  0  0  0  0  0  0  0  0
    1.5208   -2.9739    0.0000 C   0  0  0  0  0  0  0  0  0  0  0  0
    2.1629   -4.4947    0.0000 C   0  0  0  0  0  0  0  0  0  0  0  0
    1.2842   -4.4271    0.0000 C   0  0  0  0  0  0  0  0  0  0  0  0
    2.8388   -2.9739    0.0000 C   0  0  0  0  0  0  0  0  0  0  0  0
    2.1966   -1.6897    0.0000 C   0  0  0  0  0  0  0  0  0  0  0  0
    2.9739   -4.5623    0.0000 C   0  0  0  0  0  0  0  0  0  0  0  0
    1.6897   -5.2044    0.0000 C   0  0  0  0  0  0  0  0  0  0  0  0
    1.5884   -5.2044    0.0000 C   0  0  0  0  0  0  0  0  0  0  0  0
    0.4731   -4.3596    0.0000 C   0  0  0  0  0  0  0  0  0  0  0  0
    2.9064   -1.2504    0.0000 C   0  0  0  0  0  0  0  0  0  0  0  0
    1.4870   -1.2504    0.0000 C   0  0  0  0  0  0  0  0  0  0  0  0
    3.3457   -5.2720    0.0000 C   0  0  0  0  0  0  0  0  0  0  0  0
    2.0615   -5.9141    0.0000 C   0  0  0  0  0  0  0  0  0  0  0  0
    2.9064   -5.9817    0.0000 C   0  0  0  0  0  0  0  0  0  0  0  0
    1.1490   -5.8465    0.0000 C   0  0  0  0  0  0  0  0  0  0  0  0
    0.0000   -5.0016    0.0000 C   0  0  0  0  0  0  0  0  0  0  0  0
    0.3042   -5.7789    0.0000 C   0  0  0  0  0  0  0  0  0  0  0  0
    2.9064   -0.4393    0.0000 C   0  0  0  0  0  0  0  0  0  0  0  0
    1.4870   -0.4393    0.0000 C   0  0  0  0  0  0  0  0  0  0  0  0
    4.0892   -6.7590    0.0000 C   0  0  0  0  0  0  0  0  0  0  0  0
  1  8  2  0  0  0  0
  2 25  1  0  0  0  0
  2 26  1  0  0  0  0
  3 21  1  0  0  0  0
  3 27  1  0  0  0  0
  4  8  1  0  0  0  0
  4 11  1  0  0  0  0
  4 12  1  0  0  0  0
  5  7  1  0  0  0  0
  5 11  1  0  0  0  0
  6 11  2  3  0  0  0
  7  8  1  0  0  0  0
  7  9  1  0  0  0  0
  7 10  1  0  0  0  0
  9 13  2  0  0  0  0
  9 14  1  0  0  0  0
 10 15  1  0  0  0  0
 10 16  1  0  0  0  0
 12 17  1  0  0  0  0
 12 18  1  0  0  0  0
 13 19  1  0  0  0  0
 14 20  2  0  0  0  0
 15 22  1  0  0  0  0
 16 23  1  0  0  0  0
 17 25  1  0  0  0  0
 18 26  1  0  0  0  0
 19 21  2  0  0  0  0
 20 21  1  0  0  0  0
 22 24  1  0  0  0  0
 23 24  1  0  0  0  0
M  END
> <PUBCHEM_COMPOUND_ID_TYPE>
0

> <PUBCHEM_TOTAL_CHARGE>
0

> <PUBCHEM_SUBSTANCE_ID>
310931507

> <PUBCHEM_SUBSTANCE_VERSION>
1

> <PUBCHEM_EXT_DATASOURCE_NAME>
4488

> <PUBCHEM_EXT_DATASOURCE_REGID>
SCHEMBL16108833

> <PUBCHEM_SUBSTANCE_COMMENT>
InChI=1S/C21H29N3O3/c1-26-18-9-7-16(8-10-18)21(15-5-3-2-4-6-15)19(25)24(20(22)23-21)17-11-13-27-14-12-17/h7-10,15,17H,2-6,11-14H2,1H3,(H2,22,23)
InChIKey=PUTUTRXGZDKHGL-UHFFFAOYSA-N

> <PUBCHEM_SUBSTANCE_SYNONYM>
SCHEMBL16108833

> <PUBCHEM_XREF_EXT_ID>
SCHEMBL16108833

> <PUBCHEM_EXT_DATASOURCE_URL>
https://www.surechembl.org/

> <PUBCHEM_EXT_SUBSTANCE_URL>
https://www.surechembl.org/chemical/SCHEMBL16108833

> <PUBCHEM_CID_ASSOCIATIONS>
86273365  1

> <PUBCHEM_COORDINATE_TYPE>
1
3

$$$$
