310945858
  -OEChem-07211613022D

 36 38  0     1  0  0  0  0  0999 V2000
    4.3440    0.6790    0.0000 O   0  0  0  0  0  0  0  0  0  0  0  0
    3.2078   -1.2886    0.0000 O   0  0  0  0  0  0  0  0  0  0  0  0
    1.0601    0.7898    0.0000 O   0  0  0  0  0  0  0  0  0  0  0  0
   -1.1016   -1.2886    0.0000 O   0  0  0  0  0  0  0  0  0  0  0  0
    3.2078   -2.9514    0.0000 O   0  0  0  0  0  0  0  0  0  0  0  0
   -3.2494    0.7898    0.0000 O   0  0  0  0  0  0  0  0  0  0  0  0
   -4.6765   -0.0415    0.0000 O   0  0  0  0  0  0  0  0  0  0  0  0
    1.7806   -0.4434    0.0000 N   0  0  0  0  0  0  0  0  0  0  0  0
   -0.3672   -0.0277    0.0000 N   0  0  0  0  0  0  0  0  0  0  0  0
   -2.5288   -0.4434    0.0000 N   0  0  0  0  0  0  0  0  0  0  0  0
    3.9283   -0.0138    0.0000 C   0  0  3  0  0  0  0  0  0  0  0  0
    3.2216   -0.4157    0.0000 C   0  0  0  0  0  0  0  0  0  0  0  0
    3.5403    0.6929    0.0000 C   0  0  0  0  0  0  0  0  0  0  0  0
    2.4872   -0.0277    0.0000 C   0  0  3  0  0  0  0  0  0  0  0  0
    4.6765   -0.4295    0.0000 C   0  0  0  0  0  0  0  0  0  0  0  0
    2.5011    1.3025    0.0000 C   0  0  0  0  0  0  0  0  0  0  0  0
    1.0462   -0.0415    0.0000 C   0  0  0  0  0  0  0  0  0  0  0  0
    0.3534   -0.4434    0.0000 C   0  0  3  0  0  0  0  0  0  0  0  0
    1.7667    1.7321    0.0000 C   0  0  0  0  0  0  0  0  0  0  0  0
    0.3534   -1.2609    0.0000 C   0  0  0  0  0  0  0  0  0  0  0  0
    1.0739   -1.6905    0.0000 C   0  0  0  0  0  0  0  0  0  0  0  0
    1.0739    1.3164    0.0000 C   0  0  0  0  0  0  0  0  0  0  0  0
    1.7806    2.5496    0.0000 C   0  0  0  0  0  0  0  0  0  0  0  0
   -1.0877   -0.4157    0.0000 C   0  0  0  0  0  0  0  0  0  0  0  0
    1.7667   -1.2886    0.0000 C   0  0  0  0  0  0  0  0  0  0  0  0
    1.0739   -2.4942    0.0000 C   0  0  0  0  0  0  0  0  0  0  0  0
    2.4872   -2.5080    0.0000 C   0  0  0  0  0  0  0  0  0  0  0  0
    0.3534    1.7182    0.0000 C   0  0  0  0  0  0  0  0  0  0  0  0
    1.0601    2.9514    0.0000 C   0  0  0  0  0  0  0  0  0  0  0  0
    2.4872   -1.6905    0.0000 C   0  0  0  0  0  0  0  0  0  0  0  0
    1.7944   -2.9237    0.0000 C   0  0  0  0  0  0  0  0  0  0  0  0
   -1.8221   -0.0277    0.0000 C   0  0  0  0  0  0  0  0  0  0  0  0
    0.3534    2.5496    0.0000 C   0  0  0  0  0  0  0  0  0  0  0  0
   -3.2632   -0.0415    0.0000 C   0  0  0  0  0  0  0  0  0  0  0  0
    3.9283   -2.5080    0.0000 C   0  0  0  0  0  0  0  0  0  0  0  0
   -3.9421   -0.4295    0.0000 C   0  0  0  0  0  0  0  0  0  0  0  0
  1 11  1  0  0  0  0
  1 13  1  0  0  0  0
  2 12  2  0  0  0  0
  3 17  2  0  0  0  0
  4 24  2  0  0  0  0
  5 27  1  0  0  0  0
  5 35  1  0  0  0  0
  6 34  2  0  0  0  0
  7 36  1  0  0  0  0
  8 14  1  0  0  0  0
  8 17  1  0  0  0  0
  9 18  1  0  0  0  0
  9 24  1  0  0  0  0
 10 32  1  0  0  0  0
 10 34  1  0  0  0  0
 11 12  1  0  0  0  0
 11 13  1  0  0  0  0
 11 15  1  0  0  0  0
 12 14  1  0  0  0  0
 14 16  1  0  0  0  0
 16 19  1  0  0  0  0
 17 18  1  0  0  0  0
 18 20  1  0  0  0  0
 19 22  2  0  0  0  0
 19 23  1  0  0  0  0
 20 21  1  0  0  0  0
 21 25  2  0  0  0  0
 21 26  1  0  0  0  0
 22 28  1  0  0  0  0
 23 29  2  0  0  0  0
 24 32  1  0  0  0  0
 25 30  1  0  0  0  0
 26 31  2  0  0  0  0
 27 30  2  0  0  0  0
 27 31  1  0  0  0  0
 28 33  2  0  0  0  0
 29 33  1  0  0  0  0
 34 36  1  0  0  0  0
M  END
> <PUBCHEM_COMPOUND_ID_TYPE>
0

> <PUBCHEM_TOTAL_CHARGE>
0

> <PUBCHEM_SUBSTANCE_ID>
310945858

> <PUBCHEM_SUBSTANCE_VERSION>
1

> <PUBCHEM_EXT_DATASOURCE_NAME>
4488

> <PUBCHEM_EXT_DATASOURCE_REGID>
SCHEMBL16123963

> <PUBCHEM_SUBSTANCE_COMMENT>
InChI=1S/C26H31N3O7/c1-26(16-36-26)24(33)20(12-17-6-4-3-5-7-17)29-25(34)21(28-22(31)14-27-23(32)15-30)13-18-8-10-19(35-2)11-9-18/h3-11,20-21,30H,12-16H2,1-2H3,(H,27,32)(H,28,31)(H,29,34)
InChIKey=DWRFKRRPOCORGK-UHFFFAOYSA-N

> <PUBCHEM_SUBSTANCE_SYNONYM>
SCHEMBL16123963

> <PUBCHEM_XREF_EXT_ID>
SCHEMBL16123963

> <PUBCHEM_EXT_DATASOURCE_URL>
https://www.surechembl.org/

> <PUBCHEM_EXT_SUBSTANCE_URL>
https://www.surechembl.org/chemical/SCHEMBL16123963

> <PUBCHEM_CID_ASSOCIATIONS>
117611842  1

> <PUBCHEM_COORDINATE_TYPE>
1
3

$$$$
