310934977
  -OEChem-07211613022D

 16 17  0     1  0  0  0  0  0999 V2000
    0.7145    1.2375    0.0000 O   0  0  0  0  0  0  0  0  0  0  0  0
    3.8907    1.3874    0.0000 O   0  0  0  0  0  0  0  0  0  0  0  0
    4.8606    0.0525    0.0000 O   0  0  0  0  0  0  0  0  0  0  0  0
    4.0400   -0.0338    0.0000 N   0  0  0  0  0  0  0  0  0  0  0  0
    2.7346    0.5474    0.0000 C   0  0  3  0  0  0  0  0  0  0  0  0
    1.4290    0.8250    0.0000 C   0  0  3  0  0  0  0  0  0  0  0  0
    2.1826    1.1605    0.0000 C   0  0  0  0  0  0  0  0  0  0  0  0
    2.3221   -0.1670    0.0000 C   0  0  0  0  0  0  0  0  0  0  0  0
    3.5551    0.6337    0.0000 C   0  0  0  0  0  0  0  0  0  0  0  0
    1.5152    0.0045    0.0000 C   0  0  0  0  0  0  0  0  0  0  0  0
    0.0000    0.8250    0.0000 C   0  0  0  0  0  0  0  0  0  0  0  0
   -0.7145    1.2375    0.0000 C   0  0  0  0  0  0  0  0  0  0  0  0
    0.0000    0.0000    0.0000 C   0  0  0  0  0  0  0  0  0  0  0  0
   -1.4290    0.8250    0.0000 C   0  0  0  0  0  0  0  0  0  0  0  0
   -0.7145   -0.4125    0.0000 C   0  0  0  0  0  0  0  0  0  0  0  0
   -1.4290    0.0000    0.0000 C   0  0  0  0  0  0  0  0  0  0  0  0
  1  6  1  0  0  0  0
  1 11  1  0  0  0  0
  2  9  2  0  0  0  0
  3  4  1  0  0  0  0
  4  9  1  0  0  0  0
  5  7  1  0  0  0  0
  5  8  1  0  0  0  0
  5  9  1  0  0  0  0
  6  7  1  0  0  0  0
  6 10  1  0  0  0  0
  8 10  1  0  0  0  0
 11 12  2  0  0  0  0
 11 13  1  0  0  0  0
 12 14  1  0  0  0  0
 13 15  2  0  0  0  0
 14 16  2  0  0  0  0
 15 16  1  0  0  0  0
M  END
> <PUBCHEM_COMPOUND_ID_TYPE>
0

> <PUBCHEM_TOTAL_CHARGE>
0

> <PUBCHEM_SUBSTANCE_ID>
310934977

> <PUBCHEM_SUBSTANCE_VERSION>
1

> <PUBCHEM_EXT_DATASOURCE_NAME>
4488

> <PUBCHEM_EXT_DATASOURCE_REGID>
SCHEMBL16112493

> <PUBCHEM_SUBSTANCE_COMMENT>
InChI=1S/C12H15NO3/c14-12(13-15)9-6-7-11(8-9)16-10-4-2-1-3-5-10/h1-5,9,11,15H,6-8H2,(H,13,14)
InChIKey=DQKGIAZMBFECEU-UHFFFAOYSA-N

> <PUBCHEM_SUBSTANCE_SYNONYM>
SCHEMBL16112493

> <PUBCHEM_XREF_EXT_ID>
SCHEMBL16112493

> <PUBCHEM_EXT_DATASOURCE_URL>
https://www.surechembl.org/

> <PUBCHEM_EXT_SUBSTANCE_URL>
https://www.surechembl.org/chemical/SCHEMBL16112493

> <PUBCHEM_CID_ASSOCIATIONS>
117603095  1

> <PUBCHEM_COORDINATE_TYPE>
1
3

$$$$
