310931317
  -OEChem-07211613022D

 27 29  0     1  0  0  0  0  0999 V2000
    0.7219   -2.7500    0.0000 Cl  0  0  0  0  0  0  0  0  0  0  0  0
    2.8875   -1.4438    0.0000 S   0  0  0  0  0  0  0  0  0  0  0  0
    0.7219   -5.2250    0.0000 O   0  0  0  0  0  0  0  0  0  0  0  0
    3.5750   -6.8407    0.0000 O   0  0  0  0  0  0  0  0  0  0  0  0
    5.0188   -1.9250    0.0000 O   0  0  0  0  0  0  0  0  0  0  0  0
    5.7063   -3.1625    0.0000 O   0  0  0  0  0  0  0  0  0  0  0  0
    4.2281   -1.4438    0.0000 N   0  0  0  0  0  0  0  0  0  0  0  0
    2.8532   -3.1625    0.0000 C   0  0  0  0  0  0  0  0  0  0  0  0
    3.5750   -2.7500    0.0000 C   0  0  3  0  0  0  0  0  0  0  0  0
    2.1312   -4.4000    0.0000 C   0  0  0  0  0  0  0  0  0  0  0  0
    2.1656   -5.2250    0.0000 C   0  0  0  0  0  0  0  0  0  0  0  0
    3.5750   -1.9250    0.0000 C   0  0  0  0  0  0  0  0  0  0  0  0
    2.8532   -3.9875    0.0000 C   0  0  0  0  0  0  0  0  0  0  0  0
    2.1656   -2.7500    0.0000 C   0  0  0  0  0  0  0  0  0  0  0  0
    1.4438   -5.6375    0.0000 C   0  0  0  0  0  0  0  0  0  0  0  0
    1.4438   -3.9875    0.0000 C   0  0  0  0  0  0  0  0  0  0  0  0
    1.4438   -3.1625    0.0000 C   0  0  0  0  0  0  0  0  0  0  0  0
    2.8532   -5.6375    0.0000 C   0  0  0  0  0  0  0  0  0  0  0  0
    4.2969   -3.1625    0.0000 C   0  0  0  0  0  0  0  0  0  0  0  0
    3.1625   -0.6531    0.0000 C   0  0  0  0  0  0  0  0  0  0  0  0
    2.8532   -6.4625    0.0000 C   0  0  0  0  0  0  0  0  0  0  0  0
    1.4438   -6.4625    0.0000 C   0  0  0  0  0  0  0  0  0  0  0  0
    3.9875   -0.6531    0.0000 C   0  0  0  0  0  0  0  0  0  0  0  0
    2.1656   -6.8750    0.0000 C   0  0  0  0  0  0  0  0  0  0  0  0
    5.0188   -2.7500    0.0000 C   0  0  0  0  0  0  0  0  0  0  0  0
    2.6813    0.0000    0.0000 C   0  0  0  0  0  0  0  0  0  0  0  0
    0.0000   -5.6375    0.0000 C   0  0  0  0  0  0  0  0  0  0  0  0
  1 17  1  0  0  0  0
  2 12  1  0  0  0  0
  2 20  1  0  0  0  0
  3 15  1  0  0  0  0
  3 27  1  0  0  0  0
  4 21  1  0  0  0  0
  5 25  2  0  0  0  0
  6 25  1  0  0  0  0
  7 12  2  0  0  0  0
  7 23  1  0  0  0  0
  8  9  1  0  0  0  0
  8 13  1  0  0  0  0
  8 14  2  0  0  0  0
  9 12  1  0  0  0  0
  9 19  1  0  0  0  0
 10 11  1  0  0  0  0
 10 13  2  0  0  0  0
 10 16  1  0  0  0  0
 11 15  2  0  0  0  0
 11 18  1  0  0  0  0
 14 17  1  0  0  0  0
 15 22  1  0  0  0  0
 16 17  2  0  0  0  0
 18 21  2  0  0  0  0
 19 25  1  0  0  0  0
 20 23  2  0  0  0  0
 20 26  1  0  0  0  0
 21 24  1  0  0  0  0
 22 24  2  0  0  0  0
M  END
> <PUBCHEM_COMPOUND_ID_TYPE>
0

> <PUBCHEM_TOTAL_CHARGE>
0

> <PUBCHEM_SUBSTANCE_ID>
310931317

> <PUBCHEM_SUBSTANCE_VERSION>
1

> <PUBCHEM_EXT_DATASOURCE_NAME>
4488

> <PUBCHEM_EXT_DATASOURCE_REGID>
SCHEMBL16108635

> <PUBCHEM_SUBSTANCE_COMMENT>
InChI=1S/C20H18ClNO4S/c1-11-10-22-20(27-11)17(9-19(24)25)13-5-12(6-14(21)7-13)16-8-15(23)3-4-18(16)26-2/h3-8,10,17,23H,9H2,1-2H3,(H,24,25)
InChIKey=XDEUGCOFNZASFI-UHFFFAOYSA-N

> <PUBCHEM_SUBSTANCE_SYNONYM>
SCHEMBL16108635

> <PUBCHEM_XREF_EXT_ID>
SCHEMBL16108635

> <PUBCHEM_EXT_DATASOURCE_URL>
https://www.surechembl.org/

> <PUBCHEM_EXT_SUBSTANCE_URL>
https://www.surechembl.org/chemical/SCHEMBL16108635

> <PUBCHEM_CID_ASSOCIATIONS>
86281812  1

> <PUBCHEM_COORDINATE_TYPE>
1
3

$$$$
