310943668
  -OEChem-07211613022D

 32 35  0     1  0  0  0  0  0999 V2000
   -3.3096   -1.2095    0.0000 N   0  0  3  0  0  0  0  0  0  0  0  0
    3.2546    0.8686    0.0000 N   0  0  3  0  0  0  0  0  0  0  0  0
    1.3744   -1.1984    0.0000 N   0  0  0  0  0  0  0  0  0  0  0  0
   -5.1018   -0.6487    0.0000 N   0  0  3  0  0  0  0  0  0  0  0  0
    5.0248    0.3189    0.0000 N   0  0  3  0  0  0  0  0  0  0  0  0
   -0.4178   -0.3629    0.0000 C   0  0  0  0  0  0  0  0  0  0  0  0
    0.2968    0.0770    0.0000 C   0  0  0  0  0  0  0  0  0  0  0  0
   -0.4398   -1.1984    0.0000 C   0  0  0  0  0  0  0  0  0  0  0  0
   -1.8802   -1.2095    0.0000 C   0  0  0  0  0  0  0  0  0  0  0  0
   -1.1215   -1.6163    0.0000 C   0  0  0  0  0  0  0  0  0  0  0  0
   -1.1325    0.0440    0.0000 C   0  0  0  0  0  0  0  0  0  0  0  0
   -1.8472   -0.3629    0.0000 C   0  0  0  0  0  0  0  0  0  0  0  0
    1.0115   -0.3518    0.0000 C   0  0  0  0  0  0  0  0  0  0  0  0
    0.3079    0.9016    0.0000 C   0  0  0  0  0  0  0  0  0  0  0  0
    1.7373    0.8906    0.0000 C   0  0  0  0  0  0  0  0  0  0  0  0
   -2.5839   -1.6163    0.0000 C   0  0  0  0  0  0  0  0  0  0  0  0
    1.7263    0.0550    0.0000 C   0  0  0  0  0  0  0  0  0  0  0  0
    1.0226    1.2974    0.0000 C   0  0  0  0  0  0  0  0  0  0  0  0
    0.4948   -1.7152    0.0000 C   0  0  0  0  0  0  0  0  0  0  0  0
    2.4410    1.3085    0.0000 C   0  0  0  0  0  0  0  0  0  0  0  0
   -4.0023   -1.6712    0.0000 C   0  0  0  0  0  0  0  0  0  0  0  0
   -3.2546   -0.3629    0.0000 C   0  0  0  0  0  0  0  0  0  0  0  0
    3.5515    0.0989    0.0000 C   0  0  0  0  0  0  0  0  0  0  0  0
    3.6724    1.6053    0.0000 C   0  0  0  0  0  0  0  0  0  0  0  0
   -4.7829   -1.4294    0.0000 C   0  0  0  0  0  0  0  0  0  0  0  0
   -3.8373    0.1869    0.0000 C   0  0  0  0  0  0  0  0  0  0  0  0
    4.3541   -0.1539    0.0000 C   0  0  0  0  0  0  0  0  0  0  0  0
   -4.6620    0.0770    0.0000 C   0  0  0  0  0  0  0  0  0  0  0  0
    4.4970    1.7152    0.0000 C   0  0  0  0  0  0  0  0  0  0  0  0
    5.0908    1.1545    0.0000 C   0  0  0  0  0  0  0  0  0  0  0  0
   -5.9264   -0.6487    0.0000 C   0  0  0  0  0  0  0  0  0  0  0  0
    5.9264   -0.2089    0.0000 C   0  0  0  0  0  0  0  0  0  0  0  0
  1 16  1  0  0  0  0
  1 21  1  0  0  0  0
  1 22  1  0  0  0  0
  2 20  1  0  0  0  0
  2 23  1  0  0  0  0
  2 24  1  0  0  0  0
  3 19  1  0  0  0  0
  4 25  1  0  0  0  0
  4 28  1  0  0  0  0
  4 31  1  0  0  0  0
  5 27  1  0  0  0  0
  5 30  1  0  0  0  0
  5 32  1  0  0  0  0
  6  7  1  0  0  0  0
  6  8  1  0  0  0  0
  6 11  2  0  0  0  0
  7 13  2  0  0  0  0
  7 14  1  0  0  0  0
  8 10  2  0  0  0  0
  8 19  1  0  0  0  0
  9 10  1  0  0  0  0
  9 12  2  0  0  0  0
  9 16  1  0  0  0  0
 11 12  1  0  0  0  0
 13 17  1  0  0  0  0
 14 18  2  0  0  0  0
 15 17  2  0  0  0  0
 15 18  1  0  0  0  0
 15 20  1  0  0  0  0
 21 25  1  0  0  0  0
 22 26  1  0  0  0  0
 23 27  1  0  0  0  0
 24 29  1  0  0  0  0
 26 28  1  0  0  0  0
 29 30  1  0  0  0  0
M  END
> <PUBCHEM_COMPOUND_ID_TYPE>
0

> <PUBCHEM_TOTAL_CHARGE>
0

> <PUBCHEM_SUBSTANCE_ID>
310943668

> <PUBCHEM_SUBSTANCE_VERSION>
1

> <PUBCHEM_EXT_DATASOURCE_NAME>
4488

> <PUBCHEM_EXT_DATASOURCE_REGID>
SCHEMBL16121736

> <PUBCHEM_SUBSTANCE_COMMENT>
InChI=1S/C27H41N5/c1-29-11-3-13-31(17-15-29)21-23-5-8-25(9-6-23)27-10-7-24(19-26(27)20-28)22-32-14-4-12-30(2)16-18-32/h5-10,19H,3-4,11-18,20-22,28H2,1-2H3
InChIKey=QXEAIGDELVLRBB-UHFFFAOYSA-N

> <PUBCHEM_SUBSTANCE_SYNONYM>
SCHEMBL16121736

> <PUBCHEM_XREF_EXT_ID>
SCHEMBL16121736

> <PUBCHEM_EXT_DATASOURCE_URL>
https://www.surechembl.org/

> <PUBCHEM_EXT_SUBSTANCE_URL>
https://www.surechembl.org/chemical/SCHEMBL16121736

> <PUBCHEM_CID_ASSOCIATIONS>
117610057  1

> <PUBCHEM_COORDINATE_TYPE>
1
3

$$$$
