310934975
  -OEChem-07211613022D

 16 17  0     1  0  0  0  0  0999 V2000
    0.5952   -1.6213    0.0000 O   0  0  0  0  0  0  0  0  0  0  0  0
    2.9142    0.0000    0.0000 O   0  0  0  0  0  0  0  0  0  0  0  0
    3.7761   -1.4571    0.0000 O   0  0  0  0  0  0  0  0  0  0  0  0
    3.7761   -0.0205    0.0000 N   0  0  0  0  0  0  0  0  0  0  0  0
    2.5243   -0.7388    0.0000 C   0  0  3  0  0  0  0  0  0  0  0  0
    1.2724   -1.1493    0.0000 C   0  0  3  0  0  0  0  0  0  0  0  0
    2.0523   -1.4161    0.0000 C   0  0  0  0  0  0  0  0  0  0  0  0
    2.0523   -0.0616    0.0000 C   0  0  0  0  0  0  0  0  0  0  0  0
    3.3657   -0.7388    0.0000 C   0  0  0  0  0  0  0  0  0  0  0  0
    1.2724   -0.3284    0.0000 C   0  0  0  0  0  0  0  0  0  0  0  0
    0.6773   -2.4627    0.0000 C   0  0  0  0  0  0  0  0  0  0  0  0
    0.0000   -2.9552    0.0000 C   0  0  0  0  0  0  0  0  0  0  0  0
    1.4161   -2.7911    0.0000 C   0  0  0  0  0  0  0  0  0  0  0  0
    0.0821   -3.7556    0.0000 C   0  0  0  0  0  0  0  0  0  0  0  0
    1.4981   -3.6120    0.0000 C   0  0  0  0  0  0  0  0  0  0  0  0
    0.8209   -4.1046    0.0000 C   0  0  0  0  0  0  0  0  0  0  0  0
  1  6  1  0  0  0  0
  1 11  1  0  0  0  0
  2  5  1  0  0  0  0
  3  9  2  0  0  0  0
  4  9  1  0  0  0  0
  5  7  1  0  0  0  0
  5  8  1  0  0  0  0
  5  9  1  0  0  0  0
  6  7  1  0  0  0  0
  6 10  1  0  0  0  0
  8 10  1  0  0  0  0
 11 12  2  0  0  0  0
 11 13  1  0  0  0  0
 12 14  1  0  0  0  0
 13 15  2  0  0  0  0
 14 16  2  0  0  0  0
 15 16  1  0  0  0  0
M  END
> <PUBCHEM_COMPOUND_ID_TYPE>
0

> <PUBCHEM_TOTAL_CHARGE>
0

> <PUBCHEM_SUBSTANCE_ID>
310934975

> <PUBCHEM_SUBSTANCE_VERSION>
1

> <PUBCHEM_EXT_DATASOURCE_NAME>
4488

> <PUBCHEM_EXT_DATASOURCE_REGID>
SCHEMBL16112491

> <PUBCHEM_SUBSTANCE_COMMENT>
InChI=1S/C12H15NO3/c13-11(14)12(15)7-6-10(8-12)16-9-4-2-1-3-5-9/h1-5,10,15H,6-8H2,(H2,13,14)
InChIKey=NDPQNUDZNJMHBI-UHFFFAOYSA-N

> <PUBCHEM_SUBSTANCE_SYNONYM>
SCHEMBL16112491

> <PUBCHEM_XREF_EXT_ID>
SCHEMBL16112491

> <PUBCHEM_EXT_DATASOURCE_URL>
https://www.surechembl.org/

> <PUBCHEM_EXT_SUBSTANCE_URL>
https://www.surechembl.org/chemical/SCHEMBL16112491

> <PUBCHEM_CID_ASSOCIATIONS>
117603093  1

> <PUBCHEM_COORDINATE_TYPE>
1
3

$$$$
