310940444
  -OEChem-07211613022D

 25 28  0     1  0  0  0  0  0999 V2000
    1.2382    0.1743    0.0000 N   0  0  0  0  0  0  0  0  0  0  0  0
    1.2382   -1.1465    0.0000 N   0  0  0  0  0  0  0  0  0  0  0  0
   -0.2476   -1.3116    0.0000 N   0  0  0  0  0  0  0  0  0  0  0  0
   -0.9447   -0.0825    0.0000 N   0  0  0  0  0  0  0  0  0  0  0  0
    0.4678   -0.0458    0.0000 C   0  0  0  0  0  0  0  0  0  0  0  0
    0.4495   -0.8713    0.0000 C   0  0  0  0  0  0  0  0  0  0  0  0
    1.7335   -0.4678    0.0000 C   0  0  3  0  0  0  0  0  0  0  0  0
    1.4951    0.9814    0.0000 C   0  0  0  0  0  0  0  0  0  0  0  0
   -0.9631   -0.8713    0.0000 C   0  0  0  0  0  0  0  0  0  0  0  0
   -0.2660    0.3394    0.0000 C   0  0  0  0  0  0  0  0  0  0  0  0
   -1.6602   -1.2749    0.0000 C   0  0  0  0  0  0  0  0  0  0  0  0
    2.2838    1.1465    0.0000 C   0  0  0  0  0  0  0  0  0  0  0  0
    0.9998    1.5318    0.0000 C   0  0  0  0  0  0  0  0  0  0  0  0
    3.0543   -0.5045    0.0000 C   0  0  0  0  0  0  0  0  0  0  0  0
    1.5134   -1.9353    0.0000 C   0  0  0  0  0  0  0  0  0  0  0  0
   -1.6602   -2.1004    0.0000 C   0  0  0  0  0  0  0  0  0  0  0  0
    2.5407    1.9170    0.0000 C   0  0  0  0  0  0  0  0  0  0  0  0
   -2.4123   -0.8897    0.0000 C   0  0  0  0  0  0  0  0  0  0  0  0
    1.2016    2.3389    0.0000 C   0  0  0  0  0  0  0  0  0  0  0  0
    2.0086    2.5040    0.0000 C   0  0  0  0  0  0  0  0  0  0  0  0
    3.0359   -0.2293    0.0000 C   0  0  0  0  0  0  0  0  0  0  0  0
   -2.3939   -2.5040    0.0000 C   0  0  0  0  0  0  0  0  0  0  0  0
   -3.0543   -1.2749    0.0000 C   0  0  0  0  0  0  0  0  0  0  0  0
   -3.0543   -2.1371    0.0000 C   0  0  0  0  0  0  0  0  0  0  0  0
   -0.9447   -2.4856    0.0000 C   0  0  0  0  0  0  0  0  0  0  0  0
  1  5  1  0  0  0  0
  1  7  1  0  0  0  0
  1  8  1  0  0  0  0
  2  6  1  0  0  0  0
  2  7  1  0  0  0  0
  2 15  1  0  0  0  0
  3  6  2  0  0  0  0
  3  9  1  0  0  0  0
  4  9  2  0  0  0  0
  4 10  1  0  0  0  0
  5  6  1  0  0  0  0
  5 10  2  0  0  0  0
  7 14  1  0  0  0  0
  8 12  2  0  0  0  0
  8 13  1  0  0  0  0
  9 11  1  0  0  0  0
 11 16  1  0  0  0  0
 11 18  2  0  0  0  0
 12 17  1  0  0  0  0
 12 21  1  0  0  0  0
 13 19  2  0  0  0  0
 16 22  2  0  0  0  0
 16 25  1  0  0  0  0
 17 20  2  0  0  0  0
 18 23  1  0  0  0  0
 19 20  1  0  0  0  0
 22 24  1  0  0  0  0
 23 24  2  0  0  0  0
M  END
> <PUBCHEM_COMPOUND_ID_TYPE>
0

> <PUBCHEM_TOTAL_CHARGE>
0

> <PUBCHEM_SUBSTANCE_ID>
310940444

> <PUBCHEM_SUBSTANCE_VERSION>
1

> <PUBCHEM_EXT_DATASOURCE_NAME>
4488

> <PUBCHEM_EXT_DATASOURCE_REGID>
SCHEMBL16118397

> <PUBCHEM_SUBSTANCE_COMMENT>
InChI=1S/C21H22N4/c1-14-9-5-7-11-17(14)20-22-13-19-21(23-20)24(4)16(3)25(19)18-12-8-6-10-15(18)2/h5-13,16H,1-4H3
InChIKey=PALPCNUFLXINCI-UHFFFAOYSA-N

> <PUBCHEM_SUBSTANCE_SYNONYM>
SCHEMBL16118397

> <PUBCHEM_XREF_EXT_ID>
SCHEMBL16118397

> <PUBCHEM_EXT_DATASOURCE_URL>
https://www.surechembl.org/

> <PUBCHEM_EXT_SUBSTANCE_URL>
https://www.surechembl.org/chemical/SCHEMBL16118397

> <PUBCHEM_CID_ASSOCIATIONS>
117607464  1

> <PUBCHEM_COORDINATE_TYPE>
1
3

$$$$
