310937013
  -OEChem-07211613022D

 24 26  0     1  0  0  0  0  0999 V2000
    2.8748    0.0000    0.0000 O   0  0  0  0  0  0  0  0  0  0  0  0
    5.0213   -1.2458    0.0000 N   0  0  0  0  0  0  0  0  0  0  0  0
    3.5839   -1.2458    0.0000 C   0  0  3  0  0  0  0  0  0  0  0  0
    2.8748   -1.6674    0.0000 C   0  0  0  0  0  0  0  0  0  0  0  0
    2.8748   -0.8241    0.0000 C   0  0  3  0  0  0  0  0  0  0  0  0
    2.1465   -1.2458    0.0000 C   0  0  0  0  0  0  0  0  0  0  0  0
    1.4565   -1.6674    0.0000 C   0  0  0  0  0  0  0  0  0  0  0  0
    4.3122   -0.8241    0.0000 C   0  0  0  0  0  0  0  0  0  0  0  0
    2.3190   -1.4182    0.0000 C   0  0  0  0  0  0  0  0  0  0  0  0
    2.8748   -2.4915    0.0000 C   0  0  0  0  0  0  0  0  0  0  0  0
    1.4565   -2.4915    0.0000 C   0  0  0  0  0  0  0  0  0  0  0  0
    3.5839   -2.0890    0.0000 C   0  0  0  0  0  0  0  0  0  0  0  0
    2.1465   -2.9131    0.0000 C   0  0  0  0  0  0  0  0  0  0  0  0
    0.7283   -1.2458    0.0000 C   0  0  0  0  0  0  0  0  0  0  0  0
    2.1465   -2.0890    0.0000 C   0  0  0  0  0  0  0  0  0  0  0  0
    1.4182   -0.8432    0.0000 C   0  0  0  0  0  0  0  0  0  0  0  0
    0.7283   -2.9131    0.0000 C   0  0  0  0  0  0  0  0  0  0  0  0
    0.0000   -1.6674    0.0000 C   0  0  0  0  0  0  0  0  0  0  0  0
    0.0000   -2.4915    0.0000 C   0  0  0  0  0  0  0  0  0  0  0  0
    1.5907   -2.6640    0.0000 C   0  0  0  0  0  0  0  0  0  0  0  0
    0.8816   -1.4182    0.0000 C   0  0  0  0  0  0  0  0  0  0  0  0
    0.7091   -2.0890    0.0000 C   0  0  0  0  0  0  0  0  0  0  0  0
    5.0213   -2.0699    0.0000 C   0  0  0  0  0  0  0  0  0  0  0  0
    5.7496   -0.8241    0.0000 C   0  0  0  0  0  0  0  0  0  0  0  0
  1  5  1  0  0  0  0
  2  8  1  0  0  0  0
  2 23  1  0  0  0  0
  2 24  1  0  0  0  0
  3  4  1  0  0  0  0
  3  5  1  0  0  0  0
  3  8  1  0  0  0  0
  3 12  1  0  0  0  0
  4  6  2  0  0  0  0
  4 10  1  0  0  0  0
  5  9  1  0  0  0  0
  6  7  1  0  0  0  0
  7 11  2  0  0  0  0
  7 14  1  0  0  0  0
  9 15  2  0  0  0  0
  9 16  1  0  0  0  0
 10 13  2  0  0  0  0
 11 13  1  0  0  0  0
 11 17  1  0  0  0  0
 14 18  2  0  0  0  0
 15 20  1  0  0  0  0
 16 21  2  0  0  0  0
 17 19  2  0  0  0  0
 18 19  1  0  0  0  0
 20 22  2  0  0  0  0
 21 22  1  0  0  0  0
M  END
> <PUBCHEM_COMPOUND_ID_TYPE>
0

> <PUBCHEM_TOTAL_CHARGE>
0

> <PUBCHEM_SUBSTANCE_ID>
310937013

> <PUBCHEM_SUBSTANCE_VERSION>
1

> <PUBCHEM_EXT_DATASOURCE_NAME>
4488

> <PUBCHEM_EXT_DATASOURCE_REGID>
SCHEMBL16114722

> <PUBCHEM_SUBSTANCE_COMMENT>
InChI=1S/C22H25NO/c1-22(16-23(2)3,21(24)18-10-5-4-6-11-18)20-14-13-17-9-7-8-12-19(17)15-20/h4-15,21,24H,16H2,1-3H3
InChIKey=WVMRNJPSSWNSQF-UHFFFAOYSA-N

> <PUBCHEM_SUBSTANCE_SYNONYM>
SCHEMBL16114722

> <PUBCHEM_XREF_EXT_ID>
SCHEMBL16114722

> <PUBCHEM_EXT_DATASOURCE_URL>
https://www.surechembl.org/

> <PUBCHEM_EXT_SUBSTANCE_URL>
https://www.surechembl.org/chemical/SCHEMBL16114722

> <PUBCHEM_CID_ASSOCIATIONS>
86287683  1

> <PUBCHEM_COORDINATE_TYPE>
1
3

$$$$
