310939087
  -OEChem-07211613022D

 11 11  0     1  0  0  0  0  0999 V2000
    1.6987    0.4518    0.0000 O   0  0  0  0  0  0  0  0  0  0  0  0
    1.8563   -1.0473    0.0000 O   0  0  0  0  0  0  0  0  0  0  0  0
    1.0313    1.7617    0.0000 O   0  0  0  0  0  0  0  0  0  0  0  0
    0.3638    0.4518    0.0000 N   0  0  0  0  0  0  0  0  0  0  0  0
   -1.0313   -1.7617    0.0000 N   0  0  0  0  0  0  0  0  0  0  0  0
    0.6187   -0.3328    0.0000 C   0  0  3  0  0  0  0  0  0  0  0  0
    1.4437   -0.3328    0.0000 C   0  0  0  0  0  0  0  0  0  0  0  0
    1.0313    0.9367    0.0000 C   0  0  0  0  0  0  0  0  0  0  0  0
    0.2062   -1.0473    0.0000 C   0  0  0  0  0  0  0  0  0  0  0  0
   -0.6187   -1.0473    0.0000 C   0  0  0  0  0  0  0  0  0  0  0  0
   -1.8563   -1.7617    0.0000 C   0  0  0  0  0  0  0  0  0  0  0  0
  1  7  1  0  0  0  0
  1  8  1  0  0  0  0
  2  7  2  0  0  0  0
  3  8  2  0  0  0  0
  4  6  1  0  0  0  0
  4  8  1  0  0  0  0
  5 10  1  0  0  0  0
  5 11  1  0  0  0  0
  6  7  1  0  0  0  0
  6  9  1  0  0  0  0
  9 10  1  0  0  0  0
M  END
> <PUBCHEM_COMPOUND_ID_TYPE>
0

> <PUBCHEM_TOTAL_CHARGE>
0

> <PUBCHEM_SUBSTANCE_ID>
310939087

> <PUBCHEM_SUBSTANCE_VERSION>
1

> <PUBCHEM_EXT_DATASOURCE_NAME>
4488

> <PUBCHEM_EXT_DATASOURCE_REGID>
SCHEMBL16117006

> <PUBCHEM_SUBSTANCE_COMMENT>
InChI=1S/C6H10N2O3/c1-7-3-2-4-5(9)11-6(10)8-4/h4,7H,2-3H2,1H3,(H,8,10)
InChIKey=JCABFEBSKUQNGB-UHFFFAOYSA-N

> <PUBCHEM_SUBSTANCE_SYNONYM>
SCHEMBL16117006

> <PUBCHEM_XREF_EXT_ID>
SCHEMBL16117006

> <PUBCHEM_EXT_DATASOURCE_URL>
https://www.surechembl.org/

> <PUBCHEM_EXT_SUBSTANCE_URL>
https://www.surechembl.org/chemical/SCHEMBL16117006

> <PUBCHEM_CID_ASSOCIATIONS>
117606448  1

> <PUBCHEM_COORDINATE_TYPE>
1
3

$$$$
