310943886
  -OEChem-07211613022D

 14 16  0     1  0  0  0  0  0999 V2000
    2.4812    0.3109    0.0000 O   0  0  0  0  0  0  0  0  0  0  0  0
   -1.2717   -0.2882    0.0000 N   0  0  0  0  0  0  0  0  0  0  0  0
    0.1526   -0.5369    0.0000 N   0  0  0  0  0  0  0  0  0  0  0  0
   -1.9612    0.1639    0.0000 N   0  0  0  0  0  0  0  0  0  0  0  0
   -2.6168   -0.3448    0.0000 N   0  0  0  0  0  0  0  0  0  0  0  0
   -2.3229   -1.1135    0.0000 N   0  0  0  0  0  0  0  0  0  0  0  0
    1.8368    0.8421    0.0000 C   0  0  3  0  0  0  0  0  0  0  0  0
    1.0682    0.5596    0.0000 C   0  0  0  0  0  0  0  0  0  0  0  0
   -0.5143   -0.0057    0.0000 C   0  0  0  0  0  0  0  0  0  0  0  0
    2.6168    1.1135    0.0000 C   0  0  0  0  0  0  0  0  0  0  0  0
   -0.3448    0.7969    0.0000 C   0  0  0  0  0  0  0  0  0  0  0  0
    0.9212   -0.2544    0.0000 C   0  0  0  0  0  0  0  0  0  0  0  0
    0.4013    1.0795    0.0000 C   0  0  0  0  0  0  0  0  0  0  0  0
   -1.4978   -1.0908    0.0000 C   0  0  0  0  0  0  0  0  0  0  0  0
  7  1  1  1  0  0  0
  1 10  1  0  0  0  0
  2  4  1  0  0  0  0
  2  9  1  0  0  0  0
  2 14  1  0  0  0  0
  3  9  1  0  0  0  0
  3 12  2  0  0  0  0
  4  5  2  0  0  0  0
  5  6  1  0  0  0  0
  6 14  2  0  0  0  0
  7  8  1  0  0  0  0
  7 10  1  0  0  0  0
  8 12  1  0  0  0  0
  8 13  2  0  0  0  0
  9 11  2  0  0  0  0
 11 13  1  0  0  0  0
M  END
> <PUBCHEM_COMPOUND_ID_TYPE>
0

> <PUBCHEM_TOTAL_CHARGE>
0

> <PUBCHEM_SUBSTANCE_ID>
310943886

> <PUBCHEM_SUBSTANCE_VERSION>
1

> <PUBCHEM_EXT_DATASOURCE_NAME>
4488

> <PUBCHEM_EXT_DATASOURCE_REGID>
SCHEMBL16121957

> <PUBCHEM_SUBSTANCE_COMMENT>
InChI=1S/C8H7N5O/c1-2-8(13-5-10-11-12-13)9-3-6(1)7-4-14-7/h1-3,5,7H,4H2/t7-/m0/s1
InChIKey=CPAFRVZPLFANHK-ZETCQYMHSA-N

> <PUBCHEM_SUBSTANCE_SYNONYM>
SCHEMBL16121957

> <PUBCHEM_XREF_EXT_ID>
SCHEMBL16121957

> <PUBCHEM_EXT_DATASOURCE_URL>
https://www.surechembl.org/

> <PUBCHEM_EXT_SUBSTANCE_URL>
https://www.surechembl.org/chemical/SCHEMBL16121957

> <PUBCHEM_CID_ASSOCIATIONS>
117610211  1

> <PUBCHEM_COORDINATE_TYPE>
1
3

> <PUBCHEM_BONDANNOTATIONS>
7  1  5

$$$$
