310945567
  -OEChem-07211613022D

 25 28  0     1  0  0  0  0  0999 V2000
    2.5719    3.0775    0.0000 F   0  0  0  0  0  0  0  0  0  0  0  0
   -2.5719    1.4948    0.0000 O   0  0  0  0  0  0  0  0  0  0  0  0
    0.2418    0.7474    0.0000 N   0  0  0  0  0  0  0  0  0  0  0  0
    2.2642    1.6853    0.0000 N   0  0  0  0  0  0  0  0  0  0  0  0
   -0.4763   -1.4215    0.0000 N   0  0  0  0  0  0  0  0  0  0  0  0
    0.9013    1.2603    0.0000 C   0  0  0  0  0  0  0  0  0  0  0  0
    0.6522    2.0077    0.0000 C   0  0  0  0  0  0  0  0  0  0  0  0
   -0.4323    1.2457    0.0000 C   0  0  0  0  0  0  0  0  0  0  0  0
   -0.1685    2.0371    0.0000 C   0  0  0  0  0  0  0  0  0  0  0  0
    1.7219    1.0698    0.0000 C   0  0  0  0  0  0  0  0  0  0  0  0
    0.2272   -0.1758    0.0000 C   0  0  3  0  0  0  0  0  0  0  0  0
    1.2090    2.6379    0.0000 C   0  0  0  0  0  0  0  0  0  0  0  0
   -1.2236    1.0698    0.0000 C   0  0  0  0  0  0  0  0  0  0  0  0
   -0.7108    2.6232    0.0000 C   0  0  0  0  0  0  0  0  0  0  0  0
    2.0150    2.4620    0.0000 C   0  0  0  0  0  0  0  0  0  0  0  0
   -1.7952    1.6853    0.0000 C   0  0  0  0  0  0  0  0  0  0  0  0
   -1.5168    2.4620    0.0000 C   0  0  0  0  0  0  0  0  0  0  0  0
   -0.4617   -0.5862    0.0000 C   0  0  0  0  0  0  0  0  0  0  0  0
    2.0443    0.1758    0.0000 C   0  0  0  0  0  0  0  0  0  0  0  0
    0.9599   -0.6008    0.0000 C   0  0  0  0  0  0  0  0  0  0  0  0
   -1.1944   -1.8318    0.0000 C   0  0  0  0  0  0  0  0  0  0  0  0
    0.2418   -1.8465    0.0000 C   0  0  0  0  0  0  0  0  0  0  0  0
   -1.1944   -2.6525    0.0000 C   0  0  0  0  0  0  0  0  0  0  0  0
    0.2272   -2.6672    0.0000 C   0  0  0  0  0  0  0  0  0  0  0  0
   -0.4617   -3.0775    0.0000 C   0  0  0  0  0  0  0  0  0  0  0  0
  1 15  1  0  0  0  0
  2 16  1  0  0  0  0
  3  6  1  0  0  0  0
  3  8  1  0  0  0  0
  3 11  1  0  0  0  0
  4 10  2  0  0  0  0
  4 15  1  0  0  0  0
  5 18  1  0  0  0  0
  5 21  1  0  0  0  0
  5 22  1  0  0  0  0
  6  7  2  0  0  0  0
  6 10  1  0  0  0  0
  7  9  1  0  0  0  0
  7 12  1  0  0  0  0
  8  9  2  0  0  0  0
  8 13  1  0  0  0  0
  9 14  1  0  0  0  0
 10 19  1  0  0  0  0
 11 18  1  0  0  0  0
 11 20  1  0  0  0  0
 12 15  2  0  0  0  0
 13 16  2  0  0  0  0
 14 17  2  0  0  0  0
 16 17  1  0  0  0  0
 21 23  1  0  0  0  0
 22 24  1  0  0  0  0
 23 25  1  0  0  0  0
 24 25  1  0  0  0  0
M  END
> <PUBCHEM_COMPOUND_ID_TYPE>
0

> <PUBCHEM_TOTAL_CHARGE>
0

> <PUBCHEM_SUBSTANCE_ID>
310945567

> <PUBCHEM_SUBSTANCE_VERSION>
1

> <PUBCHEM_EXT_DATASOURCE_NAME>
4488

> <PUBCHEM_EXT_DATASOURCE_REGID>
SCHEMBL16123665

> <PUBCHEM_SUBSTANCE_COMMENT>
InChI=1S/C20H24FN3O/c1-13(12-23-8-4-3-5-9-23)24-18-10-15(25)6-7-16(18)17-11-19(21)22-14(2)20(17)24/h6-7,10-11,13,25H,3-5,8-9,12H2,1-2H3
InChIKey=WCDJPEWYMKGIBD-UHFFFAOYSA-N

> <PUBCHEM_SUBSTANCE_SYNONYM>
SCHEMBL16123665

> <PUBCHEM_XREF_EXT_ID>
SCHEMBL16123665

> <PUBCHEM_EXT_DATASOURCE_URL>
https://www.surechembl.org/

> <PUBCHEM_EXT_SUBSTANCE_URL>
https://www.surechembl.org/chemical/SCHEMBL16123665

> <PUBCHEM_CID_ASSOCIATIONS>
117611601  1

> <PUBCHEM_COORDINATE_TYPE>
1
3

$$$$
