310947227
  -OEChem-07211613022D

 29 31  0     1  0  0  0  0  0999 V2000
   -2.4359    7.1650    0.0000 F   0  0  0  0  0  0  0  0  0  0  0  0
   -0.3160   10.2954    0.0000 F   0  0  0  0  0  0  0  0  0  0  0  0
    0.6944    9.2850    0.0000 F   0  0  0  0  0  0  0  0  0  0  0  0
    0.4809   10.0819    0.0000 F   0  0  0  0  0  0  0  0  0  0  0  0
   -1.6962    9.9255    0.0000 O   0  0  0  0  0  0  0  0  0  0  0  0
   -1.3271    6.0706    0.0000 N   0  0  0  0  0  0  0  0  0  0  0  0
   -0.8421    5.4031    0.0000 N   0  0  0  0  0  0  0  0  0  0  0  0
    1.3714    6.4831    0.0000 N   0  0  3  0  0  0  0  0  0  0  0  0
   -1.0557    7.5349    0.0000 C   0  0  0  0  0  0  0  0  0  0  0  0
   -0.6858    8.9151    0.0000 C   0  0  0  0  0  0  0  0  0  0  0  0
   -0.8421    6.7380    0.0000 C   0  0  0  0  0  0  0  0  0  0  0  0
   -1.4827    9.1287    0.0000 C   0  0  0  0  0  0  0  0  0  0  0  0
   -1.8526    7.7484    0.0000 C   0  0  0  0  0  0  0  0  0  0  0  0
   -0.4723    8.1182    0.0000 C   0  0  0  0  0  0  0  0  0  0  0  0
   -0.1025    9.4985    0.0000 C   0  0  0  0  0  0  0  0  0  0  0  0
   -2.0661    8.5453    0.0000 C   0  0  0  0  0  0  0  0  0  0  0  0
   -0.0575    6.4831    0.0000 C   0  0  0  0  0  0  0  0  0  0  0  0
   -0.0575    5.6581    0.0000 C   0  0  0  0  0  0  0  0  0  0  0  0
    0.6570    6.8956    0.0000 C   0  0  0  0  0  0  0  0  0  0  0  0
   -2.4931   10.1391    0.0000 C   0  0  0  0  0  0  0  0  0  0  0  0
   -3.0765    9.5557    0.0000 C   0  0  0  0  0  0  0  0  0  0  0  0
   -2.7067   10.9360    0.0000 C   0  0  0  0  0  0  0  0  0  0  0  0
    2.0859    6.8956    0.0000 C   0  0  0  0  0  0  0  0  0  0  0  0
   -3.8734    9.7692    0.0000 C   0  0  0  0  0  0  0  0  0  0  0  0
   -3.5035   11.1495    0.0000 C   0  0  0  0  0  0  0  0  0  0  0  0
   -4.0869   10.5661    0.0000 C   0  0  0  0  0  0  0  0  0  0  0  0
    1.3714    5.6581    0.0000 C   0  0  0  0  0  0  0  0  0  0  0  0
    2.8004    6.4831    0.0000 C   0  0  0  0  0  0  0  0  0  0  0  0
    3.5148    6.8956    0.0000 C   0  0  0  0  0  0  0  0  0  0  0  0
  1 13  1  0  0  0  0
  2 15  1  0  0  0  0
  3 15  1  0  0  0  0
  4 15  1  0  0  0  0
  5 12  1  0  0  0  0
  5 20  1  0  0  0  0
  6  7  1  0  0  0  0
  6 11  2  0  0  0  0
  7 18  1  0  0  0  0
  8 19  1  0  0  0  0
  8 23  1  0  0  0  0
  8 27  1  0  0  0  0
  9 11  1  0  0  0  0
  9 13  1  0  0  0  0
  9 14  2  0  0  0  0
 10 12  2  0  0  0  0
 10 14  1  0  0  0  0
 10 15  1  0  0  0  0
 11 17  1  0  0  0  0
 12 16  1  0  0  0  0
 13 16  2  0  0  0  0
 17 18  2  0  0  0  0
 17 19  1  0  0  0  0
 20 21  2  0  0  0  0
 20 22  1  0  0  0  0
 21 24  1  0  0  0  0
 22 25  2  0  0  0  0
 23 28  1  0  0  0  0
 24 26  2  0  0  0  0
 25 26  1  0  0  0  0
 28 29  1  0  0  0  0
M  END
> <PUBCHEM_COMPOUND_ID_TYPE>
0

> <PUBCHEM_TOTAL_CHARGE>
0

> <PUBCHEM_SUBSTANCE_ID>
310947227

> <PUBCHEM_SUBSTANCE_VERSION>
1

> <PUBCHEM_EXT_DATASOURCE_NAME>
4488

> <PUBCHEM_EXT_DATASOURCE_REGID>
SCHEMBL16125382

> <PUBCHEM_SUBSTANCE_COMMENT>
InChI=1S/C21H21F4N3O/c1-3-9-28(2)13-14-12-26-27-20(14)16-10-17(21(23,24)25)19(11-18(16)22)29-15-7-5-4-6-8-15/h4-8,10-12H,3,9,13H2,1-2H3,(H,26,27)
InChIKey=XOBFDDDVRRNURL-UHFFFAOYSA-N

> <PUBCHEM_SUBSTANCE_SYNONYM>
SCHEMBL16125382

> <PUBCHEM_XREF_EXT_ID>
SCHEMBL16125382

> <PUBCHEM_EXT_DATASOURCE_URL>
https://www.surechembl.org/

> <PUBCHEM_EXT_SUBSTANCE_URL>
https://www.surechembl.org/chemical/SCHEMBL16125382

> <PUBCHEM_CID_ASSOCIATIONS>
117613042  1

> <PUBCHEM_COORDINATE_TYPE>
1
3

$$$$
