310929979
  -OEChem-07211613022D

 47 50  0     1  0  0  0  0  0999 V2000
    3.7813   -5.7750    0.0000 O   0  0  0  0  0  0  0  0  0  0  0  0
    6.1875   -7.2188    0.0000 O   0  0  0  0  0  0  0  0  0  0  0  0
    4.9500   -7.9063    0.0000 O   0  0  0  0  0  0  0  0  0  0  0  0
    7.4250   -9.4188    0.0000 O   0  0  0  0  0  0  0  0  0  0  0  0
    5.0188   -3.6437    0.0000 N   0  0  0  0  0  0  0  0  0  0  0  0
    3.7813   -4.3312    0.0000 N   0  0  0  0  0  0  0  0  0  0  0  0
    3.7813   -2.8875    0.0000 N   0  0  0  0  0  0  0  0  0  0  0  0
    4.6063   -4.3312    0.0000 C   0  0  0  0  0  0  0  0  0  0  0  0
    4.6063   -2.8875    0.0000 C   0  0  0  0  0  0  0  0  0  0  0  0
    3.3687   -3.6437    0.0000 C   0  0  0  0  0  0  0  0  0  0  0  0
    5.0188   -5.0188    0.0000 C   0  0  0  0  0  0  0  0  0  0  0  0
    5.0188   -2.2000    0.0000 C   0  0  0  0  0  0  0  0  0  0  0  0
    2.5438   -3.6437    0.0000 C   0  0  0  0  0  0  0  0  0  0  0  0
    4.6063   -5.7750    0.0000 C   0  0  0  0  0  0  0  0  0  0  0  0
    5.8438   -2.1313    0.0000 C   0  0  0  0  0  0  0  0  0  0  0  0
    2.0625   -2.8875    0.0000 C   0  0  0  0  0  0  0  0  0  0  0  0
    5.8438   -5.0875    0.0000 C   0  0  0  0  0  0  0  0  0  0  0  0
    4.6063   -1.4437    0.0000 C   0  0  0  0  0  0  0  0  0  0  0  0
    2.0625   -4.3312    0.0000 C   0  0  0  0  0  0  0  0  0  0  0  0
    5.0188   -6.4625    0.0000 C   0  0  0  0  0  0  0  0  0  0  0  0
    5.8438   -6.4625    0.0000 C   0  0  0  0  0  0  0  0  0  0  0  0
    6.2563   -5.7750    0.0000 C   0  0  0  0  0  0  0  0  0  0  0  0
    6.2563   -1.4437    0.0000 C   0  0  0  0  0  0  0  0  0  0  0  0
    1.2375   -2.8875    0.0000 C   0  0  0  0  0  0  0  0  0  0  0  0
    5.8438   -0.7562    0.0000 C   0  0  0  0  0  0  0  0  0  0  0  0
    0.8250   -3.6437    0.0000 C   0  0  0  0  0  0  0  0  0  0  0  0
    4.9500   -0.7562    0.0000 C   0  0  0  0  0  0  0  0  0  0  0  0
    1.2375   -4.3312    0.0000 C   0  0  0  0  0  0  0  0  0  0  0  0
    6.2563   -2.8875    0.0000 C   0  0  0  0  0  0  0  0  0  0  0  0
    2.4750   -2.2000    0.0000 C   0  0  0  0  0  0  0  0  0  0  0  0
    5.7750   -7.9063    0.0000 C   0  0  3  0  0  0  0  0  0  0  0  0
    6.2563    0.0000    0.0000 C   0  0  0  0  0  0  0  0  0  0  0  0
    0.0000   -3.6437    0.0000 C   0  0  0  0  0  0  0  0  0  0  0  0
    6.1875   -8.6625    0.0000 C   0  0  0  0  0  0  0  0  0  0  0  0
    7.0125   -8.6625    0.0000 C   0  0  0  0  0  0  0  0  0  0  0  0
    8.2501   -9.4188    0.0000 C   0  0  0  0  0  0  0  0  0  0  0  0
    8.6625  -10.1063    0.0000 C   0  0  0  0  0  0  0  0  0  0  0  0
    9.4875  -10.1063    0.0000 C   0  0  0  0  0  0  0  0  0  0  0  0
    9.9001  -10.8626    0.0000 C   0  0  0  0  0  0  0  0  0  0  0  0
   10.7938  -10.8626    0.0000 C   0  0  0  0  0  0  0  0  0  0  0  0
   11.2063  -11.5501    0.0000 C   0  0  0  0  0  0  0  0  0  0  0  0
   12.0313  -11.5501    0.0000 C   0  0  0  0  0  0  0  0  0  0  0  0
   12.4438  -12.3063    0.0000 C   0  0  0  0  0  0  0  0  0  0  0  0
   13.2688  -12.3063    0.0000 C   0  0  0  0  0  0  0  0  0  0  0  0
   13.6813  -12.9938    0.0000 C   0  0  0  0  0  0  0  0  0  0  0  0
   14.5063  -12.9938    0.0000 C   0  0  0  0  0  0  0  0  0  0  0  0
   14.9188  -13.7501    0.0000 C   0  0  0  0  0  0  0  0  0  0  0  0
  1 14  1  0  0  0  0
  2 21  1  0  0  0  0
  2 31  1  0  0  0  0
  3 31  1  0  0  0  0
  4 35  1  0  0  0  0
  4 36  1  0  0  0  0
  5  8  2  0  0  0  0
  5  9  1  0  0  0  0
  6  8  1  0  0  0  0
  6 10  2  0  0  0  0
  7  9  2  0  0  0  0
  7 10  1  0  0  0  0
  8 11  1  0  0  0  0
  9 12  1  0  0  0  0
 10 13  1  0  0  0  0
 11 14  1  0  0  0  0
 11 17  2  0  0  0  0
 12 15  1  0  0  0  0
 12 18  2  0  0  0  0
 13 16  1  0  0  0  0
 13 19  2  0  0  0  0
 14 20  2  0  0  0  0
 15 23  2  0  0  0  0
 15 29  1  0  0  0  0
 16 24  2  0  0  0  0
 16 30  1  0  0  0  0
 17 22  1  0  0  0  0
 18 27  1  0  0  0  0
 19 28  1  0  0  0  0
 20 21  1  0  0  0  0
 21 22  2  0  0  0  0
 23 25  1  0  0  0  0
 24 26  1  0  0  0  0
 25 27  2  0  0  0  0
 25 32  1  0  0  0  0
 26 28  2  0  0  0  0
 26 33  1  0  0  0  0
 31 34  1  0  0  0  0
 34 35  1  0  0  0  0
 36 37  1  0  0  0  0
 37 38  1  0  0  0  0
 38 39  1  0  0  0  0
 39 40  1  0  0  0  0
 40 41  1  0  0  0  0
 41 42  1  0  0  0  0
 42 43  1  0  0  0  0
 43 44  1  0  0  0  0
 44 45  1  0  0  0  0
 45 46  1  0  0  0  0
 46 47  1  0  0  0  0
M  END
> <PUBCHEM_COMPOUND_ID_TYPE>
0

> <PUBCHEM_TOTAL_CHARGE>
0

> <PUBCHEM_SUBSTANCE_ID>
310929979

> <PUBCHEM_SUBSTANCE_VERSION>
1

> <PUBCHEM_EXT_DATASOURCE_NAME>
4488

> <PUBCHEM_EXT_DATASOURCE_REGID>
SCHEMBL16107212

> <PUBCHEM_SUBSTANCE_COMMENT>
InChI=1S/C40H53N3O4/c1-6-7-8-9-10-11-12-13-14-15-23-46-24-22-37(45)47-32-18-21-35(36(44)27-32)40-42-38(33-19-16-28(2)25-30(33)4)41-39(43-40)34-20-17-29(3)26-31(34)5/h16-21,25-27,37,44-45H,6-15,22-24H2,1-5H3
InChIKey=UGGOTDGTSTVAHZ-UHFFFAOYSA-N

> <PUBCHEM_SUBSTANCE_SYNONYM>
SCHEMBL16107212

> <PUBCHEM_XREF_EXT_ID>
SCHEMBL16107212

> <PUBCHEM_EXT_DATASOURCE_URL>
https://www.surechembl.org/

> <PUBCHEM_EXT_SUBSTANCE_URL>
https://www.surechembl.org/chemical/SCHEMBL16107212

> <PUBCHEM_CID_ASSOCIATIONS>
117599237  1

> <PUBCHEM_COORDINATE_TYPE>
1
3

$$$$
