310930709
  -OEChem-07211613022D

 33 36  0     1  0  0  0  0  0999 V2000
    1.3222    5.5902    0.0000 S   0  0  0  0  0  0  0  0  0  0  0  0
    1.3693    3.8678    0.0000 S   0  0  0  0  0  0  0  0  0  0  0  0
    1.3222    7.2402    0.0000 F   0  0  0  0  0  0  0  0  0  0  0  0
   -1.5356    5.5902    0.0000 F   0  0  0  0  0  0  0  0  0  0  0  0
   -1.5356    7.2402    0.0000 O   0  0  0  0  0  0  0  0  0  0  0  0
    0.9097    4.8757    0.0000 O   0  0  0  0  0  0  0  0  0  0  0  0
    1.7347    6.3047    0.0000 O   0  0  0  0  0  0  0  0  0  0  0  0
   -3.6791    3.5277    0.0000 O   0  0  0  0  0  0  0  0  0  0  0  0
    2.0367    5.1777    0.0000 N   0  0  0  0  0  0  0  0  0  0  0  0
    2.7041    3.8678    0.0000 N   0  0  0  0  0  0  0  0  0  0  0  0
    1.6242    3.0831    0.0000 N   0  0  0  0  0  0  0  0  0  0  0  0
   -3.6791    8.4777    0.0000 N   0  0  0  0  0  0  0  0  0  0  0  0
    0.6078    6.0027    0.0000 C   0  0  0  0  0  0  0  0  0  0  0  0
    0.6078    6.8277    0.0000 C   0  0  0  0  0  0  0  0  0  0  0  0
   -0.8212    6.8277    0.0000 C   0  0  0  0  0  0  0  0  0  0  0  0
   -0.1067    5.5902    0.0000 C   0  0  0  0  0  0  0  0  0  0  0  0
   -0.8212    6.0027    0.0000 C   0  0  0  0  0  0  0  0  0  0  0  0
   -0.1067    7.2402    0.0000 C   0  0  0  0  0  0  0  0  0  0  0  0
    2.0367    4.3527    0.0000 C   0  0  0  0  0  0  0  0  0  0  0  0
   -2.9646    7.2402    0.0000 C   0  0  3  0  0  0  0  0  0  0  0  0
   -3.6791    6.8277    0.0000 C   0  0  3  0  0  0  0  0  0  0  0  0
   -2.2501    6.8277    0.0000 C   0  0  0  0  0  0  0  0  0  0  0  0
   -3.6791    6.0027    0.0000 C   0  0  0  0  0  0  0  0  0  0  0  0
   -2.9646    8.0652    0.0000 C   0  0  0  0  0  0  0  0  0  0  0  0
   -4.3935    7.2402    0.0000 C   0  0  0  0  0  0  0  0  0  0  0  0
    2.4492    3.0831    0.0000 C   0  0  0  0  0  0  0  0  0  0  0  0
   -4.3935    5.5902    0.0000 C   0  0  0  0  0  0  0  0  0  0  0  0
   -2.9646    5.5902    0.0000 C   0  0  0  0  0  0  0  0  0  0  0  0
   -4.3935    8.0652    0.0000 C   0  0  0  0  0  0  0  0  0  0  0  0
   -3.6791    4.3527    0.0000 C   0  0  0  0  0  0  0  0  0  0  0  0
   -4.3935    4.7652    0.0000 C   0  0  0  0  0  0  0  0  0  0  0  0
   -2.9646    4.7652    0.0000 C   0  0  0  0  0  0  0  0  0  0  0  0
   -2.9646    3.1152    0.0000 C   0  0  0  0  0  0  0  0  0  0  0  0
  1  6  2  0  0  0  0
  1  7  2  0  0  0  0
  1  9  1  0  0  0  0
  1 13  1  0  0  0  0
  2 11  1  0  0  0  0
  2 19  1  0  0  0  0
  3 14  1  0  0  0  0
  4 17  1  0  0  0  0
  5 15  1  0  0  0  0
  5 22  1  0  0  0  0
  8 30  1  0  0  0  0
  8 33  1  0  0  0  0
  9 19  1  0  0  0  0
 10 19  2  0  0  0  0
 10 26  1  0  0  0  0
 11 26  2  0  0  0  0
 12 24  1  0  0  0  0
 12 29  1  0  0  0  0
 13 14  2  0  0  0  0
 13 16  1  0  0  0  0
 14 18  1  0  0  0  0
 15 17  1  0  0  0  0
 15 18  2  0  0  0  0
 16 17  2  0  0  0  0
 20 21  1  0  0  0  0
 20 22  1  0  0  0  0
 20 24  1  0  0  0  0
 21 23  1  0  0  0  0
 21 25  1  0  0  0  0
 23 27  2  0  0  0  0
 23 28  1  0  0  0  0
 25 29  1  0  0  0  0
 27 31  1  0  0  0  0
 28 32  2  0  0  0  0
 30 31  2  0  0  0  0
 30 32  1  0  0  0  0
M  END
> <PUBCHEM_COMPOUND_ID_TYPE>
0

> <PUBCHEM_TOTAL_CHARGE>
0

> <PUBCHEM_SUBSTANCE_ID>
310930709

> <PUBCHEM_SUBSTANCE_VERSION>
1

> <PUBCHEM_EXT_DATASOURCE_NAME>
4488

> <PUBCHEM_EXT_DATASOURCE_REGID>
SCHEMBL16108006

> <PUBCHEM_SUBSTANCE_COMMENT>
InChI=1S/C21H22F2N4O4S2/c1-30-15-4-2-13(3-5-15)16-6-7-24-10-14(16)11-31-19-8-18(23)20(9-17(19)22)33(28,29)27-21-25-12-26-32-21/h2-5,8-9,12,14,16,24H,6-7,10-11H2,1H3,(H,25,26,27)
InChIKey=AIZOGXUDMVUJRT-UHFFFAOYSA-N

> <PUBCHEM_SUBSTANCE_SYNONYM>
SCHEMBL16108006

> <PUBCHEM_XREF_EXT_ID>
SCHEMBL16108006

> <PUBCHEM_EXT_DATASOURCE_URL>
https://www.surechembl.org/

> <PUBCHEM_EXT_SUBSTANCE_URL>
https://www.surechembl.org/chemical/SCHEMBL16108006

> <PUBCHEM_CID_ASSOCIATIONS>
78111568  1

> <PUBCHEM_COORDINATE_TYPE>
1
3

$$$$
