310939629
  -OEChem-07211613022D

 33 36  0     1  0  0  0  0  0999 V2000
   -1.4332   11.4469    0.0000 O   0  0  0  0  0  0  0  0  0  0  0  0
    4.2826    8.1469    0.0000 O   0  0  0  0  0  0  0  0  0  0  0  0
   -2.8621   10.6219    0.0000 O   0  0  0  0  0  0  0  0  0  0  0  0
    1.4247   10.6219    0.0000 N   0  0  0  0  0  0  0  0  0  0  0  0
    2.1392   11.8594    0.0000 N   0  0  0  0  0  0  0  0  0  0  0  0
    2.1392    9.3844    0.0000 N   0  0  0  0  0  0  0  0  0  0  0  0
   -4.2911   11.4469    0.0000 N   0  0  0  0  0  0  0  0  0  0  0  0
    1.4247   11.4469    0.0000 C   0  0  0  0  0  0  0  0  0  0  0  0
    2.1392   10.2094    0.0000 C   0  0  0  0  0  0  0  0  0  0  0  0
    2.8537   11.4469    0.0000 C   0  0  0  0  0  0  0  0  0  0  0  0
    0.7102   11.8594    0.0000 C   0  0  0  0  0  0  0  0  0  0  0  0
    2.8537   10.6219    0.0000 C   0  0  0  0  0  0  0  0  0  0  0  0
    3.5681   11.8594    0.0000 C   0  0  0  0  0  0  0  0  0  0  0  0
    2.8537    8.9719    0.0000 C   0  0  0  0  0  0  0  0  0  0  0  0
   -0.0042   11.4469    0.0000 C   0  0  0  0  0  0  0  0  0  0  0  0
    0.7102   12.6844    0.0000 C   0  0  0  0  0  0  0  0  0  0  0  0
   -0.7187   11.8594    0.0000 C   0  0  0  0  0  0  0  0  0  0  0  0
    3.5681   12.6844    0.0000 C   0  0  0  0  0  0  0  0  0  0  0  0
    4.2826   11.4469    0.0000 C   0  0  0  0  0  0  0  0  0  0  0  0
   -0.0042   13.0969    0.0000 C   0  0  0  0  0  0  0  0  0  0  0  0
   -0.7187   12.6844    0.0000 C   0  0  0  0  0  0  0  0  0  0  0  0
    2.8537    8.1469    0.0000 C   0  0  0  0  0  0  0  0  0  0  0  0
    3.5681    9.3844    0.0000 C   0  0  0  0  0  0  0  0  0  0  0  0
    1.4247    8.9719    0.0000 C   0  0  0  0  0  0  0  0  0  0  0  0
    4.2826   13.0969    0.0000 C   0  0  0  0  0  0  0  0  0  0  0  0
    4.9971   11.8594    0.0000 C   0  0  0  0  0  0  0  0  0  0  0  0
    3.5681    7.7344    0.0000 C   0  0  0  0  0  0  0  0  0  0  0  0
    4.2826    8.9719    0.0000 C   0  0  0  0  0  0  0  0  0  0  0  0
    4.9971   12.6844    0.0000 C   0  0  0  0  0  0  0  0  0  0  0  0
   -2.1476   11.8594    0.0000 C   0  0  0  0  0  0  0  0  0  0  0  0
   -2.8621   11.4469    0.0000 C   0  0  3  0  0  0  0  0  0  0  0  0
   -3.5766   11.8594    0.0000 C   0  0  0  0  0  0  0  0  0  0  0  0
   -5.0055   11.8594    0.0000 C   0  0  0  0  0  0  0  0  0  0  0  0
  1 17  1  0  0  0  0
  1 30  1  0  0  0  0
  2 27  1  0  0  0  0
  2 28  1  0  0  0  0
  3 31  1  0  0  0  0
  4  8  1  0  0  0  0
  4  9  2  0  0  0  0
  5  8  2  0  0  0  0
  5 10  1  0  0  0  0
  6  9  1  0  0  0  0
  6 14  1  0  0  0  0
  6 24  1  0  0  0  0
  7 32  1  0  0  0  0
  7 33  1  0  0  0  0
  8 11  1  0  0  0  0
  9 12  1  0  0  0  0
 10 12  2  0  0  0  0
 10 13  1  0  0  0  0
 11 15  2  0  0  0  0
 11 16  1  0  0  0  0
 13 18  2  0  0  0  0
 13 19  1  0  0  0  0
 14 22  1  0  0  0  0
 14 23  1  0  0  0  0
 15 17  1  0  0  0  0
 16 20  2  0  0  0  0
 17 21  2  0  0  0  0
 18 25  1  0  0  0  0
 19 26  2  0  0  0  0
 20 21  1  0  0  0  0
 22 27  1  0  0  0  0
 23 28  1  0  0  0  0
 25 29  2  0  0  0  0
 26 29  1  0  0  0  0
 30 31  1  0  0  0  0
 31 32  1  0  0  0  0
M  END
> <PUBCHEM_COMPOUND_ID_TYPE>
0

> <PUBCHEM_TOTAL_CHARGE>
0

> <PUBCHEM_SUBSTANCE_ID>
310939629

> <PUBCHEM_SUBSTANCE_VERSION>
1

> <PUBCHEM_EXT_DATASOURCE_NAME>
4488

> <PUBCHEM_EXT_DATASOURCE_REGID>
SCHEMBL16117559

> <PUBCHEM_SUBSTANCE_COMMENT>
InChI=1S/C26H32N4O3/c1-27-17-22(31)18-33-23-10-6-9-20(15-23)26-28-24(19-7-4-3-5-8-19)16-25(29-26)30(2)21-11-13-32-14-12-21/h3-10,15-16,21-22,27,31H,11-14,17-18H2,1-2H3
InChIKey=VCQYPXHFTDPFNT-UHFFFAOYSA-N

> <PUBCHEM_SUBSTANCE_SYNONYM>
SCHEMBL16117559

> <PUBCHEM_XREF_EXT_ID>
SCHEMBL16117559

> <PUBCHEM_EXT_DATASOURCE_URL>
https://www.surechembl.org/

> <PUBCHEM_EXT_SUBSTANCE_URL>
https://www.surechembl.org/chemical/SCHEMBL16117559

> <PUBCHEM_CID_ASSOCIATIONS>
117606869  1

> <PUBCHEM_COORDINATE_TYPE>
1
3

$$$$
