310939056
  -OEChem-07211613022D

 43 44  0     1  0  0  0  0  0999 V2000
   -1.7820    1.5908    0.0000 O   0  0  0  0  0  0  0  0  0  0  0  0
    1.0759    1.5908    0.0000 O   0  0  0  0  0  0  0  0  0  0  0  0
   -2.4964    2.8283    0.0000 O   0  0  0  0  0  0  0  0  0  0  0  0
    1.7904    2.8283    0.0000 O   0  0  0  0  0  0  0  0  0  0  0  0
   -2.4964   -0.4717    0.0000 O   0  0  0  0  0  0  0  0  0  0  0  0
    1.1246    0.3960    0.0000 O   0  0  0  0  0  0  0  0  0  0  0  0
   -3.2109    0.7658    0.0000 N   0  0  0  0  0  0  0  0  0  0  0  0
    2.5049    0.7658    0.0000 N   0  0  0  0  0  0  0  0  0  0  0  0
   -3.2109    1.5908    0.0000 C   0  0  3  0  0  0  0  0  0  0  0  0
    2.5049    1.5908    0.0000 C   0  0  3  0  0  0  0  0  0  0  0  0
   -2.4964    2.0033    0.0000 C   0  0  0  0  0  0  0  0  0  0  0  0
    1.7904    2.0033    0.0000 C   0  0  0  0  0  0  0  0  0  0  0  0
   -2.4964    0.3533    0.0000 C   0  0  0  0  0  0  0  0  0  0  0  0
    1.9215    0.1825    0.0000 C   0  0  0  0  0  0  0  0  0  0  0  0
   -3.9254    2.0033    0.0000 C   0  0  0  0  0  0  0  0  0  0  0  0
    3.2193    2.0033    0.0000 C   0  0  0  0  0  0  0  0  0  0  0  0
   -4.6398    0.7658    0.0000 C   0  0  0  0  0  0  0  0  0  0  0  0
    3.9338    0.7658    0.0000 C   0  0  0  0  0  0  0  0  0  0  0  0
   -4.6398    1.5908    0.0000 C   0  0  0  0  0  0  0  0  0  0  0  0
    3.9338    1.5908    0.0000 C   0  0  0  0  0  0  0  0  0  0  0  0
    3.2554    1.5218    0.0000 C   0  0  0  0  0  0  0  0  0  0  0  0
   -4.2826    0.9721    0.0000 C   0  0  0  0  0  0  0  0  0  0  0  0
   -1.0675    2.0033    0.0000 C   0  0  0  0  0  0  0  0  0  0  0  0
    0.3614    2.0033    0.0000 C   0  0  0  0  0  0  0  0  0  0  0  0
   -0.3530    1.5908    0.0000 C   0  0  0  0  0  0  0  0  0  0  0  0
    2.5733    1.0578    0.0000 C   0  0  0  0  0  0  0  0  0  0  0  0
   -3.5681    0.5596    0.0000 C   0  0  0  0  0  0  0  0  0  0  0  0
    2.6340    0.2351    0.0000 C   0  0  0  0  0  0  0  0  0  0  0  0
   -2.8537    0.9721    0.0000 C   0  0  0  0  0  0  0  0  0  0  0  0
    1.9519   -0.2289    0.0000 C   0  0  0  0  0  0  0  0  0  0  0  0
   -2.1392    0.5596    0.0000 C   0  0  0  0  0  0  0  0  0  0  0  0
    2.0126   -1.0517    0.0000 C   0  0  0  0  0  0  0  0  0  0  0  0
   -1.4247    0.9721    0.0000 C   0  0  0  0  0  0  0  0  0  0  0  0
    1.3305   -1.5157    0.0000 C   0  0  0  0  0  0  0  0  0  0  0  0
   -0.7103    0.5596    0.0000 C   0  0  0  0  0  0  0  0  0  0  0  0
    1.3912   -2.3384    0.0000 C   0  0  0  0  0  0  0  0  0  0  0  0
    0.0042    0.9721    0.0000 C   0  0  0  0  0  0  0  0  0  0  0  0
    0.7090   -2.8024    0.0000 C   0  0  0  0  0  0  0  0  0  0  0  0
    0.7187    0.5596    0.0000 C   0  0  0  0  0  0  0  0  0  0  0  0
   -0.9570    0.7658    0.0000 C   0  0  0  0  0  0  0  0  0  0  0  0
    2.8072   -0.6403    0.0000 C   0  0  0  0  0  0  0  0  0  0  0  0
    0.1195    0.7658    0.0000 C   0  0  0  0  0  0  0  0  0  0  0  0
    3.8837   -0.6403    0.0000 C   0  0  0  0  0  0  0  0  0  0  0  0
  1 11  1  0  0  0  0
  1 23  1  0  0  0  0
  2 12  1  0  0  0  0
  2 24  1  0  0  0  0
  3 11  2  0  0  0  0
  4 12  2  0  0  0  0
  5 13  2  0  0  0  0
  6 14  2  0  0  0  0
  7  9  1  0  0  0  0
  7 13  1  0  0  0  0
  7 17  1  0  0  0  0
  8 10  1  0  0  0  0
  8 14  1  0  0  0  0
  8 18  1  0  0  0  0
  9 11  1  0  0  0  0
  9 15  1  0  0  0  0
 10 12  1  0  0  0  0
 10 16  1  0  0  0  0
 13 22  1  0  0  0  0
 14 21  1  0  0  0  0
 15 19  1  0  0  0  0
 16 20  1  0  0  0  0
 17 19  1  0  0  0  0
 18 20  1  0  0  0  0
 21 26  1  0  0  0  0
 22 27  1  0  0  0  0
 23 25  1  0  0  0  0
 24 25  1  0  0  0  0
 26 28  1  0  0  0  0
 27 29  1  0  0  0  0
 28 30  1  0  0  0  0
 29 31  1  0  0  0  0
 30 32  1  0  0  0  0
 31 33  1  0  0  0  0
 32 34  1  0  0  0  0
 33 35  1  0  0  0  0
 34 36  1  0  0  0  0
 35 37  1  0  0  0  0
 36 38  1  0  0  0  0
 37 39  1  0  0  0  0
 38 41  1  0  0  0  0
 39 40  1  0  0  0  0
 40 42  2  0  0  0  0
 41 43  2  0  0  0  0
M  END
> <PUBCHEM_COMPOUND_ID_TYPE>
0

> <PUBCHEM_TOTAL_CHARGE>
0

> <PUBCHEM_SUBSTANCE_ID>
310939056

> <PUBCHEM_SUBSTANCE_VERSION>
1

> <PUBCHEM_EXT_DATASOURCE_NAME>
4488

> <PUBCHEM_EXT_DATASOURCE_REGID>
SCHEMBL16116975

> <PUBCHEM_SUBSTANCE_COMMENT>
InChI=1S/C35H58N2O6/c1-3-5-7-9-11-13-15-17-24-32(38)36-26-19-22-30(36)34(40)42-28-21-29-43-35(41)31-23-20-27-37(31)33(39)25-18-16-14-12-10-8-6-4-2/h3-4,30-31H,1-2,5-29H2
InChIKey=LENXBCLOGFLZJC-UHFFFAOYSA-N

> <PUBCHEM_SUBSTANCE_SYNONYM>
SCHEMBL16116975

> <PUBCHEM_XREF_EXT_ID>
SCHEMBL16116975

> <PUBCHEM_EXT_DATASOURCE_URL>
https://www.surechembl.org/

> <PUBCHEM_EXT_SUBSTANCE_URL>
https://www.surechembl.org/chemical/SCHEMBL16116975

> <PUBCHEM_CID_ASSOCIATIONS>
117606423  1

> <PUBCHEM_COORDINATE_TYPE>
1
3

$$$$
