310946547
  -OEChem-07211613022D

 14 13  0     1  0  0  0  0  0999 V2000
   -7.8153    5.4827    0.0000 O   0  0  0  0  0  0  0  0  0  0  0  0
   -7.1008    6.7202    0.0000 O   0  0  0  0  0  0  0  0  0  0  0  0
   -8.5298    6.7202    0.0000 O   0  0  0  0  0  0  0  0  0  0  0  0
   -7.8153    3.0077    0.0000 O   0  0  0  0  0  0  0  0  0  0  0  0
   -7.1008    4.2452    0.0000 O   0  0  0  0  0  0  0  0  0  0  0  0
   -9.2442    3.8327    0.0000 N   0  0  0  0  0  0  0  0  0  0  0  0
   -8.5298    4.2452    0.0000 C   0  0  3  0  0  0  0  0  0  0  0  0
   -7.8153    6.3077    0.0000 C   0  0  0  0  0  0  0  0  0  0  0  0
   -8.5298    5.0702    0.0000 C   0  0  0  0  0  0  0  0  0  0  0  0
   -7.8153    3.8327    0.0000 C   0  0  0  0  0  0  0  0  0  0  0  0
   -6.3863    6.3077    0.0000 C   0  0  0  0  0  0  0  0  0  0  0  0
   -5.6719    6.7202    0.0000 C   0  0  0  0  0  0  0  0  0  0  0  0
   -4.9574    6.3077    0.0000 C   0  0  0  0  0  0  0  0  0  0  0  0
   -4.2429    6.7202    0.0000 C   0  0  0  0  0  0  0  0  0  0  0  0
  1  8  1  0  0  0  0
  1  9  1  0  0  0  0
  2  8  1  0  0  0  0
  2 11  1  0  0  0  0
  3  8  2  0  0  0  0
  4 10  2  0  0  0  0
  5 10  1  0  0  0  0
  6  7  1  0  0  0  0
  7  9  1  0  0  0  0
  7 10  1  0  0  0  0
 11 12  1  0  0  0  0
 12 13  1  0  0  0  0
 13 14  1  0  0  0  0
M  END
> <PUBCHEM_COMPOUND_ID_TYPE>
0

> <PUBCHEM_TOTAL_CHARGE>
0

> <PUBCHEM_SUBSTANCE_ID>
310946547

> <PUBCHEM_SUBSTANCE_VERSION>
1

> <PUBCHEM_EXT_DATASOURCE_NAME>
4488

> <PUBCHEM_EXT_DATASOURCE_REGID>
SCHEMBL16124668

> <PUBCHEM_SUBSTANCE_COMMENT>
InChI=1S/C8H15NO5/c1-2-3-4-13-8(12)14-5-6(9)7(10)11/h6H,2-5,9H2,1H3,(H,10,11)
InChIKey=CXBQDFHSMLESTF-UHFFFAOYSA-N

> <PUBCHEM_SUBSTANCE_SYNONYM>
SCHEMBL16124668

> <PUBCHEM_XREF_EXT_ID>
SCHEMBL16124668

> <PUBCHEM_EXT_DATASOURCE_URL>
https://www.surechembl.org/

> <PUBCHEM_EXT_SUBSTANCE_URL>
https://www.surechembl.org/chemical/SCHEMBL16124668

> <PUBCHEM_CID_ASSOCIATIONS>
76453946  1

> <PUBCHEM_COORDINATE_TYPE>
1
3

$$$$
