310943192
  -OEChem-07211613022D

 35 38  0     1  0  0  0  0  0999 V2000
   -3.9424   -0.8262    0.0000 O   0  0  0  0  0  0  0  0  0  0  0  0
   -5.3902    1.6604    0.0000 O   0  0  0  0  0  0  0  0  0  0  0  0
    0.3699   -0.8262    0.0000 O   0  0  0  0  0  0  0  0  0  0  0  0
    5.3902   -2.0695    0.0000 O   0  0  0  0  0  0  0  0  0  0  0  0
   -2.5102   -0.8262    0.0000 N   0  0  0  0  0  0  0  0  0  0  0  0
   -3.9424    0.8262    0.0000 N   0  0  0  0  0  0  0  0  0  0  0  0
    1.0780    0.4171    0.0000 N   0  0  0  0  0  0  0  0  0  0  0  0
    3.9581   -0.4171    0.0000 N   0  0  3  0  0  0  0  0  0  0  0  0
    3.2341   -1.6604    0.0000 N   0  0  0  0  0  0  0  0  0  0  0  0
   -1.7863    0.4171    0.0000 C   0  0  0  0  0  0  0  0  0  0  0  0
   -3.2341    0.4328    0.0000 C   0  0  0  0  0  0  0  0  0  0  0  0
   -1.0938    0.8262    0.0000 C   0  0  0  0  0  0  0  0  0  0  0  0
   -3.2341   -0.3856    0.0000 C   0  0  0  0  0  0  0  0  0  0  0  0
   -2.5259    0.8262    0.0000 C   0  0  0  0  0  0  0  0  0  0  0  0
   -1.8021   -0.4171    0.0000 C   0  0  0  0  0  0  0  0  0  0  0  0
   -1.0780    1.6604    0.0000 C   0  0  0  0  0  0  0  0  0  0  0  0
   -0.3384    0.4328    0.0000 C   0  0  0  0  0  0  0  0  0  0  0  0
    0.3541    0.8419    0.0000 C   0  0  0  0  0  0  0  0  0  0  0  0
   -0.3699    2.0695    0.0000 C   0  0  0  0  0  0  0  0  0  0  0  0
    0.3541    1.6604    0.0000 C   0  0  0  0  0  0  0  0  0  0  0  0
    1.0938   -0.3856    0.0000 C   0  0  0  0  0  0  0  0  0  0  0  0
    1.8021   -0.8105    0.0000 C   0  0  0  0  0  0  0  0  0  0  0  0
   -3.9581    1.6604    0.0000 C   0  0  0  0  0  0  0  0  0  0  0  0
   -4.6505    0.4171    0.0000 C   0  0  0  0  0  0  0  0  0  0  0  0
   -2.4944   -1.6762    0.0000 C   0  0  0  0  0  0  0  0  0  0  0  0
    3.2341   -0.8105    0.0000 C   0  0  0  0  0  0  0  0  0  0  0  0
    2.5102   -0.4171    0.0000 C   0  0  0  0  0  0  0  0  0  0  0  0
   -1.8021    2.0538    0.0000 C   0  0  0  0  0  0  0  0  0  0  0  0
    1.8021   -1.6446    0.0000 C   0  0  0  0  0  0  0  0  0  0  0  0
   -4.6820    2.0695    0.0000 C   0  0  0  0  0  0  0  0  0  0  0  0
   -5.3902    0.8419    0.0000 C   0  0  0  0  0  0  0  0  0  0  0  0
    2.5417   -2.0538    0.0000 C   0  0  0  0  0  0  0  0  0  0  0  0
    4.6663   -0.8262    0.0000 C   0  0  0  0  0  0  0  0  0  0  0  0
    3.9424    0.4328    0.0000 C   0  0  0  0  0  0  0  0  0  0  0  0
    4.6663   -1.6446    0.0000 C   0  0  0  0  0  0  0  0  0  0  0  0
  1 13  2  0  0  0  0
  2 30  1  0  0  0  0
  2 31  1  0  0  0  0
  3 21  2  0  0  0  0
  4 35  1  0  0  0  0
  5 13  1  0  0  0  0
  5 15  1  0  0  0  0
  5 25  1  0  0  0  0
  6 11  1  0  0  0  0
  6 23  1  0  0  0  0
  6 24  1  0  0  0  0
  7 18  1  0  0  0  0
  7 21  1  0  0  0  0
  8 26  1  0  0  0  0
  8 33  1  0  0  0  0
  8 34  1  0  0  0  0
  9 26  1  0  0  0  0
  9 32  2  0  0  0  0
 10 12  1  0  0  0  0
 10 14  1  0  0  0  0
 10 15  2  0  0  0  0
 11 13  1  0  0  0  0
 11 14  2  0  0  0  0
 12 16  1  0  0  0  0
 12 17  2  0  0  0  0
 16 19  2  0  0  0  0
 16 28  1  0  0  0  0
 17 18  1  0  0  0  0
 18 20  2  0  0  0  0
 19 20  1  0  0  0  0
 21 22  1  0  0  0  0
 22 27  1  0  0  0  0
 22 29  2  0  0  0  0
 23 30  1  0  0  0  0
 24 31  1  0  0  0  0
 26 27  2  0  0  0  0
 29 32  1  0  0  0  0
 33 35  1  0  0  0  0
M  END
> <PUBCHEM_COMPOUND_ID_TYPE>
0

> <PUBCHEM_TOTAL_CHARGE>
0

> <PUBCHEM_SUBSTANCE_ID>
310943192

> <PUBCHEM_SUBSTANCE_VERSION>
1

> <PUBCHEM_EXT_DATASOURCE_NAME>
4488

> <PUBCHEM_EXT_DATASOURCE_REGID>
SCHEMBL16121253

> <PUBCHEM_SUBSTANCE_COMMENT>
InChI=1S/C26H31N5O4/c1-18-4-5-21(28-25(33)19-6-7-27-24(15-19)29(2)8-11-32)16-22(18)20-14-23(26(34)30(3)17-20)31-9-12-35-13-10-31/h4-7,14-17,32H,8-13H2,1-3H3,(H,28,33)
InChIKey=RHMMBSTYIGBNSX-UHFFFAOYSA-N

> <PUBCHEM_SUBSTANCE_SYNONYM>
SCHEMBL16121253

> <PUBCHEM_XREF_EXT_ID>
SCHEMBL16121253

> <PUBCHEM_EXT_DATASOURCE_URL>
https://www.surechembl.org/

> <PUBCHEM_EXT_SUBSTANCE_URL>
https://www.surechembl.org/chemical/SCHEMBL16121253

> <PUBCHEM_CID_ASSOCIATIONS>
117609620  1

> <PUBCHEM_COORDINATE_TYPE>
1
3

$$$$
