310933486
  -OEChem-07211613022D

 23 24  0     1  0  0  0  0  0999 V2000
    4.3005   -2.8580    0.0000 O   0  0  0  0  0  0  0  0  0  0  0  0
    3.5793   -1.6294    0.0000 O   0  0  0  0  0  0  0  0  0  0  0  0
    2.1101   -4.9148    0.0000 N   0  0  0  0  0  0  0  0  0  0  0  0
    0.0000   -2.8313    0.0000 N   0  0  0  0  0  0  0  0  0  0  0  0
    2.1368   -2.4574    0.0000 C   0  0  3  0  0  0  0  0  0  0  0  0
    1.4424   -2.8580    0.0000 C   0  0  3  0  0  0  0  0  0  0  0  0
    2.1368   -1.6294    0.0000 C   0  0  0  0  0  0  0  0  0  0  0  0
    1.4157   -3.6594    0.0000 C   0  0  0  0  0  0  0  0  0  0  0  0
    2.8848   -2.8580    0.0000 C   0  0  0  0  0  0  0  0  0  0  0  0
    0.7212   -2.4307    0.0000 C   0  0  0  0  0  0  0  0  0  0  0  0
    1.4157   -1.2287    0.0000 C   0  0  0  0  0  0  0  0  0  0  0  0
    2.8313   -1.2287    0.0000 C   0  0  0  0  0  0  0  0  0  0  0  0
    2.1101   -4.1135    0.0000 C   0  0  0  0  0  0  0  0  0  0  0  0
    0.6945   -4.0868    0.0000 C   0  0  0  0  0  0  0  0  0  0  0  0
    3.5793   -2.4307    0.0000 C   0  0  0  0  0  0  0  0  0  0  0  0
    0.6945   -4.8881    0.0000 C   0  0  0  0  0  0  0  0  0  0  0  0
    1.3890   -0.4273    0.0000 C   0  0  0  0  0  0  0  0  0  0  0  0
    2.8313   -0.4006    0.0000 C   0  0  0  0  0  0  0  0  0  0  0  0
    1.3890   -5.3422    0.0000 C   0  0  0  0  0  0  0  0  0  0  0  0
    2.1101    0.0000    0.0000 C   0  0  0  0  0  0  0  0  0  0  0  0
    4.9950   -2.4307    0.0000 C   0  0  0  0  0  0  0  0  0  0  0  0
    4.9950   -1.6294    0.0000 C   0  0  0  0  0  0  0  0  0  0  0  0
    4.3005   -1.2020    0.0000 C   0  0  0  0  0  0  0  0  0  0  0  0
  1 15  1  0  0  0  0
  1 21  1  0  0  0  0
  2 15  2  0  0  0  0
  3 13  1  0  0  0  0
  3 19  2  0  0  0  0
  4 10  3  0  0  0  0
  5  6  1  0  0  0  0
  5  7  1  0  0  0  0
  5  9  1  0  0  0  0
  6  8  1  0  0  0  0
  6 10  1  0  0  0  0
  7 11  2  0  0  0  0
  7 12  1  0  0  0  0
  8 13  2  0  0  0  0
  8 14  1  0  0  0  0
  9 15  1  0  0  0  0
 11 17  1  0  0  0  0
 12 18  2  0  0  0  0
 14 16  2  0  0  0  0
 16 19  1  0  0  0  0
 17 20  2  0  0  0  0
 18 20  1  0  0  0  0
 21 22  1  0  0  0  0
 22 23  2  0  0  0  0
M  END
> <PUBCHEM_COMPOUND_ID_TYPE>
0

> <PUBCHEM_TOTAL_CHARGE>
0

> <PUBCHEM_SUBSTANCE_ID>
310933486

> <PUBCHEM_SUBSTANCE_VERSION>
1

> <PUBCHEM_EXT_DATASOURCE_NAME>
4488

> <PUBCHEM_EXT_DATASOURCE_REGID>
SCHEMBL16110906

> <PUBCHEM_SUBSTANCE_COMMENT>
InChI=1S/C19H18N2O2/c1-2-11-23-19(22)12-17(15-7-4-3-5-8-15)18(13-20)16-9-6-10-21-14-16/h2-10,14,17-18H,1,11-12H2
InChIKey=MKEBWPBAPJENLA-UHFFFAOYSA-N

> <PUBCHEM_SUBSTANCE_SYNONYM>
SCHEMBL16110906

> <PUBCHEM_XREF_EXT_ID>
SCHEMBL16110906

> <PUBCHEM_EXT_DATASOURCE_URL>
https://www.surechembl.org/

> <PUBCHEM_EXT_SUBSTANCE_URL>
https://www.surechembl.org/chemical/SCHEMBL16110906

> <PUBCHEM_CID_ASSOCIATIONS>
117601881  1

> <PUBCHEM_COORDINATE_TYPE>
1
3

$$$$
