310933757
  -OEChem-07211613022D

 43 48  0     1  0  0  0  0  0999 V2000
   -2.7379   -4.2467    0.0000 Cl  0  0  0  0  0  0  0  0  0  0  0  0
   -2.0668   -2.7394    0.0000 F   0  0  0  0  0  0  0  0  0  0  0  0
   -2.8971   -0.0769    0.0000 O   0  0  0  0  0  0  0  0  0  0  0  0
   -1.4289    0.8250    0.0000 O   0  0  0  0  0  0  0  0  0  0  0  0
    0.7145    1.2375    0.0000 O   0  0  0  0  0  0  0  0  0  0  0  0
    0.0000    4.9500    0.0000 O   0  0  0  0  0  0  0  0  0  0  0  0
   -1.4289    4.9500    0.0000 O   0  0  0  0  0  0  0  0  0  0  0  0
   -0.7145   -0.4125    0.0000 N   0  0  0  0  0  0  0  0  0  0  0  0
   -0.7145    1.2375    0.0000 N   0  0  0  0  0  0  0  0  0  0  0  0
   -3.4491   -0.6900    0.0000 N   0  0  0  0  0  0  0  0  0  0  0  0
    0.7145   -3.7125    0.0000 N   0  0  0  0  0  0  0  0  0  0  0  0
    2.1434   -3.7125    0.0000 N   0  0  0  0  0  0  0  0  0  0  0  0
    0.0000    0.0000    0.0000 C   0  0  3  0  0  0  0  0  0  0  0  0
    0.7145   -0.4125    0.0000 C   0  0  0  0  0  0  0  0  0  0  0  0
    0.7145   -1.2375    0.0000 C   0  0  0  0  0  0  0  0  0  0  0  0
   -1.4289    0.0000    0.0000 C   0  0  0  0  0  0  0  0  0  0  0  0
    1.4289   -1.6500    0.0000 C   0  0  0  0  0  0  0  0  0  0  0  0
    0.0000    0.8250    0.0000 C   0  0  0  0  0  0  0  0  0  0  0  0
   -2.1434   -0.4125    0.0000 C   0  0  3  0  0  0  0  0  0  0  0  0
   -0.7145   -1.2375    0.0000 C   0  0  0  0  0  0  0  0  0  0  0  0
    0.0000   -1.6500    0.0000 C   0  0  0  0  0  0  0  0  0  0  0  0
    1.4289    0.0000    0.0000 C   0  0  0  0  0  0  0  0  0  0  0  0
   -3.0366   -1.4045    0.0000 C   0  0  0  0  0  0  0  0  0  0  0  0
    1.4289   -2.4750    0.0000 C   0  0  0  0  0  0  0  0  0  0  0  0
   -2.2296   -1.2330    0.0000 C   0  0  0  0  0  0  0  0  0  0  0  0
    2.1434   -1.2375    0.0000 C   0  0  0  0  0  0  0  0  0  0  0  0
   -3.3722   -2.1582    0.0000 C   0  0  0  0  0  0  0  0  0  0  0  0
    2.1434   -0.4125    0.0000 C   0  0  0  0  0  0  0  0  0  0  0  0
   -2.8873   -2.8256    0.0000 C   0  0  0  0  0  0  0  0  0  0  0  0
   -0.7145    2.0625    0.0000 C   0  0  0  0  0  0  0  0  0  0  0  0
    0.7145   -2.8875    0.0000 C   0  0  0  0  0  0  0  0  0  0  0  0
    2.1434   -2.8875    0.0000 C   0  0  0  0  0  0  0  0  0  0  0  0
   -4.1927   -2.2444    0.0000 C   0  0  0  0  0  0  0  0  0  0  0  0
   -3.2228   -3.5793    0.0000 C   0  0  0  0  0  0  0  0  0  0  0  0
   -4.5282   -2.9981    0.0000 C   0  0  0  0  0  0  0  0  0  0  0  0
   -4.0433   -3.6655    0.0000 C   0  0  0  0  0  0  0  0  0  0  0  0
    0.0000    2.4750    0.0000 C   0  0  0  0  0  0  0  0  0  0  0  0
   -1.4289    2.4750    0.0000 C   0  0  0  0  0  0  0  0  0  0  0  0
    1.4289   -4.1250    0.0000 C   0  0  0  0  0  0  0  0  0  0  0  0
   -0.7145    3.7125    0.0000 C   0  0  0  0  0  0  0  0  0  0  0  0
    0.0000    3.3000    0.0000 C   0  0  0  0  0  0  0  0  0  0  0  0
   -1.4289    3.3000    0.0000 C   0  0  0  0  0  0  0  0  0  0  0  0
   -0.7145    4.5375    0.0000 C   0  0  0  0  0  0  0  0  0  0  0  0
  1 34  1  0  0  0  0
  2 29  1  0  0  0  0
  3 10  1  0  0  0  0
  3 19  1  0  0  0  0
  4 16  2  0  0  0  0
  5 18  2  0  0  0  0
  6 43  2  0  0  0  0
  7 43  1  0  0  0  0
  8 13  1  0  0  0  0
  8 16  1  0  0  0  0
  8 20  1  0  0  0  0
  9 18  1  0  0  0  0
  9 30  1  0  0  0  0
 10 23  2  0  0  0  0
 11 31  2  0  0  0  0
 11 39  1  0  0  0  0
 12 32  1  0  0  0  0
 12 39  2  0  0  0  0
 13 14  1  0  0  0  0
 13 18  1  0  0  0  0
 14 15  2  0  0  0  0
 14 22  1  0  0  0  0
 15 17  1  0  0  0  0
 15 21  1  0  0  0  0
 16 19  1  0  0  0  0
 17 24  1  0  0  0  0
 17 26  2  0  0  0  0
 19 25  1  0  0  0  0
 20 21  1  0  0  0  0
 22 28  2  0  0  0  0
 23 25  1  0  0  0  0
 23 27  1  0  0  0  0
 24 31  1  0  0  0  0
 24 32  2  0  0  0  0
 26 28  1  0  0  0  0
 27 29  2  0  0  0  0
 27 33  1  0  0  0  0
 29 34  1  0  0  0  0
 30 37  2  0  0  0  0
 30 38  1  0  0  0  0
 33 35  2  0  0  0  0
 34 36  2  0  0  0  0
 35 36  1  0  0  0  0
 37 41  1  0  0  0  0
 38 42  2  0  0  0  0
 40 41  2  0  0  0  0
 40 42  1  0  0  0  0
 40 43  1  0  0  0  0
M  END
> <PUBCHEM_COMPOUND_ID_TYPE>
0

> <PUBCHEM_TOTAL_CHARGE>
0

> <PUBCHEM_SUBSTANCE_ID>
310933757

> <PUBCHEM_SUBSTANCE_VERSION>
1

> <PUBCHEM_EXT_DATASOURCE_NAME>
4488

> <PUBCHEM_EXT_DATASOURCE_REGID>
SCHEMBL16111193

> <PUBCHEM_SUBSTANCE_COMMENT>
InChI=1S/C31H23ClFN5O5/c32-24-6-2-5-23(27(24)33)25-13-26(43-37-25)30(40)38-12-11-21-20(18-14-34-16-35-15-18)3-1-4-22(21)28(38)29(39)36-19-9-7-17(8-10-19)31(41)42/h1-10,14-16,26,28H,11-13H2,(H,36,39)(H,41,42)
InChIKey=DZCHJSRSEJTLGM-UHFFFAOYSA-N

> <PUBCHEM_SUBSTANCE_SYNONYM>
SCHEMBL16111193

> <PUBCHEM_XREF_EXT_ID>
SCHEMBL16111193

> <PUBCHEM_EXT_DATASOURCE_URL>
https://www.surechembl.org/

> <PUBCHEM_EXT_SUBSTANCE_URL>
https://www.surechembl.org/chemical/SCHEMBL16111193

> <PUBCHEM_CID_ASSOCIATIONS>
117602114  1

> <PUBCHEM_COORDINATE_TYPE>
1
3

$$$$
