310942127
  -OEChem-07211613022D

 26 28  0     1  0  0  0  0  0999 V2000
   -3.5461    1.4415    0.0000 S   0  0  3  0  0  0  0  0  0  0  0  0
   -1.3884   -0.6102    0.0000 O   0  0  0  0  0  0  0  0  0  0  0  0
   -4.3420    1.4415    0.0000 O   0  0  0  0  0  0  0  0  0  0  0  0
    2.1843   -1.8659    0.0000 O   0  0  0  0  0  0  0  0  0  0  0  0
   -2.8210    1.8482    0.0000 N   0  0  0  0  0  0  0  0  0  0  0  0
   -3.5461    0.6279    0.0000 N   0  0  0  0  0  0  0  0  0  0  0  0
    1.4768   -0.6102    0.0000 N   0  0  0  0  0  0  0  0  0  0  0  0
   -2.8210   -0.5925    0.0000 N   0  0  0  0  0  0  0  0  0  0  0  0
   -2.1135    0.6102    0.0000 C   0  0  0  0  0  0  0  0  0  0  0  0
   -2.0958    1.4768    0.0000 C   0  0  0  0  0  0  0  0  0  0  0  0
   -1.3707    0.2564    0.0000 C   0  0  0  0  0  0  0  0  0  0  0  0
   -2.7856    0.2564    0.0000 C   0  0  0  0  0  0  0  0  0  0  0  0
   -1.3707    1.8659    0.0000 C   0  0  0  0  0  0  0  0  0  0  0  0
   -0.6809    0.6279    0.0000 C   0  0  0  0  0  0  0  0  0  0  0  0
   -0.6809    1.4768    0.0000 C   0  0  0  0  0  0  0  0  0  0  0  0
    0.0442   -0.5925    0.0000 C   0  0  3  0  0  0  0  0  0  0  0  0
   -0.6632   -1.0170    0.0000 C   0  0  0  0  0  0  0  0  0  0  0  0
    0.7870   -1.0170    0.0000 C   0  0  0  0  0  0  0  0  0  0  0  0
    2.2019   -0.9816    0.0000 C   0  0  0  0  0  0  0  0  0  0  0  0
    0.0619    0.2564    0.0000 C   0  0  0  0  0  0  0  0  0  0  0  0
    1.4768    0.2387    0.0000 C   0  0  0  0  0  0  0  0  0  0  0  0
    0.7694    0.6102    0.0000 C   0  0  0  0  0  0  0  0  0  0  0  0
    2.9448   -0.6102    0.0000 C   0  0  0  0  0  0  0  0  0  0  0  0
    3.6345   -0.9993    0.0000 C   0  0  0  0  0  0  0  0  0  0  0  0
    4.3420   -0.5748    0.0000 C   0  0  0  0  0  0  0  0  0  0  0  0
    3.6345   -1.8482    0.0000 C   0  0  0  0  0  0  0  0  0  0  0  0
  1  3  2  0  0  0  0
  1  5  1  0  0  0  0
  1  6  1  0  0  0  0
  2 11  1  0  0  0  0
  2 17  1  0  0  0  0
  4 19  2  0  0  0  0
  5 10  1  0  0  0  0
  6 12  2  0  0  0  0
  7 18  1  0  0  0  0
  7 19  1  0  0  0  0
  7 21  1  0  0  0  0
  8 12  1  0  0  0  0
  9 10  1  0  0  0  0
  9 11  2  0  0  0  0
  9 12  1  0  0  0  0
 10 13  2  0  0  0  0
 11 14  1  0  0  0  0
 13 15  1  0  0  0  0
 14 15  2  0  0  0  0
 16 17  1  0  0  0  0
 16 18  1  0  0  0  0
 16 20  1  0  0  0  0
 19 23  1  0  0  0  0
 20 22  1  0  0  0  0
 21 22  1  0  0  0  0
 23 24  1  0  0  0  0
 24 25  1  0  0  0  0
 24 26  1  0  0  0  0
M  END
> <PUBCHEM_COMPOUND_ID_TYPE>
0

> <PUBCHEM_TOTAL_CHARGE>
0

> <PUBCHEM_SUBSTANCE_ID>
310942127

> <PUBCHEM_SUBSTANCE_VERSION>
1

> <PUBCHEM_EXT_DATASOURCE_NAME>
4488

> <PUBCHEM_EXT_DATASOURCE_REGID>
SCHEMBL16120162

> <PUBCHEM_SUBSTANCE_COMMENT>
InChI=1S/C18H26N4O3S/c1-12(2)9-16(23)22-8-4-5-13(10-22)11-25-15-7-3-6-14-17(15)18(19)21-26(24)20-14/h3,6-7,12-13,20H,4-5,8-11H2,1-2H3,(H2,19,21)
InChIKey=PPNPQMUGYQGDFN-UHFFFAOYSA-N

> <PUBCHEM_SUBSTANCE_SYNONYM>
SCHEMBL16120162

> <PUBCHEM_XREF_EXT_ID>
SCHEMBL16120162

> <PUBCHEM_EXT_DATASOURCE_URL>
https://www.surechembl.org/

> <PUBCHEM_EXT_SUBSTANCE_URL>
https://www.surechembl.org/chemical/SCHEMBL16120162

> <PUBCHEM_CID_ASSOCIATIONS>
117608787  1

> <PUBCHEM_COORDINATE_TYPE>
1
3

$$$$
