310945318
  -OEChem-07211613022D

 36 42  0     1  0  0  0  0  0999 V2000
   -0.5648    0.6903    0.0000 O   0  0  0  0  0  0  0  0  0  0  0  0
    4.1510    3.1468    0.0000 O   0  0  0  0  0  0  0  0  0  0  0  0
   -2.7165    2.5910    0.0000 O   0  5  0  0  0  0  0  0  0  0  0  0
   -3.8461    1.7841    0.0000 O   0  0  0  0  0  0  0  0  0  0  0  0
    2.4296    1.8020    0.0000 N   0  0  0  0  0  0  0  0  0  0  0  0
    4.0972    1.7124    0.0000 N   0  0  0  0  0  0  0  0  0  0  0  0
   -1.2642    1.8200    0.0000 N   0  0  0  0  0  0  0  0  0  0  0  0
   -3.0572    1.8558    0.0000 N   0  3  0  0  0  0  0  0  0  0  0  0
   -3.7027   -2.5014    0.0000 N   0  0  3  0  0  0  0  0  0  0  0  0
    2.7882    1.0669    0.0000 C   0  0  0  0  0  0  0  0  0  0  0  0
    1.6227    2.0531    0.0000 C   0  0  0  0  0  0  0  0  0  0  0  0
    2.8779    2.5193    0.0000 C   0  0  0  0  0  0  0  0  0  0  0  0
    1.6048    2.8779    0.0000 C   0  0  0  0  0  0  0  0  0  0  0  0
    2.3758    3.1468    0.0000 C   0  0  0  0  0  0  0  0  0  0  0  0
    3.6848    2.4476    0.0000 C   0  0  0  0  0  0  0  0  0  0  0  0
    3.6130    1.0131    0.0000 C   0  0  0  0  0  0  0  0  0  0  0  0
    1.9993    0.9055    0.0000 C   0  0  0  0  0  0  0  0  0  0  0  0
    2.9496    0.2600    0.0000 C   0  0  0  0  0  0  0  0  0  0  0  0
    0.9235    1.6048    0.0000 C   0  0  0  0  0  0  0  0  0  0  0  0
    0.2062    1.9813    0.0000 C   0  0  0  0  0  0  0  0  0  0  0  0
   -0.4931    1.5331    0.0000 C   0  0  0  0  0  0  0  0  0  0  0  0
   -1.8020    1.1924    0.0000 C   0  0  0  0  0  0  0  0  0  0  0  0
    2.1607    0.1166    0.0000 C   0  0  0  0  0  0  0  0  0  0  0  0
    0.8517    3.2365    0.0000 C   0  0  0  0  0  0  0  0  0  0  0  0
   -1.3538    0.5111    0.0000 C   0  0  0  0  0  0  0  0  0  0  0  0
    0.1704    2.8061    0.0000 C   0  0  0  0  0  0  0  0  0  0  0  0
   -2.6448    1.1565    0.0000 C   0  0  0  0  0  0  0  0  0  0  0  0
   -2.5731   -0.2600    0.0000 C   0  0  0  0  0  0  0  0  0  0  0  0
   -1.7483   -0.2421    0.0000 C   0  0  0  0  0  0  0  0  0  0  0  0
   -3.0034    0.4034    0.0000 C   0  0  0  0  0  0  0  0  0  0  0  0
   -2.9496   -1.0310    0.0000 C   0  0  0  0  0  0  0  0  0  0  0  0
   -2.5014   -1.7124    0.0000 C   0  0  0  0  0  0  0  0  0  0  0  0
   -3.7744   -1.0669    0.0000 C   0  0  0  0  0  0  0  0  0  0  0  0
   -2.8779   -2.4655    0.0000 C   0  0  0  0  0  0  0  0  0  0  0  0
   -4.1510   -1.8200    0.0000 C   0  0  0  0  0  0  0  0  0  0  0  0
   -4.1151   -3.2365    0.0000 C   0  0  0  0  0  0  0  0  0  0  0  0
  1 21  1  0  0  0  0
  1 25  1  0  0  0  0
  2 15  2  0  0  0  0
  3  8  1  0  0  0  0
  4  8  2  0  0  0  0
  5 10  1  0  0  0  0
  5 11  1  0  0  0  0
  5 12  1  0  0  0  0
  6 15  1  0  0  0  0
  6 16  1  0  0  0  0
  7 21  2  0  0  0  0
  7 22  1  0  0  0  0
  8 27  1  0  0  0  0
  9 34  1  0  0  0  0
  9 35  1  0  0  0  0
  9 36  1  0  0  0  0
 10 16  1  0  0  0  0
 10 17  1  0  0  0  0
 10 18  1  0  0  0  0
 11 13  1  0  0  0  0
 11 19  2  0  0  0  0
 12 14  2  0  0  0  0
 12 15  1  0  0  0  0
 13 14  1  0  0  0  0
 13 24  2  0  0  0  0
 17 23  1  0  0  0  0
 18 23  1  0  0  0  0
 19 20  1  0  0  0  0
 20 21  1  0  0  0  0
 20 26  2  0  0  0  0
 22 25  2  0  0  0  0
 22 27  1  0  0  0  0
 24 26  1  0  0  0  0
 25 29  1  0  0  0  0
 27 30  2  0  0  0  0
 28 29  2  0  0  0  0
 28 30  1  0  0  0  0
 28 31  1  0  0  0  0
 31 32  2  0  0  0  0
 31 33  1  0  0  0  0
 32 34  1  0  0  0  0
 33 35  1  0  0  0  0
M  CHG  2   3  -1   8   1
M  END
> <PUBCHEM_COMPOUND_ID_TYPE>
0

> <PUBCHEM_TOTAL_CHARGE>
0

> <PUBCHEM_SUBSTANCE_ID>
310945318

> <PUBCHEM_SUBSTANCE_VERSION>
1

> <PUBCHEM_EXT_DATASOURCE_NAME>
4488

> <PUBCHEM_EXT_DATASOURCE_REGID>
SCHEMBL16123416

> <PUBCHEM_SUBSTANCE_COMMENT>
InChI=1S/C27H25N5O4/c1-30-9-5-16(6-10-30)19-13-21(32(34)35)24-23(14-19)36-26(29-24)18-4-3-17-11-22-25(33)28-15-27(7-2-8-27)31(22)20(17)12-18/h3-5,11-14H,2,6-10,15H2,1H3,(H,28,33)
InChIKey=LTPSENMJFOMUPZ-UHFFFAOYSA-N

> <PUBCHEM_SUBSTANCE_SYNONYM>
SCHEMBL16123416

> <PUBCHEM_XREF_EXT_ID>
SCHEMBL16123416

> <PUBCHEM_EXT_DATASOURCE_URL>
https://www.surechembl.org/

> <PUBCHEM_EXT_SUBSTANCE_URL>
https://www.surechembl.org/chemical/SCHEMBL16123416

> <PUBCHEM_CID_ASSOCIATIONS>
117611376  1

> <PUBCHEM_COORDINATE_TYPE>
1
3

$$$$
