310946696
  -OEChem-07211613022D

 22 22  0     1  0  0  0  0  0999 V2000
   -1.0013   -2.0568    0.0000 O   0  0  0  0  0  0  0  0  0  0  0  0
    1.0612   -2.7712    0.0000 O   0  0  0  0  0  0  0  0  0  0  0  0
    1.4737   -2.0568    0.0000 O   0  0  0  0  0  0  0  0  0  0  0  0
   -2.2388   -2.7712    0.0000 N   0  0  0  0  0  0  0  0  0  0  0  0
   -1.0013   -3.4857    0.0000 C   0  0  0  0  0  0  0  0  0  0  0  0
   -1.4138   -2.7712    0.0000 C   0  0  0  0  0  0  0  0  0  0  0  0
   -0.1763   -3.4857    0.0000 C   0  0  0  0  0  0  0  0  0  0  0  0
    0.2362   -2.7712    0.0000 C   0  0  3  0  0  0  0  0  0  0  0  0
   -1.4138   -4.2002    0.0000 C   0  0  0  0  0  0  0  0  0  0  0  0
    0.2362   -4.2002    0.0000 C   0  0  0  0  0  0  0  0  0  0  0  0
   -2.6513   -2.0568    0.0000 C   0  0  0  0  0  0  0  0  0  0  0  0
   -2.6513   -3.4857    0.0000 C   0  0  0  0  0  0  0  0  0  0  0  0
   -1.0013   -4.9147    0.0000 C   0  0  0  0  0  0  0  0  0  0  0  0
   -0.1763   -4.9147    0.0000 C   0  0  0  0  0  0  0  0  0  0  0  0
   -0.1763   -2.0568    0.0000 C   0  0  0  0  0  0  0  0  0  0  0  0
   -3.4763   -2.0568    0.0000 C   0  0  0  0  0  0  0  0  0  0  0  0
   -2.2388   -1.3423    0.0000 C   0  0  0  0  0  0  0  0  0  0  0  0
   -3.4763   -3.4857    0.0000 C   0  0  0  0  0  0  0  0  0  0  0  0
   -2.2388   -4.2002    0.0000 C   0  0  0  0  0  0  0  0  0  0  0  0
    0.2362   -1.3423    0.0000 C   0  0  0  0  0  0  0  0  0  0  0  0
    1.0612   -1.3423    0.0000 C   0  0  3  0  0  0  0  0  0  0  0  0
    1.4737   -0.6278    0.0000 C   0  0  0  0  0  0  0  0  0  0  0  0
  1  6  2  0  0  0  0
  2  8  1  0  0  0  0
  3 21  1  0  0  0  0
  4  6  1  0  0  0  0
  4 11  1  0  0  0  0
  4 12  1  0  0  0  0
  5  6  1  0  0  0  0
  5  7  1  0  0  0  0
  5  9  2  0  0  0  0
  7  8  1  0  0  0  0
  7 10  2  0  0  0  0
  8 15  1  0  0  0  0
  9 13  1  0  0  0  0
 10 14  1  0  0  0  0
 11 16  1  0  0  0  0
 11 17  1  0  0  0  0
 12 18  1  0  0  0  0
 12 19  1  0  0  0  0
 13 14  2  0  0  0  0
 15 20  1  0  0  0  0
 20 21  1  0  0  0  0
 21 22  1  0  0  0  0
M  END
> <PUBCHEM_COMPOUND_ID_TYPE>
0

> <PUBCHEM_TOTAL_CHARGE>
0

> <PUBCHEM_SUBSTANCE_ID>
310946696

> <PUBCHEM_SUBSTANCE_VERSION>
1

> <PUBCHEM_EXT_DATASOURCE_NAME>
4488

> <PUBCHEM_EXT_DATASOURCE_REGID>
SCHEMBL16124820

> <PUBCHEM_SUBSTANCE_COMMENT>
InChI=1S/C18H29NO3/c1-12(2)19(13(3)4)18(22)16-9-7-6-8-15(16)17(21)11-10-14(5)20/h6-9,12-14,17,20-21H,10-11H2,1-5H3
InChIKey=QXFYJIIHSNYWSO-UHFFFAOYSA-N

> <PUBCHEM_SUBSTANCE_SYNONYM>
SCHEMBL16124820

> <PUBCHEM_XREF_EXT_ID>
SCHEMBL16124820

> <PUBCHEM_EXT_DATASOURCE_URL>
https://www.surechembl.org/

> <PUBCHEM_EXT_SUBSTANCE_URL>
https://www.surechembl.org/chemical/SCHEMBL16124820

> <PUBCHEM_CID_ASSOCIATIONS>
15221478  1

> <PUBCHEM_COORDINATE_TYPE>
1
3

$$$$
