310943506
  -OEChem-07211613022D

 24 26  0     1  0  0  0  0  0999 V2000
    1.7468    4.1713    0.0000 Cl  0  0  0  0  0  0  0  0  0  0  0  0
    0.3354    4.1015    0.0000 O   0  0  0  0  0  0  0  0  0  0  0  0
    0.3913   -2.4944    0.0000 N   0  0  3  0  0  0  0  0  0  0  0  0
   -1.0481   -3.6822    0.0000 N   0  0  3  0  0  0  0  0  0  0  0  0
    1.0341    0.4123    0.0000 C   0  0  0  0  0  0  0  0  0  0  0  0
    1.0481    1.2647    0.0000 C   0  0  0  0  0  0  0  0  0  0  0  0
    1.0481   -1.2367    0.0000 C   0  0  0  0  0  0  0  0  0  0  0  0
    1.0341    2.9137    0.0000 C   0  0  0  0  0  0  0  0  0  0  0  0
    0.3493    0.0070    0.0000 C   0  0  0  0  0  0  0  0  0  0  0  0
    1.7607    0.0070    0.0000 C   0  0  0  0  0  0  0  0  0  0  0  0
    1.7607    1.6699    0.0000 C   0  0  0  0  0  0  0  0  0  0  0  0
    0.3493    1.6699    0.0000 C   0  0  0  0  0  0  0  0  0  0  0  0
    0.3634   -0.8455    0.0000 C   0  0  0  0  0  0  0  0  0  0  0  0
    1.7607   -0.8175    0.0000 C   0  0  0  0  0  0  0  0  0  0  0  0
    1.7328    2.5084    0.0000 C   0  0  0  0  0  0  0  0  0  0  0  0
    0.3214    2.4944    0.0000 C   0  0  0  0  0  0  0  0  0  0  0  0
    1.0481   -2.0752    0.0000 C   0  0  0  0  0  0  0  0  0  0  0  0
    1.0341    3.7381    0.0000 C   0  0  0  0  0  0  0  0  0  0  0  0
   -0.4053   -2.3128    0.0000 C   0  0  0  0  0  0  0  0  0  0  0  0
    0.7546   -3.2491    0.0000 C   0  0  0  0  0  0  0  0  0  0  0  0
   -1.0760   -2.8577    0.0000 C   0  0  0  0  0  0  0  0  0  0  0  0
    0.4053   -3.9897    0.0000 C   0  0  0  0  0  0  0  0  0  0  0  0
   -0.4192   -4.1713    0.0000 C   0  0  0  0  0  0  0  0  0  0  0  0
   -1.7608   -4.1015    0.0000 C   0  0  0  0  0  0  0  0  0  0  0  0
  1 18  1  0  0  0  0
  2 18  2  0  0  0  0
  3 17  1  0  0  0  0
  3 19  1  0  0  0  0
  3 20  1  0  0  0  0
  4 21  1  0  0  0  0
  4 23  1  0  0  0  0
  4 24  1  0  0  0  0
  5  6  1  0  0  0  0
  5  9  2  0  0  0  0
  5 10  1  0  0  0  0
  6 11  2  0  0  0  0
  6 12  1  0  0  0  0
  7 13  2  0  0  0  0
  7 14  1  0  0  0  0
  7 17  1  0  0  0  0
  8 15  2  0  0  0  0
  8 16  1  0  0  0  0
  8 18  1  0  0  0  0
  9 13  1  0  0  0  0
 10 14  2  0  0  0  0
 11 15  1  0  0  0  0
 12 16  2  0  0  0  0
 19 21  1  0  0  0  0
 20 22  1  0  0  0  0
 22 23  1  0  0  0  0
M  END
> <PUBCHEM_COMPOUND_ID_TYPE>
0

> <PUBCHEM_TOTAL_CHARGE>
0

> <PUBCHEM_SUBSTANCE_ID>
310943506

> <PUBCHEM_SUBSTANCE_VERSION>
1

> <PUBCHEM_EXT_DATASOURCE_NAME>
4488

> <PUBCHEM_EXT_DATASOURCE_REGID>
SCHEMBL16121572

> <PUBCHEM_SUBSTANCE_COMMENT>
InChI=1S/C20H23ClN2O/c1-22-11-2-12-23(14-13-22)15-16-3-5-17(6-4-16)18-7-9-19(10-8-18)20(21)24/h3-10H,2,11-15H2,1H3
InChIKey=USAONQGBRYCBKV-UHFFFAOYSA-N

> <PUBCHEM_SUBSTANCE_SYNONYM>
SCHEMBL16121572

> <PUBCHEM_XREF_EXT_ID>
SCHEMBL16121572

> <PUBCHEM_EXT_DATASOURCE_URL>
https://www.surechembl.org/

> <PUBCHEM_EXT_SUBSTANCE_URL>
https://www.surechembl.org/chemical/SCHEMBL16121572

> <PUBCHEM_CID_ASSOCIATIONS>
117609925  1

> <PUBCHEM_COORDINATE_TYPE>
1
3

$$$$
