310940482
  -OEChem-07211613022D

 15 17  0     1  0  0  0  0  0999 V2000
    1.4042    2.1398    0.0000 O   0  0  0  0  0  0  0  0  0  0  0  0
    0.7356    0.2102    0.0000 N   0  0  3  0  0  0  0  0  0  0  0  0
   -0.2006   -2.1398    0.0000 N   0  0  0  0  0  0  0  0  0  0  0  0
   -1.0413   -1.9678    0.0000 N   0  0  0  0  0  0  0  0  0  0  0  0
   -0.3725   -0.7833    0.0000 C   0  0  0  0  0  0  0  0  0  0  0  0
    0.1815   -1.3756    0.0000 C   0  0  0  0  0  0  0  0  0  0  0  0
   -1.1177   -1.0890    0.0000 C   0  0  0  0  0  0  0  0  0  0  0  0
    1.0030    1.0317    0.0000 C   0  0  0  0  0  0  0  0  0  0  0  0
   -0.0669    0.0191    0.0000 C   0  0  0  0  0  0  0  0  0  0  0  0
    1.0413   -1.2228    0.0000 C   0  0  0  0  0  0  0  0  0  0  0  0
    1.2896   -0.4012    0.0000 C   0  0  0  0  0  0  0  0  0  0  0  0
    0.6209    1.7195    0.0000 C   0  0  0  0  0  0  0  0  0  0  0  0
    1.7673    1.4138    0.0000 C   0  0  0  0  0  0  0  0  0  0  0  0
   -1.7673   -0.7833    0.0000 C   0  0  0  0  0  0  0  0  0  0  0  0
   -1.6717   -0.1719    0.0000 C   0  0  0  0  0  0  0  0  0  0  0  0
  1 12  1  0  0  0  0
  1 13  1  0  0  0  0
  2  8  1  0  0  0  0
  2  9  1  0  0  0  0
  2 11  1  0  0  0  0
  3  4  1  0  0  0  0
  3  6  1  0  0  0  0
  4  7  2  0  0  0  0
  5  6  2  0  0  0  0
  5  7  1  0  0  0  0
  5  9  1  0  0  0  0
  6 10  1  0  0  0  0
  7 14  1  0  0  0  0
  8 12  1  0  0  0  0
  8 13  1  0  0  0  0
 10 11  1  0  0  0  0
 14 15  1  0  0  0  0
M  END
> <PUBCHEM_COMPOUND_ID_TYPE>
0

> <PUBCHEM_TOTAL_CHARGE>
0

> <PUBCHEM_SUBSTANCE_ID>
310940482

> <PUBCHEM_SUBSTANCE_VERSION>
1

> <PUBCHEM_EXT_DATASOURCE_NAME>
4488

> <PUBCHEM_EXT_DATASOURCE_REGID>
SCHEMBL16118435

> <PUBCHEM_SUBSTANCE_COMMENT>
InChI=1S/C11H17N3O/c1-2-10-9-5-14(8-6-15-7-8)4-3-11(9)13-12-10/h8H,2-7H2,1H3,(H,12,13)
InChIKey=RNPUJZVRNQRGOX-UHFFFAOYSA-N

> <PUBCHEM_SUBSTANCE_SYNONYM>
SCHEMBL16118435

> <PUBCHEM_XREF_EXT_ID>
SCHEMBL16118435

> <PUBCHEM_EXT_DATASOURCE_URL>
https://www.surechembl.org/

> <PUBCHEM_EXT_SUBSTANCE_URL>
https://www.surechembl.org/chemical/SCHEMBL16118435

> <PUBCHEM_CID_ASSOCIATIONS>
117607497  1

> <PUBCHEM_COORDINATE_TYPE>
1
3

$$$$
