310931968
  -OEChem-07211613022D

 19 21  0     1  0  0  0  0  0999 V2000
    4.2571   -1.6373    0.0000 Br  0  0  0  0  0  0  0  0  0  0  0  0
    0.0000    0.0000    0.0000 O   0  0  0  0  0  0  0  0  0  0  0  0
    0.6958   -1.2280    0.0000 N   0  0  0  0  0  0  0  0  0  0  0  0
    1.4327    0.0000    0.0000 N   0  0  0  0  0  0  0  0  0  0  0  0
    1.4327   -1.6373    0.0000 C   0  0  3  0  0  0  0  0  0  0  0  0
    2.1490   -1.2280    0.0000 C   0  0  0  0  0  0  0  0  0  0  0  0
    2.1490   -0.4093    0.0000 C   0  0  0  0  0  0  0  0  0  0  0  0
    1.4327   -2.4559    0.0000 C   0  0  0  0  0  0  0  0  0  0  0  0
    0.6958   -0.4093    0.0000 C   0  0  0  0  0  0  0  0  0  0  0  0
    2.8244   -1.6373    0.0000 C   0  0  0  0  0  0  0  0  0  0  0  0
    2.8244    0.0000    0.0000 C   0  0  0  0  0  0  0  0  0  0  0  0
    3.5407   -1.2280    0.0000 C   0  0  0  0  0  0  0  0  0  0  0  0
    3.5407   -0.4093    0.0000 C   0  0  0  0  0  0  0  0  0  0  0  0
    2.1490   -2.8653    0.0000 C   0  0  0  0  0  0  0  0  0  0  0  0
    0.7163   -2.8653    0.0000 C   0  0  0  0  0  0  0  0  0  0  0  0
    0.0000   -1.6373    0.0000 C   0  0  0  0  0  0  0  0  0  0  0  0
    2.1490   -3.6840    0.0000 C   0  0  0  0  0  0  0  0  0  0  0  0
    0.7163   -3.6840    0.0000 C   0  0  0  0  0  0  0  0  0  0  0  0
    1.4327   -4.0933    0.0000 C   0  0  0  0  0  0  0  0  0  0  0  0
  1 12  1  0  0  0  0
  2  9  2  0  0  0  0
  3  5  1  0  0  0  0
  3  9  1  0  0  0  0
  3 16  1  0  0  0  0
  4  7  1  0  0  0  0
  4  9  1  0  0  0  0
  5  6  1  0  0  0  0
  5  8  1  0  0  0  0
  6  7  2  0  0  0  0
  6 10  1  0  0  0  0
  7 11  1  0  0  0  0
  8 14  2  0  0  0  0
  8 15  1  0  0  0  0
 10 12  2  0  0  0  0
 11 13  2  0  0  0  0
 12 13  1  0  0  0  0
 14 17  1  0  0  0  0
 15 18  2  0  0  0  0
 17 19  2  0  0  0  0
 18 19  1  0  0  0  0
M  END
> <PUBCHEM_COMPOUND_ID_TYPE>
0

> <PUBCHEM_TOTAL_CHARGE>
0

> <PUBCHEM_SUBSTANCE_ID>
310931968

> <PUBCHEM_SUBSTANCE_VERSION>
1

> <PUBCHEM_EXT_DATASOURCE_NAME>
4488

> <PUBCHEM_EXT_DATASOURCE_REGID>
SCHEMBL16109306

> <PUBCHEM_SUBSTANCE_COMMENT>
InChI=1S/C15H13BrN2O/c1-18-14(10-5-3-2-4-6-10)12-9-11(16)7-8-13(12)17-15(18)19/h2-9,14H,1H3,(H,17,19)
InChIKey=LKXJMLZYFZIAJL-UHFFFAOYSA-N

> <PUBCHEM_SUBSTANCE_SYNONYM>
SCHEMBL16109306

> <PUBCHEM_XREF_EXT_ID>
SCHEMBL16109306

> <PUBCHEM_EXT_DATASOURCE_URL>
https://www.surechembl.org/

> <PUBCHEM_EXT_SUBSTANCE_URL>
https://www.surechembl.org/chemical/SCHEMBL16109306

> <PUBCHEM_CID_ASSOCIATIONS>
117600615  1

> <PUBCHEM_COORDINATE_TYPE>
1
3

$$$$
