310940787
  -OEChem-07211613022D

 42 45  0     1  0  0  0  0  0999 V2000
    5.0397    0.6738    0.0000 O   0  0  0  0  0  0  0  0  0  0  0  0
    3.9121   -1.2788    0.0000 O   0  0  0  0  0  0  0  0  0  0  0  0
    1.7670    0.7838    0.0000 O   0  0  0  0  0  0  0  0  0  0  0  0
   -0.3644   -1.2788    0.0000 O   0  0  0  0  0  0  0  0  0  0  0  0
    3.9121   -2.9289    0.0000 O   0  0  0  0  0  0  0  0  0  0  0  0
   -2.5095    0.7838    0.0000 O   0  0  0  0  0  0  0  0  0  0  0  0
   -5.3560    0.7838    0.0000 O   0  0  0  0  0  0  0  0  0  0  0  0
    2.4958   -0.4537    0.0000 N   0  0  0  0  0  0  0  0  0  0  0  0
    0.3507   -0.0413    0.0000 N   0  0  0  0  0  0  0  0  0  0  0  0
   -1.7945   -0.4537    0.0000 N   0  0  0  0  0  0  0  0  0  0  0  0
   -3.9259   -0.0413    0.0000 N   0  0  0  0  0  0  0  0  0  0  0  0
    4.6134    0.0000    0.0000 C   0  0  3  0  0  0  0  0  0  0  0  0
    3.9259   -0.4125    0.0000 C   0  0  0  0  0  0  0  0  0  0  0  0
    4.2421    0.6875    0.0000 C   0  0  0  0  0  0  0  0  0  0  0  0
    3.1971   -0.0138    0.0000 C   0  0  3  0  0  0  0  0  0  0  0  0
    5.3560   -0.4400    0.0000 C   0  0  0  0  0  0  0  0  0  0  0  0
    3.1971    1.2926    0.0000 C   0  0  0  0  0  0  0  0  0  0  0  0
    1.7670   -0.0275    0.0000 C   0  0  0  0  0  0  0  0  0  0  0  0
    1.0794   -0.4262    0.0000 C   0  0  3  0  0  0  0  0  0  0  0  0
    2.4958    1.7189    0.0000 C   0  0  0  0  0  0  0  0  0  0  0  0
    1.0657   -1.2513    0.0000 C   0  0  0  0  0  0  0  0  0  0  0  0
    1.7945   -1.6639    0.0000 C   0  0  0  0  0  0  0  0  0  0  0  0
   -0.3507   -0.4125    0.0000 C   0  0  0  0  0  0  0  0  0  0  0  0
    1.7808    1.3063    0.0000 C   0  0  0  0  0  0  0  0  0  0  0  0
    2.4958    2.5164    0.0000 C   0  0  0  0  0  0  0  0  0  0  0  0
   -1.0932   -0.0138    0.0000 C   0  0  3  0  0  0  0  0  0  0  0  0
    2.4821   -1.2650    0.0000 C   0  0  0  0  0  0  0  0  0  0  0  0
    1.7945   -2.4889    0.0000 C   0  0  0  0  0  0  0  0  0  0  0  0
    1.0794    1.7189    0.0000 C   0  0  0  0  0  0  0  0  0  0  0  0
    1.7670    2.9289    0.0000 C   0  0  0  0  0  0  0  0  0  0  0  0
    3.1971   -2.4752    0.0000 C   0  0  0  0  0  0  0  0  0  0  0  0
    3.2109   -1.6776    0.0000 C   0  0  0  0  0  0  0  0  0  0  0  0
    2.4958   -2.8877    0.0000 C   0  0  0  0  0  0  0  0  0  0  0  0
    1.0794    2.5302    0.0000 C   0  0  0  0  0  0  0  0  0  0  0  0
   -2.5095   -0.0413    0.0000 C   0  0  0  0  0  0  0  0  0  0  0  0
   -3.2109   -0.4262    0.0000 C   0  0  0  0  0  0  0  0  0  0  0  0
   -1.0657    0.8251    0.0000 C   0  0  0  0  0  0  0  0  0  0  0  0
   -3.9259    0.7976    0.0000 C   0  0  0  0  0  0  0  0  0  0  0  0
   -4.6272   -0.4262    0.0000 C   0  0  0  0  0  0  0  0  0  0  0  0
   -4.6684    1.2100    0.0000 C   0  0  0  0  0  0  0  0  0  0  0  0
   -5.3422   -0.0138    0.0000 C   0  0  0  0  0  0  0  0  0  0  0  0
    4.6547   -2.5027    0.0000 C   0  0  0  0  0  0  0  0  0  0  0  0
  1 12  1  0  0  0  0
  1 14  1  0  0  0  0
  2 13  2  0  0  0  0
  3 18  2  0  0  0  0
  4 23  2  0  0  0  0
  5 31  1  0  0  0  0
  5 42  1  0  0  0  0
  6 35  2  0  0  0  0
  7 40  1  0  0  0  0
  7 41  1  0  0  0  0
  8 15  1  0  0  0  0
  8 18  1  0  0  0  0
  9 19  1  0  0  0  0
  9 23  1  0  0  0  0
 10 26  1  0  0  0  0
 10 35  1  0  0  0  0
 11 36  1  0  0  0  0
 11 38  1  0  0  0  0
 11 39  1  0  0  0  0
 12 13  1  0  0  0  0
 12 14  1  0  0  0  0
 12 16  1  0  0  0  0
 13 15  1  0  0  0  0
 15 17  1  0  0  0  0
 17 20  1  0  0  0  0
 18 19  1  0  0  0  0
 19 21  1  0  0  0  0
 20 24  1  0  0  0  0
 20 25  1  0  0  0  0
 21 22  1  0  0  0  0
 22 27  2  0  0  0  0
 22 28  1  0  0  0  0
 23 26  1  0  0  0  0
 24 29  1  0  0  0  0
 25 30  1  0  0  0  0
 26 37  1  0  0  0  0
 27 32  1  0  0  0  0
 28 33  2  0  0  0  0
 29 34  1  0  0  0  0
 30 34  1  0  0  0  0
 31 32  2  0  0  0  0
 31 33  1  0  0  0  0
 35 36  1  0  0  0  0
 38 40  1  0  0  0  0
 39 41  1  0  0  0  0
M  END
> <PUBCHEM_COMPOUND_ID_TYPE>
0

> <PUBCHEM_TOTAL_CHARGE>
0

> <PUBCHEM_SUBSTANCE_ID>
310940787

> <PUBCHEM_SUBSTANCE_VERSION>
1

> <PUBCHEM_EXT_DATASOURCE_NAME>
4488

> <PUBCHEM_EXT_DATASOURCE_REGID>
SCHEMBL16118746

> <PUBCHEM_SUBSTANCE_COMMENT>
InChI=1S/C31H46N4O7/c1-21(32-27(36)19-35-13-15-41-16-14-35)29(38)34-26(18-23-9-11-24(40-3)12-10-23)30(39)33-25(28(37)31(2)20-42-31)17-22-7-5-4-6-8-22/h9-12,21-22,25-26H,4-8,13-20H2,1-3H3,(H,32,36)(H,33,39)(H,34,38)
InChIKey=UHNYITHLNFUAIN-UHFFFAOYSA-N

> <PUBCHEM_SUBSTANCE_SYNONYM>
SCHEMBL16118746

> <PUBCHEM_XREF_EXT_ID>
SCHEMBL16118746

> <PUBCHEM_EXT_DATASOURCE_URL>
https://www.surechembl.org/

> <PUBCHEM_EXT_SUBSTANCE_URL>
https://www.surechembl.org/chemical/SCHEMBL16118746

> <PUBCHEM_CID_ASSOCIATIONS>
86296337  1

> <PUBCHEM_COORDINATE_TYPE>
1
3

$$$$
