310936399
  -OEChem-07211613022D

 42 45  0     1  0  0  0  0  0999 V2000
    2.7845    3.1729    0.0000 O   0  0  0  0  0  0  0  0  0  0  0  0
   -1.8659    2.2374    0.0000 O   0  0  0  0  0  0  0  0  0  0  0  0
    4.2135    2.3479    0.0000 O   0  0  0  0  0  0  0  0  0  0  0  0
    3.4990    1.1104    0.0000 O   0  0  0  0  0  0  0  0  0  0  0  0
   -0.6284   -1.3349    0.0000 O   0  0  0  0  0  0  0  0  0  0  0  0
    0.6411    1.9354    0.0000 N   0  0  0  0  0  0  0  0  0  0  0  0
    1.3556    3.1729    0.0000 N   0  0  0  0  0  0  0  0  0  0  0  0
   -0.1435    2.1904    0.0000 N   0  0  0  0  0  0  0  0  0  0  0  0
    1.3556    0.6979    0.0000 N   0  0  0  0  0  0  0  0  0  0  0  0
   -1.8659    0.8085    0.0000 N   0  0  0  0  0  0  0  0  0  0  0  0
    1.3556    2.3479    0.0000 C   0  0  0  0  0  0  0  0  0  0  0  0
    2.0701    1.9354    0.0000 C   0  0  0  0  0  0  0  0  0  0  0  0
    0.6411    1.1104    0.0000 C   0  0  0  0  0  0  0  0  0  0  0  0
    2.0701    1.1104    0.0000 C   0  0  0  0  0  0  0  0  0  0  0  0
    2.7845    2.3479    0.0000 C   0  0  3  0  0  0  0  0  0  0  0  0
   -0.6284    1.5229    0.0000 C   0  0  0  0  0  0  0  0  0  0  0  0
   -0.1435    0.8555    0.0000 C   0  0  0  0  0  0  0  0  0  0  0  0
   -1.4534    1.5229    0.0000 C   0  0  0  0  0  0  0  0  0  0  0  0
    3.4990    1.9354    0.0000 C   0  0  0  0  0  0  0  0  0  0  0  0
    0.6411    3.5854    0.0000 C   0  0  0  0  0  0  0  0  0  0  0  0
    2.0701    3.5854    0.0000 C   0  0  0  0  0  0  0  0  0  0  0  0
    2.7845    0.6979    0.0000 C   0  0  0  0  0  0  0  0  0  0  0  0
    3.4990    3.5854    0.0000 C   0  0  0  0  0  0  0  0  0  0  0  0
    0.6411    4.4104    0.0000 C   0  0  0  0  0  0  0  0  0  0  0  0
    2.0701    4.4104    0.0000 C   0  0  0  0  0  0  0  0  0  0  0  0
    1.3556    4.8229    0.0000 C   0  0  0  0  0  0  0  0  0  0  0  0
   -1.4534    0.0940    0.0000 C   0  0  0  0  0  0  0  0  0  0  0  0
    3.9115    2.8710    0.0000 C   0  0  0  0  0  0  0  0  0  0  0  0
    3.0865    4.2999    0.0000 C   0  0  0  0  0  0  0  0  0  0  0  0
    4.2135    3.9979    0.0000 C   0  0  0  0  0  0  0  0  0  0  0  0
    1.3556    5.6479    0.0000 C   0  0  0  0  0  0  0  0  0  0  0  0
   -1.8659   -0.6205    0.0000 C   0  0  0  0  0  0  0  0  0  0  0  0
   -1.4534   -1.3349    0.0000 C   0  0  0  0  0  0  0  0  0  0  0  0
   -2.6909   -0.6205    0.0000 C   0  0  0  0  0  0  0  0  0  0  0  0
    2.0701    6.0604    0.0000 C   0  0  0  0  0  0  0  0  0  0  0  0
   -1.8659   -2.0494    0.0000 C   0  0  0  0  0  0  0  0  0  0  0  0
   -3.1034   -1.3349    0.0000 C   0  0  0  0  0  0  0  0  0  0  0  0
   -2.6909   -2.0494    0.0000 C   0  0  0  0  0  0  0  0  0  0  0  0
   -0.2159   -0.6205    0.0000 C   0  0  0  0  0  0  0  0  0  0  0  0
    2.0701    6.8854    0.0000 C   0  0  0  0  0  0  0  0  0  0  0  0
    0.6091   -0.6205    0.0000 C   0  0  0  0  0  0  0  0  0  0  0  0
    1.0216   -1.3349    0.0000 C   0  0  0  0  0  0  0  0  0  0  0  0
  1 15  1  0  0  0  0
  1 23  1  0  0  0  0
  2 18  2  0  0  0  0
  3 19  2  0  0  0  0
  4 19  1  0  0  0  0
  5 33  1  0  0  0  0
  5 39  1  0  0  0  0
  6  8  1  0  0  0  0
  6 11  1  0  0  0  0
  6 13  1  0  0  0  0
  7 11  1  0  0  0  0
  7 20  1  0  0  0  0
  7 21  1  0  0  0  0
  8 16  2  0  0  0  0
  9 13  1  0  0  0  0
  9 14  2  0  0  0  0
 10 18  1  0  0  0  0
 10 27  1  0  0  0  0
 11 12  2  0  0  0  0
 12 14  1  0  0  0  0
 12 15  1  0  0  0  0
 13 17  2  0  0  0  0
 14 22  1  0  0  0  0
 15 19  1  0  0  0  0
 16 17  1  0  0  0  0
 16 18  1  0  0  0  0
 20 24  1  0  0  0  0
 21 25  1  0  0  0  0
 23 28  1  0  0  0  0
 23 29  1  0  0  0  0
 23 30  1  0  0  0  0
 24 26  1  0  0  0  0
 25 26  1  0  0  0  0
 26 31  1  0  0  0  0
 27 32  1  0  0  0  0
 31 35  1  0  0  0  0
 32 33  2  0  0  0  0
 32 34  1  0  0  0  0
 33 36  1  0  0  0  0
 34 37  2  0  0  0  0
 35 40  2  0  0  0  0
 36 38  2  0  0  0  0
 37 38  1  0  0  0  0
 39 41  1  0  0  0  0
 41 42  2  0  0  0  0
M  END
> <PUBCHEM_COMPOUND_ID_TYPE>
0

> <PUBCHEM_TOTAL_CHARGE>
0

> <PUBCHEM_SUBSTANCE_ID>
310936399

> <PUBCHEM_SUBSTANCE_VERSION>
1

> <PUBCHEM_EXT_DATASOURCE_NAME>
4488

> <PUBCHEM_EXT_DATASOURCE_REGID>
SCHEMBL16114037

> <PUBCHEM_SUBSTANCE_COMMENT>
InChI=1S/C32H41N5O5/c1-7-11-22-14-16-36(17-15-22)30-27(28(31(39)40)42-32(4,5)6)21(3)34-26-19-24(35-37(26)30)29(38)33-20-23-12-9-10-13-25(23)41-18-8-2/h7-10,12-13,19,22,28H,1-2,11,14-18,20H2,3-6H3,(H,33,38)(H,39,40)
InChIKey=OCAGFRKINZIMLD-UHFFFAOYSA-N

> <PUBCHEM_SUBSTANCE_SYNONYM>
SCHEMBL16114037

> <PUBCHEM_XREF_EXT_ID>
SCHEMBL16114037

> <PUBCHEM_EXT_DATASOURCE_URL>
https://www.surechembl.org/

> <PUBCHEM_EXT_SUBSTANCE_URL>
https://www.surechembl.org/chemical/SCHEMBL16114037

> <PUBCHEM_CID_ASSOCIATIONS>
117604337  1

> <PUBCHEM_COORDINATE_TYPE>
1
3

$$$$
