310944055
  -OEChem-07211613022D

 15 17  0     1  0  0  0  0  0999 V2000
    2.4648    0.7050    0.0000 O   0  0  0  0  0  0  0  0  0  0  0  0
   -1.1435   -0.5274    0.0000 N   0  0  0  0  0  0  0  0  0  0  0  0
   -0.4219    0.7050    0.0000 N   0  0  0  0  0  0  0  0  0  0  0  0
    0.2998    1.1158    0.0000 N   0  0  0  0  0  0  0  0  0  0  0  0
   -1.8985   -0.1943    0.0000 N   0  0  0  0  0  0  0  0  0  0  0  0
   -2.4648   -0.8049    0.0000 N   0  0  0  0  0  0  0  0  0  0  0  0
   -2.0429   -1.5155    0.0000 N   0  0  0  0  0  0  0  0  0  0  0  0
   -0.4219   -0.1166    0.0000 C   0  0  0  0  0  0  0  0  0  0  0  0
    1.0214    0.7161    0.0000 C   0  0  0  0  0  0  0  0  0  0  0  0
    1.7431    1.1158    0.0000 C   0  0  3  0  0  0  0  0  0  0  0  0
    0.2998   -0.5163    0.0000 C   0  0  0  0  0  0  0  0  0  0  0  0
    1.0103   -0.1166    0.0000 C   0  0  0  0  0  0  0  0  0  0  0  0
    2.4648    1.5155    0.0000 C   0  0  0  0  0  0  0  0  0  0  0  0
   -1.2324   -1.3489    0.0000 C   0  0  0  0  0  0  0  0  0  0  0  0
    0.3109   -1.3600    0.0000 C   0  0  0  0  0  0  0  0  0  0  0  0
  1 10  1  0  0  0  0
  1 13  1  0  0  0  0
  2  5  1  0  0  0  0
  2  8  1  0  0  0  0
  2 14  1  0  0  0  0
  3  4  1  0  0  0  0
  3  8  2  0  0  0  0
  4  9  2  0  0  0  0
  5  6  2  0  0  0  0
  6  7  1  0  0  0  0
  7 14  2  0  0  0  0
  8 11  1  0  0  0  0
  9 10  1  0  0  0  0
  9 12  1  0  0  0  0
 10 13  1  0  0  0  0
 11 12  2  0  0  0  0
 11 15  1  0  0  0  0
M  END
> <PUBCHEM_COMPOUND_ID_TYPE>
0

> <PUBCHEM_TOTAL_CHARGE>
0

> <PUBCHEM_SUBSTANCE_ID>
310944055

> <PUBCHEM_SUBSTANCE_VERSION>
1

> <PUBCHEM_EXT_DATASOURCE_NAME>
4488

> <PUBCHEM_EXT_DATASOURCE_REGID>
SCHEMBL16122128

> <PUBCHEM_SUBSTANCE_COMMENT>
InChI=1S/C8H8N6O/c1-5-2-6(7-3-15-7)10-11-8(5)14-4-9-12-13-14/h2,4,7H,3H2,1H3
InChIKey=IIEPZYYFMKCDLU-UHFFFAOYSA-N

> <PUBCHEM_SUBSTANCE_SYNONYM>
SCHEMBL16122128

> <PUBCHEM_XREF_EXT_ID>
SCHEMBL16122128

> <PUBCHEM_EXT_DATASOURCE_URL>
https://www.surechembl.org/

> <PUBCHEM_EXT_SUBSTANCE_URL>
https://www.surechembl.org/chemical/SCHEMBL16122128

> <PUBCHEM_CID_ASSOCIATIONS>
117610351  1

> <PUBCHEM_COORDINATE_TYPE>
1
3

$$$$
