310936091
  -OEChem-07211613022D

 27 30  0     1  0  0  0  0  0999 V2000
    1.2306   -4.5543    0.0000 F   0  0  0  0  0  0  0  0  0  0  0  0
   -2.3143   -2.4926    0.0000 O   0  0  0  0  0  0  0  0  0  0  0  0
   -2.4868   -4.1336    0.0000 O   0  0  0  0  0  0  0  0  0  0  0  0
   -1.7331   -3.7980    0.0000 N   0  0  0  0  0  0  0  0  0  0  0  0
    2.8579   -1.6500    0.0000 N   0  0  0  0  0  0  0  0  0  0  0  0
    2.8579    0.0000    0.0000 N   0  0  0  0  0  0  0  0  0  0  0  0
   -0.8932   -2.6420    0.0000 C   0  0  3  0  0  0  0  0  0  0  0  0
   -0.6383   -3.4266    0.0000 C   0  0  0  0  0  0  0  0  0  0  0  0
   -0.0862   -2.4705    0.0000 C   0  0  0  0  0  0  0  0  0  0  0  0
    0.0000   -1.6500    0.0000 C   0  0  0  0  0  0  0  0  0  0  0  0
   -1.6469   -2.9776    0.0000 C   0  0  0  0  0  0  0  0  0  0  0  0
   -1.3057   -1.9275    0.0000 C   0  0  0  0  0  0  0  0  0  0  0  0
    0.1687   -3.5982    0.0000 C   0  0  0  0  0  0  0  0  0  0  0  0
    0.7145   -1.2375    0.0000 C   0  0  0  0  0  0  0  0  0  0  0  0
   -0.7537   -1.3144    0.0000 C   0  0  0  0  0  0  0  0  0  0  0  0
   -1.1903   -4.0397    0.0000 C   0  0  0  0  0  0  0  0  0  0  0  0
    0.4236   -4.3828    0.0000 C   0  0  0  0  0  0  0  0  0  0  0  0
    1.4289   -1.6500    0.0000 C   0  0  0  0  0  0  0  0  0  0  0  0
    2.1434   -1.2375    0.0000 C   0  0  0  0  0  0  0  0  0  0  0  0
    0.7145   -0.4125    0.0000 C   0  0  0  0  0  0  0  0  0  0  0  0
    2.1434   -0.4125    0.0000 C   0  0  0  0  0  0  0  0  0  0  0  0
   -0.9354   -4.8243    0.0000 C   0  0  0  0  0  0  0  0  0  0  0  0
   -0.1284   -4.9959    0.0000 C   0  0  0  0  0  0  0  0  0  0  0  0
    1.4289    0.0000    0.0000 C   0  0  0  0  0  0  0  0  0  0  0  0
    0.7207   -2.9851    0.0000 C   0  0  0  0  0  0  0  0  0  0  0  0
    3.5724   -1.2375    0.0000 C   0  0  0  0  0  0  0  0  0  0  0  0
    3.5724   -0.4125    0.0000 C   0  0  0  0  0  0  0  0  0  0  0  0
  1 17  1  0  0  0  0
  2 11  2  0  0  0  0
  3  4  1  0  0  0  0
  4 11  1  0  0  0  0
  5 19  1  0  0  0  0
  5 26  2  0  0  0  0
  6 21  1  0  0  0  0
  6 27  2  0  0  0  0
  7  8  1  0  0  0  0
  7  9  1  0  0  0  0
  7 11  1  0  0  0  0
  7 12  1  0  0  0  0
  8 13  2  0  0  0  0
  8 16  1  0  0  0  0
  9 10  2  0  0  0  0
 10 14  1  0  0  0  0
 10 15  1  0  0  0  0
 12 15  1  0  0  0  0
 13 17  1  0  0  0  0
 13 25  1  0  0  0  0
 14 18  1  0  0  0  0
 14 20  2  0  0  0  0
 16 22  2  0  0  0  0
 17 23  2  0  0  0  0
 18 19  2  0  0  0  0
 19 21  1  0  0  0  0
 20 24  1  0  0  0  0
 21 24  2  0  0  0  0
 22 23  1  0  0  0  0
 26 27  1  0  0  0  0
M  END
> <PUBCHEM_COMPOUND_ID_TYPE>
0

> <PUBCHEM_TOTAL_CHARGE>
0

> <PUBCHEM_SUBSTANCE_ID>
310936091

> <PUBCHEM_SUBSTANCE_VERSION>
1

> <PUBCHEM_EXT_DATASOURCE_NAME>
4488

> <PUBCHEM_EXT_DATASOURCE_REGID>
SCHEMBL16113698

> <PUBCHEM_SUBSTANCE_COMMENT>
InChI=1S/C21H18FN3O2/c1-13-16(3-2-4-17(13)22)21(20(26)25-27)8-7-15(12-21)14-5-6-18-19(11-14)24-10-9-23-18/h2-6,9-12,27H,7-8H2,1H3,(H,25,26)
InChIKey=CHWSCSWQGMLYOD-UHFFFAOYSA-N

> <PUBCHEM_SUBSTANCE_SYNONYM>
SCHEMBL16113698

> <PUBCHEM_XREF_EXT_ID>
SCHEMBL16113698

> <PUBCHEM_EXT_DATASOURCE_URL>
https://www.surechembl.org/

> <PUBCHEM_EXT_SUBSTANCE_URL>
https://www.surechembl.org/chemical/SCHEMBL16113698

> <PUBCHEM_CID_ASSOCIATIONS>
117604058  1

> <PUBCHEM_COORDINATE_TYPE>
1
3

$$$$
