310933101
  -OEChem-07211613022D

 34 38  0     1  0  0  0  0  0999 V2000
    7.0048   -2.3831    0.0000 O   0  0  0  0  0  0  0  0  0  0  0  0
    2.8886   -4.1162    0.0000 O   0  0  0  0  0  0  0  0  0  0  0  0
    0.0000   -0.3972    0.0000 O   0  0  0  0  0  0  0  0  0  0  0  0
    6.6437   -3.7913    0.0000 N   0  0  0  0  0  0  0  0  0  0  0  0
    7.0409   -4.5134    0.0000 N   0  0  0  0  0  0  0  0  0  0  0  0
    3.0330   -2.6719    0.0000 N   0  0  0  0  0  0  0  0  0  0  0  0
    5.3439   -4.3689    0.0000 N   0  0  0  0  0  0  0  0  0  0  0  0
    1.4443   -1.2638    0.0000 N   0  0  0  0  0  0  0  0  0  0  0  0
   10.8321   -1.0471    0.0000 N   0  0  0  0  0  0  0  0  0  0  0  0
    7.9436   -3.5385    0.0000 C   0  0  0  0  0  0  0  0  0  0  0  0
    7.1853   -3.1774    0.0000 C   0  0  0  0  0  0  0  0  0  0  0  0
    5.8133   -3.7190    0.0000 C   0  0  0  0  0  0  0  0  0  0  0  0
    8.6657   -3.1052    0.0000 C   0  0  0  0  0  0  0  0  0  0  0  0
    7.8714   -4.3329    0.0000 C   0  0  0  0  0  0  0  0  0  0  0  0
    4.1884   -3.5385    0.0000 C   0  0  0  0  0  0  0  0  0  0  0  0
    3.3579   -3.4302    0.0000 C   0  0  0  0  0  0  0  0  0  0  0  0
    8.6657   -2.2748    0.0000 C   0  0  0  0  0  0  0  0  0  0  0  0
    5.4883   -2.9608    0.0000 C   0  0  0  0  0  0  0  0  0  0  0  0
    2.1664   -1.6609    0.0000 C   0  0  3  0  0  0  0  0  0  0  0  0
    4.5134   -4.2968    0.0000 C   0  0  0  0  0  0  0  0  0  0  0  0
    4.6578   -2.8886    0.0000 C   0  0  0  0  0  0  0  0  0  0  0  0
    9.3879   -3.5385    0.0000 C   0  0  0  0  0  0  0  0  0  0  0  0
    2.2387   -2.4914    0.0000 C   0  0  0  0  0  0  0  0  0  0  0  0
    3.4663   -1.9859    0.0000 C   0  0  0  0  0  0  0  0  0  0  0  0
    9.3879   -1.8776    0.0000 C   0  0  0  0  0  0  0  0  0  0  0  0
    2.9247   -1.3360    0.0000 C   0  0  0  0  0  0  0  0  0  0  0  0
   10.1100   -2.2748    0.0000 C   0  0  0  0  0  0  0  0  0  0  0  0
   10.1100   -3.1052    0.0000 C   0  0  0  0  0  0  0  0  0  0  0  0
    7.9436   -1.8776    0.0000 C   0  0  0  0  0  0  0  0  0  0  0  0
    0.7222   -1.6609    0.0000 C   0  0  0  0  0  0  0  0  0  0  0  0
    1.4443   -0.4333    0.0000 C   0  0  0  0  0  0  0  0  0  0  0  0
   10.8321   -1.8776    0.0000 C   0  0  0  0  0  0  0  0  0  0  0  0
    0.0000   -1.2638    0.0000 C   0  0  0  0  0  0  0  0  0  0  0  0
    0.7583    0.0000    0.0000 C   0  0  0  0  0  0  0  0  0  0  0  0
  1 11  1  0  0  0  0
  2 16  2  0  0  0  0
  3 33  1  0  0  0  0
  3 34  1  0  0  0  0
  4  5  1  0  0  0  0
  4 11  1  0  0  0  0
  4 12  1  0  0  0  0
  5 14  2  0  0  0  0
  6 16  1  0  0  0  0
  6 23  1  0  0  0  0
  6 24  1  0  0  0  0
  7 12  1  0  0  0  0
  7 20  2  0  0  0  0
  8 19  1  0  0  0  0
  8 30  1  0  0  0  0
  8 31  1  0  0  0  0
  9 32  3  0  0  0  0
 10 11  2  0  0  0  0
 10 13  1  0  0  0  0
 10 14  1  0  0  0  0
 12 18  2  0  0  0  0
 13 17  2  0  0  0  0
 13 22  1  0  0  0  0
 15 16  1  0  0  0  0
 15 20  1  0  0  0  0
 15 21  2  0  0  0  0
 17 25  1  0  0  0  0
 17 29  1  0  0  0  0
 18 21  1  0  0  0  0
 19 23  1  0  0  0  0
 19 26  1  0  0  0  0
 22 28  2  0  0  0  0
 24 26  1  0  0  0  0
 25 27  2  0  0  0  0
 27 28  1  0  0  0  0
 27 32  1  0  0  0  0
 30 33  1  0  0  0  0
 31 34  1  0  0  0  0
M  END
> <PUBCHEM_COMPOUND_ID_TYPE>
0

> <PUBCHEM_TOTAL_CHARGE>
0

> <PUBCHEM_SUBSTANCE_ID>
310933101

> <PUBCHEM_SUBSTANCE_VERSION>
1

> <PUBCHEM_EXT_DATASOURCE_NAME>
4488

> <PUBCHEM_EXT_DATASOURCE_REGID>
SCHEMBL16110503

> <PUBCHEM_SUBSTANCE_COMMENT>
InChI=1S/C25H26N6O3/c1-17-12-18(13-26)2-4-21(17)22-15-28-31(25(22)33)23-5-3-19(14-27-23)24(32)30-7-6-20(16-30)29-8-10-34-11-9-29/h2-5,12,14-15,20,33H,6-11,16H2,1H3
InChIKey=KXAAQZONCBHPDD-UHFFFAOYSA-N

> <PUBCHEM_SUBSTANCE_SYNONYM>
SCHEMBL16110503

> <PUBCHEM_XREF_EXT_ID>
SCHEMBL16110503

> <PUBCHEM_EXT_DATASOURCE_URL>
https://www.surechembl.org/

> <PUBCHEM_EXT_SUBSTANCE_URL>
https://www.surechembl.org/chemical/SCHEMBL16110503

> <PUBCHEM_CID_ASSOCIATIONS>
117601558  1

> <PUBCHEM_COORDINATE_TYPE>
1
3

$$$$
