310937507
  -OEChem-07211613022D

 22 24  0     1  0  0  0  0  0999 V2000
    1.1860   -2.9650    0.0000 O   0  0  0  0  0  0  0  0  0  0  0  0
    0.0774   -2.5267    0.0000 O   0  0  0  0  0  0  0  0  0  0  0  0
    1.5211   -2.5267    0.0000 O   0  0  0  0  0  0  0  0  0  0  0  0
    0.7993   -1.2891    0.0000 N   0  0  0  0  0  0  0  0  0  0  0  0
    1.2118   -4.4345    0.0000 N   0  0  0  0  0  0  0  0  0  0  0  0
    1.6243   -5.1307    0.0000 N   0  0  0  0  0  0  0  0  0  0  0  0
    1.5985   -0.8251    0.0000 C   0  0  3  0  0  0  0  0  0  0  0  0
    1.1860   -1.5211    0.0000 C   0  0  3  0  0  0  0  0  0  0  0  0
    2.4236   -0.8251    0.0000 C   0  0  0  0  0  0  0  0  0  0  0  0
    0.0000   -0.8251    0.0000 C   0  0  3  0  0  0  0  0  0  0  0  0
    1.1860   -0.1289    0.0000 C   0  0  0  0  0  0  0  0  0  0  0  0
    0.3867   -1.5211    0.0000 C   0  0  0  0  0  0  0  0  0  0  0  0
    0.3867   -0.1289    0.0000 C   0  0  0  0  0  0  0  0  0  0  0  0
    0.7993   -2.1400    0.0000 C   0  0  0  0  0  0  0  0  0  0  0  0
    1.6243   -2.2431    0.0000 C   0  0  0  0  0  0  0  0  0  0  0  0
    2.4236   -1.6759    0.0000 C   0  0  0  0  0  0  0  0  0  0  0  0
    3.2486   -0.8251    0.0000 C   0  0  0  0  0  0  0  0  0  0  0  0
    2.4236    0.0000    0.0000 C   0  0  0  0  0  0  0  0  0  0  0  0
    1.6243   -3.6868    0.0000 C   0  0  0  0  0  0  0  0  0  0  0  0
    2.4493   -3.7127    0.0000 C   0  0  0  0  0  0  0  0  0  0  0  0
    2.8618   -4.4088    0.0000 C   0  0  0  0  0  0  0  0  0  0  0  0
    2.4751   -5.1565    0.0000 C   0  0  0  0  0  0  0  0  0  0  0  0
  1 15  1  0  0  0  0
  1 19  1  0  0  0  0
  2 14  2  0  0  0  0
  3 14  1  0  0  0  0
  4  7  1  0  0  0  0
  4 10  1  0  0  0  0
  4 14  1  0  0  0  0
  5  6  2  0  0  0  0
  5 19  1  0  0  0  0
  6 22  1  0  0  0  0
  7  8  1  0  0  0  0
  7  9  1  0  0  0  0
  7 11  1  0  0  0  0
  8 12  1  0  0  0  0
  8 15  1  0  0  0  0
  9 16  1  0  0  0  0
  9 17  1  0  0  0  0
  9 18  1  0  0  0  0
 10 12  1  0  0  0  0
 10 13  1  0  0  0  0
 11 13  1  0  0  0  0
 19 20  2  0  0  0  0
 20 21  1  0  0  0  0
 21 22  2  0  0  0  0
M  END
> <PUBCHEM_COMPOUND_ID_TYPE>
0

> <PUBCHEM_TOTAL_CHARGE>
0

> <PUBCHEM_SUBSTANCE_ID>
310937507

> <PUBCHEM_SUBSTANCE_VERSION>
1

> <PUBCHEM_EXT_DATASOURCE_NAME>
4488

> <PUBCHEM_EXT_DATASOURCE_REGID>
SCHEMBL16115279

> <PUBCHEM_SUBSTANCE_COMMENT>
InChI=1S/C16H23N3O3/c1-15(2,3)16-7-6-12(19(16)14(20)21)9-11(16)10-22-13-5-4-8-17-18-13/h4-5,8,11-12H,6-7,9-10H2,1-3H3,(H,20,21)
InChIKey=APVBVNCQFHJKBA-UHFFFAOYSA-N

> <PUBCHEM_SUBSTANCE_SYNONYM>
SCHEMBL16115279

> <PUBCHEM_XREF_EXT_ID>
SCHEMBL16115279

> <PUBCHEM_EXT_DATASOURCE_URL>
https://www.surechembl.org/

> <PUBCHEM_EXT_SUBSTANCE_URL>
https://www.surechembl.org/chemical/SCHEMBL16115279

> <PUBCHEM_CID_ASSOCIATIONS>
117605239  1

> <PUBCHEM_COORDINATE_TYPE>
1
3

$$$$
