310949082
  -OEChem-07211613022D

 15 16  0     1  0  0  0  0  0999 V2000
    0.6468    0.1755    0.0000 N   0  0  3  0  0  0  0  0  0  0  0  0
   -0.2402   -2.1344    0.0000 N   0  0  0  0  0  0  0  0  0  0  0  0
   -1.0533   -1.9496    0.0000 N   0  0  0  0  0  0  0  0  0  0  0  0
   -0.4251   -0.8039    0.0000 C   0  0  0  0  0  0  0  0  0  0  0  0
    0.1109   -1.3768    0.0000 C   0  0  0  0  0  0  0  0  0  0  0  0
   -1.1272   -1.1180    0.0000 C   0  0  0  0  0  0  0  0  0  0  0  0
   -0.1293   -0.0092    0.0000 C   0  0  0  0  0  0  0  0  0  0  0  0
    0.9609   -1.2289    0.0000 C   0  0  0  0  0  0  0  0  0  0  0  0
    1.0718    0.8962    0.0000 C   0  0  0  0  0  0  0  0  0  0  0  0
    1.1827   -0.4343    0.0000 C   0  0  0  0  0  0  0  0  0  0  0  0
    1.0718    1.7094    0.0000 C   0  0  0  0  0  0  0  0  0  0  0  0
   -1.7925   -0.7115    0.0000 C   0  0  0  0  0  0  0  0  0  0  0  0
    1.6816    0.8224    0.0000 C   0  0  0  0  0  0  0  0  0  0  0  0
    0.3511    2.1344    0.0000 C   0  0  0  0  0  0  0  0  0  0  0  0
    1.7925    2.1159    0.0000 C   0  0  0  0  0  0  0  0  0  0  0  0
  1  7  1  0  0  0  0
  1  9  1  0  0  0  0
  1 10  1  0  0  0  0
  2  3  1  0  0  0  0
  2  5  1  0  0  0  0
  3  6  2  0  0  0  0
  4  5  2  0  0  0  0
  4  6  1  0  0  0  0
  4  7  1  0  0  0  0
  5  8  1  0  0  0  0
  6 12  1  0  0  0  0
  8 10  1  0  0  0  0
  9 11  1  0  0  0  0
  9 13  2  0  0  0  0
 11 14  1  0  0  0  0
 11 15  1  0  0  0  0
M  END
> <PUBCHEM_COMPOUND_ID_TYPE>
0

> <PUBCHEM_TOTAL_CHARGE>
0

> <PUBCHEM_SUBSTANCE_ID>
310949082

> <PUBCHEM_SUBSTANCE_VERSION>
1

> <PUBCHEM_EXT_DATASOURCE_NAME>
4488

> <PUBCHEM_EXT_DATASOURCE_REGID>
SCHEMBL16127272

> <PUBCHEM_SUBSTANCE_COMMENT>
InChI=1S/C12H19N3/c1-8(2)10(4)15-6-5-12-11(7-15)9(3)13-14-12/h8H,4-7H2,1-3H3,(H,13,14)
InChIKey=DAJMEIQVKREHPN-UHFFFAOYSA-N

> <PUBCHEM_SUBSTANCE_SYNONYM>
SCHEMBL16127272

> <PUBCHEM_XREF_EXT_ID>
SCHEMBL16127272

> <PUBCHEM_EXT_DATASOURCE_URL>
https://www.surechembl.org/

> <PUBCHEM_EXT_SUBSTANCE_URL>
https://www.surechembl.org/chemical/SCHEMBL16127272

> <PUBCHEM_CID_ASSOCIATIONS>
117614587  1

> <PUBCHEM_COORDINATE_TYPE>
1
3

$$$$
