310945426
  -OEChem-07211613022D

 27 30  0     1  0  0  0  0  0999 V2000
   -3.6774   -1.6665    0.0000 Cl  0  0  0  0  0  0  0  0  0  0  0  0
   -2.6508    1.2445    0.0000 O   0  0  0  0  0  0  0  0  0  0  0  0
    3.6774    2.4540    0.0000 O   0  0  0  0  0  0  0  0  0  0  0  0
    1.5820    2.0742    0.0000 N   0  0  0  0  0  0  0  0  0  0  0  0
   -1.2586    1.2445    0.0000 N   0  0  0  0  0  0  0  0  0  0  0  0
   -0.5273   -0.0070    0.0000 N   0  0  0  0  0  0  0  0  0  0  0  0
   -1.9618   -2.5102    0.0000 N   0  0  0  0  0  0  0  0  0  0  0  0
    0.8367    0.8930    0.0000 C   0  0  3  0  0  0  0  0  0  0  0  0
    0.2039    2.0602    0.0000 C   0  0  3  0  0  0  0  0  0  0  0  0
    0.1898    1.2727    0.0000 C   0  0  0  0  0  0  0  0  0  0  0  0
    0.8649    2.5102    0.0000 C   0  0  0  0  0  0  0  0  0  0  0  0
    1.5539    1.2586    0.0000 C   0  0  0  0  0  0  0  0  0  0  0  0
   -0.5414    0.8367    0.0000 C   0  0  0  0  0  0  0  0  0  0  0  0
   -1.9618    0.0492    0.0000 C   0  0  0  0  0  0  0  0  0  0  0  0
   -1.2305   -0.3586    0.0000 C   0  0  0  0  0  0  0  0  0  0  0  0
   -1.2305   -1.2165    0.0000 C   0  0  0  0  0  0  0  0  0  0  0  0
   -1.9336    0.8789    0.0000 C   0  0  0  0  0  0  0  0  0  0  0  0
   -1.9477   -1.6242    0.0000 C   0  0  0  0  0  0  0  0  0  0  0  0
   -2.6508   -1.2165    0.0000 C   0  0  0  0  0  0  0  0  0  0  0  0
   -2.6227   -0.3727    0.0000 C   0  0  0  0  0  0  0  0  0  0  0  0
    2.2571    2.5102    0.0000 C   0  0  0  0  0  0  0  0  0  0  0  0
   -0.5555   -1.6383    0.0000 C   0  0  0  0  0  0  0  0  0  0  0  0
    2.9883    2.0883    0.0000 C   0  0  0  0  0  0  0  0  0  0  0  0
    0.1758   -0.3867    0.0000 C   0  0  0  0  0  0  0  0  0  0  0  0
    0.1617   -1.2305    0.0000 C   0  0  0  0  0  0  0  0  0  0  0  0
    2.5665    1.3711    0.0000 C   0  0  0  0  0  0  0  0  0  0  0  0
    3.3821    1.3430    0.0000 C   0  0  0  0  0  0  0  0  0  0  0  0
  1 19  1  0  0  0  0
  2 17  2  0  0  0  0
  3 23  1  0  0  0  0
  4 11  1  0  0  0  0
  4 12  1  0  0  0  0
  4 21  1  0  0  0  0
  5 13  1  0  0  0  0
  5 17  1  0  0  0  0
  6 15  1  0  0  0  0
  6 24  2  0  0  0  0
  7 18  1  0  0  0  0
  8  9  1  0  0  0  0
  8 10  1  0  0  0  0
  8 12  1  0  0  0  0
  9 10  1  0  0  0  0
  9 11  1  0  0  0  0
 10 13  1  0  0  0  0
 14 15  2  0  0  0  0
 14 17  1  0  0  0  0
 14 20  1  0  0  0  0
 15 16  1  0  0  0  0
 16 18  2  0  0  0  0
 16 22  1  0  0  0  0
 18 19  1  0  0  0  0
 19 20  2  0  0  0  0
 21 23  1  0  0  0  0
 22 25  2  0  0  0  0
 23 26  1  0  0  0  0
 23 27  1  0  0  0  0
 24 25  1  0  0  0  0
M  END
> <PUBCHEM_COMPOUND_ID_TYPE>
0

> <PUBCHEM_TOTAL_CHARGE>
0

> <PUBCHEM_SUBSTANCE_ID>
310945426

> <PUBCHEM_SUBSTANCE_VERSION>
1

> <PUBCHEM_EXT_DATASOURCE_NAME>
4488

> <PUBCHEM_EXT_DATASOURCE_REGID>
SCHEMBL16123524

> <PUBCHEM_SUBSTANCE_COMMENT>
InChI=1S/C20H25ClN4O2/c1-20(2,27)10-25-8-14-13(15(14)9-25)7-24-19(26)12-6-16(21)17(22)11-4-3-5-23-18(11)12/h3-6,13-15,27H,7-10,22H2,1-2H3,(H,24,26)
InChIKey=IICYFYRDOVORCN-UHFFFAOYSA-N

> <PUBCHEM_SUBSTANCE_SYNONYM>
SCHEMBL16123524

> <PUBCHEM_XREF_EXT_ID>
SCHEMBL16123524

> <PUBCHEM_EXT_DATASOURCE_URL>
https://www.surechembl.org/

> <PUBCHEM_EXT_SUBSTANCE_URL>
https://www.surechembl.org/chemical/SCHEMBL16123524

> <PUBCHEM_CID_ASSOCIATIONS>
86273069  1

> <PUBCHEM_COORDINATE_TYPE>
1
3

$$$$
