310937341
  -OEChem-07211613022D

 33 36  0     1  0  0  0  0  0999 V2000
   -1.7629   -2.8800    0.0000 S   0  0  0  0  0  0  0  0  0  0  0  0
   -1.6230    0.3572    0.0000 F   0  0  0  0  0  0  0  0  0  0  0  0
   -1.2357    1.0856    0.0000 F   0  0  0  0  0  0  0  0  0  0  0  0
   -0.4111    1.1145    0.0000 F   0  0  0  0  0  0  0  0  0  0  0  0
    2.0202   -3.3875    0.0000 F   0  0  0  0  0  0  0  0  0  0  0  0
   -2.0664    0.0082    0.0000 O   0  0  0  0  0  0  0  0  0  0  0  0
    2.0202   -0.9125    0.0000 O   0  0  0  0  0  0  0  0  0  0  0  0
   -0.8377   -1.7374    0.0000 N   0  0  0  0  0  0  0  0  0  0  0  0
   -2.1434   -1.4599    0.0000 N   0  0  0  0  0  0  0  0  0  0  0  0
    0.5919    1.6500    0.0000 N   0  0  0  0  0  0  0  0  0  0  0  0
    2.7346   -2.1500    0.0000 N   0  0  0  0  0  0  0  0  0  0  0  0
    4.1636   -1.3250    0.0000 N   0  0  0  0  0  0  0  0  0  0  0  0
   -0.9239   -0.9170    0.0000 C   0  0  3  0  0  0  0  0  0  0  0  0
   -0.3613   -0.3136    0.0000 C   0  0  3  0  0  0  0  0  0  0  0  0
   -0.7985    0.3860    0.0000 C   0  0  0  0  0  0  0  0  0  0  0  0
   -1.7309   -0.7454    0.0000 C   0  0  0  0  0  0  0  0  0  0  0  0
   -0.3206   -1.4796    0.0000 C   0  0  0  0  0  0  0  0  0  0  0  0
    0.2421   -0.8763    0.0000 C   0  0  0  0  0  0  0  0  0  0  0  0
    0.2220    0.2698    0.0000 C   0  0  0  0  0  0  0  0  0  0  0  0
   -1.5914   -2.0730    0.0000 C   0  0  0  0  0  0  0  0  0  0  0  0
   -0.1232   -2.1500    0.0000 C   0  0  0  0  0  0  0  0  0  0  0  0
    0.0085    1.0667    0.0000 C   0  0  0  0  0  0  0  0  0  0  0  0
    1.0189    0.0562    0.0000 C   0  0  0  0  0  0  0  0  0  0  0  0
    0.5912   -1.7374    0.0000 C   0  0  0  0  0  0  0  0  0  0  0  0
   -0.1232   -2.9750    0.0000 C   0  0  0  0  0  0  0  0  0  0  0  0
    1.3057   -2.1500    0.0000 C   0  0  0  0  0  0  0  0  0  0  0  0
    1.6023    0.6396    0.0000 C   0  0  0  0  0  0  0  0  0  0  0  0
    0.5912   -3.3875    0.0000 C   0  0  0  0  0  0  0  0  0  0  0  0
    1.3057   -2.9750    0.0000 C   0  0  0  0  0  0  0  0  0  0  0  0
    1.3888    1.4365    0.0000 C   0  0  0  0  0  0  0  0  0  0  0  0
    2.0202   -1.7374    0.0000 C   0  0  0  0  0  0  0  0  0  0  0  0
    3.4491   -1.7374    0.0000 C   0  0  0  0  0  0  0  0  0  0  0  0
    2.7346   -2.9750    0.0000 C   0  0  0  0  0  0  0  0  0  0  0  0
  1 20  2  0  0  0  0
  2 15  1  0  0  0  0
  3 15  1  0  0  0  0
  4 15  1  0  0  0  0
  5 29  1  0  0  0  0
  6 16  2  0  0  0  0
  7 31  2  0  0  0  0
  8 13  1  0  0  0  0
  8 20  1  0  0  0  0
  8 21  1  0  0  0  0
  9 16  1  0  0  0  0
  9 20  1  0  0  0  0
 10 22  2  0  0  0  0
 10 30  1  0  0  0  0
 11 31  1  0  0  0  0
 11 32  1  0  0  0  0
 11 33  1  0  0  0  0
 12 32  3  0  0  0  0
 13 14  1  0  0  0  0
 13 16  1  0  0  0  0
 13 17  1  0  0  0  0
 14 15  1  0  0  0  0
 14 18  1  0  0  0  0
 14 19  1  0  0  0  0
 17 18  1  0  0  0  0
 19 22  1  0  0  0  0
 19 23  2  0  0  0  0
 21 24  1  0  0  0  0
 21 25  2  0  0  0  0
 23 27  1  0  0  0  0
 24 26  2  0  0  0  0
 25 28  1  0  0  0  0
 26 29  1  0  0  0  0
 26 31  1  0  0  0  0
 27 30  2  0  0  0  0
 28 29  2  0  0  0  0
M  END
> <PUBCHEM_COMPOUND_ID_TYPE>
0

> <PUBCHEM_TOTAL_CHARGE>
0

> <PUBCHEM_SUBSTANCE_ID>
310937341

> <PUBCHEM_SUBSTANCE_VERSION>
1

> <PUBCHEM_EXT_DATASOURCE_NAME>
4488

> <PUBCHEM_EXT_DATASOURCE_REGID>
SCHEMBL16115095

> <PUBCHEM_SUBSTANCE_COMMENT>
InChI=1S/C21H15F4N5O2S/c1-29(11-26)16(31)14-9-13(4-5-15(14)22)30-18(33)28-17(32)20(30)7-6-19(20,21(23,24)25)12-3-2-8-27-10-12/h2-5,8-10H,6-7H2,1H3,(H,28,32,33)
InChIKey=DZGQQPWUOHOSIN-UHFFFAOYSA-N

> <PUBCHEM_SUBSTANCE_SYNONYM>
SCHEMBL16115095

> <PUBCHEM_XREF_EXT_ID>
SCHEMBL16115095

> <PUBCHEM_EXT_DATASOURCE_URL>
https://www.surechembl.org/

> <PUBCHEM_EXT_SUBSTANCE_URL>
https://www.surechembl.org/chemical/SCHEMBL16115095

> <PUBCHEM_CID_ASSOCIATIONS>
117605117  1

> <PUBCHEM_COORDINATE_TYPE>
1
3

$$$$
