310945952
  -OEChem-07211613022D

 28 29  0     1  0  0  0  0  0999 V2000
    3.3123    0.8336    0.0000 F   0  0  0  0  0  0  0  0  0  0  0  0
    3.8975    0.2484    0.0000 F   0  0  0  0  0  0  0  0  0  0  0  0
    3.6766   -0.5576    0.0000 F   0  0  0  0  0  0  0  0  0  0  0  0
    0.2871    0.6238    0.0000 O   0  0  0  0  0  0  0  0  0  0  0  0
    1.7224   -2.7105    0.0000 N   0  0  0  0  0  0  0  0  0  0  0  0
    1.3138   -3.4282    0.0000 N   0  0  0  0  0  0  0  0  0  0  0  0
   -1.0158   -2.4345    0.0000 N   0  0  3  0  0  0  0  0  0  0  0  0
   -3.1687   -2.0260    0.0000 N   0  0  0  0  0  0  0  0  0  0  0  0
    1.3469   -1.2641    0.0000 C   0  0  0  0  0  0  0  0  0  0  0  0
    1.1593   -2.0812    0.0000 C   0  0  0  0  0  0  0  0  0  0  0  0
    2.3075   -0.2043    0.0000 C   0  0  0  0  0  0  0  0  0  0  0  0
    0.4306   -2.4234    0.0000 C   0  0  0  0  0  0  0  0  0  0  0  0
    2.1309   -1.0102    0.0000 C   0  0  0  0  0  0  0  0  0  0  0  0
    3.1025    0.0607    0.0000 C   0  0  0  0  0  0  0  0  0  0  0  0
    0.9054    0.0938    0.0000 C   0  0  0  0  0  0  0  0  0  0  0  0
    0.7398   -0.7232    0.0000 C   0  0  0  0  0  0  0  0  0  0  0  0
    1.6893    0.3367    0.0000 C   0  0  0  0  0  0  0  0  0  0  0  0
    0.5079   -3.2405    0.0000 C   0  0  0  0  0  0  0  0  0  0  0  0
   -0.2981   -2.0039    0.0000 C   0  0  0  0  0  0  0  0  0  0  0  0
    0.4968    1.4519    0.0000 C   0  0  0  0  0  0  0  0  0  0  0  0
   -1.7335   -2.0150    0.0000 C   0  0  0  0  0  0  0  0  0  0  0  0
   -1.0047   -3.2626    0.0000 C   0  0  0  0  0  0  0  0  0  0  0  0
   -0.0773    2.0260    0.0000 C   0  0  0  0  0  0  0  0  0  0  0  0
   -2.4290   -2.4124    0.0000 C   0  0  0  0  0  0  0  0  0  0  0  0
    0.1325    2.8320    0.0000 C   0  0  0  0  0  0  0  0  0  0  0  0
   -0.4526    3.4282    0.0000 C   0  0  0  0  0  0  0  0  0  0  0  0
    0.9385    3.0418    0.0000 C   0  0  0  0  0  0  0  0  0  0  0  0
   -3.8975   -2.4345    0.0000 C   0  0  0  0  0  0  0  0  0  0  0  0
  1 14  1  0  0  0  0
  2 14  1  0  0  0  0
  3 14  1  0  0  0  0
  4 15  1  0  0  0  0
  4 20  1  0  0  0  0
  5  6  1  0  0  0  0
  5 10  2  0  0  0  0
  6 18  1  0  0  0  0
  7 19  1  0  0  0  0
  7 21  1  0  0  0  0
  7 22  1  0  0  0  0
  8 24  1  0  0  0  0
  8 28  1  0  0  0  0
  9 10  1  0  0  0  0
  9 13  1  0  0  0  0
  9 16  2  0  0  0  0
 10 12  1  0  0  0  0
 11 13  2  0  0  0  0
 11 14  1  0  0  0  0
 11 17  1  0  0  0  0
 12 18  2  0  0  0  0
 12 19  1  0  0  0  0
 15 16  1  0  0  0  0
 15 17  2  0  0  0  0
 20 23  1  0  0  0  0
 21 24  1  0  0  0  0
 23 25  1  0  0  0  0
 25 26  1  0  0  0  0
 25 27  1  0  0  0  0
M  END
> <PUBCHEM_COMPOUND_ID_TYPE>
0

> <PUBCHEM_TOTAL_CHARGE>
0

> <PUBCHEM_SUBSTANCE_ID>
310945952

> <PUBCHEM_SUBSTANCE_VERSION>
1

> <PUBCHEM_EXT_DATASOURCE_NAME>
4488

> <PUBCHEM_EXT_DATASOURCE_REGID>
SCHEMBL16124057

> <PUBCHEM_SUBSTANCE_COMMENT>
InChI=1S/C20H29F3N4O/c1-14(2)5-8-28-18-10-15(9-17(11-18)20(21,22)23)19-16(12-25-26-19)13-27(4)7-6-24-3/h9-12,14,24H,5-8,13H2,1-4H3,(H,25,26)
InChIKey=QSLRMBVOPPCIAX-UHFFFAOYSA-N

> <PUBCHEM_SUBSTANCE_SYNONYM>
SCHEMBL16124057

> <PUBCHEM_XREF_EXT_ID>
SCHEMBL16124057

> <PUBCHEM_EXT_DATASOURCE_URL>
https://www.surechembl.org/

> <PUBCHEM_EXT_SUBSTANCE_URL>
https://www.surechembl.org/chemical/SCHEMBL16124057

> <PUBCHEM_CID_ASSOCIATIONS>
86300773  1

> <PUBCHEM_COORDINATE_TYPE>
1
3

$$$$
