310938196
  -OEChem-07211613022D

 12 12  0     1  0  0  0  0  0999 V2000
    2.8945   -1.7059    0.0000 O   0  0  0  0  0  0  0  0  0  0  0  0
    1.4403   -1.9157    0.0000 O   0  0  0  0  0  0  0  0  0  0  0  0
    4.1949   -1.0207    0.0000 O   0  0  0  0  0  0  0  0  0  0  0  0
    2.1114   -0.6153    0.0000 C   0  0  0  0  0  0  0  0  0  0  0  0
    2.1114   -1.4403    0.0000 C   0  0  3  0  0  0  0  0  0  0  0  0
    3.3699   -1.0207    0.0000 C   0  0  0  0  0  0  0  0  0  0  0  0
    2.8945   -0.3496    0.0000 C   0  0  0  0  0  0  0  0  0  0  0  0
    1.4403   -0.1398    0.0000 C   0  0  0  0  0  0  0  0  0  0  0  0
    0.6852   -0.4894    0.0000 C   0  0  0  0  0  0  0  0  0  0  0  0
    1.5241   -2.7406    0.0000 C   0  0  0  0  0  0  0  0  0  0  0  0
    0.6013   -1.3004    0.0000 C   0  0  0  0  0  0  0  0  0  0  0  0
    0.0000    0.0000    0.0000 C   0  0  0  0  0  0  0  0  0  0  0  0
  1  5  1  0  0  0  0
  1  6  1  0  0  0  0
  2  5  1  0  0  0  0
  2 10  1  0  0  0  0
  3  6  2  0  0  0  0
  4  5  1  0  0  0  0
  4  7  2  0  0  0  0
  4  8  1  0  0  0  0
  6  7  1  0  0  0  0
  8  9  2  0  0  0  0
  9 11  1  0  0  0  0
  9 12  1  0  0  0  0
M  END
> <PUBCHEM_COMPOUND_ID_TYPE>
0

> <PUBCHEM_TOTAL_CHARGE>
0

> <PUBCHEM_SUBSTANCE_ID>
310938196

> <PUBCHEM_SUBSTANCE_VERSION>
1

> <PUBCHEM_EXT_DATASOURCE_NAME>
4488

> <PUBCHEM_EXT_DATASOURCE_REGID>
SCHEMBL16116051

> <PUBCHEM_SUBSTANCE_COMMENT>
InChI=1S/C9H12O3/c1-6(2)4-7-5-8(10)12-9(7)11-3/h4-5,9H,1-3H3
InChIKey=YUTDQJMKDYGEIB-UHFFFAOYSA-N

> <PUBCHEM_SUBSTANCE_SYNONYM>
SCHEMBL16116051

> <PUBCHEM_XREF_EXT_ID>
SCHEMBL16116051

> <PUBCHEM_EXT_DATASOURCE_URL>
https://www.surechembl.org/

> <PUBCHEM_EXT_SUBSTANCE_URL>
https://www.surechembl.org/chemical/SCHEMBL16116051

> <PUBCHEM_CID_ASSOCIATIONS>
117605732  1

> <PUBCHEM_COORDINATE_TYPE>
1
3

$$$$
