310942348
  -OEChem-07211613022D

 31 34  0     1  0  0  0  0  0999 V2000
   -0.8476   -1.3819    0.0000 O   0  0  0  0  0  0  0  0  0  0  0  0
   -3.6483   -0.6265    0.0000 O   0  0  0  0  0  0  0  0  0  0  0  0
   -1.6030    1.4188    0.0000 O   0  0  0  0  0  0  0  0  0  0  0  0
    1.4925   -0.3317    0.0000 N   0  0  0  0  0  0  0  0  0  0  0  0
    2.2664   -0.6633    0.0000 N   0  0  0  0  0  0  0  0  0  0  0  0
   -1.2161    0.0000    0.0000 N   0  0  0  0  0  0  0  0  0  0  0  0
   -4.0168    0.7555    0.0000 N   0  0  0  0  0  0  0  0  0  0  0  0
    4.2194    0.8844    0.0000 N   0  0  0  0  0  0  0  0  0  0  0  0
    1.2345    0.4791    0.0000 C   0  0  0  0  0  0  0  0  0  0  0  0
    0.1474   -0.3133    0.0000 C   0  0  0  0  0  0  0  0  0  0  0  0
    0.8476   -0.8107    0.0000 C   0  0  0  0  0  0  0  0  0  0  0  0
    0.4238    0.4975    0.0000 C   0  0  0  0  0  0  0  0  0  0  0  0
    1.7320    1.1792    0.0000 C   0  0  3  0  0  0  0  0  0  0  0  0
   -0.6081   -0.5528    0.0000 C   0  0  0  0  0  0  0  0  0  0  0  0
    0.9213   -1.6399    0.0000 C   0  0  0  0  0  0  0  0  0  0  0  0
    2.5612    1.0687    0.0000 C   0  0  0  0  0  0  0  0  0  0  0  0
   -0.0369    1.1608    0.0000 C   0  0  0  0  0  0  0  0  0  0  0  0
    2.3401   -1.5109    0.0000 C   0  0  0  0  0  0  0  0  0  0  0  0
    1.6951   -1.9716    0.0000 C   0  0  0  0  0  0  0  0  0  0  0  0
   -2.6164    0.3870    0.0000 C   0  0  0  0  0  0  0  0  0  0  0  0
    1.4188    1.9347    0.0000 C   0  0  0  0  0  0  0  0  0  0  0  0
   -2.0084   -0.2027    0.0000 C   0  0  0  0  0  0  0  0  0  0  0  0
    3.0771    1.7504    0.0000 C   0  0  0  0  0  0  0  0  0  0  0  0
    2.8928    0.3133    0.0000 C   0  0  0  0  0  0  0  0  0  0  0  0
   -3.4087    0.2027    0.0000 C   0  0  0  0  0  0  0  0  0  0  0  0
   -2.3953    1.1977    0.0000 C   0  0  0  0  0  0  0  0  0  0  0  0
   -3.7772    1.5846    0.0000 C   0  0  0  0  0  0  0  0  0  0  0  0
   -2.9849    1.7688    0.0000 C   0  0  0  0  0  0  0  0  0  0  0  0
    3.8878    1.6583    0.0000 C   0  0  0  0  0  0  0  0  0  0  0  0
    3.7220    0.2211    0.0000 C   0  0  0  0  0  0  0  0  0  0  0  0
   -4.2194    1.9716    0.0000 C   0  0  0  0  0  0  0  0  0  0  0  0
  1 14  2  0  0  0  0
  2 25  2  0  0  0  0
  3 26  1  0  0  0  0
  4  5  1  0  0  0  0
  4  9  1  0  0  0  0
  4 11  1  0  0  0  0
  5 18  2  0  0  0  0
  6 14  1  0  0  0  0
  6 22  1  0  0  0  0
  7 25  1  0  0  0  0
  7 27  1  0  0  0  0
  8 29  1  0  0  0  0
  8 30  1  0  0  0  0
  9 12  2  0  0  0  0
  9 13  1  0  0  0  0
 10 11  2  0  0  0  0
 10 12  1  0  0  0  0
 10 14  1  0  0  0  0
 11 15  1  0  0  0  0
 12 17  1  0  0  0  0
 13 16  1  0  0  0  0
 13 21  1  0  0  0  0
 15 19  2  0  0  0  0
 16 23  1  0  0  0  0
 16 24  1  0  0  0  0
 18 19  1  0  0  0  0
 20 22  1  0  0  0  0
 20 25  1  0  0  0  0
 20 26  2  0  0  0  0
 23 29  1  0  0  0  0
 24 30  1  0  0  0  0
 26 28  1  0  0  0  0
 27 28  2  0  0  0  0
 27 31  1  0  0  0  0
M  END
> <PUBCHEM_COMPOUND_ID_TYPE>
0

> <PUBCHEM_TOTAL_CHARGE>
0

> <PUBCHEM_SUBSTANCE_ID>
310942348

> <PUBCHEM_SUBSTANCE_VERSION>
1

> <PUBCHEM_EXT_DATASOURCE_NAME>
4488

> <PUBCHEM_EXT_DATASOURCE_REGID>
SCHEMBL16120384

> <PUBCHEM_SUBSTANCE_COMMENT>
InChI=1S/C23H29N5O3/c1-13-11-19(29)17(22(30)27-13)12-25-23(31)20-15(3)21(28-18(20)5-4-8-26-28)14(2)16-6-9-24-10-7-16/h4-5,8,11,14,16,24H,6-7,9-10,12H2,1-3H3,(H,25,31)(H2,27,29,30)
InChIKey=KLINWKWJFYQQDD-UHFFFAOYSA-N

> <PUBCHEM_SUBSTANCE_SYNONYM>
SCHEMBL16120384

> <PUBCHEM_XREF_EXT_ID>
SCHEMBL16120384

> <PUBCHEM_EXT_DATASOURCE_URL>
https://www.surechembl.org/

> <PUBCHEM_EXT_SUBSTANCE_URL>
https://www.surechembl.org/chemical/SCHEMBL16120384

> <PUBCHEM_CID_ASSOCIATIONS>
117608972  1

> <PUBCHEM_COORDINATE_TYPE>
1
3

$$$$
