310949684
  -OEChem-07211613022D

  8  8  0     1  0  0  0  0  0999 V2000
    1.3894   -0.8337    0.0000 Cl  0  0  0  0  0  0  0  0  0  0  0  0
   -0.0671   -0.8145    0.0000 N   0  0  0  0  0  0  0  0  0  0  0  0
   -0.8145   -0.3928    0.0000 N   0  0  0  0  0  0  0  0  0  0  0  0
    0.6420   -0.3928    0.0000 C   0  0  0  0  0  0  0  0  0  0  0  0
   -0.8529    0.4312    0.0000 C   0  0  3  0  0  0  0  0  0  0  0  0
    0.6420    0.4121    0.0000 C   0  0  0  0  0  0  0  0  0  0  0  0
   -0.0671    0.8337    0.0000 C   0  0  0  0  0  0  0  0  0  0  0  0
   -1.3894    0.7953    0.0000 C   0  0  0  0  0  0  0  0  0  0  0  0
  1  4  1  0  0  0  0
  2  3  2  0  0  0  0
  2  4  1  0  0  0  0
  3  5  1  0  0  0  0
  4  6  2  0  0  0  0
  5  7  1  0  0  0  0
  5  8  1  0  0  0  0
  6  7  1  0  0  0  0
M  END
> <PUBCHEM_COMPOUND_ID_TYPE>
0

> <PUBCHEM_TOTAL_CHARGE>
0

> <PUBCHEM_SUBSTANCE_ID>
310949684

> <PUBCHEM_SUBSTANCE_VERSION>
1

> <PUBCHEM_EXT_DATASOURCE_NAME>
4488

> <PUBCHEM_EXT_DATASOURCE_REGID>
SCHEMBL16127882

> <PUBCHEM_SUBSTANCE_COMMENT>
InChI=1S/C5H7ClN2/c1-4-2-3-5(6)8-7-4/h3-4H,2H2,1H3
InChIKey=OYPBRZVWPCWBPP-UHFFFAOYSA-N

> <PUBCHEM_SUBSTANCE_SYNONYM>
SCHEMBL16127882

> <PUBCHEM_XREF_EXT_ID>
SCHEMBL16127882

> <PUBCHEM_EXT_DATASOURCE_URL>
https://www.surechembl.org/

> <PUBCHEM_EXT_SUBSTANCE_URL>
https://www.surechembl.org/chemical/SCHEMBL16127882

> <PUBCHEM_CID_ASSOCIATIONS>
117615049  1

> <PUBCHEM_COORDINATE_TYPE>
1
3

$$$$
