310942946
  -OEChem-07211613022D

 12 11  0     1  0  0  0  0  0999 V2000
    1.6591    1.0805    0.0000 O   0  0  0  0  0  0  0  0  0  0  0  0
    2.9140   -1.0805    0.0000 O   0  0  0  0  0  0  0  0  0  0  0  0
   -2.9140   -1.0805    0.0000 O   0  0  0  0  0  0  0  0  0  0  0  0
    0.4182    0.3695    0.0000 C   0  0  3  0  0  0  0  0  0  0  0  0
   -0.4043    0.3695    0.0000 C   0  0  0  0  0  0  0  0  0  0  0  0
    0.8226   -0.3416    0.0000 C   0  0  0  0  0  0  0  0  0  0  0  0
    0.8366    1.0805    0.0000 C   0  0  0  0  0  0  0  0  0  0  0  0
   -0.8226   -0.3555    0.0000 C   0  0  0  0  0  0  0  0  0  0  0  0
    1.6731   -0.3555    0.0000 C   0  0  0  0  0  0  0  0  0  0  0  0
   -1.6452   -0.3555    0.0000 C   0  0  0  0  0  0  0  0  0  0  0  0
    2.0774   -1.0666    0.0000 C   0  0  0  0  0  0  0  0  0  0  0  0
   -2.0774   -1.0805    0.0000 C   0  0  0  0  0  0  0  0  0  0  0  0
  1  7  1  0  0  0  0
  2 11  1  0  0  0  0
  3 12  1  0  0  0  0
  4  5  1  0  0  0  0
  4  6  1  0  0  0  0
  4  7  1  0  0  0  0
  5  8  1  0  0  0  0
  6  9  1  0  0  0  0
  8 10  1  0  0  0  0
  9 11  1  0  0  0  0
 10 12  1  0  0  0  0
M  END
> <PUBCHEM_COMPOUND_ID_TYPE>
0

> <PUBCHEM_TOTAL_CHARGE>
0

> <PUBCHEM_SUBSTANCE_ID>
310942946

> <PUBCHEM_SUBSTANCE_VERSION>
1

> <PUBCHEM_EXT_DATASOURCE_NAME>
4488

> <PUBCHEM_EXT_DATASOURCE_REGID>
SCHEMBL16121005

> <PUBCHEM_SUBSTANCE_COMMENT>
InChI=1S/C9H20O3/c10-6-2-1-4-9(8-12)5-3-7-11/h9-12H,1-8H2
InChIKey=RVKQZOOLMWTHIR-UHFFFAOYSA-N

> <PUBCHEM_SUBSTANCE_SYNONYM>
SCHEMBL16121005

> <PUBCHEM_XREF_EXT_ID>
SCHEMBL16121005

> <PUBCHEM_EXT_DATASOURCE_URL>
https://www.surechembl.org/

> <PUBCHEM_EXT_SUBSTANCE_URL>
https://www.surechembl.org/chemical/SCHEMBL16121005

> <PUBCHEM_CID_ASSOCIATIONS>
54287854  1

> <PUBCHEM_COORDINATE_TYPE>
1
3

$$$$
