310940800
  -OEChem-07211613022D

 42 45  0     1  0  0  0  0  0999 V2000
    5.0616    0.6642    0.0000 O   0  0  0  0  0  0  0  0  0  0  0  0
    3.9290   -1.2794    0.0000 O   0  0  0  0  0  0  0  0  0  0  0  0
    1.7758    0.7760    0.0000 O   0  0  0  0  0  0  0  0  0  0  0  0
   -0.3635   -1.2794    0.0000 O   0  0  0  0  0  0  0  0  0  0  0  0
    3.9290   -2.9293    0.0000 O   0  0  0  0  0  0  0  0  0  0  0  0
   -2.5168    0.7760    0.0000 O   0  0  0  0  0  0  0  0  0  0  0  0
   -5.3832    0.7760    0.0000 O   0  0  0  0  0  0  0  0  0  0  0  0
    2.5029   -0.4684    0.0000 N   0  0  0  0  0  0  0  0  0  0  0  0
    0.3495   -0.0490    0.0000 N   0  0  0  0  0  0  0  0  0  0  0  0
   -1.8037   -0.4684    0.0000 N   0  0  0  0  0  0  0  0  0  0  0  0
   -3.9430   -0.0490    0.0000 N   0  0  0  0  0  0  0  0  0  0  0  0
    4.6561   -0.0070    0.0000 C   0  0  3  0  0  0  0  0  0  0  0  0
    3.9430   -0.4125    0.0000 C   0  0  0  0  0  0  0  0  0  0  0  0
    4.2646    0.6781    0.0000 C   0  0  0  0  0  0  0  0  0  0  0  0
    3.2019   -0.0209    0.0000 C   0  0  3  0  0  0  0  0  0  0  0  0
    5.3832   -0.4264    0.0000 C   0  0  0  0  0  0  0  0  0  0  0  0
    3.2159    1.2933    0.0000 C   0  0  0  0  0  0  0  0  0  0  0  0
    1.7758   -0.0350    0.0000 C   0  0  0  0  0  0  0  0  0  0  0  0
    1.0906   -0.4405    0.0000 C   0  0  3  0  0  0  0  0  0  0  0  0
    2.4888    1.7128    0.0000 C   0  0  0  0  0  0  0  0  0  0  0  0
    1.0766   -1.2654    0.0000 C   0  0  0  0  0  0  0  0  0  0  0  0
    1.8037   -1.6709    0.0000 C   0  0  0  0  0  0  0  0  0  0  0  0
   -0.3495   -0.4125    0.0000 C   0  0  0  0  0  0  0  0  0  0  0  0
    1.7897    1.3074    0.0000 C   0  0  0  0  0  0  0  0  0  0  0  0
    2.5029    2.5098    0.0000 C   0  0  0  0  0  0  0  0  0  0  0  0
   -1.0906   -0.0209    0.0000 C   0  0  3  0  0  0  0  0  0  0  0  0
    2.4888   -1.2794    0.0000 C   0  0  0  0  0  0  0  0  0  0  0  0
    1.8037   -2.4959    0.0000 C   0  0  0  0  0  0  0  0  0  0  0  0
    1.0906    1.6989    0.0000 C   0  0  0  0  0  0  0  0  0  0  0  0
    1.7758    2.9293    0.0000 C   0  0  0  0  0  0  0  0  0  0  0  0
    3.2159   -2.4818    0.0000 C   0  0  0  0  0  0  0  0  0  0  0  0
    3.2159   -1.6848    0.0000 C   0  0  0  0  0  0  0  0  0  0  0  0
    2.5168   -2.9013    0.0000 C   0  0  0  0  0  0  0  0  0  0  0  0
    1.0906    2.5238    0.0000 C   0  0  0  0  0  0  0  0  0  0  0  0
   -2.5168   -0.0490    0.0000 C   0  0  0  0  0  0  0  0  0  0  0  0
   -3.2019   -0.4264    0.0000 C   0  0  0  0  0  0  0  0  0  0  0  0
   -1.0627    0.8179    0.0000 C   0  0  0  0  0  0  0  0  0  0  0  0
   -3.9430    0.7900    0.0000 C   0  0  0  0  0  0  0  0  0  0  0  0
   -4.6282   -0.4264    0.0000 C   0  0  0  0  0  0  0  0  0  0  0  0
   -4.6701    1.2094    0.0000 C   0  0  0  0  0  0  0  0  0  0  0  0
   -5.3692   -0.0350    0.0000 C   0  0  0  0  0  0  0  0  0  0  0  0
    4.6701   -2.5098    0.0000 C   0  0  0  0  0  0  0  0  0  0  0  0
  1 12  1  0  0  0  0
  1 14  1  0  0  0  0
  2 13  2  0  0  0  0
  3 18  2  0  0  0  0
  4 23  2  0  0  0  0
  5 31  1  0  0  0  0
  5 42  1  0  0  0  0
  6 35  2  0  0  0  0
  7 40  1  0  0  0  0
  7 41  1  0  0  0  0
  8 15  1  0  0  0  0
  8 18  1  0  0  0  0
  9 19  1  0  0  0  0
  9 23  1  0  0  0  0
 10 26  1  0  0  0  0
 10 35  1  0  0  0  0
 11 36  1  0  0  0  0
 11 38  1  0  0  0  0
 11 39  1  0  0  0  0
 12 13  1  0  0  0  0
 12 14  1  0  0  0  0
 12 16  1  0  0  0  0
 13 15  1  0  0  0  0
 15 17  1  0  0  0  0
 17 20  1  0  0  0  0
 18 19  1  0  0  0  0
 19 21  1  0  0  0  0
 20 24  2  0  0  0  0
 20 25  1  0  0  0  0
 21 22  1  0  0  0  0
 22 27  2  0  0  0  0
 22 28  1  0  0  0  0
 23 26  1  0  0  0  0
 24 29  1  0  0  0  0
 25 30  1  0  0  0  0
 26 37  1  0  0  0  0
 27 32  1  0  0  0  0
 28 33  2  0  0  0  0
 29 34  1  0  0  0  0
 30 34  1  0  0  0  0
 31 32  2  0  0  0  0
 31 33  1  0  0  0  0
 35 36  1  0  0  0  0
 38 40  1  0  0  0  0
 39 41  1  0  0  0  0
M  END
> <PUBCHEM_COMPOUND_ID_TYPE>
0

> <PUBCHEM_TOTAL_CHARGE>
0

> <PUBCHEM_SUBSTANCE_ID>
310940800

> <PUBCHEM_SUBSTANCE_VERSION>
1

> <PUBCHEM_EXT_DATASOURCE_NAME>
4488

> <PUBCHEM_EXT_DATASOURCE_REGID>
SCHEMBL16118759

> <PUBCHEM_SUBSTANCE_COMMENT>
InChI=1S/C31H44N4O7/c1-21(32-27(36)19-35-13-15-41-16-14-35)29(38)34-26(18-23-9-11-24(40-3)12-10-23)30(39)33-25(28(37)31(2)20-42-31)17-22-7-5-4-6-8-22/h7,9-12,21,25-26H,4-6,8,13-20H2,1-3H3,(H,32,36)(H,33,39)(H,34,38)
InChIKey=PVOIKOSYTZPUDH-UHFFFAOYSA-N

> <PUBCHEM_SUBSTANCE_SYNONYM>
SCHEMBL16118759

> <PUBCHEM_XREF_EXT_ID>
SCHEMBL16118759

> <PUBCHEM_EXT_DATASOURCE_URL>
https://www.surechembl.org/

> <PUBCHEM_EXT_SUBSTANCE_URL>
https://www.surechembl.org/chemical/SCHEMBL16118759

> <PUBCHEM_CID_ASSOCIATIONS>
86296918  1

> <PUBCHEM_COORDINATE_TYPE>
1
3

$$$$
