310939499
  -OEChem-07211613022D

 18 19  0     1  0  0  0  0  0999 V2000
    0.0898    3.6603    0.0000 O   0  0  0  0  0  0  0  0  0  0  0  0
    0.0898    5.0892    0.0000 O   0  0  0  0  0  0  0  0  0  0  0  0
    1.3273    5.8037    0.0000 O   0  0  0  0  0  0  0  0  0  0  0  0
    0.9148    2.2313    0.0000 C   0  0  3  0  0  0  0  0  0  0  0  0
   -0.7352    2.2313    0.0000 C   0  0  3  0  0  0  0  0  0  0  0  0
    0.5023    2.9458    0.0000 C   0  0  3  0  0  0  0  0  0  0  0  0
   -0.3227    2.9458    0.0000 C   0  0  0  0  0  0  0  0  0  0  0  0
    0.5023    1.5169    0.0000 C   0  0  0  0  0  0  0  0  0  0  0  0
   -0.3227    1.5169    0.0000 C   0  0  0  0  0  0  0  0  0  0  0  0
    1.6293    1.8188    0.0000 C   0  0  0  0  0  0  0  0  0  0  0  0
    0.5023    4.3748    0.0000 C   0  0  3  0  0  0  0  0  0  0  0  0
    0.0898    6.5182    0.0000 C   0  0  0  0  0  0  0  0  0  0  0  0
    0.5023    5.8037    0.0000 C   0  0  0  0  0  0  0  0  0  0  0  0
   -0.6247    6.9307    0.0000 C   0  0  0  0  0  0  0  0  0  0  0  0
    1.3273    4.3748    0.0000 C   0  0  0  0  0  0  0  0  0  0  0  0
    0.5023    7.2326    0.0000 C   0  0  0  0  0  0  0  0  0  0  0  0
    1.6698    6.8090    0.0000 C   0  0  0  0  0  0  0  0  0  0  0  0
   -1.3392    6.5182    0.0000 C   0  0  0  0  0  0  0  0  0  0  0  0
  1  6  1  0  0  0  0
  1 11  1  0  0  0  0
  2 11  1  0  0  0  0
  2 13  1  0  0  0  0
  3 13  2  0  0  0  0
  4  5  1  0  0  0  0
  4  6  1  0  0  0  0
  4  8  1  0  0  0  0
  4 10  1  0  0  0  0
  5  7  1  0  0  0  0
  5  9  1  0  0  0  0
  6  7  1  0  0  0  0
  8  9  1  0  0  0  0
 11 15  1  0  0  0  0
 12 13  1  0  0  0  0
 12 14  1  0  0  0  0
 12 16  1  0  0  0  0
 12 17  1  0  0  0  0
 14 18  1  0  0  0  0
M  END
> <PUBCHEM_COMPOUND_ID_TYPE>
0

> <PUBCHEM_TOTAL_CHARGE>
0

> <PUBCHEM_SUBSTANCE_ID>
310939499

> <PUBCHEM_SUBSTANCE_VERSION>
1

> <PUBCHEM_EXT_DATASOURCE_NAME>
4488

> <PUBCHEM_EXT_DATASOURCE_REGID>
SCHEMBL16117428

> <PUBCHEM_SUBSTANCE_COMMENT>
InChI=1S/C15H26O3/c1-6-14(3,4)13(16)18-10(2)17-12-9-11-7-8-15(11,12)5/h10-12H,6-9H2,1-5H3
InChIKey=NEIKOCNPZUAULX-UHFFFAOYSA-N

> <PUBCHEM_SUBSTANCE_SYNONYM>
SCHEMBL16117428

> <PUBCHEM_XREF_EXT_ID>
SCHEMBL16117428

> <PUBCHEM_EXT_DATASOURCE_URL>
https://www.surechembl.org/

> <PUBCHEM_EXT_SUBSTANCE_URL>
https://www.surechembl.org/chemical/SCHEMBL16117428

> <PUBCHEM_CID_ASSOCIATIONS>
117606800  1

> <PUBCHEM_COORDINATE_TYPE>
1
3

$$$$
