310942852
  -OEChem-07211613022D

 28 30  0     1  0  0  0  0  0999 V2000
   -2.7647   -0.1791    0.0000 P   0  0  3  0  0  0  0  0  0  0  0  0
    0.0180   -0.4180    0.0000 O   0  0  0  0  0  0  0  0  0  0  0  0
    0.6509   -2.4362    0.0000 O   0  0  0  0  0  0  0  0  0  0  0  0
   -0.6270   -2.4362    0.0000 O   0  0  0  0  0  0  0  0  0  0  0  0
   -1.9288   -0.1911    0.0000 O   0  0  0  0  0  0  0  0  0  0  0  0
   -2.7647    0.6210    0.0000 O   0  0  0  0  0  0  0  0  0  0  0  0
    0.9972    0.1791    0.0000 N   0  0  0  0  0  0  0  0  0  0  0  0
    2.5258    0.0120    0.0000 N   0  0  0  0  0  0  0  0  0  0  0  0
    3.2544    1.2301    0.0000 N   0  0  0  0  0  0  0  0  0  0  0  0
    2.5258    2.4362    0.0000 N   0  0  0  0  0  0  0  0  0  0  0  0
    0.6748   -0.8479    0.0000 C   0  0  3  0  0  0  0  0  0  0  0  0
    1.7855    0.4419    0.0000 C   0  0  0  0  0  0  0  0  0  0  0  0
    0.4240   -1.6362    0.0000 C   0  0  3  0  0  0  0  0  0  0  0  0
   -0.6509   -0.8479    0.0000 C   0  0  3  0  0  0  0  0  0  0  0  0
   -0.4001   -1.6480    0.0000 C   0  0  3  0  0  0  0  0  0  0  0  0
    1.7973    1.2420    0.0000 C   0  0  0  0  0  0  0  0  0  0  0  0
    0.4957    0.8240    0.0000 C   0  0  0  0  0  0  0  0  0  0  0  0
    0.9852    1.4928    0.0000 C   0  0  0  0  0  0  0  0  0  0  0  0
    2.5139    1.6480    0.0000 C   0  0  0  0  0  0  0  0  0  0  0  0
   -1.0688   -0.1791    0.0000 C   0  0  0  0  0  0  0  0  0  0  0  0
   -1.4749   -0.1672    0.0000 C   0  0  0  0  0  0  0  0  0  0  0  0
    3.2424    0.4299    0.0000 C   0  0  0  0  0  0  0  0  0  0  0  0
   -1.8093   -1.4331    0.0000 C   0  0  0  0  0  0  0  0  0  0  0  0
   -1.8093    1.0270    0.0000 C   0  0  0  0  0  0  0  0  0  0  0  0
   -3.2544   -0.1672    0.0000 C   0  0  3  0  0  0  0  0  0  0  0  0
   -3.2066   -0.6808    0.0000 C   0  0  0  0  0  0  0  0  0  0  0  0
   -2.9199    1.0509    0.0000 C   0  0  0  0  0  0  0  0  0  0  0  0
   -2.8961   -1.4451    0.0000 C   0  0  0  0  0  0  0  0  0  0  0  0
  1  5  1  0  0  0  0
  1  6  2  0  0  0  0
  1 25  1  0  0  0  0
 11  2  1  6  0  0  0
  2 14  1  0  0  0  0
 13  3  1  6  0  0  0
  4 15  1  0  0  0  0
  5 21  1  0  0  0  0
  7 11  1  0  0  0  0
  7 12  1  0  0  0  0
  7 17  1  0  0  0  0
  8 12  1  0  0  0  0
  8 22  2  0  0  0  0
  9 19  2  0  0  0  0
  9 22  1  0  0  0  0
 10 19  1  0  0  0  0
 11 13  1  0  0  0  0
 12 16  2  0  0  0  0
 13 15  1  0  0  0  0
 14 15  1  0  0  0  0
 14 20  1  0  0  0  0
 16 18  1  0  0  0  0
 16 19  1  0  0  0  0
 17 18  2  0  0  0  0
 20 21  1  0  0  0  0
 21 23  1  0  0  0  0
 21 24  1  0  0  0  0
 25 26  1  0  0  0  0
 25 27  1  0  0  0  0
 26 28  1  0  0  0  0
M  END
> <PUBCHEM_COMPOUND_ID_TYPE>
0

> <PUBCHEM_TOTAL_CHARGE>
0

> <PUBCHEM_SUBSTANCE_ID>
310942852

> <PUBCHEM_SUBSTANCE_VERSION>
1

> <PUBCHEM_EXT_DATASOURCE_NAME>
4488

> <PUBCHEM_EXT_DATASOURCE_REGID>
SCHEMBL16120907

> <PUBCHEM_SUBSTANCE_COMMENT>
InChI=1S/C18H29N4O5P/c1-5-10(2)28(25)27-18(3,4)8-12-13(23)14(24)17(26-12)22-7-6-11-15(19)20-9-21-16(11)22/h6-7,9-10,12-14,17,23-24,28H,5,8H2,1-4H3,(H2,19,20,21)/t10?,12?,13?,14-,17-/m1/s1
InChIKey=YNXKOQNETNFKBM-JGZALIAESA-N

> <PUBCHEM_SUBSTANCE_SYNONYM>
SCHEMBL16120907

> <PUBCHEM_XREF_EXT_ID>
SCHEMBL16120907

> <PUBCHEM_EXT_DATASOURCE_URL>
https://www.surechembl.org/

> <PUBCHEM_EXT_SUBSTANCE_URL>
https://www.surechembl.org/chemical/SCHEMBL16120907

> <PUBCHEM_CID_ASSOCIATIONS>
117609342  1

> <PUBCHEM_COORDINATE_TYPE>
1
3

> <PUBCHEM_BONDANNOTATIONS>
11  2  6
13  3  6

$$$$
