310935707
  -OEChem-07211613022D

 31 33  0     1  0  0  0  0  0999 V2000
    1.2381   -4.9522    0.0000 O   0  0  0  0  0  0  0  0  0  0  0  0
    5.6596   -3.4311    0.0000 O   0  0  0  0  0  0  0  0  0  0  0  0
    0.4244   -6.3670    0.0000 O   0  0  0  0  0  0  0  0  0  0  0  0
    6.3670   -4.6692    0.0000 O   0  0  0  0  0  0  0  0  0  0  0  0
    1.6271   -7.0745    0.0000 O   0  0  0  0  0  0  0  0  0  0  0  0
    4.0678   -5.6596    0.0000 N   0  0  0  0  0  0  0  0  0  0  0  0
    2.4407   -4.2447    0.0000 N   0  0  0  0  0  0  0  0  0  0  0  0
    4.8814   -5.4474    0.0000 N   0  0  0  0  0  0  0  0  0  0  0  0
    2.8652   -4.9522    0.0000 C   0  0  0  0  0  0  0  0  0  0  0  0
    3.6788   -4.9522    0.0000 C   0  0  0  0  0  0  0  0  0  0  0  0
    2.4407   -5.6596    0.0000 C   0  0  0  0  0  0  0  0  0  0  0  0
    2.8652   -6.3670    0.0000 C   0  0  0  0  0  0  0  0  0  0  0  0
    4.2093   -4.3155    0.0000 C   0  0  0  0  0  0  0  0  0  0  0  0
    4.9522   -4.6692    0.0000 C   0  0  0  0  0  0  0  0  0  0  0  0
    3.6788   -6.3670    0.0000 C   0  0  0  0  0  0  0  0  0  0  0  0
    1.6271   -5.6596    0.0000 C   0  0  3  0  0  0  0  0  0  0  0  0
    1.6271   -4.2447    0.0000 C   0  0  0  0  0  0  0  0  0  0  0  0
    2.8652   -3.5373    0.0000 C   0  0  0  0  0  0  0  0  0  0  0  0
    1.6625   -2.8298    0.0000 C   0  0  0  0  0  0  0  0  0  0  0  0
    5.6596   -4.2447    0.0000 C   0  0  0  0  0  0  0  0  0  0  0  0
    1.2381   -6.3670    0.0000 C   0  0  0  0  0  0  0  0  0  0  0  0
    1.2381   -3.5373    0.0000 C   0  0  0  0  0  0  0  0  0  0  0  0
    2.4407   -2.8298    0.0000 C   0  0  0  0  0  0  0  0  0  0  0  0
    2.4407   -7.0745    0.0000 C   0  0  0  0  0  0  0  0  0  0  0  0
    1.2381   -2.1223    0.0000 C   0  0  0  0  0  0  0  0  0  0  0  0
    0.8136   -2.8298    0.0000 C   0  0  0  0  0  0  0  0  0  0  0  0
    1.6625   -1.4149    0.0000 C   0  0  0  0  0  0  0  0  0  0  0  0
    6.3670   -3.0066    0.0000 C   0  0  0  0  0  0  0  0  0  0  0  0
    0.0000   -7.0745    0.0000 C   0  0  0  0  0  0  0  0  0  0  0  0
    1.2381   -0.7074    0.0000 C   0  0  0  0  0  0  0  0  0  0  0  0
    1.6625    0.0000    0.0000 C   0  0  0  0  0  0  0  0  0  0  0  0
  1 16  1  0  0  0  0
  2 20  1  0  0  0  0
  2 28  1  0  0  0  0
  3 21  1  0  0  0  0
  3 29  1  0  0  0  0
  4 20  2  0  0  0  0
  5 21  2  0  0  0  0
  6  8  1  0  0  0  0
  6 10  1  0  0  0  0
  6 15  1  0  0  0  0
  7  9  1  0  0  0  0
  7 17  1  0  0  0  0
  7 18  1  0  0  0  0
  8 14  2  0  0  0  0
  9 10  1  0  0  0  0
  9 11  2  0  0  0  0
 10 13  2  0  0  0  0
 11 12  1  0  0  0  0
 11 16  1  0  0  0  0
 12 15  2  0  0  0  0
 12 24  1  0  0  0  0
 13 14  1  0  0  0  0
 14 20  1  0  0  0  0
 16 21  1  0  0  0  0
 17 22  1  0  0  0  0
 18 23  1  0  0  0  0
 19 22  1  0  0  0  0
 19 23  1  0  0  0  0
 19 25  1  0  0  0  0
 19 26  1  0  0  0  0
 25 27  1  0  0  0  0
 27 30  1  0  0  0  0
 30 31  2  0  0  0  0
M  END
> <PUBCHEM_COMPOUND_ID_TYPE>
0

> <PUBCHEM_TOTAL_CHARGE>
0

> <PUBCHEM_SUBSTANCE_ID>
310935707

> <PUBCHEM_SUBSTANCE_VERSION>
1

> <PUBCHEM_EXT_DATASOURCE_NAME>
4488

> <PUBCHEM_EXT_DATASOURCE_REGID>
SCHEMBL16113291

> <PUBCHEM_SUBSTANCE_COMMENT>
InChI=1S/C23H31N3O5/c1-6-7-8-23(3)9-11-25(12-10-23)19-17-13-16(21(28)30-4)24-26(17)14-15(2)18(19)20(27)22(29)31-5/h6,13-14,20,27H,1,7-12H2,2-5H3
InChIKey=NLRRUUMWVWFTFN-UHFFFAOYSA-N

> <PUBCHEM_SUBSTANCE_SYNONYM>
SCHEMBL16113291

> <PUBCHEM_XREF_EXT_ID>
SCHEMBL16113291

> <PUBCHEM_EXT_DATASOURCE_URL>
https://www.surechembl.org/

> <PUBCHEM_EXT_SUBSTANCE_URL>
https://www.surechembl.org/chemical/SCHEMBL16113291

> <PUBCHEM_CID_ASSOCIATIONS>
117603713  1

> <PUBCHEM_COORDINATE_TYPE>
1
3

$$$$
