310944556
  -OEChem-07211613022D

 33 36  0     1  0  0  0  0  0999 V2000
   -3.7144   -0.5155    0.0000 Cl  0  0  0  0  0  0  0  0  0  0  0  0
   -2.8324    2.3789    0.0000 Cl  0  0  0  0  0  0  0  0  0  0  0  0
   -4.4722   -0.0683    0.0000 F   0  0  0  0  0  0  0  0  0  0  0  0
   -0.6832   -0.5155    0.0000 O   0  0  0  0  0  0  0  0  0  0  0  0
    0.7453    1.9690    0.0000 O   0  0  0  0  0  0  0  0  0  0  0  0
    4.9691   -0.7640    0.0000 O   0  0  0  0  0  0  0  0  0  0  0  0
    1.4907    0.7267    0.0000 N   0  0  0  0  0  0  0  0  0  0  0  0
    3.5529   -0.7640    0.0000 N   0  0  0  0  0  0  0  0  0  0  0  0
   -0.6708    1.1491    0.0000 N   0  0  0  0  0  0  0  0  0  0  0  0
    2.2734   -0.3417    0.0000 C   0  0  3  0  0  0  0  0  0  0  0  0
    2.7578    0.3292    0.0000 C   0  0  3  0  0  0  0  0  0  0  0  0
   -2.8199    0.7392    0.0000 C   0  0  0  0  0  0  0  0  0  0  0  0
   -3.5529    1.1491    0.0000 C   0  0  0  0  0  0  0  0  0  0  0  0
   -1.3914    0.7392    0.0000 C   0  0  0  0  0  0  0  0  0  0  0  0
   -2.8199   -0.0932    0.0000 C   0  0  0  0  0  0  0  0  0  0  0  0
    1.4907   -0.0932    0.0000 C   0  0  0  0  0  0  0  0  0  0  0  0
    2.2734    0.9876    0.0000 C   0  0  0  0  0  0  0  0  0  0  0  0
    3.5529    0.0559    0.0000 C   0  0  0  0  0  0  0  0  0  0  0  0
    2.7827   -1.0249    0.0000 C   0  0  0  0  0  0  0  0  0  0  0  0
   -2.0994    1.1367    0.0000 C   0  0  0  0  0  0  0  0  0  0  0  0
   -1.4038   -0.0932    0.0000 C   0  0  0  0  0  0  0  0  0  0  0  0
    0.7578    1.1367    0.0000 C   0  0  0  0  0  0  0  0  0  0  0  0
   -3.5405    1.9814    0.0000 C   0  0  0  0  0  0  0  0  0  0  0  0
   -4.2610    0.7392    0.0000 C   0  0  0  0  0  0  0  0  0  0  0  0
   -2.0994   -0.5031    0.0000 C   0  0  0  0  0  0  0  0  0  0  0  0
    4.2486   -1.1863    0.0000 C   0  0  0  0  0  0  0  0  0  0  0  0
    0.0497    0.7267    0.0000 C   0  0  0  0  0  0  0  0  0  0  0  0
   -4.2486    2.3789    0.0000 C   0  0  0  0  0  0  0  0  0  0  0  0
   -4.9691    1.1491    0.0000 C   0  0  0  0  0  0  0  0  0  0  0  0
   -4.9691    1.9690    0.0000 C   0  0  0  0  0  0  0  0  0  0  0  0
    4.2610   -2.0187    0.0000 C   0  0  0  0  0  0  0  0  0  0  0  0
    0.0373   -0.0932    0.0000 C   0  0  0  0  0  0  0  0  0  0  0  0
    3.5281   -2.3789    0.0000 C   0  0  0  0  0  0  0  0  0  0  0  0
  1 15  1  0  0  0  0
  2 23  1  0  0  0  0
  3 24  1  0  0  0  0
  4 21  1  0  0  0  0
  4 32  1  0  0  0  0
  5 22  2  0  0  0  0
  6 26  2  0  0  0  0
  7 16  1  0  0  0  0
  7 17  1  0  0  0  0
  7 22  1  0  0  0  0
  8 18  1  0  0  0  0
  8 19  1  0  0  0  0
  8 26  1  0  0  0  0
  9 14  1  0  0  0  0
  9 27  1  0  0  0  0
 10 11  1  0  0  0  0
 10 16  1  0  0  0  0
 10 19  1  0  0  0  0
 11 17  1  0  0  0  0
 11 18  1  0  0  0  0
 12 13  1  0  0  0  0
 12 15  2  0  0  0  0
 12 20  1  0  0  0  0
 13 23  1  0  0  0  0
 13 24  2  0  0  0  0
 14 20  2  0  0  0  0
 14 21  1  0  0  0  0
 15 25  1  0  0  0  0
 21 25  2  0  0  0  0
 22 27  1  0  0  0  0
 23 28  2  0  0  0  0
 24 29  1  0  0  0  0
 26 31  1  0  0  0  0
 28 30  1  0  0  0  0
 29 30  2  0  0  0  0
 31 33  2  0  0  0  0
M  END
> <PUBCHEM_COMPOUND_ID_TYPE>
0

> <PUBCHEM_TOTAL_CHARGE>
0

> <PUBCHEM_SUBSTANCE_ID>
310944556

> <PUBCHEM_SUBSTANCE_VERSION>
1

> <PUBCHEM_EXT_DATASOURCE_NAME>
4488

> <PUBCHEM_EXT_DATASOURCE_REGID>
SCHEMBL16122633

> <PUBCHEM_SUBSTANCE_COMMENT>
InChI=1S/C24H24Cl2FN3O3/c1-3-22(31)29-10-14-12-30(13-15(14)11-29)23(32)9-28-20-7-16(18(26)8-21(20)33-2)24-17(25)5-4-6-19(24)27/h3-8,14-15,28H,1,9-13H2,2H3
InChIKey=BCOIIIPKYIFMLU-UHFFFAOYSA-N

> <PUBCHEM_SUBSTANCE_SYNONYM>
SCHEMBL16122633

> <PUBCHEM_XREF_EXT_ID>
SCHEMBL16122633

> <PUBCHEM_EXT_DATASOURCE_URL>
https://www.surechembl.org/

> <PUBCHEM_EXT_SUBSTANCE_URL>
https://www.surechembl.org/chemical/SCHEMBL16122633

> <PUBCHEM_CID_ASSOCIATIONS>
117610791  1

> <PUBCHEM_COORDINATE_TYPE>
1
3

$$$$
