310937720
  -OEChem-07211613022D

 25 28  0     1  0  0  0  0  0999 V2000
    6.8080   -2.2080    0.0000 O   0  0  0  0  0  0  0  0  0  0  0  0
    2.7337   -2.9177    0.0000 O   0  0  0  0  0  0  0  0  0  0  0  0
    1.1303   -2.2869    0.0000 O   0  0  0  0  0  0  0  0  0  0  0  0
    5.5726   -1.8137    0.0000 N   0  0  0  0  0  0  0  0  0  0  0  0
    4.9943   -3.8903    0.0000 N   0  0  0  0  0  0  0  0  0  0  0  0
    6.3349   -2.8914    0.0000 N   0  0  0  0  0  0  0  0  0  0  0  0
    3.5749   -4.0480    0.0000 C   0  0  0  0  0  0  0  0  0  0  0  0
    4.8891   -3.1017    0.0000 C   0  0  0  0  0  0  0  0  0  0  0  0
    5.5726   -2.6286    0.0000 C   0  0  0  0  0  0  0  0  0  0  0  0
    3.4960   -3.2594    0.0000 C   0  0  0  0  0  0  0  0  0  0  0  0
    2.9177   -4.5211    0.0000 C   0  0  0  0  0  0  0  0  0  0  0  0
    6.3349   -1.5508    0.0000 C   0  0  0  0  0  0  0  0  0  0  0  0
    4.1532   -2.7337    0.0000 C   0  0  0  0  0  0  0  0  0  0  0  0
    6.5977   -0.7623    0.0000 C   0  0  0  0  0  0  0  0  0  0  0  0
    4.3372   -4.3897    0.0000 C   0  0  0  0  0  0  0  0  0  0  0  0
    2.5760   -5.2572    0.0000 C   0  0  0  0  0  0  0  0  0  0  0  0
    2.0766   -4.6000    0.0000 C   0  0  0  0  0  0  0  0  0  0  0  0
    2.0766   -3.4172    0.0000 C   0  0  0  0  0  0  0  0  0  0  0  0
    1.3143   -3.1017    0.0000 C   0  0  3  0  0  0  0  0  0  0  0  0
    7.3863   -1.0252    0.0000 C   0  0  0  0  0  0  0  0  0  0  0  0
    6.8343    0.0000    0.0000 C   0  0  0  0  0  0  0  0  0  0  0  0
    5.8091   -0.5257    0.0000 C   0  0  0  0  0  0  0  0  0  0  0  0
    0.6046   -3.4960    0.0000 C   0  0  0  0  0  0  0  0  0  0  0  0
    0.3154   -2.2080    0.0000 C   0  0  0  0  0  0  0  0  0  0  0  0
    0.0000   -2.9703    0.0000 C   0  0  0  0  0  0  0  0  0  0  0  0
  1  6  1  0  0  0  0
  1 12  1  0  0  0  0
  2 10  1  0  0  0  0
  2 18  1  0  0  0  0
  3 19  1  0  0  0  0
  3 24  1  0  0  0  0
  4  9  1  0  0  0  0
  4 12  2  0  0  0  0
  5  8  1  0  0  0  0
  5 15  2  0  0  0  0
  6  9  2  0  0  0  0
  7 10  2  0  0  0  0
  7 11  1  0  0  0  0
  7 15  1  0  0  0  0
  8  9  1  0  0  0  0
  8 13  2  0  0  0  0
 10 13  1  0  0  0  0
 11 16  1  0  0  0  0
 11 17  1  0  0  0  0
 12 14  1  0  0  0  0
 14 20  1  0  0  0  0
 14 21  1  0  0  0  0
 14 22  1  0  0  0  0
 16 17  1  0  0  0  0
 18 19  1  0  0  0  0
 19 23  1  0  0  0  0
 23 25  1  0  0  0  0
 24 25  1  0  0  0  0
M  END
> <PUBCHEM_COMPOUND_ID_TYPE>
0

> <PUBCHEM_TOTAL_CHARGE>
0

> <PUBCHEM_SUBSTANCE_ID>
310937720

> <PUBCHEM_SUBSTANCE_VERSION>
1

> <PUBCHEM_EXT_DATASOURCE_NAME>
4488

> <PUBCHEM_EXT_DATASOURCE_REGID>
SCHEMBL16115516

> <PUBCHEM_SUBSTANCE_COMMENT>
InChI=1S/C19H25N3O3/c1-19(2,3)18-21-17(22-25-18)15-9-16(14(10-20-15)12-6-7-12)24-11-13-5-4-8-23-13/h9-10,12-13H,4-8,11H2,1-3H3
InChIKey=XETZVHSZEJBYHI-UHFFFAOYSA-N

> <PUBCHEM_SUBSTANCE_SYNONYM>
SCHEMBL16115516

> <PUBCHEM_XREF_EXT_ID>
SCHEMBL16115516

> <PUBCHEM_EXT_DATASOURCE_URL>
https://www.surechembl.org/

> <PUBCHEM_EXT_SUBSTANCE_URL>
https://www.surechembl.org/chemical/SCHEMBL16115516

> <PUBCHEM_CID_ASSOCIATIONS>
86275980  1

> <PUBCHEM_COORDINATE_TYPE>
1
3

$$$$
