310947006
  -OEChem-07211613022D

 35 38  0     1  0  0  0  0  0999 V2000
   -2.4209    0.8250    0.0000 F   0  0  0  0  0  0  0  0  0  0  0  0
    1.9764    2.0625    0.0000 F   0  0  0  0  0  0  0  0  0  0  0  0
    1.1514    2.8875    0.0000 F   0  0  0  0  0  0  0  0  0  0  0  0
    0.3264    2.0625    0.0000 F   0  0  0  0  0  0  0  0  0  0  0  0
   -3.8499    0.0000    0.0000 O   0  0  0  0  0  0  0  0  0  0  0  0
    1.8659    0.8250    0.0000 O   0  0  0  0  0  0  0  0  0  0  0  0
   -2.4209   -2.4750    0.0000 O   0  0  0  0  0  0  0  0  0  0  0  0
    0.4369    0.0000    0.0000 N   0  0  0  0  0  0  0  0  0  0  0  0
    1.8659    0.0000    0.0000 N   0  0  0  0  0  0  0  0  0  0  0  0
   -0.9920    0.0000    0.0000 N   0  0  0  0  0  0  0  0  0  0  0  0
    1.8659   -1.6500    0.0000 N   0  0  0  0  0  0  0  0  0  0  0  0
    4.0794    1.0799    0.0000 N   0  0  0  0  0  0  0  0  0  0  0  0
    4.5644    0.4125    0.0000 N   0  0  0  0  0  0  0  0  0  0  0  0
    1.1514   -0.4125    0.0000 C   0  0  0  0  0  0  0  0  0  0  0  0
   -0.2775   -0.4125    0.0000 C   0  0  0  0  0  0  0  0  0  0  0  0
    1.1514   -1.2375    0.0000 C   0  0  0  0  0  0  0  0  0  0  0  0
    2.5803   -0.4125    0.0000 C   0  0  0  0  0  0  0  0  0  0  0  0
    0.4369    0.8250    0.0000 C   0  0  0  0  0  0  0  0  0  0  0  0
   -1.7065   -0.4125    0.0000 C   0  0  0  0  0  0  0  0  0  0  0  0
   -0.2775   -1.2375    0.0000 C   0  0  0  0  0  0  0  0  0  0  0  0
    0.4369   -1.6500    0.0000 C   0  0  0  0  0  0  0  0  0  0  0  0
    3.2948    0.0000    0.0000 C   0  0  0  0  0  0  0  0  0  0  0  0
    2.5803   -1.2375    0.0000 C   0  0  0  0  0  0  0  0  0  0  0  0
   -2.4209    0.0000    0.0000 C   0  0  0  0  0  0  0  0  0  0  0  0
    1.1514    1.2375    0.0000 C   0  0  3  0  0  0  0  0  0  0  0  0
   -3.1354   -0.4125    0.0000 C   0  0  0  0  0  0  0  0  0  0  0  0
   -1.7065   -1.2375    0.0000 C   0  0  0  0  0  0  0  0  0  0  0  0
    1.1514    2.0625    0.0000 C   0  0  0  0  0  0  0  0  0  0  0  0
   -2.4209   -1.6500    0.0000 C   0  0  0  0  0  0  0  0  0  0  0  0
    3.2948    0.8250    0.0000 C   0  0  0  0  0  0  0  0  0  0  0  0
   -3.1354   -1.2375    0.0000 C   0  0  0  0  0  0  0  0  0  0  0  0
    4.0794   -0.2549    0.0000 C   0  0  0  0  0  0  0  0  0  0  0  0
    4.4919    1.7944    0.0000 C   0  0  0  0  0  0  0  0  0  0  0  0
   -4.5644   -0.4125    0.0000 C   0  0  0  0  0  0  0  0  0  0  0  0
   -3.1354   -2.8875    0.0000 C   0  0  0  0  0  0  0  0  0  0  0  0
  1 24  1  0  0  0  0
  2 28  1  0  0  0  0
  3 28  1  0  0  0  0
  4 28  1  0  0  0  0
  5 26  1  0  0  0  0
  5 34  1  0  0  0  0
  6 25  1  0  0  0  0
  7 29  1  0  0  0  0
  7 35  1  0  0  0  0
  8 14  1  0  0  0  0
  8 15  1  0  0  0  0
  8 18  1  0  0  0  0
  9 14  1  0  0  0  0
  9 17  2  0  0  0  0
 10 15  2  0  0  0  0
 10 19  1  0  0  0  0
 11 16  1  0  0  0  0
 11 23  2  0  0  0  0
 12 13  1  0  0  0  0
 12 30  1  0  0  0  0
 12 33  1  0  0  0  0
 13 32  2  0  0  0  0
 14 16  2  0  0  0  0
 15 20  1  0  0  0  0
 16 21  1  0  0  0  0
 17 22  1  0  0  0  0
 17 23  1  0  0  0  0
 18 25  1  0  0  0  0
 19 24  2  0  0  0  0
 19 27  1  0  0  0  0
 20 21  2  0  0  0  0
 22 30  2  0  0  0  0
 22 32  1  0  0  0  0
 24 26  1  0  0  0  0
 25 28  1  0  0  0  0
 26 31  2  0  0  0  0
 27 29  2  0  0  0  0
 29 31  1  0  0  0  0
M  END
> <PUBCHEM_COMPOUND_ID_TYPE>
0

> <PUBCHEM_TOTAL_CHARGE>
0

> <PUBCHEM_SUBSTANCE_ID>
310947006

> <PUBCHEM_SUBSTANCE_VERSION>
1

> <PUBCHEM_EXT_DATASOURCE_NAME>
4488

> <PUBCHEM_EXT_DATASOURCE_REGID>
SCHEMBL16125158

> <PUBCHEM_SUBSTANCE_COMMENT>
InChI=1S/C22H20F4N6O3/c1-31-10-12(8-28-31)16-9-27-14-4-5-19(32(21(14)30-16)11-18(33)22(24,25)26)29-15-6-13(34-2)7-17(35-3)20(15)23/h4-10,18,33H,11H2,1-3H3/b29-19+
InChIKey=XXPCXIPABKCVAH-VUTHCHCSSA-N

> <PUBCHEM_SUBSTANCE_SYNONYM>
SCHEMBL16125158

> <PUBCHEM_XREF_EXT_ID>
SCHEMBL16125158

> <PUBCHEM_EXT_DATASOURCE_URL>
https://www.surechembl.org/

> <PUBCHEM_EXT_SUBSTANCE_URL>
https://www.surechembl.org/chemical/SCHEMBL16125158

> <PUBCHEM_CID_ASSOCIATIONS>
117612860  1

> <PUBCHEM_COORDINATE_TYPE>
1
3

> <PUBCHEM_BONDANNOTATIONS>
25  6  3

$$$$
