310935575
  -OEChem-07211613022D

 24 26  0     1  0  0  0  0  0999 V2000
    6.3082   -0.6533    0.0000 F   0  0  0  0  0  0  0  0  0  0  0  0
    0.0000   -4.5058    0.0000 F   0  0  0  0  0  0  0  0  0  0  0  0
    5.1367   -1.4869    0.0000 O   0  0  0  0  0  0  0  0  0  0  0  0
    5.1367   -2.9063    0.0000 O   0  0  0  0  0  0  0  0  0  0  0  0
    2.0727   -3.8750    0.0000 N   0  0  0  0  0  0  0  0  0  0  0  0
    3.8975   -2.1854    0.0000 C   0  0  3  0  0  0  0  0  0  0  0  0
    4.2805   -1.4644    0.0000 C   0  0  0  0  0  0  0  0  0  0  0  0
    3.4244   -2.8612    0.0000 C   0  0  0  0  0  0  0  0  0  0  0  0
    2.6584   -2.6134    0.0000 C   0  0  0  0  0  0  0  0  0  0  0  0
    4.7311   -2.1854    0.0000 C   0  0  0  0  0  0  0  0  0  0  0  0
    3.4244   -1.5320    0.0000 C   0  0  0  0  0  0  0  0  0  0  0  0
    5.2718   -1.5771    0.0000 C   0  0  0  0  0  0  0  0  0  0  0  0
    2.6584   -1.8023    0.0000 C   0  0  0  0  0  0  0  0  0  0  0  0
    1.9826   -3.0865    0.0000 C   0  0  0  0  0  0  0  0  0  0  0  0
    3.8300   -0.7660    0.0000 C   0  0  0  0  0  0  0  0  0  0  0  0
    5.4746   -0.6984    0.0000 C   0  0  0  0  0  0  0  0  0  0  0  0
    4.2130   -0.0450    0.0000 C   0  0  0  0  0  0  0  0  0  0  0  0
    5.0466    0.0000    0.0000 C   0  0  0  0  0  0  0  0  0  0  0  0
    1.2391   -2.7260    0.0000 C   0  0  0  0  0  0  0  0  0  0  0  0
    5.5422   -2.0952    0.0000 C   0  0  0  0  0  0  0  0  0  0  0  0
    1.4193   -4.3932    0.0000 C   0  0  0  0  0  0  0  0  0  0  0  0
    0.5858   -3.2442    0.0000 C   0  0  0  0  0  0  0  0  0  0  0  0
    0.6759   -4.0327    0.0000 C   0  0  0  0  0  0  0  0  0  0  0  0
    5.9477   -1.4869    0.0000 C   0  0  0  0  0  0  0  0  0  0  0  0
  1 16  1  0  0  0  0
  2 23  1  0  0  0  0
  3 10  1  0  0  0  0
  3 24  1  0  0  0  0
  4 10  2  0  0  0  0
  5 14  1  0  0  0  0
  5 21  2  0  0  0  0
  6  7  1  0  0  0  0
  6  8  1  0  0  0  0
  6 10  1  0  0  0  0
  6 11  1  0  0  0  0
  7 12  1  0  0  0  0
  7 15  2  0  0  0  0
  8  9  2  0  0  0  0
  9 13  1  0  0  0  0
  9 14  1  0  0  0  0
 11 13  1  0  0  0  0
 12 16  2  0  0  0  0
 12 20  1  0  0  0  0
 14 19  2  0  0  0  0
 15 17  1  0  0  0  0
 16 18  1  0  0  0  0
 17 18  2  0  0  0  0
 19 22  1  0  0  0  0
 21 23  1  0  0  0  0
 22 23  2  0  0  0  0
M  END
> <PUBCHEM_COMPOUND_ID_TYPE>
0

> <PUBCHEM_TOTAL_CHARGE>
0

> <PUBCHEM_SUBSTANCE_ID>
310935575

> <PUBCHEM_SUBSTANCE_VERSION>
1

> <PUBCHEM_EXT_DATASOURCE_NAME>
4488

> <PUBCHEM_EXT_DATASOURCE_REGID>
SCHEMBL16113147

> <PUBCHEM_SUBSTANCE_COMMENT>
InChI=1S/C19H17F2NO2/c1-12-15(4-3-5-16(12)21)19(18(23)24-2)9-8-13(10-19)17-7-6-14(20)11-22-17/h3-7,10-11H,8-9H2,1-2H3
InChIKey=VGLZUQCNDPCOAR-UHFFFAOYSA-N

> <PUBCHEM_SUBSTANCE_SYNONYM>
SCHEMBL16113147

> <PUBCHEM_XREF_EXT_ID>
SCHEMBL16113147

> <PUBCHEM_EXT_DATASOURCE_URL>
https://www.surechembl.org/

> <PUBCHEM_EXT_SUBSTANCE_URL>
https://www.surechembl.org/chemical/SCHEMBL16113147

> <PUBCHEM_CID_ASSOCIATIONS>
117603598  1

> <PUBCHEM_COORDINATE_TYPE>
1
3

$$$$
