310947721
  -OEChem-07211613022D

 33 35  0     1  0  0  0  0  0999 V2000
   -0.1082   -2.9115    0.0000 O   0  0  0  0  0  0  0  0  0  0  0  0
   -2.2676    1.2253    0.0000 O   0  0  0  0  0  0  0  0  0  0  0  0
    3.9031    2.3281    0.0000 O   0  0  0  0  0  0  0  0  0  0  0  0
    2.5228    1.9583    0.0000 O   0  0  0  0  0  0  0  0  0  0  0  0
   -0.4781   -1.5312    0.0000 N   0  0  0  0  0  0  0  0  0  0  0  0
    0.2756   -1.1957    0.0000 N   0  0  0  0  0  0  0  0  0  0  0  0
    1.5696   -0.0053    0.0000 N   0  0  3  0  0  0  0  0  0  0  0  0
    3.5332    0.9479    0.0000 N   0  0  0  0  0  0  0  0  0  0  0  0
   -1.0301   -0.9181    0.0000 C   0  0  0  0  0  0  0  0  0  0  0  0
   -0.6176   -0.2037    0.0000 C   0  0  0  0  0  0  0  0  0  0  0  0
    0.1894   -0.3752    0.0000 C   0  0  0  0  0  0  0  0  0  0  0  0
   -0.6916   -2.3281    0.0000 C   0  0  3  0  0  0  0  0  0  0  0  0
   -1.0301    0.5108    0.0000 C   0  0  0  0  0  0  0  0  0  0  0  0
   -1.8551   -0.9181    0.0000 C   0  0  0  0  0  0  0  0  0  0  0  0
   -1.8551    0.5108    0.0000 C   0  0  0  0  0  0  0  0  0  0  0  0
    0.7727    0.2082    0.0000 C   0  0  0  0  0  0  0  0  0  0  0  0
   -2.2676   -0.2037    0.0000 C   0  0  0  0  0  0  0  0  0  0  0  0
   -1.4885   -2.5416    0.0000 C   0  0  0  0  0  0  0  0  0  0  0  0
   -0.3218   -3.7084    0.0000 C   0  0  0  0  0  0  0  0  0  0  0  0
   -1.7020   -3.3385    0.0000 C   0  0  0  0  0  0  0  0  0  0  0  0
    2.1530    0.5780    0.0000 C   0  0  0  0  0  0  0  0  0  0  0  0
   -1.1187   -3.9219    0.0000 C   0  0  0  0  0  0  0  0  0  0  0  0
   -3.0926    1.2253    0.0000 C   0  0  0  0  0  0  0  0  0  0  0  0
    1.7831   -0.8022    0.0000 C   0  0  0  0  0  0  0  0  0  0  0  0
    2.9499    0.3645    0.0000 C   0  0  0  0  0  0  0  0  0  0  0  0
    3.3197    1.7447    0.0000 C   0  0  0  0  0  0  0  0  0  0  0  0
    3.6895    3.1250    0.0000 C   0  0  0  0  0  0  0  0  0  0  0  0
   -3.5051    1.9398    0.0000 C   0  0  0  0  0  0  0  0  0  0  0  0
    4.3301    0.7343    0.0000 C   0  0  0  0  0  0  0  0  0  0  0  0
    3.4760    3.9219    0.0000 C   0  0  0  0  0  0  0  0  0  0  0  0
    2.8926    3.3385    0.0000 C   0  0  0  0  0  0  0  0  0  0  0  0
    4.2729    3.7084    0.0000 C   0  0  0  0  0  0  0  0  0  0  0  0
   -4.3301    1.9398    0.0000 C   0  0  0  0  0  0  0  0  0  0  0  0
  1 12  1  0  0  0  0
  1 19  1  0  0  0  0
  2 15  1  0  0  0  0
  2 23  1  0  0  0  0
  3 26  1  0  0  0  0
  3 27  1  0  0  0  0
  4 26  2  0  0  0  0
  5  6  1  0  0  0  0
  5  9  1  0  0  0  0
  5 12  1  0  0  0  0
  6 11  2  0  0  0  0
  7 16  1  0  0  0  0
  7 21  1  0  0  0  0
  7 24  1  0  0  0  0
  8 25  1  0  0  0  0
  8 26  1  0  0  0  0
  8 29  1  0  0  0  0
  9 10  1  0  0  0  0
  9 14  2  0  0  0  0
 10 11  1  0  0  0  0
 10 13  2  0  0  0  0
 11 16  1  0  0  0  0
 12 18  1  0  0  0  0
 13 15  1  0  0  0  0
 14 17  1  0  0  0  0
 15 17  2  0  0  0  0
 18 20  1  0  0  0  0
 19 22  1  0  0  0  0
 20 22  1  0  0  0  0
 21 25  1  0  0  0  0
 23 28  1  0  0  0  0
 27 30  1  0  0  0  0
 27 31  1  0  0  0  0
 27 32  1  0  0  0  0
 28 33  1  0  0  0  0
M  END
> <PUBCHEM_COMPOUND_ID_TYPE>
0

> <PUBCHEM_TOTAL_CHARGE>
0

> <PUBCHEM_SUBSTANCE_ID>
310947721

> <PUBCHEM_SUBSTANCE_VERSION>
1

> <PUBCHEM_EXT_DATASOURCE_NAME>
4488

> <PUBCHEM_EXT_DATASOURCE_REGID>
SCHEMBL16125892

> <PUBCHEM_SUBSTANCE_COMMENT>
InChI=1S/C25H40N4O4/c1-7-15-31-19-11-12-22-20(17-19)21(26-29(22)23-10-8-9-16-32-23)18-27(5)13-14-28(6)24(30)33-25(2,3)4/h11-12,17,23H,7-10,13-16,18H2,1-6H3
InChIKey=RYDORTFNALDNHE-UHFFFAOYSA-N

> <PUBCHEM_SUBSTANCE_SYNONYM>
SCHEMBL16125892

> <PUBCHEM_XREF_EXT_ID>
SCHEMBL16125892

> <PUBCHEM_EXT_DATASOURCE_URL>
https://www.surechembl.org/

> <PUBCHEM_EXT_SUBSTANCE_URL>
https://www.surechembl.org/chemical/SCHEMBL16125892

> <PUBCHEM_CID_ASSOCIATIONS>
117613427  1

> <PUBCHEM_COORDINATE_TYPE>
1
3

$$$$
