310943588
  -OEChem-07211613022D

 38 41  0     1  0  0  0  0  0999 V2000
    4.6506    2.2808    0.0000 F   0  0  0  0  0  0  0  0  0  0  0  0
    5.3623    1.8603    0.0000 F   0  0  0  0  0  0  0  0  0  0  0  0
    5.3623    1.0353    0.0000 F   0  0  0  0  0  0  0  0  0  0  0  0
    1.7874    2.2808    0.0000 O   0  0  0  0  0  0  0  0  0  0  0  0
   -5.3623    2.2808    0.0000 O   0  0  0  0  0  0  0  0  0  0  0  0
   -1.0757   -1.0191    0.0000 O   0  0  0  0  0  0  0  0  0  0  0  0
   -1.0757   -2.6690    0.0000 O   0  0  0  0  0  0  0  0  0  0  0  0
   -3.2109    0.2103    0.0000 N   0  0  0  0  0  0  0  0  0  0  0  0
   -3.9227    1.4558    0.0000 N   0  0  0  0  0  0  0  0  0  0  0  0
    1.0757    1.0353    0.0000 N   0  0  0  0  0  0  0  0  0  0  0  0
   -2.4991   -1.0191    0.0000 N   0  0  0  0  0  0  0  0  0  0  0  0
   -1.7713    1.0353    0.0000 C   0  0  0  0  0  0  0  0  0  0  0  0
   -1.0595    1.4558    0.0000 C   0  0  0  0  0  0  0  0  0  0  0  0
   -3.2109    1.0514    0.0000 C   0  0  0  0  0  0  0  0  0  0  0  0
   -2.5154    1.4397    0.0000 C   0  0  0  0  0  0  0  0  0  0  0  0
   -2.4991   -0.1941    0.0000 C   0  0  0  0  0  0  0  0  0  0  0  0
   -1.0595    2.2808    0.0000 C   0  0  0  0  0  0  0  0  0  0  0  0
   -1.8036    0.1941    0.0000 C   0  0  0  0  0  0  0  0  0  0  0  0
   -0.3478    1.0514    0.0000 C   0  0  0  0  0  0  0  0  0  0  0  0
    0.3639    1.4558    0.0000 C   0  0  0  0  0  0  0  0  0  0  0  0
    2.4991    1.0353    0.0000 C   0  0  0  0  0  0  0  0  0  0  0  0
    1.7713    1.4397    0.0000 C   0  0  0  0  0  0  0  0  0  0  0  0
   -0.3639    2.6690    0.0000 C   0  0  0  0  0  0  0  0  0  0  0  0
    3.9388    1.0353    0.0000 C   0  0  0  0  0  0  0  0  0  0  0  0
    0.3478    2.2647    0.0000 C   0  0  0  0  0  0  0  0  0  0  0  0
    4.6667    1.4558    0.0000 C   0  0  0  0  0  0  0  0  0  0  0  0
    3.2109    1.4397    0.0000 C   0  0  0  0  0  0  0  0  0  0  0  0
   -3.9388    2.2808    0.0000 C   0  0  0  0  0  0  0  0  0  0  0  0
   -4.6344    1.0353    0.0000 C   0  0  0  0  0  0  0  0  0  0  0  0
    2.4991    0.2103    0.0000 C   0  0  0  0  0  0  0  0  0  0  0  0
    3.9227    0.2103    0.0000 C   0  0  0  0  0  0  0  0  0  0  0  0
   -1.8036   -1.4397    0.0000 C   0  0  0  0  0  0  0  0  0  0  0  0
   -1.8036    2.6852    0.0000 C   0  0  0  0  0  0  0  0  0  0  0  0
    3.2271   -0.1941    0.0000 C   0  0  0  0  0  0  0  0  0  0  0  0
   -4.6667    2.6852    0.0000 C   0  0  0  0  0  0  0  0  0  0  0  0
   -5.3623    1.4558    0.0000 C   0  0  0  0  0  0  0  0  0  0  0  0
   -1.8036   -2.2647    0.0000 C   0  0  3  0  0  0  0  0  0  0  0  0
   -2.4991   -2.6852    0.0000 C   0  0  0  0  0  0  0  0  0  0  0  0
  1 26  1  0  0  0  0
  2 26  1  0  0  0  0
  3 26  1  0  0  0  0
  4 22  2  0  0  0  0
  5 35  1  0  0  0  0
  5 36  1  0  0  0  0
  6 32  2  0  0  0  0
  7 37  1  0  0  0  0
  8 14  1  0  0  0  0
  8 16  2  0  0  0  0
  9 14  1  0  0  0  0
  9 28  1  0  0  0  0
  9 29  1  0  0  0  0
 10 20  1  0  0  0  0
 10 22  1  0  0  0  0
 11 16  1  0  0  0  0
 11 32  1  0  0  0  0
 12 13  1  0  0  0  0
 12 15  1  0  0  0  0
 12 18  2  0  0  0  0
 13 17  1  0  0  0  0
 13 19  2  0  0  0  0
 14 15  2  0  0  0  0
 16 18  1  0  0  0  0
 17 23  2  0  0  0  0
 17 33  1  0  0  0  0
 19 20  1  0  0  0  0
 20 25  2  0  0  0  0
 21 22  1  0  0  0  0
 21 27  1  0  0  0  0
 21 30  2  0  0  0  0
 23 25  1  0  0  0  0
 24 26  1  0  0  0  0
 24 27  2  0  0  0  0
 24 31  1  0  0  0  0
 28 35  1  0  0  0  0
 29 36  1  0  0  0  0
 30 34  1  0  0  0  0
 31 34  2  0  0  0  0
 32 37  1  0  0  0  0
 37 38  1  0  0  0  0
M  END
> <PUBCHEM_COMPOUND_ID_TYPE>
0

> <PUBCHEM_TOTAL_CHARGE>
0

> <PUBCHEM_SUBSTANCE_ID>
310943588

> <PUBCHEM_SUBSTANCE_VERSION>
1

> <PUBCHEM_EXT_DATASOURCE_NAME>
4488

> <PUBCHEM_EXT_DATASOURCE_REGID>
SCHEMBL16121655

> <PUBCHEM_SUBSTANCE_COMMENT>
InChI=1S/C27H27F3N4O4/c1-16-6-7-21(31-26(37)18-4-3-5-20(12-18)27(28,29)30)15-22(16)19-13-23(33-25(36)17(2)35)32-24(14-19)34-8-10-38-11-9-34/h3-7,12-15,17,35H,8-11H2,1-2H3,(H,31,37)(H,32,33,36)
InChIKey=XVOJUYXRFDBUCC-UHFFFAOYSA-N

> <PUBCHEM_SUBSTANCE_SYNONYM>
SCHEMBL16121655

> <PUBCHEM_XREF_EXT_ID>
SCHEMBL16121655

> <PUBCHEM_EXT_DATASOURCE_URL>
https://www.surechembl.org/

> <PUBCHEM_EXT_SUBSTANCE_URL>
https://www.surechembl.org/chemical/SCHEMBL16121655

> <PUBCHEM_CID_ASSOCIATIONS>
117609989  1

> <PUBCHEM_COORDINATE_TYPE>
1
3

$$$$
