310939814
  -OEChem-07211613022D

 28 30  0     1  0  0  0  0  0999 V2000
   -1.1822    5.2127    0.0000 Cl  0  0  0  0  0  0  0  0  0  0  0  0
   -2.6112    4.3877    0.0000 Cl  0  0  0  0  0  0  0  0  0  0  0  0
   -1.1822    1.9127    0.0000 O   0  0  0  0  0  0  0  0  0  0  0  0
    1.6756    1.9127    0.0000 O   0  0  0  0  0  0  0  0  0  0  0  0
    2.6112   -3.7838    0.0000 O   0  0  0  0  0  0  0  0  0  0  0  0
    0.9612   -0.9748    0.0000 N   0  0  0  0  0  0  0  0  0  0  0  0
    1.3737   -3.0693    0.0000 N   0  0  0  0  0  0  0  0  0  0  0  0
    0.9612    0.6752    0.0000 N   0  0  0  0  0  0  0  0  0  0  0  0
    0.2467    2.7377    0.0000 N   0  0  0  0  0  0  0  0  0  0  0  0
    0.9612   -1.7998    0.0000 C   0  0  3  0  0  0  0  0  0  0  0  0
    1.6286   -2.2847    0.0000 C   0  0  0  0  0  0  0  0  0  0  0  0
   -0.4678    3.1502    0.0000 C   0  0  0  0  0  0  0  0  0  0  0  0
    0.2937   -2.2847    0.0000 C   0  0  0  0  0  0  0  0  0  0  0  0
   -1.1822    2.7377    0.0000 C   0  0  0  0  0  0  0  0  0  0  0  0
    0.2467   -0.5623    0.0000 C   0  0  0  0  0  0  0  0  0  0  0  0
    1.6756   -0.5623    0.0000 C   0  0  0  0  0  0  0  0  0  0  0  0
    0.9612    1.5002    0.0000 C   0  0  0  0  0  0  0  0  0  0  0  0
    0.5487   -3.0693    0.0000 C   0  0  0  0  0  0  0  0  0  0  0  0
   -1.1822    4.3877    0.0000 C   0  0  0  0  0  0  0  0  0  0  0  0
    0.2467    0.2627    0.0000 C   0  0  0  0  0  0  0  0  0  0  0  0
    1.6756    0.2627    0.0000 C   0  0  0  0  0  0  0  0  0  0  0  0
   -1.8967    3.9752    0.0000 C   0  0  0  0  0  0  0  0  0  0  0  0
   -0.4678    3.9752    0.0000 C   0  0  0  0  0  0  0  0  0  0  0  0
    1.7862   -3.7838    0.0000 C   0  0  0  0  0  0  0  0  0  0  0  0
   -1.8967    3.1502    0.0000 C   0  0  0  0  0  0  0  0  0  0  0  0
    0.2467    1.9127    0.0000 C   0  0  0  0  0  0  0  0  0  0  0  0
    1.3737   -4.4983    0.0000 C   0  0  0  0  0  0  0  0  0  0  0  0
    1.7862   -5.2127    0.0000 C   0  0  0  0  0  0  0  0  0  0  0  0
  1 19  1  0  0  0  0
  2 22  1  0  0  0  0
  3 14  1  0  0  0  0
  4 17  2  0  0  0  0
  5 24  2  0  0  0  0
  6 10  1  0  0  0  0
  6 15  1  0  0  0  0
  6 16  1  0  0  0  0
  7 11  1  0  0  0  0
  7 18  1  0  0  0  0
  7 24  1  0  0  0  0
  8 17  1  0  0  0  0
  8 20  1  0  0  0  0
  8 21  1  0  0  0  0
  9 12  1  0  0  0  0
  9 26  1  0  0  0  0
 10 11  1  0  0  0  0
 10 13  1  0  0  0  0
 12 14  2  0  0  0  0
 12 23  1  0  0  0  0
 13 18  1  0  0  0  0
 14 25  1  0  0  0  0
 15 20  1  0  0  0  0
 16 21  1  0  0  0  0
 17 26  1  0  0  0  0
 19 22  1  0  0  0  0
 19 23  2  0  0  0  0
 22 25  2  0  0  0  0
 24 27  1  0  0  0  0
 27 28  2  0  0  0  0
M  END
> <PUBCHEM_COMPOUND_ID_TYPE>
0

> <PUBCHEM_TOTAL_CHARGE>
0

> <PUBCHEM_SUBSTANCE_ID>
310939814

> <PUBCHEM_SUBSTANCE_VERSION>
1

> <PUBCHEM_EXT_DATASOURCE_NAME>
4488

> <PUBCHEM_EXT_DATASOURCE_REGID>
SCHEMBL16117744

> <PUBCHEM_SUBSTANCE_COMMENT>
InChI=1S/C19H24Cl2N4O3/c1-2-18(27)25-4-3-13(12-25)23-5-7-24(8-6-23)19(28)11-22-16-9-14(20)15(21)10-17(16)26/h2,9-10,13,22,26H,1,3-8,11-12H2
InChIKey=OALXBYNPDBOOSG-UHFFFAOYSA-N

> <PUBCHEM_SUBSTANCE_SYNONYM>
SCHEMBL16117744

> <PUBCHEM_XREF_EXT_ID>
SCHEMBL16117744

> <PUBCHEM_EXT_DATASOURCE_URL>
https://www.surechembl.org/

> <PUBCHEM_EXT_SUBSTANCE_URL>
https://www.surechembl.org/chemical/SCHEMBL16117744

> <PUBCHEM_CID_ASSOCIATIONS>
86279626  1

> <PUBCHEM_COORDINATE_TYPE>
1
3

$$$$
