310940355
  -OEChem-07211613022D

 16 16  0     1  0  0  0  0  0999 V2000
    0.9865    0.0736    0.0000 Cl  0  0  0  0  0  0  0  0  0  0  0  0
   -1.6343   -1.4282    0.0000 Cl  0  0  0  0  0  0  0  0  0  0  0  0
    1.8404   -1.3987    0.0000 F   0  0  0  0  0  0  0  0  0  0  0  0
   -0.2797    0.8098    0.0000 O   0  0  0  0  0  0  0  0  0  0  0  0
   -0.2503   -0.6920    0.0000 C   0  0  0  0  0  0  0  0  0  0  0  0
    0.5742   -0.7215    0.0000 C   0  0  0  0  0  0  0  0  0  0  0  0
   -0.6626   -1.4282    0.0000 C   0  0  0  0  0  0  0  0  0  0  0  0
   -0.6626    0.0442    0.0000 C   0  0  3  0  0  0  0  0  0  0  0  0
    0.9865   -1.4282    0.0000 C   0  0  0  0  0  0  0  0  0  0  0  0
   -0.2209   -2.1644    0.0000 C   0  0  0  0  0  0  0  0  0  0  0  0
    0.5742   -2.1644    0.0000 C   0  0  0  0  0  0  0  0  0  0  0  0
   -0.6920    1.5165    0.0000 C   0  0  0  0  0  0  0  0  0  0  0  0
   -1.4871    0.0147    0.0000 C   0  0  0  0  0  0  0  0  0  0  0  0
   -1.5165    1.5460    0.0000 C   0  0  0  0  0  0  0  0  0  0  0  0
   -0.4270    2.1644    0.0000 C   0  0  0  0  0  0  0  0  0  0  0  0
   -1.8404    2.1644    0.0000 C   0  0  0  0  0  0  0  0  0  0  0  0
  1  6  1  0  0  0  0
  2  7  1  0  0  0  0
  3  9  1  0  0  0  0
  4  8  1  0  0  0  0
  4 12  1  0  0  0  0
  5  6  2  0  0  0  0
  5  7  1  0  0  0  0
  5  8  1  0  0  0  0
  6  9  1  0  0  0  0
  7 10  2  0  0  0  0
  8 13  1  0  0  0  0
  9 11  2  0  0  0  0
 10 11  1  0  0  0  0
 12 14  1  0  0  0  0
 12 15  2  0  0  0  0
 14 16  2  0  0  0  0
M  END
> <PUBCHEM_COMPOUND_ID_TYPE>
0

> <PUBCHEM_TOTAL_CHARGE>
0

> <PUBCHEM_SUBSTANCE_ID>
310940355

> <PUBCHEM_SUBSTANCE_VERSION>
1

> <PUBCHEM_EXT_DATASOURCE_NAME>
4488

> <PUBCHEM_EXT_DATASOURCE_REGID>
SCHEMBL16118299

> <PUBCHEM_SUBSTANCE_COMMENT>
InChI=1S/C12H11Cl2FO/c1-4-7(2)16-8(3)11-9(13)5-6-10(15)12(11)14/h4-6,8H,1-2H2,3H3
InChIKey=GVBVVSJYCCNCIU-UHFFFAOYSA-N

> <PUBCHEM_SUBSTANCE_SYNONYM>
SCHEMBL16118299

> <PUBCHEM_XREF_EXT_ID>
SCHEMBL16118299

> <PUBCHEM_EXT_DATASOURCE_URL>
https://www.surechembl.org/

> <PUBCHEM_EXT_SUBSTANCE_URL>
https://www.surechembl.org/chemical/SCHEMBL16118299

> <PUBCHEM_CID_ASSOCIATIONS>
117607398  1

> <PUBCHEM_COORDINATE_TYPE>
1
3

$$$$
