310928781
  -OEChem-07211613022D

 12 13  0     1  0  0  0  0  0999 V2000
   -2.1987   -1.2375    0.0000 Br  0  0  0  0  0  0  0  0  0  0  0  0
    0.6592    1.2375    0.0000 N   0  0  0  0  0  0  0  0  0  0  0  0
    0.6592    0.4125    0.0000 C   0  0  3  0  0  0  0  0  0  0  0  0
   -0.0553   -0.0000    0.0000 C   0  0  0  0  0  0  0  0  0  0  0  0
    1.3737   -0.0000    0.0000 C   0  0  0  0  0  0  0  0  0  0  0  0
    2.1987   -0.0000    0.0000 C   0  0  0  0  0  0  0  0  0  0  0  0
    1.7862   -0.7145    0.0000 C   0  0  0  0  0  0  0  0  0  0  0  0
   -0.0553   -0.8250    0.0000 C   0  0  0  0  0  0  0  0  0  0  0  0
   -0.7697    0.4125    0.0000 C   0  0  0  0  0  0  0  0  0  0  0  0
   -1.4842   -0.8250    0.0000 C   0  0  0  0  0  0  0  0  0  0  0  0
   -0.7697   -1.2375    0.0000 C   0  0  0  0  0  0  0  0  0  0  0  0
   -1.4842   -0.0000    0.0000 C   0  0  0  0  0  0  0  0  0  0  0  0
  1 10  1  0  0  0  0
  2  3  1  0  0  0  0
  3  4  1  0  0  0  0
  3  5  1  0  0  0  0
  4  8  2  0  0  0  0
  4  9  1  0  0  0  0
  5  6  1  0  0  0  0
  5  7  1  0  0  0  0
  6  7  1  0  0  0  0
  8 11  1  0  0  0  0
  9 12  2  0  0  0  0
 10 11  2  0  0  0  0
 10 12  1  0  0  0  0
M  END
> <PUBCHEM_COMPOUND_ID_TYPE>
0

> <PUBCHEM_TOTAL_CHARGE>
0

> <PUBCHEM_SUBSTANCE_ID>
310928781

> <PUBCHEM_SUBSTANCE_VERSION>
1

> <PUBCHEM_EXT_DATASOURCE_NAME>
11752

> <PUBCHEM_EXT_DATASOURCE_REGID>
BD245524

> <PUBCHEM_SUBSTANCE_SYNONYM>
(4-Bromophenyl)(cyclopropyl)methanamine
90868-92-1

> <PUBCHEM_GENERIC_REGISTRY_NAME>
90868-92-1

> <PUBCHEM_XREF_EXT_ID>
BD245524

> <PUBCHEM_EXT_DATASOURCE_URL>
http://www.bidepharmatech.com/en/index.html

> <PUBCHEM_EXT_SUBSTANCE_URL>
http://www.bidepharmatech.com/en/goodsview_goodscode_BD245524.html

> <PUBCHEM_CID_ASSOCIATIONS>
3948276  1

> <PUBCHEM_COORDINATE_TYPE>
1
3

$$$$
