310933959
  -OEChem-07211613022D

 40 45  0     1  0  0  0  0  0999 V2000
    6.0022    0.0000    0.0000 Cl  0  0  0  0  0  0  0  0  0  0  0  0
    0.0000   -7.4272    0.0000 F   0  0  0  0  0  0  0  0  0  0  0  0
    3.5840   -8.6363    0.0000 F   0  0  0  0  0  0  0  0  0  0  0  0
    3.4977   -5.7000    0.0000 O   0  0  0  0  0  0  0  0  0  0  0  0
    6.4340   -5.0090    0.0000 O   0  0  0  0  0  0  0  0  0  0  0  0
    5.2250   -4.3182    0.0000 N   0  0  0  0  0  0  0  0  0  0  0  0
    7.6863   -2.8500    0.0000 N   0  0  0  0  0  0  0  0  0  0  0  0
    3.4545   -4.3613    0.0000 N   0  0  0  0  0  0  0  0  0  0  0  0
    8.5068   -2.8932    0.0000 N   0  0  0  0  0  0  0  0  0  0  0  0
    8.6795   -3.7136    0.0000 N   0  0  0  0  0  0  0  0  0  0  0  0
    7.9886   -4.1455    0.0000 N   0  0  0  0  0  0  0  0  0  0  0  0
    4.7932   -5.0090    0.0000 C   0  0  3  0  0  0  0  0  0  0  0  0
    6.4340   -2.1590    0.0000 C   0  0  0  0  0  0  0  0  0  0  0  0
    6.0022   -2.8932    0.0000 C   0  0  0  0  0  0  0  0  0  0  0  0
    3.9727   -5.0522    0.0000 C   0  0  0  0  0  0  0  0  0  0  0  0
    7.2545   -2.1590    0.0000 C   0  0  0  0  0  0  0  0  0  0  0  0
    6.0022   -4.3182    0.0000 C   0  0  0  0  0  0  0  0  0  0  0  0
    6.4340   -3.5840    0.0000 C   0  0  0  0  0  0  0  0  0  0  0  0
    4.7500   -3.5840    0.0000 C   0  0  0  0  0  0  0  0  0  0  0  0
    5.2250   -2.8932    0.0000 C   0  0  0  0  0  0  0  0  0  0  0  0
    2.7205   -5.4409    0.0000 C   0  0  0  0  0  0  0  0  0  0  0  0
    6.0022   -1.4250    0.0000 C   0  0  0  0  0  0  0  0  0  0  0  0
    5.2250   -5.7432    0.0000 C   0  0  0  0  0  0  0  0  0  0  0  0
    7.6431   -1.4250    0.0000 C   0  0  0  0  0  0  0  0  0  0  0  0
    2.6773   -4.6205    0.0000 C   0  0  0  0  0  0  0  0  0  0  0  0
    2.0295   -5.9590    0.0000 C   0  0  0  0  0  0  0  0  0  0  0  0
    6.3909   -0.7341    0.0000 C   0  0  0  0  0  0  0  0  0  0  0  0
    4.8363   -6.4772    0.0000 C   0  0  0  0  0  0  0  0  0  0  0  0
    7.2113   -0.6909    0.0000 C   0  0  0  0  0  0  0  0  0  0  0  0
    7.3409   -3.5840    0.0000 C   0  0  0  0  0  0  0  0  0  0  0  0
    2.1159   -6.7795    0.0000 C   0  0  0  0  0  0  0  0  0  0  0  0
    1.2955   -5.6136    0.0000 C   0  0  0  0  0  0  0  0  0  0  0  0
    5.2250   -7.1681    0.0000 C   0  0  0  0  0  0  0  0  0  0  0  0
    3.9727   -6.4772    0.0000 C   0  0  0  0  0  0  0  0  0  0  0  0
    1.4682   -7.2545    0.0000 C   0  0  0  0  0  0  0  0  0  0  0  0
    0.6045   -6.0886    0.0000 C   0  0  0  0  0  0  0  0  0  0  0  0
    0.6909   -6.9090    0.0000 C   0  0  0  0  0  0  0  0  0  0  0  0
    4.8363   -7.9022    0.0000 C   0  0  0  0  0  0  0  0  0  0  0  0
    3.5840   -7.2113    0.0000 C   0  0  0  0  0  0  0  0  0  0  0  0
    4.0159   -7.9022    0.0000 C   0  0  0  0  0  0  0  0  0  0  0  0
  1 27  1  0  0  0  0
  2 37  1  0  0  0  0
  3 40  1  0  0  0  0
  4 15  1  0  0  0  0
  4 21  1  0  0  0  0
  5 17  2  0  0  0  0
  6 12  1  0  0  0  0
  6 17  1  0  0  0  0
  6 19  1  0  0  0  0
  7  9  1  0  0  0  0
  7 16  1  0  0  0  0
  7 30  1  0  0  0  0
  8 15  2  0  0  0  0
  8 25  1  0  0  0  0
  9 10  2  0  0  0  0
 10 11  1  0  0  0  0
 11 30  2  0  0  0  0
 12 15  1  0  0  0  0
 12 23  1  0  0  0  0
 13 14  1  0  0  0  0
 13 16  1  0  0  0  0
 13 22  2  0  0  0  0
 14 18  2  0  0  0  0
 14 20  1  0  0  0  0
 16 24  2  0  0  0  0
 17 18  1  0  0  0  0
 19 20  2  0  0  0  0
 21 25  2  0  0  0  0
 21 26  1  0  0  0  0
 22 27  1  0  0  0  0
 23 28  1  0  0  0  0
 24 29  1  0  0  0  0
 26 31  2  0  0  0  0
 26 32  1  0  0  0  0
 27 29  2  0  0  0  0
 28 33  2  0  0  0  0
 28 34  1  0  0  0  0
 31 35  1  0  0  0  0
 32 36  2  0  0  0  0
 33 38  1  0  0  0  0
 34 39  2  0  0  0  0
 35 37  2  0  0  0  0
 36 37  1  0  0  0  0
 38 40  2  0  0  0  0
 39 40  1  0  0  0  0
M  END
> <PUBCHEM_COMPOUND_ID_TYPE>
0

> <PUBCHEM_TOTAL_CHARGE>
0

> <PUBCHEM_SUBSTANCE_ID>
310933959

> <PUBCHEM_SUBSTANCE_VERSION>
1

> <PUBCHEM_EXT_DATASOURCE_NAME>
4488

> <PUBCHEM_EXT_DATASOURCE_REGID>
SCHEMBL16111398

> <PUBCHEM_SUBSTANCE_COMMENT>
InChI=1S/C29H19ClF2N6O2/c30-21-5-10-25(38-17-34-35-36-38)24(15-21)20-11-12-37(28(39)14-20)26(13-18-1-6-22(31)7-2-18)29-33-16-27(40-29)19-3-8-23(32)9-4-19/h1-12,14-17,26H,13H2
InChIKey=SWXHFEGPEWLBEI-UHFFFAOYSA-N

> <PUBCHEM_SUBSTANCE_SYNONYM>
SCHEMBL16111398

> <PUBCHEM_XREF_EXT_ID>
SCHEMBL16111398

> <PUBCHEM_EXT_DATASOURCE_URL>
https://www.surechembl.org/

> <PUBCHEM_EXT_SUBSTANCE_URL>
https://www.surechembl.org/chemical/SCHEMBL16111398

> <PUBCHEM_CID_ASSOCIATIONS>
86302175  1

> <PUBCHEM_COORDINATE_TYPE>
1
3

$$$$
