310940242
  -OEChem-07211613022D

 29 30  0     1  0  0  0  0  0999 V2000
   -5.1514    0.4459    0.0000 O   0  0  0  0  0  0  0  0  0  0  0  0
   -3.2397   -1.7612    0.0000 O   0  0  0  0  0  0  0  0  0  0  0  0
    0.3328    1.9515    0.0000 O   0  0  0  0  0  0  0  0  0  0  0  0
    3.1908    1.1265    0.0000 O   0  0  0  0  0  0  0  0  0  0  0  0
    5.3344   -0.1110    0.0000 O   0  0  0  0  0  0  0  0  0  0  0  0
   -3.9542   -0.5236    0.0000 N   0  0  0  0  0  0  0  0  0  0  0  0
    1.0473    0.7140    0.0000 N   0  0  0  0  0  0  0  0  0  0  0  0
   -4.7390   -0.2687    0.0000 C   0  0  0  0  0  0  0  0  0  0  0  0
   -5.2238   -0.9360    0.0000 C   0  0  3  0  0  0  0  0  0  0  0  0
   -3.9542   -1.3486    0.0000 C   0  0  0  0  0  0  0  0  0  0  0  0
   -3.2397   -0.1110    0.0000 C   0  0  0  0  0  0  0  0  0  0  0  0
   -4.7390   -1.6035    0.0000 C   0  0  0  0  0  0  0  0  0  0  0  0
   -6.0489   -0.9360    0.0000 C   0  0  0  0  0  0  0  0  0  0  0  0
   -3.2397    0.7140    0.0000 C   0  0  0  0  0  0  0  0  0  0  0  0
   -2.5252   -0.5236    0.0000 C   0  0  0  0  0  0  0  0  0  0  0  0
   -1.8107    0.7140    0.0000 C   0  0  0  0  0  0  0  0  0  0  0  0
   -2.5252    1.1265    0.0000 C   0  0  0  0  0  0  0  0  0  0  0  0
   -1.8107   -0.1110    0.0000 C   0  0  0  0  0  0  0  0  0  0  0  0
   -6.0489    0.0794    0.0000 C   0  0  0  0  0  0  0  0  0  0  0  0
   -6.0489   -1.9515    0.0000 C   0  0  0  0  0  0  0  0  0  0  0  0
   -1.0962    1.1265    0.0000 C   0  0  0  0  0  0  0  0  0  0  0  0
   -0.3817    0.7140    0.0000 C   0  0  0  0  0  0  0  0  0  0  0  0
    0.3328    1.1265    0.0000 C   0  0  0  0  0  0  0  0  0  0  0  0
    1.7618    1.1265    0.0000 C   0  0  0  0  0  0  0  0  0  0  0  0
    2.4763    0.7140    0.0000 C   0  0  0  0  0  0  0  0  0  0  0  0
    3.9053    0.7140    0.0000 C   0  0  0  0  0  0  0  0  0  0  0  0
    4.6198    1.1265    0.0000 C   0  0  0  0  0  0  0  0  0  0  0  0
    5.3344    0.7140    0.0000 C   0  0  0  0  0  0  0  0  0  0  0  0
    6.0489    1.1265    0.0000 C   0  0  0  0  0  0  0  0  0  0  0  0
  1  8  2  0  0  0  0
  2 10  2  0  0  0  0
  3 23  2  0  0  0  0
  4 25  1  0  0  0  0
  4 26  1  0  0  0  0
  5 28  2  0  0  0  0
  6  8  1  0  0  0  0
  6 10  1  0  0  0  0
  6 11  1  0  0  0  0
  7 23  1  0  0  0  0
  7 24  1  0  0  0  0
  8  9  1  0  0  0  0
  9 12  1  0  0  0  0
  9 13  1  0  0  0  0
 10 12  1  0  0  0  0
 11 14  2  0  0  0  0
 11 15  1  0  0  0  0
 13 19  1  0  0  0  0
 13 20  1  0  0  0  0
 14 17  1  0  0  0  0
 15 18  2  0  0  0  0
 16 17  2  0  0  0  0
 16 18  1  0  0  0  0
 16 21  1  0  0  0  0
 21 22  1  0  0  0  0
 22 23  1  0  0  0  0
 24 25  1  0  0  0  0
 26 27  1  0  0  0  0
 27 28  1  0  0  0  0
 28 29  1  0  0  0  0
M  END
> <PUBCHEM_COMPOUND_ID_TYPE>
0

> <PUBCHEM_TOTAL_CHARGE>
0

> <PUBCHEM_SUBSTANCE_ID>
310940242

> <PUBCHEM_SUBSTANCE_VERSION>
1

> <PUBCHEM_EXT_DATASOURCE_NAME>
4488

> <PUBCHEM_EXT_DATASOURCE_REGID>
SCHEMBL16118176

> <PUBCHEM_SUBSTANCE_COMMENT>
InChI=1S/C22H30N2O5/c1-15(2)19-14-21(27)24(22(19)28)18-7-4-17(5-8-18)6-9-20(26)23-11-13-29-12-10-16(3)25/h4-5,7-8,15,19H,6,9-14H2,1-3H3,(H,23,26)
InChIKey=DEPVUHNJOZEXRA-UHFFFAOYSA-N

> <PUBCHEM_SUBSTANCE_SYNONYM>
SCHEMBL16118176

> <PUBCHEM_XREF_EXT_ID>
SCHEMBL16118176

> <PUBCHEM_EXT_DATASOURCE_URL>
https://www.surechembl.org/

> <PUBCHEM_EXT_SUBSTANCE_URL>
https://www.surechembl.org/chemical/SCHEMBL16118176

> <PUBCHEM_CID_ASSOCIATIONS>
117607333  1

> <PUBCHEM_COORDINATE_TYPE>
1
3

> <PUBCHEM_BONDANNOTATIONS>
13  19  3
13  20  3

$$$$
