310942415
  -OEChem-07211613022D

 13 14  0     1  0  0  0  0  0999 V2000
   -2.1547   -0.8282    0.0000 F   0  0  0  0  0  0  0  0  0  0  0  0
    2.1422    0.8282    0.0000 O   0  0  0  0  0  0  0  0  0  0  0  0
    0.7224   -0.8282    0.0000 N   0  0  0  0  0  0  0  0  0  0  0  0
    0.7224    0.8282    0.0000 N   0  0  0  0  0  0  0  0  0  0  0  0
   -0.0125   -0.4048    0.0000 C   0  0  0  0  0  0  0  0  0  0  0  0
    0.0000    0.4297    0.0000 C   0  0  0  0  0  0  0  0  0  0  0  0
    1.4198   -0.4048    0.0000 C   0  0  3  0  0  0  0  0  0  0  0  0
    1.4323    0.4173    0.0000 C   0  0  0  0  0  0  0  0  0  0  0  0
   -0.7099   -0.8282    0.0000 C   0  0  0  0  0  0  0  0  0  0  0  0
   -0.7224    0.8282    0.0000 C   0  0  0  0  0  0  0  0  0  0  0  0
   -1.4448   -0.4173    0.0000 C   0  0  0  0  0  0  0  0  0  0  0  0
   -1.4323    0.4173    0.0000 C   0  0  0  0  0  0  0  0  0  0  0  0
    2.1547   -0.8282    0.0000 C   0  0  0  0  0  0  0  0  0  0  0  0
  1 11  1  0  0  0  0
  2  8  2  0  0  0  0
  3  5  1  0  0  0  0
  3  7  1  0  0  0  0
  4  6  1  0  0  0  0
  4  8  1  0  0  0  0
  5  6  2  0  0  0  0
  5  9  1  0  0  0  0
  6 10  1  0  0  0  0
  7  8  1  0  0  0  0
  7 13  1  0  0  0  0
  9 11  2  0  0  0  0
 10 12  2  0  0  0  0
 11 12  1  0  0  0  0
M  END
> <PUBCHEM_COMPOUND_ID_TYPE>
0

> <PUBCHEM_TOTAL_CHARGE>
0

> <PUBCHEM_SUBSTANCE_ID>
310942415

> <PUBCHEM_SUBSTANCE_VERSION>
1

> <PUBCHEM_EXT_DATASOURCE_NAME>
4488

> <PUBCHEM_EXT_DATASOURCE_REGID>
SCHEMBL16120451

> <PUBCHEM_SUBSTANCE_COMMENT>
InChI=1S/C9H9FN2O/c1-5-9(13)12-7-3-2-6(10)4-8(7)11-5/h2-5,11H,1H3,(H,12,13)
InChIKey=UDBZOEQVLJXEEQ-UHFFFAOYSA-N

> <PUBCHEM_SUBSTANCE_SYNONYM>
SCHEMBL16120451

> <PUBCHEM_XREF_EXT_ID>
SCHEMBL16120451

> <PUBCHEM_EXT_DATASOURCE_URL>
https://www.surechembl.org/

> <PUBCHEM_EXT_SUBSTANCE_URL>
https://www.surechembl.org/chemical/SCHEMBL16120451

> <PUBCHEM_CID_ASSOCIATIONS>
11571897  1

> <PUBCHEM_COORDINATE_TYPE>
1
3

$$$$
