310935651
  -OEChem-07211613022D

 26 28  0     1  0  0  0  0  0999 V2000
    7.1651   -0.6490    0.0000 F   0  0  0  0  0  0  0  0  0  0  0  0
    0.0000   -4.5950    0.0000 F   0  0  0  0  0  0  0  0  0  0  0  0
    1.2980   -5.1921    0.0000 F   0  0  0  0  0  0  0  0  0  0  0  0
    0.3634   -3.8681    0.0000 F   0  0  0  0  0  0  0  0  0  0  0  0
    5.9968   -2.9076    0.0000 O   0  0  0  0  0  0  0  0  0  0  0  0
    5.9968   -1.4798    0.0000 O   0  0  0  0  0  0  0  0  0  0  0  0
    2.2585   -4.3873    0.0000 N   0  0  0  0  0  0  0  0  0  0  0  0
    4.7767   -2.2067    0.0000 C   0  0  3  0  0  0  0  0  0  0  0  0
    5.1661   -1.4538    0.0000 C   0  0  0  0  0  0  0  0  0  0  0  0
    4.3094   -2.8556    0.0000 C   0  0  0  0  0  0  0  0  0  0  0  0
    3.5306   -2.5960    0.0000 C   0  0  0  0  0  0  0  0  0  0  0  0
    4.3094   -1.5317    0.0000 C   0  0  0  0  0  0  0  0  0  0  0  0
    5.6075   -2.2067    0.0000 C   0  0  0  0  0  0  0  0  0  0  0  0
    6.1526   -1.5836    0.0000 C   0  0  0  0  0  0  0  0  0  0  0  0
    2.8556   -3.0893    0.0000 C   0  0  0  0  0  0  0  0  0  0  0  0
    3.5306   -1.7913    0.0000 C   0  0  0  0  0  0  0  0  0  0  0  0
    4.7248   -0.7788    0.0000 C   0  0  0  0  0  0  0  0  0  0  0  0
    6.3343   -0.7009    0.0000 C   0  0  0  0  0  0  0  0  0  0  0  0
    1.5057   -4.0498    0.0000 C   0  0  0  0  0  0  0  0  0  0  0  0
    2.9076   -3.9200    0.0000 C   0  0  0  0  0  0  0  0  0  0  0  0
    2.1028   -2.7518    0.0000 C   0  0  0  0  0  0  0  0  0  0  0  0
    0.8307   -4.5431    0.0000 C   0  0  0  0  0  0  0  0  0  0  0  0
    5.0882   -0.0260    0.0000 C   0  0  0  0  0  0  0  0  0  0  0  0
    1.4278   -3.2191    0.0000 C   0  0  0  0  0  0  0  0  0  0  0  0
    5.9190    0.0000    0.0000 C   0  0  0  0  0  0  0  0  0  0  0  0
    6.4122   -2.1028    0.0000 C   0  0  0  0  0  0  0  0  0  0  0  0
  1 18  1  0  0  0  0
  2 22  1  0  0  0  0
  3 22  1  0  0  0  0
  4 22  1  0  0  0  0
  5 13  2  0  0  0  0
  6 13  1  0  0  0  0
  7 19  2  0  0  0  0
  7 20  1  0  0  0  0
  8  9  1  0  0  0  0
  8 10  1  0  0  0  0
  8 12  1  0  0  0  0
  8 13  1  0  0  0  0
  9 14  1  0  0  0  0
  9 17  2  0  0  0  0
 10 11  2  0  0  0  0
 11 15  1  0  0  0  0
 11 16  1  0  0  0  0
 12 16  1  0  0  0  0
 14 18  2  0  0  0  0
 14 26  1  0  0  0  0
 15 20  2  0  0  0  0
 15 21  1  0  0  0  0
 17 23  1  0  0  0  0
 18 25  1  0  0  0  0
 19 22  1  0  0  0  0
 19 24  1  0  0  0  0
 21 24  2  0  0  0  0
 23 25  2  0  0  0  0
M  END
> <PUBCHEM_COMPOUND_ID_TYPE>
0

> <PUBCHEM_TOTAL_CHARGE>
0

> <PUBCHEM_SUBSTANCE_ID>
310935651

> <PUBCHEM_SUBSTANCE_VERSION>
1

> <PUBCHEM_EXT_DATASOURCE_NAME>
4488

> <PUBCHEM_EXT_DATASOURCE_REGID>
SCHEMBL16113229

> <PUBCHEM_SUBSTANCE_COMMENT>
InChI=1S/C19H15F4NO2/c1-11-14(3-2-4-15(11)20)18(17(25)26)8-7-12(9-18)13-5-6-16(24-10-13)19(21,22)23/h2-6,9-10H,7-8H2,1H3,(H,25,26)
InChIKey=ZVVJCZWLKHIMKL-UHFFFAOYSA-N

> <PUBCHEM_SUBSTANCE_SYNONYM>
SCHEMBL16113229

> <PUBCHEM_XREF_EXT_ID>
SCHEMBL16113229

> <PUBCHEM_EXT_DATASOURCE_URL>
https://www.surechembl.org/

> <PUBCHEM_EXT_SUBSTANCE_URL>
https://www.surechembl.org/chemical/SCHEMBL16113229

> <PUBCHEM_CID_ASSOCIATIONS>
117603662  1

> <PUBCHEM_COORDINATE_TYPE>
1
3

$$$$
