310946294
  -OEChem-07211613022D

 12 12  0     1  0  0  0  0  0999 V2000
    3.6831   -2.1956    0.0000 N   0  0  0  0  0  0  0  0  0  0  0  0
    2.2542   -1.3706    0.0000 N   0  0  0  0  0  0  0  0  0  0  0  0
    2.9687   -2.6081    0.0000 C   0  0  0  0  0  0  0  0  0  0  0  0
    2.2542   -2.1956    0.0000 C   0  0  3  0  0  0  0  0  0  0  0  0
    2.9687   -3.4331    0.0000 C   0  0  0  0  0  0  0  0  0  0  0  0
    1.5397   -2.6081    0.0000 C   0  0  0  0  0  0  0  0  0  0  0  0
    4.3976   -2.6081    0.0000 C   0  0  0  0  0  0  0  0  0  0  0  0
    3.6831   -3.8456    0.0000 C   0  0  0  0  0  0  0  0  0  0  0  0
    0.8253   -2.1956    0.0000 C   0  0  0  0  0  0  0  0  0  0  0  0
    4.3976   -3.4331    0.0000 C   0  0  0  0  0  0  0  0  0  0  0  0
    1.2378   -1.4811    0.0000 C   0  0  0  0  0  0  0  0  0  0  0  0
    0.4128   -2.9101    0.0000 C   0  0  0  0  0  0  0  0  0  0  0  0
  1  3  1  0  0  0  0
  1  7  2  0  0  0  0
  2  4  1  0  0  0  0
  3  4  1  0  0  0  0
  3  5  2  0  0  0  0
  4  6  1  0  0  0  0
  5  8  1  0  0  0  0
  6  9  1  0  0  0  0
  7 10  1  0  0  0  0
  8 10  2  0  0  0  0
  9 11  1  0  0  0  0
  9 12  1  0  0  0  0
M  END
> <PUBCHEM_COMPOUND_ID_TYPE>
0

> <PUBCHEM_TOTAL_CHARGE>
0

> <PUBCHEM_SUBSTANCE_ID>
310946294

> <PUBCHEM_SUBSTANCE_VERSION>
1

> <PUBCHEM_EXT_DATASOURCE_NAME>
4488

> <PUBCHEM_EXT_DATASOURCE_REGID>
SCHEMBL16124412

> <PUBCHEM_SUBSTANCE_COMMENT>
InChI=1S/C10H16N2/c1-8(2)7-9(11)10-5-3-4-6-12-10/h3-6,8-9H,7,11H2,1-2H3
InChIKey=CQQSJHCEEUYAOK-UHFFFAOYSA-N

> <PUBCHEM_SUBSTANCE_SYNONYM>
SCHEMBL16124412

> <PUBCHEM_XREF_EXT_ID>
SCHEMBL16124412

> <PUBCHEM_EXT_DATASOURCE_URL>
https://www.surechembl.org/

> <PUBCHEM_EXT_SUBSTANCE_URL>
https://www.surechembl.org/chemical/SCHEMBL16124412

> <PUBCHEM_CID_ASSOCIATIONS>
60818623  1

> <PUBCHEM_COORDINATE_TYPE>
1
3

> <PUBCHEM_BONDANNOTATIONS>
4  2  3
9  11  3
9  12  3

$$$$
