310931365
  -OEChem-07211613022D

 21 23  0     1  0  0  0  0  0999 V2000
    2.7863   -1.6297    0.0000 O   0  0  0  0  0  0  0  0  0  0  0  0
    3.9165   -3.6011    0.0000 O   0  0  0  0  0  0  0  0  0  0  0  0
    4.6525   -2.3657    0.0000 O   0  0  0  0  0  0  0  0  0  0  0  0
    2.3657   -2.3657    0.0000 C   0  0  3  0  0  0  0  0  0  0  0  0
    3.2068   -2.3657    0.0000 C   0  0  3  0  0  0  0  0  0  0  0  0
    1.7874   -1.7612    0.0000 C   0  0  0  0  0  0  0  0  0  0  0  0
    3.9165   -2.7600    0.0000 C   0  0  0  0  0  0  0  0  0  0  0  0
    1.6560   -2.7600    0.0000 C   0  0  0  0  0  0  0  0  0  0  0  0
    0.9725   -1.9714    0.0000 C   0  0  0  0  0  0  0  0  0  0  0  0
    1.9977   -0.9463    0.0000 C   0  0  0  0  0  0  0  0  0  0  0  0
    0.3943   -1.3931    0.0000 C   0  0  0  0  0  0  0  0  0  0  0  0
    1.3931   -0.3943    0.0000 C   0  0  0  0  0  0  0  0  0  0  0  0
    4.6525   -4.0217    0.0000 C   0  0  0  0  0  0  0  0  0  0  0  0
    1.6560   -3.6011    0.0000 C   0  0  0  0  0  0  0  0  0  0  0  0
    0.6046   -0.5783    0.0000 C   0  0  0  0  0  0  0  0  0  0  0  0
    5.3623   -3.6011    0.0000 C   0  0  0  0  0  0  0  0  0  0  0  0
    4.6525   -4.8365    0.0000 C   0  0  0  0  0  0  0  0  0  0  0  0
    0.0000    0.0000    0.0000 C   0  0  0  0  0  0  0  0  0  0  0  0
    6.0720   -4.0217    0.0000 C   0  0  0  0  0  0  0  0  0  0  0  0
    5.3623   -5.2571    0.0000 C   0  0  0  0  0  0  0  0  0  0  0  0
    6.0720   -4.8365    0.0000 C   0  0  0  0  0  0  0  0  0  0  0  0
  1  4  1  0  0  0  0
  1  5  1  0  0  0  0
  2  7  1  0  0  0  0
  2 13  1  0  0  0  0
  3  7  2  0  0  0  0
  4  5  1  0  0  0  0
  4  6  1  0  0  0  0
  4  8  1  0  0  0  0
  5  7  1  0  0  0  0
  6  9  2  0  0  0  0
  6 10  1  0  0  0  0
  8 14  1  0  0  0  0
  9 11  1  0  0  0  0
 10 12  2  0  0  0  0
 11 15  2  0  0  0  0
 12 15  1  0  0  0  0
 13 16  2  0  0  0  0
 13 17  1  0  0  0  0
 15 18  1  0  0  0  0
 16 19  1  0  0  0  0
 17 20  2  0  0  0  0
 19 21  2  0  0  0  0
 20 21  1  0  0  0  0
M  END
> <PUBCHEM_COMPOUND_ID_TYPE>
0

> <PUBCHEM_TOTAL_CHARGE>
0

> <PUBCHEM_SUBSTANCE_ID>
310931365

> <PUBCHEM_SUBSTANCE_VERSION>
1

> <PUBCHEM_EXT_DATASOURCE_NAME>
4488

> <PUBCHEM_EXT_DATASOURCE_REGID>
SCHEMBL16108688

> <PUBCHEM_SUBSTANCE_COMMENT>
InChI=1S/C18H18O3/c1-3-18(14-11-9-13(2)10-12-14)16(21-18)17(19)20-15-7-5-4-6-8-15/h4-12,16H,3H2,1-2H3
InChIKey=VAPASARQXJRZJU-UHFFFAOYSA-N

> <PUBCHEM_SUBSTANCE_SYNONYM>
SCHEMBL16108688

> <PUBCHEM_XREF_EXT_ID>
SCHEMBL16108688

> <PUBCHEM_EXT_DATASOURCE_URL>
https://www.surechembl.org/

> <PUBCHEM_EXT_SUBSTANCE_URL>
https://www.surechembl.org/chemical/SCHEMBL16108688

> <PUBCHEM_CID_ASSOCIATIONS>
117600165  1

> <PUBCHEM_COORDINATE_TYPE>
1
3

$$$$
