310946008
  -OEChem-07211613022D

 29 31  0     1  0  0  0  0  0999 V2000
    4.0367   -1.5129    0.0000 O   0  0  0  0  0  0  0  0  0  0  0  0
    1.7500   -1.5129    0.0000 O   0  0  0  0  0  0  0  0  0  0  0  0
    1.0248   -1.0946    0.0000 O   0  0  0  0  0  0  0  0  0  0  0  0
   -1.1504    1.0109    0.0000 O   0  0  0  0  0  0  0  0  0  0  0  0
   -0.4113    1.4292    0.0000 O   0  0  0  0  0  0  0  0  0  0  0  0
   -4.0367    0.1743    0.0000 O   0  0  0  0  0  0  0  0  0  0  0  0
    1.7639    0.1743    0.0000 N   0  0  0  0  0  0  0  0  0  0  0  0
   -0.4113   -0.2440    0.0000 N   0  0  0  0  0  0  0  0  0  0  0  0
   -2.5866    0.1743    0.0000 N   0  0  0  0  0  0  0  0  0  0  0  0
    3.2280   -1.4711    0.0000 C   0  0  3  0  0  0  0  0  0  0  0  0
    2.5029   -1.0527    0.0000 C   0  0  0  0  0  0  0  0  0  0  0  0
    3.6184   -0.7739    0.0000 C   0  0  0  0  0  0  0  0  0  0  0  0
    2.5029   -0.2161    0.0000 C   0  0  3  0  0  0  0  0  0  0  0  0
    3.2140   -2.3216    0.0000 C   0  0  0  0  0  0  0  0  0  0  0  0
    3.2140    0.2022    0.0000 C   0  0  0  0  0  0  0  0  0  0  0  0
    1.0388   -0.1882    0.0000 C   0  0  0  0  0  0  0  0  0  0  0  0
    0.3138    0.2022    0.0000 C   0  0  3  0  0  0  0  0  0  0  0  0
    3.2280    1.0527    0.0000 C   0  0  0  0  0  0  0  0  0  0  0  0
   -1.1364    0.1882    0.0000 C   0  0  0  0  0  0  0  0  0  0  0  0
   -1.8476   -0.2161    0.0000 C   0  0  0  0  0  0  0  0  0  0  0  0
    2.5447    1.5408    0.0000 C   0  0  0  0  0  0  0  0  0  0  0  0
    3.8833    1.5408    0.0000 C   0  0  0  0  0  0  0  0  0  0  0  0
    0.3138    1.0248    0.0000 C   0  0  0  0  0  0  0  0  0  0  0  0
   -1.8615   -1.0527    0.0000 C   0  0  0  0  0  0  0  0  0  0  0  0
   -3.2838   -0.2301    0.0000 C   0  0  0  0  0  0  0  0  0  0  0  0
   -2.5726   -1.4711    0.0000 C   0  0  0  0  0  0  0  0  0  0  0  0
   -3.3117   -1.0527    0.0000 C   0  0  0  0  0  0  0  0  0  0  0  0
    2.7957    2.3216    0.0000 C   0  0  0  0  0  0  0  0  0  0  0  0
    3.6184    2.3216    0.0000 C   0  0  0  0  0  0  0  0  0  0  0  0
  1 10  1  0  0  0  0
  1 12  1  0  0  0  0
  2 11  2  0  0  0  0
  3 16  2  0  0  0  0
  4 19  2  0  0  0  0
  5 23  1  0  0  0  0
  6 25  2  0  0  0  0
  7 13  1  0  0  0  0
  7 16  1  0  0  0  0
  8 17  1  0  0  0  0
  8 19  1  0  0  0  0
  9 20  1  0  0  0  0
  9 25  1  0  0  0  0
 10 11  1  0  0  0  0
 10 12  1  0  0  0  0
 10 14  1  0  0  0  0
 11 13  1  0  0  0  0
 13 15  1  0  0  0  0
 15 18  1  0  0  0  0
 16 17  1  0  0  0  0
 17 23  1  0  0  0  0
 18 21  1  0  0  0  0
 18 22  1  0  0  0  0
 19 20  1  0  0  0  0
 20 24  2  0  0  0  0
 21 28  1  0  0  0  0
 22 29  1  0  0  0  0
 24 26  1  0  0  0  0
 25 27  1  0  0  0  0
 26 27  2  0  0  0  0
 28 29  1  0  0  0  0
M  END
> <PUBCHEM_COMPOUND_ID_TYPE>
0

> <PUBCHEM_TOTAL_CHARGE>
0

> <PUBCHEM_SUBSTANCE_ID>
310946008

> <PUBCHEM_SUBSTANCE_VERSION>
1

> <PUBCHEM_EXT_DATASOURCE_NAME>
4488

> <PUBCHEM_EXT_DATASOURCE_REGID>
SCHEMBL16124114

> <PUBCHEM_SUBSTANCE_COMMENT>
InChI=1S/C20H27N3O6/c1-20(11-29-20)17(26)14(9-12-5-2-3-6-12)22-19(28)15(10-24)23-18(27)13-7-4-8-16(25)21-13/h4,7-8,12,14-15,24H,2-3,5-6,9-11H2,1H3,(H,21,25)(H,22,28)(H,23,27)
InChIKey=LOCFJZUGZHCWTP-UHFFFAOYSA-N

> <PUBCHEM_SUBSTANCE_SYNONYM>
SCHEMBL16124114

> <PUBCHEM_XREF_EXT_ID>
SCHEMBL16124114

> <PUBCHEM_EXT_DATASOURCE_URL>
https://www.surechembl.org/

> <PUBCHEM_EXT_SUBSTANCE_URL>
https://www.surechembl.org/chemical/SCHEMBL16124114

> <PUBCHEM_CID_ASSOCIATIONS>
117611979  1

> <PUBCHEM_COORDINATE_TYPE>
1
3

$$$$
