310930333
  -OEChem-07211613022D

 29 31  0     1  0  0  0  0  0999 V2000
    1.3895   -7.8596    0.0000 S   0  0  0  0  0  0  0  0  0  0  0  0
    1.3895   -7.0346    0.0000 O   0  0  0  0  0  0  0  0  0  0  0  0
    2.2146   -7.8596    0.0000 O   0  0  0  0  0  0  0  0  0  0  0  0
    0.5645   -7.8596    0.0000 O   0  0  0  0  0  0  0  0  0  0  0  0
    1.3895   -8.6846    0.0000 O   0  0  0  0  0  0  0  0  0  0  0  0
    5.7319   -2.0409    0.0000 N   0  0  0  0  0  0  0  0  0  0  0  0
    5.0805   -0.8685    0.0000 N   0  0  0  0  0  0  0  0  0  0  0  0
    4.2555   -2.1277    0.0000 N   0  0  0  0  0  0  0  0  0  0  0  0
    4.2555   -2.9528    0.0000 N   0  0  0  0  0  0  0  0  0  0  0  0
    1.3895   -4.5594    0.0000 N   0  0  3  0  0  0  0  0  0  0  0  0
    6.2963   -1.4329    0.0000 C   0  0  0  0  0  0  0  0  0  0  0  0
    5.8622   -0.6948    0.0000 C   0  0  0  0  0  0  0  0  0  0  0  0
    4.9502   -1.6935    0.0000 C   0  0  0  0  0  0  0  0  0  0  0  0
    3.5173   -3.3436    0.0000 C   0  0  0  0  0  0  0  0  0  0  0  0
    2.1277   -4.1686    0.0000 C   0  0  0  0  0  0  0  0  0  0  0  0
    3.5173   -4.1686    0.0000 C   0  0  0  0  0  0  0  0  0  0  0  0
    2.8225   -4.5594    0.0000 C   0  0  0  0  0  0  0  0  0  0  0  0
    7.1214   -1.4329    0.0000 C   0  0  0  0  0  0  0  0  0  0  0  0
    6.2963    0.0000    0.0000 C   0  0  0  0  0  0  0  0  0  0  0  0
    2.8225   -2.9528    0.0000 C   0  0  0  0  0  0  0  0  0  0  0  0
    2.1277   -3.3436    0.0000 C   0  0  0  0  0  0  0  0  0  0  0  0
    7.5122   -0.7382    0.0000 C   0  0  0  0  0  0  0  0  0  0  0  0
    7.0780    0.0000    0.0000 C   0  0  0  0  0  0  0  0  0  0  0  0
    1.3895   -5.3845    0.0000 C   0  0  0  0  0  0  0  0  0  0  0  0
    0.6948   -4.1686    0.0000 C   0  0  0  0  0  0  0  0  0  0  0  0
    4.2555   -4.5594    0.0000 C   0  0  0  0  0  0  0  0  0  0  0  0
    2.1277   -5.8187    0.0000 C   0  0  0  0  0  0  0  0  0  0  0  0
    2.1277   -6.6437    0.0000 C   0  0  0  0  0  0  0  0  0  0  0  0
    0.0000   -4.6029    0.0000 C   0  0  0  0  0  0  0  0  0  0  0  0
  1  2  1  0  0  0  0
  1  3  2  0  0  0  0
  1  4  2  0  0  0  0
  1  5  1  0  0  0  0
  2 28  1  0  0  0  0
  6 11  1  0  0  0  0
  6 13  2  0  0  0  0
  7 12  1  0  0  0  0
  7 13  1  0  0  0  0
  8  9  2  0  0  0  0
  8 13  1  0  0  0  0
  9 14  1  0  0  0  0
 10 15  1  0  0  0  0
 10 24  1  0  0  0  0
 10 25  1  0  0  0  0
 11 12  2  0  0  0  0
 11 18  1  0  0  0  0
 12 19  1  0  0  0  0
 14 16  1  0  0  0  0
 14 20  2  0  0  0  0
 15 17  1  0  0  0  0
 15 21  2  0  0  0  0
 16 17  2  0  0  0  0
 16 26  1  0  0  0  0
 18 22  2  0  0  0  0
 19 23  2  0  0  0  0
 20 21  1  0  0  0  0
 22 23  1  0  0  0  0
 24 27  1  0  0  0  0
 25 29  1  0  0  0  0
 27 28  1  0  0  0  0
M  END
> <PUBCHEM_COMPOUND_ID_TYPE>
0

> <PUBCHEM_TOTAL_CHARGE>
0

> <PUBCHEM_SUBSTANCE_ID>
310930333

> <PUBCHEM_SUBSTANCE_VERSION>
1

> <PUBCHEM_EXT_DATASOURCE_NAME>
4488

> <PUBCHEM_EXT_DATASOURCE_REGID>
SCHEMBL16107617

> <PUBCHEM_SUBSTANCE_COMMENT>
InChI=1S/C19H23N5O4S/c1-3-24(11-6-12-28-29(25,26)27)15-9-10-16(14(2)13-15)22-23-19-20-17-7-4-5-8-18(17)21-19/h4-5,7-10,13H,3,6,11-12H2,1-2H3,(H,20,21)(H,25,26,27)/b23-22+
InChIKey=JOPQWIDZDRPTTA-GHVJWSGMSA-N

> <PUBCHEM_SUBSTANCE_SYNONYM>
SCHEMBL16107617

> <PUBCHEM_XREF_EXT_ID>
SCHEMBL16107617

> <PUBCHEM_EXT_DATASOURCE_URL>
https://www.surechembl.org/

> <PUBCHEM_EXT_SUBSTANCE_URL>
https://www.surechembl.org/chemical/SCHEMBL16107617

> <PUBCHEM_CID_ASSOCIATIONS>
117599504  1

> <PUBCHEM_COORDINATE_TYPE>
1
3

$$$$
