310932425
  -OEChem-07211613022D

 22 24  0     1  0  0  0  0  0999 V2000
    3.5629   -1.6084    0.0000 O   0  0  0  0  0  0  0  0  0  0  0  0
    4.6827   -3.5833    0.0000 O   0  0  0  0  0  0  0  0  0  0  0  0
    5.3952   -2.3413    0.0000 O   0  0  0  0  0  0  0  0  0  0  0  0
    3.1353   -2.3413    0.0000 C   0  0  3  0  0  0  0  0  0  0  0  0
    3.9701   -2.3413    0.0000 C   0  0  3  0  0  0  0  0  0  0  0  0
    2.5653   -1.7509    0.0000 C   0  0  0  0  0  0  0  0  0  0  0  0
    2.4227   -2.7485    0.0000 C   0  0  0  0  0  0  0  0  0  0  0  0
    4.6827   -2.7485    0.0000 C   0  0  0  0  0  0  0  0  0  0  0  0
    1.7509   -1.9545    0.0000 C   0  0  0  0  0  0  0  0  0  0  0  0
    2.7689   -0.9366    0.0000 C   0  0  0  0  0  0  0  0  0  0  0  0
    2.4227   -3.5833    0.0000 C   0  0  0  0  0  0  0  0  0  0  0  0
    1.7102   -2.3413    0.0000 C   0  0  0  0  0  0  0  0  0  0  0  0
    1.1605   -1.3844    0.0000 C   0  0  0  0  0  0  0  0  0  0  0  0
    2.1785   -0.3665    0.0000 C   0  0  0  0  0  0  0  0  0  0  0  0
    1.3844   -0.5904    0.0000 C   0  0  0  0  0  0  0  0  0  0  0  0
    1.7102   -3.9905    0.0000 C   0  0  0  0  0  0  0  0  0  0  0  0
    0.9976   -2.7485    0.0000 C   0  0  0  0  0  0  0  0  0  0  0  0
    0.9772   -3.5833    0.0000 C   0  0  0  0  0  0  0  0  0  0  0  0
    5.3952   -3.9905    0.0000 C   0  0  0  0  0  0  0  0  0  0  0  0
    0.7940    0.0000    0.0000 C   0  0  0  0  0  0  0  0  0  0  0  0
    6.1078   -3.5629    0.0000 C   0  0  0  0  0  0  0  0  0  0  0  0
    0.0000   -0.2036    0.0000 C   0  0  0  0  0  0  0  0  0  0  0  0
  1  4  1  0  0  0  0
  1  5  1  0  0  0  0
  2  8  1  0  0  0  0
  2 19  1  0  0  0  0
  3  8  2  0  0  0  0
  4  5  1  0  0  0  0
  4  6  1  0  0  0  0
  4  7  1  0  0  0  0
  5  8  1  0  0  0  0
  6  9  2  0  0  0  0
  6 10  1  0  0  0  0
  7 11  2  0  0  0  0
  7 12  1  0  0  0  0
  9 13  1  0  0  0  0
 10 14  2  0  0  0  0
 11 16  1  0  0  0  0
 12 17  2  0  0  0  0
 13 15  2  0  0  0  0
 14 15  1  0  0  0  0
 15 20  1  0  0  0  0
 16 18  2  0  0  0  0
 17 18  1  0  0  0  0
 19 21  1  0  0  0  0
 20 22  1  0  0  0  0
M  END
> <PUBCHEM_COMPOUND_ID_TYPE>
0

> <PUBCHEM_TOTAL_CHARGE>
0

> <PUBCHEM_SUBSTANCE_ID>
310932425

> <PUBCHEM_SUBSTANCE_VERSION>
1

> <PUBCHEM_EXT_DATASOURCE_NAME>
4488

> <PUBCHEM_EXT_DATASOURCE_REGID>
SCHEMBL16109793

> <PUBCHEM_SUBSTANCE_COMMENT>
InChI=1S/C19H20O3/c1-3-14-10-12-16(13-11-14)19(15-8-6-5-7-9-15)17(22-19)18(20)21-4-2/h5-13,17H,3-4H2,1-2H3
InChIKey=CEFOZHTYUNAXIZ-UHFFFAOYSA-N

> <PUBCHEM_SUBSTANCE_SYNONYM>
SCHEMBL16109793

> <PUBCHEM_XREF_EXT_ID>
SCHEMBL16109793

> <PUBCHEM_EXT_DATASOURCE_URL>
https://www.surechembl.org/

> <PUBCHEM_EXT_SUBSTANCE_URL>
https://www.surechembl.org/chemical/SCHEMBL16109793

> <PUBCHEM_CID_ASSOCIATIONS>
117600977  1

> <PUBCHEM_COORDINATE_TYPE>
1
3

$$$$
