310931639
  -OEChem-07211613022D

 26 29  0     1  0  0  0  0  0999 V2000
    0.7192    0.0000    0.0000 O   0  0  0  0  0  0  0  0  0  0  0  0
    5.9228   -2.6441    0.0000 O   0  0  0  0  0  0  0  0  0  0  0  0
    1.4173   -1.2269    0.0000 N   0  0  0  0  0  0  0  0  0  0  0  0
    2.1576    0.0000    0.0000 N   0  0  0  0  0  0  0  0  0  0  0  0
    6.3458   -1.9249    0.0000 N   0  0  0  0  0  0  0  0  0  0  0  0
    2.1576   -1.6499    0.0000 C   0  0  3  0  0  0  0  0  0  0  0  0
    2.8768   -1.2269    0.0000 C   0  0  0  0  0  0  0  0  0  0  0  0
    2.8768   -0.4019    0.0000 C   0  0  0  0  0  0  0  0  0  0  0  0
    1.4384   -2.0730    0.0000 C   0  0  0  0  0  0  0  0  0  0  0  0
    3.5748   -1.6499    0.0000 C   0  0  0  0  0  0  0  0  0  0  0  0
    4.2940   -1.2269    0.0000 C   0  0  0  0  0  0  0  0  0  0  0  0
    1.4173   -0.4019    0.0000 C   0  0  0  0  0  0  0  0  0  0  0  0
    5.0344   -1.6499    0.0000 C   0  0  0  0  0  0  0  0  0  0  0  0
    3.5748    0.0000    0.0000 C   0  0  0  0  0  0  0  0  0  0  0  0
    2.1576   -2.4749    0.0000 C   0  0  0  0  0  0  0  0  0  0  0  0
    4.2940   -0.4019    0.0000 C   0  0  0  0  0  0  0  0  0  0  0  0
    1.4384   -2.8979    0.0000 C   0  0  0  0  0  0  0  0  0  0  0  0
    0.8884   -1.8191    0.0000 C   0  0  0  0  0  0  0  0  0  0  0  0
    5.1190   -2.4749    0.0000 C   0  0  0  0  0  0  0  0  0  0  0  0
    5.7748   -1.3115    0.0000 C   0  0  0  0  0  0  0  0  0  0  0  0
    0.7192   -1.6499    0.0000 C   0  0  0  0  0  0  0  0  0  0  0  0
    0.7404   -3.3210    0.0000 C   0  0  0  0  0  0  0  0  0  0  0  0
    0.0000   -2.0730    0.0000 C   0  0  0  0  0  0  0  0  0  0  0  0
    0.0000   -2.8979    0.0000 C   0  0  0  0  0  0  0  0  0  0  0  0
    4.5267   -3.0249    0.0000 C   0  0  0  0  0  0  0  0  0  0  0  0
    5.9651   -0.5077    0.0000 C   0  0  0  0  0  0  0  0  0  0  0  0
  1 12  2  0  0  0  0
  2  5  1  0  0  0  0
  2 19  1  0  0  0  0
  3  6  1  0  0  0  0
  3 12  1  0  0  0  0
  3 21  1  0  0  0  0
  4  8  1  0  0  0  0
  4 12  1  0  0  0  0
  5 20  2  0  0  0  0
  6  7  1  0  0  0  0
  6  9  1  0  0  0  0
  6 15  1  0  0  0  0
  7  8  2  0  0  0  0
  7 10  1  0  0  0  0
  8 14  1  0  0  0  0
  9 17  2  0  0  0  0
  9 18  1  0  0  0  0
 10 11  2  0  0  0  0
 11 13  1  0  0  0  0
 11 16  1  0  0  0  0
 13 19  2  0  0  0  0
 13 20  1  0  0  0  0
 14 16  2  0  0  0  0
 17 22  1  0  0  0  0
 18 23  2  0  0  0  0
 19 25  1  0  0  0  0
 20 26  1  0  0  0  0
 22 24  2  0  0  0  0
 23 24  1  0  0  0  0
M  END
> <PUBCHEM_COMPOUND_ID_TYPE>
0

> <PUBCHEM_TOTAL_CHARGE>
0

> <PUBCHEM_SUBSTANCE_ID>
310931639

> <PUBCHEM_SUBSTANCE_VERSION>
1

> <PUBCHEM_EXT_DATASOURCE_NAME>
4488

> <PUBCHEM_EXT_DATASOURCE_REGID>
SCHEMBL16108965

> <PUBCHEM_SUBSTANCE_COMMENT>
InChI=1S/C21H21N3O2/c1-13-19(14(2)26-23-13)15-10-11-18-17(12-15)21(3,24(4)20(25)22-18)16-8-6-5-7-9-16/h5-12H,1-4H3,(H,22,25)
InChIKey=HPNKVGAQIXCTBD-UHFFFAOYSA-N

> <PUBCHEM_SUBSTANCE_SYNONYM>
SCHEMBL16108965

> <PUBCHEM_XREF_EXT_ID>
SCHEMBL16108965

> <PUBCHEM_EXT_DATASOURCE_URL>
https://www.surechembl.org/

> <PUBCHEM_EXT_SUBSTANCE_URL>
https://www.surechembl.org/chemical/SCHEMBL16108965

> <PUBCHEM_CID_ASSOCIATIONS>
86273586  1

> <PUBCHEM_COORDINATE_TYPE>
1
3

$$$$
