310949712
  -OEChem-07211613022D

 23 24  0     1  0  0  0  0  0999 V2000
   -1.6432    1.0977    0.0000 O   0  0  0  0  0  0  0  0  0  0  0  0
   -2.4681    1.0977    0.0000 O   0  0  0  0  0  0  0  0  0  0  0  0
   -3.7056    0.3659    0.0000 O   0  0  0  0  0  0  0  0  0  0  0  0
    3.7056    1.7895    0.0000 O   0  0  0  0  0  0  0  0  0  0  0  0
    3.7056    0.3393    0.0000 O   0  0  0  0  0  0  0  0  0  0  0  0
   -0.4191    0.3659    0.0000 N   0  0  0  0  0  0  0  0  0  0  0  0
   -1.6699   -0.3526    0.0000 C   0  0  0  0  0  0  0  0  0  0  0  0
   -2.4815   -0.3526    0.0000 C   0  0  0  0  0  0  0  0  0  0  0  0
   -1.2440    0.3792    0.0000 C   0  0  0  0  0  0  0  0  0  0  0  0
    0.8183    1.0844    0.0000 C   0  0  0  0  0  0  0  0  0  0  0  0
   -0.0066    1.0977    0.0000 C   0  0  3  0  0  0  0  0  0  0  0  0
   -1.2574   -1.0844    0.0000 C   0  0  0  0  0  0  0  0  0  0  0  0
   -2.8940    0.3526    0.0000 C   0  0  0  0  0  0  0  0  0  0  0  0
   -2.8940   -1.0977    0.0000 C   0  0  0  0  0  0  0  0  0  0  0  0
    2.4681    1.0977    0.0000 C   0  0  0  0  0  0  0  0  0  0  0  0
    1.2307    0.3659    0.0000 C   0  0  0  0  0  0  0  0  0  0  0  0
    1.2440    1.8029    0.0000 C   0  0  0  0  0  0  0  0  0  0  0  0
    2.0557    0.3659    0.0000 C   0  0  0  0  0  0  0  0  0  0  0  0
    2.0424    1.8029    0.0000 C   0  0  0  0  0  0  0  0  0  0  0  0
   -1.6699   -1.8029    0.0000 C   0  0  0  0  0  0  0  0  0  0  0  0
   -2.4815   -1.8029    0.0000 C   0  0  0  0  0  0  0  0  0  0  0  0
    3.2798    1.0578    0.0000 C   0  0  0  0  0  0  0  0  0  0  0  0
   -0.4191    1.8029    0.0000 C   0  0  0  0  0  0  0  0  0  0  0  0
  1  9  2  0  0  0  0
  2 13  2  0  0  0  0
  3 13  1  0  0  0  0
  4 22  2  0  0  0  0
  5 22  1  0  0  0  0
  6  9  1  0  0  0  0
  6 11  1  0  0  0  0
  7  8  2  0  0  0  0
  7  9  1  0  0  0  0
  7 12  1  0  0  0  0
  8 13  1  0  0  0  0
  8 14  1  0  0  0  0
 10 11  1  0  0  0  0
 10 16  2  0  0  0  0
 10 17  1  0  0  0  0
 11 23  1  0  0  0  0
 12 20  2  0  0  0  0
 14 21  2  0  0  0  0
 15 18  2  0  0  0  0
 15 19  1  0  0  0  0
 15 22  1  0  0  0  0
 16 18  1  0  0  0  0
 17 19  2  0  0  0  0
 20 21  1  0  0  0  0
M  END
> <PUBCHEM_COMPOUND_ID_TYPE>
0

> <PUBCHEM_TOTAL_CHARGE>
0

> <PUBCHEM_SUBSTANCE_ID>
310949712

> <PUBCHEM_SUBSTANCE_VERSION>
1

> <PUBCHEM_EXT_DATASOURCE_NAME>
4488

> <PUBCHEM_EXT_DATASOURCE_REGID>
SCHEMBL16127910

> <PUBCHEM_SUBSTANCE_COMMENT>
InChI=1S/C17H15NO5/c1-10(11-6-8-12(9-7-11)16(20)21)18-15(19)13-4-2-3-5-14(13)17(22)23/h2-10H,1H3,(H,18,19)(H,20,21)(H,22,23)
InChIKey=OKLQLRSDZJMAKM-UHFFFAOYSA-N

> <PUBCHEM_SUBSTANCE_SYNONYM>
SCHEMBL16127910

> <PUBCHEM_XREF_EXT_ID>
SCHEMBL16127910

> <PUBCHEM_EXT_DATASOURCE_URL>
https://www.surechembl.org/

> <PUBCHEM_EXT_SUBSTANCE_URL>
https://www.surechembl.org/chemical/SCHEMBL16127910

> <PUBCHEM_CID_ASSOCIATIONS>
117615064  1

> <PUBCHEM_COORDINATE_TYPE>
1
3

$$$$
