310942352
  -OEChem-07211613022D

 34 37  0     1  0  0  0  0  0999 V2000
   -0.6023   -1.7968    0.0000 O   0  0  0  0  0  0  0  0  0  0  0  0
   -1.9908    0.7249    0.0000 O   0  0  0  0  0  0  0  0  0  0  0  0
    3.9203   -0.3471    0.0000 O   0  0  0  0  0  0  0  0  0  0  0  0
   -3.4507   -1.7457    0.0000 O   0  0  0  0  0  0  0  0  0  0  0  0
    1.4497   -0.2961    0.0000 N   0  0  0  0  0  0  0  0  0  0  0  0
    2.2459   -0.4900    0.0000 N   0  0  0  0  0  0  0  0  0  0  0  0
   -1.2863   -0.5309    0.0000 N   0  0  0  0  0  0  0  0  0  0  0  0
    3.9407    1.0923    0.0000 N   0  0  0  0  0  0  0  0  0  0  0  0
   -4.1449   -0.4900    0.0000 N   0  0  0  0  0  0  0  0  0  0  0  0
    1.0515    0.4185    0.0000 C   0  0  0  0  0  0  0  0  0  0  0  0
    0.1327   -0.5513    0.0000 C   0  0  0  0  0  0  0  0  0  0  0  0
    0.8882   -0.9086    0.0000 C   0  0  0  0  0  0  0  0  0  0  0  0
    0.2450    0.2757    0.0000 C   0  0  0  0  0  0  0  0  0  0  0  0
    1.4701    1.1434    0.0000 C   0  0  3  0  0  0  0  0  0  0  0  0
   -0.5717   -0.9393    0.0000 C   0  0  0  0  0  0  0  0  0  0  0  0
    1.1332   -1.6947    0.0000 C   0  0  0  0  0  0  0  0  0  0  0  0
    2.2970    1.1128    0.0000 C   0  0  0  0  0  0  0  0  0  0  0  0
   -0.3573    0.8474    0.0000 C   0  0  0  0  0  0  0  0  0  0  0  0
    2.4910   -1.2761    0.0000 C   0  0  0  0  0  0  0  0  0  0  0  0
    1.9397   -1.8682    0.0000 C   0  0  0  0  0  0  0  0  0  0  0  0
    2.6952    0.4083    0.0000 C   0  0  0  0  0  0  0  0  0  0  0  0
    1.0617    1.8682    0.0000 C   0  0  0  0  0  0  0  0  0  0  0  0
   -2.7156   -0.4900    0.0000 C   0  0  0  0  0  0  0  0  0  0  0  0
    2.7156    1.8376    0.0000 C   0  0  0  0  0  0  0  0  0  0  0  0
   -2.0010   -0.9291    0.0000 C   0  0  0  0  0  0  0  0  0  0  0  0
    3.5017    0.3981    0.0000 C   0  0  0  0  0  0  0  0  0  0  0  0
   -2.6850    0.3267    0.0000 C   0  0  0  0  0  0  0  0  0  0  0  0
   -3.4303   -0.8882    0.0000 C   0  0  0  0  0  0  0  0  0  0  0  0
    3.5425    1.8070    0.0000 C   0  0  0  0  0  0  0  0  0  0  0  0
   -3.3996    0.7453    0.0000 C   0  0  0  0  0  0  0  0  0  0  0  0
   -4.1143    0.3471    0.0000 C   0  0  0  0  0  0  0  0  0  0  0  0
    4.7677    1.0719    0.0000 C   0  0  0  0  0  0  0  0  0  0  0  0
   -4.7677    0.7351    0.0000 C   0  0  0  0  0  0  0  0  0  0  0  0
   -1.9499    1.5722    0.0000 C   0  0  0  0  0  0  0  0  0  0  0  0
  1 15  2  0  0  0  0
  2 27  1  0  0  0  0
  2 34  1  0  0  0  0
  3 26  2  0  0  0  0
  4 28  2  0  0  0  0
  5  6  1  0  0  0  0
  5 10  1  0  0  0  0
  5 12  1  0  0  0  0
  6 19  2  0  0  0  0
  7 15  1  0  0  0  0
  7 25  1  0  0  0  0
  8 26  1  0  0  0  0
  8 29  1  0  0  0  0
  8 32  1  0  0  0  0
  9 28  1  0  0  0  0
  9 31  1  0  0  0  0
 10 13  2  0  0  0  0
 10 14  1  0  0  0  0
 11 12  2  0  0  0  0
 11 13  1  0  0  0  0
 11 15  1  0  0  0  0
 12 16  1  0  0  0  0
 13 18  1  0  0  0  0
 14 17  1  0  0  0  0
 14 22  1  0  0  0  0
 16 20  2  0  0  0  0
 17 21  2  0  0  0  0
 17 24  1  0  0  0  0
 19 20  1  0  0  0  0
 21 26  1  0  0  0  0
 23 25  1  0  0  0  0
 23 27  2  0  0  0  0
 23 28  1  0  0  0  0
 24 29  2  0  0  0  0
 27 30  1  0  0  0  0
 30 31  2  0  0  0  0
 31 33  1  0  0  0  0
M  END
> <PUBCHEM_COMPOUND_ID_TYPE>
0

> <PUBCHEM_TOTAL_CHARGE>
0

> <PUBCHEM_SUBSTANCE_ID>
310942352

> <PUBCHEM_SUBSTANCE_VERSION>
1

> <PUBCHEM_EXT_DATASOURCE_NAME>
4488

> <PUBCHEM_EXT_DATASOURCE_REGID>
SCHEMBL16120388

> <PUBCHEM_SUBSTANCE_COMMENT>
InChI=1S/C25H27N5O4/c1-14-11-20(34-5)18(24(32)28-14)13-26-25(33)22-16(3)23(30-19(22)7-6-9-27-30)15(2)17-8-10-29(4)21(31)12-17/h6-12,15H,13H2,1-5H3,(H,26,33)(H,28,32)
InChIKey=SPBGDWOESPADIW-UHFFFAOYSA-N

> <PUBCHEM_SUBSTANCE_SYNONYM>
SCHEMBL16120388

> <PUBCHEM_XREF_EXT_ID>
SCHEMBL16120388

> <PUBCHEM_EXT_DATASOURCE_URL>
https://www.surechembl.org/

> <PUBCHEM_EXT_SUBSTANCE_URL>
https://www.surechembl.org/chemical/SCHEMBL16120388

> <PUBCHEM_CID_ASSOCIATIONS>
86299696  1

> <PUBCHEM_COORDINATE_TYPE>
1
3

$$$$
