310938706
  -OEChem-07211613022D

 19 20  0     1  0  0  0  0  0999 V2000
    3.7865    4.2039    0.0000 S   0  0  0  0  0  0  0  0  0  0  0  0
    0.1319    4.8149    0.0000 O   0  0  0  0  0  0  0  0  0  0  0  0
    1.6430    3.7914    0.0000 O   0  0  0  0  0  0  0  0  0  0  0  0
   -0.1689    5.9411    0.0000 O   0  0  0  0  0  0  0  0  0  0  0  0
    0.2141    3.7914    0.0000 O   0  0  0  0  0  0  0  0  0  0  0  0
    3.3740    4.9184    0.0000 O   0  0  0  0  0  0  0  0  0  0  0  0
    4.1990    3.4894    0.0000 O   0  0  0  0  0  0  0  0  0  0  0  0
    4.5009    4.6164    0.0000 O   0  0  0  0  0  0  0  0  0  0  0  0
    0.9286    5.0289    0.0000 C   0  0  3  0  0  0  0  0  0  0  0  0
    0.9286    6.4564    0.0000 C   0  0  0  0  0  0  0  0  0  0  0  0
    1.3423    5.7427    0.0000 C   0  0  3  0  0  0  0  0  0  0  0  0
    0.5455    5.5286    0.0000 C   0  0  0  0  0  0  0  0  0  0  0  0
    0.9286    4.2039    0.0000 C   0  0  0  0  0  0  0  0  0  0  0  0
    1.7254    4.8149    0.0000 C   0  0  0  0  0  0  0  0  0  0  0  0
    2.1390    5.5286    0.0000 C   0  0  0  0  0  0  0  0  0  0  0  0
    1.3411    7.1709    0.0000 C   0  0  0  0  0  0  0  0  0  0  0  0
    0.2141    6.8689    0.0000 C   0  0  0  0  0  0  0  0  0  0  0  0
    2.3575    4.2039    0.0000 C   0  0  0  0  0  0  0  0  0  0  0  0
    3.0720    3.7914    0.0000 C   0  0  0  0  0  0  0  0  0  0  0  0
  1  6  2  0  0  0  0
  1  7  2  0  0  0  0
  1  8  1  0  0  0  0
  1 19  1  0  0  0  0
  2  9  1  0  0  0  0
  2 12  1  0  0  0  0
  3 13  1  0  0  0  0
  3 18  1  0  0  0  0
  4 12  2  0  0  0  0
  5 13  2  0  0  0  0
  9 10  1  0  0  0  0
  9 13  1  0  0  0  0
  9 14  1  0  0  0  0
 10 11  1  0  0  0  0
 10 16  1  0  0  0  0
 10 17  1  0  0  0  0
 11 12  1  0  0  0  0
 11 15  1  0  0  0  0
 14 15  1  0  0  0  0
 18 19  1  0  0  0  0
M  END
> <PUBCHEM_COMPOUND_ID_TYPE>
0

> <PUBCHEM_TOTAL_CHARGE>
0

> <PUBCHEM_SUBSTANCE_ID>
310938706

> <PUBCHEM_SUBSTANCE_VERSION>
1

> <PUBCHEM_EXT_DATASOURCE_NAME>
4488

> <PUBCHEM_EXT_DATASOURCE_REGID>
SCHEMBL16116620

> <PUBCHEM_SUBSTANCE_COMMENT>
InChI=1S/C11H16O7S/c1-10(2)7-3-4-11(10,18-8(7)12)9(13)17-5-6-19(14,15)16/h7H,3-6H2,1-2H3,(H,14,15,16)
InChIKey=KORMITVJIGNCPC-UHFFFAOYSA-N

> <PUBCHEM_SUBSTANCE_SYNONYM>
SCHEMBL16116620

> <PUBCHEM_XREF_EXT_ID>
SCHEMBL16116620

> <PUBCHEM_EXT_DATASOURCE_URL>
https://www.surechembl.org/

> <PUBCHEM_EXT_SUBSTANCE_URL>
https://www.surechembl.org/chemical/SCHEMBL16116620

> <PUBCHEM_CID_ASSOCIATIONS>
117606135  1

> <PUBCHEM_COORDINATE_TYPE>
1
3

$$$$
