310931498
  -OEChem-07211613022D

 36 40  0     1  0  0  0  0  0999 V2000
    3.0013   -2.7212    0.0000 O   0  0  0  0  0  0  0  0  0  0  0  0
    2.1209   -6.4028    0.0000 O   0  0  0  0  0  0  0  0  0  0  0  0
    4.4419    0.0000    0.0000 O   0  0  0  0  0  0  0  0  0  0  0  0
    4.4419   -2.4811    0.0000 N   0  0  0  0  0  0  0  0  0  0  0  0
    4.8421   -3.7617    0.0000 N   0  0  0  0  0  0  0  0  0  0  0  0
    5.8826   -2.7212    0.0000 N   0  0  0  0  0  0  0  0  0  0  0  0
    3.8017   -8.0035    0.0000 N   0  0  0  0  0  0  0  0  0  0  0  0
    4.0417   -3.7617    0.0000 C   0  0  3  0  0  0  0  0  0  0  0  0
    3.8017   -2.9613    0.0000 C   0  0  0  0  0  0  0  0  0  0  0  0
    4.4019   -4.4819    0.0000 C   0  0  0  0  0  0  0  0  0  0  0  0
    3.5615   -4.4019    0.0000 C   0  0  0  0  0  0  0  0  0  0  0  0
    5.1222   -2.9613    0.0000 C   0  0  0  0  0  0  0  0  0  0  0  0
    4.4419   -1.6807    0.0000 C   0  0  0  0  0  0  0  0  0  0  0  0
    4.1218   -5.3223    0.0000 C   0  0  0  0  0  0  0  0  0  0  0  0
    5.2423   -4.5220    0.0000 C   0  0  0  0  0  0  0  0  0  0  0  0
    3.8817   -5.1622    0.0000 C   0  0  0  0  0  0  0  0  0  0  0  0
    2.7612   -4.3219    0.0000 C   0  0  0  0  0  0  0  0  0  0  0  0
    4.3219   -5.8826    0.0000 C   0  0  0  0  0  0  0  0  0  0  0  0
    5.1622   -1.2405    0.0000 C   0  0  0  0  0  0  0  0  0  0  0  0
    3.7216   -1.2405    0.0000 C   0  0  0  0  0  0  0  0  0  0  0  0
    5.6024   -5.2823    0.0000 C   0  0  0  0  0  0  0  0  0  0  0  0
    3.4015   -5.8426    0.0000 C   0  0  0  0  0  0  0  0  0  0  0  0
    2.2410   -5.0022    0.0000 C   0  0  0  0  0  0  0  0  0  0  0  0
    2.6011   -5.7625    0.0000 C   0  0  0  0  0  0  0  0  0  0  0  0
    5.1622   -5.9626    0.0000 C   0  0  0  0  0  0  0  0  0  0  0  0
    3.8817   -6.6029    0.0000 C   0  0  0  0  0  0  0  0  0  0  0  0
    5.1622   -0.4402    0.0000 C   0  0  0  0  0  0  0  0  0  0  0  0
    3.7216   -0.4402    0.0000 C   0  0  0  0  0  0  0  0  0  0  0  0
    4.2419   -7.3232    0.0000 C   0  0  0  0  0  0  0  0  0  0  0  0
    3.0413   -6.5628    0.0000 C   0  0  0  0  0  0  0  0  0  0  0  0
    2.6011   -7.2432    0.0000 C   0  0  0  0  0  0  0  0  0  0  0  0
    1.2806   -6.3228    0.0000 C   0  0  0  0  0  0  0  0  0  0  0  0
    2.9613   -7.9634    0.0000 C   0  0  0  0  0  0  0  0  0  0  0  0
    0.8004   -7.0030    0.0000 C   0  0  0  0  0  0  0  0  0  0  0  0
    0.0000   -6.8830    0.0000 C   0  0  0  0  0  0  0  0  0  0  0  0
    1.1205   -7.7234    0.0000 C   0  0  0  0  0  0  0  0  0  0  0  0
  1  9  2  0  0  0  0
  2 24  1  0  0  0  0
  2 32  1  0  0  0  0
  3 27  1  0  0  0  0
  3 28  1  0  0  0  0
  4  9  1  0  0  0  0
  4 12  1  0  0  0  0
  4 13  1  0  0  0  0
  5  8  1  0  0  0  0
  5 12  1  0  0  0  0
  6 12  2  3  0  0  0
  7 29  1  0  0  0  0
  7 33  2  0  0  0  0
  8  9  1  0  0  0  0
  8 10  1  0  0  0  0
  8 11  1  0  0  0  0
 10 14  1  0  0  0  0
 10 15  2  0  0  0  0
 11 16  2  0  0  0  0
 11 17  1  0  0  0  0
 13 19  1  0  0  0  0
 13 20  1  0  0  0  0
 14 18  2  0  0  0  0
 15 21  1  0  0  0  0
 16 22  1  0  0  0  0
 17 23  2  0  0  0  0
 18 25  1  0  0  0  0
 18 26  1  0  0  0  0
 19 27  1  0  0  0  0
 20 28  1  0  0  0  0
 21 25  2  0  0  0  0
 22 24  2  0  0  0  0
 23 24  1  0  0  0  0
 26 29  2  0  0  0  0
 26 30  1  0  0  0  0
 30 31  2  0  0  0  0
 31 33  1  0  0  0  0
 32 34  1  0  0  0  0
 34 35  1  0  0  0  0
 34 36  1  0  0  0  0
M  END
> <PUBCHEM_COMPOUND_ID_TYPE>
0

> <PUBCHEM_TOTAL_CHARGE>
0

> <PUBCHEM_SUBSTANCE_ID>
310931498

> <PUBCHEM_SUBSTANCE_VERSION>
1

> <PUBCHEM_EXT_DATASOURCE_NAME>
4488

> <PUBCHEM_EXT_DATASOURCE_REGID>
SCHEMBL16108823

> <PUBCHEM_SUBSTANCE_COMMENT>
InChI=1S/C29H32N4O3/c1-20(2)19-36-26-10-8-23(9-11-26)29(24-7-3-5-21(17-24)22-6-4-14-31-18-22)27(34)33(28(30)32-29)25-12-15-35-16-13-25/h3-11,14,17-18,20,25H,12-13,15-16,19H2,1-2H3,(H2,30,32)
InChIKey=FJLZTIALUKSBCG-UHFFFAOYSA-N

> <PUBCHEM_SUBSTANCE_SYNONYM>
SCHEMBL16108823

> <PUBCHEM_XREF_EXT_ID>
SCHEMBL16108823

> <PUBCHEM_EXT_DATASOURCE_URL>
https://www.surechembl.org/

> <PUBCHEM_EXT_SUBSTANCE_URL>
https://www.surechembl.org/chemical/SCHEMBL16108823

> <PUBCHEM_CID_ASSOCIATIONS>
86273601  1

> <PUBCHEM_COORDINATE_TYPE>
1
3

$$$$
