310939583
  -OEChem-07211613022D

 38 42  0     1  0  0  0  0  0999 V2000
   -0.3065    3.0596    0.0000 Cl  0  0  0  0  0  0  0  0  0  0  0  0
   -1.7355    0.5846    0.0000 O   0  0  0  0  0  0  0  0  0  0  0  0
    3.9803   -2.7154    0.0000 O   0  0  0  0  0  0  0  0  0  0  0  0
   -3.1644   -0.2404    0.0000 O   0  0  0  0  0  0  0  0  0  0  0  0
    1.8369    0.9971    0.0000 N   0  0  0  0  0  0  0  0  0  0  0  0
    1.1224   -0.2404    0.0000 N   0  0  0  0  0  0  0  0  0  0  0  0
    1.8369   -1.4779    0.0000 N   0  0  0  0  0  0  0  0  0  0  0  0
    4.6947    1.8221    0.0000 N   0  0  0  0  0  0  0  0  0  0  0  0
    4.1518    3.0416    0.0000 N   0  0  0  0  0  0  0  0  0  0  0  0
    4.9723    3.1279    0.0000 N   0  0  0  0  0  0  0  0  0  0  0  0
   -4.5934    0.5846    0.0000 N   0  0  0  0  0  0  0  0  0  0  0  0
    2.5513    0.5846    0.0000 C   0  0  0  0  0  0  0  0  0  0  0  0
    1.8369   -0.6529    0.0000 C   0  0  0  0  0  0  0  0  0  0  0  0
    2.5513   -0.2404    0.0000 C   0  0  0  0  0  0  0  0  0  0  0  0
    1.1224    0.5846    0.0000 C   0  0  0  0  0  0  0  0  0  0  0  0
    3.2658    0.9971    0.0000 C   0  0  0  0  0  0  0  0  0  0  0  0
    0.4079    0.9971    0.0000 C   0  0  0  0  0  0  0  0  0  0  0  0
    3.9803    2.2346    0.0000 C   0  0  0  0  0  0  0  0  0  0  0  0
    3.2658    1.8221    0.0000 C   0  0  0  0  0  0  0  0  0  0  0  0
    3.9803    0.5846    0.0000 C   0  0  0  0  0  0  0  0  0  0  0  0
    2.5513   -1.8904    0.0000 C   0  0  0  0  0  0  0  0  0  0  0  0
   -0.3065    0.5846    0.0000 C   0  0  0  0  0  0  0  0  0  0  0  0
    4.6947    0.9971    0.0000 C   0  0  0  0  0  0  0  0  0  0  0  0
    0.4079    1.8221    0.0000 C   0  0  0  0  0  0  0  0  0  0  0  0
    3.2658   -0.6529    0.0000 C   0  0  0  0  0  0  0  0  0  0  0  0
   -1.0210    0.9971    0.0000 C   0  0  0  0  0  0  0  0  0  0  0  0
   -0.3065    2.2346    0.0000 C   0  0  0  0  0  0  0  0  0  0  0  0
    5.3078    2.3742    0.0000 C   0  0  0  0  0  0  0  0  0  0  0  0
   -1.0210    1.8221    0.0000 C   0  0  0  0  0  0  0  0  0  0  0  0
    1.1224   -1.8904    0.0000 C   0  0  0  0  0  0  0  0  0  0  0  0
    2.5513   -2.7154    0.0000 C   0  0  0  0  0  0  0  0  0  0  0  0
    3.2658   -1.4779    0.0000 C   0  0  0  0  0  0  0  0  0  0  0  0
    3.2658   -3.1279    0.0000 C   0  0  0  0  0  0  0  0  0  0  0  0
    3.9803   -1.8904    0.0000 C   0  0  0  0  0  0  0  0  0  0  0  0
   -2.4500    0.9971    0.0000 C   0  0  0  0  0  0  0  0  0  0  0  0
   -3.1644    0.5846    0.0000 C   0  0  3  0  0  0  0  0  0  0  0  0
   -3.8789    0.9971    0.0000 C   0  0  0  0  0  0  0  0  0  0  0  0
   -5.3078    0.9971    0.0000 C   0  0  0  0  0  0  0  0  0  0  0  0
  1 27  1  0  0  0  0
  2 26  1  0  0  0  0
  2 35  1  0  0  0  0
  3 33  1  0  0  0  0
  3 34  1  0  0  0  0
  4 36  1  0  0  0  0
  5 12  1  0  0  0  0
  5 15  2  0  0  0  0
  6 13  2  0  0  0  0
  6 15  1  0  0  0  0
  7 13  1  0  0  0  0
  7 21  1  0  0  0  0
  7 30  1  0  0  0  0
  8 18  1  0  0  0  0
  8 23  1  0  0  0  0
  8 28  1  0  0  0  0
  9 10  1  0  0  0  0
  9 18  2  0  0  0  0
 10 28  2  0  0  0  0
 11 37  1  0  0  0  0
 11 38  1  0  0  0  0
 12 14  2  0  0  0  0
 12 16  1  0  0  0  0
 13 14  1  0  0  0  0
 14 25  1  0  0  0  0
 15 17  1  0  0  0  0
 16 19  2  0  0  0  0
 16 20  1  0  0  0  0
 17 22  2  0  0  0  0
 17 24  1  0  0  0  0
 18 19  1  0  0  0  0
 20 23  2  0  0  0  0
 21 31  1  0  0  0  0
 21 32  1  0  0  0  0
 22 26  1  0  0  0  0
 24 27  2  0  0  0  0
 26 29  2  0  0  0  0
 27 29  1  0  0  0  0
 31 33  1  0  0  0  0
 32 34  1  0  0  0  0
 35 36  1  0  0  0  0
 36 37  1  0  0  0  0
M  END
> <PUBCHEM_COMPOUND_ID_TYPE>
0

> <PUBCHEM_TOTAL_CHARGE>
0

> <PUBCHEM_SUBSTANCE_ID>
310939583

> <PUBCHEM_SUBSTANCE_VERSION>
1

> <PUBCHEM_EXT_DATASOURCE_NAME>
4488

> <PUBCHEM_EXT_DATASOURCE_REGID>
SCHEMBL16117512

> <PUBCHEM_SUBSTANCE_COMMENT>
InChI=1S/C27H32ClN7O3/c1-17-25(18-4-7-35-16-30-33-24(35)12-18)31-26(32-27(17)34(3)21-5-8-37-9-6-21)19-10-20(28)13-23(11-19)38-15-22(36)14-29-2/h4,7,10-13,16,21-22,29,36H,5-6,8-9,14-15H2,1-3H3
InChIKey=XXCAQOMSCRVPAS-UHFFFAOYSA-N

> <PUBCHEM_SUBSTANCE_SYNONYM>
SCHEMBL16117512

> <PUBCHEM_XREF_EXT_ID>
SCHEMBL16117512

> <PUBCHEM_EXT_DATASOURCE_URL>
https://www.surechembl.org/

> <PUBCHEM_EXT_SUBSTANCE_URL>
https://www.surechembl.org/chemical/SCHEMBL16117512

> <PUBCHEM_CID_ASSOCIATIONS>
85473055  1

> <PUBCHEM_COORDINATE_TYPE>
1
3

$$$$
