310947222
  -OEChem-07211613022D

 26 27  0     1  0  0  0  0  0999 V2000
   -0.2166   14.4307    0.0000 F   0  0  0  0  0  0  0  0  0  0  0  0
    3.5543   14.1600    0.0000 F   0  0  0  0  0  0  0  0  0  0  0  0
    3.1845   12.7797    0.0000 F   0  0  0  0  0  0  0  0  0  0  0  0
    0.2104   12.8370    0.0000 O   0  0  0  0  0  0  0  0  0  0  0  0
    1.4350   16.2649    0.0000 N   0  0  0  0  0  0  0  0  0  0  0  0
    0.9501   16.9323    0.0000 N   0  0  0  0  0  0  0  0  0  0  0  0
   -1.2635   15.8524    0.0000 N   0  0  3  0  0  0  0  0  0  0  0  0
   -3.4069   15.4399    0.0000 N   0  0  0  0  0  0  0  0  0  0  0  0
    1.1636   14.8006    0.0000 C   0  0  0  0  0  0  0  0  0  0  0  0
    0.9501   15.5975    0.0000 C   0  0  0  0  0  0  0  0  0  0  0  0
    0.5803   14.2172    0.0000 C   0  0  0  0  0  0  0  0  0  0  0  0
    2.1740   13.7902    0.0000 C   0  0  0  0  0  0  0  0  0  0  0  0
    0.7938   13.4203    0.0000 C   0  0  0  0  0  0  0  0  0  0  0  0
    1.9605   14.5870    0.0000 C   0  0  0  0  0  0  0  0  0  0  0  0
    0.1655   15.8524    0.0000 C   0  0  0  0  0  0  0  0  0  0  0  0
    2.9709   13.5766    0.0000 C   0  0  0  0  0  0  0  0  0  0  0  0
    1.5907   13.2068    0.0000 C   0  0  0  0  0  0  0  0  0  0  0  0
    0.1655   16.6774    0.0000 C   0  0  0  0  0  0  0  0  0  0  0  0
   -0.5490   15.4399    0.0000 C   0  0  0  0  0  0  0  0  0  0  0  0
    3.7678   13.3631    0.0000 C   0  0  0  0  0  0  0  0  0  0  0  0
   -0.5865   13.0505    0.0000 C   0  0  0  0  0  0  0  0  0  0  0  0
   -1.9779   15.4399    0.0000 C   0  0  0  0  0  0  0  0  0  0  0  0
   -1.2635   16.6774    0.0000 C   0  0  0  0  0  0  0  0  0  0  0  0
   -1.1698   12.4671    0.0000 C   0  0  0  0  0  0  0  0  0  0  0  0
   -0.8000   13.8474    0.0000 C   0  0  0  0  0  0  0  0  0  0  0  0
   -2.6924   15.8524    0.0000 C   0  0  0  0  0  0  0  0  0  0  0  0
  1 11  1  0  0  0  0
  2 16  1  0  0  0  0
  3 16  1  0  0  0  0
  4 13  1  0  0  0  0
  4 21  1  0  0  0  0
  5  6  1  0  0  0  0
  5 10  2  0  0  0  0
  6 18  1  0  0  0  0
  7 19  1  0  0  0  0
  7 22  1  0  0  0  0
  7 23  1  0  0  0  0
  8 26  1  0  0  0  0
  9 10  1  0  0  0  0
  9 11  1  0  0  0  0
  9 14  2  0  0  0  0
 10 15  1  0  0  0  0
 11 13  2  0  0  0  0
 12 14  1  0  0  0  0
 12 16  1  0  0  0  0
 12 17  2  0  0  0  0
 13 17  1  0  0  0  0
 15 18  2  0  0  0  0
 15 19  1  0  0  0  0
 16 20  1  0  0  0  0
 21 24  1  0  0  0  0
 21 25  1  0  0  0  0
 22 26  1  0  0  0  0
M  END
> <PUBCHEM_COMPOUND_ID_TYPE>
0

> <PUBCHEM_TOTAL_CHARGE>
0

> <PUBCHEM_SUBSTANCE_ID>
310947222

> <PUBCHEM_SUBSTANCE_VERSION>
1

> <PUBCHEM_EXT_DATASOURCE_NAME>
4488

> <PUBCHEM_EXT_DATASOURCE_REGID>
SCHEMBL16125377

> <PUBCHEM_SUBSTANCE_COMMENT>
InChI=1S/C18H25F3N4O/c1-11(2)26-15-8-13(18(3,20)21)7-14(16(15)19)17-12(9-23-24-17)10-25(4)6-5-22/h7-9,11H,5-6,10,22H2,1-4H3,(H,23,24)
InChIKey=QQRMQNHBZITOOE-UHFFFAOYSA-N

> <PUBCHEM_SUBSTANCE_SYNONYM>
SCHEMBL16125377

> <PUBCHEM_XREF_EXT_ID>
SCHEMBL16125377

> <PUBCHEM_EXT_DATASOURCE_URL>
https://www.surechembl.org/

> <PUBCHEM_EXT_SUBSTANCE_URL>
https://www.surechembl.org/chemical/SCHEMBL16125377

> <PUBCHEM_CID_ASSOCIATIONS>
117613037  1

> <PUBCHEM_COORDINATE_TYPE>
1
3

$$$$
