310945398
  -OEChem-07211613022D

 26 30  0     1  0  0  0  0  0999 V2000
    3.7585    1.3581    0.0000 O   0  0  0  0  0  0  0  0  0  0  0  0
   -0.9949   -0.9001    0.0000 O   0  0  0  0  0  0  0  0  0  0  0  0
    1.9582    0.1105    0.0000 N   0  0  0  0  0  0  0  0  0  0  0  0
    3.6164   -0.0632    0.0000 N   0  0  0  0  0  0  0  0  0  0  0  0
   -1.7214    0.3632    0.0000 N   0  0  0  0  0  0  0  0  0  0  0  0
   -3.2374    1.1844    0.0000 N   0  0  0  0  0  0  0  0  0  0  0  0
    2.2899   -0.6633    0.0000 C   0  0  0  0  0  0  0  0  0  0  0  0
    1.1529    0.3790    0.0000 C   0  0  0  0  0  0  0  0  0  0  0  0
    2.4319    0.7738    0.0000 C   0  0  0  0  0  0  0  0  0  0  0  0
    1.1686    1.2002    0.0000 C   0  0  0  0  0  0  0  0  0  0  0  0
    1.9582    1.4371    0.0000 C   0  0  0  0  0  0  0  0  0  0  0  0
    3.2532    0.6633    0.0000 C   0  0  0  0  0  0  0  0  0  0  0  0
    3.1111   -0.7581    0.0000 C   0  0  0  0  0  0  0  0  0  0  0  0
    1.4845   -0.8054    0.0000 C   0  0  0  0  0  0  0  0  0  0  0  0
    2.4004   -1.4845    0.0000 C   0  0  0  0  0  0  0  0  0  0  0  0
    0.4422   -0.0474    0.0000 C   0  0  0  0  0  0  0  0  0  0  0  0
    1.5950   -1.5950    0.0000 C   0  0  0  0  0  0  0  0  0  0  0  0
   -0.3000    0.3632    0.0000 C   0  0  0  0  0  0  0  0  0  0  0  0
    0.4422    1.5950    0.0000 C   0  0  0  0  0  0  0  0  0  0  0  0
   -0.2843    1.1844    0.0000 C   0  0  0  0  0  0  0  0  0  0  0  0
   -0.9949   -0.0316    0.0000 C   0  0  0  0  0  0  0  0  0  0  0  0
   -2.4478   -0.0474    0.0000 C   0  0  3  0  0  0  0  0  0  0  0  0
   -3.1584    0.3632    0.0000 C   0  0  3  0  0  0  0  0  0  0  0  0
   -2.6215   -0.8686    0.0000 C   0  0  0  0  0  0  0  0  0  0  0  0
   -3.7585   -0.2211    0.0000 C   0  0  0  0  0  0  0  0  0  0  0  0
   -3.4427   -0.9475    0.0000 C   0  0  0  0  0  0  0  0  0  0  0  0
  1 12  2  0  0  0  0
  2 21  2  0  0  0  0
  3  7  1  0  0  0  0
  3  8  1  0  0  0  0
  3  9  1  0  0  0  0
  4 12  1  0  0  0  0
  4 13  1  0  0  0  0
  5 21  1  0  0  0  0
  5 22  1  0  0  0  0
  6 23  1  0  0  0  0
  7 13  1  0  0  0  0
  7 14  1  0  0  0  0
  7 15  1  0  0  0  0
  8 10  1  0  0  0  0
  8 16  2  0  0  0  0
  9 11  2  0  0  0  0
  9 12  1  0  0  0  0
 10 11  1  0  0  0  0
 10 19  2  0  0  0  0
 14 17  1  0  0  0  0
 15 17  1  0  0  0  0
 16 18  1  0  0  0  0
 18 20  2  0  0  0  0
 18 21  1  0  0  0  0
 19 20  1  0  0  0  0
 22 23  1  0  0  0  0
 22 24  1  0  0  0  0
 23 25  1  0  0  0  0
 24 26  1  0  0  0  0
 25 26  1  0  0  0  0
M  END
> <PUBCHEM_COMPOUND_ID_TYPE>
0

> <PUBCHEM_TOTAL_CHARGE>
0

> <PUBCHEM_SUBSTANCE_ID>
310945398

> <PUBCHEM_SUBSTANCE_VERSION>
1

> <PUBCHEM_EXT_DATASOURCE_NAME>
4488

> <PUBCHEM_EXT_DATASOURCE_REGID>
SCHEMBL16123496

> <PUBCHEM_SUBSTANCE_COMMENT>
InChI=1S/C20H24N4O2/c21-14-3-1-4-15(14)23-18(25)13-6-5-12-9-17-19(26)22-11-20(7-2-8-20)24(17)16(12)10-13/h5-6,9-10,14-15H,1-4,7-8,11,21H2,(H,22,26)(H,23,25)
InChIKey=HZMVNSCPYAPPAM-UHFFFAOYSA-N

> <PUBCHEM_SUBSTANCE_SYNONYM>
SCHEMBL16123496

> <PUBCHEM_XREF_EXT_ID>
SCHEMBL16123496

> <PUBCHEM_EXT_DATASOURCE_URL>
https://www.surechembl.org/

> <PUBCHEM_EXT_SUBSTANCE_URL>
https://www.surechembl.org/chemical/SCHEMBL16123496

> <PUBCHEM_CID_ASSOCIATIONS>
117611446  1

> <PUBCHEM_COORDINATE_TYPE>
1
3

$$$$
