310936090
  -OEChem-07211613022D

 27 30  0     1  0  0  0  0  0999 V2000
   -7.3653   -2.8461    0.0000 F   0  0  0  0  0  0  0  0  0  0  0  0
   -4.6052   -0.2626    0.0000 O   0  0  0  0  0  0  0  0  0  0  0  0
   -4.4190   -2.4374    0.0000 O   0  0  0  0  0  0  0  0  0  0  0  0
   -4.7545   -1.6838    0.0000 N   0  0  0  0  0  0  0  0  0  0  0  0
    0.7144   -0.8250    0.0000 N   0  0  0  0  0  0  0  0  0  0  0  0
    0.7144    0.8250    0.0000 N   0  0  0  0  0  0  0  0  0  0  0  0
   -2.1434   -0.8250    0.0000 C   0  0  0  0  0  0  0  0  0  0  0  0
   -3.4491   -1.1026    0.0000 C   0  0  3  0  0  0  0  0  0  0  0  0
   -1.4290   -0.4125    0.0000 C   0  0  0  0  0  0  0  0  0  0  0  0
   -4.2696   -1.0163    0.0000 C   0  0  0  0  0  0  0  0  0  0  0  0
   -5.5750   -1.5975    0.0000 C   0  0  0  0  0  0  0  0  0  0  0  0
   -2.8971   -0.4895    0.0000 C   0  0  0  0  0  0  0  0  0  0  0  0
    0.0000   -0.4125    0.0000 C   0  0  0  0  0  0  0  0  0  0  0  0
   -6.0599   -2.2649    0.0000 C   0  0  0  0  0  0  0  0  0  0  0  0
    0.0000    0.4125    0.0000 C   0  0  0  0  0  0  0  0  0  0  0  0
   -0.7144   -0.8250    0.0000 C   0  0  0  0  0  0  0  0  0  0  0  0
   -2.2296   -1.6455    0.0000 C   0  0  0  0  0  0  0  0  0  0  0  0
   -3.0366   -1.8170    0.0000 C   0  0  0  0  0  0  0  0  0  0  0  0
   -1.4290    0.4125    0.0000 C   0  0  0  0  0  0  0  0  0  0  0  0
   -6.8804   -2.1787    0.0000 C   0  0  0  0  0  0  0  0  0  0  0  0
   -0.7144    0.8250    0.0000 C   0  0  0  0  0  0  0  0  0  0  0  0
   -5.9105   -0.8439    0.0000 C   0  0  0  0  0  0  0  0  0  0  0  0
   -7.2160   -1.4250    0.0000 C   0  0  0  0  0  0  0  0  0  0  0  0
   -6.7311   -0.7576    0.0000 C   0  0  0  0  0  0  0  0  0  0  0  0
    1.4290   -0.4125    0.0000 C   0  0  0  0  0  0  0  0  0  0  0  0
    1.4290    0.4125    0.0000 C   0  0  0  0  0  0  0  0  0  0  0  0
   -5.7244   -3.0186    0.0000 C   0  0  0  0  0  0  0  0  0  0  0  0
  1 20  1  0  0  0  0
  2 10  2  0  0  0  0
  3  4  1  0  0  0  0
  4 10  1  0  0  0  0
  4 11  1  0  0  0  0
  5 13  1  0  0  0  0
  5 25  2  0  0  0  0
  6 15  1  0  0  0  0
  6 26  2  0  0  0  0
  7  9  1  0  0  0  0
  7 12  2  0  0  0  0
  7 17  1  0  0  0  0
  8 10  1  0  0  0  0
  8 12  1  0  0  0  0
  8 18  1  0  0  0  0
  9 16  1  0  0  0  0
  9 19  2  0  0  0  0
 11 14  1  0  0  0  0
 11 22  2  0  0  0  0
 13 15  1  0  0  0  0
 13 16  2  0  0  0  0
 14 20  2  0  0  0  0
 14 27  1  0  0  0  0
 15 21  2  0  0  0  0
 17 18  1  0  0  0  0
 19 21  1  0  0  0  0
 20 23  1  0  0  0  0
 22 24  1  0  0  0  0
 23 24  2  0  0  0  0
 25 26  1  0  0  0  0
M  END
> <PUBCHEM_COMPOUND_ID_TYPE>
0

> <PUBCHEM_TOTAL_CHARGE>
0

> <PUBCHEM_SUBSTANCE_ID>
310936090

> <PUBCHEM_SUBSTANCE_VERSION>
1

> <PUBCHEM_EXT_DATASOURCE_NAME>
4488

> <PUBCHEM_EXT_DATASOURCE_REGID>
SCHEMBL16113697

> <PUBCHEM_SUBSTANCE_COMMENT>
InChI=1S/C21H18FN3O2/c1-13-17(22)3-2-4-20(13)25(27)21(26)16-6-5-14(11-16)15-7-8-18-19(12-15)24-10-9-23-18/h2-4,7-12,16,27H,5-6H2,1H3
InChIKey=JHUDPQMVCNARPC-UHFFFAOYSA-N

> <PUBCHEM_SUBSTANCE_SYNONYM>
SCHEMBL16113697

> <PUBCHEM_XREF_EXT_ID>
SCHEMBL16113697

> <PUBCHEM_EXT_DATASOURCE_URL>
https://www.surechembl.org/

> <PUBCHEM_EXT_SUBSTANCE_URL>
https://www.surechembl.org/chemical/SCHEMBL16113697

> <PUBCHEM_CID_ASSOCIATIONS>
117604057  1

> <PUBCHEM_COORDINATE_TYPE>
1
3

$$$$
