310946455
  -OEChem-07211613022D

 17 17  0     1  0  0  0  0  0999 V2000
   -1.4289  -11.7769    0.0000 O   0  0  0  0  0  0  0  0  0  0  0  0
   -2.1434  -13.0144    0.0000 O   0  0  0  0  0  0  0  0  0  0  0  0
   -3.5724  -10.5394    0.0000 O   0  0  0  0  0  0  0  0  0  0  0  0
   -3.5724  -12.1894    0.0000 N   0  0  0  0  0  0  0  0  0  0  0  0
   -2.1434  -12.1894    0.0000 C   0  0  0  0  0  0  0  0  0  0  0  0
   -2.8579  -11.7769    0.0000 C   0  0  3  0  0  0  0  0  0  0  0  0
    0.0000  -11.7769    0.0000 C   0  0  0  0  0  0  0  0  0  0  0  0
   -2.8579  -10.9519    0.0000 C   0  0  3  0  0  0  0  0  0  0  0  0
   -0.7145  -12.1894    0.0000 C   0  0  0  0  0  0  0  0  0  0  0  0
    1.4289  -10.9519    0.0000 C   0  0  0  0  0  0  0  0  0  0  0  0
    0.7145  -12.1894    0.0000 C   0  0  0  0  0  0  0  0  0  0  0  0
    0.0000  -10.9519    0.0000 C   0  0  0  0  0  0  0  0  0  0  0  0
    1.4289  -11.7769    0.0000 C   0  0  0  0  0  0  0  0  0  0  0  0
    0.7145  -10.5394    0.0000 C   0  0  0  0  0  0  0  0  0  0  0  0
   -2.1434  -10.5394    0.0000 C   0  0  0  0  0  0  0  0  0  0  0  0
    2.1434  -10.5394    0.0000 C   0  0  0  0  0  0  0  0  0  0  0  0
    2.8579  -10.9519    0.0000 C   0  0  0  0  0  0  0  0  0  0  0  0
  1  5  1  0  0  0  0
  1  9  1  0  0  0  0
  2  5  2  0  0  0  0
  3  8  1  0  0  0  0
  4  6  1  0  0  0  0
  5  6  1  0  0  0  0
  6  8  1  0  0  0  0
  7  9  1  0  0  0  0
  7 11  2  0  0  0  0
  7 12  1  0  0  0  0
  8 15  1  0  0  0  0
 10 13  2  0  0  0  0
 10 14  1  0  0  0  0
 10 16  1  0  0  0  0
 11 13  1  0  0  0  0
 12 14  2  0  0  0  0
 16 17  1  0  0  0  0
M  END
> <PUBCHEM_COMPOUND_ID_TYPE>
0

> <PUBCHEM_TOTAL_CHARGE>
0

> <PUBCHEM_SUBSTANCE_ID>
310946455

> <PUBCHEM_SUBSTANCE_VERSION>
1

> <PUBCHEM_EXT_DATASOURCE_NAME>
4488

> <PUBCHEM_EXT_DATASOURCE_REGID>
SCHEMBL16124576

> <PUBCHEM_SUBSTANCE_COMMENT>
InChI=1S/C13H19NO3/c1-3-10-4-6-11(7-5-10)8-17-13(16)12(14)9(2)15/h4-7,9,12,15H,3,8,14H2,1-2H3
InChIKey=STSHGUHNTPRGAN-UHFFFAOYSA-N

> <PUBCHEM_SUBSTANCE_SYNONYM>
SCHEMBL16124576

> <PUBCHEM_XREF_EXT_ID>
SCHEMBL16124576

> <PUBCHEM_EXT_DATASOURCE_URL>
https://www.surechembl.org/

> <PUBCHEM_EXT_SUBSTANCE_URL>
https://www.surechembl.org/chemical/SCHEMBL16124576

> <PUBCHEM_CID_ASSOCIATIONS>
117612366  1

> <PUBCHEM_COORDINATE_TYPE>
1
3

$$$$
