310944306
  -OEChem-07211613022D

 33 36  0     1  0  0  0  0  0999 V2000
   -3.3381   -0.5192    0.0000 Cl  0  0  0  0  0  0  0  0  0  0  0  0
   -2.4479    2.3738    0.0000 Cl  0  0  0  0  0  0  0  0  0  0  0  0
   -5.3039    0.7294    0.0000 F   0  0  0  0  0  0  0  0  0  0  0  0
   -0.3215   -0.5069    0.0000 O   0  0  0  0  0  0  0  0  0  0  0  0
    1.1004    1.9657    0.0000 O   0  0  0  0  0  0  0  0  0  0  0  0
    5.3039   -0.7665    0.0000 O   0  0  0  0  0  0  0  0  0  0  0  0
    1.8421    0.7294    0.0000 N   0  0  0  0  0  0  0  0  0  0  0  0
    3.9068   -0.7665    0.0000 N   0  0  0  0  0  0  0  0  0  0  0  0
   -0.3091    1.1374    0.0000 N   0  0  0  0  0  0  0  0  0  0  0  0
    2.6210   -0.3462    0.0000 C   0  0  3  0  0  0  0  0  0  0  0  0
    3.1032    0.3215    0.0000 C   0  0  3  0  0  0  0  0  0  0  0  0
   -2.4479    0.7294    0.0000 C   0  0  0  0  0  0  0  0  0  0  0  0
   -3.1774    1.1498    0.0000 C   0  0  0  0  0  0  0  0  0  0  0  0
    1.8421   -0.0989    0.0000 C   0  0  0  0  0  0  0  0  0  0  0  0
    2.6210    0.9767    0.0000 C   0  0  0  0  0  0  0  0  0  0  0  0
   -1.0262    0.7294    0.0000 C   0  0  0  0  0  0  0  0  0  0  0  0
    3.1155   -1.0138    0.0000 C   0  0  0  0  0  0  0  0  0  0  0  0
    3.8944    0.0618    0.0000 C   0  0  0  0  0  0  0  0  0  0  0  0
   -2.4479   -0.0866    0.0000 C   0  0  0  0  0  0  0  0  0  0  0  0
   -1.0385   -0.0866    0.0000 C   0  0  0  0  0  0  0  0  0  0  0  0
   -1.7432    1.1374    0.0000 C   0  0  0  0  0  0  0  0  0  0  0  0
    1.1127    1.1250    0.0000 C   0  0  0  0  0  0  0  0  0  0  0  0
   -1.7308   -0.5069    0.0000 C   0  0  0  0  0  0  0  0  0  0  0  0
   -3.1650    1.9781    0.0000 C   0  0  0  0  0  0  0  0  0  0  0  0
    4.5992   -1.1745    0.0000 C   0  0  0  0  0  0  0  0  0  0  0  0
   -3.8821    0.7294    0.0000 C   0  0  0  0  0  0  0  0  0  0  0  0
    0.4080    0.7294    0.0000 C   0  0  0  0  0  0  0  0  0  0  0  0
   -4.5992    1.1374    0.0000 C   0  0  0  0  0  0  0  0  0  0  0  0
   -3.8821    2.3738    0.0000 C   0  0  0  0  0  0  0  0  0  0  0  0
   -4.5868    1.9657    0.0000 C   0  0  0  0  0  0  0  0  0  0  0  0
    4.6115   -2.0029    0.0000 C   0  0  0  0  0  0  0  0  0  0  0  0
    0.4080   -0.0989    0.0000 C   0  0  0  0  0  0  0  0  0  0  0  0
    3.8697   -2.3738    0.0000 C   0  0  0  0  0  0  0  0  0  0  0  0
  1 19  1  0  0  0  0
  2 24  1  0  0  0  0
  3 28  1  0  0  0  0
  4 20  1  0  0  0  0
  4 32  1  0  0  0  0
  5 22  2  0  0  0  0
  6 25  2  0  0  0  0
  7 14  1  0  0  0  0
  7 15  1  0  0  0  0
  7 22  1  0  0  0  0
  8 17  1  0  0  0  0
  8 18  1  0  0  0  0
  8 25  1  0  0  0  0
  9 16  1  0  0  0  0
  9 27  1  0  0  0  0
 10 11  1  0  0  0  0
 10 14  1  0  0  0  0
 10 17  1  0  0  0  0
 11 15  1  0  0  0  0
 11 18  1  0  0  0  0
 12 13  1  0  0  0  0
 12 19  2  0  0  0  0
 12 21  1  0  0  0  0
 13 24  1  0  0  0  0
 13 26  2  0  0  0  0
 16 20  1  0  0  0  0
 16 21  2  0  0  0  0
 19 23  1  0  0  0  0
 20 23  2  0  0  0  0
 22 27  1  0  0  0  0
 24 29  2  0  0  0  0
 25 31  1  0  0  0  0
 26 28  1  0  0  0  0
 28 30  2  0  0  0  0
 29 30  1  0  0  0  0
 31 33  2  0  0  0  0
M  END
> <PUBCHEM_COMPOUND_ID_TYPE>
0

> <PUBCHEM_TOTAL_CHARGE>
0

> <PUBCHEM_SUBSTANCE_ID>
310944306

> <PUBCHEM_SUBSTANCE_VERSION>
1

> <PUBCHEM_EXT_DATASOURCE_NAME>
4488

> <PUBCHEM_EXT_DATASOURCE_REGID>
SCHEMBL16122381

> <PUBCHEM_SUBSTANCE_COMMENT>
InChI=1S/C24H24Cl2FN3O3/c1-3-23(31)29-10-14-12-30(13-15(14)11-29)24(32)9-28-21-7-18(20(26)8-22(21)33-2)17-6-16(27)4-5-19(17)25/h3-8,14-15,28H,1,9-13H2,2H3
InChIKey=UVFZLAQIBNDGSD-UHFFFAOYSA-N

> <PUBCHEM_SUBSTANCE_SYNONYM>
SCHEMBL16122381

> <PUBCHEM_XREF_EXT_ID>
SCHEMBL16122381

> <PUBCHEM_EXT_DATASOURCE_URL>
https://www.surechembl.org/

> <PUBCHEM_EXT_SUBSTANCE_URL>
https://www.surechembl.org/chemical/SCHEMBL16122381

> <PUBCHEM_CID_ASSOCIATIONS>
117610571  1

> <PUBCHEM_COORDINATE_TYPE>
1
3

$$$$
