310936445
  -OEChem-07211613022D

 26 31  0     1  0  0  0  0  0999 V2000
    1.5406    0.0881    0.0000 O   0  0  0  0  0  0  0  0  0  0  0  0
    2.2944    0.5775    0.0000 O   0  0  0  0  0  0  0  0  0  0  0  0
   -4.8004   -2.2294    0.0000 O   0  0  0  0  0  0  0  0  0  0  0  0
    0.2711    0.5006    0.0000 C   0  0  3  0  0  0  0  0  0  0  0  0
   -0.5136    0.2456    0.0000 C   0  0  3  0  0  0  0  0  0  0  0  0
   -0.5136   -0.5794    0.0000 C   0  0  3  0  0  0  0  0  0  0  0  0
    0.7560   -0.1669    0.0000 C   0  0  3  0  0  0  0  0  0  0  0  0
    1.5406    0.9131    0.0000 C   0  0  3  0  0  0  0  0  0  0  0  0
   -1.2280   -0.9919    0.0000 C   0  0  3  0  0  0  0  0  0  0  0  0
   -1.9425   -0.5794    0.0000 C   0  0  3  0  0  0  0  0  0  0  0  0
    0.2711   -0.8343    0.0000 C   0  0  0  0  0  0  0  0  0  0  0  0
    0.7560    1.1680    0.0000 C   0  0  0  0  0  0  0  0  0  0  0  0
   -2.6570   -0.9919    0.0000 C   0  0  3  0  0  0  0  0  0  0  0  0
   -1.2280    0.6581    0.0000 C   0  0  0  0  0  0  0  0  0  0  0  0
   -1.9425    0.2456    0.0000 C   0  0  0  0  0  0  0  0  0  0  0  0
   -2.6570   -1.8169    0.0000 C   0  0  3  0  0  0  0  0  0  0  0  0
   -1.2280   -1.8169    0.0000 C   0  0  0  0  0  0  0  0  0  0  0  0
    1.4544    1.7336    0.0000 C   0  0  0  0  0  0  0  0  0  0  0  0
   -1.9425   -2.2294    0.0000 C   0  0  0  0  0  0  0  0  0  0  0  0
   -3.3715   -0.5794    0.0000 C   0  0  0  0  0  0  0  0  0  0  0  0
   -3.3715   -2.2294    0.0000 C   0  0  0  0  0  0  0  0  0  0  0  0
    2.9618    1.0624    0.0000 C   0  0  0  0  0  0  0  0  0  0  0  0
    2.1219    2.2185    0.0000 C   0  0  0  0  0  0  0  0  0  0  0  0
   -4.0859   -1.8169    0.0000 C   0  0  3  0  0  0  0  0  0  0  0  0
   -4.0859   -0.9919    0.0000 C   0  0  0  0  0  0  0  0  0  0  0  0
    2.8755    1.8830    0.0000 C   0  0  0  0  0  0  0  0  0  0  0  0
  1  7  1  0  0  0  0
  1  8  1  0  0  0  0
  2  8  1  0  0  0  0
  2 22  1  0  0  0  0
  3 24  1  0  0  0  0
  4  5  1  0  0  0  0
  4  7  1  0  0  0  0
  4 12  1  0  0  0  0
  5  6  1  0  0  0  0
  5 14  1  0  0  0  0
  6  9  1  0  0  0  0
  6 11  1  0  0  0  0
  7 11  1  0  0  0  0
  8 12  1  0  0  0  0
  8 18  1  0  0  0  0
  9 10  1  0  0  0  0
  9 17  1  0  0  0  0
 10 13  1  0  0  0  0
 10 15  1  0  0  0  0
 13 16  1  0  0  0  0
 13 20  1  0  0  0  0
 14 15  1  0  0  0  0
 16 19  1  0  0  0  0
 16 21  1  0  0  0  0
 17 19  1  0  0  0  0
 18 23  1  0  0  0  0
 20 25  1  0  0  0  0
 21 24  1  0  0  0  0
 22 26  2  0  0  0  0
 23 26  1  0  0  0  0
 24 25  1  0  0  0  0
M  END
> <PUBCHEM_COMPOUND_ID_TYPE>
0

> <PUBCHEM_TOTAL_CHARGE>
0

> <PUBCHEM_SUBSTANCE_ID>
310936445

> <PUBCHEM_SUBSTANCE_VERSION>
1

> <PUBCHEM_EXT_DATASOURCE_NAME>
4488

> <PUBCHEM_EXT_DATASOURCE_REGID>
SCHEMBL16114087

> <PUBCHEM_SUBSTANCE_COMMENT>
InChI=1S/C23H34O3/c24-15-4-6-16-14(11-15)3-5-18-17(16)7-8-19-20(18)12-22-21(19)13-23(26-22)9-1-2-10-25-23/h2,10,14-22,24H,1,3-9,11-13H2
InChIKey=KPSXNOGEDPWNRS-UHFFFAOYSA-N

> <PUBCHEM_SUBSTANCE_SYNONYM>
SCHEMBL16114087

> <PUBCHEM_XREF_EXT_ID>
SCHEMBL16114087

> <PUBCHEM_EXT_DATASOURCE_URL>
https://www.surechembl.org/

> <PUBCHEM_EXT_SUBSTANCE_URL>
https://www.surechembl.org/chemical/SCHEMBL16114087

> <PUBCHEM_CID_ASSOCIATIONS>
117604378  1

> <PUBCHEM_COORDINATE_TYPE>
1
3

$$$$
