310942548
  -OEChem-07211613022D

 18 19  0     1  0  0  0  0  0999 V2000
   -2.2115   -0.6072    0.0000 S   0  0  3  0  0  0  0  0  0  0  0  0
   -2.2204   -1.4315    0.0000 O   0  0  0  0  0  0  0  0  0  0  0  0
   -0.7756   -0.6072    0.0000 N   0  0  0  0  0  0  0  0  0  0  0  0
   -1.4936    0.6249    0.0000 N   0  0  0  0  0  0  0  0  0  0  0  0
    0.6692   -0.6072    0.0000 N   0  0  0  0  0  0  0  0  0  0  0  0
    2.8409    1.4315    0.0000 N   0  0  0  0  0  0  0  0  0  0  0  0
   -0.0488   -0.1995    0.0000 C   0  0  0  0  0  0  0  0  0  0  0  0
   -0.0399    0.6249    0.0000 C   0  0  0  0  0  0  0  0  0  0  0  0
   -1.4936   -0.1995    0.0000 C   0  0  0  0  0  0  0  0  0  0  0  0
   -0.7667    1.0327    0.0000 C   0  0  0  0  0  0  0  0  0  0  0  0
    2.1317   -0.6072    0.0000 C   0  0  0  0  0  0  0  0  0  0  0  0
    0.6781    1.0327    0.0000 C   0  0  0  0  0  0  0  0  0  0  0  0
    1.3872   -0.1995    0.0000 C   0  0  0  0  0  0  0  0  0  0  0  0
    2.9472   -0.6161    0.0000 C   0  0  0  0  0  0  0  0  0  0  0  0
    2.5483   -1.3074    0.0000 C   0  0  0  0  0  0  0  0  0  0  0  0
    1.4138    0.6338    0.0000 C   0  0  0  0  0  0  0  0  0  0  0  0
   -2.9472   -0.1906    0.0000 C   0  0  0  0  0  0  0  0  0  0  0  0
    2.1229    1.0415    0.0000 C   0  0  0  0  0  0  0  0  0  0  0  0
  1  2  2  0  0  0  0
  1  9  1  0  0  0  0
  1 17  1  0  0  0  0
  3  7  2  0  0  0  0
  3  9  1  0  0  0  0
  4  9  2  0  0  0  0
  4 10  1  0  0  0  0
  5  7  1  0  0  0  0
  5 13  1  0  0  0  0
  6 18  3  0  0  0  0
  7  8  1  0  0  0  0
  8 10  2  0  0  0  0
  8 12  1  0  0  0  0
 11 13  1  0  0  0  0
 11 14  1  0  0  0  0
 11 15  1  0  0  0  0
 12 16  2  0  0  0  0
 14 15  1  0  0  0  0
 16 18  1  0  0  0  0
M  END
> <PUBCHEM_COMPOUND_ID_TYPE>
0

> <PUBCHEM_TOTAL_CHARGE>
0

> <PUBCHEM_SUBSTANCE_ID>
310942548

> <PUBCHEM_SUBSTANCE_VERSION>
1

> <PUBCHEM_EXT_DATASOURCE_NAME>
4488

> <PUBCHEM_EXT_DATASOURCE_REGID>
SCHEMBL16120589

> <PUBCHEM_SUBSTANCE_COMMENT>
InChI=1S/C12H14N4OS/c1-18(17)12-15-8-10(3-2-6-13)11(16-12)14-7-9-4-5-9/h2-3,8-9H,4-5,7H2,1H3,(H,14,15,16)/b3-2+
InChIKey=MOANALNTGBRUCA-NSCUHMNNSA-N

> <PUBCHEM_SUBSTANCE_SYNONYM>
SCHEMBL16120589

> <PUBCHEM_XREF_EXT_ID>
SCHEMBL16120589

> <PUBCHEM_EXT_DATASOURCE_URL>
https://www.surechembl.org/

> <PUBCHEM_EXT_SUBSTANCE_URL>
https://www.surechembl.org/chemical/SCHEMBL16120589

> <PUBCHEM_CID_ASSOCIATIONS>
90466930  1

> <PUBCHEM_COORDINATE_TYPE>
1
3

$$$$
