310947716
  -OEChem-07211613022D

 18 20  0     1  0  0  0  0  0999 V2000
   -6.6449    2.5885    0.0000 O   0  0  0  0  0  0  0  0  0  0  0  0
   -6.6449    5.9442    0.0000 O   0  0  0  0  0  0  0  0  0  0  0  0
   -7.6553    3.5989    0.0000 N   0  0  3  0  0  0  0  0  0  0  0  0
   -7.1704    4.2664    0.0000 N   0  0  0  0  0  0  0  0  0  0  0  0
   -8.4400    3.8539    0.0000 C   0  0  3  0  0  0  0  0  0  0  0  0
   -8.4400    4.6789    0.0000 C   0  0  3  0  0  0  0  0  0  0  0  0
   -7.6553    4.9338    0.0000 C   0  0  0  0  0  0  0  0  0  0  0  0
   -7.4418    2.8021    0.0000 C   0  0  3  0  0  0  0  0  0  0  0  0
   -9.1544    5.0914    0.0000 C   0  0  0  0  0  0  0  0  0  0  0  0
   -9.1544    3.4414    0.0000 C   0  0  0  0  0  0  0  0  0  0  0  0
   -9.8689    4.6789    0.0000 C   0  0  0  0  0  0  0  0  0  0  0  0
   -9.8689    3.8539    0.0000 C   0  0  0  0  0  0  0  0  0  0  0  0
   -7.4418    5.7307    0.0000 C   0  0  0  0  0  0  0  0  0  0  0  0
   -8.0252    2.2187    0.0000 C   0  0  0  0  0  0  0  0  0  0  0  0
   -6.4314    1.7916    0.0000 C   0  0  0  0  0  0  0  0  0  0  0  0
   -7.8117    1.4218    0.0000 C   0  0  0  0  0  0  0  0  0  0  0  0
   -7.0148    1.2083    0.0000 C   0  0  0  0  0  0  0  0  0  0  0  0
  -10.5834    5.0914    0.0000 C   0  0  0  0  0  0  0  0  0  0  0  0
  1  8  1  0  0  0  0
  1 15  1  0  0  0  0
  2 13  2  0  0  0  0
  3  4  1  0  0  0  0
  3  5  1  0  0  0  0
  3  8  1  0  0  0  0
  4  7  2  0  0  0  0
  5  6  1  0  0  0  0
  5 10  1  0  0  0  0
  6  7  1  0  0  0  0
  6  9  1  0  0  0  0
  7 13  1  0  0  0  0
  8 14  1  0  0  0  0
  9 11  2  0  0  0  0
 10 12  2  0  0  0  0
 11 12  1  0  0  0  0
 11 18  1  0  0  0  0
 14 16  1  0  0  0  0
 15 17  1  0  0  0  0
 16 17  1  0  0  0  0
M  END
> <PUBCHEM_COMPOUND_ID_TYPE>
0

> <PUBCHEM_TOTAL_CHARGE>
0

> <PUBCHEM_SUBSTANCE_ID>
310947716

> <PUBCHEM_SUBSTANCE_VERSION>
1

> <PUBCHEM_EXT_DATASOURCE_NAME>
4488

> <PUBCHEM_EXT_DATASOURCE_REGID>
SCHEMBL16125887

> <PUBCHEM_SUBSTANCE_COMMENT>
InChI=1S/C14H18N2O2/c1-10-5-6-13-11(8-10)12(9-17)15-16(13)14-4-2-3-7-18-14/h5-6,8-9,11,13-14H,2-4,7H2,1H3
InChIKey=GIYBGKJYUDDQNR-UHFFFAOYSA-N

> <PUBCHEM_SUBSTANCE_SYNONYM>
SCHEMBL16125887

> <PUBCHEM_XREF_EXT_ID>
SCHEMBL16125887

> <PUBCHEM_EXT_DATASOURCE_URL>
https://www.surechembl.org/

> <PUBCHEM_EXT_SUBSTANCE_URL>
https://www.surechembl.org/chemical/SCHEMBL16125887

> <PUBCHEM_CID_ASSOCIATIONS>
117613422  1

> <PUBCHEM_COORDINATE_TYPE>
1
3

$$$$
