310949088
  -OEChem-07211613022D

 18 19  0     1  0  0  0  0  0999 V2000
   -0.0125    1.1936    0.0000 F   0  0  0  0  0  0  0  0  0  0  0  0
   -0.7249   -0.6561    0.0000 F   0  0  0  0  0  0  0  0  0  0  0  0
   -0.0250    0.3562    0.0000 O   0  0  0  0  0  0  0  0  0  0  0  0
    0.6999   -1.4935    0.0000 O   0  0  0  0  0  0  0  0  0  0  0  0
   -0.7249    0.7811    0.0000 C   0  0  3  0  0  0  0  0  0  0  0  0
   -1.1498    0.0563    0.0000 C   0  0  0  0  0  0  0  0  0  0  0  0
    0.7124   -0.0437    0.0000 C   0  0  0  0  0  0  0  0  0  0  0  0
   -1.1498    1.4935    0.0000 C   0  0  0  0  0  0  0  0  0  0  0  0
    1.1374   -0.7561    0.0000 C   0  0  0  0  0  0  0  0  0  0  0  0
   -1.9747    0.0687    0.0000 C   0  0  0  0  0  0  0  0  0  0  0  0
   -2.3871    0.7811    0.0000 C   0  0  0  0  0  0  0  0  0  0  0  0
   -1.9747    1.4935    0.0000 C   0  0  0  0  0  0  0  0  0  0  0  0
    1.1374    0.6561    0.0000 C   0  0  0  0  0  0  0  0  0  0  0  0
    1.9622   -0.7686    0.0000 C   0  0  0  0  0  0  0  0  0  0  0  0
    2.3621   -0.0437    0.0000 C   0  0  0  0  0  0  0  0  0  0  0  0
    1.9622    0.6561    0.0000 C   0  0  0  0  0  0  0  0  0  0  0  0
   -3.2120    0.7686    0.0000 C   0  0  0  0  0  0  0  0  0  0  0  0
    3.2120   -0.0437    0.0000 C   0  0  0  0  0  0  0  0  0  0  0  0
  1  5  1  0  0  0  0
  2  6  1  0  0  0  0
  3  5  1  0  0  0  0
  3  7  1  0  0  0  0
  4  9  1  0  0  0  0
  5  6  1  0  0  0  0
  5  8  1  0  0  0  0
  6 10  2  0  0  0  0
  7  9  1  0  0  0  0
  7 13  2  0  0  0  0
  8 12  1  0  0  0  0
  9 14  2  0  0  0  0
 10 11  1  0  0  0  0
 11 12  2  0  0  0  0
 11 17  1  0  0  0  0
 13 16  1  0  0  0  0
 14 15  1  0  0  0  0
 15 16  2  0  0  0  0
 15 18  1  0  0  0  0
M  END
> <PUBCHEM_COMPOUND_ID_TYPE>
0

> <PUBCHEM_TOTAL_CHARGE>
0

> <PUBCHEM_SUBSTANCE_ID>
310949088

> <PUBCHEM_SUBSTANCE_VERSION>
1

> <PUBCHEM_EXT_DATASOURCE_NAME>
4488

> <PUBCHEM_EXT_DATASOURCE_REGID>
SCHEMBL16127278

> <PUBCHEM_SUBSTANCE_COMMENT>
InChI=1S/C14H14F2O2/c1-9-3-4-12(11(17)7-9)18-14(16)6-5-10(2)8-13(14)15/h3-5,7-8,17H,6H2,1-2H3
InChIKey=QVESFUSRFRSTPW-UHFFFAOYSA-N

> <PUBCHEM_SUBSTANCE_SYNONYM>
SCHEMBL16127278

> <PUBCHEM_XREF_EXT_ID>
SCHEMBL16127278

> <PUBCHEM_EXT_DATASOURCE_URL>
https://www.surechembl.org/

> <PUBCHEM_EXT_SUBSTANCE_URL>
https://www.surechembl.org/chemical/SCHEMBL16127278

> <PUBCHEM_CID_ASSOCIATIONS>
117614593  1

> <PUBCHEM_COORDINATE_TYPE>
1
3

$$$$
