310943686
  -OEChem-07211613022D

 22 24  0     1  0  0  0  0  0999 V2000
   -1.1600   -1.2975    0.0000 N   0  0  3  0  0  0  0  0  0  0  0  0
    3.2492    1.0445    0.0000 N   0  0  0  0  0  0  0  0  0  0  0  0
   -2.9303   -0.7587    0.0000 N   0  0  3  0  0  0  0  0  0  0  0  0
    0.9621    1.7593    0.0000 N   0  0  0  0  0  0  0  0  0  0  0  0
    1.6878   -0.4728    0.0000 C   0  0  0  0  0  0  0  0  0  0  0  0
    0.9621   -0.0660    0.0000 C   0  0  0  0  0  0  0  0  0  0  0  0
    2.3805   -0.0880    0.0000 C   0  0  0  0  0  0  0  0  0  0  0  0
    0.2474   -1.2975    0.0000 C   0  0  0  0  0  0  0  0  0  0  0  0
    0.2474   -0.4948    0.0000 C   0  0  0  0  0  0  0  0  0  0  0  0
    1.6658   -1.2975    0.0000 C   0  0  0  0  0  0  0  0  0  0  0  0
    0.9621   -1.7043    0.0000 C   0  0  0  0  0  0  0  0  0  0  0  0
   -0.4343   -1.7043    0.0000 C   0  0  0  0  0  0  0  0  0  0  0  0
    2.4135    0.7917    0.0000 C   0  0  0  0  0  0  0  0  0  0  0  0
    3.2272   -0.3848    0.0000 C   0  0  0  0  0  0  0  0  0  0  0  0
    0.9621    0.9456    0.0000 C   0  0  0  0  0  0  0  0  0  0  0  0
    3.7550    0.3188    0.0000 C   0  0  0  0  0  0  0  0  0  0  0  0
   -1.8307   -1.7593    0.0000 C   0  0  0  0  0  0  0  0  0  0  0  0
   -1.1051   -0.4838    0.0000 C   0  0  0  0  0  0  0  0  0  0  0  0
   -2.6224   -1.5174    0.0000 C   0  0  0  0  0  0  0  0  0  0  0  0
   -1.7098    0.0769    0.0000 C   0  0  0  0  0  0  0  0  0  0  0  0
   -2.5124   -0.0440    0.0000 C   0  0  0  0  0  0  0  0  0  0  0  0
   -3.7550   -0.7587    0.0000 C   0  0  0  0  0  0  0  0  0  0  0  0
  1 12  1  0  0  0  0
  1 17  1  0  0  0  0
  1 18  1  0  0  0  0
  2 13  1  0  0  0  0
  2 16  1  0  0  0  0
  3 19  1  0  0  0  0
  3 21  1  0  0  0  0
  3 22  1  0  0  0  0
  4 15  3  0  0  0  0
  5  6  2  0  0  0  0
  5  7  1  0  0  0  0
  5 10  1  0  0  0  0
  6  9  1  0  0  0  0
  6 15  1  0  0  0  0
  7 13  2  0  0  0  0
  7 14  1  0  0  0  0
  8  9  2  0  0  0  0
  8 11  1  0  0  0  0
  8 12  1  0  0  0  0
 10 11  2  0  0  0  0
 14 16  2  0  0  0  0
 17 19  1  0  0  0  0
 18 20  1  0  0  0  0
 20 21  1  0  0  0  0
M  END
> <PUBCHEM_COMPOUND_ID_TYPE>
0

> <PUBCHEM_TOTAL_CHARGE>
0

> <PUBCHEM_SUBSTANCE_ID>
310943686

> <PUBCHEM_SUBSTANCE_VERSION>
1

> <PUBCHEM_EXT_DATASOURCE_NAME>
4488

> <PUBCHEM_EXT_DATASOURCE_REGID>
SCHEMBL16121754

> <PUBCHEM_SUBSTANCE_COMMENT>
InChI=1S/C18H22N4/c1-21-7-2-8-22(10-9-21)14-15-3-4-18(17(11-15)12-19)16-5-6-20-13-16/h3-6,11,13,20H,2,7-10,14H2,1H3
InChIKey=HBCKROWHZOYCTO-UHFFFAOYSA-N

> <PUBCHEM_SUBSTANCE_SYNONYM>
SCHEMBL16121754

> <PUBCHEM_XREF_EXT_ID>
SCHEMBL16121754

> <PUBCHEM_EXT_DATASOURCE_URL>
https://www.surechembl.org/

> <PUBCHEM_EXT_SUBSTANCE_URL>
https://www.surechembl.org/chemical/SCHEMBL16121754

> <PUBCHEM_CID_ASSOCIATIONS>
117610074  1

> <PUBCHEM_COORDINATE_TYPE>
1
3

$$$$
