310944761
  -OEChem-07211613022D

 21 20  0     1  0  0  0  0  0999 V2000
    0.3020    0.1694    0.0000 O   0  0  0  0  0  0  0  0  0  0  0  0
    1.1418    0.5230    0.0000 O   0  0  0  0  0  0  0  0  0  0  0  0
    2.4971    0.5966    0.0000 O   0  0  0  0  0  0  0  0  0  0  0  0
   -1.9668   -1.9373    0.0000 O   0  0  0  0  0  0  0  0  0  0  0  0
   -2.7476   -0.8471    0.0000 O   0  0  0  0  0  0  0  0  0  0  0  0
   -2.7034    1.8489    0.0000 O   0  0  0  0  0  0  0  0  0  0  0  0
   -1.3480    1.9373    0.0000 O   0  0  0  0  0  0  0  0  0  0  0  0
    1.0681   -1.1860    0.0000 N   0  0  0  0  0  0  0  0  0  0  0  0
   -0.4935   -1.1860    0.0000 N   0  0  0  0  0  0  0  0  0  0  0  0
    1.8047   -0.6556    0.0000 C   0  0  3  0  0  0  0  0  0  0  0  0
   -1.2596   -0.6703    0.0000 C   0  0  3  0  0  0  0  0  0  0  0  0
    0.2725   -0.6851    0.0000 C   0  0  0  0  0  0  0  0  0  0  0  0
    2.1435   -0.8618    0.0000 C   0  0  0  0  0  0  0  0  0  0  0  0
    1.8047    0.1694    0.0000 C   0  0  0  0  0  0  0  0  0  0  0  0
   -2.0257   -1.1712    0.0000 C   0  0  0  0  0  0  0  0  0  0  0  0
   -1.2449    0.2136    0.0000 C   0  0  0  0  0  0  0  0  0  0  0  0
    2.7329   -1.0239    0.0000 C   0  0  0  0  0  0  0  0  0  0  0  0
   -1.9962    0.6556    0.0000 C   0  0  0  0  0  0  0  0  0  0  0  0
    2.2466   -1.6574    0.0000 C   0  0  0  0  0  0  0  0  0  0  0  0
   -2.0257    1.5101    0.0000 C   0  0  0  0  0  0  0  0  0  0  0  0
    2.7476   -1.6868    0.0000 C   0  0  0  0  0  0  0  0  0  0  0  0
  1 12  2  0  0  0  0
  2 14  2  0  0  0  0
  3 14  1  0  0  0  0
  4 15  2  0  0  0  0
  5 15  1  0  0  0  0
  6 20  2  0  0  0  0
  7 20  1  0  0  0  0
  8 10  1  0  0  0  0
  8 12  1  0  0  0  0
  9 11  1  0  0  0  0
  9 12  1  0  0  0  0
 10 13  1  0  0  0  0
 10 14  1  0  0  0  0
 11 15  1  0  0  0  0
 11 16  1  0  0  0  0
 13 17  2  0  0  0  0
 13 19  1  0  0  0  0
 16 18  1  0  0  0  0
 17 21  1  0  0  0  0
 18 20  1  0  0  0  0
M  END
> <PUBCHEM_COMPOUND_ID_TYPE>
0

> <PUBCHEM_TOTAL_CHARGE>
0

> <PUBCHEM_SUBSTANCE_ID>
310944761

> <PUBCHEM_SUBSTANCE_VERSION>
1

> <PUBCHEM_EXT_DATASOURCE_NAME>
4488

> <PUBCHEM_EXT_DATASOURCE_REGID>
SCHEMBL16122840

> <PUBCHEM_SUBSTANCE_COMMENT>
InChI=1S/C12H18N2O7/c1-3-6(2)9(11(19)20)14-12(21)13-7(10(17)18)4-5-8(15)16/h3,7,9H,4-5H2,1-2H3,(H,15,16)(H,17,18)(H,19,20)(H2,13,14,21)/b6-3+
InChIKey=KIMSUPCHWNZJOI-ZZXKWVIFSA-N

> <PUBCHEM_SUBSTANCE_SYNONYM>
SCHEMBL16122840

> <PUBCHEM_XREF_EXT_ID>
SCHEMBL16122840

> <PUBCHEM_EXT_DATASOURCE_URL>
https://www.surechembl.org/

> <PUBCHEM_EXT_SUBSTANCE_URL>
https://www.surechembl.org/chemical/SCHEMBL16122840

> <PUBCHEM_CID_ASSOCIATIONS>
117610977  1

> <PUBCHEM_COORDINATE_TYPE>
1
3

$$$$
