310939948
  -OEChem-07211613022D

 33 37  0     1  0  0  0  0  0999 V2000
    1.1895    5.0215    0.0000 Cl  0  0  0  0  0  0  0  0  0  0  0  0
   -1.5710    4.2818    0.0000 O   0  0  0  0  0  0  0  0  0  0  0  0
    0.2850    1.8630    0.0000 O   0  0  0  0  0  0  0  0  0  0  0  0
    0.2850   -4.2537    0.0000 O   0  0  0  0  0  0  0  0  0  0  0  0
   -1.1439    2.6880    0.0000 N   0  0  3  0  0  0  0  0  0  0  0  0
   -0.4295    0.6255    0.0000 N   0  0  0  0  0  0  0  0  0  0  0  0
   -0.4295   -1.0245    0.0000 N   0  0  0  0  0  0  0  0  0  0  0  0
   -0.4295   -3.0162    0.0000 N   0  0  0  0  0  0  0  0  0  0  0  0
   -0.5606    3.2714    0.0000 C   0  0  0  0  0  0  0  0  0  0  0  0
   -1.1439    1.8630    0.0000 C   0  0  3  0  0  0  0  0  0  0  0  0
    0.8197    3.6412    0.0000 C   0  0  0  0  0  0  0  0  0  0  0  0
   -0.7741    4.0683    0.0000 C   0  0  0  0  0  0  0  0  0  0  0  0
    0.2363    3.0579    0.0000 C   0  0  0  0  0  0  0  0  0  0  0  0
   -0.4295    1.4505    0.0000 C   0  0  0  0  0  0  0  0  0  0  0  0
    1.6166    3.4277    0.0000 C   0  0  0  0  0  0  0  0  0  0  0  0
    0.6062    4.4381    0.0000 C   0  0  0  0  0  0  0  0  0  0  0  0
   -0.1907    4.6516    0.0000 C   0  0  0  0  0  0  0  0  0  0  0  0
   -0.4295   -1.8495    0.0000 C   0  0  0  0  0  0  0  0  0  0  0  0
   -1.9285    2.9430    0.0000 C   0  0  0  0  0  0  0  0  0  0  0  0
   -1.9285    1.6081    0.0000 C   0  0  0  0  0  0  0  0  0  0  0  0
    2.1999    2.8443    0.0000 C   0  0  0  0  0  0  0  0  0  0  0  0
    2.4135    3.6412    0.0000 C   0  0  0  0  0  0  0  0  0  0  0  0
   -2.4135    2.2755    0.0000 C   0  0  0  0  0  0  0  0  0  0  0  0
   -1.0128   -2.4328    0.0000 C   0  0  0  0  0  0  0  0  0  0  0  0
    0.1539   -2.4328    0.0000 C   0  0  0  0  0  0  0  0  0  0  0  0
   -1.1439    0.2130    0.0000 C   0  0  0  0  0  0  0  0  0  0  0  0
    0.2850    0.2130    0.0000 C   0  0  0  0  0  0  0  0  0  0  0  0
   -1.1439   -0.6120    0.0000 C   0  0  0  0  0  0  0  0  0  0  0  0
    0.2850   -0.6120    0.0000 C   0  0  0  0  0  0  0  0  0  0  0  0
   -0.4295   -3.8412    0.0000 C   0  0  0  0  0  0  0  0  0  0  0  0
   -1.1439   -4.2537    0.0000 C   0  0  0  0  0  0  0  0  0  0  0  0
   -1.7845    5.0787    0.0000 C   0  0  0  0  0  0  0  0  0  0  0  0
   -1.1439   -5.0787    0.0000 C   0  0  0  0  0  0  0  0  0  0  0  0
  1 16  1  0  0  0  0
  2 12  1  0  0  0  0
  2 32  1  0  0  0  0
  3 14  2  0  0  0  0
  4 30  2  0  0  0  0
  5  9  1  0  0  0  0
  5 10  1  0  0  0  0
  5 19  1  0  0  0  0
  6 14  1  0  0  0  0
  6 26  1  0  0  0  0
  6 27  1  0  0  0  0
  7 18  1  0  0  0  0
  7 28  1  0  0  0  0
  7 29  1  0  0  0  0
  8 24  1  0  0  0  0
  8 25  1  0  0  0  0
  8 30  1  0  0  0  0
  9 12  1  0  0  0  0
  9 13  2  0  0  0  0
 10 14  1  0  0  0  0
 10 20  1  0  0  0  0
 11 13  1  0  0  0  0
 11 15  1  0  0  0  0
 11 16  2  0  0  0  0
 12 17  2  0  0  0  0
 15 21  1  0  0  0  0
 15 22  1  0  0  0  0
 16 17  1  0  0  0  0
 18 24  1  0  0  0  0
 18 25  1  0  0  0  0
 19 23  1  0  0  0  0
 20 23  1  0  0  0  0
 21 22  1  0  0  0  0
 26 28  1  0  0  0  0
 27 29  1  0  0  0  0
 30 31  1  0  0  0  0
 31 33  2  0  0  0  0
M  END
> <PUBCHEM_COMPOUND_ID_TYPE>
0

> <PUBCHEM_TOTAL_CHARGE>
0

> <PUBCHEM_SUBSTANCE_ID>
310939948

> <PUBCHEM_SUBSTANCE_VERSION>
1

> <PUBCHEM_EXT_DATASOURCE_NAME>
4488

> <PUBCHEM_EXT_DATASOURCE_REGID>
SCHEMBL16117878

> <PUBCHEM_SUBSTANCE_COMMENT>
InChI=1S/C25H33ClN4O3/c1-3-24(31)29-15-18(16-29)27-9-11-28(12-10-27)25(32)21-5-4-8-30(21)22-13-19(17-6-7-17)20(26)14-23(22)33-2/h3,13-14,17-18,21H,1,4-12,15-16H2,2H3
InChIKey=RBZBPDJPYVIFNB-UHFFFAOYSA-N

> <PUBCHEM_SUBSTANCE_SYNONYM>
SCHEMBL16117878

> <PUBCHEM_XREF_EXT_ID>
SCHEMBL16117878

> <PUBCHEM_EXT_DATASOURCE_URL>
https://www.surechembl.org/

> <PUBCHEM_EXT_SUBSTANCE_URL>
https://www.surechembl.org/chemical/SCHEMBL16117878

> <PUBCHEM_CID_ASSOCIATIONS>
86279294  1

> <PUBCHEM_COORDINATE_TYPE>
1
3

$$$$
