310939565
  -OEChem-07211613022D

 39 42  0     1  0  0  0  0  0999 V2000
    0.0000    3.5063    0.0000 Cl  0  0  0  0  0  0  0  0  0  0  0  0
    3.5724   -2.6812    0.0000 O   0  0  0  0  0  0  0  0  0  0  0  0
    2.1434   -3.5062    0.0000 O   0  0  0  0  0  0  0  0  0  0  0  0
   -1.4289    1.0313    0.0000 O   0  0  0  0  0  0  0  0  0  0  0  0
    5.0013   -0.2062    0.0000 O   0  0  0  0  0  0  0  0  0  0  0  0
    2.8579    3.5063    0.0000 O   0  0  0  0  0  0  0  0  0  0  0  0
   -2.8579    0.2063    0.0000 O   0  0  0  0  0  0  0  0  0  0  0  0
    1.4289    0.2063    0.0000 N   0  0  0  0  0  0  0  0  0  0  0  0
    2.1434    1.4438    0.0000 N   0  0  0  0  0  0  0  0  0  0  0  0
    3.5724    1.4438    0.0000 N   0  0  0  0  0  0  0  0  0  0  0  0
   -4.2868    1.0313    0.0000 N   0  0  0  0  0  0  0  0  0  0  0  0
    2.1434   -0.2062    0.0000 C   0  0  0  0  0  0  0  0  0  0  0  0
    1.4289    1.0313    0.0000 C   0  0  0  0  0  0  0  0  0  0  0  0
    2.1434   -1.0312    0.0000 C   0  0  0  0  0  0  0  0  0  0  0  0
    2.8579    1.0313    0.0000 C   0  0  0  0  0  0  0  0  0  0  0  0
    0.7145    1.4438    0.0000 C   0  0  0  0  0  0  0  0  0  0  0  0
    2.8579    0.2063    0.0000 C   0  0  0  0  0  0  0  0  0  0  0  0
    2.8579   -2.2687    0.0000 C   0  0  0  0  0  0  0  0  0  0  0  0
    2.8579   -1.4437    0.0000 C   0  0  0  0  0  0  0  0  0  0  0  0
    2.1434   -2.6812    0.0000 C   0  0  0  0  0  0  0  0  0  0  0  0
    1.4289   -1.4437    0.0000 C   0  0  0  0  0  0  0  0  0  0  0  0
    0.0000    1.0313    0.0000 C   0  0  0  0  0  0  0  0  0  0  0  0
    0.7145    2.2688    0.0000 C   0  0  0  0  0  0  0  0  0  0  0  0
   -0.7145    1.4438    0.0000 C   0  0  0  0  0  0  0  0  0  0  0  0
    1.4289   -2.2687    0.0000 C   0  0  0  0  0  0  0  0  0  0  0  0
    0.0000    2.6813    0.0000 C   0  0  0  0  0  0  0  0  0  0  0  0
   -0.7145    2.2688    0.0000 C   0  0  0  0  0  0  0  0  0  0  0  0
    4.2868    1.0313    0.0000 C   0  0  0  0  0  0  0  0  0  0  0  0
    3.5724    2.2688    0.0000 C   0  0  0  0  0  0  0  0  0  0  0  0
    3.5724   -3.5062    0.0000 C   0  0  0  0  0  0  0  0  0  0  0  0
    2.8579   -3.9188    0.0000 C   0  0  0  0  0  0  0  0  0  0  0  0
    4.2868    0.2063    0.0000 C   0  0  0  0  0  0  0  0  0  0  0  0
    2.8579    2.6813    0.0000 C   0  0  0  0  0  0  0  0  0  0  0  0
   -2.1434    1.4438    0.0000 C   0  0  0  0  0  0  0  0  0  0  0  0
   -2.8579    1.0313    0.0000 C   0  0  3  0  0  0  0  0  0  0  0  0
   -3.5724    1.4438    0.0000 C   0  0  0  0  0  0  0  0  0  0  0  0
    5.0013   -1.0312    0.0000 C   0  0  0  0  0  0  0  0  0  0  0  0
    2.1434    3.9188    0.0000 C   0  0  0  0  0  0  0  0  0  0  0  0
   -5.0013    1.4438    0.0000 C   0  0  0  0  0  0  0  0  0  0  0  0
  1 26  1  0  0  0  0
  2 18  1  0  0  0  0
  2 30  1  0  0  0  0
  3 20  1  0  0  0  0
  3 31  1  0  0  0  0
  4 24  1  0  0  0  0
  4 34  1  0  0  0  0
  5 32  1  0  0  0  0
  5 37  1  0  0  0  0
  6 33  1  0  0  0  0
  6 38  1  0  0  0  0
  7 35  1  0  0  0  0
  8 12  1  0  0  0  0
  8 13  2  0  0  0  0
  9 13  1  0  0  0  0
  9 15  2  0  0  0  0
 10 15  1  0  0  0  0
 10 28  1  0  0  0  0
 10 29  1  0  0  0  0
 11 36  1  0  0  0  0
 11 39  1  0  0  0  0
 12 14  1  0  0  0  0
 12 17  2  0  0  0  0
 13 16  1  0  0  0  0
 14 19  1  0  0  0  0
 14 21  2  0  0  0  0
 15 17  1  0  0  0  0
 16 22  2  0  0  0  0
 16 23  1  0  0  0  0
 18 19  2  0  0  0  0
 18 20  1  0  0  0  0
 20 25  2  0  0  0  0
 21 25  1  0  0  0  0
 22 24  1  0  0  0  0
 23 26  2  0  0  0  0
 24 27  2  0  0  0  0
 26 27  1  0  0  0  0
 28 32  1  0  0  0  0
 29 33  1  0  0  0  0
 30 31  1  0  0  0  0
 34 35  1  0  0  0  0
 35 36  1  0  0  0  0
M  END
> <PUBCHEM_COMPOUND_ID_TYPE>
0

> <PUBCHEM_TOTAL_CHARGE>
0

> <PUBCHEM_SUBSTANCE_ID>
310939565

> <PUBCHEM_SUBSTANCE_VERSION>
1

> <PUBCHEM_EXT_DATASOURCE_NAME>
4488

> <PUBCHEM_EXT_DATASOURCE_REGID>
SCHEMBL16117494

> <PUBCHEM_SUBSTANCE_COMMENT>
InChI=1S/C28H35ClN4O6/c1-30-17-22(34)18-39-23-13-20(12-21(29)15-23)28-31-24(19-4-5-25-26(14-19)38-11-10-37-25)16-27(32-28)33(6-8-35-2)7-9-36-3/h4-5,12-16,22,30,34H,6-11,17-18H2,1-3H3
InChIKey=FVSJEKCHJJNEDK-UHFFFAOYSA-N

> <PUBCHEM_SUBSTANCE_SYNONYM>
SCHEMBL16117494

> <PUBCHEM_XREF_EXT_ID>
SCHEMBL16117494

> <PUBCHEM_EXT_DATASOURCE_URL>
https://www.surechembl.org/

> <PUBCHEM_EXT_SUBSTANCE_URL>
https://www.surechembl.org/chemical/SCHEMBL16117494

> <PUBCHEM_CID_ASSOCIATIONS>
85473057  1

> <PUBCHEM_COORDINATE_TYPE>
1
3

$$$$
