310948357
  -OEChem-07211613022D

 16 17  0     1  0  0  0  0  0999 V2000
   -0.1993    2.4543    0.0000 Br  0  0  0  0  0  0  0  0  0  0  0  0
    0.4606   -1.3543    0.0000 N   0  0  0  0  0  0  0  0  0  0  0  0
    1.2581   -1.1206    0.0000 N   0  0  0  0  0  0  0  0  0  0  0  0
    0.4468   -2.1793    0.0000 N   0  0  0  0  0  0  0  0  0  0  0  0
   -0.1993   -0.8456    0.0000 C   0  0  3  0  0  0  0  0  0  0  0  0
   -0.1856   -0.0207    0.0000 C   0  0  0  0  0  0  0  0  0  0  0  0
   -0.9831   -1.0656    0.0000 C   0  0  0  0  0  0  0  0  0  0  0  0
    0.5156    0.3918    0.0000 C   0  0  0  0  0  0  0  0  0  0  0  0
   -0.9006    0.3918    0.0000 C   0  0  0  0  0  0  0  0  0  0  0  0
    1.7118   -1.8080    0.0000 C   0  0  0  0  0  0  0  0  0  0  0  0
    1.2168   -2.4543    0.0000 C   0  0  0  0  0  0  0  0  0  0  0  0
   -0.1993    1.6293    0.0000 C   0  0  0  0  0  0  0  0  0  0  0  0
    0.5156    1.2168    0.0000 C   0  0  0  0  0  0  0  0  0  0  0  0
   -0.9006    1.2168    0.0000 C   0  0  0  0  0  0  0  0  0  0  0  0
   -1.7118   -0.6393    0.0000 C   0  0  0  0  0  0  0  0  0  0  0  0
   -0.9831   -1.9043    0.0000 C   0  0  0  0  0  0  0  0  0  0  0  0
  1 12  1  0  0  0  0
  2  3  1  0  0  0  0
  2  4  1  0  0  0  0
  2  5  1  0  0  0  0
  3 10  2  0  0  0  0
  4 11  2  0  0  0  0
  5  6  1  0  0  0  0
  5  7  1  0  0  0  0
  6  8  2  0  0  0  0
  6  9  1  0  0  0  0
  7 15  1  0  0  0  0
  7 16  1  0  0  0  0
  8 13  1  0  0  0  0
  9 14  2  0  0  0  0
 10 11  1  0  0  0  0
 12 13  2  0  0  0  0
 12 14  1  0  0  0  0
M  END
> <PUBCHEM_COMPOUND_ID_TYPE>
0

> <PUBCHEM_TOTAL_CHARGE>
0

> <PUBCHEM_SUBSTANCE_ID>
310948357

> <PUBCHEM_SUBSTANCE_VERSION>
1

> <PUBCHEM_EXT_DATASOURCE_NAME>
4488

> <PUBCHEM_EXT_DATASOURCE_REGID>
SCHEMBL16126535

> <PUBCHEM_SUBSTANCE_COMMENT>
InChI=1S/C12H14BrN3/c1-9(2)12(16-14-7-8-15-16)10-3-5-11(13)6-4-10/h3-9,12H,1-2H3
InChIKey=HDQCGJOYPZLCGS-UHFFFAOYSA-N

> <PUBCHEM_SUBSTANCE_SYNONYM>
SCHEMBL16126535

> <PUBCHEM_XREF_EXT_ID>
SCHEMBL16126535

> <PUBCHEM_EXT_DATASOURCE_URL>
https://www.surechembl.org/

> <PUBCHEM_EXT_SUBSTANCE_URL>
https://www.surechembl.org/chemical/SCHEMBL16126535

> <PUBCHEM_CID_ASSOCIATIONS>
117613921  1

> <PUBCHEM_COORDINATE_TYPE>
1
3

$$$$
