310935693
  -OEChem-07211613022D

 35 39  0     1  0  0  0  0  0999 V2000
    4.2918   -6.1312    0.0000 N   0  0  3  0  0  0  0  0  0  0  0  0
    4.9993   -7.3574    0.0000 N   0  0  0  0  0  0  0  0  0  0  0  0
    4.2918   -8.6309    0.0000 N   0  0  0  0  0  0  0  0  0  0  0  0
    2.1223   -3.3014    0.0000 N   0  0  0  0  0  0  0  0  0  0  0  0
    0.0000   -6.9801    0.0000 N   0  0  0  0  0  0  0  0  0  0  0  0
    1.4149   -1.2262    0.0000 N   0  0  0  0  0  0  0  0  0  0  0  0
    3.5844   -7.3574    0.0000 C   0  0  0  0  0  0  0  0  0  0  0  0
    4.2918   -6.9801    0.0000 C   0  0  0  0  0  0  0  0  0  0  0  0
    3.5844   -8.2064    0.0000 C   0  0  0  0  0  0  0  0  0  0  0  0
    2.8769   -8.6309    0.0000 C   0  0  0  0  0  0  0  0  0  0  0  0
    2.1695   -7.4046    0.0000 C   0  0  0  0  0  0  0  0  0  0  0  0
    2.8769   -6.9801    0.0000 C   0  0  0  0  0  0  0  0  0  0  0  0
    3.5372   -4.9049    0.0000 C   0  0  0  0  0  0  0  0  0  0  0  0
    3.5844   -5.7539    0.0000 C   0  0  0  0  0  0  0  0  0  0  0  0
    2.1695   -8.2064    0.0000 C   0  0  0  0  0  0  0  0  0  0  0  0
    4.2447   -4.4805    0.0000 C   0  0  0  0  0  0  0  0  0  0  0  0
    4.9993   -5.7539    0.0000 C   0  0  0  0  0  0  0  0  0  0  0  0
    1.4620   -6.9801    0.0000 C   0  0  0  0  0  0  0  0  0  0  0  0
    4.9993   -8.2064    0.0000 C   0  0  0  0  0  0  0  0  0  0  0  0
    4.9521   -4.9049    0.0000 C   0  0  0  0  0  0  0  0  0  0  0  0
    2.8769   -4.5276    0.0000 C   0  0  0  0  0  0  0  0  0  0  0  0
    2.8298   -3.6787    0.0000 C   0  0  0  0  0  0  0  0  0  0  0  0
    4.2918   -3.6787    0.0000 C   0  0  0  0  0  0  0  0  0  0  0  0
    2.8769   -9.4326    0.0000 C   0  0  0  0  0  0  0  0  0  0  0  0
    3.5372   -3.3014    0.0000 C   0  0  0  0  0  0  0  0  0  0  0  0
    0.7074   -7.3574    0.0000 C   0  0  0  0  0  0  0  0  0  0  0  0
    1.4149   -6.1312    0.0000 C   0  0  0  0  0  0  0  0  0  0  0  0
    0.7074   -5.7539    0.0000 C   0  0  0  0  0  0  0  0  0  0  0  0
    0.0000   -6.1312    0.0000 C   0  0  0  0  0  0  0  0  0  0  0  0
    2.1223   -2.4525    0.0000 C   0  0  0  0  0  0  0  0  0  0  0  0
    1.4149   -2.0751    0.0000 C   0  0  0  0  0  0  0  0  0  0  0  0
    0.7074   -0.8018    0.0000 C   0  0  0  0  0  0  0  0  0  0  0  0
    2.1223   -0.8018    0.0000 C   0  0  0  0  0  0  0  0  0  0  0  0
    0.0000   -1.2262    0.0000 C   0  0  0  0  0  0  0  0  0  0  0  0
    2.1223    0.0000    0.0000 C   0  0  0  0  0  0  0  0  0  0  0  0
  1  8  1  0  0  0  0
  1 14  1  0  0  0  0
  1 17  1  0  0  0  0
  2  8  1  0  0  0  0
  2 19  2  0  0  0  0
  3  9  2  0  0  0  0
  3 19  1  0  0  0  0
  4 22  1  0  0  0  0
  4 30  1  0  0  0  0
  5 26  1  0  0  0  0
  5 29  2  0  0  0  0
  6 31  1  0  0  0  0
  6 32  1  0  0  0  0
  6 33  1  0  0  0  0
  7  8  2  0  0  0  0
  7  9  1  0  0  0  0
  7 12  1  0  0  0  0
  9 10  1  0  0  0  0
 10 15  2  0  0  0  0
 10 24  1  0  0  0  0
 11 12  2  0  0  0  0
 11 15  1  0  0  0  0
 11 18  1  0  0  0  0
 13 14  1  0  0  0  0
 13 16  2  0  0  0  0
 13 21  1  0  0  0  0
 16 20  1  0  0  0  0
 16 23  1  0  0  0  0
 17 20  1  0  0  0  0
 18 26  2  0  0  0  0
 18 27  1  0  0  0  0
 21 22  2  0  0  0  0
 22 25  1  0  0  0  0
 23 25  2  0  0  0  0
 27 28  2  0  0  0  0
 28 29  1  0  0  0  0
 30 31  1  0  0  0  0
 32 34  1  0  0  0  0
 33 35  1  0  0  0  0
M  END
> <PUBCHEM_COMPOUND_ID_TYPE>
0

> <PUBCHEM_TOTAL_CHARGE>
0

> <PUBCHEM_SUBSTANCE_ID>
310935693

> <PUBCHEM_SUBSTANCE_VERSION>
1

> <PUBCHEM_EXT_DATASOURCE_NAME>
4488

> <PUBCHEM_EXT_DATASOURCE_REGID>
SCHEMBL16113276

> <PUBCHEM_SUBSTANCE_COMMENT>
InChI=1S/C29H34N6/c1-4-34(5-2)14-12-31-26-9-8-22-10-13-35(19-25(22)16-26)29-27-17-24(23-7-6-11-30-18-23)15-21(3)28(27)32-20-33-29/h6-9,11,15-18,20,31H,4-5,10,12-14,19H2,1-3H3
InChIKey=WLIGXEKTWIXDKM-UHFFFAOYSA-N

> <PUBCHEM_SUBSTANCE_SYNONYM>
SCHEMBL16113276

> <PUBCHEM_XREF_EXT_ID>
SCHEMBL16113276

> <PUBCHEM_EXT_DATASOURCE_URL>
https://www.surechembl.org/

> <PUBCHEM_EXT_SUBSTANCE_URL>
https://www.surechembl.org/chemical/SCHEMBL16113276

> <PUBCHEM_CID_ASSOCIATIONS>
117603701  1

> <PUBCHEM_COORDINATE_TYPE>
1
3

$$$$
