310935581
  -OEChem-07211613022D

 23 25  0     1  0  0  0  0  0999 V2000
   -2.0035   -0.3544    0.0000 F   0  0  0  0  0  0  0  0  0  0  0  0
    1.0116    0.1602    0.0000 O   0  0  0  0  0  0  0  0  0  0  0  0
    2.0735   -0.7959    0.0000 O   0  0  0  0  0  0  0  0  0  0  0  0
   -1.0034   -3.0882    0.0000 N   0  0  0  0  0  0  0  0  0  0  0  0
   -0.3323   -4.5956    0.0000 N   0  0  0  0  0  0  0  0  0  0  0  0
    0.7145   -1.2375    0.0000 C   0  0  3  0  0  0  0  0  0  0  0  0
    0.1624   -0.6244    0.0000 C   0  0  0  0  0  0  0  0  0  0  0  0
    0.0470   -1.7224    0.0000 C   0  0  0  0  0  0  0  0  0  0  0  0
    0.3020   -2.5070    0.0000 C   0  0  0  0  0  0  0  0  0  0  0  0
    1.3819   -1.7224    0.0000 C   0  0  0  0  0  0  0  0  0  0  0  0
    1.2665   -0.6244    0.0000 C   0  0  0  0  0  0  0  0  0  0  0  0
   -0.6445   -0.7959    0.0000 C   0  0  0  0  0  0  0  0  0  0  0  0
    1.1270   -2.5070    0.0000 C   0  0  0  0  0  0  0  0  0  0  0  0
    0.4174    0.1602    0.0000 C   0  0  0  0  0  0  0  0  0  0  0  0
   -1.1966   -0.1828    0.0000 C   0  0  0  0  0  0  0  0  0  0  0  0
   -0.1830   -3.1745    0.0000 C   0  0  0  0  0  0  0  0  0  0  0  0
   -0.9416    0.6018    0.0000 C   0  0  0  0  0  0  0  0  0  0  0  0
   -0.1347    0.7733    0.0000 C   0  0  0  0  0  0  0  0  0  0  0  0
   -0.8995   -1.5806    0.0000 C   0  0  0  0  0  0  0  0  0  0  0  0
    0.1526   -3.9282    0.0000 C   0  0  0  0  0  0  0  0  0  0  0  0
   -1.4937    1.2149    0.0000 C   0  0  0  0  0  0  0  0  0  0  0  0
   -1.4884   -3.7557    0.0000 C   0  0  0  0  0  0  0  0  0  0  0  0
   -1.1528   -4.5094    0.0000 C   0  0  0  0  0  0  0  0  0  0  0  0
  1 15  1  0  0  0  0
  2 11  2  0  0  0  0
  3 11  1  0  0  0  0
  4 16  1  0  0  0  0
  4 22  2  0  0  0  0
  5 20  1  0  0  0  0
  5 23  2  0  0  0  0
  6  7  1  0  0  0  0
  6  8  1  0  0  0  0
  6 10  1  0  0  0  0
  6 11  1  0  0  0  0
  7 12  2  0  0  0  0
  7 14  1  0  0  0  0
  8  9  2  0  0  0  0
  9 13  1  0  0  0  0
  9 16  1  0  0  0  0
 10 13  1  0  0  0  0
 12 15  1  0  0  0  0
 12 19  1  0  0  0  0
 14 18  2  0  0  0  0
 15 17  2  0  0  0  0
 16 20  2  0  0  0  0
 17 18  1  0  0  0  0
 17 21  1  0  0  0  0
 22 23  1  0  0  0  0
M  END
> <PUBCHEM_COMPOUND_ID_TYPE>
0

> <PUBCHEM_TOTAL_CHARGE>
0

> <PUBCHEM_SUBSTANCE_ID>
310935581

> <PUBCHEM_SUBSTANCE_VERSION>
1

> <PUBCHEM_EXT_DATASOURCE_NAME>
4488

> <PUBCHEM_EXT_DATASOURCE_REGID>
SCHEMBL16113154

> <PUBCHEM_SUBSTANCE_COMMENT>
InChI=1S/C18H17FN2O2/c1-11-3-4-14(12(2)16(11)19)18(17(22)23)6-5-13(9-18)15-10-20-7-8-21-15/h3-4,7-10H,5-6H2,1-2H3,(H,22,23)
InChIKey=JSLPKFGLQCXRNX-UHFFFAOYSA-N

> <PUBCHEM_SUBSTANCE_SYNONYM>
SCHEMBL16113154

> <PUBCHEM_XREF_EXT_ID>
SCHEMBL16113154

> <PUBCHEM_EXT_DATASOURCE_URL>
https://www.surechembl.org/

> <PUBCHEM_EXT_SUBSTANCE_URL>
https://www.surechembl.org/chemical/SCHEMBL16113154

> <PUBCHEM_CID_ASSOCIATIONS>
117603603  1

> <PUBCHEM_COORDINATE_TYPE>
1
3

$$$$
