310944309
  -OEChem-07211613022D

 22 25  0     1  0  0  0  0  0999 V2000
   -0.8411    1.5871    0.0000 O   0  0  0  0  0  0  0  0  0  0  0  0
   -0.7972   -1.3092    0.0000 O   0  0  0  0  0  0  0  0  0  0  0  0
    1.6163   -2.1868    0.0000 O   0  0  0  0  0  0  0  0  0  0  0  0
    2.9621   -1.7334    0.0000 O   0  0  0  0  0  0  0  0  0  0  0  0
    0.2267   -0.3291    0.0000 N   0  0  0  0  0  0  0  0  0  0  0  0
   -2.9621   -0.9873    0.0000 N   0  0  0  0  0  0  0  0  0  0  0  0
   -1.0458    0.1244    0.0000 C   0  0  0  0  0  0  0  0  0  0  0  0
   -0.5485   -0.5339    0.0000 C   0  0  0  0  0  0  0  0  0  0  0  0
   -0.5631    0.7680    0.0000 C   0  0  3  0  0  0  0  0  0  0  0  0
   -1.8943    0.3291    0.0000 C   0  0  0  0  0  0  0  0  0  0  0  0
   -1.6602   -0.2121    0.0000 C   0  0  0  0  0  0  0  0  0  0  0  0
    0.2560    0.5046    0.0000 C   0  0  0  0  0  0  0  0  0  0  0  0
    1.0312   -1.0166    0.0000 C   0  0  0  0  0  0  0  0  0  0  0  0
   -2.0844   -1.2068    0.0000 C   0  0  3  0  0  0  0  0  0  0  0  0
   -2.2893   -0.6071    0.0000 C   0  0  3  0  0  0  0  0  0  0  0  0
    1.8065   -0.8996    0.0000 C   0  0  0  0  0  0  0  0  0  0  0  0
    0.8996   -1.8212    0.0000 C   0  0  0  0  0  0  0  0  0  0  0  0
    2.1429   -1.5871    0.0000 C   0  0  0  0  0  0  0  0  0  0  0  0
   -1.6163   -1.9674    0.0000 C   0  0  0  0  0  0  0  0  0  0  0  0
   -1.7042   -1.2361    0.0000 C   0  0  0  0  0  0  0  0  0  0  0  0
    2.1868   -0.0805    0.0000 C   0  0  0  0  0  0  0  0  0  0  0  0
   -0.2999    2.1868    0.0000 C   0  0  0  0  0  0  0  0  0  0  0  0
  1  9  1  0  0  0  0
  1 22  1  0  0  0  0
  2  8  2  0  0  0  0
  3 17  1  0  0  0  0
  3 18  1  0  0  0  0
  4 18  2  0  0  0  0
  5  8  1  0  0  0  0
  5 12  1  0  0  0  0
  5 13  1  0  0  0  0
  6 14  1  0  0  0  0
  6 15  1  0  0  0  0
  7  8  1  0  0  0  0
  7  9  1  0  0  0  0
  7 10  1  0  0  0  0
  7 11  1  0  0  0  0
  9 12  1  0  0  0  0
 10 15  1  0  0  0  0
 11 14  1  0  0  0  0
 13 16  2  0  0  0  0
 13 17  1  0  0  0  0
 14 19  1  0  0  0  0
 15 20  1  0  0  0  0
 16 18  1  0  0  0  0
 16 21  1  0  0  0  0
 19 20  1  0  0  0  0
M  END
> <PUBCHEM_COMPOUND_ID_TYPE>
0

> <PUBCHEM_TOTAL_CHARGE>
0

> <PUBCHEM_SUBSTANCE_ID>
310944309

> <PUBCHEM_SUBSTANCE_VERSION>
1

> <PUBCHEM_EXT_DATASOURCE_NAME>
4488

> <PUBCHEM_EXT_DATASOURCE_REGID>
SCHEMBL16122384

> <PUBCHEM_SUBSTANCE_COMMENT>
InChI=1S/C16H22N2O4/c1-9-12(8-22-14(9)19)18-7-13(21-2)16(15(18)20)5-10-3-4-11(6-16)17-10/h10-11,13,17H,3-8H2,1-2H3
InChIKey=XDMBBANVARIIMQ-UHFFFAOYSA-N

> <PUBCHEM_SUBSTANCE_SYNONYM>
SCHEMBL16122384

> <PUBCHEM_XREF_EXT_ID>
SCHEMBL16122384

> <PUBCHEM_EXT_DATASOURCE_URL>
https://www.surechembl.org/

> <PUBCHEM_EXT_SUBSTANCE_URL>
https://www.surechembl.org/chemical/SCHEMBL16122384

> <PUBCHEM_CID_ASSOCIATIONS>
117610574  1

> <PUBCHEM_COORDINATE_TYPE>
1
3

$$$$
