310947743
  -OEChem-07211613022D

 22 23  0     1  0  0  0  0  0999 V2000
   -1.4740   -1.8758    0.0000 N   0  0  0  0  0  0  0  0  0  0  0  0
   -2.3060    0.5324    0.0000 N   0  0  0  0  0  0  0  0  0  0  0  0
   -0.9891   -2.5432    0.0000 N   0  0  0  0  0  0  0  0  0  0  0  0
   -2.0089    1.9301    0.0000 N   0  0  0  0  0  0  0  0  0  0  0  0
    1.2245   -1.4633    0.0000 N   0  0  3  0  0  0  0  0  0  0  0  0
    3.3679   -1.0508    0.0000 N   0  0  0  0  0  0  0  0  0  0  0  0
   -0.9891   -1.2084    0.0000 C   0  0  0  0  0  0  0  0  0  0  0  0
   -1.2440   -0.4237    0.0000 C   0  0  0  0  0  0  0  0  0  0  0  0
   -0.2045   -1.4633    0.0000 C   0  0  0  0  0  0  0  0  0  0  0  0
   -1.7539    1.1455    0.0000 C   0  0  0  0  0  0  0  0  0  0  0  0
   -2.0510   -0.2522    0.0000 C   0  0  0  0  0  0  0  0  0  0  0  0
   -0.6920    0.1894    0.0000 C   0  0  0  0  0  0  0  0  0  0  0  0
   -0.2045   -2.2883    0.0000 C   0  0  0  0  0  0  0  0  0  0  0  0
    0.5100   -1.0508    0.0000 C   0  0  0  0  0  0  0  0  0  0  0  0
   -0.9470    0.9740    0.0000 C   0  0  0  0  0  0  0  0  0  0  0  0
   -1.4568    2.5432    0.0000 C   0  0  0  0  0  0  0  0  0  0  0  0
   -2.8158    2.1017    0.0000 C   0  0  0  0  0  0  0  0  0  0  0  0
    1.9389   -1.0508    0.0000 C   0  0  0  0  0  0  0  0  0  0  0  0
    1.2245   -2.2883    0.0000 C   0  0  0  0  0  0  0  0  0  0  0  0
    2.6534   -1.4633    0.0000 C   0  0  0  0  0  0  0  0  0  0  0  0
   -0.6546    2.3506    0.0000 C   0  0  0  0  0  0  0  0  0  0  0  0
   -3.3679    1.4886    0.0000 C   0  0  0  0  0  0  0  0  0  0  0  0
  1  3  1  0  0  0  0
  1  7  2  0  0  0  0
  2 10  2  0  0  0  0
  2 11  1  0  0  0  0
  3 13  1  0  0  0  0
  4 10  1  0  0  0  0
  4 16  1  0  0  0  0
  4 17  1  0  0  0  0
  5 14  1  0  0  0  0
  5 18  1  0  0  0  0
  5 19  1  0  0  0  0
  6 20  1  0  0  0  0
  7  8  1  0  0  0  0
  7  9  1  0  0  0  0
  8 11  2  0  0  0  0
  8 12  1  0  0  0  0
  9 13  2  0  0  0  0
  9 14  1  0  0  0  0
 10 15  1  0  0  0  0
 12 15  2  0  0  0  0
 16 21  1  0  0  0  0
 17 22  1  0  0  0  0
 18 20  1  0  0  0  0
M  END
> <PUBCHEM_COMPOUND_ID_TYPE>
0

> <PUBCHEM_TOTAL_CHARGE>
0

> <PUBCHEM_SUBSTANCE_ID>
310947743

> <PUBCHEM_SUBSTANCE_VERSION>
1

> <PUBCHEM_EXT_DATASOURCE_NAME>
4488

> <PUBCHEM_EXT_DATASOURCE_REGID>
SCHEMBL16125915

> <PUBCHEM_SUBSTANCE_COMMENT>
InChI=1S/C16H26N6/c1-4-22(5-2)15-7-6-13(10-18-15)16-14(11-19-20-16)12-21(3)9-8-17/h6-7,10-11H,4-5,8-9,12,17H2,1-3H3,(H,19,20)
InChIKey=GEUKTQCYHSZRGZ-UHFFFAOYSA-N

> <PUBCHEM_SUBSTANCE_SYNONYM>
SCHEMBL16125915

> <PUBCHEM_XREF_EXT_ID>
SCHEMBL16125915

> <PUBCHEM_EXT_DATASOURCE_URL>
https://www.surechembl.org/

> <PUBCHEM_EXT_SUBSTANCE_URL>
https://www.surechembl.org/chemical/SCHEMBL16125915

> <PUBCHEM_CID_ASSOCIATIONS>
86301697  1

> <PUBCHEM_COORDINATE_TYPE>
1
3

$$$$
