310933694
  -OEChem-07211613022D

 22 24  0     1  0  0  0  0  0999 V2000
    0.5045   -7.7607    0.0000 Cl  0  0  0  0  0  0  0  0  0  0  0  0
    0.0000   -6.1697    0.0000 F   0  0  0  0  0  0  0  0  0  0  0  0
    2.7551   -3.1043    0.0000 O   0  0  0  0  0  0  0  0  0  0  0  0
    1.3969   -3.5311    0.0000 N   0  0  0  0  0  0  0  0  0  0  0  0
    1.6685   -2.1342    0.0000 N   0  0  0  0  0  0  0  0  0  0  0  0
    1.6685   -0.7761    0.0000 N   0  3  0  0  0  0  0  0  0  0  0  0
    1.0865   -4.9668    0.0000 C   0  0  3  0  0  0  0  0  0  0  0  0
    1.3581   -5.7429    0.0000 C   0  0  0  0  0  0  0  0  0  0  0  0
    1.9402   -2.9491    0.0000 C   0  0  0  0  0  0  0  0  0  0  0  0
    1.6685   -4.3460    0.0000 C   0  0  0  0  0  0  0  0  0  0  0  0
    0.8149   -6.3638    0.0000 C   0  0  0  0  0  0  0  0  0  0  0  0
    1.0477   -7.1399    0.0000 C   0  0  0  0  0  0  0  0  0  0  0  0
    0.2716   -4.7729    0.0000 C   0  0  0  0  0  0  0  0  0  0  0  0
    0.5821   -3.3759    0.0000 C   0  0  0  0  0  0  0  0  0  0  0  0
    2.1730   -5.9369    0.0000 C   0  0  0  0  0  0  0  0  0  0  0  0
    2.1730   -1.4745    0.0000 C   0  0  0  0  0  0  0  0  0  0  0  0
    0.8925   -1.8626    0.0000 C   0  0  0  0  0  0  0  0  0  0  0  0
    0.0388   -3.9968    0.0000 C   0  0  0  0  0  0  0  0  0  0  0  0
    0.8925   -1.0477    0.0000 C   0  0  0  0  0  0  0  0  0  0  0  0
    1.8626   -7.3339    0.0000 C   0  0  0  0  0  0  0  0  0  0  0  0
    2.4058   -6.7130    0.0000 C   0  0  0  0  0  0  0  0  0  0  0  0
    1.9402    0.0000    0.0000 C   0  0  0  0  0  0  0  0  0  0  0  0
  1 12  1  0  0  0  0
  2 11  1  0  0  0  0
  3  9  2  0  0  0  0
  4  9  1  0  0  0  0
  4 10  1  0  0  0  0
  4 14  1  0  0  0  0
  5  9  1  0  0  0  0
  5 16  1  0  0  0  0
  5 17  1  0  0  0  0
  6 16  2  0  0  0  0
  6 19  1  0  0  0  0
  6 22  1  0  0  0  0
  7  8  1  0  0  0  0
  7 10  1  0  0  0  0
  7 13  1  0  0  0  0
  8 11  1  0  0  0  0
  8 15  2  0  0  0  0
 11 12  2  0  0  0  0
 12 20  1  0  0  0  0
 13 18  1  0  0  0  0
 14 18  1  0  0  0  0
 15 21  1  0  0  0  0
 17 19  2  0  0  0  0
 20 21  2  0  0  0  0
M  CHG  1   6   1
M  END
> <PUBCHEM_COMPOUND_ID_TYPE>
0

> <PUBCHEM_TOTAL_CHARGE>
1

> <PUBCHEM_SUBSTANCE_ID>
310933694

> <PUBCHEM_SUBSTANCE_VERSION>
1

> <PUBCHEM_EXT_DATASOURCE_NAME>
4488

> <PUBCHEM_EXT_DATASOURCE_REGID>
SCHEMBL16111129

> <PUBCHEM_SUBSTANCE_COMMENT>
InChI=1S/C16H18ClFN3O/c1-19-8-9-21(11-19)16(22)20-7-3-4-12(10-20)13-5-2-6-14(17)15(13)18/h2,5-6,8-9,11-12H,3-4,7,10H2,1H3/q+1
InChIKey=JRMRFTXGTIQZHR-UHFFFAOYSA-N

> <PUBCHEM_SUBSTANCE_SYNONYM>
SCHEMBL16111129

> <PUBCHEM_XREF_EXT_ID>
SCHEMBL16111129

> <PUBCHEM_EXT_DATASOURCE_URL>
https://www.surechembl.org/

> <PUBCHEM_EXT_SUBSTANCE_URL>
https://www.surechembl.org/chemical/SCHEMBL16111129

> <PUBCHEM_CID_ASSOCIATIONS>
117602060  1

> <PUBCHEM_COORDINATE_TYPE>
1
3

$$$$
