310931593
  -OEChem-07211613022D

 30 34  0     1  0  0  0  0  0999 V2000
    1.6828   -2.7244    0.0000 O   0  0  0  0  0  0  0  0  0  0  0  0
    3.1251    0.0000    0.0000 O   0  0  0  0  0  0  0  0  0  0  0  0
    0.4407   -7.1716    0.0000 O   0  0  0  0  0  0  0  0  0  0  0  0
    3.1251   -2.4840    0.0000 N   0  0  0  0  0  0  0  0  0  0  0  0
    3.5257   -3.7661    0.0000 N   0  0  0  0  0  0  0  0  0  0  0  0
    4.5674   -2.7244    0.0000 N   0  0  0  0  0  0  0  0  0  0  0  0
    2.6843   -3.7661    0.0000 C   0  0  3  0  0  0  0  0  0  0  0  0
    2.4439   -2.9648    0.0000 C   0  0  0  0  0  0  0  0  0  0  0  0
    2.2036   -4.4072    0.0000 C   0  0  0  0  0  0  0  0  0  0  0  0
    3.0850   -4.4873    0.0000 C   0  0  0  0  0  0  0  0  0  0  0  0
    3.7661   -2.9648    0.0000 C   0  0  0  0  0  0  0  0  0  0  0  0
    2.1234   -5.2485    0.0000 C   0  0  0  0  0  0  0  0  0  0  0  0
    1.4424   -4.7677    0.0000 C   0  0  0  0  0  0  0  0  0  0  0  0
    3.1251   -1.6828    0.0000 C   0  0  0  0  0  0  0  0  0  0  0  0
    2.6042   -5.1684    0.0000 C   0  0  0  0  0  0  0  0  0  0  0  0
    3.8863   -4.5273    0.0000 C   0  0  0  0  0  0  0  0  0  0  0  0
    3.0049   -5.9296    0.0000 C   0  0  0  0  0  0  0  0  0  0  0  0
    4.2469   -5.2886    0.0000 C   0  0  0  0  0  0  0  0  0  0  0  0
    3.8062   -1.2420    0.0000 C   0  0  0  0  0  0  0  0  0  0  0  0
    2.4039   -1.2420    0.0000 C   0  0  0  0  0  0  0  0  0  0  0  0
    3.8062   -5.9697    0.0000 C   0  0  0  0  0  0  0  0  0  0  0  0
    2.5241   -6.6107    0.0000 C   0  0  0  0  0  0  0  0  0  0  0  0
    3.8062   -0.4407    0.0000 C   0  0  0  0  0  0  0  0  0  0  0  0
    2.4039   -0.4407    0.0000 C   0  0  0  0  0  0  0  0  0  0  0  0
    1.7228   -6.5706    0.0000 C   0  0  0  0  0  0  0  0  0  0  0  0
    2.9248   -7.3319    0.0000 C   0  0  0  0  0  0  0  0  0  0  0  0
    1.2821   -7.2518    0.0000 C   0  0  0  0  0  0  0  0  0  0  0  0
    2.4840   -8.0130    0.0000 C   0  0  0  0  0  0  0  0  0  0  0  0
    1.6427   -7.9729    0.0000 C   0  0  0  0  0  0  0  0  0  0  0  0
    0.0000   -7.8928    0.0000 C   0  0  0  0  0  0  0  0  0  0  0  0
  1  8  2  0  0  0  0
  2 23  1  0  0  0  0
  2 24  1  0  0  0  0
  3 27  1  0  0  0  0
  3 30  1  0  0  0  0
  4  8  1  0  0  0  0
  4 11  1  0  0  0  0
  4 14  1  0  0  0  0
  5  7  1  0  0  0  0
  5 11  1  0  0  0  0
  6 11  2  3  0  0  0
  7  8  1  0  0  0  0
  7  9  1  0  0  0  0
  7 10  1  0  0  0  0
  9 12  1  0  0  0  0
  9 13  1  0  0  0  0
 10 15  1  0  0  0  0
 10 16  2  0  0  0  0
 12 13  1  0  0  0  0
 14 19  1  0  0  0  0
 14 20  1  0  0  0  0
 15 17  2  0  0  0  0
 16 18  1  0  0  0  0
 17 21  1  0  0  0  0
 17 22  1  0  0  0  0
 18 21  2  0  0  0  0
 19 23  1  0  0  0  0
 20 24  1  0  0  0  0
 22 25  1  0  0  0  0
 22 26  2  0  0  0  0
 25 27  2  0  0  0  0
 26 28  1  0  0  0  0
 27 29  1  0  0  0  0
 28 29  2  0  0  0  0
M  END
> <PUBCHEM_COMPOUND_ID_TYPE>
0

> <PUBCHEM_TOTAL_CHARGE>
0

> <PUBCHEM_SUBSTANCE_ID>
310931593

> <PUBCHEM_SUBSTANCE_VERSION>
1

> <PUBCHEM_EXT_DATASOURCE_NAME>
4488

> <PUBCHEM_EXT_DATASOURCE_REGID>
SCHEMBL16108919

> <PUBCHEM_SUBSTANCE_COMMENT>
InChI=1S/C24H27N3O3/c1-29-21-7-3-5-17(15-21)16-4-2-6-19(14-16)24(18-8-9-18)22(28)27(23(25)26-24)20-10-12-30-13-11-20/h2-7,14-15,18,20H,8-13H2,1H3,(H2,25,26)
InChIKey=HGHAKYGFTGHRPR-UHFFFAOYSA-N

> <PUBCHEM_SUBSTANCE_SYNONYM>
SCHEMBL16108919

> <PUBCHEM_XREF_EXT_ID>
SCHEMBL16108919

> <PUBCHEM_EXT_DATASOURCE_URL>
https://www.surechembl.org/

> <PUBCHEM_EXT_SUBSTANCE_URL>
https://www.surechembl.org/chemical/SCHEMBL16108919

> <PUBCHEM_CID_ASSOCIATIONS>
86273369  1

> <PUBCHEM_COORDINATE_TYPE>
1
3

$$$$
