310944974
  -OEChem-07211613022D

 41 45  0     1  0  0  0  0  0999 V2000
    3.7167    4.0734    0.0000 O   0  0  0  0  0  0  0  0  0  0  0  0
    0.4948    0.2416    0.0000 O   0  0  0  0  0  0  0  0  0  0  0  0
   -1.9677   -2.6351    0.0000 O   0  0  0  0  0  0  0  0  0  0  0  0
   -3.2104   -0.4718    0.0000 O   0  0  0  0  0  0  0  0  0  0  0  0
    2.2208    1.7375    0.0000 N   0  0  0  0  0  0  0  0  0  0  0  0
    4.4301    2.8307    0.0000 N   0  0  0  0  0  0  0  0  0  0  0  0
    4.4417    0.3452    0.0000 N   0  0  0  0  0  0  0  0  0  0  0  0
   -0.7364    0.9666    0.0000 N   0  0  0  0  0  0  0  0  0  0  0  0
   -0.7364    2.4049    0.0000 N   0  0  0  0  0  0  0  0  0  0  0  0
   -1.9791    0.2531    0.0000 N   0  0  0  0  0  0  0  0  0  0  0  0
   -4.0159   -3.3485    0.0000 N   0  0  0  0  0  0  0  0  0  0  0  0
    3.7282    1.5879    0.0000 C   0  0  3  0  0  0  0  0  0  0  0  0
    3.0033    2.0022    0.0000 C   0  0  0  0  0  0  0  0  0  0  0  0
    3.0148    2.8307    0.0000 C   0  0  0  0  0  0  0  0  0  0  0  0
    1.7375    2.4049    0.0000 C   0  0  0  0  0  0  0  0  0  0  0  0
    3.7167    3.2334    0.0000 C   0  0  0  0  0  0  0  0  0  0  0  0
    2.2208    3.0723    0.0000 C   0  0  0  0  0  0  0  0  0  0  0  0
    4.4417    2.0022    0.0000 C   0  0  0  0  0  0  0  0  0  0  0  0
    4.4417    1.1737    0.0000 C   0  0  0  0  0  0  0  0  0  0  0  0
    3.0263    1.1737    0.0000 C   0  0  0  0  0  0  0  0  0  0  0  0
    0.9205    2.4164    0.0000 C   0  0  0  0  0  0  0  0  0  0  0  0
    0.5063    1.6915    0.0000 C   0  0  0  0  0  0  0  0  0  0  0  0
    3.0148    0.3452    0.0000 C   0  0  0  0  0  0  0  0  0  0  0  0
    0.4948    3.1184    0.0000 C   0  0  0  0  0  0  0  0  0  0  0  0
   -0.3222    1.6915    0.0000 C   0  0  0  0  0  0  0  0  0  0  0  0
    3.7397   -0.0690    0.0000 C   0  0  0  0  0  0  0  0  0  0  0  0
   -0.7364   -0.4718    0.0000 C   0  0  0  0  0  0  0  0  0  0  0  0
   -0.3452    0.2531    0.0000 C   0  0  0  0  0  0  0  0  0  0  0  0
   -0.3222    3.1298    0.0000 C   0  0  0  0  0  0  0  0  0  0  0  0
   -1.5534   -0.4603    0.0000 C   0  0  0  0  0  0  0  0  0  0  0  0
   -0.3222   -1.1737    0.0000 C   0  0  0  0  0  0  0  0  0  0  0  0
   -1.9562   -1.1967    0.0000 C   0  0  0  0  0  0  0  0  0  0  0  0
   -1.5534   -1.8986    0.0000 C   0  0  0  0  0  0  0  0  0  0  0  0
   -0.7249   -1.8986    0.0000 C   0  0  0  0  0  0  0  0  0  0  0  0
   -2.7846    0.2762    0.0000 C   0  0  0  0  0  0  0  0  0  0  0  0
   -2.7846   -2.6351    0.0000 C   0  0  0  0  0  0  0  0  0  0  0  0
   -3.1989    0.9666    0.0000 C   0  0  0  0  0  0  0  0  0  0  0  0
   -3.1989   -3.3485    0.0000 C   0  0  0  0  0  0  0  0  0  0  0  0
   -4.0389    0.8860    0.0000 C   0  0  0  0  0  0  0  0  0  0  0  0
   -4.4417   -2.6236    0.0000 C   0  0  0  0  0  0  0  0  0  0  0  0
   -4.4301   -4.0734    0.0000 C   0  0  0  0  0  0  0  0  0  0  0  0
  1 16  2  0  0  0  0
  2 28  2  0  0  0  0
  3 33  1  0  0  0  0
  3 36  1  0  0  0  0
  4 35  2  0  0  0  0
  5 13  1  0  0  0  0
  5 15  1  0  0  0  0
  6 16  1  0  0  0  0
  6 18  1  0  0  0  0
  7 19  1  0  0  0  0
  7 26  1  0  0  0  0
  8 25  1  0  0  0  0
  8 28  1  0  0  0  0
  9 25  1  0  0  0  0
  9 29  2  0  0  0  0
 10 30  1  0  0  0  0
 10 35  1  0  0  0  0
 11 38  1  0  0  0  0
 11 40  1  0  0  0  0
 11 41  1  0  0  0  0
 12 13  1  0  0  0  0
 12 18  1  0  0  0  0
 12 19  1  0  0  0  0
 12 20  1  0  0  0  0
 13 14  2  0  0  0  0
 14 16  1  0  0  0  0
 14 17  1  0  0  0  0
 15 17  2  0  0  0  0
 15 21  1  0  0  0  0
 20 23  1  0  0  0  0
 21 22  1  0  0  0  0
 21 24  2  0  0  0  0
 22 25  2  0  0  0  0
 23 26  1  0  0  0  0
 24 29  1  0  0  0  0
 27 28  1  0  0  0  0
 27 30  2  0  0  0  0
 27 31  1  0  0  0  0
 30 32  1  0  0  0  0
 31 34  2  0  0  0  0
 32 33  2  0  0  0  0
 33 34  1  0  0  0  0
 35 37  1  0  0  0  0
 36 38  1  0  0  0  0
 37 39  2  0  0  0  0
M  END
> <PUBCHEM_COMPOUND_ID_TYPE>
0

> <PUBCHEM_TOTAL_CHARGE>
0

> <PUBCHEM_SUBSTANCE_ID>
310944974

> <PUBCHEM_SUBSTANCE_VERSION>
1

> <PUBCHEM_EXT_DATASOURCE_NAME>
4488

> <PUBCHEM_EXT_DATASOURCE_REGID>
SCHEMBL16123062

> <PUBCHEM_SUBSTANCE_COMMENT>
InChI=1S/C30H35N7O4/c1-4-26(38)34-24-15-20(41-13-12-37(2)3)6-7-21(24)29(40)36-25-14-19(8-11-32-25)23-16-22-27(35-23)30(18-33-28(22)39)9-5-10-31-17-30/h4,6-8,11,14-16,31,35H,1,5,9-10,12-13,17-18H2,2-3H3,(H,33,39)(H,34,38)(H,32,36,40)
InChIKey=UHFLBMSCKYODKW-UHFFFAOYSA-N

> <PUBCHEM_SUBSTANCE_SYNONYM>
SCHEMBL16123062

> <PUBCHEM_XREF_EXT_ID>
SCHEMBL16123062

> <PUBCHEM_EXT_DATASOURCE_URL>
https://www.surechembl.org/

> <PUBCHEM_EXT_SUBSTANCE_URL>
https://www.surechembl.org/chemical/SCHEMBL16123062

> <PUBCHEM_CID_ASSOCIATIONS>
117611123  1

> <PUBCHEM_COORDINATE_TYPE>
1
3

$$$$
