310938629
  -OEChem-07211613022D

 33 37  0     1  0  0  0  0  0999 V2000
   -4.2868   -0.5795    0.0000 Cl  0  0  0  0  0  0  0  0  0  0  0  0
   -0.7145   -0.9920    0.0000 O   0  0  0  0  0  0  0  0  0  0  0  0
    0.0000   -2.2295    0.0000 O   0  0  0  0  0  0  0  0  0  0  0  0
   -4.2868   -3.0545    0.0000 O   0  0  0  0  0  0  0  0  0  0  0  0
    0.7145    1.4830    0.0000 N   0  0  0  0  0  0  0  0  0  0  0  0
    0.0000    0.2455    0.0000 N   0  0  0  0  0  0  0  0  0  0  0  0
    1.4289    0.2455    0.0000 N   0  0  0  0  0  0  0  0  0  0  0  0
    1.4289   -2.2295    0.0000 N   0  0  0  0  0  0  0  0  0  0  0  0
    2.8579   -3.0545    0.0000 N   0  0  0  0  0  0  0  0  0  0  0  0
    3.5724   -1.8170    0.0000 N   0  0  0  0  0  0  0  0  0  0  0  0
    1.1270    2.7525    0.0000 C   0  0  3  0  0  0  0  0  0  0  0  0
    0.3020    2.7525    0.0000 C   0  0  3  0  0  0  0  0  0  0  0  0
    0.7145    3.4670    0.0000 C   0  0  0  0  0  0  0  0  0  0  0  0
    0.7145    0.6580    0.0000 C   0  0  0  0  0  0  0  0  0  0  0  0
    1.3819    1.9679    0.0000 C   0  0  0  0  0  0  0  0  0  0  0  0
    0.0470    1.9679    0.0000 C   0  0  0  0  0  0  0  0  0  0  0  0
    0.0000   -0.5795    0.0000 C   0  0  0  0  0  0  0  0  0  0  0  0
    0.7145   -0.9920    0.0000 C   0  0  0  0  0  0  0  0  0  0  0  0
    1.4289   -0.5795    0.0000 C   0  0  0  0  0  0  0  0  0  0  0  0
    0.7145   -1.8170    0.0000 C   0  0  0  0  0  0  0  0  0  0  0  0
   -1.4289   -0.5795    0.0000 C   0  0  0  0  0  0  0  0  0  0  0  0
   -2.1434   -0.9920    0.0000 C   0  0  0  0  0  0  0  0  0  0  0  0
   -2.8579   -0.5795    0.0000 C   0  0  0  0  0  0  0  0  0  0  0  0
   -3.5724   -0.9920    0.0000 C   0  0  0  0  0  0  0  0  0  0  0  0
   -3.5724   -1.8170    0.0000 C   0  0  0  0  0  0  0  0  0  0  0  0
   -2.1434   -1.8170    0.0000 C   0  0  0  0  0  0  0  0  0  0  0  0
    2.1434   -1.8170    0.0000 C   0  0  0  0  0  0  0  0  0  0  0  0
   -2.8579   -2.2295    0.0000 C   0  0  0  0  0  0  0  0  0  0  0  0
    2.8579   -2.2295    0.0000 C   0  0  0  0  0  0  0  0  0  0  0  0
   -4.2868   -2.2295    0.0000 C   0  0  0  0  0  0  0  0  0  0  0  0
    3.5724   -3.4670    0.0000 C   0  0  0  0  0  0  0  0  0  0  0  0
    4.2868   -2.2295    0.0000 C   0  0  0  0  0  0  0  0  0  0  0  0
    4.2868   -3.0545    0.0000 C   0  0  0  0  0  0  0  0  0  0  0  0
  1 24  1  0  0  0  0
  2 17  1  0  0  0  0
  2 21  1  0  0  0  0
  3 20  2  0  0  0  0
  4 30  1  0  0  0  0
  5 14  1  0  0  0  0
  5 15  1  0  0  0  0
  5 16  1  0  0  0  0
  6 14  1  0  0  0  0
  6 17  2  0  0  0  0
  7 14  2  0  0  0  0
  7 19  1  0  0  0  0
  8 20  1  0  0  0  0
  8 27  1  0  0  0  0
  9 29  2  0  0  0  0
  9 31  1  0  0  0  0
 10 29  1  0  0  0  0
 10 32  2  0  0  0  0
 11 12  1  0  0  0  0
 11 13  1  0  0  0  0
 11 15  1  0  0  0  0
 12 13  1  0  0  0  0
 12 16  1  0  0  0  0
 17 18  1  0  0  0  0
 18 19  2  0  0  0  0
 18 20  1  0  0  0  0
 21 22  1  0  0  0  0
 22 23  2  0  0  0  0
 22 26  1  0  0  0  0
 23 24  1  0  0  0  0
 24 25  2  0  0  0  0
 25 28  1  0  0  0  0
 25 30  1  0  0  0  0
 26 28  2  0  0  0  0
 27 29  1  0  0  0  0
 31 33  2  0  0  0  0
 32 33  1  0  0  0  0
M  END
> <PUBCHEM_COMPOUND_ID_TYPE>
0

> <PUBCHEM_TOTAL_CHARGE>
0

> <PUBCHEM_SUBSTANCE_ID>
310938629

> <PUBCHEM_SUBSTANCE_VERSION>
1

> <PUBCHEM_EXT_DATASOURCE_NAME>
4488

> <PUBCHEM_EXT_DATASOURCE_REGID>
SCHEMBL16116543

> <PUBCHEM_SUBSTANCE_COMMENT>
InChI=1S/C23H23ClN6O3/c24-19-6-14(2-3-15(19)12-31)13-33-22-18(21(32)27-9-20-25-4-1-5-26-20)8-28-23(29-22)30-10-16-7-17(16)11-30/h1-6,8,16-17,31H,7,9-13H2,(H,27,32)
InChIKey=YFUDZELUAJSTDR-UHFFFAOYSA-N

> <PUBCHEM_SUBSTANCE_SYNONYM>
SCHEMBL16116543

> <PUBCHEM_XREF_EXT_ID>
SCHEMBL16116543

> <PUBCHEM_EXT_DATASOURCE_URL>
https://www.surechembl.org/

> <PUBCHEM_EXT_SUBSTANCE_URL>
https://www.surechembl.org/chemical/SCHEMBL16116543

> <PUBCHEM_CID_ASSOCIATIONS>
117606062  1

> <PUBCHEM_COORDINATE_TYPE>
1
3

$$$$
