310945424
  -OEChem-07211613022D

 26 29  0     1  0  0  0  0  0999 V2000
    2.8539    3.0655    0.0000 F   0  0  0  0  0  0  0  0  0  0  0  0
   -2.2991    1.4890    0.0000 O   0  0  0  0  0  0  0  0  0  0  0  0
    0.5183    0.7444    0.0000 N   0  0  0  0  0  0  0  0  0  0  0  0
    2.5473    1.6642    0.0000 N   0  0  0  0  0  0  0  0  0  0  0  0
   -0.1971   -1.4160    0.0000 N   0  0  0  0  0  0  0  0  0  0  0  0
    1.1897    1.2408    0.0000 C   0  0  0  0  0  0  0  0  0  0  0  0
    0.9269    1.9999    0.0000 C   0  0  0  0  0  0  0  0  0  0  0  0
   -0.1533    1.2408    0.0000 C   0  0  0  0  0  0  0  0  0  0  0  0
    0.1095    2.0291    0.0000 C   0  0  0  0  0  0  0  0  0  0  0  0
    1.9926    1.0510    0.0000 C   0  0  0  0  0  0  0  0  0  0  0  0
    0.5036   -0.1752    0.0000 C   0  0  3  0  0  0  0  0  0  0  0  0
    1.4817    2.6276    0.0000 C   0  0  0  0  0  0  0  0  0  0  0  0
   -0.9416    1.0656    0.0000 C   0  0  0  0  0  0  0  0  0  0  0  0
   -0.4306    2.6130    0.0000 C   0  0  0  0  0  0  0  0  0  0  0  0
    2.2991    2.4524    0.0000 C   0  0  0  0  0  0  0  0  0  0  0  0
   -1.5109    1.6787    0.0000 C   0  0  0  0  0  0  0  0  0  0  0  0
   -1.2335    2.4524    0.0000 C   0  0  0  0  0  0  0  0  0  0  0  0
   -0.1825   -0.5839    0.0000 C   0  0  0  0  0  0  0  0  0  0  0  0
    2.3138    0.1752    0.0000 C   0  0  0  0  0  0  0  0  0  0  0  0
    1.2335   -0.5985    0.0000 C   0  0  0  0  0  0  0  0  0  0  0  0
   -0.9124   -1.8247    0.0000 C   0  0  0  0  0  0  0  0  0  0  0  0
    0.5183   -1.8247    0.0000 C   0  0  0  0  0  0  0  0  0  0  0  0
   -2.8539    2.1313    0.0000 C   0  0  0  0  0  0  0  0  0  0  0  0
   -0.9124   -2.6422    0.0000 C   0  0  0  0  0  0  0  0  0  0  0  0
    0.5036   -2.6568    0.0000 C   0  0  0  0  0  0  0  0  0  0  0  0
   -0.1825   -3.0655    0.0000 C   0  0  0  0  0  0  0  0  0  0  0  0
  1 15  1  0  0  0  0
  2 16  1  0  0  0  0
  2 23  1  0  0  0  0
  3  6  1  0  0  0  0
  3  8  1  0  0  0  0
  3 11  1  0  0  0  0
  4 10  2  0  0  0  0
  4 15  1  0  0  0  0
  5 18  1  0  0  0  0
  5 21  1  0  0  0  0
  5 22  1  0  0  0  0
  6  7  2  0  0  0  0
  6 10  1  0  0  0  0
  7  9  1  0  0  0  0
  7 12  1  0  0  0  0
  8  9  2  0  0  0  0
  8 13  1  0  0  0  0
  9 14  1  0  0  0  0
 10 19  1  0  0  0  0
 11 18  1  0  0  0  0
 11 20  1  0  0  0  0
 12 15  2  0  0  0  0
 13 16  2  0  0  0  0
 14 17  2  0  0  0  0
 16 17  1  0  0  0  0
 21 24  1  0  0  0  0
 22 25  1  0  0  0  0
 24 26  1  0  0  0  0
 25 26  1  0  0  0  0
M  END
> <PUBCHEM_COMPOUND_ID_TYPE>
0

> <PUBCHEM_TOTAL_CHARGE>
0

> <PUBCHEM_SUBSTANCE_ID>
310945424

> <PUBCHEM_SUBSTANCE_VERSION>
1

> <PUBCHEM_EXT_DATASOURCE_NAME>
4488

> <PUBCHEM_EXT_DATASOURCE_REGID>
SCHEMBL16123522

> <PUBCHEM_SUBSTANCE_COMMENT>
InChI=1S/C21H26FN3O/c1-14(13-24-9-5-4-6-10-24)25-19-11-16(26-3)7-8-17(19)18-12-20(22)23-15(2)21(18)25/h7-8,11-12,14H,4-6,9-10,13H2,1-3H3
InChIKey=OKLMJSGOPSYMAI-UHFFFAOYSA-N

> <PUBCHEM_SUBSTANCE_SYNONYM>
SCHEMBL16123522

> <PUBCHEM_XREF_EXT_ID>
SCHEMBL16123522

> <PUBCHEM_EXT_DATASOURCE_URL>
https://www.surechembl.org/

> <PUBCHEM_EXT_SUBSTANCE_URL>
https://www.surechembl.org/chemical/SCHEMBL16123522

> <PUBCHEM_CID_ASSOCIATIONS>
117611470  1

> <PUBCHEM_COORDINATE_TYPE>
1
3

$$$$
