310940325
  -OEChem-07211613022D

 25 28  0     1  0  0  0  0  0999 V2000
    3.8467    1.5369    0.0000 Cl  0  0  0  0  0  0  0  0  0  0  0  0
   -0.5152    1.1935    0.0000 O   0  0  0  0  0  0  0  0  0  0  0  0
    2.6103   -1.5369    0.0000 O   0  0  0  0  0  0  0  0  0  0  0  0
    1.5970   -0.2318    0.0000 N   0  0  0  0  0  0  0  0  0  0  0  0
    0.3778   -0.8329    0.0000 N   0  0  3  0  0  0  0  0  0  0  0  0
    0.2747    0.0086    0.0000 C   0  0  0  0  0  0  0  0  0  0  0  0
    2.4213   -0.1288    0.0000 C   0  0  0  0  0  0  0  0  0  0  0  0
    0.9960    0.3349    0.0000 C   0  0  0  0  0  0  0  0  0  0  0  0
   -0.4980    0.3520    0.0000 C   0  0  0  0  0  0  0  0  0  0  0  0
   -1.1677   -0.0601    0.0000 C   0  0  0  0  0  0  0  0  0  0  0  0
    2.9193   -0.7470    0.0000 C   0  0  0  0  0  0  0  0  0  0  0  0
    2.7305    0.6611    0.0000 C   0  0  0  0  0  0  0  0  0  0  0  0
   -1.9062    0.3005    0.0000 C   0  0  0  0  0  0  0  0  0  0  0  0
   -2.6103   -0.1116    0.0000 C   0  0  0  0  0  0  0  0  0  0  0  0
    0.9617   -0.9875    0.0000 C   0  0  0  0  0  0  0  0  0  0  0  0
   -1.1505   -0.9016    0.0000 C   0  0  0  0  0  0  0  0  0  0  0  0
    3.5204    0.7813    0.0000 C   0  0  0  0  0  0  0  0  0  0  0  0
   -2.5759   -0.9359    0.0000 C   0  0  0  0  0  0  0  0  0  0  0  0
    3.7436   -0.6268    0.0000 C   0  0  0  0  0  0  0  0  0  0  0  0
   -1.8203   -1.3309    0.0000 C   0  0  0  0  0  0  0  0  0  0  0  0
    4.0356    0.1288    0.0000 C   0  0  0  0  0  0  0  0  0  0  0  0
   -3.3658    0.2490    0.0000 C   0  0  0  0  0  0  0  0  0  0  0  0
   -3.2800   -1.3824    0.0000 C   0  0  0  0  0  0  0  0  0  0  0  0
   -4.0356   -0.1803    0.0000 C   0  0  0  0  0  0  0  0  0  0  0  0
   -4.0013   -1.0046    0.0000 C   0  0  0  0  0  0  0  0  0  0  0  0
  1 17  1  0  0  0  0
  2  9  2  0  0  0  0
  3 11  1  0  0  0  0
  4  5  1  0  0  0  0
  4  7  1  0  0  0  0
  4  8  1  0  0  0  0
  5  6  1  0  0  0  0
  5 15  1  0  0  0  0
  6  8  2  0  0  0  0
  6  9  1  0  0  0  0
  7 11  2  0  0  0  0
  7 12  1  0  0  0  0
  9 10  1  0  0  0  0
 10 13  2  0  0  0  0
 10 16  1  0  0  0  0
 11 19  1  0  0  0  0
 12 17  2  0  0  0  0
 13 14  1  0  0  0  0
 14 18  2  0  0  0  0
 14 22  1  0  0  0  0
 16 20  2  0  0  0  0
 17 21  1  0  0  0  0
 18 20  1  0  0  0  0
 18 23  1  0  0  0  0
 19 21  2  0  0  0  0
 22 24  2  0  0  0  0
 23 25  2  0  0  0  0
 24 25  1  0  0  0  0
M  END
> <PUBCHEM_COMPOUND_ID_TYPE>
0

> <PUBCHEM_TOTAL_CHARGE>
0

> <PUBCHEM_SUBSTANCE_ID>
310940325

> <PUBCHEM_SUBSTANCE_VERSION>
1

> <PUBCHEM_EXT_DATASOURCE_NAME>
4488

> <PUBCHEM_EXT_DATASOURCE_REGID>
SCHEMBL16118269

> <PUBCHEM_SUBSTANCE_COMMENT>
InChI=1S/C20H15ClN2O2/c1-22-18(12-23(22)17-11-16(21)8-9-19(17)24)20(25)15-7-6-13-4-2-3-5-14(13)10-15/h2-12,24H,1H3
InChIKey=YZJZOHNIGZLLHG-UHFFFAOYSA-N

> <PUBCHEM_SUBSTANCE_SYNONYM>
SCHEMBL16118269

> <PUBCHEM_XREF_EXT_ID>
SCHEMBL16118269

> <PUBCHEM_EXT_DATASOURCE_URL>
https://www.surechembl.org/

> <PUBCHEM_EXT_SUBSTANCE_URL>
https://www.surechembl.org/chemical/SCHEMBL16118269

> <PUBCHEM_CID_ASSOCIATIONS>
117607389  1

> <PUBCHEM_COORDINATE_TYPE>
1
3

$$$$
