310941017
  -OEChem-07211613022D

 42 45  0     1  0  0  0  0  0999 V2000
    5.1617   -1.4229    0.0000 O   0  0  0  0  0  0  0  0  0  0  0  0
    4.0292    0.5373    0.0000 O   0  0  0  0  0  0  0  0  0  0  0  0
    1.6625   -1.4084    0.0000 O   0  0  0  0  0  0  0  0  0  0  0  0
   -0.4864    0.6679    0.0000 O   0  0  0  0  0  0  0  0  0  0  0  0
    3.8114    2.3231    0.0000 O   0  0  0  0  0  0  0  0  0  0  0  0
    2.3884    3.1507    0.0000 O   0  0  0  0  0  0  0  0  0  0  0  0
   -2.6353   -1.4084    0.0000 O   0  0  0  0  0  0  0  0  0  0  0  0
   -5.4956   -1.4084    0.0000 O   0  0  0  0  0  0  0  0  0  0  0  0
    2.3884   -0.1597    0.0000 N   0  0  0  0  0  0  0  0  0  0  0  0
    0.2396   -0.5808    0.0000 N   0  0  0  0  0  0  0  0  0  0  0  0
   -1.9093   -0.1597    0.0000 N   0  0  0  0  0  0  0  0  0  0  0  0
   -4.0582   -0.5808    0.0000 N   0  0  0  0  0  0  0  0  0  0  0  0
    4.7551   -0.6824    0.0000 C   0  0  3  0  0  0  0  0  0  0  0  0
    4.0292   -0.2759    0.0000 C   0  0  0  0  0  0  0  0  0  0  0  0
    4.3631   -1.3939    0.0000 C   0  0  0  0  0  0  0  0  0  0  0  0
    3.3322   -0.6679    0.0000 C   0  0  3  0  0  0  0  0  0  0  0  0
    5.4956   -0.2759    0.0000 C   0  0  0  0  0  0  0  0  0  0  0  0
    3.3322   -1.7569    0.0000 C   0  0  0  0  0  0  0  0  0  0  0  0
    1.6915   -0.5227    0.0000 C   0  0  0  0  0  0  0  0  0  0  0  0
    0.9656   -0.1307    0.0000 C   0  0  3  0  0  0  0  0  0  0  0  0
    2.6062   -2.1634    0.0000 C   0  0  0  0  0  0  0  0  0  0  0  0
    0.9801    0.6969    0.0000 C   0  0  0  0  0  0  0  0  0  0  0  0
    1.6770    1.1035    0.0000 C   0  0  0  0  0  0  0  0  0  0  0  0
   -0.4864   -0.1597    0.0000 C   0  0  0  0  0  0  0  0  0  0  0  0
    1.8512   -1.8440    0.0000 C   0  0  0  0  0  0  0  0  0  0  0  0
    2.5191   -2.9765    0.0000 C   0  0  0  0  0  0  0  0  0  0  0  0
    1.6915    1.9311    0.0000 C   0  0  0  0  0  0  0  0  0  0  0  0
    2.3884    2.3522    0.0000 C   0  0  0  0  0  0  0  0  0  0  0  0
    3.1144    1.9311    0.0000 C   0  0  0  0  0  0  0  0  0  0  0  0
    2.4030    0.6969    0.0000 C   0  0  0  0  0  0  0  0  0  0  0  0
   -1.1688   -0.5518    0.0000 C   0  0  3  0  0  0  0  0  0  0  0  0
    3.1144    1.1035    0.0000 C   0  0  0  0  0  0  0  0  0  0  0  0
    1.3140   -2.4393    0.0000 C   0  0  0  0  0  0  0  0  0  0  0  0
    1.7206   -3.1507    0.0000 C   0  0  0  0  0  0  0  0  0  0  0  0
   -2.6062   -0.5227    0.0000 C   0  0  0  0  0  0  0  0  0  0  0  0
   -1.1833   -1.3939    0.0000 C   0  0  0  0  0  0  0  0  0  0  0  0
   -3.3467   -0.1452    0.0000 C   0  0  0  0  0  0  0  0  0  0  0  0
   -4.0582   -1.3794    0.0000 C   0  0  0  0  0  0  0  0  0  0  0  0
   -4.7987   -0.1452    0.0000 C   0  0  0  0  0  0  0  0  0  0  0  0
    4.5664    1.9166    0.0000 C   0  0  0  0  0  0  0  0  0  0  0  0
   -4.7406   -1.7859    0.0000 C   0  0  0  0  0  0  0  0  0  0  0  0
   -5.4666   -0.5373    0.0000 C   0  0  0  0  0  0  0  0  0  0  0  0
  1 13  1  0  0  0  0
  1 15  1  0  0  0  0
  2 14  2  0  0  0  0
  3 19  2  0  0  0  0
  4 24  2  0  0  0  0
  5 29  1  0  0  0  0
  5 40  1  0  0  0  0
  6 28  1  0  0  0  0
  7 35  2  0  0  0  0
  8 41  1  0  0  0  0
  8 42  1  0  0  0  0
  9 16  1  0  0  0  0
  9 19  1  0  0  0  0
 10 20  1  0  0  0  0
 10 24  1  0  0  0  0
 11 31  1  0  0  0  0
 11 35  1  0  0  0  0
 12 37  1  0  0  0  0
 12 38  1  0  0  0  0
 12 39  1  0  0  0  0
 13 14  1  0  0  0  0
 13 15  1  0  0  0  0
 13 17  1  0  0  0  0
 14 16  1  0  0  0  0
 16 18  1  0  0  0  0
 18 21  1  0  0  0  0
 19 20  1  0  0  0  0
 20 22  1  0  0  0  0
 21 25  2  0  0  0  0
 21 26  1  0  0  0  0
 22 23  1  0  0  0  0
 23 27  1  0  0  0  0
 23 30  2  0  0  0  0
 24 31  1  0  0  0  0
 25 33  1  0  0  0  0
 26 34  1  0  0  0  0
 27 28  2  0  0  0  0
 28 29  1  0  0  0  0
 29 32  2  0  0  0  0
 30 32  1  0  0  0  0
 31 36  1  0  0  0  0
 33 34  1  0  0  0  0
 35 37  1  0  0  0  0
 38 41  1  0  0  0  0
 39 42  1  0  0  0  0
M  END
> <PUBCHEM_COMPOUND_ID_TYPE>
0

> <PUBCHEM_TOTAL_CHARGE>
0

> <PUBCHEM_SUBSTANCE_ID>
310941017

> <PUBCHEM_SUBSTANCE_VERSION>
1

> <PUBCHEM_EXT_DATASOURCE_NAME>
4488

> <PUBCHEM_EXT_DATASOURCE_REGID>
SCHEMBL16118976

> <PUBCHEM_SUBSTANCE_COMMENT>
InChI=1S/C30H42N4O8/c1-19(31-26(36)17-34-10-12-41-13-11-34)28(38)33-23(15-21-8-9-25(40-3)24(35)16-21)29(39)32-22(14-20-6-4-5-7-20)27(37)30(2)18-42-30/h6,8-9,16,19,22-23,35H,4-5,7,10-15,17-18H2,1-3H3,(H,31,36)(H,32,39)(H,33,38)
InChIKey=KHDJFXOXBXYGNT-UHFFFAOYSA-N

> <PUBCHEM_SUBSTANCE_SYNONYM>
SCHEMBL16118976

> <PUBCHEM_XREF_EXT_ID>
SCHEMBL16118976

> <PUBCHEM_EXT_DATASOURCE_URL>
https://www.surechembl.org/

> <PUBCHEM_EXT_SUBSTANCE_URL>
https://www.surechembl.org/chemical/SCHEMBL16118976

> <PUBCHEM_CID_ASSOCIATIONS>
117607917  1

> <PUBCHEM_COORDINATE_TYPE>
1
3

$$$$
