310935862
  -OEChem-07211613022D

 30 33  0     1  0  0  0  0  0999 V2000
    7.7337   -0.6472    0.0000 F   0  0  0  0  0  0  0  0  0  0  0  0
    0.0000   -5.8892    0.0000 F   0  0  0  0  0  0  0  0  0  0  0  0
    1.2944   -6.4717    0.0000 F   0  0  0  0  0  0  0  0  0  0  0  0
    0.3236   -5.1450    0.0000 F   0  0  0  0  0  0  0  0  0  0  0  0
    6.5688   -2.9123    0.0000 O   0  0  0  0  0  0  0  0  0  0  0  0
    6.5688   -1.4885    0.0000 O   0  0  0  0  0  0  0  0  0  0  0  0
    1.4238   -4.4978    0.0000 N   0  0  0  0  0  0  0  0  0  0  0  0
    2.9123   -5.1773    0.0000 N   0  0  0  0  0  0  0  0  0  0  0  0
    5.3391   -2.2004    0.0000 C   0  0  3  0  0  0  0  0  0  0  0  0
    5.7274   -1.4561    0.0000 C   0  0  0  0  0  0  0  0  0  0  0  0
    4.0772   -2.6210    0.0000 C   0  0  0  0  0  0  0  0  0  0  0  0
    4.8538   -2.8799    0.0000 C   0  0  0  0  0  0  0  0  0  0  0  0
    4.8538   -1.5208    0.0000 C   0  0  0  0  0  0  0  0  0  0  0  0
    6.1481   -2.2004    0.0000 C   0  0  0  0  0  0  0  0  0  0  0  0
    3.4300   -3.0741    0.0000 C   0  0  0  0  0  0  0  0  0  0  0  0
    6.6982   -1.5855    0.0000 C   0  0  0  0  0  0  0  0  0  0  0  0
    4.0772   -1.8121    0.0000 C   0  0  0  0  0  0  0  0  0  0  0  0
    2.8475   -4.3684    0.0000 C   0  0  0  0  0  0  0  0  0  0  0  0
    2.0709   -4.0125    0.0000 C   0  0  0  0  0  0  0  0  0  0  0  0
    3.4947   -3.9154    0.0000 C   0  0  0  0  0  0  0  0  0  0  0  0
    5.2744   -0.7766    0.0000 C   0  0  0  0  0  0  0  0  0  0  0  0
    1.4885   -5.3391    0.0000 C   0  0  0  0  0  0  0  0  0  0  0  0
    2.6534   -2.7505    0.0000 C   0  0  0  0  0  0  0  0  0  0  0  0
    6.9247   -0.6795    0.0000 C   0  0  0  0  0  0  0  0  0  0  0  0
    2.0062   -3.2359    0.0000 C   0  0  0  0  0  0  0  0  0  0  0  0
    0.8090   -5.8245    0.0000 C   0  0  0  0  0  0  0  0  0  0  0  0
    2.2327   -5.6627    0.0000 C   0  0  0  0  0  0  0  0  0  0  0  0
    5.6304   -0.0324    0.0000 C   0  0  0  0  0  0  0  0  0  0  0  0
    6.4717    0.0000    0.0000 C   0  0  0  0  0  0  0  0  0  0  0  0
    6.9895   -2.1033    0.0000 C   0  0  0  0  0  0  0  0  0  0  0  0
  1 24  1  0  0  0  0
  2 26  1  0  0  0  0
  3 26  1  0  0  0  0
  4 26  1  0  0  0  0
  5 14  2  0  0  0  0
  6 14  1  0  0  0  0
  7 19  2  0  0  0  0
  7 22  1  0  0  0  0
  8 18  2  0  0  0  0
  8 27  1  0  0  0  0
  9 10  1  0  0  0  0
  9 12  1  0  0  0  0
  9 13  1  0  0  0  0
  9 14  1  0  0  0  0
 10 16  1  0  0  0  0
 10 21  2  0  0  0  0
 11 12  2  0  0  0  0
 11 15  1  0  0  0  0
 11 17  1  0  0  0  0
 13 17  1  0  0  0  0
 15 20  2  0  0  0  0
 15 23  1  0  0  0  0
 16 24  2  0  0  0  0
 16 30  1  0  0  0  0
 18 19  1  0  0  0  0
 18 20  1  0  0  0  0
 19 25  1  0  0  0  0
 21 28  1  0  0  0  0
 22 26  1  0  0  0  0
 22 27  2  0  0  0  0
 23 25  2  0  0  0  0
 24 29  1  0  0  0  0
 28 29  2  0  0  0  0
M  END
> <PUBCHEM_COMPOUND_ID_TYPE>
0

> <PUBCHEM_TOTAL_CHARGE>
0

> <PUBCHEM_SUBSTANCE_ID>
310935862

> <PUBCHEM_SUBSTANCE_VERSION>
1

> <PUBCHEM_EXT_DATASOURCE_NAME>
4488

> <PUBCHEM_EXT_DATASOURCE_REGID>
SCHEMBL16113455

> <PUBCHEM_SUBSTANCE_COMMENT>
InChI=1S/C22H16F4N2O2/c1-12-15(3-2-4-16(12)23)21(20(29)30)8-7-14(10-21)13-5-6-17-18(9-13)27-11-19(28-17)22(24,25)26/h2-6,9-11H,7-8H2,1H3,(H,29,30)
InChIKey=YMIPVYRUPZKSIH-UHFFFAOYSA-N

> <PUBCHEM_SUBSTANCE_SYNONYM>
SCHEMBL16113455

> <PUBCHEM_XREF_EXT_ID>
SCHEMBL16113455

> <PUBCHEM_EXT_DATASOURCE_URL>
https://www.surechembl.org/

> <PUBCHEM_EXT_SUBSTANCE_URL>
https://www.surechembl.org/chemical/SCHEMBL16113455

> <PUBCHEM_CID_ASSOCIATIONS>
117603851  1

> <PUBCHEM_COORDINATE_TYPE>
1
3

$$$$
