310946221
  -OEChem-07211613022D

 26 28  0     1  0  0  0  0  0999 V2000
   -1.3060    1.6531    0.0000 O   0  0  0  0  0  0  0  0  0  0  0  0
   -0.0730    2.4538    0.0000 O   0  0  0  0  0  0  0  0  0  0  0  0
   -0.7631    0.4337    0.0000 C   0  0  0  0  0  0  0  0  0  0  0  0
   -1.4775    0.8462    0.0000 C   0  0  0  0  0  0  0  0  0  0  0  0
   -0.1500    0.9857    0.0000 C   0  0  3  0  0  0  0  0  0  0  0  0
   -0.4855    1.7394    0.0000 C   0  0  0  0  0  0  0  0  0  0  0  0
   -2.1920    0.4337    0.0000 C   0  0  0  0  0  0  0  0  0  0  0  0
   -1.4775   -0.8038    0.0000 C   0  0  0  0  0  0  0  0  0  0  0  0
   -0.7631   -0.3913    0.0000 C   0  0  0  0  0  0  0  0  0  0  0  0
    0.6469    0.7722    0.0000 C   0  0  0  0  0  0  0  0  0  0  0  0
   -2.1920   -0.3913    0.0000 C   0  0  0  0  0  0  0  0  0  0  0  0
   -1.4775   -1.6288    0.0000 C   0  0  0  0  0  0  0  0  0  0  0  0
   -2.9065    0.8462    0.0000 C   0  0  0  0  0  0  0  0  0  0  0  0
    0.8604   -0.0247    0.0000 C   0  0  0  0  0  0  0  0  0  0  0  0
    1.2303    1.3555    0.0000 C   0  0  0  0  0  0  0  0  0  0  0  0
    1.6573   -0.2382    0.0000 C   0  0  0  0  0  0  0  0  0  0  0  0
    2.0272    1.1420    0.0000 C   0  0  0  0  0  0  0  0  0  0  0  0
   -2.9065    1.6712    0.0000 C   0  0  0  0  0  0  0  0  0  0  0  0
    2.2407    0.3451    0.0000 C   0  0  0  0  0  0  0  0  0  0  0  0
   -0.6525   -1.6288    0.0000 C   0  0  0  0  0  0  0  0  0  0  0  0
   -1.4775   -2.4538    0.0000 C   0  0  0  0  0  0  0  0  0  0  0  0
   -2.3025   -1.6288    0.0000 C   0  0  0  0  0  0  0  0  0  0  0  0
    3.0376    0.1316    0.0000 C   0  0  0  0  0  0  0  0  0  0  0  0
   -3.6209    2.0837    0.0000 C   0  0  0  0  0  0  0  0  0  0  0  0
   -2.1920    2.0837    0.0000 C   0  0  0  0  0  0  0  0  0  0  0  0
    3.6209    0.7150    0.0000 C   0  0  0  0  0  0  0  0  0  0  0  0
  1  4  1  0  0  0  0
  1  6  1  0  0  0  0
  2  6  2  0  0  0  0
  3  4  2  0  0  0  0
  3  5  1  0  0  0  0
  3  9  1  0  0  0  0
  4  7  1  0  0  0  0
  5  6  1  0  0  0  0
  5 10  1  0  0  0  0
  7 11  2  0  0  0  0
  7 13  1  0  0  0  0
  8  9  2  0  0  0  0
  8 11  1  0  0  0  0
  8 12  1  0  0  0  0
 10 14  2  0  0  0  0
 10 15  1  0  0  0  0
 12 20  1  0  0  0  0
 12 21  1  0  0  0  0
 12 22  1  0  0  0  0
 13 18  1  0  0  0  0
 14 16  1  0  0  0  0
 15 17  2  0  0  0  0
 16 19  2  0  0  0  0
 17 19  1  0  0  0  0
 18 24  1  0  0  0  0
 18 25  1  0  0  0  0
 19 23  1  0  0  0  0
 23 26  1  0  0  0  0
M  END
> <PUBCHEM_COMPOUND_ID_TYPE>
0

> <PUBCHEM_TOTAL_CHARGE>
0

> <PUBCHEM_SUBSTANCE_ID>
310946221

> <PUBCHEM_SUBSTANCE_VERSION>
1

> <PUBCHEM_EXT_DATASOURCE_NAME>
4488

> <PUBCHEM_EXT_DATASOURCE_REGID>
SCHEMBL16124337

> <PUBCHEM_SUBSTANCE_COMMENT>
InChI=1S/C24H30O2/c1-7-16-8-10-17(11-9-16)21-20-14-19(24(4,5)6)13-18(12-15(2)3)22(20)26-23(21)25/h8-11,13-15,21H,7,12H2,1-6H3
InChIKey=KZMSWOCODNZJQF-UHFFFAOYSA-N

> <PUBCHEM_SUBSTANCE_SYNONYM>
SCHEMBL16124337

> <PUBCHEM_XREF_EXT_ID>
SCHEMBL16124337

> <PUBCHEM_EXT_DATASOURCE_URL>
https://www.surechembl.org/

> <PUBCHEM_EXT_SUBSTANCE_URL>
https://www.surechembl.org/chemical/SCHEMBL16124337

> <PUBCHEM_CID_ASSOCIATIONS>
117612169  1

> <PUBCHEM_COORDINATE_TYPE>
1
3

$$$$
