310946631
  -OEChem-07211613022D

 43 43  0     1  0  0  0  0  0999 V2000
  -10.1528   12.7176    0.0000 O   0  0  0  0  0  0  0  0  0  0  0  0
   -5.9971   10.4135    0.0000 O   0  0  0  0  0  0  0  0  0  0  0  0
   -6.5805    9.0051    0.0000 O   0  0  0  0  0  0  0  0  0  0  0  0
   -8.7239    8.5926    0.0000 O   0  0  0  0  0  0  0  0  0  0  0  0
   -9.4384   13.9551    0.0000 O   0  0  0  0  0  0  0  0  0  0  0  0
   -7.2949    8.5926    0.0000 O   0  0  0  0  0  0  0  0  0  0  0  0
  -10.8673   13.9551    0.0000 O   0  0  0  0  0  0  0  0  0  0  0  0
   -9.4384    4.8801    0.0000 O   0  0  0  0  0  0  0  0  0  0  0  0
   -5.1515   13.9551    0.0000 O   0  0  0  0  0  0  0  0  0  0  0  0
   -8.0094    4.8801    0.0000 O   0  5  0  0  0  0  0  0  0  0  0  0
   -8.7239    6.1176    0.0000 O   0  0  0  0  0  0  0  0  0  0  0  0
   -4.4371   15.1926    0.0000 O   0  5  0  0  0  0  0  0  0  0  0  0
   -5.8660   15.1926    0.0000 O   0  0  0  0  0  0  0  0  0  0  0  0
   -8.0094    9.8301    0.0000 N   0  0  0  0  0  0  0  0  0  0  0  0
   -8.7239    5.2926    0.0000 N   0  3  0  0  0  0  0  0  0  0  0  0
   -5.1515   14.7801    0.0000 N   0  3  0  0  0  0  0  0  0  0  0  0
   -7.2949   10.2426    0.0000 C   0  0  3  0  0  0  0  0  0  0  0  0
   -8.0094   11.4801    0.0000 C   0  0  0  0  0  0  0  0  0  0  0  0
   -7.2949   11.0676    0.0000 C   0  0  0  0  0  0  0  0  0  0  0  0
   -9.4384   12.3051    0.0000 C   0  0  0  0  0  0  0  0  0  0  0  0
   -6.5805    9.8301    0.0000 C   0  0  0  0  0  0  0  0  0  0  0  0
   -8.0094   12.3051    0.0000 C   0  0  0  0  0  0  0  0  0  0  0  0
   -8.7239   11.0676    0.0000 C   0  0  0  0  0  0  0  0  0  0  0  0
   -8.7239   12.7176    0.0000 C   0  0  0  0  0  0  0  0  0  0  0  0
   -9.4384   11.4801    0.0000 C   0  0  0  0  0  0  0  0  0  0  0  0
   -8.0094    9.0051    0.0000 C   0  0  0  0  0  0  0  0  0  0  0  0
  -10.1528   13.5426    0.0000 C   0  0  0  0  0  0  0  0  0  0  0  0
   -5.2002   10.1999    0.0000 C   0  0  0  0  0  0  0  0  0  0  0  0
   -8.7239    7.7676    0.0000 C   0  0  0  0  0  0  0  0  0  0  0  0
   -4.6169   10.7833    0.0000 C   0  0  0  0  0  0  0  0  0  0  0  0
   -8.7239   13.5426    0.0000 C   0  0  0  0  0  0  0  0  0  0  0  0
   -9.4384    7.3551    0.0000 C   0  0  0  0  0  0  0  0  0  0  0  0
   -8.0094   13.9551    0.0000 C   0  0  0  0  0  0  0  0  0  0  0  0
   -3.8200   10.5698    0.0000 C   0  0  0  0  0  0  0  0  0  0  0  0
   -9.4384    6.5301    0.0000 C   0  0  0  0  0  0  0  0  0  0  0  0
   -7.2949   13.5426    0.0000 C   0  0  0  0  0  0  0  0  0  0  0  0
   -3.2366   11.1531    0.0000 C   0  0  0  0  0  0  0  0  0  0  0  0
  -10.1528    6.1176    0.0000 C   0  0  0  0  0  0  0  0  0  0  0  0
   -6.5805   13.9551    0.0000 C   0  0  0  0  0  0  0  0  0  0  0  0
  -10.1528    5.2926    0.0000 C   0  0  0  0  0  0  0  0  0  0  0  0
   -5.8660   13.5426    0.0000 C   0  0  0  0  0  0  0  0  0  0  0  0
   -2.4397   10.9396    0.0000 C   0  0  0  0  0  0  0  0  0  0  0  0
   -1.8564   11.5230    0.0000 C   0  0  0  0  0  0  0  0  0  0  0  0
  1 20  1  0  0  0  0
  1 27  1  0  0  0  0
  2 21  1  0  0  0  0
  2 28  1  0  0  0  0
  3 21  2  0  0  0  0
  4 26  1  0  0  0  0
  4 29  1  0  0  0  0
  5 27  1  0  0  0  0
  5 31  1  0  0  0  0
  6 26  2  0  0  0  0
  7 27  2  0  0  0  0
  8 15  1  0  0  0  0
  8 40  1  0  0  0  0
  9 16  1  0  0  0  0
  9 41  1  0  0  0  0
 10 15  1  0  0  0  0
 11 15  2  0  0  0  0
 12 16  1  0  0  0  0
 13 16  2  0  0  0  0
 14 17  1  0  0  0  0
 14 26  1  0  0  0  0
 17 19  1  0  0  0  0
 17 21  1  0  0  0  0
 18 19  1  0  0  0  0
 18 22  2  0  0  0  0
 18 23  1  0  0  0  0
 20 24  2  0  0  0  0
 20 25  1  0  0  0  0
 22 24  1  0  0  0  0
 23 25  2  0  0  0  0
 28 30  1  0  0  0  0
 29 32  1  0  0  0  0
 30 34  1  0  0  0  0
 31 33  1  0  0  0  0
 32 35  1  0  0  0  0
 33 36  1  0  0  0  0
 34 37  1  0  0  0  0
 35 38  1  0  0  0  0
 36 39  1  0  0  0  0
 37 42  1  0  0  0  0
 38 40  1  0  0  0  0
 39 41  1  0  0  0  0
 42 43  1  0  0  0  0
M  CHG  4  10  -1  12  -1  15   1  16   1
M  END
> <PUBCHEM_COMPOUND_ID_TYPE>
0

> <PUBCHEM_TOTAL_CHARGE>
0

> <PUBCHEM_SUBSTANCE_ID>
310946631

> <PUBCHEM_SUBSTANCE_VERSION>
1

> <PUBCHEM_EXT_DATASOURCE_NAME>
4488

> <PUBCHEM_EXT_DATASOURCE_REGID>
SCHEMBL16124752

> <PUBCHEM_SUBSTANCE_COMMENT>
InChI=1S/C27H41N3O13/c1-2-3-4-7-16-38-25(31)24(28-26(32)39-17-8-5-10-19-41-29(34)35)21-22-12-14-23(15-13-22)43-27(33)40-18-9-6-11-20-42-30(36)37/h12-15,24H,2-11,16-21H2,1H3,(H,28,32)
InChIKey=DXDHKCPMHJWUQQ-UHFFFAOYSA-N

> <PUBCHEM_SUBSTANCE_SYNONYM>
SCHEMBL16124752

> <PUBCHEM_XREF_EXT_ID>
SCHEMBL16124752

> <PUBCHEM_EXT_DATASOURCE_URL>
https://www.surechembl.org/

> <PUBCHEM_EXT_SUBSTANCE_URL>
https://www.surechembl.org/chemical/SCHEMBL16124752

> <PUBCHEM_CID_ASSOCIATIONS>
117612531  1

> <PUBCHEM_COORDINATE_TYPE>
1
3

$$$$
