310937719
  -OEChem-07211613022D

 16 17  0     1  0  0  0  0  0999 V2000
    2.8772   -1.6944    0.0000 O   0  0  0  0  0  0  0  0  0  0  0  0
    4.1720   -1.0230    0.0000 O   0  0  0  0  0  0  0  0  0  0  0  0
    0.0799   -2.8613    0.0000 O   0  0  0  0  0  0  0  0  0  0  0  0
    1.4226   -1.9182    0.0000 N   0  0  0  0  0  0  0  0  0  0  0  0
    2.0940   -1.4386    0.0000 C   0  0  3  0  0  0  0  0  0  0  0  0
    2.0940   -0.6234    0.0000 C   0  0  0  0  0  0  0  0  0  0  0  0
    3.3568   -1.0230    0.0000 C   0  0  0  0  0  0  0  0  0  0  0  0
    2.8772   -0.3517    0.0000 C   0  0  0  0  0  0  0  0  0  0  0  0
    1.4226   -0.1439    0.0000 C   0  0  0  0  0  0  0  0  0  0  0  0
    1.5026   -2.7334    0.0000 C   0  0  0  0  0  0  0  0  0  0  0  0
    0.6873   -1.5665    0.0000 C   0  0  0  0  0  0  0  0  0  0  0  0
    0.6714   -0.4955    0.0000 C   0  0  0  0  0  0  0  0  0  0  0  0
    0.8312   -3.1970    0.0000 C   0  0  0  0  0  0  0  0  0  0  0  0
    0.0160   -2.0460    0.0000 C   0  0  0  0  0  0  0  0  0  0  0  0
    0.5915   -1.2948    0.0000 C   0  0  0  0  0  0  0  0  0  0  0  0
    0.0000    0.0000    0.0000 C   0  0  0  0  0  0  0  0  0  0  0  0
  1  5  1  0  0  0  0
  1  7  1  0  0  0  0
  2  7  2  0  0  0  0
  3 13  1  0  0  0  0
  3 14  1  0  0  0  0
  4  5  1  0  0  0  0
  4 10  1  0  0  0  0
  4 11  1  0  0  0  0
  5  6  1  0  0  0  0
  6  8  2  0  0  0  0
  6  9  1  0  0  0  0
  7  8  1  0  0  0  0
  9 12  2  0  0  0  0
 10 13  1  0  0  0  0
 11 14  1  0  0  0  0
 12 15  1  0  0  0  0
 12 16  1  0  0  0  0
M  END
> <PUBCHEM_COMPOUND_ID_TYPE>
0

> <PUBCHEM_TOTAL_CHARGE>
0

> <PUBCHEM_SUBSTANCE_ID>
310937719

> <PUBCHEM_SUBSTANCE_VERSION>
1

> <PUBCHEM_EXT_DATASOURCE_NAME>
4488

> <PUBCHEM_EXT_DATASOURCE_REGID>
SCHEMBL16115515

> <PUBCHEM_SUBSTANCE_COMMENT>
InChI=1S/C12H17NO3/c1-9(2)7-10-8-11(14)16-12(10)13-3-5-15-6-4-13/h7-8,12H,3-6H2,1-2H3
InChIKey=BMHQQGDVNVUVSC-UHFFFAOYSA-N

> <PUBCHEM_SUBSTANCE_SYNONYM>
SCHEMBL16115515

> <PUBCHEM_XREF_EXT_ID>
SCHEMBL16115515

> <PUBCHEM_EXT_DATASOURCE_URL>
https://www.surechembl.org/

> <PUBCHEM_EXT_SUBSTANCE_URL>
https://www.surechembl.org/chemical/SCHEMBL16115515

> <PUBCHEM_CID_ASSOCIATIONS>
90465914  1

> <PUBCHEM_COORDINATE_TYPE>
1
3

$$$$
