310938381
  -OEChem-07211613022D

 25 28  0     1  0  0  0  0  0999 V2000
   -1.2695    0.4125    0.0000 O   0  0  0  0  0  0  0  0  0  0  0  0
    0.7145   -1.2375    0.0000 O   0  0  0  0  0  0  0  0  0  0  0  0
    3.4491   -0.6900    0.0000 O   0  0  0  0  0  0  0  0  0  0  0  0
   -1.0396    1.8646    0.0000 O   0  0  0  0  0  0  0  0  0  0  0  0
    3.0366   -1.4045    0.0000 N   0  0  0  0  0  0  0  0  0  0  0  0
    0.0000    0.0000    0.0000 C   0  0  0  0  0  0  0  0  0  0  0  0
    0.7145   -0.4125    0.0000 C   0  0  0  0  0  0  0  0  0  0  0  0
    0.0000    0.8250    0.0000 C   0  0  0  0  0  0  0  0  0  0  0  0
   -0.7846   -0.2549    0.0000 C   0  0  3  0  0  0  0  0  0  0  0  0
    1.4289    0.0000    0.0000 C   0  0  0  0  0  0  0  0  0  0  0  0
    2.1434   -0.4125    0.0000 C   0  0  0  0  0  0  0  0  0  0  0  0
   -0.7846    1.0799    0.0000 C   0  0  0  0  0  0  0  0  0  0  0  0
    0.7145    1.2375    0.0000 C   0  0  0  0  0  0  0  0  0  0  0  0
    1.4289    0.8250    0.0000 C   0  0  0  0  0  0  0  0  0  0  0  0
   -1.0396   -1.0396    0.0000 C   0  0  0  0  0  0  0  0  0  0  0  0
    2.8971   -0.0769    0.0000 C   0  0  0  0  0  0  0  0  0  0  0  0
    2.2296   -1.2330    0.0000 C   0  0  0  0  0  0  0  0  0  0  0  0
   -0.4875   -1.6527    0.0000 C   0  0  0  0  0  0  0  0  0  0  0  0
   -1.8465   -1.2111    0.0000 C   0  0  0  0  0  0  0  0  0  0  0  0
    3.0686    0.7300    0.0000 C   0  0  0  0  0  0  0  0  0  0  0  0
    1.6166   -1.7850    0.0000 C   0  0  0  0  0  0  0  0  0  0  0  0
    0.0000   -1.6500    0.0000 C   0  0  0  0  0  0  0  0  0  0  0  0
   -0.7425   -2.4373    0.0000 C   0  0  0  0  0  0  0  0  0  0  0  0
   -2.1015   -1.9957    0.0000 C   0  0  0  0  0  0  0  0  0  0  0  0
   -1.5494   -2.6088    0.0000 C   0  0  0  0  0  0  0  0  0  0  0  0
  1  9  1  0  0  0  0
  1 12  1  0  0  0  0
  2  7  1  0  0  0  0
  2 22  1  0  0  0  0
  3  5  1  0  0  0  0
  3 16  1  0  0  0  0
  4 12  2  0  0  0  0
  5 17  2  0  0  0  0
  6  7  2  0  0  0  0
  6  8  1  0  0  0  0
  6  9  1  0  0  0  0
  7 10  1  0  0  0  0
  8 12  1  0  0  0  0
  8 13  2  0  0  0  0
  9 15  1  0  0  0  0
 10 11  1  0  0  0  0
 10 14  2  0  0  0  0
 11 16  2  0  0  0  0
 11 17  1  0  0  0  0
 13 14  1  0  0  0  0
 15 18  2  0  0  0  0
 15 19  1  0  0  0  0
 16 20  1  0  0  0  0
 17 21  1  0  0  0  0
 18 23  1  0  0  0  0
 19 24  2  0  0  0  0
 23 25  2  0  0  0  0
 24 25  1  0  0  0  0
M  END
> <PUBCHEM_COMPOUND_ID_TYPE>
0

> <PUBCHEM_TOTAL_CHARGE>
0

> <PUBCHEM_SUBSTANCE_ID>
310938381

> <PUBCHEM_SUBSTANCE_VERSION>
1

> <PUBCHEM_EXT_DATASOURCE_NAME>
4488

> <PUBCHEM_EXT_DATASOURCE_REGID>
SCHEMBL16116268

> <PUBCHEM_SUBSTANCE_COMMENT>
InChI=1S/C20H17NO4/c1-11-16(12(2)25-21-11)14-9-10-15-17(19(14)23-3)18(24-20(15)22)13-7-5-4-6-8-13/h4-10,18H,1-3H3
InChIKey=WNEAXBLGUKKDGY-UHFFFAOYSA-N

> <PUBCHEM_SUBSTANCE_SYNONYM>
SCHEMBL16116268

> <PUBCHEM_XREF_EXT_ID>
SCHEMBL16116268

> <PUBCHEM_EXT_DATASOURCE_URL>
https://www.surechembl.org/

> <PUBCHEM_EXT_SUBSTANCE_URL>
https://www.surechembl.org/chemical/SCHEMBL16116268

> <PUBCHEM_CID_ASSOCIATIONS>
86295884  1

> <PUBCHEM_COORDINATE_TYPE>
1
3

$$$$
