310938817
  -OEChem-07211613022D

 22 23  0     1  0  0  0  0  0999 V2000
   -1.1119    8.0172    0.0000 O   0  0  0  0  0  0  0  0  0  0  0  0
   -1.1119   10.7810    0.0000 O   0  0  0  0  0  0  0  0  0  0  0  0
   -2.4218   10.1136    0.0000 O   0  0  0  0  0  0  0  0  0  0  0  0
   -2.4218    8.6847    0.0000 O   0  0  0  0  0  0  0  0  0  0  0  0
    1.5142    6.5116    0.0000 O   0  0  0  0  0  0  0  0  0  0  0  0
    2.9431    8.9866    0.0000 O   0  0  0  0  0  0  0  0  0  0  0  0
    0.0852    8.9866    0.0000 N   0  0  0  0  0  0  0  0  0  0  0  0
   -1.1843    9.3991    0.0000 C   0  0  3  0  0  0  0  0  0  0  0  0
   -0.6994    8.7317    0.0000 C   0  0  0  0  0  0  0  0  0  0  0  0
    0.7997    8.5741    0.0000 C   0  0  0  0  0  0  0  0  0  0  0  0
   -0.6994   10.0666    0.0000 C   0  0  0  0  0  0  0  0  0  0  0  0
    0.0852    9.8116    0.0000 C   0  0  0  0  0  0  0  0  0  0  0  0
   -2.0093    9.3991    0.0000 C   0  0  0  0  0  0  0  0  0  0  0  0
    1.5142    8.9866    0.0000 C   0  0  0  0  0  0  0  0  0  0  0  0
    0.7997    7.7491    0.0000 C   0  0  0  0  0  0  0  0  0  0  0  0
    1.5142    7.3366    0.0000 C   0  0  0  0  0  0  0  0  0  0  0  0
    2.2286    8.5741    0.0000 C   0  0  0  0  0  0  0  0  0  0  0  0
    2.2286    7.7491    0.0000 C   0  0  0  0  0  0  0  0  0  0  0  0
   -3.2468   10.1136    0.0000 C   0  0  0  0  0  0  0  0  0  0  0  0
    0.7997    6.0991    0.0000 C   0  0  0  0  0  0  0  0  0  0  0  0
    3.6576    8.5741    0.0000 C   0  0  0  0  0  0  0  0  0  0  0  0
   -3.6593    9.3991    0.0000 C   0  0  0  0  0  0  0  0  0  0  0  0
  1  9  2  0  0  0  0
  2 11  2  0  0  0  0
  3 13  1  0  0  0  0
  3 19  1  0  0  0  0
  4 13  2  0  0  0  0
  5 16  1  0  0  0  0
  5 20  1  0  0  0  0
  6 17  1  0  0  0  0
  6 21  1  0  0  0  0
  7  9  1  0  0  0  0
  7 10  1  0  0  0  0
  7 12  1  0  0  0  0
  8  9  1  0  0  0  0
  8 11  1  0  0  0  0
  8 13  1  0  0  0  0
 10 14  2  0  0  0  0
 10 15  1  0  0  0  0
 11 12  1  0  0  0  0
 14 17  1  0  0  0  0
 15 16  2  0  0  0  0
 16 18  1  0  0  0  0
 17 18  2  0  0  0  0
 19 22  1  0  0  0  0
M  END
> <PUBCHEM_COMPOUND_ID_TYPE>
0

> <PUBCHEM_TOTAL_CHARGE>
0

> <PUBCHEM_SUBSTANCE_ID>
310938817

> <PUBCHEM_SUBSTANCE_VERSION>
1

> <PUBCHEM_EXT_DATASOURCE_NAME>
4488

> <PUBCHEM_EXT_DATASOURCE_REGID>
SCHEMBL16116734

> <PUBCHEM_SUBSTANCE_COMMENT>
InChI=1S/C15H17NO6/c1-4-22-15(19)13-12(17)8-16(14(13)18)9-5-10(20-2)7-11(6-9)21-3/h5-7,13H,4,8H2,1-3H3
InChIKey=FAAHKONBGRMYDH-UHFFFAOYSA-N

> <PUBCHEM_SUBSTANCE_SYNONYM>
SCHEMBL16116734

> <PUBCHEM_XREF_EXT_ID>
SCHEMBL16116734

> <PUBCHEM_EXT_DATASOURCE_URL>
https://www.surechembl.org/

> <PUBCHEM_EXT_SUBSTANCE_URL>
https://www.surechembl.org/chemical/SCHEMBL16116734

> <PUBCHEM_CID_ASSOCIATIONS>
71572803  1

> <PUBCHEM_COORDINATE_TYPE>
1
3

$$$$
