310945321
  -OEChem-07211613022D

 35 40  0     1  0  0  0  0  0999 V2000
    4.5099    1.8287    0.0000 O   0  0  0  0  0  0  0  0  0  0  0  0
   -3.0799   -2.0625    0.0000 O   0  0  0  0  0  0  0  0  0  0  0  0
   -0.9350    0.8250    0.0000 O   0  0  0  0  0  0  0  0  0  0  0  0
   -3.7949    0.8250    0.0000 O   0  0  0  0  0  0  0  0  0  0  0  0
    2.7087    0.5775    0.0000 N   0  0  0  0  0  0  0  0  0  0  0  0
    4.3449    0.3987    0.0000 N   0  0  0  0  0  0  0  0  0  0  0  0
   -3.0937   -0.4125    0.0000 N   0  0  0  0  0  0  0  0  0  0  0  0
   -0.2200   -0.4125    0.0000 N   0  0  0  0  0  0  0  0  0  0  0  0
    3.0387   -0.1650    0.0000 C   0  0  0  0  0  0  0  0  0  0  0  0
    1.9112    0.8525    0.0000 C   0  0  0  0  0  0  0  0  0  0  0  0
    3.1762    1.2650    0.0000 C   0  0  0  0  0  0  0  0  0  0  0  0
    1.9250    1.6637    0.0000 C   0  0  0  0  0  0  0  0  0  0  0  0
    2.7087    1.9250    0.0000 C   0  0  0  0  0  0  0  0  0  0  0  0
    4.0012    1.1413    0.0000 C   0  0  0  0  0  0  0  0  0  0  0  0
    3.8637   -0.2613    0.0000 C   0  0  0  0  0  0  0  0  0  0  0  0
    2.2412   -0.3163    0.0000 C   0  0  0  0  0  0  0  0  0  0  0  0
    3.1625   -0.9900    0.0000 C   0  0  0  0  0  0  0  0  0  0  0  0
    1.1963    0.4263    0.0000 C   0  0  0  0  0  0  0  0  0  0  0  0
    2.3650   -1.1137    0.0000 C   0  0  0  0  0  0  0  0  0  0  0  0
    0.4950    0.8387    0.0000 C   0  0  0  0  0  0  0  0  0  0  0  0
    1.1825    2.0625    0.0000 C   0  0  0  0  0  0  0  0  0  0  0  0
    0.4950    1.6637    0.0000 C   0  0  0  0  0  0  0  0  0  0  0  0
   -0.2063    0.4125    0.0000 C   0  0  0  0  0  0  0  0  0  0  0  0
   -2.3650   -0.8113    0.0000 C   0  0  0  0  0  0  0  0  0  0  0  0
   -2.3650   -1.6362    0.0000 C   0  0  0  0  0  0  0  0  0  0  0  0
   -0.9350   -0.8113    0.0000 C   0  0  0  0  0  0  0  0  0  0  0  0
   -1.6637   -0.4125    0.0000 C   0  0  0  0  0  0  0  0  0  0  0  0
   -1.6362   -2.0487    0.0000 C   0  0  0  0  0  0  0  0  0  0  0  0
   -3.7949   -0.8113    0.0000 C   0  0  0  0  0  0  0  0  0  0  0  0
   -3.8087   -1.6362    0.0000 C   0  0  3  0  0  0  0  0  0  0  0  0
   -0.9487   -1.6362    0.0000 C   0  0  0  0  0  0  0  0  0  0  0  0
   -3.0662    0.4125    0.0000 C   0  0  0  0  0  0  0  0  0  0  0  0
   -2.3787    0.8387    0.0000 C   0  0  0  0  0  0  0  0  0  0  0  0
   -4.5099   -2.0487    0.0000 C   0  0  0  0  0  0  0  0  0  0  0  0
   -2.4612    1.6775    0.0000 C   0  0  0  0  0  0  0  0  0  0  0  0
  1 14  2  0  0  0  0
  2 25  1  0  0  0  0
  2 30  1  0  0  0  0
  3 23  2  0  0  0  0
  4 32  2  0  0  0  0
  5  9  1  0  0  0  0
  5 10  1  0  0  0  0
  5 11  1  0  0  0  0
  6 14  1  0  0  0  0
  6 15  1  0  0  0  0
  7 24  1  0  0  0  0
  7 29  1  0  0  0  0
  7 32  1  0  0  0  0
  8 23  1  0  0  0  0
  8 26  1  0  0  0  0
  9 15  1  0  0  0  0
  9 16  1  0  0  0  0
  9 17  1  0  0  0  0
 10 12  2  0  0  0  0
 10 18  1  0  0  0  0
 11 13  2  0  0  0  0
 11 14  1  0  0  0  0
 12 13  1  0  0  0  0
 12 21  1  0  0  0  0
 16 19  1  0  0  0  0
 17 19  1  0  0  0  0
 18 20  2  0  0  0  0
 20 22  1  0  0  0  0
 20 23  1  0  0  0  0
 21 22  2  0  0  0  0
 24 25  2  0  0  0  0
 24 27  1  0  0  0  0
 25 28  1  0  0  0  0
 26 27  2  0  0  0  0
 26 31  1  0  0  0  0
 28 31  2  0  0  0  0
 29 30  1  0  0  0  0
 30 34  1  0  0  0  0
 32 33  1  0  0  0  0
 33 35  2  0  0  0  0
M  END
> <PUBCHEM_COMPOUND_ID_TYPE>
0

> <PUBCHEM_TOTAL_CHARGE>
0

> <PUBCHEM_SUBSTANCE_ID>
310945321

> <PUBCHEM_SUBSTANCE_VERSION>
1

> <PUBCHEM_EXT_DATASOURCE_NAME>
4488

> <PUBCHEM_EXT_DATASOURCE_REGID>
SCHEMBL16123419

> <PUBCHEM_SUBSTANCE_COMMENT>
InChI=1S/C27H26N4O4/c1-3-24(32)30-14-16(2)35-23-8-7-19(13-21(23)30)29-25(33)18-6-5-17-11-22-26(34)28-15-27(9-4-10-27)31(22)20(17)12-18/h3,5-8,11-13,16H,1,4,9-10,14-15H2,2H3,(H,28,34)(H,29,33)
InChIKey=MKJVXPXIANXMAX-UHFFFAOYSA-N

> <PUBCHEM_SUBSTANCE_SYNONYM>
SCHEMBL16123419

> <PUBCHEM_XREF_EXT_ID>
SCHEMBL16123419

> <PUBCHEM_EXT_DATASOURCE_URL>
https://www.surechembl.org/

> <PUBCHEM_EXT_SUBSTANCE_URL>
https://www.surechembl.org/chemical/SCHEMBL16123419

> <PUBCHEM_CID_ASSOCIATIONS>
117611379  1

> <PUBCHEM_COORDINATE_TYPE>
1
3

$$$$
