310943545
  -OEChem-07211613022D

 31 34  0     1  0  0  0  0  0999 V2000
    5.6696    1.6987    0.0000 O   0  0  0  0  0  0  0  0  0  0  0  0
   -3.0550   -0.9158    0.0000 N   0  0  3  0  0  0  0  0  0  0  0  0
    3.3626    1.1675    0.0000 N   0  0  3  0  0  0  0  0  0  0  0  0
    1.2374   -1.6987    0.0000 N   0  0  0  0  0  0  0  0  0  0  0  0
   -4.8307   -0.4125    0.0000 N   0  0  3  0  0  0  0  0  0  0  0  0
   -0.2027   -0.0909    0.0000 C   0  0  0  0  0  0  0  0  0  0  0  0
    0.5104    0.3286    0.0000 C   0  0  0  0  0  0  0  0  0  0  0  0
   -0.2167   -0.9018    0.0000 C   0  0  0  0  0  0  0  0  0  0  0  0
   -1.6428   -0.9298    0.0000 C   0  0  0  0  0  0  0  0  0  0  0  0
   -0.8878   -1.3073    0.0000 C   0  0  0  0  0  0  0  0  0  0  0  0
   -0.9158    0.3006    0.0000 C   0  0  0  0  0  0  0  0  0  0  0  0
   -1.6289   -0.1049    0.0000 C   0  0  0  0  0  0  0  0  0  0  0  0
    1.2514   -0.0629    0.0000 C   0  0  0  0  0  0  0  0  0  0  0  0
    0.5243    1.1535    0.0000 C   0  0  0  0  0  0  0  0  0  0  0  0
    1.9365    1.1675    0.0000 C   0  0  0  0  0  0  0  0  0  0  0  0
   -2.3280   -1.3352    0.0000 C   0  0  0  0  0  0  0  0  0  0  0  0
    1.9225    0.3286    0.0000 C   0  0  0  0  0  0  0  0  0  0  0  0
    1.2095    1.5590    0.0000 C   0  0  0  0  0  0  0  0  0  0  0  0
    0.5243   -1.3212    0.0000 C   0  0  0  0  0  0  0  0  0  0  0  0
    2.6356    1.5590    0.0000 C   0  0  0  0  0  0  0  0  0  0  0  0
    4.0897    1.5730    0.0000 C   0  0  0  0  0  0  0  0  0  0  0  0
   -3.7122   -1.4052    0.0000 C   0  0  0  0  0  0  0  0  0  0  0  0
   -2.9991   -0.1189    0.0000 C   0  0  0  0  0  0  0  0  0  0  0  0
    3.3766    0.3425    0.0000 C   0  0  0  0  0  0  0  0  0  0  0  0
    4.8028    1.1535    0.0000 C   0  0  3  0  0  0  0  0  0  0  0  0
   -4.5231   -1.1535    0.0000 C   0  0  0  0  0  0  0  0  0  0  0  0
    4.0617   -0.0489    0.0000 C   0  0  0  0  0  0  0  0  0  0  0  0
    4.7888    0.3425    0.0000 C   0  0  0  0  0  0  0  0  0  0  0  0
   -3.6283    0.4404    0.0000 C   0  0  0  0  0  0  0  0  0  0  0  0
   -4.4113    0.3146    0.0000 C   0  0  0  0  0  0  0  0  0  0  0  0
   -5.6696   -0.4125    0.0000 C   0  0  0  0  0  0  0  0  0  0  0  0
  1 25  1  0  0  0  0
  2 16  1  0  0  0  0
  2 22  1  0  0  0  0
  2 23  1  0  0  0  0
  3 20  1  0  0  0  0
  3 21  1  0  0  0  0
  3 24  1  0  0  0  0
  4 19  3  0  0  0  0
  5 26  1  0  0  0  0
  5 30  1  0  0  0  0
  5 31  1  0  0  0  0
  6  7  1  0  0  0  0
  6  8  1  0  0  0  0
  6 11  2  0  0  0  0
  7 13  2  0  0  0  0
  7 14  1  0  0  0  0
  8 10  2  0  0  0  0
  8 19  1  0  0  0  0
  9 10  1  0  0  0  0
  9 12  2  0  0  0  0
  9 16  1  0  0  0  0
 11 12  1  0  0  0  0
 13 17  1  0  0  0  0
 14 18  2  0  0  0  0
 15 17  2  0  0  0  0
 15 18  1  0  0  0  0
 15 20  1  0  0  0  0
 21 25  1  0  0  0  0
 22 26  1  0  0  0  0
 23 29  1  0  0  0  0
 24 27  1  0  0  0  0
 25 28  1  0  0  0  0
 27 28  1  0  0  0  0
 29 30  1  0  0  0  0
M  END
> <PUBCHEM_COMPOUND_ID_TYPE>
0

> <PUBCHEM_TOTAL_CHARGE>
0

> <PUBCHEM_SUBSTANCE_ID>
310943545

> <PUBCHEM_SUBSTANCE_VERSION>
1

> <PUBCHEM_EXT_DATASOURCE_NAME>
4488

> <PUBCHEM_EXT_DATASOURCE_REGID>
SCHEMBL16121612

> <PUBCHEM_SUBSTANCE_COMMENT>
InChI=1S/C26H34N4O/c1-28-11-3-13-29(15-14-28)19-22-7-10-26(24(16-22)17-27)23-8-5-21(6-9-23)18-30-12-2-4-25(31)20-30/h5-10,16,25,31H,2-4,11-15,18-20H2,1H3
InChIKey=FESGENBGSZLXAE-UHFFFAOYSA-N

> <PUBCHEM_SUBSTANCE_SYNONYM>
SCHEMBL16121612

> <PUBCHEM_XREF_EXT_ID>
SCHEMBL16121612

> <PUBCHEM_EXT_DATASOURCE_URL>
https://www.surechembl.org/

> <PUBCHEM_EXT_SUBSTANCE_URL>
https://www.surechembl.org/chemical/SCHEMBL16121612

> <PUBCHEM_CID_ASSOCIATIONS>
86301043  1

> <PUBCHEM_COORDINATE_TYPE>
1
3

> <PUBCHEM_BONDANNOTATIONS>
25  1  3

$$$$
