310937978
  -OEChem-07211613022D

 25 28  0     1  0  0  0  0  0999 V2000
    2.1555   -4.5380    0.0000 Cl  0  0  0  0  0  0  0  0  0  0  0  0
    0.7715   -0.4311    0.0000 F   0  0  0  0  0  0  0  0  0  0  0  0
    1.4976   -1.6564    0.0000 F   0  0  0  0  0  0  0  0  0  0  0  0
    1.4749    0.0000    0.0000 F   0  0  0  0  0  0  0  0  0  0  0  0
    2.9271   -0.8169    0.0000 N   0  0  3  0  0  0  0  0  0  0  0  0
    3.6078   -2.8590    0.0000 N   0  0  0  0  0  0  0  0  0  0  0  0
    5.1280   -1.9287    0.0000 N   0  0  0  0  0  0  0  0  0  0  0  0
    5.6045   -1.2253    0.0000 N   0  0  0  0  0  0  0  0  0  0  0  0
    0.7261   -4.5154    0.0000 N   0  0  0  0  0  0  0  0  0  0  0  0
    2.9271   -1.6564    0.0000 C   0  0  0  0  0  0  0  0  0  0  0  0
    3.6078   -2.0875    0.0000 C   0  0  0  0  0  0  0  0  0  0  0  0
    4.3565   -1.6564    0.0000 C   0  0  0  0  0  0  0  0  0  0  0  0
    4.3565   -0.8169    0.0000 C   0  0  0  0  0  0  0  0  0  0  0  0
    3.6078   -0.3858    0.0000 C   0  0  0  0  0  0  0  0  0  0  0  0
    2.1783   -2.0875    0.0000 C   0  0  0  0  0  0  0  0  0  0  0  0
    2.1783   -2.8590    0.0000 C   0  0  0  0  0  0  0  0  0  0  0  0
    2.2010   -0.4084    0.0000 C   0  0  0  0  0  0  0  0  0  0  0  0
    1.4749   -3.2901    0.0000 C   0  0  0  0  0  0  0  0  0  0  0  0
    2.9271   -3.2901    0.0000 C   0  0  0  0  0  0  0  0  0  0  0  0
    5.1280   -0.5446    0.0000 C   0  0  0  0  0  0  0  0  0  0  0  0
    1.4976   -0.8169    0.0000 C   0  0  0  0  0  0  0  0  0  0  0  0
    1.4295   -4.1069    0.0000 C   0  0  0  0  0  0  0  0  0  0  0  0
    0.7261   -2.8817    0.0000 C   0  0  0  0  0  0  0  0  0  0  0  0
    0.0227   -3.2901    0.0000 C   0  0  0  0  0  0  0  0  0  0  0  0
    0.0000   -4.1296    0.0000 C   0  0  0  0  0  0  0  0  0  0  0  0
  1 22  1  0  0  0  0
  2 21  1  0  0  0  0
  3 21  1  0  0  0  0
  4 21  1  0  0  0  0
  5 10  1  0  0  0  0
  5 14  1  0  0  0  0
  5 17  1  0  0  0  0
  6 11  2  0  0  0  0
  6 19  1  0  0  0  0
  7  8  1  0  0  0  0
  7 12  1  0  0  0  0
  8 20  2  0  0  0  0
  9 22  1  0  0  0  0
  9 25  2  0  0  0  0
 10 11  1  0  0  0  0
 10 15  2  0  0  0  0
 11 12  1  0  0  0  0
 12 13  2  0  0  0  0
 13 14  1  0  0  0  0
 13 20  1  0  0  0  0
 15 16  1  0  0  0  0
 16 18  1  0  0  0  0
 16 19  2  0  0  0  0
 17 21  1  0  0  0  0
 18 22  2  0  0  0  0
 18 23  1  0  0  0  0
 23 24  2  0  0  0  0
 24 25  1  0  0  0  0
M  END
> <PUBCHEM_COMPOUND_ID_TYPE>
0

> <PUBCHEM_TOTAL_CHARGE>
0

> <PUBCHEM_SUBSTANCE_ID>
310937978

> <PUBCHEM_SUBSTANCE_VERSION>
1

> <PUBCHEM_EXT_DATASOURCE_NAME>
4488

> <PUBCHEM_EXT_DATASOURCE_REGID>
SCHEMBL16115814

> <PUBCHEM_SUBSTANCE_COMMENT>
InChI=1S/C16H11ClF3N5/c17-15-11(2-1-3-21-15)9-4-12-14(22-5-9)13-10(6-23-24-13)7-25(12)8-16(18,19)20/h1-6H,7-8H2,(H,23,24)
InChIKey=INACFVKCYZEYEI-UHFFFAOYSA-N

> <PUBCHEM_SUBSTANCE_SYNONYM>
SCHEMBL16115814

> <PUBCHEM_XREF_EXT_ID>
SCHEMBL16115814

> <PUBCHEM_EXT_DATASOURCE_URL>
https://www.surechembl.org/

> <PUBCHEM_EXT_SUBSTANCE_URL>
https://www.surechembl.org/chemical/SCHEMBL16115814

> <PUBCHEM_CID_ASSOCIATIONS>
117605577  1

> <PUBCHEM_COORDINATE_TYPE>
1
3

$$$$
