310932404
  -OEChem-07211613022D

 15 17  0     1  0  0  0  0  0999 V2000
    0.4191    0.0000    0.0000 O   0  0  0  0  0  0  0  0  0  0  0  0
    1.5488   -1.9679    0.0000 O   0  0  0  0  0  0  0  0  0  0  0  0
    2.2777   -0.7289    0.0000 O   0  0  0  0  0  0  0  0  0  0  0  0
    0.8382   -0.7289    0.0000 C   0  0  3  0  0  0  0  0  0  0  0  0
    0.0000   -0.7289    0.0000 C   0  0  3  0  0  0  0  0  0  0  0  0
    1.5488   -1.1479    0.0000 C   0  0  0  0  0  0  0  0  0  0  0  0
    0.6195   -0.6013    0.0000 C   0  0  0  0  0  0  0  0  0  0  0  0
    0.2187   -0.6013    0.0000 C   0  0  0  0  0  0  0  0  0  0  0  0
    0.4191   -0.7289    0.0000 C   0  0  0  0  0  0  0  0  0  0  0  0
    2.2777   -2.3870    0.0000 C   0  0  0  0  0  0  0  0  0  0  0  0
    3.0247   -1.9861    0.0000 C   0  0  0  0  0  0  0  0  0  0  0  0
    2.2959   -3.2252    0.0000 C   0  0  0  0  0  0  0  0  0  0  0  0
    3.7354   -2.4052    0.0000 C   0  0  0  0  0  0  0  0  0  0  0  0
    3.0065   -3.6443    0.0000 C   0  0  0  0  0  0  0  0  0  0  0  0
    3.7536   -3.2434    0.0000 C   0  0  0  0  0  0  0  0  0  0  0  0
  1  4  1  0  0  0  0
  1  5  1  0  0  0  0
  2  6  1  0  0  0  0
  2 10  1  0  0  0  0
  3  6  2  0  0  0  0
  4  5  1  0  0  0  0
  4  6  1  0  0  0  0
  4  7  1  0  0  0  0
  5  8  1  0  0  0  0
  7  9  1  0  0  0  0
  8  9  1  0  0  0  0
 10 11  1  0  0  0  0
 10 12  1  0  0  0  0
 11 13  1  0  0  0  0
 12 14  1  0  0  0  0
 13 15  1  0  0  0  0
 14 15  1  0  0  0  0
M  END
> <PUBCHEM_COMPOUND_ID_TYPE>
0

> <PUBCHEM_TOTAL_CHARGE>
0

> <PUBCHEM_SUBSTANCE_ID>
310932404

> <PUBCHEM_SUBSTANCE_VERSION>
1

> <PUBCHEM_EXT_DATASOURCE_NAME>
4488

> <PUBCHEM_EXT_DATASOURCE_REGID>
SCHEMBL16109772

> <PUBCHEM_SUBSTANCE_COMMENT>
InChI=1S/C12H18O3/c13-11(12-8-4-7-10(12)15-12)14-9-5-2-1-3-6-9/h9-10H,1-8H2
InChIKey=XCLPBXNVTFRILY-UHFFFAOYSA-N

> <PUBCHEM_SUBSTANCE_SYNONYM>
SCHEMBL16109772

> <PUBCHEM_XREF_EXT_ID>
SCHEMBL16109772

> <PUBCHEM_EXT_DATASOURCE_URL>
https://www.surechembl.org/

> <PUBCHEM_EXT_SUBSTANCE_URL>
https://www.surechembl.org/chemical/SCHEMBL16109772

> <PUBCHEM_CID_ASSOCIATIONS>
117600958  1

> <PUBCHEM_COORDINATE_TYPE>
1
3

$$$$
