310939978
  -OEChem-07211613022D

 30 32  0     1  0  0  0  0  0999 V2000
   -2.5009   -1.0313    0.0000 Cl  0  0  0  0  0  0  0  0  0  0  0  0
   -1.7865    1.8562    0.0000 Cl  0  0  0  0  0  0  0  0  0  0  0  0
   -4.6443    0.2062    0.0000 Cl  0  0  0  0  0  0  0  0  0  0  0  0
    0.3570    1.4437    0.0000 O   0  0  0  0  0  0  0  0  0  0  0  0
    0.3570   -1.0312    0.0000 O   0  0  0  0  0  0  0  0  0  0  0  0
    3.2148   -1.8563    0.0000 O   0  0  0  0  0  0  0  0  0  0  0  0
    1.0714    0.2062    0.0000 N   0  0  0  0  0  0  0  0  0  0  0  0
    2.5004   -0.6188    0.0000 N   0  0  0  0  0  0  0  0  0  0  0  0
    3.9293    1.0312    0.0000 N   0  0  0  0  0  0  0  0  0  0  0  0
   -0.3575    0.2062    0.0000 C   0  0  0  0  0  0  0  0  0  0  0  0
   -1.7865    0.2062    0.0000 C   0  0  0  0  0  0  0  0  0  0  0  0
    0.3570    0.6187    0.0000 C   0  0  0  0  0  0  0  0  0  0  0  0
   -2.5009    0.6187    0.0000 C   0  0  0  0  0  0  0  0  0  0  0  0
   -1.0720    0.6187    0.0000 C   0  0  0  0  0  0  0  0  0  0  0  0
   -0.3575   -0.6188    0.0000 C   0  0  0  0  0  0  0  0  0  0  0  0
   -1.7865   -0.6188    0.0000 C   0  0  0  0  0  0  0  0  0  0  0  0
   -1.0720   -1.0313    0.0000 C   0  0  0  0  0  0  0  0  0  0  0  0
   -2.5009    1.4437    0.0000 C   0  0  0  0  0  0  0  0  0  0  0  0
    2.5004    0.2062    0.0000 C   0  0  3  0  0  0  0  0  0  0  0  0
    1.7859    0.6187    0.0000 C   0  0  0  0  0  0  0  0  0  0  0  0
   -3.2154    0.2062    0.0000 C   0  0  0  0  0  0  0  0  0  0  0  0
    1.0714   -0.6188    0.0000 C   0  0  0  0  0  0  0  0  0  0  0  0
    1.7859   -1.0313    0.0000 C   0  0  0  0  0  0  0  0  0  0  0  0
   -3.9299    0.6187    0.0000 C   0  0  0  0  0  0  0  0  0  0  0  0
    3.2148   -1.0313    0.0000 C   0  0  0  0  0  0  0  0  0  0  0  0
   -3.2154    1.8563    0.0000 C   0  0  0  0  0  0  0  0  0  0  0  0
   -3.9299    1.4437    0.0000 C   0  0  0  0  0  0  0  0  0  0  0  0
    3.2148    0.6187    0.0000 C   0  0  0  0  0  0  0  0  0  0  0  0
    3.9299   -0.6188    0.0000 C   0  0  0  0  0  0  0  0  0  0  0  0
    4.6443   -1.0313    0.0000 C   0  0  0  0  0  0  0  0  0  0  0  0
  1 16  1  0  0  0  0
  2 18  1  0  0  0  0
  3 24  1  0  0  0  0
  4 12  2  0  0  0  0
  5 15  1  0  0  0  0
  6 25  2  0  0  0  0
  7 12  1  0  0  0  0
  7 20  1  0  0  0  0
  7 22  1  0  0  0  0
  8 19  1  0  0  0  0
  8 23  1  0  0  0  0
  8 25  1  0  0  0  0
  9 28  3  0  0  0  0
 10 12  1  0  0  0  0
 10 14  2  0  0  0  0
 10 15  1  0  0  0  0
 11 13  1  0  0  0  0
 11 14  1  0  0  0  0
 11 16  2  0  0  0  0
 13 18  2  0  0  0  0
 13 21  1  0  0  0  0
 15 17  2  0  0  0  0
 16 17  1  0  0  0  0
 18 26  1  0  0  0  0
 19 20  1  0  0  0  0
 19 28  1  0  0  0  0
 21 24  2  0  0  0  0
 22 23  1  0  0  0  0
 24 27  1  0  0  0  0
 25 29  1  0  0  0  0
 26 27  2  0  0  0  0
 29 30  2  0  0  0  0
M  END
> <PUBCHEM_COMPOUND_ID_TYPE>
0

> <PUBCHEM_TOTAL_CHARGE>
0

> <PUBCHEM_SUBSTANCE_ID>
310939978

> <PUBCHEM_SUBSTANCE_VERSION>
1

> <PUBCHEM_EXT_DATASOURCE_NAME>
4488

> <PUBCHEM_EXT_DATASOURCE_REGID>
SCHEMBL16117908

> <PUBCHEM_SUBSTANCE_COMMENT>
InChI=1S/C21H16Cl3N3O3/c1-2-20(29)27-6-5-26(11-13(27)10-25)21(30)16-8-15(18(24)9-19(16)28)14-7-12(22)3-4-17(14)23/h2-4,7-9,13,28H,1,5-6,11H2
InChIKey=QYBIFCLDQYCUBI-UHFFFAOYSA-N

> <PUBCHEM_SUBSTANCE_SYNONYM>
SCHEMBL16117908

> <PUBCHEM_XREF_EXT_ID>
SCHEMBL16117908

> <PUBCHEM_EXT_DATASOURCE_URL>
https://www.surechembl.org/

> <PUBCHEM_EXT_SUBSTANCE_URL>
https://www.surechembl.org/chemical/SCHEMBL16117908

> <PUBCHEM_CID_ASSOCIATIONS>
117607144  1

> <PUBCHEM_COORDINATE_TYPE>
1
3

$$$$
