310933783
  -OEChem-07211613022D

 35 38  0     1  0  0  0  0  0999 V2000
   -5.0013   -3.3000    0.0000 O   0  0  0  0  0  0  0  0  0  0  0  0
   -5.7158   -5.3625    0.0000 O   0  0  0  0  0  0  0  0  0  0  0  0
   -2.1434   -6.6000    0.0000 O   0  0  0  0  0  0  0  0  0  0  0  0
   -1.4290   -5.3625    0.0000 O   0  0  0  0  0  0  0  0  0  0  0  0
   -6.4302   -3.3000    0.0000 N   0  0  0  0  0  0  0  0  0  0  0  0
   -5.0013   -4.1250    0.0000 N   0  0  0  0  0  0  0  0  0  0  0  0
   -6.4302    2.4750    0.0000 N   0  0  0  0  0  0  0  0  0  0  0  0
   -6.4302   -4.1250    0.0000 C   0  0  3  0  0  0  0  0  0  0  0  0
   -5.7158   -2.8875    0.0000 C   0  0  0  0  0  0  0  0  0  0  0  0
   -6.4302   -1.6500    0.0000 C   0  0  0  0  0  0  0  0  0  0  0  0
   -5.7158   -4.5375    0.0000 C   0  0  0  0  0  0  0  0  0  0  0  0
   -5.7158   -2.0625    0.0000 C   0  0  0  0  0  0  0  0  0  0  0  0
   -7.1447   -2.8875    0.0000 C   0  0  0  0  0  0  0  0  0  0  0  0
   -6.4302   -0.8250    0.0000 C   0  0  0  0  0  0  0  0  0  0  0  0
   -7.1447   -2.0625    0.0000 C   0  0  0  0  0  0  0  0  0  0  0  0
   -7.1447   -4.5375    0.0000 C   0  0  0  0  0  0  0  0  0  0  0  0
   -4.2868   -4.5375    0.0000 C   0  0  0  0  0  0  0  0  0  0  0  0
   -7.8592   -4.1250    0.0000 C   0  0  0  0  0  0  0  0  0  0  0  0
   -7.1447   -0.4125    0.0000 C   0  0  0  0  0  0  0  0  0  0  0  0
   -5.7158   -0.4125    0.0000 C   0  0  0  0  0  0  0  0  0  0  0  0
   -6.4302    0.8250    0.0000 C   0  0  0  0  0  0  0  0  0  0  0  0
   -4.2868   -5.3625    0.0000 C   0  0  0  0  0  0  0  0  0  0  0  0
   -3.5724   -4.1250    0.0000 C   0  0  0  0  0  0  0  0  0  0  0  0
   -2.8579   -5.3625    0.0000 C   0  0  0  0  0  0  0  0  0  0  0  0
   -7.1447    0.4125    0.0000 C   0  0  0  0  0  0  0  0  0  0  0  0
   -5.7158    0.4125    0.0000 C   0  0  0  0  0  0  0  0  0  0  0  0
   -8.5736   -4.5375    0.0000 C   0  0  0  0  0  0  0  0  0  0  0  0
   -7.8592   -3.3000    0.0000 C   0  0  0  0  0  0  0  0  0  0  0  0
   -3.5724   -5.7750    0.0000 C   0  0  0  0  0  0  0  0  0  0  0  0
   -2.8579   -4.5375    0.0000 C   0  0  0  0  0  0  0  0  0  0  0  0
   -2.1434   -5.7750    0.0000 C   0  0  0  0  0  0  0  0  0  0  0  0
   -9.2881   -4.1250    0.0000 C   0  0  0  0  0  0  0  0  0  0  0  0
   -8.5736   -2.8875    0.0000 C   0  0  0  0  0  0  0  0  0  0  0  0
   -6.4302    1.6500    0.0000 C   0  0  0  0  0  0  0  0  0  0  0  0
   -9.2881   -3.3000    0.0000 C   0  0  0  0  0  0  0  0  0  0  0  0
  1  9  2  0  0  0  0
  2 11  2  0  0  0  0
  3 31  2  0  0  0  0
  4 31  1  0  0  0  0
  5  8  1  0  0  0  0
  5  9  1  0  0  0  0
  5 13  1  0  0  0  0
  6 11  1  0  0  0  0
  6 17  1  0  0  0  0
  7 34  3  0  0  0  0
  8 11  1  0  0  0  0
  8 16  1  0  0  0  0
  9 12  1  0  0  0  0
 10 12  2  0  0  0  0
 10 14  1  0  0  0  0
 10 15  1  0  0  0  0
 13 15  2  0  0  0  0
 14 19  2  0  0  0  0
 14 20  1  0  0  0  0
 16 18  1  0  0  0  0
 17 22  2  0  0  0  0
 17 23  1  0  0  0  0
 18 27  2  0  0  0  0
 18 28  1  0  0  0  0
 19 25  1  0  0  0  0
 20 26  2  0  0  0  0
 21 25  2  0  0  0  0
 21 26  1  0  0  0  0
 21 34  1  0  0  0  0
 22 29  1  0  0  0  0
 23 30  2  0  0  0  0
 24 29  2  0  0  0  0
 24 30  1  0  0  0  0
 24 31  1  0  0  0  0
 27 32  1  0  0  0  0
 28 33  2  0  0  0  0
 32 35  2  0  0  0  0
 33 35  1  0  0  0  0
M  END
> <PUBCHEM_COMPOUND_ID_TYPE>
0

> <PUBCHEM_TOTAL_CHARGE>
0

> <PUBCHEM_SUBSTANCE_ID>
310933783

> <PUBCHEM_SUBSTANCE_VERSION>
1

> <PUBCHEM_EXT_DATASOURCE_NAME>
4488

> <PUBCHEM_EXT_DATASOURCE_REGID>
SCHEMBL16111219

> <PUBCHEM_SUBSTANCE_COMMENT>
InChI=1S/C28H21N3O4/c29-18-20-6-8-21(9-7-20)23-14-15-31(26(32)17-23)25(16-19-4-2-1-3-5-19)27(33)30-24-12-10-22(11-13-24)28(34)35/h1-15,17,25H,16H2,(H,30,33)(H,34,35)
InChIKey=JPUSKKBCGYMBCJ-UHFFFAOYSA-N

> <PUBCHEM_SUBSTANCE_SYNONYM>
SCHEMBL16111219

> <PUBCHEM_XREF_EXT_ID>
SCHEMBL16111219

> <PUBCHEM_EXT_DATASOURCE_URL>
https://www.surechembl.org/

> <PUBCHEM_EXT_SUBSTANCE_URL>
https://www.surechembl.org/chemical/SCHEMBL16111219

> <PUBCHEM_CID_ASSOCIATIONS>
117602136  1

> <PUBCHEM_COORDINATE_TYPE>
1
3

$$$$
