310931615
  -OEChem-07211613022D

 32 35  0     1  0  0  0  0  0999 V2000
   -3.6791    3.5277    0.0000 Cl  0  0  0  0  0  0  0  0  0  0  0  0
    1.3222    5.5902    0.0000 S   0  0  0  0  0  0  0  0  0  0  0  0
    1.3693    3.8678    0.0000 S   0  0  0  0  0  0  0  0  0  0  0  0
   -1.5356    7.2402    0.0000 O   0  0  0  0  0  0  0  0  0  0  0  0
    0.9097    4.8757    0.0000 O   0  0  0  0  0  0  0  0  0  0  0  0
    1.7347    6.3047    0.0000 O   0  0  0  0  0  0  0  0  0  0  0  0
    2.0367    5.1777    0.0000 N   0  0  0  0  0  0  0  0  0  0  0  0
    2.7041    3.8678    0.0000 N   0  0  0  0  0  0  0  0  0  0  0  0
    1.6242    3.0831    0.0000 N   0  0  0  0  0  0  0  0  0  0  0  0
   -3.6791    8.4777    0.0000 N   0  0  0  0  0  0  0  0  0  0  0  0
   -0.1067    8.8902    0.0000 N   0  0  0  0  0  0  0  0  0  0  0  0
    0.6078    6.0027    0.0000 C   0  0  0  0  0  0  0  0  0  0  0  0
   -0.1067    7.2402    0.0000 C   0  0  0  0  0  0  0  0  0  0  0  0
   -0.8212    6.8277    0.0000 C   0  0  0  0  0  0  0  0  0  0  0  0
    0.6078    6.8277    0.0000 C   0  0  0  0  0  0  0  0  0  0  0  0
   -0.1067    5.5902    0.0000 C   0  0  0  0  0  0  0  0  0  0  0  0
   -0.8212    6.0027    0.0000 C   0  0  0  0  0  0  0  0  0  0  0  0
    2.0367    4.3527    0.0000 C   0  0  0  0  0  0  0  0  0  0  0  0
   -3.6791    6.8277    0.0000 C   0  0  3  0  0  0  0  0  0  0  0  0
   -2.9646    7.2402    0.0000 C   0  0  3  0  0  0  0  0  0  0  0  0
   -3.6791    6.0027    0.0000 C   0  0  0  0  0  0  0  0  0  0  0  0
   -2.2501    6.8277    0.0000 C   0  0  0  0  0  0  0  0  0  0  0  0
   -0.1067    8.0652    0.0000 C   0  0  0  0  0  0  0  0  0  0  0  0
   -4.3935    7.2402    0.0000 C   0  0  0  0  0  0  0  0  0  0  0  0
   -2.9646    8.0652    0.0000 C   0  0  0  0  0  0  0  0  0  0  0  0
   -4.3935    5.5902    0.0000 C   0  0  0  0  0  0  0  0  0  0  0  0
   -2.9646    5.5902    0.0000 C   0  0  0  0  0  0  0  0  0  0  0  0
    2.4492    3.0831    0.0000 C   0  0  0  0  0  0  0  0  0  0  0  0
   -4.3935    8.0652    0.0000 C   0  0  0  0  0  0  0  0  0  0  0  0
   -3.6791    4.3527    0.0000 C   0  0  0  0  0  0  0  0  0  0  0  0
   -4.3935    4.7652    0.0000 C   0  0  0  0  0  0  0  0  0  0  0  0
   -2.9646    4.7652    0.0000 C   0  0  0  0  0  0  0  0  0  0  0  0
  1 30  1  0  0  0  0
  2  5  2  0  0  0  0
  2  6  2  0  0  0  0
  2  7  1  0  0  0  0
  2 12  1  0  0  0  0
  3  9  1  0  0  0  0
  3 18  1  0  0  0  0
  4 14  1  0  0  0  0
  4 22  1  0  0  0  0
  7 18  1  0  0  0  0
  8 18  2  0  0  0  0
  8 28  1  0  0  0  0
  9 28  2  0  0  0  0
 10 25  1  0  0  0  0
 10 29  1  0  0  0  0
 11 23  3  0  0  0  0
 12 15  2  0  0  0  0
 12 16  1  0  0  0  0
 13 14  2  0  0  0  0
 13 15  1  0  0  0  0
 13 23  1  0  0  0  0
 14 17  1  0  0  0  0
 16 17  2  0  0  0  0
 19 20  1  0  0  0  0
 19 21  1  0  0  0  0
 19 24  1  0  0  0  0
 20 22  1  0  0  0  0
 20 25  1  0  0  0  0
 21 26  2  0  0  0  0
 21 27  1  0  0  0  0
 24 29  1  0  0  0  0
 26 31  1  0  0  0  0
 27 32  2  0  0  0  0
 30 31  2  0  0  0  0
 30 32  1  0  0  0  0
M  END
> <PUBCHEM_COMPOUND_ID_TYPE>
0

> <PUBCHEM_TOTAL_CHARGE>
0

> <PUBCHEM_SUBSTANCE_ID>
310931615

> <PUBCHEM_SUBSTANCE_VERSION>
1

> <PUBCHEM_EXT_DATASOURCE_NAME>
4488

> <PUBCHEM_EXT_DATASOURCE_REGID>
SCHEMBL16108941

> <PUBCHEM_SUBSTANCE_COMMENT>
InChI=1S/C21H20ClN5O3S2/c22-17-3-1-14(2-4-17)19-7-8-24-11-16(19)12-30-20-6-5-18(9-15(20)10-23)32(28,29)27-21-25-13-26-31-21/h1-6,9,13,16,19,24H,7-8,11-12H2,(H,25,26,27)
InChIKey=VCBUTPHQBHZMSO-UHFFFAOYSA-N

> <PUBCHEM_SUBSTANCE_SYNONYM>
SCHEMBL16108941

> <PUBCHEM_XREF_EXT_ID>
SCHEMBL16108941

> <PUBCHEM_EXT_DATASOURCE_URL>
https://www.surechembl.org/

> <PUBCHEM_EXT_SUBSTANCE_URL>
https://www.surechembl.org/chemical/SCHEMBL16108941

> <PUBCHEM_CID_ASSOCIATIONS>
78111126  1

> <PUBCHEM_COORDINATE_TYPE>
1
3

$$$$
