310944187
  -OEChem-07211613022D

 10 10  0     1  0  0  0  0  0999 V2000
   -0.8189   -0.7819    0.0000 N   0  0  3  0  0  0  0  0  0  0  0  0
    0.8189   -0.7819    0.0000 N   0  0  3  0  0  0  0  0  0  0  0  0
   -1.3238    1.4839    0.0000 N   0  0  0  0  0  0  0  0  0  0  0  0
   -0.4248   -0.0554    0.0000 C   0  0  3  0  0  0  0  0  0  0  0  0
    0.4125   -0.0800    0.0000 C   0  0  0  0  0  0  0  0  0  0  0  0
   -0.4248   -1.4839    0.0000 C   0  0  0  0  0  0  0  0  0  0  0  0
    0.4002   -1.4839    0.0000 C   0  0  0  0  0  0  0  0  0  0  0  0
   -0.8312    0.6465    0.0000 C   0  0  0  0  0  0  0  0  0  0  0  0
   -2.4567   -0.7819    0.0000 C   0  0  0  0  0  0  0  0  0  0  0  0
    2.4567   -0.7697    0.0000 C   0  0  0  0  0  0  0  0  0  0  0  0
  1  4  1  0  0  0  0
  1  6  1  0  0  0  0
  1  9  1  0  0  0  0
  2  5  1  0  0  0  0
  2  7  1  0  0  0  0
  2 10  1  0  0  0  0
  3  8  3  0  0  0  0
  4  5  1  0  0  0  0
  4  8  1  0  0  0  0
  6  7  1  0  0  0  0
M  END
> <PUBCHEM_COMPOUND_ID_TYPE>
0

> <PUBCHEM_TOTAL_CHARGE>
0

> <PUBCHEM_SUBSTANCE_ID>
310944187

> <PUBCHEM_SUBSTANCE_VERSION>
1

> <PUBCHEM_EXT_DATASOURCE_NAME>
4488

> <PUBCHEM_EXT_DATASOURCE_REGID>
SCHEMBL16122262

> <PUBCHEM_SUBSTANCE_COMMENT>
InChI=1S/C7H13N3/c1-9-3-4-10(2)7(5-8)6-9/h7H,3-4,6H2,1-2H3
InChIKey=YUFMUIKTQBHZOZ-UHFFFAOYSA-N

> <PUBCHEM_SUBSTANCE_SYNONYM>
SCHEMBL16122262

> <PUBCHEM_XREF_EXT_ID>
SCHEMBL16122262

> <PUBCHEM_EXT_DATASOURCE_URL>
https://www.surechembl.org/

> <PUBCHEM_EXT_SUBSTANCE_URL>
https://www.surechembl.org/chemical/SCHEMBL16122262

> <PUBCHEM_CID_ASSOCIATIONS>
54592673  1

> <PUBCHEM_COORDINATE_TYPE>
1
3

$$$$
