310934141
  -OEChem-07211613022D

 39 42  0     1  0  0  0  0  0999 V2000
  -10.0026   -4.9500    0.0000 Cl  0  0  0  0  0  0  0  0  0  0  0  0
  -10.0026   -0.8250    0.0000 O   0  0  0  0  0  0  0  0  0  0  0  0
  -10.7170    1.2375    0.0000 O   0  0  0  0  0  0  0  0  0  0  0  0
  -13.5750   -3.7125    0.0000 O   0  5  0  0  0  0  0  0  0  0  0  0
  -12.8605   -2.4750    0.0000 O   0  0  0  0  0  0  0  0  0  0  0  0
   -5.7158    0.0000    0.0000 O   0  0  0  0  0  0  0  0  0  0  0  0
   -5.0013   -1.2375    0.0000 O   0  0  0  0  0  0  0  0  0  0  0  0
  -11.4316   -0.8250    0.0000 N   0  0  0  0  0  0  0  0  0  0  0  0
  -12.8605   -3.3000    0.0000 N   0  3  0  0  0  0  0  0  0  0  0  0
  -10.0026    0.0000    0.0000 N   0  0  0  0  0  0  0  0  0  0  0  0
   -6.4302   -1.2375    0.0000 N   0  0  0  0  0  0  0  0  0  0  0  0
  -11.4316   -3.3000    0.0000 C   0  0  0  0  0  0  0  0  0  0  0  0
  -11.4316   -2.4750    0.0000 C   0  0  0  0  0  0  0  0  0  0  0  0
  -10.7170   -1.2375    0.0000 C   0  0  0  0  0  0  0  0  0  0  0  0
  -11.4316    0.0000    0.0000 C   0  0  3  0  0  0  0  0  0  0  0  0
  -12.1460   -3.7125    0.0000 C   0  0  0  0  0  0  0  0  0  0  0  0
  -10.7170   -2.0625    0.0000 C   0  0  0  0  0  0  0  0  0  0  0  0
  -12.1460   -2.0625    0.0000 C   0  0  0  0  0  0  0  0  0  0  0  0
  -12.1460   -1.2375    0.0000 C   0  0  0  0  0  0  0  0  0  0  0  0
  -10.7170   -3.7125    0.0000 C   0  0  0  0  0  0  0  0  0  0  0  0
  -10.7170    0.4125    0.0000 C   0  0  0  0  0  0  0  0  0  0  0  0
  -12.1460   -4.5375    0.0000 C   0  0  0  0  0  0  0  0  0  0  0  0
  -10.7170   -4.5375    0.0000 C   0  0  0  0  0  0  0  0  0  0  0  0
  -12.1460    0.4125    0.0000 C   0  0  0  0  0  0  0  0  0  0  0  0
  -11.4316   -4.9500    0.0000 C   0  0  0  0  0  0  0  0  0  0  0  0
  -12.8605    0.0000    0.0000 C   0  0  0  0  0  0  0  0  0  0  0  0
   -9.2881    0.4125    0.0000 C   0  0  0  0  0  0  0  0  0  0  0  0
   -8.5736    0.0000    0.0000 C   0  0  0  0  0  0  0  0  0  0  0  0
  -12.8605   -0.8250    0.0000 C   0  0  0  0  0  0  0  0  0  0  0  0
  -13.5750    0.4125    0.0000 C   0  0  0  0  0  0  0  0  0  0  0  0
   -8.5736   -0.8250    0.0000 C   0  0  0  0  0  0  0  0  0  0  0  0
   -7.8592    0.4125    0.0000 C   0  0  0  0  0  0  0  0  0  0  0  0
   -7.1447   -0.8250    0.0000 C   0  0  0  0  0  0  0  0  0  0  0  0
  -13.5750   -1.2375    0.0000 C   0  0  0  0  0  0  0  0  0  0  0  0
  -14.2894    0.0000    0.0000 C   0  0  0  0  0  0  0  0  0  0  0  0
   -7.8592   -1.2375    0.0000 C   0  0  0  0  0  0  0  0  0  0  0  0
   -7.1447    0.0000    0.0000 C   0  0  0  0  0  0  0  0  0  0  0  0
  -14.2894   -0.8250    0.0000 C   0  0  0  0  0  0  0  0  0  0  0  0
   -5.7158   -0.8250    0.0000 C   0  0  0  0  0  0  0  0  0  0  0  0
  1 23  1  0  0  0  0
  2 14  2  0  0  0  0
  3 21  2  0  0  0  0
  4  9  1  0  0  0  0
  5  9  2  0  0  0  0
  6 39  2  0  0  0  0
  7 39  1  0  0  0  0
  8 14  1  0  0  0  0
  8 15  1  0  0  0  0
  8 19  1  0  0  0  0
  9 16  1  0  0  0  0
 10 21  1  0  0  0  0
 10 27  1  0  0  0  0
 11 33  1  0  0  0  0
 11 39  1  0  0  0  0
 12 13  1  0  0  0  0
 12 16  1  0  0  0  0
 12 20  2  0  0  0  0
 13 17  2  0  0  0  0
 13 18  1  0  0  0  0
 14 17  1  0  0  0  0
 15 21  1  0  0  0  0
 15 24  1  0  0  0  0
 16 22  2  0  0  0  0
 18 19  2  0  0  0  0
 20 23  1  0  0  0  0
 22 25  1  0  0  0  0
 23 25  2  0  0  0  0
 24 26  1  0  0  0  0
 26 29  2  0  0  0  0
 26 30  1  0  0  0  0
 27 28  1  0  0  0  0
 28 31  2  0  0  0  0
 28 32  1  0  0  0  0
 29 34  1  0  0  0  0
 30 35  2  0  0  0  0
 31 36  1  0  0  0  0
 32 37  2  0  0  0  0
 33 36  2  0  0  0  0
 33 37  1  0  0  0  0
 34 38  2  0  0  0  0
 35 38  1  0  0  0  0
M  CHG  2   4  -1   9   1
M  END
> <PUBCHEM_COMPOUND_ID_TYPE>
0

> <PUBCHEM_TOTAL_CHARGE>
0

> <PUBCHEM_SUBSTANCE_ID>
310934141

> <PUBCHEM_SUBSTANCE_VERSION>
1

> <PUBCHEM_EXT_DATASOURCE_NAME>
4488

> <PUBCHEM_EXT_DATASOURCE_REGID>
SCHEMBL16111590

> <PUBCHEM_SUBSTANCE_COMMENT>
InChI=1S/C28H23ClN4O6/c29-21-8-11-24(33(38)39)23(16-21)20-12-13-32(26(34)15-20)25(14-18-4-2-1-3-5-18)27(35)30-17-19-6-9-22(10-7-19)31-28(36)37/h1-13,15-16,25,31H,14,17H2,(H,30,35)(H,36,37)
InChIKey=RIBWTSMAVOMLEJ-UHFFFAOYSA-N

> <PUBCHEM_SUBSTANCE_SYNONYM>
SCHEMBL16111590

> <PUBCHEM_XREF_EXT_ID>
SCHEMBL16111590

> <PUBCHEM_EXT_DATASOURCE_URL>
https://www.surechembl.org/

> <PUBCHEM_EXT_SUBSTANCE_URL>
https://www.surechembl.org/chemical/SCHEMBL16111590

> <PUBCHEM_CID_ASSOCIATIONS>
117602418  1

> <PUBCHEM_COORDINATE_TYPE>
1
3

$$$$
