310934887
  -OEChem-07211613022D

 35 40  0     1  0  0  0  0  0999 V2000
    2.9004   -7.0742    0.0000 O   0  0  0  0  0  0  0  0  0  0  0  0
    0.7428   -3.3249    0.0000 N   0  0  3  0  0  0  0  0  0  0  0  0
    0.0000   -2.0869    0.0000 N   0  0  0  0  0  0  0  0  0  0  0  0
    0.7428   -0.8489    0.0000 N   0  0  0  0  0  0  0  0  0  0  0  0
    3.6078   -5.8009    0.0000 N   0  0  0  0  0  0  0  0  0  0  0  0
    4.9519   -2.7589    0.0000 N   0  0  0  0  0  0  0  0  0  0  0  0
    4.5275   -3.5018    0.0000 N   0  0  0  0  0  0  0  0  0  0  0  0
    5.0581   -4.9873    0.0000 N   0  0  0  0  0  0  0  0  0  0  0  0
    1.4502   -2.0869    0.0000 C   0  0  0  0  0  0  0  0  0  0  0  0
    0.7428   -2.5114    0.0000 C   0  0  0  0  0  0  0  0  0  0  0  0
    1.4502   -1.2380    0.0000 C   0  0  0  0  0  0  0  0  0  0  0  0
    2.8651   -2.0869    0.0000 C   0  0  0  0  0  0  0  0  0  0  0  0
    2.1577   -0.8489    0.0000 C   0  0  0  0  0  0  0  0  0  0  0  0
    1.4502   -4.5982    0.0000 C   0  0  0  0  0  0  0  0  0  0  0  0
    2.1577   -2.5114    0.0000 C   0  0  0  0  0  0  0  0  0  0  0  0
    0.7428   -5.0227    0.0000 C   0  0  0  0  0  0  0  0  0  0  0  0
    1.4502   -3.7493    0.0000 C   0  0  0  0  0  0  0  0  0  0  0  0
    2.8651   -1.2380    0.0000 C   0  0  0  0  0  0  0  0  0  0  0  0
    0.0354   -3.7493    0.0000 C   0  0  0  0  0  0  0  0  0  0  0  0
    2.1930   -5.8009    0.0000 C   0  0  0  0  0  0  0  0  0  0  0  0
    3.6078   -2.5114    0.0000 C   0  0  0  0  0  0  0  0  0  0  0  0
    2.1577   -4.9873    0.0000 C   0  0  0  0  0  0  0  0  0  0  0  0
    0.0354   -4.5982    0.0000 C   0  0  0  0  0  0  0  0  0  0  0  0
    0.0000   -1.2380    0.0000 C   0  0  0  0  0  0  0  0  0  0  0  0
    2.9004   -6.2253    0.0000 C   0  0  0  0  0  0  0  0  0  0  0  0
    0.7428   -5.8009    0.0000 C   0  0  0  0  0  0  0  0  0  0  0  0
    1.4502   -6.2253    0.0000 C   0  0  0  0  0  0  0  0  0  0  0  0
    2.1577    0.0000    0.0000 C   0  0  0  0  0  0  0  0  0  0  0  0
    4.3506   -2.1577    0.0000 C   0  0  0  0  0  0  0  0  0  0  0  0
    3.7140   -3.3249    0.0000 C   0  0  0  0  0  0  0  0  0  0  0  0
    4.3506   -6.2606    0.0000 C   0  0  0  0  0  0  0  0  0  0  0  0
    3.6078   -4.9873    0.0000 C   0  0  0  0  0  0  0  0  0  0  0  0
    4.3506   -4.5628    0.0000 C   0  0  0  0  0  0  0  0  0  0  0  0
    5.0581   -5.8362    0.0000 C   0  0  0  0  0  0  0  0  0  0  0  0
    5.8009   -4.5628    0.0000 C   0  0  0  0  0  0  0  0  0  0  0  0
  1 25  2  0  0  0  0
  2 10  1  0  0  0  0
  2 17  1  0  0  0  0
  2 19  1  0  0  0  0
  3 10  1  0  0  0  0
  3 24  2  0  0  0  0
  4 11  2  0  0  0  0
  4 24  1  0  0  0  0
  5 25  1  0  0  0  0
  5 31  1  0  0  0  0
  5 32  1  0  0  0  0
  6  7  1  0  0  0  0
  6 29  2  0  0  0  0
  7 30  1  0  0  0  0
  8 33  1  0  0  0  0
  8 34  1  0  0  0  0
  8 35  1  0  0  0  0
  9 10  2  0  0  0  0
  9 11  1  0  0  0  0
  9 15  1  0  0  0  0
 11 13  1  0  0  0  0
 12 15  2  0  0  0  0
 12 18  1  0  0  0  0
 12 21  1  0  0  0  0
 13 18  2  0  0  0  0
 13 28  1  0  0  0  0
 14 16  2  0  0  0  0
 14 17  1  0  0  0  0
 14 22  1  0  0  0  0
 16 23  1  0  0  0  0
 16 26  1  0  0  0  0
 19 23  1  0  0  0  0
 20 22  2  0  0  0  0
 20 25  1  0  0  0  0
 20 27  1  0  0  0  0
 21 29  1  0  0  0  0
 21 30  2  0  0  0  0
 26 27  2  0  0  0  0
 31 34  1  0  0  0  0
 32 33  1  0  0  0  0
M  END
> <PUBCHEM_COMPOUND_ID_TYPE>
0

> <PUBCHEM_TOTAL_CHARGE>
0

> <PUBCHEM_SUBSTANCE_ID>
310934887

> <PUBCHEM_SUBSTANCE_VERSION>
1

> <PUBCHEM_EXT_DATASOURCE_NAME>
4488

> <PUBCHEM_EXT_DATASOURCE_REGID>
SCHEMBL16112400

> <PUBCHEM_SUBSTANCE_COMMENT>
InChI=1S/C27H29N7O/c1-18-11-21(23-14-30-31-15-23)13-24-25(18)28-17-29-26(24)34-6-5-19-3-4-20(12-22(19)16-34)27(35)33-9-7-32(2)8-10-33/h3-4,11-15,17H,5-10,16H2,1-2H3,(H,30,31)
InChIKey=GIVIEEUEJNFDJZ-UHFFFAOYSA-N

> <PUBCHEM_SUBSTANCE_SYNONYM>
SCHEMBL16112400

> <PUBCHEM_XREF_EXT_ID>
SCHEMBL16112400

> <PUBCHEM_EXT_DATASOURCE_URL>
https://www.surechembl.org/

> <PUBCHEM_EXT_SUBSTANCE_URL>
https://www.surechembl.org/chemical/SCHEMBL16112400

> <PUBCHEM_CID_ASSOCIATIONS>
117603017  1

> <PUBCHEM_COORDINATE_TYPE>
1
3

$$$$
