310932398
  -OEChem-07211613022D

 21 22  0     1  0  0  0  0  0999 V2000
    2.7710   -1.6042    0.0000 O   0  0  0  0  0  0  0  0  0  0  0  0
    3.9012   -3.5731    0.0000 O   0  0  0  0  0  0  0  0  0  0  0  0
    4.6305   -2.3335    0.0000 O   0  0  0  0  0  0  0  0  0  0  0  0
    2.3699   -2.3335    0.0000 C   0  0  3  0  0  0  0  0  0  0  0  0
    3.1720   -2.3335    0.0000 C   0  0  3  0  0  0  0  0  0  0  0  0
    1.7866   -1.7501    0.0000 C   0  0  0  0  0  0  0  0  0  0  0  0
    3.9012   -2.7710    0.0000 C   0  0  0  0  0  0  0  0  0  0  0  0
    1.6407   -2.7710    0.0000 C   0  0  0  0  0  0  0  0  0  0  0  0
    0.9480   -1.9688    0.0000 C   0  0  0  0  0  0  0  0  0  0  0  0
    1.9688   -0.9480    0.0000 C   0  0  0  0  0  0  0  0  0  0  0  0
    0.4011   -1.3855    0.0000 C   0  0  0  0  0  0  0  0  0  0  0  0
    1.3855   -0.3646    0.0000 C   0  0  0  0  0  0  0  0  0  0  0  0
    1.6407   -3.5731    0.0000 C   0  0  0  0  0  0  0  0  0  0  0  0
    0.5834   -0.5834    0.0000 C   0  0  0  0  0  0  0  0  0  0  0  0
    4.6305   -4.0107    0.0000 C   0  0  0  0  0  0  0  0  0  0  0  0
    0.0000    0.0000    0.0000 C   0  0  0  0  0  0  0  0  0  0  0  0
    4.6305   -4.8128    0.0000 C   0  0  0  0  0  0  0  0  0  0  0  0
    5.3232   -5.2138    0.0000 C   0  0  0  0  0  0  0  0  0  0  0  0
    5.3232   -6.0524    0.0000 C   0  0  0  0  0  0  0  0  0  0  0  0
    6.0524   -6.4535    0.0000 C   0  0  0  0  0  0  0  0  0  0  0  0
    6.0524   -7.2921    0.0000 C   0  0  0  0  0  0  0  0  0  0  0  0
  1  4  1  0  0  0  0
  1  5  1  0  0  0  0
  2  7  1  0  0  0  0
  2 15  1  0  0  0  0
  3  7  2  0  0  0  0
  4  5  1  0  0  0  0
  4  6  1  0  0  0  0
  4  8  1  0  0  0  0
  5  7  1  0  0  0  0
  6  9  2  0  0  0  0
  6 10  1  0  0  0  0
  8 13  1  0  0  0  0
  9 11  1  0  0  0  0
 10 12  2  0  0  0  0
 11 14  2  0  0  0  0
 12 14  1  0  0  0  0
 14 16  1  0  0  0  0
 15 17  1  0  0  0  0
 17 18  1  0  0  0  0
 18 19  1  0  0  0  0
 19 20  1  0  0  0  0
 20 21  1  0  0  0  0
M  END
> <PUBCHEM_COMPOUND_ID_TYPE>
0

> <PUBCHEM_TOTAL_CHARGE>
0

> <PUBCHEM_SUBSTANCE_ID>
310932398

> <PUBCHEM_SUBSTANCE_VERSION>
1

> <PUBCHEM_EXT_DATASOURCE_NAME>
4488

> <PUBCHEM_EXT_DATASOURCE_REGID>
SCHEMBL16109766

> <PUBCHEM_SUBSTANCE_COMMENT>
InChI=1S/C18H26O3/c1-4-6-7-8-13-20-17(19)16-18(5-2,21-16)15-11-9-14(3)10-12-15/h9-12,16H,4-8,13H2,1-3H3
InChIKey=INONHVWVJPTQAQ-UHFFFAOYSA-N

> <PUBCHEM_SUBSTANCE_SYNONYM>
SCHEMBL16109766

> <PUBCHEM_XREF_EXT_ID>
SCHEMBL16109766

> <PUBCHEM_EXT_DATASOURCE_URL>
https://www.surechembl.org/

> <PUBCHEM_EXT_SUBSTANCE_URL>
https://www.surechembl.org/chemical/SCHEMBL16109766

> <PUBCHEM_CID_ASSOCIATIONS>
117600952  1

> <PUBCHEM_COORDINATE_TYPE>
1
3

$$$$
