310946613
  -OEChem-07211613022D

 25 25  0     1  0  0  0  0  0999 V2000
    2.0024    0.3148    0.0000 O   0  0  0  0  0  0  0  0  0  0  0  0
    3.4314    1.9648    0.0000 O   0  0  0  0  0  0  0  0  0  0  0  0
    0.5735    0.3148    0.0000 O   0  0  0  0  0  0  0  0  0  0  0  0
    2.7169    0.7273    0.0000 O   0  0  0  0  0  0  0  0  0  0  0  0
    5.5748    1.5523    0.0000 O   0  0  0  0  0  0  0  0  0  0  0  0
    4.4493   -0.7238    0.0000 O   0  0  0  0  0  0  0  0  0  0  0  0
    4.4493    0.7052    0.0000 O   0  5  0  0  0  0  0  0  0  0  0  0
    3.2118   -0.0093    0.0000 O   0  0  0  0  0  0  0  0  0  0  0  0
    1.2880    1.5523    0.0000 N   0  0  0  0  0  0  0  0  0  0  0  0
    4.0368   -0.0093    0.0000 N   0  3  0  0  0  0  0  0  0  0  0  0
    2.0024    1.9648    0.0000 C   0  0  3  0  0  0  0  0  0  0  0  0
    1.2880    0.7273    0.0000 C   0  0  0  0  0  0  0  0  0  0  0  0
    2.7169    1.5523    0.0000 C   0  0  0  0  0  0  0  0  0  0  0  0
    0.5735    1.9648    0.0000 C   0  0  0  0  0  0  0  0  0  0  0  0
    2.0024    2.7898    0.0000 C   0  0  0  0  0  0  0  0  0  0  0  0
    0.5735    2.7898    0.0000 C   0  0  0  0  0  0  0  0  0  0  0  0
    2.0024   -0.5102    0.0000 C   0  0  0  0  0  0  0  0  0  0  0  0
    4.1459    1.5523    0.0000 C   0  0  0  0  0  0  0  0  0  0  0  0
    2.7993   -0.7238    0.0000 C   0  0  0  0  0  0  0  0  0  0  0  0
    4.8603    1.9648    0.0000 C   0  0  0  0  0  0  0  0  0  0  0  0
    3.2118   -1.4382    0.0000 C   0  0  0  0  0  0  0  0  0  0  0  0
    4.0368   -1.4382    0.0000 C   0  0  0  0  0  0  0  0  0  0  0  0
    6.2893    1.9648    0.0000 C   0  0  0  0  0  0  0  0  0  0  0  0
    7.0037    1.5523    0.0000 C   0  0  0  0  0  0  0  0  0  0  0  0
    7.7182    1.9648    0.0000 C   0  0  0  0  0  0  0  0  0  0  0  0
  1 12  1  0  0  0  0
  1 17  1  0  0  0  0
  2 13  1  0  0  0  0
  2 18  1  0  0  0  0
  3 12  2  0  0  0  0
  4 13  2  0  0  0  0
  5 20  1  0  0  0  0
  5 23  1  0  0  0  0
  6 10  1  0  0  0  0
  6 22  1  0  0  0  0
  7 10  1  0  0  0  0
  8 10  2  0  0  0  0
  9 11  1  0  0  0  0
  9 12  1  0  0  0  0
  9 14  1  0  0  0  0
 11 13  1  0  0  0  0
 11 15  1  0  0  0  0
 14 16  1  0  0  0  0
 15 16  1  0  0  0  0
 17 19  1  0  0  0  0
 18 20  1  0  0  0  0
 19 21  1  0  0  0  0
 21 22  1  0  0  0  0
 23 24  1  0  0  0  0
 24 25  1  0  0  0  0
M  CHG  2   7  -1  10   1
M  END
> <PUBCHEM_COMPOUND_ID_TYPE>
0

> <PUBCHEM_TOTAL_CHARGE>
0

> <PUBCHEM_SUBSTANCE_ID>
310946613

> <PUBCHEM_SUBSTANCE_VERSION>
1

> <PUBCHEM_EXT_DATASOURCE_NAME>
4488

> <PUBCHEM_EXT_DATASOURCE_REGID>
SCHEMBL16124734

> <PUBCHEM_SUBSTANCE_COMMENT>
InChI=1S/C15H26N2O8/c1-2-8-22-11-12-23-14(18)13-6-5-7-16(13)15(19)24-9-3-4-10-25-17(20)21/h13H,2-12H2,1H3
InChIKey=IYNWQCWRGYJEGX-UHFFFAOYSA-N

> <PUBCHEM_SUBSTANCE_SYNONYM>
SCHEMBL16124734

> <PUBCHEM_XREF_EXT_ID>
SCHEMBL16124734

> <PUBCHEM_EXT_DATASOURCE_URL>
https://www.surechembl.org/

> <PUBCHEM_EXT_SUBSTANCE_URL>
https://www.surechembl.org/chemical/SCHEMBL16124734

> <PUBCHEM_CID_ASSOCIATIONS>
117612513  1

> <PUBCHEM_COORDINATE_TYPE>
1
3

$$$$
