310932383
  -OEChem-07211613022D

 62 64  0     1  0  0  0  0  0999 V2000
    5.3848    3.0107    0.0000 O   0  0  0  0  0  0  0  0  0  0  0  0
    6.4553    6.0474    0.0000 O   0  0  0  0  0  0  0  0  0  0  0  0
    6.4553    4.6184    0.0000 O   0  0  0  0  0  0  0  0  0  0  0  0
    3.1553    4.6184    0.0000 O   0  0  0  0  0  0  0  0  0  0  0  0
    3.7889    5.3329    0.0000 O   0  0  0  0  0  0  0  0  0  0  0  0
    6.0052    1.6284    0.0000 O   0  0  0  0  0  0  0  0  0  0  0  0
    1.6861    7.2390    0.0000 O   0  0  0  0  0  0  0  0  0  0  0  0
    1.3432    8.7412    0.0000 O   0  0  0  0  0  0  0  0  0  0  0  0
    7.3612    4.0954    0.0000 O   0  0  0  0  0  0  0  0  0  0  0  0
    8.0757    2.0329    0.0000 O   0  0  0  0  0  0  0  0  0  0  0  0
    4.3928    5.3329    0.0000 N   0  0  0  0  0  0  0  0  0  0  0  0
    4.0573    3.1503    0.0000 N   0  0  0  0  0  0  0  0  0  0  0  0
    3.0744    6.5704    0.0000 N   0  0  0  0  0  0  0  0  0  0  0  0
    2.1475    8.5577    0.0000 N   0  0  0  0  0  0  0  0  0  0  0  0
    7.3612    3.2704    0.0000 N   0  0  0  0  0  0  0  0  0  0  0  0
    5.2178    5.3329    0.0000 C   0  0  3  0  0  0  0  0  0  0  0  0
    5.2178    6.1579    0.0000 C   0  0  3  0  0  0  0  0  0  0  0  0
    6.0428    5.3329    0.0000 C   0  0  0  0  0  0  0  0  0  0  0  0
    3.9803    4.6184    0.0000 C   0  0  0  0  0  0  0  0  0  0  0  0
    4.3928    3.9039    0.0000 C   0  0  3  0  0  0  0  0  0  0  0  0
    5.2178    4.5079    0.0000 C   0  0  0  0  0  0  0  0  0  0  0  0
    4.6703    2.5982    0.0000 C   0  0  0  0  0  0  0  0  0  0  0  0
    4.5841    1.7778    0.0000 C   0  0  0  0  0  0  0  0  0  0  0  0
    4.5033    6.5704    0.0000 C   0  0  0  0  0  0  0  0  0  0  0  0
    5.2133    3.8177    0.0000 C   0  0  0  0  0  0  0  0  0  0  0  0
    3.7889    6.1579    0.0000 C   0  0  0  0  0  0  0  0  0  0  0  0
    5.2515    1.2928    0.0000 C   0  0  0  0  0  0  0  0  0  0  0  0
    5.9323    6.5704    0.0000 C   0  0  0  0  0  0  0  0  0  0  0  0
    5.9323    4.0954    0.0000 C   0  0  0  0  0  0  0  0  0  0  0  0
    3.8304    1.4422    0.0000 C   0  0  0  0  0  0  0  0  0  0  0  0
    3.0744    7.3954    0.0000 C   0  0  3  0  0  0  0  0  0  0  0  0
    5.1653    0.4724    0.0000 C   0  0  0  0  0  0  0  0  0  0  0  0
    5.9323    3.2704    0.0000 C   0  0  0  0  0  0  0  0  0  0  0  0
    3.7442    0.6217    0.0000 C   0  0  0  0  0  0  0  0  0  0  0  0
    2.3311    7.7533    0.0000 C   0  0  0  0  0  0  0  0  0  0  0  0
    4.4116    0.1368    0.0000 C   0  0  0  0  0  0  0  0  0  0  0  0
    3.8177    7.7533    0.0000 C   0  0  0  0  0  0  0  0  0  0  0  0
    6.6468    2.8579    0.0000 C   0  0  0  0  0  0  0  0  0  0  0  0
    2.6619    9.2027    0.0000 C   0  0  0  0  0  0  0  0  0  0  0  0
    4.0013    8.5577    0.0000 C   0  0  0  0  0  0  0  0  0  0  0  0
    3.4869    9.2027    0.0000 C   0  0  0  0  0  0  0  0  0  0  0  0
    8.0757    2.8579    0.0000 C   0  0  0  0  0  0  0  0  0  0  0  0
    8.7902    3.2704    0.0000 C   0  0  0  0  0  0  0  0  0  0  0  0
    9.5046    2.8579    0.0000 C   0  0  0  0  0  0  0  0  0  0  0  0
   10.2191    3.2704    0.0000 C   0  0  0  0  0  0  0  0  0  0  0  0
   10.9336    2.8579    0.0000 C   0  0  0  0  0  0  0  0  0  0  0  0
   11.6480    3.2704    0.0000 C   0  0  0  0  0  0  0  0  0  0  0  0
   12.3625    2.8579    0.0000 C   0  0  0  0  0  0  0  0  0  0  0  0
   13.0770    3.2704    0.0000 C   0  0  0  0  0  0  0  0  0  0  0  0
   13.7915    2.8579    0.0000 C   0  0  0  0  0  0  0  0  0  0  0  0
   14.5059    3.2704    0.0000 C   0  0  0  0  0  0  0  0  0  0  0  0
   15.2204    2.8579    0.0000 C   0  0  0  0  0  0  0  0  0  0  0  0
   15.9349    3.2704    0.0000 C   0  0  0  0  0  0  0  0  0  0  0  0
   16.6493    2.8579    0.0000 C   0  0  0  0  0  0  0  0  0  0  0  0
   17.3638    3.2704    0.0000 C   0  0  0  0  0  0  0  0  0  0  0  0
   18.0783    2.8579    0.0000 C   0  0  0  0  0  0  0  0  0  0  0  0
   18.7928    3.2704    0.0000 C   0  0  0  0  0  0  0  0  0  0  0  0
   19.5072    2.8579    0.0000 C   0  0  0  0  0  0  0  0  0  0  0  0
   20.2217    3.2704    0.0000 C   0  0  0  0  0  0  0  0  0  0  0  0
   20.9362    2.8579    0.0000 C   0  0  0  0  0  0  0  0  0  0  0  0
   21.6506    3.2704    0.0000 C   0  0  0  0  0  0  0  0  0  0  0  0
   22.3651    2.8579    0.0000 C   0  0  0  0  0  0  0  0  0  0  0  0
  1 22  1  0  0  0  0
  1 25  1  0  0  0  0
  2 18  2  0  0  0  0
  3 18  1  0  0  0  0
  4 19  2  0  0  0  0
  5 26  2  0  0  0  0
  6 27  2  0  0  0  0
  7 35  2  0  0  0  0
  8 14  1  0  0  0  0
  9 15  1  0  0  0  0
 10 42  2  0  0  0  0
 11 16  1  0  0  0  0
 11 19  1  0  0  0  0
 12 20  1  0  0  0  0
 12 22  1  0  0  0  0
 13 26  1  0  0  0  0
 13 31  1  0  0  0  0
 14 35  1  0  0  0  0
 14 39  1  0  0  0  0
 15 38  1  0  0  0  0
 15 42  1  0  0  0  0
 16 17  1  0  0  0  0
 16 18  1  0  0  0  0
 16 21  1  0  0  0  0
 17 24  1  0  0  0  0
 17 28  1  0  0  0  0
 19 20  1  0  0  0  0
 20 25  1  0  0  0  0
 21 29  1  0  0  0  0
 22 23  2  0  0  0  0
 23 27  1  0  0  0  0
 23 30  1  0  0  0  0
 24 26  1  0  0  0  0
 27 32  1  0  0  0  0
 29 33  1  0  0  0  0
 30 34  2  0  0  0  0
 31 35  1  0  0  0  0
 31 37  1  0  0  0  0
 32 36  2  0  0  0  0
 33 38  1  0  0  0  0
 34 36  1  0  0  0  0
 37 40  1  0  0  0  0
 39 41  1  0  0  0  0
 40 41  1  0  0  0  0
 42 43  1  0  0  0  0
 43 44  1  0  0  0  0
 44 45  1  0  0  0  0
 45 46  1  0  0  0  0
 46 47  1  0  0  0  0
 47 48  1  0  0  0  0
 48 49  1  0  0  0  0
 49 50  1  0  0  0  0
 50 51  1  0  0  0  0
 51 52  1  0  0  0  0
 52 53  1  0  0  0  0
 53 54  1  0  0  0  0
 54 55  1  0  0  0  0
 55 56  1  0  0  0  0
 56 57  1  0  0  0  0
 57 58  1  0  0  0  0
 58 59  1  0  0  0  0
 59 60  1  0  0  0  0
 60 61  1  0  0  0  0
 61 62  1  0  0  0  0
M  END
> <PUBCHEM_COMPOUND_ID_TYPE>
0

> <PUBCHEM_TOTAL_CHARGE>
0

> <PUBCHEM_SUBSTANCE_ID>
310932383

> <PUBCHEM_SUBSTANCE_VERSION>
1

> <PUBCHEM_EXT_DATASOURCE_NAME>
4488

> <PUBCHEM_EXT_DATASOURCE_REGID>
SCHEMBL16109749

> <PUBCHEM_SUBSTANCE_COMMENT>
InChI=1S/C47H77N5O10/c1-3-4-5-6-7-8-9-10-11-12-13-14-15-16-17-18-19-20-30-42(55)51(60)32-26-24-31-47(46(58)59,36(2)34-41(54)48-38-28-23-25-33-52(61)45(38)57)50-43(56)39-35-62-44(49-39)37-27-21-22-29-40(37)53/h21-22,27,29,36,38-39,49,60-61H,3-20,23-26,28,30-35H2,1-2H3,(H,48,54)(H,50,56)(H,58,59)
InChIKey=LZXNAWRFYMBMRU-UHFFFAOYSA-N

> <PUBCHEM_SUBSTANCE_SYNONYM>
SCHEMBL16109749

> <PUBCHEM_XREF_EXT_ID>
SCHEMBL16109749

> <PUBCHEM_EXT_DATASOURCE_URL>
https://www.surechembl.org/

> <PUBCHEM_EXT_SUBSTANCE_URL>
https://www.surechembl.org/chemical/SCHEMBL16109749

> <PUBCHEM_CID_ASSOCIATIONS>
117600938  1

> <PUBCHEM_COORDINATE_TYPE>
1
3

> <PUBCHEM_BONDANNOTATIONS>
22  12  3

$$$$
