310946290
  -OEChem-07211613022D

 25 26  0     1  0  0  0  0  0999 V2000
    4.5612   -3.8966    0.0000 S   0  0  0  0  0  0  0  0  0  0  0  0
   -3.2091   -1.5321    0.0000 S   0  0  0  0  0  0  0  0  0  0  0  0
    3.7363   -3.8966    0.0000 O   0  0  0  0  0  0  0  0  0  0  0  0
    1.4823   -3.8966    0.0000 O   0  0  0  0  0  0  0  0  0  0  0  0
    1.1803   -0.2946    0.0000 O   0  0  0  0  0  0  0  0  0  0  0  0
    4.5612   -4.7216    0.0000 O   0  0  0  0  0  0  0  0  0  0  0  0
    4.5612   -3.0715    0.0000 O   0  0  0  0  0  0  0  0  0  0  0  0
    5.3863   -3.8966    0.0000 O   0  0  0  0  0  0  0  0  0  0  0  0
   -0.2486   -1.1196    0.0000 O   0  0  0  0  0  0  0  0  0  0  0  0
   -3.2091   -0.7072    0.0000 O   0  0  0  0  0  0  0  0  0  0  0  0
   -3.2091   -2.3572    0.0000 O   0  0  0  0  0  0  0  0  0  0  0  0
    1.8948   -2.3572    0.0000 N   0  0  0  0  0  0  0  0  0  0  0  0
    3.3237   -3.1821    0.0000 N   0  0  0  0  0  0  0  0  0  0  0  0
   -2.3921   -1.5321    0.0000 N   0  0  0  0  0  0  0  0  0  0  0  0
   -4.0342   -1.5321    0.0000 N   0  0  0  0  0  0  0  0  0  0  0  0
    1.8948   -3.1821    0.0000 C   0  0  0  0  0  0  0  0  0  0  0  0
    3.3237   -2.3572    0.0000 C   0  0  3  0  0  0  0  0  0  0  0  0
    1.8948   -1.5321    0.0000 C   0  0  3  0  0  0  0  0  0  0  0  0
    2.6093   -2.7696    0.0000 C   0  0  0  0  0  0  0  0  0  0  0  0
    3.3237   -1.5321    0.0000 C   0  0  0  0  0  0  0  0  0  0  0  0
    2.6093   -1.1196    0.0000 C   0  0  0  0  0  0  0  0  0  0  0  0
    1.1803   -1.1196    0.0000 C   0  0  0  0  0  0  0  0  0  0  0  0
    0.4658   -1.5321    0.0000 C   0  0  0  0  0  0  0  0  0  0  0  0
   -0.9631   -1.5321    0.0000 C   0  0  0  0  0  0  0  0  0  0  0  0
   -1.6776   -1.1196    0.0000 C   0  0  0  0  0  0  0  0  0  0  0  0
  1  3  1  0  0  0  0
  1  6  2  0  0  0  0
  1  7  2  0  0  0  0
  1  8  1  0  0  0  0
  2 10  2  0  0  0  0
  2 11  2  0  0  0  0
  2 14  1  0  0  0  0
  2 15  1  0  0  0  0
  3 13  1  0  0  0  0
  4 16  2  0  0  0  0
  5 22  2  0  0  0  0
  9 23  1  0  0  0  0
  9 24  1  0  0  0  0
 12 16  1  0  0  0  0
 12 18  1  0  0  0  0
 12 19  1  0  0  0  0
 13 16  1  0  0  0  0
 13 17  1  0  0  0  0
 14 25  1  0  0  0  0
 17 19  1  6  0  0  0
 17 20  1  0  0  0  0
 18 21  1  0  0  0  0
 18 22  1  6  0  0  0
 20 21  1  0  0  0  0
 22 23  1  0  0  0  0
 24 25  1  0  0  0  0
M  END
> <PUBCHEM_COMPOUND_ID_TYPE>
0

> <PUBCHEM_TOTAL_CHARGE>
0

> <PUBCHEM_SUBSTANCE_ID>
310946290

> <PUBCHEM_SUBSTANCE_VERSION>
1

> <PUBCHEM_EXT_DATASOURCE_NAME>
4488

> <PUBCHEM_EXT_DATASOURCE_REGID>
SCHEMBL16124408

> <PUBCHEM_SUBSTANCE_COMMENT>
InChI=1S/C10H18N4O9S2/c11-24(17,18)12-3-4-22-6-9(15)8-2-1-7-5-13(8)10(16)14(7)23-25(19,20)21/h7-8,12H,1-6H2,(H2,11,17,18)(H,19,20,21)/t7-,8+/m1/s1
InChIKey=FJSVWDHCRHXKOE-SFYZADRCSA-N

> <PUBCHEM_SUBSTANCE_SYNONYM>
SCHEMBL16124408

> <PUBCHEM_XREF_EXT_ID>
SCHEMBL16124408

> <PUBCHEM_EXT_DATASOURCE_URL>
https://www.surechembl.org/

> <PUBCHEM_EXT_SUBSTANCE_URL>
https://www.surechembl.org/chemical/SCHEMBL16124408

> <PUBCHEM_CID_ASSOCIATIONS>
117612238  1

> <PUBCHEM_COORDINATE_TYPE>
1
3

> <PUBCHEM_BONDANNOTATIONS>
17  19  6
18  22  6

$$$$
