310941024
  -OEChem-07211613022D

 42 45  0     1  0  0  0  0  0999 V2000
    0.6709    2.0127    0.0000 F   0  0  0  0  0  0  0  0  0  0  0  0
    1.0838    2.7205    0.0000 F   0  0  0  0  0  0  0  0  0  0  0  0
    5.0651    0.8921    0.0000 O   0  0  0  0  0  0  0  0  0  0  0  0
    3.9297   -1.0691    0.0000 O   0  0  0  0  0  0  0  0  0  0  0  0
    1.7769    0.8037    0.0000 O   0  0  0  0  0  0  0  0  0  0  0  0
   -0.3760   -1.0691    0.0000 O   0  0  0  0  0  0  0  0  0  0  0  0
   -2.5289    1.0101    0.0000 O   0  0  0  0  0  0  0  0  0  0  0  0
    3.9297   -2.7205    0.0000 O   0  0  0  0  0  0  0  0  0  0  0  0
   -5.4043   -1.4819    0.0000 O   0  0  0  0  0  0  0  0  0  0  0  0
    2.4994   -0.2285    0.0000 N   0  0  0  0  0  0  0  0  0  0  0  0
    0.3317    0.1843    0.0000 N   0  0  0  0  0  0  0  0  0  0  0  0
   -1.8211   -0.2285    0.0000 N   0  0  0  0  0  0  0  0  0  0  0  0
    4.6523    0.2138    0.0000 C   0  0  3  0  0  0  0  0  0  0  0  0
    3.9445   -0.1843    0.0000 C   0  0  0  0  0  0  0  0  0  0  0  0
    4.2689    0.9069    0.0000 C   0  0  0  0  0  0  0  0  0  0  0  0
    3.2219    0.1991    0.0000 C   0  0  3  0  0  0  0  0  0  0  0  0
    2.4699    1.4525    0.0000 C   0  0  0  0  0  0  0  0  0  0  0  0
    3.2219    1.0249    0.0000 C   0  0  0  0  0  0  0  0  0  0  0  0
    1.4819    2.0275    0.0000 C   0  0  0  0  0  0  0  0  0  0  0  0
    5.4043   -0.2138    0.0000 C   0  0  0  0  0  0  0  0  0  0  0  0
    1.7179    1.2313    0.0000 C   0  0  0  0  0  0  0  0  0  0  0  0
    2.2782    2.2193    0.0000 C   0  0  0  0  0  0  0  0  0  0  0  0
    1.7769    0.1843    0.0000 C   0  0  0  0  0  0  0  0  0  0  0  0
    1.0838   -0.2138    0.0000 C   0  0  3  0  0  0  0  0  0  0  0  0
    1.0691   -1.0395    0.0000 C   0  0  0  0  0  0  0  0  0  0  0  0
   -0.3613   -0.1843    0.0000 C   0  0  0  0  0  0  0  0  0  0  0  0
    1.8063   -1.4525    0.0000 C   0  0  0  0  0  0  0  0  0  0  0  0
   -1.0985    0.1991    0.0000 C   0  0  3  0  0  0  0  0  0  0  0  0
   -2.5437    0.1843    0.0000 C   0  0  0  0  0  0  0  0  0  0  0  0
    1.8063   -2.2782    0.0000 C   0  0  0  0  0  0  0  0  0  0  0  0
    2.4847   -1.0543    0.0000 C   0  0  0  0  0  0  0  0  0  0  0  0
   -3.2367   -0.2138    0.0000 C   0  0  0  0  0  0  0  0  0  0  0  0
    3.2219   -2.2635    0.0000 C   0  0  0  0  0  0  0  0  0  0  0  0
    2.5141   -2.6763    0.0000 C   0  0  0  0  0  0  0  0  0  0  0  0
    3.2219   -1.4672    0.0000 C   0  0  0  0  0  0  0  0  0  0  0  0
   -3.9739    0.1843    0.0000 C   0  0  0  0  0  0  0  0  0  0  0  0
   -3.2367   -1.0395    0.0000 C   0  0  0  0  0  0  0  0  0  0  0  0
   -1.0691    1.0395    0.0000 C   0  0  0  0  0  0  0  0  0  0  0  0
   -4.6817   -1.0395    0.0000 C   0  0  0  0  0  0  0  0  0  0  0  0
   -4.6670   -0.2138    0.0000 C   0  0  0  0  0  0  0  0  0  0  0  0
   -3.9592   -1.4377    0.0000 C   0  0  0  0  0  0  0  0  0  0  0  0
    4.6817   -2.2929    0.0000 C   0  0  0  0  0  0  0  0  0  0  0  0
  1 19  1  0  0  0  0
  2 19  1  0  0  0  0
  3 13  1  0  0  0  0
  3 15  1  0  0  0  0
  4 14  2  0  0  0  0
  5 23  2  0  0  0  0
  6 26  2  0  0  0  0
  7 29  2  0  0  0  0
  8 33  1  0  0  0  0
  8 42  1  0  0  0  0
  9 39  1  0  0  0  0
 10 16  1  0  0  0  0
 10 23  1  0  0  0  0
 11 24  1  0  0  0  0
 11 26  1  0  0  0  0
 12 28  1  0  0  0  0
 12 29  1  0  0  0  0
 13 14  1  0  0  0  0
 13 15  1  0  0  0  0
 13 20  1  0  0  0  0
 14 16  1  0  0  0  0
 16 18  1  0  0  0  0
 17 18  1  0  0  0  0
 17 21  1  0  0  0  0
 17 22  1  0  0  0  0
 19 21  1  0  0  0  0
 19 22  1  0  0  0  0
 23 24  1  0  0  0  0
 24 25  1  0  0  0  0
 25 27  1  0  0  0  0
 26 28  1  0  0  0  0
 27 30  2  0  0  0  0
 27 31  1  0  0  0  0
 28 38  1  0  0  0  0
 29 32  1  0  0  0  0
 30 34  1  0  0  0  0
 31 35  2  0  0  0  0
 32 36  1  0  0  0  0
 32 37  1  0  0  0  0
 33 34  2  0  0  0  0
 33 35  1  0  0  0  0
 36 40  1  0  0  0  0
 37 41  1  0  0  0  0
 39 40  1  0  0  0  0
 39 41  1  0  0  0  0
M  END
> <PUBCHEM_COMPOUND_ID_TYPE>
0

> <PUBCHEM_TOTAL_CHARGE>
0

> <PUBCHEM_SUBSTANCE_ID>
310941024

> <PUBCHEM_SUBSTANCE_VERSION>
1

> <PUBCHEM_EXT_DATASOURCE_NAME>
4488

> <PUBCHEM_EXT_DATASOURCE_REGID>
SCHEMBL16118983

> <PUBCHEM_SUBSTANCE_COMMENT>
InChI=1S/C30H41F2N3O7/c1-17(33-27(39)20-6-8-21(36)9-7-20)26(38)35-24(12-18-4-10-22(41-3)11-5-18)28(40)34-23(25(37)29(2)16-42-29)13-19-14-30(31,32)15-19/h4-5,10-11,17,19-21,23-24,36H,6-9,12-16H2,1-3H3,(H,33,39)(H,34,40)(H,35,38)
InChIKey=STTPQLKYMZZNSG-UHFFFAOYSA-N

> <PUBCHEM_SUBSTANCE_SYNONYM>
SCHEMBL16118983

> <PUBCHEM_XREF_EXT_ID>
SCHEMBL16118983

> <PUBCHEM_EXT_DATASOURCE_URL>
https://www.surechembl.org/

> <PUBCHEM_EXT_SUBSTANCE_URL>
https://www.surechembl.org/chemical/SCHEMBL16118983

> <PUBCHEM_CID_ASSOCIATIONS>
86295491  1

> <PUBCHEM_COORDINATE_TYPE>
1
3

$$$$
