310939037
  -OEChem-07211613022D

 15 17  0     1  0  0  0  0  0999 V2000
    0.3291   15.5893    0.0000 N   0  0  3  0  0  0  0  0  0  0  0  0
   -0.3853   15.1768    0.0000 C   0  0  0  0  0  0  0  0  0  0  0  0
   -0.3853   14.3518    0.0000 C   0  0  0  0  0  0  0  0  0  0  0  0
    0.3291   13.9393    0.0000 C   0  0  0  0  0  0  0  0  0  0  0  0
    1.7632   14.7466    0.0000 C   0  0  0  0  0  0  0  0  0  0  0  0
    0.3291   16.4143    0.0000 C   0  0  3  0  0  0  0  0  0  0  0  0
   -1.0998   15.5893    0.0000 C   0  0  0  0  0  0  0  0  0  0  0  0
   -1.0998   16.4143    0.0000 C   0  0  0  0  0  0  0  0  0  0  0  0
   -1.0998   13.9393    0.0000 C   0  0  0  0  0  0  0  0  0  0  0  0
   -0.3853   16.8268    0.0000 C   0  0  0  0  0  0  0  0  0  0  0  0
    0.3291   13.1143    0.0000 C   0  0  0  0  0  0  0  0  0  0  0  0
   -1.0998   13.1143    0.0000 C   0  0  0  0  0  0  0  0  0  0  0  0
   -0.3853   12.7018    0.0000 C   0  0  0  0  0  0  0  0  0  0  0  0
    1.0436   16.8268    0.0000 C   0  0  0  0  0  0  0  0  0  0  0  0
   -1.8143   16.8268    0.0000 C   0  0  0  0  0  0  0  0  0  0  0  0
  1  2  1  0  0  0  0
  1  5  1  0  0  0  0
  1  6  1  0  0  0  0
  2  3  1  0  0  0  0
  2  7  2  0  0  0  0
  3  4  2  0  0  0  0
  3  9  1  0  0  0  0
  4  5  1  0  0  0  0
  4 11  1  0  0  0  0
  6 10  1  0  0  0  0
  6 14  1  0  0  0  0
  7  8  1  0  0  0  0
  8 10  2  0  0  0  0
  8 15  1  0  0  0  0
  9 12  1  0  0  0  0
 11 13  2  0  0  0  0
 12 13  1  0  0  0  0
M  END
> <PUBCHEM_COMPOUND_ID_TYPE>
0

> <PUBCHEM_TOTAL_CHARGE>
0

> <PUBCHEM_SUBSTANCE_ID>
310939037

> <PUBCHEM_SUBSTANCE_VERSION>
1

> <PUBCHEM_EXT_DATASOURCE_NAME>
4488

> <PUBCHEM_EXT_DATASOURCE_REGID>
SCHEMBL16116956

> <PUBCHEM_SUBSTANCE_COMMENT>
InChI=1S/C14H17N/c1-10-7-11(2)15-9-12-5-3-4-6-13(12)14(15)8-10/h3,5,7-8,11H,4,6,9H2,1-2H3
InChIKey=INXJCOIRMBBKDA-UHFFFAOYSA-N

> <PUBCHEM_SUBSTANCE_SYNONYM>
SCHEMBL16116956

> <PUBCHEM_XREF_EXT_ID>
SCHEMBL16116956

> <PUBCHEM_EXT_DATASOURCE_URL>
https://www.surechembl.org/

> <PUBCHEM_EXT_SUBSTANCE_URL>
https://www.surechembl.org/chemical/SCHEMBL16116956

> <PUBCHEM_CID_ASSOCIATIONS>
117606409  1

> <PUBCHEM_COORDINATE_TYPE>
1
3

$$$$
