310945945
  -OEChem-07211613022D

 27 28  0     1  0  0  0  0  0999 V2000
    3.2913    0.8421    0.0000 F   0  0  0  0  0  0  0  0  0  0  0  0
    3.8746    0.2587    0.0000 F   0  0  0  0  0  0  0  0  0  0  0  0
    3.6655   -0.5339    0.0000 F   0  0  0  0  0  0  0  0  0  0  0  0
    0.2752    0.6330    0.0000 O   0  0  0  0  0  0  0  0  0  0  0  0
    0.1211    2.8124    0.0000 O   0  0  0  0  0  0  0  0  0  0  0  0
    1.7172   -2.6913    0.0000 N   0  0  0  0  0  0  0  0  0  0  0  0
    1.2989   -3.4069    0.0000 N   0  0  0  0  0  0  0  0  0  0  0  0
   -1.0127   -2.4162    0.0000 N   0  0  3  0  0  0  0  0  0  0  0  0
   -3.1592   -1.9978    0.0000 N   0  0  0  0  0  0  0  0  0  0  0  0
    1.3429   -1.2384    0.0000 C   0  0  0  0  0  0  0  0  0  0  0  0
    1.1558   -2.0640    0.0000 C   0  0  0  0  0  0  0  0  0  0  0  0
    2.3006   -0.1816    0.0000 C   0  0  0  0  0  0  0  0  0  0  0  0
    0.4183   -2.3942    0.0000 C   0  0  0  0  0  0  0  0  0  0  0  0
    2.1134   -0.9962    0.0000 C   0  0  0  0  0  0  0  0  0  0  0  0
    3.0931    0.0605    0.0000 C   0  0  0  0  0  0  0  0  0  0  0  0
    0.9026    0.1046    0.0000 C   0  0  0  0  0  0  0  0  0  0  0  0
    0.7375   -0.7100    0.0000 C   0  0  0  0  0  0  0  0  0  0  0  0
    1.6842    0.3467    0.0000 C   0  0  0  0  0  0  0  0  0  0  0  0
    0.4953   -3.2087    0.0000 C   0  0  0  0  0  0  0  0  0  0  0  0
   -0.3082   -1.9869    0.0000 C   0  0  0  0  0  0  0  0  0  0  0  0
    0.4953    1.4585    0.0000 C   0  0  0  0  0  0  0  0  0  0  0  0
   -1.7392   -1.9869    0.0000 C   0  0  0  0  0  0  0  0  0  0  0  0
   -1.0017   -3.2417    0.0000 C   0  0  0  0  0  0  0  0  0  0  0  0
   -0.0881    2.0419    0.0000 C   0  0  0  0  0  0  0  0  0  0  0  0
   -2.4327   -2.3942    0.0000 C   0  0  0  0  0  0  0  0  0  0  0  0
   -0.4623    3.4069    0.0000 C   0  0  0  0  0  0  0  0  0  0  0  0
   -3.8746   -2.4051    0.0000 C   0  0  0  0  0  0  0  0  0  0  0  0
  1 15  1  0  0  0  0
  2 15  1  0  0  0  0
  3 15  1  0  0  0  0
  4 16  1  0  0  0  0
  4 21  1  0  0  0  0
  5 24  1  0  0  0  0
  5 26  1  0  0  0  0
  6  7  1  0  0  0  0
  6 11  2  0  0  0  0
  7 19  1  0  0  0  0
  8 20  1  0  0  0  0
  8 22  1  0  0  0  0
  8 23  1  0  0  0  0
  9 25  1  0  0  0  0
  9 27  1  0  0  0  0
 10 11  1  0  0  0  0
 10 14  1  0  0  0  0
 10 17  2  0  0  0  0
 11 13  1  0  0  0  0
 12 14  2  0  0  0  0
 12 15  1  0  0  0  0
 12 18  1  0  0  0  0
 13 19  2  0  0  0  0
 13 20  1  0  0  0  0
 16 17  1  0  0  0  0
 16 18  2  0  0  0  0
 21 24  1  0  0  0  0
 22 25  1  0  0  0  0
M  END
> <PUBCHEM_COMPOUND_ID_TYPE>
0

> <PUBCHEM_TOTAL_CHARGE>
0

> <PUBCHEM_SUBSTANCE_ID>
310945945

> <PUBCHEM_SUBSTANCE_VERSION>
1

> <PUBCHEM_EXT_DATASOURCE_NAME>
4488

> <PUBCHEM_EXT_DATASOURCE_REGID>
SCHEMBL16124050

> <PUBCHEM_SUBSTANCE_COMMENT>
InChI=1S/C18H25F3N4O2/c1-22-4-5-25(2)12-14-11-23-24-17(14)13-8-15(18(19,20)21)10-16(9-13)27-7-6-26-3/h8-11,22H,4-7,12H2,1-3H3,(H,23,24)
InChIKey=FHDAJOIYHSWWHR-UHFFFAOYSA-N

> <PUBCHEM_SUBSTANCE_SYNONYM>
SCHEMBL16124050

> <PUBCHEM_XREF_EXT_ID>
SCHEMBL16124050

> <PUBCHEM_EXT_DATASOURCE_URL>
https://www.surechembl.org/

> <PUBCHEM_EXT_SUBSTANCE_URL>
https://www.surechembl.org/chemical/SCHEMBL16124050

> <PUBCHEM_CID_ASSOCIATIONS>
86300777  1

> <PUBCHEM_COORDINATE_TYPE>
1
3

$$$$
