310935546
  -OEChem-07211613022D

 23 23  0     1  0  0  0  0  0999 V2000
    3.3512   -2.0977    0.0000 P   0  0  3  0  0  0  0  0  0  0  0  0
    2.5070   -2.0977    0.0000 O   0  0  0  0  0  0  0  0  0  0  0  0
    4.1698   -2.0977    0.0000 O   0  0  0  0  0  0  0  0  0  0  0  0
    4.7837   -1.2535    0.0000 O   0  0  0  0  0  0  0  0  0  0  0  0
    4.0675    0.0000    0.0000 O   0  0  0  0  0  0  0  0  0  0  0  0
    3.3512   -1.2535    0.0000 C   0  0  0  0  0  0  0  0  0  0  0  0
    3.3512   -2.9163    0.0000 C   0  0  0  0  0  0  0  0  0  0  0  0
    4.0675   -0.8442    0.0000 C   0  0  0  0  0  0  0  0  0  0  0  0
    2.6093   -0.8442    0.0000 C   0  0  0  0  0  0  0  0  0  0  0  0
    3.3512   -0.4349    0.0000 C   0  0  0  0  0  0  0  0  0  0  0  0
    4.0675   -3.3512    0.0000 C   0  0  0  0  0  0  0  0  0  0  0  0
    2.6093   -3.3512    0.0000 C   0  0  0  0  0  0  0  0  0  0  0  0
    2.0721   -1.3558    0.0000 C   0  0  0  0  0  0  0  0  0  0  0  0
    4.0675   -4.1698    0.0000 C   0  0  0  0  0  0  0  0  0  0  0  0
    2.6093   -4.1698    0.0000 C   0  0  0  0  0  0  0  0  0  0  0  0
    3.3512   -4.6047    0.0000 C   0  0  0  0  0  0  0  0  0  0  0  0
    5.5000   -0.8442    0.0000 C   0  0  0  0  0  0  0  0  0  0  0  0
    1.2535   -1.3558    0.0000 C   0  0  0  0  0  0  0  0  0  0  0  0
    6.2419   -1.2535    0.0000 C   0  0  0  0  0  0  0  0  0  0  0  0
    0.8442   -0.6396    0.0000 C   0  0  0  0  0  0  0  0  0  0  0  0
    6.9582   -0.8442    0.0000 C   0  0  0  0  0  0  0  0  0  0  0  0
    0.0000   -0.7163    0.0000 C   0  0  0  0  0  0  0  0  0  0  0  0
    7.6745   -1.2535    0.0000 C   0  0  0  0  0  0  0  0  0  0  0  0
  1  2  1  0  0  0  0
  1  3  2  0  0  0  0
  1  6  1  0  0  0  0
  1  7  1  0  0  0  0
  2 13  1  0  0  0  0
  4  8  1  0  0  0  0
  4 17  1  0  0  0  0
  5  8  2  0  0  0  0
  6  8  1  0  0  0  0
  6  9  1  0  0  0  0
  6 10  1  0  0  0  0
  7 11  2  0  0  0  0
  7 12  1  0  0  0  0
 11 14  1  0  0  0  0
 12 15  2  0  0  0  0
 13 18  1  0  0  0  0
 14 16  2  0  0  0  0
 15 16  1  0  0  0  0
 17 19  1  0  0  0  0
 18 20  1  0  0  0  0
 19 21  1  0  0  0  0
 20 22  1  0  0  0  0
 21 23  1  0  0  0  0
M  END
> <PUBCHEM_COMPOUND_ID_TYPE>
0

> <PUBCHEM_TOTAL_CHARGE>
0

> <PUBCHEM_SUBSTANCE_ID>
310935546

> <PUBCHEM_SUBSTANCE_VERSION>
1

> <PUBCHEM_EXT_DATASOURCE_NAME>
4488

> <PUBCHEM_EXT_DATASOURCE_REGID>
SCHEMBL16113117

> <PUBCHEM_SUBSTANCE_COMMENT>
InChI=1S/C18H29O4P/c1-5-7-14-21-17(19)18(3,4)23(20,22-15-8-6-2)16-12-10-9-11-13-16/h9-13H,5-8,14-15H2,1-4H3
InChIKey=VOVGLNWMNKVDKB-UHFFFAOYSA-N

> <PUBCHEM_SUBSTANCE_SYNONYM>
SCHEMBL16113117

> <PUBCHEM_XREF_EXT_ID>
SCHEMBL16113117

> <PUBCHEM_EXT_DATASOURCE_URL>
https://www.surechembl.org/

> <PUBCHEM_EXT_SUBSTANCE_URL>
https://www.surechembl.org/chemical/SCHEMBL16113117

> <PUBCHEM_CID_ASSOCIATIONS>
117603570  1

> <PUBCHEM_COORDINATE_TYPE>
1
3

$$$$
