310931254
  -OEChem-07211613022D

 29 31  0     1  0  0  0  0  0999 V2000
    0.7500   -2.1000    0.0000 F   0  0  0  0  0  0  0  0  0  0  0  0
    0.7125   -4.5750    0.0000 O   0  0  0  0  0  0  0  0  0  0  0  0
    3.6000   -4.5750    0.0000 O   0  0  0  0  0  0  0  0  0  0  0  0
    2.9250   -0.7875    0.0000 O   0  0  0  0  0  0  0  0  0  0  0  0
    2.8875   -7.4999    0.0000 O   0  0  0  0  0  0  0  0  0  0  0  0
    5.0625   -1.2750    0.0000 O   0  0  0  0  0  0  0  0  0  0  0  0
    5.7749   -2.5125    0.0000 O   0  0  0  0  0  0  0  0  0  0  0  0
    4.2750   -0.7875    0.0000 N   0  0  0  0  0  0  0  0  0  0  0  0
    2.1750   -4.5750    0.0000 C   0  0  0  0  0  0  0  0  0  0  0  0
    2.1750   -3.7500    0.0000 C   0  0  0  0  0  0  0  0  0  0  0  0
    2.8875   -2.5125    0.0000 C   0  0  0  0  0  0  0  0  0  0  0  0
    1.4625   -4.9874    0.0000 C   0  0  0  0  0  0  0  0  0  0  0  0
    2.8875   -4.9874    0.0000 C   0  0  0  0  0  0  0  0  0  0  0  0
    3.6000   -2.1000    0.0000 C   0  0  3  0  0  0  0  0  0  0  0  0
    2.8875   -3.3375    0.0000 C   0  0  0  0  0  0  0  0  0  0  0  0
    1.4625   -3.3375    0.0000 C   0  0  0  0  0  0  0  0  0  0  0  0
    1.4625   -2.5125    0.0000 C   0  0  0  0  0  0  0  0  0  0  0  0
    2.1750   -2.1000    0.0000 C   0  0  0  0  0  0  0  0  0  0  0  0
    3.6000   -1.2750    0.0000 C   0  0  0  0  0  0  0  0  0  0  0  0
    2.1750   -6.2624    0.0000 C   0  0  0  0  0  0  0  0  0  0  0  0
    1.4625   -5.8124    0.0000 C   0  0  0  0  0  0  0  0  0  0  0  0
    2.8875   -5.8124    0.0000 C   0  0  0  0  0  0  0  0  0  0  0  0
    4.3124   -2.5125    0.0000 C   0  0  0  0  0  0  0  0  0  0  0  0
    2.1750   -7.0874    0.0000 C   0  0  0  0  0  0  0  0  0  0  0  0
    5.0625   -2.1000    0.0000 C   0  0  0  0  0  0  0  0  0  0  0  0
    3.1875    0.0000    0.0000 C   0  0  0  0  0  0  0  0  0  0  0  0
    4.0125    0.0000    0.0000 C   0  0  0  0  0  0  0  0  0  0  0  0
    0.0000   -4.9874    0.0000 C   0  0  0  0  0  0  0  0  0  0  0  0
    3.6000   -3.7500    0.0000 C   0  0  0  0  0  0  0  0  0  0  0  0
  1 17  1  0  0  0  0
  2 12  1  0  0  0  0
  2 28  1  0  0  0  0
  3 13  1  0  0  0  0
  3 29  1  0  0  0  0
  4 19  1  0  0  0  0
  4 26  1  0  0  0  0
  5 24  1  0  0  0  0
  6 25  2  0  0  0  0
  7 25  1  0  0  0  0
  8 19  2  0  0  0  0
  8 27  1  0  0  0  0
  9 10  1  0  0  0  0
  9 12  2  0  0  0  0
  9 13  1  0  0  0  0
 10 15  2  0  0  0  0
 10 16  1  0  0  0  0
 11 14  1  0  0  0  0
 11 15  1  0  0  0  0
 11 18  2  0  0  0  0
 12 21  1  0  0  0  0
 13 22  2  0  0  0  0
 14 19  1  0  0  0  0
 14 23  1  0  0  0  0
 16 17  2  0  0  0  0
 17 18  1  0  0  0  0
 20 21  2  0  0  0  0
 20 22  1  0  0  0  0
 20 24  1  0  0  0  0
 23 25  1  0  0  0  0
 26 27  2  0  0  0  0
M  END
> <PUBCHEM_COMPOUND_ID_TYPE>
0

> <PUBCHEM_TOTAL_CHARGE>
0

> <PUBCHEM_SUBSTANCE_ID>
310931254

> <PUBCHEM_SUBSTANCE_VERSION>
1

> <PUBCHEM_EXT_DATASOURCE_NAME>
4488

> <PUBCHEM_EXT_DATASOURCE_REGID>
SCHEMBL16108568

> <PUBCHEM_SUBSTANCE_COMMENT>
InChI=1S/C21H20FNO6/c1-27-17-5-12(11-24)6-18(28-2)20(17)14-7-13(8-15(22)9-14)16(10-19(25)26)21-23-3-4-29-21/h3-9,16,24H,10-11H2,1-2H3,(H,25,26)
InChIKey=HZWWMBPSBWSSBN-UHFFFAOYSA-N

> <PUBCHEM_SUBSTANCE_SYNONYM>
SCHEMBL16108568

> <PUBCHEM_XREF_EXT_ID>
SCHEMBL16108568

> <PUBCHEM_EXT_DATASOURCE_URL>
https://www.surechembl.org/

> <PUBCHEM_EXT_SUBSTANCE_URL>
https://www.surechembl.org/chemical/SCHEMBL16108568

> <PUBCHEM_CID_ASSOCIATIONS>
86281813  1

> <PUBCHEM_COORDINATE_TYPE>
1
3

$$$$
