310944045
  -OEChem-07211613022D

 15 17  0     1  0  0  0  0  0999 V2000
    2.4557    0.7079    0.0000 O   0  0  0  0  0  0  0  0  0  0  0  0
   -1.1394   -0.5199    0.0000 N   0  0  0  0  0  0  0  0  0  0  0  0
    1.0177   -0.1107    0.0000 N   0  0  0  0  0  0  0  0  0  0  0  0
   -1.9027   -0.1881    0.0000 N   0  0  0  0  0  0  0  0  0  0  0  0
   -2.4557   -0.7965    0.0000 N   0  0  0  0  0  0  0  0  0  0  0  0
   -2.0353   -1.5155    0.0000 N   0  0  0  0  0  0  0  0  0  0  0  0
   -0.4314   -0.1107    0.0000 C   0  0  0  0  0  0  0  0  0  0  0  0
    1.0177    0.7079    0.0000 C   0  0  0  0  0  0  0  0  0  0  0  0
    1.7478    1.1172    0.0000 C   0  0  3  0  0  0  0  0  0  0  0  0
   -0.4204    0.7079    0.0000 C   0  0  0  0  0  0  0  0  0  0  0  0
    0.2876    1.1172    0.0000 C   0  0  0  0  0  0  0  0  0  0  0  0
    0.3097   -0.5199    0.0000 C   0  0  0  0  0  0  0  0  0  0  0  0
    2.4336    1.5155    0.0000 C   0  0  0  0  0  0  0  0  0  0  0  0
   -1.2279   -1.3385    0.0000 C   0  0  0  0  0  0  0  0  0  0  0  0
   -1.1504    1.1062    0.0000 C   0  0  0  0  0  0  0  0  0  0  0  0
  9  1  1  1  0  0  0
  1 13  1  0  0  0  0
  2  4  1  0  0  0  0
  2  7  1  0  0  0  0
  2 14  1  0  0  0  0
  3  8  1  0  0  0  0
  3 12  2  0  0  0  0
  4  5  2  0  0  0  0
  5  6  1  0  0  0  0
  6 14  2  0  0  0  0
  7 10  2  0  0  0  0
  7 12  1  0  0  0  0
  8  9  1  0  0  0  0
  8 11  2  0  0  0  0
  9 13  1  0  0  0  0
 10 11  1  0  0  0  0
 10 15  1  0  0  0  0
M  END
> <PUBCHEM_COMPOUND_ID_TYPE>
0

> <PUBCHEM_TOTAL_CHARGE>
0

> <PUBCHEM_SUBSTANCE_ID>
310944045

> <PUBCHEM_SUBSTANCE_VERSION>
1

> <PUBCHEM_EXT_DATASOURCE_NAME>
4488

> <PUBCHEM_EXT_DATASOURCE_REGID>
SCHEMBL16122118

> <PUBCHEM_SUBSTANCE_COMMENT>
InChI=1S/C9H9N5O/c1-6-2-7(9-4-15-9)10-3-8(6)14-5-11-12-13-14/h2-3,5,9H,4H2,1H3/t9-/m1/s1
InChIKey=UOIMWTUAVMBRLE-SECBINFHSA-N

> <PUBCHEM_SUBSTANCE_SYNONYM>
SCHEMBL16122118

> <PUBCHEM_XREF_EXT_ID>
SCHEMBL16122118

> <PUBCHEM_EXT_DATASOURCE_URL>
https://www.surechembl.org/

> <PUBCHEM_EXT_SUBSTANCE_URL>
https://www.surechembl.org/chemical/SCHEMBL16122118

> <PUBCHEM_CID_ASSOCIATIONS>
117610341  1

> <PUBCHEM_COORDINATE_TYPE>
1
3

> <PUBCHEM_BONDANNOTATIONS>
9  1  5

$$$$
