310943993
  -OEChem-07211613022D

 38 43  0     1  0  0  0  0  0999 V2000
    1.5044    2.5218    0.0000 F   0  0  0  0  0  0  0  0  0  0  0  0
    1.4870   -1.5826    0.0000 N   0  0  0  0  0  0  0  0  0  0  0  0
    3.6958    2.0696    0.0000 N   0  0  0  0  0  0  0  0  0  0  0  0
   -0.0609    0.2435    0.0000 C   0  0  3  0  0  0  0  0  0  0  0  0
    0.7218    0.5044    0.0000 C   0  0  0  0  0  0  0  0  0  0  0  0
   -0.8609    0.0174    0.0000 C   0  0  0  0  0  0  0  0  0  0  0  0
    0.1479   -0.5565    0.0000 C   0  0  0  0  0  0  0  0  0  0  0  0
   -0.5653    0.9043    0.0000 C   0  0  0  0  0  0  0  0  0  0  0  0
    0.7392    1.3044    0.0000 C   0  0  0  0  0  0  0  0  0  0  0  0
   -0.0783    1.5479    0.0000 C   0  0  0  0  0  0  0  0  0  0  0  0
   -1.1913   -0.7131    0.0000 C   0  0  0  0  0  0  0  0  0  0  0  0
   -0.4435   -1.1305    0.0000 C   0  0  0  0  0  0  0  0  0  0  0  0
    1.5044    0.0870    0.0000 C   0  0  0  0  0  0  0  0  0  0  0  0
    1.5044    1.7044    0.0000 C   0  0  0  0  0  0  0  0  0  0  0  0
   -1.4696    0.5739    0.0000 C   0  0  0  0  0  0  0  0  0  0  0  0
    0.9652   -0.7652    0.0000 C   0  0  0  0  0  0  0  0  0  0  0  0
   -1.3826    0.9913    0.0000 C   0  0  0  0  0  0  0  0  0  0  0  0
   -1.9218   -0.9739    0.0000 C   0  0  0  0  0  0  0  0  0  0  0  0
   -0.2174   -1.8957    0.0000 C   0  0  0  0  0  0  0  0  0  0  0  0
    2.2348    1.3217    0.0000 C   0  0  0  0  0  0  0  0  0  0  0  0
   -0.4087    2.2783    0.0000 C   0  0  0  0  0  0  0  0  0  0  0  0
    2.2348    0.5044    0.0000 C   0  0  0  0  0  0  0  0  0  0  0  0
   -2.2870    0.3826    0.0000 C   0  0  0  0  0  0  0  0  0  0  0  0
    1.1740   -1.5305    0.0000 C   0  0  0  0  0  0  0  0  0  0  0  0
   -2.4957   -0.4174    0.0000 C   0  0  0  0  0  0  0  0  0  0  0  0
    0.5827   -2.1044    0.0000 C   0  0  0  0  0  0  0  0  0  0  0  0
    1.4870   -0.7652    0.0000 C   0  0  0  0  0  0  0  0  0  0  0  0
   -1.7305    1.7044    0.0000 C   0  0  0  0  0  0  0  0  0  0  0  0
   -1.2435    2.3653    0.0000 C   0  0  0  0  0  0  0  0  0  0  0  0
   -2.8957    0.9739    0.0000 C   0  0  0  0  0  0  0  0  0  0  0  0
    2.0261   -1.7566    0.0000 C   0  0  0  0  0  0  0  0  0  0  0  0
    2.9653    1.7218    0.0000 C   0  0  0  0  0  0  0  0  0  0  0  0
   -3.6958    0.7304    0.0000 C   0  0  0  0  0  0  0  0  0  0  0  0
   -2.6522    1.7391    0.0000 C   0  0  0  0  0  0  0  0  0  0  0  0
   -2.1653    1.3740    0.0000 C   0  0  0  0  0  0  0  0  0  0  0  0
    1.5914   -2.4348    0.0000 C   0  0  0  0  0  0  0  0  0  0  0  0
    2.2348   -2.5218    0.0000 C   0  0  0  0  0  0  0  0  0  0  0  0
    2.6522   -1.1652    0.0000 C   0  0  0  0  0  0  0  0  0  0  0  0
  1 14  1  0  0  0  0
  2 27  3  0  0  0  0
  3 32  3  0  0  0  0
  4  5  1  0  0  0  0
  4  6  1  0  0  0  0
  4  7  1  0  0  0  0
  4  8  1  0  0  0  0
  5  9  2  0  0  0  0
  5 13  1  0  0  0  0
  6 11  1  0  0  0  0
  6 15  2  0  0  0  0
  7 12  2  0  0  0  0
  7 16  1  0  0  0  0
  8 10  2  0  0  0  0
  8 17  1  0  0  0  0
  9 10  1  0  0  0  0
  9 14  1  0  0  0  0
 10 21  1  0  0  0  0
 11 12  1  0  0  0  0
 11 18  2  0  0  0  0
 12 19  1  0  0  0  0
 13 22  2  0  0  0  0
 13 27  1  0  0  0  0
 14 20  2  0  0  0  0
 15 23  1  0  0  0  0
 16 24  2  0  0  0  0
 17 28  2  0  0  0  0
 18 25  1  0  0  0  0
 19 26  2  0  0  0  0
 20 22  1  0  0  0  0
 20 32  1  0  0  0  0
 21 29  2  0  0  0  0
 23 25  2  0  0  0  0
 23 30  1  0  0  0  0
 24 26  1  0  0  0  0
 24 31  1  0  0  0  0
 28 29  1  0  0  0  0
 30 33  1  0  0  0  0
 30 34  1  0  0  0  0
 30 35  1  0  0  0  0
 31 36  1  0  0  0  0
 31 37  1  0  0  0  0
 31 38  1  0  0  0  0
M  END
> <PUBCHEM_COMPOUND_ID_TYPE>
0

> <PUBCHEM_TOTAL_CHARGE>
0

> <PUBCHEM_SUBSTANCE_ID>
310943993

> <PUBCHEM_SUBSTANCE_VERSION>
1

> <PUBCHEM_EXT_DATASOURCE_NAME>
4488

> <PUBCHEM_EXT_DATASOURCE_REGID>
SCHEMBL16122064

> <PUBCHEM_SUBSTANCE_COMMENT>
InChI=1S/C35H29FN2/c1-33(2,3)22-11-13-24-25-14-12-23(34(4,5)6)17-29(25)35(28(24)16-22)27-10-8-7-9-26(27)30-31(35)20(18-37)15-21(19-38)32(30)36/h7-17H,1-6H3
InChIKey=HZQAZEMLQVZBDH-UHFFFAOYSA-N

> <PUBCHEM_SUBSTANCE_SYNONYM>
SCHEMBL16122064

> <PUBCHEM_XREF_EXT_ID>
SCHEMBL16122064

> <PUBCHEM_EXT_DATASOURCE_URL>
https://www.surechembl.org/

> <PUBCHEM_EXT_SUBSTANCE_URL>
https://www.surechembl.org/chemical/SCHEMBL16122064

> <PUBCHEM_CID_ASSOCIATIONS>
117610299  1

> <PUBCHEM_COORDINATE_TYPE>
1
3

$$$$
