310946649
  -OEChem-07211613022D

 30 29  0     1  0  0  0  0  0999 V2000
   -7.2949    2.0081    0.0000 S   0  0  0  0  0  0  0  0  0  0  0  0
   -6.5805    0.7706    0.0000 O   0  0  0  0  0  0  0  0  0  0  0  0
   -7.2949   -0.4669    0.0000 O   0  0  0  0  0  0  0  0  0  0  0  0
   -9.4384    1.5956    0.0000 O   0  0  0  0  0  0  0  0  0  0  0  0
   -8.0094    3.2456    0.0000 O   0  0  0  0  0  0  0  0  0  0  0  0
  -10.8673   -1.7044    0.0000 O   0  0  0  0  0  0  0  0  0  0  0  0
   -4.4371    2.8331    0.0000 O   0  0  0  0  0  0  0  0  0  0  0  0
  -10.1528   -2.9419    0.0000 O   0  5  0  0  0  0  0  0  0  0  0  0
   -9.4384   -1.7044    0.0000 O   0  0  0  0  0  0  0  0  0  0  0  0
   -3.0081    2.8331    0.0000 O   0  5  0  0  0  0  0  0  0  0  0  0
   -3.7226    4.0706    0.0000 O   0  0  0  0  0  0  0  0  0  0  0  0
   -8.7239    0.3581    0.0000 N   0  0  0  0  0  0  0  0  0  0  0  0
  -10.1528   -2.1169    0.0000 N   0  3  0  0  0  0  0  0  0  0  0  0
   -3.7226    3.2456    0.0000 N   0  3  0  0  0  0  0  0  0  0  0  0
   -8.0094    0.7706    0.0000 C   0  0  3  0  0  0  0  0  0  0  0  0
   -7.2949    0.3581    0.0000 C   0  0  0  0  0  0  0  0  0  0  0  0
   -8.0094    1.5956    0.0000 C   0  0  0  0  0  0  0  0  0  0  0  0
   -9.4384    0.7706    0.0000 C   0  0  0  0  0  0  0  0  0  0  0  0
   -7.2949    2.8331    0.0000 C   0  0  0  0  0  0  0  0  0  0  0  0
  -10.1528    0.3581    0.0000 C   0  0  0  0  0  0  0  0  0  0  0  0
   -5.8660    0.3581    0.0000 C   0  0  0  0  0  0  0  0  0  0  0  0
   -6.5805    3.2456    0.0000 C   0  0  0  0  0  0  0  0  0  0  0  0
  -10.1528   -0.4669    0.0000 C   0  0  0  0  0  0  0  0  0  0  0  0
   -5.8660    2.8331    0.0000 C   0  0  0  0  0  0  0  0  0  0  0  0
   -5.1515    0.7706    0.0000 C   0  0  0  0  0  0  0  0  0  0  0  0
  -10.8673   -0.8794    0.0000 C   0  0  0  0  0  0  0  0  0  0  0  0
   -5.1515    3.2456    0.0000 C   0  0  0  0  0  0  0  0  0  0  0  0
   -4.4371    0.3581    0.0000 C   0  0  0  0  0  0  0  0  0  0  0  0
   -3.7226    0.7706    0.0000 C   0  0  0  0  0  0  0  0  0  0  0  0
   -3.0081    0.3581    0.0000 C   0  0  0  0  0  0  0  0  0  0  0  0
  1 17  1  0  0  0  0
  1 19  1  0  0  0  0
  2 16  1  0  0  0  0
  2 21  1  0  0  0  0
  3 16  2  0  0  0  0
  4 18  2  0  0  0  0
  5 19  2  0  0  0  0
  6 13  1  0  0  0  0
  6 26  1  0  0  0  0
  7 14  1  0  0  0  0
  7 27  1  0  0  0  0
  8 13  1  0  0  0  0
  9 13  2  0  0  0  0
 10 14  1  0  0  0  0
 11 14  2  0  0  0  0
 12 15  1  0  0  0  0
 12 18  1  0  0  0  0
 15 16  1  0  0  0  0
 15 17  1  0  0  0  0
 18 20  1  0  0  0  0
 19 22  1  0  0  0  0
 20 23  1  0  0  0  0
 21 25  1  0  0  0  0
 22 24  1  0  0  0  0
 23 26  1  0  0  0  0
 24 27  1  0  0  0  0
 25 28  1  0  0  0  0
 28 29  1  0  0  0  0
 29 30  1  0  0  0  0
M  CHG  4   8  -1  10  -1  13   1  14   1
M  END
> <PUBCHEM_COMPOUND_ID_TYPE>
0

> <PUBCHEM_TOTAL_CHARGE>
0

> <PUBCHEM_SUBSTANCE_ID>
310946649

> <PUBCHEM_SUBSTANCE_VERSION>
1

> <PUBCHEM_EXT_DATASOURCE_NAME>
4488

> <PUBCHEM_EXT_DATASOURCE_REGID>
SCHEMBL16124770

> <PUBCHEM_SUBSTANCE_COMMENT>
InChI=1S/C16H27N3O10S/c1-2-3-4-9-27-16(22)13(17-14(20)7-5-10-28-18(23)24)12-30-15(21)8-6-11-29-19(25)26/h13H,2-12H2,1H3,(H,17,20)
InChIKey=FPJSCVPWFUWTKC-UHFFFAOYSA-N

> <PUBCHEM_SUBSTANCE_SYNONYM>
SCHEMBL16124770

> <PUBCHEM_XREF_EXT_ID>
SCHEMBL16124770

> <PUBCHEM_EXT_DATASOURCE_URL>
https://www.surechembl.org/

> <PUBCHEM_EXT_SUBSTANCE_URL>
https://www.surechembl.org/chemical/SCHEMBL16124770

> <PUBCHEM_CID_ASSOCIATIONS>
117612549  1

> <PUBCHEM_COORDINATE_TYPE>
1
3

$$$$
