310945405
  -OEChem-07211613022D

 24 26  0     1  0  0  0  0  0999 V2000
    2.6681    0.0363    0.0000 F   0  0  0  0  0  0  0  0  0  0  0  0
    2.1896   -0.9788    0.0000 F   0  0  0  0  0  0  0  0  0  0  0  0
    1.1601   -0.4858    0.0000 F   0  0  0  0  0  0  0  0  0  0  0  0
   -2.6681    1.0948    0.0000 O   0  0  0  0  0  0  0  0  0  0  0  0
    0.1305    0.3407    0.0000 N   0  0  0  0  0  0  0  0  0  0  0  0
    2.1606    1.2543    0.0000 N   0  0  0  0  0  0  0  0  0  0  0  0
   -0.5511   -1.7474    0.0000 N   0  0  0  0  0  0  0  0  0  0  0  0
    0.7831    0.8483    0.0000 C   0  0  0  0  0  0  0  0  0  0  0  0
    0.5511    1.5879    0.0000 C   0  0  0  0  0  0  0  0  0  0  0  0
   -0.5511    0.8338    0.0000 C   0  0  0  0  0  0  0  0  0  0  0  0
   -0.2755    1.6313    0.0000 C   0  0  0  0  0  0  0  0  0  0  0  0
    1.5951    0.6453    0.0000 C   0  0  0  0  0  0  0  0  0  0  0  0
    1.8996   -0.2247    0.0000 C   0  0  0  0  0  0  0  0  0  0  0  0
    0.1305   -0.4712    0.0000 C   0  0  3  0  0  0  0  0  0  0  0  0
    1.1021    2.1969    0.0000 C   0  0  0  0  0  0  0  0  0  0  0  0
   -1.3341    0.6743    0.0000 C   0  0  0  0  0  0  0  0  0  0  0  0
   -0.7976    2.1969    0.0000 C   0  0  0  0  0  0  0  0  0  0  0  0
    1.9141    2.0228    0.0000 C   0  0  0  0  0  0  0  0  0  0  0  0
   -1.8562    1.2688    0.0000 C   0  0  0  0  0  0  0  0  0  0  0  0
   -1.5951    2.0519    0.0000 C   0  0  0  0  0  0  0  0  0  0  0  0
   -0.5511   -0.9353    0.0000 C   0  0  0  0  0  0  0  0  0  0  0  0
    0.8700   -0.8773    0.0000 C   0  0  0  0  0  0  0  0  0  0  0  0
    0.1740   -2.1969    0.0000 C   0  0  0  0  0  0  0  0  0  0  0  0
   -1.2761   -2.1824    0.0000 C   0  0  0  0  0  0  0  0  0  0  0  0
  1 13  1  0  0  0  0
  2 13  1  0  0  0  0
  3 13  1  0  0  0  0
  4 19  1  0  0  0  0
  5  8  1  0  0  0  0
  5 10  1  0  0  0  0
  5 14  1  0  0  0  0
  6 12  2  0  0  0  0
  6 18  1  0  0  0  0
  7 21  1  0  0  0  0
  7 23  1  0  0  0  0
  7 24  1  0  0  0  0
  8  9  2  0  0  0  0
  8 12  1  0  0  0  0
  9 11  1  0  0  0  0
  9 15  1  0  0  0  0
 10 11  2  0  0  0  0
 10 16  1  0  0  0  0
 11 17  1  0  0  0  0
 12 13  1  0  0  0  0
 14 21  1  0  0  0  0
 14 22  1  0  0  0  0
 15 18  2  0  0  0  0
 16 19  2  0  0  0  0
 17 20  2  0  0  0  0
 19 20  1  0  0  0  0
M  END
> <PUBCHEM_COMPOUND_ID_TYPE>
0

> <PUBCHEM_TOTAL_CHARGE>
0

> <PUBCHEM_SUBSTANCE_ID>
310945405

> <PUBCHEM_SUBSTANCE_VERSION>
1

> <PUBCHEM_EXT_DATASOURCE_NAME>
4488

> <PUBCHEM_EXT_DATASOURCE_REGID>
SCHEMBL16123503

> <PUBCHEM_SUBSTANCE_COMMENT>
InChI=1S/C17H18F3N3O/c1-10(9-22(2)3)23-14-8-11(24)4-5-12(14)13-6-7-21-16(15(13)23)17(18,19)20/h4-8,10,24H,9H2,1-3H3
InChIKey=GLIMURGIZMAFJP-UHFFFAOYSA-N

> <PUBCHEM_SUBSTANCE_SYNONYM>
SCHEMBL16123503

> <PUBCHEM_XREF_EXT_ID>
SCHEMBL16123503

> <PUBCHEM_EXT_DATASOURCE_URL>
https://www.surechembl.org/

> <PUBCHEM_EXT_SUBSTANCE_URL>
https://www.surechembl.org/chemical/SCHEMBL16123503

> <PUBCHEM_CID_ASSOCIATIONS>
117611451  1

> <PUBCHEM_COORDINATE_TYPE>
1
3

$$$$
