310937749
  -OEChem-07211613022D

 34 38  0     1  0  0  0  0  0999 V2000
    4.1602    0.2456    0.0000 F   0  0  0  0  0  0  0  0  0  0  0  0
    3.3098    1.0444    0.0000 F   0  0  0  0  0  0  0  0  0  0  0  0
    3.3613   -0.6048    0.0000 F   0  0  0  0  0  0  0  0  0  0  0  0
    0.8618    0.1425    0.0000 O   0  0  0  0  0  0  0  0  0  0  0  0
    0.4095   -3.9891    0.0000 O   0  0  0  0  0  0  0  0  0  0  0  0
    3.8594   -3.3379    0.0000 O   0  0  0  0  0  0  0  0  0  0  0  0
    5.1186   -4.0134    0.0000 O   0  0  0  0  0  0  0  0  0  0  0  0
    2.1210   -0.5330    0.0000 N   0  0  0  0  0  0  0  0  0  0  0  0
    0.8084   -2.6170    0.0000 N   0  0  0  0  0  0  0  0  0  0  0  0
    2.6002   -2.6624    0.0000 N   0  0  0  0  0  0  0  0  0  0  0  0
    0.0446   -2.3051    0.0000 N   0  0  0  0  0  0  0  0  0  0  0  0
    5.8986   -2.5594    0.0000 N   0  0  0  0  0  0  0  0  0  0  0  0
    1.3410   -1.9870    0.0000 C   0  0  0  0  0  0  0  0  0  0  0  0
    2.1656   -1.9612    0.0000 C   0  0  0  0  0  0  0  0  0  0  0  0
    0.9064   -1.2857    0.0000 C   0  0  0  0  0  0  0  0  0  0  0  0
    2.5556   -1.2342    0.0000 C   0  0  0  0  0  0  0  0  0  0  0  0
    1.2964   -0.5587    0.0000 C   0  0  0  0  0  0  0  0  0  0  0  0
    0.1052   -1.4824    0.0000 C   0  0  0  0  0  0  0  0  0  0  0  0
    3.3802   -1.2084    0.0000 C   0  0  0  0  0  0  0  0  0  0  0  0
    3.8148   -1.9097    0.0000 C   0  0  0  0  0  0  0  0  0  0  0  0
    1.0050   -3.4182    0.0000 C   0  0  3  0  0  0  0  0  0  0  0  0
    2.5110    0.1940    0.0000 C   0  0  0  0  0  0  0  0  0  0  0  0
    3.4248   -2.6367    0.0000 C   0  0  0  0  0  0  0  0  0  0  0  0
    4.6394   -1.8839    0.0000 C   0  0  0  0  0  0  0  0  0  0  0  0
    3.3356    0.2198    0.0000 C   0  0  0  0  0  0  0  0  0  0  0  0
    5.0740   -2.5852    0.0000 C   0  0  0  0  0  0  0  0  0  0  0  0
    1.7972   -3.6485    0.0000 C   0  0  0  0  0  0  0  0  0  0  0  0
    5.0294   -1.1569    0.0000 C   0  0  0  0  0  0  0  0  0  0  0  0
    4.6840   -3.3122    0.0000 C   0  0  0  0  0  0  0  0  0  0  0  0
    0.6061   -4.7904    0.0000 C   0  0  0  0  0  0  0  0  0  0  0  0
    1.9939   -4.4498    0.0000 C   0  0  0  0  0  0  0  0  0  0  0  0
    5.8540   -1.1311    0.0000 C   0  0  0  0  0  0  0  0  0  0  0  0
    1.3983   -5.0207    0.0000 C   0  0  0  0  0  0  0  0  0  0  0  0
    6.2886   -1.8324    0.0000 C   0  0  0  0  0  0  0  0  0  0  0  0
  1 25  1  0  0  0  0
  2 25  1  0  0  0  0
  3 25  1  0  0  0  0
  4 17  2  0  0  0  0
  5 21  1  0  0  0  0
  5 30  1  0  0  0  0
  6 29  2  0  0  0  0
  7 29  1  0  0  0  0
  8 16  1  0  0  0  0
  8 17  1  0  0  0  0
  8 22  1  0  0  0  0
  9 11  1  0  0  0  0
  9 13  1  0  0  0  0
  9 21  1  0  0  0  0
 10 14  1  0  0  0  0
 10 23  2  0  0  0  0
 11 18  2  0  0  0  0
 12 26  2  0  0  0  0
 12 34  1  0  0  0  0
 13 14  1  0  0  0  0
 13 15  2  0  0  0  0
 14 16  2  0  0  0  0
 15 17  1  0  0  0  0
 15 18  1  0  0  0  0
 16 19  1  0  0  0  0
 19 20  2  0  0  0  0
 20 23  1  0  0  0  0
 20 24  1  0  0  0  0
 21 27  1  0  0  0  0
 22 25  1  0  0  0  0
 24 26  1  0  0  0  0
 24 28  2  0  0  0  0
 26 29  1  0  0  0  0
 27 31  1  0  0  0  0
 28 32  1  0  0  0  0
 30 33  1  0  0  0  0
 31 33  1  0  0  0  0
 32 34  2  0  0  0  0
M  END
> <PUBCHEM_COMPOUND_ID_TYPE>
0

> <PUBCHEM_TOTAL_CHARGE>
0

> <PUBCHEM_SUBSTANCE_ID>
310937749

> <PUBCHEM_SUBSTANCE_VERSION>
1

> <PUBCHEM_EXT_DATASOURCE_NAME>
4488

> <PUBCHEM_EXT_DATASOURCE_REGID>
SCHEMBL16115553

> <PUBCHEM_SUBSTANCE_COMMENT>
InChI=1S/C22H18F3N5O4/c23-22(24,25)11-29-15-8-12(13-4-3-6-26-17(13)21(32)33)9-27-18(15)19-14(20(29)31)10-28-30(19)16-5-1-2-7-34-16/h3-4,6,8-10,16H,1-2,5,7,11H2,(H,32,33)
InChIKey=HMLMAWNXUDZOAL-UHFFFAOYSA-N

> <PUBCHEM_SUBSTANCE_SYNONYM>
SCHEMBL16115553

> <PUBCHEM_XREF_EXT_ID>
SCHEMBL16115553

> <PUBCHEM_EXT_DATASOURCE_URL>
https://www.surechembl.org/

> <PUBCHEM_EXT_SUBSTANCE_URL>
https://www.surechembl.org/chemical/SCHEMBL16115553

> <PUBCHEM_CID_ASSOCIATIONS>
117605411  1

> <PUBCHEM_COORDINATE_TYPE>
1
3

$$$$
