310941941
  -OEChem-07211613022D

 49 53  0     1  0  0  0  0  0999 V2000
   -7.7174   -1.8907    0.0000 Cl  0  0  0  0  0  0  0  0  0  0  0  0
    5.7752   -2.3720    0.0000 O   0  0  0  0  0  0  0  0  0  0  0  0
    3.7985   -0.1547    0.0000 O   0  0  0  0  0  0  0  0  0  0  0  0
    1.9766   -2.2344    0.0000 O   0  0  0  0  0  0  0  0  0  0  0  0
    5.3970    2.4407    0.0000 O   0  0  0  0  0  0  0  0  0  0  0  0
    1.2891    1.1859    0.0000 O   0  0  0  0  0  0  0  0  0  0  0  0
    2.7672    1.9938    0.0000 O   0  0  0  0  0  0  0  0  0  0  0  0
    5.0704   -1.1516    0.0000 N   0  0  0  0  0  0  0  0  0  0  0  0
    6.3596    0.9626    0.0000 N   0  0  0  0  0  0  0  0  0  0  0  0
    2.8876   -1.1859    0.0000 N   0  0  0  0  0  0  0  0  0  0  0  0
    4.4345    0.9626    0.0000 N   0  0  0  0  0  0  0  0  0  0  0  0
   -4.4860   -1.8907    0.0000 N   0  0  0  0  0  0  0  0  0  0  0  0
   -4.4860    0.5328    0.0000 N   0  0  0  0  0  0  0  0  0  0  0  0
   -0.7734    0.9453    0.0000 N   0  0  3  0  0  0  0  0  0  0  0  0
    6.1189   -0.3609    0.0000 C   0  0  0  0  0  0  0  0  0  0  0  0
    6.3939   -1.0828    0.0000 C   0  0  0  0  0  0  0  0  0  0  0  0
    5.7407   -1.5641    0.0000 C   0  0  0  0  0  0  0  0  0  0  0  0
    5.2939   -0.3953    0.0000 C   0  0  0  0  0  0  0  0  0  0  0  0
    4.2970   -1.4094    0.0000 C   0  0  3  0  0  0  0  0  0  0  0  0
    6.6345    0.2578    0.0000 C   0  0  0  0  0  0  0  0  0  0  0  0
    7.2018   -1.2204    0.0000 C   0  0  0  0  0  0  0  0  0  0  0  0
    3.6267   -0.9281    0.0000 C   0  0  0  0  0  0  0  0  0  0  0  0
    7.4424    0.1031    0.0000 C   0  0  0  0  0  0  0  0  0  0  0  0
    4.1423   -2.1828    0.0000 C   0  0  0  0  0  0  0  0  0  0  0  0
    7.7174   -0.6360    0.0000 C   0  0  0  0  0  0  0  0  0  0  0  0
    2.7329   -1.9422    0.0000 C   0  0  0  0  0  0  0  0  0  0  0  0
    3.3689   -2.4407    0.0000 C   0  0  0  0  0  0  0  0  0  0  0  0
    5.3798    1.5297    0.0000 C   0  0  0  0  0  0  0  0  0  0  0  0
   -5.2251   -0.6703    0.0000 C   0  0  0  0  0  0  0  0  0  0  0  0
   -5.2423   -1.4782    0.0000 C   0  0  0  0  0  0  0  0  0  0  0  0
   -4.4860   -0.2578    0.0000 C   0  0  0  0  0  0  0  0  0  0  0  0
   -5.9642   -0.2750    0.0000 C   0  0  0  0  0  0  0  0  0  0  0  0
   -5.9642   -1.8735    0.0000 C   0  0  0  0  0  0  0  0  0  0  0  0
   -6.7205   -1.4782    0.0000 C   0  0  0  0  0  0  0  0  0  0  0  0
   -3.7469   -0.6703    0.0000 C   0  0  0  0  0  0  0  0  0  0  0  0
   -6.7033   -0.6703    0.0000 C   0  0  0  0  0  0  0  0  0  0  0  0
   -3.7469   -1.4953    0.0000 C   0  0  0  0  0  0  0  0  0  0  0  0
   -3.7469    0.9626    0.0000 C   0  0  3  0  0  0  0  0  0  0  0  0
    3.7469    0.3953    0.0000 C   0  0  0  0  0  0  0  0  0  0  0  0
   -2.9735    0.5501    0.0000 C   0  0  0  0  0  0  0  0  0  0  0  0
    2.7672    0.3953    0.0000 C   0  0  0  0  0  0  0  0  0  0  0  0
   -3.7469    1.7876    0.0000 C   0  0  0  0  0  0  0  0  0  0  0  0
    2.2516    1.1859    0.0000 C   0  0  0  0  0  0  0  0  0  0  0  0
   -2.2688    0.9453    0.0000 C   0  0  0  0  0  0  0  0  0  0  0  0
   -1.4953    0.5501    0.0000 C   0  0  0  0  0  0  0  0  0  0  0  0
   -0.1719    0.3782    0.0000 C   0  0  0  0  0  0  0  0  0  0  0  0
    0.8079    0.3953    0.0000 C   0  0  0  0  0  0  0  0  0  0  0  0
   -0.7563    1.7703    0.0000 C   0  0  0  0  0  0  0  0  0  0  0  0
    0.0000    2.1828    0.0000 C   0  0  0  0  0  0  0  0  0  0  0  0
  1 34  1  0  0  0  0
  2 17  2  0  0  0  0
  3 22  2  0  0  0  0
  4 26  2  0  0  0  0
  5 28  2  0  0  0  0
  6 43  1  0  0  0  0
  6 47  1  0  0  0  0
  7 43  2  0  0  0  0
  8 17  1  0  0  0  0
  8 18  1  0  0  0  0
  8 19  1  0  0  0  0
  9 20  1  0  0  0  0
  9 28  1  0  0  0  0
 10 22  1  0  0  0  0
 10 26  1  0  0  0  0
 11 28  1  0  0  0  0
 11 39  1  0  0  0  0
 12 30  1  0  0  0  0
 12 37  2  0  0  0  0
 13 31  1  0  0  0  0
 13 38  1  0  0  0  0
 14 45  1  0  0  0  0
 14 46  1  0  0  0  0
 14 48  1  0  0  0  0
 15 16  2  0  0  0  0
 15 18  1  0  0  0  0
 15 20  1  0  0  0  0
 16 17  1  0  0  0  0
 16 21  1  0  0  0  0
 19 22  1  0  0  0  0
 19 24  1  0  0  0  0
 20 23  2  0  0  0  0
 21 25  2  0  0  0  0
 23 25  1  0  0  0  0
 24 27  1  0  0  0  0
 26 27  1  0  0  0  0
 29 30  1  0  0  0  0
 29 31  1  0  0  0  0
 29 32  2  0  0  0  0
 30 33  2  0  0  0  0
 31 35  2  0  0  0  0
 32 36  1  0  0  0  0
 33 34  1  0  0  0  0
 34 36  2  0  0  0  0
 35 37  1  0  0  0  0
 38 40  1  0  0  0  0
 38 42  1  0  0  0  0
 39 41  1  0  0  0  0
 40 44  1  0  0  0  0
 41 43  1  0  0  0  0
 44 45  1  0  0  0  0
 46 47  1  0  0  0  0
 48 49  1  0  0  0  0
M  END
> <PUBCHEM_COMPOUND_ID_TYPE>
0

> <PUBCHEM_TOTAL_CHARGE>
0

> <PUBCHEM_SUBSTANCE_ID>
310941941

> <PUBCHEM_SUBSTANCE_VERSION>
1

> <PUBCHEM_EXT_DATASOURCE_NAME>
4488

> <PUBCHEM_EXT_DATASOURCE_REGID>
SCHEMBL16119974

> <PUBCHEM_SUBSTANCE_COMMENT>
InChI=1S/C35H42ClN7O6/c1-3-42(17-5-6-22(2)39-28-13-15-37-29-20-23(36)9-10-25(28)29)18-19-49-32(45)14-16-38-35(48)40-27-8-4-7-24-26(27)21-43(34(24)47)30-11-12-31(44)41-33(30)46/h4,7-10,13,15,20,22,30H,3,5-6,11-12,14,16-19,21H2,1-2H3,(H,37,39)(H2,38,40,48)(H,41,44,46)
InChIKey=BVUYTXHPIAQKRQ-UHFFFAOYSA-N

> <PUBCHEM_SUBSTANCE_SYNONYM>
SCHEMBL16119974

> <PUBCHEM_XREF_EXT_ID>
SCHEMBL16119974

> <PUBCHEM_EXT_DATASOURCE_URL>
https://www.surechembl.org/

> <PUBCHEM_EXT_SUBSTANCE_URL>
https://www.surechembl.org/chemical/SCHEMBL16119974

> <PUBCHEM_CID_ASSOCIATIONS>
86275617  1

> <PUBCHEM_COORDINATE_TYPE>
1
3

$$$$
