310941257
  -OEChem-07211613022D

 43 46  0     1  0  0  0  0  0999 V2000
    5.0779    0.6858    0.0000 O   0  0  0  0  0  0  0  0  0  0  0  0
    3.9419   -1.2816    0.0000 O   0  0  0  0  0  0  0  0  0  0  0  0
    1.7943    0.7967    0.0000 O   0  0  0  0  0  0  0  0  0  0  0  0
    0.3533   -1.6973    0.0000 O   0  0  0  0  0  0  0  0  0  0  0  0
   -0.3672   -1.2816    0.0000 O   0  0  0  0  0  0  0  0  0  0  0  0
    3.9419   -2.9442    0.0000 O   0  0  0  0  0  0  0  0  0  0  0  0
   -2.5285    0.7967    0.0000 O   0  0  0  0  0  0  0  0  0  0  0  0
   -5.3966    0.7967    0.0000 O   0  0  0  0  0  0  0  0  0  0  0  0
    2.5147   -0.4364    0.0000 N   0  0  0  0  0  0  0  0  0  0  0  0
    0.3533   -0.0208    0.0000 N   0  0  0  0  0  0  0  0  0  0  0  0
   -1.8081   -0.4364    0.0000 N   0  0  0  0  0  0  0  0  0  0  0  0
   -3.9557   -0.0208    0.0000 N   0  0  0  0  0  0  0  0  0  0  0  0
    4.6622   -0.0070    0.0000 C   0  0  3  0  0  0  0  0  0  0  0  0
    3.9419   -0.4226    0.0000 C   0  0  0  0  0  0  0  0  0  0  0  0
    4.2743    0.6858    0.0000 C   0  0  0  0  0  0  0  0  0  0  0  0
    3.2213   -0.0208    0.0000 C   0  0  3  0  0  0  0  0  0  0  0  0
    5.3966   -0.4503    0.0000 C   0  0  0  0  0  0  0  0  0  0  0  0
    1.7804   -0.0485    0.0000 C   0  0  0  0  0  0  0  0  0  0  0  0
    1.0737   -0.4364    0.0000 C   0  0  3  0  0  0  0  0  0  0  0  0
    3.2352    1.2954    0.0000 C   0  0  0  0  0  0  0  0  0  0  0  0
    1.0599   -1.2677    0.0000 C   0  0  3  0  0  0  0  0  0  0  0  0
    2.5008    1.7250    0.0000 C   0  0  0  0  0  0  0  0  0  0  0  0
    1.7943   -1.6834    0.0000 C   0  0  0  0  0  0  0  0  0  0  0  0
   -0.3533   -0.4226    0.0000 C   0  0  0  0  0  0  0  0  0  0  0  0
    2.5008   -1.2816    0.0000 C   0  0  0  0  0  0  0  0  0  0  0  0
    1.7943   -2.5008    0.0000 C   0  0  0  0  0  0  0  0  0  0  0  0
   -1.1015   -0.0208    0.0000 C   0  0  3  0  0  0  0  0  0  0  0  0
    1.8081    1.3093    0.0000 C   0  0  0  0  0  0  0  0  0  0  0  0
    2.5008    2.5563    0.0000 C   0  0  0  0  0  0  0  0  0  0  0  0
    3.2213   -2.5008    0.0000 C   0  0  0  0  0  0  0  0  0  0  0  0
    3.2213   -1.6834    0.0000 C   0  0  0  0  0  0  0  0  0  0  0  0
    2.5008   -2.9165    0.0000 C   0  0  0  0  0  0  0  0  0  0  0  0
    1.0737    1.7250    0.0000 C   0  0  0  0  0  0  0  0  0  0  0  0
    1.7804    2.9442    0.0000 C   0  0  0  0  0  0  0  0  0  0  0  0
   -2.5285   -0.0346    0.0000 C   0  0  0  0  0  0  0  0  0  0  0  0
    1.0737    2.5424    0.0000 C   0  0  0  0  0  0  0  0  0  0  0  0
   -1.0876    0.8243    0.0000 C   0  0  0  0  0  0  0  0  0  0  0  0
   -3.2213   -0.4364    0.0000 C   0  0  0  0  0  0  0  0  0  0  0  0
   -3.9557    0.8106    0.0000 C   0  0  0  0  0  0  0  0  0  0  0  0
   -4.6622   -0.4364    0.0000 C   0  0  0  0  0  0  0  0  0  0  0  0
    4.6899   -2.5008    0.0000 C   0  0  0  0  0  0  0  0  0  0  0  0
   -4.6761    1.2123    0.0000 C   0  0  0  0  0  0  0  0  0  0  0  0
   -5.3827   -0.0208    0.0000 C   0  0  0  0  0  0  0  0  0  0  0  0
  1 13  1  0  0  0  0
  1 15  1  0  0  0  0
  2 14  2  0  0  0  0
  3 18  2  0  0  0  0
  4 21  1  0  0  0  0
  5 24  2  0  0  0  0
  6 30  1  0  0  0  0
  6 41  1  0  0  0  0
  7 35  2  0  0  0  0
  8 42  1  0  0  0  0
  8 43  1  0  0  0  0
  9 16  1  0  0  0  0
  9 18  1  0  0  0  0
 10 19  1  0  0  0  0
 10 24  1  0  0  0  0
 11 27  1  0  0  0  0
 11 35  1  0  0  0  0
 12 38  1  0  0  0  0
 12 39  1  0  0  0  0
 12 40  1  0  0  0  0
 13 14  1  0  0  0  0
 13 15  1  0  0  0  0
 13 17  1  0  0  0  0
 14 16  1  0  0  0  0
 16 20  1  0  0  0  0
 18 19  1  0  0  0  0
 19 21  1  0  0  0  0
 20 22  1  0  0  0  0
 21 23  1  0  0  0  0
 22 28  2  0  0  0  0
 22 29  1  0  0  0  0
 23 25  2  0  0  0  0
 23 26  1  0  0  0  0
 24 27  1  0  0  0  0
 25 31  1  0  0  0  0
 26 32  2  0  0  0  0
 27 37  1  0  0  0  0
 28 33  1  0  0  0  0
 29 34  2  0  0  0  0
 30 31  2  0  0  0  0
 30 32  1  0  0  0  0
 33 36  2  0  0  0  0
 34 36  1  0  0  0  0
 35 38  1  0  0  0  0
 39 42  1  0  0  0  0
 40 43  1  0  0  0  0
M  END
> <PUBCHEM_COMPOUND_ID_TYPE>
0

> <PUBCHEM_TOTAL_CHARGE>
0

> <PUBCHEM_SUBSTANCE_ID>
310941257

> <PUBCHEM_SUBSTANCE_VERSION>
1

> <PUBCHEM_EXT_DATASOURCE_NAME>
4488

> <PUBCHEM_EXT_DATASOURCE_REGID>
SCHEMBL16119217

> <PUBCHEM_SUBSTANCE_COMMENT>
InChI=1S/C31H40N4O8/c1-20(32-25(36)18-35-13-15-42-16-14-35)29(39)34-26(27(37)22-9-11-23(41-3)12-10-22)30(40)33-24(28(38)31(2)19-43-31)17-21-7-5-4-6-8-21/h4-12,20,24,26-27,37H,13-19H2,1-3H3,(H,32,36)(H,33,40)(H,34,39)
InChIKey=IOZNARGQTJYNED-UHFFFAOYSA-N

> <PUBCHEM_SUBSTANCE_SYNONYM>
SCHEMBL16119217

> <PUBCHEM_XREF_EXT_ID>
SCHEMBL16119217

> <PUBCHEM_EXT_DATASOURCE_URL>
https://www.surechembl.org/

> <PUBCHEM_EXT_SUBSTANCE_URL>
https://www.surechembl.org/chemical/SCHEMBL16119217

> <PUBCHEM_CID_ASSOCIATIONS>
117608116  1

> <PUBCHEM_COORDINATE_TYPE>
1
3

$$$$
