310940170
  -OEChem-07211613022D

 26 29  0     1  0  0  0  0  0999 V2000
    1.6846    1.4023    0.0000 S   0  0  0  0  0  0  0  0  0  0  0  0
    2.2493    2.0234    0.0000 O   0  0  0  0  0  0  0  0  0  0  0  0
    2.5128    1.2329    0.0000 O   0  0  0  0  0  0  0  0  0  0  0  0
   -0.1600   -3.2657    0.0000 O   0  0  0  0  0  0  0  0  0  0  0  0
    1.0258    1.8917    0.0000 N   0  0  3  0  0  0  0  0  0  0  0  0
    0.1976   -1.5341    0.0000 N   0  0  0  0  0  0  0  0  0  0  0  0
   -1.1012   -0.8564    0.0000 N   0  0  0  0  0  0  0  0  0  0  0  0
   -1.8917   -1.1200    0.0000 N   0  0  0  0  0  0  0  0  0  0  0  0
   -1.5529   -3.5669    0.0000 N   0  0  0  0  0  0  0  0  0  0  0  0
    1.4211    0.6117    0.0000 C   0  0  0  0  0  0  0  0  0  0  0  0
    0.6117    0.6306    0.0000 C   0  0  0  0  0  0  0  0  0  0  0  0
    0.3671    1.4023    0.0000 C   0  0  0  0  0  0  0  0  0  0  0  0
    1.0258    2.7387    0.0000 C   0  0  0  0  0  0  0  0  0  0  0  0
    0.2165   -0.1223    0.0000 C   0  0  0  0  0  0  0  0  0  0  0  0
    1.8352   -0.0847    0.0000 C   0  0  0  0  0  0  0  0  0  0  0  0
    0.6117   -0.8188    0.0000 C   0  0  0  0  0  0  0  0  0  0  0  0
   -1.1200   -2.2117    0.0000 C   0  0  0  0  0  0  0  0  0  0  0  0
   -0.6494   -1.5341    0.0000 C   0  0  0  0  0  0  0  0  0  0  0  0
    1.4399   -0.8000    0.0000 C   0  0  0  0  0  0  0  0  0  0  0  0
   -1.9105   -1.9482    0.0000 C   0  0  0  0  0  0  0  0  0  0  0  0
   -0.9505   -3.0022    0.0000 C   0  0  0  0  0  0  0  0  0  0  0  0
    1.0258    3.5669    0.0000 C   0  0  0  0  0  0  0  0  0  0  0  0
    0.2918    3.1152    0.0000 C   0  0  0  0  0  0  0  0  0  0  0  0
    1.7599    3.1152    0.0000 C   0  0  0  0  0  0  0  0  0  0  0  0
   -2.5128   -2.5128    0.0000 C   0  0  0  0  0  0  0  0  0  0  0  0
   -2.3435   -3.3034    0.0000 C   0  0  0  0  0  0  0  0  0  0  0  0
  1  2  2  0  0  0  0
  1  3  2  0  0  0  0
  1  5  1  0  0  0  0
  1 10  1  0  0  0  0
  4 21  2  0  0  0  0
  5 12  1  0  0  0  0
  5 13  1  0  0  0  0
  6 16  1  0  0  0  0
  6 18  1  0  0  0  0
  7  8  1  0  0  0  0
  7 18  2  0  0  0  0
  8 20  1  0  0  0  0
  9 21  1  0  0  0  0
  9 26  1  0  0  0  0
 10 11  2  0  0  0  0
 10 15  1  0  0  0  0
 11 12  1  0  0  0  0
 11 14  1  0  0  0  0
 13 22  1  0  0  0  0
 13 23  1  0  0  0  0
 13 24  1  0  0  0  0
 14 16  2  0  0  0  0
 15 19  2  0  0  0  0
 16 19  1  0  0  0  0
 17 18  1  0  0  0  0
 17 20  2  0  0  0  0
 17 21  1  0  0  0  0
 20 25  1  0  0  0  0
 25 26  2  0  0  0  0
M  END
> <PUBCHEM_COMPOUND_ID_TYPE>
0

> <PUBCHEM_TOTAL_CHARGE>
0

> <PUBCHEM_SUBSTANCE_ID>
310940170

> <PUBCHEM_SUBSTANCE_VERSION>
1

> <PUBCHEM_EXT_DATASOURCE_NAME>
4488

> <PUBCHEM_EXT_DATASOURCE_REGID>
SCHEMBL16118104

> <PUBCHEM_SUBSTANCE_COMMENT>
InChI=1S/C17H19N5O3S/c1-17(2,3)22-9-10-8-11(4-5-13(10)26(22,24)25)19-15-14-12(20-21-15)6-7-18-16(14)23/h4-8H,9H2,1-3H3,(H,18,23)(H2,19,20,21)
InChIKey=NKGJTKJGKLCEGX-UHFFFAOYSA-N

> <PUBCHEM_SUBSTANCE_SYNONYM>
SCHEMBL16118104

> <PUBCHEM_XREF_EXT_ID>
SCHEMBL16118104

> <PUBCHEM_EXT_DATASOURCE_URL>
https://www.surechembl.org/

> <PUBCHEM_EXT_SUBSTANCE_URL>
https://www.surechembl.org/chemical/SCHEMBL16118104

> <PUBCHEM_CID_ASSOCIATIONS>
117607282  1

> <PUBCHEM_COORDINATE_TYPE>
1
3

$$$$
