310949012
  -OEChem-07211613022D

 12 12  0     1  0  0  0  0  0999 V2000
    0.0489    0.4474    0.0000 S   0  0  3  0  0  0  0  0  0  0  0  0
    0.4544    1.1465    0.0000 O   0  0  0  0  0  0  0  0  0  0  0  0
   -1.5871    1.2305    0.0000 O   0  0  0  0  0  0  0  0  0  0  0  0
   -0.6642    0.0140    0.0000 N   0  0  0  0  0  0  0  0  0  0  0  0
    0.7621    0.0280    0.0000 C   0  0  0  0  0  0  0  0  0  0  0  0
    0.7621   -0.7970    0.0000 C   0  0  0  0  0  0  0  0  0  0  0  0
    1.4892    0.4195    0.0000 C   0  0  0  0  0  0  0  0  0  0  0  0
   -1.5730    0.4055    0.0000 C   0  0  0  0  0  0  0  0  0  0  0  0
    1.4892   -1.2305    0.0000 C   0  0  0  0  0  0  0  0  0  0  0  0
    2.2022    0.0000    0.0000 C   0  0  0  0  0  0  0  0  0  0  0  0
    2.2022   -0.8250    0.0000 C   0  0  0  0  0  0  0  0  0  0  0  0
   -2.2022    0.0280    0.0000 C   0  0  0  0  0  0  0  0  0  0  0  0
  1  2  2  0  0  0  0
  1  4  1  0  0  0  0
  1  5  1  0  0  0  0
  3  8  2  0  0  0  0
  4  8  1  0  0  0  0
  5  6  2  0  0  0  0
  5  7  1  0  0  0  0
  6  9  1  0  0  0  0
  7 10  2  0  0  0  0
  8 12  1  0  0  0  0
  9 11  2  0  0  0  0
 10 11  1  0  0  0  0
M  END
> <PUBCHEM_COMPOUND_ID_TYPE>
0

> <PUBCHEM_TOTAL_CHARGE>
0

> <PUBCHEM_SUBSTANCE_ID>
310949012

> <PUBCHEM_SUBSTANCE_VERSION>
1

> <PUBCHEM_EXT_DATASOURCE_NAME>
4488

> <PUBCHEM_EXT_DATASOURCE_REGID>
SCHEMBL16127201

> <PUBCHEM_SUBSTANCE_COMMENT>
InChI=1S/C8H9NO2S/c1-7(10)9-12(11)8-5-3-2-4-6-8/h2-6H,1H3,(H,9,10)
InChIKey=PZQSBOALUGBIOD-UHFFFAOYSA-N

> <PUBCHEM_SUBSTANCE_SYNONYM>
SCHEMBL16127201

> <PUBCHEM_XREF_EXT_ID>
SCHEMBL16127201

> <PUBCHEM_EXT_DATASOURCE_URL>
https://www.surechembl.org/

> <PUBCHEM_EXT_SUBSTANCE_URL>
https://www.surechembl.org/chemical/SCHEMBL16127201

> <PUBCHEM_CID_ASSOCIATIONS>
117614520  1

> <PUBCHEM_COORDINATE_TYPE>
1
3

$$$$
