310931824
  -OEChem-07211613022D

 34 38  0     1  0  0  0  0  0999 V2000
    9.0271    0.9228    0.0000 O   0  0  0  0  0  0  0  0  0  0  0  0
    4.5295    0.8279    0.0000 O   0  0  0  0  0  0  0  0  0  0  0  0
    8.1019    2.0654    0.0000 N   0  0  0  0  0  0  0  0  0  0  0  0
    8.1881    2.8858    0.0000 N   0  0  0  0  0  0  0  0  0  0  0  0
    5.2440   -0.4096    0.0000 N   0  0  0  0  0  0  0  0  0  0  0  0
    6.6729    2.0654    0.0000 N   0  0  0  0  0  0  0  0  0  0  0  0
    6.6729   -2.0596    0.0000 N   0  0  3  0  0  0  0  0  0  0  0  0
   13.5100    1.9117    0.0000 N   0  0  0  0  0  0  0  0  0  0  0  0
    9.4076    2.3429    0.0000 C   0  0  0  0  0  0  0  0  0  0  0  0
    8.8555    1.7298    0.0000 C   0  0  0  0  0  0  0  0  0  0  0  0
   10.2281    2.2567    0.0000 C   0  0  0  0  0  0  0  0  0  0  0  0
    7.3874    1.6529    0.0000 C   0  0  0  0  0  0  0  0  0  0  0  0
    8.9951    3.0574    0.0000 C   0  0  0  0  0  0  0  0  0  0  0  0
    5.9585    0.8279    0.0000 C   0  0  0  0  0  0  0  0  0  0  0  0
   10.7130    2.9241    0.0000 C   0  0  0  0  0  0  0  0  0  0  0  0
    5.2440    0.4154    0.0000 C   0  0  0  0  0  0  0  0  0  0  0  0
    7.3874    0.8279    0.0000 C   0  0  0  0  0  0  0  0  0  0  0  0
   10.5636    1.5030    0.0000 C   0  0  0  0  0  0  0  0  0  0  0  0
    5.9585   -1.6471    0.0000 C   0  0  3  0  0  0  0  0  0  0  0  0
    5.9585    1.6529    0.0000 C   0  0  0  0  0  0  0  0  0  0  0  0
    6.6729    0.4154    0.0000 C   0  0  0  0  0  0  0  0  0  0  0  0
    6.6729   -2.8846    0.0000 C   0  0  0  0  0  0  0  0  0  0  0  0
    5.9585   -0.8221    0.0000 C   0  0  0  0  0  0  0  0  0  0  0  0
   11.5335    2.8379    0.0000 C   0  0  0  0  0  0  0  0  0  0  0  0
   11.8690    2.0842    0.0000 C   0  0  0  0  0  0  0  0  0  0  0  0
   11.3841    1.4167    0.0000 C   0  0  0  0  0  0  0  0  0  0  0  0
    4.5295   -0.8221    0.0000 C   0  0  0  0  0  0  0  0  0  0  0  0
    7.0854   -3.5991    0.0000 C   0  0  0  0  0  0  0  0  0  0  0  0
    6.2604   -3.5991    0.0000 C   0  0  0  0  0  0  0  0  0  0  0  0
    5.2440   -2.0596    0.0000 C   0  0  0  0  0  0  0  0  0  0  0  0
    4.5295   -1.6471    0.0000 C   0  0  0  0  0  0  0  0  0  0  0  0
   10.3774    3.6778    0.0000 C   0  0  0  0  0  0  0  0  0  0  0  0
    7.3874   -1.6471    0.0000 C   0  0  0  0  0  0  0  0  0  0  0  0
   12.6895    1.9980    0.0000 C   0  0  0  0  0  0  0  0  0  0  0  0
  1 10  1  0  0  0  0
  2 16  2  0  0  0  0
  3  4  1  0  0  0  0
  3 10  1  0  0  0  0
  3 12  1  0  0  0  0
  4 13  2  0  0  0  0
  5 16  1  0  0  0  0
  5 23  1  0  0  0  0
  5 27  1  0  0  0  0
  6 12  2  0  0  0  0
  6 20  1  0  0  0  0
  7 19  1  0  0  0  0
  7 22  1  0  0  0  0
  7 33  1  0  0  0  0
  8 34  3  0  0  0  0
  9 10  2  0  0  0  0
  9 11  1  0  0  0  0
  9 13  1  0  0  0  0
 11 15  2  0  0  0  0
 11 18  1  0  0  0  0
 12 17  1  0  0  0  0
 14 16  1  0  0  0  0
 14 20  2  0  0  0  0
 14 21  1  0  0  0  0
 15 24  1  0  0  0  0
 15 32  1  0  0  0  0
 17 21  2  0  0  0  0
 18 26  2  0  0  0  0
 19 23  1  0  0  0  0
 19 30  1  0  0  0  0
 22 28  1  0  0  0  0
 22 29  1  0  0  0  0
 24 25  2  0  0  0  0
 25 26  1  0  0  0  0
 25 34  1  0  0  0  0
 27 31  1  0  0  0  0
 28 29  1  0  0  0  0
 30 31  1  0  0  0  0
M  END
> <PUBCHEM_COMPOUND_ID_TYPE>
0

> <PUBCHEM_TOTAL_CHARGE>
0

> <PUBCHEM_SUBSTANCE_ID>
310931824

> <PUBCHEM_SUBSTANCE_VERSION>
1

> <PUBCHEM_EXT_DATASOURCE_NAME>
4488

> <PUBCHEM_EXT_DATASOURCE_REGID>
SCHEMBL16109157

> <PUBCHEM_SUBSTANCE_COMMENT>
InChI=1S/C26H28N6O2/c1-17-12-18(13-27)5-9-22(17)23-15-29-32(26(23)34)24-10-6-19(14-28-24)25(33)31-11-3-4-21(16-31)30(2)20-7-8-20/h5-6,9-10,12,14-15,20-21,34H,3-4,7-8,11,16H2,1-2H3
InChIKey=PVCOTRMAVDDRKO-UHFFFAOYSA-N

> <PUBCHEM_SUBSTANCE_SYNONYM>
SCHEMBL16109157

> <PUBCHEM_XREF_EXT_ID>
SCHEMBL16109157

> <PUBCHEM_EXT_DATASOURCE_URL>
https://www.surechembl.org/

> <PUBCHEM_EXT_SUBSTANCE_URL>
https://www.surechembl.org/chemical/SCHEMBL16109157

> <PUBCHEM_CID_ASSOCIATIONS>
117600497  1

> <PUBCHEM_COORDINATE_TYPE>
1
3

$$$$
