310949180
  -OEChem-07211613022D

  9  9  0     1  0  0  0  0  0999 V2000
   -0.1317    1.2027    0.0000 O   0  0  0  0  0  0  0  0  0  0  0  0
    1.0366    0.5383    0.0000 N   0  0  0  0  0  0  0  0  0  0  0  0
    0.4181    0.0229    0.0000 C   0  0  3  0  0  0  0  0  0  0  0  0
   -0.3150    0.4467    0.0000 C   0  0  3  0  0  0  0  0  0  0  0  0
    0.3952   -0.8132    0.0000 C   0  0  0  0  0  0  0  0  0  0  0  0
   -1.0137    0.0344    0.0000 C   0  0  0  0  0  0  0  0  0  0  0  0
   -0.3150   -1.2027    0.0000 C   0  0  0  0  0  0  0  0  0  0  0  0
   -1.0366   -0.7903    0.0000 C   0  0  0  0  0  0  0  0  0  0  0  0
    0.7159    1.0767    0.0000 C   0  0  0  0  0  0  0  0  0  0  0  0
  1  4  1  0  0  0  0
  2  3  1  0  0  0  0
  2  9  2  0  0  0  0
  3  4  1  0  0  0  0
  3  5  1  0  0  0  0
  4  6  1  0  0  0  0
  5  7  1  0  0  0  0
  6  8  1  0  0  0  0
  7  8  1  0  0  0  0
M  END
> <PUBCHEM_COMPOUND_ID_TYPE>
0

> <PUBCHEM_TOTAL_CHARGE>
0

> <PUBCHEM_SUBSTANCE_ID>
310949180

> <PUBCHEM_SUBSTANCE_VERSION>
1

> <PUBCHEM_EXT_DATASOURCE_NAME>
4488

> <PUBCHEM_EXT_DATASOURCE_REGID>
SCHEMBL16127370

> <PUBCHEM_SUBSTANCE_COMMENT>
InChI=1S/C7H13NO/c1-8-6-4-2-3-5-7(6)9/h6-7,9H,1-5H2
InChIKey=KNYRSMUYOQGODV-UHFFFAOYSA-N

> <PUBCHEM_SUBSTANCE_SYNONYM>
SCHEMBL16127370

> <PUBCHEM_XREF_EXT_ID>
SCHEMBL16127370

> <PUBCHEM_EXT_DATASOURCE_URL>
https://www.surechembl.org/

> <PUBCHEM_EXT_SUBSTANCE_URL>
https://www.surechembl.org/chemical/SCHEMBL16127370

> <PUBCHEM_CID_ASSOCIATIONS>
117614672  1

> <PUBCHEM_COORDINATE_TYPE>
1
3

$$$$
