310946791
  -OEChem-07211613022D

 17 18  0     1  0  0  0  0  0999 V2000
   -2.1754    1.1949    0.0000 N   0  0  0  0  0  0  0  0  0  0  0  0
   -1.6905    0.5274    0.0000 N   0  0  0  0  0  0  0  0  0  0  0  0
    0.5230    1.6074    0.0000 N   0  0  3  0  0  0  0  0  0  0  0  0
   -2.9145    3.6696    0.0000 N   0  0  0  0  0  0  0  0  0  0  0  0
   -1.5342    4.0394    0.0000 N   0  0  0  0  0  0  0  0  0  0  0  0
   -1.6905    1.8623    0.0000 C   0  0  0  0  0  0  0  0  0  0  0  0
   -0.9059    1.6074    0.0000 C   0  0  0  0  0  0  0  0  0  0  0  0
   -1.9040    2.6592    0.0000 C   0  0  0  0  0  0  0  0  0  0  0  0
   -0.9059    0.7824    0.0000 C   0  0  0  0  0  0  0  0  0  0  0  0
   -0.1914    2.0199    0.0000 C   0  0  0  0  0  0  0  0  0  0  0  0
   -2.7009    2.8727    0.0000 C   0  0  0  0  0  0  0  0  0  0  0  0
   -1.3207    3.2426    0.0000 C   0  0  0  0  0  0  0  0  0  0  0  0
   -2.3311    4.2530    0.0000 C   0  0  0  0  0  0  0  0  0  0  0  0
    1.2375    2.0199    0.0000 C   0  0  0  0  0  0  0  0  0  0  0  0
    0.5230    0.7824    0.0000 C   0  0  0  0  0  0  0  0  0  0  0  0
    1.9520    1.6074    0.0000 C   0  0  0  0  0  0  0  0  0  0  0  0
    2.6665    2.0199    0.0000 C   0  0  0  0  0  0  0  0  0  0  0  0
  1  2  1  0  0  0  0
  1  6  2  0  0  0  0
  2  9  1  0  0  0  0
  3 10  1  0  0  0  0
  3 14  1  0  0  0  0
  3 15  1  0  0  0  0
  4 11  2  0  0  0  0
  4 13  1  0  0  0  0
  5 12  1  0  0  0  0
  5 13  2  0  0  0  0
  6  7  1  0  0  0  0
  6  8  1  0  0  0  0
  7  9  2  0  0  0  0
  7 10  1  0  0  0  0
  8 11  1  0  0  0  0
  8 12  2  0  0  0  0
 14 16  1  0  0  0  0
 16 17  1  0  0  0  0
M  END
> <PUBCHEM_COMPOUND_ID_TYPE>
0

> <PUBCHEM_TOTAL_CHARGE>
0

> <PUBCHEM_SUBSTANCE_ID>
310946791

> <PUBCHEM_SUBSTANCE_VERSION>
1

> <PUBCHEM_EXT_DATASOURCE_NAME>
4488

> <PUBCHEM_EXT_DATASOURCE_REGID>
SCHEMBL16124915

> <PUBCHEM_SUBSTANCE_COMMENT>
InChI=1S/C12H17N5/c1-3-4-17(2)8-11-7-15-16-12(11)10-5-13-9-14-6-10/h5-7,9H,3-4,8H2,1-2H3,(H,15,16)
InChIKey=UDZDPMPHSDYNEW-UHFFFAOYSA-N

> <PUBCHEM_SUBSTANCE_SYNONYM>
SCHEMBL16124915

> <PUBCHEM_XREF_EXT_ID>
SCHEMBL16124915

> <PUBCHEM_EXT_DATASOURCE_URL>
https://www.surechembl.org/

> <PUBCHEM_EXT_SUBSTANCE_URL>
https://www.surechembl.org/chemical/SCHEMBL16124915

> <PUBCHEM_CID_ASSOCIATIONS>
117612652  1

> <PUBCHEM_COORDINATE_TYPE>
1
3

$$$$
