310947792
  -OEChem-07211613022D

 22 21  0     1  0  0  0  0  0999 V2000
   -2.8879  -14.2850    0.0000 F   0  0  0  0  0  0  0  0  0  0  0  0
   -2.6744  -15.0819    0.0000 F   0  0  0  0  0  0  0  0  0  0  0  0
   -0.9243  -14.4985    0.0000 F   0  0  0  0  0  0  0  0  0  0  0  0
   -0.7108  -15.2954    0.0000 F   0  0  0  0  0  0  0  0  0  0  0  0
   -2.6172  -10.9411    0.0000 O   0  0  0  0  0  0  0  0  0  0  0  0
   -2.2474  -12.3214    0.0000 O   0  0  0  0  0  0  0  0  0  0  0  0
   -3.9975  -10.5713    0.0000 O   0  0  0  0  0  0  0  0  0  0  0  0
   -2.0911  -14.4985    0.0000 C   0  0  0  0  0  0  0  0  0  0  0  0
   -1.5077  -15.0819    0.0000 C   0  0  0  0  0  0  0  0  0  0  0  0
   -2.8307  -11.7380    0.0000 C   0  0  3  0  0  0  0  0  0  0  0  0
   -1.8775  -13.7016    0.0000 C   0  0  0  0  0  0  0  0  0  0  0  0
   -3.2006  -10.3578    0.0000 C   0  0  0  0  0  0  0  0  0  0  0  0
   -2.9870   -9.5609    0.0000 C   0  0  0  0  0  0  0  0  0  0  0  0
   -2.4609  -13.1183    0.0000 C   0  0  0  0  0  0  0  0  0  0  0  0
   -1.7212  -15.8788    0.0000 C   0  0  0  0  0  0  0  0  0  0  0  0
   -3.4141  -12.3214    0.0000 C   0  0  0  0  0  0  0  0  0  0  0  0
   -3.6276  -11.5245    0.0000 C   0  0  0  0  0  0  0  0  0  0  0  0
   -3.7015   -9.1484    0.0000 C   0  0  0  0  0  0  0  0  0  0  0  0
   -2.2726   -9.1484    0.0000 C   0  0  0  0  0  0  0  0  0  0  0  0
   -2.9870   -8.7359    0.0000 C   0  0  0  0  0  0  0  0  0  0  0  0
   -3.2006  -13.1183    0.0000 C   0  0  0  0  0  0  0  0  0  0  0  0
   -4.4160   -9.5609    0.0000 C   0  0  0  0  0  0  0  0  0  0  0  0
  1  8  1  0  0  0  0
  2  8  1  0  0  0  0
  3  9  1  0  0  0  0
  4  9  1  0  0  0  0
  5 10  1  0  0  0  0
  5 12  1  0  0  0  0
  6 10  1  0  0  0  0
  6 14  1  0  0  0  0
  7 12  2  0  0  0  0
  8  9  1  0  0  0  0
  8 11  1  0  0  0  0
  9 15  1  0  0  0  0
 10 16  1  0  0  0  0
 10 17  1  0  0  0  0
 11 14  1  0  0  0  0
 12 13  1  0  0  0  0
 13 18  1  0  0  0  0
 13 19  1  0  0  0  0
 13 20  1  0  0  0  0
 16 21  1  0  0  0  0
 18 22  1  0  0  0  0
M  END
> <PUBCHEM_COMPOUND_ID_TYPE>
0

> <PUBCHEM_TOTAL_CHARGE>
0

> <PUBCHEM_SUBSTANCE_ID>
310947792

> <PUBCHEM_SUBSTANCE_VERSION>
1

> <PUBCHEM_EXT_DATASOURCE_NAME>
4488

> <PUBCHEM_EXT_DATASOURCE_REGID>
SCHEMBL16125964

> <PUBCHEM_SUBSTANCE_COMMENT>
InChI=1S/C15H26F4O3/c1-7-12(3,4)11(20)22-13(5,8-2)21-10-9-15(18,19)14(6,16)17/h7-10H2,1-6H3
InChIKey=GVBRJGNVVONFSE-UHFFFAOYSA-N

> <PUBCHEM_SUBSTANCE_SYNONYM>
SCHEMBL16125964

> <PUBCHEM_XREF_EXT_ID>
SCHEMBL16125964

> <PUBCHEM_EXT_DATASOURCE_URL>
https://www.surechembl.org/

> <PUBCHEM_EXT_SUBSTANCE_URL>
https://www.surechembl.org/chemical/SCHEMBL16125964

> <PUBCHEM_CID_ASSOCIATIONS>
117613461  1

> <PUBCHEM_COORDINATE_TYPE>
1
3

$$$$
