310937156
  -OEChem-07211613022D

 28 30  0     1  0  0  0  0  0999 V2000
    7.8592    0.8250    0.0000 Cl  0  0  0  0  0  0  0  0  0  0  0  0
    6.4302    1.6500    0.0000 Cl  0  0  0  0  0  0  0  0  0  0  0  0
    7.1447   -2.8875    0.0000 O   0  0  0  0  0  0  0  0  0  0  0  0
    5.0013   -1.6500    0.0000 O   0  0  0  0  0  0  0  0  0  0  0  0
   11.4316   -2.8875    0.0000 O   0  0  0  0  0  0  0  0  0  0  0  0
    4.2868   -2.8875    0.0000 O   0  0  0  0  0  0  0  0  0  0  0  0
   10.0026   -2.0625    0.0000 N   0  0  0  0  0  0  0  0  0  0  0  0
    3.5724   -1.6500    0.0000 N   0  0  0  0  0  0  0  0  0  0  0  0
    6.4302   -1.6500    0.0000 C   0  0  3  0  0  0  0  0  0  0  0  0
    7.1447   -2.0625    0.0000 C   0  0  3  0  0  0  0  0  0  0  0  0
    6.4302   -0.8250    0.0000 C   0  0  0  0  0  0  0  0  0  0  0  0
    7.8592   -1.6500    0.0000 C   0  0  0  0  0  0  0  0  0  0  0  0
    9.2881   -1.6500    0.0000 C   0  0  0  0  0  0  0  0  0  0  0  0
    8.5736   -2.0625    0.0000 C   0  0  0  0  0  0  0  0  0  0  0  0
    7.1447   -0.4125    0.0000 C   0  0  0  0  0  0  0  0  0  0  0  0
    7.1447    0.4125    0.0000 C   0  0  0  0  0  0  0  0  0  0  0  0
    5.7158   -0.4125    0.0000 C   0  0  0  0  0  0  0  0  0  0  0  0
    5.7158   -2.0625    0.0000 C   0  0  0  0  0  0  0  0  0  0  0  0
    7.8592   -0.8250    0.0000 C   0  0  0  0  0  0  0  0  0  0  0  0
    6.4302    0.8250    0.0000 C   0  0  0  0  0  0  0  0  0  0  0  0
    9.2881   -0.8250    0.0000 C   0  0  0  0  0  0  0  0  0  0  0  0
    5.7158    0.4125    0.0000 C   0  0  0  0  0  0  0  0  0  0  0  0
    8.5736   -0.4125    0.0000 C   0  0  0  0  0  0  0  0  0  0  0  0
   10.7170   -1.6500    0.0000 C   0  0  0  0  0  0  0  0  0  0  0  0
   10.0026   -2.8875    0.0000 C   0  0  0  0  0  0  0  0  0  0  0  0
   11.4316   -2.0625    0.0000 C   0  0  0  0  0  0  0  0  0  0  0  0
   10.7170   -3.3000    0.0000 C   0  0  0  0  0  0  0  0  0  0  0  0
    4.2868   -2.0625    0.0000 C   0  0  0  0  0  0  0  0  0  0  0  0
  1 16  1  0  0  0  0
  2 20  1  0  0  0  0
  3 10  1  0  0  0  0
  4 18  1  0  0  0  0
  4 28  1  0  0  0  0
  5 26  1  0  0  0  0
  5 27  1  0  0  0  0
  6 28  2  0  0  0  0
  7 13  1  0  0  0  0
  7 24  1  0  0  0  0
  7 25  1  0  0  0  0
  8 28  1  0  0  0  0
  9 10  1  0  0  0  0
  9 11  1  0  0  0  0
  9 18  1  0  0  0  0
 10 12  1  0  0  0  0
 11 15  1  0  0  0  0
 11 17  2  0  0  0  0
 12 14  1  0  0  0  0
 12 19  2  0  0  0  0
 13 14  2  0  0  0  0
 13 21  1  0  0  0  0
 15 16  2  0  0  0  0
 16 20  1  0  0  0  0
 17 22  1  0  0  0  0
 19 23  1  0  0  0  0
 20 22  2  0  0  0  0
 21 23  2  0  0  0  0
 24 26  1  0  0  0  0
 25 27  1  0  0  0  0
M  END
> <PUBCHEM_COMPOUND_ID_TYPE>
0

> <PUBCHEM_TOTAL_CHARGE>
0

> <PUBCHEM_SUBSTANCE_ID>
310937156

> <PUBCHEM_SUBSTANCE_VERSION>
1

> <PUBCHEM_EXT_DATASOURCE_NAME>
4488

> <PUBCHEM_EXT_DATASOURCE_REGID>
SCHEMBL16114879

> <PUBCHEM_SUBSTANCE_COMMENT>
InChI=1S/C20H22Cl2N2O4/c21-17-5-4-13(11-18(17)22)16(12-28-20(23)26)19(25)14-2-1-3-15(10-14)24-6-8-27-9-7-24/h1-5,10-11,16,19,25H,6-9,12H2,(H2,23,26)
InChIKey=GRYLUEUVORPYMP-UHFFFAOYSA-N

> <PUBCHEM_SUBSTANCE_SYNONYM>
SCHEMBL16114879

> <PUBCHEM_XREF_EXT_ID>
SCHEMBL16114879

> <PUBCHEM_EXT_DATASOURCE_URL>
https://www.surechembl.org/

> <PUBCHEM_EXT_SUBSTANCE_URL>
https://www.surechembl.org/chemical/SCHEMBL16114879

> <PUBCHEM_CID_ASSOCIATIONS>
117604980  1

> <PUBCHEM_COORDINATE_TYPE>
1
3

$$$$
