310945727
  -OEChem-07211613022D

 16 17  0     1  0  0  0  0  0999 V2000
   -1.6582   -0.7919    0.0000 I   0  0  0  0  0  0  0  0  0  0  0  0
   -0.4285    0.7546    0.0000 F   0  0  0  0  0  0  0  0  0  0  0  0
   -0.8384    1.7979    0.0000 F   0  0  0  0  0  0  0  0  0  0  0  0
    0.2236    2.2078    0.0000 F   0  0  0  0  0  0  0  0  0  0  0  0
    0.7080    0.3074    0.0000 N   0  0  3  0  0  0  0  0  0  0  0  0
   -0.0746   -2.2078    0.0000 N   0  0  0  0  0  0  0  0  0  0  0  0
   -0.8943   -2.0402    0.0000 N   0  0  0  0  0  0  0  0  0  0  0  0
   -0.2049   -0.8850    0.0000 C   0  0  0  0  0  0  0  0  0  0  0  0
    0.3353   -1.4812    0.0000 C   0  0  0  0  0  0  0  0  0  0  0  0
   -0.9502   -1.1831    0.0000 C   0  0  0  0  0  0  0  0  0  0  0  0
   -0.0186   -0.0466    0.0000 C   0  0  0  0  0  0  0  0  0  0  0  0
   -0.1117    1.4998    0.0000 C   0  0  0  0  0  0  0  0  0  0  0  0
    0.6335    1.1458    0.0000 C   0  0  0  0  0  0  0  0  0  0  0  0
    1.1924   -1.4625    0.0000 C   0  0  0  0  0  0  0  0  0  0  0  0
    1.4718   -0.0280    0.0000 C   0  0  0  0  0  0  0  0  0  0  0  0
    1.6582   -0.7732    0.0000 C   0  0  0  0  0  0  0  0  0  0  0  0
  1 10  1  0  0  0  0
  2 12  1  0  0  0  0
  3 12  1  0  0  0  0
  4 12  1  0  0  0  0
  5 11  1  0  0  0  0
  5 13  1  0  0  0  0
  5 15  1  0  0  0  0
  6  7  1  0  0  0  0
  6  9  1  0  0  0  0
  7 10  2  0  0  0  0
  8  9  2  0  0  0  0
  8 10  1  0  0  0  0
  8 11  1  0  0  0  0
  9 14  1  0  0  0  0
 12 13  1  0  0  0  0
 14 16  1  0  0  0  0
 15 16  1  0  0  0  0
M  END
> <PUBCHEM_COMPOUND_ID_TYPE>
0

> <PUBCHEM_TOTAL_CHARGE>
0

> <PUBCHEM_SUBSTANCE_ID>
310945727

> <PUBCHEM_SUBSTANCE_VERSION>
1

> <PUBCHEM_EXT_DATASOURCE_NAME>
4488

> <PUBCHEM_EXT_DATASOURCE_REGID>
SCHEMBL16123831

> <PUBCHEM_SUBSTANCE_COMMENT>
InChI=1S/C9H11F3IN3/c10-9(11,12)5-16-3-1-2-7-6(4-16)8(13)15-14-7/h1-5H2,(H,14,15)
InChIKey=GCIWPVWIOZMUJF-UHFFFAOYSA-N

> <PUBCHEM_SUBSTANCE_SYNONYM>
SCHEMBL16123831

> <PUBCHEM_XREF_EXT_ID>
SCHEMBL16123831

> <PUBCHEM_EXT_DATASOURCE_URL>
https://www.surechembl.org/

> <PUBCHEM_EXT_SUBSTANCE_URL>
https://www.surechembl.org/chemical/SCHEMBL16123831

> <PUBCHEM_CID_ASSOCIATIONS>
117611724  1

> <PUBCHEM_COORDINATE_TYPE>
1
3

$$$$
