310933178
  -OEChem-07211613022D

 26 28  0     1  0  0  0  0  0999 V2000
    1.9558    0.0000    0.0000 F   0  0  0  0  0  0  0  0  0  0  0  0
    2.6923   -0.4064    0.0000 F   0  0  0  0  0  0  0  0  0  0  0  0
    0.5588   -0.8382    0.0000 F   0  0  0  0  0  0  0  0  0  0  0  0
    1.2700   -2.0827    0.0000 F   0  0  0  0  0  0  0  0  0  0  0  0
    0.5588   -1.6763    0.0000 F   0  0  0  0  0  0  0  0  0  0  0  0
    3.4035   -0.8128    0.0000 O   0  0  0  0  0  0  0  0  0  0  0  0
    0.0000   -3.9877    0.0000 O   0  0  0  0  0  0  0  0  0  0  0  0
    5.5116   -2.8701    0.0000 O   0  0  0  0  0  0  0  0  0  0  0  0
    4.1908   -2.2097    0.0000 N   0  0  0  0  0  0  0  0  0  0  0  0
    4.1908   -3.5304    0.0000 N   0  0  0  0  0  0  0  0  0  0  0  0
    0.4064   -4.7242    0.0000 N   0  0  0  0  0  0  0  0  0  0  0  0
    2.6923   -2.0573    0.0000 C   0  0  0  0  0  0  0  0  0  0  0  0
    1.9811   -0.8382    0.0000 C   0  0  0  0  0  0  0  0  0  0  0  0
    2.6923   -1.2192    0.0000 C   0  0  3  0  0  0  0  0  0  0  0  0
    3.4289   -2.4383    0.0000 C   0  0  0  0  0  0  0  0  0  0  0  0
    3.4289   -3.3019    0.0000 C   0  0  0  0  0  0  0  0  0  0  0  0
    2.0065   -3.3019    0.0000 C   0  0  0  0  0  0  0  0  0  0  0  0
    1.2700   -1.2446    0.0000 C   0  0  0  0  0  0  0  0  0  0  0  0
    2.0065   -2.4383    0.0000 C   0  0  0  0  0  0  0  0  0  0  0  0
    1.2954   -3.7083    0.0000 C   0  0  0  0  0  0  0  0  0  0  0  0
    2.6923   -3.7083    0.0000 C   0  0  0  0  0  0  0  0  0  0  0  0
    4.6989   -2.8701    0.0000 C   0  0  0  0  0  0  0  0  0  0  0  0
    0.5334   -3.4035    0.0000 C   0  0  0  0  0  0  0  0  0  0  0  0
    1.1938   -4.5210    0.0000 C   0  0  0  0  0  0  0  0  0  0  0  0
    0.3556   -2.5907    0.0000 C   0  0  0  0  0  0  0  0  0  0  0  0
    1.8287   -5.0798    0.0000 C   0  0  0  0  0  0  0  0  0  0  0  0
  1 13  1  0  0  0  0
  2 13  1  0  0  0  0
  3 18  1  0  0  0  0
  4 18  1  0  0  0  0
  5 18  1  0  0  0  0
  6 14  1  0  0  0  0
  7 11  1  0  0  0  0
  7 23  1  0  0  0  0
  8 22  2  0  0  0  0
  9 15  1  0  0  0  0
  9 22  1  0  0  0  0
 10 16  1  0  0  0  0
 10 22  1  0  0  0  0
 11 24  2  0  0  0  0
 12 14  1  0  0  0  0
 12 15  1  0  0  0  0
 12 19  2  0  0  0  0
 13 14  1  0  0  0  0
 13 18  1  0  0  0  0
 15 16  2  0  0  0  0
 16 21  1  0  0  0  0
 17 19  1  0  0  0  0
 17 20  1  0  0  0  0
 17 21  2  0  0  0  0
 20 23  2  0  0  0  0
 20 24  1  0  0  0  0
 23 25  1  0  0  0  0
 24 26  1  0  0  0  0
M  END
> <PUBCHEM_COMPOUND_ID_TYPE>
0

> <PUBCHEM_TOTAL_CHARGE>
0

> <PUBCHEM_SUBSTANCE_ID>
310933178

> <PUBCHEM_SUBSTANCE_VERSION>
1

> <PUBCHEM_EXT_DATASOURCE_NAME>
4488

> <PUBCHEM_EXT_DATASOURCE_REGID>
SCHEMBL16110587

> <PUBCHEM_SUBSTANCE_COMMENT>
InChI=1S/C15H12F5N3O3/c1-5-10(6(2)26-23-5)7-3-8(11-9(4-7)21-13(25)22-11)12(24)14(16,17)15(18,19)20/h3-4,12,24H,1-2H3,(H2,21,22,25)
InChIKey=SIADFVUKFGMIIB-UHFFFAOYSA-N

> <PUBCHEM_SUBSTANCE_SYNONYM>
SCHEMBL16110587

> <PUBCHEM_XREF_EXT_ID>
SCHEMBL16110587

> <PUBCHEM_EXT_DATASOURCE_URL>
https://www.surechembl.org/

> <PUBCHEM_EXT_SUBSTANCE_URL>
https://www.surechembl.org/chemical/SCHEMBL16110587

> <PUBCHEM_CID_ASSOCIATIONS>
117601624  1

> <PUBCHEM_COORDINATE_TYPE>
1
3

$$$$
