310934026
  -OEChem-07211613022D

 31 34  0     1  0  0  0  0  0999 V2000
    1.8658    0.0000    0.0000 Br  0  0  0  0  0  0  0  0  0  0  0  0
    2.1951   -9.3291    0.0000 O   0  0  0  0  0  0  0  0  0  0  0  0
    0.7134   -9.3291    0.0000 O   0  0  0  0  0  0  0  0  0  0  0  0
    1.4817   -6.4206    0.0000 N   0  0  0  0  0  0  0  0  0  0  0  0
    0.7134   -1.8658    0.0000 N   0  0  0  0  0  0  0  0  0  0  0  0
    1.4817   -8.0669    0.0000 N   0  0  0  0  0  0  0  0  0  0  0  0
    2.1951   -1.8658    0.0000 N   0  0  0  0  0  0  0  0  0  0  0  0
    0.7683   -5.1584    0.0000 N   0  0  0  0  0  0  0  0  0  0  0  0
    0.1098   -1.3170    0.0000 N   0  0  0  0  0  0  0  0  0  0  0  0
    1.4817   -5.5974    0.0000 C   0  0  0  0  0  0  0  0  0  0  0  0
    1.4817   -1.4268    0.0000 C   0  0  0  0  0  0  0  0  0  0  0  0
    1.4268   -3.0731    0.0000 C   0  0  0  0  0  0  0  0  0  0  0  0
    1.4268   -3.9511    0.0000 C   0  0  0  0  0  0  0  0  0  0  0  0
    0.7683   -6.8047    0.0000 C   0  0  3  0  0  0  0  0  0  0  0  0
    2.1951   -6.8047    0.0000 C   0  0  3  0  0  0  0  0  0  0  0  0
    0.7683   -2.6889    0.0000 C   0  0  0  0  0  0  0  0  0  0  0  0
    1.2622   -0.6036    0.0000 C   0  0  0  0  0  0  0  0  0  0  0  0
    2.1951   -7.6828    0.0000 C   0  0  0  0  0  0  0  0  0  0  0  0
    0.7683   -7.6828    0.0000 C   0  0  0  0  0  0  0  0  0  0  0  0
    2.1951   -2.6889    0.0000 C   0  0  0  0  0  0  0  0  0  0  0  0
    2.1951   -5.1584    0.0000 C   0  0  0  0  0  0  0  0  0  0  0  0
    0.7134   -4.3353    0.0000 C   0  0  0  0  0  0  0  0  0  0  0  0
    2.1402   -4.3353    0.0000 C   0  0  0  0  0  0  0  0  0  0  0  0
    1.4817   -8.8900    0.0000 C   0  0  0  0  0  0  0  0  0  0  0  0
    0.4390   -0.5488    0.0000 C   0  0  0  0  0  0  0  0  0  0  0  0
    0.0000   -6.4206    0.0000 C   0  0  0  0  0  0  0  0  0  0  0  0
    2.9085   -6.4206    0.0000 C   0  0  0  0  0  0  0  0  0  0  0  0
    2.1951  -10.1522    0.0000 C   0  0  0  0  0  0  0  0  0  0  0  0
    1.3170  -10.1522    0.0000 C   0  0  0  0  0  0  0  0  0  0  0  0
    2.1951  -10.9753    0.0000 C   0  0  0  0  0  0  0  0  0  0  0  0
    3.0182  -10.1522    0.0000 C   0  0  0  0  0  0  0  0  0  0  0  0
  1 17  1  0  0  0  0
  2 24  1  0  0  0  0
  2 28  1  0  0  0  0
  3 24  2  0  0  0  0
  4 10  1  0  0  0  0
  4 14  1  0  0  0  0
  4 15  1  0  0  0  0
  5  9  1  0  0  0  0
  5 11  1  0  0  0  0
  5 16  1  0  0  0  0
  6 18  1  0  0  0  0
  6 19  1  0  0  0  0
  6 24  1  0  0  0  0
  7 11  1  0  0  0  0
  7 20  2  0  0  0  0
  8 10  1  0  0  0  0
  8 22  2  0  0  0  0
  9 25  2  0  0  0  0
 10 21  2  0  0  0  0
 11 17  2  0  0  0  0
 12 13  1  0  0  0  0
 12 16  2  0  0  0  0
 12 20  1  0  0  0  0
 13 22  1  0  0  0  0
 13 23  2  0  0  0  0
 14 19  1  0  0  0  0
 14 26  1  0  0  0  0
 15 18  1  0  0  0  0
 15 27  1  0  0  0  0
 17 25  1  0  0  0  0
 21 23  1  0  0  0  0
 28 29  1  0  0  0  0
 28 30  1  0  0  0  0
 28 31  1  0  0  0  0
M  END
> <PUBCHEM_COMPOUND_ID_TYPE>
0

> <PUBCHEM_TOTAL_CHARGE>
0

> <PUBCHEM_SUBSTANCE_ID>
310934026

> <PUBCHEM_SUBSTANCE_VERSION>
1

> <PUBCHEM_EXT_DATASOURCE_NAME>
4488

> <PUBCHEM_EXT_DATASOURCE_REGID>
SCHEMBL16111470

> <PUBCHEM_SUBSTANCE_COMMENT>
InChI=1S/C22H27BrN6O2/c1-14-11-27(21(30)31-22(3,4)5)12-15(2)29(14)19-7-6-16(8-24-19)17-9-25-20-18(23)10-26-28(20)13-17/h6-10,13-15H,11-12H2,1-5H3
InChIKey=YPBAPZWOSXUSOE-UHFFFAOYSA-N

> <PUBCHEM_SUBSTANCE_SYNONYM>
SCHEMBL16111470

> <PUBCHEM_XREF_EXT_ID>
SCHEMBL16111470

> <PUBCHEM_EXT_DATASOURCE_URL>
https://www.surechembl.org/

> <PUBCHEM_EXT_SUBSTANCE_URL>
https://www.surechembl.org/chemical/SCHEMBL16111470

> <PUBCHEM_CID_ASSOCIATIONS>
117602326  1

> <PUBCHEM_COORDINATE_TYPE>
1
3

$$$$
