310943802
  -OEChem-07211613022D

 27 29  0     1  0  0  0  0  0999 V2000
    2.3932   -1.3148    0.0000 Br  0  0  0  0  0  0  0  0  0  0  0  0
    3.8234    1.9031    0.0000 O   0  0  0  0  0  0  0  0  0  0  0  0
    4.5616    0.7266    0.0000 O   0  0  0  0  0  0  0  0  0  0  0  0
   -1.9435   -1.4417    0.0000 N   0  0  3  0  0  0  0  0  0  0  0  0
    0.2249    1.3725    0.0000 N   0  0  0  0  0  0  0  0  0  0  0  0
   -3.7196   -0.8881    0.0000 N   0  0  3  0  0  0  0  0  0  0  0  0
    0.9285   -0.5997    0.0000 C   0  0  0  0  0  0  0  0  0  0  0  0
    1.6666   -0.1153    0.0000 C   0  0  0  0  0  0  0  0  0  0  0  0
    0.2019   -0.1730    0.0000 C   0  0  0  0  0  0  0  0  0  0  0  0
    2.3932   -0.5306    0.0000 C   0  0  0  0  0  0  0  0  0  0  0  0
   -0.5132   -1.4302    0.0000 C   0  0  0  0  0  0  0  0  0  0  0  0
    0.9285   -1.4302    0.0000 C   0  0  0  0  0  0  0  0  0  0  0  0
    1.6897    0.7266    0.0000 C   0  0  0  0  0  0  0  0  0  0  0  0
   -0.5017   -0.5882    0.0000 C   0  0  0  0  0  0  0  0  0  0  0  0
    3.1199    0.7151    0.0000 C   0  0  0  0  0  0  0  0  0  0  0  0
    3.1083   -0.1038    0.0000 C   0  0  0  0  0  0  0  0  0  0  0  0
    0.2019   -1.8339    0.0000 C   0  0  0  0  0  0  0  0  0  0  0  0
    2.4048    1.1188    0.0000 C   0  0  0  0  0  0  0  0  0  0  0  0
   -1.2168   -1.8454    0.0000 C   0  0  0  0  0  0  0  0  0  0  0  0
    0.2134    0.5651    0.0000 C   0  0  0  0  0  0  0  0  0  0  0  0
    3.8234    1.1303    0.0000 C   0  0  0  0  0  0  0  0  0  0  0  0
   -2.6354   -1.9031    0.0000 C   0  0  0  0  0  0  0  0  0  0  0  0
   -1.8858   -0.5997    0.0000 C   0  0  0  0  0  0  0  0  0  0  0  0
   -3.4198   -1.6608    0.0000 C   0  0  0  0  0  0  0  0  0  0  0  0
   -2.4970   -0.0346    0.0000 C   0  0  0  0  0  0  0  0  0  0  0  0
   -3.3044   -0.1500    0.0000 C   0  0  0  0  0  0  0  0  0  0  0  0
   -4.5616   -0.8881    0.0000 C   0  0  0  0  0  0  0  0  0  0  0  0
  1 10  1  0  0  0  0
  2 21  2  0  0  0  0
  3 21  1  0  0  0  0
  4 19  1  0  0  0  0
  4 22  1  0  0  0  0
  4 23  1  0  0  0  0
  5 20  3  0  0  0  0
  6 24  1  0  0  0  0
  6 26  1  0  0  0  0
  6 27  1  0  0  0  0
  7  8  1  0  0  0  0
  7  9  2  0  0  0  0
  7 12  1  0  0  0  0
  8 10  2  0  0  0  0
  8 13  1  0  0  0  0
  9 14  1  0  0  0  0
  9 20  1  0  0  0  0
 10 16  1  0  0  0  0
 11 14  2  0  0  0  0
 11 17  1  0  0  0  0
 11 19  1  0  0  0  0
 12 17  2  0  0  0  0
 13 18  2  0  0  0  0
 15 16  2  0  0  0  0
 15 18  1  0  0  0  0
 15 21  1  0  0  0  0
 22 24  1  0  0  0  0
 23 25  1  0  0  0  0
 25 26  1  0  0  0  0
M  END
> <PUBCHEM_COMPOUND_ID_TYPE>
0

> <PUBCHEM_TOTAL_CHARGE>
0

> <PUBCHEM_SUBSTANCE_ID>
310943802

> <PUBCHEM_SUBSTANCE_VERSION>
1

> <PUBCHEM_EXT_DATASOURCE_NAME>
4488

> <PUBCHEM_EXT_DATASOURCE_REGID>
SCHEMBL16121873

> <PUBCHEM_SUBSTANCE_COMMENT>
InChI=1S/C21H22BrN3O2/c1-24-7-2-8-25(10-9-24)14-15-3-5-18(17(11-15)13-23)19-6-4-16(21(26)27)12-20(19)22/h3-6,11-12H,2,7-10,14H2,1H3,(H,26,27)
InChIKey=VTUHIMJDUKQGOE-UHFFFAOYSA-N

> <PUBCHEM_SUBSTANCE_SYNONYM>
SCHEMBL16121873

> <PUBCHEM_XREF_EXT_ID>
SCHEMBL16121873

> <PUBCHEM_EXT_DATASOURCE_URL>
https://www.surechembl.org/

> <PUBCHEM_EXT_SUBSTANCE_URL>
https://www.surechembl.org/chemical/SCHEMBL16121873

> <PUBCHEM_CID_ASSOCIATIONS>
117610155  1

> <PUBCHEM_COORDINATE_TYPE>
1
3

$$$$
