310941637
  -OEChem-07211613022D

 24 27  0     1  0  0  0  0  0999 V2000
   -2.8829   -1.7445    0.0000 Cl  0  0  0  0  0  0  0  0  0  0  0  0
    0.9010    1.7445    0.0000 S   0  0  0  0  0  0  0  0  0  0  0  0
   -1.4415   -0.8928    0.0000 O   0  0  0  0  0  0  0  0  0  0  0  0
   -0.0164   -0.8928    0.0000 O   0  0  0  0  0  0  0  0  0  0  0  0
    0.7535    0.4177    0.0000 N   0  0  0  0  0  0  0  0  0  0  0  0
    2.1458    0.9746    0.0000 N   0  0  0  0  0  0  0  0  0  0  0  0
   -0.7043    0.3358    0.0000 C   0  0  3  0  0  0  0  0  0  0  0  0
   -2.1950   -0.4832    0.0000 C   0  0  0  0  0  0  0  0  0  0  0  0
   -0.0164    0.7290    0.0000 C   0  0  0  0  0  0  0  0  0  0  0  0
   -2.1950    0.3358    0.0000 C   0  0  0  0  0  0  0  0  0  0  0  0
   -0.7535   -0.4832    0.0000 C   0  0  0  0  0  0  0  0  0  0  0  0
   -1.4578    0.7125    0.0000 C   0  0  0  0  0  0  0  0  0  0  0  0
   -2.8829   -0.9091    0.0000 C   0  0  0  0  0  0  0  0  0  0  0  0
    1.3268    1.0402    0.0000 C   0  0  0  0  0  0  0  0  0  0  0  0
    0.0819    1.5971    0.0000 C   0  0  0  0  0  0  0  0  0  0  0  0
   -2.8993    0.7125    0.0000 C   0  0  0  0  0  0  0  0  0  0  0  0
   -3.6037   -0.4996    0.0000 C   0  0  0  0  0  0  0  0  0  0  0  0
   -3.6201    0.3358    0.0000 C   0  0  0  0  0  0  0  0  0  0  0  0
    2.4570    0.1720    0.0000 C   0  0  0  0  0  0  0  0  0  0  0  0
    1.9984   -0.4832    0.0000 C   0  0  0  0  0  0  0  0  0  0  0  0
    3.3252    0.0737    0.0000 C   0  0  0  0  0  0  0  0  0  0  0  0
    2.3424   -1.2531    0.0000 C   0  0  0  0  0  0  0  0  0  0  0  0
    3.6201   -0.6470    0.0000 C   0  0  0  0  0  0  0  0  0  0  0  0
    3.1614   -1.3350    0.0000 C   0  0  0  0  0  0  0  0  0  0  0  0
  1 13  1  0  0  0  0
  2 14  1  0  0  0  0
  2 15  1  0  0  0  0
  3  8  1  0  0  0  0
  3 11  1  0  0  0  0
  4 11  2  0  0  0  0
  5  9  1  0  0  0  0
  5 14  2  0  0  0  0
  6 14  1  0  0  0  0
  6 19  1  0  0  0  0
  7  9  1  0  0  0  0
  7 11  1  0  0  0  0
  7 12  1  0  0  0  0
  8 10  1  0  0  0  0
  8 13  2  0  0  0  0
  9 15  2  0  0  0  0
 10 12  1  0  0  0  0
 10 16  2  0  0  0  0
 13 17  1  0  0  0  0
 16 18  1  0  0  0  0
 17 18  2  0  0  0  0
 19 20  2  0  0  0  0
 19 21  1  0  0  0  0
 20 22  1  0  0  0  0
 21 23  2  0  0  0  0
 22 24  2  0  0  0  0
 23 24  1  0  0  0  0
M  END
> <PUBCHEM_COMPOUND_ID_TYPE>
0

> <PUBCHEM_TOTAL_CHARGE>
0

> <PUBCHEM_SUBSTANCE_ID>
310941637

> <PUBCHEM_SUBSTANCE_VERSION>
1

> <PUBCHEM_EXT_DATASOURCE_NAME>
4488

> <PUBCHEM_EXT_DATASOURCE_REGID>
SCHEMBL16119668

> <PUBCHEM_SUBSTANCE_COMMENT>
InChI=1S/C18H13ClN2O2S/c19-14-8-4-5-11-9-13(17(22)23-16(11)14)15-10-24-18(21-15)20-12-6-2-1-3-7-12/h1-8,10,13H,9H2,(H,20,21)
InChIKey=JHVLPENBKJIXTE-UHFFFAOYSA-N

> <PUBCHEM_SUBSTANCE_SYNONYM>
SCHEMBL16119668

> <PUBCHEM_XREF_EXT_ID>
SCHEMBL16119668

> <PUBCHEM_EXT_DATASOURCE_URL>
https://www.surechembl.org/

> <PUBCHEM_EXT_SUBSTANCE_URL>
https://www.surechembl.org/chemical/SCHEMBL16119668

> <PUBCHEM_CID_ASSOCIATIONS>
117608424  1

> <PUBCHEM_COORDINATE_TYPE>
1
3

$$$$
