310949376
  -OEChem-07211613022D

 27 28  0     1  0  0  0  0  0999 V2000
   -3.4309   -1.4890    0.0000 Cl  0  0  0  0  0  0  0  0  0  0  0  0
   -1.1230    1.6503    0.0000 F   0  0  0  0  0  0  0  0  0  0  0  0
   -0.3288    1.4394    0.0000 F   0  0  0  0  0  0  0  0  0  0  0  0
   -0.1179    0.6452    0.0000 F   0  0  0  0  0  0  0  0  0  0  0  0
   -2.5250    1.2780    0.0000 O   0  0  0  0  0  0  0  0  0  0  0  0
   -0.8624   -3.0028    0.0000 N   0  0  0  0  0  0  0  0  0  0  0  0
   -1.6441   -3.2510    0.0000 N   0  0  0  0  0  0  0  0  0  0  0  0
    0.5770   -2.1715    0.0000 N   0  0  3  0  0  0  0  0  0  0  0  0
    2.7112   -1.7619    0.0000 N   0  0  0  0  0  0  0  0  0  0  0  0
   -1.8674   -1.1043    0.0000 C   0  0  0  0  0  0  0  0  0  0  0  0
   -1.5076    0.2606    0.0000 C   0  0  0  0  0  0  0  0  0  0  0  0
   -1.6565   -1.8985    0.0000 C   0  0  0  0  0  0  0  0  0  0  0  0
   -2.3017    0.4963    0.0000 C   0  0  0  0  0  0  0  0  0  0  0  0
   -2.6740   -0.8934    0.0000 C   0  0  0  0  0  0  0  0  0  0  0  0
   -1.2843   -0.5212    0.0000 C   0  0  0  0  0  0  0  0  0  0  0  0
   -0.9120    0.8686    0.0000 C   0  0  0  0  0  0  0  0  0  0  0  0
   -0.8624   -2.1591    0.0000 C   0  0  0  0  0  0  0  0  0  0  0  0
   -2.8725   -0.0993    0.0000 C   0  0  0  0  0  0  0  0  0  0  0  0
   -2.1280   -2.5934    0.0000 C   0  0  0  0  0  0  0  0  0  0  0  0
   -0.1551   -1.7619    0.0000 C   0  0  0  0  0  0  0  0  0  0  0  0
   -1.9295    1.8737    0.0000 C   0  0  0  0  0  0  0  0  0  0  0  0
    1.2719   -1.7619    0.0000 C   0  0  0  0  0  0  0  0  0  0  0  0
    0.5770   -2.9904    0.0000 C   0  0  0  0  0  0  0  0  0  0  0  0
   -2.1404    2.6553    0.0000 C   0  0  0  0  0  0  0  0  0  0  0  0
    2.0040   -2.1715    0.0000 C   0  0  0  0  0  0  0  0  0  0  0  0
   -1.5573    3.2510    0.0000 C   0  0  0  0  0  0  0  0  0  0  0  0
    3.4309   -2.1715    0.0000 C   0  0  0  0  0  0  0  0  0  0  0  0
  1 14  1  0  0  0  0
  2 16  1  0  0  0  0
  3 16  1  0  0  0  0
  4 16  1  0  0  0  0
  5 13  1  0  0  0  0
  5 21  1  0  0  0  0
  6  7  1  0  0  0  0
  6 17  2  0  0  0  0
  7 19  1  0  0  0  0
  8 20  1  0  0  0  0
  8 22  1  0  0  0  0
  8 23  1  0  0  0  0
  9 25  1  0  0  0  0
  9 27  1  0  0  0  0
 10 12  1  0  0  0  0
 10 14  2  0  0  0  0
 10 15  1  0  0  0  0
 11 13  1  0  0  0  0
 11 15  2  0  0  0  0
 11 16  1  0  0  0  0
 12 17  1  0  0  0  0
 12 19  2  0  0  0  0
 13 18  2  0  0  0  0
 14 18  1  0  0  0  0
 17 20  1  0  0  0  0
 21 24  1  0  0  0  0
 22 25  1  0  0  0  0
 24 26  1  0  0  0  0
M  END
> <PUBCHEM_COMPOUND_ID_TYPE>
0

> <PUBCHEM_TOTAL_CHARGE>
0

> <PUBCHEM_SUBSTANCE_ID>
310949376

> <PUBCHEM_SUBSTANCE_VERSION>
1

> <PUBCHEM_EXT_DATASOURCE_NAME>
4488

> <PUBCHEM_EXT_DATASOURCE_REGID>
SCHEMBL16127568

> <PUBCHEM_SUBSTANCE_COMMENT>
InChI=1S/C18H24ClF3N4O/c1-4-7-27-17-9-15(19)12(8-14(17)18(20,21)22)13-10-24-25-16(13)11-26(3)6-5-23-2/h8-10,23H,4-7,11H2,1-3H3,(H,24,25)
InChIKey=SYYALQMSCOYDCV-UHFFFAOYSA-N

> <PUBCHEM_SUBSTANCE_SYNONYM>
SCHEMBL16127568

> <PUBCHEM_XREF_EXT_ID>
SCHEMBL16127568

> <PUBCHEM_EXT_DATASOURCE_URL>
https://www.surechembl.org/

> <PUBCHEM_EXT_SUBSTANCE_URL>
https://www.surechembl.org/chemical/SCHEMBL16127568

> <PUBCHEM_CID_ASSOCIATIONS>
117614834  1

> <PUBCHEM_COORDINATE_TYPE>
1
3

$$$$
