310945688
  -OEChem-07211613022D

 35 38  0     1  0  0  0  0  0999 V2000
    4.8654    0.8180    0.0000 O   0  0  0  0  0  0  0  0  0  0  0  0
    1.9334    0.9667    0.0000 O   0  0  0  0  0  0  0  0  0  0  0  0
   -3.7818   -0.6905    0.0000 O   0  0  0  0  0  0  0  0  0  0  0  0
    6.4801   -0.8817    0.0000 O   0  0  0  0  0  0  0  0  0  0  0  0
    6.1827   -2.2840    0.0000 O   0  0  0  0  0  0  0  0  0  0  0  0
    3.9730   -0.1806    0.0000 C   0  0  0  0  0  0  0  0  0  0  0  0
    3.9943    0.6267    0.0000 C   0  0  0  0  0  0  0  0  0  0  0  0
    4.7804   -0.4568    0.0000 C   0  0  3  0  0  0  0  0  0  0  0  0
   -1.7210    0.6267    0.0000 C   0  0  0  0  0  0  0  0  0  0  0  0
   -1.0199    1.0517    0.0000 C   0  0  0  0  0  0  0  0  0  0  0  0
    2.5708    0.6267    0.0000 C   0  0  0  0  0  0  0  0  0  0  0  0
    3.2720    1.0304    0.0000 C   0  0  0  0  0  0  0  0  0  0  0  0
   -2.4646    1.0304    0.0000 C   0  0  0  0  0  0  0  0  0  0  0  0
   -1.7422   -0.2018    0.0000 C   0  0  0  0  0  0  0  0  0  0  0  0
    3.2720   -0.6055    0.0000 C   0  0  0  0  0  0  0  0  0  0  0  0
    5.2478    0.2231    0.0000 C   0  0  0  0  0  0  0  0  0  0  0  0
    2.5708   -0.2018    0.0000 C   0  0  0  0  0  0  0  0  0  0  0  0
   -0.2762    0.6480    0.0000 C   0  0  0  0  0  0  0  0  0  0  0  0
    0.4037    1.0517    0.0000 C   0  0  0  0  0  0  0  0  0  0  0  0
   -3.1657   -0.2018    0.0000 C   0  0  0  0  0  0  0  0  0  0  0  0
    5.0142   -1.2429    0.0000 C   0  0  0  0  0  0  0  0  0  0  0  0
   -3.1445    0.6267    0.0000 C   0  0  0  0  0  0  0  0  0  0  0  0
   -2.4433   -0.6055    0.0000 C   0  0  0  0  0  0  0  0  0  0  0  0
   -0.9986    1.8803    0.0000 C   0  0  0  0  0  0  0  0  0  0  0  0
    1.1473    0.6267    0.0000 C   0  0  0  0  0  0  0  0  0  0  0  0
    0.4037    1.8591    0.0000 C   0  0  0  0  0  0  0  0  0  0  0  0
   -0.2974    2.2840    0.0000 C   0  0  0  0  0  0  0  0  0  0  0  0
    5.8215   -1.4129    0.0000 C   0  0  0  0  0  0  0  0  0  0  0  0
   -2.4646    1.8803    0.0000 C   0  0  0  0  0  0  0  0  0  0  0  0
   -0.9986   -0.6267    0.0000 C   0  0  0  0  0  0  0  0  0  0  0  0
   -4.6105   -0.2231    0.0000 C   0  0  0  0  0  0  0  0  0  0  0  0
   -5.2903   -0.6055    0.0000 C   0  0  0  0  0  0  0  0  0  0  0  0
    6.1615   -0.0106    0.0000 C   0  0  0  0  0  0  0  0  0  0  0  0
   -6.0552   -0.2231    0.0000 C   0  0  0  0  0  0  0  0  0  0  0  0
   -6.4801   -0.4993    0.0000 C   0  0  0  0  0  0  0  0  0  0  0  0
  1  7  1  0  0  0  0
  1 16  1  0  0  0  0
  2 11  1  0  0  0  0
  2 25  1  0  0  0  0
  3 20  1  0  0  0  0
  3 31  1  0  0  0  0
  4 28  1  0  0  0  0
  4 33  1  0  0  0  0
  5 28  2  0  0  0  0
  6  7  1  0  0  0  0
  6  8  1  0  0  0  0
  6 15  2  0  0  0  0
  7 12  2  0  0  0  0
  8 16  1  0  0  0  0
  8 21  1  0  0  0  0
  9 10  1  0  0  0  0
  9 13  2  0  0  0  0
  9 14  1  0  0  0  0
 10 18  2  0  0  0  0
 10 24  1  0  0  0  0
 11 12  1  0  0  0  0
 11 17  2  0  0  0  0
 13 22  1  0  0  0  0
 13 29  1  0  0  0  0
 14 23  2  0  0  0  0
 14 30  1  0  0  0  0
 15 17  1  0  0  0  0
 18 19  1  0  0  0  0
 19 25  1  0  0  0  0
 19 26  2  0  0  0  0
 20 22  2  0  0  0  0
 20 23  1  0  0  0  0
 21 28  1  0  0  0  0
 24 27  2  0  0  0  0
 26 27  1  0  0  0  0
 31 32  1  0  0  0  0
 32 34  1  0  0  0  0
 34 35  1  0  0  0  0
M  END
> <PUBCHEM_COMPOUND_ID_TYPE>
0

> <PUBCHEM_TOTAL_CHARGE>
0

> <PUBCHEM_SUBSTANCE_ID>
310945688

> <PUBCHEM_SUBSTANCE_VERSION>
1

> <PUBCHEM_EXT_DATASOURCE_NAME>
4488

> <PUBCHEM_EXT_DATASOURCE_REGID>
SCHEMBL16123789

> <PUBCHEM_SUBSTANCE_COMMENT>
InChI=1S/C30H34O5/c1-5-6-12-33-26-13-20(2)30(21(3)14-26)23-9-7-8-22(15-23)18-34-25-10-11-27-24(16-29(31)32-4)19-35-28(27)17-25/h7-11,13-15,17,24H,5-6,12,16,18-19H2,1-4H3
InChIKey=SSXZDHMNDFNOSV-UHFFFAOYSA-N

> <PUBCHEM_SUBSTANCE_SYNONYM>
SCHEMBL16123789

> <PUBCHEM_XREF_EXT_ID>
SCHEMBL16123789

> <PUBCHEM_EXT_DATASOURCE_URL>
https://www.surechembl.org/

> <PUBCHEM_EXT_SUBSTANCE_URL>
https://www.surechembl.org/chemical/SCHEMBL16123789

> <PUBCHEM_CID_ASSOCIATIONS>
117611685  1

> <PUBCHEM_COORDINATE_TYPE>
1
3

$$$$
