310947854
  -OEChem-07211613022D

 13 13  0     1  0  0  0  0  0999 V2000
   -3.3999    1.2456    0.0000 O   0  0  0  0  0  0  0  0  0  0  0  0
   -3.3999    2.8956    0.0000 N   0  0  3  0  0  0  0  0  0  0  0  0
   -2.6854    2.4831    0.0000 C   0  0  3  0  0  0  0  0  0  0  0  0
   -3.3999    3.7206    0.0000 C   0  0  0  0  0  0  0  0  0  0  0  0
   -4.1144    2.4831    0.0000 C   0  0  0  0  0  0  0  0  0  0  0  0
   -2.6854    4.9581    0.0000 C   0  0  0  0  0  0  0  0  0  0  0  0
   -2.6854    1.6581    0.0000 C   0  0  0  0  0  0  0  0  0  0  0  0
   -2.6854    4.1331    0.0000 C   0  0  0  0  0  0  0  0  0  0  0  0
   -4.1144    1.6581    0.0000 C   0  0  0  0  0  0  0  0  0  0  0  0
   -1.9710    2.8956    0.0000 C   0  0  0  0  0  0  0  0  0  0  0  0
   -3.5104    4.9581    0.0000 C   0  0  0  0  0  0  0  0  0  0  0  0
   -1.8604    4.9581    0.0000 C   0  0  0  0  0  0  0  0  0  0  0  0
   -2.6854    5.7831    0.0000 C   0  0  0  0  0  0  0  0  0  0  0  0
  1  7  1  0  0  0  0
  1  9  1  0  0  0  0
  2  3  1  0  0  0  0
  2  4  1  0  0  0  0
  2  5  1  0  0  0  0
  3  7  1  0  0  0  0
  3 10  1  0  0  0  0
  4  8  1  0  0  0  0
  5  9  1  0  0  0  0
  6  8  1  0  0  0  0
  6 11  1  0  0  0  0
  6 12  1  0  0  0  0
  6 13  1  0  0  0  0
M  END
> <PUBCHEM_COMPOUND_ID_TYPE>
0

> <PUBCHEM_TOTAL_CHARGE>
0

> <PUBCHEM_SUBSTANCE_ID>
310947854

> <PUBCHEM_SUBSTANCE_VERSION>
1

> <PUBCHEM_EXT_DATASOURCE_NAME>
4488

> <PUBCHEM_EXT_DATASOURCE_REGID>
SCHEMBL16126028

> <PUBCHEM_SUBSTANCE_COMMENT>
InChI=1S/C11H23NO/c1-10-9-13-8-7-12(10)6-5-11(2,3)4/h10H,5-9H2,1-4H3
InChIKey=SJPYSPRUTFECNF-UHFFFAOYSA-N

> <PUBCHEM_SUBSTANCE_SYNONYM>
SCHEMBL16126028

> <PUBCHEM_XREF_EXT_ID>
SCHEMBL16126028

> <PUBCHEM_EXT_DATASOURCE_URL>
https://www.surechembl.org/

> <PUBCHEM_EXT_SUBSTANCE_URL>
https://www.surechembl.org/chemical/SCHEMBL16126028

> <PUBCHEM_CID_ASSOCIATIONS>
117613518  1

> <PUBCHEM_COORDINATE_TYPE>
1
3

> <PUBCHEM_BONDANNOTATIONS>
6  11  3
6  12  3

$$$$
