310932876
  -OEChem-07211613022D

 22 24  0     1  0  0  0  0  0999 V2000
    3.5750   -1.6298    0.0000 O   0  0  0  0  0  0  0  0  0  0  0  0
    4.7053   -3.6013    0.0000 O   0  0  0  0  0  0  0  0  0  0  0  0
    5.4414   -2.3658    0.0000 O   0  0  0  0  0  0  0  0  0  0  0  0
    0.8149    0.0000    0.0000 O   0  0  0  0  0  0  0  0  0  0  0  0
    3.1544   -2.3658    0.0000 C   0  0  3  0  0  0  0  0  0  0  0  0
    3.9956   -2.3658    0.0000 C   0  0  3  0  0  0  0  0  0  0  0  0
    2.5761   -1.7612    0.0000 C   0  0  0  0  0  0  0  0  0  0  0  0
    4.7053   -2.7601    0.0000 C   0  0  0  0  0  0  0  0  0  0  0  0
    2.4446   -2.7601    0.0000 C   0  0  0  0  0  0  0  0  0  0  0  0
    1.7612   -1.9715    0.0000 C   0  0  0  0  0  0  0  0  0  0  0  0
    2.7864   -0.9463    0.0000 C   0  0  0  0  0  0  0  0  0  0  0  0
    1.1829   -1.3932    0.0000 C   0  0  0  0  0  0  0  0  0  0  0  0
    2.2081   -0.3680    0.0000 C   0  0  0  0  0  0  0  0  0  0  0  0
    1.3932   -0.6046    0.0000 C   0  0  0  0  0  0  0  0  0  0  0  0
    2.4446   -3.6013    0.0000 C   0  0  0  0  0  0  0  0  0  0  0  0
    5.4414   -4.0219    0.0000 C   0  0  0  0  0  0  0  0  0  0  0  0
    6.1511   -3.6013    0.0000 C   0  0  0  0  0  0  0  0  0  0  0  0
    5.4414   -4.8367    0.0000 C   0  0  0  0  0  0  0  0  0  0  0  0
    6.8608   -3.9956    0.0000 C   0  0  0  0  0  0  0  0  0  0  0  0
    6.1511   -5.2573    0.0000 C   0  0  0  0  0  0  0  0  0  0  0  0
    6.8608   -4.8367    0.0000 C   0  0  0  0  0  0  0  0  0  0  0  0
    0.0000   -0.2103    0.0000 C   0  0  0  0  0  0  0  0  0  0  0  0
  1  5  1  0  0  0  0
  1  6  1  0  0  0  0
  2  8  1  0  0  0  0
  2 16  1  0  0  0  0
  3  8  2  0  0  0  0
  4 14  1  0  0  0  0
  4 22  1  0  0  0  0
  5  6  1  0  0  0  0
  5  7  1  0  0  0  0
  5  9  1  0  0  0  0
  6  8  1  0  0  0  0
  7 10  2  0  0  0  0
  7 11  1  0  0  0  0
  9 15  1  0  0  0  0
 10 12  1  0  0  0  0
 11 13  2  0  0  0  0
 12 14  2  0  0  0  0
 13 14  1  0  0  0  0
 16 17  2  0  0  0  0
 16 18  1  0  0  0  0
 17 19  1  0  0  0  0
 18 20  2  0  0  0  0
 19 21  2  0  0  0  0
 20 21  1  0  0  0  0
M  END
> <PUBCHEM_COMPOUND_ID_TYPE>
0

> <PUBCHEM_TOTAL_CHARGE>
0

> <PUBCHEM_SUBSTANCE_ID>
310932876

> <PUBCHEM_SUBSTANCE_VERSION>
1

> <PUBCHEM_EXT_DATASOURCE_NAME>
4488

> <PUBCHEM_EXT_DATASOURCE_REGID>
SCHEMBL16110269

> <PUBCHEM_SUBSTANCE_COMMENT>
InChI=1S/C18H18O4/c1-3-18(13-9-11-14(20-2)12-10-13)16(22-18)17(19)21-15-7-5-4-6-8-15/h4-12,16H,3H2,1-2H3
InChIKey=JYUORVMGBXMRKU-UHFFFAOYSA-N

> <PUBCHEM_SUBSTANCE_SYNONYM>
SCHEMBL16110269

> <PUBCHEM_XREF_EXT_ID>
SCHEMBL16110269

> <PUBCHEM_EXT_DATASOURCE_URL>
https://www.surechembl.org/

> <PUBCHEM_EXT_SUBSTANCE_URL>
https://www.surechembl.org/chemical/SCHEMBL16110269

> <PUBCHEM_CID_ASSOCIATIONS>
117601359  1

> <PUBCHEM_COORDINATE_TYPE>
1
3

$$$$
