310930891
  -OEChem-07211613022D

 26 30  0     1  0  0  0  0  0999 V2000
    4.6911   -2.7434    0.0000 O   0  0  0  0  0  0  0  0  0  0  0  0
    4.5026    0.0000    0.0000 O   0  0  0  0  0  0  0  0  0  0  0  0
    0.0000   -2.5341    0.0000 O   0  0  0  0  0  0  0  0  0  0  0  0
    4.6911   -1.4241    0.0000 N   0  0  0  0  0  0  0  0  0  0  0  0
    0.4188   -3.2461    0.0000 N   0  0  0  0  0  0  0  0  0  0  0  0
    4.2303   -2.0942    0.0000 C   0  0  3  0  0  0  0  0  0  0  0  0
    3.4765   -1.8429    0.0000 C   0  0  0  0  0  0  0  0  0  0  0  0
    3.4765   -1.0261    0.0000 C   0  0  0  0  0  0  0  0  0  0  0  0
    4.2303   -0.7749    0.0000 C   0  0  0  0  0  0  0  0  0  0  0  0
    3.7487   -2.7644    0.0000 C   0  0  0  0  0  0  0  0  0  0  0  0
    2.7434   -2.2618    0.0000 C   0  0  0  0  0  0  0  0  0  0  0  0
    5.5079   -1.6754    0.0000 C   0  0  0  0  0  0  0  0  0  0  0  0
    2.0314   -1.8429    0.0000 C   0  0  0  0  0  0  0  0  0  0  0  0
    2.7434   -0.6073    0.0000 C   0  0  0  0  0  0  0  0  0  0  0  0
    5.5079   -2.4712    0.0000 C   0  0  0  0  0  0  0  0  0  0  0  0
    1.2984   -2.2618    0.0000 C   0  0  0  0  0  0  0  0  0  0  0  0
    2.0314   -1.0261    0.0000 C   0  0  0  0  0  0  0  0  0  0  0  0
    4.0838   -3.5183    0.0000 C   0  0  0  0  0  0  0  0  0  0  0  0
    2.9319   -2.6806    0.0000 C   0  0  0  0  0  0  0  0  0  0  0  0
    0.5445   -1.9267    0.0000 C   0  0  0  0  0  0  0  0  0  0  0  0
    1.2147   -3.0785    0.0000 C   0  0  0  0  0  0  0  0  0  0  0  0
    3.6021   -4.1885    0.0000 C   0  0  0  0  0  0  0  0  0  0  0  0
    2.4502   -3.3508    0.0000 C   0  0  0  0  0  0  0  0  0  0  0  0
    2.7853   -4.1047    0.0000 C   0  0  0  0  0  0  0  0  0  0  0  0
    0.3769   -1.1309    0.0000 C   0  0  0  0  0  0  0  0  0  0  0  0
    1.8220   -3.6230    0.0000 C   0  0  0  0  0  0  0  0  0  0  0  0
  1  6  1  0  0  0  0
  1 15  1  0  0  0  0
  2  9  2  0  0  0  0
  3  5  1  0  0  0  0
  3 20  1  0  0  0  0
  4  6  1  0  0  0  0
  4  9  1  0  0  0  0
  4 12  1  0  0  0  0
  5 21  2  0  0  0  0
  6  7  1  0  0  0  0
  6 10  1  0  0  0  0
  7  8  2  0  0  0  0
  7 11  1  0  0  0  0
  8  9  1  0  0  0  0
  8 14  1  0  0  0  0
 10 18  2  0  0  0  0
 10 19  1  0  0  0  0
 11 13  2  0  0  0  0
 12 15  1  0  0  0  0
 13 16  1  0  0  0  0
 13 17  1  0  0  0  0
 14 17  2  0  0  0  0
 16 20  2  0  0  0  0
 16 21  1  0  0  0  0
 18 22  1  0  0  0  0
 19 23  2  0  0  0  0
 20 25  1  0  0  0  0
 21 26  1  0  0  0  0
 22 24  2  0  0  0  0
 23 24  1  0  0  0  0
M  END
> <PUBCHEM_COMPOUND_ID_TYPE>
0

> <PUBCHEM_TOTAL_CHARGE>
0

> <PUBCHEM_SUBSTANCE_ID>
310930891

> <PUBCHEM_SUBSTANCE_VERSION>
1

> <PUBCHEM_EXT_DATASOURCE_NAME>
4488

> <PUBCHEM_EXT_DATASOURCE_REGID>
SCHEMBL16108189

> <PUBCHEM_SUBSTANCE_COMMENT>
InChI=1S/C21H18N2O3/c1-13-19(14(2)26-22-13)15-8-9-17-18(12-15)21(16-6-4-3-5-7-16)23(20(17)24)10-11-25-21/h3-9,12H,10-11H2,1-2H3
InChIKey=JQJGXXHKQOZMPK-UHFFFAOYSA-N

> <PUBCHEM_SUBSTANCE_SYNONYM>
SCHEMBL16108189

> <PUBCHEM_XREF_EXT_ID>
SCHEMBL16108189

> <PUBCHEM_EXT_DATASOURCE_URL>
https://www.surechembl.org/

> <PUBCHEM_EXT_SUBSTANCE_URL>
https://www.surechembl.org/chemical/SCHEMBL16108189

> <PUBCHEM_CID_ASSOCIATIONS>
86295674  1

> <PUBCHEM_COORDINATE_TYPE>
1
3

$$$$
