310941616
  -OEChem-07211613022D

 34 38  0     1  0  0  0  0  0999 V2000
    1.8302    2.5691    0.0000 S   0  0  0  0  0  0  0  0  0  0  0  0
   -0.5069   -0.0945    0.0000 O   0  0  0  0  0  0  0  0  0  0  0  0
    0.9365   -0.0945    0.0000 O   0  0  0  0  0  0  0  0  0  0  0  0
    4.7172    1.5895    0.0000 O   0  0  0  0  0  0  0  0  0  0  0  0
    1.6927    1.2287    0.0000 N   0  0  0  0  0  0  0  0  0  0  0  0
   -3.3596   -0.0945    0.0000 N   0  0  3  0  0  0  0  0  0  0  0  0
    3.0674    1.7614    0.0000 N   0  0  0  0  0  0  0  0  0  0  0  0
    0.2148    1.1599    0.0000 C   0  0  0  0  0  0  0  0  0  0  0  0
   -1.2115    1.1599    0.0000 C   0  0  0  0  0  0  0  0  0  0  0  0
   -1.2287    0.3351    0.0000 C   0  0  0  0  0  0  0  0  0  0  0  0
    0.9193    1.5895    0.0000 C   0  0  0  0  0  0  0  0  0  0  0  0
    0.1976    0.3351    0.0000 C   0  0  0  0  0  0  0  0  0  0  0  0
   -0.4897    1.5724    0.0000 C   0  0  0  0  0  0  0  0  0  0  0  0
   -1.9161   -0.0602    0.0000 C   0  0  0  0  0  0  0  0  0  0  0  0
   -2.6722    0.3351    0.0000 C   0  0  0  0  0  0  0  0  0  0  0  0
    2.2254    1.8645    0.0000 C   0  0  0  0  0  0  0  0  0  0  0  0
   -1.9505    1.5552    0.0000 C   0  0  0  0  0  0  0  0  0  0  0  0
    1.0225    2.3972    0.0000 C   0  0  0  0  0  0  0  0  0  0  0  0
   -2.6378    1.1771    0.0000 C   0  0  0  0  0  0  0  0  0  0  0  0
    3.3940    1.0053    0.0000 C   0  0  0  0  0  0  0  0  0  0  0  0
    4.2188    0.9193    0.0000 C   0  0  0  0  0  0  0  0  0  0  0  0
   -3.3768   -0.9193    0.0000 C   0  0  0  0  0  0  0  0  0  0  0  0
    2.9299    0.3351    0.0000 C   0  0  0  0  0  0  0  0  0  0  0  0
   -4.0814   -1.3146    0.0000 C   0  0  0  0  0  0  0  0  0  0  0  0
    4.5453    0.1633    0.0000 C   0  0  0  0  0  0  0  0  0  0  0  0
   -4.0985    0.3179    0.0000 C   0  0  0  0  0  0  0  0  0  0  0  0
    3.2565   -0.4038    0.0000 C   0  0  0  0  0  0  0  0  0  0  0  0
    4.0814   -0.4897    0.0000 C   0  0  0  0  0  0  0  0  0  0  0  0
   -4.7859   -0.9365    0.0000 C   0  0  0  0  0  0  0  0  0  0  0  0
   -4.0985   -2.1567    0.0000 C   0  0  0  0  0  0  0  0  0  0  0  0
   -5.5248   -1.3146    0.0000 C   0  0  0  0  0  0  0  0  0  0  0  0
   -4.8031   -2.5691    0.0000 C   0  0  0  0  0  0  0  0  0  0  0  0
    5.5248    1.4865    0.0000 C   0  0  0  0  0  0  0  0  0  0  0  0
   -5.5076   -2.1567    0.0000 C   0  0  0  0  0  0  0  0  0  0  0  0
  1 16  1  0  0  0  0
  1 18  1  0  0  0  0
  2 10  1  0  0  0  0
  2 12  1  0  0  0  0
  3 12  2  0  0  0  0
  4 21  1  0  0  0  0
  4 33  1  0  0  0  0
  5 11  1  0  0  0  0
  5 16  2  0  0  0  0
  6 15  1  0  0  0  0
  6 22  1  0  0  0  0
  6 26  1  0  0  0  0
  7 16  1  0  0  0  0
  7 20  1  0  0  0  0
  8 11  1  0  0  0  0
  8 12  1  0  0  0  0
  8 13  2  0  0  0  0
  9 10  1  0  0  0  0
  9 13  1  0  0  0  0
  9 17  2  0  0  0  0
 10 14  2  0  0  0  0
 11 18  2  0  0  0  0
 14 15  1  0  0  0  0
 15 19  2  0  0  0  0
 17 19  1  0  0  0  0
 20 21  1  0  0  0  0
 20 23  2  0  0  0  0
 21 25  2  0  0  0  0
 22 24  1  0  0  0  0
 23 27  1  0  0  0  0
 24 29  2  0  0  0  0
 24 30  1  0  0  0  0
 25 28  1  0  0  0  0
 27 28  2  0  0  0  0
 29 31  1  0  0  0  0
 30 32  2  0  0  0  0
 31 34  2  0  0  0  0
 32 34  1  0  0  0  0
M  END
> <PUBCHEM_COMPOUND_ID_TYPE>
0

> <PUBCHEM_TOTAL_CHARGE>
0

> <PUBCHEM_SUBSTANCE_ID>
310941616

> <PUBCHEM_SUBSTANCE_VERSION>
1

> <PUBCHEM_EXT_DATASOURCE_NAME>
4488

> <PUBCHEM_EXT_DATASOURCE_REGID>
SCHEMBL16119647

> <PUBCHEM_SUBSTANCE_COMMENT>
InChI=1S/C27H23N3O3S/c1-30(16-18-8-4-3-5-9-18)20-13-12-19-14-21(26(31)33-25(19)15-20)23-17-34-27(29-23)28-22-10-6-7-11-24(22)32-2/h3-15,17H,16H2,1-2H3,(H,28,29)
InChIKey=MPPIJVJXTKTDFA-UHFFFAOYSA-N

> <PUBCHEM_SUBSTANCE_SYNONYM>
SCHEMBL16119647

> <PUBCHEM_XREF_EXT_ID>
SCHEMBL16119647

> <PUBCHEM_EXT_DATASOURCE_URL>
https://www.surechembl.org/

> <PUBCHEM_EXT_SUBSTANCE_URL>
https://www.surechembl.org/chemical/SCHEMBL16119647

> <PUBCHEM_CID_ASSOCIATIONS>
86274270  1

> <PUBCHEM_COORDINATE_TYPE>
1
3

$$$$
