310943577
  -OEChem-07211613022D

 30 32  0     1  0  0  0  0  0999 V2000
    3.0740    2.1847    0.0000 O   0  0  0  0  0  0  0  0  0  0  0  0
    3.8087    0.7411    0.0000 N   0  0  0  0  0  0  0  0  0  0  0  0
   -2.6229   -1.3985    0.0000 N   0  0  3  0  0  0  0  0  0  0  0  0
    1.6820   -2.1847    0.0000 N   0  0  0  0  0  0  0  0  0  0  0  0
   -4.4016   -0.8700    0.0000 N   0  0  3  0  0  0  0  0  0  0  0  0
    0.2384   -0.5349    0.0000 C   0  0  0  0  0  0  0  0  0  0  0  0
    0.9345   -0.1224    0.0000 C   0  0  0  0  0  0  0  0  0  0  0  0
    0.2256   -1.3598    0.0000 C   0  0  0  0  0  0  0  0  0  0  0  0
   -1.2051   -1.3855    0.0000 C   0  0  0  0  0  0  0  0  0  0  0  0
    2.3651    0.7282    0.0000 C   0  0  0  0  0  0  0  0  0  0  0  0
   -0.4833   -0.1482    0.0000 C   0  0  0  0  0  0  0  0  0  0  0  0
   -0.4704   -1.7851    0.0000 C   0  0  0  0  0  0  0  0  0  0  0  0
    1.6691   -0.5220    0.0000 C   0  0  0  0  0  0  0  0  0  0  0  0
    0.9473    0.7153    0.0000 C   0  0  0  0  0  0  0  0  0  0  0  0
   -1.2051   -0.5606    0.0000 C   0  0  0  0  0  0  0  0  0  0  0  0
    3.0740    1.1407    0.0000 C   0  0  0  0  0  0  0  0  0  0  0  0
    2.3780   -0.0967    0.0000 C   0  0  0  0  0  0  0  0  0  0  0  0
    1.6434    1.1149    0.0000 C   0  0  0  0  0  0  0  0  0  0  0  0
   -1.9011   -1.7980    0.0000 C   0  0  0  0  0  0  0  0  0  0  0  0
    0.9602   -1.7851    0.0000 C   0  0  0  0  0  0  0  0  0  0  0  0
   -3.2931   -1.8624    0.0000 C   0  0  0  0  0  0  0  0  0  0  0  0
   -2.5843   -0.5736    0.0000 C   0  0  0  0  0  0  0  0  0  0  0  0
    3.8215   -0.0967    0.0000 C   0  0  0  0  0  0  0  0  0  0  0  0
    4.5047    1.1535    0.0000 C   0  0  0  0  0  0  0  0  0  0  0  0
   -4.1052   -1.6305    0.0000 C   0  0  0  0  0  0  0  0  0  0  0  0
   -3.1771   -0.0193    0.0000 C   0  0  0  0  0  0  0  0  0  0  0  0
   -4.0020   -0.1353    0.0000 C   0  0  0  0  0  0  0  0  0  0  0  0
    4.5304   -0.5091    0.0000 C   0  0  0  0  0  0  0  0  0  0  0  0
    5.2394    0.7540    0.0000 C   0  0  0  0  0  0  0  0  0  0  0  0
   -5.2394   -0.8700    0.0000 C   0  0  0  0  0  0  0  0  0  0  0  0
  1 16  2  0  0  0  0
  2 16  1  0  0  0  0
  2 23  1  0  0  0  0
  2 24  1  0  0  0  0
  3 19  1  0  0  0  0
  3 21  1  0  0  0  0
  3 22  1  0  0  0  0
  4 20  3  0  0  0  0
  5 25  1  0  0  0  0
  5 27  1  0  0  0  0
  5 30  1  0  0  0  0
  6  7  1  0  0  0  0
  6  8  1  0  0  0  0
  6 11  2  0  0  0  0
  7 13  2  0  0  0  0
  7 14  1  0  0  0  0
  8 12  2  0  0  0  0
  8 20  1  0  0  0  0
  9 12  1  0  0  0  0
  9 15  2  0  0  0  0
  9 19  1  0  0  0  0
 10 16  1  0  0  0  0
 10 17  2  0  0  0  0
 10 18  1  0  0  0  0
 11 15  1  0  0  0  0
 13 17  1  0  0  0  0
 14 18  2  0  0  0  0
 21 25  1  0  0  0  0
 22 26  1  0  0  0  0
 23 28  1  0  0  0  0
 24 29  1  0  0  0  0
 26 27  1  0  0  0  0
M  END
> <PUBCHEM_COMPOUND_ID_TYPE>
0

> <PUBCHEM_TOTAL_CHARGE>
0

> <PUBCHEM_SUBSTANCE_ID>
310943577

> <PUBCHEM_SUBSTANCE_VERSION>
1

> <PUBCHEM_EXT_DATASOURCE_NAME>
4488

> <PUBCHEM_EXT_DATASOURCE_REGID>
SCHEMBL16121644

> <PUBCHEM_SUBSTANCE_COMMENT>
InChI=1S/C25H32N4O/c1-4-29(5-2)25(30)22-10-8-21(9-11-22)24-12-7-20(17-23(24)18-26)19-28-14-6-13-27(3)15-16-28/h7-12,17H,4-6,13-16,19H2,1-3H3
InChIKey=MAFRMARZGFNCNM-UHFFFAOYSA-N

> <PUBCHEM_SUBSTANCE_SYNONYM>
SCHEMBL16121644

> <PUBCHEM_XREF_EXT_ID>
SCHEMBL16121644

> <PUBCHEM_EXT_DATASOURCE_URL>
https://www.surechembl.org/

> <PUBCHEM_EXT_SUBSTANCE_URL>
https://www.surechembl.org/chemical/SCHEMBL16121644

> <PUBCHEM_CID_ASSOCIATIONS>
86301358  1

> <PUBCHEM_COORDINATE_TYPE>
1
3

$$$$
