310941101
  -OEChem-07211613022D

 40 43  0     1  0  0  0  0  0999 V2000
    5.2088   -1.6437    0.0000 O   0  0  0  0  0  0  0  0  0  0  0  0
    4.0691    0.3288    0.0000 O   0  0  0  0  0  0  0  0  0  0  0  0
    1.6875   -1.6291    0.0000 O   0  0  0  0  0  0  0  0  0  0  0  0
   -0.4749    0.4457    0.0000 O   0  0  0  0  0  0  0  0  0  0  0  0
   -2.6373   -1.6291    0.0000 O   0  0  0  0  0  0  0  0  0  0  0  0
   -5.5156   -1.6291    0.0000 O   0  0  0  0  0  0  0  0  0  0  0  0
    2.4181   -0.3872    0.0000 N   0  0  0  0  0  0  0  0  0  0  0  0
    0.2557   -0.7963    0.0000 N   0  0  0  0  0  0  0  0  0  0  0  0
   -1.9068   -0.3872    0.0000 N   0  0  0  0  0  0  0  0  0  0  0  0
   -4.0691   -0.7963    0.0000 N   0  0  0  0  0  0  0  0  0  0  0  0
    4.7997   -0.9132    0.0000 C   0  0  3  0  0  0  0  0  0  0  0  0
    4.0691   -0.4895    0.0000 C   0  0  0  0  0  0  0  0  0  0  0  0
    4.4052   -1.6145    0.0000 C   0  0  0  0  0  0  0  0  0  0  0  0
    3.3824   -0.8985    0.0000 C   0  0  3  0  0  0  0  0  0  0  0  0
    5.5156   -0.4749    0.0000 C   0  0  0  0  0  0  0  0  0  0  0  0
    3.3678   -1.9798    0.0000 C   0  0  0  0  0  0  0  0  0  0  0  0
    1.7022   -0.7525    0.0000 C   0  0  0  0  0  0  0  0  0  0  0  0
    2.6373   -2.3889    0.0000 C   0  0  0  0  0  0  0  0  0  0  0  0
    0.9862   -0.3580    0.0000 C   0  0  3  0  0  0  0  0  0  0  0  0
    1.8775   -2.0675    0.0000 C   0  0  0  0  0  0  0  0  0  0  0  0
    2.5350   -3.2217    0.0000 C   0  0  0  0  0  0  0  0  0  0  0  0
    1.0009    0.4895    0.0000 C   0  0  0  0  0  0  0  0  0  0  0  0
   -0.4749   -0.3726    0.0000 C   0  0  0  0  0  0  0  0  0  0  0  0
   -1.1762   -0.7671    0.0000 C   0  0  3  0  0  0  0  0  0  0  0  0
    1.3369   -2.6811    0.0000 C   0  0  0  0  0  0  0  0  0  0  0  0
    1.7314   -3.3824    0.0000 C   0  0  0  0  0  0  0  0  0  0  0  0
    1.7022    0.8985    0.0000 C   0  0  0  0  0  0  0  0  0  0  0  0
    1.7168    1.7314    0.0000 C   0  0  0  0  0  0  0  0  0  0  0  0
   -2.6227   -0.7525    0.0000 C   0  0  0  0  0  0  0  0  0  0  0  0
   -3.3532   -0.3580    0.0000 C   0  0  0  0  0  0  0  0  0  0  0  0
   -1.1762   -1.6145    0.0000 C   0  0  0  0  0  0  0  0  0  0  0  0
    1.0009    2.1405    0.0000 C   0  0  0  0  0  0  0  0  0  0  0  0
    2.4181    2.1405    0.0000 C   0  0  0  0  0  0  0  0  0  0  0  0
   -4.0691   -1.5999    0.0000 C   0  0  0  0  0  0  0  0  0  0  0  0
   -4.7997   -0.3580    0.0000 C   0  0  0  0  0  0  0  0  0  0  0  0
    1.0009    2.9734    0.0000 C   0  0  0  0  0  0  0  0  0  0  0  0
    2.4181    2.9734    0.0000 C   0  0  0  0  0  0  0  0  0  0  0  0
   -4.7559   -2.0090    0.0000 C   0  0  0  0  0  0  0  0  0  0  0  0
   -5.4864   -0.7671    0.0000 C   0  0  0  0  0  0  0  0  0  0  0  0
    1.6875    3.3824    0.0000 C   0  0  0  0  0  0  0  0  0  0  0  0
  1 11  1  0  0  0  0
  1 13  1  0  0  0  0
  2 12  2  0  0  0  0
  3 17  2  0  0  0  0
  4 23  2  0  0  0  0
  5 29  2  0  0  0  0
  6 38  1  0  0  0  0
  6 39  1  0  0  0  0
  7 14  1  0  0  0  0
  7 17  1  0  0  0  0
  8 19  1  0  0  0  0
  8 23  1  0  0  0  0
  9 24  1  0  0  0  0
  9 29  1  0  0  0  0
 10 30  1  0  0  0  0
 10 34  1  0  0  0  0
 10 35  1  0  0  0  0
 11 12  1  0  0  0  0
 11 13  1  0  0  0  0
 11 15  1  0  0  0  0
 12 14  1  0  0  0  0
 14 16  1  0  0  0  0
 16 18  1  0  0  0  0
 17 19  1  0  0  0  0
 18 20  2  0  0  0  0
 18 21  1  0  0  0  0
 19 22  1  0  0  0  0
 20 25  1  0  0  0  0
 21 26  1  0  0  0  0
 22 27  1  0  0  0  0
 23 24  1  0  0  0  0
 24 31  1  0  0  0  0
 25 26  1  0  0  0  0
 27 28  1  0  0  0  0
 28 32  2  0  0  0  0
 28 33  1  0  0  0  0
 29 30  1  0  0  0  0
 32 36  1  0  0  0  0
 33 37  2  0  0  0  0
 34 38  1  0  0  0  0
 35 39  1  0  0  0  0
 36 40  2  0  0  0  0
 37 40  1  0  0  0  0
M  END
> <PUBCHEM_COMPOUND_ID_TYPE>
0

> <PUBCHEM_TOTAL_CHARGE>
0

> <PUBCHEM_SUBSTANCE_ID>
310941101

> <PUBCHEM_SUBSTANCE_VERSION>
1

> <PUBCHEM_EXT_DATASOURCE_NAME>
4488

> <PUBCHEM_EXT_DATASOURCE_REGID>
SCHEMBL16119061

> <PUBCHEM_SUBSTANCE_COMMENT>
InChI=1S/C30H42N4O6/c1-21(31-26(35)19-34-14-16-39-17-15-34)28(37)32-24(13-12-22-8-4-3-5-9-22)29(38)33-25(18-23-10-6-7-11-23)27(36)30(2)20-40-30/h3-5,8-10,21,24-25H,6-7,11-20H2,1-2H3,(H,31,35)(H,32,37)(H,33,38)
InChIKey=LRUHUZPKZNJSOW-UHFFFAOYSA-N

> <PUBCHEM_SUBSTANCE_SYNONYM>
SCHEMBL16119061

> <PUBCHEM_XREF_EXT_ID>
SCHEMBL16119061

> <PUBCHEM_EXT_DATASOURCE_URL>
https://www.surechembl.org/

> <PUBCHEM_EXT_SUBSTANCE_URL>
https://www.surechembl.org/chemical/SCHEMBL16119061

> <PUBCHEM_CID_ASSOCIATIONS>
86296924  1

> <PUBCHEM_COORDINATE_TYPE>
1
3

$$$$
