310943471
  -OEChem-07211613022D

 23 25  0     1  0  0  0  0  0999 V2000
   -0.3319    2.4725    0.0000 O   0  0  0  0  0  0  0  0  0  0  0  0
    0.3996    1.2260    0.0000 N   0  0  0  0  0  0  0  0  0  0  0  0
    2.2015    0.8197    0.0000 N   0  0  3  0  0  0  0  0  0  0  0  0
   -1.7273   -2.4725    0.0000 N   0  0  0  0  0  0  0  0  0  0  0  0
   -1.7408    0.0068    0.0000 C   0  0  0  0  0  0  0  0  0  0  0  0
   -1.0229    1.2396    0.0000 C   0  0  0  0  0  0  0  0  0  0  0  0
   -0.3319    1.6596    0.0000 C   0  0  0  0  0  0  0  0  0  0  0  0
   -1.0364    0.4132    0.0000 C   0  0  0  0  0  0  0  0  0  0  0  0
   -2.4590    0.4132    0.0000 C   0  0  0  0  0  0  0  0  0  0  0  0
   -1.7544   -0.8196    0.0000 C   0  0  0  0  0  0  0  0  0  0  0  0
   -1.7408    1.6460    0.0000 C   0  0  0  0  0  0  0  0  0  0  0  0
   -2.4454    1.2396    0.0000 C   0  0  0  0  0  0  0  0  0  0  0  0
    1.0094    1.7544    0.0000 C   0  0  0  0  0  0  0  0  0  0  0  0
    0.3996    0.4267    0.0000 C   0  0  0  0  0  0  0  0  0  0  0  0
   -2.4317   -1.2125    0.0000 C   0  0  0  0  0  0  0  0  0  0  0  0
   -1.0364   -1.2260    0.0000 C   0  0  0  0  0  0  0  0  0  0  0  0
   -2.9873    0.1016    0.0000 C   0  0  0  0  0  0  0  0  0  0  0  0
    1.8221    1.5918    0.0000 C   0  0  0  0  0  0  0  0  0  0  0  0
    1.0229   -0.0745    0.0000 C   0  0  0  0  0  0  0  0  0  0  0  0
   -2.4317   -2.0525    0.0000 C   0  0  0  0  0  0  0  0  0  0  0  0
   -1.0364   -2.0389    0.0000 C   0  0  0  0  0  0  0  0  0  0  0  0
    1.8357    0.1016    0.0000 C   0  0  0  0  0  0  0  0  0  0  0  0
    2.9873    0.6299    0.0000 C   0  0  0  0  0  0  0  0  0  0  0  0
  1  7  2  0  0  0  0
  2  7  1  0  0  0  0
  2 13  1  0  0  0  0
  2 14  1  0  0  0  0
  3 18  1  0  0  0  0
  3 22  1  0  0  0  0
  3 23  1  0  0  0  0
  4 20  2  0  0  0  0
  4 21  1  0  0  0  0
  5  8  2  0  0  0  0
  5  9  1  0  0  0  0
  5 10  1  0  0  0  0
  6  7  1  0  0  0  0
  6  8  1  0  0  0  0
  6 11  2  0  0  0  0
  9 12  2  0  0  0  0
  9 17  1  0  0  0  0
 10 15  2  0  0  0  0
 10 16  1  0  0  0  0
 11 12  1  0  0  0  0
 13 18  1  0  0  0  0
 14 19  1  0  0  0  0
 15 20  1  0  0  0  0
 16 21  2  0  0  0  0
 19 22  1  0  0  0  0
M  END
> <PUBCHEM_COMPOUND_ID_TYPE>
0

> <PUBCHEM_TOTAL_CHARGE>
0

> <PUBCHEM_SUBSTANCE_ID>
310943471

> <PUBCHEM_SUBSTANCE_VERSION>
1

> <PUBCHEM_EXT_DATASOURCE_NAME>
4488

> <PUBCHEM_EXT_DATASOURCE_REGID>
SCHEMBL16121536

> <PUBCHEM_SUBSTANCE_COMMENT>
InChI=1S/C19H23N3O/c1-15-4-5-17(14-18(15)16-6-8-20-9-7-16)19(23)22-11-3-10-21(2)12-13-22/h4-9,14H,3,10-13H2,1-2H3
InChIKey=HSJVMGWZMKVEHI-UHFFFAOYSA-N

> <PUBCHEM_SUBSTANCE_SYNONYM>
SCHEMBL16121536

> <PUBCHEM_XREF_EXT_ID>
SCHEMBL16121536

> <PUBCHEM_EXT_DATASOURCE_URL>
https://www.surechembl.org/

> <PUBCHEM_EXT_SUBSTANCE_URL>
https://www.surechembl.org/chemical/SCHEMBL16121536

> <PUBCHEM_CID_ASSOCIATIONS>
117609894  1

> <PUBCHEM_COORDINATE_TYPE>
1
3

$$$$
