310946802
  -OEChem-07211613022D

 20 22  0     1  0  0  0  0  0999 V2000
   -1.9153   -0.3792    0.0000 N   0  0  0  0  0  0  0  0  0  0  0  0
   -1.2741    2.4654    0.0000 N   0  0  0  0  0  0  0  0  0  0  0  0
   -2.6543    2.0956    0.0000 N   0  0  0  0  0  0  0  0  0  0  0  0
   -1.4304   -1.0466    0.0000 N   0  0  0  0  0  0  0  0  0  0  0  0
    0.7832    0.0333    0.0000 N   0  0  3  0  0  0  0  0  0  0  0  0
   -1.4304    0.2883    0.0000 C   0  0  0  0  0  0  0  0  0  0  0  0
   -1.6439    1.0852    0.0000 C   0  0  0  0  0  0  0  0  0  0  0  0
   -0.6458    0.0333    0.0000 C   0  0  0  0  0  0  0  0  0  0  0  0
   -2.0710    2.6789    0.0000 C   0  0  0  0  0  0  0  0  0  0  0  0
   -2.2845    3.4758    0.0000 C   0  0  0  0  0  0  0  0  0  0  0  0
   -1.0606    1.6685    0.0000 C   0  0  0  0  0  0  0  0  0  0  0  0
   -2.4408    1.2987    0.0000 C   0  0  0  0  0  0  0  0  0  0  0  0
   -0.6458   -0.7917    0.0000 C   0  0  0  0  0  0  0  0  0  0  0  0
   -2.0710    4.2727    0.0000 C   0  0  0  0  0  0  0  0  0  0  0  0
   -2.8679    4.0592    0.0000 C   0  0  0  0  0  0  0  0  0  0  0  0
    0.0687    0.4458    0.0000 C   0  0  0  0  0  0  0  0  0  0  0  0
    1.4976    0.4458    0.0000 C   0  0  0  0  0  0  0  0  0  0  0  0
    0.7832   -0.7917    0.0000 C   0  0  0  0  0  0  0  0  0  0  0  0
    2.2121    0.0333    0.0000 C   0  0  0  0  0  0  0  0  0  0  0  0
    2.9266    0.4458    0.0000 C   0  0  0  0  0  0  0  0  0  0  0  0
  1  4  1  0  0  0  0
  1  6  2  0  0  0  0
  2  9  2  0  0  0  0
  2 11  1  0  0  0  0
  3  9  1  0  0  0  0
  3 12  2  0  0  0  0
  4 13  1  0  0  0  0
  5 16  1  0  0  0  0
  5 17  1  0  0  0  0
  5 18  1  0  0  0  0
  6  7  1  0  0  0  0
  6  8  1  0  0  0  0
  7 11  2  0  0  0  0
  7 12  1  0  0  0  0
  8 13  2  0  0  0  0
  8 16  1  0  0  0  0
  9 10  1  0  0  0  0
 10 14  1  0  0  0  0
 10 15  1  0  0  0  0
 14 15  1  0  0  0  0
 17 19  1  0  0  0  0
 19 20  1  0  0  0  0
M  END
> <PUBCHEM_COMPOUND_ID_TYPE>
0

> <PUBCHEM_TOTAL_CHARGE>
0

> <PUBCHEM_SUBSTANCE_ID>
310946802

> <PUBCHEM_SUBSTANCE_VERSION>
1

> <PUBCHEM_EXT_DATASOURCE_NAME>
4488

> <PUBCHEM_EXT_DATASOURCE_REGID>
SCHEMBL16124926

> <PUBCHEM_SUBSTANCE_COMMENT>
InChI=1S/C15H21N5/c1-3-6-20(2)10-13-9-18-19-14(13)12-7-16-15(17-8-12)11-4-5-11/h7-9,11H,3-6,10H2,1-2H3,(H,18,19)
InChIKey=APPWKEDGVZIGIF-UHFFFAOYSA-N

> <PUBCHEM_SUBSTANCE_SYNONYM>
SCHEMBL16124926

> <PUBCHEM_XREF_EXT_ID>
SCHEMBL16124926

> <PUBCHEM_EXT_DATASOURCE_URL>
https://www.surechembl.org/

> <PUBCHEM_EXT_SUBSTANCE_URL>
https://www.surechembl.org/chemical/SCHEMBL16124926

> <PUBCHEM_CID_ASSOCIATIONS>
117612663  1

> <PUBCHEM_COORDINATE_TYPE>
1
3

$$$$
