310938492
  -OEChem-07211613022D

  7  6  0     1  0  0  0  0  0999 V2000
   -1.1270    1.1270    0.0000 Br  0  0  0  0  0  0  0  0  0  0  0  0
   -0.3020    1.1270    0.0000 Cl  0  0  0  0  0  0  0  0  0  0  0  0
   -0.7145    0.4125    0.0000 C   0  0  3  0  0  0  0  0  0  0  0  0
    0.0000    0.0000    0.0000 C   0  0  0  0  0  0  0  0  0  0  0  0
   -1.4290    0.0000    0.0000 C   0  0  0  0  0  0  0  0  0  0  0  0
    0.7145    0.4125    0.0000 C   0  0  0  0  0  0  0  0  0  0  0  0
    1.4290    0.0000    0.0000 C   0  0  0  0  0  0  0  0  0  0  0  0
  1  3  1  0  0  0  0
  2  3  1  0  0  0  0
  3  4  1  0  0  0  0
  3  5  1  0  0  0  0
  4  6  1  0  0  0  0
  6  7  1  0  0  0  0
M  END
> <PUBCHEM_COMPOUND_ID_TYPE>
0

> <PUBCHEM_TOTAL_CHARGE>
0

> <PUBCHEM_SUBSTANCE_ID>
310938492

> <PUBCHEM_SUBSTANCE_VERSION>
1

> <PUBCHEM_EXT_DATASOURCE_NAME>
4488

> <PUBCHEM_EXT_DATASOURCE_REGID>
SCHEMBL16116397

> <PUBCHEM_SUBSTANCE_COMMENT>
InChI=1S/C5H10BrCl/c1-3-4-5(2,6)7/h3-4H2,1-2H3
InChIKey=JPZNVNABTIVUOZ-UHFFFAOYSA-N

> <PUBCHEM_SUBSTANCE_SYNONYM>
SCHEMBL16116397

> <PUBCHEM_XREF_EXT_ID>
SCHEMBL16116397

> <PUBCHEM_EXT_DATASOURCE_URL>
https://www.surechembl.org/

> <PUBCHEM_EXT_SUBSTANCE_URL>
https://www.surechembl.org/chemical/SCHEMBL16116397

> <PUBCHEM_CID_ASSOCIATIONS>
117605948  1

> <PUBCHEM_COORDINATE_TYPE>
1
3

$$$$
