310947677
  -OEChem-07211613022D

 25 26  0     1  0  0  0  0  0999 V2000
    0.4213   10.2932    0.0000 F   0  0  0  0  0  0  0  0  0  0  0  0
   -0.5891   11.3036    0.0000 F   0  0  0  0  0  0  0  0  0  0  0  0
    0.2078   11.0901    0.0000 F   0  0  0  0  0  0  0  0  0  0  0  0
   -1.9693   10.9338    0.0000 O   0  0  0  0  0  0  0  0  0  0  0  0
   -0.3306    6.6663    0.0000 N   0  0  0  0  0  0  0  0  0  0  0  0
   -1.1152    6.4113    0.0000 N   0  0  0  0  0  0  0  0  0  0  0  0
    1.0983    7.4913    0.0000 N   0  0  3  0  0  0  0  0  0  0  0  0
   -0.9589    9.9233    0.0000 C   0  0  0  0  0  0  0  0  0  0  0  0
   -1.3288    8.5431    0.0000 C   0  0  0  0  0  0  0  0  0  0  0  0
   -1.1152    7.7462    0.0000 C   0  0  0  0  0  0  0  0  0  0  0  0
   -1.7558   10.1369    0.0000 C   0  0  0  0  0  0  0  0  0  0  0  0
   -0.3756   10.5067    0.0000 C   0  0  0  0  0  0  0  0  0  0  0  0
   -0.7454    9.1264    0.0000 C   0  0  0  0  0  0  0  0  0  0  0  0
   -0.3306    7.4913    0.0000 C   0  0  0  0  0  0  0  0  0  0  0  0
   -2.1257    8.7566    0.0000 C   0  0  0  0  0  0  0  0  0  0  0  0
   -2.3392    9.5535    0.0000 C   0  0  0  0  0  0  0  0  0  0  0  0
   -1.6002    7.0788    0.0000 C   0  0  0  0  0  0  0  0  0  0  0  0
    0.3839    7.9038    0.0000 C   0  0  0  0  0  0  0  0  0  0  0  0
   -2.7662   11.1473    0.0000 C   0  0  0  0  0  0  0  0  0  0  0  0
    1.8128    7.9038    0.0000 C   0  0  0  0  0  0  0  0  0  0  0  0
   -3.3496   10.5639    0.0000 C   0  0  0  0  0  0  0  0  0  0  0  0
   -2.9798   11.9442    0.0000 C   0  0  0  0  0  0  0  0  0  0  0  0
    1.0983    6.6663    0.0000 C   0  0  0  0  0  0  0  0  0  0  0  0
    2.5273    7.4913    0.0000 C   0  0  0  0  0  0  0  0  0  0  0  0
    3.2417    7.9038    0.0000 C   0  0  0  0  0  0  0  0  0  0  0  0
  1 12  1  0  0  0  0
  2 12  1  0  0  0  0
  3 12  1  0  0  0  0
  4 11  1  0  0  0  0
  4 19  1  0  0  0  0
  5  6  1  0  0  0  0
  5 14  2  0  0  0  0
  6 17  1  0  0  0  0
  7 18  1  0  0  0  0
  7 20  1  0  0  0  0
  7 23  1  0  0  0  0
  8 11  2  0  0  0  0
  8 12  1  0  0  0  0
  8 13  1  0  0  0  0
  9 10  1  0  0  0  0
  9 13  2  0  0  0  0
  9 15  1  0  0  0  0
 10 14  1  0  0  0  0
 10 17  2  0  0  0  0
 11 16  1  0  0  0  0
 14 18  1  0  0  0  0
 15 16  2  0  0  0  0
 19 21  1  0  0  0  0
 19 22  1  0  0  0  0
 20 24  1  0  0  0  0
 24 25  1  0  0  0  0
M  END
> <PUBCHEM_COMPOUND_ID_TYPE>
0

> <PUBCHEM_TOTAL_CHARGE>
0

> <PUBCHEM_SUBSTANCE_ID>
310947677

> <PUBCHEM_SUBSTANCE_VERSION>
1

> <PUBCHEM_EXT_DATASOURCE_NAME>
4488

> <PUBCHEM_EXT_DATASOURCE_REGID>
SCHEMBL16125845

> <PUBCHEM_SUBSTANCE_COMMENT>
InChI=1S/C18H24F3N3O/c1-5-8-24(4)11-16-14(10-22-23-16)13-6-7-17(25-12(2)3)15(9-13)18(19,20)21/h6-7,9-10,12H,5,8,11H2,1-4H3,(H,22,23)
InChIKey=AHNKXAFGDUJAMV-UHFFFAOYSA-N

> <PUBCHEM_SUBSTANCE_SYNONYM>
SCHEMBL16125845

> <PUBCHEM_XREF_EXT_ID>
SCHEMBL16125845

> <PUBCHEM_EXT_DATASOURCE_URL>
https://www.surechembl.org/

> <PUBCHEM_EXT_SUBSTANCE_URL>
https://www.surechembl.org/chemical/SCHEMBL16125845

> <PUBCHEM_CID_ASSOCIATIONS>
117613392  1

> <PUBCHEM_COORDINATE_TYPE>
1
3

$$$$
