310931419
  -OEChem-07211613022D

 19 20  0     1  0  0  0  0  0999 V2000
    0.0000   -2.7659    0.0000 Br  0  0  0  0  0  0  0  0  0  0  0  0
    1.4225   -5.2684    0.0000 Cl  0  0  0  0  0  0  0  0  0  0  0  0
    3.5298   -1.4488    0.0000 O   0  0  0  0  0  0  0  0  0  0  0  0
    4.2937   -1.9493    0.0000 O   0  0  0  0  0  0  0  0  0  0  0  0
    5.0050   -3.1874    0.0000 O   0  0  0  0  0  0  0  0  0  0  0  0
    2.2127   -1.4488    0.0000 N   0  0  0  0  0  0  0  0  0  0  0  0
    2.4498   -0.6849    0.0000 N   0  0  0  0  0  0  0  0  0  0  0  0
    2.8713   -2.7659    0.0000 C   0  0  3  0  0  0  0  0  0  0  0  0
    2.8713   -1.9493    0.0000 C   0  0  0  0  0  0  0  0  0  0  0  0
    2.1337   -3.1874    0.0000 C   0  0  0  0  0  0  0  0  0  0  0  0
    1.4225   -2.7922    0.0000 C   0  0  0  0  0  0  0  0  0  0  0  0
    2.1337   -4.0303    0.0000 C   0  0  0  0  0  0  0  0  0  0  0  0
    3.5825   -3.1874    0.0000 C   0  0  0  0  0  0  0  0  0  0  0  0
    3.2927   -0.6586    0.0000 C   0  0  0  0  0  0  0  0  0  0  0  0
    0.7112   -3.1874    0.0000 C   0  0  0  0  0  0  0  0  0  0  0  0
    1.4225   -4.4254    0.0000 C   0  0  0  0  0  0  0  0  0  0  0  0
    0.7112   -4.0039    0.0000 C   0  0  0  0  0  0  0  0  0  0  0  0
    4.2937   -2.7659    0.0000 C   0  0  0  0  0  0  0  0  0  0  0  0
    3.7669    0.0000    0.0000 C   0  0  0  0  0  0  0  0  0  0  0  0
  1 15  1  0  0  0  0
  2 16  1  0  0  0  0
  3  9  1  0  0  0  0
  3 14  1  0  0  0  0
  4 18  2  0  0  0  0
  5 18  1  0  0  0  0
  6  7  1  0  0  0  0
  6  9  2  0  0  0  0
  7 14  2  0  0  0  0
  8  9  1  0  0  0  0
  8 10  1  0  0  0  0
  8 13  1  0  0  0  0
 10 11  1  0  0  0  0
 10 12  2  0  0  0  0
 11 15  2  0  0  0  0
 12 16  1  0  0  0  0
 13 18  1  0  0  0  0
 14 19  1  0  0  0  0
 15 17  1  0  0  0  0
 16 17  2  0  0  0  0
M  END
> <PUBCHEM_COMPOUND_ID_TYPE>
0

> <PUBCHEM_TOTAL_CHARGE>
0

> <PUBCHEM_SUBSTANCE_ID>
310931419

> <PUBCHEM_SUBSTANCE_VERSION>
1

> <PUBCHEM_EXT_DATASOURCE_NAME>
4488

> <PUBCHEM_EXT_DATASOURCE_REGID>
SCHEMBL16108744

> <PUBCHEM_SUBSTANCE_COMMENT>
InChI=1S/C12H10BrClN2O3/c1-6-15-16-12(19-6)10(5-11(17)18)7-2-8(13)4-9(14)3-7/h2-4,10H,5H2,1H3,(H,17,18)
InChIKey=UIWRKBRLTGEAFK-UHFFFAOYSA-N

> <PUBCHEM_SUBSTANCE_SYNONYM>
SCHEMBL16108744

> <PUBCHEM_XREF_EXT_ID>
SCHEMBL16108744

> <PUBCHEM_EXT_DATASOURCE_URL>
https://www.surechembl.org/

> <PUBCHEM_EXT_SUBSTANCE_URL>
https://www.surechembl.org/chemical/SCHEMBL16108744

> <PUBCHEM_CID_ASSOCIATIONS>
117600202  1

> <PUBCHEM_COORDINATE_TYPE>
1
3

$$$$
