310940018
  -OEChem-07211613022D

 25 27  0     1  0  0  0  0  0999 V2000
   -2.5979    1.6771    0.0000 Cl  0  0  0  0  0  0  0  0  0  0  0  0
   -4.0268    2.5021    0.0000 Cl  0  0  0  0  0  0  0  0  0  0  0  0
    2.0413    0.8881    0.0000 O   0  0  0  0  0  0  0  0  0  0  0  0
   -1.1689    4.9771    0.0000 O   0  0  0  0  0  0  0  0  0  0  0  0
    2.9974    1.9501    0.0000 O   0  0  0  0  0  0  0  0  0  0  0  0
   -0.4545    3.7396    0.0000 N   0  0  0  0  0  0  0  0  0  0  0  0
    1.5997    2.2471    0.0000 N   0  0  0  0  0  0  0  0  0  0  0  0
    0.3301    2.6596    0.0000 C   0  0  3  0  0  0  0  0  0  0  0  0
    0.8151    3.3271    0.0000 C   0  0  3  0  0  0  0  0  0  0  0  0
   -0.4545    2.9146    0.0000 C   0  0  0  0  0  0  0  0  0  0  0  0
    0.3301    3.9945    0.0000 C   0  0  0  0  0  0  0  0  0  0  0  0
    0.8151    1.9922    0.0000 C   0  0  0  0  0  0  0  0  0  0  0  0
    1.5997    3.0721    0.0000 C   0  0  0  0  0  0  0  0  0  0  0  0
   -1.1689    4.1521    0.0000 C   0  0  0  0  0  0  0  0  0  0  0  0
   -1.8834    3.7396    0.0000 C   0  0  0  0  0  0  0  0  0  0  0  0
    2.2128    1.6951    0.0000 C   0  0  0  0  0  0  0  0  0  0  0  0
   -1.8834    2.9146    0.0000 C   0  0  0  0  0  0  0  0  0  0  0  0
   -2.5979    4.1521    0.0000 C   0  0  0  0  0  0  0  0  0  0  0  0
   -2.5979    2.5021    0.0000 C   0  0  0  0  0  0  0  0  0  0  0  0
   -3.3124    2.9146    0.0000 C   0  0  0  0  0  0  0  0  0  0  0  0
    2.6544    0.3361    0.0000 C   0  0  0  0  0  0  0  0  0  0  0  0
   -3.3124    3.7396    0.0000 C   0  0  0  0  0  0  0  0  0  0  0  0
    3.4390    0.5911    0.0000 C   0  0  0  0  0  0  0  0  0  0  0  0
    3.2674   -0.2159    0.0000 C   0  0  0  0  0  0  0  0  0  0  0  0
    2.4828   -0.4709    0.0000 C   0  0  0  0  0  0  0  0  0  0  0  0
  1 19  1  0  0  0  0
  2 20  1  0  0  0  0
  3 16  1  0  0  0  0
  3 21  1  0  0  0  0
  4 14  2  0  0  0  0
  5 16  2  0  0  0  0
  6 10  1  0  0  0  0
  6 11  1  0  0  0  0
  6 14  1  0  0  0  0
  7 12  1  0  0  0  0
  7 13  1  0  0  0  0
  7 16  1  0  0  0  0
  8  9  1  0  0  0  0
  8 10  1  0  0  0  0
  8 12  1  0  0  0  0
  9 11  1  0  0  0  0
  9 13  1  0  0  0  0
 14 15  1  0  0  0  0
 15 17  1  0  0  0  0
 15 18  2  0  0  0  0
 17 19  2  0  0  0  0
 18 22  1  0  0  0  0
 19 20  1  0  0  0  0
 20 22  2  0  0  0  0
 21 23  1  0  0  0  0
 21 24  1  0  0  0  0
 21 25  1  0  0  0  0
M  END
> <PUBCHEM_COMPOUND_ID_TYPE>
0

> <PUBCHEM_TOTAL_CHARGE>
0

> <PUBCHEM_SUBSTANCE_ID>
310940018

> <PUBCHEM_SUBSTANCE_VERSION>
1

> <PUBCHEM_EXT_DATASOURCE_NAME>
4488

> <PUBCHEM_EXT_DATASOURCE_REGID>
SCHEMBL16117948

> <PUBCHEM_SUBSTANCE_COMMENT>
InChI=1S/C18H22Cl2N2O3/c1-18(2,3)25-17(24)22-9-12-7-21(8-13(12)10-22)16(23)11-4-5-14(19)15(20)6-11/h4-6,12-13H,7-10H2,1-3H3
InChIKey=ZPVHQSSUJTTZCO-UHFFFAOYSA-N

> <PUBCHEM_SUBSTANCE_SYNONYM>
SCHEMBL16117948

> <PUBCHEM_XREF_EXT_ID>
SCHEMBL16117948

> <PUBCHEM_EXT_DATASOURCE_URL>
https://www.surechembl.org/

> <PUBCHEM_EXT_SUBSTANCE_URL>
https://www.surechembl.org/chemical/SCHEMBL16117948

> <PUBCHEM_CID_ASSOCIATIONS>
117607176  1

> <PUBCHEM_COORDINATE_TYPE>
1
3

$$$$
