310934747
  -OEChem-07211613022D

 35 40  0     1  0  0  0  0  0999 V2000
    3.0938   -2.0213    0.0000 S   0  0  0  0  0  0  0  0  0  0  0  0
    2.5163   -2.6400    0.0000 O   0  0  0  0  0  0  0  0  0  0  0  0
    3.7125   -1.4438    0.0000 O   0  0  0  0  0  0  0  0  0  0  0  0
    2.5163   -1.4438    0.0000 N   0  0  0  0  0  0  0  0  0  0  0  0
    4.4138   -5.4039    0.0000 N   0  0  3  0  0  0  0  0  0  0  0  0
    4.7851   -6.8064    0.0000 N   0  0  0  0  0  0  0  0  0  0  0  0
    3.7538   -7.8376    0.0000 N   0  0  0  0  0  0  0  0  0  0  0  0
    1.1138    0.0000    0.0000 N   0  0  0  0  0  0  0  0  0  0  0  0
    0.0000   -5.0326    0.0000 N   0  0  0  0  0  0  0  0  0  0  0  0
    3.6713   -2.6400    0.0000 C   0  0  0  0  0  0  0  0  0  0  0  0
    3.3826   -6.4351    0.0000 C   0  0  0  0  0  0  0  0  0  0  0  0
    4.2076   -6.2289    0.0000 C   0  0  0  0  0  0  0  0  0  0  0  0
    4.0425   -4.0013    0.0000 C   0  0  0  0  0  0  0  0  0  0  0  0
    3.1350   -7.2189    0.0000 C   0  0  0  0  0  0  0  0  0  0  0  0
    4.8263   -3.7951    0.0000 C   0  0  0  0  0  0  0  0  0  0  0  0
    3.4650   -3.4238    0.0000 C   0  0  0  0  0  0  0  0  0  0  0  0
    3.8363   -4.8263    0.0000 C   0  0  0  0  0  0  0  0  0  0  0  0
    2.3513   -7.4251    0.0000 C   0  0  0  0  0  0  0  0  0  0  0  0
    2.8050   -5.8163    0.0000 C   0  0  0  0  0  0  0  0  0  0  0  0
    4.4963   -2.4338    0.0000 C   0  0  0  0  0  0  0  0  0  0  0  0
    2.0213   -6.0638    0.0000 C   0  0  0  0  0  0  0  0  0  0  0  0
    1.6913   -1.4438    0.0000 C   0  0  0  0  0  0  0  0  0  0  0  0
    2.5163   -0.5775    0.0000 C   0  0  0  0  0  0  0  0  0  0  0  0
    1.6913   -0.5775    0.0000 C   0  0  0  0  0  0  0  0  0  0  0  0
    5.1976   -5.1976    0.0000 C   0  0  0  0  0  0  0  0  0  0  0  0
    5.0738   -3.0113    0.0000 C   0  0  0  0  0  0  0  0  0  0  0  0
    5.4039   -4.3726    0.0000 C   0  0  0  0  0  0  0  0  0  0  0  0
    1.7738   -6.8476    0.0000 C   0  0  0  0  0  0  0  0  0  0  0  0
    1.4025   -5.4451    0.0000 C   0  0  0  0  0  0  0  0  0  0  0  0
    4.5788   -7.6314    0.0000 C   0  0  0  0  0  0  0  0  0  0  0  0
    2.1451   -8.2501    0.0000 C   0  0  0  0  0  0  0  0  0  0  0  0
    0.5775   -5.6513    0.0000 C   0  0  0  0  0  0  0  0  0  0  0  0
    1.6088   -4.6201    0.0000 C   0  0  0  0  0  0  0  0  0  0  0  0
    1.0313   -4.0425    0.0000 C   0  0  0  0  0  0  0  0  0  0  0  0
    0.2062   -4.2488    0.0000 C   0  0  0  0  0  0  0  0  0  0  0  0
  1  2  2  0  0  0  0
  1  3  2  0  0  0  0
  1  4  1  0  0  0  0
  1 10  1  0  0  0  0
  4 22  1  0  0  0  0
  4 23  1  0  0  0  0
  5 12  1  0  0  0  0
  5 17  1  0  0  0  0
  5 25  1  0  0  0  0
  6 12  1  0  0  0  0
  6 30  2  0  0  0  0
  7 14  2  0  0  0  0
  7 30  1  0  0  0  0
  8 24  1  0  0  0  0
  9 32  1  0  0  0  0
  9 35  2  0  0  0  0
 10 16  2  0  0  0  0
 10 20  1  0  0  0  0
 11 12  2  0  0  0  0
 11 14  1  0  0  0  0
 11 19  1  0  0  0  0
 13 15  2  0  0  0  0
 13 16  1  0  0  0  0
 13 17  1  0  0  0  0
 14 18  1  0  0  0  0
 15 26  1  0  0  0  0
 15 27  1  0  0  0  0
 18 28  2  0  0  0  0
 18 31  1  0  0  0  0
 19 21  2  0  0  0  0
 20 26  2  0  0  0  0
 21 28  1  0  0  0  0
 21 29  1  0  0  0  0
 22 24  1  0  0  0  0
 23 24  1  0  0  0  0
 25 27  1  0  0  0  0
 29 32  2  0  0  0  0
 29 33  1  0  0  0  0
 33 34  2  0  0  0  0
 34 35  1  0  0  0  0
M  END
> <PUBCHEM_COMPOUND_ID_TYPE>
0

> <PUBCHEM_TOTAL_CHARGE>
0

> <PUBCHEM_SUBSTANCE_ID>
310934747

> <PUBCHEM_SUBSTANCE_VERSION>
1

> <PUBCHEM_EXT_DATASOURCE_NAME>
4488

> <PUBCHEM_EXT_DATASOURCE_REGID>
SCHEMBL16112248

> <PUBCHEM_SUBSTANCE_COMMENT>
InChI=1S/C26H26N6O2S/c1-17-9-20(19-3-2-7-28-12-19)11-24-25(17)29-16-30-26(24)31-8-6-18-4-5-23(10-21(18)13-31)35(33,34)32-14-22(27)15-32/h2-5,7,9-12,16,22H,6,8,13-15,27H2,1H3
InChIKey=HYKCHWFVGVHQNF-UHFFFAOYSA-N

> <PUBCHEM_SUBSTANCE_SYNONYM>
SCHEMBL16112248

> <PUBCHEM_XREF_EXT_ID>
SCHEMBL16112248

> <PUBCHEM_EXT_DATASOURCE_URL>
https://www.surechembl.org/

> <PUBCHEM_EXT_SUBSTANCE_URL>
https://www.surechembl.org/chemical/SCHEMBL16112248

> <PUBCHEM_CID_ASSOCIATIONS>
117602899  1

> <PUBCHEM_COORDINATE_TYPE>
1
3

$$$$
