310934662
  -OEChem-07211613022D

 23 25  0     1  0  0  0  0  0999 V2000
   -0.0680   -6.1292    0.0000 S   0  0  0  0  0  0  0  0  0  0  0  0
    0.3595   -3.4308    0.0000 O   0  0  0  0  0  0  0  0  0  0  0  0
   -0.8854   -4.1322    0.0000 O   0  0  0  0  0  0  0  0  0  0  0  0
    0.7495   -4.1409    0.0000 N   0  0  0  0  0  0  0  0  0  0  0  0
    0.3445   -4.8596    0.0000 C   0  0  3  0  0  0  0  0  0  0  0  0
   -0.3229   -5.3445    0.0000 C   0  0  3  0  0  0  0  0  0  0  0  0
   -0.0605   -4.1409    0.0000 C   0  0  0  0  0  0  0  0  0  0  0  0
    1.0119   -5.3445    0.0000 C   0  0  0  0  0  0  0  0  0  0  0  0
    0.7570   -6.1292    0.0000 C   0  0  0  0  0  0  0  0  0  0  0  0
    1.5745   -4.1322    0.0000 C   0  0  0  0  0  0  0  0  0  0  0  0
    1.9795   -3.4135    0.0000 C   0  0  0  0  0  0  0  0  0  0  0  0
   -1.1076   -5.0896    0.0000 C   0  0  0  0  0  0  0  0  0  0  0  0
    2.7894   -1.9760    0.0000 C   0  0  0  0  0  0  0  0  0  0  0  0
    2.8044   -3.4048    0.0000 C   0  0  0  0  0  0  0  0  0  0  0  0
    1.5595   -2.7034    0.0000 C   0  0  0  0  0  0  0  0  0  0  0  0
    3.1944   -1.2572    0.0000 C   0  0  0  0  0  0  0  0  0  0  0  0
    3.2094   -2.6861    0.0000 C   0  0  0  0  0  0  0  0  0  0  0  0
    1.9645   -1.9846    0.0000 C   0  0  0  0  0  0  0  0  0  0  0  0
    4.0194   -1.2486    0.0000 C   0  0  0  0  0  0  0  0  0  0  0  0
    2.7745   -0.5471    0.0000 C   0  0  0  0  0  0  0  0  0  0  0  0
    4.4244   -0.5298    0.0000 C   0  0  0  0  0  0  0  0  0  0  0  0
    3.1795    0.1716    0.0000 C   0  0  0  0  0  0  0  0  0  0  0  0
    4.0044    0.1803    0.0000 C   0  0  0  0  0  0  0  0  0  0  0  0
  1  6  1  0  0  0  0
  1  9  1  0  0  0  0
  2  7  2  0  0  0  0
  3  7  1  0  0  0  0
  4  5  1  0  0  0  0
  4 10  1  0  0  0  0
  5  6  1  0  0  0  0
  5  7  1  0  0  0  0
  5  8  1  0  0  0  0
  6 12  1  0  0  0  0
  8  9  1  0  0  0  0
 10 11  1  0  0  0  0
 11 14  2  0  0  0  0
 11 15  1  0  0  0  0
 13 16  1  0  0  0  0
 13 17  2  0  0  0  0
 13 18  1  0  0  0  0
 14 17  1  0  0  0  0
 15 18  2  0  0  0  0
 16 19  2  0  0  0  0
 16 20  1  0  0  0  0
 19 21  1  0  0  0  0
 20 22  2  0  0  0  0
 21 23  2  0  0  0  0
 22 23  1  0  0  0  0
M  END
> <PUBCHEM_COMPOUND_ID_TYPE>
0

> <PUBCHEM_TOTAL_CHARGE>
0

> <PUBCHEM_SUBSTANCE_ID>
310934662

> <PUBCHEM_SUBSTANCE_VERSION>
1

> <PUBCHEM_EXT_DATASOURCE_NAME>
4488

> <PUBCHEM_EXT_DATASOURCE_REGID>
SCHEMBL16112161

> <PUBCHEM_SUBSTANCE_COMMENT>
InChI=1S/C19H21NO2S/c1-14-19(18(21)22,11-12-23-14)20-13-15-7-9-17(10-8-15)16-5-3-2-4-6-16/h2-10,14,20H,11-13H2,1H3,(H,21,22)
InChIKey=GNUWCSQWFSEJOB-UHFFFAOYSA-N

> <PUBCHEM_SUBSTANCE_SYNONYM>
SCHEMBL16112161

> <PUBCHEM_XREF_EXT_ID>
SCHEMBL16112161

> <PUBCHEM_EXT_DATASOURCE_URL>
https://www.surechembl.org/

> <PUBCHEM_EXT_SUBSTANCE_URL>
https://www.surechembl.org/chemical/SCHEMBL16112161

> <PUBCHEM_CID_ASSOCIATIONS>
117602828  1

> <PUBCHEM_COORDINATE_TYPE>
1
3

$$$$
