310930405
  -OEChem-07211613022D

 18 20  0     1  0  0  0  0  0999 V2000
    0.0000   -1.6597    0.0000 Br  0  0  0  0  0  0  0  0  0  0  0  0
    4.2297   -0.8210    0.0000 O   0  0  0  0  0  0  0  0  0  0  0  0
    2.9090   -0.1606    0.0000 N   0  0  0  0  0  0  0  0  0  0  0  0
    2.9090   -1.4813    0.0000 C   0  0  3  0  0  0  0  0  0  0  0  0
    2.1237   -1.2492    0.0000 C   0  0  0  0  0  0  0  0  0  0  0  0
    3.4087   -0.8210    0.0000 C   0  0  0  0  0  0  0  0  0  0  0  0
    2.1237   -0.3926    0.0000 C   0  0  0  0  0  0  0  0  0  0  0  0
    3.7299   -1.6062    0.0000 C   0  0  0  0  0  0  0  0  0  0  0  0
    1.4099   -1.6419    0.0000 C   0  0  0  0  0  0  0  0  0  0  0  0
    3.1767   -2.2666    0.0000 C   0  0  0  0  0  0  0  0  0  0  0  0
    1.4099    0.0000    0.0000 C   0  0  0  0  0  0  0  0  0  0  0  0
    0.7139   -1.2492    0.0000 C   0  0  0  0  0  0  0  0  0  0  0  0
    4.2475   -0.9637    0.0000 C   0  0  0  0  0  0  0  0  0  0  0  0
    4.0334   -2.3736    0.0000 C   0  0  0  0  0  0  0  0  0  0  0  0
    0.7139   -0.3926    0.0000 C   0  0  0  0  0  0  0  0  0  0  0  0
    5.0685   -1.1065    0.0000 C   0  0  0  0  0  0  0  0  0  0  0  0
    4.8365   -2.5164    0.0000 C   0  0  0  0  0  0  0  0  0  0  0  0
    5.3540   -1.8739    0.0000 C   0  0  0  0  0  0  0  0  0  0  0  0
  1 12  1  0  0  0  0
  2  6  2  0  0  0  0
  3  6  1  0  0  0  0
  3  7  1  0  0  0  0
  4  5  1  0  0  0  0
  4  6  1  0  0  0  0
  4  8  1  0  0  0  0
  4 10  1  0  0  0  0
  5  7  2  0  0  0  0
  5  9  1  0  0  0  0
  7 11  1  0  0  0  0
  8 13  2  0  0  0  0
  8 14  1  0  0  0  0
  9 12  2  0  0  0  0
 11 15  2  0  0  0  0
 12 15  1  0  0  0  0
 13 16  1  0  0  0  0
 14 17  2  0  0  0  0
 16 18  2  0  0  0  0
 17 18  1  0  0  0  0
M  END
> <PUBCHEM_COMPOUND_ID_TYPE>
0

> <PUBCHEM_TOTAL_CHARGE>
0

> <PUBCHEM_SUBSTANCE_ID>
310930405

> <PUBCHEM_SUBSTANCE_VERSION>
1

> <PUBCHEM_EXT_DATASOURCE_NAME>
4488

> <PUBCHEM_EXT_DATASOURCE_REGID>
SCHEMBL16107692

> <PUBCHEM_SUBSTANCE_COMMENT>
InChI=1S/C15H12BrNO/c1-15(10-5-3-2-4-6-10)12-9-11(16)7-8-13(12)17-14(15)18/h2-9H,1H3,(H,17,18)
InChIKey=GTIQDACYKPUDML-UHFFFAOYSA-N

> <PUBCHEM_SUBSTANCE_SYNONYM>
SCHEMBL16107692

> <PUBCHEM_XREF_EXT_ID>
SCHEMBL16107692

> <PUBCHEM_EXT_DATASOURCE_URL>
https://www.surechembl.org/

> <PUBCHEM_EXT_SUBSTANCE_URL>
https://www.surechembl.org/chemical/SCHEMBL16107692

> <PUBCHEM_CID_ASSOCIATIONS>
117599550  1

> <PUBCHEM_COORDINATE_TYPE>
1
3

$$$$
