310945954
  -OEChem-07211613022D

 35 38  0     1  0  0  0  0  0999 V2000
    3.6648    1.5656    0.0000 O   0  0  0  0  0  0  0  0  0  0  0  0
    1.3924    1.5656    0.0000 O   0  0  0  0  0  0  0  0  0  0  0  0
    0.6721    1.1500    0.0000 O   0  0  0  0  0  0  0  0  0  0  0  0
   -0.0485    1.5656    0.0000 O   0  0  0  0  0  0  0  0  0  0  0  0
   -2.9442   -2.5771    0.0000 O   0  0  0  0  0  0  0  0  0  0  0  0
    1.3924   -0.0831    0.0000 N   0  0  0  0  0  0  0  0  0  0  0  0
   -0.7690    0.3326    0.0000 N   0  0  0  0  0  0  0  0  0  0  0  0
   -2.2515    1.2469    0.0000 N   0  0  0  0  0  0  0  0  0  0  0  0
   -2.3901    2.5771    0.0000 N   0  0  0  0  0  0  0  0  0  0  0  0
    2.8472    1.5795    0.0000 C   0  0  3  0  0  0  0  0  0  0  0  0
    2.1407    1.1638    0.0000 C   0  0  0  0  0  0  0  0  0  0  0  0
    3.2491    0.8867    0.0000 C   0  0  0  0  0  0  0  0  0  0  0  0
    2.0991    0.3464    0.0000 C   0  0  3  0  0  0  0  0  0  0  0  0
    2.8334    2.4247    0.0000 C   0  0  0  0  0  0  0  0  0  0  0  0
    2.8472   -0.0831    0.0000 C   0  0  0  0  0  0  0  0  0  0  0  0
    0.6582    0.3187    0.0000 C   0  0  0  0  0  0  0  0  0  0  0  0
   -0.0485   -0.0693    0.0000 C   0  0  3  0  0  0  0  0  0  0  0  0
    2.8334   -0.9006    0.0000 C   0  0  0  0  0  0  0  0  0  0  0  0
   -0.0485   -0.9144    0.0000 C   0  0  0  0  0  0  0  0  0  0  0  0
   -0.7967    1.1638    0.0000 C   0  0  0  0  0  0  0  0  0  0  0  0
   -0.7690   -1.3162    0.0000 C   0  0  0  0  0  0  0  0  0  0  0  0
   -1.5033    1.5934    0.0000 C   0  0  0  0  0  0  0  0  0  0  0  0
    3.5539   -1.3162    0.0000 C   0  0  0  0  0  0  0  0  0  0  0  0
    2.1268   -1.3301    0.0000 C   0  0  0  0  0  0  0  0  0  0  0  0
   -1.4755   -0.9144    0.0000 C   0  0  0  0  0  0  0  0  0  0  0  0
   -0.7690   -2.1476    0.0000 C   0  0  0  0  0  0  0  0  0  0  0  0
   -1.5726    2.3970    0.0000 C   0  0  0  0  0  0  0  0  0  0  0  0
   -2.2238   -2.1476    0.0000 C   0  0  0  0  0  0  0  0  0  0  0  0
   -2.1961   -1.3162    0.0000 C   0  0  0  0  0  0  0  0  0  0  0  0
   -1.4894   -2.5493    0.0000 C   0  0  0  0  0  0  0  0  0  0  0  0
    3.5539   -2.1476    0.0000 C   0  0  0  0  0  0  0  0  0  0  0  0
    2.1268   -2.1476    0.0000 C   0  0  0  0  0  0  0  0  0  0  0  0
   -2.8057    1.8567    0.0000 C   0  0  0  0  0  0  0  0  0  0  0  0
    2.8472   -2.5493    0.0000 C   0  0  0  0  0  0  0  0  0  0  0  0
   -3.6648   -2.1476    0.0000 C   0  0  0  0  0  0  0  0  0  0  0  0
  1 10  1  0  0  0  0
  1 12  1  0  0  0  0
  2 11  2  0  0  0  0
  3 16  2  0  0  0  0
  4 20  2  0  0  0  0
  5 28  1  0  0  0  0
  5 35  1  0  0  0  0
  6 13  1  0  0  0  0
  6 16  1  0  0  0  0
  7 17  1  0  0  0  0
  7 20  1  0  0  0  0
  8 22  1  0  0  0  0
  8 33  2  0  0  0  0
  9 27  1  0  0  0  0
  9 33  1  0  0  0  0
 10 11  1  0  0  0  0
 10 12  1  0  0  0  0
 10 14  1  0  0  0  0
 11 13  1  0  0  0  0
 13 15  1  0  0  0  0
 15 18  1  0  0  0  0
 16 17  1  0  0  0  0
 17 19  1  0  0  0  0
 18 23  2  0  0  0  0
 18 24  1  0  0  0  0
 19 21  1  0  0  0  0
 20 22  1  0  0  0  0
 21 25  2  0  0  0  0
 21 26  1  0  0  0  0
 22 27  2  0  0  0  0
 23 31  1  0  0  0  0
 24 32  2  0  0  0  0
 25 29  1  0  0  0  0
 26 30  2  0  0  0  0
 28 29  2  0  0  0  0
 28 30  1  0  0  0  0
 31 34  2  0  0  0  0
 32 34  1  0  0  0  0
M  END
> <PUBCHEM_COMPOUND_ID_TYPE>
0

> <PUBCHEM_TOTAL_CHARGE>
0

> <PUBCHEM_SUBSTANCE_ID>
310945954

> <PUBCHEM_SUBSTANCE_VERSION>
1

> <PUBCHEM_EXT_DATASOURCE_NAME>
4488

> <PUBCHEM_EXT_DATASOURCE_REGID>
SCHEMBL16124059

> <PUBCHEM_SUBSTANCE_COMMENT>
InChI=1S/C26H28N4O5/c1-26(15-35-26)23(31)20(12-17-6-4-3-5-7-17)29-24(32)21(30-25(33)22-14-27-16-28-22)13-18-8-10-19(34-2)11-9-18/h3-11,14,16,20-21H,12-13,15H2,1-2H3,(H,27,28)(H,29,32)(H,30,33)
InChIKey=SXSHUSXZJXQEBP-UHFFFAOYSA-N

> <PUBCHEM_SUBSTANCE_SYNONYM>
SCHEMBL16124059

> <PUBCHEM_XREF_EXT_ID>
SCHEMBL16124059

> <PUBCHEM_EXT_DATASOURCE_URL>
https://www.surechembl.org/

> <PUBCHEM_EXT_SUBSTANCE_URL>
https://www.surechembl.org/chemical/SCHEMBL16124059

> <PUBCHEM_CID_ASSOCIATIONS>
117611935  1

> <PUBCHEM_COORDINATE_TYPE>
1
3

$$$$
