310943362
  -OEChem-07211613022D

 24 27  0     1  0  0  0  0  0999 V2000
    0.0814    1.8196    0.0000 Cl  0  0  0  0  0  0  0  0  0  0  0  0
   -3.1881    1.5977    0.0000 O   0  0  0  0  0  0  0  0  0  0  0  0
   -0.3625   -1.9676    0.0000 O   0  0  0  0  0  0  0  0  0  0  0  0
   -1.8122    0.6657    0.0000 N   0  0  0  0  0  0  0  0  0  0  0  0
   -1.0874   -0.7101    0.0000 N   0  0  0  0  0  0  0  0  0  0  0  0
    1.7974    1.8196    0.0000 N   0  0  0  0  0  0  0  0  0  0  0  0
    3.2325    0.1331    0.0000 N   0  0  0  0  0  0  0  0  0  0  0  0
   -1.0874    0.1479    0.0000 C   0  0  0  0  0  0  0  0  0  0  0  0
   -2.5371    0.3403    0.0000 C   0  0  3  0  0  0  0  0  0  0  0  0
   -1.7826    1.5237    0.0000 C   0  0  3  0  0  0  0  0  0  0  0  0
    0.3625    0.1331    0.0000 C   0  0  0  0  0  0  0  0  0  0  0  0
   -0.3773    0.5473    0.0000 C   0  0  0  0  0  0  0  0  0  0  0  0
    1.0726    0.5621    0.0000 C   0  0  0  0  0  0  0  0  0  0  0  0
   -0.3625   -1.1096    0.0000 C   0  0  0  0  0  0  0  0  0  0  0  0
    0.3477   -0.7101    0.0000 C   0  0  0  0  0  0  0  0  0  0  0  0
   -2.6703    0.9764    0.0000 C   0  0  0  0  0  0  0  0  0  0  0  0
   -2.4927    1.3611    0.0000 C   0  0  0  0  0  0  0  0  0  0  0  0
   -3.2325    0.7545    0.0000 C   0  0  0  0  0  0  0  0  0  0  0  0
   -2.4780    1.9676    0.0000 C   0  0  0  0  0  0  0  0  0  0  0  0
    1.0874    1.4055    0.0000 C   0  0  0  0  0  0  0  0  0  0  0  0
    1.8122    0.1479    0.0000 C   0  0  0  0  0  0  0  0  0  0  0  0
   -1.7974   -1.1540    0.0000 C   0  0  0  0  0  0  0  0  0  0  0  0
    2.5075    0.5621    0.0000 C   0  0  0  0  0  0  0  0  0  0  0  0
    2.5223    1.3907    0.0000 C   0  0  0  0  0  0  0  0  0  0  0  0
  1 20  1  0  0  0  0
  2 18  1  0  0  0  0
  2 19  1  0  0  0  0
  3 14  2  0  0  0  0
  4  8  1  0  0  0  0
  4  9  1  0  0  0  0
  4 10  1  0  0  0  0
  5  8  1  0  0  0  0
  5 14  1  0  0  0  0
  5 22  1  0  0  0  0
  6 20  2  0  0  0  0
  6 24  1  0  0  0  0
  7 23  1  0  0  0  0
  8 12  2  0  0  0  0
  9 16  1  0  0  0  0
  9 18  1  0  0  0  0
 10 17  1  0  0  0  0
 10 19  1  0  0  0  0
 11 12  1  0  0  0  0
 11 13  1  0  0  0  0
 11 15  2  0  0  0  0
 13 20  1  0  0  0  0
 13 21  2  0  0  0  0
 14 15  1  0  0  0  0
 16 17  1  0  0  0  0
 21 23  1  0  0  0  0
 23 24  2  0  0  0  0
M  END
> <PUBCHEM_COMPOUND_ID_TYPE>
0

> <PUBCHEM_TOTAL_CHARGE>
0

> <PUBCHEM_SUBSTANCE_ID>
310943362

> <PUBCHEM_SUBSTANCE_VERSION>
1

> <PUBCHEM_EXT_DATASOURCE_NAME>
4488

> <PUBCHEM_EXT_DATASOURCE_REGID>
SCHEMBL16121425

> <PUBCHEM_SUBSTANCE_COMMENT>
InChI=1S/C17H19ClN4O2/c1-21-15(22-12-2-3-13(22)9-24-8-12)4-10(5-16(21)23)14-6-11(19)7-20-17(14)18/h4-7,12-13H,2-3,8-9,19H2,1H3
InChIKey=COPFUNHIFAMNHL-UHFFFAOYSA-N

> <PUBCHEM_SUBSTANCE_SYNONYM>
SCHEMBL16121425

> <PUBCHEM_XREF_EXT_ID>
SCHEMBL16121425

> <PUBCHEM_EXT_DATASOURCE_URL>
https://www.surechembl.org/

> <PUBCHEM_EXT_SUBSTANCE_URL>
https://www.surechembl.org/chemical/SCHEMBL16121425

> <PUBCHEM_CID_ASSOCIATIONS>
117609786  1

> <PUBCHEM_COORDINATE_TYPE>
1
3

$$$$
