310935112
  -OEChem-07211613022D

 25 27  0     1  0  0  0  0  0999 V2000
    1.0396   -1.4520    0.0000 O   0  0  0  0  0  0  0  0  0  0  0  0
    2.0945    0.0000    0.0000 O   0  0  0  0  0  0  0  0  0  0  0  0
   -0.3194   -1.8936    0.0000 O   0  0  0  0  0  0  0  0  0  0  0  0
    0.7846    0.6674    0.0000 N   0  0  0  0  0  0  0  0  0  0  0  0
    0.0000   -0.4125    0.0000 C   0  0  0  0  0  0  0  0  0  0  0  0
    0.7846   -0.6674    0.0000 C   0  0  3  0  0  0  0  0  0  0  0  0
    0.0000    0.4125    0.0000 C   0  0  0  0  0  0  0  0  0  0  0  0
    1.2695    0.0000    0.0000 C   0  0  0  0  0  0  0  0  0  0  0  0
   -0.7144   -0.8250    0.0000 C   0  0  0  0  0  0  0  0  0  0  0  0
   -0.7144    0.8250    0.0000 C   0  0  0  0  0  0  0  0  0  0  0  0
    1.0396    1.4520    0.0000 C   0  0  0  0  0  0  0  0  0  0  0  0
    0.4875   -2.0651    0.0000 C   0  0  0  0  0  0  0  0  0  0  0  0
   -1.4289   -0.4125    0.0000 C   0  0  0  0  0  0  0  0  0  0  0  0
   -1.4289    0.4125    0.0000 C   0  0  0  0  0  0  0  0  0  0  0  0
    0.7424   -2.8498    0.0000 C   0  0  0  0  0  0  0  0  0  0  0  0
    1.8465    1.6236    0.0000 C   0  0  0  0  0  0  0  0  0  0  0  0
    0.1905   -3.4629    0.0000 C   0  0  0  0  0  0  0  0  0  0  0  0
    1.5495   -3.0213    0.0000 C   0  0  0  0  0  0  0  0  0  0  0  0
    2.1014    2.4082    0.0000 C   0  0  0  0  0  0  0  0  0  0  0  0
    0.4454   -4.2475    0.0000 C   0  0  0  0  0  0  0  0  0  0  0  0
    1.8044   -3.8059    0.0000 C   0  0  0  0  0  0  0  0  0  0  0  0
    1.2523   -4.4190    0.0000 C   0  0  0  0  0  0  0  0  0  0  0  0
    2.9084    2.5797    0.0000 C   0  0  0  0  0  0  0  0  0  0  0  0
    3.1634    3.3643    0.0000 C   0  0  0  0  0  0  0  0  0  0  0  0
    3.4604    1.9666    0.0000 C   0  0  0  0  0  0  0  0  0  0  0  0
  1  6  1  0  0  0  0
  1 12  1  0  0  0  0
  2  8  2  0  0  0  0
  3 12  2  0  0  0  0
  4  7  1  0  0  0  0
  4  8  1  0  0  0  0
  4 11  1  0  0  0  0
  5  6  1  0  0  0  0
  5  7  2  0  0  0  0
  5  9  1  0  0  0  0
  6  8  1  0  0  0  0
  7 10  1  0  0  0  0
  9 13  2  0  0  0  0
 10 14  2  0  0  0  0
 11 16  1  0  0  0  0
 12 15  1  0  0  0  0
 13 14  1  0  0  0  0
 15 17  2  0  0  0  0
 15 18  1  0  0  0  0
 16 19  1  0  0  0  0
 17 20  1  0  0  0  0
 18 21  2  0  0  0  0
 19 23  1  0  0  0  0
 20 22  2  0  0  0  0
 21 22  1  0  0  0  0
 23 24  1  0  0  0  0
 23 25  1  0  0  0  0
M  END
> <PUBCHEM_COMPOUND_ID_TYPE>
0

> <PUBCHEM_TOTAL_CHARGE>
0

> <PUBCHEM_SUBSTANCE_ID>
310935112

> <PUBCHEM_SUBSTANCE_VERSION>
1

> <PUBCHEM_EXT_DATASOURCE_NAME>
4488

> <PUBCHEM_EXT_DATASOURCE_REGID>
SCHEMBL16112639

> <PUBCHEM_SUBSTANCE_COMMENT>
InChI=1S/C21H23NO3/c1-15(2)9-8-14-22-18-13-7-6-12-17(18)19(20(22)23)25-21(24)16-10-4-3-5-11-16/h3-7,10-13,15,19H,8-9,14H2,1-2H3
InChIKey=ZIWCVHHLNIHFPX-UHFFFAOYSA-N

> <PUBCHEM_SUBSTANCE_SYNONYM>
SCHEMBL16112639

> <PUBCHEM_XREF_EXT_ID>
SCHEMBL16112639

> <PUBCHEM_EXT_DATASOURCE_URL>
https://www.surechembl.org/

> <PUBCHEM_EXT_SUBSTANCE_URL>
https://www.surechembl.org/chemical/SCHEMBL16112639

> <PUBCHEM_CID_ASSOCIATIONS>
117603203  1

> <PUBCHEM_COORDINATE_TYPE>
1
3

$$$$
