310939036
  -OEChem-07211613022D

 23 26  0     1  0  0  0  0  0999 V2000
    1.0144    6.1488    0.0000 N   0  0  3  0  0  0  0  0  0  0  0  0
    0.3000    4.9113    0.0000 C   0  0  0  0  0  0  0  0  0  0  0  0
    0.3000    5.7363    0.0000 C   0  0  0  0  0  0  0  0  0  0  0  0
    1.0144    4.4988    0.0000 C   0  0  0  0  0  0  0  0  0  0  0  0
    2.4485    5.3061    0.0000 C   0  0  0  0  0  0  0  0  0  0  0  0
   -0.4145    4.4988    0.0000 C   0  0  0  0  0  0  0  0  0  0  0  0
   -0.4145    3.6738    0.0000 C   0  0  0  0  0  0  0  0  0  0  0  0
   -0.4145    6.1488    0.0000 C   0  0  0  0  0  0  0  0  0  0  0  0
    1.0144    3.6738    0.0000 C   0  0  0  0  0  0  0  0  0  0  0  0
    1.0144    6.9738    0.0000 C   0  0  0  0  0  0  0  0  0  0  0  0
   -0.4145    6.9738    0.0000 C   0  0  0  0  0  0  0  0  0  0  0  0
    0.3000    3.2613    0.0000 C   0  0  0  0  0  0  0  0  0  0  0  0
   -1.1290    3.2613    0.0000 C   0  0  3  0  0  0  0  0  0  0  0  0
    0.3000    7.3863    0.0000 C   0  0  0  0  0  0  0  0  0  0  0  0
   -1.1290    7.3863    0.0000 C   0  0  0  0  0  0  0  0  0  0  0  0
   -1.8434    3.6738    0.0000 C   0  0  0  0  0  0  0  0  0  0  0  0
   -1.1290    2.4363    0.0000 C   0  0  0  0  0  0  0  0  0  0  0  0
   -1.1290    8.2113    0.0000 C   0  0  0  0  0  0  0  0  0  0  0  0
   -2.5579    3.2613    0.0000 C   0  0  0  0  0  0  0  0  0  0  0  0
   -1.8434    2.0238    0.0000 C   0  0  0  0  0  0  0  0  0  0  0  0
   -2.5579    2.4363    0.0000 C   0  0  0  0  0  0  0  0  0  0  0  0
   -0.4145    8.6238    0.0000 C   0  0  0  0  0  0  0  0  0  0  0  0
   -1.8434    8.6238    0.0000 C   0  0  0  0  0  0  0  0  0  0  0  0
  1  3  1  0  0  0  0
  1  5  1  0  0  0  0
  1 10  1  0  0  0  0
  2  3  1  0  0  0  0
  2  4  2  0  0  0  0
  2  6  1  0  0  0  0
  3  8  2  0  0  0  0
  4  5  1  0  0  0  0
  4  9  1  0  0  0  0
  6  7  2  0  0  0  0
  7 12  1  0  0  0  0
  7 13  1  0  0  0  0
  8 11  1  0  0  0  0
  9 12  2  0  0  0  0
 10 14  1  0  0  0  0
 11 14  2  0  0  0  0
 11 15  1  0  0  0  0
 13 16  1  0  0  0  0
 13 17  1  0  0  0  0
 15 18  1  0  0  0  0
 16 19  2  0  0  0  0
 17 20  1  0  0  0  0
 18 22  1  0  0  0  0
 18 23  1  0  0  0  0
 19 21  1  0  0  0  0
 20 21  2  0  0  0  0
M  END
> <PUBCHEM_COMPOUND_ID_TYPE>
0

> <PUBCHEM_TOTAL_CHARGE>
0

> <PUBCHEM_SUBSTANCE_ID>
310939036

> <PUBCHEM_SUBSTANCE_VERSION>
1

> <PUBCHEM_EXT_DATASOURCE_NAME>
4488

> <PUBCHEM_EXT_DATASOURCE_REGID>
SCHEMBL16116955

> <PUBCHEM_SUBSTANCE_COMMENT>
InChI=1S/C22H25N/c1-16(2)12-17-10-11-23-15-20-9-8-19(14-21(20)22(23)13-17)18-6-4-3-5-7-18/h3-6,8-10,13-14,16,18H,7,11-12,15H2,1-2H3
InChIKey=AIPLKXUHLKECIF-UHFFFAOYSA-N

> <PUBCHEM_SUBSTANCE_SYNONYM>
SCHEMBL16116955

> <PUBCHEM_XREF_EXT_ID>
SCHEMBL16116955

> <PUBCHEM_EXT_DATASOURCE_URL>
https://www.surechembl.org/

> <PUBCHEM_EXT_SUBSTANCE_URL>
https://www.surechembl.org/chemical/SCHEMBL16116955

> <PUBCHEM_CID_ASSOCIATIONS>
117606408  1

> <PUBCHEM_COORDINATE_TYPE>
1
3

$$$$
