310929636
  -OEChem-07211613022D

 23 26  0     1  0  0  0  0  0999 V2000
    0.7145    0.4125    0.0000 Cl  0  0  0  0  0  0  0  0  0  0  0  0
    5.7551    0.0770    0.0000 O   0  0  0  0  0  0  0  0  0  0  0  0
    5.8946    1.4045    0.0000 O   0  0  0  0  0  0  0  0  0  0  0  0
    4.4745    1.7850    0.0000 O   0  0  0  0  0  0  0  0  0  0  0  0
    2.8579    0.0000    0.0000 O   0  0  0  0  0  0  0  0  0  0  0  0
    2.1434    1.2375    0.0000 O   0  0  0  0  0  0  0  0  0  0  0  0
    7.1276    0.6038    0.0000 C   0  0  0  0  0  0  0  0  0  0  0  0
    7.6125    1.2713    0.0000 C   0  0  0  0  0  0  0  0  0  0  0  0
    7.4632   -0.1499    0.0000 C   0  0  0  0  0  0  0  0  0  0  0  0
    6.3071    0.6901    0.0000 C   0  0  3  0  0  0  0  0  0  0  0  0
    8.7686    0.4314    0.0000 C   0  0  0  0  0  0  0  0  0  0  0  0
    8.8968    1.8240    0.0000 C   0  0  0  0  0  0  0  0  0  0  0  0
    8.2837   -0.2361    0.0000 C   0  0  0  0  0  0  0  0  0  0  0  0
    8.0974    1.9131    0.0000 C   0  0  0  0  0  0  0  0  0  0  0  0
    8.5006    0.6037    0.0000 C   0  0  0  0  0  0  0  0  0  0  0  0
    8.4331    1.1850    0.0000 C   0  0  0  0  0  0  0  0  0  0  0  0
    5.0014    0.4125    0.0000 C   0  0  3  0  0  0  0  0  0  0  0  0
    5.0876    1.2330    0.0000 C   0  0  0  0  0  0  0  0  0  0  0  0
    9.2286    1.0913    0.0000 C   0  0  0  0  0  0  0  0  0  0  0  0
    4.2869    0.0000    0.0000 C   0  0  0  0  0  0  0  0  0  0  0  0
    3.5724    0.4125    0.0000 C   0  0  0  0  0  0  0  0  0  0  0  0
    2.1434    0.4125    0.0000 C   0  0  0  0  0  0  0  0  0  0  0  0
    1.4290    0.0000    0.0000 C   0  0  0  0  0  0  0  0  0  0  0  0
  1 23  1  0  0  0  0
  2 10  1  0  0  0  0
  2 17  1  0  0  0  0
  3 10  1  0  0  0  0
  3 18  1  0  0  0  0
  4 18  2  0  0  0  0
  5 21  1  0  0  0  0
  5 22  1  0  0  0  0
  6 22  2  0  0  0  0
  7  8  1  0  0  0  0
  7  9  1  0  0  0  0
  7 10  1  0  0  0  0
  8 14  1  0  0  0  0
  8 16  1  0  0  0  0
  9 13  1  0  0  0  0
  9 15  1  0  0  0  0
 11 13  1  0  0  0  0
 11 16  1  0  0  0  0
 11 19  1  0  0  0  0
 12 14  1  0  0  0  0
 12 15  1  0  0  0  0
 12 19  1  0  0  0  0
 17 18  1  0  0  0  0
 17 20  1  0  0  0  0
 20 21  1  0  0  0  0
 22 23  1  0  0  0  0
M  END
> <PUBCHEM_COMPOUND_ID_TYPE>
0

> <PUBCHEM_TOTAL_CHARGE>
0

> <PUBCHEM_SUBSTANCE_ID>
310929636

> <PUBCHEM_SUBSTANCE_VERSION>
1

> <PUBCHEM_EXT_DATASOURCE_NAME>
4488

> <PUBCHEM_EXT_DATASOURCE_REGID>
SCHEMBL16106824

> <PUBCHEM_SUBSTANCE_COMMENT>
InChI=1S/C17H23ClO5/c18-8-14(19)21-2-1-13-16(20)23-17(22-13)15-11-4-9-3-10(6-11)7-12(15)5-9/h9-13,15,17H,1-8H2
InChIKey=UCAOBPAZKRBUDW-UHFFFAOYSA-N

> <PUBCHEM_SUBSTANCE_SYNONYM>
SCHEMBL16106824

> <PUBCHEM_XREF_EXT_ID>
SCHEMBL16106824

> <PUBCHEM_EXT_DATASOURCE_URL>
https://www.surechembl.org/

> <PUBCHEM_EXT_SUBSTANCE_URL>
https://www.surechembl.org/chemical/SCHEMBL16106824

> <PUBCHEM_CID_ASSOCIATIONS>
117598940  1

> <PUBCHEM_COORDINATE_TYPE>
1
3

$$$$
