310937994
  -OEChem-07211613022D

 38 42  0     1  0  0  0  0  0999 V2000
    4.3421   -5.3408    0.0000 O   0  0  0  0  0  0  0  0  0  0  0  0
    7.2513   -5.3842    0.0000 O   0  0  0  0  0  0  0  0  0  0  0  0
    6.5999   -2.6053    0.0000 N   0  0  3  0  0  0  0  0  0  0  0  0
    5.7749   -5.3408    0.0000 N   0  0  0  0  0  0  0  0  0  0  0  0
    2.2144   -2.4750    0.0000 N   0  0  0  0  0  0  0  0  0  0  0  0
    1.4329   -1.2592    0.0000 N   0  0  0  0  0  0  0  0  0  0  0  0
    7.9460   -6.5999    0.0000 N   0  0  0  0  0  0  0  0  0  0  0  0
    0.0000   -0.4342    0.0000 N   0  0  0  0  0  0  0  0  0  0  0  0
    5.7749   -3.6908    0.0000 C   0  0  0  0  0  0  0  0  0  0  0  0
    5.7749   -2.8658    0.0000 C   0  0  0  0  0  0  0  0  0  0  0  0
    5.0803   -4.1250    0.0000 C   0  0  0  0  0  0  0  0  0  0  0  0
    4.3421   -2.8658    0.0000 C   0  0  0  0  0  0  0  0  0  0  0  0
    5.0803   -2.4750    0.0000 C   0  0  0  0  0  0  0  0  0  0  0  0
    4.3421   -3.6908    0.0000 C   0  0  0  0  0  0  0  0  0  0  0  0
    6.5999   -3.9513    0.0000 C   0  0  0  0  0  0  0  0  0  0  0  0
    5.0803   -4.9499    0.0000 C   0  0  0  0  0  0  0  0  0  0  0  0
    3.6473   -2.4750    0.0000 C   0  0  0  0  0  0  0  0  0  0  0  0
    7.0776   -3.3000    0.0000 C   0  0  0  0  0  0  0  0  0  0  0  0
    6.8170   -1.8237    0.0000 C   0  0  0  0  0  0  0  0  0  0  0  0
    2.9092   -2.8658    0.0000 C   0  0  0  0  0  0  0  0  0  0  0  0
    3.6039   -1.6500    0.0000 C   0  0  0  0  0  0  0  0  0  0  0  0
    6.5131   -6.5999    0.0000 C   0  0  0  0  0  0  0  0  0  0  0  0
    2.1710   -1.6500    0.0000 C   0  0  0  0  0  0  0  0  0  0  0  0
    5.7749   -6.2092    0.0000 C   0  0  0  0  0  0  0  0  0  0  0  0
    2.9092   -1.2592    0.0000 C   0  0  0  0  0  0  0  0  0  0  0  0
    6.5131   -7.4249    0.0000 C   0  0  0  0  0  0  0  0  0  0  0  0
    7.2513   -6.2092    0.0000 C   0  0  0  0  0  0  0  0  0  0  0  0
    6.2960   -1.2158    0.0000 C   0  0  0  0  0  0  0  0  0  0  0  0
    7.6420   -1.6500    0.0000 C   0  0  0  0  0  0  0  0  0  0  0  0
    7.2078   -7.8592    0.0000 C   0  0  0  0  0  0  0  0  0  0  0  0
    7.9460   -7.4684    0.0000 C   0  0  0  0  0  0  0  0  0  0  0  0
    5.8184   -7.8592    0.0000 C   0  0  0  0  0  0  0  0  0  0  0  0
    1.4329   -0.4342    0.0000 C   0  0  0  0  0  0  0  0  0  0  0  0
    0.7382   -1.6500    0.0000 C   0  0  0  0  0  0  0  0  0  0  0  0
    0.0000   -1.2592    0.0000 C   0  0  0  0  0  0  0  0  0  0  0  0
    0.7382    0.0000    0.0000 C   0  0  0  0  0  0  0  0  0  0  0  0
    8.6842   -7.8592    0.0000 C   0  0  0  0  0  0  0  0  0  0  0  0
    5.8184   -8.6842    0.0000 C   0  0  0  0  0  0  0  0  0  0  0  0
  1 16  2  0  0  0  0
  2 27  2  0  0  0  0
  3 10  1  0  0  0  0
  3 18  1  0  0  0  0
  3 19  1  0  0  0  0
  4 16  1  0  0  0  0
  4 24  1  0  0  0  0
  5 20  1  0  0  0  0
  5 23  2  0  0  0  0
  6 23  1  0  0  0  0
  6 33  1  0  0  0  0
  6 34  1  0  0  0  0
  7 27  1  0  0  0  0
  7 31  1  0  0  0  0
  8 35  1  0  0  0  0
  8 36  1  0  0  0  0
  9 10  2  0  0  0  0
  9 11  1  0  0  0  0
  9 15  1  0  0  0  0
 10 13  1  0  0  0  0
 11 14  2  0  0  0  0
 11 16  1  0  0  0  0
 12 13  2  0  0  0  0
 12 14  1  0  0  0  0
 12 17  1  0  0  0  0
 15 18  1  0  0  0  0
 17 20  2  0  0  0  0
 17 21  1  0  0  0  0
 19 28  1  0  0  0  0
 19 29  1  0  0  0  0
 21 25  2  0  0  0  0
 22 24  1  0  0  0  0
 22 26  2  0  0  0  0
 22 27  1  0  0  0  0
 23 25  1  0  0  0  0
 26 30  1  0  0  0  0
 26 32  1  0  0  0  0
 30 31  2  0  0  0  0
 31 37  1  0  0  0  0
 32 38  1  0  0  0  0
 33 36  1  0  0  0  0
 34 35  1  0  0  0  0
M  END
> <PUBCHEM_COMPOUND_ID_TYPE>
0

> <PUBCHEM_TOTAL_CHARGE>
0

> <PUBCHEM_SUBSTANCE_ID>
310937994

> <PUBCHEM_SUBSTANCE_VERSION>
1

> <PUBCHEM_EXT_DATASOURCE_NAME>
4488

> <PUBCHEM_EXT_DATASOURCE_REGID>
SCHEMBL16115831

> <PUBCHEM_SUBSTANCE_COMMENT>
InChI=1S/C30H38N6O2/c1-5-21-14-20(4)34-30(38)26(21)18-33-29(37)25-15-23(16-27-24(25)8-11-36(27)19(2)3)22-6-7-28(32-17-22)35-12-9-31-10-13-35/h6-7,14-17,19,31H,5,8-13,18H2,1-4H3,(H,33,37)(H,34,38)
InChIKey=YOUKVGVKXLAEPS-UHFFFAOYSA-N

> <PUBCHEM_SUBSTANCE_SYNONYM>
SCHEMBL16115831

> <PUBCHEM_XREF_EXT_ID>
SCHEMBL16115831

> <PUBCHEM_EXT_DATASOURCE_URL>
https://www.surechembl.org/

> <PUBCHEM_EXT_SUBSTANCE_URL>
https://www.surechembl.org/chemical/SCHEMBL16115831

> <PUBCHEM_CID_ASSOCIATIONS>
86273149  1

> <PUBCHEM_COORDINATE_TYPE>
1
3

$$$$
