310946434
  -OEChem-07211613022D

 22 21  0     1  0  0  0  0  0999 V2000
   -2.5006   -6.5450    0.0000 O   0  0  0  0  0  0  0  0  0  0  0  0
   -0.3572   -6.9575    0.0000 O   0  0  0  0  0  0  0  0  0  0  0  0
    1.7862   -6.5450    0.0000 O   0  0  0  0  0  0  0  0  0  0  0  0
   -0.7401  -10.6404    0.0000 O   0  0  0  0  0  0  0  0  0  0  0  0
   -3.9296   -6.5450    0.0000 O   0  0  0  0  0  0  0  0  0  0  0  0
    2.5006   -5.3075    0.0000 O   0  5  0  0  0  0  0  0  0  0  0  0
    1.0717   -5.3075    0.0000 O   0  0  0  0  0  0  0  0  0  0  0  0
   -0.7401  -12.0694    0.0000 O   0  0  0  0  0  0  0  0  0  0  0  0
   -3.2151   -7.7825    0.0000 N   0  0  0  0  0  0  0  0  0  0  0  0
    1.7862   -5.7200    0.0000 N   0  3  0  0  0  0  0  0  0  0  0  0
    0.4974   -9.9260    0.0000 N   0  0  0  0  0  0  0  0  0  0  0  0
   -3.2151   -6.9575    0.0000 C   0  0  0  0  0  0  0  0  0  0  0  0
   -0.3276   -9.9260    0.0000 C   0  0  3  0  0  0  0  0  0  0  0  0
   -1.7862   -6.9575    0.0000 C   0  0  0  0  0  0  0  0  0  0  0  0
   -2.8026   -8.4970    0.0000 C   0  0  0  0  0  0  0  0  0  0  0  0
   -1.0717   -6.5450    0.0000 C   0  0  0  0  0  0  0  0  0  0  0  0
   -0.7401   -9.2115    0.0000 C   0  0  0  0  0  0  0  0  0  0  0  0
   -1.9776   -8.4970    0.0000 C   0  0  0  0  0  0  0  0  0  0  0  0
    1.0717   -6.9575    0.0000 C   0  0  0  0  0  0  0  0  0  0  0  0
    0.3572   -6.5450    0.0000 C   0  0  0  0  0  0  0  0  0  0  0  0
   -1.5651   -9.2115    0.0000 C   0  0  0  0  0  0  0  0  0  0  0  0
   -0.3276  -11.3549    0.0000 C   0  0  0  0  0  0  0  0  0  0  0  0
  1 12  1  0  0  0  0
  1 14  1  0  0  0  0
  2 16  1  0  0  0  0
  2 20  1  0  0  0  0
  3 10  1  0  0  0  0
  3 19  1  0  0  0  0
  4 13  1  0  0  0  0
  4 22  1  0  0  0  0
  5 12  2  0  0  0  0
  6 10  1  0  0  0  0
  7 10  2  0  0  0  0
  8 22  2  0  0  0  0
  9 12  1  0  0  0  0
  9 15  1  0  0  0  0
 11 13  1  0  0  0  0
 13 17  1  0  0  0  0
 14 16  1  0  0  0  0
 15 18  1  0  0  0  0
 17 21  1  0  0  0  0
 18 21  1  0  0  0  0
 19 20  1  0  0  0  0
M  CHG  2   6  -1  10   1
M  END
> <PUBCHEM_COMPOUND_ID_TYPE>
0

> <PUBCHEM_TOTAL_CHARGE>
0

> <PUBCHEM_SUBSTANCE_ID>
310946434

> <PUBCHEM_SUBSTANCE_VERSION>
1

> <PUBCHEM_EXT_DATASOURCE_NAME>
4488

> <PUBCHEM_EXT_DATASOURCE_REGID>
SCHEMBL16124555

> <PUBCHEM_SUBSTANCE_COMMENT>
InChI=1S/C11H21N3O8/c12-10(21-9-15)3-1-2-4-13-11(16)20-7-5-19-6-8-22-14(17)18/h9-10H,1-8,12H2,(H,13,16)
InChIKey=ZKJVYHORMVBUBV-UHFFFAOYSA-N

> <PUBCHEM_SUBSTANCE_SYNONYM>
SCHEMBL16124555

> <PUBCHEM_XREF_EXT_ID>
SCHEMBL16124555

> <PUBCHEM_EXT_DATASOURCE_URL>
https://www.surechembl.org/

> <PUBCHEM_EXT_SUBSTANCE_URL>
https://www.surechembl.org/chemical/SCHEMBL16124555

> <PUBCHEM_CID_ASSOCIATIONS>
117612346  1

> <PUBCHEM_COORDINATE_TYPE>
1
3

$$$$
