310948543
  -OEChem-07211613022D

 25 26  0     1  0  0  0  0  0999 V2000
   -3.3656    1.6689    0.0000 Br  0  0  0  0  0  0  0  0  0  0  0  0
    3.0345    0.7034    0.0000 F   0  0  0  0  0  0  0  0  0  0  0  0
    3.3656   -0.3862    0.0000 F   0  0  0  0  0  0  0  0  0  0  0  0
    2.2483   -0.7034    0.0000 F   0  0  0  0  0  0  0  0  0  0  0  0
    0.5104    1.2551    0.0000 O   0  5  0  0  0  0  0  0  0  0  0  0
   -0.2207    2.4690    0.0000 O   0  0  0  0  0  0  0  0  0  0  0  0
   -0.2069    0.0138    0.0000 N   0  0  3  0  0  0  0  0  0  0  0  0
   -0.2207    1.6689    0.0000 N   0  3  0  0  0  0  0  0  0  0  0  0
   -0.9379    0.4414    0.0000 C   0  0  0  0  0  0  0  0  0  0  0  0
   -0.9241    1.2551    0.0000 C   0  0  0  0  0  0  0  0  0  0  0  0
   -0.2069   -0.8138    0.0000 C   0  0  0  0  0  0  0  0  0  0  0  0
   -1.6276    0.0138    0.0000 C   0  0  0  0  0  0  0  0  0  0  0  0
    0.4966    0.4276    0.0000 C   0  0  0  0  0  0  0  0  0  0  0  0
   -1.6551    1.6551    0.0000 C   0  0  0  0  0  0  0  0  0  0  0  0
   -2.3448    1.2551    0.0000 C   0  0  0  0  0  0  0  0  0  0  0  0
   -2.3448    0.4276    0.0000 C   0  0  0  0  0  0  0  0  0  0  0  0
    1.2276    0.0138    0.0000 C   0  0  3  0  0  0  0  0  0  0  0  0
   -0.9103   -1.2414    0.0000 C   0  0  0  0  0  0  0  0  0  0  0  0
    0.4966   -1.2276    0.0000 C   0  0  0  0  0  0  0  0  0  0  0  0
    1.9173    0.4276    0.0000 C   0  0  0  0  0  0  0  0  0  0  0  0
    2.6345    0.0000    0.0000 C   0  0  0  0  0  0  0  0  0  0  0  0
   -0.9103   -2.0689    0.0000 C   0  0  0  0  0  0  0  0  0  0  0  0
    0.4966   -2.0689    0.0000 C   0  0  0  0  0  0  0  0  0  0  0  0
   -0.1931   -2.4690    0.0000 C   0  0  0  0  0  0  0  0  0  0  0  0
    1.2276   -0.8276    0.0000 C   0  0  0  0  0  0  0  0  0  0  0  0
  1 15  1  0  0  0  0
  2 21  1  0  0  0  0
  3 21  1  0  0  0  0
  4 21  1  0  0  0  0
  5  8  1  0  0  0  0
  6  8  2  0  0  0  0
  7  9  1  0  0  0  0
  7 11  1  0  0  0  0
  7 13  1  0  0  0  0
  8 10  1  0  0  0  0
  9 10  2  0  0  0  0
  9 12  1  0  0  0  0
 10 14  1  0  0  0  0
 11 18  1  0  0  0  0
 11 19  1  0  0  0  0
 12 16  2  0  0  0  0
 13 17  1  0  0  0  0
 14 15  2  0  0  0  0
 15 16  1  0  0  0  0
 17 20  1  0  0  0  0
 17 25  1  0  0  0  0
 18 22  1  0  0  0  0
 19 23  1  0  0  0  0
 20 21  1  0  0  0  0
 22 24  1  0  0  0  0
 23 24  1  0  0  0  0
M  CHG  2   5  -1   8   1
M  END
> <PUBCHEM_COMPOUND_ID_TYPE>
0

> <PUBCHEM_TOTAL_CHARGE>
0

> <PUBCHEM_SUBSTANCE_ID>
310948543

> <PUBCHEM_SUBSTANCE_VERSION>
1

> <PUBCHEM_EXT_DATASOURCE_NAME>
4488

> <PUBCHEM_EXT_DATASOURCE_REGID>
SCHEMBL16126725

> <PUBCHEM_SUBSTANCE_COMMENT>
InChI=1S/C17H22BrF3N2O2/c1-12(10-17(19,20)21)11-22(14-5-3-2-4-6-14)15-8-7-13(18)9-16(15)23(24)25/h7-9,12,14H,2-6,10-11H2,1H3
InChIKey=COLPOAVRNPENDO-UHFFFAOYSA-N

> <PUBCHEM_SUBSTANCE_SYNONYM>
SCHEMBL16126725

> <PUBCHEM_XREF_EXT_ID>
SCHEMBL16126725

> <PUBCHEM_EXT_DATASOURCE_URL>
https://www.surechembl.org/

> <PUBCHEM_EXT_SUBSTANCE_URL>
https://www.surechembl.org/chemical/SCHEMBL16126725

> <PUBCHEM_CID_ASSOCIATIONS>
117614100  1

> <PUBCHEM_COORDINATE_TYPE>
1
3

$$$$
