310939077
  -OEChem-07211613022D

 22 25  0     1  0  0  0  0  0999 V2000
   -0.5443    8.5637    0.0000 O   0  0  0  0  0  0  0  0  0  0  0  0
    0.6101    6.1035    0.0000 O   0  0  0  0  0  0  0  0  0  0  0  0
    0.9548    8.7213    0.0000 O   0  0  0  0  0  0  0  0  0  0  0  0
    1.8609    6.0051    0.0000 O   0  0  0  0  0  0  0  0  0  0  0  0
    3.2428    5.9327    0.0000 O   0  0  0  0  0  0  0  0  0  0  0  0
   -0.5443    7.2289    0.0000 C   0  0  3  0  0  0  0  0  0  0  0  0
   -1.0293    7.8963    0.0000 C   0  0  3  0  0  0  0  0  0  0  0  0
    0.2403    7.4838    0.0000 C   0  0  0  0  0  0  0  0  0  0  0  0
   -1.8139    7.6414    0.0000 C   0  0  0  0  0  0  0  0  0  0  0  0
   -1.8139    6.8164    0.0000 C   0  0  0  0  0  0  0  0  0  0  0  0
    0.2403    8.3088    0.0000 C   0  0  0  0  0  0  0  0  0  0  0  0
   -1.0293    6.5614    0.0000 C   0  0  0  0  0  0  0  0  0  0  0  0
    0.8236    6.9004    0.0000 C   0  0  0  0  0  0  0  0  0  0  0  0
   -2.5284    8.0539    0.0000 C   0  0  0  0  0  0  0  0  0  0  0  0
   -2.5284    6.4039    0.0000 C   0  0  0  0  0  0  0  0  0  0  0  0
    1.1935    5.5202    0.0000 C   0  0  3  0  0  0  0  0  0  0  0  0
    2.5284    5.5202    0.0000 C   0  0  0  0  0  0  0  0  0  0  0  0
    2.2734    4.7356    0.0000 C   0  0  3  0  0  0  0  0  0  0  0  0
   -3.2428    7.6414    0.0000 C   0  0  0  0  0  0  0  0  0  0  0  0
    1.4484    4.7356    0.0000 C   0  0  0  0  0  0  0  0  0  0  0  0
   -3.2428    6.8164    0.0000 C   0  0  0  0  0  0  0  0  0  0  0  0
    2.6859    4.0211    0.0000 C   0  0  0  0  0  0  0  0  0  0  0  0
  1  7  1  0  0  0  0
  1 11  1  0  0  0  0
  2 13  1  0  0  0  0
  2 16  1  0  0  0  0
  3 11  2  0  0  0  0
  4 16  1  0  0  0  0
  4 17  1  0  0  0  0
  5 17  2  0  0  0  0
  6  7  1  0  0  0  0
  6  8  1  0  0  0  0
  6 12  1  0  0  0  0
  7  9  1  0  0  0  0
  8 11  1  0  0  0  0
  8 13  2  0  0  0  0
  9 10  2  0  0  0  0
  9 14  1  0  0  0  0
 10 12  1  0  0  0  0
 10 15  1  0  0  0  0
 14 19  2  0  0  0  0
 15 21  2  0  0  0  0
 16 20  1  0  0  0  0
 17 18  1  0  0  0  0
 18 20  1  0  0  0  0
 18 22  1  0  0  0  0
 19 21  1  0  0  0  0
M  END
> <PUBCHEM_COMPOUND_ID_TYPE>
0

> <PUBCHEM_TOTAL_CHARGE>
0

> <PUBCHEM_SUBSTANCE_ID>
310939077

> <PUBCHEM_SUBSTANCE_VERSION>
1

> <PUBCHEM_EXT_DATASOURCE_NAME>
4488

> <PUBCHEM_EXT_DATASOURCE_REGID>
SCHEMBL16116996

> <PUBCHEM_SUBSTANCE_COMMENT>
InChI=1S/C17H16O5/c1-9-6-14(21-16(9)18)20-8-13-12-7-10-4-2-3-5-11(10)15(12)22-17(13)19/h2-5,8-9,12,14-15H,6-7H2,1H3/b13-8+
InChIKey=ZZJDHIZRVHSRHS-MDWZMJQESA-N

> <PUBCHEM_SUBSTANCE_SYNONYM>
SCHEMBL16116996

> <PUBCHEM_XREF_EXT_ID>
SCHEMBL16116996

> <PUBCHEM_EXT_DATASOURCE_URL>
https://www.surechembl.org/

> <PUBCHEM_EXT_SUBSTANCE_URL>
https://www.surechembl.org/chemical/SCHEMBL16116996

> <PUBCHEM_CID_ASSOCIATIONS>
117606439  1

> <PUBCHEM_COORDINATE_TYPE>
1
3

$$$$
