310939071
  -OEChem-07211613022D

 23 24  0     1  0  0  0  0  0999 V2000
    2.5006   13.7255    0.0000 O   0  0  0  0  0  0  0  0  0  0  0  0
    1.1187   13.6531    0.0000 O   0  0  0  0  0  0  0  0  0  0  0  0
   -3.8826   13.2406    0.0000 O   0  0  0  0  0  0  0  0  0  0  0  0
    3.8826   13.6531    0.0000 O   0  0  0  0  0  0  0  0  0  0  0  0
   -2.4536   14.8906    0.0000 C   0  0  0  0  0  0  0  0  0  0  0  0
   -1.7391   14.4781    0.0000 C   0  0  0  0  0  0  0  0  0  0  0  0
   -1.7391   13.6531    0.0000 C   0  0  0  0  0  0  0  0  0  0  0  0
   -3.1681   14.4781    0.0000 C   0  0  0  0  0  0  0  0  0  0  0  0
   -3.1681   13.6531    0.0000 C   0  0  3  0  0  0  0  0  0  0  0  0
   -2.4536   13.2406    0.0000 C   0  0  0  0  0  0  0  0  0  0  0  0
   -1.0247   14.8906    0.0000 C   0  0  0  0  0  0  0  0  0  0  0  0
    1.8332   13.2406    0.0000 C   0  0  3  0  0  0  0  0  0  0  0  0
    3.1681   13.2406    0.0000 C   0  0  0  0  0  0  0  0  0  0  0  0
    2.9131   12.4559    0.0000 C   0  0  0  0  0  0  0  0  0  0  0  0
    2.0881   12.4559    0.0000 C   0  0  0  0  0  0  0  0  0  0  0  0
   -2.4536   15.7156    0.0000 C   0  0  0  0  0  0  0  0  0  0  0  0
   -2.4536   14.0656    0.0000 C   0  0  0  0  0  0  0  0  0  0  0  0
   -0.3102   14.4781    0.0000 C   0  0  0  0  0  0  0  0  0  0  0  0
    0.4043   14.8906    0.0000 C   0  0  0  0  0  0  0  0  0  0  0  0
   -1.0247   13.2406    0.0000 C   0  0  0  0  0  0  0  0  0  0  0  0
    1.1187   14.4781    0.0000 C   0  0  0  0  0  0  0  0  0  0  0  0
    3.3256   11.7415    0.0000 C   0  0  0  0  0  0  0  0  0  0  0  0
    0.4043   15.7156    0.0000 C   0  0  0  0  0  0  0  0  0  0  0  0
  1 12  1  0  0  0  0
  1 13  1  0  0  0  0
  2 12  1  0  0  0  0
  2 21  1  0  0  0  0
  3  9  1  0  0  0  0
  4 13  2  0  0  0  0
  5  6  1  0  0  0  0
  5  8  1  0  0  0  0
  5 16  1  0  0  0  0
  5 17  1  0  0  0  0
  6  7  2  0  0  0  0
  6 11  1  0  0  0  0
  7 10  1  0  0  0  0
  7 20  1  0  0  0  0
  8  9  1  0  0  0  0
  9 10  1  0  0  0  0
 11 18  2  0  0  0  0
 12 15  1  0  0  0  0
 13 14  1  0  0  0  0
 14 15  2  0  0  0  0
 14 22  1  0  0  0  0
 18 19  1  0  0  0  0
 19 21  2  0  0  0  0
 19 23  1  0  0  0  0
M  END
> <PUBCHEM_COMPOUND_ID_TYPE>
0

> <PUBCHEM_TOTAL_CHARGE>
0

> <PUBCHEM_SUBSTANCE_ID>
310939071

> <PUBCHEM_SUBSTANCE_VERSION>
1

> <PUBCHEM_EXT_DATASOURCE_NAME>
4488

> <PUBCHEM_EXT_DATASOURCE_REGID>
SCHEMBL16116990

> <PUBCHEM_SUBSTANCE_COMMENT>
InChI=1S/C19H26O4/c1-12(11-22-17-9-14(3)18(21)23-17)6-7-16-13(2)8-15(20)10-19(16,4)5/h6-7,9,11,15,17,20H,8,10H2,1-5H3/b7-6+,12-11-
InChIKey=JKNZPIGEJQQGAZ-AOIKRWKVSA-N

> <PUBCHEM_SUBSTANCE_SYNONYM>
SCHEMBL16116990

> <PUBCHEM_XREF_EXT_ID>
SCHEMBL16116990

> <PUBCHEM_EXT_DATASOURCE_URL>
https://www.surechembl.org/

> <PUBCHEM_EXT_SUBSTANCE_URL>
https://www.surechembl.org/chemical/SCHEMBL16116990

> <PUBCHEM_CID_ASSOCIATIONS>
117606434  1

> <PUBCHEM_COORDINATE_TYPE>
1
3

$$$$
