310946498
  -OEChem-07211613022D

 19 18  0     1  0  0  0  0  0999 V2000
   -6.3279   13.3736    0.0000 O   0  0  0  0  0  0  0  0  0  0  0  0
   -3.4701   12.5486    0.0000 O   0  0  0  0  0  0  0  0  0  0  0  0
   -3.4701   15.0236    0.0000 O   0  0  0  0  0  0  0  0  0  0  0  0
   -5.6135   14.6111    0.0000 O   0  0  0  0  0  0  0  0  0  0  0  0
   -9.1858   12.5486    0.0000 O   0  0  0  0  0  0  0  0  0  0  0  0
   -8.4713   11.3111    0.0000 O   0  5  0  0  0  0  0  0  0  0  0  0
   -7.7569   12.5486    0.0000 O   0  0  0  0  0  0  0  0  0  0  0  0
   -4.8990   13.3736    0.0000 N   0  0  0  0  0  0  0  0  0  0  0  0
   -8.4713   12.1361    0.0000 N   0  3  0  0  0  0  0  0  0  0  0  0
   -4.1845   13.7861    0.0000 C   0  0  3  0  0  0  0  0  0  0  0  0
   -3.4701   13.3736    0.0000 C   0  0  0  0  0  0  0  0  0  0  0  0
   -4.1845   14.6111    0.0000 C   0  0  3  0  0  0  0  0  0  0  0  0
   -5.6135   13.7861    0.0000 C   0  0  0  0  0  0  0  0  0  0  0  0
   -7.0424   13.7861    0.0000 C   0  0  0  0  0  0  0  0  0  0  0  0
   -2.7556   13.7861    0.0000 C   0  0  0  0  0  0  0  0  0  0  0  0
   -4.8990   15.0236    0.0000 C   0  0  0  0  0  0  0  0  0  0  0  0
   -7.7569   13.3736    0.0000 C   0  0  0  0  0  0  0  0  0  0  0  0
   -8.4713   13.7861    0.0000 C   0  0  0  0  0  0  0  0  0  0  0  0
   -9.1858   13.3736    0.0000 C   0  0  0  0  0  0  0  0  0  0  0  0
  1 13  1  0  0  0  0
  1 14  1  0  0  0  0
  2 11  2  0  0  0  0
  3 12  1  0  0  0  0
  4 13  2  0  0  0  0
  5  9  1  0  0  0  0
  5 19  1  0  0  0  0
  6  9  1  0  0  0  0
  7  9  2  0  0  0  0
  8 10  1  0  0  0  0
  8 13  1  0  0  0  0
 10 11  1  0  0  0  0
 10 12  1  0  0  0  0
 11 15  1  0  0  0  0
 12 16  1  0  0  0  0
 14 17  1  0  0  0  0
 17 18  1  0  0  0  0
 18 19  1  0  0  0  0
M  CHG  2   6  -1   9   1
M  END
> <PUBCHEM_COMPOUND_ID_TYPE>
0

> <PUBCHEM_TOTAL_CHARGE>
0

> <PUBCHEM_SUBSTANCE_ID>
310946498

> <PUBCHEM_SUBSTANCE_VERSION>
1

> <PUBCHEM_EXT_DATASOURCE_NAME>
4488

> <PUBCHEM_EXT_DATASOURCE_REGID>
SCHEMBL16124619

> <PUBCHEM_SUBSTANCE_COMMENT>
InChI=1S/C10H18N2O7/c1-7(13)9(8(2)14)11-10(15)18-5-3-4-6-19-12(16)17/h7,9,13H,3-6H2,1-2H3,(H,11,15)
InChIKey=SNLICUUTVCSCAD-UHFFFAOYSA-N

> <PUBCHEM_SUBSTANCE_SYNONYM>
SCHEMBL16124619

> <PUBCHEM_XREF_EXT_ID>
SCHEMBL16124619

> <PUBCHEM_EXT_DATASOURCE_URL>
https://www.surechembl.org/

> <PUBCHEM_EXT_SUBSTANCE_URL>
https://www.surechembl.org/chemical/SCHEMBL16124619

> <PUBCHEM_CID_ASSOCIATIONS>
117612404  1

> <PUBCHEM_COORDINATE_TYPE>
1
3

$$$$
