310944558
  -OEChem-07211613022D

 34 37  0     1  0  0  0  0  0999 V2000
   -3.0442   -0.1864    0.0000 Cl  0  0  0  0  0  0  0  0  0  0  0  0
   -2.1496    2.7212    0.0000 Cl  0  0  0  0  0  0  0  0  0  0  0  0
   -5.1938    1.0562    0.0000 Cl  0  0  0  0  0  0  0  0  0  0  0  0
   -0.0124   -0.1740    0.0000 O   0  0  0  0  0  0  0  0  0  0  0  0
    1.4165    2.3112    0.0000 O   0  0  0  0  0  0  0  0  0  0  0  0
    5.1565   -1.1059    0.0000 O   0  0  0  0  0  0  0  0  0  0  0  0
    2.1620    1.0686    0.0000 N   0  0  0  0  0  0  0  0  0  0  0  0
    3.7400   -1.1059    0.0000 N   0  0  0  0  0  0  0  0  0  0  0  0
    0.0000    1.4786    0.0000 N   0  0  0  0  0  0  0  0  0  0  0  0
    2.9448   -0.0124    0.0000 C   0  0  3  0  0  0  0  0  0  0  0  0
    2.1620    0.2361    0.0000 C   0  0  0  0  0  0  0  0  0  0  0  0
    3.7400   -0.2734    0.0000 C   0  0  0  0  0  0  0  0  0  0  0  0
    3.4418    0.6461    0.0000 C   0  0  0  0  0  0  0  0  0  0  0  0
    2.4726   -0.6959    0.0000 C   0  0  0  0  0  0  0  0  0  0  0  0
   -2.1496    1.0686    0.0000 C   0  0  0  0  0  0  0  0  0  0  0  0
    2.9324    1.3171    0.0000 C   0  0  0  0  0  0  0  0  0  0  0  0
   -2.8827    1.4910    0.0000 C   0  0  0  0  0  0  0  0  0  0  0  0
    2.9696   -1.3543    0.0000 C   0  0  0  0  0  0  0  0  0  0  0  0
   -0.7207    1.0686    0.0000 C   0  0  0  0  0  0  0  0  0  0  0  0
    1.4165    1.4662    0.0000 C   0  0  0  0  0  0  0  0  0  0  0  0
   -2.1496    0.2361    0.0000 C   0  0  0  0  0  0  0  0  0  0  0  0
   -0.7331    0.2485    0.0000 C   0  0  0  0  0  0  0  0  0  0  0  0
   -1.4413    1.4662    0.0000 C   0  0  0  0  0  0  0  0  0  0  0  0
    4.4483   -1.5159    0.0000 C   0  0  0  0  0  0  0  0  0  0  0  0
   -1.4289   -0.1740    0.0000 C   0  0  0  0  0  0  0  0  0  0  0  0
   -2.8703    2.3236    0.0000 C   0  0  0  0  0  0  0  0  0  0  0  0
    0.7207    1.0686    0.0000 C   0  0  0  0  0  0  0  0  0  0  0  0
   -3.5909    1.0686    0.0000 C   0  0  0  0  0  0  0  0  0  0  0  0
   -4.3116    1.4786    0.0000 C   0  0  0  0  0  0  0  0  0  0  0  0
   -3.6033    2.7087    0.0000 C   0  0  0  0  0  0  0  0  0  0  0  0
   -4.2992    2.2987    0.0000 C   0  0  0  0  0  0  0  0  0  0  0  0
    4.4483   -2.3360    0.0000 C   0  0  0  0  0  0  0  0  0  0  0  0
    0.0000   -1.0064    0.0000 C   0  0  0  0  0  0  0  0  0  0  0  0
    5.1938   -2.7212    0.0000 C   0  0  0  0  0  0  0  0  0  0  0  0
  1 21  1  0  0  0  0
  2 26  1  0  0  0  0
  3 29  1  0  0  0  0
  4 22  1  0  0  0  0
  4 33  1  0  0  0  0
  5 20  2  0  0  0  0
  6 24  2  0  0  0  0
  7 11  1  0  0  0  0
  7 16  1  0  0  0  0
  7 20  1  0  0  0  0
  8 12  1  0  0  0  0
  8 18  1  0  0  0  0
  8 24  1  0  0  0  0
  9 19  1  0  0  0  0
  9 27  1  0  0  0  0
 10 11  1  0  0  0  0
 10 12  1  0  0  0  0
 10 13  1  0  0  0  0
 10 14  1  0  0  0  0
 13 16  1  0  0  0  0
 14 18  1  0  0  0  0
 15 17  1  0  0  0  0
 15 21  2  0  0  0  0
 15 23  1  0  0  0  0
 17 26  1  0  0  0  0
 17 28  2  0  0  0  0
 19 22  1  0  0  0  0
 19 23  2  0  0  0  0
 20 27  1  0  0  0  0
 21 25  1  0  0  0  0
 22 25  2  0  0  0  0
 24 32  1  0  0  0  0
 26 30  2  0  0  0  0
 28 29  1  0  0  0  0
 29 31  2  0  0  0  0
 30 31  1  0  0  0  0
 32 34  2  0  0  0  0
M  END
> <PUBCHEM_COMPOUND_ID_TYPE>
0

> <PUBCHEM_TOTAL_CHARGE>
0

> <PUBCHEM_SUBSTANCE_ID>
310944558

> <PUBCHEM_SUBSTANCE_VERSION>
1

> <PUBCHEM_EXT_DATASOURCE_NAME>
4488

> <PUBCHEM_EXT_DATASOURCE_REGID>
SCHEMBL16122635

> <PUBCHEM_SUBSTANCE_COMMENT>
InChI=1S/C25H26Cl3N3O3/c1-3-23(32)30-8-6-25(14-30)7-9-31(15-25)24(33)13-29-21-11-18(20(28)12-22(21)34-2)17-10-16(26)4-5-19(17)27/h3-5,10-12,29H,1,6-9,13-15H2,2H3
InChIKey=VENGIMURKIHCEZ-UHFFFAOYSA-N

> <PUBCHEM_SUBSTANCE_SYNONYM>
SCHEMBL16122635

> <PUBCHEM_XREF_EXT_ID>
SCHEMBL16122635

> <PUBCHEM_EXT_DATASOURCE_URL>
https://www.surechembl.org/

> <PUBCHEM_EXT_SUBSTANCE_URL>
https://www.surechembl.org/chemical/SCHEMBL16122635

> <PUBCHEM_CID_ASSOCIATIONS>
117610793  1

> <PUBCHEM_COORDINATE_TYPE>
1
3

$$$$
