310936765
  -OEChem-07211613022D

 26 27  0     1  0  0  0  0  0999 V2000
   -1.3480    0.9059    0.0000 Cl  0  0  0  0  0  0  0  0  0  0  0  0
   -0.5230    2.3349    0.0000 Cl  0  0  0  0  0  0  0  0  0  0  0  0
    0.7145   -4.0954    0.0000 S   0  0  0  0  0  0  0  0  0  0  0  0
    1.4289   -1.6500    0.0000 O   0  0  0  0  0  0  0  0  0  0  0  0
    2.3645   -1.2375    0.0000 O   0  0  0  0  0  0  0  0  0  0  0  0
    3.6020   -1.9520    0.0000 O   0  0  0  0  0  0  0  0  0  0  0  0
    3.6020   -0.5230    0.0000 N   0  0  0  0  0  0  0  0  0  0  0  0
    0.7145   -1.2375    0.0000 C   0  0  3  0  0  0  0  0  0  0  0  0
    1.1270   -0.5230    0.0000 C   0  0  3  0  0  0  0  0  0  0  0  0
    0.3020   -1.9520    0.0000 C   0  0  0  0  0  0  0  0  0  0  0  0
    0.7145    0.1914    0.0000 C   0  0  0  0  0  0  0  0  0  0  0  0
    0.0000   -0.8250    0.0000 C   0  0  0  0  0  0  0  0  0  0  0  0
    1.9520   -0.5230    0.0000 C   0  0  0  0  0  0  0  0  0  0  0  0
    0.7145   -2.6664    0.0000 C   0  0  0  0  0  0  0  0  0  0  0  0
   -0.1105    0.1914    0.0000 C   0  0  0  0  0  0  0  0  0  0  0  0
   -0.5230   -1.9520    0.0000 C   0  0  0  0  0  0  0  0  0  0  0  0
    1.1270    0.9059    0.0000 C   0  0  0  0  0  0  0  0  0  0  0  0
   -0.5230    0.9059    0.0000 C   0  0  0  0  0  0  0  0  0  0  0  0
    0.3020   -3.3809    0.0000 C   0  0  0  0  0  0  0  0  0  0  0  0
   -0.1105    1.6204    0.0000 C   0  0  0  0  0  0  0  0  0  0  0  0
    0.7145    1.6204    0.0000 C   0  0  0  0  0  0  0  0  0  0  0  0
   -0.9355   -2.6664    0.0000 C   0  0  0  0  0  0  0  0  0  0  0  0
   -0.5230   -3.3809    0.0000 C   0  0  0  0  0  0  0  0  0  0  0  0
   -0.7145   -1.2375    0.0000 C   0  0  0  0  0  0  0  0  0  0  0  0
    3.1895   -1.2375    0.0000 C   0  0  0  0  0  0  0  0  0  0  0  0
    1.5395   -4.0954    0.0000 C   0  0  0  0  0  0  0  0  0  0  0  0
  1 18  1  0  0  0  0
  2 20  1  0  0  0  0
  3 19  1  0  0  0  0
  3 26  1  0  0  0  0
  4  8  1  0  0  0  0
  5 13  1  0  0  0  0
  5 25  1  0  0  0  0
  6 25  2  0  0  0  0
  7 25  1  0  0  0  0
  8  9  1  0  0  0  0
  8 10  1  0  0  0  0
  8 12  1  0  0  0  0
  9 11  1  0  0  0  0
  9 13  1  0  0  0  0
 10 14  2  0  0  0  0
 10 16  1  0  0  0  0
 11 15  2  0  0  0  0
 11 17  1  0  0  0  0
 12 24  1  0  0  0  0
 14 19  1  0  0  0  0
 15 18  1  0  0  0  0
 16 22  2  0  0  0  0
 17 21  2  0  0  0  0
 18 20  2  0  0  0  0
 19 23  2  0  0  0  0
 20 21  1  0  0  0  0
 22 23  1  0  0  0  0
M  END
> <PUBCHEM_COMPOUND_ID_TYPE>
0

> <PUBCHEM_TOTAL_CHARGE>
0

> <PUBCHEM_SUBSTANCE_ID>
310936765

> <PUBCHEM_SUBSTANCE_VERSION>
1

> <PUBCHEM_EXT_DATASOURCE_NAME>
4488

> <PUBCHEM_EXT_DATASOURCE_REGID>
SCHEMBL16114449

> <PUBCHEM_SUBSTANCE_COMMENT>
InChI=1S/C19H21Cl2NO3S/c1-3-19(24,13-5-4-6-14(10-13)26-2)15(11-25-18(22)23)12-7-8-16(20)17(21)9-12/h4-10,15,24H,3,11H2,1-2H3,(H2,22,23)
InChIKey=SQTURKRCAKIXRY-UHFFFAOYSA-N

> <PUBCHEM_SUBSTANCE_SYNONYM>
SCHEMBL16114449

> <PUBCHEM_XREF_EXT_ID>
SCHEMBL16114449

> <PUBCHEM_EXT_DATASOURCE_URL>
https://www.surechembl.org/

> <PUBCHEM_EXT_SUBSTANCE_URL>
https://www.surechembl.org/chemical/SCHEMBL16114449

> <PUBCHEM_CID_ASSOCIATIONS>
117604662  1

> <PUBCHEM_COORDINATE_TYPE>
1
3

$$$$
