310934645
  -OEChem-07211613022D

 27 30  0     1  0  0  0  0  0999 V2000
    5.5272   -3.9003    0.0000 F   0  0  0  0  0  0  0  0  0  0  0  0
    2.7845    0.1271    0.0000 O   0  0  0  0  0  0  0  0  0  0  0  0
    4.5777   -2.8807    0.0000 O   0  0  0  0  0  0  0  0  0  0  0  0
    3.5644   -2.4422    0.0000 O   0  0  0  0  0  0  0  0  0  0  0  0
   -0.1435   -0.0305    0.0000 N   0  0  0  0  0  0  0  0  0  0  0  0
   -0.6284   -0.6979    0.0000 N   0  0  0  0  0  0  0  0  0  0  0  0
    4.3922   -1.2775    0.0000 C   0  0  3  0  0  0  0  0  0  0  0  0
    5.0545   -1.7693    0.0000 C   0  0  0  0  0  0  0  0  0  0  0  0
    3.5852   -1.1059    0.0000 C   0  0  0  0  0  0  0  0  0  0  0  0
    3.4990   -0.2854    0.0000 C   0  0  3  0  0  0  0  0  0  0  0  0
    4.8047   -0.5630    0.0000 C   0  0  0  0  0  0  0  0  0  0  0  0
    4.3146   -2.0988    0.0000 C   0  0  0  0  0  0  0  0  0  0  0  0
    4.9597   -2.5889    0.0000 C   0  0  0  0  0  0  0  0  0  0  0  0
    4.2527    0.0501    0.0000 C   0  0  0  0  0  0  0  0  0  0  0  0
    5.8117   -1.4417    0.0000 C   0  0  0  0  0  0  0  0  0  0  0  0
    0.6411   -0.2854    0.0000 C   0  0  0  0  0  0  0  0  0  0  0  0
    2.0701   -0.2854    0.0000 C   0  0  0  0  0  0  0  0  0  0  0  0
    5.6220   -3.0808    0.0000 C   0  0  0  0  0  0  0  0  0  0  0  0
    0.6411   -1.1104    0.0000 C   0  0  0  0  0  0  0  0  0  0  0  0
    1.3556    0.1271    0.0000 C   0  0  0  0  0  0  0  0  0  0  0  0
    6.4740   -1.9336    0.0000 C   0  0  0  0  0  0  0  0  0  0  0  0
    2.0701   -1.1104    0.0000 C   0  0  0  0  0  0  0  0  0  0  0  0
    6.3792   -2.7531    0.0000 C   0  0  0  0  0  0  0  0  0  0  0  0
    1.3556   -1.5229    0.0000 C   0  0  0  0  0  0  0  0  0  0  0  0
   -0.1435   -1.3654    0.0000 C   0  0  0  0  0  0  0  0  0  0  0  0
    4.5397   -3.2990    0.0000 C   0  0  0  0  0  0  0  0  0  0  0  0
   -0.3984    0.7541    0.0000 C   0  0  0  0  0  0  0  0  0  0  0  0
  1 18  1  0  0  0  0
  2 10  1  0  0  0  0
  2 17  1  0  0  0  0
  3 12  2  0  0  0  0
  4 12  1  0  0  0  0
  5  6  1  0  0  0  0
  5 16  1  0  0  0  0
  5 27  1  0  0  0  0
  6 25  2  0  0  0  0
  7  8  1  0  0  0  0
  7  9  1  0  0  0  0
  7 11  1  0  0  0  0
  7 12  1  0  0  0  0
  8 13  2  0  0  0  0
  8 15  1  0  0  0  0
  9 10  1  0  0  0  0
 10 14  1  0  0  0  0
 11 14  1  0  0  0  0
 13 18  1  0  0  0  0
 13 26  1  0  0  0  0
 15 21  2  0  0  0  0
 16 19  2  0  0  0  0
 16 20  1  0  0  0  0
 17 20  2  0  0  0  0
 17 22  1  0  0  0  0
 18 23  2  0  0  0  0
 19 24  1  0  0  0  0
 19 25  1  0  0  0  0
 21 23  1  0  0  0  0
 22 24  2  0  0  0  0
M  END
> <PUBCHEM_COMPOUND_ID_TYPE>
0

> <PUBCHEM_TOTAL_CHARGE>
0

> <PUBCHEM_SUBSTANCE_ID>
310934645

> <PUBCHEM_SUBSTANCE_VERSION>
1

> <PUBCHEM_EXT_DATASOURCE_NAME>
4488

> <PUBCHEM_EXT_DATASOURCE_REGID>
SCHEMBL16112143

> <PUBCHEM_SUBSTANCE_COMMENT>
InChI=1S/C21H21FN2O3/c1-13-17(4-3-5-18(13)22)21(20(25)26)9-8-16(11-21)27-15-7-6-14-12-23-24(2)19(14)10-15/h3-7,10,12,16H,8-9,11H2,1-2H3,(H,25,26)
InChIKey=LYUQCDTWEIFLNU-UHFFFAOYSA-N

> <PUBCHEM_SUBSTANCE_SYNONYM>
SCHEMBL16112143

> <PUBCHEM_XREF_EXT_ID>
SCHEMBL16112143

> <PUBCHEM_EXT_DATASOURCE_URL>
https://www.surechembl.org/

> <PUBCHEM_EXT_SUBSTANCE_URL>
https://www.surechembl.org/chemical/SCHEMBL16112143

> <PUBCHEM_CID_ASSOCIATIONS>
117602813  1

> <PUBCHEM_COORDINATE_TYPE>
1
3

$$$$
