310937728
  -OEChem-07211613022D

 24 27  0     1  0  0  0  0  0999 V2000
    6.0397   -2.2252    0.0000 O   0  0  0  0  0  0  0  0  0  0  0  0
    1.9338   -2.9404    0.0000 O   0  0  0  0  0  0  0  0  0  0  0  0
    0.0000   -3.8940    0.0000 O   0  0  0  0  0  0  0  0  0  0  0  0
    4.7682   -1.8278    0.0000 N   0  0  0  0  0  0  0  0  0  0  0  0
    4.1854   -3.9205    0.0000 N   0  0  0  0  0  0  0  0  0  0  0  0
    5.5364   -2.9139    0.0000 N   0  0  0  0  0  0  0  0  0  0  0  0
    2.7814   -4.0795    0.0000 C   0  0  0  0  0  0  0  0  0  0  0  0
    4.1059   -3.1258    0.0000 C   0  0  0  0  0  0  0  0  0  0  0  0
    2.6755   -3.2848    0.0000 C   0  0  0  0  0  0  0  0  0  0  0  0
    4.7682   -2.6490    0.0000 C   0  0  0  0  0  0  0  0  0  0  0  0
    2.0927   -4.5563    0.0000 C   0  0  0  0  0  0  0  0  0  0  0  0
    5.5364   -1.5629    0.0000 C   0  0  0  0  0  0  0  0  0  0  0  0
    3.3378   -2.7549    0.0000 C   0  0  0  0  0  0  0  0  0  0  0  0
    3.5232   -4.4238    0.0000 C   0  0  0  0  0  0  0  0  0  0  0  0
    5.8013   -0.7682    0.0000 C   0  0  0  0  0  0  0  0  0  0  0  0
    1.7483   -5.2980    0.0000 C   0  0  0  0  0  0  0  0  0  0  0  0
    1.2715   -4.6357    0.0000 C   0  0  0  0  0  0  0  0  0  0  0  0
    1.2715   -3.4437    0.0000 C   0  0  3  0  0  0  0  0  0  0  0  0
    6.6225   -1.0331    0.0000 C   0  0  0  0  0  0  0  0  0  0  0  0
    6.0662    0.0000    0.0000 C   0  0  0  0  0  0  0  0  0  0  0  0
    5.0331   -0.5298    0.0000 C   0  0  0  0  0  0  0  0  0  0  0  0
    0.4768   -3.2053    0.0000 C   0  0  0  0  0  0  0  0  0  0  0  0
    1.2980   -4.2649    0.0000 C   0  0  0  0  0  0  0  0  0  0  0  0
    0.5033   -4.5563    0.0000 C   0  0  0  0  0  0  0  0  0  0  0  0
  1  6  1  0  0  0  0
  1 12  1  0  0  0  0
  2  9  1  0  0  0  0
  2 18  1  0  0  0  0
  3 22  1  0  0  0  0
  3 24  1  0  0  0  0
  4 10  1  0  0  0  0
  4 12  2  0  0  0  0
  5  8  1  0  0  0  0
  5 14  2  0  0  0  0
  6 10  2  0  0  0  0
  7  9  2  0  0  0  0
  7 11  1  0  0  0  0
  7 14  1  0  0  0  0
  8 10  1  0  0  0  0
  8 13  2  0  0  0  0
  9 13  1  0  0  0  0
 11 16  1  0  0  0  0
 11 17  1  0  0  0  0
 12 15  1  0  0  0  0
 15 19  1  0  0  0  0
 15 20  1  0  0  0  0
 15 21  1  0  0  0  0
 16 17  1  0  0  0  0
 18 22  1  0  0  0  0
 18 23  1  0  0  0  0
 23 24  1  0  0  0  0
M  END
> <PUBCHEM_COMPOUND_ID_TYPE>
0

> <PUBCHEM_TOTAL_CHARGE>
0

> <PUBCHEM_SUBSTANCE_ID>
310937728

> <PUBCHEM_SUBSTANCE_VERSION>
1

> <PUBCHEM_EXT_DATASOURCE_NAME>
4488

> <PUBCHEM_EXT_DATASOURCE_REGID>
SCHEMBL16115527

> <PUBCHEM_SUBSTANCE_COMMENT>
InChI=1S/C18H23N3O3/c1-18(2,3)17-20-16(21-24-17)14-8-15(23-12-6-7-22-10-12)13(9-19-14)11-4-5-11/h8-9,11-12H,4-7,10H2,1-3H3
InChIKey=YUKWEOINOQTYRZ-UHFFFAOYSA-N

> <PUBCHEM_SUBSTANCE_SYNONYM>
SCHEMBL16115527

> <PUBCHEM_XREF_EXT_ID>
SCHEMBL16115527

> <PUBCHEM_EXT_DATASOURCE_URL>
https://www.surechembl.org/

> <PUBCHEM_EXT_SUBSTANCE_URL>
https://www.surechembl.org/chemical/SCHEMBL16115527

> <PUBCHEM_CID_ASSOCIATIONS>
86275999  1

> <PUBCHEM_COORDINATE_TYPE>
1
3

$$$$
