310932852
  -OEChem-07211613022D

 35 39  0     1  0  0  0  0  0999 V2000
    5.0791   -7.4693    0.0000 Br  0  0  0  0  0  0  0  0  0  0  0  0
    1.4939    0.0000    0.0000 Cl  0  0  0  0  0  0  0  0  0  0  0  0
    2.4648   -1.3445    0.0000 F   0  0  0  0  0  0  0  0  0  0  0  0
    1.4565   -5.3779    0.0000 O   0  0  0  0  0  0  0  0  0  0  0  0
    4.3695   -3.7347    0.0000 O   0  0  0  0  0  0  0  0  0  0  0  0
    2.9130   -5.3779    0.0000 N   0  0  0  0  0  0  0  0  0  0  0  0
    1.7926   -2.8757    0.0000 N   0  0  0  0  0  0  0  0  0  0  0  0
    3.0251   -3.8093    0.0000 N   0  0  0  0  0  0  0  0  0  0  0  0
    2.6142   -2.8757    0.0000 N   0  0  0  0  0  0  0  0  0  0  0  0
    2.9503   -3.7347    0.0000 N   0  0  0  0  0  0  0  0  0  0  0  0
    3.6599   -4.9671    0.0000 C   0  0  3  0  0  0  0  0  0  0  0  0
    4.3695   -5.3779    0.0000 C   0  0  0  0  0  0  0  0  0  0  0  0
    4.3695   -6.1995    0.0000 C   0  0  0  0  0  0  0  0  0  0  0  0
    2.2034   -4.9671    0.0000 C   0  0  0  0  0  0  0  0  0  0  0  0
    2.2034   -4.1454    0.0000 C   0  0  0  0  0  0  0  0  0  0  0  0
    3.6599   -4.1454    0.0000 C   0  0  0  0  0  0  0  0  0  0  0  0
    2.9130   -6.1995    0.0000 C   0  0  0  0  0  0  0  0  0  0  0  0
    3.6599   -6.6476    0.0000 C   0  0  0  0  0  0  0  0  0  0  0  0
    5.0791   -6.6476    0.0000 C   0  0  0  0  0  0  0  0  0  0  0  0
    1.5312   -3.6599    0.0000 C   0  0  0  0  0  0  0  0  0  0  0  0
    1.3071   -2.2034    0.0000 C   0  0  0  0  0  0  0  0  0  0  0  0
    5.0791   -4.9671    0.0000 C   0  0  0  0  0  0  0  0  0  0  0  0
    1.6432   -1.4191    0.0000 C   0  0  0  0  0  0  0  0  0  0  0  0
    5.7887   -6.1995    0.0000 C   0  0  0  0  0  0  0  0  0  0  0  0
    5.7887   -5.3779    0.0000 C   0  0  0  0  0  0  0  0  0  0  0  0
    0.4481   -2.2781    0.0000 C   0  0  0  0  0  0  0  0  0  0  0  0
    1.1577   -0.7470    0.0000 C   0  0  0  0  0  0  0  0  0  0  0  0
    2.9503   -2.8757    0.0000 C   0  0  0  0  0  0  0  0  0  0  0  0
    0.0000   -1.6059    0.0000 C   0  0  0  0  0  0  0  0  0  0  0  0
    0.3361   -0.8216    0.0000 C   0  0  0  0  0  0  0  0  0  0  0  0
    2.2034   -2.4648    0.0000 C   0  0  0  0  0  0  0  0  0  0  0  0
    3.6599   -2.4648    0.0000 C   0  0  0  0  0  0  0  0  0  0  0  0
    2.2034   -1.6432    0.0000 C   0  0  0  0  0  0  0  0  0  0  0  0
    3.6599   -1.6432    0.0000 C   0  0  0  0  0  0  0  0  0  0  0  0
    2.9503   -1.2325    0.0000 C   0  0  0  0  0  0  0  0  0  0  0  0
  1 19  1  0  0  0  0
  2 27  1  0  0  0  0
  3 23  1  0  0  0  0
  4 14  2  0  0  0  0
  5 16  2  0  0  0  0
  6 11  1  0  0  0  0
  6 14  1  0  0  0  0
  6 17  1  0  0  0  0
  7  9  1  0  0  0  0
  7 20  1  0  0  0  0
  7 21  1  0  0  0  0
  8  9  2  0  0  0  0
  8 15  1  0  0  0  0
 10 16  1  0  0  0  0
 10 28  1  0  0  0  0
 11 12  1  0  0  0  0
 11 16  1  0  0  0  0
 12 13  2  0  0  0  0
 12 22  1  0  0  0  0
 13 18  1  0  0  0  0
 13 19  1  0  0  0  0
 14 15  1  0  0  0  0
 15 20  2  0  0  0  0
 17 18  1  0  0  0  0
 19 24  2  0  0  0  0
 21 23  1  0  0  0  0
 21 26  2  0  0  0  0
 22 25  2  0  0  0  0
 23 27  2  0  0  0  0
 24 25  1  0  0  0  0
 26 29  1  0  0  0  0
 27 30  1  0  0  0  0
 28 31  2  0  0  0  0
 28 32  1  0  0  0  0
 29 30  2  0  0  0  0
 31 33  1  0  0  0  0
 32 34  2  0  0  0  0
 33 35  2  0  0  0  0
 34 35  1  0  0  0  0
M  END
> <PUBCHEM_COMPOUND_ID_TYPE>
0

> <PUBCHEM_TOTAL_CHARGE>
0

> <PUBCHEM_SUBSTANCE_ID>
310932852

> <PUBCHEM_SUBSTANCE_VERSION>
1

> <PUBCHEM_EXT_DATASOURCE_NAME>
4488

> <PUBCHEM_EXT_DATASOURCE_REGID>
SCHEMBL16110244

> <PUBCHEM_SUBSTANCE_COMMENT>
InChI=1S/C25H18BrClFN5O2/c26-18-9-4-8-17-16(18)12-13-32(23(17)24(34)29-15-6-2-1-3-7-15)25(35)20-14-33(31-30-20)21-11-5-10-19(27)22(21)28/h1-11,14,23H,12-13H2,(H,29,34)
InChIKey=YQDIROVALXIHCO-UHFFFAOYSA-N

> <PUBCHEM_SUBSTANCE_SYNONYM>
SCHEMBL16110244

> <PUBCHEM_XREF_EXT_ID>
SCHEMBL16110244

> <PUBCHEM_EXT_DATASOURCE_URL>
https://www.surechembl.org/

> <PUBCHEM_EXT_SUBSTANCE_URL>
https://www.surechembl.org/chemical/SCHEMBL16110244

> <PUBCHEM_CID_ASSOCIATIONS>
117601337  1

> <PUBCHEM_COORDINATE_TYPE>
1
3

$$$$
