310932778
  -OEChem-07211613022D

 37 41  0     1  0  0  0  0  0999 V2000
    3.6272   -8.6364    0.0000 Cl  0  0  0  0  0  0  0  0  0  0  0  0
    2.6772   -7.2977    0.0000 F   0  0  0  0  0  0  0  0  0  0  0  0
    3.6272   -3.2818    0.0000 O   0  0  0  0  0  0  0  0  0  0  0  0
    2.8932   -1.2522    0.0000 O   0  0  0  0  0  0  0  0  0  0  0  0
    6.4772    0.0000    0.0000 O   0  0  0  0  0  0  0  0  0  0  0  0
    7.2114   -1.2522    0.0000 O   0  0  0  0  0  0  0  0  0  0  0  0
    2.2022   -3.2818    0.0000 N   0  0  0  0  0  0  0  0  0  0  0  0
    3.3250   -5.7864    0.0000 N   0  0  0  0  0  0  0  0  0  0  0  0
    0.1296   -1.9432    0.0000 N   0  0  0  0  0  0  0  0  0  0  0  0
    0.4318   -1.1659    0.0000 N   0  0  0  0  0  0  0  0  0  0  0  0
    2.2455   -5.0091    0.0000 N   0  0  0  0  0  0  0  0  0  0  0  0
    2.5046   -5.7864    0.0000 N   0  0  0  0  0  0  0  0  0  0  0  0
    3.5841   -2.5046    0.0000 N   0  0  0  0  0  0  0  0  0  0  0  0
    2.1591   -2.5046    0.0000 C   0  0  3  0  0  0  0  0  0  0  0  0
    1.4682   -2.0296    0.0000 C   0  0  0  0  0  0  0  0  0  0  0  0
    0.7341   -2.5046    0.0000 C   0  0  0  0  0  0  0  0  0  0  0  0
    2.8932   -3.6705    0.0000 C   0  0  0  0  0  0  0  0  0  0  0  0
    2.8932   -4.5341    0.0000 C   0  0  0  0  0  0  0  0  0  0  0  0
    2.8932   -2.0727    0.0000 C   0  0  0  0  0  0  0  0  0  0  0  0
    1.4250   -3.7136    0.0000 C   0  0  0  0  0  0  0  0  0  0  0  0
    1.2522   -1.2522    0.0000 C   0  0  0  0  0  0  0  0  0  0  0  0
    0.7341   -3.3250    0.0000 C   0  0  0  0  0  0  0  0  0  0  0  0
    3.5841   -5.0091    0.0000 C   0  0  0  0  0  0  0  0  0  0  0  0
    3.8000   -6.4341    0.0000 C   0  0  0  0  0  0  0  0  0  0  0  0
    3.4977   -7.2114    0.0000 C   0  0  0  0  0  0  0  0  0  0  0  0
    4.3181   -2.0727    0.0000 C   0  0  0  0  0  0  0  0  0  0  0  0
    4.6636   -6.3477    0.0000 C   0  0  0  0  0  0  0  0  0  0  0  0
    3.9727   -7.8590    0.0000 C   0  0  0  0  0  0  0  0  0  0  0  0
    0.0000   -0.4318    0.0000 C   0  0  0  0  0  0  0  0  0  0  0  0
    5.1386   -7.0386    0.0000 C   0  0  0  0  0  0  0  0  0  0  0  0
    4.7931   -7.7727    0.0000 C   0  0  0  0  0  0  0  0  0  0  0  0
    4.3181   -1.2522    0.0000 C   0  0  0  0  0  0  0  0  0  0  0  0
    5.0522   -2.5046    0.0000 C   0  0  0  0  0  0  0  0  0  0  0  0
    5.7431   -1.2522    0.0000 C   0  0  0  0  0  0  0  0  0  0  0  0
    5.0522   -0.8204    0.0000 C   0  0  0  0  0  0  0  0  0  0  0  0
    5.7431   -2.0727    0.0000 C   0  0  0  0  0  0  0  0  0  0  0  0
    6.4772   -0.8204    0.0000 C   0  0  0  0  0  0  0  0  0  0  0  0
  1 28  1  0  0  0  0
  2 25  1  0  0  0  0
  3 17  2  0  0  0  0
  4 19  2  0  0  0  0
  5 37  2  0  0  0  0
  6 37  1  0  0  0  0
  7 14  1  0  0  0  0
  7 17  1  0  0  0  0
  7 20  1  0  0  0  0
  8 12  1  0  0  0  0
  8 23  1  0  0  0  0
  8 24  1  0  0  0  0
  9 10  1  0  0  0  0
  9 16  2  0  0  0  0
 10 21  1  0  0  0  0
 10 29  1  0  0  0  0
 11 12  2  0  0  0  0
 11 18  1  0  0  0  0
 13 19  1  0  0  0  0
 13 26  1  0  0  0  0
 14 15  1  0  0  0  0
 14 19  1  0  0  0  0
 15 16  1  0  0  0  0
 15 21  2  0  0  0  0
 16 22  1  0  0  0  0
 17 18  1  0  0  0  0
 18 23  2  0  0  0  0
 20 22  1  0  0  0  0
 24 25  1  0  0  0  0
 24 27  2  0  0  0  0
 25 28  2  0  0  0  0
 26 32  2  0  0  0  0
 26 33  1  0  0  0  0
 27 30  1  0  0  0  0
 28 31  1  0  0  0  0
 30 31  2  0  0  0  0
 32 35  1  0  0  0  0
 33 36  2  0  0  0  0
 34 35  2  0  0  0  0
 34 36  1  0  0  0  0
 34 37  1  0  0  0  0
M  END
> <PUBCHEM_COMPOUND_ID_TYPE>
0

> <PUBCHEM_TOTAL_CHARGE>
0

> <PUBCHEM_SUBSTANCE_ID>
310932778

> <PUBCHEM_SUBSTANCE_VERSION>
1

> <PUBCHEM_EXT_DATASOURCE_NAME>
4488

> <PUBCHEM_EXT_DATASOURCE_REGID>
SCHEMBL16110164

> <PUBCHEM_SUBSTANCE_COMMENT>
InChI=1S/C24H19ClFN7O4/c1-31-11-15-17(29-31)9-10-32(21(15)22(34)27-14-7-5-13(6-8-14)24(36)37)23(35)18-12-33(30-28-18)19-4-2-3-16(25)20(19)26/h2-8,11-12,21H,9-10H2,1H3,(H,27,34)(H,36,37)
InChIKey=PNBRHWUSMQXLGG-UHFFFAOYSA-N

> <PUBCHEM_SUBSTANCE_SYNONYM>
SCHEMBL16110164

> <PUBCHEM_XREF_EXT_ID>
SCHEMBL16110164

> <PUBCHEM_EXT_DATASOURCE_URL>
https://www.surechembl.org/

> <PUBCHEM_EXT_SUBSTANCE_URL>
https://www.surechembl.org/chemical/SCHEMBL16110164

> <PUBCHEM_CID_ASSOCIATIONS>
117601273  1

> <PUBCHEM_COORDINATE_TYPE>
1
3

$$$$
