310942323
  -OEChem-07211613022D

 37 40  0     1  0  0  0  0  0999 V2000
    4.3601    1.2906    0.0000 S   0  0  0  0  0  0  0  0  0  0  0  0
   -0.8741   -2.0207    0.0000 O   0  0  0  0  0  0  0  0  0  0  0  0
   -2.2932    0.4576    0.0000 O   0  0  0  0  0  0  0  0  0  0  0  0
    4.1647    2.0927    0.0000 O   0  0  0  0  0  0  0  0  0  0  0  0
    5.1623    1.5065    0.0000 O   0  0  0  0  0  0  0  0  0  0  0  0
   -3.7329   -2.0207    0.0000 O   0  0  0  0  0  0  0  0  0  0  0  0
    1.1620   -0.5090    0.0000 N   0  0  0  0  0  0  0  0  0  0  0  0
   -1.5837   -0.7867    0.0000 N   0  0  0  0  0  0  0  0  0  0  0  0
    1.6556   -2.0927    0.0000 N   0  0  0  0  0  0  0  0  0  0  0  0
    3.5478    1.2083    0.0000 N   0  0  0  0  0  0  0  0  0  0  0  0
   -4.4424   -0.7764    0.0000 N   0  0  0  0  0  0  0  0  0  0  0  0
    0.7507    0.2005    0.0000 C   0  0  0  0  0  0  0  0  0  0  0  0
   -0.1645   -0.7970    0.0000 C   0  0  0  0  0  0  0  0  0  0  0  0
    0.5964   -1.1363    0.0000 C   0  0  0  0  0  0  0  0  0  0  0  0
   -0.0617    0.0360    0.0000 C   0  0  0  0  0  0  0  0  0  0  0  0
    1.0798    0.9718    0.0000 C   0  0  3  0  0  0  0  0  0  0  0  0
   -0.8741   -1.1672    0.0000 C   0  0  0  0  0  0  0  0  0  0  0  0
    1.9744   -0.6941    0.0000 C   0  0  0  0  0  0  0  0  0  0  0  0
    1.9024    1.0335    0.0000 C   0  0  0  0  0  0  0  0  0  0  0  0
    0.8535   -1.9178    0.0000 C   0  0  0  0  0  0  0  0  0  0  0  0
   -0.6787    0.6016    0.0000 C   0  0  0  0  0  0  0  0  0  0  0  0
    2.2109   -1.4653    0.0000 C   0  0  0  0  0  0  0  0  0  0  0  0
    2.2418    1.7945    0.0000 C   0  0  0  0  0  0  0  0  0  0  0  0
    2.3857    0.3856    0.0000 C   0  0  0  0  0  0  0  0  0  0  0  0
    0.5861    1.6299    0.0000 C   0  0  0  0  0  0  0  0  0  0  0  0
   -3.0130   -0.7661    0.0000 C   0  0  0  0  0  0  0  0  0  0  0  0
   -2.2932   -1.1980    0.0000 C   0  0  0  0  0  0  0  0  0  0  0  0
    3.0644    1.8767    0.0000 C   0  0  0  0  0  0  0  0  0  0  0  0
    3.2084    0.4473    0.0000 C   0  0  0  0  0  0  0  0  0  0  0  0
   -2.9925    0.0565    0.0000 C   0  0  0  0  0  0  0  0  0  0  0  0
   -3.7329   -1.1672    0.0000 C   0  0  0  0  0  0  0  0  0  0  0  0
   -3.7225    0.4679    0.0000 C   0  0  0  0  0  0  0  0  0  0  0  0
   -4.4424    0.0668    0.0000 C   0  0  0  0  0  0  0  0  0  0  0  0
    4.8743    0.6427    0.0000 C   0  0  0  0  0  0  0  0  0  0  0  0
   -5.1623    0.4679    0.0000 C   0  0  0  0  0  0  0  0  0  0  0  0
    4.5658   -0.1388    0.0000 C   0  0  0  0  0  0  0  0  0  0  0  0
   -2.2932    1.3008    0.0000 C   0  0  0  0  0  0  0  0  0  0  0  0
  1  4  2  0  0  0  0
  1  5  2  0  0  0  0
  1 10  1  0  0  0  0
  1 34  1  0  0  0  0
  2 17  2  0  0  0  0
  3 30  1  0  0  0  0
  3 37  1  0  0  0  0
  6 31  2  0  0  0  0
  7 12  1  0  0  0  0
  7 14  1  0  0  0  0
  7 18  1  0  0  0  0
  8 17  1  0  0  0  0
  8 27  1  0  0  0  0
  9 20  2  0  0  0  0
  9 22  1  0  0  0  0
 10 28  1  0  0  0  0
 10 29  1  0  0  0  0
 11 31  1  0  0  0  0
 11 33  1  0  0  0  0
 12 15  2  0  0  0  0
 12 16  1  0  0  0  0
 13 14  2  0  0  0  0
 13 15  1  0  0  0  0
 13 17  1  0  0  0  0
 14 20  1  0  0  0  0
 15 21  1  0  0  0  0
 16 19  1  0  0  0  0
 16 25  1  0  0  0  0
 18 22  2  0  0  0  0
 19 23  1  0  0  0  0
 19 24  1  0  0  0  0
 23 28  1  0  0  0  0
 24 29  1  0  0  0  0
 26 27  1  0  0  0  0
 26 30  2  0  0  0  0
 26 31  1  0  0  0  0
 30 32  1  0  0  0  0
 32 33  2  0  0  0  0
 33 35  1  0  0  0  0
 34 36  1  0  0  0  0
M  END
> <PUBCHEM_COMPOUND_ID_TYPE>
0

> <PUBCHEM_TOTAL_CHARGE>
0

> <PUBCHEM_SUBSTANCE_ID>
310942323

> <PUBCHEM_SUBSTANCE_VERSION>
1

> <PUBCHEM_EXT_DATASOURCE_NAME>
4488

> <PUBCHEM_EXT_DATASOURCE_REGID>
SCHEMBL16120359

> <PUBCHEM_SUBSTANCE_COMMENT>
InChI=1S/C26H35N5O5S/c1-6-37(34,35)30-10-7-19(8-11-30)17(3)24-18(4)23(21-15-27-9-12-31(21)24)26(33)28-14-20-22(36-5)13-16(2)29-25(20)32/h9,12-13,15,17,19H,6-8,10-11,14H2,1-5H3,(H,28,33)(H,29,32)
InChIKey=XVBRYPKZYPFPMX-UHFFFAOYSA-N

> <PUBCHEM_SUBSTANCE_SYNONYM>
SCHEMBL16120359

> <PUBCHEM_XREF_EXT_ID>
SCHEMBL16120359

> <PUBCHEM_EXT_DATASOURCE_URL>
https://www.surechembl.org/

> <PUBCHEM_EXT_SUBSTANCE_URL>
https://www.surechembl.org/chemical/SCHEMBL16120359

> <PUBCHEM_CID_ASSOCIATIONS>
86299835  1

> <PUBCHEM_COORDINATE_TYPE>
1
3

$$$$
