310931684
  -OEChem-07211613022D

 20 21  0     1  0  0  0  0  0999 V2000
    2.1947   -1.4632    0.0000 S   0  0  0  0  0  0  0  0  0  0  0  0
    5.0323   -3.1923    0.0000 O   0  0  0  0  0  0  0  0  0  0  0  0
    0.0000   -2.7711    0.0000 O   0  0  0  0  0  0  0  0  0  0  0  0
    4.3229   -1.9508    0.0000 O   0  0  0  0  0  0  0  0  0  0  0  0
    3.5470   -1.4632    0.0000 N   0  0  0  0  0  0  0  0  0  0  0  0
    1.4188   -4.4337    0.0000 N   0  0  0  0  0  0  0  0  0  0  0  0
    2.8819   -2.7711    0.0000 C   0  0  3  0  0  0  0  0  0  0  0  0
    2.8819   -1.9508    0.0000 C   0  0  0  0  0  0  0  0  0  0  0  0
    2.1504   -3.1923    0.0000 C   0  0  0  0  0  0  0  0  0  0  0  0
    3.5913   -3.1923    0.0000 C   0  0  0  0  0  0  0  0  0  0  0  0
    2.4607   -0.6651    0.0000 C   0  0  0  0  0  0  0  0  0  0  0  0
    1.4188   -2.7932    0.0000 C   0  0  0  0  0  0  0  0  0  0  0  0
    2.1282   -4.0347    0.0000 C   0  0  0  0  0  0  0  0  0  0  0  0
    3.2810   -0.6651    0.0000 C   0  0  0  0  0  0  0  0  0  0  0  0
    0.7094   -3.1923    0.0000 C   0  0  0  0  0  0  0  0  0  0  0  0
    4.3229   -2.7711    0.0000 C   0  0  0  0  0  0  0  0  0  0  0  0
    0.6872   -4.0347    0.0000 C   0  0  0  0  0  0  0  0  0  0  0  0
    1.9730    0.0000    0.0000 C   0  0  0  0  0  0  0  0  0  0  0  0
    5.7417   -2.7711    0.0000 C   0  0  0  0  0  0  0  0  0  0  0  0
    5.7417   -1.9508    0.0000 C   0  0  0  0  0  0  0  0  0  0  0  0
  1  8  1  0  0  0  0
  1 11  1  0  0  0  0
  2 16  1  0  0  0  0
  2 19  1  0  0  0  0
  3 15  1  0  0  0  0
  4 16  2  0  0  0  0
  5  8  2  0  0  0  0
  5 14  1  0  0  0  0
  6 13  1  0  0  0  0
  6 17  2  0  0  0  0
  7  8  1  0  0  0  0
  7  9  1  0  0  0  0
  7 10  1  0  0  0  0
  9 12  1  0  0  0  0
  9 13  2  0  0  0  0
 10 16  1  0  0  0  0
 11 14  2  0  0  0  0
 11 18  1  0  0  0  0
 12 15  2  0  0  0  0
 15 17  1  0  0  0  0
 19 20  1  0  0  0  0
M  END
> <PUBCHEM_COMPOUND_ID_TYPE>
0

> <PUBCHEM_TOTAL_CHARGE>
0

> <PUBCHEM_SUBSTANCE_ID>
310931684

> <PUBCHEM_SUBSTANCE_VERSION>
1

> <PUBCHEM_EXT_DATASOURCE_NAME>
4488

> <PUBCHEM_EXT_DATASOURCE_REGID>
SCHEMBL16109010

> <PUBCHEM_SUBSTANCE_COMMENT>
InChI=1S/C14H16N2O3S/c1-3-19-13(18)5-12(14-16-6-9(2)20-14)10-4-11(17)8-15-7-10/h4,6-8,12,17H,3,5H2,1-2H3
InChIKey=WBIQKROJVJOVHA-UHFFFAOYSA-N

> <PUBCHEM_SUBSTANCE_SYNONYM>
SCHEMBL16109010

> <PUBCHEM_XREF_EXT_ID>
SCHEMBL16109010

> <PUBCHEM_EXT_DATASOURCE_URL>
https://www.surechembl.org/

> <PUBCHEM_EXT_SUBSTANCE_URL>
https://www.surechembl.org/chemical/SCHEMBL16109010

> <PUBCHEM_CID_ASSOCIATIONS>
117600388  1

> <PUBCHEM_COORDINATE_TYPE>
1
3

$$$$
