310946532
  -OEChem-07211613022D

 21 20  0     1  0  0  0  0  0999 V2000
    6.7436   -0.7404    0.0000 S   0  0  0  0  0  0  0  0  0  0  0  0
    3.8857   -3.2154    0.0000 O   0  0  0  0  0  0  0  0  0  0  0  0
    4.6002   -1.9779    0.0000 O   0  0  0  0  0  0  0  0  0  0  0  0
    6.7436   -4.0404    0.0000 O   0  0  0  0  0  0  0  0  0  0  0  0
    3.1712   -5.2779    0.0000 O   0  0  0  0  0  0  0  0  0  0  0  0
    3.1712   -6.9279    0.0000 O   0  0  0  0  0  0  0  0  0  0  0  0
    4.6002   -6.9279    0.0000 O   0  5  0  0  0  0  0  0  0  0  0  0
    3.8857   -5.6904    0.0000 O   0  0  0  0  0  0  0  0  0  0  0  0
    5.3146   -3.2154    0.0000 N   0  0  0  0  0  0  0  0  0  0  0  0
    3.8857   -6.5154    0.0000 N   0  3  0  0  0  0  0  0  0  0  0  0
    6.0291   -2.8029    0.0000 C   0  0  3  0  0  0  0  0  0  0  0  0
    4.6002   -2.8029    0.0000 C   0  0  0  0  0  0  0  0  0  0  0  0
    6.7436   -3.2154    0.0000 C   0  0  0  0  0  0  0  0  0  0  0  0
    6.0291   -1.9779    0.0000 C   0  0  0  0  0  0  0  0  0  0  0  0
    3.8857   -4.0404    0.0000 C   0  0  0  0  0  0  0  0  0  0  0  0
    6.7436   -1.5654    0.0000 C   0  0  0  0  0  0  0  0  0  0  0  0
    7.4581   -2.8029    0.0000 C   0  0  0  0  0  0  0  0  0  0  0  0
    3.1712   -4.4529    0.0000 C   0  0  0  0  0  0  0  0  0  0  0  0
    2.4568   -5.6904    0.0000 C   0  0  0  0  0  0  0  0  0  0  0  0
    2.4568   -6.5154    0.0000 C   0  0  0  0  0  0  0  0  0  0  0  0
    7.4581   -0.3279    0.0000 C   0  0  0  0  0  0  0  0  0  0  0  0
  1 16  1  0  0  0  0
  1 21  1  0  0  0  0
  2 12  1  0  0  0  0
  2 15  1  0  0  0  0
  3 12  2  0  0  0  0
  4 13  2  0  0  0  0
  5 18  1  0  0  0  0
  5 19  1  0  0  0  0
  6 10  1  0  0  0  0
  6 20  1  0  0  0  0
  7 10  1  0  0  0  0
  8 10  2  0  0  0  0
  9 11  1  0  0  0  0
  9 12  1  0  0  0  0
 11 13  1  0  0  0  0
 11 14  1  0  0  0  0
 13 17  1  0  0  0  0
 14 16  1  0  0  0  0
 15 18  1  0  0  0  0
 19 20  1  0  0  0  0
M  CHG  2   7  -1  10   1
M  END
> <PUBCHEM_COMPOUND_ID_TYPE>
0

> <PUBCHEM_TOTAL_CHARGE>
0

> <PUBCHEM_SUBSTANCE_ID>
310946532

> <PUBCHEM_SUBSTANCE_VERSION>
1

> <PUBCHEM_EXT_DATASOURCE_NAME>
4488

> <PUBCHEM_EXT_DATASOURCE_REGID>
SCHEMBL16124653

> <PUBCHEM_SUBSTANCE_COMMENT>
InChI=1S/C11H20N2O7S/c1-9(14)10(3-8-21-2)12-11(15)19-6-4-18-5-7-20-13(16)17/h10H,3-8H2,1-2H3,(H,12,15)
InChIKey=WTWVAWSYNDQRRU-UHFFFAOYSA-N

> <PUBCHEM_SUBSTANCE_SYNONYM>
SCHEMBL16124653

> <PUBCHEM_XREF_EXT_ID>
SCHEMBL16124653

> <PUBCHEM_EXT_DATASOURCE_URL>
https://www.surechembl.org/

> <PUBCHEM_EXT_SUBSTANCE_URL>
https://www.surechembl.org/chemical/SCHEMBL16124653

> <PUBCHEM_CID_ASSOCIATIONS>
117612437  1

> <PUBCHEM_COORDINATE_TYPE>
1
3

$$$$
