310948709
  -OEChem-07211613022D

 31 33  0     1  0  0  0  0  0999 V2000
   -2.1683    1.8057    0.0000 O   0  0  0  0  0  0  0  0  0  0  0  0
    0.4253    2.6702    0.0000 O   0  0  0  0  0  0  0  0  0  0  0  0
   -4.0227    1.4293    0.0000 O   0  0  0  0  0  0  0  0  0  0  0  0
   -3.2976    0.2022    0.0000 O   0  0  0  0  0  0  0  0  0  0  0  0
    1.1364   -0.2022    0.0000 N   0  0  3  0  0  0  0  0  0  0  0  0
    1.1364    1.4431    0.0000 N   0  0  0  0  0  0  0  0  0  0  0  0
    1.8615    2.6841    0.0000 N   0  0  0  0  0  0  0  0  0  0  0  0
    4.0227    2.2658    0.0000 N   0  0  0  0  0  0  0  0  0  0  0  0
    3.2976    1.0248    0.0000 N   0  0  0  0  0  0  0  0  0  0  0  0
    0.3974    0.2162    0.0000 C   0  0  0  0  0  0  0  0  0  0  0  0
    0.4253    1.0388    0.0000 C   0  0  0  0  0  0  0  0  0  0  0  0
    1.1364   -1.0388    0.0000 C   0  0  0  0  0  0  0  0  0  0  0  0
   -0.3137    1.4431    0.0000 C   0  0  0  0  0  0  0  0  0  0  0  0
   -0.2998   -0.2022    0.0000 C   0  0  0  0  0  0  0  0  0  0  0  0
   -1.0248    1.0388    0.0000 C   0  0  0  0  0  0  0  0  0  0  0  0
   -1.0248    0.2162    0.0000 C   0  0  0  0  0  0  0  0  0  0  0  0
    1.8336    0.2022    0.0000 C   0  0  0  0  0  0  0  0  0  0  0  0
    1.1503    2.2658    0.0000 C   0  0  0  0  0  0  0  0  0  0  0  0
    0.4253   -1.4571    0.0000 C   0  0  0  0  0  0  0  0  0  0  0  0
    1.8475   -1.4431    0.0000 C   0  0  0  0  0  0  0  0  0  0  0  0
    2.5865   -0.2022    0.0000 C   0  0  0  0  0  0  0  0  0  0  0  0
    2.5865    2.2798    0.0000 C   0  0  0  0  0  0  0  0  0  0  0  0
    0.4253   -2.2658    0.0000 C   0  0  0  0  0  0  0  0  0  0  0  0
    1.8475   -2.2658    0.0000 C   0  0  0  0  0  0  0  0  0  0  0  0
   -3.3255    0.9830    0.0000 C   0  0  0  0  0  0  0  0  0  0  0  0
    1.1364   -2.6841    0.0000 C   0  0  0  0  0  0  0  0  0  0  0  0
    3.2837    2.6841    0.0000 C   0  0  0  0  0  0  0  0  0  0  0  0
    2.5865    1.4431    0.0000 C   0  0  0  0  0  0  0  0  0  0  0  0
    3.3255    0.2162    0.0000 C   0  0  0  0  0  0  0  0  0  0  0  0
    2.6005   -1.0527    0.0000 C   0  0  0  0  0  0  0  0  0  0  0  0
    4.0227    1.4431    0.0000 C   0  0  0  0  0  0  0  0  0  0  0  0
  1 15  1  0  0  0  0
  1 25  1  0  0  0  0
  2 18  2  0  0  0  0
  3 25  2  0  0  0  0
  4 25  1  0  0  0  0
  5 10  1  0  0  0  0
  5 12  1  0  0  0  0
  5 17  1  0  0  0  0
  6 11  1  0  0  0  0
  6 18  1  0  0  0  0
  7 18  1  0  0  0  0
  7 22  1  0  0  0  0
  8 27  2  0  0  0  0
  8 31  1  0  0  0  0
  9 28  1  0  0  0  0
  9 31  2  0  0  0  0
 10 11  1  0  0  0  0
 10 14  2  0  0  0  0
 11 13  2  0  0  0  0
 12 19  1  0  0  0  0
 12 20  1  0  0  0  0
 13 15  1  0  0  0  0
 14 16  1  0  0  0  0
 15 16  2  0  0  0  0
 17 21  1  0  0  0  0
 19 23  1  0  0  0  0
 20 24  1  0  0  0  0
 21 29  1  0  0  0  0
 21 30  1  0  0  0  0
 22 27  1  0  0  0  0
 22 28  2  0  0  0  0
 23 26  1  0  0  0  0
 24 26  1  0  0  0  0
M  END
> <PUBCHEM_COMPOUND_ID_TYPE>
0

> <PUBCHEM_TOTAL_CHARGE>
0

> <PUBCHEM_SUBSTANCE_ID>
310948709

> <PUBCHEM_SUBSTANCE_VERSION>
1

> <PUBCHEM_EXT_DATASOURCE_NAME>
4488

> <PUBCHEM_EXT_DATASOURCE_REGID>
SCHEMBL16126893

> <PUBCHEM_SUBSTANCE_COMMENT>
InChI=1S/C22H29N5O4/c1-15(2)13-27(17-6-4-3-5-7-17)20-9-8-18(31-22(29)30)10-19(20)26-21(28)25-16-11-23-14-24-12-16/h8-12,14-15,17H,3-7,13H2,1-2H3,(H,29,30)(H2,25,26,28)
InChIKey=MTRISVCYNSRPFF-UHFFFAOYSA-N

> <PUBCHEM_SUBSTANCE_SYNONYM>
SCHEMBL16126893

> <PUBCHEM_XREF_EXT_ID>
SCHEMBL16126893

> <PUBCHEM_EXT_DATASOURCE_URL>
https://www.surechembl.org/

> <PUBCHEM_EXT_SUBSTANCE_URL>
https://www.surechembl.org/chemical/SCHEMBL16126893

> <PUBCHEM_CID_ASSOCIATIONS>
117614250  1

> <PUBCHEM_COORDINATE_TYPE>
1
3

$$$$
