310935288
  -OEChem-07211613022D

 18 19  0     1  0  0  0  0  0999 V2000
    2.9629    4.1690    0.0000 F   0  0  0  0  0  0  0  0  0  0  0  0
   -0.0522    4.6835    0.0000 O   0  0  0  0  0  0  0  0  0  0  0  0
   -1.1141    3.7274    0.0000 O   0  0  0  0  0  0  0  0  0  0  0  0
    1.1423    1.3488    0.0000 O   0  0  0  0  0  0  0  0  0  0  0  0
    0.2449    3.2858    0.0000 C   0  0  3  0  0  0  0  0  0  0  0  0
    0.7969    3.8989    0.0000 C   0  0  0  0  0  0  0  0  0  0  0  0
    1.6039    3.7274    0.0000 C   0  0  0  0  0  0  0  0  0  0  0  0
    0.9123    2.8009    0.0000 C   0  0  0  0  0  0  0  0  0  0  0  0
   -0.3071    3.8989    0.0000 C   0  0  0  0  0  0  0  0  0  0  0  0
   -0.4226    2.8009    0.0000 C   0  0  0  0  0  0  0  0  0  0  0  0
    0.6574    2.0163    0.0000 C   0  0  0  0  0  0  0  0  0  0  0  0
    2.1559    4.3405    0.0000 C   0  0  0  0  0  0  0  0  0  0  0  0
    0.5420    4.6835    0.0000 C   0  0  0  0  0  0  0  0  0  0  0  0
   -0.1676    2.0163    0.0000 C   0  0  0  0  0  0  0  0  0  0  0  0
    1.9010    5.1251    0.0000 C   0  0  0  0  0  0  0  0  0  0  0  0
    1.0940    5.2966    0.0000 C   0  0  0  0  0  0  0  0  0  0  0  0
    1.8588    2.9428    0.0000 C   0  0  0  0  0  0  0  0  0  0  0  0
    2.4530    5.7382    0.0000 C   0  0  0  0  0  0  0  0  0  0  0  0
  1 12  1  0  0  0  0
  2  9  2  0  0  0  0
  3  9  1  0  0  0  0
  4 11  2  0  0  0  0
  5  6  1  0  0  0  0
  5  8  1  0  0  0  0
  5  9  1  0  0  0  0
  5 10  1  0  0  0  0
  6  7  2  0  0  0  0
  6 13  1  0  0  0  0
  7 12  1  0  0  0  0
  7 17  1  0  0  0  0
  8 11  1  0  0  0  0
 10 14  1  0  0  0  0
 11 14  1  0  0  0  0
 12 15  2  0  0  0  0
 13 16  2  0  0  0  0
 15 16  1  0  0  0  0
 15 18  1  0  0  0  0
M  END
> <PUBCHEM_COMPOUND_ID_TYPE>
0

> <PUBCHEM_TOTAL_CHARGE>
0

> <PUBCHEM_SUBSTANCE_ID>
310935288

> <PUBCHEM_SUBSTANCE_VERSION>
1

> <PUBCHEM_EXT_DATASOURCE_NAME>
4488

> <PUBCHEM_EXT_DATASOURCE_REGID>
SCHEMBL16112820

> <PUBCHEM_SUBSTANCE_COMMENT>
InChI=1S/C14H15FO3/c1-8-3-4-11(9(2)12(8)15)14(13(17)18)6-5-10(16)7-14/h3-4H,5-7H2,1-2H3,(H,17,18)
InChIKey=NBYZTYUEYBWQMA-UHFFFAOYSA-N

> <PUBCHEM_SUBSTANCE_SYNONYM>
SCHEMBL16112820

> <PUBCHEM_XREF_EXT_ID>
SCHEMBL16112820

> <PUBCHEM_EXT_DATASOURCE_URL>
https://www.surechembl.org/

> <PUBCHEM_EXT_SUBSTANCE_URL>
https://www.surechembl.org/chemical/SCHEMBL16112820

> <PUBCHEM_CID_ASSOCIATIONS>
117603356  1

> <PUBCHEM_COORDINATE_TYPE>
1
3

$$$$
