310932012
  -OEChem-07211613022D

 23 26  0     1  0  0  0  0  0999 V2000
    0.1980   -2.7060    0.0000 O   0  0  0  0  0  0  0  0  0  0  0  0
    1.6500    0.0000    0.0000 O   0  0  0  0  0  0  0  0  0  0  0  0
    1.0890   -6.6000    0.0000 O   0  0  0  0  0  0  0  0  0  0  0  0
    1.6500   -2.5080    0.0000 N   0  0  0  0  0  0  0  0  0  0  0  0
    2.0460   -3.7620    0.0000 N   0  0  0  0  0  0  0  0  0  0  0  0
    3.1020   -2.7060    0.0000 N   0  0  0  0  0  0  0  0  0  0  0  0
    1.2540   -3.7620    0.0000 C   0  0  3  0  0  0  0  0  0  0  0  0
    0.9900   -2.9700    0.0000 C   0  0  0  0  0  0  0  0  0  0  0  0
    0.7590   -4.4220    0.0000 C   0  0  0  0  0  0  0  0  0  0  0  0
    1.6170   -4.4880    0.0000 C   0  0  0  0  0  0  0  0  0  0  0  0
    2.3100   -2.9700    0.0000 C   0  0  0  0  0  0  0  0  0  0  0  0
    0.6600   -5.2470    0.0000 C   0  0  0  0  0  0  0  0  0  0  0  0
    0.0000   -4.7850    0.0000 C   0  0  0  0  0  0  0  0  0  0  0  0
    1.6500   -1.6830    0.0000 C   0  0  0  0  0  0  0  0  0  0  0  0
    1.1550   -5.1810    0.0000 C   0  0  0  0  0  0  0  0  0  0  0  0
    2.4420   -4.5540    0.0000 C   0  0  0  0  0  0  0  0  0  0  0  0
    1.5510   -5.9070    0.0000 C   0  0  0  0  0  0  0  0  0  0  0  0
    2.3430   -1.2540    0.0000 C   0  0  0  0  0  0  0  0  0  0  0  0
    0.9570   -1.2540    0.0000 C   0  0  0  0  0  0  0  0  0  0  0  0
    2.8050   -5.2800    0.0000 C   0  0  0  0  0  0  0  0  0  0  0  0
    2.3430   -5.9730    0.0000 C   0  0  0  0  0  0  0  0  0  0  0  0
    2.3430   -0.4290    0.0000 C   0  0  0  0  0  0  0  0  0  0  0  0
    0.9570   -0.4290    0.0000 C   0  0  0  0  0  0  0  0  0  0  0  0
  1  8  2  0  0  0  0
  2 22  1  0  0  0  0
  2 23  1  0  0  0  0
  3 17  1  0  0  0  0
  4  8  1  0  0  0  0
  4 11  1  0  0  0  0
  4 14  1  0  0  0  0
  5  7  1  0  0  0  0
  5 11  1  0  0  0  0
  6 11  2  3  0  0  0
  7  8  1  0  0  0  0
  7  9  1  0  0  0  0
  7 10  1  0  0  0  0
  9 12  1  0  0  0  0
  9 13  1  0  0  0  0
 10 15  1  0  0  0  0
 10 16  2  0  0  0  0
 12 13  1  0  0  0  0
 14 18  1  0  0  0  0
 14 19  1  0  0  0  0
 15 17  2  0  0  0  0
 16 20  1  0  0  0  0
 17 21  1  0  0  0  0
 18 22  1  0  0  0  0
 19 23  1  0  0  0  0
 20 21  2  0  0  0  0
M  END
> <PUBCHEM_COMPOUND_ID_TYPE>
0

> <PUBCHEM_TOTAL_CHARGE>
0

> <PUBCHEM_SUBSTANCE_ID>
310932012

> <PUBCHEM_SUBSTANCE_VERSION>
1

> <PUBCHEM_EXT_DATASOURCE_NAME>
4488

> <PUBCHEM_EXT_DATASOURCE_REGID>
SCHEMBL16109354

> <PUBCHEM_SUBSTANCE_COMMENT>
InChI=1S/C17H21N3O3/c18-16-19-17(11-4-5-11,12-2-1-3-14(21)10-12)15(22)20(16)13-6-8-23-9-7-13/h1-3,10-11,13,21H,4-9H2,(H2,18,19)
InChIKey=ORVOCVBWEKSCDQ-UHFFFAOYSA-N

> <PUBCHEM_SUBSTANCE_SYNONYM>
SCHEMBL16109354

> <PUBCHEM_XREF_EXT_ID>
SCHEMBL16109354

> <PUBCHEM_EXT_DATASOURCE_URL>
https://www.surechembl.org/

> <PUBCHEM_EXT_SUBSTANCE_URL>
https://www.surechembl.org/chemical/SCHEMBL16109354

> <PUBCHEM_CID_ASSOCIATIONS>
117600652  1

> <PUBCHEM_COORDINATE_TYPE>
1
3

$$$$
