310943873
  -OEChem-07211613022D

 32 35  0     1  0  0  0  0  0999 V2000
    5.7013    1.7263    0.0000 O   0  0  0  0  0  0  0  0  0  0  0  0
   -3.0786   -0.9169    0.0000 N   0  0  3  0  0  0  0  0  0  0  0  0
    3.3757    1.1935    0.0000 N   0  0  3  0  0  0  0  0  0  0  0  0
    1.2243   -1.7263    0.0000 N   0  0  0  0  0  0  0  0  0  0  0  0
   -4.8612   -0.3842    0.0000 N   0  0  3  0  0  0  0  0  0  0  0  0
   -0.2100   -0.0666    0.0000 C   0  0  0  0  0  0  0  0  0  0  0  0
    0.5072    0.3432    0.0000 C   0  0  0  0  0  0  0  0  0  0  0  0
   -0.2100   -0.8965    0.0000 C   0  0  0  0  0  0  0  0  0  0  0  0
   -1.6443   -0.9066    0.0000 C   0  0  0  0  0  0  0  0  0  0  0  0
   -0.9066   -1.3164    0.0000 C   0  0  0  0  0  0  0  0  0  0  0  0
   -0.9272    0.3330    0.0000 C   0  0  0  0  0  0  0  0  0  0  0  0
   -1.6341   -0.0768    0.0000 C   0  0  0  0  0  0  0  0  0  0  0  0
    1.2447   -0.0461    0.0000 C   0  0  0  0  0  0  0  0  0  0  0  0
    0.5276    1.1833    0.0000 C   0  0  0  0  0  0  0  0  0  0  0  0
    1.9414    1.2038    0.0000 C   0  0  0  0  0  0  0  0  0  0  0  0
    1.9311    0.3534    0.0000 C   0  0  0  0  0  0  0  0  0  0  0  0
    1.2140    1.5931    0.0000 C   0  0  0  0  0  0  0  0  0  0  0  0
   -2.3307   -1.3164    0.0000 C   0  0  0  0  0  0  0  0  0  0  0  0
    0.5276   -1.3267    0.0000 C   0  0  0  0  0  0  0  0  0  0  0  0
    2.6483    1.6136    0.0000 C   0  0  0  0  0  0  0  0  0  0  0  0
    4.0826    1.6136    0.0000 C   0  0  0  0  0  0  0  0  0  0  0  0
    4.8202    1.1833    0.0000 C   0  0  3  0  0  0  0  0  0  0  0  0
    3.3757    0.3739    0.0000 C   0  0  0  0  0  0  0  0  0  0  0  0
   -3.7547   -1.3882    0.0000 C   0  0  0  0  0  0  0  0  0  0  0  0
   -3.0171   -0.0768    0.0000 C   0  0  0  0  0  0  0  0  0  0  0  0
    4.7997    0.3637    0.0000 C   0  0  0  0  0  0  0  0  0  0  0  0
    4.1133   -0.0461    0.0000 C   0  0  0  0  0  0  0  0  0  0  0  0
   -4.5641   -1.1320    0.0000 C   0  0  0  0  0  0  0  0  0  0  0  0
   -3.6318    0.4661    0.0000 C   0  0  0  0  0  0  0  0  0  0  0  0
   -4.4617    0.3432    0.0000 C   0  0  0  0  0  0  0  0  0  0  0  0
    5.3530    1.6033    0.0000 C   0  0  0  0  0  0  0  0  0  0  0  0
   -5.7013   -0.3842    0.0000 C   0  0  0  0  0  0  0  0  0  0  0  0
  1 31  1  0  0  0  0
  2 18  1  0  0  0  0
  2 24  1  0  0  0  0
  2 25  1  0  0  0  0
  3 20  1  0  0  0  0
  3 21  1  0  0  0  0
  3 23  1  0  0  0  0
  4 19  3  0  0  0  0
  5 28  1  0  0  0  0
  5 30  1  0  0  0  0
  5 32  1  0  0  0  0
  6  7  1  0  0  0  0
  6  8  1  0  0  0  0
  6 11  2  0  0  0  0
  7 13  2  0  0  0  0
  7 14  1  0  0  0  0
  8 10  2  0  0  0  0
  8 19  1  0  0  0  0
  9 10  1  0  0  0  0
  9 12  2  0  0  0  0
  9 18  1  0  0  0  0
 11 12  1  0  0  0  0
 13 16  1  0  0  0  0
 14 17  2  0  0  0  0
 15 16  2  0  0  0  0
 15 17  1  0  0  0  0
 15 20  1  0  0  0  0
 21 22  1  0  0  0  0
 22 26  1  0  0  0  0
 22 31  1  0  0  0  0
 23 27  1  0  0  0  0
 24 28  1  0  0  0  0
 25 29  1  0  0  0  0
 26 27  1  0  0  0  0
 29 30  1  0  0  0  0
M  END
> <PUBCHEM_COMPOUND_ID_TYPE>
0

> <PUBCHEM_TOTAL_CHARGE>
0

> <PUBCHEM_SUBSTANCE_ID>
310943873

> <PUBCHEM_SUBSTANCE_VERSION>
1

> <PUBCHEM_EXT_DATASOURCE_NAME>
4488

> <PUBCHEM_EXT_DATASOURCE_REGID>
SCHEMBL16121944

> <PUBCHEM_SUBSTANCE_COMMENT>
InChI=1S/C27H36N4O/c1-29-11-3-13-30(15-14-29)19-23-7-10-27(26(16-23)17-28)25-8-5-22(6-9-25)18-31-12-2-4-24(20-31)21-32/h5-10,16,24,32H,2-4,11-15,18-21H2,1H3
InChIKey=VNGXNCGJSDMZRM-UHFFFAOYSA-N

> <PUBCHEM_SUBSTANCE_SYNONYM>
SCHEMBL16121944

> <PUBCHEM_XREF_EXT_ID>
SCHEMBL16121944

> <PUBCHEM_EXT_DATASOURCE_URL>
https://www.surechembl.org/

> <PUBCHEM_EXT_SUBSTANCE_URL>
https://www.surechembl.org/chemical/SCHEMBL16121944

> <PUBCHEM_CID_ASSOCIATIONS>
117610200  1

> <PUBCHEM_COORDINATE_TYPE>
1
3

> <PUBCHEM_BONDANNOTATIONS>
22  31  3

$$$$
