310948387
  -OEChem-07211613022D

 40 44  0     1  0  0  0  0  0999 V2000
    1.8220   -1.8913    0.0000 Br  0  0  0  0  0  0  0  0  0  0  0  0
   -4.3299   -0.3949    0.0000 F   0  0  0  0  0  0  0  0  0  0  0  0
   -3.5956    0.3811    0.0000 F   0  0  0  0  0  0  0  0  0  0  0  0
    4.3299   -1.7943    0.0000 F   0  0  0  0  0  0  0  0  0  0  0  0
    3.3739   -2.3486    0.0000 F   0  0  0  0  0  0  0  0  0  0  0  0
    2.7226   -1.4617    0.0000 O   0  0  0  0  0  0  0  0  0  0  0  0
    3.8866   -0.7829    0.0000 O   0  0  0  0  0  0  0  0  0  0  0  0
   -0.3395    1.0322    0.0000 O   0  0  0  0  0  0  0  0  0  0  0  0
    1.1015    1.8636    0.0000 O   0  0  0  0  0  0  0  0  0  0  0  0
   -2.3070   -1.2540    0.0000 O   0  0  0  0  0  0  0  0  0  0  0  0
   -3.6094   -1.8775    0.0000 O   0  0  0  0  0  0  0  0  0  0  0  0
   -0.0485    2.1268    0.0000 O   0  0  0  0  0  0  0  0  0  0  0  0
   -1.5865    0.5335    0.0000 N   0  0  0  0  0  0  0  0  0  0  0  0
   -2.4178    0.5611    0.0000 N   0  0  0  0  0  0  0  0  0  0  0  0
   -0.3256   -0.6304    0.0000 C   0  0  0  0  0  0  0  0  0  0  0  0
   -1.3509   -0.2424    0.0000 C   0  0  0  0  0  0  0  0  0  0  0  0
    0.3811   -0.2148    0.0000 C   0  0  0  0  0  0  0  0  0  0  0  0
    0.3949    0.6166    0.0000 C   0  0  3  0  0  0  0  0  0  0  0  0
   -2.7088   -0.2009    0.0000 C   0  0  0  0  0  0  0  0  0  0  0  0
   -3.4985   -0.4364    0.0000 C   0  0  0  0  0  0  0  0  0  0  0  0
    1.1015    1.0184    0.0000 C   0  0  0  0  0  0  0  0  0  0  0  0
   -2.0299   -0.7274    0.0000 C   0  0  0  0  0  0  0  0  0  0  0  0
    2.5564   -0.6304    0.0000 C   0  0  0  0  0  0  0  0  0  0  0  0
    1.8359    0.6166    0.0000 C   0  0  0  0  0  0  0  0  0  0  0  0
    3.2630   -0.2009    0.0000 C   0  0  0  0  0  0  0  0  0  0  0  0
    3.5540   -1.5311    0.0000 C   0  0  0  0  0  0  0  0  0  0  0  0
    1.8359   -0.2148    0.0000 C   0  0  0  0  0  0  0  0  0  0  0  0
    1.1015   -0.6304    0.0000 C   0  0  0  0  0  0  0  0  0  0  0  0
   -0.3256   -1.4617    0.0000 C   0  0  0  0  0  0  0  0  0  0  0  0
    2.5425    1.0184    0.0000 C   0  0  0  0  0  0  0  0  0  0  0  0
   -3.1245   -1.1708    0.0000 C   0  0  0  0  0  0  0  0  0  0  0  0
    3.2630    0.6166    0.0000 C   0  0  0  0  0  0  0  0  0  0  0  0
    1.1015   -1.4480    0.0000 C   0  0  0  0  0  0  0  0  0  0  0  0
   -0.5058    1.6557    0.0000 C   0  0  0  0  0  0  0  0  0  0  0  0
    0.4087   -1.8775    0.0000 C   0  0  0  0  0  0  0  0  0  0  0  0
   -1.1569    1.8497    0.0000 C   0  0  0  0  0  0  0  0  0  0  0  0
   -1.0600    1.1985    0.0000 C   0  0  0  0  0  0  0  0  0  0  0  0
   -1.8359    1.6557    0.0000 C   0  0  0  0  0  0  0  0  0  0  0  0
   -1.6696    2.3486    0.0000 C   0  0  0  0  0  0  0  0  0  0  0  0
   -1.9190   -2.0160    0.0000 C   0  0  0  0  0  0  0  0  0  0  0  0
  1 33  1  0  0  0  0
  2 20  1  0  0  0  0
  3 20  1  0  0  0  0
  4 26  1  0  0  0  0
  5 26  1  0  0  0  0
  6 23  1  0  0  0  0
  6 26  1  0  0  0  0
  7 25  1  0  0  0  0
  7 26  1  0  0  0  0
  8 18  1  0  0  0  0
  8 34  1  0  0  0  0
  9 21  2  0  0  0  0
 10 31  1  0  0  0  0
 10 40  1  0  0  0  0
 11 31  2  0  0  0  0
 12 34  2  0  0  0  0
 13 14  1  0  0  0  0
 13 16  1  0  0  0  0
 13 37  1  0  0  0  0
 14 19  2  0  0  0  0
 15 16  1  0  0  0  0
 15 17  1  0  0  0  0
 15 29  2  0  0  0  0
 16 22  2  0  0  0  0
 17 18  1  0  0  0  0
 17 28  2  0  0  0  0
 18 21  1  0  0  0  0
 19 20  1  0  0  0  0
 19 22  1  0  0  0  0
 20 31  1  0  0  0  0
 21 24  1  0  0  0  0
 23 25  1  0  0  0  0
 23 27  2  0  0  0  0
 24 27  1  0  0  0  0
 24 30  2  0  0  0  0
 25 32  2  0  0  0  0
 28 33  1  0  0  0  0
 29 35  1  0  0  0  0
 30 32  1  0  0  0  0
 33 35  2  0  0  0  0
 34 36  1  0  0  0  0
 36 38  1  0  0  0  0
 36 39  1  0  0  0  0
 38 39  1  0  0  0  0
M  END
> <PUBCHEM_COMPOUND_ID_TYPE>
0

> <PUBCHEM_TOTAL_CHARGE>
0

> <PUBCHEM_SUBSTANCE_ID>
310948387

> <PUBCHEM_SUBSTANCE_VERSION>
1

> <PUBCHEM_EXT_DATASOURCE_NAME>
4488

> <PUBCHEM_EXT_DATASOURCE_REGID>
SCHEMBL16126568

> <PUBCHEM_SUBSTANCE_COMMENT>
InChI=1S/C26H19BrF4N2O7/c1-33-17(11-20(32-33)25(28,29)24(36)37-2)15-7-6-14(27)10-16(15)22(38-23(35)12-3-4-12)21(34)13-5-8-18-19(9-13)40-26(30,31)39-18/h5-12,22H,3-4H2,1-2H3
InChIKey=RJZXBZCJGHHXBJ-UHFFFAOYSA-N

> <PUBCHEM_SUBSTANCE_SYNONYM>
SCHEMBL16126568

> <PUBCHEM_XREF_EXT_ID>
SCHEMBL16126568

> <PUBCHEM_EXT_DATASOURCE_URL>
https://www.surechembl.org/

> <PUBCHEM_EXT_SUBSTANCE_URL>
https://www.surechembl.org/chemical/SCHEMBL16126568

> <PUBCHEM_CID_ASSOCIATIONS>
117613948  1

> <PUBCHEM_COORDINATE_TYPE>
1
3

$$$$
