310945630
  -OEChem-07211613022D

 30 31  0     1  0  0  0  0  0999 V2000
   -1.8343    0.5610    0.0000 N   0  0  0  0  0  0  0  0  0  0  0  0
    1.6918    0.6144    0.0000 N   0  0  0  0  0  0  0  0  0  0  0  0
   -0.0891    1.6473    0.0000 N   0  0  0  0  0  0  0  0  0  0  0  0
   -2.4754   -0.0801    0.0000 C   0  0  0  0  0  0  0  0  0  0  0  0
   -3.2590    0.1158    0.0000 C   0  0  0  0  0  0  0  0  0  0  0  0
   -2.2617   -0.8459    0.0000 C   0  0  0  0  0  0  0  0  0  0  0  0
    2.4576   -0.0801    0.0000 C   0  0  0  0  0  0  0  0  0  0  0  0
   -3.8110   -0.4719    0.0000 C   0  0  0  0  0  0  0  0  0  0  0  0
   -2.8138   -1.4158    0.0000 C   0  0  0  0  0  0  0  0  0  0  0  0
   -3.5973   -1.2199    0.0000 C   0  0  0  0  0  0  0  0  0  0  0  0
    2.2617   -0.8815    0.0000 C   0  0  0  0  0  0  0  0  0  0  0  0
    3.2411    0.1692    0.0000 C   0  0  0  0  0  0  0  0  0  0  0  0
    2.8850   -1.3980    0.0000 C   0  0  0  0  0  0  0  0  0  0  0  0
    3.8466   -0.3651    0.0000 C   0  0  0  0  0  0  0  0  0  0  0  0
    3.6330   -1.1665    0.0000 C   0  0  0  0  0  0  0  0  0  0  0  0
   -1.8521    1.6117    0.0000 C   0  0  3  0  0  0  0  0  0  0  0  0
   -3.4726    0.9172    0.0000 C   0  0  0  0  0  0  0  0  0  0  0  0
   -1.4247   -1.0418    0.0000 C   0  0  0  0  0  0  0  0  0  0  0  0
   -4.6302   -0.2939    0.0000 C   0  0  0  0  0  0  0  0  0  0  0  0
   -2.5644   -2.2350    0.0000 C   0  0  0  0  0  0  0  0  0  0  0  0
   -4.1672   -1.8432    0.0000 C   0  0  0  0  0  0  0  0  0  0  0  0
    1.4959   -1.0952    0.0000 C   0  0  0  0  0  0  0  0  0  0  0  0
    3.4014    0.9706    0.0000 C   0  0  0  0  0  0  0  0  0  0  0  0
    2.7247   -2.2172    0.0000 C   0  0  0  0  0  0  0  0  0  0  0  0
    4.6302   -0.1335    0.0000 C   0  0  0  0  0  0  0  0  0  0  0  0
    4.2563   -1.7364    0.0000 C   0  0  0  0  0  0  0  0  0  0  0  0
    1.6918    1.7364    0.0000 C   0  0  0  0  0  0  0  0  0  0  0  0
   -0.9617    2.2172    0.0000 C   0  0  0  0  0  0  0  0  0  0  0  0
    0.7301    2.2350    0.0000 C   0  0  0  0  0  0  0  0  0  0  0  0
   -2.8315    2.1103    0.0000 C   0  0  0  0  0  0  0  0  0  0  0  0
  1  4  1  0  0  0  0
  1 16  1  0  0  0  0
  2  7  1  0  0  0  0
  2 27  1  0  0  0  0
  3 28  1  0  0  0  0
  3 29  1  0  0  0  0
  4  5  2  0  0  0  0
  4  6  1  0  0  0  0
  5  8  1  0  0  0  0
  5 17  1  0  0  0  0
  6  9  2  0  0  0  0
  6 18  1  0  0  0  0
  7 11  2  0  0  0  0
  7 12  1  0  0  0  0
  8 10  2  0  0  0  0
  8 19  1  0  0  0  0
  9 10  1  0  0  0  0
  9 20  1  0  0  0  0
 10 21  1  0  0  0  0
 11 13  1  0  0  0  0
 11 22  1  0  0  0  0
 12 14  2  0  0  0  0
 12 23  1  0  0  0  0
 13 15  2  0  0  0  0
 13 24  1  0  0  0  0
 14 15  1  0  0  0  0
 14 25  1  0  0  0  0
 15 26  1  0  0  0  0
 16 28  1  0  0  0  0
 16 30  1  0  0  0  0
 27 29  1  0  0  0  0
M  END
> <PUBCHEM_COMPOUND_ID_TYPE>
0

> <PUBCHEM_TOTAL_CHARGE>
0

> <PUBCHEM_SUBSTANCE_ID>
310945630

> <PUBCHEM_SUBSTANCE_VERSION>
1

> <PUBCHEM_EXT_DATASOURCE_NAME>
4488

> <PUBCHEM_EXT_DATASOURCE_REGID>
SCHEMBL16123729

> <PUBCHEM_SUBSTANCE_COMMENT>
InChI=1S/C27H43N3/c1-15(30-27-24(10)20(6)17(3)21(7)25(27)11)14-28-12-13-29-26-22(8)18(4)16(2)19(5)23(26)9/h15,28-30H,12-14H2,1-11H3
InChIKey=NEQDBCPVPFVCNQ-UHFFFAOYSA-N

> <PUBCHEM_SUBSTANCE_SYNONYM>
SCHEMBL16123729

> <PUBCHEM_XREF_EXT_ID>
SCHEMBL16123729

> <PUBCHEM_EXT_DATASOURCE_URL>
https://www.surechembl.org/

> <PUBCHEM_EXT_SUBSTANCE_URL>
https://www.surechembl.org/chemical/SCHEMBL16123729

> <PUBCHEM_CID_ASSOCIATIONS>
117611644  1

> <PUBCHEM_COORDINATE_TYPE>
1
3

$$$$
