310931662
  -OEChem-07211613022D

  9 10  0     1  0  0  0  0  0999 V2000
    0.7950   -1.5750    0.0000 N   0  0  3  0  0  0  0  0  0  0  0  0
    2.1900   -3.0000    0.0000 N   0  0  0  0  0  0  0  0  0  0  0  0
    1.3800   -2.1750    0.0000 C   0  0  0  0  0  0  0  0  0  0  0  0
    1.0050   -0.7800    0.0000 C   0  0  0  0  0  0  0  0  0  0  0  0
    1.3800   -3.0000    0.0000 C   0  0  0  0  0  0  0  0  0  0  0  0
    2.2050   -2.1750    0.0000 C   0  0  0  0  0  0  0  0  0  0  0  0
    0.8100    0.0000    0.0000 C   0  0  0  0  0  0  0  0  0  0  0  0
    1.5900   -0.1800    0.0000 C   0  0  0  0  0  0  0  0  0  0  0  0
    0.0000   -1.8000    0.0000 C   0  0  0  0  0  0  0  0  0  0  0  0
  1  3  1  0  0  0  0
  1  4  1  0  0  0  0
  1  9  1  0  0  0  0
  2  5  1  0  0  0  0
  2  6  1  0  0  0  0
  3  5  1  0  0  0  0
  3  6  1  0  0  0  0
  4  7  1  0  0  0  0
  4  8  1  0  0  0  0
  7  8  1  0  0  0  0
M  END
> <PUBCHEM_COMPOUND_ID_TYPE>
0

> <PUBCHEM_TOTAL_CHARGE>
0

> <PUBCHEM_SUBSTANCE_ID>
310931662

> <PUBCHEM_SUBSTANCE_VERSION>
1

> <PUBCHEM_EXT_DATASOURCE_NAME>
4488

> <PUBCHEM_EXT_DATASOURCE_REGID>
SCHEMBL16108988

> <PUBCHEM_SUBSTANCE_COMMENT>
InChI=1S/C7H14N2/c1-9(6-2-3-6)7-4-8-5-7/h6-8H,2-5H2,1H3
InChIKey=WJANTGUGZRKBQC-UHFFFAOYSA-N

> <PUBCHEM_SUBSTANCE_SYNONYM>
SCHEMBL16108988

> <PUBCHEM_XREF_EXT_ID>
SCHEMBL16108988

> <PUBCHEM_EXT_DATASOURCE_URL>
https://www.surechembl.org/

> <PUBCHEM_EXT_SUBSTANCE_URL>
https://www.surechembl.org/chemical/SCHEMBL16108988

> <PUBCHEM_CID_ASSOCIATIONS>
62783698  1

> <PUBCHEM_COORDINATE_TYPE>
1
3

$$$$
