310948125
  -OEChem-07211613022D

 37 40  0     1  0  0  0  0  0999 V2000
    3.6456    0.6020    0.0000 Cl  0  0  0  0  0  0  0  0  0  0  0  0
    2.2409    3.0770    0.0000 F   0  0  0  0  0  0  0  0  0  0  0  0
    0.1003   -0.6243    0.0000 O   0  0  0  0  0  0  0  0  0  0  0  0
    0.7916    0.6020    0.0000 O   0  0  0  0  0  0  0  0  0  0  0  0
   -2.7091   -2.6757    0.0000 O   0  0  0  0  0  0  0  0  0  0  0  0
    2.9544   -0.6243    0.0000 N   0  0  0  0  0  0  0  0  0  0  0  0
    2.2409   -1.8730    0.0000 N   0  0  0  0  0  0  0  0  0  0  0  0
   -0.0111   -1.8730    0.0000 N   0  0  0  0  0  0  0  0  0  0  0  0
    3.6679   -2.6980    0.0000 N   0  0  0  0  0  0  0  0  0  0  0  0
   -1.6611   -1.8730    0.0000 N   0  0  0  0  0  0  0  0  0  0  0  0
   -5.0949   -1.5385    0.0000 N   0  0  0  0  0  0  0  0  0  0  0  0
    2.2186   -0.1784    0.0000 C   0  0  3  0  0  0  0  0  0  0  0  0
    1.5274   -0.6020    0.0000 C   0  0  0  0  0  0  0  0  0  0  0  0
    1.4828   -1.4270    0.0000 C   0  0  0  0  0  0  0  0  0  0  0  0
    2.2409    0.6466    0.0000 C   0  0  0  0  0  0  0  0  0  0  0  0
    2.9321   -1.4270    0.0000 C   0  0  0  0  0  0  0  0  0  0  0  0
    0.7916   -0.2007    0.0000 C   0  0  0  0  0  0  0  0  0  0  0  0
    2.9321    1.0480    0.0000 C   0  0  0  0  0  0  0  0  0  0  0  0
    3.6679   -1.8284    0.0000 C   0  0  0  0  0  0  0  0  0  0  0  0
    0.8361   -1.8284    0.0000 C   0  0  0  0  0  0  0  0  0  0  0  0
    1.5497    1.0480    0.0000 C   0  0  0  0  0  0  0  0  0  0  0  0
    2.9321    1.8730    0.0000 C   0  0  0  0  0  0  0  0  0  0  0  0
    2.2186    2.2966    0.0000 C   0  0  0  0  0  0  0  0  0  0  0  0
    1.5497    1.8730    0.0000 C   0  0  0  0  0  0  0  0  0  0  0  0
    4.3814   -1.4270    0.0000 C   0  0  0  0  0  0  0  0  0  0  0  0
   -0.4348   -2.5642    0.0000 C   0  0  0  0  0  0  0  0  0  0  0  0
   -0.4125   -1.1595    0.0000 C   0  0  0  0  0  0  0  0  0  0  0  0
   -1.2821   -2.5419    0.0000 C   0  0  0  0  0  0  0  0  0  0  0  0
   -1.2598   -1.1372    0.0000 C   0  0  0  0  0  0  0  0  0  0  0  0
    4.3814   -3.0770    0.0000 C   0  0  0  0  0  0  0  0  0  0  0  0
    5.0949   -1.8507    0.0000 C   0  0  0  0  0  0  0  0  0  0  0  0
   -2.5084   -1.8061    0.0000 C   0  0  0  0  0  0  0  0  0  0  0  0
    5.0726   -2.6757    0.0000 C   0  0  0  0  0  0  0  0  0  0  0  0
   -0.6578   -0.2007    0.0000 C   0  0  0  0  0  0  0  0  0  0  0  0
   -3.1105   -1.2709    0.0000 C   0  0  0  0  0  0  0  0  0  0  0  0
   -3.7794   -1.6723    0.0000 C   0  0  0  0  0  0  0  0  0  0  0  0
   -4.3814   -1.0926    0.0000 C   0  0  0  0  0  0  0  0  0  0  0  0
  1 18  1  0  0  0  0
  2 23  1  0  0  0  0
  3 17  1  0  0  0  0
  3 34  1  0  0  0  0
  4 17  2  0  0  0  0
  5 32  2  0  0  0  0
  6 12  1  0  0  0  0
  6 16  2  0  0  0  0
  7 14  1  0  0  0  0
  7 16  1  0  0  0  0
  8 20  1  0  0  0  0
  8 26  1  0  0  0  0
  8 27  1  0  0  0  0
  9 19  2  0  0  0  0
  9 30  1  0  0  0  0
 10 28  1  0  0  0  0
 10 29  1  0  0  0  0
 10 32  1  0  0  0  0
 11 37  1  0  0  0  0
 12 13  1  0  0  0  0
 12 15  1  0  0  0  0
 13 14  2  0  0  0  0
 13 17  1  0  0  0  0
 14 20  1  0  0  0  0
 15 18  2  0  0  0  0
 15 21  1  0  0  0  0
 16 19  1  0  0  0  0
 18 22  1  0  0  0  0
 19 25  1  0  0  0  0
 21 24  2  0  0  0  0
 22 23  2  0  0  0  0
 23 24  1  0  0  0  0
 25 31  2  0  0  0  0
 26 28  1  0  0  0  0
 27 29  1  0  0  0  0
 30 33  2  0  0  0  0
 31 33  1  0  0  0  0
 32 35  1  0  0  0  0
 35 36  1  0  0  0  0
 36 37  1  0  0  0  0
M  END
> <PUBCHEM_COMPOUND_ID_TYPE>
0

> <PUBCHEM_TOTAL_CHARGE>
0

> <PUBCHEM_SUBSTANCE_ID>
310948125

> <PUBCHEM_SUBSTANCE_VERSION>
1

> <PUBCHEM_EXT_DATASOURCE_NAME>
4488

> <PUBCHEM_EXT_DATASOURCE_REGID>
SCHEMBL16126301

> <PUBCHEM_SUBSTANCE_COMMENT>
InChI=1S/C26H30ClFN6O3/c1-37-26(36)23-21(16-33-11-13-34(14-12-33)22(35)6-4-9-29)31-25(20-5-2-3-10-30-20)32-24(23)18-8-7-17(28)15-19(18)27/h2-3,5,7-8,10,15,24H,4,6,9,11-14,16,29H2,1H3,(H,31,32)
InChIKey=YWIWRDFMSCZFAG-UHFFFAOYSA-N

> <PUBCHEM_SUBSTANCE_SYNONYM>
SCHEMBL16126301

> <PUBCHEM_XREF_EXT_ID>
SCHEMBL16126301

> <PUBCHEM_EXT_DATASOURCE_URL>
https://www.surechembl.org/

> <PUBCHEM_EXT_SUBSTANCE_URL>
https://www.surechembl.org/chemical/SCHEMBL16126301

> <PUBCHEM_CID_ASSOCIATIONS>
117613742  1

> <PUBCHEM_COORDINATE_TYPE>
1
3

$$$$
