310944585
  -OEChem-07211613022D

 26 28  0     1  0  0  0  0  0999 V2000
   -4.3287    1.3438    0.0000 Cl  0  0  0  0  0  0  0  0  0  0  0  0
   -4.3287   -0.3035    0.0000 Cl  0  0  0  0  0  0  0  0  0  0  0  0
    0.1176    2.1737    0.0000 O   0  0  0  0  0  0  0  0  0  0  0  0
    4.3287   -0.5636    0.0000 O   0  0  0  0  0  0  0  0  0  0  0  0
    0.8483    0.9350    0.0000 N   0  0  0  0  0  0  0  0  0  0  0  0
    2.9168   -0.5636    0.0000 N   0  0  0  0  0  0  0  0  0  0  0  0
   -1.2943    1.3438    0.0000 N   0  0  0  0  0  0  0  0  0  0  0  0
    1.6411   -0.1548    0.0000 C   0  0  3  0  0  0  0  0  0  0  0  0
    2.1241    0.5264    0.0000 C   0  0  3  0  0  0  0  0  0  0  0  0
    0.8608    0.1176    0.0000 C   0  0  0  0  0  0  0  0  0  0  0  0
    1.6411    1.1952    0.0000 C   0  0  0  0  0  0  0  0  0  0  0  0
    2.1365   -0.8112    0.0000 C   0  0  0  0  0  0  0  0  0  0  0  0
    2.9168    0.2663    0.0000 C   0  0  0  0  0  0  0  0  0  0  0  0
    0.1301    1.3314    0.0000 C   0  0  0  0  0  0  0  0  0  0  0  0
    3.6104   -0.9722    0.0000 C   0  0  0  0  0  0  0  0  0  0  0  0
   -2.0127    0.9475    0.0000 C   0  0  0  0  0  0  0  0  0  0  0  0
   -2.0251    0.1176    0.0000 C   0  0  0  0  0  0  0  0  0  0  0  0
   -0.5760    0.9350    0.0000 C   0  0  0  0  0  0  0  0  0  0  0  0
   -3.4370    0.9350    0.0000 C   0  0  0  0  0  0  0  0  0  0  0  0
   -3.4494    0.1176    0.0000 C   0  0  0  0  0  0  0  0  0  0  0  0
   -2.7310    1.3438    0.0000 C   0  0  0  0  0  0  0  0  0  0  0  0
   -2.7186   -0.2911    0.0000 C   0  0  0  0  0  0  0  0  0  0  0  0
    3.6228   -1.8021    0.0000 C   0  0  0  0  0  0  0  0  0  0  0  0
   -1.2943   -0.3035    0.0000 C   0  0  0  0  0  0  0  0  0  0  0  0
    2.8920   -2.1737    0.0000 C   0  0  0  0  0  0  0  0  0  0  0  0
   -0.5883    0.1053    0.0000 C   0  0  0  0  0  0  0  0  0  0  0  0
  1 19  1  0  0  0  0
  2 20  1  0  0  0  0
  3 14  2  0  0  0  0
  4 15  2  0  0  0  0
  5 10  1  0  0  0  0
  5 11  1  0  0  0  0
  5 14  1  0  0  0  0
  6 12  1  0  0  0  0
  6 13  1  0  0  0  0
  6 15  1  0  0  0  0
  7 16  1  0  0  0  0
  7 18  1  0  0  0  0
  8  9  1  0  0  0  0
  8 10  1  0  0  0  0
  8 12  1  0  0  0  0
  9 11  1  0  0  0  0
  9 13  1  0  0  0  0
 14 18  1  0  0  0  0
 15 23  1  0  0  0  0
 16 17  2  0  0  0  0
 16 21  1  0  0  0  0
 17 22  1  0  0  0  0
 17 24  1  0  0  0  0
 19 20  1  0  0  0  0
 19 21  2  0  0  0  0
 20 22  2  0  0  0  0
 23 25  2  0  0  0  0
 24 26  1  0  0  0  0
M  END
> <PUBCHEM_COMPOUND_ID_TYPE>
0

> <PUBCHEM_TOTAL_CHARGE>
0

> <PUBCHEM_SUBSTANCE_ID>
310944585

> <PUBCHEM_SUBSTANCE_VERSION>
1

> <PUBCHEM_EXT_DATASOURCE_NAME>
4488

> <PUBCHEM_EXT_DATASOURCE_REGID>
SCHEMBL16122663

> <PUBCHEM_SUBSTANCE_COMMENT>
InChI=1S/C19H23Cl2N3O2/c1-3-12-5-15(20)16(21)6-17(12)22-7-19(26)24-10-13-8-23(18(25)4-2)9-14(13)11-24/h4-6,13-14,22H,2-3,7-11H2,1H3
InChIKey=WNIDOCVJMMDTCE-UHFFFAOYSA-N

> <PUBCHEM_SUBSTANCE_SYNONYM>
SCHEMBL16122663

> <PUBCHEM_XREF_EXT_ID>
SCHEMBL16122663

> <PUBCHEM_EXT_DATASOURCE_URL>
https://www.surechembl.org/

> <PUBCHEM_EXT_SUBSTANCE_URL>
https://www.surechembl.org/chemical/SCHEMBL16122663

> <PUBCHEM_CID_ASSOCIATIONS>
117610816  1

> <PUBCHEM_COORDINATE_TYPE>
1
3

$$$$
