310935333
  -OEChem-07211613022D

 37 42  0     1  0  0  0  0  0999 V2000
    5.3479   -5.6893    0.0000 O   0  0  0  0  0  0  0  0  0  0  0  0
    1.6499   -3.5558    0.0000 N   0  0  3  0  0  0  0  0  0  0  0  0
    0.3982   -2.8447    0.0000 N   0  0  0  0  0  0  0  0  0  0  0  0
    0.4267   -1.4223    0.0000 N   0  0  0  0  0  0  0  0  0  0  0  0
    5.3479   -4.2670    0.0000 N   0  0  0  0  0  0  0  0  0  0  0  0
    4.9497   -0.7112    0.0000 N   0  0  0  0  0  0  0  0  0  0  0  0
    4.9497   -2.1335    0.0000 N   0  0  0  0  0  0  0  0  0  0  0  0
    6.2013   -1.4223    0.0000 N   0  0  0  0  0  0  0  0  0  0  0  0
    6.5996   -2.1335    0.0000 N   0  0  0  0  0  0  0  0  0  0  0  0
    1.6499   -2.1335    0.0000 C   0  0  0  0  0  0  0  0  0  0  0  0
    1.2232   -2.8447    0.0000 C   0  0  0  0  0  0  0  0  0  0  0  0
    1.2516   -1.4223    0.0000 C   0  0  0  0  0  0  0  0  0  0  0  0
    2.8731   -1.4223    0.0000 C   0  0  0  0  0  0  0  0  0  0  0  0
    1.6499   -0.7112    0.0000 C   0  0  0  0  0  0  0  0  0  0  0  0
    2.4464   -2.1335    0.0000 C   0  0  0  0  0  0  0  0  0  0  0  0
    2.9016   -4.2670    0.0000 C   0  0  0  0  0  0  0  0  0  0  0  0
    2.4749   -3.5558    0.0000 C   0  0  0  0  0  0  0  0  0  0  0  0
    2.4749   -4.9781    0.0000 C   0  0  0  0  0  0  0  0  0  0  0  0
    2.4749   -0.7112    0.0000 C   0  0  0  0  0  0  0  0  0  0  0  0
    1.2232   -4.2670    0.0000 C   0  0  0  0  0  0  0  0  0  0  0  0
    3.6981   -1.4223    0.0000 C   0  0  0  0  0  0  0  0  0  0  0  0
    4.1248   -4.9781    0.0000 C   0  0  0  0  0  0  0  0  0  0  0  0
    3.6981   -4.2670    0.0000 C   0  0  0  0  0  0  0  0  0  0  0  0
    1.6499   -4.9781    0.0000 C   0  0  0  0  0  0  0  0  0  0  0  0
    0.0000   -2.1335    0.0000 C   0  0  0  0  0  0  0  0  0  0  0  0
    2.9016   -5.6608    0.0000 C   0  0  0  0  0  0  0  0  0  0  0  0
    4.9497   -4.9781    0.0000 C   0  0  0  0  0  0  0  0  0  0  0  0
    3.6981   -5.6893    0.0000 C   0  0  0  0  0  0  0  0  0  0  0  0
    1.2232    0.0000    0.0000 C   0  0  0  0  0  0  0  0  0  0  0  0
    4.1248   -0.7112    0.0000 C   0  0  0  0  0  0  0  0  0  0  0  0
    4.1248   -2.1335    0.0000 C   0  0  0  0  0  0  0  0  0  0  0  0
    5.3764   -1.4223    0.0000 C   0  0  0  0  0  0  0  0  0  0  0  0
    4.9497   -3.5558    0.0000 C   0  0  0  0  0  0  0  0  0  0  0  0
    6.1729   -4.2670    0.0000 C   0  0  0  0  0  0  0  0  0  0  0  0
    5.3479   -2.8447    0.0000 C   0  0  0  0  0  0  0  0  0  0  0  0
    6.5996   -3.5558    0.0000 C   0  0  0  0  0  0  0  0  0  0  0  0
    6.1729   -2.8447    0.0000 C   0  0  0  0  0  0  0  0  0  0  0  0
  1 27  2  0  0  0  0
  2 11  1  0  0  0  0
  2 17  1  0  0  0  0
  2 20  1  0  0  0  0
  3 11  1  0  0  0  0
  3 25  2  0  0  0  0
  4 12  2  0  0  0  0
  4 25  1  0  0  0  0
  5 27  1  0  0  0  0
  5 33  1  0  0  0  0
  5 34  1  0  0  0  0
  6 30  1  0  0  0  0
  6 32  2  0  0  0  0
  7 31  2  0  0  0  0
  7 32  1  0  0  0  0
  8 32  1  0  0  0  0
  9 37  1  0  0  0  0
 10 11  2  0  0  0  0
 10 12  1  0  0  0  0
 10 15  1  0  0  0  0
 12 14  1  0  0  0  0
 13 15  2  0  0  0  0
 13 19  1  0  0  0  0
 13 21  1  0  0  0  0
 14 19  2  0  0  0  0
 14 29  1  0  0  0  0
 16 17  1  0  0  0  0
 16 18  2  0  0  0  0
 16 23  1  0  0  0  0
 18 24  1  0  0  0  0
 18 26  1  0  0  0  0
 20 24  1  0  0  0  0
 21 30  2  0  0  0  0
 21 31  1  0  0  0  0
 22 23  2  0  0  0  0
 22 27  1  0  0  0  0
 22 28  1  0  0  0  0
 26 28  2  0  0  0  0
 33 35  1  0  0  0  0
 34 36  1  0  0  0  0
 35 37  1  0  0  0  0
 36 37  1  0  0  0  0
M  END
> <PUBCHEM_COMPOUND_ID_TYPE>
0

> <PUBCHEM_TOTAL_CHARGE>
0

> <PUBCHEM_SUBSTANCE_ID>
310935333

> <PUBCHEM_SUBSTANCE_VERSION>
1

> <PUBCHEM_EXT_DATASOURCE_NAME>
4488

> <PUBCHEM_EXT_DATASOURCE_REGID>
SCHEMBL16112867

> <PUBCHEM_SUBSTANCE_COMMENT>
InChI=1S/C28H30N8O/c1-17-10-20(22-13-31-28(30)32-14-22)12-24-25(17)33-16-34-26(24)36-7-4-18-2-3-19(11-21(18)15-36)27(37)35-8-5-23(29)6-9-35/h2-3,10-14,16,23H,4-9,15,29H2,1H3,(H2,30,31,32)
InChIKey=MCHVXUPTCYTNGR-UHFFFAOYSA-N

> <PUBCHEM_SUBSTANCE_SYNONYM>
SCHEMBL16112867

> <PUBCHEM_XREF_EXT_ID>
SCHEMBL16112867

> <PUBCHEM_EXT_DATASOURCE_URL>
https://www.surechembl.org/

> <PUBCHEM_EXT_SUBSTANCE_URL>
https://www.surechembl.org/chemical/SCHEMBL16112867

> <PUBCHEM_CID_ASSOCIATIONS>
117603389  1

> <PUBCHEM_COORDINATE_TYPE>
1
3

$$$$
