310936825
  -OEChem-07211613022D

 21 23  0     1  0  0  0  0  0999 V2000
    5.7865   -2.5653    0.0000 F   0  0  0  0  0  0  0  0  0  0  0  0
    5.0342   -1.2923    0.0000 F   0  0  0  0  0  0  0  0  0  0  0  0
    5.0342   -2.9704    0.0000 F   0  0  0  0  0  0  0  0  0  0  0  0
    0.0772   -2.4303    0.0000 O   0  0  0  0  0  0  0  0  0  0  0  0
    1.5431   -2.4303    0.0000 O   0  0  0  0  0  0  0  0  0  0  0  0
    0.8101   -1.1766    0.0000 N   0  0  0  0  0  0  0  0  0  0  0  0
    1.6395   -2.1410    0.0000 N   0  0  0  0  0  0  0  0  0  0  0  0
    2.9318   -2.8740    0.0000 N   0  0  0  0  0  0  0  0  0  0  0  0
    3.7419   -1.4081    0.0000 N   0  0  0  0  0  0  0  0  0  0  0  0
    1.6202   -0.7137    0.0000 C   0  0  3  0  0  0  0  0  0  0  0  0
    0.0000   -0.7137    0.0000 C   0  0  3  0  0  0  0  0  0  0  0  0
    1.2152   -1.4081    0.0000 C   0  0  3  0  0  0  0  0  0  0  0  0
    0.4051   -1.4081    0.0000 C   0  0  0  0  0  0  0  0  0  0  0  0
    1.2152    0.0000    0.0000 C   0  0  0  0  0  0  0  0  0  0  0  0
    0.4051    0.0000    0.0000 C   0  0  0  0  0  0  0  0  0  0  0  0
    0.8101   -2.0253    0.0000 C   0  0  0  0  0  0  0  0  0  0  0  0
    2.4689   -2.1410    0.0000 C   0  0  0  0  0  0  0  0  0  0  0  0
    4.2049   -2.1410    0.0000 C   0  0  0  0  0  0  0  0  0  0  0  0
    5.0342   -2.1217    0.0000 C   0  0  0  0  0  0  0  0  0  0  0  0
    2.9318   -1.4081    0.0000 C   0  0  0  0  0  0  0  0  0  0  0  0
    3.7612   -2.8547    0.0000 C   0  0  0  0  0  0  0  0  0  0  0  0
  1 19  1  0  0  0  0
  2 19  1  0  0  0  0
  3 19  1  0  0  0  0
  4 16  2  0  0  0  0
  5 16  1  0  0  0  0
  6 10  1  0  0  0  0
  6 11  1  0  0  0  0
  6 16  1  0  0  0  0
  7 12  1  0  0  0  0
  7 17  1  0  0  0  0
  8 17  2  0  0  0  0
  8 21  1  0  0  0  0
  9 18  1  0  0  0  0
  9 20  2  0  0  0  0
 10 12  1  0  0  0  0
 10 14  1  0  0  0  0
 11 13  1  0  0  0  0
 11 15  1  0  0  0  0
 12 13  1  0  0  0  0
 14 15  1  0  0  0  0
 17 20  1  0  0  0  0
 18 19  1  0  0  0  0
 18 21  2  0  0  0  0
M  END
> <PUBCHEM_COMPOUND_ID_TYPE>
0

> <PUBCHEM_TOTAL_CHARGE>
0

> <PUBCHEM_SUBSTANCE_ID>
310936825

> <PUBCHEM_SUBSTANCE_VERSION>
1

> <PUBCHEM_EXT_DATASOURCE_NAME>
4488

> <PUBCHEM_EXT_DATASOURCE_REGID>
SCHEMBL16114513

> <PUBCHEM_SUBSTANCE_COMMENT>
InChI=1S/C12H13F3N4O2/c13-12(14,15)9-4-17-10(5-16-9)18-7-3-6-1-2-8(7)19(6)11(20)21/h4-8H,1-3H2,(H,17,18)(H,20,21)
InChIKey=FKFPBIJGVSYDHW-UHFFFAOYSA-N

> <PUBCHEM_SUBSTANCE_SYNONYM>
SCHEMBL16114513

> <PUBCHEM_XREF_EXT_ID>
SCHEMBL16114513

> <PUBCHEM_EXT_DATASOURCE_URL>
https://www.surechembl.org/

> <PUBCHEM_EXT_SUBSTANCE_URL>
https://www.surechembl.org/chemical/SCHEMBL16114513

> <PUBCHEM_CID_ASSOCIATIONS>
117604718  1

> <PUBCHEM_COORDINATE_TYPE>
1
3

$$$$
