310945650
  -OEChem-07211613022D

 39 43  0     1  0  0  0  0  0999 V2000
   -5.8695   -1.7706    0.0000 S   0  0  0  0  0  0  0  0  0  0  0  0
    5.0449    0.9944    0.0000 O   0  0  0  0  0  0  0  0  0  0  0  0
    2.0859    1.1642    0.0000 O   0  0  0  0  0  0  0  0  0  0  0  0
   -6.4032   -2.3770    0.0000 O   0  0  0  0  0  0  0  0  0  0  0  0
   -5.3117   -2.4012    0.0000 O   0  0  0  0  0  0  0  0  0  0  0  0
    6.5972   -0.7277    0.0000 O   0  0  0  0  0  0  0  0  0  0  0  0
    6.4274   -2.0616    0.0000 O   0  0  0  0  0  0  0  0  0  0  0  0
   -3.6867   -0.5336    0.0000 N   0  0  0  0  0  0  0  0  0  0  0  0
   -5.1419   -1.3825    0.0000 N   0  0  0  0  0  0  0  0  0  0  0  0
   -1.5280    0.7519    0.0000 C   0  0  0  0  0  0  0  0  0  0  0  0
   -2.9833   -0.0727    0.0000 C   0  0  0  0  0  0  0  0  0  0  0  0
    4.2203   -0.0727    0.0000 C   0  0  0  0  0  0  0  0  0  0  0  0
   -1.5523   -0.0727    0.0000 C   0  0  0  0  0  0  0  0  0  0  0  0
   -2.2557    1.1642    0.0000 C   0  0  0  0  0  0  0  0  0  0  0  0
    4.2687    0.7519    0.0000 C   0  0  0  0  0  0  0  0  0  0  0  0
   -0.8246    1.1642    0.0000 C   0  0  0  0  0  0  0  0  0  0  0  0
    5.0207   -0.3638    0.0000 C   0  0  3  0  0  0  0  0  0  0  0  0
   -2.2557   -0.4851    0.0000 C   0  0  0  0  0  0  0  0  0  0  0  0
   -2.9590    0.7519    0.0000 C   0  0  0  0  0  0  0  0  0  0  0  0
    2.8135    0.7519    0.0000 C   0  0  0  0  0  0  0  0  0  0  0  0
    3.5169    1.1400    0.0000 C   0  0  0  0  0  0  0  0  0  0  0  0
    3.5169   -0.4851    0.0000 C   0  0  0  0  0  0  0  0  0  0  0  0
   -0.0485    0.7519    0.0000 C   0  0  0  0  0  0  0  0  0  0  0  0
    5.5300    0.3396    0.0000 C   0  0  0  0  0  0  0  0  0  0  0  0
    0.6064    1.1642    0.0000 C   0  0  0  0  0  0  0  0  0  0  0  0
   -3.6867   -1.3340    0.0000 C   0  0  0  0  0  0  0  0  0  0  0  0
   -4.4143   -0.0970    0.0000 C   0  0  0  0  0  0  0  0  0  0  0  0
    2.8135   -0.0970    0.0000 C   0  0  0  0  0  0  0  0  0  0  0  0
   -0.7762    1.9888    0.0000 C   0  0  0  0  0  0  0  0  0  0  0  0
   -4.3900   -1.7463    0.0000 C   0  0  0  0  0  0  0  0  0  0  0  0
   -5.1177   -0.4851    0.0000 C   0  0  0  0  0  0  0  0  0  0  0  0
    5.2875   -1.1400    0.0000 C   0  0  0  0  0  0  0  0  0  0  0  0
    1.3825    0.7519    0.0000 C   0  0  0  0  0  0  0  0  0  0  0  0
   -0.7762   -0.5093    0.0000 C   0  0  0  0  0  0  0  0  0  0  0  0
   -2.2314    2.0131    0.0000 C   0  0  0  0  0  0  0  0  0  0  0  0
    0.6306    1.9646    0.0000 C   0  0  0  0  0  0  0  0  0  0  0  0
   -0.0727    2.4012    0.0000 C   0  0  0  0  0  0  0  0  0  0  0  0
    6.1121   -1.3097    0.0000 C   0  0  0  0  0  0  0  0  0  0  0  0
   -6.5972   -1.3340    0.0000 C   0  0  0  0  0  0  0  0  0  0  0  0
  1  4  2  0  0  0  0
  1  5  2  0  0  0  0
  1  9  1  0  0  0  0
  1 39  1  0  0  0  0
  2 15  1  0  0  0  0
  2 24  1  0  0  0  0
  3 20  1  0  0  0  0
  3 33  1  0  0  0  0
  6 38  2  0  0  0  0
  7 38  1  0  0  0  0
  8 11  1  0  0  0  0
  8 26  1  0  0  0  0
  8 27  1  0  0  0  0
  9 30  1  0  0  0  0
  9 31  1  0  0  0  0
 10 13  2  0  0  0  0
 10 14  1  0  0  0  0
 10 16  1  0  0  0  0
 11 18  2  0  0  0  0
 11 19  1  0  0  0  0
 12 15  1  0  0  0  0
 12 17  1  0  0  0  0
 12 22  2  0  0  0  0
 13 18  1  0  0  0  0
 13 34  1  0  0  0  0
 14 19  2  0  0  0  0
 14 35  1  0  0  0  0
 15 21  2  0  0  0  0
 16 23  2  0  0  0  0
 16 29  1  0  0  0  0
 17 24  1  0  0  0  0
 17 32  1  0  0  0  0
 20 21  1  0  0  0  0
 20 28  2  0  0  0  0
 22 28  1  0  0  0  0
 23 25  1  0  0  0  0
 25 33  1  0  0  0  0
 25 36  2  0  0  0  0
 26 30  1  0  0  0  0
 27 31  1  0  0  0  0
 29 37  2  0  0  0  0
 32 38  1  0  0  0  0
 36 37  1  0  0  0  0
M  END
> <PUBCHEM_COMPOUND_ID_TYPE>
0

> <PUBCHEM_TOTAL_CHARGE>
0

> <PUBCHEM_SUBSTANCE_ID>
310945650

> <PUBCHEM_SUBSTANCE_VERSION>
1

> <PUBCHEM_EXT_DATASOURCE_NAME>
4488

> <PUBCHEM_EXT_DATASOURCE_REGID>
SCHEMBL16123749

> <PUBCHEM_SUBSTANCE_COMMENT>
InChI=1S/C30H34N2O6S/c1-20-13-25(31-9-11-32(12-10-31)39(3,35)36)14-21(2)30(20)23-6-4-5-22(15-23)18-37-26-7-8-27-24(16-29(33)34)19-38-28(27)17-26/h4-8,13-15,17,24H,9-12,16,18-19H2,1-3H3,(H,33,34)
InChIKey=OOMRVSQTKMDRFN-UHFFFAOYSA-N

> <PUBCHEM_SUBSTANCE_SYNONYM>
SCHEMBL16123749

> <PUBCHEM_XREF_EXT_ID>
SCHEMBL16123749

> <PUBCHEM_EXT_DATASOURCE_URL>
https://www.surechembl.org/

> <PUBCHEM_EXT_SUBSTANCE_URL>
https://www.surechembl.org/chemical/SCHEMBL16123749

> <PUBCHEM_CID_ASSOCIATIONS>
86269243  1

> <PUBCHEM_COORDINATE_TYPE>
1
3

$$$$
