310937640
  -OEChem-07211613022D

 21 22  0     1  0  0  0  0  0999 V2000
    1.4338   -1.9345    0.0000 O   0  0  0  0  0  0  0  0  0  0  0  0
    2.8904   -1.7069    0.0000 O   0  0  0  0  0  0  0  0  0  0  0  0
    4.2104   -1.0241    0.0000 O   0  0  0  0  0  0  0  0  0  0  0  0
    2.0938   -1.4566    0.0000 C   0  0  0  0  0  0  0  0  0  0  0  0
    2.0938   -0.6373    0.0000 C   0  0  0  0  0  0  0  0  0  0  0  0
    1.5248   -2.7538    0.0000 C   0  0  3  0  0  0  0  0  0  0  0  0
    2.2759   -3.0952    0.0000 C   0  0  3  0  0  0  0  0  0  0  0  0
    3.3683   -1.0241    0.0000 C   0  0  0  0  0  0  0  0  0  0  0  0
    2.8904   -0.3641    0.0000 C   0  0  0  0  0  0  0  0  0  0  0  0
    0.8421   -3.2317    0.0000 C   0  0  0  0  0  0  0  0  0  0  0  0
    1.4338   -0.1366    0.0000 C   0  0  0  0  0  0  0  0  0  0  0  0
    2.9586   -2.6173    0.0000 C   0  0  0  0  0  0  0  0  0  0  0  0
    2.3441   -3.9145    0.0000 C   0  0  0  0  0  0  0  0  0  0  0  0
    0.9331   -4.0738    0.0000 C   0  0  3  0  0  0  0  0  0  0  0  0
    1.6841   -4.3924    0.0000 C   0  0  0  0  0  0  0  0  0  0  0  0
    0.6827   -0.5007    0.0000 C   0  0  0  0  0  0  0  0  0  0  0  0
    3.7097   -2.9586    0.0000 C   0  0  0  0  0  0  0  0  0  0  0  0
    3.0269   -1.9573    0.0000 C   0  0  0  0  0  0  0  0  0  0  0  0
    0.2503   -4.5518    0.0000 C   0  0  0  0  0  0  0  0  0  0  0  0
    0.5917   -1.3200    0.0000 C   0  0  0  0  0  0  0  0  0  0  0  0
    0.0000    0.0000    0.0000 C   0  0  0  0  0  0  0  0  0  0  0  0
  1  4  1  0  0  0  0
  1  6  1  0  0  0  0
  2  4  1  0  0  0  0
  2  8  1  0  0  0  0
  3  8  2  0  0  0  0
  4  5  2  0  0  0  0
  5  9  1  0  0  0  0
  5 11  1  0  0  0  0
  6  7  1  0  0  0  0
  6 10  1  0  0  0  0
  7 12  1  0  0  0  0
  7 13  1  0  0  0  0
  8  9  1  0  0  0  0
 10 14  1  0  0  0  0
 11 16  2  0  0  0  0
 12 17  1  0  0  0  0
 12 18  1  0  0  0  0
 13 15  1  0  0  0  0
 14 15  1  0  0  0  0
 14 19  1  0  0  0  0
 16 20  1  0  0  0  0
 16 21  1  0  0  0  0
M  END
> <PUBCHEM_COMPOUND_ID_TYPE>
0

> <PUBCHEM_TOTAL_CHARGE>
0

> <PUBCHEM_SUBSTANCE_ID>
310937640

> <PUBCHEM_SUBSTANCE_VERSION>
1

> <PUBCHEM_EXT_DATASOURCE_NAME>
4488

> <PUBCHEM_EXT_DATASOURCE_REGID>
SCHEMBL16115427

> <PUBCHEM_SUBSTANCE_COMMENT>
InChI=1S/C18H28O3/c1-11(2)8-14-10-17(19)21-18(14)20-16-9-13(5)6-7-15(16)12(3)4/h8,12-13,15-16H,6-7,9-10H2,1-5H3
InChIKey=LUYPQPKDUPUNSJ-UHFFFAOYSA-N

> <PUBCHEM_SUBSTANCE_SYNONYM>
SCHEMBL16115427

> <PUBCHEM_XREF_EXT_ID>
SCHEMBL16115427

> <PUBCHEM_EXT_DATASOURCE_URL>
https://www.surechembl.org/

> <PUBCHEM_EXT_SUBSTANCE_URL>
https://www.surechembl.org/chemical/SCHEMBL16115427

> <PUBCHEM_CID_ASSOCIATIONS>
117605333  1

> <PUBCHEM_COORDINATE_TYPE>
1
3

$$$$
