310931155
  -OEChem-07211613022D

 34 37  0     1  0  0  0  0  0999 V2000
    3.1475   -5.9386    0.0000 F   0  0  0  0  0  0  0  0  0  0  0  0
    4.3945   -5.2260    0.0000 F   0  0  0  0  0  0  0  0  0  0  0  0
    2.7614   -5.2260    0.0000 F   0  0  0  0  0  0  0  0  0  0  0  0
    1.2471   -3.9491    0.0000 O   0  0  0  0  0  0  0  0  0  0  0  0
    2.8802   -1.5441    0.0000 O   0  0  0  0  0  0  0  0  0  0  0  0
    5.6714   -1.4549    0.0000 O   0  0  0  0  0  0  0  0  0  0  0  0
    6.4137   -1.9300    0.0000 O   0  0  0  0  0  0  0  0  0  0  0  0
    7.1263   -3.1772    0.0000 O   0  0  0  0  0  0  0  0  0  0  0  0
    4.3352   -1.4549    0.0000 N   0  0  0  0  0  0  0  0  0  0  0  0
    4.6024   -0.6829    0.0000 N   0  0  0  0  0  0  0  0  0  0  0  0
    2.1676   -2.7614    0.0000 C   0  0  0  0  0  0  0  0  0  0  0  0
    1.4549   -3.1772    0.0000 C   0  0  0  0  0  0  0  0  0  0  0  0
    2.8802   -3.1772    0.0000 C   0  0  0  0  0  0  0  0  0  0  0  0
    0.7126   -2.7318    0.0000 C   0  0  0  0  0  0  0  0  0  0  0  0
    0.4157   -4.0679    0.0000 C   0  0  0  0  0  0  0  0  0  0  0  0
    2.1676   -1.9598    0.0000 C   0  0  0  0  0  0  0  0  0  0  0  0
    4.2758   -3.1772    0.0000 C   0  0  0  0  0  0  0  0  0  0  0  0
    3.5632   -4.3945    0.0000 C   0  0  0  0  0  0  0  0  0  0  0  0
    3.5632   -2.7614    0.0000 C   0  0  0  0  0  0  0  0  0  0  0  0
    0.1188   -3.2959    0.0000 C   0  0  0  0  0  0  0  0  0  0  0  0
    2.8505   -3.9789    0.0000 C   0  0  0  0  0  0  0  0  0  0  0  0
    5.0181   -2.7614    0.0000 C   0  0  3  0  0  0  0  0  0  0  0  0
    4.2758   -4.0086    0.0000 C   0  0  0  0  0  0  0  0  0  0  0  0
    0.7423   -1.9300    0.0000 C   0  0  0  0  0  0  0  0  0  0  0  0
    1.4252   -1.5144    0.0000 C   0  0  0  0  0  0  0  0  0  0  0  0
    3.5632   -5.2260    0.0000 C   0  0  0  0  0  0  0  0  0  0  0  0
    5.0181   -1.9300    0.0000 C   0  0  0  0  0  0  0  0  0  0  0  0
    5.7010   -3.1772    0.0000 C   0  0  0  0  0  0  0  0  0  0  0  0
    0.0000   -4.7509    0.0000 C   0  0  0  0  0  0  0  0  0  0  0  0
    0.8611   -4.7509    0.0000 C   0  0  0  0  0  0  0  0  0  0  0  0
    5.4338   -0.6533    0.0000 C   0  0  0  0  0  0  0  0  0  0  0  0
    6.4137   -2.7614    0.0000 C   0  0  0  0  0  0  0  0  0  0  0  0
    2.8802   -0.7423    0.0000 C   0  0  0  0  0  0  0  0  0  0  0  0
    5.9089    0.0000    0.0000 C   0  0  0  0  0  0  0  0  0  0  0  0
  1 26  1  0  0  0  0
  2 26  1  0  0  0  0
  3 26  1  0  0  0  0
  4 12  1  0  0  0  0
  4 15  1  0  0  0  0
  5 16  1  0  0  0  0
  5 33  1  0  0  0  0
  6 27  1  0  0  0  0
  6 31  1  0  0  0  0
  7 32  2  0  0  0  0
  8 32  1  0  0  0  0
  9 10  1  0  0  0  0
  9 27  2  0  0  0  0
 10 31  2  0  0  0  0
 11 12  1  0  0  0  0
 11 13  1  0  0  0  0
 11 16  2  0  0  0  0
 12 14  2  0  0  0  0
 13 19  2  0  0  0  0
 13 21  1  0  0  0  0
 14 20  1  0  0  0  0
 14 24  1  0  0  0  0
 15 20  1  0  0  0  0
 15 29  1  0  0  0  0
 15 30  1  0  0  0  0
 16 25  1  0  0  0  0
 17 19  1  0  0  0  0
 17 22  1  0  0  0  0
 17 23  2  0  0  0  0
 18 21  2  0  0  0  0
 18 23  1  0  0  0  0
 18 26  1  0  0  0  0
 22 27  1  0  0  0  0
 22 28  1  0  0  0  0
 24 25  2  0  0  0  0
 28 32  1  0  0  0  0
 31 34  1  0  0  0  0
M  END
> <PUBCHEM_COMPOUND_ID_TYPE>
0

> <PUBCHEM_TOTAL_CHARGE>
0

> <PUBCHEM_SUBSTANCE_ID>
310931155

> <PUBCHEM_SUBSTANCE_VERSION>
1

> <PUBCHEM_EXT_DATASOURCE_NAME>
4488

> <PUBCHEM_EXT_DATASOURCE_REGID>
SCHEMBL16108463

> <PUBCHEM_SUBSTANCE_COMMENT>
InChI=1S/C24H23F3N2O5/c1-12-28-29-22(33-12)17(10-19(30)31)14-7-15(9-16(8-14)24(25,26)27)20-18(32-4)6-5-13-11-23(2,3)34-21(13)20/h5-9,17H,10-11H2,1-4H3,(H,30,31)
InChIKey=SPZDFUHQIYXMOE-UHFFFAOYSA-N

> <PUBCHEM_SUBSTANCE_SYNONYM>
SCHEMBL16108463

> <PUBCHEM_XREF_EXT_ID>
SCHEMBL16108463

> <PUBCHEM_EXT_DATASOURCE_URL>
https://www.surechembl.org/

> <PUBCHEM_EXT_SUBSTANCE_URL>
https://www.surechembl.org/chemical/SCHEMBL16108463

> <PUBCHEM_CID_ASSOCIATIONS>
86282076  1

> <PUBCHEM_COORDINATE_TYPE>
1
3

$$$$
