310941069
  -OEChem-07211613022D

 42 45  0     1  0  0  0  0  0999 V2000
    5.0780    0.6859    0.0000 O   0  0  0  0  0  0  0  0  0  0  0  0
    3.9419   -1.2816    0.0000 O   0  0  0  0  0  0  0  0  0  0  0  0
    1.7943    0.7967    0.0000 O   0  0  0  0  0  0  0  0  0  0  0  0
    1.0738   -2.9443    0.0000 O   0  0  0  0  0  0  0  0  0  0  0  0
   -0.3672   -1.2816    0.0000 O   0  0  0  0  0  0  0  0  0  0  0  0
    3.9419   -2.9443    0.0000 O   0  0  0  0  0  0  0  0  0  0  0  0
   -2.5287    0.7967    0.0000 O   0  0  0  0  0  0  0  0  0  0  0  0
   -5.3967    0.7967    0.0000 O   0  0  0  0  0  0  0  0  0  0  0  0
    2.5009   -0.4364    0.0000 N   0  0  0  0  0  0  0  0  0  0  0  0
    0.3395   -0.0208    0.0000 N   0  0  0  0  0  0  0  0  0  0  0  0
   -1.8081   -0.4364    0.0000 N   0  0  0  0  0  0  0  0  0  0  0  0
   -3.9696   -0.0208    0.0000 N   0  0  0  0  0  0  0  0  0  0  0  0
    4.6624   -0.0208    0.0000 C   0  0  3  0  0  0  0  0  0  0  0  0
    3.9419   -0.4226    0.0000 C   0  0  0  0  0  0  0  0  0  0  0  0
    4.2744    0.6997    0.0000 C   0  0  0  0  0  0  0  0  0  0  0  0
    3.2076   -0.0208    0.0000 C   0  0  3  0  0  0  0  0  0  0  0  0
    5.3967   -0.4364    0.0000 C   0  0  0  0  0  0  0  0  0  0  0  0
    3.2214    1.3093    0.0000 C   0  0  0  0  0  0  0  0  0  0  0  0
    1.7666   -0.0485    0.0000 C   0  0  0  0  0  0  0  0  0  0  0  0
    1.0738   -0.4364    0.0000 C   0  0  3  0  0  0  0  0  0  0  0  0
    2.4870    1.7250    0.0000 C   0  0  0  0  0  0  0  0  0  0  0  0
    1.0600   -1.2678    0.0000 C   0  0  0  0  0  0  0  0  0  0  0  0
    1.7804   -1.6835    0.0000 C   0  0  0  0  0  0  0  0  0  0  0  0
    1.7666   -2.5148    0.0000 C   0  0  0  0  0  0  0  0  0  0  0  0
   -0.3810   -0.4226    0.0000 C   0  0  0  0  0  0  0  0  0  0  0  0
    1.7804    1.3093    0.0000 C   0  0  0  0  0  0  0  0  0  0  0  0
    2.5009    2.5425    0.0000 C   0  0  0  0  0  0  0  0  0  0  0  0
    2.5009   -1.2816    0.0000 C   0  0  0  0  0  0  0  0  0  0  0  0
   -1.0877   -0.0208    0.0000 C   0  0  3  0  0  0  0  0  0  0  0  0
    2.5009   -2.9166    0.0000 C   0  0  0  0  0  0  0  0  0  0  0  0
    3.2076   -2.5148    0.0000 C   0  0  0  0  0  0  0  0  0  0  0  0
    3.2076   -1.6835    0.0000 C   0  0  0  0  0  0  0  0  0  0  0  0
    1.0738    1.7250    0.0000 C   0  0  0  0  0  0  0  0  0  0  0  0
    1.7804    2.9443    0.0000 C   0  0  0  0  0  0  0  0  0  0  0  0
   -2.5287   -0.0485    0.0000 C   0  0  0  0  0  0  0  0  0  0  0  0
    1.0738    2.5425    0.0000 C   0  0  0  0  0  0  0  0  0  0  0  0
   -1.0877    0.8244    0.0000 C   0  0  0  0  0  0  0  0  0  0  0  0
   -3.2353   -0.4364    0.0000 C   0  0  0  0  0  0  0  0  0  0  0  0
   -3.9696    0.7967    0.0000 C   0  0  0  0  0  0  0  0  0  0  0  0
   -4.6763   -0.4364    0.0000 C   0  0  0  0  0  0  0  0  0  0  0  0
   -4.7040    1.2124    0.0000 C   0  0  0  0  0  0  0  0  0  0  0  0
   -5.3967   -0.0347    0.0000 C   0  0  0  0  0  0  0  0  0  0  0  0
  1 13  1  0  0  0  0
  1 15  1  0  0  0  0
  2 14  2  0  0  0  0
  3 19  2  0  0  0  0
  4 24  1  0  0  0  0
  5 25  2  0  0  0  0
  6 31  1  0  0  0  0
  7 35  2  0  0  0  0
  8 41  1  0  0  0  0
  8 42  1  0  0  0  0
  9 16  1  0  0  0  0
  9 19  1  0  0  0  0
 10 20  1  0  0  0  0
 10 25  1  0  0  0  0
 11 29  1  0  0  0  0
 11 35  1  0  0  0  0
 12 38  1  0  0  0  0
 12 39  1  0  0  0  0
 12 40  1  0  0  0  0
 13 14  1  0  0  0  0
 13 15  1  0  0  0  0
 13 17  1  0  0  0  0
 14 16  1  0  0  0  0
 16 18  1  0  0  0  0
 18 21  1  0  0  0  0
 19 20  1  0  0  0  0
 20 22  1  0  0  0  0
 21 26  2  0  0  0  0
 21 27  1  0  0  0  0
 22 23  1  0  0  0  0
 23 24  1  0  0  0  0
 23 28  2  0  0  0  0
 24 30  2  0  0  0  0
 25 29  1  0  0  0  0
 26 33  1  0  0  0  0
 27 34  2  0  0  0  0
 28 32  1  0  0  0  0
 29 37  1  0  0  0  0
 30 31  1  0  0  0  0
 31 32  2  0  0  0  0
 33 36  2  0  0  0  0
 34 36  1  0  0  0  0
 35 38  1  0  0  0  0
 39 41  1  0  0  0  0
 40 42  1  0  0  0  0
M  END
> <PUBCHEM_COMPOUND_ID_TYPE>
0

> <PUBCHEM_TOTAL_CHARGE>
0

> <PUBCHEM_SUBSTANCE_ID>
310941069

> <PUBCHEM_SUBSTANCE_VERSION>
1

> <PUBCHEM_EXT_DATASOURCE_NAME>
4488

> <PUBCHEM_EXT_DATASOURCE_REGID>
SCHEMBL16119029

> <PUBCHEM_SUBSTANCE_COMMENT>
InChI=1S/C30H38N4O8/c1-19(31-26(37)17-34-10-12-41-13-11-34)28(39)33-24(15-21-8-9-22(35)16-25(21)36)29(40)32-23(27(38)30(2)18-42-30)14-20-6-4-3-5-7-20/h3-9,16,19,23-24,35-36H,10-15,17-18H2,1-2H3,(H,31,37)(H,32,40)(H,33,39)
InChIKey=RREDUVXUSBKEBT-UHFFFAOYSA-N

> <PUBCHEM_SUBSTANCE_SYNONYM>
SCHEMBL16119029

> <PUBCHEM_XREF_EXT_ID>
SCHEMBL16119029

> <PUBCHEM_EXT_DATASOURCE_URL>
https://www.surechembl.org/

> <PUBCHEM_EXT_SUBSTANCE_URL>
https://www.surechembl.org/chemical/SCHEMBL16119029

> <PUBCHEM_CID_ASSOCIATIONS>
117607960  1

> <PUBCHEM_COORDINATE_TYPE>
1
3

$$$$
