310933383
  -OEChem-07211613022D

 37 41  0     1  0  0  0  0  0999 V2000
    1.6042   -0.7334    0.0000 Cl  0  0  0  0  0  0  0  0  0  0  0  0
    2.4750   -2.1542    0.0000 S   0  0  0  0  0  0  0  0  0  0  0  0
    4.9042   -4.9501    0.0000 S   0  0  0  0  0  0  0  0  0  0  0  0
    2.4750   -3.0250    0.0000 O   0  0  0  0  0  0  0  0  0  0  0  0
    2.4750   -1.3291    0.0000 O   0  0  0  0  0  0  0  0  0  0  0  0
    5.0417   -7.8376    0.0000 O   0  0  0  0  0  0  0  0  0  0  0  0
    4.1709   -5.3626    0.0000 O   0  0  0  0  0  0  0  0  0  0  0  0
    5.6376   -4.5834    0.0000 O   0  0  0  0  0  0  0  0  0  0  0  0
    3.2542   -2.1542    0.0000 N   0  0  3  0  0  0  0  0  0  0  0  0
    4.4917   -4.2625    0.0000 N   0  0  0  0  0  0  0  0  0  0  0  0
    6.3709   -7.8376    0.0000 N   0  0  0  0  0  0  0  0  0  0  0  0
    3.6667   -2.8417    0.0000 C   0  0  0  0  0  0  0  0  0  0  0  0
    1.6500   -2.1542    0.0000 C   0  0  0  0  0  0  0  0  0  0  0  0
    3.6667   -1.4209    0.0000 C   0  0  0  0  0  0  0  0  0  0  0  0
    5.3167   -5.6834    0.0000 C   0  0  0  0  0  0  0  0  0  0  0  0
    3.2542   -3.5750    0.0000 C   0  0  0  0  0  0  0  0  0  0  0  0
    4.4917   -2.8417    0.0000 C   0  0  0  0  0  0  0  0  0  0  0  0
    5.2709   -7.1042    0.0000 C   0  0  0  0  0  0  0  0  0  0  0  0
    3.6667   -4.2625    0.0000 C   0  0  0  0  0  0  0  0  0  0  0  0
    4.9042   -3.5750    0.0000 C   0  0  0  0  0  0  0  0  0  0  0  0
    1.2375   -1.4209    0.0000 C   0  0  0  0  0  0  0  0  0  0  0  0
    4.9042   -6.3709    0.0000 C   0  0  0  0  0  0  0  0  0  0  0  0
    6.1417   -7.1042    0.0000 C   0  0  0  0  0  0  0  0  0  0  0  0
    6.1417   -5.6834    0.0000 C   0  0  0  0  0  0  0  0  0  0  0  0
    1.2375   -2.8417    0.0000 C   0  0  0  0  0  0  0  0  0  0  0  0
    4.4917   -1.4209    0.0000 C   0  0  0  0  0  0  0  0  0  0  0  0
    3.2542   -0.7334    0.0000 C   0  0  0  0  0  0  0  0  0  0  0  0
    6.5542   -6.3709    0.0000 C   0  0  0  0  0  0  0  0  0  0  0  0
    5.7292   -8.3417    0.0000 C   0  0  0  0  0  0  0  0  0  0  0  0
    0.4125   -1.4209    0.0000 C   0  0  0  0  0  0  0  0  0  0  0  0
    4.9042   -0.7334    0.0000 C   0  0  0  0  0  0  0  0  0  0  0  0
    0.4125   -2.8417    0.0000 C   0  0  0  0  0  0  0  0  0  0  0  0
    3.6667    0.0000    0.0000 C   0  0  0  0  0  0  0  0  0  0  0  0
    0.0000   -2.1542    0.0000 C   0  0  0  0  0  0  0  0  0  0  0  0
    4.4917    0.0000    0.0000 C   0  0  0  0  0  0  0  0  0  0  0  0
    5.7292   -9.1667    0.0000 C   0  0  0  0  0  0  0  0  0  0  0  0
    5.7292   -0.6875    0.0000 C   0  0  0  0  0  0  0  0  0  0  0  0
  1 21  1  0  0  0  0
  2  4  2  0  0  0  0
  2  5  2  0  0  0  0
  2  9  1  0  0  0  0
  2 13  1  0  0  0  0
  3  7  2  0  0  0  0
  3  8  2  0  0  0  0
  3 10  1  0  0  0  0
  3 15  1  0  0  0  0
  6 18  1  0  0  0  0
  6 29  1  0  0  0  0
  9 12  1  0  0  0  0
  9 14  1  0  0  0  0
 10 19  1  0  0  0  0
 10 20  1  0  0  0  0
 11 23  1  0  0  0  0
 11 29  2  0  0  0  0
 12 16  1  0  0  0  0
 12 17  1  0  0  0  0
 13 21  1  0  0  0  0
 13 25  2  0  0  0  0
 14 26  1  0  0  0  0
 14 27  2  0  0  0  0
 15 22  2  0  0  0  0
 15 24  1  0  0  0  0
 16 19  1  0  0  0  0
 17 20  1  0  0  0  0
 18 22  1  0  0  0  0
 18 23  2  0  0  0  0
 21 30  2  0  0  0  0
 23 28  1  0  0  0  0
 24 28  2  0  0  0  0
 25 32  1  0  0  0  0
 26 31  2  0  0  0  0
 27 33  1  0  0  0  0
 29 36  1  0  0  0  0
 30 34  1  0  0  0  0
 31 35  1  0  0  0  0
 31 37  1  0  0  0  0
 32 34  2  0  0  0  0
 33 35  2  0  0  0  0
M  END
> <PUBCHEM_COMPOUND_ID_TYPE>
0

> <PUBCHEM_TOTAL_CHARGE>
0

> <PUBCHEM_SUBSTANCE_ID>
310933383

> <PUBCHEM_SUBSTANCE_VERSION>
1

> <PUBCHEM_EXT_DATASOURCE_NAME>
4488

> <PUBCHEM_EXT_DATASOURCE_REGID>
SCHEMBL16110799

> <PUBCHEM_SUBSTANCE_COMMENT>
InChI=1S/C26H26ClN3O5S2/c1-18-6-5-7-21(16-18)30(37(33,34)26-9-4-3-8-23(26)27)20-12-14-29(15-13-20)36(31,32)22-10-11-24-25(17-22)35-19(2)28-24/h3-11,16-17,20H,12-15H2,1-2H3
InChIKey=GRMBEVJEQUTBRA-UHFFFAOYSA-N

> <PUBCHEM_SUBSTANCE_SYNONYM>
SCHEMBL16110799

> <PUBCHEM_XREF_EXT_ID>
SCHEMBL16110799

> <PUBCHEM_EXT_DATASOURCE_URL>
https://www.surechembl.org/

> <PUBCHEM_EXT_SUBSTANCE_URL>
https://www.surechembl.org/chemical/SCHEMBL16110799

> <PUBCHEM_CID_ASSOCIATIONS>
117601794  1

> <PUBCHEM_COORDINATE_TYPE>
1
3

$$$$
