310946222
  -OEChem-07211613022D

 24 26  0     1  0  0  0  0  0999 V2000
   -0.5135   -6.3593    0.0000 O   0  0  0  0  0  0  0  0  0  0  0  0
    0.7195   -5.5585    0.0000 O   0  0  0  0  0  0  0  0  0  0  0  0
    0.0295   -7.5787    0.0000 C   0  0  0  0  0  0  0  0  0  0  0  0
   -0.6850   -7.1662    0.0000 C   0  0  0  0  0  0  0  0  0  0  0  0
    0.6426   -7.0267    0.0000 C   0  0  3  0  0  0  0  0  0  0  0  0
    0.3070   -6.2730    0.0000 C   0  0  0  0  0  0  0  0  0  0  0  0
   -1.3995   -7.5787    0.0000 C   0  0  0  0  0  0  0  0  0  0  0  0
    1.4395   -7.2402    0.0000 C   0  0  0  0  0  0  0  0  0  0  0  0
    0.0295   -8.4037    0.0000 C   0  0  0  0  0  0  0  0  0  0  0  0
   -0.6850   -8.8162    0.0000 C   0  0  0  0  0  0  0  0  0  0  0  0
   -1.3995   -8.4037    0.0000 C   0  0  0  0  0  0  0  0  0  0  0  0
   -2.1139   -7.1662    0.0000 C   0  0  0  0  0  0  0  0  0  0  0  0
    1.6530   -8.0371    0.0000 C   0  0  0  0  0  0  0  0  0  0  0  0
    2.0228   -6.6569    0.0000 C   0  0  0  0  0  0  0  0  0  0  0  0
   -0.6850   -9.6412    0.0000 C   0  0  0  0  0  0  0  0  0  0  0  0
   -2.1139   -6.3412    0.0000 C   0  0  0  0  0  0  0  0  0  0  0  0
    2.4495   -8.2502    0.0000 C   0  0  0  0  0  0  0  0  0  0  0  0
    2.8197   -6.8704    0.0000 C   0  0  0  0  0  0  0  0  0  0  0  0
   -1.3995  -10.0537    0.0000 C   0  0  0  0  0  0  0  0  0  0  0  0
    3.0333   -7.6673    0.0000 C   0  0  0  0  0  0  0  0  0  0  0  0
   -2.8284   -5.9287    0.0000 C   0  0  0  0  0  0  0  0  0  0  0  0
   -1.3995   -5.9287    0.0000 C   0  0  0  0  0  0  0  0  0  0  0  0
   -1.3995  -10.8787    0.0000 C   0  0  0  0  0  0  0  0  0  0  0  0
   -2.1139   -9.6412    0.0000 C   0  0  0  0  0  0  0  0  0  0  0  0
  1  4  1  0  0  0  0
  1  6  1  0  0  0  0
  2  6  2  0  0  0  0
  3  4  2  0  0  0  0
  3  5  1  0  0  0  0
  3  9  1  0  0  0  0
  4  7  1  0  0  0  0
  5  6  1  0  0  0  0
  5  8  1  0  0  0  0
  7 11  2  0  0  0  0
  7 12  1  0  0  0  0
  8 13  2  0  0  0  0
  8 14  1  0  0  0  0
  9 10  2  0  0  0  0
 10 11  1  0  0  0  0
 10 15  1  0  0  0  0
 12 16  1  0  0  0  0
 13 17  1  0  0  0  0
 14 18  2  0  0  0  0
 15 19  1  0  0  0  0
 16 21  1  0  0  0  0
 16 22  1  0  0  0  0
 17 20  2  0  0  0  0
 18 20  1  0  0  0  0
 19 23  1  0  0  0  0
 19 24  1  0  0  0  0
M  END
> <PUBCHEM_COMPOUND_ID_TYPE>
0

> <PUBCHEM_TOTAL_CHARGE>
0

> <PUBCHEM_SUBSTANCE_ID>
310946222

> <PUBCHEM_SUBSTANCE_VERSION>
1

> <PUBCHEM_EXT_DATASOURCE_NAME>
4488

> <PUBCHEM_EXT_DATASOURCE_REGID>
SCHEMBL16124338

> <PUBCHEM_SUBSTANCE_COMMENT>
InChI=1S/C22H26O2/c1-14(2)10-16-12-18(11-15(3)4)21-19(13-16)20(22(23)24-21)17-8-6-5-7-9-17/h5-9,12-15,20H,10-11H2,1-4H3
InChIKey=QCFHXXOSUCSHAV-UHFFFAOYSA-N

> <PUBCHEM_SUBSTANCE_SYNONYM>
SCHEMBL16124338

> <PUBCHEM_XREF_EXT_ID>
SCHEMBL16124338

> <PUBCHEM_EXT_DATASOURCE_URL>
https://www.surechembl.org/

> <PUBCHEM_EXT_SUBSTANCE_URL>
https://www.surechembl.org/chemical/SCHEMBL16124338

> <PUBCHEM_CID_ASSOCIATIONS>
117612170  1

> <PUBCHEM_COORDINATE_TYPE>
1
3

$$$$
