310943885
  -OEChem-07211613022D

 26 27  0     1  0  0  0  0  0999 V2000
   -2.6398    1.5811    0.0000 O   0  0  0  0  0  0  0  0  0  0  0  0
   -0.8662    1.8973    0.0000 O   0  0  0  0  0  0  0  0  0  0  0  0
   -0.2475   -2.1036    0.0000 N   0  0  0  0  0  0  0  0  0  0  0  0
    0.4400   -2.5573    0.0000 N   0  0  0  0  0  0  0  0  0  0  0  0
    2.0349   -0.5912    0.0000 N   0  0  3  0  0  0  0  0  0  0  0  0
    3.6710   -0.5912    0.0000 N   0  0  0  0  0  0  0  0  0  0  0  0
   -1.5811    0.6600    0.0000 C   0  0  0  0  0  0  0  0  0  0  0  0
   -0.0275   -1.2924    0.0000 C   0  0  0  0  0  0  0  0  0  0  0  0
   -0.5499   -0.6324    0.0000 C   0  0  0  0  0  0  0  0  0  0  0  0
    0.7837   -1.2512    0.0000 C   0  0  0  0  0  0  0  0  0  0  0  0
   -1.8424   -0.1237    0.0000 C   0  0  0  0  0  0  0  0  0  0  0  0
   -0.7562    0.7699    0.0000 C   0  0  0  0  0  0  0  0  0  0  0  0
   -1.3336   -0.7699    0.0000 C   0  0  0  0  0  0  0  0  0  0  0  0
   -0.2612    0.1237    0.0000 C   0  0  0  0  0  0  0  0  0  0  0  0
    1.0724   -2.0349    0.0000 C   0  0  0  0  0  0  0  0  0  0  0  0
   -2.3648    0.8112    0.0000 C   0  0  0  0  0  0  0  0  0  0  0  0
   -1.5674    1.4849    0.0000 C   0  0  0  0  0  0  0  0  0  0  0  0
    1.2237   -0.5499    0.0000 C   0  0  0  0  0  0  0  0  0  0  0  0
    2.4335   -1.3062    0.0000 C   0  0  0  0  0  0  0  0  0  0  0  0
    2.4335    0.1375    0.0000 C   0  0  0  0  0  0  0  0  0  0  0  0
   -3.4372    1.7462    0.0000 C   0  0  0  0  0  0  0  0  0  0  0  0
   -0.1375    1.4849    0.0000 C   0  0  0  0  0  0  0  0  0  0  0  0
    3.2585   -1.3062    0.0000 C   0  0  0  0  0  0  0  0  0  0  0  0
   -3.6710    2.5573    0.0000 C   0  0  0  0  0  0  0  0  0  0  0  0
    0.6462    1.6911    0.0000 C   0  0  0  0  0  0  0  0  0  0  0  0
    3.2447    0.1375    0.0000 C   0  0  0  0  0  0  0  0  0  0  0  0
  1 16  1  0  0  0  0
  1 21  1  0  0  0  0
  2 17  1  0  0  0  0
  2 22  1  0  0  0  0
  3  4  1  0  0  0  0
  3  8  2  0  0  0  0
  4 15  1  0  0  0  0
  5 18  1  0  0  0  0
  5 19  1  0  0  0  0
  5 20  1  0  0  0  0
  6 23  1  0  0  0  0
  6 26  1  0  0  0  0
  7 11  1  0  0  0  0
  7 12  1  0  0  0  0
  7 16  1  0  0  0  0
  7 17  1  0  0  0  0
  8  9  1  0  0  0  0
  8 10  1  0  0  0  0
  9 13  1  0  0  0  0
  9 14  1  0  0  0  0
 10 15  2  0  0  0  0
 10 18  1  0  0  0  0
 11 13  1  0  0  0  0
 12 14  1  0  0  0  0
 19 23  1  0  0  0  0
 21 24  1  0  0  0  0
 22 25  1  0  0  0  0
M  END
> <PUBCHEM_COMPOUND_ID_TYPE>
0

> <PUBCHEM_TOTAL_CHARGE>
0

> <PUBCHEM_SUBSTANCE_ID>
310943885

> <PUBCHEM_SUBSTANCE_VERSION>
1

> <PUBCHEM_EXT_DATASOURCE_NAME>
4488

> <PUBCHEM_EXT_DATASOURCE_REGID>
SCHEMBL16121956

> <PUBCHEM_SUBSTANCE_COMMENT>
InChI=1S/C20H38N4O2/c1-5-25-15-20(16-26-6-2)9-7-17(8-10-20)19-18(13-22-23-19)14-24(4)12-11-21-3/h13,17,21H,5-12,14-16H2,1-4H3,(H,22,23)
InChIKey=SPEGERVLTUWZPA-UHFFFAOYSA-N

> <PUBCHEM_SUBSTANCE_SYNONYM>
SCHEMBL16121956

> <PUBCHEM_XREF_EXT_ID>
SCHEMBL16121956

> <PUBCHEM_EXT_DATASOURCE_URL>
https://www.surechembl.org/

> <PUBCHEM_EXT_SUBSTANCE_URL>
https://www.surechembl.org/chemical/SCHEMBL16121956

> <PUBCHEM_CID_ASSOCIATIONS>
90462880  1

> <PUBCHEM_COORDINATE_TYPE>
1
3

$$$$
