310940190
  -OEChem-07211613022D

 23 26  0     1  0  0  0  0  0999 V2000
    1.0223   -1.7756    0.0000 O   0  0  0  0  0  0  0  0  0  0  0  0
   -2.6903    0.2690    0.0000 O   0  0  0  0  0  0  0  0  0  0  0  0
   -0.7174    0.3767    0.0000 N   0  0  0  0  0  0  0  0  0  0  0  0
    0.0718    0.6278    0.0000 N   0  0  0  0  0  0  0  0  0  0  0  0
    1.3810   -0.0538    0.0000 N   0  0  0  0  0  0  0  0  0  0  0  0
   -0.3767   -2.0804    0.0000 N   0  0  0  0  0  0  0  0  0  0  0  0
    0.0718   -0.7353    0.0000 C   0  0  0  0  0  0  0  0  0  0  0  0
   -0.7174   -0.4483    0.0000 C   0  0  0  0  0  0  0  0  0  0  0  0
    0.5560   -0.0358    0.0000 C   0  0  0  0  0  0  0  0  0  0  0  0
    0.2332   -1.5065    0.0000 C   0  0  0  0  0  0  0  0  0  0  0  0
   -1.3989    0.8429    0.0000 C   0  0  3  0  0  0  0  0  0  0  0  0
   -1.2914   -0.9864    0.0000 C   0  0  0  0  0  0  0  0  0  0  0  0
   -1.1478   -1.8114    0.0000 C   0  0  0  0  0  0  0  0  0  0  0  0
    1.7935    0.6994    0.0000 C   0  0  0  0  0  0  0  0  0  0  0  0
   -1.8653    0.1793    0.0000 C   0  0  0  0  0  0  0  0  0  0  0  0
   -1.7218    1.6142    0.0000 C   0  0  0  0  0  0  0  0  0  0  0  0
   -2.5289    1.7039    0.0000 C   0  0  0  0  0  0  0  0  0  0  0  0
    2.6185    0.6815    0.0000 C   0  0  0  0  0  0  0  0  0  0  0  0
    1.3989    1.3989    0.0000 C   0  0  0  0  0  0  0  0  0  0  0  0
   -3.0131    1.0403    0.0000 C   0  0  0  0  0  0  0  0  0  0  0  0
    3.0131    1.4168    0.0000 C   0  0  0  0  0  0  0  0  0  0  0  0
    1.7935    2.0804    0.0000 C   0  0  0  0  0  0  0  0  0  0  0  0
    2.6185    2.0804    0.0000 C   0  0  0  0  0  0  0  0  0  0  0  0
  1 10  2  0  0  0  0
  2 15  1  0  0  0  0
  2 20  1  0  0  0  0
  3  4  1  0  0  0  0
  3  8  1  0  0  0  0
  3 11  1  0  0  0  0
  4  9  2  0  0  0  0
  5  9  1  0  0  0  0
  5 14  1  0  0  0  0
  6 10  1  0  0  0  0
  6 13  1  0  0  0  0
  7  8  2  0  0  0  0
  7  9  1  0  0  0  0
  7 10  1  0  0  0  0
  8 12  1  0  0  0  0
 11 15  1  0  0  0  0
 11 16  1  0  0  0  0
 12 13  2  0  0  0  0
 14 18  2  0  0  0  0
 14 19  1  0  0  0  0
 16 17  1  0  0  0  0
 17 20  1  0  0  0  0
 18 21  1  0  0  0  0
 19 22  2  0  0  0  0
 21 23  2  0  0  0  0
 22 23  1  0  0  0  0
M  END
> <PUBCHEM_COMPOUND_ID_TYPE>
0

> <PUBCHEM_TOTAL_CHARGE>
0

> <PUBCHEM_SUBSTANCE_ID>
310940190

> <PUBCHEM_SUBSTANCE_VERSION>
1

> <PUBCHEM_EXT_DATASOURCE_NAME>
4488

> <PUBCHEM_EXT_DATASOURCE_REGID>
SCHEMBL16118124

> <PUBCHEM_SUBSTANCE_COMMENT>
InChI=1S/C17H18N4O2/c22-17-15-14(8-9-18-17)21(13-7-4-10-23-11-13)20-16(15)19-12-5-2-1-3-6-12/h1-3,5-6,8-9,13H,4,7,10-11H2,(H,18,22)(H,19,20)
InChIKey=DVYXZOAGHPOLHW-UHFFFAOYSA-N

> <PUBCHEM_SUBSTANCE_SYNONYM>
SCHEMBL16118124

> <PUBCHEM_XREF_EXT_ID>
SCHEMBL16118124

> <PUBCHEM_EXT_DATASOURCE_URL>
https://www.surechembl.org/

> <PUBCHEM_EXT_SUBSTANCE_URL>
https://www.surechembl.org/chemical/SCHEMBL16118124

> <PUBCHEM_CID_ASSOCIATIONS>
117607295  1

> <PUBCHEM_COORDINATE_TYPE>
1
3

$$$$
