310939706
  -OEChem-07211613022D

 30 33  0     1  0  0  0  0  0999 V2000
   -1.5304   15.3302    0.0000 O   0  0  0  0  0  0  0  0  0  0  0  0
    2.0509   11.6022    0.0000 O   0  0  0  0  0  0  0  0  0  0  0  0
   -2.9594   14.5052    0.0000 O   0  0  0  0  0  0  0  0  0  0  0  0
    1.3275   14.5052    0.0000 N   0  0  0  0  0  0  0  0  0  0  0  0
    2.7564   14.5052    0.0000 N   0  0  0  0  0  0  0  0  0  0  0  0
    2.0419   13.2677    0.0000 N   0  0  0  0  0  0  0  0  0  0  0  0
    3.4709   15.7427    0.0000 N   0  0  0  0  0  0  0  0  0  0  0  0
   -4.3883   15.3302    0.0000 N   0  0  0  0  0  0  0  0  0  0  0  0
    1.3275   15.3302    0.0000 C   0  0  0  0  0  0  0  0  0  0  0  0
    2.0419   14.0927    0.0000 C   0  0  0  0  0  0  0  0  0  0  0  0
    2.7564   15.3302    0.0000 C   0  0  0  0  0  0  0  0  0  0  0  0
    0.6130   15.7427    0.0000 C   0  0  0  0  0  0  0  0  0  0  0  0
    2.0419   15.7427    0.0000 C   0  0  0  0  0  0  0  0  0  0  0  0
   -0.1015   15.3302    0.0000 C   0  0  0  0  0  0  0  0  0  0  0  0
    0.6130   16.5677    0.0000 C   0  0  0  0  0  0  0  0  0  0  0  0
   -0.8159   15.7427    0.0000 C   0  0  0  0  0  0  0  0  0  0  0  0
    2.7564   12.8552    0.0000 C   0  0  0  0  0  0  0  0  0  0  0  0
    1.3275   12.8552    0.0000 C   0  0  0  0  0  0  0  0  0  0  0  0
    4.1853   15.3302    0.0000 C   0  0  0  0  0  0  0  0  0  0  0  0
    3.4709   16.5677    0.0000 C   0  0  0  0  0  0  0  0  0  0  0  0
   -0.1015   16.9802    0.0000 C   0  0  0  0  0  0  0  0  0  0  0  0
   -0.8159   16.5677    0.0000 C   0  0  0  0  0  0  0  0  0  0  0  0
    2.7564   12.0302    0.0000 C   0  0  0  0  0  0  0  0  0  0  0  0
    1.3275   12.0224    0.0000 C   0  0  0  0  0  0  0  0  0  0  0  0
    4.8998   15.7427    0.0000 C   0  0  0  0  0  0  0  0  0  0  0  0
    4.1853   16.9802    0.0000 C   0  0  0  0  0  0  0  0  0  0  0  0
    4.8998   16.5677    0.0000 C   0  0  0  0  0  0  0  0  0  0  0  0
   -2.2449   15.7427    0.0000 C   0  0  0  0  0  0  0  0  0  0  0  0
   -2.9594   15.3302    0.0000 C   0  0  3  0  0  0  0  0  0  0  0  0
   -3.6738   15.7427    0.0000 C   0  0  0  0  0  0  0  0  0  0  0  0
  1 16  1  0  0  0  0
  1 28  1  0  0  0  0
  2 23  1  0  0  0  0
  2 24  1  0  0  0  0
  3 29  1  0  0  0  0
  4  9  1  0  0  0  0
  4 10  2  0  0  0  0
  5 10  1  0  0  0  0
  5 11  2  0  0  0  0
  6 10  1  0  0  0  0
  6 17  1  0  0  0  0
  6 18  1  0  0  0  0
  7 11  1  0  0  0  0
  7 19  1  0  0  0  0
  7 20  1  0  0  0  0
  8 30  1  0  0  0  0
  9 12  1  0  0  0  0
  9 13  2  0  0  0  0
 11 13  1  0  0  0  0
 12 14  2  0  0  0  0
 12 15  1  0  0  0  0
 14 16  1  0  0  0  0
 15 21  2  0  0  0  0
 16 22  2  0  0  0  0
 17 23  1  0  0  0  0
 18 24  1  0  0  0  0
 19 25  1  0  0  0  0
 20 26  1  0  0  0  0
 21 22  1  0  0  0  0
 25 27  1  0  0  0  0
 26 27  1  0  0  0  0
 28 29  1  0  0  0  0
 29 30  1  0  0  0  0
M  END
> <PUBCHEM_COMPOUND_ID_TYPE>
0

> <PUBCHEM_TOTAL_CHARGE>
0

> <PUBCHEM_SUBSTANCE_ID>
310939706

> <PUBCHEM_SUBSTANCE_VERSION>
1

> <PUBCHEM_EXT_DATASOURCE_NAME>
4488

> <PUBCHEM_EXT_DATASOURCE_REGID>
SCHEMBL16117636

> <PUBCHEM_SUBSTANCE_COMMENT>
InChI=1S/C22H31N5O3/c23-15-18(28)16-30-19-6-4-5-17(13-19)20-14-21(26-7-2-1-3-8-26)25-22(24-20)27-9-11-29-12-10-27/h4-6,13-14,18,28H,1-3,7-12,15-16,23H2
InChIKey=AEQVGBIOXJNWGC-UHFFFAOYSA-N

> <PUBCHEM_SUBSTANCE_SYNONYM>
SCHEMBL16117636

> <PUBCHEM_XREF_EXT_ID>
SCHEMBL16117636

> <PUBCHEM_EXT_DATASOURCE_URL>
https://www.surechembl.org/

> <PUBCHEM_EXT_SUBSTANCE_URL>
https://www.surechembl.org/chemical/SCHEMBL16117636

> <PUBCHEM_CID_ASSOCIATIONS>
117606936  1

> <PUBCHEM_COORDINATE_TYPE>
1
3

$$$$
