310947666
  -OEChem-07211613022D

 30 32  0     1  0  0  0  0  0999 V2000
   -0.3872   -2.0191    0.0000 F   0  0  0  0  0  0  0  0  0  0  0  0
    0.6232   -1.0087    0.0000 F   0  0  0  0  0  0  0  0  0  0  0  0
    0.4097   -1.8056    0.0000 F   0  0  0  0  0  0  0  0  0  0  0  0
   -1.7674   -1.6492    0.0000 O   0  0  0  0  0  0  0  0  0  0  0  0
   -4.1581   -2.2898    0.0000 O   0  0  0  0  0  0  0  0  0  0  0  0
   -1.3983    2.2057    0.0000 N   0  0  0  0  0  0  0  0  0  0  0  0
   -0.9133    2.8732    0.0000 N   0  0  0  0  0  0  0  0  0  0  0  0
    1.3002    1.7932    0.0000 N   0  0  3  0  0  0  0  0  0  0  0  0
    3.4436    1.3807    0.0000 N   0  0  0  0  0  0  0  0  0  0  0  0
   -0.7570   -0.6388    0.0000 C   0  0  0  0  0  0  0  0  0  0  0  0
   -1.5539   -0.8524    0.0000 C   0  0  0  0  0  0  0  0  0  0  0  0
   -1.1269    0.7414    0.0000 C   0  0  0  0  0  0  0  0  0  0  0  0
   -0.9133    1.5383    0.0000 C   0  0  0  0  0  0  0  0  0  0  0  0
   -0.1737   -1.2222    0.0000 C   0  0  0  0  0  0  0  0  0  0  0  0
   -2.1373   -0.2690    0.0000 C   0  0  0  0  0  0  0  0  0  0  0  0
   -0.5435    0.1581    0.0000 C   0  0  0  0  0  0  0  0  0  0  0  0
   -1.9238    0.5279    0.0000 C   0  0  0  0  0  0  0  0  0  0  0  0
   -0.1287    1.7932    0.0000 C   0  0  0  0  0  0  0  0  0  0  0  0
   -0.1287    2.6182    0.0000 C   0  0  0  0  0  0  0  0  0  0  0  0
   -2.5643   -1.8628    0.0000 C   0  0  0  0  0  0  0  0  0  0  0  0
    0.5858    1.3807    0.0000 C   0  0  0  0  0  0  0  0  0  0  0  0
   -2.9342   -0.4825    0.0000 C   0  0  0  0  0  0  0  0  0  0  0  0
   -3.1477   -1.2794    0.0000 C   0  0  0  0  0  0  0  0  0  0  0  0
   -2.7779   -2.6597    0.0000 C   0  0  0  0  0  0  0  0  0  0  0  0
   -3.9446   -1.4929    0.0000 C   0  0  0  0  0  0  0  0  0  0  0  0
   -3.5747   -2.8732    0.0000 C   0  0  0  0  0  0  0  0  0  0  0  0
    2.0147    1.3807    0.0000 C   0  0  0  0  0  0  0  0  0  0  0  0
    1.3002    2.6182    0.0000 C   0  0  0  0  0  0  0  0  0  0  0  0
    2.7292    1.7932    0.0000 C   0  0  0  0  0  0  0  0  0  0  0  0
    4.1581    1.7932    0.0000 C   0  0  0  0  0  0  0  0  0  0  0  0
  1 14  1  0  0  0  0
  2 14  1  0  0  0  0
  3 14  1  0  0  0  0
  4 11  1  0  0  0  0
  4 20  1  0  0  0  0
  5 25  1  0  0  0  0
  5 26  1  0  0  0  0
  6  7  1  0  0  0  0
  6 13  2  0  0  0  0
  7 19  1  0  0  0  0
  8 21  1  0  0  0  0
  8 27  1  0  0  0  0
  8 28  1  0  0  0  0
  9 29  1  0  0  0  0
  9 30  1  0  0  0  0
 10 11  1  0  0  0  0
 10 14  1  0  0  0  0
 10 16  2  0  0  0  0
 11 15  2  0  0  0  0
 12 13  1  0  0  0  0
 12 16  1  0  0  0  0
 12 17  2  0  0  0  0
 13 18  1  0  0  0  0
 15 17  1  0  0  0  0
 15 22  1  0  0  0  0
 18 19  2  0  0  0  0
 18 21  1  0  0  0  0
 20 23  1  0  0  0  0
 20 24  1  0  0  0  0
 23 25  1  0  0  0  0
 24 26  1  0  0  0  0
 27 29  1  0  0  0  0
M  END
> <PUBCHEM_COMPOUND_ID_TYPE>
0

> <PUBCHEM_TOTAL_CHARGE>
0

> <PUBCHEM_SUBSTANCE_ID>
310947666

> <PUBCHEM_SUBSTANCE_VERSION>
1

> <PUBCHEM_EXT_DATASOURCE_NAME>
4488

> <PUBCHEM_EXT_DATASOURCE_REGID>
SCHEMBL16125834

> <PUBCHEM_SUBSTANCE_COMMENT>
InChI=1S/C21H29F3N4O2/c1-14-10-15(19-16(12-26-27-19)13-28(3)7-6-25-2)11-18(21(22,23)24)20(14)30-17-4-8-29-9-5-17/h10-12,17,25H,4-9,13H2,1-3H3,(H,26,27)
InChIKey=ZNJGMFNSJSKILN-UHFFFAOYSA-N

> <PUBCHEM_SUBSTANCE_SYNONYM>
SCHEMBL16125834

> <PUBCHEM_XREF_EXT_ID>
SCHEMBL16125834

> <PUBCHEM_EXT_DATASOURCE_URL>
https://www.surechembl.org/

> <PUBCHEM_EXT_SUBSTANCE_URL>
https://www.surechembl.org/chemical/SCHEMBL16125834

> <PUBCHEM_CID_ASSOCIATIONS>
117613381  1

> <PUBCHEM_COORDINATE_TYPE>
1
3

$$$$
