310935208
  -OEChem-07211613022D

 23 25  0     1  0  0  0  0  0999 V2000
    5.6678   -0.6693    0.0000 F   0  0  0  0  0  0  0  0  0  0  0  0
    4.4757   -1.5058    0.0000 O   0  0  0  0  0  0  0  0  0  0  0  0
    4.4757   -2.9280    0.0000 O   0  0  0  0  0  0  0  0  0  0  0  0
    0.5229   -2.8444    0.0000 N   0  0  0  0  0  0  0  0  0  0  0  0
    0.0000   -3.5136    0.0000 N   0  0  0  0  0  0  0  0  0  0  0  0
    3.2417   -2.2169    0.0000 C   0  0  3  0  0  0  0  0  0  0  0  0
    3.6182   -1.4849    0.0000 C   0  0  0  0  0  0  0  0  0  0  0  0
    2.7607   -2.8862    0.0000 C   0  0  0  0  0  0  0  0  0  0  0  0
    1.9659   -2.6352    0.0000 C   0  0  0  0  0  0  0  0  0  0  0  0
    4.0574   -2.2169    0.0000 C   0  0  0  0  0  0  0  0  0  0  0  0
    2.7607   -1.5476    0.0000 C   0  0  0  0  0  0  0  0  0  0  0  0
    4.6221   -1.6104    0.0000 C   0  0  0  0  0  0  0  0  0  0  0  0
    1.2967   -3.1163    0.0000 C   0  0  0  0  0  0  0  0  0  0  0  0
    1.9659   -1.8196    0.0000 C   0  0  0  0  0  0  0  0  0  0  0  0
    3.1790   -0.7739    0.0000 C   0  0  0  0  0  0  0  0  0  0  0  0
    4.8313   -0.6902    0.0000 C   0  0  0  0  0  0  0  0  0  0  0  0
    1.2967   -3.9319    0.0000 C   0  0  0  0  0  0  0  0  0  0  0  0
    3.5346   -0.0418    0.0000 C   0  0  0  0  0  0  0  0  0  0  0  0
    4.3712    0.0000    0.0000 C   0  0  0  0  0  0  0  0  0  0  0  0
    4.8940   -2.1333    0.0000 C   0  0  0  0  0  0  0  0  0  0  0  0
    0.5019   -4.1829    0.0000 C   0  0  0  0  0  0  0  0  0  0  0  0
    0.2719   -2.0496    0.0000 C   0  0  0  0  0  0  0  0  0  0  0  0
    5.3123   -1.5058    0.0000 C   0  0  0  0  0  0  0  0  0  0  0  0
  1 16  1  0  0  0  0
  2 10  1  0  0  0  0
  2 23  1  0  0  0  0
  3 10  2  0  0  0  0
  4  5  1  0  0  0  0
  4 13  1  0  0  0  0
  4 22  1  0  0  0  0
  5 21  2  0  0  0  0
  6  7  1  0  0  0  0
  6  8  1  0  0  0  0
  6 10  1  0  0  0  0
  6 11  1  0  0  0  0
  7 12  1  0  0  0  0
  7 15  2  0  0  0  0
  8  9  2  0  0  0  0
  9 13  1  0  0  0  0
  9 14  1  0  0  0  0
 11 14  1  0  0  0  0
 12 16  2  0  0  0  0
 12 20  1  0  0  0  0
 13 17  2  0  0  0  0
 15 18  1  0  0  0  0
 16 19  1  0  0  0  0
 17 21  1  0  0  0  0
 18 19  2  0  0  0  0
M  END
> <PUBCHEM_COMPOUND_ID_TYPE>
0

> <PUBCHEM_TOTAL_CHARGE>
0

> <PUBCHEM_SUBSTANCE_ID>
310935208

> <PUBCHEM_SUBSTANCE_VERSION>
1

> <PUBCHEM_EXT_DATASOURCE_NAME>
4488

> <PUBCHEM_EXT_DATASOURCE_REGID>
SCHEMBL16112736

> <PUBCHEM_SUBSTANCE_COMMENT>
InChI=1S/C18H19FN2O2/c1-12-14(5-4-6-15(12)19)18(17(22)23-3)9-7-13(11-18)16-8-10-20-21(16)2/h4-6,8,10-11H,7,9H2,1-3H3
InChIKey=GLCBWTZZZKKHFT-UHFFFAOYSA-N

> <PUBCHEM_SUBSTANCE_SYNONYM>
SCHEMBL16112736

> <PUBCHEM_XREF_EXT_ID>
SCHEMBL16112736

> <PUBCHEM_EXT_DATASOURCE_URL>
https://www.surechembl.org/

> <PUBCHEM_EXT_SUBSTANCE_URL>
https://www.surechembl.org/chemical/SCHEMBL16112736

> <PUBCHEM_CID_ASSOCIATIONS>
117603288  1

> <PUBCHEM_COORDINATE_TYPE>
1
3

$$$$
