310945821
  -OEChem-07211613022D

 36 38  0     1  0  0  0  0  0999 V2000
    4.0183    0.6720    0.0000 O   0  0  0  0  0  0  0  0  0  0  0  0
    2.8821   -1.2817    0.0000 O   0  0  0  0  0  0  0  0  0  0  0  0
    0.7205    0.7829    0.0000 O   0  0  0  0  0  0  0  0  0  0  0  0
   -1.4549   -1.2817    0.0000 O   0  0  0  0  0  0  0  0  0  0  0  0
    2.8821   -2.9445    0.0000 O   0  0  0  0  0  0  0  0  0  0  0  0
   -3.6165    0.7829    0.0000 O   0  0  0  0  0  0  0  0  0  0  0  0
    1.4411   -0.4503    0.0000 N   0  0  0  0  0  0  0  0  0  0  0  0
   -0.7205   -0.0347    0.0000 N   0  0  0  0  0  0  0  0  0  0  0  0
   -2.8960   -0.4503    0.0000 N   0  0  0  0  0  0  0  0  0  0  0  0
    3.6027    0.0070    0.0000 C   0  0  3  0  0  0  0  0  0  0  0  0
    2.8960   -0.4088    0.0000 C   0  0  0  0  0  0  0  0  0  0  0  0
    3.2147    0.6859    0.0000 C   0  0  0  0  0  0  0  0  0  0  0  0
    2.1477   -0.0070    0.0000 C   0  0  3  0  0  0  0  0  0  0  0  0
    4.3509   -0.4226    0.0000 C   0  0  0  0  0  0  0  0  0  0  0  0
    2.1616    1.3094    0.0000 C   0  0  0  0  0  0  0  0  0  0  0  0
    0.7067   -0.0347    0.0000 C   0  0  0  0  0  0  0  0  0  0  0  0
    0.0000   -0.4226    0.0000 C   0  0  3  0  0  0  0  0  0  0  0  0
    1.4411    1.7390    0.0000 C   0  0  0  0  0  0  0  0  0  0  0  0
    0.0000   -1.2679    0.0000 C   0  0  0  0  0  0  0  0  0  0  0  0
    0.7344   -1.6697    0.0000 C   0  0  0  0  0  0  0  0  0  0  0  0
   -1.4411   -0.4088    0.0000 C   0  0  0  0  0  0  0  0  0  0  0  0
    1.4411    2.5427    0.0000 C   0  0  0  0  0  0  0  0  0  0  0  0
    0.7205    1.3233    0.0000 C   0  0  0  0  0  0  0  0  0  0  0  0
   -2.1616   -0.0070    0.0000 C   0  0  3  0  0  0  0  0  0  0  0  0
    0.7344   -2.5011    0.0000 C   0  0  0  0  0  0  0  0  0  0  0  0
    1.4411   -1.2817    0.0000 C   0  0  0  0  0  0  0  0  0  0  0  0
    2.1616   -2.4872    0.0000 C   0  0  0  0  0  0  0  0  0  0  0  0
    0.7205    2.9445    0.0000 C   0  0  0  0  0  0  0  0  0  0  0  0
    0.0139    1.7251    0.0000 C   0  0  0  0  0  0  0  0  0  0  0  0
    1.4549   -2.9029    0.0000 C   0  0  0  0  0  0  0  0  0  0  0  0
    2.1616   -1.6836    0.0000 C   0  0  0  0  0  0  0  0  0  0  0  0
    0.0139    2.5427    0.0000 C   0  0  0  0  0  0  0  0  0  0  0  0
   -2.1477    0.8244    0.0000 C   0  0  0  0  0  0  0  0  0  0  0  0
   -3.6165   -0.0347    0.0000 C   0  0  0  0  0  0  0  0  0  0  0  0
    3.6304   -2.5150    0.0000 C   0  0  0  0  0  0  0  0  0  0  0  0
   -4.3509   -0.4226    0.0000 C   0  0  0  0  0  0  0  0  0  0  0  0
  1 10  1  0  0  0  0
  1 12  1  0  0  0  0
  2 11  2  0  0  0  0
  3 16  2  0  0  0  0
  4 21  2  0  0  0  0
  5 27  1  0  0  0  0
  5 35  1  0  0  0  0
  6 34  2  0  0  0  0
  7 13  1  0  0  0  0
  7 16  1  0  0  0  0
  8 17  1  0  0  0  0
  8 21  1  0  0  0  0
  9 24  1  0  0  0  0
  9 34  1  0  0  0  0
 10 11  1  0  0  0  0
 10 12  1  0  0  0  0
 10 14  1  0  0  0  0
 11 13  1  0  0  0  0
 13 15  1  0  0  0  0
 15 18  1  0  0  0  0
 16 17  1  0  0  0  0
 17 19  1  0  0  0  0
 18 22  2  0  0  0  0
 18 23  1  0  0  0  0
 19 20  1  0  0  0  0
 20 25  2  0  0  0  0
 20 26  1  0  0  0  0
 21 24  1  0  0  0  0
 22 28  1  0  0  0  0
 23 29  2  0  0  0  0
 24 33  1  0  0  0  0
 25 30  1  0  0  0  0
 26 31  2  0  0  0  0
 27 30  2  0  0  0  0
 27 31  1  0  0  0  0
 28 32  2  0  0  0  0
 29 32  1  0  0  0  0
 34 36  1  0  0  0  0
M  END
> <PUBCHEM_COMPOUND_ID_TYPE>
0

> <PUBCHEM_TOTAL_CHARGE>
0

> <PUBCHEM_SUBSTANCE_ID>
310945821

> <PUBCHEM_SUBSTANCE_VERSION>
1

> <PUBCHEM_EXT_DATASOURCE_NAME>
4488

> <PUBCHEM_EXT_DATASOURCE_REGID>
SCHEMBL16123926

> <PUBCHEM_SUBSTANCE_COMMENT>
InChI=1S/C27H33N3O6/c1-17(28-18(2)31)25(33)30-23(15-20-10-12-21(35-4)13-11-20)26(34)29-22(24(32)27(3)16-36-27)14-19-8-6-5-7-9-19/h5-13,17,22-23H,14-16H2,1-4H3,(H,28,31)(H,29,34)(H,30,33)
InChIKey=BBEJVYFCEKANAH-UHFFFAOYSA-N

> <PUBCHEM_SUBSTANCE_SYNONYM>
SCHEMBL16123926

> <PUBCHEM_XREF_EXT_ID>
SCHEMBL16123926

> <PUBCHEM_EXT_DATASOURCE_URL>
https://www.surechembl.org/

> <PUBCHEM_EXT_SUBSTANCE_URL>
https://www.surechembl.org/chemical/SCHEMBL16123926

> <PUBCHEM_CID_ASSOCIATIONS>
117611807  1

> <PUBCHEM_COORDINATE_TYPE>
1
3

$$$$
