310941317
  -OEChem-07211613022D

 41 44  0     1  0  0  0  0  0999 V2000
    4.6842    0.6741    0.0000 O   0  0  0  0  0  0  0  0  0  0  0  0
    3.5561   -1.2794    0.0000 O   0  0  0  0  0  0  0  0  0  0  0  0
    1.4238    0.7841    0.0000 O   0  0  0  0  0  0  0  0  0  0  0  0
   -0.7223   -1.2794    0.0000 O   0  0  0  0  0  0  0  0  0  0  0  0
   -2.8546    0.7841    0.0000 O   0  0  0  0  0  0  0  0  0  0  0  0
    3.5561   -2.9302    0.0000 O   0  0  0  0  0  0  0  0  0  0  0  0
   -5.0006   -1.2794    0.0000 O   0  0  0  0  0  0  0  0  0  0  0  0
    2.1392   -0.4540    0.0000 N   0  0  0  0  0  0  0  0  0  0  0  0
   -0.0069   -0.0412    0.0000 N   0  0  0  0  0  0  0  0  0  0  0  0
   -2.1392   -0.4540    0.0000 N   0  0  0  0  0  0  0  0  0  0  0  0
    4.2578    0.0000    0.0000 C   0  0  3  0  0  0  0  0  0  0  0  0
    3.5699   -0.4127    0.0000 C   0  0  0  0  0  0  0  0  0  0  0  0
    3.8863    0.6878    0.0000 C   0  0  0  0  0  0  0  0  0  0  0  0
    2.8408   -0.0137    0.0000 C   0  0  3  0  0  0  0  0  0  0  0  0
    5.0006   -0.4402    0.0000 C   0  0  0  0  0  0  0  0  0  0  0  0
    2.8408    1.2931    0.0000 C   0  0  0  0  0  0  0  0  0  0  0  0
    1.4238   -0.0412    0.0000 C   0  0  0  0  0  0  0  0  0  0  0  0
    0.7223   -0.4265    0.0000 C   0  0  3  0  0  0  0  0  0  0  0  0
    2.1254    1.7196    0.0000 C   0  0  0  0  0  0  0  0  0  0  0  0
    0.7085   -1.2519    0.0000 C   0  0  0  0  0  0  0  0  0  0  0  0
   -0.7085   -0.4127    0.0000 C   0  0  0  0  0  0  0  0  0  0  0  0
    1.4376   -1.6508    0.0000 C   0  0  0  0  0  0  0  0  0  0  0  0
    2.1392    2.5313    0.0000 C   0  0  0  0  0  0  0  0  0  0  0  0
    1.4376    1.3069    0.0000 C   0  0  0  0  0  0  0  0  0  0  0  0
   -1.4238   -0.0137    0.0000 C   0  0  3  0  0  0  0  0  0  0  0  0
    1.4376   -2.4900    0.0000 C   0  0  0  0  0  0  0  0  0  0  0  0
    2.1254   -1.2656    0.0000 C   0  0  0  0  0  0  0  0  0  0  0  0
   -2.8546   -0.0412    0.0000 C   0  0  0  0  0  0  0  0  0  0  0  0
   -3.5561   -0.4265    0.0000 C   0  0  0  0  0  0  0  0  0  0  0  0
    1.4101    2.9302    0.0000 C   0  0  0  0  0  0  0  0  0  0  0  0
    0.7223    1.7196    0.0000 C   0  0  0  0  0  0  0  0  0  0  0  0
    2.8546   -2.4763    0.0000 C   0  0  0  0  0  0  0  0  0  0  0  0
    2.1530   -2.8889    0.0000 C   0  0  0  0  0  0  0  0  0  0  0  0
    2.8546   -1.6784    0.0000 C   0  0  0  0  0  0  0  0  0  0  0  0
    0.7223    2.5313    0.0000 C   0  0  0  0  0  0  0  0  0  0  0  0
   -1.4238    0.8116    0.0000 C   0  0  0  0  0  0  0  0  0  0  0  0
   -3.5699   -1.2519    0.0000 C   0  0  0  0  0  0  0  0  0  0  0  0
   -4.2853   -0.0275    0.0000 C   0  0  0  0  0  0  0  0  0  0  0  0
   -4.2578   -1.6508    0.0000 C   0  0  0  0  0  0  0  0  0  0  0  0
   -4.9731   -0.4265    0.0000 C   0  0  0  0  0  0  0  0  0  0  0  0
    4.2990   -2.5038    0.0000 C   0  0  0  0  0  0  0  0  0  0  0  0
  1 11  1  0  0  0  0
  1 13  1  0  0  0  0
  2 12  2  0  0  0  0
  3 17  2  0  0  0  0
  4 21  2  0  0  0  0
  5 28  2  0  0  0  0
  6 32  1  0  0  0  0
  6 41  1  0  0  0  0
  7 39  1  0  0  0  0
  7 40  1  0  0  0  0
  8 14  1  0  0  0  0
  8 17  1  0  0  0  0
  9 18  1  0  0  0  0
  9 21  1  0  0  0  0
 10 25  1  0  0  0  0
 10 28  1  0  0  0  0
 11 12  1  0  0  0  0
 11 13  1  0  0  0  0
 11 15  1  0  0  0  0
 12 14  1  0  0  0  0
 14 16  1  0  0  0  0
 16 19  1  0  0  0  0
 17 18  1  0  0  0  0
 18 20  1  0  0  0  0
 19 23  2  0  0  0  0
 19 24  1  0  0  0  0
 20 22  1  0  0  0  0
 21 25  1  0  0  0  0
 22 26  2  0  0  0  0
 22 27  1  0  0  0  0
 23 30  1  0  0  0  0
 24 31  2  0  0  0  0
 25 36  1  0  0  0  0
 26 33  1  0  0  0  0
 27 34  2  0  0  0  0
 28 29  1  0  0  0  0
 29 37  1  0  0  0  0
 29 38  1  0  0  0  0
 30 35  2  0  0  0  0
 31 35  1  0  0  0  0
 32 33  2  0  0  0  0
 32 34  1  0  0  0  0
 37 39  1  0  0  0  0
 38 40  1  0  0  0  0
M  END
> <PUBCHEM_COMPOUND_ID_TYPE>
0

> <PUBCHEM_TOTAL_CHARGE>
0

> <PUBCHEM_SUBSTANCE_ID>
310941317

> <PUBCHEM_SUBSTANCE_VERSION>
1

> <PUBCHEM_EXT_DATASOURCE_NAME>
4488

> <PUBCHEM_EXT_DATASOURCE_REGID>
SCHEMBL16119277

> <PUBCHEM_SUBSTANCE_COMMENT>
InChI=1S/C31H39N3O7/c1-20(32-29(37)23-13-15-40-16-14-23)28(36)34-26(18-22-9-11-24(39-3)12-10-22)30(38)33-25(27(35)31(2)19-41-31)17-21-7-5-4-6-8-21/h4-12,20,23,25-26H,13-19H2,1-3H3,(H,32,37)(H,33,38)(H,34,36)
InChIKey=LNWPKLGWSIXMSJ-UHFFFAOYSA-N

> <PUBCHEM_SUBSTANCE_SYNONYM>
SCHEMBL16119277

> <PUBCHEM_XREF_EXT_ID>
SCHEMBL16119277

> <PUBCHEM_EXT_DATASOURCE_URL>
https://www.surechembl.org/

> <PUBCHEM_EXT_SUBSTANCE_URL>
https://www.surechembl.org/chemical/SCHEMBL16119277

> <PUBCHEM_CID_ASSOCIATIONS>
117608165  1

> <PUBCHEM_COORDINATE_TYPE>
1
3

$$$$
