310937516
  -OEChem-07211613022D

 36 41  0     1  0  0  0  0  0999 V2000
    0.7720   -0.8611    0.0000 F   0  0  0  0  0  0  0  0  0  0  0  0
    1.4846   -2.0785    0.0000 F   0  0  0  0  0  0  0  0  0  0  0  0
    1.4846   -0.4454    0.0000 F   0  0  0  0  0  0  0  0  0  0  0  0
    3.5631    0.0000    0.0000 O   0  0  0  0  0  0  0  0  0  0  0  0
    6.1760   -3.2662    0.0000 O   0  0  0  0  0  0  0  0  0  0  0  0
    2.9099   -1.2471    0.0000 N   0  0  0  0  0  0  0  0  0  0  0  0
    5.1071   -2.3457    0.0000 N   0  0  0  0  0  0  0  0  0  0  0  0
    5.5821   -1.6628    0.0000 N   0  0  0  0  0  0  0  0  0  0  0  0
    2.9099   -3.7116    0.0000 N   0  0  0  0  0  0  0  0  0  0  0  0
    2.1378   -4.9289    0.0000 N   0  0  0  0  0  0  0  0  0  0  0  0
    0.7423   -4.9289    0.0000 N   0  0  0  0  0  0  0  0  0  0  0  0
    4.3054   -2.0785    0.0000 C   0  0  0  0  0  0  0  0  0  0  0  0
    3.5928   -2.4942    0.0000 C   0  0  0  0  0  0  0  0  0  0  0  0
    4.3054   -1.2471    0.0000 C   0  0  0  0  0  0  0  0  0  0  0  0
    2.9099   -2.0785    0.0000 C   0  0  0  0  0  0  0  0  0  0  0  0
    3.5928   -0.8314    0.0000 C   0  0  0  0  0  0  0  0  0  0  0  0
    2.1675   -2.4942    0.0000 C   0  0  0  0  0  0  0  0  0  0  0  0
    5.1071   -0.9798    0.0000 C   0  0  0  0  0  0  0  0  0  0  0  0
    2.1675   -3.2959    0.0000 C   0  0  0  0  0  0  0  0  0  0  0  0
    3.5928   -3.2959    0.0000 C   0  0  0  0  0  0  0  0  0  0  0  0
    5.3743   -3.1177    0.0000 C   0  0  3  0  0  0  0  0  0  0  0  0
    2.1972   -0.8314    0.0000 C   0  0  0  0  0  0  0  0  0  0  0  0
    1.4549   -3.6819    0.0000 C   0  0  0  0  0  0  0  0  0  0  0  0
    1.4846   -1.2471    0.0000 C   0  0  0  0  0  0  0  0  0  0  0  0
    1.4252   -4.5132    0.0000 C   0  0  0  0  0  0  0  0  0  0  0  0
    4.8101   -3.7116    0.0000 C   0  0  0  0  0  0  0  0  0  0  0  0
    0.7423   -3.2959    0.0000 C   0  0  0  0  0  0  0  0  0  0  0  0
    6.4135   -4.0679    0.0000 C   0  0  0  0  0  0  0  0  0  0  0  0
    5.0477   -4.5132    0.0000 C   0  0  0  0  0  0  0  0  0  0  0  0
    0.0297   -3.7116    0.0000 C   0  0  0  0  0  0  0  0  0  0  0  0
    0.0000   -4.5429    0.0000 C   0  0  0  0  0  0  0  0  0  0  0  0
    2.9099   -4.6320    0.0000 C   0  0  0  0  0  0  0  0  0  0  0  0
    2.2269   -5.7603    0.0000 C   0  0  0  0  0  0  0  0  0  0  0  0
    5.8791   -4.6617    0.0000 C   0  0  0  0  0  0  0  0  0  0  0  0
    3.4443   -5.2258    0.0000 C   0  0  0  0  0  0  0  0  0  0  0  0
    3.0286   -5.9385    0.0000 C   0  0  0  0  0  0  0  0  0  0  0  0
  1 24  1  0  0  0  0
  2 24  1  0  0  0  0
  3 24  1  0  0  0  0
  4 16  2  0  0  0  0
  5 21  1  0  0  0  0
  5 28  1  0  0  0  0
  6 15  1  0  0  0  0
  6 16  1  0  0  0  0
  6 22  1  0  0  0  0
  7  8  1  0  0  0  0
  7 12  1  0  0  0  0
  7 21  1  0  0  0  0
  8 18  2  0  0  0  0
  9 19  2  0  0  0  0
  9 20  1  0  0  0  0
 10 25  1  0  0  0  0
 10 32  1  0  0  0  0
 10 33  1  0  0  0  0
 11 25  1  0  0  0  0
 11 31  2  0  0  0  0
 12 13  1  0  0  0  0
 12 14  2  0  0  0  0
 13 15  1  0  0  0  0
 13 20  2  0  0  0  0
 14 16  1  0  0  0  0
 14 18  1  0  0  0  0
 15 17  2  0  0  0  0
 17 19  1  0  0  0  0
 19 23  1  0  0  0  0
 21 26  1  0  0  0  0
 22 24  1  0  0  0  0
 23 25  2  0  0  0  0
 23 27  1  0  0  0  0
 26 29  1  0  0  0  0
 27 30  2  0  0  0  0
 28 34  1  0  0  0  0
 29 34  1  0  0  0  0
 30 31  1  0  0  0  0
 32 35  1  0  0  0  0
 33 36  1  0  0  0  0
 35 36  1  0  0  0  0
M  END
> <PUBCHEM_COMPOUND_ID_TYPE>
0

> <PUBCHEM_TOTAL_CHARGE>
0

> <PUBCHEM_SUBSTANCE_ID>
310937516

> <PUBCHEM_SUBSTANCE_VERSION>
1

> <PUBCHEM_EXT_DATASOURCE_NAME>
4488

> <PUBCHEM_EXT_DATASOURCE_REGID>
SCHEMBL16115289

> <PUBCHEM_SUBSTANCE_COMMENT>
InChI=1S/C25H25F3N6O2/c26-25(27,28)15-33-20-12-19(16-6-5-8-29-23(16)32-9-2-3-10-32)30-13-17(20)22-18(24(33)35)14-31-34(22)21-7-1-4-11-36-21/h5-6,8,12-14,21H,1-4,7,9-11,15H2
InChIKey=LIMQJNCGMBLYJG-UHFFFAOYSA-N

> <PUBCHEM_SUBSTANCE_SYNONYM>
SCHEMBL16115289

> <PUBCHEM_XREF_EXT_ID>
SCHEMBL16115289

> <PUBCHEM_EXT_DATASOURCE_URL>
https://www.surechembl.org/

> <PUBCHEM_EXT_SUBSTANCE_URL>
https://www.surechembl.org/chemical/SCHEMBL16115289

> <PUBCHEM_CID_ASSOCIATIONS>
117605248  1

> <PUBCHEM_COORDINATE_TYPE>
1
3

$$$$
