310936060
  -OEChem-07211613022D

 32 37  0     1  0  0  0  0  0999 V2000
    2.2296   -1.6455    0.0000 S   0  0  0  0  0  0  0  0  0  0  0  0
   -0.1876   -4.6725    0.0000 O   0  0  0  0  0  0  0  0  0  0  0  0
   -0.7144   -3.3000    0.0000 N   0  0  0  0  0  0  0  0  0  0  0  0
    1.4290   -0.4125    0.0000 N   0  0  0  0  0  0  0  0  0  0  0  0
   -1.6077   -4.2920    0.0000 N   0  0  0  0  0  0  0  0  0  0  0  0
    0.7144    0.8250    0.0000 N   0  0  0  0  0  0  0  0  0  0  0  0
    1.4290   -2.0625    0.0000 N   0  0  0  0  0  0  0  0  0  0  0  0
   -2.8272   -3.4060    0.0000 N   0  0  0  0  0  0  0  0  0  0  0  0
    2.8971   -0.4895    0.0000 N   0  0  0  0  0  0  0  0  0  0  0  0
    0.7144   -0.8250    0.0000 C   0  0  0  0  0  0  0  0  0  0  0  0
    0.0000   -0.4125    0.0000 C   0  0  0  0  0  0  0  0  0  0  0  0
    0.7144   -1.6500    0.0000 C   0  0  3  0  0  0  0  0  0  0  0  0
    0.0000   -2.8875    0.0000 C   0  0  3  0  0  0  0  0  0  0  0  0
   -1.4681   -2.9645    0.0000 C   0  0  0  0  0  0  0  0  0  0  0  0
    0.0000    0.4125    0.0000 C   0  0  3  0  0  0  0  0  0  0  0  0
   -0.8007   -4.1205    0.0000 C   0  0  0  0  0  0  0  0  0  0  0  0
   -2.0202   -3.5776    0.0000 C   0  0  0  0  0  0  0  0  0  0  0  0
    0.0000   -2.0625    0.0000 C   0  0  0  0  0  0  0  0  0  0  0  0
    2.1434   -0.8250    0.0000 C   0  0  0  0  0  0  0  0  0  0  0  0
    1.4290    0.4125    0.0000 C   0  0  0  0  0  0  0  0  0  0  0  0
   -0.7144    0.8250    0.0000 C   0  0  0  0  0  0  0  0  0  0  0  0
   -0.7144   -0.8250    0.0000 C   0  0  0  0  0  0  0  0  0  0  0  0
    0.7144   -3.3000    0.0000 C   0  0  0  0  0  0  0  0  0  0  0  0
   -1.7231   -2.1798    0.0000 C   0  0  0  0  0  0  0  0  0  0  0  0
    1.4290   -2.8875    0.0000 C   0  0  0  0  0  0  0  0  0  0  0  0
   -1.4290    0.4125    0.0000 C   0  0  0  0  0  0  0  0  0  0  0  0
   -1.4290   -0.4125    0.0000 C   0  0  0  0  0  0  0  0  0  0  0  0
   -2.5300   -2.0083    0.0000 C   0  0  0  0  0  0  0  0  0  0  0  0
   -3.0821   -2.6214    0.0000 C   0  0  0  0  0  0  0  0  0  0  0  0
    3.0366   -1.8170    0.0000 C   0  0  0  0  0  0  0  0  0  0  0  0
    3.4491   -1.1026    0.0000 C   0  0  0  0  0  0  0  0  0  0  0  0
   -0.7144    1.6500    0.0000 C   0  0  0  0  0  0  0  0  0  0  0  0
  1 19  1  0  0  0  0
  1 30  1  0  0  0  0
  2 16  2  0  0  0  0
  3 13  1  0  0  0  0
  3 14  1  0  0  0  0
  3 16  1  0  0  0  0
  4 10  1  0  0  0  0
  4 19  1  0  0  0  0
  4 20  1  0  0  0  0
  5 16  1  0  0  0  0
  5 17  1  0  0  0  0
  6 15  1  0  0  0  0
  6 20  2  0  0  0  0
  7 12  1  0  0  0  0
  7 25  1  0  0  0  0
  8 17  2  0  0  0  0
  8 29  1  0  0  0  0
  9 19  2  0  0  0  0
  9 31  1  0  0  0  0
 10 11  2  0  0  0  0
 10 12  1  0  0  0  0
 11 15  1  0  0  0  0
 11 22  1  0  0  0  0
 12 18  1  0  0  0  0
 13 18  1  0  0  0  0
 13 23  1  0  0  0  0
 14 17  1  0  0  0  0
 14 24  2  0  0  0  0
 15 21  1  0  0  0  0
 21 26  2  0  0  0  0
 21 32  1  0  0  0  0
 22 27  2  0  0  0  0
 23 25  1  0  0  0  0
 24 28  1  0  0  0  0
 26 27  1  0  0  0  0
 28 29  2  0  0  0  0
 30 31  2  0  0  0  0
M  END
> <PUBCHEM_COMPOUND_ID_TYPE>
0

> <PUBCHEM_TOTAL_CHARGE>
0

> <PUBCHEM_SUBSTANCE_ID>
310936060

> <PUBCHEM_SUBSTANCE_VERSION>
1

> <PUBCHEM_EXT_DATASOURCE_NAME>
4488

> <PUBCHEM_EXT_DATASOURCE_REGID>
SCHEMBL16113666

> <PUBCHEM_SUBSTANCE_COMMENT>
InChI=1S/C23H23N7OS/c1-14-4-2-5-16-19(14)27-13-29(23-26-10-11-32-23)20(16)17-12-15(7-9-24-17)30-18-6-3-8-25-21(18)28-22(30)31/h2-6,8,10-11,13,15,17,19,24H,7,9,12H2,1H3,(H,25,28,31)
InChIKey=CJMHIWOKRFLPMF-UHFFFAOYSA-N

> <PUBCHEM_SUBSTANCE_SYNONYM>
SCHEMBL16113666

> <PUBCHEM_XREF_EXT_ID>
SCHEMBL16113666

> <PUBCHEM_EXT_DATASOURCE_URL>
https://www.surechembl.org/

> <PUBCHEM_EXT_SUBSTANCE_URL>
https://www.surechembl.org/chemical/SCHEMBL16113666

> <PUBCHEM_CID_ASSOCIATIONS>
117604025  1

> <PUBCHEM_COORDINATE_TYPE>
1
3

$$$$
