310935964
  -OEChem-07211613022D

 30 34  0     1  0  0  0  0  0999 V2000
    6.3872   -4.0985    0.0000 O   0  0  0  0  0  0  0  0  0  0  0  0
    5.6952   -2.8743    0.0000 O   0  0  0  0  0  0  0  0  0  0  0  0
    2.1291   -4.0985    0.0000 N   0  0  3  0  0  0  0  0  0  0  0  0
    0.7186   -4.0985    0.0000 N   0  0  0  0  0  0  0  0  0  0  0  0
    0.0000   -2.8476    0.0000 N   0  0  0  0  0  0  0  0  0  0  0  0
    3.5662    0.0000    0.0000 N   0  0  0  0  0  0  0  0  0  0  0  0
    1.4371   -2.8476    0.0000 C   0  0  0  0  0  0  0  0  0  0  0  0
    1.4105   -3.6726    0.0000 C   0  0  0  0  0  0  0  0  0  0  0  0
    0.7186   -2.4484    0.0000 C   0  0  0  0  0  0  0  0  0  0  0  0
    0.7186   -1.6500    0.0000 C   0  0  0  0  0  0  0  0  0  0  0  0
    2.1291   -1.6500    0.0000 C   0  0  0  0  0  0  0  0  0  0  0  0
    2.1291   -2.4751    0.0000 C   0  0  0  0  0  0  0  0  0  0  0  0
    3.5662   -4.0985    0.0000 C   0  0  0  0  0  0  0  0  0  0  0  0
    2.8476   -3.6726    0.0000 C   0  0  0  0  0  0  0  0  0  0  0  0
    3.5662   -4.9235    0.0000 C   0  0  0  0  0  0  0  0  0  0  0  0
    1.4105   -1.2242    0.0000 C   0  0  0  0  0  0  0  0  0  0  0  0
    2.1291   -4.9235    0.0000 C   0  0  0  0  0  0  0  0  0  0  0  0
    2.8476   -1.2242    0.0000 C   0  0  0  0  0  0  0  0  0  0  0  0
    0.0000   -3.6993    0.0000 C   0  0  0  0  0  0  0  0  0  0  0  0
    2.8476   -5.3227    0.0000 C   0  0  0  0  0  0  0  0  0  0  0  0
    4.2581   -3.6726    0.0000 C   0  0  0  0  0  0  0  0  0  0  0  0
    4.9767   -4.0985    0.0000 C   0  0  0  0  0  0  0  0  0  0  0  0
    4.2581   -5.3227    0.0000 C   0  0  0  0  0  0  0  0  0  0  0  0
    4.9767   -4.9235    0.0000 C   0  0  0  0  0  0  0  0  0  0  0  0
    0.0000   -1.2242    0.0000 C   0  0  0  0  0  0  0  0  0  0  0  0
    2.8743   -0.3992    0.0000 C   0  0  0  0  0  0  0  0  0  0  0  0
    3.5662   -1.6234    0.0000 C   0  0  0  0  0  0  0  0  0  0  0  0
    5.6952   -3.6726    0.0000 C   0  0  0  0  0  0  0  0  0  0  0  0
    4.2848   -1.2242    0.0000 C   0  0  0  0  0  0  0  0  0  0  0  0
    4.3114   -0.3992    0.0000 C   0  0  0  0  0  0  0  0  0  0  0  0
  1 28  2  0  0  0  0
  2 28  1  0  0  0  0
  3  8  1  0  0  0  0
  3 14  1  0  0  0  0
  3 17  1  0  0  0  0
  4  8  1  0  0  0  0
  4 19  2  0  0  0  0
  5  9  2  0  0  0  0
  5 19  1  0  0  0  0
  6 26  1  0  0  0  0
  6 30  2  0  0  0  0
  7  8  2  0  0  0  0
  7  9  1  0  0  0  0
  7 12  1  0  0  0  0
  9 10  1  0  0  0  0
 10 16  2  0  0  0  0
 10 25  1  0  0  0  0
 11 12  2  0  0  0  0
 11 16  1  0  0  0  0
 11 18  1  0  0  0  0
 13 14  1  0  0  0  0
 13 15  2  0  0  0  0
 13 21  1  0  0  0  0
 15 20  1  0  0  0  0
 15 23  1  0  0  0  0
 17 20  1  0  0  0  0
 18 26  2  0  0  0  0
 18 27  1  0  0  0  0
 21 22  2  0  0  0  0
 22 24  1  0  0  0  0
 22 28  1  0  0  0  0
 23 24  2  0  0  0  0
 27 29  2  0  0  0  0
 29 30  1  0  0  0  0
M  END
> <PUBCHEM_COMPOUND_ID_TYPE>
0

> <PUBCHEM_TOTAL_CHARGE>
0

> <PUBCHEM_SUBSTANCE_ID>
310935964

> <PUBCHEM_SUBSTANCE_VERSION>
1

> <PUBCHEM_EXT_DATASOURCE_NAME>
4488

> <PUBCHEM_EXT_DATASOURCE_REGID>
SCHEMBL16113563

> <PUBCHEM_SUBSTANCE_COMMENT>
InChI=1S/C24H20N4O2/c1-15-9-19(18-3-2-7-25-12-18)11-21-22(15)26-14-27-23(21)28-8-6-16-4-5-17(24(29)30)10-20(16)13-28/h2-5,7,9-12,14H,6,8,13H2,1H3,(H,29,30)
InChIKey=SGZNFHOLLNYYKH-UHFFFAOYSA-N

> <PUBCHEM_SUBSTANCE_SYNONYM>
SCHEMBL16113563

> <PUBCHEM_XREF_EXT_ID>
SCHEMBL16113563

> <PUBCHEM_EXT_DATASOURCE_URL>
https://www.surechembl.org/

> <PUBCHEM_EXT_SUBSTANCE_URL>
https://www.surechembl.org/chemical/SCHEMBL16113563

> <PUBCHEM_CID_ASSOCIATIONS>
117603939  1

> <PUBCHEM_COORDINATE_TYPE>
1
3

$$$$
