310944648
  -OEChem-07211613022D

 30 33  0     1  0  0  0  0  0999 V2000
   -3.7146   -0.5218    0.0000 Cl  0  0  0  0  0  0  0  0  0  0  0  0
   -2.8325    2.3853    0.0000 Cl  0  0  0  0  0  0  0  0  0  0  0  0
    0.7454    1.9753    0.0000 O   0  0  0  0  0  0  0  0  0  0  0  0
    4.9693   -0.7702    0.0000 O   0  0  0  0  0  0  0  0  0  0  0  0
    1.4908    0.7330    0.0000 N   0  0  0  0  0  0  0  0  0  0  0  0
    3.5530   -0.7702    0.0000 N   0  0  0  0  0  0  0  0  0  0  0  0
   -0.6708    1.1429    0.0000 N   0  0  0  0  0  0  0  0  0  0  0  0
    2.2734   -0.3603    0.0000 C   0  0  3  0  0  0  0  0  0  0  0  0
    2.7580    0.3230    0.0000 C   0  0  3  0  0  0  0  0  0  0  0  0
    1.4908   -0.0994    0.0000 C   0  0  0  0  0  0  0  0  0  0  0  0
    2.2610    0.9815    0.0000 C   0  0  0  0  0  0  0  0  0  0  0  0
    2.7580   -1.0187    0.0000 C   0  0  0  0  0  0  0  0  0  0  0  0
    3.5530    0.0621    0.0000 C   0  0  0  0  0  0  0  0  0  0  0  0
    0.7454    1.1305    0.0000 C   0  0  0  0  0  0  0  0  0  0  0  0
   -2.8201    0.7330    0.0000 C   0  0  0  0  0  0  0  0  0  0  0  0
   -3.5530    1.1553    0.0000 C   0  0  0  0  0  0  0  0  0  0  0  0
    4.2612   -1.1802    0.0000 C   0  0  0  0  0  0  0  0  0  0  0  0
   -2.8325   -0.0994    0.0000 C   0  0  0  0  0  0  0  0  0  0  0  0
   -1.3914    0.7454    0.0000 C   0  0  0  0  0  0  0  0  0  0  0  0
   -2.1244    1.1305    0.0000 C   0  0  0  0  0  0  0  0  0  0  0  0
    0.0497    0.7330    0.0000 C   0  0  0  0  0  0  0  0  0  0  0  0
   -3.5406    1.9753    0.0000 C   0  0  0  0  0  0  0  0  0  0  0  0
   -2.0995   -0.5093    0.0000 C   0  0  0  0  0  0  0  0  0  0  0  0
   -1.3914   -0.0870    0.0000 C   0  0  0  0  0  0  0  0  0  0  0  0
   -4.2736    0.7454    0.0000 C   0  0  0  0  0  0  0  0  0  0  0  0
    4.2612   -2.0126    0.0000 C   0  0  0  0  0  0  0  0  0  0  0  0
   -4.2736    2.3728    0.0000 C   0  0  0  0  0  0  0  0  0  0  0  0
   -4.9693    1.1553    0.0000 C   0  0  0  0  0  0  0  0  0  0  0  0
   -4.9693    1.9753    0.0000 C   0  0  0  0  0  0  0  0  0  0  0  0
    3.5282   -2.3853    0.0000 C   0  0  0  0  0  0  0  0  0  0  0  0
  1 18  1  0  0  0  0
  2 22  1  0  0  0  0
  3 14  2  0  0  0  0
  4 17  2  0  0  0  0
  5 10  1  0  0  0  0
  5 11  1  0  0  0  0
  5 14  1  0  0  0  0
  6 12  1  0  0  0  0
  6 13  1  0  0  0  0
  6 17  1  0  0  0  0
  7 19  1  0  0  0  0
  7 21  1  0  0  0  0
  8  9  1  0  0  0  0
  8 10  1  0  0  0  0
  8 12  1  0  0  0  0
  9 11  1  0  0  0  0
  9 13  1  0  0  0  0
 14 21  1  0  0  0  0
 15 16  1  0  0  0  0
 15 18  1  0  0  0  0
 15 20  2  0  0  0  0
 16 22  1  0  0  0  0
 16 25  2  0  0  0  0
 17 26  1  0  0  0  0
 18 23  2  0  0  0  0
 19 20  1  0  0  0  0
 19 24  2  0  0  0  0
 22 27  2  0  0  0  0
 23 24  1  0  0  0  0
 25 28  1  0  0  0  0
 26 30  2  0  0  0  0
 27 29  1  0  0  0  0
 28 29  2  0  0  0  0
M  END
> <PUBCHEM_COMPOUND_ID_TYPE>
0

> <PUBCHEM_TOTAL_CHARGE>
0

> <PUBCHEM_SUBSTANCE_ID>
310944648

> <PUBCHEM_SUBSTANCE_VERSION>
1

> <PUBCHEM_EXT_DATASOURCE_NAME>
4488

> <PUBCHEM_EXT_DATASOURCE_REGID>
SCHEMBL16122726

> <PUBCHEM_SUBSTANCE_COMMENT>
InChI=1S/C23H23Cl2N3O2/c1-2-22(29)27-11-15-13-28(14-16(15)12-27)23(30)10-26-17-7-8-21(25)19(9-17)18-5-3-4-6-20(18)24/h2-9,15-16,26H,1,10-14H2
InChIKey=DJIFBAXTMFAMDP-UHFFFAOYSA-N

> <PUBCHEM_SUBSTANCE_SYNONYM>
SCHEMBL16122726

> <PUBCHEM_XREF_EXT_ID>
SCHEMBL16122726

> <PUBCHEM_EXT_DATASOURCE_URL>
https://www.surechembl.org/

> <PUBCHEM_EXT_SUBSTANCE_URL>
https://www.surechembl.org/chemical/SCHEMBL16122726

> <PUBCHEM_CID_ASSOCIATIONS>
117610878  1

> <PUBCHEM_COORDINATE_TYPE>
1
3

$$$$
