310945842
  -OEChem-07211613022D

 37 39  0     1  0  0  0  0  0999 V2000
    3.9912    0.6675    0.0000 O   0  0  0  0  0  0  0  0  0  0  0  0
    2.8627   -1.2868    0.0000 O   0  0  0  0  0  0  0  0  0  0  0  0
    0.7157    0.7776    0.0000 O   0  0  0  0  0  0  0  0  0  0  0  0
   -1.4451   -1.2868    0.0000 O   0  0  0  0  0  0  0  0  0  0  0  0
    2.8627   -2.9247    0.0000 O   0  0  0  0  0  0  0  0  0  0  0  0
   -2.8765    1.1905    0.0000 O   0  0  0  0  0  0  0  0  0  0  0  0
   -3.5922    0.7776    0.0000 O   0  0  0  0  0  0  0  0  0  0  0  0
    1.4314   -0.4473    0.0000 N   0  0  0  0  0  0  0  0  0  0  0  0
   -0.7157   -0.0344    0.0000 N   0  0  0  0  0  0  0  0  0  0  0  0
   -2.8765   -0.4473    0.0000 N   0  0  0  0  0  0  0  0  0  0  0  0
    3.5784    0.0068    0.0000 C   0  0  3  0  0  0  0  0  0  0  0  0
    2.8765   -0.4060    0.0000 C   0  0  0  0  0  0  0  0  0  0  0  0
    3.1930    0.6813    0.0000 C   0  0  0  0  0  0  0  0  0  0  0  0
    2.1470   -0.0206    0.0000 C   0  0  3  0  0  0  0  0  0  0  0  0
    4.3216   -0.4198    0.0000 C   0  0  0  0  0  0  0  0  0  0  0  0
    2.1470    1.2868    0.0000 C   0  0  0  0  0  0  0  0  0  0  0  0
    0.7019   -0.0344    0.0000 C   0  0  0  0  0  0  0  0  0  0  0  0
    0.0138   -0.4336    0.0000 C   0  0  3  0  0  0  0  0  0  0  0  0
    1.4176    1.7135    0.0000 C   0  0  0  0  0  0  0  0  0  0  0  0
    0.0000   -1.2593    0.0000 C   0  0  0  0  0  0  0  0  0  0  0  0
    0.7295   -1.6584    0.0000 C   0  0  0  0  0  0  0  0  0  0  0  0
   -1.4314   -0.4060    0.0000 C   0  0  0  0  0  0  0  0  0  0  0  0
    1.4314    2.5255    0.0000 C   0  0  0  0  0  0  0  0  0  0  0  0
    0.7295    1.3006    0.0000 C   0  0  0  0  0  0  0  0  0  0  0  0
   -2.1470   -0.0206    0.0000 C   0  0  3  0  0  0  0  0  0  0  0  0
    0.7295   -2.4842    0.0000 C   0  0  0  0  0  0  0  0  0  0  0  0
    1.4176   -1.2731    0.0000 C   0  0  0  0  0  0  0  0  0  0  0  0
    2.1333   -2.4842    0.0000 C   0  0  0  0  0  0  0  0  0  0  0  0
    0.7019    2.9247    0.0000 C   0  0  0  0  0  0  0  0  0  0  0  0
    0.0138    1.6997    0.0000 C   0  0  0  0  0  0  0  0  0  0  0  0
    1.4451   -2.8971    0.0000 C   0  0  0  0  0  0  0  0  0  0  0  0
    2.1470   -1.6722    0.0000 C   0  0  0  0  0  0  0  0  0  0  0  0
   -2.1470    0.7914    0.0000 C   0  0  0  0  0  0  0  0  0  0  0  0
    0.0138    2.5255    0.0000 C   0  0  0  0  0  0  0  0  0  0  0  0
   -3.5922   -0.0344    0.0000 C   0  0  0  0  0  0  0  0  0  0  0  0
   -4.3216   -0.4473    0.0000 C   0  0  0  0  0  0  0  0  0  0  0  0
    3.6059   -2.4842    0.0000 C   0  0  0  0  0  0  0  0  0  0  0  0
  1 11  1  0  0  0  0
  1 13  1  0  0  0  0
  2 12  2  0  0  0  0
  3 17  2  0  0  0  0
  4 22  2  0  0  0  0
  5 28  1  0  0  0  0
  5 37  1  0  0  0  0
  6 33  1  0  0  0  0
  7 35  2  0  0  0  0
  8 14  1  0  0  0  0
  8 17  1  0  0  0  0
  9 18  1  0  0  0  0
  9 22  1  0  0  0  0
 10 25  1  0  0  0  0
 10 35  1  0  0  0  0
 11 12  1  0  0  0  0
 11 13  1  0  0  0  0
 11 15  1  0  0  0  0
 12 14  1  0  0  0  0
 14 16  1  0  0  0  0
 16 19  1  0  0  0  0
 17 18  1  0  0  0  0
 18 20  1  0  0  0  0
 19 23  2  0  0  0  0
 19 24  1  0  0  0  0
 20 21  1  0  0  0  0
 21 26  2  0  0  0  0
 21 27  1  0  0  0  0
 22 25  1  0  0  0  0
 23 29  1  0  0  0  0
 24 30  2  0  0  0  0
 25 33  1  0  0  0  0
 26 31  1  0  0  0  0
 27 32  2  0  0  0  0
 28 31  2  0  0  0  0
 28 32  1  0  0  0  0
 29 34  2  0  0  0  0
 30 34  1  0  0  0  0
 35 36  1  0  0  0  0
M  END
> <PUBCHEM_COMPOUND_ID_TYPE>
0

> <PUBCHEM_TOTAL_CHARGE>
0

> <PUBCHEM_SUBSTANCE_ID>
310945842

> <PUBCHEM_SUBSTANCE_VERSION>
1

> <PUBCHEM_EXT_DATASOURCE_NAME>
4488

> <PUBCHEM_EXT_DATASOURCE_REGID>
SCHEMBL16123947

> <PUBCHEM_SUBSTANCE_COMMENT>
InChI=1S/C27H33N3O7/c1-17(32)28-23(15-31)26(35)30-22(14-19-9-11-20(36-3)12-10-19)25(34)29-21(24(33)27(2)16-37-27)13-18-7-5-4-6-8-18/h4-12,21-23,31H,13-16H2,1-3H3,(H,28,32)(H,29,34)(H,30,35)
InChIKey=ZRABBTALFDMQSB-UHFFFAOYSA-N

> <PUBCHEM_SUBSTANCE_SYNONYM>
SCHEMBL16123947

> <PUBCHEM_XREF_EXT_ID>
SCHEMBL16123947

> <PUBCHEM_EXT_DATASOURCE_URL>
https://www.surechembl.org/

> <PUBCHEM_EXT_SUBSTANCE_URL>
https://www.surechembl.org/chemical/SCHEMBL16123947

> <PUBCHEM_CID_ASSOCIATIONS>
117611828  1

> <PUBCHEM_COORDINATE_TYPE>
1
3

$$$$
