310940060
  -OEChem-07211613022D

 17 18  0     1  0  0  0  0  0999 V2000
    1.4956   -0.2723    0.0000 Cl  0  0  0  0  0  0  0  0  0  0  0  0
    4.5745   -1.0973    0.0000 F   0  0  0  0  0  0  0  0  0  0  0  0
    4.1620   -1.8118    0.0000 F   0  0  0  0  0  0  0  0  0  0  0  0
    0.0666   -2.7473    0.0000 O   0  0  0  0  0  0  0  0  0  0  0  0
    2.9245   -1.0973    0.0000 C   0  0  3  0  0  0  0  0  0  0  0  0
    3.7495   -1.0973    0.0000 C   0  0  0  0  0  0  0  0  0  0  0  0
    2.2100   -1.5098    0.0000 C   0  0  0  0  0  0  0  0  0  0  0  0
    3.4917   -0.3828    0.0000 C   0  0  0  0  0  0  0  0  0  0  0  0
    1.4956   -1.0973    0.0000 C   0  0  0  0  0  0  0  0  0  0  0  0
    1.4956   -2.7473    0.0000 C   0  0  0  0  0  0  0  0  0  0  0  0
    2.2100   -2.3348    0.0000 C   0  0  0  0  0  0  0  0  0  0  0  0
    0.7811   -2.3348    0.0000 C   0  0  0  0  0  0  0  0  0  0  0  0
    1.4956   -3.5723    0.0000 C   0  0  0  0  0  0  0  0  0  0  0  0
    0.7811   -1.5098    0.0000 C   0  0  0  0  0  0  0  0  0  0  0  0
    0.6706   -3.5723    0.0000 C   0  0  0  0  0  0  0  0  0  0  0  0
    2.3206   -3.5723    0.0000 C   0  0  0  0  0  0  0  0  0  0  0  0
    1.4956   -4.3973    0.0000 C   0  0  0  0  0  0  0  0  0  0  0  0
  1  9  1  0  0  0  0
  2  6  1  0  0  0  0
  3  6  1  0  0  0  0
  4 12  1  0  0  0  0
  5  6  1  0  0  0  0
  5  7  1  0  0  0  0
  5  8  1  0  0  0  0
  6  8  1  0  0  0  0
  7  9  2  0  0  0  0
  7 11  1  0  0  0  0
  9 14  1  0  0  0  0
 10 11  2  0  0  0  0
 10 12  1  0  0  0  0
 10 13  1  0  0  0  0
 12 14  2  0  0  0  0
 13 15  1  0  0  0  0
 13 16  1  0  0  0  0
 13 17  1  0  0  0  0
M  END
> <PUBCHEM_COMPOUND_ID_TYPE>
0

> <PUBCHEM_TOTAL_CHARGE>
0

> <PUBCHEM_SUBSTANCE_ID>
310940060

> <PUBCHEM_SUBSTANCE_VERSION>
1

> <PUBCHEM_EXT_DATASOURCE_NAME>
4488

> <PUBCHEM_EXT_DATASOURCE_REGID>
SCHEMBL16117990

> <PUBCHEM_SUBSTANCE_COMMENT>
InChI=1S/C13H15ClF2O/c1-12(2,3)8-4-7(9-6-13(9,15)16)10(14)5-11(8)17/h4-5,9,17H,6H2,1-3H3
InChIKey=KIFNWFHEQKBOHV-UHFFFAOYSA-N

> <PUBCHEM_SUBSTANCE_SYNONYM>
SCHEMBL16117990

> <PUBCHEM_XREF_EXT_ID>
SCHEMBL16117990

> <PUBCHEM_EXT_DATASOURCE_URL>
https://www.surechembl.org/

> <PUBCHEM_EXT_SUBSTANCE_URL>
https://www.surechembl.org/chemical/SCHEMBL16117990

> <PUBCHEM_CID_ASSOCIATIONS>
117607206  1

> <PUBCHEM_COORDINATE_TYPE>
1
3

> <PUBCHEM_BONDANNOTATIONS>
13  15  3
13  16  3

$$$$
