310928939
  -OEChem-07211613022D

 10 10  0     1  0  0  0  0  0999 V2000
    1.0101    0.9477    0.0000 O   0  0  0  0  0  0  0  0  0  0  0  0
    1.7246   -0.2898    0.0000 O   0  0  0  0  0  0  0  0  0  0  0  0
   -0.4189    0.1227    0.0000 N   0  0  0  0  0  0  0  0  0  0  0  0
    0.2956   -0.2898    0.0000 C   0  0  3  0  0  0  0  0  0  0  0  0
    1.0101    0.1227    0.0000 C   0  0  0  0  0  0  0  0  0  0  0  0
   -1.1725   -0.2128    0.0000 C   0  0  0  0  0  0  0  0  0  0  0  0
   -0.5051    0.9432    0.0000 C   0  0  0  0  0  0  0  0  0  0  0  0
   -1.7246    0.4003    0.0000 C   0  0  0  0  0  0  0  0  0  0  0  0
   -1.3121    1.1148    0.0000 C   0  0  0  0  0  0  0  0  0  0  0  0
    0.2956   -1.1148    0.0000 C   0  0  0  0  0  0  0  0  0  0  0  0
  1  5  2  0  0  0  0
  2  5  1  0  0  0  0
  3  4  1  0  0  0  0
  3  6  1  0  0  0  0
  3  7  1  0  0  0  0
  4  5  1  0  0  0  0
  4 10  1  0  0  0  0
  6  8  1  0  0  0  0
  7  9  1  0  0  0  0
  8  9  1  0  0  0  0
M  END
> <PUBCHEM_COMPOUND_ID_TYPE>
0

> <PUBCHEM_TOTAL_CHARGE>
0

> <PUBCHEM_SUBSTANCE_ID>
310928939

> <PUBCHEM_SUBSTANCE_VERSION>
1

> <PUBCHEM_EXT_DATASOURCE_NAME>
11752

> <PUBCHEM_EXT_DATASOURCE_REGID>
BD171231

> <PUBCHEM_SUBSTANCE_SYNONYM>
123912-78-7
2-(Pyrrolidin-1-yl)propanoic acid

> <PUBCHEM_GENERIC_REGISTRY_NAME>
123912-78-7

> <PUBCHEM_XREF_EXT_ID>
BD171231

> <PUBCHEM_EXT_DATASOURCE_URL>
http://www.bidepharmatech.com/en/index.html

> <PUBCHEM_EXT_SUBSTANCE_URL>
http://www.bidepharmatech.com/en/goodsview_goodscode_BD171231.html

> <PUBCHEM_CID_ASSOCIATIONS>
3157177  1

> <PUBCHEM_COORDINATE_TYPE>
1
3

$$$$
