310947024
  -OEChem-07211613022D

 45 50  0     1  0  0  0  0  0999 V2000
   -3.4316   -1.7222    0.0000 F   0  0  0  0  0  0  0  0  0  0  0  0
   -4.8606   -2.5472    0.0000 O   0  0  0  0  0  0  0  0  0  0  0  0
    5.3539    1.0548    0.0000 O   0  0  0  0  0  0  0  0  0  0  0  0
   -6.2894   -0.0722    0.0000 O   0  0  0  0  0  0  0  0  0  0  0  0
    5.3539   -0.3741    0.0000 O   0  0  0  0  0  0  0  0  0  0  0  0
   -1.5200    2.9597    0.0000 O   0  0  0  0  0  0  0  0  0  0  0  0
   -3.4316   -0.0722    0.0000 N   0  0  0  0  0  0  0  0  0  0  0  0
    2.1248    0.3403    0.0000 N   0  0  0  0  0  0  0  0  0  0  0  0
   -2.0027   -0.0722    0.0000 N   0  0  0  0  0  0  0  0  0  0  0  0
   -0.5737   -0.0722    0.0000 N   0  0  0  0  0  0  0  0  0  0  0  0
    4.1165    0.3403    0.0000 N   0  0  0  0  0  0  0  0  0  0  0  0
    1.6398    1.0077    0.0000 N   0  0  0  0  0  0  0  0  0  0  0  0
   -0.5737   -1.7222    0.0000 N   0  0  0  0  0  0  0  0  0  0  0  0
   -2.7171    1.9903    0.0000 N   0  0  0  0  0  0  0  0  0  0  0  0
   -2.7171   -0.4847    0.0000 C   0  0  0  0  0  0  0  0  0  0  0  0
   -4.1460   -0.4847    0.0000 C   0  0  0  0  0  0  0  0  0  0  0  0
   -1.2882   -0.4847    0.0000 C   0  0  0  0  0  0  0  0  0  0  0  0
    0.1407   -0.4847    0.0000 C   0  0  0  0  0  0  0  0  0  0  0  0
    0.8551   -0.0722    0.0000 C   0  0  0  0  0  0  0  0  0  0  0  0
    2.9497    0.3403    0.0000 C   0  0  0  0  0  0  0  0  0  0  0  0
   -1.2882   -1.3096    0.0000 C   0  0  0  0  0  0  0  0  0  0  0  0
   -4.1460   -1.3096    0.0000 C   0  0  0  0  0  0  0  0  0  0  0  0
    1.6398   -0.3272    0.0000 C   0  0  0  0  0  0  0  0  0  0  0  0
    3.5331   -0.2431    0.0000 C   0  0  0  0  0  0  0  0  0  0  0  0
    3.5331    0.9236    0.0000 C   0  0  0  0  0  0  0  0  0  0  0  0
   -2.7171   -1.3096    0.0000 C   0  0  0  0  0  0  0  0  0  0  0  0
   -4.8606   -1.7222    0.0000 C   0  0  0  0  0  0  0  0  0  0  0  0
   -4.8606   -0.0722    0.0000 C   0  0  0  0  0  0  0  0  0  0  0  0
   -3.4316    0.7527    0.0000 C   0  0  0  0  0  0  0  0  0  0  0  0
   -2.0027   -1.7222    0.0000 C   0  0  0  0  0  0  0  0  0  0  0  0
    0.8551    0.7527    0.0000 C   0  0  0  0  0  0  0  0  0  0  0  0
    0.1407   -1.3096    0.0000 C   0  0  0  0  0  0  0  0  0  0  0  0
   -5.5750   -0.4847    0.0000 C   0  0  0  0  0  0  0  0  0  0  0  0
    4.9414    0.3403    0.0000 C   0  0  0  0  0  0  0  0  0  0  0  0
   -2.7171    1.1652    0.0000 C   0  0  3  0  0  0  0  0  0  0  0  0
   -5.5750   -1.3096    0.0000 C   0  0  0  0  0  0  0  0  0  0  0  0
   -1.9325    0.9104    0.0000 C   0  0  0  0  0  0  0  0  0  0  0  0
   -1.9325    2.2453    0.0000 C   0  0  0  0  0  0  0  0  0  0  0  0
    6.1789    1.0548    0.0000 C   0  0  0  0  0  0  0  0  0  0  0  0
   -1.4476    1.5778    0.0000 C   0  0  0  0  0  0  0  0  0  0  0  0
   -5.5750   -2.9597    0.0000 C   0  0  0  0  0  0  0  0  0  0  0  0
   -7.0039   -0.4847    0.0000 C   0  0  0  0  0  0  0  0  0  0  0  0
    6.5915    1.7692    0.0000 C   0  0  0  0  0  0  0  0  0  0  0  0
    6.5915    0.3403    0.0000 C   0  0  0  0  0  0  0  0  0  0  0  0
    7.0039    1.0548    0.0000 C   0  0  0  0  0  0  0  0  0  0  0  0
  1 22  1  0  0  0  0
  2 27  1  0  0  0  0
  2 41  1  0  0  0  0
  3 34  1  0  0  0  0
  3 39  1  0  0  0  0
  4 33  1  0  0  0  0
  4 42  1  0  0  0  0
  5 34  2  0  0  0  0
  6 38  2  0  0  0  0
  7 15  1  0  0  0  0
  7 16  1  0  0  0  0
  7 29  1  0  0  0  0
  8 12  1  0  0  0  0
  8 20  1  0  0  0  0
  8 23  1  0  0  0  0
  9 15  2  0  0  0  0
  9 17  1  0  0  0  0
 10 17  2  0  0  0  0
 10 18  1  0  0  0  0
 11 24  1  0  0  0  0
 11 25  1  0  0  0  0
 11 34  1  0  0  0  0
 12 31  2  0  0  0  0
 13 21  2  0  0  0  0
 13 32  1  0  0  0  0
 14 35  1  0  0  0  0
 14 38  1  0  0  0  0
 15 26  1  0  0  0  0
 16 22  1  0  0  0  0
 16 28  2  0  0  0  0
 17 21  1  0  0  0  0
 18 19  1  0  0  0  0
 18 32  2  0  0  0  0
 19 23  2  0  0  0  0
 19 31  1  0  0  0  0
 20 24  1  0  0  0  0
 20 25  1  0  0  0  0
 21 30  1  0  0  0  0
 22 27  2  0  0  0  0
 26 30  2  0  0  0  0
 27 36  1  0  0  0  0
 28 33  1  0  0  0  0
 29 35  1  0  0  0  0
 33 36  2  0  0  0  0
 35 37  1  0  0  0  0
 37 40  1  0  0  0  0
 38 40  1  0  0  0  0
 39 43  1  0  0  0  0
 39 44  1  0  0  0  0
 39 45  1  0  0  0  0
M  END
> <PUBCHEM_COMPOUND_ID_TYPE>
0

> <PUBCHEM_TOTAL_CHARGE>
0

> <PUBCHEM_SUBSTANCE_ID>
310947024

> <PUBCHEM_SUBSTANCE_VERSION>
1

> <PUBCHEM_EXT_DATASOURCE_NAME>
4488

> <PUBCHEM_EXT_DATASOURCE_REGID>
SCHEMBL16125177

> <PUBCHEM_SUBSTANCE_COMMENT>
InChI=1S/C31H35FN8O5/c1-31(2,3)45-30(42)38-16-20(17-38)40-14-18(12-34-40)23-13-33-22-7-8-26(37-29(22)36-23)39(15-19-6-9-27(41)35-19)24-10-21(43-4)11-25(44-5)28(24)32/h7-8,10-14,19-20H,6,9,15-17H2,1-5H3,(H,35,41)
InChIKey=PQSXOAQPUVVOJO-UHFFFAOYSA-N

> <PUBCHEM_SUBSTANCE_SYNONYM>
SCHEMBL16125177

> <PUBCHEM_XREF_EXT_ID>
SCHEMBL16125177

> <PUBCHEM_EXT_DATASOURCE_URL>
https://www.surechembl.org/

> <PUBCHEM_EXT_SUBSTANCE_URL>
https://www.surechembl.org/chemical/SCHEMBL16125177

> <PUBCHEM_CID_ASSOCIATIONS>
117612876  1

> <PUBCHEM_COORDINATE_TYPE>
1
3

$$$$
