310939645
  -OEChem-07211613022D

 39 41  0     1  0  0  0  0  0999 V2000
    0.0000    3.5062    0.0000 Cl  0  0  0  0  0  0  0  0  0  0  0  0
   -1.4289    1.0313    0.0000 O   0  0  0  0  0  0  0  0  0  0  0  0
    3.5724   -2.6812    0.0000 O   0  0  0  0  0  0  0  0  0  0  0  0
    2.1434   -3.5062    0.0000 O   0  0  0  0  0  0  0  0  0  0  0  0
    5.0013   -0.2062    0.0000 O   0  0  0  0  0  0  0  0  0  0  0  0
    2.8579    3.5062    0.0000 O   0  0  0  0  0  0  0  0  0  0  0  0
   -2.8579    0.2062    0.0000 O   0  0  0  0  0  0  0  0  0  0  0  0
    1.4289    0.2062    0.0000 N   0  0  0  0  0  0  0  0  0  0  0  0
    2.1434    1.4437    0.0000 N   0  0  0  0  0  0  0  0  0  0  0  0
    3.5724    1.4437    0.0000 N   0  0  0  0  0  0  0  0  0  0  0  0
   -4.2868    1.0313    0.0000 N   0  0  0  0  0  0  0  0  0  0  0  0
    1.4289    1.0313    0.0000 C   0  0  0  0  0  0  0  0  0  0  0  0
    2.1434   -0.2062    0.0000 C   0  0  0  0  0  0  0  0  0  0  0  0
    2.8579    1.0313    0.0000 C   0  0  0  0  0  0  0  0  0  0  0  0
    0.7145    1.4437    0.0000 C   0  0  0  0  0  0  0  0  0  0  0  0
    2.1434   -1.0313    0.0000 C   0  0  0  0  0  0  0  0  0  0  0  0
    2.8579    0.2062    0.0000 C   0  0  0  0  0  0  0  0  0  0  0  0
    2.8579   -1.4437    0.0000 C   0  0  0  0  0  0  0  0  0  0  0  0
    0.0000    1.0313    0.0000 C   0  0  0  0  0  0  0  0  0  0  0  0
    0.7145    2.2687    0.0000 C   0  0  0  0  0  0  0  0  0  0  0  0
    2.8579   -2.2687    0.0000 C   0  0  0  0  0  0  0  0  0  0  0  0
    1.4289   -1.4437    0.0000 C   0  0  0  0  0  0  0  0  0  0  0  0
   -0.7145    1.4437    0.0000 C   0  0  0  0  0  0  0  0  0  0  0  0
    2.1434   -2.6812    0.0000 C   0  0  0  0  0  0  0  0  0  0  0  0
    0.0000    2.6812    0.0000 C   0  0  0  0  0  0  0  0  0  0  0  0
    1.4289   -2.2687    0.0000 C   0  0  0  0  0  0  0  0  0  0  0  0
   -0.7145    2.2687    0.0000 C   0  0  0  0  0  0  0  0  0  0  0  0
    4.2868    1.0313    0.0000 C   0  0  0  0  0  0  0  0  0  0  0  0
    3.5724    2.2687    0.0000 C   0  0  0  0  0  0  0  0  0  0  0  0
    4.2868    0.2062    0.0000 C   0  0  0  0  0  0  0  0  0  0  0  0
    2.8579    2.6812    0.0000 C   0  0  0  0  0  0  0  0  0  0  0  0
   -2.1434    1.4437    0.0000 C   0  0  0  0  0  0  0  0  0  0  0  0
    4.2868   -2.2687    0.0000 C   0  0  0  0  0  0  0  0  0  0  0  0
   -2.8579    1.0313    0.0000 C   0  0  3  0  0  0  0  0  0  0  0  0
    1.4289   -3.9187    0.0000 C   0  0  0  0  0  0  0  0  0  0  0  0
   -3.5724    1.4437    0.0000 C   0  0  0  0  0  0  0  0  0  0  0  0
    5.0013   -1.0313    0.0000 C   0  0  0  0  0  0  0  0  0  0  0  0
    2.1434    3.9187    0.0000 C   0  0  0  0  0  0  0  0  0  0  0  0
   -5.0013    1.4437    0.0000 C   0  0  0  0  0  0  0  0  0  0  0  0
  1 25  1  0  0  0  0
  2 23  1  0  0  0  0
  2 32  1  0  0  0  0
  3 21  1  0  0  0  0
  3 33  1  0  0  0  0
  4 24  1  0  0  0  0
  4 35  1  0  0  0  0
  5 30  1  0  0  0  0
  5 37  1  0  0  0  0
  6 31  1  0  0  0  0
  6 38  1  0  0  0  0
  7 34  1  0  0  0  0
  8 12  2  0  0  0  0
  8 13  1  0  0  0  0
  9 12  1  0  0  0  0
  9 14  2  0  0  0  0
 10 14  1  0  0  0  0
 10 28  1  0  0  0  0
 10 29  1  0  0  0  0
 11 36  1  0  0  0  0
 11 39  1  0  0  0  0
 12 15  1  0  0  0  0
 13 16  1  0  0  0  0
 13 17  2  0  0  0  0
 14 17  1  0  0  0  0
 15 19  2  0  0  0  0
 15 20  1  0  0  0  0
 16 18  1  0  0  0  0
 16 22  2  0  0  0  0
 18 21  2  0  0  0  0
 19 23  1  0  0  0  0
 20 25  2  0  0  0  0
 21 24  1  0  0  0  0
 22 26  1  0  0  0  0
 23 27  2  0  0  0  0
 24 26  2  0  0  0  0
 25 27  1  0  0  0  0
 28 30  1  0  0  0  0
 29 31  1  0  0  0  0
 32 34  1  0  0  0  0
 34 36  1  0  0  0  0
M  END
> <PUBCHEM_COMPOUND_ID_TYPE>
0

> <PUBCHEM_TOTAL_CHARGE>
0

> <PUBCHEM_SUBSTANCE_ID>
310939645

> <PUBCHEM_SUBSTANCE_VERSION>
1

> <PUBCHEM_EXT_DATASOURCE_NAME>
4488

> <PUBCHEM_EXT_DATASOURCE_REGID>
SCHEMBL16117575

> <PUBCHEM_SUBSTANCE_COMMENT>
InChI=1S/C28H37ClN4O6/c1-30-17-22(34)18-39-23-13-20(12-21(29)15-23)28-31-24(19-6-7-25(37-4)26(14-19)38-5)16-27(32-28)33(8-10-35-2)9-11-36-3/h6-7,12-16,22,30,34H,8-11,17-18H2,1-5H3
InChIKey=DJRQFCYGIZUAQS-UHFFFAOYSA-N

> <PUBCHEM_SUBSTANCE_SYNONYM>
SCHEMBL16117575

> <PUBCHEM_XREF_EXT_ID>
SCHEMBL16117575

> <PUBCHEM_EXT_DATASOURCE_URL>
https://www.surechembl.org/

> <PUBCHEM_EXT_SUBSTANCE_URL>
https://www.surechembl.org/chemical/SCHEMBL16117575

> <PUBCHEM_CID_ASSOCIATIONS>
85473058  1

> <PUBCHEM_COORDINATE_TYPE>
1
3

$$$$
