310932492
  -OEChem-07211613022D

 20 22  0     1  0  0  0  0  0999 V2000
    0.8089    0.0000    0.0000 O   0  0  0  0  0  0  0  0  0  0  0  0
    1.9325   -1.9549    0.0000 O   0  0  0  0  0  0  0  0  0  0  0  0
    2.6515   -0.7191    0.0000 O   0  0  0  0  0  0  0  0  0  0  0  0
    0.3820   -3.9099    0.0000 O   0  0  0  0  0  0  0  0  0  0  0  0
    1.2359   -0.7191    0.0000 C   0  0  3  0  0  0  0  0  0  0  0  0
    1.0112   -1.5280    0.0000 C   0  0  0  0  0  0  0  0  0  0  0  0
    0.4045   -0.7191    0.0000 C   0  0  0  0  0  0  0  0  0  0  0  0
    1.9325   -1.1236    0.0000 C   0  0  0  0  0  0  0  0  0  0  0  0
    1.5954   -2.1122    0.0000 C   0  0  0  0  0  0  0  0  0  0  0  0
    0.2247   -1.7527    0.0000 C   0  0  0  0  0  0  0  0  0  0  0  0
    2.6515   -2.3819    0.0000 C   0  0  0  0  0  0  0  0  0  0  0  0
    1.3932   -2.8987    0.0000 C   0  0  0  0  0  0  0  0  0  0  0  0
    0.0000   -2.5392    0.0000 C   0  0  0  0  0  0  0  0  0  0  0  0
    0.5842   -3.1234    0.0000 C   0  0  0  0  0  0  0  0  0  0  0  0
    3.3706   -1.9549    0.0000 C   0  0  0  0  0  0  0  0  0  0  0  0
    2.6740   -3.1908    0.0000 C   0  0  0  0  0  0  0  0  0  0  0  0
    4.0896   -2.3594    0.0000 C   0  0  0  0  0  0  0  0  0  0  0  0
    3.3706   -3.5953    0.0000 C   0  0  0  0  0  0  0  0  0  0  0  0
    4.0896   -3.1908    0.0000 C   0  0  0  0  0  0  0  0  0  0  0  0
    0.9662   -4.4941    0.0000 C   0  0  0  0  0  0  0  0  0  0  0  0
  1  5  1  0  0  0  0
  1  7  1  0  0  0  0
  2  8  1  0  0  0  0
  2 11  1  0  0  0  0
  3  8  2  0  0  0  0
  4 14  1  0  0  0  0
  4 20  1  0  0  0  0
  5  6  1  0  0  0  0
  5  7  1  0  0  0  0
  5  8  1  0  0  0  0
  6  9  2  0  0  0  0
  6 10  1  0  0  0  0
  9 12  1  0  0  0  0
 10 13  2  0  0  0  0
 11 15  2  0  0  0  0
 11 16  1  0  0  0  0
 12 14  2  0  0  0  0
 13 14  1  0  0  0  0
 15 17  1  0  0  0  0
 16 18  2  0  0  0  0
 17 19  2  0  0  0  0
 18 19  1  0  0  0  0
M  END
> <PUBCHEM_COMPOUND_ID_TYPE>
0

> <PUBCHEM_TOTAL_CHARGE>
0

> <PUBCHEM_SUBSTANCE_ID>
310932492

> <PUBCHEM_SUBSTANCE_VERSION>
1

> <PUBCHEM_EXT_DATASOURCE_NAME>
4488

> <PUBCHEM_EXT_DATASOURCE_REGID>
SCHEMBL16109864

> <PUBCHEM_SUBSTANCE_COMMENT>
InChI=1S/C16H14O4/c1-18-13-9-7-12(8-10-13)16(11-19-16)15(17)20-14-5-3-2-4-6-14/h2-10H,11H2,1H3
InChIKey=PODDWIQLGCCOHK-UHFFFAOYSA-N

> <PUBCHEM_SUBSTANCE_SYNONYM>
SCHEMBL16109864

> <PUBCHEM_XREF_EXT_ID>
SCHEMBL16109864

> <PUBCHEM_EXT_DATASOURCE_URL>
https://www.surechembl.org/

> <PUBCHEM_EXT_SUBSTANCE_URL>
https://www.surechembl.org/chemical/SCHEMBL16109864

> <PUBCHEM_CID_ASSOCIATIONS>
117601028  1

> <PUBCHEM_COORDINATE_TYPE>
1
3

$$$$
