310936561
  -OEChem-07211613022D

 35 38  0     1  0  0  0  0  0999 V2000
   -0.9651   -3.8230    0.0000 S   0  0  0  0  0  0  0  0  0  0  0  0
    2.7474   -5.1414    0.0000 O   0  0  0  0  0  0  0  0  0  0  0  0
   -1.3776   -3.1086    0.0000 O   0  0  0  0  0  0  0  0  0  0  0  0
   -0.2507   -3.4105    0.0000 O   0  0  0  0  0  0  0  0  0  0  0  0
   -1.6796   -4.2355    0.0000 O   0  0  0  0  0  0  0  0  0  0  0  0
    1.9224   -4.5375    0.0000 O   0  0  0  0  0  0  0  0  0  0  0  0
   -2.6151   -3.8230    0.0000 O   0  0  0  0  0  0  0  0  0  0  0  0
    2.7474   -5.9664    0.0000 C   0  0  0  0  0  0  0  0  0  0  0  0
    2.7474   -6.7914    0.0000 C   0  0  0  0  0  0  0  0  0  0  0  0
    3.5724   -5.9664    0.0000 C   0  0  0  0  0  0  0  0  0  0  0  0
    1.9224   -5.9664    0.0000 C   0  0  0  0  0  0  0  0  0  0  0  0
   -0.5526   -4.5375    0.0000 C   0  0  0  0  0  0  0  0  0  0  0  0
    1.5099   -5.2520    0.0000 C   0  0  3  0  0  0  0  0  0  0  0  0
    0.6849   -5.2520    0.0000 C   0  0  0  0  0  0  0  0  0  0  0  0
    0.2724   -4.5375    0.0000 C   0  0  0  0  0  0  0  0  0  0  0  0
    3.4618   -7.2039    0.0000 C   0  0  0  0  0  0  0  0  0  0  0  0
    3.9849   -5.2520    0.0000 C   0  0  0  0  0  0  0  0  0  0  0  0
    2.0329   -7.2039    0.0000 C   0  0  0  0  0  0  0  0  0  0  0  0
    3.9849   -6.6809    0.0000 C   0  0  0  0  0  0  0  0  0  0  0  0
   -0.9651   -5.2520    0.0000 C   0  0  0  0  0  0  0  0  0  0  0  0
    0.2724   -5.9664    0.0000 C   0  0  0  0  0  0  0  0  0  0  0  0
   -2.2026   -3.1086    0.0000 C   0  0  0  0  0  0  0  0  0  0  0  0
   -0.5526   -5.9664    0.0000 C   0  0  0  0  0  0  0  0  0  0  0  0
   -2.6151   -2.3941    0.0000 C   0  0  0  0  0  0  0  0  0  0  0  0
    3.4618   -8.0289    0.0000 C   0  0  0  0  0  0  0  0  0  0  0  0
    4.8099   -5.2520    0.0000 C   0  0  0  0  0  0  0  0  0  0  0  0
    2.0329   -8.0289    0.0000 C   0  0  0  0  0  0  0  0  0  0  0  0
    4.8099   -6.6809    0.0000 C   0  0  0  0  0  0  0  0  0  0  0  0
    2.7474   -8.4414    0.0000 C   0  0  0  0  0  0  0  0  0  0  0  0
    5.2224   -5.9664    0.0000 C   0  0  0  0  0  0  0  0  0  0  0  0
   -3.4401   -2.3941    0.0000 C   0  0  0  0  0  0  0  0  0  0  0  0
   -2.2026   -1.6796    0.0000 C   0  0  0  0  0  0  0  0  0  0  0  0
   -3.8526   -1.6796    0.0000 C   0  0  0  0  0  0  0  0  0  0  0  0
   -2.6151   -0.9651    0.0000 C   0  0  0  0  0  0  0  0  0  0  0  0
   -3.4401   -0.9651    0.0000 C   0  0  0  0  0  0  0  0  0  0  0  0
  1  3  1  0  0  0  0
  1  4  2  0  0  0  0
  1  5  2  0  0  0  0
  1 12  1  0  0  0  0
  2  8  1  0  0  0  0
  3 22  1  0  0  0  0
  6 13  1  0  0  0  0
  7 22  2  0  0  0  0
  8  9  1  0  0  0  0
  8 10  1  0  0  0  0
  8 11  1  0  0  0  0
  9 16  2  0  0  0  0
  9 18  1  0  0  0  0
 10 17  2  0  0  0  0
 10 19  1  0  0  0  0
 11 13  1  0  0  0  0
 12 15  2  0  0  0  0
 12 20  1  0  0  0  0
 13 14  1  0  0  0  0
 14 15  1  0  0  0  0
 14 21  2  0  0  0  0
 16 25  1  0  0  0  0
 17 26  1  0  0  0  0
 18 27  2  0  0  0  0
 19 28  2  0  0  0  0
 20 23  2  0  0  0  0
 21 23  1  0  0  0  0
 22 24  1  0  0  0  0
 24 31  2  0  0  0  0
 24 32  1  0  0  0  0
 25 29  2  0  0  0  0
 26 30  2  0  0  0  0
 27 29  1  0  0  0  0
 28 30  1  0  0  0  0
 31 33  1  0  0  0  0
 32 34  2  0  0  0  0
 33 35  2  0  0  0  0
 34 35  1  0  0  0  0
M  END
> <PUBCHEM_COMPOUND_ID_TYPE>
0

> <PUBCHEM_TOTAL_CHARGE>
0

> <PUBCHEM_SUBSTANCE_ID>
310936561

> <PUBCHEM_SUBSTANCE_VERSION>
1

> <PUBCHEM_EXT_DATASOURCE_NAME>
4488

> <PUBCHEM_EXT_DATASOURCE_REGID>
SCHEMBL16114215

> <PUBCHEM_SUBSTANCE_COMMENT>
InChI=1S/C28H24O6S/c29-26(20-28(31,23-14-6-2-7-15-23)24-16-8-3-9-17-24)22-13-10-18-25(19-22)35(32,33)34-27(30)21-11-4-1-5-12-21/h1-19,26,29,31H,20H2
InChIKey=JFFBHNFQXMGQFH-UHFFFAOYSA-N

> <PUBCHEM_SUBSTANCE_SYNONYM>
SCHEMBL16114215

> <PUBCHEM_XREF_EXT_ID>
SCHEMBL16114215

> <PUBCHEM_EXT_DATASOURCE_URL>
https://www.surechembl.org/

> <PUBCHEM_EXT_SUBSTANCE_URL>
https://www.surechembl.org/chemical/SCHEMBL16114215

> <PUBCHEM_CID_ASSOCIATIONS>
117604481  1

> <PUBCHEM_COORDINATE_TYPE>
1
3

$$$$
