310932097
  -OEChem-07211613022D

 25 28  0     1  0  0  0  0  0999 V2000
    1.4437   -4.1248    0.0000 O   0  0  0  0  0  0  0  0  0  0  0  0
    5.5890   -2.1861    0.0000 O   0  0  0  0  0  0  0  0  0  0  0  0
    0.0000   -4.1248    0.0000 O   0  0  0  0  0  0  0  0  0  0  0  0
    0.7012   -2.8873    0.0000 N   0  0  0  0  0  0  0  0  0  0  0  0
    5.1972   -1.4849    0.0000 N   0  0  0  0  0  0  0  0  0  0  0  0
    2.1655   -2.8873    0.0000 C   0  0  0  0  0  0  0  0  0  0  0  0
    1.4437   -2.4749    0.0000 C   0  0  3  0  0  0  0  0  0  0  0  0
    2.1655   -3.7123    0.0000 C   0  0  0  0  0  0  0  0  0  0  0  0
    3.5679   -2.8873    0.0000 C   0  0  0  0  0  0  0  0  0  0  0  0
    4.2897   -2.4749    0.0000 C   0  0  0  0  0  0  0  0  0  0  0  0
    2.8461   -2.4749    0.0000 C   0  0  0  0  0  0  0  0  0  0  0  0
    1.4437   -1.6499    0.0000 C   0  0  0  0  0  0  0  0  0  0  0  0
    0.7012   -3.7123    0.0000 C   0  0  0  0  0  0  0  0  0  0  0  0
    2.8461   -4.1248    0.0000 C   0  0  0  0  0  0  0  0  0  0  0  0
    3.5679   -3.7123    0.0000 C   0  0  0  0  0  0  0  0  0  0  0  0
    5.0529   -2.8048    0.0000 C   0  0  0  0  0  0  0  0  0  0  0  0
    4.3723   -1.6499    0.0000 C   0  0  0  0  0  0  0  0  0  0  0  0
    0.7218   -1.2374    0.0000 C   0  0  0  0  0  0  0  0  0  0  0  0
    2.1449   -1.2374    0.0000 C   0  0  0  0  0  0  0  0  0  0  0  0
    0.0000   -2.4749    0.0000 C   0  0  0  0  0  0  0  0  0  0  0  0
    5.2178   -3.6091    0.0000 C   0  0  0  0  0  0  0  0  0  0  0  0
    3.7742   -1.1137    0.0000 C   0  0  0  0  0  0  0  0  0  0  0  0
    0.7218   -0.4125    0.0000 C   0  0  0  0  0  0  0  0  0  0  0  0
    2.1449   -0.4125    0.0000 C   0  0  0  0  0  0  0  0  0  0  0  0
    1.4437    0.0000    0.0000 C   0  0  0  0  0  0  0  0  0  0  0  0
  1  8  1  0  0  0  0
  1 13  1  0  0  0  0
  2  5  1  0  0  0  0
  2 16  1  0  0  0  0
  3 13  2  0  0  0  0
  4  7  1  0  0  0  0
  4 13  1  0  0  0  0
  4 20  1  0  0  0  0
  5 17  2  0  0  0  0
  6  7  1  0  0  0  0
  6  8  2  0  0  0  0
  6 11  1  0  0  0  0
  7 12  1  0  0  0  0
  8 14  1  0  0  0  0
  9 10  1  0  0  0  0
  9 11  2  0  0  0  0
  9 15  1  0  0  0  0
 10 16  2  0  0  0  0
 10 17  1  0  0  0  0
 12 18  2  0  0  0  0
 12 19  1  0  0  0  0
 14 15  2  0  0  0  0
 16 21  1  0  0  0  0
 17 22  1  0  0  0  0
 18 23  1  0  0  0  0
 19 24  2  0  0  0  0
 23 25  2  0  0  0  0
 24 25  1  0  0  0  0
M  END
> <PUBCHEM_COMPOUND_ID_TYPE>
0

> <PUBCHEM_TOTAL_CHARGE>
0

> <PUBCHEM_SUBSTANCE_ID>
310932097

> <PUBCHEM_SUBSTANCE_VERSION>
1

> <PUBCHEM_EXT_DATASOURCE_NAME>
4488

> <PUBCHEM_EXT_DATASOURCE_REGID>
SCHEMBL16109445

> <PUBCHEM_SUBSTANCE_COMMENT>
InChI=1S/C20H18N2O3/c1-12-18(13(2)25-21-12)15-9-10-17-16(11-15)19(22(3)20(23)24-17)14-7-5-4-6-8-14/h4-11,19H,1-3H3
InChIKey=SGYYJSPRYJQCGC-UHFFFAOYSA-N

> <PUBCHEM_SUBSTANCE_SYNONYM>
SCHEMBL16109445

> <PUBCHEM_XREF_EXT_ID>
SCHEMBL16109445

> <PUBCHEM_EXT_DATASOURCE_URL>
https://www.surechembl.org/

> <PUBCHEM_EXT_SUBSTANCE_URL>
https://www.surechembl.org/chemical/SCHEMBL16109445

> <PUBCHEM_CID_ASSOCIATIONS>
86273347  1

> <PUBCHEM_COORDINATE_TYPE>
1
3

$$$$
