310934876
  -OEChem-07211613022D

 15 17  0     1  0  0  0  0  0999 V2000
    3.8313    0.4591    0.0000 O   0  0  0  0  0  0  0  0  0  0  0  0
   -0.5628   -1.7356    0.0000 N   0  0  0  0  0  0  0  0  0  0  0  0
   -1.3876   -1.7193    0.0000 N   0  0  0  0  0  0  0  0  0  0  0  0
   -1.6270   -0.9298    0.0000 N   0  0  0  0  0  0  0  0  0  0  0  0
   -0.2924   -0.9561    0.0000 C   0  0  0  0  0  0  0  0  0  0  0  0
    0.5324   -0.9724    0.0000 C   0  0  0  0  0  0  0  0  0  0  0  0
    0.7719   -1.7619    0.0000 C   0  0  0  0  0  0  0  0  0  0  0  0
    0.0950   -2.2336    0.0000 C   0  0  0  0  0  0  0  0  0  0  0  0
    1.0964   -0.3703    0.0000 C   0  0  0  0  0  0  0  0  0  0  0  0
   -0.9502   -0.4581    0.0000 C   0  0  0  0  0  0  0  0  0  0  0  0
    1.5753   -1.9493    0.0000 C   0  0  0  0  0  0  0  0  0  0  0  0
    1.8999   -0.5577    0.0000 C   0  0  3  0  0  0  0  0  0  0  0  0
    2.1393   -1.3472    0.0000 C   0  0  0  0  0  0  0  0  0  0  0  0
    2.4639    0.0444    0.0000 C   0  0  0  0  0  0  0  0  0  0  0  0
    3.2673   -0.1430    0.0000 C   0  0  0  0  0  0  0  0  0  0  0  0
  1 15  2  0  0  0  0
  2  3  1  0  0  0  0
  2  5  1  0  0  0  0
  2  8  1  0  0  0  0
  3  4  2  0  0  0  0
  4 10  1  0  0  0  0
  5  6  1  0  0  0  0
  5 10  2  0  0  0  0
  6  7  1  0  0  0  0
  6  9  2  0  0  0  0
  7  8  2  0  0  0  0
  7 11  1  0  0  0  0
  9 12  1  0  0  0  0
 11 13  2  0  0  0  0
 12 13  1  0  0  0  0
 12 14  1  0  0  0  0
 14 15  1  0  0  0  0
M  END
> <PUBCHEM_COMPOUND_ID_TYPE>
0

> <PUBCHEM_TOTAL_CHARGE>
0

> <PUBCHEM_SUBSTANCE_ID>
310934876

> <PUBCHEM_SUBSTANCE_VERSION>
1

> <PUBCHEM_EXT_DATASOURCE_NAME>
4488

> <PUBCHEM_EXT_DATASOURCE_REGID>
SCHEMBL16112385

> <PUBCHEM_SUBSTANCE_COMMENT>
InChI=1S/C11H9N3O/c15-4-3-8-1-2-9-7-14-11(6-12-13-14)10(9)5-8/h1-2,4-8H,3H2
InChIKey=JPXYHKJLBIMYRR-UHFFFAOYSA-N

> <PUBCHEM_SUBSTANCE_SYNONYM>
SCHEMBL16112385

> <PUBCHEM_XREF_EXT_ID>
SCHEMBL16112385

> <PUBCHEM_EXT_DATASOURCE_URL>
https://www.surechembl.org/

> <PUBCHEM_EXT_SUBSTANCE_URL>
https://www.surechembl.org/chemical/SCHEMBL16112385

> <PUBCHEM_CID_ASSOCIATIONS>
117603008  1

> <PUBCHEM_COORDINATE_TYPE>
1
3

$$$$
