310934795
  -OEChem-07211613022D

 25 27  0     1  0  0  0  0  0999 V2000
    6.4638   -1.6293    0.0000 F   0  0  0  0  0  0  0  0  0  0  0  0
    6.4638   -2.4573    0.0000 O   0  0  0  0  0  0  0  0  0  0  0  0
    5.7426   -3.7127    0.0000 O   0  0  0  0  0  0  0  0  0  0  0  0
    0.7479   -4.1133    0.0000 N   0  0  0  0  0  0  0  0  0  0  0  0
    1.4423   -5.3420    0.0000 N   0  0  0  0  0  0  0  0  0  0  0  0
    5.0481   -2.4573    0.0000 C   0  0  3  0  0  0  0  0  0  0  0  0
    4.3270   -2.8847    0.0000 C   0  0  0  0  0  0  0  0  0  0  0  0
    5.0481   -1.6293    0.0000 C   0  0  0  0  0  0  0  0  0  0  0  0
    5.7426   -2.8847    0.0000 C   0  0  0  0  0  0  0  0  0  0  0  0
    2.8847   -3.7127    0.0000 C   0  0  0  0  0  0  0  0  0  0  0  0
    5.7426   -1.2287    0.0000 C   0  0  0  0  0  0  0  0  0  0  0  0
    4.3003   -3.7127    0.0000 C   0  0  0  0  0  0  0  0  0  0  0  0
    3.6059   -2.4840    0.0000 C   0  0  0  0  0  0  0  0  0  0  0  0
    2.1635   -4.1133    0.0000 C   0  0  0  0  0  0  0  0  0  0  0  0
    3.6059   -4.1133    0.0000 C   0  0  0  0  0  0  0  0  0  0  0  0
    2.8847   -2.8847    0.0000 C   0  0  0  0  0  0  0  0  0  0  0  0
    4.3270   -1.2287    0.0000 C   0  0  0  0  0  0  0  0  0  0  0  0
    5.7426   -0.4007    0.0000 C   0  0  0  0  0  0  0  0  0  0  0  0
    1.4423   -3.7127    0.0000 C   0  0  0  0  0  0  0  0  0  0  0  0
    2.1368   -4.9413    0.0000 C   0  0  0  0  0  0  0  0  0  0  0  0
    4.3270   -0.4007    0.0000 C   0  0  0  0  0  0  0  0  0  0  0  0
    5.0481    0.0000    0.0000 C   0  0  0  0  0  0  0  0  0  0  0  0
    0.7212   -4.9413    0.0000 C   0  0  0  0  0  0  0  0  0  0  0  0
    7.1849   -2.8847    0.0000 C   0  0  0  0  0  0  0  0  0  0  0  0
    0.0000   -5.3420    0.0000 C   0  0  0  0  0  0  0  0  0  0  0  0
  1 11  1  0  0  0  0
  2  9  1  0  0  0  0
  2 24  1  0  0  0  0
  3  9  2  0  0  0  0
  4 19  2  0  0  0  0
  4 23  1  0  0  0  0
  5 20  1  0  0  0  0
  5 23  2  0  0  0  0
  6  7  1  0  0  0  0
  6  8  1  0  0  0  0
  6  9  1  0  0  0  0
  7 12  2  0  0  0  0
  7 13  1  0  0  0  0
  8 11  1  0  0  0  0
  8 17  2  0  0  0  0
 10 14  1  0  0  0  0
 10 15  2  0  0  0  0
 10 16  1  0  0  0  0
 11 18  2  0  0  0  0
 12 15  1  0  0  0  0
 13 16  2  0  0  0  0
 14 19  1  0  0  0  0
 14 20  2  0  0  0  0
 17 21  1  0  0  0  0
 18 22  1  0  0  0  0
 21 22  2  0  0  0  0
 23 25  1  0  0  0  0
M  END
> <PUBCHEM_COMPOUND_ID_TYPE>
0

> <PUBCHEM_TOTAL_CHARGE>
0

> <PUBCHEM_SUBSTANCE_ID>
310934795

> <PUBCHEM_SUBSTANCE_VERSION>
1

> <PUBCHEM_EXT_DATASOURCE_NAME>
4488

> <PUBCHEM_EXT_DATASOURCE_REGID>
SCHEMBL16112299

> <PUBCHEM_SUBSTANCE_COMMENT>
InChI=1S/C20H17FN2O2/c1-13-22-11-16(12-23-13)14-7-9-15(10-8-14)19(20(24)25-2)17-5-3-4-6-18(17)21/h3-12,19H,1-2H3
InChIKey=WCILLRPBWYBHEV-UHFFFAOYSA-N

> <PUBCHEM_SUBSTANCE_SYNONYM>
SCHEMBL16112299

> <PUBCHEM_XREF_EXT_ID>
SCHEMBL16112299

> <PUBCHEM_EXT_DATASOURCE_URL>
https://www.surechembl.org/

> <PUBCHEM_EXT_SUBSTANCE_URL>
https://www.surechembl.org/chemical/SCHEMBL16112299

> <PUBCHEM_CID_ASSOCIATIONS>
117602942  1

> <PUBCHEM_COORDINATE_TYPE>
1
3

$$$$
