310943722
  -OEChem-07211613022D

 30 32  0     1  0  0  0  0  0999 V2000
    3.0096    1.0443    0.0000 S   0  0  0  0  0  0  0  0  0  0  0  0
    2.7372    2.0303    0.0000 O   0  0  0  0  0  0  0  0  0  0  0  0
    3.8918    1.5632    0.0000 O   0  0  0  0  0  0  0  0  0  0  0  0
    5.2279    1.4854    0.0000 O   0  0  0  0  0  0  0  0  0  0  0  0
    3.7361    0.3178    0.0000 N   0  0  0  0  0  0  0  0  0  0  0  0
   -2.8281   -1.5761    0.0000 N   0  0  3  0  0  0  0  0  0  0  0  0
   -0.7265    1.5373    0.0000 N   0  0  0  0  0  0  0  0  0  0  0  0
   -4.6053   -1.0443    0.0000 N   0  0  3  0  0  0  0  0  0  0  0  0
    0.0000   -0.7329    0.0000 C   0  0  0  0  0  0  0  0  0  0  0  0
    0.7006   -0.2919    0.0000 C   0  0  0  0  0  0  0  0  0  0  0  0
    2.1145    0.5254    0.0000 C   0  0  0  0  0  0  0  0  0  0  0  0
   -0.7135   -0.3178    0.0000 C   0  0  0  0  0  0  0  0  0  0  0  0
    1.4400   -0.7070    0.0000 C   0  0  0  0  0  0  0  0  0  0  0  0
    0.7006    0.4994    0.0000 C   0  0  0  0  0  0  0  0  0  0  0  0
    2.1145   -0.3048    0.0000 C   0  0  0  0  0  0  0  0  0  0  0  0
    1.3751    0.9146    0.0000 C   0  0  0  0  0  0  0  0  0  0  0  0
   -1.4010   -1.5502    0.0000 C   0  0  0  0  0  0  0  0  0  0  0  0
    0.0000   -1.5502    0.0000 C   0  0  0  0  0  0  0  0  0  0  0  0
   -1.4140   -0.7459    0.0000 C   0  0  0  0  0  0  0  0  0  0  0  0
   -0.7006   -1.9524    0.0000 C   0  0  0  0  0  0  0  0  0  0  0  0
   -2.1275   -1.9654    0.0000 C   0  0  0  0  0  0  0  0  0  0  0  0
   -0.7265    0.6940    0.0000 C   0  0  0  0  0  0  0  0  0  0  0  0
    4.7221    0.6032    0.0000 C   0  0  0  0  0  0  0  0  0  0  0  0
   -3.4897   -2.0303    0.0000 C   0  0  0  0  0  0  0  0  0  0  0  0
   -2.7761   -0.7459    0.0000 C   0  0  0  0  0  0  0  0  0  0  0  0
   -4.2809   -1.7967    0.0000 C   0  0  0  0  0  0  0  0  0  0  0  0
    5.4355   -0.1233    0.0000 C   0  0  0  0  0  0  0  0  0  0  0  0
   -3.3859   -0.2010    0.0000 C   0  0  0  0  0  0  0  0  0  0  0  0
   -4.1902   -0.3178    0.0000 C   0  0  0  0  0  0  0  0  0  0  0  0
   -5.4355   -1.0443    0.0000 C   0  0  0  0  0  0  0  0  0  0  0  0
  1  2  2  0  0  0  0
  1  3  2  0  0  0  0
  1  5  1  0  0  0  0
  1 11  1  0  0  0  0
  4 23  2  0  0  0  0
  5 23  1  0  0  0  0
  6 21  1  0  0  0  0
  6 24  1  0  0  0  0
  6 25  1  0  0  0  0
  7 22  3  0  0  0  0
  8 26  1  0  0  0  0
  8 29  1  0  0  0  0
  8 30  1  0  0  0  0
  9 10  1  0  0  0  0
  9 12  2  0  0  0  0
  9 18  1  0  0  0  0
 10 13  2  0  0  0  0
 10 14  1  0  0  0  0
 11 15  2  0  0  0  0
 11 16  1  0  0  0  0
 12 19  1  0  0  0  0
 12 22  1  0  0  0  0
 13 15  1  0  0  0  0
 14 16  2  0  0  0  0
 17 19  2  0  0  0  0
 17 20  1  0  0  0  0
 17 21  1  0  0  0  0
 18 20  2  0  0  0  0
 23 27  1  0  0  0  0
 24 26  1  0  0  0  0
 25 28  1  0  0  0  0
 28 29  1  0  0  0  0
M  END
> <PUBCHEM_COMPOUND_ID_TYPE>
0

> <PUBCHEM_TOTAL_CHARGE>
0

> <PUBCHEM_SUBSTANCE_ID>
310943722

> <PUBCHEM_SUBSTANCE_VERSION>
1

> <PUBCHEM_EXT_DATASOURCE_NAME>
4488

> <PUBCHEM_EXT_DATASOURCE_REGID>
SCHEMBL16121790

> <PUBCHEM_SUBSTANCE_COMMENT>
InChI=1S/C22H26N4O3S/c1-17(27)24-30(28,29)21-7-5-19(6-8-21)22-9-4-18(14-20(22)15-23)16-26-11-3-10-25(2)12-13-26/h4-9,14H,3,10-13,16H2,1-2H3,(H,24,27)
InChIKey=XUJISHOPKGZISE-UHFFFAOYSA-N

> <PUBCHEM_SUBSTANCE_SYNONYM>
SCHEMBL16121790

> <PUBCHEM_XREF_EXT_ID>
SCHEMBL16121790

> <PUBCHEM_EXT_DATASOURCE_URL>
https://www.surechembl.org/

> <PUBCHEM_EXT_SUBSTANCE_URL>
https://www.surechembl.org/chemical/SCHEMBL16121790

> <PUBCHEM_CID_ASSOCIATIONS>
117610090  1

> <PUBCHEM_COORDINATE_TYPE>
1
3

$$$$
