310935793
  -OEChem-07211613022D

 31 35  0     1  0  0  0  0  0999 V2000
    4.1269   -7.3723    0.0000 O   0  0  0  0  0  0  0  0  0  0  0  0
    4.1269   -3.2855    0.0000 O   0  0  0  0  0  0  0  0  0  0  0  0
    1.2822   -7.2521    0.0000 N   0  0  0  0  0  0  0  0  0  0  0  0
    0.8815   -8.0134    0.0000 N   0  0  0  0  0  0  0  0  0  0  0  0
    0.0802   -7.8531    0.0000 N   0  0  0  0  0  0  0  0  0  0  0  0
    3.4057   -4.4875    0.0000 N   0  0  0  0  0  0  0  0  0  0  0  0
    2.7246   -3.2855    0.0000 N   0  0  0  0  0  0  0  0  0  0  0  0
    0.7212   -6.6911    0.0000 C   0  0  0  0  0  0  0  0  0  0  0  0
    2.0033   -6.9716    0.0000 C   0  0  3  0  0  0  0  0  0  0  0  0
    1.8832   -6.1703    0.0000 C   0  0  0  0  0  0  0  0  0  0  0  0
    1.1218   -5.9700    0.0000 C   0  0  0  0  0  0  0  0  0  0  0  0
    0.0000   -7.0117    0.0000 C   0  0  0  0  0  0  0  0  0  0  0  0
    2.6845   -7.3723    0.0000 C   0  0  0  0  0  0  0  0  0  0  0  0
    2.4842   -5.5292    0.0000 C   0  0  0  0  0  0  0  0  0  0  0  0
    0.8414   -5.2087    0.0000 C   0  0  0  0  0  0  0  0  0  0  0  0
    3.4057   -6.9716    0.0000 C   0  0  0  0  0  0  0  0  0  0  0  0
    3.4057   -6.1302    0.0000 C   0  0  0  0  0  0  0  0  0  0  0  0
    2.2037   -4.7279    0.0000 C   0  0  0  0  0  0  0  0  0  0  0  0
    1.4023   -4.5676    0.0000 C   0  0  0  0  0  0  0  0  0  0  0  0
    4.1269   -5.7296    0.0000 C   0  0  0  0  0  0  0  0  0  0  0  0
    2.7246   -5.7296    0.0000 C   0  0  0  0  0  0  0  0  0  0  0  0
    4.1269   -4.8881    0.0000 C   0  0  0  0  0  0  0  0  0  0  0  0
    2.7246   -4.8881    0.0000 C   0  0  0  0  0  0  0  0  0  0  0  0
    3.4057   -3.6862    0.0000 C   0  0  0  0  0  0  0  0  0  0  0  0
    2.7246   -2.4441    0.0000 C   0  0  0  0  0  0  0  0  0  0  0  0
    3.4057   -2.0434    0.0000 C   0  0  0  0  0  0  0  0  0  0  0  0
    2.0033   -2.0434    0.0000 C   0  0  0  0  0  0  0  0  0  0  0  0
    2.6845   -0.8414    0.0000 C   0  0  0  0  0  0  0  0  0  0  0  0
    3.4057   -1.2020    0.0000 C   0  0  0  0  0  0  0  0  0  0  0  0
    2.0033   -1.2421    0.0000 C   0  0  0  0  0  0  0  0  0  0  0  0
    2.6845    0.0000    0.0000 C   0  0  0  0  0  0  0  0  0  0  0  0
  1 16  2  0  0  0  0
  2 24  2  0  0  0  0
  3  4  1  0  0  0  0
  3  8  1  0  0  0  0
  3  9  1  0  0  0  0
  4  5  2  0  0  0  0
  5 12  1  0  0  0  0
  6 22  1  0  0  0  0
  6 23  1  0  0  0  0
  6 24  1  0  0  0  0
  7 24  1  0  0  0  0
  7 25  1  0  0  0  0
  8 11  1  0  0  0  0
  8 12  2  0  0  0  0
  9 10  1  0  0  0  0
  9 13  1  0  0  0  0
 10 11  2  0  0  0  0
 10 14  1  0  0  0  0
 11 15  1  0  0  0  0
 13 16  1  0  0  0  0
 14 18  2  0  0  0  0
 15 19  2  0  0  0  0
 16 17  1  0  0  0  0
 17 20  1  0  0  0  0
 17 21  1  0  0  0  0
 18 19  1  0  0  0  0
 20 22  1  0  0  0  0
 21 23  1  0  0  0  0
 25 26  2  0  0  0  0
 25 27  1  0  0  0  0
 26 29  1  0  0  0  0
 27 30  2  0  0  0  0
 28 29  2  0  0  0  0
 28 30  1  0  0  0  0
 28 31  1  0  0  0  0
M  END
> <PUBCHEM_COMPOUND_ID_TYPE>
0

> <PUBCHEM_TOTAL_CHARGE>
0

> <PUBCHEM_SUBSTANCE_ID>
310935793

> <PUBCHEM_SUBSTANCE_VERSION>
1

> <PUBCHEM_EXT_DATASOURCE_NAME>
4488

> <PUBCHEM_EXT_DATASOURCE_REGID>
SCHEMBL16113379

> <PUBCHEM_SUBSTANCE_COMMENT>
InChI=1S/C24H25N5O2/c1-16-6-8-18(9-7-16)26-24(31)28-12-10-17(11-13-28)23(30)14-21-19-4-2-3-5-20(19)22-15-25-27-29(21)22/h2-9,15,17,21H,10-14H2,1H3,(H,26,31)
InChIKey=AKBMUCSKMNEBBK-UHFFFAOYSA-N

> <PUBCHEM_SUBSTANCE_SYNONYM>
SCHEMBL16113379

> <PUBCHEM_XREF_EXT_ID>
SCHEMBL16113379

> <PUBCHEM_EXT_DATASOURCE_URL>
https://www.surechembl.org/

> <PUBCHEM_EXT_SUBSTANCE_URL>
https://www.surechembl.org/chemical/SCHEMBL16113379

> <PUBCHEM_CID_ASSOCIATIONS>
117603787  1

> <PUBCHEM_COORDINATE_TYPE>
1
3

$$$$
