310938198
  -OEChem-07211613022D

 37 41  0     1  0  0  0  0  0999 V2000
    0.0000   -0.1875    0.0000 F   0  0  0  0  0  0  0  0  0  0  0  0
    0.0000   -1.6125    0.0000 F   0  0  0  0  0  0  0  0  0  0  0  0
    0.8250   -0.1875    0.0000 F   0  0  0  0  0  0  0  0  0  0  0  0
    3.2999   -4.9874    0.0000 O   0  0  0  0  0  0  0  0  0  0  0  0
    6.1873   -5.0249    0.0000 O   0  0  0  0  0  0  0  0  0  0  0  0
    5.5124   -2.2875    0.0000 N   0  0  3  0  0  0  0  0  0  0  0  0
    4.7249   -4.9874    0.0000 N   0  0  0  0  0  0  0  0  0  0  0  0
    1.1625   -2.1375    0.0000 N   0  0  0  0  0  0  0  0  0  0  0  0
    6.8623   -6.2624    0.0000 N   0  0  0  0  0  0  0  0  0  0  0  0
    4.7249   -3.3374    0.0000 C   0  0  0  0  0  0  0  0  0  0  0  0
    4.7249   -2.5499    0.0000 C   0  0  0  0  0  0  0  0  0  0  0  0
    4.0124   -3.7499    0.0000 C   0  0  0  0  0  0  0  0  0  0  0  0
    3.2999   -2.5499    0.0000 C   0  0  0  0  0  0  0  0  0  0  0  0
    4.0124   -2.1000    0.0000 C   0  0  0  0  0  0  0  0  0  0  0  0
    3.2999   -3.3374    0.0000 C   0  0  0  0  0  0  0  0  0  0  0  0
    5.5124   -3.5999    0.0000 C   0  0  0  0  0  0  0  0  0  0  0  0
    2.5874   -2.1375    0.0000 C   0  0  0  0  0  0  0  0  0  0  0  0
    4.0124   -4.5749    0.0000 C   0  0  0  0  0  0  0  0  0  0  0  0
    5.9998   -2.9249    0.0000 C   0  0  0  0  0  0  0  0  0  0  0  0
    5.7748   -1.5000    0.0000 C   0  0  0  0  0  0  0  0  0  0  0  0
    1.8750   -2.5499    0.0000 C   0  0  0  0  0  0  0  0  0  0  0  0
    2.5499   -1.3125    0.0000 C   0  0  0  0  0  0  0  0  0  0  0  0
    1.1250   -1.3125    0.0000 C   0  0  0  0  0  0  0  0  0  0  0  0
    5.2123   -0.8625    0.0000 C   0  0  0  0  0  0  0  0  0  0  0  0
    1.8750   -0.9000    0.0000 C   0  0  0  0  0  0  0  0  0  0  0  0
    5.4374   -6.2624    0.0000 C   0  0  0  0  0  0  0  0  0  0  0  0
    0.4125   -0.9000    0.0000 C   0  0  0  0  0  0  0  0  0  0  0  0
    4.7249   -5.8123    0.0000 C   0  0  0  0  0  0  0  0  0  0  0  0
    6.1873   -5.8499    0.0000 C   0  0  0  0  0  0  0  0  0  0  0  0
    5.4749   -7.0873    0.0000 C   0  0  0  0  0  0  0  0  0  0  0  0
    4.4249   -0.8250    0.0000 C   0  0  0  0  0  0  0  0  0  0  0  0
    5.2874   -0.0375    0.0000 C   0  0  0  0  0  0  0  0  0  0  0  0
    6.8998   -7.0873    0.0000 C   0  0  0  0  0  0  0  0  0  0  0  0
    6.1498   -7.4623    0.0000 C   0  0  0  0  0  0  0  0  0  0  0  0
    4.4624    0.0000    0.0000 C   0  0  0  0  0  0  0  0  0  0  0  0
    4.7624   -7.4998    0.0000 C   0  0  0  0  0  0  0  0  0  0  0  0
    7.6123   -7.4998    0.0000 C   0  0  0  0  0  0  0  0  0  0  0  0
  1 27  1  0  0  0  0
  2 27  1  0  0  0  0
  3 27  1  0  0  0  0
  4 18  2  0  0  0  0
  5 29  2  0  0  0  0
  6 11  1  0  0  0  0
  6 19  1  0  0  0  0
  6 20  1  0  0  0  0
  7 18  1  0  0  0  0
  7 28  1  0  0  0  0
  8 21  1  0  0  0  0
  8 23  2  0  0  0  0
  9 29  1  0  0  0  0
  9 33  1  0  0  0  0
 10 11  2  0  0  0  0
 10 12  1  0  0  0  0
 10 16  1  0  0  0  0
 11 14  1  0  0  0  0
 12 15  2  0  0  0  0
 12 18  1  0  0  0  0
 13 14  2  0  0  0  0
 13 15  1  0  0  0  0
 13 17  1  0  0  0  0
 16 19  1  0  0  0  0
 17 21  2  0  0  0  0
 17 22  1  0  0  0  0
 20 24  1  0  0  0  0
 22 25  2  0  0  0  0
 23 25  1  0  0  0  0
 23 27  1  0  0  0  0
 24 31  1  0  0  0  0
 24 32  1  0  0  0  0
 26 28  1  0  0  0  0
 26 29  1  0  0  0  0
 26 30  2  0  0  0  0
 30 34  1  0  0  0  0
 30 36  1  0  0  0  0
 31 35  1  0  0  0  0
 32 35  1  0  0  0  0
 33 34  2  0  0  0  0
 33 37  1  0  0  0  0
M  END
> <PUBCHEM_COMPOUND_ID_TYPE>
0

> <PUBCHEM_TOTAL_CHARGE>
0

> <PUBCHEM_SUBSTANCE_ID>
310938198

> <PUBCHEM_SUBSTANCE_VERSION>
1

> <PUBCHEM_EXT_DATASOURCE_NAME>
4488

> <PUBCHEM_EXT_DATASOURCE_REGID>
SCHEMBL16116053

> <PUBCHEM_SUBSTANCE_COMMENT>
InChI=1S/C28H29F3N4O2/c1-16-10-17(2)34-27(37)23(16)14-33-26(36)22-11-20(19-6-7-25(32-13-19)28(29,30)31)12-24-21(22)8-9-35(24)15-18-4-3-5-18/h6-7,10-13,18H,3-5,8-9,14-15H2,1-2H3,(H,33,36)(H,34,37)
InChIKey=FRMSTGDUIYECDN-UHFFFAOYSA-N

> <PUBCHEM_SUBSTANCE_SYNONYM>
SCHEMBL16116053

> <PUBCHEM_XREF_EXT_ID>
SCHEMBL16116053

> <PUBCHEM_EXT_DATASOURCE_URL>
https://www.surechembl.org/

> <PUBCHEM_EXT_SUBSTANCE_URL>
https://www.surechembl.org/chemical/SCHEMBL16116053

> <PUBCHEM_CID_ASSOCIATIONS>
86274833  1

> <PUBCHEM_COORDINATE_TYPE>
1
3

$$$$
