310947997
  -OEChem-07211613022D

  8  7  0     1  0  0  0  0  0999 V2000
   -0.6997    0.4051    0.0000 S   0  0  3  0  0  0  0  0  0  0  0  0
    2.1433    0.4051    0.0000 S   0  0  0  0  0  0  0  0  0  0  0  0
   -0.6850   -0.4198    0.0000 O   0  0  0  0  0  0  0  0  0  0  0  0
   -1.4068   -0.0073    0.0000 N   0  0  0  0  0  0  0  0  0  0  0  0
    0.0368    0.0221    0.0000 C   0  0  0  0  0  0  0  0  0  0  0  0
    0.7144    0.4198    0.0000 C   0  0  0  0  0  0  0  0  0  0  0  0
    1.4510    0.0221    0.0000 C   0  0  0  0  0  0  0  0  0  0  0  0
   -2.1433    0.4051    0.0000 C   0  0  0  0  0  0  0  0  0  0  0  0
  1  3  2  0  0  0  0
  1  4  1  0  0  0  0
  1  5  1  0  0  0  0
  2  7  1  0  0  0  0
  4  8  1  0  0  0  0
  5  6  1  0  0  0  0
  6  7  1  0  0  0  0
M  END
> <PUBCHEM_COMPOUND_ID_TYPE>
0

> <PUBCHEM_TOTAL_CHARGE>
0

> <PUBCHEM_SUBSTANCE_ID>
310947997

> <PUBCHEM_SUBSTANCE_VERSION>
1

> <PUBCHEM_EXT_DATASOURCE_NAME>
4488

> <PUBCHEM_EXT_DATASOURCE_REGID>
SCHEMBL16126171

> <PUBCHEM_SUBSTANCE_COMMENT>
InChI=1S/C4H11NOS2/c1-5-8(6)4-2-3-7/h5,7H,2-4H2,1H3
InChIKey=PYCXLIQLZOCYMZ-UHFFFAOYSA-N

> <PUBCHEM_SUBSTANCE_SYNONYM>
SCHEMBL16126171

> <PUBCHEM_XREF_EXT_ID>
SCHEMBL16126171

> <PUBCHEM_EXT_DATASOURCE_URL>
https://www.surechembl.org/

> <PUBCHEM_EXT_SUBSTANCE_URL>
https://www.surechembl.org/chemical/SCHEMBL16126171

> <PUBCHEM_CID_ASSOCIATIONS>
117613642  1

> <PUBCHEM_COORDINATE_TYPE>
1
3

$$$$
