310930110
  -OEChem-07211613022D

 30 34  0     1  0  0  0  0  0999 V2000
    1.7161   -0.5148    0.0000 O   0  0  0  0  0  0  0  0  0  0  0  0
    1.2013  -11.4404    0.0000 O   0  0  0  0  0  0  0  0  0  0  0  0
    0.3432    0.0000    0.0000 O   0  0  0  0  0  0  0  0  0  0  0  0
    0.0572   -6.8071    0.0000 O   0  0  0  0  0  0  0  0  0  0  0  0
    1.4872   -6.8071    0.0000 N   0  0  0  0  0  0  0  0  0  0  0  0
    1.4872   -5.1482    0.0000 N   0  0  3  0  0  0  0  0  0  0  0  0
    0.8580  -10.6968    0.0000 N   0  0  0  0  0  0  0  0  0  0  0  0
    2.0021  -11.3260    0.0000 N   0  0  0  0  0  0  0  0  0  0  0  0
    0.7436   -1.4300    0.0000 C   0  0  0  0  0  0  0  0  0  0  0  0
    1.4300   -1.8305    0.0000 C   0  0  0  0  0  0  0  0  0  0  0  0
    0.9152   -0.6292    0.0000 C   0  0  0  0  0  0  0  0  0  0  0  0
    1.4872  -10.1247    0.0000 C   0  0  0  0  0  0  0  0  0  0  0  0
    0.7436   -3.0889    0.0000 C   0  0  0  0  0  0  0  0  0  0  0  0
    2.2309  -10.5252    0.0000 C   0  0  0  0  0  0  0  0  0  0  0  0
    1.4300   -2.6885    0.0000 C   0  0  0  0  0  0  0  0  0  0  0  0
    2.0593   -1.2585    0.0000 C   0  0  0  0  0  0  0  0  0  0  0  0
    0.0000   -1.8305    0.0000 C   0  0  0  0  0  0  0  0  0  0  0  0
    2.1737   -8.8663    0.0000 C   0  0  0  0  0  0  0  0  0  0  0  0
    1.4872   -9.2667    0.0000 C   0  0  0  0  0  0  0  0  0  0  0  0
    0.0000   -2.6313    0.0000 C   0  0  0  0  0  0  0  0  0  0  0  0
    0.7436   -6.4066    0.0000 C   0  0  0  0  0  0  0  0  0  0  0  0
    2.9173  -10.1247    0.0000 C   0  0  0  0  0  0  0  0  0  0  0  0
    0.7436   -3.8897    0.0000 C   0  0  0  0  0  0  0  0  0  0  0  0
    2.9173   -9.3239    0.0000 C   0  0  0  0  0  0  0  0  0  0  0  0
    2.1737   -8.0655    0.0000 C   0  0  0  0  0  0  0  0  0  0  0  0
    0.7436   -5.5486    0.0000 C   0  0  0  0  0  0  0  0  0  0  0  0
    1.4872   -7.6079    0.0000 C   0  0  0  0  0  0  0  0  0  0  0  0
    1.4872   -4.3474    0.0000 C   0  0  0  0  0  0  0  0  0  0  0  0
    2.1737   -6.4066    0.0000 C   0  0  0  0  0  0  0  0  0  0  0  0
    2.1737   -5.5486    0.0000 C   0  0  0  0  0  0  0  0  0  0  0  0
  1 11  1  0  0  0  0
  1 16  1  0  0  0  0
  2  7  1  0  0  0  0
  2  8  1  0  0  0  0
  3 11  2  0  0  0  0
  4 21  2  0  0  0  0
  5 21  1  0  0  0  0
  5 27  1  0  0  0  0
  5 29  1  0  0  0  0
  6 26  1  0  0  0  0
  6 28  1  0  0  0  0
  6 30  1  0  0  0  0
  7 12  2  0  0  0  0
  8 14  2  0  0  0  0
  9 10  2  0  0  0  0
  9 11  1  0  0  0  0
  9 17  1  0  0  0  0
 10 15  1  0  0  0  0
 10 16  1  0  0  0  0
 12 14  1  0  0  0  0
 12 19  1  0  0  0  0
 13 15  2  0  0  0  0
 13 20  1  0  0  0  0
 13 23  1  0  0  0  0
 14 22  1  0  0  0  0
 17 20  2  0  0  0  0
 18 19  2  0  0  0  0
 18 24  1  0  0  0  0
 18 25  1  0  0  0  0
 21 26  1  0  0  0  0
 22 24  2  0  0  0  0
 23 28  1  0  0  0  0
 25 27  1  0  0  0  0
 29 30  1  0  0  0  0
M  END
> <PUBCHEM_COMPOUND_ID_TYPE>
0

> <PUBCHEM_TOTAL_CHARGE>
0

> <PUBCHEM_SUBSTANCE_ID>
310930110

> <PUBCHEM_SUBSTANCE_VERSION>
1

> <PUBCHEM_EXT_DATASOURCE_NAME>
4488

> <PUBCHEM_EXT_DATASOURCE_REGID>
SCHEMBL16107361

> <PUBCHEM_SUBSTANCE_COMMENT>
InChI=1S/C22H22N4O4/c27-21-13-25(7-5-15-1-3-18-17(11-15)14-29-22(18)28)9-10-26(21)8-6-16-2-4-19-20(12-16)24-30-23-19/h1-4,11-12H,5-10,13-14H2
InChIKey=ZEBJHPGNPROTCT-UHFFFAOYSA-N

> <PUBCHEM_SUBSTANCE_SYNONYM>
SCHEMBL16107361

> <PUBCHEM_XREF_EXT_ID>
SCHEMBL16107361

> <PUBCHEM_EXT_DATASOURCE_URL>
https://www.surechembl.org/

> <PUBCHEM_EXT_SUBSTANCE_URL>
https://www.surechembl.org/chemical/SCHEMBL16107361

> <PUBCHEM_CID_ASSOCIATIONS>
117599340  1

> <PUBCHEM_COORDINATE_TYPE>
1
3

$$$$
