310946027
  -OEChem-07211613022D

 40 43  0     1  0  0  0  0  0999 V2000
    4.6427    0.6642    0.0000 O   0  0  0  0  0  0  0  0  0  0  0  0
    3.5079   -1.2869    0.0000 O   0  0  0  0  0  0  0  0  0  0  0  0
    1.3492    0.7749    0.0000 O   0  0  0  0  0  0  0  0  0  0  0  0
   -0.7957   -1.2869    0.0000 O   0  0  0  0  0  0  0  0  0  0  0  0
   -2.9544    0.7749    0.0000 O   0  0  0  0  0  0  0  0  0  0  0  0
    3.5079   -2.9476    0.0000 O   0  0  0  0  0  0  0  0  0  0  0  0
    2.0826   -0.4567    0.0000 N   0  0  0  0  0  0  0  0  0  0  0  0
   -0.0761   -0.0415    0.0000 N   0  0  0  0  0  0  0  0  0  0  0  0
   -2.2348   -0.4567    0.0000 N   0  0  0  0  0  0  0  0  0  0  0  0
    4.2413    0.0000    0.0000 C   0  0  3  0  0  0  0  0  0  0  0  0
    3.5218   -0.4152    0.0000 C   0  0  0  0  0  0  0  0  0  0  0  0
    3.8401    0.6781    0.0000 C   0  0  0  0  0  0  0  0  0  0  0  0
    2.7884   -0.0139    0.0000 C   0  0  3  0  0  0  0  0  0  0  0  0
    4.9748   -0.4290    0.0000 C   0  0  0  0  0  0  0  0  0  0  0  0
    2.7884    1.3008    0.0000 C   0  0  0  0  0  0  0  0  0  0  0  0
    1.3492   -0.0415    0.0000 C   0  0  0  0  0  0  0  0  0  0  0  0
    0.6434   -0.4290    0.0000 C   0  0  3  0  0  0  0  0  0  0  0  0
    2.0826    1.7298    0.0000 C   0  0  0  0  0  0  0  0  0  0  0  0
    0.6434   -1.2731    0.0000 C   0  0  0  0  0  0  0  0  0  0  0  0
   -0.7957   -0.4152    0.0000 C   0  0  0  0  0  0  0  0  0  0  0  0
    1.3769   -1.6744    0.0000 C   0  0  0  0  0  0  0  0  0  0  0  0
    2.0826    2.5324    0.0000 C   0  0  0  0  0  0  0  0  0  0  0  0
    1.3630    1.3146    0.0000 C   0  0  0  0  0  0  0  0  0  0  0  0
   -1.5292   -0.0139    0.0000 C   0  0  3  0  0  0  0  0  0  0  0  0
    1.3769   -2.5047    0.0000 C   0  0  0  0  0  0  0  0  0  0  0  0
    2.0826   -1.2731    0.0000 C   0  0  0  0  0  0  0  0  0  0  0  0
   -2.9544   -0.0415    0.0000 C   0  0  0  0  0  0  0  0  0  0  0  0
   -3.6740   -0.4290    0.0000 C   0  0  0  0  0  0  0  0  0  0  0  0
    1.3492    2.9476    0.0000 C   0  0  0  0  0  0  0  0  0  0  0  0
    0.6573    1.7160    0.0000 C   0  0  0  0  0  0  0  0  0  0  0  0
    2.8022   -2.4909    0.0000 C   0  0  0  0  0  0  0  0  0  0  0  0
    2.0826   -2.9061    0.0000 C   0  0  0  0  0  0  0  0  0  0  0  0
    2.8022   -1.6883    0.0000 C   0  0  0  0  0  0  0  0  0  0  0  0
    0.6573    2.5324    0.0000 C   0  0  0  0  0  0  0  0  0  0  0  0
   -3.7709   -1.2454    0.0000 C   0  0  0  0  0  0  0  0  0  0  0  0
   -4.4351   -0.1107    0.0000 C   0  0  0  0  0  0  0  0  0  0  0  0
   -1.5015    0.8165    0.0000 C   0  0  0  0  0  0  0  0  0  0  0  0
   -4.5735   -1.4115    0.0000 C   0  0  0  0  0  0  0  0  0  0  0  0
   -4.9748   -0.7057    0.0000 C   0  0  0  0  0  0  0  0  0  0  0  0
    4.2552   -2.5186    0.0000 C   0  0  0  0  0  0  0  0  0  0  0  0
  1 10  1  0  0  0  0
  1 12  1  0  0  0  0
  2 11  2  0  0  0  0
  3 16  2  0  0  0  0
  4 20  2  0  0  0  0
  5 27  2  0  0  0  0
  6 31  1  0  0  0  0
  6 40  1  0  0  0  0
  7 13  1  0  0  0  0
  7 16  1  0  0  0  0
  8 17  1  0  0  0  0
  8 20  1  0  0  0  0
  9 24  1  0  0  0  0
  9 27  1  0  0  0  0
 10 11  1  0  0  0  0
 10 12  1  0  0  0  0
 10 14  1  0  0  0  0
 11 13  1  0  0  0  0
 13 15  1  0  0  0  0
 15 18  1  0  0  0  0
 16 17  1  0  0  0  0
 17 19  1  0  0  0  0
 18 22  2  0  0  0  0
 18 23  1  0  0  0  0
 19 21  1  0  0  0  0
 20 24  1  0  0  0  0
 21 25  2  0  0  0  0
 21 26  1  0  0  0  0
 22 29  1  0  0  0  0
 23 30  2  0  0  0  0
 24 37  1  0  0  0  0
 25 32  1  0  0  0  0
 26 33  2  0  0  0  0
 27 28  1  0  0  0  0
 28 35  2  0  0  0  0
 28 36  1  0  0  0  0
 29 34  2  0  0  0  0
 30 34  1  0  0  0  0
 31 32  2  0  0  0  0
 31 33  1  0  0  0  0
 35 38  1  0  0  0  0
 36 39  1  0  0  0  0
 38 39  1  0  0  0  0
M  END
> <PUBCHEM_COMPOUND_ID_TYPE>
0

> <PUBCHEM_TOTAL_CHARGE>
0

> <PUBCHEM_SUBSTANCE_ID>
310946027

> <PUBCHEM_SUBSTANCE_VERSION>
1

> <PUBCHEM_EXT_DATASOURCE_NAME>
4488

> <PUBCHEM_EXT_DATASOURCE_REGID>
SCHEMBL16124133

> <PUBCHEM_SUBSTANCE_COMMENT>
InChI=1S/C31H37N3O6/c1-20(32-29(37)23-11-7-8-12-23)28(36)34-26(18-22-13-15-24(39-3)16-14-22)30(38)33-25(27(35)31(2)19-40-31)17-21-9-5-4-6-10-21/h4-6,9-11,13-16,20,25-26H,7-8,12,17-19H2,1-3H3,(H,32,37)(H,33,38)(H,34,36)
InChIKey=NGXOMYXXSVTURM-UHFFFAOYSA-N

> <PUBCHEM_SUBSTANCE_SYNONYM>
SCHEMBL16124133

> <PUBCHEM_XREF_EXT_ID>
SCHEMBL16124133

> <PUBCHEM_EXT_DATASOURCE_URL>
https://www.surechembl.org/

> <PUBCHEM_EXT_SUBSTANCE_URL>
https://www.surechembl.org/chemical/SCHEMBL16124133

> <PUBCHEM_CID_ASSOCIATIONS>
117611998  1

> <PUBCHEM_COORDINATE_TYPE>
1
3

$$$$
