310948427
  -OEChem-07211613022D

 24 25  0     1  0  0  0  0  0999 V2000
    0.3731    1.2301    0.0000 S   0  0  0  0  0  0  0  0  0  0  0  0
   -2.4364   -2.8968    0.0000 F   0  0  0  0  0  0  0  0  0  0  0  0
   -1.6269   -2.0555    0.0000 F   0  0  0  0  0  0  0  0  0  0  0  0
   -3.2301   -2.0555    0.0000 F   0  0  0  0  0  0  0  0  0  0  0  0
   -0.4365    1.2301    0.0000 O   0  0  0  0  0  0  0  0  0  0  0  0
   -0.0238    1.9603    0.0000 O   0  0  0  0  0  0  0  0  0  0  0  0
   -2.4523   -1.2460    0.0000 O   0  0  0  0  0  0  0  0  0  0  0  0
    1.0873   -0.0080    0.0000 N   0  3  0  0  0  0  0  0  0  0  0  0
    0.3889    0.4206    0.0000 C   0  0  3  0  0  0  0  0  0  0  0  0
    1.0873    1.6587    0.0000 C   0  0  0  0  0  0  0  0  0  0  0  0
   -0.3254   -0.0080    0.0000 C   0  0  0  0  0  0  0  0  0  0  0  0
   -1.0397    0.3889    0.0000 C   0  0  0  0  0  0  0  0  0  0  0  0
   -0.3254   -0.8333    0.0000 C   0  0  0  0  0  0  0  0  0  0  0  0
    1.8174    1.2460    0.0000 C   0  0  0  0  0  0  0  0  0  0  0  0
    1.1031    2.4840    0.0000 C   0  0  0  0  0  0  0  0  0  0  0  0
   -1.7539   -0.8333    0.0000 C   0  0  0  0  0  0  0  0  0  0  0  0
   -1.7381   -0.0080    0.0000 C   0  0  0  0  0  0  0  0  0  0  0  0
   -1.0238   -1.2301    0.0000 C   0  0  0  0  0  0  0  0  0  0  0  0
    2.4999    1.6587    0.0000 C   0  0  0  0  0  0  0  0  0  0  0  0
    1.8015    2.8809    0.0000 C   0  0  0  0  0  0  0  0  0  0  0  0
    2.5157    2.4840    0.0000 C   0  0  0  0  0  0  0  0  0  0  0  0
   -2.4523   -2.0714    0.0000 C   0  0  0  0  0  0  0  0  0  0  0  0
    1.8015   -0.4206    0.0000 C   0  0  0  0  0  0  0  0  0  0  0  0
    3.2301    2.8968    0.0000 C   0  0  0  0  0  0  0  0  0  0  0  0
  1  5  2  0  0  0  0
  1  6  2  0  0  0  0
  1  9  1  0  0  0  0
  1 10  1  0  0  0  0
  2 22  1  0  0  0  0
  3 22  1  0  0  0  0
  4 22  1  0  0  0  0
  7 16  1  0  0  0  0
  7 22  1  0  0  0  0
  8  9  1  0  0  0  0
  8 23  3  0  0  0  0
  9 11  1  0  0  0  0
 10 14  2  0  0  0  0
 10 15  1  0  0  0  0
 11 12  2  0  0  0  0
 11 13  1  0  0  0  0
 12 17  1  0  0  0  0
 13 18  2  0  0  0  0
 14 19  1  0  0  0  0
 15 20  2  0  0  0  0
 16 17  2  0  0  0  0
 16 18  1  0  0  0  0
 19 21  2  0  0  0  0
 20 21  1  0  0  0  0
 21 24  1  0  0  0  0
M  CHG  1   8   1
M  END
> <PUBCHEM_COMPOUND_ID_TYPE>
0

> <PUBCHEM_TOTAL_CHARGE>
1

> <PUBCHEM_SUBSTANCE_ID>
310948427

> <PUBCHEM_SUBSTANCE_VERSION>
1

> <PUBCHEM_EXT_DATASOURCE_NAME>
4488

> <PUBCHEM_EXT_DATASOURCE_REGID>
SCHEMBL16126608

> <PUBCHEM_SUBSTANCE_COMMENT>
InChI=1S/C16H13F3NO3S/c1-11-3-9-14(10-4-11)24(21,22)15(20-2)12-5-7-13(8-6-12)23-16(17,18)19/h2-10,15H,1H3/q+1
InChIKey=CVZXTGFBTZIQAV-UHFFFAOYSA-N

> <PUBCHEM_SUBSTANCE_SYNONYM>
SCHEMBL16126608

> <PUBCHEM_XREF_EXT_ID>
SCHEMBL16126608

> <PUBCHEM_EXT_DATASOURCE_URL>
https://www.surechembl.org/

> <PUBCHEM_EXT_SUBSTANCE_URL>
https://www.surechembl.org/chemical/SCHEMBL16126608

> <PUBCHEM_CID_ASSOCIATIONS>
117613986  1

> <PUBCHEM_COORDINATE_TYPE>
1
3

$$$$
