310932976
  -OEChem-07211613022D

 31 34  0     1  0  0  0  0  0999 V2000
    2.8506   -2.1083    0.0000 O   0  0  0  0  0  0  0  0  0  0  0  0
    0.1485   -2.3755    0.0000 O   0  0  0  0  0  0  0  0  0  0  0  0
    7.3046   -2.1973    0.0000 O   0  0  0  0  0  0  0  0  0  0  0  0
    7.7500   -5.9387    0.0000 O   0  0  0  0  0  0  0  0  0  0  0  0
    8.7299   -3.8305    0.0000 O   0  0  0  0  0  0  0  0  0  0  0  0
    3.7414   -0.9799    0.0000 N   0  0  0  0  0  0  0  0  0  0  0  0
    3.6523   -0.1485    0.0000 N   0  0  0  0  0  0  0  0  0  0  0  0
    5.1667   -0.9799    0.0000 N   0  0  0  0  0  0  0  0  0  0  0  0
    6.5919   -3.4148    0.0000 N   0  0  0  0  0  0  0  0  0  0  0  0
    0.0000   -0.9799    0.0000 N   0  0  0  0  0  0  0  0  0  0  0  0
    2.4349   -0.7126    0.0000 C   0  0  0  0  0  0  0  0  0  0  0  0
    2.9990   -1.3065    0.0000 C   0  0  0  0  0  0  0  0  0  0  0  0
    4.4540   -1.3659    0.0000 C   0  0  0  0  0  0  0  0  0  0  0  0
    1.6331   -0.8018    0.0000 C   0  0  0  0  0  0  0  0  0  0  0  0
    2.8506    0.0000    0.0000 C   0  0  0  0  0  0  0  0  0  0  0  0
    5.8793   -2.1973    0.0000 C   0  0  0  0  0  0  0  0  0  0  0  0
    4.4540   -2.1973    0.0000 C   0  0  0  0  0  0  0  0  0  0  0  0
    1.3065   -1.5738    0.0000 C   0  0  0  0  0  0  0  0  0  0  0  0
    1.1580   -0.1485    0.0000 C   0  0  0  0  0  0  0  0  0  0  0  0
    5.8793   -1.3659    0.0000 C   0  0  0  0  0  0  0  0  0  0  0  0
    5.1667   -2.6130    0.0000 C   0  0  0  0  0  0  0  0  0  0  0  0
    6.5919   -2.6130    0.0000 C   0  0  0  0  0  0  0  0  0  0  0  0
    0.4751   -1.6331    0.0000 C   0  0  0  0  0  0  0  0  0  0  0  0
    7.3343   -3.8305    0.0000 C   0  0  3  0  0  0  0  0  0  0  0  0
    0.3266   -0.2079    0.0000 C   0  0  0  0  0  0  0  0  0  0  0  0
    7.3343   -4.6619    0.0000 C   0  0  3  0  0  0  0  0  0  0  0  0
    7.9876   -5.1370    0.0000 C   0  0  0  0  0  0  0  0  0  0  0  0
    6.6513   -5.1667    0.0000 C   0  0  0  0  0  0  0  0  0  0  0  0
    8.0469   -3.4148    0.0000 C   0  0  0  0  0  0  0  0  0  0  0  0
    6.9186   -5.9387    0.0000 C   0  0  0  0  0  0  0  0  0  0  0  0
    0.6236   -3.0288    0.0000 C   0  0  0  0  0  0  0  0  0  0  0  0
  1 12  1  0  0  0  0
  2 23  1  0  0  0  0
  2 31  1  0  0  0  0
  3 22  2  0  0  0  0
  4 27  1  0  0  0  0
  4 30  1  0  0  0  0
  5 29  1  0  0  0  0
  6  7  1  0  0  0  0
  6 12  1  0  0  0  0
  6 13  1  0  0  0  0
  7 15  2  0  0  0  0
  8 13  2  0  0  0  0
  8 20  1  0  0  0  0
  9 22  1  0  0  0  0
  9 24  1  0  0  0  0
 10 23  1  0  0  0  0
 10 25  2  0  0  0  0
 11 12  2  0  0  0  0
 11 14  1  0  0  0  0
 11 15  1  0  0  0  0
 13 17  1  0  0  0  0
 14 18  1  0  0  0  0
 14 19  2  0  0  0  0
 16 20  2  0  0  0  0
 16 21  1  0  0  0  0
 16 22  1  0  0  0  0
 17 21  2  0  0  0  0
 18 23  2  0  0  0  0
 19 25  1  0  0  0  0
 24 26  1  0  0  0  0
 24 29  1  0  0  0  0
 26 27  1  0  0  0  0
 26 28  1  0  0  0  0
 28 30  1  0  0  0  0
M  END
> <PUBCHEM_COMPOUND_ID_TYPE>
0

> <PUBCHEM_TOTAL_CHARGE>
0

> <PUBCHEM_SUBSTANCE_ID>
310932976

> <PUBCHEM_SUBSTANCE_VERSION>
1

> <PUBCHEM_EXT_DATASOURCE_NAME>
4488

> <PUBCHEM_EXT_DATASOURCE_REGID>
SCHEMBL16110373

> <PUBCHEM_SUBSTANCE_COMMENT>
InChI=1S/C21H23N5O5/c1-30-19-8-13(4-6-22-19)16-10-24-26(21(16)29)18-3-2-14(9-23-18)20(28)25-17(11-27)15-5-7-31-12-15/h2-4,6,8-10,15,17,27,29H,5,7,11-12H2,1H3,(H,25,28)
InChIKey=PZZNRCLOUKKBHE-UHFFFAOYSA-N

> <PUBCHEM_SUBSTANCE_SYNONYM>
SCHEMBL16110373

> <PUBCHEM_XREF_EXT_ID>
SCHEMBL16110373

> <PUBCHEM_EXT_DATASOURCE_URL>
https://www.surechembl.org/

> <PUBCHEM_EXT_SUBSTANCE_URL>
https://www.surechembl.org/chemical/SCHEMBL16110373

> <PUBCHEM_CID_ASSOCIATIONS>
117601453  1

> <PUBCHEM_COORDINATE_TYPE>
1
3

$$$$
