310931859
  -OEChem-07211613022D

 33 37  0     1  0  0  0  0  0999 V2000
    4.9261   -3.0606    0.0000 O   0  0  0  0  0  0  0  0  0  0  0  0
    0.7870   -4.7804    0.0000 O   0  0  0  0  0  0  0  0  0  0  0  0
    4.5472   -4.4597    0.0000 N   0  0  0  0  0  0  0  0  0  0  0  0
    0.9327   -3.3521    0.0000 N   0  0  0  0  0  0  0  0  0  0  0  0
    4.9552   -5.1884    0.0000 N   0  0  0  0  0  0  0  0  0  0  0  0
    0.5830   -0.7578    0.0000 N   0  0  3  0  0  0  0  0  0  0  0  0
    3.2646   -5.0427    0.0000 N   0  0  0  0  0  0  0  0  0  0  0  0
    8.7446   -1.6906    0.0000 N   0  0  0  0  0  0  0  0  0  0  0  0
    0.7578   -1.9529    0.0000 C   0  0  3  0  0  0  0  0  0  0  0  0
    5.8588   -4.1974    0.0000 C   0  0  0  0  0  0  0  0  0  0  0  0
    5.1010   -3.8476    0.0000 C   0  0  0  0  0  0  0  0  0  0  0  0
    1.3700   -2.5651    0.0000 C   0  0  0  0  0  0  0  0  0  0  0  0
    3.7310   -4.3723    0.0000 C   0  0  0  0  0  0  0  0  0  0  0  0
    1.2534   -4.1100    0.0000 C   0  0  0  0  0  0  0  0  0  0  0  0
    6.5876   -3.7601    0.0000 C   0  0  0  0  0  0  0  0  0  0  0  0
    0.0000   -2.3610    0.0000 C   0  0  0  0  0  0  0  0  0  0  0  0
    2.0987   -4.1974    0.0000 C   0  0  0  0  0  0  0  0  0  0  0  0
    0.1749   -1.4866    0.0000 C   0  0  0  0  0  0  0  0  0  0  0  0
    1.5157   -1.7198    0.0000 C   0  0  0  0  0  0  0  0  0  0  0  0
    0.0874   -3.1481    0.0000 C   0  0  0  0  0  0  0  0  0  0  0  0
    5.7714   -5.0136    0.0000 C   0  0  0  0  0  0  0  0  0  0  0  0
    6.5876   -2.9440    0.0000 C   0  0  0  0  0  0  0  0  0  0  0  0
    3.4104   -3.6144    0.0000 C   0  0  0  0  0  0  0  0  0  0  0  0
    2.4193   -4.9552    0.0000 C   0  0  0  0  0  0  0  0  0  0  0  0
    2.5651   -3.5269    0.0000 C   0  0  0  0  0  0  0  0  0  0  0  0
    1.3991   -0.9327    0.0000 C   0  0  0  0  0  0  0  0  0  0  0  0
    7.3163   -4.1974    0.0000 C   0  0  0  0  0  0  0  0  0  0  0  0
    7.3163   -2.5359    0.0000 C   0  0  0  0  0  0  0  0  0  0  0  0
    8.0159   -2.9440    0.0000 C   0  0  0  0  0  0  0  0  0  0  0  0
    8.0159   -3.7601    0.0000 C   0  0  0  0  0  0  0  0  0  0  0  0
    0.2332    0.0000    0.0000 C   0  0  0  0  0  0  0  0  0  0  0  0
    5.8588   -2.5359    0.0000 C   0  0  0  0  0  0  0  0  0  0  0  0
    8.7446   -2.5359    0.0000 C   0  0  0  0  0  0  0  0  0  0  0  0
  1 11  1  0  0  0  0
  2 14  2  0  0  0  0
  3  5  1  0  0  0  0
  3 11  1  0  0  0  0
  3 13  1  0  0  0  0
  4 12  1  0  0  0  0
  4 14  1  0  0  0  0
  4 20  1  0  0  0  0
  5 21  2  0  0  0  0
  6 18  1  0  0  0  0
  6 26  1  0  0  0  0
  6 31  1  0  0  0  0
  7 13  1  0  0  0  0
  7 24  2  0  0  0  0
  8 33  3  0  0  0  0
  9 12  1  0  0  0  0
  9 16  1  0  0  0  0
  9 18  1  0  0  0  0
  9 19  1  0  0  0  0
 10 11  2  0  0  0  0
 10 15  1  0  0  0  0
 10 21  1  0  0  0  0
 13 23  2  0  0  0  0
 14 17  1  0  0  0  0
 15 22  2  0  0  0  0
 15 27  1  0  0  0  0
 16 20  1  0  0  0  0
 17 24  1  0  0  0  0
 17 25  2  0  0  0  0
 19 26  1  0  0  0  0
 22 28  1  0  0  0  0
 22 32  1  0  0  0  0
 23 25  1  0  0  0  0
 27 30  2  0  0  0  0
 28 29  2  0  0  0  0
 29 30  1  0  0  0  0
 29 33  1  0  0  0  0
M  END
> <PUBCHEM_COMPOUND_ID_TYPE>
0

> <PUBCHEM_TOTAL_CHARGE>
0

> <PUBCHEM_SUBSTANCE_ID>
310931859

> <PUBCHEM_SUBSTANCE_VERSION>
1

> <PUBCHEM_EXT_DATASOURCE_NAME>
4488

> <PUBCHEM_EXT_DATASOURCE_REGID>
SCHEMBL16109194

> <PUBCHEM_SUBSTANCE_COMMENT>
InChI=1S/C25H26N6O2/c1-17-11-18(12-26)3-5-20(17)21-14-28-31(24(21)33)22-6-4-19(13-27-22)23(32)30-10-8-25(16-30)7-9-29(2)15-25/h3-6,11,13-14,33H,7-10,15-16H2,1-2H3
InChIKey=XDTSDLJFDQJHQM-UHFFFAOYSA-N

> <PUBCHEM_SUBSTANCE_SYNONYM>
SCHEMBL16109194

> <PUBCHEM_XREF_EXT_ID>
SCHEMBL16109194

> <PUBCHEM_EXT_DATASOURCE_URL>
https://www.surechembl.org/

> <PUBCHEM_EXT_SUBSTANCE_URL>
https://www.surechembl.org/chemical/SCHEMBL16109194

> <PUBCHEM_CID_ASSOCIATIONS>
117600526  1

> <PUBCHEM_COORDINATE_TYPE>
1
3

$$$$
