310934698
  -OEChem-07211613022D

 17 17  0     1  0  0  0  0  0999 V2000
    4.8178   -1.7023    0.0000 S   0  0  0  0  0  0  0  0  0  0  0  0
    1.3972   -1.6059    0.0000 O   0  0  0  0  0  0  0  0  0  0  0  0
    2.1359   -1.1563    0.0000 O   0  0  0  0  0  0  0  0  0  0  0  0
    2.9710    0.0000    0.0000 O   0  0  0  0  0  0  0  0  0  0  0  0
    2.1680   -0.4015    0.0000 O   0  0  0  0  0  0  0  0  0  0  0  0
    2.8104   -1.6702    0.0000 N   0  0  0  0  0  0  0  0  0  0  0  0
    3.5491   -1.3008    0.0000 C   0  0  3  0  0  0  0  0  0  0  0  0
    2.8907   -0.8190    0.0000 C   0  0  0  0  0  0  0  0  0  0  0  0
    4.3360   -1.0278    0.0000 C   0  0  0  0  0  0  0  0  0  0  0  0
    3.5491   -2.1198    0.0000 C   0  0  0  0  0  0  0  0  0  0  0  0
    2.2965   -1.3972    0.0000 C   0  0  0  0  0  0  0  0  0  0  0  0
    4.3360   -2.3768    0.0000 C   0  0  0  0  0  0  0  0  0  0  0  0
    0.6906   -1.1723    0.0000 C   0  0  0  0  0  0  0  0  0  0  0  0
    0.0000   -0.7227    0.0000 C   0  0  0  0  0  0  0  0  0  0  0  0
    1.1563   -0.4657    0.0000 C   0  0  0  0  0  0  0  0  0  0  0  0
    0.2569   -1.8629    0.0000 C   0  0  0  0  0  0  0  0  0  0  0  0
    1.4774   -0.6745    0.0000 C   0  0  0  0  0  0  0  0  0  0  0  0
  1  9  1  0  0  0  0
  1 12  1  0  0  0  0
  2 11  1  0  0  0  0
  2 13  1  0  0  0  0
  3  8  1  0  0  0  0
  3 17  1  0  0  0  0
  4  8  2  0  0  0  0
  5 11  2  0  0  0  0
  6  7  1  0  0  0  0
  6 11  1  0  0  0  0
  7  8  1  0  0  0  0
  7  9  1  0  0  0  0
  7 10  1  0  0  0  0
 10 12  1  0  0  0  0
 13 14  1  0  0  0  0
 13 15  1  0  0  0  0
 13 16  1  0  0  0  0
M  END
> <PUBCHEM_COMPOUND_ID_TYPE>
0

> <PUBCHEM_TOTAL_CHARGE>
0

> <PUBCHEM_SUBSTANCE_ID>
310934698

> <PUBCHEM_SUBSTANCE_VERSION>
1

> <PUBCHEM_EXT_DATASOURCE_NAME>
4488

> <PUBCHEM_EXT_DATASOURCE_REGID>
SCHEMBL16112199

> <PUBCHEM_SUBSTANCE_COMMENT>
InChI=1S/C11H19NO4S/c1-10(2,3)16-9(14)12-11(8(13)15-4)5-6-17-7-11/h5-7H2,1-4H3,(H,12,14)
InChIKey=KIHNSFMAMJHMEE-UHFFFAOYSA-N

> <PUBCHEM_SUBSTANCE_SYNONYM>
SCHEMBL16112199

> <PUBCHEM_XREF_EXT_ID>
SCHEMBL16112199

> <PUBCHEM_EXT_DATASOURCE_URL>
https://www.surechembl.org/

> <PUBCHEM_EXT_SUBSTANCE_URL>
https://www.surechembl.org/chemical/SCHEMBL16112199

> <PUBCHEM_CID_ASSOCIATIONS>
112757503  1

> <PUBCHEM_COORDINATE_TYPE>
1
3

$$$$
