310934389
  -OEChem-07211613022D

 16 14  0     1  0  0  0  0  0999 V2000
    2.1670    0.0000    0.0000 O   0  0  0  0  0  0  0  0  0  0  0  0
    6.7499    0.0000    0.0000 O   0  0  0  0  0  0  0  0  0  0  0  0
    2.9142   -1.2454    0.0000 O   0  0  0  0  0  0  0  0  0  0  0  0
    7.4723   -1.2454    0.0000 O   0  0  0  0  0  0  0  0  0  0  0  0
    0.7224    0.0000    0.0000 O   0  0  0  0  0  0  0  0  0  0  0  0
    5.3053    0.0000    0.0000 O   0  0  0  0  0  0  0  0  0  0  0  0
    1.4695   -2.0923    0.0000 N   0  0  0  0  0  0  0  0  0  0  0  0
    6.0276   -2.0923    0.0000 N   0  0  0  0  0  0  0  0  0  0  0  0
    1.4695   -1.2454    0.0000 C   0  0  3  0  0  0  0  0  0  0  0  0
    6.0276   -1.2454    0.0000 C   0  0  3  0  0  0  0  0  0  0  0  0
    2.1670   -0.8469    0.0000 C   0  0  0  0  0  0  0  0  0  0  0  0
    6.7499   -0.8469    0.0000 C   0  0  0  0  0  0  0  0  0  0  0  0
    0.7224   -0.8469    0.0000 C   0  0  3  0  0  0  0  0  0  0  0  0
    5.3053   -0.8469    0.0000 C   0  0  3  0  0  0  0  0  0  0  0  0
    0.0000   -1.2454    0.0000 C   0  0  0  0  0  0  0  0  0  0  0  0
    4.5830   -1.2454    0.0000 C   0  0  0  0  0  0  0  0  0  0  0  0
  1 11  2  0  0  0  0
  2 12  2  0  0  0  0
  3 11  1  0  0  0  0
  4 12  1  0  0  0  0
 13  5  1  6  0  0  0
 14  6  1  6  0  0  0
  9  7  1  6  0  0  0
 10  8  1  6  0  0  0
  9 11  1  0  0  0  0
  9 13  1  0  0  0  0
 10 12  1  0  0  0  0
 10 14  1  0  0  0  0
 13 15  1  0  0  0  0
 14 16  1  0  0  0  0
M  END
> <PUBCHEM_COMPOUND_ID_TYPE>
0

> <PUBCHEM_TOTAL_CHARGE>
0

> <PUBCHEM_SUBSTANCE_ID>
310934389

> <PUBCHEM_SUBSTANCE_VERSION>
1

> <PUBCHEM_EXT_DATASOURCE_NAME>
4488

> <PUBCHEM_EXT_DATASOURCE_REGID>
SCHEMBL16111860

> <PUBCHEM_SUBSTANCE_COMMENT>
InChI=1S/2C4H9NO3/c2*1-2(6)3(5)4(7)8/h2*2-3,6H,5H2,1H3,(H,7,8)/t2*2-,3+/m00/s1
InChIKey=VUUZLZXGRRDWBP-ULVVOCQISA-N

> <PUBCHEM_SUBSTANCE_SYNONYM>
SCHEMBL16111860

> <PUBCHEM_XREF_EXT_ID>
SCHEMBL16111860

> <PUBCHEM_EXT_DATASOURCE_URL>
https://www.surechembl.org/

> <PUBCHEM_EXT_SUBSTANCE_URL>
https://www.surechembl.org/chemical/SCHEMBL16111860

> <PUBCHEM_CID_ASSOCIATIONS>
117602613  1
69435  2

> <PUBCHEM_COORDINATE_TYPE>
1
3

> <PUBCHEM_BONDANNOTATIONS>
13  5  6
14  6  6
9  7  6
10  8  6

$$$$
