310949406
  -OEChem-07211613022D

  7  6  0     1  0  0  0  0  0999 V2000
    0.3671    0.7945    0.0000 N   0  0  3  0  0  0  0  0  0  0  0  0
   -0.3452   -0.4219    0.0000 N   0  0  0  0  0  0  0  0  0  0  0  0
    0.3671    0.0055    0.0000 C   0  0  0  0  0  0  0  0  0  0  0  0
   -0.3561    1.2218    0.0000 C   0  0  0  0  0  0  0  0  0  0  0  0
    1.0684    1.2218    0.0000 C   0  0  0  0  0  0  0  0  0  0  0  0
   -1.0684    0.8055    0.0000 C   0  0  0  0  0  0  0  0  0  0  0  0
   -0.3452   -1.2218    0.0000 C   0  0  0  0  0  0  0  0  0  0  0  0
  1  3  1  0  0  0  0
  1  4  1  0  0  0  0
  1  5  1  0  0  0  0
  2  3  1  0  0  0  0
  2  7  2  0  0  0  0
  4  6  1  0  0  0  0
M  END
> <PUBCHEM_COMPOUND_ID_TYPE>
0

> <PUBCHEM_TOTAL_CHARGE>
0

> <PUBCHEM_SUBSTANCE_ID>
310949406

> <PUBCHEM_SUBSTANCE_VERSION>
1

> <PUBCHEM_EXT_DATASOURCE_NAME>
4488

> <PUBCHEM_EXT_DATASOURCE_REGID>
SCHEMBL16127599

> <PUBCHEM_SUBSTANCE_COMMENT>
InChI=1S/C5H12N2/c1-4-7(3)5-6-2/h2,4-5H2,1,3H3
InChIKey=FNIXMPIBWSHLKT-UHFFFAOYSA-N

> <PUBCHEM_SUBSTANCE_SYNONYM>
SCHEMBL16127599

> <PUBCHEM_XREF_EXT_ID>
SCHEMBL16127599

> <PUBCHEM_EXT_DATASOURCE_URL>
https://www.surechembl.org/

> <PUBCHEM_EXT_SUBSTANCE_URL>
https://www.surechembl.org/chemical/SCHEMBL16127599

> <PUBCHEM_CID_ASSOCIATIONS>
59934508  1

> <PUBCHEM_COORDINATE_TYPE>
1
3

$$$$
