310946103
  -OEChem-07211613022D

 52 61  0     1  0  0  0  0  0999 V2000
    3.7301  -13.6963    0.0000 O   0  0  0  0  0  0  0  0  0  0  0  0
    0.4482  -13.5248    0.0000 N   0  0  0  0  0  0  0  0  0  0  0  0
   -2.0088  -15.1253    0.0000 C   0  0  3  0  0  0  0  0  0  0  0  0
   -1.2018  -14.9537    0.0000 C   0  0  0  0  0  0  0  0  0  0  0  0
   -2.0950  -15.9457    0.0000 C   0  0  0  0  0  0  0  0  0  0  0  0
   -0.7893  -15.6682    0.0000 C   0  0  0  0  0  0  0  0  0  0  0  0
   -1.3414  -16.2813    0.0000 C   0  0  0  0  0  0  0  0  0  0  0  0
   -2.8338  -15.1253    0.0000 C   0  0  0  0  0  0  0  0  0  0  0  0
   -2.0088  -14.3003    0.0000 C   0  0  0  0  0  0  0  0  0  0  0  0
   -0.7893  -14.2393    0.0000 C   0  0  0  0  0  0  0  0  0  0  0  0
    0.0357  -14.2393    0.0000 C   0  0  0  0  0  0  0  0  0  0  0  0
   -2.7625  -16.4307    0.0000 C   0  0  0  0  0  0  0  0  0  0  0  0
    0.0357  -15.6682    0.0000 C   0  0  0  0  0  0  0  0  0  0  0  0
   -1.2551  -17.1018    0.0000 C   0  0  0  0  0  0  0  0  0  0  0  0
   -3.2463  -15.8397    0.0000 C   0  0  0  0  0  0  0  0  0  0  0  0
   -3.2463  -14.4108    0.0000 C   0  0  0  0  0  0  0  0  0  0  0  0
   -1.2943  -13.8878    0.0000 C   0  0  0  0  0  0  0  0  0  0  0  0
   -2.7233  -13.8878    0.0000 C   0  0  0  0  0  0  0  0  0  0  0  0
    0.4482  -14.9537    0.0000 C   0  0  0  0  0  0  0  0  0  0  0  0
   -2.6762  -17.2511    0.0000 C   0  0  0  0  0  0  0  0  0  0  0  0
   -1.9226  -17.5867    0.0000 C   0  0  0  0  0  0  0  0  0  0  0  0
    1.2732  -13.5248    0.0000 C   0  0  0  0  0  0  0  0  0  0  0  0
   -4.0713  -15.8397    0.0000 C   0  0  0  0  0  0  0  0  0  0  0  0
    0.0357  -12.8103    0.0000 C   0  0  0  0  0  0  0  0  0  0  0  0
   -4.0713  -14.4108    0.0000 C   0  0  0  0  0  0  0  0  0  0  0  0
   -1.2943  -13.0628    0.0000 C   0  0  0  0  0  0  0  0  0  0  0  0
   -2.7233  -13.0628    0.0000 C   0  0  0  0  0  0  0  0  0  0  0  0
    2.5107  -14.2393    0.0000 C   0  0  0  0  0  0  0  0  0  0  0  0
    1.6857  -14.2393    0.0000 C   0  0  0  0  0  0  0  0  0  0  0  0
   -4.4838  -15.1253    0.0000 C   0  0  0  0  0  0  0  0  0  0  0  0
    2.9232  -13.5248    0.0000 C   0  0  0  0  0  0  0  0  0  0  0  0
    3.0627  -14.8523    0.0000 C   0  0  0  0  0  0  0  0  0  0  0  0
   -2.0088  -12.6503    0.0000 C   0  0  0  0  0  0  0  0  0  0  0  0
    1.6857  -12.8103    0.0000 C   0  0  0  0  0  0  0  0  0  0  0  0
    3.8164  -14.5168    0.0000 C   0  0  0  0  0  0  0  0  0  0  0  0
    2.5107  -12.8103    0.0000 C   0  0  0  0  0  0  0  0  0  0  0  0
    0.4482  -12.0958    0.0000 C   0  0  0  0  0  0  0  0  0  0  0  0
   -0.7893  -12.8103    0.0000 C   0  0  0  0  0  0  0  0  0  0  0  0
   -4.4838  -16.5542    0.0000 C   0  0  0  0  0  0  0  0  0  0  0  0
    2.9765  -15.6728    0.0000 C   0  0  0  0  0  0  0  0  0  0  0  0
    0.0357  -11.3814    0.0000 C   0  0  0  0  0  0  0  0  0  0  0  0
   -1.2018  -12.0958    0.0000 C   0  0  0  0  0  0  0  0  0  0  0  0
   -0.7893  -11.3814    0.0000 C   0  0  0  0  0  0  0  0  0  0  0  0
    4.4838  -15.0017    0.0000 C   0  0  0  0  0  0  0  0  0  0  0  0
    3.6439  -16.1578    0.0000 C   0  0  0  0  0  0  0  0  0  0  0  0
    4.3976  -15.8222    0.0000 C   0  0  0  0  0  0  0  0  0  0  0  0
   -1.2018  -10.6669    0.0000 C   0  0  0  0  0  0  0  0  0  0  0  0
   -0.7893   -9.9524    0.0000 C   0  0  0  0  0  0  0  0  0  0  0  0
   -2.0268  -10.6669    0.0000 C   0  0  0  0  0  0  0  0  0  0  0  0
   -1.2018   -9.2380    0.0000 C   0  0  0  0  0  0  0  0  0  0  0  0
   -2.4393   -9.9524    0.0000 C   0  0  0  0  0  0  0  0  0  0  0  0
   -2.0268   -9.2380    0.0000 C   0  0  0  0  0  0  0  0  0  0  0  0
  1 31  1  0  0  0  0
  1 35  1  0  0  0  0
  2 11  1  0  0  0  0
  2 22  1  0  0  0  0
  2 24  1  0  0  0  0
  3  4  1  0  0  0  0
  3  5  1  0  0  0  0
  3  8  1  0  0  0  0
  3  9  1  0  0  0  0
  4  6  2  0  0  0  0
  4 10  1  0  0  0  0
  5  7  2  0  0  0  0
  5 12  1  0  0  0  0
  6  7  1  0  0  0  0
  6 13  1  0  0  0  0
  7 14  1  0  0  0  0
  8 15  1  0  0  0  0
  8 16  2  0  0  0  0
  9 17  2  0  0  0  0
  9 18  1  0  0  0  0
 10 11  2  0  0  0  0
 11 19  1  0  0  0  0
 12 20  2  0  0  0  0
 13 19  2  0  0  0  0
 14 21  2  0  0  0  0
 15 23  2  0  0  0  0
 16 25  1  0  0  0  0
 17 26  1  0  0  0  0
 18 27  2  0  0  0  0
 20 21  1  0  0  0  0
 22 29  2  0  0  0  0
 22 34  1  0  0  0  0
 23 30  1  0  0  0  0
 23 39  1  0  0  0  0
 24 37  2  0  0  0  0
 24 38  1  0  0  0  0
 25 30  2  0  0  0  0
 26 33  2  0  0  0  0
 27 33  1  0  0  0  0
 28 29  1  0  0  0  0
 28 31  2  0  0  0  0
 28 32  1  0  0  0  0
 31 36  1  0  0  0  0
 32 35  2  0  0  0  0
 32 40  1  0  0  0  0
 34 36  2  0  0  0  0
 35 44  1  0  0  0  0
 37 41  1  0  0  0  0
 38 42  2  0  0  0  0
 40 45  2  0  0  0  0
 41 43  2  0  0  0  0
 42 43  1  0  0  0  0
 43 47  1  0  0  0  0
 44 46  2  0  0  0  0
 45 46  1  0  0  0  0
 47 48  2  0  0  0  0
 47 49  1  0  0  0  0
 48 50  1  0  0  0  0
 49 51  2  0  0  0  0
 50 52  2  0  0  0  0
 51 52  1  0  0  0  0
M  END
> <PUBCHEM_COMPOUND_ID_TYPE>
0

> <PUBCHEM_TOTAL_CHARGE>
0

> <PUBCHEM_SUBSTANCE_ID>
310946103

> <PUBCHEM_SUBSTANCE_VERSION>
1

> <PUBCHEM_EXT_DATASOURCE_NAME>
4488

> <PUBCHEM_EXT_DATASOURCE_REGID>
SCHEMBL16124211

> <PUBCHEM_SUBSTANCE_COMMENT>
InChI=1S/C50H35NO/c1-34-13-12-18-38(31-34)50(37-16-6-3-7-17-37)46-21-10-8-19-42(46)43-29-27-41(33-47(43)50)51(39-25-23-36(24-26-39)35-14-4-2-5-15-35)40-28-30-49-45(32-40)44-20-9-11-22-48(44)52-49/h2-33H,1H3
InChIKey=SISJJDLQEYFSJT-UHFFFAOYSA-N

> <PUBCHEM_SUBSTANCE_SYNONYM>
SCHEMBL16124211

> <PUBCHEM_XREF_EXT_ID>
SCHEMBL16124211

> <PUBCHEM_EXT_DATASOURCE_URL>
https://www.surechembl.org/

> <PUBCHEM_EXT_SUBSTANCE_URL>
https://www.surechembl.org/chemical/SCHEMBL16124211

> <PUBCHEM_CID_ASSOCIATIONS>
117612066  1

> <PUBCHEM_COORDINATE_TYPE>
1
3

$$$$
