310944742
  -OEChem-07211613022D

 18 19  0     1  0  0  0  0  0999 V2000
    2.1281    2.5436    0.0000 Br  0  0  0  0  0  0  0  0  0  0  0  0
   -1.7633    0.8208    0.0000 O   0  0  0  0  0  0  0  0  0  0  0  0
   -1.7431   -1.7126    0.0000 N   0  0  3  0  0  0  0  0  0  0  0  0
   -0.2432   -0.1925    0.0000 N   0  0  0  0  0  0  0  0  0  0  0  0
   -0.2432   -1.5505    0.0000 N   0  0  0  0  0  0  0  0  0  0  0  0
   -1.0539   -1.2465    0.0000 C   0  0  0  0  0  0  0  0  0  0  0  0
   -1.0337   -0.4155    0.0000 C   0  0  0  0  0  0  0  0  0  0  0  0
   -1.7633   -0.0304    0.0000 C   0  0  0  0  0  0  0  0  0  0  0  0
   -2.4322   -1.2871    0.0000 C   0  0  0  0  0  0  0  0  0  0  0  0
    0.8310    0.8006    0.0000 C   0  0  0  0  0  0  0  0  0  0  0  0
    0.0202    0.6182    0.0000 C   0  0  0  0  0  0  0  0  0  0  0  0
    1.0944    1.5910    0.0000 C   0  0  0  0  0  0  0  0  0  0  0  0
    1.8849    1.7734    0.0000 C   0  0  0  0  0  0  0  0  0  0  0  0
    1.3783    0.1925    0.0000 C   0  0  0  0  0  0  0  0  0  0  0  0
   -1.7228   -2.5436    0.0000 C   0  0  0  0  0  0  0  0  0  0  0  0
    2.4322    1.1654    0.0000 C   0  0  0  0  0  0  0  0  0  0  0  0
    2.1687    0.3547    0.0000 C   0  0  0  0  0  0  0  0  0  0  0  0
    0.0608   -0.8208    0.0000 C   0  0  0  0  0  0  0  0  0  0  0  0
  1 13  1  0  0  0  0
  2  8  1  0  0  0  0
  2  9  1  0  0  0  0
  3  6  1  0  0  0  0
  3  9  1  0  0  0  0
  3 15  1  0  0  0  0
  4  7  1  0  0  0  0
  4 11  1  0  0  0  0
  5  6  1  0  0  0  0
  5 18  1  0  0  0  0
  6  7  2  0  0  0  0
  7  8  1  0  0  0  0
 10 11  1  0  0  0  0
 10 12  1  0  0  0  0
 10 14  2  0  0  0  0
 12 13  2  0  0  0  0
 13 16  1  0  0  0  0
 14 17  1  0  0  0  0
 16 17  2  0  0  0  0
M  END
> <PUBCHEM_COMPOUND_ID_TYPE>
0

> <PUBCHEM_TOTAL_CHARGE>
0

> <PUBCHEM_SUBSTANCE_ID>
310944742

> <PUBCHEM_SUBSTANCE_VERSION>
1

> <PUBCHEM_EXT_DATASOURCE_NAME>
4488

> <PUBCHEM_EXT_DATASOURCE_REGID>
SCHEMBL16122821

> <PUBCHEM_SUBSTANCE_COMMENT>
InChI=1S/C13H18BrN3O/c1-15-13-12(8-18-9-17(13)2)16-7-10-4-3-5-11(14)6-10/h3-6,15-16H,7-9H2,1-2H3
InChIKey=QOJPMMRENIOEEP-UHFFFAOYSA-N

> <PUBCHEM_SUBSTANCE_SYNONYM>
SCHEMBL16122821

> <PUBCHEM_XREF_EXT_ID>
SCHEMBL16122821

> <PUBCHEM_EXT_DATASOURCE_URL>
https://www.surechembl.org/

> <PUBCHEM_EXT_SUBSTANCE_URL>
https://www.surechembl.org/chemical/SCHEMBL16122821

> <PUBCHEM_CID_ASSOCIATIONS>
117610959  1

> <PUBCHEM_COORDINATE_TYPE>
1
3

> <PUBCHEM_BONDANNOTATIONS>
2  9  3

$$$$
