310934316
  -OEChem-07211613022D

 42 45  0     1  0  0  0  0  0999 V2000
    0.7013   -6.1875    0.0000 Cl  0  0  0  0  0  0  0  0  0  0  0  0
    5.7338   -2.4750    0.0000 O   0  0  0  0  0  0  0  0  0  0  0  0
    2.8875   -1.6500    0.0000 O   0  0  0  0  0  0  0  0  0  0  0  0
    5.6925   -6.6000    0.0000 O   0  0  0  0  0  0  0  0  0  0  0  0
    4.2900   -6.6000    0.0000 O   0  0  0  0  0  0  0  0  0  0  0  0
    0.0000   -2.4750    0.0000 O   0  5  0  0  0  0  0  0  0  0  0  0
    1.4025   -2.4750    0.0000 O   0  0  0  0  0  0  0  0  0  0  0  0
    3.0113   -4.2900    0.0000 O   0  0  0  0  0  0  0  0  0  0  0  0
    3.5887   -2.8875    0.0000 N   0  0  0  0  0  0  0  0  0  0  0  0
    4.9912   -3.7125    0.0000 N   0  0  0  0  0  0  0  0  0  0  0  0
    4.9912   -5.3625    0.0000 N   0  0  0  0  0  0  0  0  0  0  0  0
    0.7013   -2.8875    0.0000 N   0  3  0  0  0  0  0  0  0  0  0  0
    4.2900   -2.4750    0.0000 C   0  0  3  0  0  0  0  0  0  0  0  0
    4.9912   -2.8875    0.0000 C   0  0  0  0  0  0  0  0  0  0  0  0
    2.1450   -3.7125    0.0000 C   0  0  0  0  0  0  0  0  0  0  0  0
    2.8875   -2.4750    0.0000 C   0  0  0  0  0  0  0  0  0  0  0  0
    1.4437   -4.1250    0.0000 C   0  0  0  0  0  0  0  0  0  0  0  0
    4.2900   -4.1250    0.0000 C   0  0  3  0  0  0  0  0  0  0  0  0
    2.1450   -2.8462    0.0000 C   0  0  0  0  0  0  0  0  0  0  0  0
    3.5887   -3.7125    0.0000 C   0  0  0  0  0  0  0  0  0  0  0  0
    0.7013   -3.7125    0.0000 C   0  0  0  0  0  0  0  0  0  0  0  0
    2.8462   -4.1250    0.0000 C   0  0  0  0  0  0  0  0  0  0  0  0
    4.2900   -1.6500    0.0000 C   0  0  0  0  0  0  0  0  0  0  0  0
    5.7338   -4.1250    0.0000 C   0  0  0  0  0  0  0  0  0  0  0  0
    4.2900   -4.9500    0.0000 C   0  0  0  0  0  0  0  0  0  0  0  0
    1.4025   -4.9500    0.0000 C   0  0  0  0  0  0  0  0  0  0  0  0
    5.7338   -4.9500    0.0000 C   0  0  0  0  0  0  0  0  0  0  0  0
    4.9912   -1.2375    0.0000 C   0  0  0  0  0  0  0  0  0  0  0  0
    4.9912   -6.1875    0.0000 C   0  0  0  0  0  0  0  0  0  0  0  0
    0.0000   -4.1250    0.0000 C   0  0  0  0  0  0  0  0  0  0  0  0
    0.7013   -5.3625    0.0000 C   0  0  0  0  0  0  0  0  0  0  0  0
    3.7538   -3.8775    0.0000 C   0  0  0  0  0  0  0  0  0  0  0  0
    0.0000   -4.9500    0.0000 C   0  0  0  0  0  0  0  0  0  0  0  0
    4.9912   -0.4125    0.0000 C   0  0  0  0  0  0  0  0  0  0  0  0
    5.7338   -1.6500    0.0000 C   0  0  0  0  0  0  0  0  0  0  0  0
    5.6925   -7.4250    0.0000 C   0  0  0  0  0  0  0  0  0  0  0  0
    5.7338    0.0000    0.0000 C   0  0  0  0  0  0  0  0  0  0  0  0
    6.4350   -1.2375    0.0000 C   0  0  0  0  0  0  0  0  0  0  0  0
    6.4350   -0.4125    0.0000 C   0  0  0  0  0  0  0  0  0  0  0  0
    4.8675   -7.4250    0.0000 C   0  0  0  0  0  0  0  0  0  0  0  0
    5.6925   -8.2500    0.0000 C   0  0  0  0  0  0  0  0  0  0  0  0
    6.5175   -7.4250    0.0000 C   0  0  0  0  0  0  0  0  0  0  0  0
  1 31  1  0  0  0  0
  2 14  2  0  0  0  0
  3 16  2  0  0  0  0
  4 29  1  0  0  0  0
  4 36  1  0  0  0  0
  5 29  2  0  0  0  0
  6 12  1  0  0  0  0
  7 12  2  0  0  0  0
  8 32  1  0  0  0  0
  9 13  1  0  0  0  0
  9 16  1  0  0  0  0
  9 20  1  0  0  0  0
 10 14  1  0  0  0  0
 10 18  1  0  0  0  0
 10 24  1  0  0  0  0
 11 25  1  0  0  0  0
 11 27  1  0  0  0  0
 11 29  1  0  0  0  0
 12 21  1  0  0  0  0
 13 14  1  0  0  0  0
 13 23  1  0  0  0  0
 15 17  1  0  0  0  0
 15 19  2  0  0  0  0
 15 22  1  0  0  0  0
 16 19  1  0  0  0  0
 17 21  1  0  0  0  0
 17 26  2  0  0  0  0
 18 25  1  0  0  0  0
 18 32  1  0  0  0  0
 20 22  2  0  0  0  0
 21 30  2  0  0  0  0
 23 28  1  0  0  0  0
 24 27  1  0  0  0  0
 26 31  1  0  0  0  0
 28 34  2  0  0  0  0
 28 35  1  0  0  0  0
 30 33  1  0  0  0  0
 31 33  2  0  0  0  0
 34 37  1  0  0  0  0
 35 38  2  0  0  0  0
 36 40  1  0  0  0  0
 36 41  1  0  0  0  0
 36 42  1  0  0  0  0
 37 39  2  0  0  0  0
 38 39  1  0  0  0  0
M  CHG  2   6  -1  12   1
M  END
> <PUBCHEM_COMPOUND_ID_TYPE>
0

> <PUBCHEM_TOTAL_CHARGE>
0

> <PUBCHEM_SUBSTANCE_ID>
310934316

> <PUBCHEM_SUBSTANCE_VERSION>
1

> <PUBCHEM_EXT_DATASOURCE_NAME>
4488

> <PUBCHEM_EXT_DATASOURCE_REGID>
SCHEMBL16111774

> <PUBCHEM_SUBSTANCE_COMMENT>
InChI=1S/C30H33ClN4O7/c1-30(2,3)42-29(39)32-13-14-33(23(18-32)19-36)28(38)26(15-20-7-5-4-6-8-20)34-12-11-21(16-27(34)37)24-17-22(31)9-10-25(24)35(40)41/h4-12,16-17,23,26,36H,13-15,18-19H2,1-3H3
InChIKey=OYZXCUKSCYCIDQ-UHFFFAOYSA-N

> <PUBCHEM_SUBSTANCE_SYNONYM>
SCHEMBL16111774

> <PUBCHEM_XREF_EXT_ID>
SCHEMBL16111774

> <PUBCHEM_EXT_DATASOURCE_URL>
https://www.surechembl.org/

> <PUBCHEM_EXT_SUBSTANCE_URL>
https://www.surechembl.org/chemical/SCHEMBL16111774

> <PUBCHEM_CID_ASSOCIATIONS>
117602556  1

> <PUBCHEM_COORDINATE_TYPE>
1
3

$$$$
