310932975
  -OEChem-07211613022D

 40 45  0     1  0  0  0  0  0999 V2000
   -1.7294    1.3485    0.0000 O   0  0  0  0  0  0  0  0  0  0  0  0
   -2.3236   -1.4470    0.0000 O   0  0  0  0  0  0  0  0  0  0  0  0
    6.5160   -2.6435    0.0000 O   0  0  0  0  0  0  0  0  0  0  0  0
    3.3854   -0.4908    0.0000 O   0  0  0  0  0  0  0  0  0  0  0  0
    0.0000    0.8772    0.0000 N   0  0  3  0  0  0  0  0  0  0  0  0
    1.7715   -0.8339    0.0000 N   0  0  3  0  0  0  0  0  0  0  0  0
    2.0264   -0.0493    0.0000 N   0  0  0  0  0  0  0  0  0  0  0  0
    3.6826   -1.8885    0.0000 N   0  0  0  0  0  0  0  0  0  0  0  0
    6.9285   -1.3740    0.0000 N   0  0  0  0  0  0  0  0  0  0  0  0
    3.5724    3.7647    0.0000 N   0  0  0  0  0  0  0  0  0  0  0  0
   -0.6674    0.3923    0.0000 C   0  0  3  0  0  0  0  0  0  0  0  0
   -0.4125   -0.3923    0.0000 C   0  0  0  0  0  0  0  0  0  0  0  0
    0.4125   -0.3923    0.0000 C   0  0  0  0  0  0  0  0  0  0  0  0
    0.6674    0.3923    0.0000 C   0  0  0  0  0  0  0  0  0  0  0  0
   -1.4744    0.5638    0.0000 C   0  0  0  0  0  0  0  0  0  0  0  0
   -0.9645   -1.0054    0.0000 C   0  0  0  0  0  0  0  0  0  0  0  0
    0.9645   -1.0054    0.0000 C   0  0  0  0  0  0  0  0  0  0  0  0
    1.4744    0.5638    0.0000 C   0  0  0  0  0  0  0  0  0  0  0  0
    0.0000    1.7022    0.0000 C   0  0  0  0  0  0  0  0  0  0  0  0
   -1.7715   -0.8339    0.0000 C   0  0  0  0  0  0  0  0  0  0  0  0
   -2.0264   -0.0493    0.0000 C   0  0  0  0  0  0  0  0  0  0  0  0
    0.7144    2.1147    0.0000 C   0  0  0  0  0  0  0  0  0  0  0  0
    2.3236   -1.4470    0.0000 C   0  0  0  0  0  0  0  0  0  0  0  0
    3.1305   -1.2755    0.0000 C   0  0  0  0  0  0  0  0  0  0  0  0
    4.4895   -1.7170    0.0000 C   0  0  0  0  0  0  0  0  0  0  0  0
    5.8485   -2.1586    0.0000 C   0  0  0  0  0  0  0  0  0  0  0  0
    6.1035   -1.3740    0.0000 C   0  0  0  0  0  0  0  0  0  0  0  0
    1.4290    1.7022    0.0000 C   0  0  0  0  0  0  0  0  0  0  0  0
    0.7144    2.9397    0.0000 C   0  0  0  0  0  0  0  0  0  0  0  0
    5.0416   -2.3301    0.0000 C   0  0  0  0  0  0  0  0  0  0  0  0
    4.7445   -0.9324    0.0000 C   0  0  0  0  0  0  0  0  0  0  0  0
    5.5514   -0.7609    0.0000 C   0  0  0  0  0  0  0  0  0  0  0  0
    7.1834   -2.1586    0.0000 C   0  0  0  0  0  0  0  0  0  0  0  0
    2.1434    2.1147    0.0000 C   0  0  0  0  0  0  0  0  0  0  0  0
    1.4290    3.3522    0.0000 C   0  0  0  0  0  0  0  0  0  0  0  0
    2.1434    2.9397    0.0000 C   0  0  0  0  0  0  0  0  0  0  0  0
   -3.1305   -1.2755    0.0000 C   0  0  0  0  0  0  0  0  0  0  0  0
    3.4276   -2.6732    0.0000 C   0  0  0  0  0  0  0  0  0  0  0  0
    7.9680   -2.4135    0.0000 C   0  0  0  0  0  0  0  0  0  0  0  0
    2.8579    3.3522    0.0000 C   0  0  0  0  0  0  0  0  0  0  0  0
  1 15  2  0  0  0  0
  2 20  1  0  0  0  0
  2 37  1  0  0  0  0
  3 26  1  0  0  0  0
  3 33  1  0  0  0  0
  4 24  2  0  0  0  0
  5 11  1  0  0  0  0
  5 14  1  0  0  0  0
  5 19  1  0  0  0  0
  6  7  1  0  0  0  0
  6 17  1  0  0  0  0
  6 23  1  0  0  0  0
  7 18  1  0  0  0  0
  8 24  1  0  0  0  0
  8 25  1  0  0  0  0
  8 38  1  0  0  0  0
  9 27  1  0  0  0  0
  9 33  2  0  0  0  0
 10 40  3  0  0  0  0
 11 12  1  0  0  0  0
 11 15  1  0  0  0  0
 12 13  1  0  0  0  0
 12 16  2  0  0  0  0
 13 14  1  0  0  0  0
 13 17  2  0  0  0  0
 14 18  2  0  0  0  0
 15 21  1  0  0  0  0
 16 20  1  0  0  0  0
 19 22  1  0  0  0  0
 20 21  2  0  0  0  0
 22 28  2  0  0  0  0
 22 29  1  0  0  0  0
 23 24  1  0  0  0  0
 25 30  1  0  0  0  0
 25 31  2  0  0  0  0
 26 27  1  0  0  0  0
 26 30  2  0  0  0  0
 27 32  2  0  0  0  0
 28 34  1  0  0  0  0
 29 35  2  0  0  0  0
 31 32  1  0  0  0  0
 33 39  1  0  0  0  0
 34 36  2  0  0  0  0
 35 36  1  0  0  0  0
 36 40  1  0  0  0  0
M  END
> <PUBCHEM_COMPOUND_ID_TYPE>
0

> <PUBCHEM_TOTAL_CHARGE>
0

> <PUBCHEM_SUBSTANCE_ID>
310932975

> <PUBCHEM_SUBSTANCE_VERSION>
1

> <PUBCHEM_EXT_DATASOURCE_NAME>
4488

> <PUBCHEM_EXT_DATASOURCE_REGID>
SCHEMBL16110372

> <PUBCHEM_SUBSTANCE_COMMENT>
InChI=1S/C30H26N6O4/c1-18-33-25-9-8-21(10-28(25)40-18)34(2)29(38)17-35-16-24-23-11-22(39-3)12-27(37)30(23)36(26(24)14-32-35)15-20-6-4-19(13-31)5-7-20/h4-12,14,16,30,32H,15,17H2,1-3H3
InChIKey=GKNSKUVYZHAXON-UHFFFAOYSA-N

> <PUBCHEM_SUBSTANCE_SYNONYM>
SCHEMBL16110372

> <PUBCHEM_XREF_EXT_ID>
SCHEMBL16110372

> <PUBCHEM_EXT_DATASOURCE_URL>
https://www.surechembl.org/

> <PUBCHEM_EXT_SUBSTANCE_URL>
https://www.surechembl.org/chemical/SCHEMBL16110372

> <PUBCHEM_CID_ASSOCIATIONS>
117601452  1

> <PUBCHEM_COORDINATE_TYPE>
1
3

$$$$
