310930468
  -OEChem-07211613022D

 24 27  0     1  0  0  0  0  0999 V2000
    5.5198   -0.8202    0.0000 O   0  0  0  0  0  0  0  0  0  0  0  0
    0.0000   -1.9286    0.0000 O   0  0  0  0  0  0  0  0  0  0  0  0
    4.2118   -0.1551    0.0000 N   0  0  0  0  0  0  0  0  0  0  0  0
    0.3990   -2.6601    0.0000 N   0  0  0  0  0  0  0  0  0  0  0  0
    4.2118   -1.4852    0.0000 C   0  0  3  0  0  0  0  0  0  0  0  0
    3.4360   -1.2414    0.0000 C   0  0  0  0  0  0  0  0  0  0  0  0
    3.4360   -0.3990    0.0000 C   0  0  0  0  0  0  0  0  0  0  0  0
    4.6996   -0.8202    0.0000 C   0  0  0  0  0  0  0  0  0  0  0  0
    5.0321   -1.5961    0.0000 C   0  0  0  0  0  0  0  0  0  0  0  0
    2.7045   -1.6404    0.0000 C   0  0  0  0  0  0  0  0  0  0  0  0
    2.0172   -1.2414    0.0000 C   0  0  0  0  0  0  0  0  0  0  0  0
    1.3079   -1.6626    0.0000 C   0  0  0  0  0  0  0  0  0  0  0  0
    2.7045    0.0000    0.0000 C   0  0  0  0  0  0  0  0  0  0  0  0
    4.4557   -2.2611    0.0000 C   0  0  0  0  0  0  0  0  0  0  0  0
    2.0172   -0.3990    0.0000 C   0  0  0  0  0  0  0  0  0  0  0  0
    0.5542   -1.3301    0.0000 C   0  0  0  0  0  0  0  0  0  0  0  0
    1.2192   -2.4606    0.0000 C   0  0  0  0  0  0  0  0  0  0  0  0
    5.5641   -0.9532    0.0000 C   0  0  0  0  0  0  0  0  0  0  0  0
    5.3203   -2.3720    0.0000 C   0  0  0  0  0  0  0  0  0  0  0  0
    6.3622   -1.0862    0.0000 C   0  0  0  0  0  0  0  0  0  0  0  0
    6.1183   -2.5050    0.0000 C   0  0  0  0  0  0  0  0  0  0  0  0
    6.6503   -1.8621    0.0000 C   0  0  0  0  0  0  0  0  0  0  0  0
    0.3769   -0.5320    0.0000 C   0  0  0  0  0  0  0  0  0  0  0  0
    1.8400   -3.0148    0.0000 C   0  0  0  0  0  0  0  0  0  0  0  0
  1  8  2  0  0  0  0
  2  4  1  0  0  0  0
  2 16  1  0  0  0  0
  3  7  1  0  0  0  0
  3  8  1  0  0  0  0
  4 17  2  0  0  0  0
  5  6  1  0  0  0  0
  5  8  1  0  0  0  0
  5  9  1  0  0  0  0
  5 14  1  0  0  0  0
  6  7  2  0  0  0  0
  6 10  1  0  0  0  0
  7 13  1  0  0  0  0
  9 18  2  0  0  0  0
  9 19  1  0  0  0  0
 10 11  2  0  0  0  0
 11 12  1  0  0  0  0
 11 15  1  0  0  0  0
 12 16  2  0  0  0  0
 12 17  1  0  0  0  0
 13 15  2  0  0  0  0
 16 23  1  0  0  0  0
 17 24  1  0  0  0  0
 18 20  1  0  0  0  0
 19 21  2  0  0  0  0
 20 22  2  0  0  0  0
 21 22  1  0  0  0  0
M  END
> <PUBCHEM_COMPOUND_ID_TYPE>
0

> <PUBCHEM_TOTAL_CHARGE>
0

> <PUBCHEM_SUBSTANCE_ID>
310930468

> <PUBCHEM_SUBSTANCE_VERSION>
1

> <PUBCHEM_EXT_DATASOURCE_NAME>
4488

> <PUBCHEM_EXT_DATASOURCE_REGID>
SCHEMBL16107758

> <PUBCHEM_SUBSTANCE_COMMENT>
InChI=1S/C20H18N2O2/c1-12-18(13(2)24-22-12)14-9-10-17-16(11-14)20(3,19(23)21-17)15-7-5-4-6-8-15/h4-11H,1-3H3,(H,21,23)
InChIKey=COMPUOIVODFPKT-UHFFFAOYSA-N

> <PUBCHEM_SUBSTANCE_SYNONYM>
SCHEMBL16107758

> <PUBCHEM_XREF_EXT_ID>
SCHEMBL16107758

> <PUBCHEM_EXT_DATASOURCE_URL>
https://www.surechembl.org/

> <PUBCHEM_EXT_SUBSTANCE_URL>
https://www.surechembl.org/chemical/SCHEMBL16107758

> <PUBCHEM_CID_ASSOCIATIONS>
86296098  1

> <PUBCHEM_COORDINATE_TYPE>
1
3

$$$$
