310944177
  -OEChem-07211613022D

 24 26  0     1  0  0  0  0  0999 V2000
    1.6372   -2.1229    0.0000 O   0  0  0  0  0  0  0  0  0  0  0  0
    0.4995   -1.2765    0.0000 N   0  0  0  0  0  0  0  0  0  0  0  0
   -0.3052   -1.0961    0.0000 N   0  0  0  0  0  0  0  0  0  0  0  0
    1.3181    1.1100    0.0000 N   0  0  3  0  0  0  0  0  0  0  0  0
   -2.5391    0.9712    0.0000 N   0  0  0  0  0  0  0  0  0  0  0  0
    2.5530    2.9138    0.0000 N   0  0  0  0  0  0  0  0  0  0  0  0
   -0.4024   -0.2636    0.0000 C   0  0  0  0  0  0  0  0  0  0  0  0
    0.3330    0.0555    0.0000 C   0  0  0  0  0  0  0  0  0  0  0  0
    0.8880   -0.5550    0.0000 C   0  0  0  0  0  0  0  0  0  0  0  0
   -1.1377    0.1526    0.0000 C   0  0  0  0  0  0  0  0  0  0  0  0
    0.8047   -2.0119    0.0000 C   0  0  3  0  0  0  0  0  0  0  0  0
    0.5133    0.8741    0.0000 C   0  0  0  0  0  0  0  0  0  0  0  0
   -1.8177   -0.2497    0.0000 C   0  0  0  0  0  0  0  0  0  0  0  0
   -1.1100    0.9712    0.0000 C   0  0  0  0  0  0  0  0  0  0  0  0
    0.3330   -2.7056    0.0000 C   0  0  0  0  0  0  0  0  0  0  0  0
   -2.5530    0.1526    0.0000 C   0  0  0  0  0  0  0  0  0  0  0  0
   -1.8315    1.3874    0.0000 C   0  0  0  0  0  0  0  0  0  0  0  0
    1.9564   -2.8583    0.0000 C   0  0  0  0  0  0  0  0  0  0  0  0
    0.6522   -3.4271    0.0000 C   0  0  0  0  0  0  0  0  0  0  0  0
    1.4846   -3.5243    0.0000 C   0  0  0  0  0  0  0  0  0  0  0  0
    1.5262    1.9286    0.0000 C   0  0  0  0  0  0  0  0  0  0  0  0
    1.9148    0.5133    0.0000 C   0  0  0  0  0  0  0  0  0  0  0  0
    2.3032    2.1229    0.0000 C   0  0  0  0  0  0  0  0  0  0  0  0
    1.9148    3.5243    0.0000 C   0  0  0  0  0  0  0  0  0  0  0  0
  1 11  1  0  0  0  0
  1 18  1  0  0  0  0
  2  3  1  0  0  0  0
  2  9  1  0  0  0  0
  2 11  1  0  0  0  0
  3  7  2  0  0  0  0
  4 12  1  0  0  0  0
  4 21  1  0  0  0  0
  4 22  1  0  0  0  0
  5 16  1  0  0  0  0
  5 17  1  0  0  0  0
  6 23  1  0  0  0  0
  6 24  1  0  0  0  0
  7  8  1  0  0  0  0
  7 10  1  0  0  0  0
  8  9  2  0  0  0  0
  8 12  1  0  0  0  0
 10 13  1  0  0  0  0
 10 14  1  0  0  0  0
 11 15  1  0  0  0  0
 13 16  1  0  0  0  0
 14 17  1  0  0  0  0
 15 19  1  0  0  0  0
 18 20  1  0  0  0  0
 19 20  1  0  0  0  0
 21 23  1  0  0  0  0
M  END
> <PUBCHEM_COMPOUND_ID_TYPE>
0

> <PUBCHEM_TOTAL_CHARGE>
0

> <PUBCHEM_SUBSTANCE_ID>
310944177

> <PUBCHEM_SUBSTANCE_VERSION>
1

> <PUBCHEM_EXT_DATASOURCE_NAME>
4488

> <PUBCHEM_EXT_DATASOURCE_REGID>
SCHEMBL16122252

> <PUBCHEM_SUBSTANCE_COMMENT>
InChI=1S/C18H33N5O/c1-19-10-11-22(2)13-16-14-23(17-5-3-4-12-24-17)21-18(16)15-6-8-20-9-7-15/h14-15,17,19-20H,3-13H2,1-2H3
InChIKey=JYXUROHVGBAGLZ-UHFFFAOYSA-N

> <PUBCHEM_SUBSTANCE_SYNONYM>
SCHEMBL16122252

> <PUBCHEM_XREF_EXT_ID>
SCHEMBL16122252

> <PUBCHEM_EXT_DATASOURCE_URL>
https://www.surechembl.org/

> <PUBCHEM_EXT_SUBSTANCE_URL>
https://www.surechembl.org/chemical/SCHEMBL16122252

> <PUBCHEM_CID_ASSOCIATIONS>
117610452  1

> <PUBCHEM_COORDINATE_TYPE>
1
3

$$$$
