310946788
  -OEChem-07211613022D

 18 19  0     1  0  0  0  0  0999 V2000
   -1.5513    9.2420    0.0000 O   0  0  0  0  0  0  0  0  0  0  0  0
   -1.8055    6.4429    0.0000 N   0  0  0  0  0  0  0  0  0  0  0  0
   -2.3325    8.9770    0.0000 N   0  0  0  0  0  0  0  0  0  0  0  0
   -1.3206    5.7755    0.0000 N   0  0  0  0  0  0  0  0  0  0  0  0
    0.8930    6.8554    0.0000 N   0  0  3  0  0  0  0  0  0  0  0  0
   -1.5341    7.9072    0.0000 C   0  0  0  0  0  0  0  0  0  0  0  0
   -1.3206    7.1103    0.0000 C   0  0  0  0  0  0  0  0  0  0  0  0
   -0.5360    6.8554    0.0000 C   0  0  0  0  0  0  0  0  0  0  0  0
   -1.0578    8.5808    0.0000 C   0  0  0  0  0  0  0  0  0  0  0  0
   -2.3219    8.1521    0.0000 C   0  0  0  0  0  0  0  0  0  0  0  0
   -0.5360    6.0304    0.0000 C   0  0  0  0  0  0  0  0  0  0  0  0
    0.1785    7.2679    0.0000 C   0  0  0  0  0  0  0  0  0  0  0  0
   -0.2328    8.5808    0.0000 C   0  0  0  0  0  0  0  0  0  0  0  0
   -3.0364    7.7396    0.0000 C   0  0  0  0  0  0  0  0  0  0  0  0
    1.6075    7.2679    0.0000 C   0  0  0  0  0  0  0  0  0  0  0  0
    0.8930    6.0304    0.0000 C   0  0  0  0  0  0  0  0  0  0  0  0
    2.3219    6.8554    0.0000 C   0  0  0  0  0  0  0  0  0  0  0  0
    3.0364    7.2679    0.0000 C   0  0  0  0  0  0  0  0  0  0  0  0
  1  3  1  0  0  0  0
  1  9  1  0  0  0  0
  2  4  1  0  0  0  0
  2  7  2  0  0  0  0
  3 10  2  0  0  0  0
  4 11  1  0  0  0  0
  5 12  1  0  0  0  0
  5 15  1  0  0  0  0
  5 16  1  0  0  0  0
  6  7  1  0  0  0  0
  6  9  2  0  0  0  0
  6 10  1  0  0  0  0
  7  8  1  0  0  0  0
  8 11  2  0  0  0  0
  8 12  1  0  0  0  0
  9 13  1  0  0  0  0
 10 14  1  0  0  0  0
 15 17  1  0  0  0  0
 17 18  1  0  0  0  0
M  END
> <PUBCHEM_COMPOUND_ID_TYPE>
0

> <PUBCHEM_TOTAL_CHARGE>
0

> <PUBCHEM_SUBSTANCE_ID>
310946788

> <PUBCHEM_SUBSTANCE_VERSION>
1

> <PUBCHEM_EXT_DATASOURCE_NAME>
4488

> <PUBCHEM_EXT_DATASOURCE_REGID>
SCHEMBL16124912

> <PUBCHEM_SUBSTANCE_COMMENT>
InChI=1S/C13H20N4O/c1-5-6-17(4)8-11-7-14-15-13(11)12-9(2)16-18-10(12)3/h7H,5-6,8H2,1-4H3,(H,14,15)
InChIKey=WTOQMKUUQUZIDM-UHFFFAOYSA-N

> <PUBCHEM_SUBSTANCE_SYNONYM>
SCHEMBL16124912

> <PUBCHEM_XREF_EXT_ID>
SCHEMBL16124912

> <PUBCHEM_EXT_DATASOURCE_URL>
https://www.surechembl.org/

> <PUBCHEM_EXT_SUBSTANCE_URL>
https://www.surechembl.org/chemical/SCHEMBL16124912

> <PUBCHEM_CID_ASSOCIATIONS>
117612649  1

> <PUBCHEM_COORDINATE_TYPE>
1
3

$$$$
