310938332
  -OEChem-07211613022D

 21 23  0     1  0  0  0  0  0999 V2000
    1.1036   -3.5114    0.0000 O   0  0  0  0  0  0  0  0  0  0  0  0
    0.8026   -0.7775    0.0000 N   0  0  0  0  0  0  0  0  0  0  0  0
    1.5801   -2.8342    0.0000 C   0  0  0  0  0  0  0  0  0  0  0  0
    1.1036   -2.1570    0.0000 C   0  0  3  0  0  0  0  0  0  0  0  0
    2.4078   -2.8342    0.0000 C   0  0  0  0  0  0  0  0  0  0  0  0
    1.9563   -3.5616    0.0000 C   0  0  0  0  0  0  0  0  0  0  0  0
    0.3261   -2.4329    0.0000 C   0  0  0  0  0  0  0  0  0  0  0  0
    0.3261   -3.2355    0.0000 C   0  0  0  0  0  0  0  0  0  0  0  0
    1.3544   -1.3795    0.0000 C   0  0  0  0  0  0  0  0  0  0  0  0
    2.8091   -2.1069    0.0000 C   0  0  0  0  0  0  0  0  0  0  0  0
    2.9596   -3.7622    0.0000 C   0  0  0  0  0  0  0  0  0  0  0  0
    2.8091   -3.5365    0.0000 C   0  0  0  0  0  0  0  0  0  0  0  0
    1.5300   -4.2388    0.0000 C   0  0  0  0  0  0  0  0  0  0  0  0
    3.6368   -2.1069    0.0000 C   0  0  0  0  0  0  0  0  0  0  0  0
    3.1603   -4.3140    0.0000 C   0  0  0  0  0  0  0  0  0  0  0  0
    3.6368   -3.5365    0.0000 C   0  0  0  0  0  0  0  0  0  0  0  0
    1.9062   -4.9661    0.0000 C   0  0  0  0  0  0  0  0  0  0  0  0
    4.0381   -2.8342    0.0000 C   0  0  0  0  0  0  0  0  0  0  0  0
    2.7088   -5.0163    0.0000 C   0  0  0  0  0  0  0  0  0  0  0  0
    1.0785    0.0000    0.0000 C   0  0  0  0  0  0  0  0  0  0  0  0
    0.0000   -0.9531    0.0000 C   0  0  0  0  0  0  0  0  0  0  0  0
  1  3  1  0  0  0  0
  1  8  1  0  0  0  0
  2  9  1  0  0  0  0
  2 20  1  0  0  0  0
  2 21  1  0  0  0  0
  3  4  1  0  0  0  0
  3  5  1  0  0  0  0
  3  6  1  0  0  0  0
  4  7  1  0  0  0  0
  4  9  1  0  0  0  0
  5 10  2  0  0  0  0
  5 12  1  0  0  0  0
  6 11  2  0  0  0  0
  6 13  1  0  0  0  0
  7  8  2  0  0  0  0
 10 14  1  0  0  0  0
 11 15  1  0  0  0  0
 12 16  2  0  0  0  0
 13 17  2  0  0  0  0
 14 18  2  0  0  0  0
 15 19  2  0  0  0  0
 16 18  1  0  0  0  0
 17 19  1  0  0  0  0
M  END
> <PUBCHEM_COMPOUND_ID_TYPE>
0

> <PUBCHEM_TOTAL_CHARGE>
0

> <PUBCHEM_SUBSTANCE_ID>
310938332

> <PUBCHEM_SUBSTANCE_VERSION>
1

> <PUBCHEM_EXT_DATASOURCE_NAME>
4488

> <PUBCHEM_EXT_DATASOURCE_REGID>
SCHEMBL16116213

> <PUBCHEM_SUBSTANCE_COMMENT>
InChI=1S/C19H21NO/c1-20(2)15-18-13-14-21-19(18,16-9-5-3-6-10-16)17-11-7-4-8-12-17/h3-14,18H,15H2,1-2H3
InChIKey=MPHKMVAIFAGVQB-UHFFFAOYSA-N

> <PUBCHEM_SUBSTANCE_SYNONYM>
SCHEMBL16116213

> <PUBCHEM_XREF_EXT_ID>
SCHEMBL16116213

> <PUBCHEM_EXT_DATASOURCE_URL>
https://www.surechembl.org/

> <PUBCHEM_EXT_SUBSTANCE_URL>
https://www.surechembl.org/chemical/SCHEMBL16116213

> <PUBCHEM_CID_ASSOCIATIONS>
117605822  1

> <PUBCHEM_COORDINATE_TYPE>
1
3

$$$$
