310945029
  -OEChem-07211613022D

 31 36  0     1  0  0  0  0  0999 V2000
    2.6366    1.2718    0.0000 O   0  0  0  0  0  0  0  0  0  0  0  0
   -4.1697    0.5866    0.0000 O   0  0  0  0  0  0  0  0  0  0  0  0
    1.1383   -1.0628    0.0000 N   0  0  0  0  0  0  0  0  0  0  0  0
    3.3567    0.0291    0.0000 N   0  0  0  0  0  0  0  0  0  0  0  0
   -1.8119   -0.1220    0.0000 N   0  0  0  0  0  0  0  0  0  0  0  0
   -1.9629   -1.5622    0.0000 N   0  0  0  0  0  0  0  0  0  0  0  0
   -2.8689    0.0058    0.0000 N   0  0  0  0  0  0  0  0  0  0  0  0
    3.3683   -0.8073    0.0000 C   0  0  0  0  0  0  0  0  0  0  0  0
    1.9281    0.0291    0.0000 C   0  0  0  0  0  0  0  0  0  0  0  0
    1.9048   -0.7956    0.0000 C   0  0  0  0  0  0  0  0  0  0  0  0
    1.1383    0.2962    0.0000 C   0  0  0  0  0  0  0  0  0  0  0  0
    0.6621   -0.3891    0.0000 C   0  0  0  0  0  0  0  0  0  0  0  0
    2.6598   -1.2138    0.0000 C   0  0  0  0  0  0  0  0  0  0  0  0
    2.6366    0.4356    0.0000 C   0  0  0  0  0  0  0  0  0  0  0  0
   -0.1742   -0.2845    0.0000 C   0  0  0  0  0  0  0  0  0  0  0  0
    3.7632   -1.5042    0.0000 C   0  0  0  0  0  0  0  0  0  0  0  0
    4.1697   -0.8188    0.0000 C   0  0  0  0  0  0  0  0  0  0  0  0
   -0.4994    0.4588    0.0000 C   0  0  0  0  0  0  0  0  0  0  0  0
    0.8014    1.0395    0.0000 C   0  0  0  0  0  0  0  0  0  0  0  0
   -0.0232    1.1209    0.0000 C   0  0  0  0  0  0  0  0  0  0  0  0
   -0.6621   -0.9814    0.0000 C   0  0  0  0  0  0  0  0  0  0  0  0
   -1.4751   -0.8885    0.0000 C   0  0  0  0  0  0  0  0  0  0  0  0
   -1.3241    0.5401    0.0000 C   0  0  0  0  0  0  0  0  0  0  0  0
   -2.7875   -1.4693    0.0000 C   0  0  3  0  0  0  0  0  0  0  0  0
   -3.2057   -0.7607    0.0000 C   0  0  3  0  0  0  0  0  0  0  0  0
   -3.3451   -2.0965    0.0000 C   0  0  0  0  0  0  0  0  0  0  0  0
   -4.0072   -0.9350    0.0000 C   0  0  0  0  0  0  0  0  0  0  0  0
   -4.0884   -1.7597    0.0000 C   0  0  0  0  0  0  0  0  0  0  0  0
   -3.3451    0.6911    0.0000 C   0  0  0  0  0  0  0  0  0  0  0  0
   -3.0199    1.4577    0.0000 C   0  0  0  0  0  0  0  0  0  0  0  0
   -3.5658    2.0965    0.0000 C   0  0  0  0  0  0  0  0  0  0  0  0
  1 14  2  0  0  0  0
  2 29  2  0  0  0  0
  3 10  1  0  0  0  0
  3 12  1  0  0  0  0
  4  8  1  0  0  0  0
  4 14  1  0  0  0  0
  5 22  2  0  0  0  0
  5 23  1  0  0  0  0
  6 22  1  0  0  0  0
  6 24  1  0  0  0  0
  7 25  1  0  0  0  0
  7 29  1  0  0  0  0
  8 13  1  0  0  0  0
  8 16  1  0  0  0  0
  8 17  1  0  0  0  0
  9 10  2  0  0  0  0
  9 11  1  0  0  0  0
  9 14  1  0  0  0  0
 10 13  1  0  0  0  0
 11 12  2  0  0  0  0
 11 19  1  0  0  0  0
 12 15  1  0  0  0  0
 15 18  1  0  0  0  0
 15 21  2  0  0  0  0
 16 17  1  0  0  0  0
 18 20  1  0  0  0  0
 18 23  2  0  0  0  0
 19 20  1  0  0  0  0
 21 22  1  0  0  0  0
 24 25  1  0  0  0  0
 24 26  1  0  0  0  0
 25 27  1  0  0  0  0
 26 28  1  0  0  0  0
 27 28  1  0  0  0  0
 29 30  1  0  0  0  0
 30 31  2  0  0  0  0
M  END
> <PUBCHEM_COMPOUND_ID_TYPE>
0

> <PUBCHEM_TOTAL_CHARGE>
0

> <PUBCHEM_SUBSTANCE_ID>
310945029

> <PUBCHEM_SUBSTANCE_VERSION>
1

> <PUBCHEM_EXT_DATASOURCE_NAME>
4488

> <PUBCHEM_EXT_DATASOURCE_REGID>
SCHEMBL16123117

> <PUBCHEM_SUBSTANCE_COMMENT>
InChI=1S/C24H27N5O2/c1-2-20(30)27-17-5-3-4-16(17)26-19-10-15-13(12-25-19)6-7-14-21-18(28-22(14)15)11-24(8-9-24)29-23(21)31/h2,10,12,16-17,28H,1,3-9,11H2,(H,25,26)(H,27,30)(H,29,31)
InChIKey=FEAZMYGHDNTOAS-UHFFFAOYSA-N

> <PUBCHEM_SUBSTANCE_SYNONYM>
SCHEMBL16123117

> <PUBCHEM_XREF_EXT_ID>
SCHEMBL16123117

> <PUBCHEM_EXT_DATASOURCE_URL>
https://www.surechembl.org/

> <PUBCHEM_EXT_SUBSTANCE_URL>
https://www.surechembl.org/chemical/SCHEMBL16123117

> <PUBCHEM_CID_ASSOCIATIONS>
86300606  1

> <PUBCHEM_COORDINATE_TYPE>
1
3

$$$$
