310946148
  -OEChem-07211613022D

 52 61  0     1  0  0  0  0  0999 V2000
    3.7301  -13.3448    0.0000 S   0  0  0  0  0  0  0  0  0  0  0  0
    0.4482  -13.1732    0.0000 N   0  0  0  0  0  0  0  0  0  0  0  0
   -2.0088  -14.7737    0.0000 C   0  0  3  0  0  0  0  0  0  0  0  0
   -1.2018  -14.6022    0.0000 C   0  0  0  0  0  0  0  0  0  0  0  0
   -2.0950  -15.5942    0.0000 C   0  0  0  0  0  0  0  0  0  0  0  0
   -0.7893  -15.3167    0.0000 C   0  0  0  0  0  0  0  0  0  0  0  0
   -1.3414  -15.9298    0.0000 C   0  0  0  0  0  0  0  0  0  0  0  0
   -2.8338  -14.7737    0.0000 C   0  0  0  0  0  0  0  0  0  0  0  0
   -2.0088  -13.9487    0.0000 C   0  0  0  0  0  0  0  0  0  0  0  0
   -0.7893  -13.8877    0.0000 C   0  0  0  0  0  0  0  0  0  0  0  0
    0.0357  -13.8877    0.0000 C   0  0  0  0  0  0  0  0  0  0  0  0
   -2.7625  -16.0791    0.0000 C   0  0  0  0  0  0  0  0  0  0  0  0
    0.0357  -15.3167    0.0000 C   0  0  0  0  0  0  0  0  0  0  0  0
   -1.2551  -16.7502    0.0000 C   0  0  0  0  0  0  0  0  0  0  0  0
   -3.2463  -15.4882    0.0000 C   0  0  0  0  0  0  0  0  0  0  0  0
   -3.2463  -14.0592    0.0000 C   0  0  0  0  0  0  0  0  0  0  0  0
   -1.2943  -13.5362    0.0000 C   0  0  0  0  0  0  0  0  0  0  0  0
   -2.7233  -13.5362    0.0000 C   0  0  0  0  0  0  0  0  0  0  0  0
    0.4482  -14.6022    0.0000 C   0  0  0  0  0  0  0  0  0  0  0  0
   -2.6762  -16.8996    0.0000 C   0  0  0  0  0  0  0  0  0  0  0  0
   -1.9226  -17.2352    0.0000 C   0  0  0  0  0  0  0  0  0  0  0  0
    1.2732  -13.1732    0.0000 C   0  0  0  0  0  0  0  0  0  0  0  0
   -4.0713  -15.4882    0.0000 C   0  0  0  0  0  0  0  0  0  0  0  0
    0.0357  -12.4588    0.0000 C   0  0  0  0  0  0  0  0  0  0  0  0
   -4.0713  -14.0592    0.0000 C   0  0  0  0  0  0  0  0  0  0  0  0
   -1.2943  -12.7112    0.0000 C   0  0  0  0  0  0  0  0  0  0  0  0
   -2.7233  -12.7112    0.0000 C   0  0  0  0  0  0  0  0  0  0  0  0
    2.5107  -13.8877    0.0000 C   0  0  0  0  0  0  0  0  0  0  0  0
    1.6857  -13.8877    0.0000 C   0  0  0  0  0  0  0  0  0  0  0  0
   -4.4838  -14.7737    0.0000 C   0  0  0  0  0  0  0  0  0  0  0  0
    2.9232  -13.1732    0.0000 C   0  0  0  0  0  0  0  0  0  0  0  0
    3.0627  -14.5008    0.0000 C   0  0  0  0  0  0  0  0  0  0  0  0
   -2.0088  -12.2987    0.0000 C   0  0  0  0  0  0  0  0  0  0  0  0
    1.6857  -12.4588    0.0000 C   0  0  0  0  0  0  0  0  0  0  0  0
    3.8164  -14.1653    0.0000 C   0  0  0  0  0  0  0  0  0  0  0  0
    2.5107  -12.4588    0.0000 C   0  0  0  0  0  0  0  0  0  0  0  0
    0.4482  -11.7443    0.0000 C   0  0  0  0  0  0  0  0  0  0  0  0
   -0.7893  -12.4588    0.0000 C   0  0  0  0  0  0  0  0  0  0  0  0
   -4.4838  -16.2027    0.0000 C   0  0  0  0  0  0  0  0  0  0  0  0
    2.9765  -15.3213    0.0000 C   0  0  0  0  0  0  0  0  0  0  0  0
    0.0357  -11.0298    0.0000 C   0  0  0  0  0  0  0  0  0  0  0  0
   -1.2018  -11.7443    0.0000 C   0  0  0  0  0  0  0  0  0  0  0  0
   -0.7893  -11.0298    0.0000 C   0  0  0  0  0  0  0  0  0  0  0  0
    4.4838  -14.6502    0.0000 C   0  0  0  0  0  0  0  0  0  0  0  0
    3.6439  -15.8062    0.0000 C   0  0  0  0  0  0  0  0  0  0  0  0
    4.3976  -15.4707    0.0000 C   0  0  0  0  0  0  0  0  0  0  0  0
   -1.2018  -10.3154    0.0000 C   0  0  0  0  0  0  0  0  0  0  0  0
   -0.7893   -9.6009    0.0000 C   0  0  0  0  0  0  0  0  0  0  0  0
   -2.0268  -10.3154    0.0000 C   0  0  0  0  0  0  0  0  0  0  0  0
   -1.2018   -8.8864    0.0000 C   0  0  0  0  0  0  0  0  0  0  0  0
   -2.4393   -9.6009    0.0000 C   0  0  0  0  0  0  0  0  0  0  0  0
   -2.0268   -8.8864    0.0000 C   0  0  0  0  0  0  0  0  0  0  0  0
  1 31  1  0  0  0  0
  1 35  1  0  0  0  0
  2 11  1  0  0  0  0
  2 22  1  0  0  0  0
  2 24  1  0  0  0  0
  3  4  1  0  0  0  0
  3  5  1  0  0  0  0
  3  8  1  0  0  0  0
  3  9  1  0  0  0  0
  4  6  2  0  0  0  0
  4 10  1  0  0  0  0
  5  7  2  0  0  0  0
  5 12  1  0  0  0  0
  6  7  1  0  0  0  0
  6 13  1  0  0  0  0
  7 14  1  0  0  0  0
  8 15  1  0  0  0  0
  8 16  2  0  0  0  0
  9 17  2  0  0  0  0
  9 18  1  0  0  0  0
 10 11  2  0  0  0  0
 11 19  1  0  0  0  0
 12 20  2  0  0  0  0
 13 19  2  0  0  0  0
 14 21  2  0  0  0  0
 15 23  2  0  0  0  0
 16 25  1  0  0  0  0
 17 26  1  0  0  0  0
 18 27  2  0  0  0  0
 20 21  1  0  0  0  0
 22 29  2  0  0  0  0
 22 34  1  0  0  0  0
 23 30  1  0  0  0  0
 23 39  1  0  0  0  0
 24 37  2  0  0  0  0
 24 38  1  0  0  0  0
 25 30  2  0  0  0  0
 26 33  2  0  0  0  0
 27 33  1  0  0  0  0
 28 29  1  0  0  0  0
 28 31  2  0  0  0  0
 28 32  1  0  0  0  0
 31 36  1  0  0  0  0
 32 35  2  0  0  0  0
 32 40  1  0  0  0  0
 34 36  2  0  0  0  0
 35 44  1  0  0  0  0
 37 41  1  0  0  0  0
 38 42  2  0  0  0  0
 40 45  2  0  0  0  0
 41 43  2  0  0  0  0
 42 43  1  0  0  0  0
 43 47  1  0  0  0  0
 44 46  2  0  0  0  0
 45 46  1  0  0  0  0
 47 48  2  0  0  0  0
 47 49  1  0  0  0  0
 48 50  1  0  0  0  0
 49 51  2  0  0  0  0
 50 52  2  0  0  0  0
 51 52  1  0  0  0  0
M  END
> <PUBCHEM_COMPOUND_ID_TYPE>
0

> <PUBCHEM_TOTAL_CHARGE>
0

> <PUBCHEM_SUBSTANCE_ID>
310946148

> <PUBCHEM_SUBSTANCE_VERSION>
1

> <PUBCHEM_EXT_DATASOURCE_NAME>
4488

> <PUBCHEM_EXT_DATASOURCE_REGID>
SCHEMBL16124257

> <PUBCHEM_SUBSTANCE_COMMENT>
InChI=1S/C50H35NS/c1-34-13-12-18-38(31-34)50(37-16-6-3-7-17-37)46-21-10-8-19-42(46)43-29-27-41(33-47(43)50)51(39-25-23-36(24-26-39)35-14-4-2-5-15-35)40-28-30-49-45(32-40)44-20-9-11-22-48(44)52-49/h2-33H,1H3
InChIKey=XPBNIKCFAWRXIV-UHFFFAOYSA-N

> <PUBCHEM_SUBSTANCE_SYNONYM>
SCHEMBL16124257

> <PUBCHEM_XREF_EXT_ID>
SCHEMBL16124257

> <PUBCHEM_EXT_DATASOURCE_URL>
https://www.surechembl.org/

> <PUBCHEM_EXT_SUBSTANCE_URL>
https://www.surechembl.org/chemical/SCHEMBL16124257

> <PUBCHEM_CID_ASSOCIATIONS>
117612105  1

> <PUBCHEM_COORDINATE_TYPE>
1
3

$$$$
