310936857
  -OEChem-07211613022D

 26 30  0     1  0  0  0  0  0999 V2000
    3.1138   -4.1517    0.0000 O   0  0  0  0  0  0  0  0  0  0  0  0
    3.4065   -3.6460    0.0000 N   0  0  0  0  0  0  0  0  0  0  0  0
    3.3799   -0.7186    0.0000 N   0  0  0  0  0  0  0  0  0  0  0  0
    5.0299   -0.7186    0.0000 N   0  0  0  0  0  0  0  0  0  0  0  0
    5.8815   -2.1823    0.0000 N   0  0  0  0  0  0  0  0  0  0  0  0
    0.0000   -0.7186    0.0000 N   0  0  0  0  0  0  0  0  0  0  0  0
    3.8057   -2.9008    0.0000 C   0  0  0  0  0  0  0  0  0  0  0  0
    4.6307   -1.4637    0.0000 C   0  0  0  0  0  0  0  0  0  0  0  0
    3.8057   -1.4637    0.0000 C   0  0  0  0  0  0  0  0  0  0  0  0
    5.0299   -2.1823    0.0000 C   0  0  0  0  0  0  0  0  0  0  0  0
    3.3799   -2.1823    0.0000 C   0  0  0  0  0  0  0  0  0  0  0  0
    4.6307   -2.9008    0.0000 C   0  0  0  0  0  0  0  0  0  0  0  0
    2.0758   -4.1517    0.0000 C   0  0  3  0  0  0  0  0  0  0  0  0
    3.6194   -5.0299    0.0000 C   0  0  3  0  0  0  0  0  0  0  0  0
    2.6081   -3.5928    0.0000 C   0  0  0  0  0  0  0  0  0  0  0  0
    3.8589   -4.2848    0.0000 C   0  0  0  0  0  0  0  0  0  0  0  0
    2.8742   -5.3227    0.0000 C   0  0  0  0  0  0  0  0  0  0  0  0
    2.2089   -4.9501    0.0000 C   0  0  0  0  0  0  0  0  0  0  0  0
    2.5549   -0.7186    0.0000 C   0  0  0  0  0  0  0  0  0  0  0  0
    5.8815   -0.7186    0.0000 C   0  0  0  0  0  0  0  0  0  0  0  0
    6.3074   -1.4371    0.0000 C   0  0  0  0  0  0  0  0  0  0  0  0
    2.1025   -1.4371    0.0000 C   0  0  0  0  0  0  0  0  0  0  0  0
    2.1025    0.0000    0.0000 C   0  0  0  0  0  0  0  0  0  0  0  0
    1.2775   -1.4371    0.0000 C   0  0  0  0  0  0  0  0  0  0  0  0
    1.2775    0.0000    0.0000 C   0  0  0  0  0  0  0  0  0  0  0  0
    0.8250   -0.7186    0.0000 C   0  0  0  0  0  0  0  0  0  0  0  0
  1 13  1  0  0  0  0
  1 14  1  0  0  0  0
  2  7  1  0  0  0  0
  2 15  1  0  0  0  0
  2 16  1  0  0  0  0
  3  9  1  0  0  0  0
  3 19  1  0  0  0  0
  4  8  2  0  0  0  0
  4 20  1  0  0  0  0
  5 10  2  0  0  0  0
  5 21  1  0  0  0  0
  6 26  1  0  0  0  0
  7 11  1  0  0  0  0
  7 12  2  0  0  0  0
  8  9  1  0  0  0  0
  8 10  1  0  0  0  0
  9 11  2  0  0  0  0
 10 12  1  0  0  0  0
 13 15  1  0  0  0  0
 13 18  1  0  0  0  0
 14 16  1  0  0  0  0
 14 17  1  0  0  0  0
 17 18  1  0  0  0  0
 19 22  1  0  0  0  0
 19 23  1  0  0  0  0
 20 21  2  0  0  0  0
 22 24  1  0  0  0  0
 23 25  1  0  0  0  0
 24 26  1  0  0  0  0
 25 26  1  0  0  0  0
M  END
> <PUBCHEM_COMPOUND_ID_TYPE>
0

> <PUBCHEM_TOTAL_CHARGE>
0

> <PUBCHEM_SUBSTANCE_ID>
310936857

> <PUBCHEM_SUBSTANCE_VERSION>
1

> <PUBCHEM_EXT_DATASOURCE_NAME>
4488

> <PUBCHEM_EXT_DATASOURCE_REGID>
SCHEMBL16114551

> <PUBCHEM_SUBSTANCE_COMMENT>
InChI=1S/C20H27N5O/c21-13-1-3-14(4-2-13)24-19-10-15(9-18-20(19)23-8-7-22-18)25-11-16-5-6-17(12-25)26-16/h7-10,13-14,16-17,24H,1-6,11-12,21H2
InChIKey=XPCUHYKDOFTEKI-UHFFFAOYSA-N

> <PUBCHEM_SUBSTANCE_SYNONYM>
SCHEMBL16114551

> <PUBCHEM_XREF_EXT_ID>
SCHEMBL16114551

> <PUBCHEM_EXT_DATASOURCE_URL>
https://www.surechembl.org/

> <PUBCHEM_EXT_SUBSTANCE_URL>
https://www.surechembl.org/chemical/SCHEMBL16114551

> <PUBCHEM_CID_ASSOCIATIONS>
117604750  1

> <PUBCHEM_COORDINATE_TYPE>
1
3

$$$$
