310943687
  -OEChem-07211613022D

 30 32  0     1  0  0  0  0  0999 V2000
    3.2515    1.9715    0.0000 O   0  0  0  0  0  0  0  0  0  0  0  0
    5.8843   -0.5520    0.0000 O   0  0  0  0  0  0  0  0  0  0  0  0
   -4.1493   -1.5105    0.0000 N   0  0  3  0  0  0  0  0  0  0  0  0
   -5.9206   -0.9766    0.0000 N   0  0  3  0  0  0  0  0  0  0  0  0
    4.1250    0.4671    0.0000 N   0  0  0  0  0  0  0  0  0  0  0  0
    4.9985    0.9645    0.0000 N   0  0  0  0  0  0  0  0  0  0  0  0
   -1.3103   -0.6734    0.0000 C   0  0  0  0  0  0  0  0  0  0  0  0
   -0.6309   -0.2609    0.0000 C   0  0  0  0  0  0  0  0  0  0  0  0
   -2.7541   -1.5105    0.0000 C   0  0  0  0  0  0  0  0  0  0  0  0
   -2.0504   -0.2851    0.0000 C   0  0  0  0  0  0  0  0  0  0  0  0
   -1.3103   -1.4984    0.0000 C   0  0  0  0  0  0  0  0  0  0  0  0
   -0.6067    0.5520    0.0000 C   0  0  0  0  0  0  0  0  0  0  0  0
    0.0971   -0.6612    0.0000 C   0  0  0  0  0  0  0  0  0  0  0  0
   -2.7298   -0.6855    0.0000 C   0  0  0  0  0  0  0  0  0  0  0  0
   -2.0261   -1.9109    0.0000 C   0  0  0  0  0  0  0  0  0  0  0  0
    0.8007    0.5520    0.0000 C   0  0  0  0  0  0  0  0  0  0  0  0
   -3.4456   -1.9109    0.0000 C   0  0  0  0  0  0  0  0  0  0  0  0
    0.0849    0.9524    0.0000 C   0  0  0  0  0  0  0  0  0  0  0  0
    0.7886   -0.2730    0.0000 C   0  0  0  0  0  0  0  0  0  0  0  0
    1.4802    0.9524    0.0000 C   0  0  0  0  0  0  0  0  0  0  0  0
   -4.8287   -1.9715    0.0000 C   0  0  0  0  0  0  0  0  0  0  0  0
   -4.0886   -0.7097    0.0000 C   0  0  0  0  0  0  0  0  0  0  0  0
   -5.6052   -1.7410    0.0000 C   0  0  0  0  0  0  0  0  0  0  0  0
    2.3901    0.4671    0.0000 C   0  0  0  0  0  0  0  0  0  0  0  0
   -4.7074   -0.1395    0.0000 C   0  0  0  0  0  0  0  0  0  0  0  0
   -5.4960   -0.2609    0.0000 C   0  0  0  0  0  0  0  0  0  0  0  0
    3.2515    0.9524    0.0000 C   0  0  0  0  0  0  0  0  0  0  0  0
   -6.7456   -0.9766    0.0000 C   0  0  0  0  0  0  0  0  0  0  0  0
    5.8843    0.4914    0.0000 C   0  0  0  0  0  0  0  0  0  0  0  0
    6.7456    0.9766    0.0000 C   0  0  0  0  0  0  0  0  0  0  0  0
  1 27  2  0  0  0  0
  2 29  2  0  0  0  0
  3 17  1  0  0  0  0
  3 21  1  0  0  0  0
  3 22  1  0  0  0  0
  4 23  1  0  0  0  0
  4 26  1  0  0  0  0
  4 28  1  0  0  0  0
  5  6  1  0  0  0  0
  5 27  1  0  0  0  0
  6 29  1  0  0  0  0
  7  8  1  0  0  0  0
  7 10  2  0  0  0  0
  7 11  1  0  0  0  0
  8 12  2  0  0  0  0
  8 13  1  0  0  0  0
  9 14  2  0  0  0  0
  9 15  1  0  0  0  0
  9 17  1  0  0  0  0
 10 14  1  0  0  0  0
 11 15  2  0  0  0  0
 12 18  1  0  0  0  0
 13 19  2  0  0  0  0
 16 18  2  0  0  0  0
 16 19  1  0  0  0  0
 16 20  1  0  0  0  0
 20 24  1  0  0  0  0
 21 23  1  0  0  0  0
 22 25  1  0  0  0  0
 24 27  1  0  0  0  0
 25 26  1  0  0  0  0
 29 30  1  0  0  0  0
M  END
> <PUBCHEM_COMPOUND_ID_TYPE>
0

> <PUBCHEM_TOTAL_CHARGE>
0

> <PUBCHEM_SUBSTANCE_ID>
310943687

> <PUBCHEM_SUBSTANCE_VERSION>
1

> <PUBCHEM_EXT_DATASOURCE_NAME>
4488

> <PUBCHEM_EXT_DATASOURCE_REGID>
SCHEMBL16121755

> <PUBCHEM_SUBSTANCE_COMMENT>
InChI=1S/C24H32N4O2/c1-19(29)25-26-24(30)13-8-20-4-9-22(10-5-20)23-11-6-21(7-12-23)18-28-15-3-14-27(2)16-17-28/h4-7,9-12H,3,8,13-18H2,1-2H3,(H,25,29)(H,26,30)
InChIKey=SYXMOHRRYMJRHI-UHFFFAOYSA-N

> <PUBCHEM_SUBSTANCE_SYNONYM>
SCHEMBL16121755

> <PUBCHEM_XREF_EXT_ID>
SCHEMBL16121755

> <PUBCHEM_EXT_DATASOURCE_URL>
https://www.surechembl.org/

> <PUBCHEM_EXT_SUBSTANCE_URL>
https://www.surechembl.org/chemical/SCHEMBL16121755

> <PUBCHEM_CID_ASSOCIATIONS>
86300030  1

> <PUBCHEM_COORDINATE_TYPE>
1
3

$$$$
