310940843
  -OEChem-07211613022D

 45 48  0     1  0  0  0  0  0999 V2000
    5.0712    0.6828    0.0000 O   0  0  0  0  0  0  0  0  0  0  0  0
    3.9332   -1.2802    0.0000 O   0  0  0  0  0  0  0  0  0  0  0  0
    1.7852    0.7824    0.0000 O   0  0  0  0  0  0  0  0  0  0  0  0
    0.3485   -1.6928    0.0000 O   0  0  0  0  0  0  0  0  0  0  0  0
   -0.3770   -1.2802    0.0000 O   0  0  0  0  0  0  0  0  0  0  0  0
    3.9332   -2.9303    0.0000 O   0  0  0  0  0  0  0  0  0  0  0  0
   -0.3770    1.1949    0.0000 O   0  0  0  0  0  0  0  0  0  0  0  0
   -2.5249    0.7824    0.0000 O   0  0  0  0  0  0  0  0  0  0  0  0
   -5.3983    0.7824    0.0000 O   0  0  0  0  0  0  0  0  0  0  0  0
    2.5107   -0.4552    0.0000 N   0  0  0  0  0  0  0  0  0  0  0  0
    0.3485   -0.0427    0.0000 N   0  0  0  0  0  0  0  0  0  0  0  0
   -1.8137   -0.4552    0.0000 N   0  0  0  0  0  0  0  0  0  0  0  0
   -3.9616   -0.0427    0.0000 N   0  0  0  0  0  0  0  0  0  0  0  0
    4.6444    0.0000    0.0000 C   0  0  3  0  0  0  0  0  0  0  0  0
    3.9474   -0.4125    0.0000 C   0  0  0  0  0  0  0  0  0  0  0  0
    4.2746    0.6828    0.0000 C   0  0  0  0  0  0  0  0  0  0  0  0
    3.2077   -0.0142    0.0000 C   0  0  3  0  0  0  0  0  0  0  0  0
    5.3983   -0.4268    0.0000 C   0  0  0  0  0  0  0  0  0  0  0  0
    1.0740   -0.4268    0.0000 C   0  0  3  0  0  0  0  0  0  0  0  0
    1.7710   -0.0427    0.0000 C   0  0  0  0  0  0  0  0  0  0  0  0
    3.2220    1.2945    0.0000 C   0  0  0  0  0  0  0  0  0  0  0  0
    1.0740   -1.2518    0.0000 C   0  0  3  0  0  0  0  0  0  0  0  0
    1.7994   -1.6643    0.0000 C   0  0  0  0  0  0  0  0  0  0  0  0
    2.5107    1.7212    0.0000 C   0  0  0  0  0  0  0  0  0  0  0  0
   -0.3628   -0.4125    0.0000 C   0  0  0  0  0  0  0  0  0  0  0  0
   -1.1024   -0.0142    0.0000 C   0  0  3  0  0  0  0  0  0  0  0  0
    2.4965   -1.2660    0.0000 C   0  0  0  0  0  0  0  0  0  0  0  0
    1.7994   -2.4894    0.0000 C   0  0  0  0  0  0  0  0  0  0  0  0
    1.7994    1.3087    0.0000 C   0  0  0  0  0  0  0  0  0  0  0  0
    2.5107    2.5320    0.0000 C   0  0  0  0  0  0  0  0  0  0  0  0
   -1.0740    0.8251    0.0000 C   0  0  3  0  0  0  0  0  0  0  0  0
    3.2077   -2.4894    0.0000 C   0  0  0  0  0  0  0  0  0  0  0  0
    3.2220   -1.6786    0.0000 C   0  0  0  0  0  0  0  0  0  0  0  0
    2.5107   -2.9019    0.0000 C   0  0  0  0  0  0  0  0  0  0  0  0
   -2.5249   -0.0427    0.0000 C   0  0  0  0  0  0  0  0  0  0  0  0
    1.0882    1.7070    0.0000 C   0  0  0  0  0  0  0  0  0  0  0  0
    1.7852    2.9303    0.0000 C   0  0  0  0  0  0  0  0  0  0  0  0
    1.0882    2.5320    0.0000 C   0  0  0  0  0  0  0  0  0  0  0  0
   -3.2361   -0.4268    0.0000 C   0  0  0  0  0  0  0  0  0  0  0  0
   -1.8137    1.2091    0.0000 C   0  0  0  0  0  0  0  0  0  0  0  0
   -3.9616    0.7966    0.0000 C   0  0  0  0  0  0  0  0  0  0  0  0
   -4.6729   -0.4268    0.0000 C   0  0  0  0  0  0  0  0  0  0  0  0
    4.6871   -2.4894    0.0000 C   0  0  0  0  0  0  0  0  0  0  0  0
   -4.6871    1.2234    0.0000 C   0  0  0  0  0  0  0  0  0  0  0  0
   -5.3842   -0.0142    0.0000 C   0  0  0  0  0  0  0  0  0  0  0  0
  1 14  1  0  0  0  0
  1 16  1  0  0  0  0
  2 15  2  0  0  0  0
  3 20  2  0  0  0  0
  4 22  1  0  0  0  0
  5 25  2  0  0  0  0
  6 32  1  0  0  0  0
  6 43  1  0  0  0  0
  7 31  1  0  0  0  0
  8 35  2  0  0  0  0
  9 44  1  0  0  0  0
  9 45  1  0  0  0  0
 10 17  1  0  0  0  0
 10 20  1  0  0  0  0
 11 19  1  0  0  0  0
 11 25  1  0  0  0  0
 12 26  1  0  0  0  0
 12 35  1  0  0  0  0
 13 39  1  0  0  0  0
 13 41  1  0  0  0  0
 13 42  1  0  0  0  0
 14 15  1  0  0  0  0
 14 16  1  0  0  0  0
 14 18  1  0  0  0  0
 15 17  1  0  0  0  0
 17 21  1  0  0  0  0
 19 20  1  0  0  0  0
 19 22  1  0  0  0  0
 21 24  1  0  0  0  0
 22 23  1  0  0  0  0
 23 27  2  0  0  0  0
 23 28  1  0  0  0  0
 24 29  2  0  0  0  0
 24 30  1  0  0  0  0
 25 26  1  0  0  0  0
 26 31  1  0  0  0  0
 27 33  1  0  0  0  0
 28 34  2  0  0  0  0
 29 36  1  0  0  0  0
 30 37  1  0  0  0  0
 31 40  1  0  0  0  0
 32 33  2  0  0  0  0
 32 34  1  0  0  0  0
 35 39  1  0  0  0  0
 36 38  1  0  0  0  0
 37 38  1  0  0  0  0
 41 44  1  0  0  0  0
 42 45  1  0  0  0  0
M  END
> <PUBCHEM_COMPOUND_ID_TYPE>
0

> <PUBCHEM_TOTAL_CHARGE>
0

> <PUBCHEM_SUBSTANCE_ID>
310940843

> <PUBCHEM_SUBSTANCE_VERSION>
1

> <PUBCHEM_EXT_DATASOURCE_NAME>
4488

> <PUBCHEM_EXT_DATASOURCE_REGID>
SCHEMBL16118802

> <PUBCHEM_SUBSTANCE_COMMENT>
InChI=1S/C32H46N4O9/c1-20(37)26(34-25(38)18-36-13-15-44-16-14-36)30(41)35-27(28(39)22-9-11-23(43-3)12-10-22)31(42)33-24(29(40)32(2)19-45-32)17-21-7-5-4-6-8-21/h7,9-12,20,24,26-28,37,39H,4-6,8,13-19H2,1-3H3,(H,33,42)(H,34,38)(H,35,41)
InChIKey=NQHOTFCNEWLMGW-UHFFFAOYSA-N

> <PUBCHEM_SUBSTANCE_SYNONYM>
SCHEMBL16118802

> <PUBCHEM_XREF_EXT_ID>
SCHEMBL16118802

> <PUBCHEM_EXT_DATASOURCE_URL>
https://www.surechembl.org/

> <PUBCHEM_EXT_SUBSTANCE_URL>
https://www.surechembl.org/chemical/SCHEMBL16118802

> <PUBCHEM_CID_ASSOCIATIONS>
117607762  1

> <PUBCHEM_COORDINATE_TYPE>
1
3

$$$$
