310945869
  -OEChem-07211613022D

 35 38  0     1  0  0  0  0  0999 V2000
    3.6857    1.5815    0.0000 O   0  0  0  0  0  0  0  0  0  0  0  0
    1.3864    1.5815    0.0000 O   0  0  0  0  0  0  0  0  0  0  0  0
    0.6618    1.1635    0.0000 O   0  0  0  0  0  0  0  0  0  0  0  0
   -0.0627    1.5815    0.0000 O   0  0  0  0  0  0  0  0  0  0  0  0
   -2.8356    1.8602    0.0000 O   0  0  0  0  0  0  0  0  0  0  0  0
   -2.9610   -2.5848    0.0000 O   0  0  0  0  0  0  0  0  0  0  0  0
    1.4004   -0.0766    0.0000 N   0  0  0  0  0  0  0  0  0  0  0  0
   -0.7874    0.3414    0.0000 N   0  0  0  0  0  0  0  0  0  0  0  0
    2.8496    1.5815    0.0000 C   0  0  3  0  0  0  0  0  0  0  0  0
    2.1389    1.1635    0.0000 C   0  0  0  0  0  0  0  0  0  0  0  0
    3.2814    0.8848    0.0000 C   0  0  0  0  0  0  0  0  0  0  0  0
    2.1111    0.3414    0.0000 C   0  0  3  0  0  0  0  0  0  0  0  0
    2.8356    2.4316    0.0000 C   0  0  0  0  0  0  0  0  0  0  0  0
    2.8496   -0.0766    0.0000 C   0  0  0  0  0  0  0  0  0  0  0  0
    0.6618    0.3135    0.0000 C   0  0  0  0  0  0  0  0  0  0  0  0
   -0.0487   -0.0766    0.0000 C   0  0  3  0  0  0  0  0  0  0  0  0
    2.8356   -0.9127    0.0000 C   0  0  0  0  0  0  0  0  0  0  0  0
   -0.0627   -0.9127    0.0000 C   0  0  0  0  0  0  0  0  0  0  0  0
   -0.8012    1.1635    0.0000 C   0  0  0  0  0  0  0  0  0  0  0  0
   -0.7734   -1.3307    0.0000 C   0  0  0  0  0  0  0  0  0  0  0  0
   -1.5119    1.5955    0.0000 C   0  0  3  0  0  0  0  0  0  0  0  0
    3.5742   -1.3447    0.0000 C   0  0  0  0  0  0  0  0  0  0  0  0
    2.1250   -1.3307    0.0000 C   0  0  0  0  0  0  0  0  0  0  0  0
   -1.5119   -0.9267    0.0000 C   0  0  0  0  0  0  0  0  0  0  0  0
   -0.7874   -2.1529    0.0000 C   0  0  0  0  0  0  0  0  0  0  0  0
   -2.2783    1.2611    0.0000 C   0  0  0  0  0  0  0  0  0  0  0  0
   -1.5815    2.4176    0.0000 C   0  0  0  0  0  0  0  0  0  0  0  0
   -2.2225   -2.1529    0.0000 C   0  0  0  0  0  0  0  0  0  0  0  0
   -2.2086   -1.3307    0.0000 C   0  0  0  0  0  0  0  0  0  0  0  0
   -1.4840   -2.5709    0.0000 C   0  0  0  0  0  0  0  0  0  0  0  0
    3.5742   -2.1529    0.0000 C   0  0  0  0  0  0  0  0  0  0  0  0
    2.1250   -2.1529    0.0000 C   0  0  0  0  0  0  0  0  0  0  0  0
   -2.4037    2.5848    0.0000 C   0  0  0  0  0  0  0  0  0  0  0  0
    2.8634   -2.5709    0.0000 C   0  0  0  0  0  0  0  0  0  0  0  0
   -3.6857   -2.1808    0.0000 C   0  0  0  0  0  0  0  0  0  0  0  0
  1  9  1  0  0  0  0
  1 11  1  0  0  0  0
  2 10  2  0  0  0  0
  3 15  2  0  0  0  0
  4 19  2  0  0  0  0
  5 26  1  0  0  0  0
  5 33  1  0  0  0  0
  6 28  1  0  0  0  0
  6 35  1  0  0  0  0
  7 12  1  0  0  0  0
  7 15  1  0  0  0  0
  8 16  1  0  0  0  0
  8 19  1  0  0  0  0
  9 10  1  0  0  0  0
  9 11  1  0  0  0  0
  9 13  1  0  0  0  0
 10 12  1  0  0  0  0
 12 14  1  0  0  0  0
 14 17  1  0  0  0  0
 15 16  1  0  0  0  0
 16 18  1  0  0  0  0
 17 22  2  0  0  0  0
 17 23  1  0  0  0  0
 18 20  1  0  0  0  0
 19 21  1  0  0  0  0
 20 24  2  0  0  0  0
 20 25  1  0  0  0  0
 21 26  1  0  0  0  0
 21 27  1  0  0  0  0
 22 31  1  0  0  0  0
 23 32  2  0  0  0  0
 24 29  1  0  0  0  0
 25 30  2  0  0  0  0
 27 33  1  0  0  0  0
 28 29  2  0  0  0  0
 28 30  1  0  0  0  0
 31 34  2  0  0  0  0
 32 34  1  0  0  0  0
M  END
> <PUBCHEM_COMPOUND_ID_TYPE>
0

> <PUBCHEM_TOTAL_CHARGE>
0

> <PUBCHEM_SUBSTANCE_ID>
310945869

> <PUBCHEM_SUBSTANCE_VERSION>
1

> <PUBCHEM_EXT_DATASOURCE_NAME>
4488

> <PUBCHEM_EXT_DATASOURCE_REGID>
SCHEMBL16123974

> <PUBCHEM_SUBSTANCE_COMMENT>
InChI=1S/C27H32N2O6/c1-27(17-35-27)24(30)22(14-18-6-4-3-5-7-18)28-26(32)23(29-25(31)20-12-13-34-16-20)15-19-8-10-21(33-2)11-9-19/h3-11,20,22-23H,12-17H2,1-2H3,(H,28,32)(H,29,31)
InChIKey=CTMYWXHFJJIIQU-UHFFFAOYSA-N

> <PUBCHEM_SUBSTANCE_SYNONYM>
SCHEMBL16123974

> <PUBCHEM_XREF_EXT_ID>
SCHEMBL16123974

> <PUBCHEM_EXT_DATASOURCE_URL>
https://www.surechembl.org/

> <PUBCHEM_EXT_SUBSTANCE_URL>
https://www.surechembl.org/chemical/SCHEMBL16123974

> <PUBCHEM_CID_ASSOCIATIONS>
117611853  1

> <PUBCHEM_COORDINATE_TYPE>
1
3

$$$$
