310945417
  -OEChem-07211613022D

 28 31  0     1  0  0  0  0  0999 V2000
    2.9437    0.6266    0.0000 F   0  0  0  0  0  0  0  0  0  0  0  0
    2.4628   -0.3935    0.0000 F   0  0  0  0  0  0  0  0  0  0  0  0
    1.4281    0.1020    0.0000 F   0  0  0  0  0  0  0  0  0  0  0  0
   -2.3898    1.6905    0.0000 O   0  0  0  0  0  0  0  0  0  0  0  0
   -0.3352   -2.8271    0.0000 O   0  0  0  0  0  0  0  0  0  0  0  0
    0.4081    0.9326    0.0000 N   0  0  0  0  0  0  0  0  0  0  0  0
    2.4190    1.8653    0.0000 N   0  0  0  0  0  0  0  0  0  0  0  0
   -0.3498   -1.1658    0.0000 N   0  0  0  0  0  0  0  0  0  0  0  0
    1.0638    1.4427    0.0000 C   0  0  0  0  0  0  0  0  0  0  0  0
    0.8160    2.2004    0.0000 C   0  0  0  0  0  0  0  0  0  0  0  0
   -0.2623    1.4281    0.0000 C   0  0  0  0  0  0  0  0  0  0  0  0
    0.0000    2.2150    0.0000 C   0  0  0  0  0  0  0  0  0  0  0  0
    1.8653    1.2387    0.0000 C   0  0  0  0  0  0  0  0  0  0  0  0
    2.1713    0.3643    0.0000 C   0  0  0  0  0  0  0  0  0  0  0  0
    1.3699    2.8271    0.0000 C   0  0  0  0  0  0  0  0  0  0  0  0
   -1.0492    1.2678    0.0000 C   0  0  0  0  0  0  0  0  0  0  0  0
    0.3935    0.0728    0.0000 C   0  0  0  0  0  0  0  0  0  0  0  0
   -0.5392    2.8125    0.0000 C   0  0  0  0  0  0  0  0  0  0  0  0
   -1.5884    1.8653    0.0000 C   0  0  0  0  0  0  0  0  0  0  0  0
    2.1713    2.6522    0.0000 C   0  0  0  0  0  0  0  0  0  0  0  0
   -1.3407    2.6522    0.0000 C   0  0  0  0  0  0  0  0  0  0  0  0
   -0.3352   -0.3206    0.0000 C   0  0  3  0  0  0  0  0  0  0  0  0
   -1.0638    0.0728    0.0000 C   0  0  0  0  0  0  0  0  0  0  0  0
   -1.0492   -1.5739    0.0000 C   0  0  0  0  0  0  0  0  0  0  0  0
    0.3643   -1.5884    0.0000 C   0  0  0  0  0  0  0  0  0  0  0  0
   -2.9437    2.3025    0.0000 C   0  0  0  0  0  0  0  0  0  0  0  0
   -1.0492   -2.3898    0.0000 C   0  0  0  0  0  0  0  0  0  0  0  0
    0.3498   -2.4190    0.0000 C   0  0  0  0  0  0  0  0  0  0  0  0
  1 14  1  0  0  0  0
  2 14  1  0  0  0  0
  3 14  1  0  0  0  0
  4 19  1  0  0  0  0
  4 26  1  0  0  0  0
  5 27  1  0  0  0  0
  5 28  1  0  0  0  0
  6  9  1  0  0  0  0
  6 11  1  0  0  0  0
  6 17  1  0  0  0  0
  7 13  2  0  0  0  0
  7 20  1  0  0  0  0
  8 22  1  0  0  0  0
  8 24  1  0  0  0  0
  8 25  1  0  0  0  0
  9 10  2  0  0  0  0
  9 13  1  0  0  0  0
 10 12  1  0  0  0  0
 10 15  1  0  0  0  0
 11 12  2  0  0  0  0
 11 16  1  0  0  0  0
 12 18  1  0  0  0  0
 13 14  1  0  0  0  0
 15 20  2  0  0  0  0
 16 19  2  0  0  0  0
 17 22  1  0  0  0  0
 18 21  2  0  0  0  0
 19 21  1  0  0  0  0
 22 23  1  0  0  0  0
 24 27  1  0  0  0  0
 25 28  1  0  0  0  0
M  END
> <PUBCHEM_COMPOUND_ID_TYPE>
0

> <PUBCHEM_TOTAL_CHARGE>
0

> <PUBCHEM_SUBSTANCE_ID>
310945417

> <PUBCHEM_SUBSTANCE_VERSION>
1

> <PUBCHEM_EXT_DATASOURCE_NAME>
4488

> <PUBCHEM_EXT_DATASOURCE_REGID>
SCHEMBL16123515

> <PUBCHEM_SUBSTANCE_COMMENT>
InChI=1S/C20H22F3N3O2/c1-13(25-7-9-28-10-8-25)12-26-17-11-14(27-2)3-4-15(17)16-5-6-24-19(18(16)26)20(21,22)23/h3-6,11,13H,7-10,12H2,1-2H3
InChIKey=MEPHWIHMAWNRMX-UHFFFAOYSA-N

> <PUBCHEM_SUBSTANCE_SYNONYM>
SCHEMBL16123515

> <PUBCHEM_XREF_EXT_ID>
SCHEMBL16123515

> <PUBCHEM_EXT_DATASOURCE_URL>
https://www.surechembl.org/

> <PUBCHEM_EXT_SUBSTANCE_URL>
https://www.surechembl.org/chemical/SCHEMBL16123515

> <PUBCHEM_CID_ASSOCIATIONS>
117611463  1

> <PUBCHEM_COORDINATE_TYPE>
1
3

$$$$
