310943477
  -OEChem-07211613022D

 30 33  0     1  0  0  0  0  0999 V2000
   -0.3230    3.7584    0.0000 O   0  0  0  0  0  0  0  0  0  0  0  0
    0.4191   -3.3598    0.0000 O   0  0  0  0  0  0  0  0  0  0  0  0
    0.4054    2.4941    0.0000 N   0  0  0  0  0  0  0  0  0  0  0  0
   -1.0237   -2.5353    0.0000 N   0  0  0  0  0  0  0  0  0  0  0  0
    2.2330    2.0957    0.0000 N   0  0  3  0  0  0  0  0  0  0  0  0
   -1.7658    1.2573    0.0000 C   0  0  0  0  0  0  0  0  0  0  0  0
   -1.0375    2.5079    0.0000 C   0  0  0  0  0  0  0  0  0  0  0  0
   -1.7658    0.4191    0.0000 C   0  0  0  0  0  0  0  0  0  0  0  0
   -1.0375    1.6696    0.0000 C   0  0  0  0  0  0  0  0  0  0  0  0
   -2.4941    1.6696    0.0000 C   0  0  0  0  0  0  0  0  0  0  0  0
   -0.3367    2.9202    0.0000 C   0  0  0  0  0  0  0  0  0  0  0  0
   -1.7521    2.9202    0.0000 C   0  0  0  0  0  0  0  0  0  0  0  0
   -2.4667    2.5079    0.0000 C   0  0  0  0  0  0  0  0  0  0  0  0
   -2.4667   -0.0069    0.0000 C   0  0  0  0  0  0  0  0  0  0  0  0
   -1.0375   -0.0069    0.0000 C   0  0  0  0  0  0  0  0  0  0  0  0
   -1.7383   -1.2573    0.0000 C   0  0  0  0  0  0  0  0  0  0  0  0
   -2.4667   -0.8314    0.0000 C   0  0  0  0  0  0  0  0  0  0  0  0
   -1.0375   -0.8451    0.0000 C   0  0  0  0  0  0  0  0  0  0  0  0
    1.0650    3.0301    0.0000 C   0  0  0  0  0  0  0  0  0  0  0  0
    0.4191    1.6696    0.0000 C   0  0  0  0  0  0  0  0  0  0  0  0
   -1.7521   -2.0819    0.0000 C   0  0  0  0  0  0  0  0  0  0  0  0
   -3.0163    1.3536    0.0000 C   0  0  0  0  0  0  0  0  0  0  0  0
    1.8620    2.8515    0.0000 C   0  0  0  0  0  0  0  0  0  0  0  0
    1.0375    1.1749    0.0000 C   0  0  0  0  0  0  0  0  0  0  0  0
    1.8620    1.3399    0.0000 C   0  0  0  0  0  0  0  0  0  0  0  0
   -1.0100   -3.3461    0.0000 C   0  0  0  0  0  0  0  0  0  0  0  0
   -0.3230   -2.1094    0.0000 C   0  0  0  0  0  0  0  0  0  0  0  0
   -0.2955   -3.7584    0.0000 C   0  0  0  0  0  0  0  0  0  0  0  0
    0.4054   -2.5079    0.0000 C   0  0  0  0  0  0  0  0  0  0  0  0
    3.0163    1.8758    0.0000 C   0  0  0  0  0  0  0  0  0  0  0  0
  1 11  2  0  0  0  0
  2 28  1  0  0  0  0
  2 29  1  0  0  0  0
  3 11  1  0  0  0  0
  3 19  1  0  0  0  0
  3 20  1  0  0  0  0
  4 21  1  0  0  0  0
  4 26  1  0  0  0  0
  4 27  1  0  0  0  0
  5 23  1  0  0  0  0
  5 25  1  0  0  0  0
  5 30  1  0  0  0  0
  6  8  1  0  0  0  0
  6  9  2  0  0  0  0
  6 10  1  0  0  0  0
  7  9  1  0  0  0  0
  7 11  1  0  0  0  0
  7 12  2  0  0  0  0
  8 14  2  0  0  0  0
  8 15  1  0  0  0  0
 10 13  2  0  0  0  0
 10 22  1  0  0  0  0
 12 13  1  0  0  0  0
 14 17  1  0  0  0  0
 15 18  2  0  0  0  0
 16 17  2  0  0  0  0
 16 18  1  0  0  0  0
 16 21  1  0  0  0  0
 19 23  1  0  0  0  0
 20 24  1  0  0  0  0
 24 25  1  0  0  0  0
 26 28  1  0  0  0  0
 27 29  1  0  0  0  0
M  END
> <PUBCHEM_COMPOUND_ID_TYPE>
0

> <PUBCHEM_TOTAL_CHARGE>
0

> <PUBCHEM_SUBSTANCE_ID>
310943477

> <PUBCHEM_SUBSTANCE_VERSION>
1

> <PUBCHEM_EXT_DATASOURCE_NAME>
4488

> <PUBCHEM_EXT_DATASOURCE_REGID>
SCHEMBL16121542

> <PUBCHEM_SUBSTANCE_COMMENT>
InChI=1S/C25H33N3O2/c1-20-4-7-23(25(29)28-11-3-10-26(2)12-13-28)18-24(20)22-8-5-21(6-9-22)19-27-14-16-30-17-15-27/h4-9,18H,3,10-17,19H2,1-2H3
InChIKey=SLROQNZKAIMABL-UHFFFAOYSA-N

> <PUBCHEM_SUBSTANCE_SYNONYM>
SCHEMBL16121542

> <PUBCHEM_XREF_EXT_ID>
SCHEMBL16121542

> <PUBCHEM_EXT_DATASOURCE_URL>
https://www.surechembl.org/

> <PUBCHEM_EXT_SUBSTANCE_URL>
https://www.surechembl.org/chemical/SCHEMBL16121542

> <PUBCHEM_CID_ASSOCIATIONS>
117609899  1

> <PUBCHEM_COORDINATE_TYPE>
1
3

$$$$
