310933756
  -OEChem-07211613022D

 39 40  0     1  0  0  0  0  0999 V2000
    5.5926    1.2375    0.0000 S   0  0  0  0  0  0  0  0  0  0  0  0
    7.1320    0.2063    0.0000 F   0  0  0  0  0  0  0  0  0  0  0  0
    7.8465   -0.2063    0.0000 F   0  0  0  0  0  0  0  0  0  0  0  0
    7.1320    1.0313    0.0000 F   0  0  0  0  0  0  0  0  0  0  0  0
    2.0202    2.4750    0.0000 O   0  0  0  0  0  0  0  0  0  0  0  0
    2.7346    2.8875    0.0000 O   0  0  0  0  0  0  0  0  0  0  0  0
    4.1636    2.8875    0.0000 O   0  0  0  0  0  0  0  0  0  0  0  0
    8.5610    1.8563    0.0000 O   0  0  0  0  0  0  0  0  0  0  0  0
    9.2754    0.6188    0.0000 O   0  0  0  0  0  0  0  0  0  0  0  0
    2.7346    1.2375    0.0000 N   0  0  0  0  0  0  0  0  0  0  0  0
   -1.5522    0.4125    0.0000 N   0  0  0  0  0  0  0  0  0  0  0  0
   -3.7348    0.0770    0.0000 N   0  0  0  0  0  0  0  0  0  0  0  0
   -3.8743    1.4045    0.0000 N   0  0  0  0  0  0  0  0  0  0  0  0
    1.3057    0.4125    0.0000 C   0  0  0  0  0  0  0  0  0  0  0  0
    1.3057    1.2375    0.0000 C   0  0  0  0  0  0  0  0  0  0  0  0
    2.0202    0.0000    0.0000 C   0  0  0  0  0  0  0  0  0  0  0  0
    2.0202    1.6500    0.0000 C   0  0  0  0  0  0  0  0  0  0  0  0
    0.5912    0.0000    0.0000 C   0  0  0  0  0  0  0  0  0  0  0  0
   -0.1232    0.4125    0.0000 C   0  0  0  0  0  0  0  0  0  0  0  0
    2.0202   -0.8250    0.0000 C   0  0  0  0  0  0  0  0  0  0  0  0
    0.5912    1.6500    0.0000 C   0  0  0  0  0  0  0  0  0  0  0  0
   -0.1232    1.2375    0.0000 C   0  0  0  0  0  0  0  0  0  0  0  0
    2.7346    0.4125    0.0000 C   0  0  0  0  0  0  0  0  0  0  0  0
    2.7346   -1.2375    0.0000 C   0  0  0  0  0  0  0  0  0  0  0  0
    3.4491    1.6500    0.0000 C   0  0  3  0  0  0  0  0  0  0  0  0
   -0.8377    0.0000    0.0000 C   0  0  0  0  0  0  0  0  0  0  0  0
    3.4491    0.0000    0.0000 C   0  0  0  0  0  0  0  0  0  0  0  0
    3.4491   -0.8250    0.0000 C   0  0  0  0  0  0  0  0  0  0  0  0
    1.3057   -1.2375    0.0000 C   0  0  0  0  0  0  0  0  0  0  0  0
    3.4491    2.4750    0.0000 C   0  0  0  0  0  0  0  0  0  0  0  0
    4.1636    1.2375    0.0000 C   0  0  0  0  0  0  0  0  0  0  0  0
   -2.2666    0.0000    0.0000 C   0  0  0  0  0  0  0  0  0  0  0  0
   -2.9811    0.4125    0.0000 C   0  0  0  0  0  0  0  0  0  0  0  0
    4.8780    1.6500    0.0000 C   0  0  0  0  0  0  0  0  0  0  0  0
    7.8465    0.6188    0.0000 C   0  0  0  0  0  0  0  0  0  0  0  0
   -3.0673    1.2330    0.0000 C   0  0  0  0  0  0  0  0  0  0  0  0
    8.5610    1.0313    0.0000 C   0  0  0  0  0  0  0  0  0  0  0  0
   -4.2868    0.6901    0.0000 C   0  0  0  0  0  0  0  0  0  0  0  0
    6.3070    1.6500    0.0000 C   0  0  0  0  0  0  0  0  0  0  0  0
  1 34  1  0  0  0  0
  1 39  1  0  0  0  0
  2 35  1  0  0  0  0
  3 35  1  0  0  0  0
  4 35  1  0  0  0  0
  5 17  2  0  0  0  0
  6 30  2  0  0  0  0
  7 30  1  0  0  0  0
  8 37  2  0  0  0  0
  9 37  1  0  0  0  0
 10 17  1  0  0  0  0
 25 10  1  1  0  0  0
 11 26  1  0  0  0  0
 11 32  1  0  0  0  0
 12 33  1  0  0  0  0
 12 38  1  0  0  0  0
 13 36  1  0  0  0  0
 13 38  2  0  0  0  0
 14 15  1  0  0  0  0
 14 16  1  0  0  0  0
 14 18  2  0  0  0  0
 15 17  1  0  0  0  0
 15 21  2  0  0  0  0
 16 20  1  0  0  0  0
 16 23  2  0  0  0  0
 18 19  1  0  0  0  0
 19 22  2  0  0  0  0
 19 26  1  0  0  0  0
 20 24  2  0  0  0  0
 20 29  1  0  0  0  0
 21 22  1  0  0  0  0
 23 27  1  0  0  0  0
 24 28  1  0  0  0  0
 25 30  1  0  0  0  0
 25 31  1  0  0  0  0
 27 28  2  0  0  0  0
 31 34  1  0  0  0  0
 32 33  1  0  0  0  0
 33 36  2  0  0  0  0
 35 37  1  0  0  0  0
M  END
> <PUBCHEM_COMPOUND_ID_TYPE>
0

> <PUBCHEM_TOTAL_CHARGE>
0

> <PUBCHEM_SUBSTANCE_ID>
310933756

> <PUBCHEM_SUBSTANCE_VERSION>
1

> <PUBCHEM_EXT_DATASOURCE_NAME>
4488

> <PUBCHEM_EXT_DATASOURCE_REGID>
SCHEMBL16111192

> <PUBCHEM_SUBSTANCE_COMMENT>
InChI=1S/C24H28N4O3S.C2HF3O2/c1-16-5-3-4-6-19(16)21-11-17(12-25-13-18-14-26-15-27-18)7-8-20(21)23(29)28-22(24(30)31)9-10-32-2;3-2(4,5)1(6)7/h3-8,11,14-15,22,25H,9-10,12-13H2,1-2H3,(H,26,27)(H,28,29)(H,30,31);(H,6,7)/t22-;/m1./s1
InChIKey=ZCCUFUPJNUTGJM-VZYDHVRKSA-N

> <PUBCHEM_SUBSTANCE_SYNONYM>
SCHEMBL16111192

> <PUBCHEM_XREF_EXT_ID>
SCHEMBL16111192

> <PUBCHEM_EXT_DATASOURCE_URL>
https://www.surechembl.org/

> <PUBCHEM_EXT_SUBSTANCE_URL>
https://www.surechembl.org/chemical/SCHEMBL16111192

> <PUBCHEM_CID_ASSOCIATIONS>
117602113  1
6422  2
9933592  2

> <PUBCHEM_COORDINATE_TYPE>
1
3

> <PUBCHEM_BONDANNOTATIONS>
25  10  5

$$$$
