310939289
  -OEChem-07211613022D

 25 27  0     1  0  0  0  0  0999 V2000
    0.6348    1.0313    0.0000 F   0  0  0  0  0  0  0  0  0  0  0  0
    2.0637   -1.4437    0.0000 F   0  0  0  0  0  0  0  0  0  0  0  0
    2.0637    0.2062    0.0000 O   0  0  0  0  0  0  0  0  0  0  0  0
   -1.5086   -0.2062    0.0000 N   0  0  0  0  0  0  0  0  0  0  0  0
    1.3492   -0.2062    0.0000 C   0  0  0  0  0  0  0  0  0  0  0  0
    0.6348    0.2062    0.0000 C   0  0  0  0  0  0  0  0  0  0  0  0
   -0.0797   -0.2062    0.0000 C   0  0  0  0  0  0  0  0  0  0  0  0
    1.3492   -1.0313    0.0000 C   0  0  0  0  0  0  0  0  0  0  0  0
   -0.7942    0.2062    0.0000 C   0  0  3  0  0  0  0  0  0  0  0  0
   -0.0797   -1.0313    0.0000 C   0  0  0  0  0  0  0  0  0  0  0  0
    0.6348   -1.4437    0.0000 C   0  0  0  0  0  0  0  0  0  0  0  0
    2.7782   -0.2062    0.0000 C   0  0  0  0  0  0  0  0  0  0  0  0
   -0.7942    1.0313    0.0000 C   0  0  0  0  0  0  0  0  0  0  0  0
   -2.2231    0.2062    0.0000 C   0  0  0  0  0  0  0  0  0  0  0  0
    2.7782   -1.0313    0.0000 C   0  0  0  0  0  0  0  0  0  0  0  0
    3.4927    0.2062    0.0000 C   0  0  0  0  0  0  0  0  0  0  0  0
   -2.9376   -0.2062    0.0000 C   0  0  0  0  0  0  0  0  0  0  0  0
    3.4927   -1.4437    0.0000 C   0  0  0  0  0  0  0  0  0  0  0  0
    4.2071   -0.2062    0.0000 C   0  0  0  0  0  0  0  0  0  0  0  0
   -2.9376   -1.0313    0.0000 C   0  0  0  0  0  0  0  0  0  0  0  0
   -3.7222    0.0487    0.0000 C   0  0  0  0  0  0  0  0  0  0  0  0
   -1.5086    1.4437    0.0000 C   0  0  0  0  0  0  0  0  0  0  0  0
    4.2071   -1.0313    0.0000 C   0  0  0  0  0  0  0  0  0  0  0  0
   -4.2071   -0.6187    0.0000 C   0  0  0  0  0  0  0  0  0  0  0  0
   -3.7222   -1.2862    0.0000 C   0  0  0  0  0  0  0  0  0  0  0  0
  1  6  1  0  0  0  0
  2  8  1  0  0  0  0
  3  5  1  0  0  0  0
  3 12  1  0  0  0  0
  4  9  1  0  0  0  0
  4 14  1  0  0  0  0
  5  6  2  0  0  0  0
  5  8  1  0  0  0  0
  6  7  1  0  0  0  0
  7  9  1  0  0  0  0
  7 10  2  0  0  0  0
  8 11  2  0  0  0  0
  9 13  1  0  0  0  0
 10 11  1  0  0  0  0
 12 15  2  0  0  0  0
 12 16  1  0  0  0  0
 13 22  1  0  0  0  0
 14 17  1  0  0  0  0
 15 18  1  0  0  0  0
 16 19  2  0  0  0  0
 17 20  1  0  0  0  0
 17 21  1  0  0  0  0
 18 23  2  0  0  0  0
 19 23  1  0  0  0  0
 20 25  1  0  0  0  0
 21 24  1  0  0  0  0
 24 25  1  0  0  0  0
M  END
> <PUBCHEM_COMPOUND_ID_TYPE>
0

> <PUBCHEM_TOTAL_CHARGE>
0

> <PUBCHEM_SUBSTANCE_ID>
310939289

> <PUBCHEM_SUBSTANCE_VERSION>
1

> <PUBCHEM_EXT_DATASOURCE_NAME>
4488

> <PUBCHEM_EXT_DATASOURCE_REGID>
SCHEMBL16117210

> <PUBCHEM_SUBSTANCE_COMMENT>
InChI=1S/C21H25F2NO/c1-2-19(24-14-15-8-6-7-9-15)17-12-13-18(22)21(20(17)23)25-16-10-4-3-5-11-16/h3-5,10-13,15,19,24H,2,6-9,14H2,1H3
InChIKey=YXLYGKYDLQBQDW-UHFFFAOYSA-N

> <PUBCHEM_SUBSTANCE_SYNONYM>
SCHEMBL16117210

> <PUBCHEM_XREF_EXT_ID>
SCHEMBL16117210

> <PUBCHEM_EXT_DATASOURCE_URL>
https://www.surechembl.org/

> <PUBCHEM_EXT_SUBSTANCE_URL>
https://www.surechembl.org/chemical/SCHEMBL16117210

> <PUBCHEM_CID_ASSOCIATIONS>
117606630  1

> <PUBCHEM_COORDINATE_TYPE>
1
3

$$$$
