310940818
  -OEChem-07211613022D

 44 48  0     1  0  0  0  0  0999 V2000
    5.2790    1.0322    0.0000 O   0  0  0  0  0  0  0  0  0  0  0  0
    4.1584   -0.9143    0.0000 O   0  0  0  0  0  0  0  0  0  0  0  0
    1.5630    0.8995    0.0000 O   0  0  0  0  0  0  0  0  0  0  0  0
    4.4385   -1.5778    0.0000 O   0  0  0  0  0  0  0  0  0  0  0  0
   -0.5898   -1.1649    0.0000 O   0  0  0  0  0  0  0  0  0  0  0  0
    5.1611   -2.8165    0.0000 O   0  0  0  0  0  0  0  0  0  0  0  0
   -2.7427    0.8995    0.0000 O   0  0  0  0  0  0  0  0  0  0  0  0
   -5.6034    0.8995    0.0000 O   0  0  0  0  0  0  0  0  0  0  0  0
    2.2856   -0.3244    0.0000 N   0  0  0  0  0  0  0  0  0  0  0  0
    0.1328    0.0738    0.0000 N   0  0  0  0  0  0  0  0  0  0  0  0
    3.7160   -2.8017    0.0000 N   0  0  0  0  0  0  0  0  0  0  0  0
   -2.0202   -0.3244    0.0000 N   0  0  0  0  0  0  0  0  0  0  0  0
   -4.1730    0.0738    0.0000 N   0  0  0  0  0  0  0  0  0  0  0  0
    4.8809    0.3686    0.0000 C   0  0  3  0  0  0  0  0  0  0  0  0
    4.1584   -0.0442    0.0000 C   0  0  0  0  0  0  0  0  0  0  0  0
    4.4827    1.0469    0.0000 C   0  0  0  0  0  0  0  0  0  0  0  0
    3.4210    0.3539    0.0000 C   0  0  3  0  0  0  0  0  0  0  0  0
    5.6034   -0.0738    0.0000 C   0  0  0  0  0  0  0  0  0  0  0  0
    3.4358    1.4156    0.0000 C   0  0  0  0  0  0  0  0  0  0  0  0
    1.5778    0.0738    0.0000 C   0  0  0  0  0  0  0  0  0  0  0  0
    0.8700   -0.3096    0.0000 C   0  0  3  0  0  0  0  0  0  0  0  0
    2.7132    1.8432    0.0000 C   0  0  0  0  0  0  0  0  0  0  0  0
    1.5926   -1.5483    0.0000 C   0  0  0  0  0  0  0  0  0  0  0  0
    3.0081   -1.5336    0.0000 C   0  0  0  0  0  0  0  0  0  0  0  0
    3.0081   -2.3593    0.0000 C   0  0  0  0  0  0  0  0  0  0  0  0
    0.8553   -1.1355    0.0000 C   0  0  0  0  0  0  0  0  0  0  0  0
    2.2856   -1.1501    0.0000 C   0  0  0  0  0  0  0  0  0  0  0  0
    1.5926   -2.3741    0.0000 C   0  0  0  0  0  0  0  0  0  0  0  0
    2.3004   -2.7722    0.0000 C   0  0  0  0  0  0  0  0  0  0  0  0
    3.7160   -1.1355    0.0000 C   0  0  0  0  0  0  0  0  0  0  0  0
   -0.5751   -0.2949    0.0000 C   0  0  0  0  0  0  0  0  0  0  0  0
    1.9612    1.5041    0.0000 C   0  0  0  0  0  0  0  0  0  0  0  0
    2.6247    2.6395    0.0000 C   0  0  0  0  0  0  0  0  0  0  0  0
    4.4237   -2.3593    0.0000 C   0  0  0  0  0  0  0  0  0  0  0  0
   -1.3124    0.1032    0.0000 C   0  0  3  0  0  0  0  0  0  0  0  0
    1.4303    2.0939    0.0000 C   0  0  0  0  0  0  0  0  0  0  0  0
    1.8284    2.8165    0.0000 C   0  0  0  0  0  0  0  0  0  0  0  0
   -2.7280    0.0738    0.0000 C   0  0  0  0  0  0  0  0  0  0  0  0
   -1.2829    0.9437    0.0000 C   0  0  0  0  0  0  0  0  0  0  0  0
   -3.4358   -0.3096    0.0000 C   0  0  0  0  0  0  0  0  0  0  0  0
   -4.1584    0.9143    0.0000 C   0  0  0  0  0  0  0  0  0  0  0  0
   -4.8809   -0.3096    0.0000 C   0  0  0  0  0  0  0  0  0  0  0  0
   -4.8956    1.3271    0.0000 C   0  0  0  0  0  0  0  0  0  0  0  0
   -5.5886    0.1032    0.0000 C   0  0  0  0  0  0  0  0  0  0  0  0
  1 14  1  0  0  0  0
  1 16  1  0  0  0  0
  2 15  2  0  0  0  0
  3 20  2  0  0  0  0
  4 30  1  0  0  0  0
  4 34  1  0  0  0  0
  5 31  2  0  0  0  0
  6 34  2  0  0  0  0
  7 38  2  0  0  0  0
  8 43  1  0  0  0  0
  8 44  1  0  0  0  0
  9 17  1  0  0  0  0
  9 20  1  0  0  0  0
 10 21  1  0  0  0  0
 10 31  1  0  0  0  0
 11 25  1  0  0  0  0
 11 34  1  0  0  0  0
 12 35  1  0  0  0  0
 12 38  1  0  0  0  0
 13 40  1  0  0  0  0
 13 41  1  0  0  0  0
 13 42  1  0  0  0  0
 14 15  1  0  0  0  0
 14 16  1  0  0  0  0
 14 18  1  0  0  0  0
 15 17  1  0  0  0  0
 17 19  1  0  0  0  0
 19 22  1  0  0  0  0
 20 21  1  0  0  0  0
 21 26  1  0  0  0  0
 22 32  1  0  0  0  0
 22 33  1  0  0  0  0
 23 26  1  0  0  0  0
 23 27  1  0  0  0  0
 23 28  2  0  0  0  0
 24 25  1  0  0  0  0
 24 27  2  0  0  0  0
 24 30  1  0  0  0  0
 25 29  2  0  0  0  0
 28 29  1  0  0  0  0
 31 35  1  0  0  0  0
 32 36  1  0  0  0  0
 33 37  1  0  0  0  0
 35 39  1  0  0  0  0
 36 37  1  0  0  0  0
 38 40  1  0  0  0  0
 41 43  1  0  0  0  0
 42 44  1  0  0  0  0
M  END
> <PUBCHEM_COMPOUND_ID_TYPE>
0

> <PUBCHEM_TOTAL_CHARGE>
0

> <PUBCHEM_SUBSTANCE_ID>
310940818

> <PUBCHEM_SUBSTANCE_VERSION>
1

> <PUBCHEM_EXT_DATASOURCE_NAME>
4488

> <PUBCHEM_EXT_DATASOURCE_REGID>
SCHEMBL16118777

> <PUBCHEM_SUBSTANCE_COMMENT>
InChI=1S/C31H43N5O8/c1-19(32-26(37)16-36-9-11-42-12-10-36)28(39)34-25(15-21-7-8-23-22(13-21)17-43-30(41)35-23)29(40)33-24(14-20-5-3-4-6-20)27(38)31(2)18-44-31/h7-8,13,19-20,24-25H,3-6,9-12,14-18H2,1-2H3,(H,32,37)(H,33,40)(H,34,39)(H,35,41)
InChIKey=GBJTZWXFNUOORC-UHFFFAOYSA-N

> <PUBCHEM_SUBSTANCE_SYNONYM>
SCHEMBL16118777

> <PUBCHEM_XREF_EXT_ID>
SCHEMBL16118777

> <PUBCHEM_EXT_DATASOURCE_URL>
https://www.surechembl.org/

> <PUBCHEM_EXT_SUBSTANCE_URL>
https://www.surechembl.org/chemical/SCHEMBL16118777

> <PUBCHEM_CID_ASSOCIATIONS>
86296128  1

> <PUBCHEM_COORDINATE_TYPE>
1
3

$$$$
