310948164
  -OEChem-07211613022D

 38 41  0     1  0  0  0  0  0999 V2000
   -2.0923   -1.7528    0.0000 Br  0  0  0  0  0  0  0  0  0  0  0  0
    3.5887    0.4919    0.0000 F   0  0  0  0  0  0  0  0  0  0  0  0
    4.3230   -0.2702    0.0000 F   0  0  0  0  0  0  0  0  0  0  0  0
   -4.3230   -1.6696    0.0000 F   0  0  0  0  0  0  0  0  0  0  0  0
   -3.3531   -2.2101    0.0000 F   0  0  0  0  0  0  0  0  0  0  0  0
   -2.7019   -1.3232    0.0000 O   0  0  0  0  0  0  0  0  0  0  0  0
   -3.8658   -0.6582    0.0000 O   0  0  0  0  0  0  0  0  0  0  0  0
    0.3464    1.1292    0.0000 O   0  0  0  0  0  0  0  0  0  0  0  0
   -1.0946    1.9467    0.0000 O   0  0  0  0  0  0  0  0  0  0  0  0
    2.3001   -1.1292    0.0000 O   0  0  0  0  0  0  0  0  0  0  0  0
    3.6025   -1.7528    0.0000 O   0  0  0  0  0  0  0  0  0  0  0  0
    0.0554    2.2101    0.0000 O   0  0  0  0  0  0  0  0  0  0  0  0
    1.5795    0.6444    0.0000 N   0  0  0  0  0  0  0  0  0  0  0  0
    2.4110    0.6720    0.0000 N   0  0  0  0  0  0  0  0  0  0  0  0
    1.3579   -0.1455    0.0000 C   0  0  0  0  0  0  0  0  0  0  0  0
    0.3603   -0.5197    0.0000 C   0  0  0  0  0  0  0  0  0  0  0  0
   -0.3741   -0.1039    0.0000 C   0  0  0  0  0  0  0  0  0  0  0  0
    2.7019   -0.0900    0.0000 C   0  0  0  0  0  0  0  0  0  0  0  0
   -0.3603    0.7275    0.0000 C   0  0  3  0  0  0  0  0  0  0  0  0
    3.5055   -0.3256    0.0000 C   0  0  0  0  0  0  0  0  0  0  0  0
   -2.5217   -0.5057    0.0000 C   0  0  0  0  0  0  0  0  0  0  0  0
    2.0645   -0.6028    0.0000 C   0  0  0  0  0  0  0  0  0  0  0  0
   -1.0946    1.1154    0.0000 C   0  0  0  0  0  0  0  0  0  0  0  0
   -1.8013    0.7275    0.0000 C   0  0  0  0  0  0  0  0  0  0  0  0
   -3.2423   -0.1039    0.0000 C   0  0  0  0  0  0  0  0  0  0  0  0
   -3.5333   -1.4063    0.0000 C   0  0  0  0  0  0  0  0  0  0  0  0
   -1.8151   -0.1039    0.0000 C   0  0  0  0  0  0  0  0  0  0  0  0
   -1.0807   -0.5197    0.0000 C   0  0  0  0  0  0  0  0  0  0  0  0
    0.3464   -1.3371    0.0000 C   0  0  0  0  0  0  0  0  0  0  0  0
    3.1314   -1.0600    0.0000 C   0  0  0  0  0  0  0  0  0  0  0  0
   -3.2284    0.7275    0.0000 C   0  0  0  0  0  0  0  0  0  0  0  0
   -2.5356    1.1154    0.0000 C   0  0  0  0  0  0  0  0  0  0  0  0
   -1.0946   -1.3371    0.0000 C   0  0  0  0  0  0  0  0  0  0  0  0
   -0.3603   -1.7389    0.0000 C   0  0  0  0  0  0  0  0  0  0  0  0
    1.0807    1.3094    0.0000 C   0  0  0  0  0  0  0  0  0  0  0  0
    0.5266    1.7528    0.0000 C   0  0  0  0  0  0  0  0  0  0  0  0
    1.1638    1.9329    0.0000 C   0  0  0  0  0  0  0  0  0  0  0  0
    1.9676   -1.8913    0.0000 C   0  0  0  0  0  0  0  0  0  0  0  0
  1 33  1  0  0  0  0
  2 20  1  0  0  0  0
  3 20  1  0  0  0  0
  4 26  1  0  0  0  0
  5 26  1  0  0  0  0
  6 21  1  0  0  0  0
  6 26  1  0  0  0  0
  7 25  1  0  0  0  0
  7 26  1  0  0  0  0
  8 19  1  0  0  0  0
  8 36  1  0  0  0  0
  9 23  2  0  0  0  0
 10 30  1  0  0  0  0
 10 38  1  0  0  0  0
 11 30  2  0  0  0  0
 12 36  2  0  0  0  0
 13 14  1  0  0  0  0
 13 15  1  0  0  0  0
 13 35  1  0  0  0  0
 14 18  2  0  0  0  0
 15 16  1  0  0  0  0
 15 22  2  0  0  0  0
 16 17  1  0  0  0  0
 16 29  2  0  0  0  0
 17 19  1  0  0  0  0
 17 28  2  0  0  0  0
 18 20  1  0  0  0  0
 18 22  1  0  0  0  0
 19 23  1  0  0  0  0
 20 30  1  0  0  0  0
 21 25  1  0  0  0  0
 21 27  2  0  0  0  0
 23 24  1  0  0  0  0
 24 27  1  0  0  0  0
 24 32  2  0  0  0  0
 25 31  2  0  0  0  0
 28 33  1  0  0  0  0
 29 34  1  0  0  0  0
 31 32  1  0  0  0  0
 33 34  2  0  0  0  0
 36 37  1  0  0  0  0
M  END
> <PUBCHEM_COMPOUND_ID_TYPE>
0

> <PUBCHEM_TOTAL_CHARGE>
0

> <PUBCHEM_SUBSTANCE_ID>
310948164

> <PUBCHEM_SUBSTANCE_VERSION>
1

> <PUBCHEM_EXT_DATASOURCE_NAME>
4488

> <PUBCHEM_EXT_DATASOURCE_REGID>
SCHEMBL16126341

> <PUBCHEM_SUBSTANCE_COMMENT>
InChI=1S/C24H17BrF4N2O7/c1-11(32)36-21(20(33)12-4-7-17-18(8-12)38-24(28,29)37-17)15-9-13(25)5-6-14(15)16-10-19(30-31(16)2)23(26,27)22(34)35-3/h4-10,21H,1-3H3
InChIKey=IFBHAVFKXPCDTM-UHFFFAOYSA-N

> <PUBCHEM_SUBSTANCE_SYNONYM>
SCHEMBL16126341

> <PUBCHEM_XREF_EXT_ID>
SCHEMBL16126341

> <PUBCHEM_EXT_DATASOURCE_URL>
https://www.surechembl.org/

> <PUBCHEM_EXT_SUBSTANCE_URL>
https://www.surechembl.org/chemical/SCHEMBL16126341

> <PUBCHEM_CID_ASSOCIATIONS>
117613762  1

> <PUBCHEM_COORDINATE_TYPE>
1
3

$$$$
