310929885
  -OEChem-07211613022D

 26 27  0     1  0  0  0  0  0999 V2000
    6.0050   -1.5377    0.0000 O   0  0  0  0  0  0  0  0  0  0  0  0
    4.9500    1.3433    0.0000 O   0  0  0  0  0  0  0  0  0  0  0  0
    2.4750   -0.0856    0.0000 O   0  0  0  0  0  0  0  0  0  0  0  0
    0.4714    1.4289    0.0000 O   0  0  0  0  0  0  0  0  0  0  0  0
    0.4714   -1.4289    0.0000 O   0  0  0  0  0  0  0  0  0  0  0  0
   -0.7661    0.7145    0.0000 O   0  0  0  0  0  0  0  0  0  0  0  0
   -0.7661   -0.7145    0.0000 O   0  0  0  0  0  0  0  0  0  0  0  0
    5.7750   -0.0856    0.0000 N   0  0  0  0  0  0  0  0  0  0  0  0
    3.7125    0.6288    0.0000 N   0  0  0  0  0  0  0  0  0  0  0  0
    7.7590    1.5644    0.0000 N   0  0  0  0  0  0  0  0  0  0  0  0
    7.0445   -0.4981    0.0000 C   0  0  0  0  0  0  0  0  0  0  0  0
    7.0445    0.3269    0.0000 C   0  0  0  0  0  0  0  0  0  0  0  0
    6.2599   -0.7531    0.0000 C   0  0  0  0  0  0  0  0  0  0  0  0
    4.9500   -0.0856    0.0000 C   0  0  3  0  0  0  0  0  0  0  0  0
    6.2599    0.5818    0.0000 C   0  0  0  0  0  0  0  0  0  0  0  0
    7.7590    0.7394    0.0000 C   0  0  0  0  0  0  0  0  0  0  0  0
    4.5375    0.6288    0.0000 C   0  0  0  0  0  0  0  0  0  0  0  0
    7.7590   -0.9106    0.0000 C   0  0  0  0  0  0  0  0  0  0  0  0
    4.5375   -0.8001    0.0000 C   0  0  0  0  0  0  0  0  0  0  0  0
    8.4735    0.3269    0.0000 C   0  0  0  0  0  0  0  0  0  0  0  0
    8.4735   -0.4981    0.0000 C   0  0  0  0  0  0  0  0  0  0  0  0
    3.3000   -0.0856    0.0000 C   0  0  0  0  0  0  0  0  0  0  0  0
    3.7125   -0.8001    0.0000 C   0  0  0  0  0  0  0  0  0  0  0  0
    0.0589   -0.7145    0.0000 C   0  0  0  0  0  0  0  0  0  0  0  0
    0.0589    0.7145    0.0000 C   0  0  0  0  0  0  0  0  0  0  0  0
    0.4714    0.0000    0.0000 C   0  0  0  0  0  0  0  0  0  0  0  0
  1 13  2  0  0  0  0
  2 17  2  0  0  0  0
  3 22  2  0  0  0  0
  4 25  2  0  0  0  0
  5 24  2  0  0  0  0
  6 25  1  0  0  0  0
  7 24  1  0  0  0  0
  8 13  1  0  0  0  0
  8 14  1  0  0  0  0
  8 15  1  0  0  0  0
  9 17  1  0  0  0  0
  9 22  1  0  0  0  0
 10 16  1  0  0  0  0
 11 12  1  0  0  0  0
 11 13  1  0  0  0  0
 11 18  2  0  0  0  0
 12 15  1  0  0  0  0
 12 16  2  0  0  0  0
 14 17  1  0  0  0  0
 14 19  1  0  0  0  0
 16 20  1  0  0  0  0
 18 21  1  0  0  0  0
 19 23  1  0  0  0  0
 20 21  2  0  0  0  0
 22 23  1  0  0  0  0
 24 26  1  0  0  0  0
 25 26  1  0  0  0  0
M  END
> <PUBCHEM_COMPOUND_ID_TYPE>
0

> <PUBCHEM_TOTAL_CHARGE>
0

> <PUBCHEM_SUBSTANCE_ID>
310929885

> <PUBCHEM_SUBSTANCE_VERSION>
1

> <PUBCHEM_EXT_DATASOURCE_NAME>
4488

> <PUBCHEM_EXT_DATASOURCE_REGID>
SCHEMBL16107101

> <PUBCHEM_SUBSTANCE_COMMENT>
InChI=1S/C13H13N3O3.C3H4O4/c14-9-3-1-2-7-8(9)6-16(13(7)19)10-4-5-11(17)15-12(10)18;4-2(5)1-3(6)7/h1-3,10H,4-6,14H2,(H,15,17,18);1H2,(H,4,5)(H,6,7)
InChIKey=MTFPXMMJZLMHIQ-UHFFFAOYSA-N

> <PUBCHEM_SUBSTANCE_SYNONYM>
SCHEMBL16107101

> <PUBCHEM_XREF_EXT_ID>
SCHEMBL16107101

> <PUBCHEM_EXT_DATASOURCE_URL>
https://www.surechembl.org/

> <PUBCHEM_EXT_SUBSTANCE_URL>
https://www.surechembl.org/chemical/SCHEMBL16107101

> <PUBCHEM_CID_ASSOCIATIONS>
71483256  1
867  2
216326  2

> <PUBCHEM_COORDINATE_TYPE>
1
3

$$$$
