310932793
  -OEChem-07211613022D

 33 37  0     1  0  0  0  0  0999 V2000
    7.0050   -2.3832    0.0000 O   0  0  0  0  0  0  0  0  0  0  0  0
    2.8887   -4.1164    0.0000 O   0  0  0  0  0  0  0  0  0  0  0  0
    0.0000   -0.3972    0.0000 O   0  0  0  0  0  0  0  0  0  0  0  0
    6.6440   -3.7914    0.0000 N   0  0  0  0  0  0  0  0  0  0  0  0
    7.0411   -4.5136    0.0000 N   0  0  0  0  0  0  0  0  0  0  0  0
    3.0331   -2.6720    0.0000 N   0  0  0  0  0  0  0  0  0  0  0  0
    5.3440   -4.3691    0.0000 N   0  0  0  0  0  0  0  0  0  0  0  0
    1.4443   -1.2638    0.0000 N   0  0  0  0  0  0  0  0  0  0  0  0
   10.8325   -1.0472    0.0000 N   0  0  0  0  0  0  0  0  0  0  0  0
    7.1856   -3.1776    0.0000 C   0  0  0  0  0  0  0  0  0  0  0  0
    7.9438   -3.5386    0.0000 C   0  0  0  0  0  0  0  0  0  0  0  0
    5.8134   -3.7192    0.0000 C   0  0  0  0  0  0  0  0  0  0  0  0
    8.6660   -3.1053    0.0000 C   0  0  0  0  0  0  0  0  0  0  0  0
    4.1886   -3.5386    0.0000 C   0  0  0  0  0  0  0  0  0  0  0  0
    3.3581   -3.4303    0.0000 C   0  0  0  0  0  0  0  0  0  0  0  0
    7.8716   -4.3330    0.0000 C   0  0  0  0  0  0  0  0  0  0  0  0
    5.4885   -2.9609    0.0000 C   0  0  0  0  0  0  0  0  0  0  0  0
    2.1665   -1.6610    0.0000 C   0  0  3  0  0  0  0  0  0  0  0  0
    4.5136   -4.2969    0.0000 C   0  0  0  0  0  0  0  0  0  0  0  0
    4.6580   -2.8887    0.0000 C   0  0  0  0  0  0  0  0  0  0  0  0
    2.2387   -2.4915    0.0000 C   0  0  0  0  0  0  0  0  0  0  0  0
    3.4664   -1.9860    0.0000 C   0  0  0  0  0  0  0  0  0  0  0  0
    2.9248   -1.3360    0.0000 C   0  0  0  0  0  0  0  0  0  0  0  0
    8.6660   -2.2748    0.0000 C   0  0  0  0  0  0  0  0  0  0  0  0
    9.3882   -3.5386    0.0000 C   0  0  0  0  0  0  0  0  0  0  0  0
   10.1104   -2.2748    0.0000 C   0  0  0  0  0  0  0  0  0  0  0  0
    9.3882   -1.8776    0.0000 C   0  0  0  0  0  0  0  0  0  0  0  0
   10.1104   -3.1053    0.0000 C   0  0  0  0  0  0  0  0  0  0  0  0
    0.7222   -1.6610    0.0000 C   0  0  0  0  0  0  0  0  0  0  0  0
    1.4443   -0.4333    0.0000 C   0  0  0  0  0  0  0  0  0  0  0  0
    0.0000   -1.2638    0.0000 C   0  0  0  0  0  0  0  0  0  0  0  0
    0.7583    0.0000    0.0000 C   0  0  0  0  0  0  0  0  0  0  0  0
   10.8325   -1.8776    0.0000 C   0  0  0  0  0  0  0  0  0  0  0  0
  1 10  1  0  0  0  0
  2 15  2  0  0  0  0
  3 31  1  0  0  0  0
  3 32  1  0  0  0  0
  4  5  1  0  0  0  0
  4 10  1  0  0  0  0
  4 12  1  0  0  0  0
  5 16  2  0  0  0  0
  6 15  1  0  0  0  0
  6 21  1  0  0  0  0
  6 22  1  0  0  0  0
  7 12  1  0  0  0  0
  7 19  2  0  0  0  0
  8 18  1  0  0  0  0
  8 29  1  0  0  0  0
  8 30  1  0  0  0  0
  9 33  3  0  0  0  0
 10 11  2  0  0  0  0
 11 13  1  0  0  0  0
 11 16  1  0  0  0  0
 12 17  2  0  0  0  0
 13 24  2  0  0  0  0
 13 25  1  0  0  0  0
 14 15  1  0  0  0  0
 14 19  1  0  0  0  0
 14 20  2  0  0  0  0
 17 20  1  0  0  0  0
 18 21  1  0  0  0  0
 18 23  1  0  0  0  0
 22 23  1  0  0  0  0
 24 27  1  0  0  0  0
 25 28  2  0  0  0  0
 26 27  2  0  0  0  0
 26 28  1  0  0  0  0
 26 33  1  0  0  0  0
 29 31  1  0  0  0  0
 30 32  1  0  0  0  0
M  END
> <PUBCHEM_COMPOUND_ID_TYPE>
0

> <PUBCHEM_TOTAL_CHARGE>
0

> <PUBCHEM_SUBSTANCE_ID>
310932793

> <PUBCHEM_SUBSTANCE_VERSION>
1

> <PUBCHEM_EXT_DATASOURCE_NAME>
4488

> <PUBCHEM_EXT_DATASOURCE_REGID>
SCHEMBL16110180

> <PUBCHEM_SUBSTANCE_COMMENT>
InChI=1S/C24H24N6O3/c25-13-17-1-3-18(4-2-17)21-15-27-30(24(21)32)22-6-5-19(14-26-22)23(31)29-8-7-20(16-29)28-9-11-33-12-10-28/h1-6,14-15,20,32H,7-12,16H2
InChIKey=GBWOJFOOXDWRJP-UHFFFAOYSA-N

> <PUBCHEM_SUBSTANCE_SYNONYM>
SCHEMBL16110180

> <PUBCHEM_XREF_EXT_ID>
SCHEMBL16110180

> <PUBCHEM_EXT_DATASOURCE_URL>
https://www.surechembl.org/

> <PUBCHEM_EXT_SUBSTANCE_URL>
https://www.surechembl.org/chemical/SCHEMBL16110180

> <PUBCHEM_CID_ASSOCIATIONS>
117601285  1

> <PUBCHEM_COORDINATE_TYPE>
1
3

$$$$
