310935890
  -OEChem-07211613022D

 64 68  0     1  0  0  0  0  0999 V2000
    9.1776    0.3720    0.0000 P   0  0  0  0  0  0  0  0  0  0  0  0
    0.9868    0.0000    0.0000 P   0  0  0  0  0  0  0  0  0  0  0  0
    8.4631   -0.0405    0.0000 O   0  0  0  0  0  0  0  0  0  0  0  0
    0.2724   -0.4125    0.0000 O   0  0  0  0  0  0  0  0  0  0  0  0
    9.5901   -0.3424    0.0000 O   0  0  0  0  0  0  0  0  0  0  0  0
    1.7013    0.4125    0.0000 O   0  0  0  0  0  0  0  0  0  0  0  0
   -2.5856   -0.4125    0.0000 O   0  0  0  0  0  0  0  0  0  0  0  0
    6.3197   -1.2780    0.0000 O   0  0  0  0  0  0  0  0  0  0  0  0
   -3.3000    0.8250    0.0000 O   0  0  0  0  0  0  0  0  0  0  0  0
    5.6052   -0.0405    0.0000 O   0  0  0  0  0  0  0  0  0  0  0  0
    8.7651    1.0865    0.0000 C   0  0  0  0  0  0  0  0  0  0  0  0
    9.8920    0.7845    0.0000 C   0  0  0  0  0  0  0  0  0  0  0  0
    1.3993   -0.7144    0.0000 C   0  0  0  0  0  0  0  0  0  0  0  0
    0.5743    0.7144    0.0000 C   0  0  0  0  0  0  0  0  0  0  0  0
   -1.1566   -0.4125    0.0000 C   0  0  0  0  0  0  0  0  0  0  0  0
    8.4631   -0.8655    0.0000 C   0  0  3  0  0  0  0  0  0  0  0  0
   -0.4421    0.0000    0.0000 C   0  0  0  0  0  0  0  0  0  0  0  0
   -1.8710    0.0000    0.0000 C   0  0  3  0  0  0  0  0  0  0  0  0
    9.1776    1.8010    0.0000 C   0  0  0  0  0  0  0  0  0  0  0  0
   10.6066    0.3720    0.0000 C   0  0  0  0  0  0  0  0  0  0  0  0
    7.9401    1.0865    0.0000 C   0  0  0  0  0  0  0  0  0  0  0  0
    9.8920    1.6095    0.0000 C   0  0  0  0  0  0  0  0  0  0  0  0
    0.9868   -1.4290    0.0000 C   0  0  0  0  0  0  0  0  0  0  0  0
    0.9868    1.4290    0.0000 C   0  0  0  0  0  0  0  0  0  0  0  0
    2.2243   -0.7144    0.0000 C   0  0  0  0  0  0  0  0  0  0  0  0
   -0.2507    0.7144    0.0000 C   0  0  0  0  0  0  0  0  0  0  0  0
    7.7486   -1.2780    0.0000 C   0  0  3  0  0  0  0  0  0  0  0  0
   -1.8710    0.8250    0.0000 C   0  0  0  0  0  0  0  0  0  0  0  0
    9.1776   -1.2780    0.0000 C   0  0  0  0  0  0  0  0  0  0  0  0
    8.7651    2.5155    0.0000 C   0  0  0  0  0  0  0  0  0  0  0  0
   11.3210    0.7845    0.0000 C   0  0  0  0  0  0  0  0  0  0  0  0
    7.5276    1.8010    0.0000 C   0  0  0  0  0  0  0  0  0  0  0  0
   10.6066    2.0220    0.0000 C   0  0  0  0  0  0  0  0  0  0  0  0
    1.3993   -2.1434    0.0000 C   0  0  0  0  0  0  0  0  0  0  0  0
    0.5743    2.1434    0.0000 C   0  0  0  0  0  0  0  0  0  0  0  0
    2.6368   -1.4290    0.0000 C   0  0  0  0  0  0  0  0  0  0  0  0
   -0.6632    1.4290    0.0000 C   0  0  0  0  0  0  0  0  0  0  0  0
   -0.7441   -1.1270    0.0000 C   0  0  0  0  0  0  0  0  0  0  0  0
   -1.5691   -1.1270    0.0000 C   0  0  0  0  0  0  0  0  0  0  0  0
   -3.3000    0.0000    0.0000 C   0  0  0  0  0  0  0  0  0  0  0  0
    7.9401    2.5155    0.0000 C   0  0  0  0  0  0  0  0  0  0  0  0
   11.3210    1.6095    0.0000 C   0  0  0  0  0  0  0  0  0  0  0  0
    2.2243   -2.1434    0.0000 C   0  0  0  0  0  0  0  0  0  0  0  0
   -0.2507    2.1434    0.0000 C   0  0  0  0  0  0  0  0  0  0  0  0
    7.0342   -0.8655    0.0000 C   0  0  0  0  0  0  0  0  0  0  0  0
    7.7486   -2.1030    0.0000 C   0  0  0  0  0  0  0  0  0  0  0  0
   -4.0145   -0.4125    0.0000 C   0  0  0  0  0  0  0  0  0  0  0  0
    9.1776   -2.1030    0.0000 C   0  0  0  0  0  0  0  0  0  0  0  0
   -2.5856    1.2375    0.0000 C   0  0  0  0  0  0  0  0  0  0  0  0
   -1.1566    1.2375    0.0000 C   0  0  0  0  0  0  0  0  0  0  0  0
    5.6052   -0.8655    0.0000 C   0  0  0  0  0  0  0  0  0  0  0  0
   -4.7290    0.0000    0.0000 C   0  0  0  0  0  0  0  0  0  0  0  0
   -4.0145   -1.2375    0.0000 C   0  0  0  0  0  0  0  0  0  0  0  0
    8.4631   -2.5155    0.0000 C   0  0  0  0  0  0  0  0  0  0  0  0
    4.8908   -1.2780    0.0000 C   0  0  0  0  0  0  0  0  0  0  0  0
   -5.4434   -0.4125    0.0000 C   0  0  0  0  0  0  0  0  0  0  0  0
   -4.7290   -1.6500    0.0000 C   0  0  0  0  0  0  0  0  0  0  0  0
    9.8920   -2.5155    0.0000 C   0  0  0  0  0  0  0  0  0  0  0  0
   -5.4434   -1.2375    0.0000 C   0  0  0  0  0  0  0  0  0  0  0  0
    4.1763   -0.8655    0.0000 C   0  0  0  0  0  0  0  0  0  0  0  0
    4.8908   -2.1030    0.0000 C   0  0  0  0  0  0  0  0  0  0  0  0
    3.4618   -1.2780    0.0000 C   0  0  0  0  0  0  0  0  0  0  0  0
    4.1763   -2.5155    0.0000 C   0  0  0  0  0  0  0  0  0  0  0  0
    3.4618   -2.1030    0.0000 C   0  0  0  0  0  0  0  0  0  0  0  0
  1  3  1  0  0  0  0
  1  5  2  0  0  0  0
  1 11  1  0  0  0  0
  1 12  1  0  0  0  0
  2  4  1  0  0  0  0
  2  6  2  0  0  0  0
  2 13  1  0  0  0  0
  2 14  1  0  0  0  0
  3 16  1  0  0  0  0
  4 17  1  0  0  0  0
  7 18  1  0  0  0  0
  7 40  1  0  0  0  0
  8 45  1  0  0  0  0
  8 51  1  0  0  0  0
  9 40  2  0  0  0  0
 10 51  2  0  0  0  0
 11 19  2  0  0  0  0
 11 21  1  0  0  0  0
 12 20  2  0  0  0  0
 12 22  1  0  0  0  0
 13 23  2  0  0  0  0
 13 25  1  0  0  0  0
 14 24  2  0  0  0  0
 14 26  1  0  0  0  0
 15 17  1  0  0  0  0
 15 18  1  0  0  0  0
 15 38  1  0  0  0  0
 15 39  1  0  0  0  0
 16 27  1  0  0  0  0
 16 29  1  0  0  0  0
 18 28  1  0  0  0  0
 19 30  1  0  0  0  0
 20 31  1  0  0  0  0
 21 32  2  0  0  0  0
 22 33  2  0  0  0  0
 23 34  1  0  0  0  0
 24 35  1  0  0  0  0
 25 36  2  0  0  0  0
 26 37  2  0  0  0  0
 27 45  1  0  0  0  0
 27 46  1  0  0  0  0
 28 49  1  0  0  0  0
 28 50  1  0  0  0  0
 29 48  1  0  0  0  0
 30 41  2  0  0  0  0
 31 42  2  0  0  0  0
 32 41  1  0  0  0  0
 33 42  1  0  0  0  0
 34 43  2  0  0  0  0
 35 44  2  0  0  0  0
 36 43  1  0  0  0  0
 37 44  1  0  0  0  0
 40 47  1  0  0  0  0
 46 54  1  0  0  0  0
 47 52  2  0  0  0  0
 47 53  1  0  0  0  0
 48 58  1  0  0  0  0
 51 55  1  0  0  0  0
 52 56  1  0  0  0  0
 53 57  2  0  0  0  0
 55 60  2  0  0  0  0
 55 61  1  0  0  0  0
 56 59  2  0  0  0  0
 57 59  1  0  0  0  0
 60 62  1  0  0  0  0
 61 63  2  0  0  0  0
 62 64  2  0  0  0  0
 63 64  1  0  0  0  0
M  END
> <PUBCHEM_COMPOUND_ID_TYPE>
0

> <PUBCHEM_TOTAL_CHARGE>
0

> <PUBCHEM_SUBSTANCE_ID>
310935890

> <PUBCHEM_SUBSTANCE_VERSION>
1

> <PUBCHEM_EXT_DATASOURCE_NAME>
4488

> <PUBCHEM_EXT_DATASOURCE_REGID>
SCHEMBL16113484

> <PUBCHEM_SUBSTANCE_COMMENT>
InChI=1S/2C27H31O4P/c1-21(2)25(31-26(28)22-14-8-5-9-15-22)27(3,4)20-30-32(29,23-16-10-6-11-17-23)24-18-12-7-13-19-24;1-3-14-26(22(4-2)21-30-27(28)23-15-8-5-9-16-23)31-32(29,24-17-10-6-11-18-24)25-19-12-7-13-20-25/h5-19,21,25H,20H2,1-4H3;5-13,15-20,22,26H,3-4,14,21H2,1-2H3
InChIKey=HSZDMXBKIDEPJR-UHFFFAOYSA-N

> <PUBCHEM_SUBSTANCE_SYNONYM>
SCHEMBL16113484

> <PUBCHEM_XREF_EXT_ID>
SCHEMBL16113484

> <PUBCHEM_EXT_DATASOURCE_URL>
https://www.surechembl.org/

> <PUBCHEM_EXT_SUBSTANCE_URL>
https://www.surechembl.org/chemical/SCHEMBL16113484

> <PUBCHEM_CID_ASSOCIATIONS>
117603877  1
90415419  2
90417423  2

> <PUBCHEM_COORDINATE_TYPE>
1
3

$$$$
