310946251
  -OEChem-07211613022D

 24 26  0     1  0  0  0  0  0999 V2000
    3.2499  -10.0261    0.0000 S   0  0  0  0  0  0  0  0  0  0  0  0
    2.4249  -10.0261    0.0000 O   0  0  0  0  0  0  0  0  0  0  0  0
   -0.4330  -10.0261    0.0000 O   0  0  0  0  0  0  0  0  0  0  0  0
   -1.8620   -7.5511    0.0000 O   0  0  0  0  0  0  0  0  0  0  0  0
   -0.4330   -6.7261    0.0000 O   0  0  0  0  0  0  0  0  0  0  0  0
    3.6624   -9.3116    0.0000 O   0  0  0  0  0  0  0  0  0  0  0  0
    3.6624  -10.7406    0.0000 O   0  0  0  0  0  0  0  0  0  0  0  0
    0.2814   -8.7886    0.0000 N   0  0  0  0  0  0  0  0  0  0  0  0
    1.7104   -9.6136    0.0000 N   0  0  0  0  0  0  0  0  0  0  0  0
   -1.1475   -7.9636    0.0000 N   0  0  0  0  0  0  0  0  0  0  0  0
   -3.7858   -7.0356    0.0000 N   0  0  0  0  0  0  0  0  0  0  0  0
    0.2814   -9.6136    0.0000 C   0  0  0  0  0  0  0  0  0  0  0  0
    1.7104   -8.7886    0.0000 C   0  0  3  0  0  0  0  0  0  0  0  0
    0.2814   -7.9636    0.0000 C   0  0  3  0  0  0  0  0  0  0  0  0
    0.9959   -9.2011    0.0000 C   0  0  0  0  0  0  0  0  0  0  0  0
    1.7104   -7.9636    0.0000 C   0  0  0  0  0  0  0  0  0  0  0  0
    0.9959   -7.5511    0.0000 C   0  0  0  0  0  0  0  0  0  0  0  0
   -0.4330   -7.5511    0.0000 C   0  0  0  0  0  0  0  0  0  0  0  0
   -2.5764   -7.9636    0.0000 C   0  0  3  0  0  0  0  0  0  0  0  0
   -3.3733   -7.7501    0.0000 C   0  0  3  0  0  0  0  0  0  0  0  0
   -2.7900   -8.7605    0.0000 C   0  0  0  0  0  0  0  0  0  0  0  0
   -3.5868   -8.5469    0.0000 C   0  0  0  0  0  0  0  0  0  0  0  0
    4.0749  -10.0261    0.0000 C   0  0  0  0  0  0  0  0  0  0  0  0
   -3.3733   -6.3211    0.0000 C   0  0  0  0  0  0  0  0  0  0  0  0
  1  2  1  0  0  0  0
  1  6  2  0  0  0  0
  1  7  2  0  0  0  0
  1 23  1  0  0  0  0
  2  9  1  0  0  0  0
  3 12  2  0  0  0  0
  4 10  1  0  0  0  0
  4 19  1  0  0  0  0
  5 18  2  0  0  0  0
  8 12  1  0  0  0  0
  8 14  1  0  0  0  0
  8 15  1  0  0  0  0
  9 12  1  0  0  0  0
  9 13  1  0  0  0  0
 10 18  1  0  0  0  0
 11 20  1  0  0  0  0
 11 24  1  0  0  0  0
 13 15  1  6  0  0  0
 13 16  1  0  0  0  0
 14 17  1  0  0  0  0
 14 18  1  6  0  0  0
 16 17  1  0  0  0  0
 19 20  1  0  0  0  0
 19 21  1  0  0  0  0
 20 22  1  0  0  0  0
 21 22  1  0  0  0  0
M  END
> <PUBCHEM_COMPOUND_ID_TYPE>
0

> <PUBCHEM_TOTAL_CHARGE>
0

> <PUBCHEM_SUBSTANCE_ID>
310946251

> <PUBCHEM_SUBSTANCE_VERSION>
1

> <PUBCHEM_EXT_DATASOURCE_NAME>
4488

> <PUBCHEM_EXT_DATASOURCE_REGID>
SCHEMBL16124369

> <PUBCHEM_SUBSTANCE_COMMENT>
InChI=1S/C13H22N4O6S/c1-14-9-4-6-11(9)22-15-12(18)10-5-3-8-7-16(10)13(19)17(8)23-24(2,20)21/h8-11,14H,3-7H2,1-2H3,(H,15,18)/t8-,9?,10+,11?/m1/s1
InChIKey=VUMQYEWJFAIUAU-VKAADOFISA-N

> <PUBCHEM_SUBSTANCE_SYNONYM>
SCHEMBL16124369

> <PUBCHEM_XREF_EXT_ID>
SCHEMBL16124369

> <PUBCHEM_EXT_DATASOURCE_URL>
https://www.surechembl.org/

> <PUBCHEM_EXT_SUBSTANCE_URL>
https://www.surechembl.org/chemical/SCHEMBL16124369

> <PUBCHEM_CID_ASSOCIATIONS>
117612199  1

> <PUBCHEM_COORDINATE_TYPE>
1
3

> <PUBCHEM_BONDANNOTATIONS>
13  15  6
14  18  6

$$$$
