310946617
  -OEChem-07211613022D

 25 24  0     1  0  0  0  0  0999 V2000
    6.3279   -3.6214    0.0000 O   0  0  0  0  0  0  0  0  0  0  0  0
    2.7556   -4.0339    0.0000 O   0  0  0  0  0  0  0  0  0  0  0  0
    5.6135   -4.8589    0.0000 O   0  0  0  0  0  0  0  0  0  0  0  0
    3.4701   -2.7964    0.0000 O   0  0  0  0  0  0  0  0  0  0  0  0
    5.6135   -2.3839    0.0000 O   0  0  0  0  0  0  0  0  0  0  0  0
    2.0411   -6.0964    0.0000 O   0  0  0  0  0  0  0  0  0  0  0  0
    2.0411   -7.7464    0.0000 O   0  0  0  0  0  0  0  0  0  0  0  0
    8.4713   -4.0339    0.0000 O   0  0  0  0  0  0  0  0  0  0  0  0
    3.4701   -7.7464    0.0000 O   0  5  0  0  0  0  0  0  0  0  0  0
    2.7556   -6.5089    0.0000 O   0  0  0  0  0  0  0  0  0  0  0  0
    4.1845   -4.0339    0.0000 N   0  0  0  0  0  0  0  0  0  0  0  0
    2.7556   -7.3339    0.0000 N   0  3  0  0  0  0  0  0  0  0  0  0
    4.8990   -3.6214    0.0000 C   0  0  3  0  0  0  0  0  0  0  0  0
    5.6135   -4.0339    0.0000 C   0  0  0  0  0  0  0  0  0  0  0  0
    3.4701   -3.6214    0.0000 C   0  0  0  0  0  0  0  0  0  0  0  0
    4.8990   -2.7964    0.0000 C   0  0  0  0  0  0  0  0  0  0  0  0
    7.0424   -4.0339    0.0000 C   0  0  0  0  0  0  0  0  0  0  0  0
    2.7556   -4.8589    0.0000 C   0  0  0  0  0  0  0  0  0  0  0  0
    2.0411   -5.2714    0.0000 C   0  0  0  0  0  0  0  0  0  0  0  0
    7.7569   -3.6214    0.0000 C   0  0  0  0  0  0  0  0  0  0  0  0
    1.3266   -6.5089    0.0000 C   0  0  0  0  0  0  0  0  0  0  0  0
    1.3266   -7.3339    0.0000 C   0  0  0  0  0  0  0  0  0  0  0  0
    9.1858   -3.6214    0.0000 C   0  0  0  0  0  0  0  0  0  0  0  0
    9.9003   -4.0339    0.0000 C   0  0  0  0  0  0  0  0  0  0  0  0
   10.6148   -3.6214    0.0000 C   0  0  0  0  0  0  0  0  0  0  0  0
  1 14  1  0  0  0  0
  1 17  1  0  0  0  0
  2 15  1  0  0  0  0
  2 18  1  0  0  0  0
  3 14  2  0  0  0  0
  4 15  2  0  0  0  0
  5 16  1  0  0  0  0
  6 19  1  0  0  0  0
  6 21  1  0  0  0  0
  7 12  1  0  0  0  0
  7 22  1  0  0  0  0
  8 20  1  0  0  0  0
  8 23  1  0  0  0  0
  9 12  1  0  0  0  0
 10 12  2  0  0  0  0
 11 13  1  0  0  0  0
 11 15  1  0  0  0  0
 13 14  1  0  0  0  0
 13 16  1  0  0  0  0
 17 20  1  0  0  0  0
 18 19  1  0  0  0  0
 21 22  1  0  0  0  0
 23 24  1  0  0  0  0
 24 25  1  0  0  0  0
M  CHG  2   9  -1  12   1
M  END
> <PUBCHEM_COMPOUND_ID_TYPE>
0

> <PUBCHEM_TOTAL_CHARGE>
0

> <PUBCHEM_SUBSTANCE_ID>
310946617

> <PUBCHEM_SUBSTANCE_VERSION>
1

> <PUBCHEM_EXT_DATASOURCE_NAME>
4488

> <PUBCHEM_EXT_DATASOURCE_REGID>
SCHEMBL16124738

> <PUBCHEM_SUBSTANCE_COMMENT>
InChI=1S/C13H24N2O10/c1-2-3-21-4-7-23-12(17)11(10-16)14-13(18)24-8-5-22-6-9-25-15(19)20/h11,16H,2-10H2,1H3,(H,14,18)
InChIKey=UHXHXOHZNGCZMB-UHFFFAOYSA-N

> <PUBCHEM_SUBSTANCE_SYNONYM>
SCHEMBL16124738

> <PUBCHEM_XREF_EXT_ID>
SCHEMBL16124738

> <PUBCHEM_EXT_DATASOURCE_URL>
https://www.surechembl.org/

> <PUBCHEM_EXT_SUBSTANCE_URL>
https://www.surechembl.org/chemical/SCHEMBL16124738

> <PUBCHEM_CID_ASSOCIATIONS>
117612517  1

> <PUBCHEM_COORDINATE_TYPE>
1
3

$$$$
