310937526
  -OEChem-07211613022D

 37 40  0     1  0  0  0  0  0999 V2000
   -1.0901    6.9279    0.0000 F   0  0  0  0  0  0  0  0  0  0  0  0
   -0.6720    5.8387    0.0000 F   0  0  0  0  0  0  0  0  0  0  0  0
   -2.1794    6.5098    0.0000 F   0  0  0  0  0  0  0  0  0  0  0  0
   -4.5583    4.4082    0.0000 F   0  0  0  0  0  0  0  0  0  0  0  0
   -3.6515    3.6740    0.0000 F   0  0  0  0  0  0  0  0  0  0  0  0
   -3.8240    5.3149    0.0000 F   0  0  0  0  0  0  0  0  0  0  0  0
    2.8579    1.6500    0.0000 F   0  0  0  0  0  0  0  0  0  0  0  0
    2.5559    0.5230    0.0000 F   0  0  0  0  0  0  0  0  0  0  0  0
    1.7309    1.9520    0.0000 F   0  0  0  0  0  0  0  0  0  0  0  0
   -0.3020    3.3320    0.0000 O   0  0  0  0  0  0  0  0  0  0  0  0
   -1.1270   -2.5070    0.0000 O   0  0  0  0  0  0  0  0  0  0  0  0
   -0.7145    2.0625    0.0000 N   0  0  3  0  0  0  0  0  0  0  0  0
    0.7145   -0.4125    0.0000 N   0  0  0  0  0  0  0  0  0  0  0  0
   -0.7145   -0.4125    0.0000 N   0  0  0  0  0  0  0  0  0  0  0  0
   -1.1270    3.3320    0.0000 C   0  0  0  0  0  0  0  0  0  0  0  0
   -1.6119    3.9995    0.0000 C   0  0  0  0  0  0  0  0  0  0  0  0
   -1.3819    2.5474    0.0000 C   0  0  0  0  0  0  0  0  0  0  0  0
   -1.7613    5.4206    0.0000 C   0  0  0  0  0  0  0  0  0  0  0  0
   -2.9173    4.5807    0.0000 C   0  0  0  0  0  0  0  0  0  0  0  0
   -2.4324    3.9132    0.0000 C   0  0  0  0  0  0  0  0  0  0  0  0
   -1.2763    4.7532    0.0000 C   0  0  0  0  0  0  0  0  0  0  0  0
   -0.0000    0.8250    0.0000 C   0  0  0  0  0  0  0  0  0  0  0  0
   -2.5817    5.3344    0.0000 C   0  0  0  0  0  0  0  0  0  0  0  0
   -1.4257    6.1743    0.0000 C   0  0  0  0  0  0  0  0  0  0  0  0
   -3.7378    4.4945    0.0000 C   0  0  0  0  0  0  0  0  0  0  0  0
   -0.7145    1.2375    0.0000 C   0  0  0  0  0  0  0  0  0  0  0  0
   -0.0470    2.5474    0.0000 C   0  0  0  0  0  0  0  0  0  0  0  0
   -0.0000    0.0000    0.0000 C   0  0  0  0  0  0  0  0  0  0  0  0
    1.4289    0.8250    0.0000 C   0  0  0  0  0  0  0  0  0  0  0  0
    0.7145    1.2375    0.0000 C   0  0  0  0  0  0  0  0  0  0  0  0
    2.1434    1.2375    0.0000 C   0  0  0  0  0  0  0  0  0  0  0  0
    1.4289    0.0000    0.0000 C   0  0  0  0  0  0  0  0  0  0  0  0
   -2.1665    2.2925    0.0000 C   0  0  0  0  0  0  0  0  0  0  0  0
   -0.7145   -1.2375    0.0000 C   0  0  3  0  0  0  0  0  0  0  0  0
   -1.3819   -1.7224    0.0000 C   0  0  0  0  0  0  0  0  0  0  0  0
   -0.0470   -1.7224    0.0000 C   0  0  0  0  0  0  0  0  0  0  0  0
   -0.3020   -2.5070    0.0000 C   0  0  0  0  0  0  0  0  0  0  0  0
  1 24  1  0  0  0  0
  2 24  1  0  0  0  0
  3 24  1  0  0  0  0
  4 25  1  0  0  0  0
  5 25  1  0  0  0  0
  6 25  1  0  0  0  0
  7 31  1  0  0  0  0
  8 31  1  0  0  0  0
  9 31  1  0  0  0  0
 10 15  1  0  0  0  0
 10 27  1  0  0  0  0
 11 35  1  0  0  0  0
 11 37  1  0  0  0  0
 12 17  1  0  0  0  0
 12 26  1  0  0  0  0
 12 27  1  0  0  0  0
 13 28  2  0  0  0  0
 13 32  1  0  0  0  0
 14 28  1  0  0  0  0
 14 34  1  0  0  0  0
 15 16  1  6  0  0  0
 15 17  2  0  0  0  0
 16 20  2  0  0  0  0
 16 21  1  0  0  0  0
 17 33  1  6  0  0  0
 18 21  2  0  0  0  0
 18 23  1  0  0  0  0
 18 24  1  0  0  0  0
 19 20  1  0  0  0  0
 19 23  2  0  0  0  0
 19 25  1  0  0  0  0
 22 26  1  0  0  0  0
 22 28  1  0  0  0  0
 22 30  2  0  0  0  0
 29 30  1  0  0  0  0
 29 31  1  0  0  0  0
 29 32  2  0  0  0  0
 34 35  1  0  0  0  0
 34 36  1  0  0  0  0
 36 37  1  0  0  0  0
M  END
> <PUBCHEM_COMPOUND_ID_TYPE>
0

> <PUBCHEM_TOTAL_CHARGE>
0

> <PUBCHEM_SUBSTANCE_ID>
310937526

> <PUBCHEM_SUBSTANCE_VERSION>
1

> <PUBCHEM_EXT_DATASOURCE_NAME>
4488

> <PUBCHEM_EXT_DATASOURCE_REGID>
SCHEMBL16115300

> <PUBCHEM_SUBSTANCE_COMMENT>
InChI=1S/C23H20F9N3O2/c1-12-19(13-4-15(21(24,25)26)7-16(5-13)22(27,28)29)37-11-35(12)9-14-6-17(23(30,31)32)8-33-20(14)34-18-2-3-36-10-18/h4-8,18H,2-3,9-11H2,1H3,(H,33,34)
InChIKey=BCIFAIAZZBLOKQ-UHFFFAOYSA-N

> <PUBCHEM_SUBSTANCE_SYNONYM>
SCHEMBL16115300

> <PUBCHEM_XREF_EXT_ID>
SCHEMBL16115300

> <PUBCHEM_EXT_DATASOURCE_URL>
https://www.surechembl.org/

> <PUBCHEM_EXT_SUBSTANCE_URL>
https://www.surechembl.org/chemical/SCHEMBL16115300

> <PUBCHEM_CID_ASSOCIATIONS>
117605255  1

> <PUBCHEM_COORDINATE_TYPE>
1
3

> <PUBCHEM_BONDANNOTATIONS>
15  16  6
17  33  6

$$$$
