310947616
  -OEChem-07211613022D

 24 23  0     1  0  0  0  0  0999 V2000
    4.2368   -2.1427    0.0000 I   0  0  0  0  0  0  0  0  0  0  0  0
    2.7632    0.9017    0.0000 O   0  0  0  0  0  0  0  0  0  0  0  0
    4.1981    0.9017    0.0000 O   0  0  0  0  0  0  0  0  0  0  0  0
    4.8962   -0.3782    0.0000 O   0  0  0  0  0  0  0  0  0  0  0  0
    3.4419   -0.3393    0.0000 C   0  0  3  0  0  0  0  0  0  0  0  0
    3.4612    0.4944    0.0000 C   0  0  0  0  0  0  0  0  0  0  0  0
    4.1399   -0.7660    0.0000 C   0  0  0  0  0  0  0  0  0  0  0  0
    2.7438   -0.7466    0.0000 C   0  0  0  0  0  0  0  0  0  0  0  0
    2.0263   -0.3393    0.0000 C   0  0  0  0  0  0  0  0  0  0  0  0
    1.3476   -0.7272    0.0000 C   0  0  0  0  0  0  0  0  0  0  0  0
    0.6108   -0.3393    0.0000 C   0  0  0  0  0  0  0  0  0  0  0  0
    2.7438    1.7161    0.0000 C   0  0  0  0  0  0  0  0  0  0  0  0
   -0.0097   -0.7077    0.0000 C   0  0  0  0  0  0  0  0  0  0  0  0
   -1.4252   -0.7077    0.0000 C   0  0  0  0  0  0  0  0  0  0  0  0
   -0.7660   -0.3005    0.0000 C   0  0  0  0  0  0  0  0  0  0  0  0
    1.3283   -1.6773    0.0000 C   0  0  0  0  0  0  0  0  0  0  0  0
   -2.1427   -0.3199    0.0000 C   0  0  0  0  0  0  0  0  0  0  0  0
   -2.8601   -0.7077    0.0000 C   0  0  0  0  0  0  0  0  0  0  0  0
    2.0070    2.1427    0.0000 C   0  0  0  0  0  0  0  0  0  0  0  0
   -3.5970   -0.3199    0.0000 C   0  0  0  0  0  0  0  0  0  0  0  0
   -1.4252   -1.6579    0.0000 C   0  0  0  0  0  0  0  0  0  0  0  0
   -4.1981   -0.7077    0.0000 C   0  0  0  0  0  0  0  0  0  0  0  0
   -4.1981   -1.6385    0.0000 C   0  0  0  0  0  0  0  0  0  0  0  0
   -4.8962   -0.3199    0.0000 C   0  0  0  0  0  0  0  0  0  0  0  0
  1  7  1  0  0  0  0
  2  6  1  0  0  0  0
  2 12  1  0  0  0  0
  3  6  2  0  0  0  0
  4  7  2  0  0  0  0
  5  6  1  0  0  0  0
  5  7  1  0  0  0  0
  5  8  1  0  0  0  0
  8  9  1  0  0  0  0
  9 10  2  0  0  0  0
 10 11  1  0  0  0  0
 10 16  1  0  0  0  0
 11 13  1  0  0  0  0
 12 19  1  0  0  0  0
 13 15  1  0  0  0  0
 14 15  2  0  0  0  0
 14 17  1  0  0  0  0
 14 21  1  0  0  0  0
 17 18  1  0  0  0  0
 18 20  1  0  0  0  0
 20 22  2  0  0  0  0
 22 23  1  0  0  0  0
 22 24  1  0  0  0  0
M  END
> <PUBCHEM_COMPOUND_ID_TYPE>
0

> <PUBCHEM_TOTAL_CHARGE>
0

> <PUBCHEM_SUBSTANCE_ID>
310947616

> <PUBCHEM_SUBSTANCE_VERSION>
1

> <PUBCHEM_EXT_DATASOURCE_NAME>
4488

> <PUBCHEM_EXT_DATASOURCE_REGID>
SCHEMBL16125781

> <PUBCHEM_SUBSTANCE_COMMENT>
InChI=1S/C20H31IO3/c1-6-24-20(23)18(19(21)22)14-13-17(5)12-8-11-16(4)10-7-9-15(2)3/h9,11,13,18H,6-8,10,12,14H2,1-5H3/b16-11+,17-13+
InChIKey=LASCRVCFRZWZKV-IUBLYSDUSA-N

> <PUBCHEM_SUBSTANCE_SYNONYM>
SCHEMBL16125781

> <PUBCHEM_XREF_EXT_ID>
SCHEMBL16125781

> <PUBCHEM_EXT_DATASOURCE_URL>
https://www.surechembl.org/

> <PUBCHEM_EXT_SUBSTANCE_URL>
https://www.surechembl.org/chemical/SCHEMBL16125781

> <PUBCHEM_CID_ASSOCIATIONS>
117613336  1

> <PUBCHEM_COORDINATE_TYPE>
1
3

$$$$
