310947544
  -OEChem-07211613022D

 22 21  0     1  0  0  0  0  0999 V2000
    4.5752   -0.3310    0.0000 P   0  0  0  0  0  0  0  0  0  0  0  0
    4.5752   -0.3310    0.0000 O   0  0  0  0  0  0  0  0  0  0  0  0
    4.5752   -0.3310    0.0000 O   0  0  0  0  0  0  0  0  0  0  0  0
    4.5752   -0.3310    0.0000 O   0  0  0  0  0  0  0  0  0  0  0  0
    3.8838    0.1839    0.0000 C   0  0  3  0  0  0  0  0  0  0  0  0
    3.2071   -0.2427    0.0000 C   0  0  0  0  0  0  0  0  0  0  0  0
    3.9132    0.7135    0.0000 C   0  0  0  0  0  0  0  0  0  0  0  0
    2.5009    0.1839    0.0000 C   0  0  0  0  0  0  0  0  0  0  0  0
    1.7801   -0.2574    0.0000 C   0  0  0  0  0  0  0  0  0  0  0  0
    1.0886    0.1986    0.0000 C   0  0  0  0  0  0  0  0  0  0  0  0
    0.4119   -0.2133    0.0000 C   0  0  0  0  0  0  0  0  0  0  0  0
   -1.0151   -0.2133    0.0000 C   0  0  0  0  0  0  0  0  0  0  0  0
    3.9279    1.1695    0.0000 C   0  0  0  0  0  0  0  0  0  0  0  0
   -0.3531    0.1986    0.0000 C   0  0  0  0  0  0  0  0  0  0  0  0
    1.7801   -1.1695    0.0000 C   0  0  0  0  0  0  0  0  0  0  0  0
   -1.7359    0.2133    0.0000 C   0  0  0  0  0  0  0  0  0  0  0  0
   -2.4421   -0.1986    0.0000 C   0  0  0  0  0  0  0  0  0  0  0  0
   -3.1335    0.2133    0.0000 C   0  0  0  0  0  0  0  0  0  0  0  0
   -1.0592   -1.1548    0.0000 C   0  0  0  0  0  0  0  0  0  0  0  0
   -3.8397   -0.2133    0.0000 C   0  0  0  0  0  0  0  0  0  0  0  0
   -3.8544   -1.1401    0.0000 C   0  0  0  0  0  0  0  0  0  0  0  0
   -4.5752    0.1545    0.0000 C   0  0  0  0  0  0  0  0  0  0  0  0
  1  2  2  0  0  0  0
  1  3  1  0  0  0  0
  1  4  1  0  0  0  0
  1  5  1  0  0  0  0
  5  6  1  0  0  0  0
  5  7  1  0  0  0  0
  6  8  1  0  0  0  0
  7 13  1  0  0  0  0
  8  9  2  0  0  0  0
  9 10  1  0  0  0  0
  9 15  1  0  0  0  0
 10 11  1  0  0  0  0
 11 14  1  0  0  0  0
 12 14  2  0  0  0  0
 12 16  1  0  0  0  0
 12 19  1  0  0  0  0
 16 17  1  0  0  0  0
 17 18  1  0  0  0  0
 18 20  2  0  0  0  0
 20 21  1  0  0  0  0
 20 22  1  0  0  0  0
M  END
> <PUBCHEM_COMPOUND_ID_TYPE>
0

> <PUBCHEM_TOTAL_CHARGE>
0

> <PUBCHEM_SUBSTANCE_ID>
310947544

> <PUBCHEM_SUBSTANCE_VERSION>
1

> <PUBCHEM_EXT_DATASOURCE_NAME>
4488

> <PUBCHEM_EXT_DATASOURCE_REGID>
SCHEMBL16125707

> <PUBCHEM_SUBSTANCE_COMMENT>
InChI=1S/C18H33O3P/c1-6-18(22(19,20)21)14-13-17(5)12-8-11-16(4)10-7-9-15(2)3/h9,11,13,18H,6-8,10,12,14H2,1-5H3,(H2,19,20,21)/b16-11+,17-13+
InChIKey=BCBKAKBFEIYZNK-IUBLYSDUSA-N

> <PUBCHEM_SUBSTANCE_SYNONYM>
SCHEMBL16125707

> <PUBCHEM_XREF_EXT_ID>
SCHEMBL16125707

> <PUBCHEM_EXT_DATASOURCE_URL>
https://www.surechembl.org/

> <PUBCHEM_EXT_SUBSTANCE_URL>
https://www.surechembl.org/chemical/SCHEMBL16125707

> <PUBCHEM_CID_ASSOCIATIONS>
117613266  1

> <PUBCHEM_COORDINATE_TYPE>
1
3

> <PUBCHEM_BONDANNOTATIONS>
7  13  3

$$$$
