310944416
  -OEChem-07211613022D

 21 23  0     1  0  0  0  0  0999 V2000
   -1.5314   -0.5940    0.0000 O   0  0  0  0  0  0  0  0  0  0  0  0
    2.0546    1.4551    0.0000 O   0  0  0  0  0  0  0  0  0  0  0  0
    2.2290   -1.4551    0.0000 O   0  0  0  0  0  0  0  0  0  0  0  0
   -1.5314    0.8339    0.0000 O   0  0  0  0  0  0  0  0  0  0  0  0
   -0.2998    0.1253    0.0000 N   0  0  0  0  0  0  0  0  0  0  0  0
    3.0574    0.3870    0.0000 N   0  0  0  0  0  0  0  0  0  0  0  0
    1.8367   -0.0926    0.0000 C   0  0  0  0  0  0  0  0  0  0  0  0
    0.6049   -0.0599    0.0000 C   0  0  3  0  0  0  0  0  0  0  0  0
    0.4633    0.6158    0.0000 C   0  0  3  0  0  0  0  0  0  0  0  0
    1.2699   -0.6921    0.0000 C   0  0  0  0  0  0  0  0  0  0  0  0
    1.1063   -0.0708    0.0000 C   0  0  0  0  0  0  0  0  0  0  0  0
    2.2290    0.6376    0.0000 C   0  0  0  0  0  0  0  0  0  0  0  0
    2.4361   -0.6594    0.0000 C   0  0  3  0  0  0  0  0  0  0  0  0
   -1.1172    0.1144    0.0000 C   0  0  0  0  0  0  0  0  0  0  0  0
    0.8993    0.8339    0.0000 C   0  0  0  0  0  0  0  0  0  0  0  0
    0.6158    1.3026    0.0000 C   0  0  0  0  0  0  0  0  0  0  0  0
    3.0356   -0.3543    0.0000 C   0  0  0  0  0  0  0  0  0  0  0  0
   -2.3490   -0.5831    0.0000 C   0  0  0  0  0  0  0  0  0  0  0  0
   -3.0574   -0.9973    0.0000 C   0  0  0  0  0  0  0  0  0  0  0  0
   -2.3381   -1.4225    0.0000 C   0  0  0  0  0  0  0  0  0  0  0  0
   -2.5669    0.2125    0.0000 C   0  0  0  0  0  0  0  0  0  0  0  0
  1 14  1  0  0  0  0
  1 18  1  0  0  0  0
  2 12  2  0  0  0  0
  3 13  1  0  0  0  0
  4 14  2  0  0  0  0
  5  8  1  0  0  0  0
  5  9  1  0  0  0  0
  5 14  1  0  0  0  0
  6 12  1  0  0  0  0
  6 17  1  0  0  0  0
  7 10  1  0  0  0  0
  7 11  1  0  0  0  0
  7 12  1  0  0  0  0
  7 13  1  0  0  0  0
  8 10  1  0  0  0  0
  8 15  1  0  0  0  0
  9 11  1  0  0  0  0
  9 16  1  0  0  0  0
 13 17  1  0  0  0  0
 15 16  1  0  0  0  0
 18 19  1  0  0  0  0
 18 20  1  0  0  0  0
 18 21  1  0  0  0  0
M  END
> <PUBCHEM_COMPOUND_ID_TYPE>
0

> <PUBCHEM_TOTAL_CHARGE>
0

> <PUBCHEM_SUBSTANCE_ID>
310944416

> <PUBCHEM_SUBSTANCE_VERSION>
1

> <PUBCHEM_EXT_DATASOURCE_NAME>
4488

> <PUBCHEM_EXT_DATASOURCE_REGID>
SCHEMBL16122491

> <PUBCHEM_SUBSTANCE_COMMENT>
InChI=1S/C15H24N2O4/c1-14(2,3)21-13(20)17-9-4-5-10(17)7-15(6-9)11(18)8-16-12(15)19/h9-11,18H,4-8H2,1-3H3,(H,16,19)
InChIKey=RDRUQUGJNWWZIG-UHFFFAOYSA-N

> <PUBCHEM_SUBSTANCE_SYNONYM>
SCHEMBL16122491

> <PUBCHEM_XREF_EXT_ID>
SCHEMBL16122491

> <PUBCHEM_EXT_DATASOURCE_URL>
https://www.surechembl.org/

> <PUBCHEM_EXT_SUBSTANCE_URL>
https://www.surechembl.org/chemical/SCHEMBL16122491

> <PUBCHEM_CID_ASSOCIATIONS>
117610672  1

> <PUBCHEM_COORDINATE_TYPE>
1
3

$$$$
