310936568
  -OEChem-07211613022D

 27 30  0     1  0  0  0  0  0999 V2000
    1.6700   -2.1594    0.0000 P   0  0  3  0  0  0  0  0  0  0  0  0
    0.8350   -3.5991    0.0000 P   0  0  3  0  0  0  0  0  0  0  0  0
    1.2381   -2.8793    0.0000 C   0  0  0  0  0  0  0  0  0  0  0  0
    1.6700   -3.5991    0.0000 C   0  0  3  0  0  0  0  0  0  0  0  0
    2.4762   -3.5991    0.0000 C   0  0  0  0  0  0  0  0  0  0  0  0
    0.4319   -2.8793    0.0000 C   0  0  0  0  0  0  0  0  0  0  0  0
    1.2381   -4.2901    0.0000 C   0  0  0  0  0  0  0  0  0  0  0  0
    2.8793   -4.2901    0.0000 C   0  0  0  0  0  0  0  0  0  0  0  0
    1.2381   -1.4396    0.0000 C   0  0  0  0  0  0  0  0  0  0  0  0
    1.4108   -4.4628    0.0000 C   0  0  0  0  0  0  0  0  0  0  0  0
    0.0000   -3.5991    0.0000 C   0  0  0  0  0  0  0  0  0  0  0  0
    2.8793   -2.8793    0.0000 C   0  0  0  0  0  0  0  0  0  0  0  0
    0.4031   -4.2901    0.0000 C   0  0  0  0  0  0  0  0  0  0  0  0
    3.6855   -4.2901    0.0000 C   0  0  0  0  0  0  0  0  0  0  0  0
    3.6855   -2.8793    0.0000 C   0  0  0  0  0  0  0  0  0  0  0  0
    0.4031   -1.4396    0.0000 C   0  0  0  0  0  0  0  0  0  0  0  0
    1.6412   -0.7198    0.0000 C   0  0  0  0  0  0  0  0  0  0  0  0
    2.0731   -4.3189    0.0000 C   0  0  0  0  0  0  0  0  0  0  0  0
    0.8638   -5.0387    0.0000 C   0  0  0  0  0  0  0  0  0  0  0  0
    4.1173   -3.5991    0.0000 C   0  0  0  0  0  0  0  0  0  0  0  0
    2.6201   -5.1827    0.0000 C   0  0  0  0  0  0  0  0  0  0  0  0
    0.0000   -0.7198    0.0000 C   0  0  0  0  0  0  0  0  0  0  0  0
    1.2381   -0.0288    0.0000 C   0  0  0  0  0  0  0  0  0  0  0  0
    2.4762   -5.0387    0.0000 C   0  0  0  0  0  0  0  0  0  0  0  0
    1.2669   -5.7297    0.0000 C   0  0  0  0  0  0  0  0  0  0  0  0
    0.4031    0.0000    0.0000 C   0  0  0  0  0  0  0  0  0  0  0  0
    2.0731   -5.7585    0.0000 C   0  0  0  0  0  0  0  0  0  0  0  0
  1  3  1  0  0  0  0
  1  9  1  0  0  0  0
  2  3  1  0  0  0  0
  2 10  1  0  0  0  0
  3  4  1  0  0  0  0
  3  6  1  0  0  0  0
  4  5  1  0  0  0  0
  4  7  1  0  0  0  0
  5  8  2  0  0  0  0
  5 12  1  0  0  0  0
  6 11  2  0  0  0  0
  7 13  2  0  0  0  0
  8 14  1  0  0  0  0
  8 21  1  0  0  0  0
  9 16  1  0  0  0  0
  9 17  1  0  0  0  0
 10 18  1  0  0  0  0
 10 19  1  0  0  0  0
 11 13  1  0  0  0  0
 12 15  2  0  0  0  0
 14 20  2  0  0  0  0
 15 20  1  0  0  0  0
 16 22  1  0  0  0  0
 17 23  1  0  0  0  0
 18 24  1  0  0  0  0
 19 25  1  0  0  0  0
 22 26  1  0  0  0  0
 23 26  1  0  0  0  0
 24 27  1  0  0  0  0
 25 27  1  0  0  0  0
M  END
> <PUBCHEM_COMPOUND_ID_TYPE>
0

> <PUBCHEM_TOTAL_CHARGE>
0

> <PUBCHEM_SUBSTANCE_ID>
310936568

> <PUBCHEM_SUBSTANCE_VERSION>
1

> <PUBCHEM_EXT_DATASOURCE_NAME>
4488

> <PUBCHEM_EXT_DATASOURCE_REGID>
SCHEMBL16114224

> <PUBCHEM_SUBSTANCE_COMMENT>
InChI=1S/C25H36P2/c1-20-12-8-9-17-23(20)24-18-10-11-19-25(24,26-21-13-4-2-5-14-21)27-22-15-6-3-7-16-22/h8-12,17-19,21-22,24,26-27H,2-7,13-16H2,1H3
InChIKey=XCVIZLGUOZOSIK-UHFFFAOYSA-N

> <PUBCHEM_SUBSTANCE_SYNONYM>
SCHEMBL16114224

> <PUBCHEM_XREF_EXT_ID>
SCHEMBL16114224

> <PUBCHEM_EXT_DATASOURCE_URL>
https://www.surechembl.org/

> <PUBCHEM_EXT_SUBSTANCE_URL>
https://www.surechembl.org/chemical/SCHEMBL16114224

> <PUBCHEM_CID_ASSOCIATIONS>
117604488  1

> <PUBCHEM_COORDINATE_TYPE>
1
3

$$$$
