310941376
  -OEChem-07211613022D

 24 26  0     1  0  0  0  0  0999 V2000
   -4.1225   -1.4392    0.0000 Br  0  0  0  0  0  0  0  0  0  0  0  0
   -0.9295    0.2099    0.0000 S   0  0  0  0  0  0  0  0  0  0  0  0
   -1.3342    0.9295    0.0000 O   0  0  0  0  0  0  0  0  0  0  0  0
   -0.5097    0.9295    0.0000 O   0  0  0  0  0  0  0  0  0  0  0  0
    1.9638    1.0344    0.0000 O   0  0  0  0  0  0  0  0  0  0  0  0
    3.4029   -1.4392    0.0000 O   0  0  0  0  0  0  0  0  0  0  0  0
   -0.2099   -0.1949    0.0000 N   0  0  3  0  0  0  0  0  0  0  0  0
   -1.6340   -0.1949    0.0000 C   0  0  0  0  0  0  0  0  0  0  0  0
   -1.6490   -1.0044    0.0000 C   0  0  0  0  0  0  0  0  0  0  0  0
   -0.2099   -1.0344    0.0000 C   0  0  0  0  0  0  0  0  0  0  0  0
    0.5097    0.2099    0.0000 C   0  0  0  0  0  0  0  0  0  0  0  0
   -0.9145   -1.4241    0.0000 C   0  0  0  0  0  0  0  0  0  0  0  0
   -2.3686    0.2099    0.0000 C   0  0  0  0  0  0  0  0  0  0  0  0
    1.2592   -0.1949    0.0000 C   0  0  0  0  0  0  0  0  0  0  0  0
   -2.3386   -1.4241    0.0000 C   0  0  0  0  0  0  0  0  0  0  0  0
   -3.0881   -1.0194    0.0000 C   0  0  0  0  0  0  0  0  0  0  0  0
    1.9788    0.2099    0.0000 C   0  0  0  0  0  0  0  0  0  0  0  0
   -3.0582   -0.1949    0.0000 C   0  0  0  0  0  0  0  0  0  0  0  0
    1.2592   -1.0344    0.0000 C   0  0  0  0  0  0  0  0  0  0  0  0
    2.6833   -0.1949    0.0000 C   0  0  0  0  0  0  0  0  0  0  0  0
    2.6833   -1.0044    0.0000 C   0  0  0  0  0  0  0  0  0  0  0  0
    1.9937   -1.4241    0.0000 C   0  0  0  0  0  0  0  0  0  0  0  0
    2.6684    1.4392    0.0000 C   0  0  0  0  0  0  0  0  0  0  0  0
    4.1225   -1.0494    0.0000 C   0  0  0  0  0  0  0  0  0  0  0  0
  1 16  1  0  0  0  0
  2  3  2  0  0  0  0
  2  4  2  0  0  0  0
  2  7  1  0  0  0  0
  2  8  1  0  0  0  0
  5 17  1  0  0  0  0
  5 23  1  0  0  0  0
  6 21  1  0  0  0  0
  6 24  1  0  0  0  0
  7 10  1  0  0  0  0
  7 11  1  0  0  0  0
  8  9  1  0  0  0  0
  8 13  2  0  0  0  0
  9 12  1  0  0  0  0
  9 15  2  0  0  0  0
 10 12  1  0  0  0  0
 11 14  1  0  0  0  0
 13 18  1  0  0  0  0
 14 17  1  0  0  0  0
 14 19  2  0  0  0  0
 15 16  1  0  0  0  0
 16 18  2  0  0  0  0
 17 20  2  0  0  0  0
 19 22  1  0  0  0  0
 20 21  1  0  0  0  0
 21 22  2  0  0  0  0
M  END
> <PUBCHEM_COMPOUND_ID_TYPE>
0

> <PUBCHEM_TOTAL_CHARGE>
0

> <PUBCHEM_SUBSTANCE_ID>
310941376

> <PUBCHEM_SUBSTANCE_VERSION>
1

> <PUBCHEM_EXT_DATASOURCE_NAME>
4488

> <PUBCHEM_EXT_DATASOURCE_REGID>
SCHEMBL16119336

> <PUBCHEM_SUBSTANCE_COMMENT>
InChI=1S/C17H18BrNO4S/c1-22-15-5-3-13(16(10-15)23-2)11-19-8-7-12-9-14(18)4-6-17(12)24(19,20)21/h3-6,9-10H,7-8,11H2,1-2H3
InChIKey=PRDUBWYXIHZFTD-UHFFFAOYSA-N

> <PUBCHEM_SUBSTANCE_SYNONYM>
SCHEMBL16119336

> <PUBCHEM_XREF_EXT_ID>
SCHEMBL16119336

> <PUBCHEM_EXT_DATASOURCE_URL>
https://www.surechembl.org/

> <PUBCHEM_EXT_SUBSTANCE_URL>
https://www.surechembl.org/chemical/SCHEMBL16119336

> <PUBCHEM_CID_ASSOCIATIONS>
117608217  1

> <PUBCHEM_COORDINATE_TYPE>
1
3

$$$$
