310934968
  -OEChem-07211613022D

 18 19  0     1  0  0  0  0  0999 V2000
    4.3377   -0.6506    0.0000 F   0  0  0  0  0  0  0  0  0  0  0  0
    3.1603   -1.4872    0.0000 O   0  0  0  0  0  0  0  0  0  0  0  0
    3.1603   -2.9280    0.0000 O   0  0  0  0  0  0  0  0  0  0  0  0
    0.0000   -3.0983    0.0000 O   0  0  0  0  0  0  0  0  0  0  0  0
    1.9209   -2.1998    0.0000 C   0  0  3  0  0  0  0  0  0  0  0  0
    2.3083   -1.4717    0.0000 C   0  0  0  0  0  0  0  0  0  0  0  0
    2.7575   -2.1998    0.0000 C   0  0  0  0  0  0  0  0  0  0  0  0
    1.4562   -2.8814    0.0000 C   0  0  0  0  0  0  0  0  0  0  0  0
    1.4562   -1.5337    0.0000 C   0  0  0  0  0  0  0  0  0  0  0  0
    3.2997   -1.5956    0.0000 C   0  0  0  0  0  0  0  0  0  0  0  0
    0.6661   -2.6181    0.0000 C   0  0  3  0  0  0  0  0  0  0  0  0
    1.8590   -0.7591    0.0000 C   0  0  0  0  0  0  0  0  0  0  0  0
    0.6661   -1.7970    0.0000 C   0  0  0  0  0  0  0  0  0  0  0  0
    3.5011   -0.6971    0.0000 C   0  0  0  0  0  0  0  0  0  0  0  0
    2.2308   -0.0310    0.0000 C   0  0  0  0  0  0  0  0  0  0  0  0
    3.0673    0.0000    0.0000 C   0  0  0  0  0  0  0  0  0  0  0  0
    3.5786   -2.1069    0.0000 C   0  0  0  0  0  0  0  0  0  0  0  0
    3.9814   -1.4872    0.0000 C   0  0  0  0  0  0  0  0  0  0  0  0
  1 14  1  0  0  0  0
  2  7  1  0  0  0  0
  2 18  1  0  0  0  0
  3  7  2  0  0  0  0
  4 11  1  0  0  0  0
  5  6  1  0  0  0  0
  5  7  1  0  0  0  0
  5  8  1  0  0  0  0
  5  9  1  0  0  0  0
  6 10  1  0  0  0  0
  6 12  2  0  0  0  0
  8 11  1  0  0  0  0
  9 13  1  0  0  0  0
 10 14  2  0  0  0  0
 10 17  1  0  0  0  0
 11 13  1  0  0  0  0
 12 15  1  0  0  0  0
 14 16  1  0  0  0  0
 15 16  2  0  0  0  0
M  END
> <PUBCHEM_COMPOUND_ID_TYPE>
0

> <PUBCHEM_TOTAL_CHARGE>
0

> <PUBCHEM_SUBSTANCE_ID>
310934968

> <PUBCHEM_SUBSTANCE_VERSION>
1

> <PUBCHEM_EXT_DATASOURCE_NAME>
4488

> <PUBCHEM_EXT_DATASOURCE_REGID>
SCHEMBL16112484

> <PUBCHEM_SUBSTANCE_COMMENT>
InChI=1S/C14H17FO3/c1-9-11(4-3-5-12(9)15)14(13(17)18-2)7-6-10(16)8-14/h3-5,10,16H,6-8H2,1-2H3
InChIKey=NTLMCCPQECFZMX-UHFFFAOYSA-N

> <PUBCHEM_SUBSTANCE_SYNONYM>
SCHEMBL16112484

> <PUBCHEM_XREF_EXT_ID>
SCHEMBL16112484

> <PUBCHEM_EXT_DATASOURCE_URL>
https://www.surechembl.org/

> <PUBCHEM_EXT_SUBSTANCE_URL>
https://www.surechembl.org/chemical/SCHEMBL16112484

> <PUBCHEM_CID_ASSOCIATIONS>
117603087  1

> <PUBCHEM_COORDINATE_TYPE>
1
3

$$$$
