310934120
  -OEChem-07211613022D

 46 51  0     1  0  0  0  0  0999 V2000
    0.0000   -4.4344    0.0000 Cl  0  0  0  0  0  0  0  0  0  0  0  0
    1.4281   -3.6453    0.0000 F   0  0  0  0  0  0  0  0  0  0  0  0
    4.9606   -5.7121    0.0000 O   0  0  0  0  0  0  0  0  0  0  0  0
    4.2465   -3.6453    0.0000 O   0  0  0  0  0  0  0  0  0  0  0  0
   10.5600   -4.9606    0.0000 O   0  0  0  0  0  0  0  0  0  0  0  0
    7.8166    0.0000    0.0000 O   0  0  0  0  0  0  0  0  0  0  0  0
    8.4930   -1.2402    0.0000 O   0  0  0  0  0  0  0  0  0  0  0  0
    5.6370   -4.4720    0.0000 N   0  0  0  0  0  0  0  0  0  0  0  0
    4.2465   -4.4720    0.0000 N   0  0  0  0  0  0  0  0  0  0  0  0
    8.4930   -3.7204    0.0000 N   0  0  0  0  0  0  0  0  0  0  0  0
    4.9606   -2.4427    0.0000 N   0  0  0  0  0  0  0  0  0  0  0  0
    5.6746   -3.6453    0.0000 C   0  0  3  0  0  0  0  0  0  0  0  0
    6.3886   -3.2694    0.0000 C   0  0  0  0  0  0  0  0  0  0  0  0
    7.0650   -3.6829    0.0000 C   0  0  0  0  0  0  0  0  0  0  0  0
    7.7791   -3.3070    0.0000 C   0  0  0  0  0  0  0  0  0  0  0  0
    4.9606   -4.8854    0.0000 C   0  0  0  0  0  0  0  0  0  0  0  0
    4.9606   -3.2694    0.0000 C   0  0  0  0  0  0  0  0  0  0  0  0
    7.0650   -4.5096    0.0000 C   0  0  0  0  0  0  0  0  0  0  0  0
    6.3510   -4.8854    0.0000 C   0  0  0  0  0  0  0  0  0  0  0  0
    6.5389   -2.6306    0.0000 C   0  0  0  0  0  0  0  0  0  0  0  0
    7.7791   -2.4802    0.0000 C   0  0  0  0  0  0  0  0  0  0  0  0
    7.2530   -2.2172    0.0000 C   0  0  0  0  0  0  0  0  0  0  0  0
    3.5325   -4.8854    0.0000 C   0  0  0  0  0  0  0  0  0  0  0  0
    2.8561   -4.4720    0.0000 C   0  0  3  0  0  0  0  0  0  0  0  0
    2.1420   -4.8854    0.0000 C   0  0  0  0  0  0  0  0  0  0  0  0
    4.4344   -3.8332    0.0000 C   0  0  0  0  0  0  0  0  0  0  0  0
    9.2071   -3.3070    0.0000 C   0  0  0  0  0  0  0  0  0  0  0  0
    8.4555   -4.5096    0.0000 C   0  0  0  0  0  0  0  0  0  0  0  0
    5.6746   -2.0293    0.0000 C   0  0  0  0  0  0  0  0  0  0  0  0
    2.8561   -3.6453    0.0000 C   0  0  0  0  0  0  0  0  0  0  0  0
    1.4281   -4.4720    0.0000 C   0  0  0  0  0  0  0  0  0  0  0  0
    3.5325   -3.2694    0.0000 C   0  0  0  0  0  0  0  0  0  0  0  0
    9.8835   -3.7204    0.0000 C   0  0  0  0  0  0  0  0  0  0  0  0
    9.1695   -4.9230    0.0000 C   0  0  0  0  0  0  0  0  0  0  0  0
    9.8835   -4.5472    0.0000 C   0  0  0  0  0  0  0  0  0  0  0  0
    2.1045   -5.7121    0.0000 C   0  0  0  0  0  0  0  0  0  0  0  0
    0.7140   -4.8478    0.0000 C   0  0  0  0  0  0  0  0  0  0  0  0
    5.6746   -1.2402    0.0000 C   0  0  0  0  0  0  0  0  0  0  0  0
    6.3886   -2.4427    0.0000 C   0  0  0  0  0  0  0  0  0  0  0  0
    1.3905   -6.0880    0.0000 C   0  0  0  0  0  0  0  0  0  0  0  0
    0.6764   -5.6746    0.0000 C   0  0  0  0  0  0  0  0  0  0  0  0
    7.1026   -1.2402    0.0000 C   0  0  0  0  0  0  0  0  0  0  0  0
    6.3886   -0.8267    0.0000 C   0  0  0  0  0  0  0  0  0  0  0  0
    7.1026   -2.0293    0.0000 C   0  0  0  0  0  0  0  0  0  0  0  0
    7.8166   -0.8267    0.0000 C   0  0  0  0  0  0  0  0  0  0  0  0
   11.2740   -4.5472    0.0000 C   0  0  0  0  0  0  0  0  0  0  0  0
  1 37  1  0  0  0  0
  2 31  1  0  0  0  0
  3 16  2  0  0  0  0
  4 17  2  0  0  0  0
  5 35  1  0  0  0  0
  5 46  1  0  0  0  0
  6 45  2  0  0  0  0
  7 45  1  0  0  0  0
  8 12  1  0  0  0  0
  8 16  1  0  0  0  0
  8 19  1  0  0  0  0
  9 16  1  0  0  0  0
  9 23  1  0  0  0  0
  9 26  1  0  0  0  0
 10 15  1  0  0  0  0
 10 27  1  0  0  0  0
 10 28  1  0  0  0  0
 11 17  1  0  0  0  0
 11 29  1  0  0  0  0
 12 13  1  0  0  0  0
 12 17  1  0  0  0  0
 13 14  2  0  0  0  0
 13 20  1  0  0  0  0
 14 15  1  0  0  0  0
 14 18  1  0  0  0  0
 15 21  2  0  0  0  0
 18 19  1  0  0  0  0
 20 22  2  0  0  0  0
 21 22  1  0  0  0  0
 23 24  1  0  0  0  0
 24 25  1  0  0  0  0
 24 30  1  0  0  0  0
 25 31  1  0  0  0  0
 25 36  2  0  0  0  0
 26 32  1  0  0  0  0
 27 33  1  0  0  0  0
 28 34  1  0  0  0  0
 29 38  2  0  0  0  0
 29 39  1  0  0  0  0
 30 32  1  0  0  0  0
 31 37  2  0  0  0  0
 33 35  1  0  0  0  0
 34 35  1  0  0  0  0
 36 40  1  0  0  0  0
 37 41  1  0  0  0  0
 38 43  1  0  0  0  0
 39 44  2  0  0  0  0
 40 41  2  0  0  0  0
 42 43  2  0  0  0  0
 42 44  1  0  0  0  0
 42 45  1  0  0  0  0
M  END
> <PUBCHEM_COMPOUND_ID_TYPE>
0

> <PUBCHEM_TOTAL_CHARGE>
0

> <PUBCHEM_SUBSTANCE_ID>
310934120

> <PUBCHEM_SUBSTANCE_VERSION>
1

> <PUBCHEM_EXT_DATASOURCE_NAME>
4488

> <PUBCHEM_EXT_DATASOURCE_REGID>
SCHEMBL16111566

> <PUBCHEM_SUBSTANCE_COMMENT>
InChI=1S/C35H38ClFN4O5/c1-46-25-14-18-39(19-15-25)30-9-3-7-28-27(30)16-20-41(32(28)33(42)38-24-12-10-22(11-13-24)34(43)44)35(45)40-17-4-5-23(21-40)26-6-2-8-29(36)31(26)37/h2-3,6-13,23,25,32H,4-5,14-21H2,1H3,(H,38,42)(H,43,44)
InChIKey=WOQGMIQXURLHGQ-UHFFFAOYSA-N

> <PUBCHEM_SUBSTANCE_SYNONYM>
SCHEMBL16111566

> <PUBCHEM_XREF_EXT_ID>
SCHEMBL16111566

> <PUBCHEM_EXT_DATASOURCE_URL>
https://www.surechembl.org/

> <PUBCHEM_EXT_SUBSTANCE_URL>
https://www.surechembl.org/chemical/SCHEMBL16111566

> <PUBCHEM_CID_ASSOCIATIONS>
117602397  1

> <PUBCHEM_COORDINATE_TYPE>
1
3

$$$$
