310946009
  -OEChem-07211613022D

 30 32  0     1  0  0  0  0  0999 V2000
    4.0112   -1.6696    0.0000 O   0  0  0  0  0  0  0  0  0  0  0  0
    1.7389   -1.6696    0.0000 O   0  0  0  0  0  0  0  0  0  0  0  0
    1.0184   -1.2539    0.0000 O   0  0  0  0  0  0  0  0  0  0  0  0
   -1.1431    0.8106    0.0000 O   0  0  0  0  0  0  0  0  0  0  0  0
   -0.4226    1.2262    0.0000 O   0  0  0  0  0  0  0  0  0  0  0  0
   -4.0112   -0.0208    0.0000 O   0  0  0  0  0  0  0  0  0  0  0  0
    1.7527   -0.0069    0.0000 N   0  0  0  0  0  0  0  0  0  0  0  0
   -0.4087   -0.4226    0.0000 N   0  0  0  0  0  0  0  0  0  0  0  0
   -2.5702   -0.0069    0.0000 N   0  0  0  0  0  0  0  0  0  0  0  0
    3.2076   -1.6419    0.0000 C   0  0  3  0  0  0  0  0  0  0  0  0
    2.4733   -1.2262    0.0000 C   0  0  0  0  0  0  0  0  0  0  0  0
    3.5955   -0.9491    0.0000 C   0  0  0  0  0  0  0  0  0  0  0  0
    2.4733   -0.3948    0.0000 C   0  0  3  0  0  0  0  0  0  0  0  0
    3.1938   -2.4871    0.0000 C   0  0  0  0  0  0  0  0  0  0  0  0
    3.1938    0.0208    0.0000 C   0  0  0  0  0  0  0  0  0  0  0  0
    1.0322   -0.3811    0.0000 C   0  0  0  0  0  0  0  0  0  0  0  0
    0.3118    0.0208    0.0000 C   0  0  3  0  0  0  0  0  0  0  0  0
    3.2076    0.8521    0.0000 C   0  0  0  0  0  0  0  0  0  0  0  0
   -1.1431   -0.0069    0.0000 C   0  0  0  0  0  0  0  0  0  0  0  0
   -1.8359   -0.3948    0.0000 C   0  0  0  0  0  0  0  0  0  0  0  0
    0.3118    0.8244    0.0000 C   0  0  0  0  0  0  0  0  0  0  0  0
    3.9142    1.2539    0.0000 C   0  0  0  0  0  0  0  0  0  0  0  0
    2.4871    1.2539    0.0000 C   0  0  0  0  0  0  0  0  0  0  0  0
   -1.8497   -1.2262    0.0000 C   0  0  0  0  0  0  0  0  0  0  0  0
   -3.2768   -0.4087    0.0000 C   0  0  0  0  0  0  0  0  0  0  0  0
   -2.5564   -1.6419    0.0000 C   0  0  0  0  0  0  0  0  0  0  0  0
   -3.2907   -1.2262    0.0000 C   0  0  0  0  0  0  0  0  0  0  0  0
    3.9142    2.0714    0.0000 C   0  0  0  0  0  0  0  0  0  0  0  0
    2.4871    2.0853    0.0000 C   0  0  0  0  0  0  0  0  0  0  0  0
    3.1799    2.4871    0.0000 C   0  0  0  0  0  0  0  0  0  0  0  0
  1 10  1  0  0  0  0
  1 12  1  0  0  0  0
  2 11  2  0  0  0  0
  3 16  2  0  0  0  0
  4 19  2  0  0  0  0
  5 21  1  0  0  0  0
  6 25  2  0  0  0  0
  7 13  1  0  0  0  0
  7 16  1  0  0  0  0
  8 17  1  0  0  0  0
  8 19  1  0  0  0  0
  9 20  1  0  0  0  0
  9 25  1  0  0  0  0
 10 11  1  0  0  0  0
 10 12  1  0  0  0  0
 10 14  1  0  0  0  0
 11 13  1  0  0  0  0
 13 15  1  0  0  0  0
 15 18  1  0  0  0  0
 16 17  1  0  0  0  0
 17 21  1  0  0  0  0
 18 22  2  0  0  0  0
 18 23  1  0  0  0  0
 19 20  1  0  0  0  0
 20 24  2  0  0  0  0
 22 28  1  0  0  0  0
 23 29  2  0  0  0  0
 24 26  1  0  0  0  0
 25 27  1  0  0  0  0
 26 27  2  0  0  0  0
 28 30  2  0  0  0  0
 29 30  1  0  0  0  0
M  END
> <PUBCHEM_COMPOUND_ID_TYPE>
0

> <PUBCHEM_TOTAL_CHARGE>
0

> <PUBCHEM_SUBSTANCE_ID>
310946009

> <PUBCHEM_SUBSTANCE_VERSION>
1

> <PUBCHEM_EXT_DATASOURCE_NAME>
4488

> <PUBCHEM_EXT_DATASOURCE_REGID>
SCHEMBL16124115

> <PUBCHEM_SUBSTANCE_COMMENT>
InChI=1S/C21H23N3O6/c1-21(12-30-21)18(27)15(10-13-6-3-2-4-7-13)23-20(29)16(11-25)24-19(28)14-8-5-9-17(26)22-14/h2-9,15-16,25H,10-12H2,1H3,(H,22,26)(H,23,29)(H,24,28)
InChIKey=QYDASSGXBXGRBS-UHFFFAOYSA-N

> <PUBCHEM_SUBSTANCE_SYNONYM>
SCHEMBL16124115

> <PUBCHEM_XREF_EXT_ID>
SCHEMBL16124115

> <PUBCHEM_EXT_DATASOURCE_URL>
https://www.surechembl.org/

> <PUBCHEM_EXT_SUBSTANCE_URL>
https://www.surechembl.org/chemical/SCHEMBL16124115

> <PUBCHEM_CID_ASSOCIATIONS>
117611980  1

> <PUBCHEM_COORDINATE_TYPE>
1
3

$$$$
