310940584
  -OEChem-07211613022D

 29 33  0     1  0  0  0  0  0999 V2000
    2.7367    0.3194    0.0000 O   0  0  0  0  0  0  0  0  0  0  0  0
   -1.4591    0.1452    0.0000 O   0  0  0  0  0  0  0  0  0  0  0  0
    2.7802    1.8002    0.0000 O   0  0  0  0  0  0  0  0  0  0  0  0
   -2.7802   -1.7712    0.0000 O   0  0  0  0  0  0  0  0  0  0  0  0
   -0.5155    1.5390    0.0000 O   0  0  0  0  0  0  0  0  0  0  0  0
    1.5753    0.9436    0.0000 N   0  0  0  0  0  0  0  0  0  0  0  0
    1.4446   -1.5099    0.0000 N   0  0  0  0  0  0  0  0  0  0  0  0
   -2.3738   -2.4827    0.0000 N   0  0  0  0  0  0  0  0  0  0  0  0
    1.4010    0.2323    0.0000 C   0  0  0  0  0  0  0  0  0  0  0  0
    0.7041   -0.1742    0.0000 C   0  0  0  0  0  0  0  0  0  0  0  0
    2.1414   -0.1597    0.0000 C   0  0  0  0  0  0  0  0  0  0  0  0
    0.6896   -0.9872    0.0000 C   0  0  0  0  0  0  0  0  0  0  0  0
   -0.7331   -1.0017    0.0000 C   0  0  0  0  0  0  0  0  0  0  0  0
    2.3738    1.1179    0.0000 C   0  0  0  0  0  0  0  0  0  0  0  0
   -0.7186   -0.1888    0.0000 C   0  0  0  0  0  0  0  0  0  0  0  0
   -0.0218    0.2178    0.0000 C   0  0  0  0  0  0  0  0  0  0  0  0
   -0.0218   -1.4083    0.0000 C   0  0  0  0  0  0  0  0  0  0  0  0
    0.8783    1.5099    0.0000 C   0  0  3  0  0  0  0  0  0  0  0  0
   -1.4591   -1.4228    0.0000 C   0  0  0  0  0  0  0  0  0  0  0  0
    2.1269   -1.0017    0.0000 C   0  0  0  0  0  0  0  0  0  0  0  0
   -2.2140   -1.0744    0.0000 C   0  0  0  0  0  0  0  0  0  0  0  0
   -1.5462   -2.2358    0.0000 C   0  0  0  0  0  0  0  0  0  0  0  0
    0.1670    1.1614    0.0000 C   0  0  0  0  0  0  0  0  0  0  0  0
    0.9509    2.3229    0.0000 C   0  0  0  0  0  0  0  0  0  0  0  0
    0.2686    2.7875    0.0000 C   0  0  0  0  0  0  0  0  0  0  0  0
   -2.3738   -0.2613    0.0000 C   0  0  0  0  0  0  0  0  0  0  0  0
   -0.9219   -2.7875    0.0000 C   0  0  0  0  0  0  0  0  0  0  0  0
   -0.4574    2.4390    0.0000 C   0  0  0  0  0  0  0  0  0  0  0  0
   -1.4591    1.0598    0.0000 C   0  0  0  0  0  0  0  0  0  0  0  0
  1 11  1  0  0  0  0
  1 14  1  0  0  0  0
  2 15  1  0  0  0  0
  2 29  1  0  0  0  0
  3 14  2  0  0  0  0
  4  8  1  0  0  0  0
  4 21  1  0  0  0  0
  5 23  1  0  0  0  0
  5 28  1  0  0  0  0
  6  9  1  0  0  0  0
  6 14  1  0  0  0  0
  6 18  1  0  0  0  0
  7 12  1  0  0  0  0
  7 20  2  0  0  0  0
  8 22  2  0  0  0  0
  9 10  1  0  0  0  0
  9 11  2  0  0  0  0
 10 12  1  0  0  0  0
 10 16  2  0  0  0  0
 11 20  1  0  0  0  0
 12 17  2  0  0  0  0
 13 15  2  0  0  0  0
 13 17  1  0  0  0  0
 13 19  1  0  0  0  0
 15 16  1  0  0  0  0
 18 23  1  0  0  0  0
 18 24  1  0  0  0  0
 19 21  2  0  0  0  0
 19 22  1  0  0  0  0
 21 26  1  0  0  0  0
 22 27  1  0  0  0  0
 24 25  1  0  0  0  0
 25 28  1  0  0  0  0
M  END
> <PUBCHEM_COMPOUND_ID_TYPE>
0

> <PUBCHEM_TOTAL_CHARGE>
0

> <PUBCHEM_SUBSTANCE_ID>
310940584

> <PUBCHEM_SUBSTANCE_VERSION>
1

> <PUBCHEM_EXT_DATASOURCE_NAME>
4488

> <PUBCHEM_EXT_DATASOURCE_REGID>
SCHEMBL16118538

> <PUBCHEM_SUBSTANCE_COMMENT>
InChI=1S/C21H21N3O5/c1-11-19(12(2)29-23-11)15-7-16-14(8-17(15)26-3)20-18(9-22-16)28-21(25)24(20)13-5-4-6-27-10-13/h7-9,13H,4-6,10H2,1-3H3
InChIKey=PQQRKQFCRJCBHS-UHFFFAOYSA-N

> <PUBCHEM_SUBSTANCE_SYNONYM>
SCHEMBL16118538

> <PUBCHEM_XREF_EXT_ID>
SCHEMBL16118538

> <PUBCHEM_EXT_DATASOURCE_URL>
https://www.surechembl.org/

> <PUBCHEM_EXT_SUBSTANCE_URL>
https://www.surechembl.org/chemical/SCHEMBL16118538

> <PUBCHEM_CID_ASSOCIATIONS>
86305174  1

> <PUBCHEM_COORDINATE_TYPE>
1
3

$$$$
