310943782
  -OEChem-07211613022D

 23 25  0     1  0  0  0  0  0999 V2000
   -3.4506    2.2513    0.0000 O   0  0  0  0  0  0  0  0  0  0  0  0
   -0.0702   -2.0970    0.0000 N   0  0  0  0  0  0  0  0  0  0  0  0
   -2.2723    1.0870    0.0000 N   0  0  0  0  0  0  0  0  0  0  0  0
    0.6733   -2.4757    0.0000 N   0  0  0  0  0  0  0  0  0  0  0  0
    2.0900   -0.3717    0.0000 N   0  0  3  0  0  0  0  0  0  0  0  0
    3.6610    1.1432    0.0000 N   0  0  0  0  0  0  0  0  0  0  0  0
    0.0702   -1.2694    0.0000 C   0  0  0  0  0  0  0  0  0  0  0  0
   -0.5330   -0.6944    0.0000 C   0  0  0  0  0  0  0  0  0  0  0  0
    0.8837   -1.1712    0.0000 C   0  0  0  0  0  0  0  0  0  0  0  0
   -1.6972    0.4840    0.0000 C   0  0  0  0  0  0  0  0  0  0  0  0
   -1.3326   -0.8907    0.0000 C   0  0  0  0  0  0  0  0  0  0  0  0
   -0.3086    0.0772    0.0000 C   0  0  0  0  0  0  0  0  0  0  0  0
    1.2484   -1.8866    0.0000 C   0  0  0  0  0  0  0  0  0  0  0  0
   -1.9076   -0.3296    0.0000 C   0  0  0  0  0  0  0  0  0  0  0  0
   -0.8977    0.6803    0.0000 C   0  0  0  0  0  0  0  0  0  0  0  0
    1.2624   -0.4138    0.0000 C   0  0  0  0  0  0  0  0  0  0  0  0
   -3.0438    0.8766    0.0000 C   0  0  0  0  0  0  0  0  0  0  0  0
   -2.0619    1.8866    0.0000 C   0  0  0  0  0  0  0  0  0  0  0  0
   -3.6610    1.4518    0.0000 C   0  0  0  0  0  0  0  0  0  0  0  0
   -2.6510    2.4757    0.0000 C   0  0  0  0  0  0  0  0  0  0  0  0
    2.4687    0.3577    0.0000 C   0  0  0  0  0  0  0  0  0  0  0  0
    2.5528   -1.0870    0.0000 C   0  0  0  0  0  0  0  0  0  0  0  0
    3.2822    0.4138    0.0000 C   0  0  0  0  0  0  0  0  0  0  0  0
  1 19  1  0  0  0  0
  1 20  1  0  0  0  0
  2  4  1  0  0  0  0
  2  7  2  0  0  0  0
  3 10  1  0  0  0  0
  3 17  1  0  0  0  0
  3 18  1  0  0  0  0
  4 13  1  0  0  0  0
  5 16  1  0  0  0  0
  5 21  1  0  0  0  0
  5 22  1  0  0  0  0
  6 23  1  0  0  0  0
  7  8  1  0  0  0  0
  7  9  1  0  0  0  0
  8 11  1  0  0  0  0
  8 12  1  0  0  0  0
  9 13  2  0  0  0  0
  9 16  1  0  0  0  0
 10 14  1  0  0  0  0
 10 15  1  0  0  0  0
 11 14  1  0  0  0  0
 12 15  1  0  0  0  0
 17 19  1  0  0  0  0
 18 20  1  0  0  0  0
 21 23  1  0  0  0  0
M  END
> <PUBCHEM_COMPOUND_ID_TYPE>
0

> <PUBCHEM_TOTAL_CHARGE>
0

> <PUBCHEM_SUBSTANCE_ID>
310943782

> <PUBCHEM_SUBSTANCE_VERSION>
1

> <PUBCHEM_EXT_DATASOURCE_NAME>
4488

> <PUBCHEM_EXT_DATASOURCE_REGID>
SCHEMBL16121852

> <PUBCHEM_SUBSTANCE_COMMENT>
InChI=1S/C17H31N5O/c1-21(7-6-18)13-15-12-19-20-17(15)14-2-4-16(5-3-14)22-8-10-23-11-9-22/h12,14,16H,2-11,13,18H2,1H3,(H,19,20)
InChIKey=GZDYAGVXFKFBTR-UHFFFAOYSA-N

> <PUBCHEM_SUBSTANCE_SYNONYM>
SCHEMBL16121852

> <PUBCHEM_XREF_EXT_ID>
SCHEMBL16121852

> <PUBCHEM_EXT_DATASOURCE_URL>
https://www.surechembl.org/

> <PUBCHEM_EXT_SUBSTANCE_URL>
https://www.surechembl.org/chemical/SCHEMBL16121852

> <PUBCHEM_CID_ASSOCIATIONS>
86301537  1

> <PUBCHEM_COORDINATE_TYPE>
1
3

$$$$
