310944991
  -OEChem-07211613022D

 29 33  0     1  0  0  0  0  0999 V2000
    3.0738    1.2733    0.0000 O   0  0  0  0  0  0  0  0  0  0  0  0
   -3.8030    0.6002    0.0000 O   0  0  0  0  0  0  0  0  0  0  0  0
    1.5593   -1.0489    0.0000 N   0  0  0  0  0  0  0  0  0  0  0  0
   -0.2468   -0.9704    0.0000 N   0  0  0  0  0  0  0  0  0  0  0  0
    3.8030    0.0281    0.0000 N   0  0  0  0  0  0  0  0  0  0  0  0
   -1.4135   -0.1290    0.0000 N   0  0  0  0  0  0  0  0  0  0  0  0
   -1.5705   -1.5425    0.0000 N   0  0  0  0  0  0  0  0  0  0  0  0
   -2.4793    0.0168    0.0000 N   0  0  0  0  0  0  0  0  0  0  0  0
    1.0657   -0.3758    0.0000 C   0  0  0  0  0  0  0  0  0  0  0  0
    1.5481    0.2861    0.0000 C   0  0  0  0  0  0  0  0  0  0  0  0
    2.3558    0.0281    0.0000 C   0  0  0  0  0  0  0  0  0  0  0  0
    0.2468   -0.2861    0.0000 C   0  0  0  0  0  0  0  0  0  0  0  0
    2.3446   -0.7797    0.0000 C   0  0  0  0  0  0  0  0  0  0  0  0
   -0.1010    0.4656    0.0000 C   0  0  0  0  0  0  0  0  0  0  0  0
    3.0738    0.4319    0.0000 C   0  0  0  0  0  0  0  0  0  0  0  0
    1.2228    1.0377    0.0000 C   0  0  0  0  0  0  0  0  0  0  0  0
    0.3927    1.1275    0.0000 C   0  0  0  0  0  0  0  0  0  0  0  0
   -1.0770   -0.8694    0.0000 C   0  0  0  0  0  0  0  0  0  0  0  0
    3.0850   -1.2059    0.0000 C   0  0  0  0  0  0  0  0  0  0  0  0
   -0.9199    0.5553    0.0000 C   0  0  0  0  0  0  0  0  0  0  0  0
    3.8030   -0.7909    0.0000 C   0  0  0  0  0  0  0  0  0  0  0  0
   -2.4119   -1.4528    0.0000 C   0  0  3  0  0  0  0  0  0  0  0  0
   -2.8158   -0.7460    0.0000 C   0  0  3  0  0  0  0  0  0  0  0  0
   -2.9504   -2.0586    0.0000 C   0  0  0  0  0  0  0  0  0  0  0  0
   -3.6235   -0.9143    0.0000 C   0  0  0  0  0  0  0  0  0  0  0  0
   -3.7132   -1.7332    0.0000 C   0  0  0  0  0  0  0  0  0  0  0  0
   -2.9504    0.6899    0.0000 C   0  0  0  0  0  0  0  0  0  0  0  0
   -2.6250    1.4303    0.0000 C   0  0  0  0  0  0  0  0  0  0  0  0
   -3.1859    2.0586    0.0000 C   0  0  0  0  0  0  0  0  0  0  0  0
  1 15  2  0  0  0  0
  2 27  2  0  0  0  0
  3  9  1  0  0  0  0
  3 13  1  0  0  0  0
  4 12  2  0  0  0  0
  4 18  1  0  0  0  0
  5 15  1  0  0  0  0
  5 21  1  0  0  0  0
  6 18  2  0  0  0  0
  6 20  1  0  0  0  0
  7 18  1  0  0  0  0
  7 22  1  0  0  0  0
  8 23  1  0  0  0  0
  8 27  1  0  0  0  0
  9 10  2  0  0  0  0
  9 12  1  0  0  0  0
 10 11  1  0  0  0  0
 10 16  1  0  0  0  0
 11 13  2  0  0  0  0
 11 15  1  0  0  0  0
 12 14  1  0  0  0  0
 13 19  1  0  0  0  0
 14 17  1  0  0  0  0
 14 20  2  0  0  0  0
 16 17  1  0  0  0  0
 19 21  1  0  0  0  0
 22 23  1  0  0  0  0
 22 24  1  0  0  0  0
 23 25  1  0  0  0  0
 24 26  1  0  0  0  0
 25 26  1  0  0  0  0
 27 28  1  0  0  0  0
 28 29  2  0  0  0  0
M  END
> <PUBCHEM_COMPOUND_ID_TYPE>
0

> <PUBCHEM_TOTAL_CHARGE>
0

> <PUBCHEM_SUBSTANCE_ID>
310944991

> <PUBCHEM_SUBSTANCE_VERSION>
1

> <PUBCHEM_EXT_DATASOURCE_NAME>
4488

> <PUBCHEM_EXT_DATASOURCE_REGID>
SCHEMBL16123079

> <PUBCHEM_SUBSTANCE_COMMENT>
InChI=1S/C21H24N6O2/c1-2-16(28)24-13-4-3-5-14(13)26-21-23-10-11-6-7-12-17-15(8-9-22-20(17)29)25-19(12)18(11)27-21/h2,10,13-14,25H,1,3-9H2,(H,22,29)(H,24,28)(H,23,26,27)
InChIKey=ZBXLNFXJQAMYKS-UHFFFAOYSA-N

> <PUBCHEM_SUBSTANCE_SYNONYM>
SCHEMBL16123079

> <PUBCHEM_XREF_EXT_ID>
SCHEMBL16123079

> <PUBCHEM_EXT_DATASOURCE_URL>
https://www.surechembl.org/

> <PUBCHEM_EXT_SUBSTANCE_URL>
https://www.surechembl.org/chemical/SCHEMBL16123079

> <PUBCHEM_CID_ASSOCIATIONS>
117611134  1

> <PUBCHEM_COORDINATE_TYPE>
1
3

$$$$
