310941873
  -OEChem-07211613022D

 24 28  0     1  0  0  0  0  0999 V2000
   -0.3443    0.9365    0.0000 O   0  0  0  0  0  0  0  0  0  0  0  0
    1.4322   -0.8125    0.0000 N   0  0  0  0  0  0  0  0  0  0  0  0
    0.5784   -1.8591    0.0000 N   0  0  0  0  0  0  0  0  0  0  0  0
    1.3496   -2.1483    0.0000 N   0  0  0  0  0  0  0  0  0  0  0  0
    2.6991   -1.5561    0.0000 N   0  0  0  0  0  0  0  0  0  0  0  0
   -1.9830    1.1017    0.0000 C   0  0  3  0  0  0  0  0  0  0  0  0
   -1.7764    0.3030    0.0000 C   0  0  0  0  0  0  0  0  0  0  0  0
   -1.1430    0.7161    0.0000 C   0  0  3  0  0  0  0  0  0  0  0  0
   -1.9692   -0.4544    0.0000 C   0  0  3  0  0  0  0  0  0  0  0  0
   -1.1292   -0.0826    0.0000 C   0  0  0  0  0  0  0  0  0  0  0  0
   -2.6991    0.7161    0.0000 C   0  0  0  0  0  0  0  0  0  0  0  0
    0.2479    0.3580    0.0000 C   0  0  0  0  0  0  0  0  0  0  0  0
   -2.6853   -0.1102    0.0000 C   0  0  0  0  0  0  0  0  0  0  0  0
    1.0191    0.5784    0.0000 C   0  0  0  0  0  0  0  0  0  0  0  0
    0.6335   -1.0191    0.0000 C   0  0  0  0  0  0  0  0  0  0  0  0
    1.2669    1.3909    0.0000 C   0  0  0  0  0  0  0  0  0  0  0  0
   -2.0244    1.9418    0.0000 C   0  0  0  0  0  0  0  0  0  0  0  0
    0.0413   -0.4544    0.0000 C   0  0  0  0  0  0  0  0  0  0  0  0
    1.6388   -0.0138    0.0000 C   0  0  0  0  0  0  0  0  0  0  0  0
   -1.3633    1.0603    0.0000 C   0  0  0  0  0  0  0  0  0  0  0  0
   -1.3633   -0.3856    0.0000 C   0  0  0  0  0  0  0  0  0  0  0  0
    1.8728   -1.4873    0.0000 C   0  0  0  0  0  0  0  0  0  0  0  0
    1.0603    2.1483    0.0000 C   0  0  0  0  0  0  0  0  0  0  0  0
    1.8178    1.9418    0.0000 C   0  0  0  0  0  0  0  0  0  0  0  0
  8  1  1  6  0  0  0
  1 12  1  0  0  0  0
  2 15  1  0  0  0  0
  2 19  1  0  0  0  0
  2 22  1  0  0  0  0
  3  4  1  0  0  0  0
  3 15  2  0  0  0  0
  4 22  2  0  0  0  0
  5 22  1  0  0  0  0
  6  7  1  0  0  0  0
  6  8  1  0  0  0  0
  6 11  1  0  0  0  0
  6 17  1  6  0  0  0
  7  9  1  0  0  0  0
  7 20  1  0  0  0  0
  7 21  1  0  0  0  0
  8 10  1  0  0  0  0
  9 10  1  0  0  0  0
  9 13  1  0  0  0  0
 11 13  1  0  0  0  0
 12 14  1  0  0  0  0
 12 18  2  0  0  0  0
 14 16  1  0  0  0  0
 14 19  2  0  0  0  0
 15 18  1  0  0  0  0
 16 23  1  0  0  0  0
 16 24  1  0  0  0  0
 23 24  1  0  0  0  0
M  END
> <PUBCHEM_COMPOUND_ID_TYPE>
0

> <PUBCHEM_TOTAL_CHARGE>
0

> <PUBCHEM_SUBSTANCE_ID>
310941873

> <PUBCHEM_SUBSTANCE_VERSION>
1

> <PUBCHEM_EXT_DATASOURCE_NAME>
4488

> <PUBCHEM_EXT_DATASOURCE_REGID>
SCHEMBL16119905

> <PUBCHEM_SUBSTANCE_COMMENT>
InChI=1S/C19H26N4O/c1-18(2)12-6-7-19(18,3)15(8-12)24-14-9-16-21-22-17(20)23(16)10-13(14)11-4-5-11/h9-12,15H,4-8H2,1-3H3,(H2,20,22)/t12?,15-,19+/m1/s1
InChIKey=QPRPPGDZDAFGSS-YJVRRGMSSA-N

> <PUBCHEM_SUBSTANCE_SYNONYM>
SCHEMBL16119905

> <PUBCHEM_XREF_EXT_ID>
SCHEMBL16119905

> <PUBCHEM_EXT_DATASOURCE_URL>
https://www.surechembl.org/

> <PUBCHEM_EXT_SUBSTANCE_URL>
https://www.surechembl.org/chemical/SCHEMBL16119905

> <PUBCHEM_CID_ASSOCIATIONS>
117608611  1

> <PUBCHEM_COORDINATE_TYPE>
1
3

> <PUBCHEM_BONDANNOTATIONS>
8  1  6
6  17  6

$$$$
