310947414
  -OEChem-07211613022D

 24 26  0     1  0  0  0  0  0999 V2000
   -1.4466    0.6145    0.0000 O   0  0  0  0  0  0  0  0  0  0  0  0
   -1.4466   -1.8739    0.0000 O   0  0  0  0  0  0  0  0  0  0  0  0
   -2.8707   -1.8739    0.0000 O   0  0  0  0  0  0  0  0  0  0  0  0
   -4.2949    0.6145    0.0000 O   0  0  0  0  0  0  0  0  0  0  0  0
    2.1362    1.8588    0.0000 O   0  0  0  0  0  0  0  0  0  0  0  0
    2.1362    0.1949    0.0000 O   0  0  0  0  0  0  0  0  0  0  0  0
   -2.1812   -0.6145    0.0000 C   0  0  0  0  0  0  0  0  0  0  0  0
   -2.1661    0.2248    0.0000 C   0  0  0  0  0  0  0  0  0  0  0  0
   -0.7270    0.2098    0.0000 C   0  0  3  0  0  0  0  0  0  0  0  0
   -1.4466   -1.0194    0.0000 C   0  0  0  0  0  0  0  0  0  0  0  0
   -2.8707   -1.0194    0.0000 C   0  0  0  0  0  0  0  0  0  0  0  0
   -0.0375    0.6296    0.0000 C   0  0  0  0  0  0  0  0  0  0  0  0
   -0.7420   -0.6145    0.0000 C   0  0  0  0  0  0  0  0  0  0  0  0
   -2.8707    0.6145    0.0000 C   0  0  0  0  0  0  0  0  0  0  0  0
   -3.5903    0.2098    0.0000 C   0  0  0  0  0  0  0  0  0  0  0  0
   -3.5903   -0.6145    0.0000 C   0  0  0  0  0  0  0  0  0  0  0  0
    0.6671    0.2248    0.0000 C   0  0  0  0  0  0  0  0  0  0  0  0
   -0.0075    1.4541    0.0000 C   0  0  0  0  0  0  0  0  0  0  0  0
    1.4017    0.6446    0.0000 C   0  0  0  0  0  0  0  0  0  0  0  0
    1.4166    1.4541    0.0000 C   0  0  0  0  0  0  0  0  0  0  0  0
    0.6970    1.8588    0.0000 C   0  0  0  0  0  0  0  0  0  0  0  0
    2.8258    1.4691    0.0000 C   0  0  0  0  0  0  0  0  0  0  0  0
    3.5603    1.8739    0.0000 C   0  0  0  0  0  0  0  0  0  0  0  0
    4.2949    1.4541    0.0000 C   0  0  0  0  0  0  0  0  0  0  0  0
  1  8  1  0  0  0  0
  1  9  1  0  0  0  0
  2 10  2  0  0  0  0
  3 11  1  0  0  0  0
  4 15  1  0  0  0  0
  5 20  1  0  0  0  0
  5 22  1  0  0  0  0
  6 19  1  0  0  0  0
  7  8  1  0  0  0  0
  7 10  1  0  0  0  0
  7 11  2  0  0  0  0
  8 14  2  0  0  0  0
  9 12  1  0  0  0  0
  9 13  1  0  0  0  0
 10 13  1  0  0  0  0
 11 16  1  0  0  0  0
 12 17  2  0  0  0  0
 12 18  1  0  0  0  0
 14 15  1  0  0  0  0
 15 16  2  0  0  0  0
 17 19  1  0  0  0  0
 18 21  2  0  0  0  0
 19 20  2  0  0  0  0
 20 21  1  0  0  0  0
 22 23  1  0  0  0  0
 23 24  1  0  0  0  0
M  END
> <PUBCHEM_COMPOUND_ID_TYPE>
0

> <PUBCHEM_TOTAL_CHARGE>
0

> <PUBCHEM_SUBSTANCE_ID>
310947414

> <PUBCHEM_SUBSTANCE_VERSION>
1

> <PUBCHEM_EXT_DATASOURCE_NAME>
4488

> <PUBCHEM_EXT_DATASOURCE_REGID>
SCHEMBL16125571

> <PUBCHEM_SUBSTANCE_COMMENT>
InChI=1S/C18H18O6/c1-2-5-23-15-4-3-10(6-12(15)20)16-9-14(22)18-13(21)7-11(19)8-17(18)24-16/h3-4,6-8,16,19-21H,2,5,9H2,1H3
InChIKey=HJLZHYQRVLCDBP-UHFFFAOYSA-N

> <PUBCHEM_SUBSTANCE_SYNONYM>
SCHEMBL16125571

> <PUBCHEM_XREF_EXT_ID>
SCHEMBL16125571

> <PUBCHEM_EXT_DATASOURCE_URL>
https://www.surechembl.org/

> <PUBCHEM_EXT_SUBSTANCE_URL>
https://www.surechembl.org/chemical/SCHEMBL16125571

> <PUBCHEM_CID_ASSOCIATIONS>
86303427  1

> <PUBCHEM_COORDINATE_TYPE>
1
3

$$$$
