310939691
  -OEChem-07211613022D

 39 42  0     1  0  0  0  0  0999 V2000
    5.7158    3.7838    0.0000 F   0  0  0  0  0  0  0  0  0  0  0  0
    4.5888    4.0858    0.0000 F   0  0  0  0  0  0  0  0  0  0  0  0
    5.4138    2.6568    0.0000 F   0  0  0  0  0  0  0  0  0  0  0  0
   -2.1434    1.7213    0.0000 O   0  0  0  0  0  0  0  0  0  0  0  0
    1.3936   -3.0876    0.0000 O   0  0  0  0  0  0  0  0  0  0  0  0
   -3.5724    0.8963    0.0000 O   0  0  0  0  0  0  0  0  0  0  0  0
    1.4289    2.1338    0.0000 N   0  0  0  0  0  0  0  0  0  0  0  0
    0.7145    0.8963    0.0000 N   0  0  0  0  0  0  0  0  0  0  0  0
    4.2868    2.1338    0.0000 N   0  0  0  0  0  0  0  0  0  0  0  0
    1.4289   -0.3412    0.0000 N   0  0  0  0  0  0  0  0  0  0  0  0
    2.8579   -2.8162    0.0000 N   0  0  0  0  0  0  0  0  0  0  0  0
   -5.0013    1.7213    0.0000 N   0  0  0  0  0  0  0  0  0  0  0  0
    2.1434    1.7213    0.0000 C   0  0  0  0  0  0  0  0  0  0  0  0
    0.7145    1.7213    0.0000 C   0  0  0  0  0  0  0  0  0  0  0  0
    2.8579    2.1338    0.0000 C   0  0  0  0  0  0  0  0  0  0  0  0
    0.0000    2.1338    0.0000 C   0  0  0  0  0  0  0  0  0  0  0  0
    1.4289    0.4838    0.0000 C   0  0  0  0  0  0  0  0  0  0  0  0
    2.1434    0.8963    0.0000 C   0  0  0  0  0  0  0  0  0  0  0  0
    4.2868    2.9588    0.0000 C   0  0  0  0  0  0  0  0  0  0  0  0
    3.5724    1.7213    0.0000 C   0  0  0  0  0  0  0  0  0  0  0  0
    2.8579    2.9588    0.0000 C   0  0  0  0  0  0  0  0  0  0  0  0
    5.0013    3.3713    0.0000 C   0  0  0  0  0  0  0  0  0  0  0  0
    3.5724    3.3713    0.0000 C   0  0  0  0  0  0  0  0  0  0  0  0
   -0.7145    1.7213    0.0000 C   0  0  0  0  0  0  0  0  0  0  0  0
    0.0000    2.9588    0.0000 C   0  0  0  0  0  0  0  0  0  0  0  0
   -1.4289    2.1338    0.0000 C   0  0  0  0  0  0  0  0  0  0  0  0
   -0.7145    3.3713    0.0000 C   0  0  0  0  0  0  0  0  0  0  0  0
   -1.4289    2.9588    0.0000 C   0  0  0  0  0  0  0  0  0  0  0  0
    2.1434   -0.7537    0.0000 C   0  0  0  0  0  0  0  0  0  0  0  0
    2.1434   -1.5787    0.0000 C   0  0  0  0  0  0  0  0  0  0  0  0
    2.1904   -3.3011    0.0000 C   0  0  0  0  0  0  0  0  0  0  0  0
    2.8579   -1.9912    0.0000 C   0  0  0  0  0  0  0  0  0  0  0  0
   -2.8579    2.1338    0.0000 C   0  0  0  0  0  0  0  0  0  0  0  0
    3.5253   -3.3011    0.0000 C   0  0  0  0  0  0  0  0  0  0  0  0
    2.4454   -4.0858    0.0000 C   0  0  0  0  0  0  0  0  0  0  0  0
    3.2704   -4.0858    0.0000 C   0  0  0  0  0  0  0  0  0  0  0  0
   -3.5724    1.7213    0.0000 C   0  0  3  0  0  0  0  0  0  0  0  0
   -4.2868    2.1338    0.0000 C   0  0  0  0  0  0  0  0  0  0  0  0
   -5.7158    2.1338    0.0000 C   0  0  0  0  0  0  0  0  0  0  0  0
  1 22  1  0  0  0  0
  2 22  1  0  0  0  0
  3 22  1  0  0  0  0
  4 26  1  0  0  0  0
  4 33  1  0  0  0  0
  5 31  2  0  0  0  0
  6 37  1  0  0  0  0
  7 13  1  0  0  0  0
  7 14  2  0  0  0  0
  8 14  1  0  0  0  0
  8 17  2  0  0  0  0
  9 19  1  0  0  0  0
  9 20  2  0  0  0  0
 10 17  1  0  0  0  0
 10 29  1  0  0  0  0
 11 31  1  0  0  0  0
 11 32  1  0  0  0  0
 11 34  1  0  0  0  0
 12 38  1  0  0  0  0
 12 39  1  0  0  0  0
 13 15  1  0  0  0  0
 13 18  2  0  0  0  0
 14 16  1  0  0  0  0
 15 20  1  0  0  0  0
 15 21  2  0  0  0  0
 16 24  2  0  0  0  0
 16 25  1  0  0  0  0
 17 18  1  0  0  0  0
 19 22  1  0  0  0  0
 19 23  2  0  0  0  0
 21 23  1  0  0  0  0
 24 26  1  0  0  0  0
 25 27  2  0  0  0  0
 26 28  2  0  0  0  0
 27 28  1  0  0  0  0
 29 30  1  0  0  0  0
 30 32  1  0  0  0  0
 31 35  1  0  0  0  0
 33 37  1  0  0  0  0
 34 36  1  0  0  0  0
 35 36  1  0  0  0  0
 37 38  1  0  0  0  0
M  END
> <PUBCHEM_COMPOUND_ID_TYPE>
0

> <PUBCHEM_TOTAL_CHARGE>
0

> <PUBCHEM_SUBSTANCE_ID>
310939691

> <PUBCHEM_SUBSTANCE_VERSION>
1

> <PUBCHEM_EXT_DATASOURCE_NAME>
4488

> <PUBCHEM_EXT_DATASOURCE_REGID>
SCHEMBL16117621

> <PUBCHEM_SUBSTANCE_COMMENT>
InChI=1S/C27H31F3N6O3/c1-31-16-20(37)17-39-21-6-2-5-18(13-21)26-34-22(19-8-9-23(33-15-19)27(28,29)30)14-24(35-26)32-10-4-12-36-11-3-7-25(36)38/h2,5-6,8-9,13-15,20,31,37H,3-4,7,10-12,16-17H2,1H3,(H,32,34,35)
InChIKey=NZIZKEQGQVFHPR-UHFFFAOYSA-N

> <PUBCHEM_SUBSTANCE_SYNONYM>
SCHEMBL16117621

> <PUBCHEM_XREF_EXT_ID>
SCHEMBL16117621

> <PUBCHEM_EXT_DATASOURCE_URL>
https://www.surechembl.org/

> <PUBCHEM_EXT_SUBSTANCE_URL>
https://www.surechembl.org/chemical/SCHEMBL16117621

> <PUBCHEM_CID_ASSOCIATIONS>
85472934  1

> <PUBCHEM_COORDINATE_TYPE>
1
3

$$$$
