310929389
  -OEChem-07211613022D

 24 25  0     1  0  0  0  0  0999 V2000
    9.3193   -3.7077    0.0000 Cl  0  0  0  0  0  0  0  0  0  0  0  0
    9.2859   -0.4009    0.0000 O   0  0  0  0  0  0  0  0  0  0  0  0
    0.0000   -1.6368    0.0000 O   0  0  0  0  0  0  0  0  0  0  0  0
    7.9164   -1.2025    0.0000 N   0  0  0  0  0  0  0  0  0  0  0  0
    6.4801   -1.2359    0.0000 N   0  0  3  0  0  0  0  0  0  0  0  0
    8.6179   -1.6368    0.0000 C   0  0  0  0  0  0  0  0  0  0  0  0
    8.6179   -2.4718    0.0000 C   0  0  0  0  0  0  0  0  0  0  0  0
    9.3193   -1.2025    0.0000 C   0  0  0  0  0  0  0  0  0  0  0  0
    9.3193   -2.8726    0.0000 C   0  0  0  0  0  0  0  0  0  0  0  0
    7.1816   -1.6368    0.0000 C   0  0  0  0  0  0  0  0  0  0  0  0
    7.9164   -2.8726    0.0000 C   0  0  0  0  0  0  0  0  0  0  0  0
    7.1816   -2.4718    0.0000 C   0  0  0  0  0  0  0  0  0  0  0  0
   10.0207   -1.6368    0.0000 C   0  0  0  0  0  0  0  0  0  0  0  0
   10.0207   -2.4718    0.0000 C   0  0  0  0  0  0  0  0  0  0  0  0
    5.7452   -1.6368    0.0000 C   0  0  0  0  0  0  0  0  0  0  0  0
    6.4467   -0.4009    0.0000 C   0  0  0  0  0  0  0  0  0  0  0  0
    8.5844    0.0000    0.0000 C   0  0  0  0  0  0  0  0  0  0  0  0
    5.0438   -1.2359    0.0000 C   0  0  0  0  0  0  0  0  0  0  0  0
    4.3089   -1.6368    0.0000 C   0  0  0  0  0  0  0  0  0  0  0  0
    3.6074   -1.2359    0.0000 C   0  0  0  0  0  0  0  0  0  0  0  0
    2.8726   -1.6368    0.0000 C   0  0  0  0  0  0  0  0  0  0  0  0
    2.1712   -1.2359    0.0000 C   0  0  0  0  0  0  0  0  0  0  0  0
    1.4363   -1.6368    0.0000 C   0  0  0  0  0  0  0  0  0  0  0  0
    0.7349   -1.2359    0.0000 C   0  0  0  0  0  0  0  0  0  0  0  0
  1  9  1  0  0  0  0
  2  8  1  0  0  0  0
  2 17  1  0  0  0  0
  3 24  1  0  0  0  0
  4  6  2  0  0  0  0
  4 10  1  0  0  0  0
  5 10  1  0  0  0  0
  5 15  1  0  0  0  0
  5 16  1  0  0  0  0
  6  7  1  0  0  0  0
  6  8  1  0  0  0  0
  7  9  1  0  0  0  0
  7 11  2  0  0  0  0
  8 13  2  0  0  0  0
  9 14  2  0  0  0  0
 10 12  2  0  0  0  0
 11 12  1  0  0  0  0
 13 14  1  0  0  0  0
 15 18  1  0  0  0  0
 18 19  1  0  0  0  0
 19 20  1  0  0  0  0
 20 21  1  0  0  0  0
 21 22  1  0  0  0  0
 22 23  1  0  0  0  0
 23 24  1  0  0  0  0
M  END
> <PUBCHEM_COMPOUND_ID_TYPE>
0

> <PUBCHEM_TOTAL_CHARGE>
0

> <PUBCHEM_SUBSTANCE_ID>
310929389

> <PUBCHEM_SUBSTANCE_VERSION>
1

> <PUBCHEM_EXT_DATASOURCE_NAME>
4488

> <PUBCHEM_EXT_DATASOURCE_REGID>
SCHEMBL16106562

> <PUBCHEM_SUBSTANCE_COMMENT>
InChI=1S/C19H27ClN2O2/c1-22(13-7-5-3-4-6-8-14-23)18-12-9-15-16(20)10-11-17(24-2)19(15)21-18/h9-12,23H,3-8,13-14H2,1-2H3
InChIKey=AKUYQFXGFUYKGE-UHFFFAOYSA-N

> <PUBCHEM_SUBSTANCE_SYNONYM>
SCHEMBL16106562

> <PUBCHEM_XREF_EXT_ID>
SCHEMBL16106562

> <PUBCHEM_EXT_DATASOURCE_URL>
https://www.surechembl.org/

> <PUBCHEM_EXT_SUBSTANCE_URL>
https://www.surechembl.org/chemical/SCHEMBL16106562

> <PUBCHEM_CID_ASSOCIATIONS>
85472948  1

> <PUBCHEM_COORDINATE_TYPE>
1
3

$$$$
