310933995
  -OEChem-07211613022D

 23 25  0     1  0  0  0  0  0999 V2000
    0.0000   -2.8539    0.0000 F   0  0  0  0  0  0  0  0  0  0  0  0
    3.5505   -0.8090    0.0000 O   0  0  0  0  0  0  0  0  0  0  0  0
    5.1235   -0.9663    0.0000 O   0  0  0  0  0  0  0  0  0  0  0  0
    1.4157   -4.4943    0.0000 N   0  0  0  0  0  0  0  0  0  0  0  0
    4.2471   -2.0224    0.0000 C   0  0  3  0  0  0  0  0  0  0  0  0
    4.9662   -1.6179    0.0000 C   0  0  0  0  0  0  0  0  0  0  0  0
    4.2471   -1.2135    0.0000 C   0  0  0  0  0  0  0  0  0  0  0  0
    4.2471   -2.8539    0.0000 C   0  0  0  0  0  0  0  0  0  0  0  0
    3.5505   -1.6179    0.0000 C   0  0  0  0  0  0  0  0  0  0  0  0
    2.8314   -2.8539    0.0000 C   0  0  0  0  0  0  0  0  0  0  0  0
    3.5505   -3.2583    0.0000 C   0  0  0  0  0  0  0  0  0  0  0  0
    2.8314   -2.0449    0.0000 C   0  0  0  0  0  0  0  0  0  0  0  0
    2.1348   -3.2583    0.0000 C   0  0  0  0  0  0  0  0  0  0  0  0
    4.9662   -0.7865    0.0000 C   0  0  0  0  0  0  0  0  0  0  0  0
    5.6628   -2.0224    0.0000 C   0  0  0  0  0  0  0  0  0  0  0  0
    1.3932   -2.8764    0.0000 C   0  0  0  0  0  0  0  0  0  0  0  0
    2.0898   -4.0898    0.0000 C   0  0  0  0  0  0  0  0  0  0  0  0
    0.6966   -3.2808    0.0000 C   0  0  0  0  0  0  0  0  0  0  0  0
    5.6628   -0.3820    0.0000 C   0  0  0  0  0  0  0  0  0  0  0  0
    6.3819   -1.6179    0.0000 C   0  0  0  0  0  0  0  0  0  0  0  0
    6.3819   -0.7865    0.0000 C   0  0  0  0  0  0  0  0  0  0  0  0
    0.6742   -4.0898    0.0000 C   0  0  0  0  0  0  0  0  0  0  0  0
    3.5280    0.0000    0.0000 C   0  0  0  0  0  0  0  0  0  0  0  0
  1 18  1  0  0  0  0
  2  7  1  0  0  0  0
  2 23  1  0  0  0  0
  3  7  2  0  0  0  0
  4 17  1  0  0  0  0
  4 22  2  0  0  0  0
  5  6  1  0  0  0  0
  5  7  1  0  0  0  0
  5  8  1  0  0  0  0
  5  9  1  0  0  0  0
  6 14  2  0  0  0  0
  6 15  1  0  0  0  0
  8 11  1  0  0  0  0
  9 12  1  0  0  0  0
 10 11  2  0  0  0  0
 10 12  1  0  0  0  0
 10 13  1  0  0  0  0
 13 16  1  0  0  0  0
 13 17  2  0  0  0  0
 14 19  1  0  0  0  0
 15 20  2  0  0  0  0
 16 18  2  0  0  0  0
 18 22  1  0  0  0  0
 19 21  2  0  0  0  0
 20 21  1  0  0  0  0
M  END
> <PUBCHEM_COMPOUND_ID_TYPE>
0

> <PUBCHEM_TOTAL_CHARGE>
0

> <PUBCHEM_SUBSTANCE_ID>
310933995

> <PUBCHEM_SUBSTANCE_VERSION>
1

> <PUBCHEM_EXT_DATASOURCE_NAME>
4488

> <PUBCHEM_EXT_DATASOURCE_REGID>
SCHEMBL16111439

> <PUBCHEM_SUBSTANCE_COMMENT>
InChI=1S/C19H18FNO2/c1-23-18(22)19(16-5-3-2-4-6-16)9-7-14(8-10-19)15-11-17(20)13-21-12-15/h2-7,11-13H,8-10H2,1H3
InChIKey=DYZDYXDVCCKJJR-UHFFFAOYSA-N

> <PUBCHEM_SUBSTANCE_SYNONYM>
SCHEMBL16111439

> <PUBCHEM_XREF_EXT_ID>
SCHEMBL16111439

> <PUBCHEM_EXT_DATASOURCE_URL>
https://www.surechembl.org/

> <PUBCHEM_EXT_SUBSTANCE_URL>
https://www.surechembl.org/chemical/SCHEMBL16111439

> <PUBCHEM_CID_ASSOCIATIONS>
117602302  1

> <PUBCHEM_COORDINATE_TYPE>
1
3

$$$$
