310930009
  -OEChem-07211613022D

 23 24  0     1  0  0  0  0  0999 V2000
    0.8207   -4.6975    0.0000 S   0  0  0  0  0  0  0  0  0  0  0  0
    7.9236   -1.3300    0.0000 S   0  0  0  0  0  0  0  0  0  0  0  0
    0.8207   -3.9052    0.0000 O   0  0  0  0  0  0  0  0  0  0  0  0
    1.6130   -4.6975    0.0000 O   0  0  0  0  0  0  0  0  0  0  0  0
    0.0000   -4.6975    0.0000 O   0  0  0  0  0  0  0  0  0  0  0  0
    0.8207   -5.5182    0.0000 O   0  0  0  0  0  0  0  0  0  0  0  0
    3.6505   -3.9052    0.0000 N   0  0  3  0  0  0  0  0  0  0  0  0
    6.4804   -2.2356    0.0000 N   0  0  0  0  0  0  0  0  0  0  0  0
    6.4804   -1.4149    0.0000 N   0  0  0  0  0  0  0  0  0  0  0  0
    7.2727   -0.1981    0.0000 N   0  0  0  0  0  0  0  0  0  0  0  0
    4.3580   -3.4807    0.0000 C   0  0  0  0  0  0  0  0  0  0  0  0
    5.7446   -2.6317    0.0000 C   0  0  0  0  0  0  0  0  0  0  0  0
    7.1878   -0.9904    0.0000 C   0  0  0  0  0  0  0  0  0  0  0  0
    4.3296   -2.6601    0.0000 C   0  0  0  0  0  0  0  0  0  0  0  0
    5.0654   -3.8769    0.0000 C   0  0  0  0  0  0  0  0  0  0  0  0
    5.0371   -2.2356    0.0000 C   0  0  0  0  0  0  0  0  0  0  0  0
    5.7729   -3.4524    0.0000 C   0  0  0  0  0  0  0  0  0  0  0  0
    2.9430   -3.4807    0.0000 C   0  0  0  0  0  0  0  0  0  0  0  0
    8.4895   -0.7075    0.0000 C   0  0  0  0  0  0  0  0  0  0  0  0
    8.0367    0.0000    0.0000 C   0  0  0  0  0  0  0  0  0  0  0  0
    2.2356   -3.9052    0.0000 C   0  0  0  0  0  0  0  0  0  0  0  0
    1.5281   -3.4807    0.0000 C   0  0  0  0  0  0  0  0  0  0  0  0
    3.6505   -4.6975    0.0000 C   0  0  0  0  0  0  0  0  0  0  0  0
  1  3  1  0  0  0  0
  1  4  2  0  0  0  0
  1  5  2  0  0  0  0
  1  6  1  0  0  0  0
  2 13  1  0  0  0  0
  2 19  1  0  0  0  0
  3 22  1  0  0  0  0
  7 11  1  0  0  0  0
  7 18  1  0  0  0  0
  7 23  1  0  0  0  0
  8  9  2  0  0  0  0
  8 12  1  0  0  0  0
  9 13  1  0  0  0  0
 10 13  2  0  0  0  0
 10 20  1  0  0  0  0
 11 14  2  0  0  0  0
 11 15  1  0  0  0  0
 12 16  2  0  0  0  0
 12 17  1  0  0  0  0
 14 16  1  0  0  0  0
 15 17  2  0  0  0  0
 18 21  1  0  0  0  0
 19 20  2  0  0  0  0
 21 22  1  0  0  0  0
M  END
> <PUBCHEM_COMPOUND_ID_TYPE>
0

> <PUBCHEM_TOTAL_CHARGE>
0

> <PUBCHEM_SUBSTANCE_ID>
310930009

> <PUBCHEM_SUBSTANCE_VERSION>
1

> <PUBCHEM_EXT_DATASOURCE_NAME>
4488

> <PUBCHEM_EXT_DATASOURCE_REGID>
SCHEMBL16107248

> <PUBCHEM_SUBSTANCE_COMMENT>
InChI=1S/C13H16N4O4S2/c1-17(8-2-9-21-23(18,19)20)12-5-3-11(4-6-12)15-16-13-14-7-10-22-13/h3-7,10H,2,8-9H2,1H3,(H,18,19,20)/b16-15+
InChIKey=NXNHSIGLXCJDAS-FOCLMDBBSA-N

> <PUBCHEM_SUBSTANCE_SYNONYM>
SCHEMBL16107248

> <PUBCHEM_XREF_EXT_ID>
SCHEMBL16107248

> <PUBCHEM_EXT_DATASOURCE_URL>
https://www.surechembl.org/

> <PUBCHEM_EXT_SUBSTANCE_URL>
https://www.surechembl.org/chemical/SCHEMBL16107248

> <PUBCHEM_CID_ASSOCIATIONS>
89559077  1

> <PUBCHEM_COORDINATE_TYPE>
1
3

$$$$
