310933767
  -OEChem-07211613022D

 25 27  0     1  0  0  0  0  0999 V2000
    1.6310   -0.6990    0.0000 Cl  0  0  0  0  0  0  0  0  0  0  0  0
    2.4994   -2.1182    0.0000 S   0  0  0  0  0  0  0  0  0  0  0  0
    2.4994   -3.0290    0.0000 O   0  0  0  0  0  0  0  0  0  0  0  0
    2.4994   -1.3345    0.0000 O   0  0  0  0  0  0  0  0  0  0  0  0
    5.7614   -3.5374    0.0000 O   0  0  0  0  0  0  0  0  0  0  0  0
    3.2832   -2.1182    0.0000 N   0  0  3  0  0  0  0  0  0  0  0  0
    4.4906   -2.8383    0.0000 N   0  0  0  0  0  0  0  0  0  0  0  0
    4.4906    0.0000    0.0000 N   0  0  0  0  0  0  0  0  0  0  0  0
    1.6734   -2.1182    0.0000 C   0  0  0  0  0  0  0  0  0  0  0  0
    3.6856   -2.8383    0.0000 C   0  0  0  0  0  0  0  0  0  0  0  0
    3.6856   -1.4192    0.0000 C   0  0  0  0  0  0  0  0  0  0  0  0
    1.2285   -1.4192    0.0000 C   0  0  0  0  0  0  0  0  0  0  0  0
    1.2285   -2.8383    0.0000 C   0  0  0  0  0  0  0  0  0  0  0  0
    3.2620   -3.5374    0.0000 C   0  0  0  0  0  0  0  0  0  0  0  0
    4.5117   -1.4192    0.0000 C   0  0  0  0  0  0  0  0  0  0  0  0
    3.2832   -0.6990    0.0000 C   0  0  0  0  0  0  0  0  0  0  0  0
    4.9353   -3.5374    0.0000 C   0  0  0  0  0  0  0  0  0  0  0  0
    0.4236   -1.4192    0.0000 C   0  0  0  0  0  0  0  0  0  0  0  0
    0.4236   -2.8383    0.0000 C   0  0  0  0  0  0  0  0  0  0  0  0
    3.7068   -4.2364    0.0000 C   0  0  0  0  0  0  0  0  0  0  0  0
    4.4906   -4.2364    0.0000 C   0  0  0  0  0  0  0  0  0  0  0  0
    0.0000   -2.1182    0.0000 C   0  0  0  0  0  0  0  0  0  0  0  0
    4.9142   -0.6990    0.0000 C   0  0  0  0  0  0  0  0  0  0  0  0
    3.6856    0.0000    0.0000 C   0  0  0  0  0  0  0  0  0  0  0  0
    6.1639   -2.7960    0.0000 C   0  0  0  0  0  0  0  0  0  0  0  0
  1 12  1  0  0  0  0
  2  3  2  0  0  0  0
  2  4  2  0  0  0  0
  2  6  1  0  0  0  0
  2  9  1  0  0  0  0
  5 17  1  0  0  0  0
  5 25  1  0  0  0  0
  6 10  1  0  0  0  0
  6 11  1  0  0  0  0
  7 10  1  0  0  0  0
  7 17  2  0  0  0  0
  8 23  1  0  0  0  0
  8 24  1  0  0  0  0
  9 12  1  0  0  0  0
  9 13  2  0  0  0  0
 10 14  2  0  0  0  0
 11 15  1  0  0  0  0
 11 16  1  0  0  0  0
 12 18  2  0  0  0  0
 13 19  1  0  0  0  0
 14 20  1  0  0  0  0
 15 23  1  0  0  0  0
 16 24  1  0  0  0  0
 17 21  1  0  0  0  0
 18 22  1  0  0  0  0
 19 22  2  0  0  0  0
 20 21  2  0  0  0  0
M  END
> <PUBCHEM_COMPOUND_ID_TYPE>
0

> <PUBCHEM_TOTAL_CHARGE>
0

> <PUBCHEM_SUBSTANCE_ID>
310933767

> <PUBCHEM_SUBSTANCE_VERSION>
1

> <PUBCHEM_EXT_DATASOURCE_NAME>
4488

> <PUBCHEM_EXT_DATASOURCE_REGID>
SCHEMBL16111203

> <PUBCHEM_SUBSTANCE_COMMENT>
InChI=1S/C17H20ClN3O3S/c1-24-17-8-4-7-16(20-17)21(13-9-11-19-12-10-13)25(22,23)15-6-3-2-5-14(15)18/h2-8,13,19H,9-12H2,1H3
InChIKey=MALDUYFSEVTRIO-UHFFFAOYSA-N

> <PUBCHEM_SUBSTANCE_SYNONYM>
SCHEMBL16111203

> <PUBCHEM_XREF_EXT_ID>
SCHEMBL16111203

> <PUBCHEM_EXT_DATASOURCE_URL>
https://www.surechembl.org/

> <PUBCHEM_EXT_SUBSTANCE_URL>
https://www.surechembl.org/chemical/SCHEMBL16111203

> <PUBCHEM_CID_ASSOCIATIONS>
117602121  1

> <PUBCHEM_COORDINATE_TYPE>
1
3

$$$$
