310946068
  -OEChem-07211613022D

 21 22  0     1  0  0  0  0  0999 V2000
   -2.9073   -0.0834    0.0000 F   0  0  0  0  0  0  0  0  0  0  0  0
   -3.7141    0.7234    0.0000 F   0  0  0  0  0  0  0  0  0  0  0  0
   -2.9073    1.5302    0.0000 F   0  0  0  0  0  0  0  0  0  0  0  0
   -0.5147   -1.1963    0.0000 N   0  0  0  0  0  0  0  0  0  0  0  0
    0.1530   -1.6832    0.0000 N   0  0  0  0  0  0  0  0  0  0  0  0
    1.8918    0.1669    0.0000 N   0  0  3  0  0  0  0  0  0  0  0  0
    3.7141    1.4049    0.0000 N   0  0  0  0  0  0  0  0  0  0  0  0
   -0.2504   -0.3895    0.0000 C   0  0  0  0  0  0  0  0  0  0  0  0
   -0.7512    0.2782    0.0000 C   0  0  0  0  0  0  0  0  0  0  0  0
    0.5704   -0.4034    0.0000 C   0  0  0  0  0  0  0  0  0  0  0  0
   -2.0587    0.8486    0.0000 C   0  0  0  0  0  0  0  0  0  0  0  0
   -1.5719    0.1947    0.0000 C   0  0  0  0  0  0  0  0  0  0  0  0
   -2.9073    0.7373    0.0000 C   0  0  0  0  0  0  0  0  0  0  0  0
   -0.4173    1.0433    0.0000 C   0  0  0  0  0  0  0  0  0  0  0  0
    0.8347   -1.1685    0.0000 C   0  0  0  0  0  0  0  0  0  0  0  0
   -1.7250    1.5997    0.0000 C   0  0  0  0  0  0  0  0  0  0  0  0
    1.0711    0.2782    0.0000 C   0  0  0  0  0  0  0  0  0  0  0  0
   -0.9042    1.6832    0.0000 C   0  0  0  0  0  0  0  0  0  0  0  0
    2.3926    0.8486    0.0000 C   0  0  0  0  0  0  0  0  0  0  0  0
    2.2535   -0.5704    0.0000 C   0  0  0  0  0  0  0  0  0  0  0  0
    3.2273    0.7651    0.0000 C   0  0  0  0  0  0  0  0  0  0  0  0
  1 13  1  0  0  0  0
  2 13  1  0  0  0  0
  3 13  1  0  0  0  0
  4  5  1  0  0  0  0
  4  8  1  0  0  0  0
  5 15  2  0  0  0  0
  6 17  1  0  0  0  0
  6 19  1  0  0  0  0
  6 20  1  0  0  0  0
  7 21  1  0  0  0  0
  8  9  1  0  0  0  0
  8 10  2  0  0  0  0
  9 12  1  0  0  0  0
  9 14  2  0  0  0  0
 10 15  1  0  0  0  0
 10 17  1  0  0  0  0
 11 12  2  0  0  0  0
 11 13  1  0  0  0  0
 11 16  1  0  0  0  0
 14 18  1  0  0  0  0
 16 18  2  0  0  0  0
 19 21  1  0  0  0  0
M  END
> <PUBCHEM_COMPOUND_ID_TYPE>
0

> <PUBCHEM_TOTAL_CHARGE>
0

> <PUBCHEM_SUBSTANCE_ID>
310946068

> <PUBCHEM_SUBSTANCE_VERSION>
1

> <PUBCHEM_EXT_DATASOURCE_NAME>
4488

> <PUBCHEM_EXT_DATASOURCE_REGID>
SCHEMBL16124174

> <PUBCHEM_SUBSTANCE_COMMENT>
InChI=1S/C14H17F3N4/c1-21(6-5-18)9-11-8-19-20-13(11)10-3-2-4-12(7-10)14(15,16)17/h2-4,7-8H,5-6,9,18H2,1H3,(H,19,20)
InChIKey=ZVZZHEFJBZDYKM-UHFFFAOYSA-N

> <PUBCHEM_SUBSTANCE_SYNONYM>
SCHEMBL16124174

> <PUBCHEM_XREF_EXT_ID>
SCHEMBL16124174

> <PUBCHEM_EXT_DATASOURCE_URL>
https://www.surechembl.org/

> <PUBCHEM_EXT_SUBSTANCE_URL>
https://www.surechembl.org/chemical/SCHEMBL16124174

> <PUBCHEM_CID_ASSOCIATIONS>
117612039  1

> <PUBCHEM_COORDINATE_TYPE>
1
3

$$$$
