310946541
  -OEChem-07211613022D

 22 21  0     1  0  0  0  0  0999 V2000
   -3.7689   -0.7404    0.0000 S   0  0  0  0  0  0  0  0  0  0  0  0
   -6.6268   -3.2154    0.0000 O   0  0  0  0  0  0  0  0  0  0  0  0
   -3.7689   -4.0404    0.0000 O   0  0  0  0  0  0  0  0  0  0  0  0
   -5.9123   -1.9779    0.0000 O   0  0  0  0  0  0  0  0  0  0  0  0
   -8.7702   -7.7529    0.0000 O   0  0  0  0  0  0  0  0  0  0  0  0
   -8.0557   -8.9904    0.0000 O   0  5  0  0  0  0  0  0  0  0  0  0
   -7.3412   -7.7529    0.0000 O   0  0  0  0  0  0  0  0  0  0  0  0
   -5.1978   -3.2154    0.0000 N   0  0  0  0  0  0  0  0  0  0  0  0
   -8.0557   -8.1654    0.0000 N   0  3  0  0  0  0  0  0  0  0  0  0
   -4.4833   -2.8029    0.0000 C   0  0  3  0  0  0  0  0  0  0  0  0
   -3.7689   -3.2154    0.0000 C   0  0  0  0  0  0  0  0  0  0  0  0
   -5.9123   -2.8029    0.0000 C   0  0  0  0  0  0  0  0  0  0  0  0
   -4.4833   -1.9779    0.0000 C   0  0  0  0  0  0  0  0  0  0  0  0
   -3.7689   -1.5654    0.0000 C   0  0  0  0  0  0  0  0  0  0  0  0
   -6.6268   -4.0404    0.0000 C   0  0  0  0  0  0  0  0  0  0  0  0
   -3.0544   -2.8029    0.0000 C   0  0  0  0  0  0  0  0  0  0  0  0
   -7.3412   -4.4529    0.0000 C   0  0  0  0  0  0  0  0  0  0  0  0
   -7.3412   -5.2779    0.0000 C   0  0  0  0  0  0  0  0  0  0  0  0
   -8.0557   -5.6904    0.0000 C   0  0  0  0  0  0  0  0  0  0  0  0
   -8.7702   -6.9279    0.0000 C   0  0  0  0  0  0  0  0  0  0  0  0
   -8.0557   -6.5154    0.0000 C   0  0  0  0  0  0  0  0  0  0  0  0
   -3.0544   -0.3279    0.0000 C   0  0  0  0  0  0  0  0  0  0  0  0
  1 14  1  0  0  0  0
  1 22  1  0  0  0  0
  2 12  1  0  0  0  0
  2 15  1  0  0  0  0
  3 11  2  0  0  0  0
  4 12  2  0  0  0  0
  5  9  1  0  0  0  0
  5 20  1  0  0  0  0
  6  9  1  0  0  0  0
  7  9  2  0  0  0  0
  8 10  1  0  0  0  0
  8 12  1  0  0  0  0
 10 11  1  0  0  0  0
 10 13  1  0  0  0  0
 11 16  1  0  0  0  0
 13 14  1  0  0  0  0
 15 17  1  0  0  0  0
 17 18  1  0  0  0  0
 18 19  1  0  0  0  0
 19 21  1  0  0  0  0
 20 21  1  0  0  0  0
M  CHG  2   6  -1   9   1
M  END
> <PUBCHEM_COMPOUND_ID_TYPE>
0

> <PUBCHEM_TOTAL_CHARGE>
0

> <PUBCHEM_SUBSTANCE_ID>
310946541

> <PUBCHEM_SUBSTANCE_VERSION>
1

> <PUBCHEM_EXT_DATASOURCE_NAME>
4488

> <PUBCHEM_EXT_DATASOURCE_REGID>
SCHEMBL16124662

> <PUBCHEM_SUBSTANCE_COMMENT>
InChI=1S/C13H24N2O6S/c1-11(16)12(7-10-22-2)14-13(17)20-8-5-3-4-6-9-21-15(18)19/h12H,3-10H2,1-2H3,(H,14,17)
InChIKey=QIDUMIUZPMNTNB-UHFFFAOYSA-N

> <PUBCHEM_SUBSTANCE_SYNONYM>
SCHEMBL16124662

> <PUBCHEM_XREF_EXT_ID>
SCHEMBL16124662

> <PUBCHEM_EXT_DATASOURCE_URL>
https://www.surechembl.org/

> <PUBCHEM_EXT_SUBSTANCE_URL>
https://www.surechembl.org/chemical/SCHEMBL16124662

> <PUBCHEM_CID_ASSOCIATIONS>
117612446  1

> <PUBCHEM_COORDINATE_TYPE>
1
3

$$$$
