310931708
  -OEChem-07211613022D

 24 27  0     1  0  0  0  0  0999 V2000
    2.7637   -1.6184    0.0000 O   0  0  0  0  0  0  0  0  0  0  0  0
    3.8841   -3.5853    0.0000 O   0  0  0  0  0  0  0  0  0  0  0  0
    4.6062   -2.3404    0.0000 O   0  0  0  0  0  0  0  0  0  0  0  0
    2.3653   -2.3404    0.0000 C   0  0  3  0  0  0  0  0  0  0  0  0
    3.1870   -2.3404    0.0000 C   0  0  3  0  0  0  0  0  0  0  0  0
    1.7678   -1.7429    0.0000 C   0  0  0  0  0  0  0  0  0  0  0  0
    1.6433   -2.7637    0.0000 C   0  0  0  0  0  0  0  0  0  0  0  0
    3.8841   -2.7637    0.0000 C   0  0  0  0  0  0  0  0  0  0  0  0
    0.9461   -1.9670    0.0000 C   0  0  0  0  0  0  0  0  0  0  0  0
    1.9670   -0.9461    0.0000 C   0  0  0  0  0  0  0  0  0  0  0  0
    1.6184   -3.5853    0.0000 C   0  0  0  0  0  0  0  0  0  0  0  0
    0.9212   -2.3404    0.0000 C   0  0  0  0  0  0  0  0  0  0  0  0
    0.3735   -1.3943    0.0000 C   0  0  0  0  0  0  0  0  0  0  0  0
    1.3943   -0.3735    0.0000 C   0  0  0  0  0  0  0  0  0  0  0  0
    0.9212   -4.0086    0.0000 C   0  0  0  0  0  0  0  0  0  0  0  0
    0.1992   -2.7637    0.0000 C   0  0  0  0  0  0  0  0  0  0  0  0
    4.6062   -3.9837    0.0000 C   0  0  0  0  0  0  0  0  0  0  0  0
    0.5975   -0.5975    0.0000 C   0  0  0  0  0  0  0  0  0  0  0  0
    0.1992   -3.5853    0.0000 C   0  0  0  0  0  0  0  0  0  0  0  0
    5.3531   -3.6351    0.0000 C   0  0  0  0  0  0  0  0  0  0  0  0
    4.6809   -4.8053    0.0000 C   0  0  0  0  0  0  0  0  0  0  0  0
    0.0000    0.0000    0.0000 C   0  0  0  0  0  0  0  0  0  0  0  0
    5.9009   -4.2576    0.0000 C   0  0  0  0  0  0  0  0  0  0  0  0
    5.5025   -4.9796    0.0000 C   0  0  0  0  0  0  0  0  0  0  0  0
  1  4  1  0  0  0  0
  1  5  1  0  0  0  0
  2  8  1  0  0  0  0
  2 17  1  0  0  0  0
  3  8  2  0  0  0  0
  4  5  1  0  0  0  0
  4  6  1  0  0  0  0
  4  7  1  0  0  0  0
  5  8  1  0  0  0  0
  6  9  2  0  0  0  0
  6 10  1  0  0  0  0
  7 11  2  0  0  0  0
  7 12  1  0  0  0  0
  9 13  1  0  0  0  0
 10 14  2  0  0  0  0
 11 15  1  0  0  0  0
 12 16  2  0  0  0  0
 13 18  2  0  0  0  0
 14 18  1  0  0  0  0
 15 19  2  0  0  0  0
 16 19  1  0  0  0  0
 17 20  1  0  0  0  0
 17 21  1  0  0  0  0
 18 22  1  0  0  0  0
 20 23  1  0  0  0  0
 21 24  1  0  0  0  0
 23 24  1  0  0  0  0
M  END
> <PUBCHEM_COMPOUND_ID_TYPE>
0

> <PUBCHEM_TOTAL_CHARGE>
0

> <PUBCHEM_SUBSTANCE_ID>
310931708

> <PUBCHEM_SUBSTANCE_VERSION>
1

> <PUBCHEM_EXT_DATASOURCE_NAME>
4488

> <PUBCHEM_EXT_DATASOURCE_REGID>
SCHEMBL16109037

> <PUBCHEM_SUBSTANCE_COMMENT>
InChI=1S/C21H22O3/c1-15-11-13-17(14-12-15)21(16-7-3-2-4-8-16)19(24-21)20(22)23-18-9-5-6-10-18/h2-4,7-8,11-14,18-19H,5-6,9-10H2,1H3
InChIKey=RFWWPLRBUPNCJQ-UHFFFAOYSA-N

> <PUBCHEM_SUBSTANCE_SYNONYM>
SCHEMBL16109037

> <PUBCHEM_XREF_EXT_ID>
SCHEMBL16109037

> <PUBCHEM_EXT_DATASOURCE_URL>
https://www.surechembl.org/

> <PUBCHEM_EXT_SUBSTANCE_URL>
https://www.surechembl.org/chemical/SCHEMBL16109037

> <PUBCHEM_CID_ASSOCIATIONS>
117600407  1

> <PUBCHEM_COORDINATE_TYPE>
1
3

$$$$
