310933336
  -OEChem-07211613022D

 30 34  0     1  0  0  0  0  0999 V2000
    3.6807   -2.0307    0.0000 O   0  0  0  0  0  0  0  0  0  0  0  0
    0.2856   -5.2673    0.0000 O   0  0  0  0  0  0  0  0  0  0  0  0
    5.8384   -4.1250    0.0000 O   0  0  0  0  0  0  0  0  0  0  0  0
    4.5057   -3.4586    0.0000 N   0  0  0  0  0  0  0  0  0  0  0  0
    4.5057   -4.7913    0.0000 N   0  0  0  0  0  0  0  0  0  0  0  0
    2.2529   -1.2375    0.0000 N   0  0  0  0  0  0  0  0  0  0  0  0
    0.6663   -5.9971    0.0000 N   0  0  0  0  0  0  0  0  0  0  0  0
    2.9826   -3.3000    0.0000 C   0  0  0  0  0  0  0  0  0  0  0  0
    2.9826   -2.4750    0.0000 C   0  0  3  0  0  0  0  0  0  0  0  0
    3.7125   -3.6807    0.0000 C   0  0  0  0  0  0  0  0  0  0  0  0
    3.7125   -4.5692    0.0000 C   0  0  0  0  0  0  0  0  0  0  0  0
    2.2846   -4.5692    0.0000 C   0  0  0  0  0  0  0  0  0  0  0  0
    2.2846   -3.6807    0.0000 C   0  0  0  0  0  0  0  0  0  0  0  0
    2.9826   -1.6500    0.0000 C   0  0  0  0  0  0  0  0  0  0  0  0
    1.5866   -4.9817    0.0000 C   0  0  0  0  0  0  0  0  0  0  0  0
    2.9826   -4.9499    0.0000 C   0  0  0  0  0  0  0  0  0  0  0  0
    2.2529   -2.0625    0.0000 C   0  0  0  0  0  0  0  0  0  0  0  0
    5.0134   -4.1250    0.0000 C   0  0  0  0  0  0  0  0  0  0  0  0
    0.8250   -4.6326    0.0000 C   0  0  0  0  0  0  0  0  0  0  0  0
    1.4913   -5.8067    0.0000 C   0  0  0  0  0  0  0  0  0  0  0  0
    3.7125   -1.2375    0.0000 C   0  0  0  0  0  0  0  0  0  0  0  0
    1.5548   -2.4750    0.0000 C   0  0  0  0  0  0  0  0  0  0  0  0
    0.8250   -2.0942    0.0000 C   0  0  0  0  0  0  0  0  0  0  0  0
    2.2211   -0.4125    0.0000 C   0  0  0  0  0  0  0  0  0  0  0  0
    3.6490   -0.3807    0.0000 C   0  0  0  0  0  0  0  0  0  0  0  0
    0.6346   -3.8394    0.0000 C   0  0  0  0  0  0  0  0  0  0  0  0
    2.1259   -6.3461    0.0000 C   0  0  0  0  0  0  0  0  0  0  0  0
    0.0000   -2.0942    0.0000 C   0  0  0  0  0  0  0  0  0  0  0  0
    0.3807   -1.3644    0.0000 C   0  0  0  0  0  0  0  0  0  0  0  0
    2.9509    0.0000    0.0000 C   0  0  0  0  0  0  0  0  0  0  0  0
  1  9  1  0  0  0  0
  2  7  1  0  0  0  0
  2 19  1  0  0  0  0
  3 18  2  0  0  0  0
  4 10  1  0  0  0  0
  4 18  1  0  0  0  0
  5 11  1  0  0  0  0
  5 18  1  0  0  0  0
  6 14  1  0  0  0  0
  6 24  2  0  0  0  0
  7 20  2  0  0  0  0
  8  9  1  0  0  0  0
  8 10  1  0  0  0  0
  8 13  2  0  0  0  0
  9 14  1  0  0  0  0
  9 17  1  0  0  0  0
 10 11  2  0  0  0  0
 11 16  1  0  0  0  0
 12 13  1  0  0  0  0
 12 15  1  0  0  0  0
 12 16  2  0  0  0  0
 14 21  2  0  0  0  0
 15 19  2  0  0  0  0
 15 20  1  0  0  0  0
 17 22  1  0  0  0  0
 19 26  1  0  0  0  0
 20 27  1  0  0  0  0
 21 25  1  0  0  0  0
 22 23  1  0  0  0  0
 23 28  1  0  0  0  0
 23 29  1  0  0  0  0
 24 30  1  0  0  0  0
 25 30  2  0  0  0  0
 28 29  1  0  0  0  0
M  END
> <PUBCHEM_COMPOUND_ID_TYPE>
0

> <PUBCHEM_TOTAL_CHARGE>
0

> <PUBCHEM_SUBSTANCE_ID>
310933336

> <PUBCHEM_SUBSTANCE_VERSION>
1

> <PUBCHEM_EXT_DATASOURCE_NAME>
4488

> <PUBCHEM_EXT_DATASOURCE_REGID>
SCHEMBL16110748

> <PUBCHEM_SUBSTANCE_COMMENT>
InChI=1S/C23H24N4O3/c1-13-20(14(2)30-27-13)16-11-17(21-18(12-16)25-22(28)26-21)23(29,9-8-15-6-7-15)19-5-3-4-10-24-19/h3-5,10-12,15,29H,6-9H2,1-2H3,(H2,25,26,28)
InChIKey=CXYAWQUZXZAZFV-UHFFFAOYSA-N

> <PUBCHEM_SUBSTANCE_SYNONYM>
SCHEMBL16110748

> <PUBCHEM_XREF_EXT_ID>
SCHEMBL16110748

> <PUBCHEM_EXT_DATASOURCE_URL>
https://www.surechembl.org/

> <PUBCHEM_EXT_SUBSTANCE_URL>
https://www.surechembl.org/chemical/SCHEMBL16110748

> <PUBCHEM_CID_ASSOCIATIONS>
117601749  1

> <PUBCHEM_COORDINATE_TYPE>
1
3

$$$$
