310940055
  -OEChem-07211613022D

 31 34  0     1  0  0  0  0  0999 V2000
   -4.2803    8.4751    0.0000 O   0  0  0  0  0  0  0  0  0  0  0  0
   -4.2803    7.0462    0.0000 O   0  0  0  0  0  0  0  0  0  0  0  0
    0.5989    7.7606    0.0000 N   0  0  0  0  0  0  0  0  0  0  0  0
   -1.3928    7.7606    0.0000 N   0  0  3  0  0  0  0  0  0  0  0  0
   -3.0428    7.7606    0.0000 N   0  0  0  0  0  0  0  0  0  0  0  0
   -0.5678    7.7606    0.0000 C   0  0  0  0  0  0  0  0  0  0  0  0
    1.4239    7.7606    0.0000 C   0  0  0  0  0  0  0  0  0  0  0  0
    0.0155    7.1773    0.0000 C   0  0  0  0  0  0  0  0  0  0  0  0
    0.0155    8.3440    0.0000 C   0  0  0  0  0  0  0  0  0  0  0  0
   -1.8053    8.4751    0.0000 C   0  0  3  0  0  0  0  0  0  0  0  0
    1.8364    7.0462    0.0000 C   0  0  0  0  0  0  0  0  0  0  0  0
    1.8364    8.4751    0.0000 C   0  0  0  0  0  0  0  0  0  0  0  0
   -1.8053    7.0462    0.0000 C   0  0  0  0  0  0  0  0  0  0  0  0
   -2.6303    8.4751    0.0000 C   0  0  0  0  0  0  0  0  0  0  0  0
   -2.6303    7.0462    0.0000 C   0  0  0  0  0  0  0  0  0  0  0  0
   -3.8678    7.7606    0.0000 C   0  0  0  0  0  0  0  0  0  0  0  0
    1.4239    6.3317    0.0000 C   0  0  0  0  0  0  0  0  0  0  0  0
    2.6614    8.4751    0.0000 C   0  0  0  0  0  0  0  0  0  0  0  0
    2.6614    7.0462    0.0000 C   0  0  0  0  0  0  0  0  0  0  0  0
    1.4239    9.1896    0.0000 C   0  0  0  0  0  0  0  0  0  0  0  0
   -1.3928    9.1896    0.0000 C   0  0  0  0  0  0  0  0  0  0  0  0
    1.8364    5.6172    0.0000 C   0  0  0  0  0  0  0  0  0  0  0  0
    3.0739    9.1896    0.0000 C   0  0  0  0  0  0  0  0  0  0  0  0
    3.0739    6.3317    0.0000 C   0  0  0  0  0  0  0  0  0  0  0  0
    1.8364    9.9040    0.0000 C   0  0  0  0  0  0  0  0  0  0  0  0
   -5.1053    8.4751    0.0000 C   0  0  0  0  0  0  0  0  0  0  0  0
    2.6614    5.6172    0.0000 C   0  0  0  0  0  0  0  0  0  0  0  0
    2.6614    9.9040    0.0000 C   0  0  0  0  0  0  0  0  0  0  0  0
   -5.9303    8.4751    0.0000 C   0  0  0  0  0  0  0  0  0  0  0  0
   -5.5178    7.7606    0.0000 C   0  0  0  0  0  0  0  0  0  0  0  0
   -5.5178    9.1896    0.0000 C   0  0  0  0  0  0  0  0  0  0  0  0
  1 16  1  0  0  0  0
  1 26  1  0  0  0  0
  2 16  2  0  0  0  0
  3  7  1  0  0  0  0
  3  8  1  0  0  0  0
  3  9  1  0  0  0  0
  4  6  1  0  0  0  0
  4 10  1  0  0  0  0
  4 13  1  0  0  0  0
  5 14  1  0  0  0  0
  5 15  1  0  0  0  0
  5 16  1  0  0  0  0
  6  8  1  0  0  0  0
  6  9  1  0  0  0  0
  7 11  1  0  0  0  0
  7 12  1  0  0  0  0
 10 14  1  0  0  0  0
 10 21  1  0  0  0  0
 11 17  2  0  0  0  0
 11 19  1  0  0  0  0
 12 18  2  0  0  0  0
 12 20  1  0  0  0  0
 13 15  1  0  0  0  0
 17 22  1  0  0  0  0
 18 23  1  0  0  0  0
 19 24  2  0  0  0  0
 20 25  2  0  0  0  0
 22 27  2  0  0  0  0
 23 28  2  0  0  0  0
 24 27  1  0  0  0  0
 25 28  1  0  0  0  0
 26 29  1  0  0  0  0
 26 30  1  0  0  0  0
 26 31  1  0  0  0  0
M  END
> <PUBCHEM_COMPOUND_ID_TYPE>
0

> <PUBCHEM_TOTAL_CHARGE>
0

> <PUBCHEM_SUBSTANCE_ID>
310940055

> <PUBCHEM_SUBSTANCE_VERSION>
1

> <PUBCHEM_EXT_DATASOURCE_NAME>
4488

> <PUBCHEM_EXT_DATASOURCE_REGID>
SCHEMBL16117985

> <PUBCHEM_SUBSTANCE_COMMENT>
InChI=1S/C26H35N3O2/c1-20-17-27(25(30)31-26(2,3)4)15-16-29(20)23-18-28(19-23)24(21-11-7-5-8-12-21)22-13-9-6-10-14-22/h5-14,20,23-24H,15-19H2,1-4H3
InChIKey=YFOZUGBSLLTALR-UHFFFAOYSA-N

> <PUBCHEM_SUBSTANCE_SYNONYM>
SCHEMBL16117985

> <PUBCHEM_XREF_EXT_ID>
SCHEMBL16117985

> <PUBCHEM_EXT_DATASOURCE_URL>
https://www.surechembl.org/

> <PUBCHEM_EXT_SUBSTANCE_URL>
https://www.surechembl.org/chemical/SCHEMBL16117985

> <PUBCHEM_CID_ASSOCIATIONS>
117607204  1

> <PUBCHEM_COORDINATE_TYPE>
1
3

$$$$
