310933815
  -OEChem-07211613022D

 49 55  0     1  0  0  0  0  0999 V2000
    8.5303   -2.4208    0.0000 Cl  0  0  0  0  0  0  0  0  0  0  0  0
    6.9164   -2.2286    0.0000 F   0  0  0  0  0  0  0  0  0  0  0  0
    3.4967   -0.9606    0.0000 O   0  0  0  0  0  0  0  0  0  0  0  0
    5.6484   -1.4217    0.0000 O   0  0  0  0  0  0  0  0  0  0  0  0
    1.8059   -7.6850    0.0000 O   0  0  0  0  0  0  0  0  0  0  0  0
    9.2219   -0.1537    0.0000 O   0  0  0  0  0  0  0  0  0  0  0  0
    9.9520   -1.4217    0.0000 O   0  0  0  0  0  0  0  0  0  0  0  0
    4.2267   -2.2286    0.0000 N   0  0  0  0  0  0  0  0  0  0  0  0
    3.4967   -5.1105    0.0000 N   0  0  0  0  0  0  0  0  0  0  0  0
    6.2632   -0.7300    0.0000 N   0  0  0  0  0  0  0  0  0  0  0  0
    5.0337   -0.1537    0.0000 N   0  0  0  0  0  0  0  0  0  0  0  0
    6.3401   -2.6513    0.0000 N   0  0  0  0  0  0  0  0  0  0  0  0
    1.3064   -6.3017    0.0000 N   0  0  0  0  0  0  0  0  0  0  0  0
    4.9568   -2.6513    0.0000 C   0  0  3  0  0  0  0  0  0  0  0  0
    4.9568   -3.4967    0.0000 C   0  0  0  0  0  0  0  0  0  0  0  0
    4.2267   -3.8809    0.0000 C   0  0  0  0  0  0  0  0  0  0  0  0
    4.1883   -4.6878    0.0000 C   0  0  0  0  0  0  0  0  0  0  0  0
    4.2267   -1.3833    0.0000 C   0  0  0  0  0  0  0  0  0  0  0  0
    5.6484   -2.2286    0.0000 C   0  0  0  0  0  0  0  0  0  0  0  0
    3.4967   -3.4583    0.0000 C   0  0  0  0  0  0  0  0  0  0  0  0
    3.4967   -2.6513    0.0000 C   0  0  0  0  0  0  0  0  0  0  0  0
    4.9568   -0.9990    0.0000 C   0  0  0  0  0  0  0  0  0  0  0  0
    5.6484   -3.8809    0.0000 C   0  0  0  0  0  0  0  0  0  0  0  0
    4.9183   -5.1105    0.0000 C   0  0  0  0  0  0  0  0  0  0  0  0
    5.8406   -1.4986    0.0000 C   0  0  0  0  0  0  0  0  0  0  0  0
    5.6484   -4.7262    0.0000 C   0  0  0  0  0  0  0  0  0  0  0  0
    7.0701   -0.8069    0.0000 C   0  0  0  0  0  0  0  0  0  0  0  0
    5.8406    0.0000    0.0000 C   0  0  0  0  0  0  0  0  0  0  0  0
    3.4967   -5.9174    0.0000 C   0  0  0  0  0  0  0  0  0  0  0  0
    2.7666   -4.6878    0.0000 C   0  0  0  0  0  0  0  0  0  0  0  0
    2.0365   -5.8790    0.0000 C   0  0  0  0  0  0  0  0  0  0  0  0
    7.4160   -1.5754    0.0000 C   0  0  0  0  0  0  0  0  0  0  0  0
    7.0701   -2.2286    0.0000 C   0  0  0  0  0  0  0  0  0  0  0  0
    2.7666   -6.3401    0.0000 C   0  0  0  0  0  0  0  0  0  0  0  0
    2.0749   -5.0721    0.0000 C   0  0  0  0  0  0  0  0  0  0  0  0
    7.5696   -0.1537    0.0000 C   0  0  0  0  0  0  0  0  0  0  0  0
    8.2229   -1.6907    0.0000 C   0  0  0  0  0  0  0  0  0  0  0  0
    1.2296   -7.1085    0.0000 C   0  0  0  0  0  0  0  0  0  0  0  0
    7.0701   -1.4217    0.0000 C   0  0  0  0  0  0  0  0  0  0  0  0
    7.8002   -2.6513    0.0000 C   0  0  0  0  0  0  0  0  0  0  0  0
    8.3766   -0.2305    0.0000 C   0  0  0  0  0  0  0  0  0  0  0  0
    8.7224   -0.9990    0.0000 C   0  0  0  0  0  0  0  0  0  0  0  0
    0.5764   -5.9558    0.0000 C   0  0  0  0  0  0  0  0  0  0  0  0
    8.4919   -1.4217    0.0000 C   0  0  0  0  0  0  0  0  0  0  0  0
    0.4227   -7.2623    0.0000 C   0  0  0  0  0  0  0  0  0  0  0  0
    7.8002   -0.9990    0.0000 C   0  0  0  0  0  0  0  0  0  0  0  0
    8.4919   -2.2286    0.0000 C   0  0  0  0  0  0  0  0  0  0  0  0
    0.0000   -6.5706    0.0000 C   0  0  0  0  0  0  0  0  0  0  0  0
    9.2219   -0.9990    0.0000 C   0  0  0  0  0  0  0  0  0  0  0  0
  1 37  1  0  0  0  0
  2 32  1  0  0  0  0
  3 18  2  0  0  0  0
  4 19  2  0  0  0  0
  5 38  2  0  0  0  0
  6 49  2  0  0  0  0
  7 49  1  0  0  0  0
  8 14  1  0  0  0  0
  8 18  1  0  0  0  0
  8 21  1  0  0  0  0
  9 17  1  0  0  0  0
  9 29  1  0  0  0  0
  9 30  1  0  0  0  0
 10 25  1  0  0  0  0
 10 27  1  0  0  0  0
 10 28  1  0  0  0  0
 11 22  1  0  0  0  0
 11 28  2  0  0  0  0
 12 19  1  0  0  0  0
 12 33  1  0  0  0  0
 13 31  1  0  0  0  0
 13 38  1  0  0  0  0
 13 43  1  0  0  0  0
 14 15  1  0  0  0  0
 14 19  1  0  0  0  0
 15 16  2  0  0  0  0
 15 23  1  0  0  0  0
 16 17  1  0  0  0  0
 16 20  1  0  0  0  0
 17 24  2  0  0  0  0
 18 22  1  0  0  0  0
 20 21  1  0  0  0  0
 22 25  2  0  0  0  0
 23 26  2  0  0  0  0
 24 26  1  0  0  0  0
 27 32  1  0  0  0  0
 27 36  2  0  0  0  0
 29 34  1  0  0  0  0
 30 35  1  0  0  0  0
 31 34  1  0  0  0  0
 31 35  1  0  0  0  0
 32 37  2  0  0  0  0
 33 39  2  0  0  0  0
 33 40  1  0  0  0  0
 36 41  1  0  0  0  0
 37 42  1  0  0  0  0
 38 45  1  0  0  0  0
 39 46  1  0  0  0  0
 40 47  2  0  0  0  0
 41 42  2  0  0  0  0
 43 48  1  0  0  0  0
 44 46  2  0  0  0  0
 44 47  1  0  0  0  0
 44 49  1  0  0  0  0
 45 48  1  0  0  0  0
M  END
> <PUBCHEM_COMPOUND_ID_TYPE>
0

> <PUBCHEM_TOTAL_CHARGE>
0

> <PUBCHEM_SUBSTANCE_ID>
310933815

> <PUBCHEM_SUBSTANCE_VERSION>
1

> <PUBCHEM_EXT_DATASOURCE_NAME>
4488

> <PUBCHEM_EXT_DATASOURCE_REGID>
SCHEMBL16111253

> <PUBCHEM_SUBSTANCE_COMMENT>
InChI=1S/C36H34ClFN6O5/c37-27-5-2-7-30(32(27)38)42-20-28(39-21-42)35(47)44-19-15-25-26(33(44)34(46)40-23-11-9-22(10-12-23)36(48)49)4-1-6-29(25)41-17-13-24(14-18-41)43-16-3-8-31(43)45/h1-2,4-7,9-12,20-21,24,33H,3,8,13-19H2,(H,40,46)(H,48,49)
InChIKey=OHZPVCRHBZYZJT-UHFFFAOYSA-N

> <PUBCHEM_SUBSTANCE_SYNONYM>
SCHEMBL16111253

> <PUBCHEM_XREF_EXT_ID>
SCHEMBL16111253

> <PUBCHEM_EXT_DATASOURCE_URL>
https://www.surechembl.org/

> <PUBCHEM_EXT_SUBSTANCE_URL>
https://www.surechembl.org/chemical/SCHEMBL16111253

> <PUBCHEM_CID_ASSOCIATIONS>
117602164  1

> <PUBCHEM_COORDINATE_TYPE>
1
3

$$$$
