310946016
  -OEChem-07211613022D

 37 40  0     1  0  0  0  0  0999 V2000
    3.9118    0.6738    0.0000 O   0  0  0  0  0  0  0  0  0  0  0  0
    2.7843   -1.2787    0.0000 O   0  0  0  0  0  0  0  0  0  0  0  0
    0.6394    0.7838    0.0000 O   0  0  0  0  0  0  0  0  0  0  0  0
   -1.5056   -1.2787    0.0000 O   0  0  0  0  0  0  0  0  0  0  0  0
    2.7843   -2.9287    0.0000 O   0  0  0  0  0  0  0  0  0  0  0  0
    1.3544   -0.4400    0.0000 N   0  0  0  0  0  0  0  0  0  0  0  0
   -0.7906   -0.0275    0.0000 N   0  0  0  0  0  0  0  0  0  0  0  0
   -2.9356   -0.4400    0.0000 N   0  0  0  0  0  0  0  0  0  0  0  0
   -3.6918   -0.0962    0.0000 N   0  0  0  0  0  0  0  0  0  0  0  0
   -4.2419   -0.7150    0.0000 N   0  0  0  0  0  0  0  0  0  0  0  0
    3.4993   -0.0138    0.0000 C   0  0  3  0  0  0  0  0  0  0  0  0
    2.7981   -0.4125    0.0000 C   0  0  0  0  0  0  0  0  0  0  0  0
    3.1006    0.6875    0.0000 C   0  0  0  0  0  0  0  0  0  0  0  0
    2.0556   -0.0275    0.0000 C   0  0  3  0  0  0  0  0  0  0  0  0
    4.2419   -0.4400    0.0000 C   0  0  0  0  0  0  0  0  0  0  0  0
    2.0693    1.2925    0.0000 C   0  0  0  0  0  0  0  0  0  0  0  0
    0.6256   -0.0412    0.0000 C   0  0  0  0  0  0  0  0  0  0  0  0
   -0.0619   -0.4400    0.0000 C   0  0  3  0  0  0  0  0  0  0  0  0
    1.3544    1.7187    0.0000 C   0  0  0  0  0  0  0  0  0  0  0  0
   -1.4918   -0.4125    0.0000 C   0  0  0  0  0  0  0  0  0  0  0  0
   -0.0756   -1.2650    0.0000 C   0  0  0  0  0  0  0  0  0  0  0  0
   -2.2206   -0.0138    0.0000 C   0  0  3  0  0  0  0  0  0  0  0  0
    0.6531   -1.6775    0.0000 C   0  0  0  0  0  0  0  0  0  0  0  0
    1.3544    2.5162    0.0000 C   0  0  0  0  0  0  0  0  0  0  0  0
    0.6394    1.3062    0.0000 C   0  0  0  0  0  0  0  0  0  0  0  0
    0.6531   -2.4887    0.0000 C   0  0  0  0  0  0  0  0  0  0  0  0
    1.3406   -1.2787    0.0000 C   0  0  0  0  0  0  0  0  0  0  0  0
   -3.0318   -1.2650    0.0000 C   0  0  0  0  0  0  0  0  0  0  0  0
    2.0556   -2.4887    0.0000 C   0  0  0  0  0  0  0  0  0  0  0  0
   -2.2206    0.8112    0.0000 C   0  0  0  0  0  0  0  0  0  0  0  0
    1.3681   -2.9012    0.0000 C   0  0  0  0  0  0  0  0  0  0  0  0
    2.0693   -1.6912    0.0000 C   0  0  0  0  0  0  0  0  0  0  0  0
    0.6394    2.9287    0.0000 C   0  0  0  0  0  0  0  0  0  0  0  0
   -0.0619    1.7050    0.0000 C   0  0  0  0  0  0  0  0  0  0  0  0
   -3.8294   -1.4162    0.0000 C   0  0  0  0  0  0  0  0  0  0  0  0
   -0.0619    2.5300    0.0000 C   0  0  0  0  0  0  0  0  0  0  0  0
    3.5269   -2.5025    0.0000 C   0  0  0  0  0  0  0  0  0  0  0  0
  1 11  1  0  0  0  0
  1 13  1  0  0  0  0
  2 12  2  0  0  0  0
  3 17  2  0  0  0  0
  4 20  2  0  0  0  0
  5 29  1  0  0  0  0
  5 37  1  0  0  0  0
  6 14  1  0  0  0  0
  6 17  1  0  0  0  0
  7 18  1  0  0  0  0
  7 20  1  0  0  0  0
  8  9  1  0  0  0  0
  8 22  1  0  0  0  0
  8 28  1  0  0  0  0
  9 10  2  0  0  0  0
 10 35  1  0  0  0  0
 11 12  1  0  0  0  0
 11 13  1  0  0  0  0
 11 15  1  0  0  0  0
 12 14  1  0  0  0  0
 14 16  1  0  0  0  0
 16 19  1  0  0  0  0
 17 18  1  0  0  0  0
 18 21  1  0  0  0  0
 19 24  2  0  0  0  0
 19 25  1  0  0  0  0
 20 22  1  0  0  0  0
 21 23  1  0  0  0  0
 22 30  1  0  0  0  0
 23 26  2  0  0  0  0
 23 27  1  0  0  0  0
 24 33  1  0  0  0  0
 25 34  2  0  0  0  0
 26 31  1  0  0  0  0
 27 32  2  0  0  0  0
 28 35  2  0  0  0  0
 29 31  2  0  0  0  0
 29 32  1  0  0  0  0
 33 36  2  0  0  0  0
 34 36  1  0  0  0  0
M  END
> <PUBCHEM_COMPOUND_ID_TYPE>
0

> <PUBCHEM_TOTAL_CHARGE>
0

> <PUBCHEM_SUBSTANCE_ID>
310946016

> <PUBCHEM_SUBSTANCE_VERSION>
1

> <PUBCHEM_EXT_DATASOURCE_NAME>
4488

> <PUBCHEM_EXT_DATASOURCE_REGID>
SCHEMBL16124122

> <PUBCHEM_SUBSTANCE_COMMENT>
InChI=1S/C27H31N5O5/c1-18(32-14-13-28-31-32)25(34)30-23(16-20-9-11-21(36-3)12-10-20)26(35)29-22(24(33)27(2)17-37-27)15-19-7-5-4-6-8-19/h4-14,18,22-23H,15-17H2,1-3H3,(H,29,35)(H,30,34)
InChIKey=NMBQSBQVUJGTIS-UHFFFAOYSA-N

> <PUBCHEM_SUBSTANCE_SYNONYM>
SCHEMBL16124122

> <PUBCHEM_XREF_EXT_ID>
SCHEMBL16124122

> <PUBCHEM_EXT_DATASOURCE_URL>
https://www.surechembl.org/

> <PUBCHEM_EXT_SUBSTANCE_URL>
https://www.surechembl.org/chemical/SCHEMBL16124122

> <PUBCHEM_CID_ASSOCIATIONS>
117611987  1

> <PUBCHEM_COORDINATE_TYPE>
1
3

$$$$
