310947637
  -OEChem-07211613022D

 20 19  0     1  0  0  0  0  0999 V2000
   -0.2468    0.7145    0.0000 F   0  0  0  0  0  0  0  0  0  0  0  0
   -1.7862    1.1270    0.0000 F   0  0  0  0  0  0  0  0  0  0  0  0
    1.4842   -0.4125    0.0000 F   0  0  0  0  0  0  0  0  0  0  0  0
    1.1822    0.7145    0.0000 F   0  0  0  0  0  0  0  0  0  0  0  0
   -0.5487    1.2375    0.0000 F   0  0  0  0  0  0  0  0  0  0  0  0
   -1.3737    2.0625    0.0000 F   0  0  0  0  0  0  0  0  0  0  0  0
   -2.1987    1.2375    0.0000 F   0  0  0  0  0  0  0  0  0  0  0  0
    1.8967   -0.3020    0.0000 F   0  0  0  0  0  0  0  0  0  0  0  0
    2.1987    0.8250    0.0000 F   0  0  0  0  0  0  0  0  0  0  0  0
    1.0717    1.1270    0.0000 F   0  0  0  0  0  0  0  0  0  0  0  0
   -0.6593   -0.8250    0.0000 O   0  0  0  0  0  0  0  0  0  0  0  0
   -0.6593    0.0000    0.0000 C   0  0  3  0  0  0  0  0  0  0  0  0
   -1.3737    0.4125    0.0000 C   0  0  3  0  0  0  0  0  0  0  0  0
    0.7697    0.0000    0.0000 C   0  0  0  0  0  0  0  0  0  0  0  0
   -1.3737    1.2375    0.0000 C   0  0  0  0  0  0  0  0  0  0  0  0
    0.0552    0.4125    0.0000 C   0  0  0  0  0  0  0  0  0  0  0  0
    1.4842    0.4125    0.0000 C   0  0  0  0  0  0  0  0  0  0  0  0
   -2.0882    0.0000    0.0000 C   0  0  0  0  0  0  0  0  0  0  0  0
    0.0552   -1.2375    0.0000 C   0  0  0  0  0  0  0  0  0  0  0  0
    0.0552   -2.0625    0.0000 C   0  0  0  0  0  0  0  0  0  0  0  0
  1 12  1  0  0  0  0
  2 13  1  0  0  0  0
  3 14  1  0  0  0  0
  4 14  1  0  0  0  0
  5 15  1  0  0  0  0
  6 15  1  0  0  0  0
  7 15  1  0  0  0  0
  8 17  1  0  0  0  0
  9 17  1  0  0  0  0
 10 17  1  0  0  0  0
 11 12  1  0  0  0  0
 11 19  1  0  0  0  0
 12 13  1  0  0  0  0
 12 16  1  0  0  0  0
 13 15  1  0  0  0  0
 13 18  1  0  0  0  0
 14 16  1  0  0  0  0
 14 17  1  0  0  0  0
 19 20  1  0  0  0  0
M  END
> <PUBCHEM_COMPOUND_ID_TYPE>
0

> <PUBCHEM_TOTAL_CHARGE>
0

> <PUBCHEM_SUBSTANCE_ID>
310947637

> <PUBCHEM_SUBSTANCE_VERSION>
1

> <PUBCHEM_EXT_DATASOURCE_NAME>
4488

> <PUBCHEM_EXT_DATASOURCE_REGID>
SCHEMBL16125803

> <PUBCHEM_SUBSTANCE_COMMENT>
InChI=1S/C9H10F10O/c1-3-20-7(13,5(2,10)8(14,15)16)4-6(11,12)9(17,18)19/h3-4H2,1-2H3
InChIKey=IIKDUYBGMMFMHI-UHFFFAOYSA-N

> <PUBCHEM_SUBSTANCE_SYNONYM>
SCHEMBL16125803

> <PUBCHEM_XREF_EXT_ID>
SCHEMBL16125803

> <PUBCHEM_EXT_DATASOURCE_URL>
https://www.surechembl.org/

> <PUBCHEM_EXT_SUBSTANCE_URL>
https://www.surechembl.org/chemical/SCHEMBL16125803

> <PUBCHEM_CID_ASSOCIATIONS>
117613353  1

> <PUBCHEM_COORDINATE_TYPE>
1
3

$$$$
