310937979
  -OEChem-07211613022D

 19 19  0     1  0  0  0  0  0999 V2000
    2.2124   -5.3311    0.0000 Br  0  0  0  0  0  0  0  0  0  0  0  0
    1.4127   -2.4256    0.0000 O   0  0  0  0  0  0  0  0  0  0  0  0
    4.2649   -1.6260    0.0000 O   0  0  0  0  0  0  0  0  0  0  0  0
    4.9579   -2.8521    0.0000 O   0  0  0  0  0  0  0  0  0  0  0  0
    2.1058   -3.6518    0.0000 O   0  0  0  0  0  0  0  0  0  0  0  0
    4.3182   -4.8779    0.0000 N   0  0  0  0  0  0  0  0  0  0  0  0
    3.5718   -2.8521    0.0000 C   0  0  3  0  0  0  0  0  0  0  0  0
    3.5718   -3.6518    0.0000 C   0  0  0  0  0  0  0  0  0  0  0  0
    4.2649   -2.4256    0.0000 C   0  0  0  0  0  0  0  0  0  0  0  0
    2.8788   -4.1049    0.0000 C   0  0  0  0  0  0  0  0  0  0  0  0
    2.8254   -2.4523    0.0000 C   0  0  0  0  0  0  0  0  0  0  0  0
    4.2915   -4.0783    0.0000 C   0  0  0  0  0  0  0  0  0  0  0  0
    2.9055   -4.9046    0.0000 C   0  0  0  0  0  0  0  0  0  0  0  0
    2.1058   -2.8521    0.0000 C   0  0  0  0  0  0  0  0  0  0  0  0
    3.6251   -5.3311    0.0000 C   0  0  0  0  0  0  0  0  0  0  0  0
    1.4394   -1.5993    0.0000 C   0  0  0  0  0  0  0  0  0  0  0  0
    0.7197   -1.1728    0.0000 C   0  0  0  0  0  0  0  0  0  0  0  0
    0.7464   -0.3732    0.0000 C   0  0  0  0  0  0  0  0  0  0  0  0
    0.0000    0.0000    0.0000 C   0  0  0  0  0  0  0  0  0  0  0  0
  1 13  1  0  0  0  0
  2 14  1  0  0  0  0
  2 16  1  0  0  0  0
  3  9  2  0  0  0  0
  4  9  1  0  0  0  0
  5 14  2  0  0  0  0
  6 12  1  0  0  0  0
  6 15  2  0  0  0  0
  7  8  1  0  0  0  0
  7  9  1  0  0  0  0
  7 11  1  0  0  0  0
  8 10  1  0  0  0  0
  8 12  2  0  0  0  0
 10 13  2  0  0  0  0
 11 14  1  0  0  0  0
 13 15  1  0  0  0  0
 16 17  1  0  0  0  0
 17 18  1  0  0  0  0
 18 19  1  0  0  0  0
M  END
> <PUBCHEM_COMPOUND_ID_TYPE>
0

> <PUBCHEM_TOTAL_CHARGE>
0

> <PUBCHEM_SUBSTANCE_ID>
310937979

> <PUBCHEM_SUBSTANCE_VERSION>
1

> <PUBCHEM_EXT_DATASOURCE_NAME>
4488

> <PUBCHEM_EXT_DATASOURCE_REGID>
SCHEMBL16115815

> <PUBCHEM_SUBSTANCE_COMMENT>
InChI=1S/C13H16BrNO4/c1-2-3-4-19-12(16)6-11(13(17)18)9-5-10(14)8-15-7-9/h5,7-8,11H,2-4,6H2,1H3,(H,17,18)
InChIKey=VIVMNPVLJUGMCK-UHFFFAOYSA-N

> <PUBCHEM_SUBSTANCE_SYNONYM>
SCHEMBL16115815

> <PUBCHEM_XREF_EXT_ID>
SCHEMBL16115815

> <PUBCHEM_EXT_DATASOURCE_URL>
https://www.surechembl.org/

> <PUBCHEM_EXT_SUBSTANCE_URL>
https://www.surechembl.org/chemical/SCHEMBL16115815

> <PUBCHEM_CID_ASSOCIATIONS>
117605578  1

> <PUBCHEM_COORDINATE_TYPE>
1
3

$$$$
