310940821
  -OEChem-07211613022D

 41 44  0     1  0  0  0  0  0999 V2000
    5.1850    0.9744    0.0000 O   0  0  0  0  0  0  0  0  0  0  0  0
    4.0470   -0.9744    0.0000 O   0  0  0  0  0  0  0  0  0  0  0  0
    1.6856    0.9744    0.0000 O   0  0  0  0  0  0  0  0  0  0  0  0
   -0.4765   -1.1024    0.0000 O   0  0  0  0  0  0  0  0  0  0  0  0
   -2.6245    0.9744    0.0000 O   0  0  0  0  0  0  0  0  0  0  0  0
    3.8337   -2.7525    0.0000 O   0  0  0  0  0  0  0  0  0  0  0  0
    2.3969   -0.2774    0.0000 N   0  0  0  0  0  0  0  0  0  0  0  0
    0.2490    0.1352    0.0000 N   0  0  0  0  0  0  0  0  0  0  0  0
   -1.9133   -0.2774    0.0000 N   0  0  0  0  0  0  0  0  0  0  0  0
   -4.7868   -0.2774    0.0000 N   0  0  3  0  0  0  0  0  0  0  0  0
    4.7583    0.3058    0.0000 C   0  0  3  0  0  0  0  0  0  0  0  0
    4.0612   -0.1067    0.0000 C   0  0  0  0  0  0  0  0  0  0  0  0
    4.3884    0.9886    0.0000 C   0  0  0  0  0  0  0  0  0  0  0  0
    3.3215    0.2916    0.0000 C   0  0  3  0  0  0  0  0  0  0  0  0
    5.5122   -0.1352    0.0000 C   0  0  0  0  0  0  0  0  0  0  0  0
    3.3357    1.3585    0.0000 C   0  0  0  0  0  0  0  0  0  0  0  0
    1.6856    0.1494    0.0000 C   0  0  0  0  0  0  0  0  0  0  0  0
    0.9744   -0.2490    0.0000 C   0  0  3  0  0  0  0  0  0  0  0  0
    2.6103    1.7853    0.0000 C   0  0  0  0  0  0  0  0  0  0  0  0
    0.9744   -1.0883    0.0000 C   0  0  0  0  0  0  0  0  0  0  0  0
   -0.4623   -0.2347    0.0000 C   0  0  0  0  0  0  0  0  0  0  0  0
    1.6999   -1.4865    0.0000 C   0  0  0  0  0  0  0  0  0  0  0  0
    2.5249    2.5961    0.0000 C   0  0  0  0  0  0  0  0  0  0  0  0
    1.8848    1.4438    0.0000 C   0  0  0  0  0  0  0  0  0  0  0  0
   -1.1878    0.1636    0.0000 C   0  0  3  0  0  0  0  0  0  0  0  0
   -2.6387    0.1494    0.0000 C   0  0  0  0  0  0  0  0  0  0  0  0
   -3.3357   -0.2490    0.0000 C   0  0  3  0  0  0  0  0  0  0  0  0
    1.7283    2.7525    0.0000 C   0  0  0  0  0  0  0  0  0  0  0  0
    1.3300    2.0413    0.0000 C   0  0  0  0  0  0  0  0  0  0  0  0
    1.6999   -2.3258    0.0000 C   0  0  0  0  0  0  0  0  0  0  0  0
    2.3969   -1.0883    0.0000 C   0  0  0  0  0  0  0  0  0  0  0  0
    3.1224   -2.3116    0.0000 C   0  0  0  0  0  0  0  0  0  0  0  0
   -4.0755    0.1636    0.0000 C   0  0  0  0  0  0  0  0  0  0  0  0
    2.4111   -2.7241    0.0000 C   0  0  0  0  0  0  0  0  0  0  0  0
    3.1224   -1.5007    0.0000 C   0  0  0  0  0  0  0  0  0  0  0  0
   -3.3357   -1.0740    0.0000 C   0  0  0  0  0  0  0  0  0  0  0  0
   -1.1736    1.0028    0.0000 C   0  0  0  0  0  0  0  0  0  0  0  0
   -4.0613   -1.4865    0.0000 C   0  0  0  0  0  0  0  0  0  0  0  0
   -4.7725   -1.0740    0.0000 C   0  0  0  0  0  0  0  0  0  0  0  0
   -5.5122    0.1494    0.0000 C   0  0  0  0  0  0  0  0  0  0  0  0
    4.5733   -2.3258    0.0000 C   0  0  0  0  0  0  0  0  0  0  0  0
  1 11  1  0  0  0  0
  1 13  1  0  0  0  0
  2 12  2  0  0  0  0
  3 17  2  0  0  0  0
  4 21  2  0  0  0  0
  5 26  2  0  0  0  0
  6 32  1  0  0  0  0
  6 41  1  0  0  0  0
  7 14  1  0  0  0  0
  7 17  1  0  0  0  0
  8 18  1  0  0  0  0
  8 21  1  0  0  0  0
  9 25  1  0  0  0  0
  9 26  1  0  0  0  0
 10 33  1  0  0  0  0
 10 39  1  0  0  0  0
 10 40  1  0  0  0  0
 11 12  1  0  0  0  0
 11 13  1  0  0  0  0
 11 15  1  0  0  0  0
 12 14  1  0  0  0  0
 14 16  1  0  0  0  0
 16 19  1  0  0  0  0
 17 18  1  0  0  0  0
 18 20  1  0  0  0  0
 19 23  2  0  0  0  0
 19 24  1  0  0  0  0
 20 22  1  0  0  0  0
 21 25  1  0  0  0  0
 22 30  2  0  0  0  0
 22 31  1  0  0  0  0
 23 28  1  0  0  0  0
 24 29  1  0  0  0  0
 25 37  1  0  0  0  0
 26 27  1  0  0  0  0
 27 33  1  0  0  0  0
 27 36  1  0  0  0  0
 28 29  1  0  0  0  0
 30 34  1  0  0  0  0
 31 35  2  0  0  0  0
 32 34  2  0  0  0  0
 32 35  1  0  0  0  0
 36 38  1  0  0  0  0
 38 39  1  0  0  0  0
M  END
> <PUBCHEM_COMPOUND_ID_TYPE>
0

> <PUBCHEM_TOTAL_CHARGE>
0

> <PUBCHEM_SUBSTANCE_ID>
310940821

> <PUBCHEM_SUBSTANCE_VERSION>
1

> <PUBCHEM_EXT_DATASOURCE_NAME>
4488

> <PUBCHEM_EXT_DATASOURCE_REGID>
SCHEMBL16118780

> <PUBCHEM_SUBSTANCE_COMMENT>
InChI=1S/C31H44N4O6/c1-20(32-29(38)23-10-7-15-35(3)18-23)28(37)34-26(17-22-11-13-24(40-4)14-12-22)30(39)33-25(16-21-8-5-6-9-21)27(36)31(2)19-41-31/h8,11-14,20,23,25-26H,5-7,9-10,15-19H2,1-4H3,(H,32,38)(H,33,39)(H,34,37)
InChIKey=UMEXQHUFNCTKSA-UHFFFAOYSA-N

> <PUBCHEM_SUBSTANCE_SYNONYM>
SCHEMBL16118780

> <PUBCHEM_XREF_EXT_ID>
SCHEMBL16118780

> <PUBCHEM_EXT_DATASOURCE_URL>
https://www.surechembl.org/

> <PUBCHEM_EXT_SUBSTANCE_URL>
https://www.surechembl.org/chemical/SCHEMBL16118780

> <PUBCHEM_CID_ASSOCIATIONS>
117607748  1

> <PUBCHEM_COORDINATE_TYPE>
1
3

$$$$
