310929506
  -OEChem-07211613022D

 71 79  0     1  0  0  0  0  0999 V2000
   -8.0196   -3.1049    0.0000 S   0  0  0  0  0  0  0  0  0  0  0  0
    1.4290    7.4250    0.0000 F   0  0  0  0  0  0  0  0  0  0  0  0
    0.7144    7.0125    0.0000 F   0  0  0  0  0  0  0  0  0  0  0  0
    2.1434    7.0125    0.0000 F   0  0  0  0  0  0  0  0  0  0  0  0
   -6.3988   -0.2700    0.0000 O   0  0  0  0  0  0  0  0  0  0  0  0
   -6.1437   -1.6759    0.0000 O   0  0  0  0  0  0  0  0  0  0  0  0
   -2.9427   -1.0702    0.0000 O   0  0  0  0  0  0  0  0  0  0  0  0
   -3.8942   -2.3206    0.0000 O   0  0  0  0  0  0  0  0  0  0  0  0
   -7.2305   -1.6558    0.0000 O   0  0  0  0  0  0  0  0  0  0  0  0
   -8.0402   -2.2802    0.0000 O   0  0  0  0  0  0  0  0  0  0  0  0
   -7.9991   -3.9297    0.0000 O   0  0  0  0  0  0  0  0  0  0  0  0
   -1.4290   -0.8250    0.0000 O   0  0  0  0  0  0  0  0  0  0  0  0
    0.0000    1.6500    0.0000 O   0  0  0  0  0  0  0  0  0  0  0  0
   -3.9507    0.0000    0.0000 N   0  0  0  0  0  0  0  0  0  0  0  0
   -5.0536   -0.7520    0.0000 N   0  0  0  0  0  0  0  0  0  0  0  0
   -5.5810   -1.6147    0.0000 N   0  0  0  0  0  0  0  0  0  0  0  0
   -7.1949   -3.0844    0.0000 N   0  0  0  0  0  0  0  0  0  0  0  0
    0.0000   -0.8250    0.0000 N   0  0  0  0  0  0  0  0  0  0  0  0
    1.4290    4.1250    0.0000 N   0  0  0  0  0  0  0  0  0  0  0  0
   -6.1205    0.5067    0.0000 C   0  0  3  0  0  0  0  0  0  0  0  0
   -4.8802    1.3633    0.0000 C   0  0  3  0  0  0  0  0  0  0  0  0
   -5.2381    0.6200    0.0000 C   0  0  3  0  0  0  0  0  0  0  0  0
   -4.7734   -0.0616    0.0000 C   0  0  0  0  0  0  0  0  0  0  0  0
   -4.0575    1.4250    0.0000 C   0  0  0  0  0  0  0  0  0  0  0  0
   -5.8653   -0.8992    0.0000 C   0  0  0  0  0  0  0  0  0  0  0  0
   -5.9756   -2.3392    0.0000 C   0  0  3  0  0  0  0  0  0  0  0  0
   -3.7193   -0.7919    0.0000 C   0  0  0  0  0  0  0  0  0  0  0  0
   -3.5928   -0.7433    0.0000 C   0  0  3  0  0  0  0  0  0  0  0  0
   -3.5928    0.7433    0.0000 C   0  0  0  0  0  0  0  0  0  0  0  0
   -4.4010   -1.2567    0.0000 C   0  0  3  0  0  0  0  0  0  0  0  0
   -5.9550   -3.1640    0.0000 C   0  0  3  0  0  0  0  0  0  0  0  0
   -4.2614   -1.5818    0.0000 C   0  0  0  0  0  0  0  0  0  0  0  0
   -5.2511   -2.7338    0.0000 C   0  0  0  0  0  0  0  0  0  0  0  0
   -6.8003   -2.3598    0.0000 C   0  0  0  0  0  0  0  0  0  0  0  0
   -8.8444   -3.1255    0.0000 C   0  0  0  0  0  0  0  0  0  0  0  0
   -4.4010   -2.7747    0.0000 C   0  0  0  0  0  0  0  0  0  0  0  0
   -2.7884   -0.9269    0.0000 C   0  0  0  0  0  0  0  0  0  0  0  0
   -2.7884    0.9269    0.0000 C   0  0  0  0  0  0  0  0  0  0  0  0
   -6.3496   -3.8885    0.0000 C   0  0  0  0  0  0  0  0  0  0  0  0
   -9.2745   -2.4216    0.0000 C   0  0  0  0  0  0  0  0  0  0  0  0
   -9.6691   -3.1461    0.0000 C   0  0  0  0  0  0  0  0  0  0  0  0
   -2.1434   -0.4125    0.0000 C   0  0  0  0  0  0  0  0  0  0  0  0
   -3.6865   -3.1872    0.0000 C   0  0  0  0  0  0  0  0  0  0  0  0
   -5.1155   -3.1872    0.0000 C   0  0  0  0  0  0  0  0  0  0  0  0
   -2.1434    0.4125    0.0000 C   0  0  0  0  0  0  0  0  0  0  0  0
   -8.4142   -3.8295    0.0000 C   0  0  0  0  0  0  0  0  0  0  0  0
   -7.1743   -3.9091    0.0000 C   0  0  0  0  0  0  0  0  0  0  0  0
   -0.7144    0.4125    0.0000 C   0  0  0  0  0  0  0  0  0  0  0  0
   -0.7144   -0.4125    0.0000 C   0  0  0  0  0  0  0  0  0  0  0  0
   -1.4290    0.8250    0.0000 C   0  0  0  0  0  0  0  0  0  0  0  0
   -3.6865   -4.0122    0.0000 C   0  0  0  0  0  0  0  0  0  0  0  0
   -5.1155   -4.0122    0.0000 C   0  0  0  0  0  0  0  0  0  0  0  0
    0.0000    0.8250    0.0000 C   0  0  0  0  0  0  0  0  0  0  0  0
   -4.4010   -4.4247    0.0000 C   0  0  0  0  0  0  0  0  0  0  0  0
    0.7144    0.4125    0.0000 C   0  0  0  0  0  0  0  0  0  0  0  0
    0.7144   -0.4125    0.0000 C   0  0  0  0  0  0  0  0  0  0  0  0
    1.4290    0.8250    0.0000 C   0  0  0  0  0  0  0  0  0  0  0  0
    1.4290   -0.8250    0.0000 C   0  0  0  0  0  0  0  0  0  0  0  0
    2.1434    0.4125    0.0000 C   0  0  0  0  0  0  0  0  0  0  0  0
    2.1434   -0.4125    0.0000 C   0  0  0  0  0  0  0  0  0  0  0  0
    0.7144    2.0625    0.0000 C   0  0  0  0  0  0  0  0  0  0  0  0
    0.7144    2.8875    0.0000 C   0  0  0  0  0  0  0  0  0  0  0  0
    1.4290    3.3000    0.0000 C   0  0  0  0  0  0  0  0  0  0  0  0
    1.4290    5.7750    0.0000 C   0  0  0  0  0  0  0  0  0  0  0  0
    0.7144    4.5375    0.0000 C   0  0  0  0  0  0  0  0  0  0  0  0
    2.1434    4.5375    0.0000 C   0  0  0  0  0  0  0  0  0  0  0  0
    1.4290    6.6000    0.0000 C   0  0  0  0  0  0  0  0  0  0  0  0
    0.7144    5.3625    0.0000 C   0  0  0  0  0  0  0  0  0  0  0  0
    2.1434    5.3625    0.0000 C   0  0  0  0  0  0  0  0  0  0  0  0
   -6.6540    1.1360    0.0000 H   0  0  0  0  0  0  0  0  0  0  0  0
   -5.2927    2.0778    0.0000 H   0  0  0  0  0  0  0  0  0  0  0  0
  1 10  2  0  0  0  0
  1 11  2  0  0  0  0
  1 17  1  0  0  0  0
  1 35  1  0  0  0  0
  2 67  1  0  0  0  0
  3 67  1  0  0  0  0
  4 67  1  0  0  0  0
  5 20  1  0  0  0  0
  5 25  1  0  0  0  0
  6 25  2  0  0  0  0
  7 27  2  0  0  0  0
  8 32  2  0  0  0  0
  9 34  2  0  0  0  0
 12 42  1  0  0  0  0
 12 49  1  0  0  0  0
 13 53  1  0  0  0  0
 13 61  1  0  0  0  0
 14 23  1  0  0  0  0
 14 27  1  0  0  0  0
 14 28  1  0  0  0  0
 15 25  1  0  0  0  0
 15 30  1  0  0  0  0
 26 16  1  6  0  0  0
 16 32  1  0  0  0  0
 17 34  1  0  0  0  0
 18 49  2  0  0  0  0
 18 56  1  0  0  0  0
 19 63  1  0  0  0  0
 19 65  1  0  0  0  0
 19 66  1  0  0  0  0
 20 21  1  0  0  0  0
 20 22  1  0  0  0  0
 20 70  1  1  0  0  0
 21 22  1  0  0  0  0
 21 24  1  0  0  0  0
 21 71  1  1  0  0  0
 22 23  1  0  0  0  0
 24 29  1  0  0  0  0
 26 31  1  0  0  0  0
 26 33  1  0  0  0  0
 26 34  1  1  0  0  0
 30 27  1  6  0  0  0
 28 32  1  1  0  0  0
 28 37  1  0  0  0  0
 29 38  1  0  0  0  0
 30 36  1  0  0  0  0
 31 33  1  0  0  0  0
 31 39  1  1  0  0  0
 35 40  1  0  0  0  0
 35 41  1  0  0  0  0
 35 46  1  0  0  0  0
 36 43  1  0  0  0  0
 36 44  1  0  0  0  0
 37 42  1  0  0  0  0
 38 45  1  0  0  0  0
 39 47  2  0  0  0  0
 40 41  1  0  0  0  0
 43 51  1  0  0  0  0
 44 52  1  0  0  0  0
 45 50  1  0  0  0  0
 48 49  1  0  0  0  0
 48 50  1  0  0  0  0
 48 53  2  0  0  0  0
 51 54  1  0  0  0  0
 52 54  1  0  0  0  0
 53 55  1  0  0  0  0
 55 56  1  0  0  0  0
 55 57  2  0  0  0  0
 56 58  2  0  0  0  0
 57 59  1  0  0  0  0
 58 60  1  0  0  0  0
 59 60  2  0  0  0  0
 61 62  1  0  0  0  0
 62 63  1  0  0  0  0
 64 67  1  0  0  0  0
 64 68  1  0  0  0  0
 64 69  1  0  0  0  0
 65 68  1  0  0  0  0
 66 69  1  0  0  0  0
M  END
> <PUBCHEM_COMPOUND_ID_TYPE>
0

> <PUBCHEM_TOTAL_CHARGE>
0

> <PUBCHEM_SUBSTANCE_ID>
310929506

> <PUBCHEM_SUBSTANCE_VERSION>
1

> <PUBCHEM_EXT_DATASOURCE_NAME>
4488

> <PUBCHEM_EXT_DATASOURCE_REGID>
SCHEMBL16106685

> <PUBCHEM_SUBSTANCE_COMMENT>
InChI=1S/C50H67F3N6O9S/c1-3-32-29-49(32,46(62)57-69(64,65)48(2)22-23-48)56-43(60)39-21-28-67-44-36(41(35-16-10-11-18-38(35)54-44)66-27-12-24-58-25-19-33(20-26-58)50(51,52)53)17-9-5-8-15-34-37-30-59(39)45(61)40(31-13-6-4-7-14-31)55-47(63)68-42(34)37/h3,10-11,16,18,31-34,37,39-40,42H,1,4-9,12-15,17,19-30H2,2H3,(H,55,63)(H,56,60)(H,57,62)/t32-,34-,37?,39+,40+,42-,49-/m1/s1
InChIKey=PNGGEMXXDJKZIZ-IIUDUXNASA-N

> <PUBCHEM_SUBSTANCE_SYNONYM>
SCHEMBL16106685

> <PUBCHEM_XREF_EXT_ID>
SCHEMBL16106685

> <PUBCHEM_EXT_DATASOURCE_URL>
https://www.surechembl.org/

> <PUBCHEM_EXT_SUBSTANCE_URL>
https://www.surechembl.org/chemical/SCHEMBL16106685

> <PUBCHEM_CID_ASSOCIATIONS>
117598830  1

> <PUBCHEM_COORDINATE_TYPE>
1
3

> <PUBCHEM_BONDANNOTATIONS>
26  16  6
20  70  5
21  71  5
26  34  5
30  27  6
28  32  5
31  39  5

$$$$
