310938044
  -OEChem-07211613022D

 34 37  0     1  0  0  0  0  0999 V2000
    7.1693   -6.1252    0.0000 O   0  0  0  0  0  0  0  0  0  0  0  0
    8.5962   -6.1252    0.0000 O   0  0  0  0  0  0  0  0  0  0  0  0
    1.4617   -1.2529    0.0000 O   0  0  0  0  0  0  0  0  0  0  0  0
    2.1578    0.0000    0.0000 O   0  0  0  0  0  0  0  0  0  0  0  0
    9.3966   -3.4106    0.0000 N   0  0  3  0  0  0  0  0  0  0  0  0
    4.3155   -2.0534    0.0000 N   0  0  0  0  0  0  0  0  0  0  0  0
    5.0463   -3.2714    0.0000 N   0  0  0  0  0  0  0  0  0  0  0  0
    2.8538   -1.2529    0.0000 N   0  0  0  0  0  0  0  0  0  0  0  0
    8.6310   -3.6542    0.0000 C   0  0  0  0  0  0  0  0  0  0  0  0
    8.6310   -4.4895    0.0000 C   0  0  0  0  0  0  0  0  0  0  0  0
    7.9001   -4.9071    0.0000 C   0  0  0  0  0  0  0  0  0  0  0  0
    7.2040   -3.6542    0.0000 C   0  0  0  0  0  0  0  0  0  0  0  0
    7.9001   -3.2366    0.0000 C   0  0  0  0  0  0  0  0  0  0  0  0
    7.2040   -4.4895    0.0000 C   0  0  0  0  0  0  0  0  0  0  0  0
    6.4732   -3.2714    0.0000 C   0  0  0  0  0  0  0  0  0  0  0  0
    9.3966   -4.7331    0.0000 C   0  0  0  0  0  0  0  0  0  0  0  0
    9.8838   -4.0719    0.0000 C   0  0  0  0  0  0  0  0  0  0  0  0
    7.9001   -5.7076    0.0000 C   0  0  0  0  0  0  0  0  0  0  0  0
    9.6402   -2.6102    0.0000 C   0  0  0  0  0  0  0  0  0  0  0  0
    5.0115   -2.4361    0.0000 C   0  0  0  0  0  0  0  0  0  0  0  0
    5.7424   -3.6542    0.0000 C   0  0  0  0  0  0  0  0  0  0  0  0
    6.4384   -2.4361    0.0000 C   0  0  0  0  0  0  0  0  0  0  0  0
    5.7424   -2.0534    0.0000 C   0  0  0  0  0  0  0  0  0  0  0  0
    4.3155   -1.2181    0.0000 C   0  0  0  0  0  0  0  0  0  0  0  0
    3.5846   -2.4710    0.0000 C   0  0  0  0  0  0  0  0  0  0  0  0
    2.1578   -0.8353    0.0000 C   0  0  0  0  0  0  0  0  0  0  0  0
    2.8886   -2.0534    0.0000 C   0  0  0  0  0  0  0  0  0  0  0  0
    3.5846   -0.8005    0.0000 C   0  0  0  0  0  0  0  0  0  0  0  0
    9.1182   -2.0185    0.0000 C   0  0  0  0  0  0  0  0  0  0  0  0
   10.4406   -2.4710    0.0000 C   0  0  0  0  0  0  0  0  0  0  0  0
    0.7308   -0.8353    0.0000 C   0  0  0  0  0  0  0  0  0  0  0  0
    0.0000   -0.4176    0.0000 C   0  0  0  0  0  0  0  0  0  0  0  0
    1.1485   -0.1392    0.0000 C   0  0  0  0  0  0  0  0  0  0  0  0
    0.3132   -1.5661    0.0000 C   0  0  0  0  0  0  0  0  0  0  0  0
  1 18  2  0  0  0  0
  2 18  1  0  0  0  0
  3 26  1  0  0  0  0
  3 31  1  0  0  0  0
  4 26  2  0  0  0  0
  5  9  1  0  0  0  0
  5 17  1  0  0  0  0
  5 19  1  0  0  0  0
  6 20  1  0  0  0  0
  6 24  1  0  0  0  0
  6 25  1  0  0  0  0
  7 20  2  0  0  0  0
  7 21  1  0  0  0  0
  8 26  1  0  0  0  0
  8 27  1  0  0  0  0
  8 28  1  0  0  0  0
  9 10  2  0  0  0  0
  9 13  1  0  0  0  0
 10 11  1  0  0  0  0
 10 16  1  0  0  0  0
 11 14  2  0  0  0  0
 11 18  1  0  0  0  0
 12 13  2  0  0  0  0
 12 14  1  0  0  0  0
 12 15  1  0  0  0  0
 15 21  2  0  0  0  0
 15 22  1  0  0  0  0
 16 17  1  0  0  0  0
 19 29  1  0  0  0  0
 19 30  1  0  0  0  0
 20 23  1  0  0  0  0
 22 23  2  0  0  0  0
 24 28  1  0  0  0  0
 25 27  1  0  0  0  0
 31 32  1  0  0  0  0
 31 33  1  0  0  0  0
 31 34  1  0  0  0  0
M  END
> <PUBCHEM_COMPOUND_ID_TYPE>
0

> <PUBCHEM_TOTAL_CHARGE>
0

> <PUBCHEM_SUBSTANCE_ID>
310938044

> <PUBCHEM_SUBSTANCE_VERSION>
1

> <PUBCHEM_EXT_DATASOURCE_NAME>
4488

> <PUBCHEM_EXT_DATASOURCE_REGID>
SCHEMBL16115885

> <PUBCHEM_SUBSTANCE_COMMENT>
InChI=1S/C26H34N4O4/c1-17(2)30-9-8-20-21(24(31)32)14-19(15-22(20)30)18-6-7-23(27-16-18)28-10-12-29(13-11-28)25(33)34-26(3,4)5/h6-7,14-17H,8-13H2,1-5H3,(H,31,32)
InChIKey=WVKBUXLDIPNFAM-UHFFFAOYSA-N

> <PUBCHEM_SUBSTANCE_SYNONYM>
SCHEMBL16115885

> <PUBCHEM_XREF_EXT_ID>
SCHEMBL16115885

> <PUBCHEM_EXT_DATASOURCE_URL>
https://www.surechembl.org/

> <PUBCHEM_EXT_SUBSTANCE_URL>
https://www.surechembl.org/chemical/SCHEMBL16115885

> <PUBCHEM_CID_ASSOCIATIONS>
117605623  1

> <PUBCHEM_COORDINATE_TYPE>
1
3

$$$$
