310932312
  -OEChem-07211613022D

 23 26  0     1  0  0  0  0  0999 V2000
    2.7495   -1.6400    0.0000 O   0  0  0  0  0  0  0  0  0  0  0  0
    3.8831   -3.5937    0.0000 O   0  0  0  0  0  0  0  0  0  0  0  0
    4.5825   -2.3395    0.0000 O   0  0  0  0  0  0  0  0  0  0  0  0
    2.3395   -2.3395    0.0000 C   0  0  3  0  0  0  0  0  0  0  0  0
    3.1595   -2.3395    0.0000 C   0  0  3  0  0  0  0  0  0  0  0  0
    1.7606   -1.7606    0.0000 C   0  0  0  0  0  0  0  0  0  0  0  0
    1.6159   -2.7495    0.0000 C   0  0  0  0  0  0  0  0  0  0  0  0
    3.8831   -2.7495    0.0000 C   0  0  0  0  0  0  0  0  0  0  0  0
    0.9406   -1.9777    0.0000 C   0  0  0  0  0  0  0  0  0  0  0  0
    1.9536   -0.9647    0.0000 C   0  0  0  0  0  0  0  0  0  0  0  0
    1.6159   -3.5937    0.0000 C   0  0  0  0  0  0  0  0  0  0  0  0
    0.8924   -2.3636    0.0000 C   0  0  0  0  0  0  0  0  0  0  0  0
    0.3618   -1.3989    0.0000 C   0  0  0  0  0  0  0  0  0  0  0  0
    1.3747   -0.3859    0.0000 C   0  0  0  0  0  0  0  0  0  0  0  0
    4.5825   -4.0037    0.0000 C   0  0  0  0  0  0  0  0  0  0  0  0
    0.8924   -4.0037    0.0000 C   0  0  0  0  0  0  0  0  0  0  0  0
    0.1930   -2.7495    0.0000 C   0  0  0  0  0  0  0  0  0  0  0  0
    0.5789   -0.6030    0.0000 C   0  0  0  0  0  0  0  0  0  0  0  0
    0.1930   -3.5937    0.0000 C   0  0  0  0  0  0  0  0  0  0  0  0
    5.3784   -3.7866    0.0000 C   0  0  0  0  0  0  0  0  0  0  0  0
    4.7995   -4.8237    0.0000 C   0  0  0  0  0  0  0  0  0  0  0  0
    5.5955   -4.6067    0.0000 C   0  0  0  0  0  0  0  0  0  0  0  0
    0.0000    0.0000    0.0000 C   0  0  0  0  0  0  0  0  0  0  0  0
  1  4  1  0  0  0  0
  1  5  1  0  0  0  0
  2  8  1  0  0  0  0
  2 15  1  0  0  0  0
  3  8  2  0  0  0  0
  4  5  1  0  0  0  0
  4  6  1  0  0  0  0
  4  7  1  0  0  0  0
  5  8  1  0  0  0  0
  6  9  2  0  0  0  0
  6 10  1  0  0  0  0
  7 11  2  0  0  0  0
  7 12  1  0  0  0  0
  9 13  1  0  0  0  0
 10 14  2  0  0  0  0
 11 16  1  0  0  0  0
 12 17  2  0  0  0  0
 13 18  2  0  0  0  0
 14 18  1  0  0  0  0
 15 20  1  0  0  0  0
 15 21  1  0  0  0  0
 16 19  2  0  0  0  0
 17 19  1  0  0  0  0
 18 23  1  0  0  0  0
 20 22  1  0  0  0  0
 21 22  1  0  0  0  0
M  END
> <PUBCHEM_COMPOUND_ID_TYPE>
0

> <PUBCHEM_TOTAL_CHARGE>
0

> <PUBCHEM_SUBSTANCE_ID>
310932312

> <PUBCHEM_SUBSTANCE_VERSION>
1

> <PUBCHEM_EXT_DATASOURCE_NAME>
4488

> <PUBCHEM_EXT_DATASOURCE_REGID>
SCHEMBL16109676

> <PUBCHEM_SUBSTANCE_COMMENT>
InChI=1S/C20H20O3/c1-14-10-12-16(13-11-14)20(15-6-3-2-4-7-15)18(23-20)19(21)22-17-8-5-9-17/h2-4,6-7,10-13,17-18H,5,8-9H2,1H3
InChIKey=UJXWJIQWBNBFEP-UHFFFAOYSA-N

> <PUBCHEM_SUBSTANCE_SYNONYM>
SCHEMBL16109676

> <PUBCHEM_XREF_EXT_ID>
SCHEMBL16109676

> <PUBCHEM_EXT_DATASOURCE_URL>
https://www.surechembl.org/

> <PUBCHEM_EXT_SUBSTANCE_URL>
https://www.surechembl.org/chemical/SCHEMBL16109676

> <PUBCHEM_CID_ASSOCIATIONS>
117600870  1

> <PUBCHEM_COORDINATE_TYPE>
1
3

$$$$
