310932305
  -OEChem-07211613022D

 18 20  0     1  0  0  0  0  0999 V2000
    2.7496   -1.6401    0.0000 O   0  0  0  0  0  0  0  0  0  0  0  0
    3.8832   -3.5937    0.0000 O   0  0  0  0  0  0  0  0  0  0  0  0
    4.5826   -2.3395    0.0000 O   0  0  0  0  0  0  0  0  0  0  0  0
    2.3395   -2.3395    0.0000 C   0  0  3  0  0  0  0  0  0  0  0  0
    3.1596   -2.3395    0.0000 C   0  0  3  0  0  0  0  0  0  0  0  0
    1.7607   -1.7607    0.0000 C   0  0  0  0  0  0  0  0  0  0  0  0
    3.8832   -2.7496    0.0000 C   0  0  0  0  0  0  0  0  0  0  0  0
    1.6160   -2.7496    0.0000 C   0  0  0  0  0  0  0  0  0  0  0  0
    0.9406   -1.9777    0.0000 C   0  0  0  0  0  0  0  0  0  0  0  0
    1.9536   -0.9647    0.0000 C   0  0  0  0  0  0  0  0  0  0  0  0
    4.5826   -4.0037    0.0000 C   0  0  0  0  0  0  0  0  0  0  0  0
    0.3618   -1.3989    0.0000 C   0  0  0  0  0  0  0  0  0  0  0  0
    1.3748   -0.3859    0.0000 C   0  0  0  0  0  0  0  0  0  0  0  0
    0.5789   -0.6030    0.0000 C   0  0  0  0  0  0  0  0  0  0  0  0
    5.3785   -3.7867    0.0000 C   0  0  0  0  0  0  0  0  0  0  0  0
    4.7997   -4.8238    0.0000 C   0  0  0  0  0  0  0  0  0  0  0  0
    5.5956   -4.6067    0.0000 C   0  0  0  0  0  0  0  0  0  0  0  0
    0.0000    0.0000    0.0000 C   0  0  0  0  0  0  0  0  0  0  0  0
  1  4  1  0  0  0  0
  1  5  1  0  0  0  0
  2  7  1  0  0  0  0
  2 11  1  0  0  0  0
  3  7  2  0  0  0  0
  4  5  1  0  0  0  0
  4  6  1  0  0  0  0
  4  8  1  0  0  0  0
  5  7  1  0  0  0  0
  6  9  2  0  0  0  0
  6 10  1  0  0  0  0
  9 12  1  0  0  0  0
 10 13  2  0  0  0  0
 11 15  1  0  0  0  0
 11 16  1  0  0  0  0
 12 14  2  0  0  0  0
 13 14  1  0  0  0  0
 14 18  1  0  0  0  0
 15 17  1  0  0  0  0
 16 17  1  0  0  0  0
M  END
> <PUBCHEM_COMPOUND_ID_TYPE>
0

> <PUBCHEM_TOTAL_CHARGE>
0

> <PUBCHEM_SUBSTANCE_ID>
310932305

> <PUBCHEM_SUBSTANCE_VERSION>
1

> <PUBCHEM_EXT_DATASOURCE_NAME>
4488

> <PUBCHEM_EXT_DATASOURCE_REGID>
SCHEMBL16109669

> <PUBCHEM_SUBSTANCE_COMMENT>
InChI=1S/C15H18O3/c1-10-6-8-11(9-7-10)15(2)13(18-15)14(16)17-12-4-3-5-12/h6-9,12-13H,3-5H2,1-2H3
InChIKey=GTUDHVADMULAJH-UHFFFAOYSA-N

> <PUBCHEM_SUBSTANCE_SYNONYM>
SCHEMBL16109669

> <PUBCHEM_XREF_EXT_ID>
SCHEMBL16109669

> <PUBCHEM_EXT_DATASOURCE_URL>
https://www.surechembl.org/

> <PUBCHEM_EXT_SUBSTANCE_URL>
https://www.surechembl.org/chemical/SCHEMBL16109669

> <PUBCHEM_CID_ASSOCIATIONS>
117600863  1

> <PUBCHEM_COORDINATE_TYPE>
1
3

$$$$
