310946199
  -OEChem-07211613022D

 18 17  0     1  0  0  0  0  0999 V2000
    4.1530   18.6955    0.0000 S   0  0  0  0  0  0  0  0  0  0  0  0
    4.7677   17.6310    0.0000 O   0  0  0  0  0  0  0  0  0  0  0  0
    5.2177   19.3102    0.0000 O   0  0  0  0  0  0  0  0  0  0  0  0
    3.5386   19.7600    0.0000 N   0  0  3  0  0  0  0  0  0  0  0  0
    4.7677   19.7600    0.0000 C   0  0  0  0  0  0  0  0  0  0  0  0
    5.3370   20.3292    0.0000 C   0  0  0  0  0  0  0  0  0  0  0  0
    2.6692   20.6293    0.0000 C   0  0  0  0  0  0  0  0  0  0  0  0
    3.5386   17.6310    0.0000 C   0  0  0  0  0  0  0  0  0  0  0  0
    2.6692   21.8585    0.0000 C   0  0  0  0  0  0  0  0  0  0  0  0
    5.3369   22.1588    0.0000 C   0  0  0  0  0  0  0  0  0  0  0  0
    4.7602   20.9060    0.0000 C   0  0  0  0  0  0  0  0  0  0  0  0
    5.9203   19.7459    0.0000 C   0  0  0  0  0  0  0  0  0  0  0  0
    5.8843   20.8767    0.0000 C   0  0  0  0  0  0  0  0  0  0  0  0
    3.5386   22.7279    0.0000 C   0  0  0  0  0  0  0  0  0  0  0  0
    4.7677   22.7279    0.0000 C   0  0  0  0  0  0  0  0  0  0  0  0
    4.7649   21.5867    0.0000 C   0  0  0  0  0  0  0  0  0  0  0  0
    5.9204   22.7424    0.0000 C   0  0  0  0  0  0  0  0  0  0  0  0
    5.8990   21.5966    0.0000 C   0  0  0  0  0  0  0  0  0  0  0  0
  1  2  2  0  0  0  0
  1  3  2  0  0  0  0
  1  4  1  0  0  0  0
  1  8  1  0  0  0  0
  4  5  1  0  0  0  0
  4  7  1  0  0  0  0
  5  6  1  0  0  0  0
  6 11  1  0  0  0  0
  6 12  1  0  0  0  0
  6 13  1  0  0  0  0
  7  9  1  0  0  0  0
  9 14  1  0  0  0  0
 10 15  1  0  0  0  0
 10 16  1  0  0  0  0
 10 17  1  0  0  0  0
 10 18  1  0  0  0  0
 14 15  1  0  0  0  0
M  END
> <PUBCHEM_COMPOUND_ID_TYPE>
0

> <PUBCHEM_TOTAL_CHARGE>
0

> <PUBCHEM_SUBSTANCE_ID>
310946199

> <PUBCHEM_SUBSTANCE_VERSION>
1

> <PUBCHEM_EXT_DATASOURCE_NAME>
4488

> <PUBCHEM_EXT_DATASOURCE_REGID>
SCHEMBL16124311

> <PUBCHEM_SUBSTANCE_COMMENT>
InChI=1S/C14H31NO2S/c1-13(2,3)10-8-9-11-15(18(7,16)17)12-14(4,5)6/h8-12H2,1-7H3
InChIKey=WNIMTDZOWOYCDV-UHFFFAOYSA-N

> <PUBCHEM_SUBSTANCE_SYNONYM>
SCHEMBL16124311

> <PUBCHEM_XREF_EXT_ID>
SCHEMBL16124311

> <PUBCHEM_EXT_DATASOURCE_URL>
https://www.surechembl.org/

> <PUBCHEM_EXT_SUBSTANCE_URL>
https://www.surechembl.org/chemical/SCHEMBL16124311

> <PUBCHEM_CID_ASSOCIATIONS>
117612149  1

> <PUBCHEM_COORDINATE_TYPE>
1
3

> <PUBCHEM_BONDANNOTATIONS>
10  16  3
10  17  3
6  11  3
6  12  3

$$$$
