310941113
  -OEChem-07211613022D

 44 47  0     1  0  0  0  0  0999 V2000
    5.0444    0.6744    0.0000 O   0  0  0  0  0  0  0  0  0  0  0  0
    3.9158   -1.2800    0.0000 O   0  0  0  0  0  0  0  0  0  0  0  0
    1.7686    0.7846    0.0000 O   0  0  0  0  0  0  0  0  0  0  0  0
   -0.3648   -1.2800    0.0000 O   0  0  0  0  0  0  0  0  0  0  0  0
   -0.3648    1.1975    0.0000 O   0  0  0  0  0  0  0  0  0  0  0  0
   -2.5119    0.7846    0.0000 O   0  0  0  0  0  0  0  0  0  0  0  0
    3.9158   -2.9317    0.0000 O   0  0  0  0  0  0  0  0  0  0  0  0
   -5.3609    0.7846    0.0000 O   0  0  0  0  0  0  0  0  0  0  0  0
    2.4981   -0.4542    0.0000 N   0  0  0  0  0  0  0  0  0  0  0  0
    0.3510   -0.0413    0.0000 N   0  0  0  0  0  0  0  0  0  0  0  0
   -1.7961   -0.4542    0.0000 N   0  0  0  0  0  0  0  0  0  0  0  0
   -3.9295   -0.0413    0.0000 N   0  0  0  0  0  0  0  0  0  0  0  0
    4.6177    0.0000    0.0000 C   0  0  3  0  0  0  0  0  0  0  0  0
    3.9295   -0.4129    0.0000 C   0  0  0  0  0  0  0  0  0  0  0  0
    4.2461    0.6882    0.0000 C   0  0  0  0  0  0  0  0  0  0  0  0
    3.2000   -0.0138    0.0000 C   0  0  3  0  0  0  0  0  0  0  0  0
    5.3609   -0.4404    0.0000 C   0  0  0  0  0  0  0  0  0  0  0  0
    3.2000    1.2938    0.0000 C   0  0  0  0  0  0  0  0  0  0  0  0
    1.7686   -0.0276    0.0000 C   0  0  0  0  0  0  0  0  0  0  0  0
    1.0805   -0.4267    0.0000 C   0  0  3  0  0  0  0  0  0  0  0  0
    2.4981    1.7205    0.0000 C   0  0  0  0  0  0  0  0  0  0  0  0
   -0.3510   -0.4129    0.0000 C   0  0  0  0  0  0  0  0  0  0  0  0
    1.0667   -1.2525    0.0000 C   0  0  0  0  0  0  0  0  0  0  0  0
   -1.0942   -0.0138    0.0000 C   0  0  3  0  0  0  0  0  0  0  0  0
    1.7961   -1.6654    0.0000 C   0  0  0  0  0  0  0  0  0  0  0  0
    1.7824    1.3076    0.0000 C   0  0  0  0  0  0  0  0  0  0  0  0
    2.4981    2.5188    0.0000 C   0  0  0  0  0  0  0  0  0  0  0  0
   -1.0667    0.8120    0.0000 C   0  0  3  0  0  0  0  0  0  0  0  0
    2.4844   -1.2662    0.0000 C   0  0  0  0  0  0  0  0  0  0  0  0
    1.7961   -2.4912    0.0000 C   0  0  0  0  0  0  0  0  0  0  0  0
   -2.5119   -0.0413    0.0000 C   0  0  0  0  0  0  0  0  0  0  0  0
    1.0805    1.7205    0.0000 C   0  0  0  0  0  0  0  0  0  0  0  0
    1.7686    2.9317    0.0000 C   0  0  0  0  0  0  0  0  0  0  0  0
    3.2000   -2.4775    0.0000 C   0  0  0  0  0  0  0  0  0  0  0  0
    3.2138   -1.6791    0.0000 C   0  0  0  0  0  0  0  0  0  0  0  0
    2.4981   -2.8904    0.0000 C   0  0  0  0  0  0  0  0  0  0  0  0
    1.0805    2.5325    0.0000 C   0  0  0  0  0  0  0  0  0  0  0  0
   -3.2138   -0.4267    0.0000 C   0  0  0  0  0  0  0  0  0  0  0  0
   -1.7961    1.1975    0.0000 C   0  0  0  0  0  0  0  0  0  0  0  0
   -3.9295    0.7983    0.0000 C   0  0  0  0  0  0  0  0  0  0  0  0
   -4.6315   -0.4267    0.0000 C   0  0  0  0  0  0  0  0  0  0  0  0
   -4.6727    1.2112    0.0000 C   0  0  0  0  0  0  0  0  0  0  0  0
   -5.3472   -0.0138    0.0000 C   0  0  0  0  0  0  0  0  0  0  0  0
    4.6590   -2.5050    0.0000 C   0  0  0  0  0  0  0  0  0  0  0  0
  1 13  1  0  0  0  0
  1 15  1  0  0  0  0
  2 14  2  0  0  0  0
  3 19  2  0  0  0  0
  4 22  2  0  0  0  0
  5 28  1  0  0  0  0
  6 31  2  0  0  0  0
  7 34  1  0  0  0  0
  7 44  1  0  0  0  0
  8 42  1  0  0  0  0
  8 43  1  0  0  0  0
  9 16  1  0  0  0  0
  9 19  1  0  0  0  0
 10 20  1  0  0  0  0
 10 22  1  0  0  0  0
 11 24  1  0  0  0  0
 11 31  1  0  0  0  0
 12 38  1  0  0  0  0
 12 40  1  0  0  0  0
 12 41  1  0  0  0  0
 13 14  1  0  0  0  0
 13 15  1  0  0  0  0
 13 17  1  0  0  0  0
 14 16  1  0  0  0  0
 16 18  1  0  0  0  0
 18 21  1  0  0  0  0
 19 20  1  0  0  0  0
 20 23  1  0  0  0  0
 21 26  2  0  0  0  0
 21 27  1  0  0  0  0
 22 24  1  0  0  0  0
 23 25  1  0  0  0  0
 24 28  1  0  0  0  0
 25 29  2  0  0  0  0
 25 30  1  0  0  0  0
 26 32  1  0  0  0  0
 27 33  2  0  0  0  0
 28 39  1  0  0  0  0
 29 35  1  0  0  0  0
 30 36  2  0  0  0  0
 31 38  1  0  0  0  0
 32 37  2  0  0  0  0
 33 37  1  0  0  0  0
 34 35  2  0  0  0  0
 34 36  1  0  0  0  0
 40 42  1  0  0  0  0
 41 43  1  0  0  0  0
M  END
> <PUBCHEM_COMPOUND_ID_TYPE>
0

> <PUBCHEM_TOTAL_CHARGE>
0

> <PUBCHEM_SUBSTANCE_ID>
310941113

> <PUBCHEM_SUBSTANCE_VERSION>
1

> <PUBCHEM_EXT_DATASOURCE_NAME>
4488

> <PUBCHEM_EXT_DATASOURCE_REGID>
SCHEMBL16119073

> <PUBCHEM_SUBSTANCE_COMMENT>
InChI=1S/C32H42N4O8/c1-21(37)28(35-27(38)19-36-13-15-43-16-14-36)31(41)34-26(18-23-9-11-24(42-3)12-10-23)30(40)33-25(29(39)32(2)20-44-32)17-22-7-5-4-6-8-22/h4-12,21,25-26,28,37H,13-20H2,1-3H3,(H,33,40)(H,34,41)(H,35,38)
InChIKey=WIIFCSJXHGZNEG-UHFFFAOYSA-N

> <PUBCHEM_SUBSTANCE_SYNONYM>
SCHEMBL16119073

> <PUBCHEM_XREF_EXT_ID>
SCHEMBL16119073

> <PUBCHEM_EXT_DATASOURCE_URL>
https://www.surechembl.org/

> <PUBCHEM_EXT_SUBSTANCE_URL>
https://www.surechembl.org/chemical/SCHEMBL16119073

> <PUBCHEM_CID_ASSOCIATIONS>
117607996  1

> <PUBCHEM_COORDINATE_TYPE>
1
3

$$$$
