310941639
  -OEChem-07211613022D

 37 40  0     1  0  0  0  0  0999 V2000
   -2.5162    1.1903    0.0000 S   0  0  0  0  0  0  0  0  0  0  0  0
   -1.7127   -1.7127    0.0000 S   0  0  0  0  0  0  0  0  0  0  0  0
   -0.2662    2.4158    0.0000 O   0  0  0  0  0  0  0  0  0  0  0  0
    1.1803    0.7685    0.0000 O   0  0  0  0  0  0  0  0  0  0  0  0
   -2.1245   -2.4259    0.0000 O   0  0  0  0  0  0  0  0  0  0  0  0
   -1.2908   -2.4259    0.0000 O   0  0  0  0  0  0  0  0  0  0  0  0
    0.4671   -0.4771    0.0000 N   0  0  0  0  0  0  0  0  0  0  0  0
   -1.7026    2.4259    0.0000 N   0  0  0  0  0  0  0  0  0  0  0  0
   -3.1892    2.3455    0.0000 N   0  0  0  0  0  0  0  0  0  0  0  0
   -3.7417    1.7328    0.0000 N   0  0  0  0  0  0  0  0  0  0  0  0
    2.6368   -0.0553    0.0000 N   0  0  0  0  0  0  0  0  0  0  0  0
    4.0933    0.7685    0.0000 N   0  0  0  0  0  0  0  0  0  0  0  0
   -0.2662   -0.0352    0.0000 C   0  0  0  0  0  0  0  0  0  0  0  0
   -0.9693   -0.4571    0.0000 C   0  0  0  0  0  0  0  0  0  0  0  0
   -0.9794    1.2004    0.0000 C   0  0  0  0  0  0  0  0  0  0  0  0
   -0.2662    0.7785    0.0000 C   0  0  0  0  0  0  0  0  0  0  0  0
   -0.9894    2.0140    0.0000 C   0  0  0  0  0  0  0  0  0  0  0  0
   -2.4259    2.0241    0.0000 C   0  0  0  0  0  0  0  0  0  0  0  0
   -3.3299    1.0397    0.0000 C   0  0  0  0  0  0  0  0  0  0  0  0
   -1.7026   -0.0452    0.0000 C   0  0  0  0  0  0  0  0  0  0  0  0
   -1.7026    0.7785    0.0000 C   0  0  0  0  0  0  0  0  0  0  0  0
    1.1803   -0.0653    0.0000 C   0  0  0  0  0  0  0  0  0  0  0  0
   -0.9794   -1.2807    0.0000 C   0  0  0  0  0  0  0  0  0  0  0  0
    1.9236   -0.4571    0.0000 C   0  0  3  0  0  0  0  0  0  0  0  0
   -3.6614    0.2762    0.0000 C   0  0  0  0  0  0  0  0  0  0  0  0
   -4.4850    0.1858    0.0000 C   0  0  0  0  0  0  0  0  0  0  0  0
   -3.1792   -0.3767    0.0000 C   0  0  0  0  0  0  0  0  0  0  0  0
    3.3500   -0.4571    0.0000 C   0  0  0  0  0  0  0  0  0  0  0  0
    2.6469    0.7885    0.0000 C   0  0  0  0  0  0  0  0  0  0  0  0
    1.9135   -1.3008    0.0000 C   0  0  0  0  0  0  0  0  0  0  0  0
    4.0933   -0.0452    0.0000 C   0  0  0  0  0  0  0  0  0  0  0  0
    3.3601    1.1903    0.0000 C   0  0  0  0  0  0  0  0  0  0  0  0
   -2.4158   -1.3008    0.0000 C   0  0  0  0  0  0  0  0  0  0  0  0
   -4.8165   -0.5675    0.0000 C   0  0  0  0  0  0  0  0  0  0  0  0
   -3.5006   -1.1200    0.0000 C   0  0  0  0  0  0  0  0  0  0  0  0
   -4.3344   -1.2104    0.0000 C   0  0  0  0  0  0  0  0  0  0  0  0
    4.8165    1.1803    0.0000 C   0  0  0  0  0  0  0  0  0  0  0  0
  1 18  1  0  0  0  0
  1 19  1  0  0  0  0
  2  5  2  0  0  0  0
  2  6  2  0  0  0  0
  2 23  1  0  0  0  0
  2 33  1  0  0  0  0
  3 17  2  0  0  0  0
  4 22  2  0  0  0  0
  7 13  1  0  0  0  0
  7 22  1  0  0  0  0
  8 17  1  0  0  0  0
  8 18  1  0  0  0  0
  9 10  1  0  0  0  0
  9 18  2  0  0  0  0
 10 19  2  0  0  0  0
 11 24  1  0  0  0  0
 11 28  1  0  0  0  0
 11 29  1  0  0  0  0
 12 31  1  0  0  0  0
 12 32  1  0  0  0  0
 12 37  1  0  0  0  0
 13 14  2  0  0  0  0
 13 16  1  0  0  0  0
 14 20  1  0  0  0  0
 14 23  1  0  0  0  0
 15 16  2  0  0  0  0
 15 17  1  0  0  0  0
 15 21  1  0  0  0  0
 19 25  1  0  0  0  0
 20 21  2  0  0  0  0
 22 24  1  0  0  0  0
 24 30  1  0  0  0  0
 25 26  2  0  0  0  0
 25 27  1  0  0  0  0
 26 34  1  0  0  0  0
 27 35  2  0  0  0  0
 28 31  1  0  0  0  0
 29 32  1  0  0  0  0
 34 36  2  0  0  0  0
 35 36  1  0  0  0  0
M  END
> <PUBCHEM_COMPOUND_ID_TYPE>
0

> <PUBCHEM_TOTAL_CHARGE>
0

> <PUBCHEM_SUBSTANCE_ID>
310941639

> <PUBCHEM_SUBSTANCE_VERSION>
1

> <PUBCHEM_EXT_DATASOURCE_NAME>
4488

> <PUBCHEM_EXT_DATASOURCE_REGID>
SCHEMBL16119670

> <PUBCHEM_SUBSTANCE_COMMENT>
InChI=1S/C25H30N6O4S2/c1-17(31-13-11-30(2)12-14-31)22(32)26-21-15-19(9-10-20(21)16-37(3,34)35)23(33)27-25-29-28-24(36-25)18-7-5-4-6-8-18/h4-10,15,17H,11-14,16H2,1-3H3,(H,26,32)(H,27,29,33)
InChIKey=TUXONIDNAJFNRA-UHFFFAOYSA-N

> <PUBCHEM_SUBSTANCE_SYNONYM>
SCHEMBL16119670

> <PUBCHEM_XREF_EXT_ID>
SCHEMBL16119670

> <PUBCHEM_EXT_DATASOURCE_URL>
https://www.surechembl.org/

> <PUBCHEM_EXT_SUBSTANCE_URL>
https://www.surechembl.org/chemical/SCHEMBL16119670

> <PUBCHEM_CID_ASSOCIATIONS>
86292834  1

> <PUBCHEM_COORDINATE_TYPE>
1
3

$$$$
