310946573
  -OEChem-07211613022D

 15 14  0     1  0  0  0  0  0999 V2000
    3.7382    8.5704    0.0000 O   0  0  0  0  0  0  0  0  0  0  0  0
    4.4526    7.3329    0.0000 O   0  0  0  0  0  0  0  0  0  0  0  0
    4.4526    6.5079    0.0000 O   0  0  0  0  0  0  0  0  0  0  0  0
    0.8803    7.7454    0.0000 O   0  0  0  0  0  0  0  0  0  0  0  0
    1.5947    6.5079    0.0000 O   0  0  0  0  0  0  0  0  0  0  0  0
    3.0237    6.5079    0.0000 N   0  0  0  0  0  0  0  0  0  0  0  0
    3.0237    7.3329    0.0000 C   0  0  3  0  0  0  0  0  0  0  0  0
    3.7382    7.7454    0.0000 C   0  0  0  0  0  0  0  0  0  0  0  0
    2.3092    7.7454    0.0000 C   0  0  0  0  0  0  0  0  0  0  0  0
    3.7382    6.0954    0.0000 C   0  0  0  0  0  0  0  0  0  0  0  0
    1.5947    7.3329    0.0000 C   0  0  0  0  0  0  0  0  0  0  0  0
    3.7382    5.2704    0.0000 C   0  0  0  0  0  0  0  0  0  0  0  0
    4.4526    4.8579    0.0000 C   0  0  0  0  0  0  0  0  0  0  0  0
    4.4526    4.0329    0.0000 C   0  0  0  0  0  0  0  0  0  0  0  0
    5.1671    3.6204    0.0000 C   0  0  0  0  0  0  0  0  0  0  0  0
  1  8  2  0  0  0  0
  2  8  1  0  0  0  0
  3 10  2  0  0  0  0
  4 11  2  0  0  0  0
  5 11  1  0  0  0  0
  6  7  1  0  0  0  0
  6 10  1  0  0  0  0
  7  8  1  0  0  0  0
  7  9  1  0  0  0  0
  9 11  1  0  0  0  0
 10 12  1  0  0  0  0
 12 13  1  0  0  0  0
 13 14  1  0  0  0  0
 14 15  1  0  0  0  0
M  END
> <PUBCHEM_COMPOUND_ID_TYPE>
0

> <PUBCHEM_TOTAL_CHARGE>
0

> <PUBCHEM_SUBSTANCE_ID>
310946573

> <PUBCHEM_SUBSTANCE_VERSION>
1

> <PUBCHEM_EXT_DATASOURCE_NAME>
4488

> <PUBCHEM_EXT_DATASOURCE_REGID>
SCHEMBL16124694

> <PUBCHEM_SUBSTANCE_COMMENT>
InChI=1S/C9H15NO5/c1-2-3-4-7(11)10-6(9(14)15)5-8(12)13/h6H,2-5H2,1H3,(H,10,11)(H,12,13)(H,14,15)
InChIKey=XPBPPHAUCFFOBR-UHFFFAOYSA-N

> <PUBCHEM_SUBSTANCE_SYNONYM>
SCHEMBL16124694

> <PUBCHEM_XREF_EXT_ID>
SCHEMBL16124694

> <PUBCHEM_EXT_DATASOURCE_URL>
https://www.surechembl.org/

> <PUBCHEM_EXT_SUBSTANCE_URL>
https://www.surechembl.org/chemical/SCHEMBL16124694

> <PUBCHEM_CID_ASSOCIATIONS>
84365589  1

> <PUBCHEM_COORDINATE_TYPE>
1
3

$$$$
