310931026
  -OEChem-07211613022D

 30 32  0     1  0  0  0  0  0999 V2000
    0.3090   -2.0255    0.0000 F   0  0  0  0  0  0  0  0  0  0  0  0
    0.3090   -3.4674    0.0000 F   0  0  0  0  0  0  0  0  0  0  0  0
    1.1329   -2.0255    0.0000 F   0  0  0  0  0  0  0  0  0  0  0  0
    4.2227   -1.4419    0.0000 O   0  0  0  0  0  0  0  0  0  0  0  0
    0.7209   -5.2183    0.0000 O   0  0  0  0  0  0  0  0  0  0  0  0
    4.9780   -1.9225    0.0000 O   0  0  0  0  0  0  0  0  0  0  0  0
    5.6989   -3.1584    0.0000 O   0  0  0  0  0  0  0  0  0  0  0  0
    2.9181   -1.4419    0.0000 N   0  0  0  0  0  0  0  0  0  0  0  0
    3.1584   -0.6866    0.0000 N   0  0  0  0  0  0  0  0  0  0  0  0
    2.8494   -3.1584    0.0000 C   0  0  0  0  0  0  0  0  0  0  0  0
    2.1285   -4.3943    0.0000 C   0  0  0  0  0  0  0  0  0  0  0  0
    1.4075   -3.1584    0.0000 C   0  0  0  0  0  0  0  0  0  0  0  0
    3.5704   -2.7464    0.0000 C   0  0  3  0  0  0  0  0  0  0  0  0
    2.1285   -5.2183    0.0000 C   0  0  0  0  0  0  0  0  0  0  0  0
    2.8494   -3.9824    0.0000 C   0  0  0  0  0  0  0  0  0  0  0  0
    2.1285   -2.7464    0.0000 C   0  0  0  0  0  0  0  0  0  0  0  0
    1.4075   -3.9824    0.0000 C   0  0  0  0  0  0  0  0  0  0  0  0
    3.5704   -1.9225    0.0000 C   0  0  0  0  0  0  0  0  0  0  0  0
    0.7209   -2.7464    0.0000 C   0  0  0  0  0  0  0  0  0  0  0  0
    1.4075   -5.6302    0.0000 C   0  0  0  0  0  0  0  0  0  0  0  0
    4.2570   -3.1584    0.0000 C   0  0  0  0  0  0  0  0  0  0  0  0
    2.8494   -5.6302    0.0000 C   0  0  0  0  0  0  0  0  0  0  0  0
    3.9824   -0.6523    0.0000 C   0  0  0  0  0  0  0  0  0  0  0  0
    2.8494   -6.4542    0.0000 C   0  0  0  0  0  0  0  0  0  0  0  0
    1.4075   -6.4542    0.0000 C   0  0  0  0  0  0  0  0  0  0  0  0
    4.9780   -2.7464    0.0000 C   0  0  0  0  0  0  0  0  0  0  0  0
    2.1285   -6.8661    0.0000 C   0  0  0  0  0  0  0  0  0  0  0  0
    4.4630    0.0000    0.0000 C   0  0  0  0  0  0  0  0  0  0  0  0
    3.5704   -6.8318    0.0000 C   0  0  0  0  0  0  0  0  0  0  0  0
    0.0000   -5.6302    0.0000 C   0  0  0  0  0  0  0  0  0  0  0  0
  1 19  1  0  0  0  0
  2 19  1  0  0  0  0
  3 19  1  0  0  0  0
  4 18  1  0  0  0  0
  4 23  1  0  0  0  0
  5 20  1  0  0  0  0
  5 30  1  0  0  0  0
  6 26  2  0  0  0  0
  7 26  1  0  0  0  0
  8  9  1  0  0  0  0
  8 18  2  0  0  0  0
  9 23  2  0  0  0  0
 10 13  1  0  0  0  0
 10 15  1  0  0  0  0
 10 16  2  0  0  0  0
 11 14  1  0  0  0  0
 11 15  2  0  0  0  0
 11 17  1  0  0  0  0
 12 16  1  0  0  0  0
 12 17  2  0  0  0  0
 12 19  1  0  0  0  0
 13 18  1  0  0  0  0
 13 21  1  0  0  0  0
 14 20  2  0  0  0  0
 14 22  1  0  0  0  0
 20 25  1  0  0  0  0
 21 26  1  0  0  0  0
 22 24  2  0  0  0  0
 23 28  1  0  0  0  0
 24 27  1  0  0  0  0
 24 29  1  0  0  0  0
 25 27  2  0  0  0  0
M  END
> <PUBCHEM_COMPOUND_ID_TYPE>
0

> <PUBCHEM_TOTAL_CHARGE>
0

> <PUBCHEM_SUBSTANCE_ID>
310931026

> <PUBCHEM_SUBSTANCE_VERSION>
1

> <PUBCHEM_EXT_DATASOURCE_NAME>
4488

> <PUBCHEM_EXT_DATASOURCE_REGID>
SCHEMBL16108327

> <PUBCHEM_SUBSTANCE_COMMENT>
InChI=1S/C21H19F3N2O4/c1-11-4-5-18(29-3)16(6-11)13-7-14(9-15(8-13)21(22,23)24)17(10-19(27)28)20-26-25-12(2)30-20/h4-9,17H,10H2,1-3H3,(H,27,28)
InChIKey=BIKTYDFBMSQETH-UHFFFAOYSA-N

> <PUBCHEM_SUBSTANCE_SYNONYM>
SCHEMBL16108327

> <PUBCHEM_XREF_EXT_ID>
SCHEMBL16108327

> <PUBCHEM_EXT_DATASOURCE_URL>
https://www.surechembl.org/

> <PUBCHEM_EXT_SUBSTANCE_URL>
https://www.surechembl.org/chemical/SCHEMBL16108327

> <PUBCHEM_CID_ASSOCIATIONS>
86281944  1

> <PUBCHEM_COORDINATE_TYPE>
1
3

$$$$
