310945484
  -OEChem-07211613022D

 23 25  0     1  0  0  0  0  0999 V2000
    2.8456    2.4173    0.0000 F   0  0  0  0  0  0  0  0  0  0  0  0
   -2.2939    0.8784    0.0000 O   0  0  0  0  0  0  0  0  0  0  0  0
    0.5082    0.1234    0.0000 N   0  0  0  0  0  0  0  0  0  0  0  0
    2.5262    1.0380    0.0000 N   0  0  0  0  0  0  0  0  0  0  0  0
   -0.1742   -1.9962    0.0000 N   0  0  0  0  0  0  0  0  0  0  0  0
    1.1615    0.6170    0.0000 C   0  0  0  0  0  0  0  0  0  0  0  0
    0.9292    1.3865    0.0000 C   0  0  0  0  0  0  0  0  0  0  0  0
   -0.1597    0.6025    0.0000 C   0  0  0  0  0  0  0  0  0  0  0  0
    0.1016    1.3865    0.0000 C   0  0  0  0  0  0  0  0  0  0  0  0
    1.9745    0.4283    0.0000 C   0  0  0  0  0  0  0  0  0  0  0  0
    1.4808    1.9818    0.0000 C   0  0  0  0  0  0  0  0  0  0  0  0
   -0.9437    0.4428    0.0000 C   0  0  0  0  0  0  0  0  0  0  0  0
   -0.4210    1.9672    0.0000 C   0  0  0  0  0  0  0  0  0  0  0  0
    0.5082   -0.7041    0.0000 C   0  0  0  0  0  0  0  0  0  0  0  0
    2.2939    1.8075    0.0000 C   0  0  0  0  0  0  0  0  0  0  0  0
   -1.4954    1.0526    0.0000 C   0  0  0  0  0  0  0  0  0  0  0  0
   -1.2341    1.8221    0.0000 C   0  0  0  0  0  0  0  0  0  0  0  0
   -0.1742   -1.1687    0.0000 C   0  0  3  0  0  0  0  0  0  0  0  0
    2.2939   -0.4574    0.0000 C   0  0  0  0  0  0  0  0  0  0  0  0
   -0.9001   -0.7767    0.0000 C   0  0  0  0  0  0  0  0  0  0  0  0
   -2.8456    1.5026    0.0000 C   0  0  0  0  0  0  0  0  0  0  0  0
    0.5517   -2.4173    0.0000 C   0  0  0  0  0  0  0  0  0  0  0  0
   -0.9001   -2.4173    0.0000 C   0  0  0  0  0  0  0  0  0  0  0  0
  1 15  1  0  0  0  0
  2 16  1  0  0  0  0
  2 21  1  0  0  0  0
  3  6  1  0  0  0  0
  3  8  1  0  0  0  0
  3 14  1  0  0  0  0
  4 10  2  0  0  0  0
  4 15  1  0  0  0  0
  5 18  1  0  0  0  0
  5 22  1  0  0  0  0
  5 23  1  0  0  0  0
  6  7  2  0  0  0  0
  6 10  1  0  0  0  0
  7  9  1  0  0  0  0
  7 11  1  0  0  0  0
  8  9  2  0  0  0  0
  8 12  1  0  0  0  0
  9 13  1  0  0  0  0
 10 19  1  0  0  0  0
 11 15  2  0  0  0  0
 12 16  2  0  0  0  0
 13 17  2  0  0  0  0
 14 18  1  0  0  0  0
 16 17  1  0  0  0  0
 18 20  1  0  0  0  0
M  END
> <PUBCHEM_COMPOUND_ID_TYPE>
0

> <PUBCHEM_TOTAL_CHARGE>
0

> <PUBCHEM_SUBSTANCE_ID>
310945484

> <PUBCHEM_SUBSTANCE_VERSION>
1

> <PUBCHEM_EXT_DATASOURCE_NAME>
4488

> <PUBCHEM_EXT_DATASOURCE_REGID>
SCHEMBL16123582

> <PUBCHEM_SUBSTANCE_COMMENT>
InChI=1S/C18H22FN3O/c1-11(21(3)4)10-22-16-8-13(23-5)6-7-14(16)15-9-17(19)20-12(2)18(15)22/h6-9,11H,10H2,1-5H3
InChIKey=WYFMSMJZIYRINQ-UHFFFAOYSA-N

> <PUBCHEM_SUBSTANCE_SYNONYM>
SCHEMBL16123582

> <PUBCHEM_XREF_EXT_ID>
SCHEMBL16123582

> <PUBCHEM_EXT_DATASOURCE_URL>
https://www.surechembl.org/

> <PUBCHEM_EXT_SUBSTANCE_URL>
https://www.surechembl.org/chemical/SCHEMBL16123582

> <PUBCHEM_CID_ASSOCIATIONS>
117611527  1

> <PUBCHEM_COORDINATE_TYPE>
1
3

$$$$
