310945579
  -OEChem-07211613022D

 28 29  0     1  0  0  0  0  0999 V2000
   -2.0665    1.8178    0.0000 O   0  0  0  0  0  0  0  0  0  0  0  0
    1.4168    0.3525    0.0000 O   0  0  0  0  0  0  0  0  0  0  0  0
    2.7853   -0.1313    0.0000 O   0  0  0  0  0  0  0  0  0  0  0  0
   -2.0665   -1.4860    0.0000 N   0  0  0  0  0  0  0  0  0  0  0  0
   -2.7300   -1.9836    0.0000 N   0  0  0  0  0  0  0  0  0  0  0  0
   -0.0346   -2.3153    0.0000 N   0  0  3  0  0  0  0  0  0  0  0  0
    1.7624   -1.0850    0.0000 N   0  0  0  0  0  0  0  0  0  0  0  0
   -1.4030   -1.9560    0.0000 C   0  0  0  0  0  0  0  0  0  0  0  0
   -2.0665   -0.6428    0.0000 C   0  0  0  0  0  0  0  0  0  0  0  0
   -1.6657   -2.7438    0.0000 C   0  0  0  0  0  0  0  0  0  0  0  0
   -1.3615   -0.2281    0.0000 C   0  0  0  0  0  0  0  0  0  0  0  0
   -2.7853   -0.2281    0.0000 C   0  0  0  0  0  0  0  0  0  0  0  0
   -0.6290   -1.7071    0.0000 C   0  0  0  0  0  0  0  0  0  0  0  0
   -2.4812   -2.7438    0.0000 C   0  0  0  0  0  0  0  0  0  0  0  0
   -2.0665    1.0160    0.0000 C   0  0  0  0  0  0  0  0  0  0  0  0
   -1.3615    0.5875    0.0000 C   0  0  0  0  0  0  0  0  0  0  0  0
   -2.7853    0.5875    0.0000 C   0  0  0  0  0  0  0  0  0  0  0  0
    0.7394   -2.0804    0.0000 C   0  0  0  0  0  0  0  0  0  0  0  0
    0.5875    0.2005    0.0000 C   0  0  0  0  0  0  0  0  0  0  0  0
    1.9836   -0.2834    0.0000 C   0  0  0  0  0  0  0  0  0  0  0  0
   -1.3477    2.2600    0.0000 C   0  0  0  0  0  0  0  0  0  0  0  0
    0.9607   -1.2786    0.0000 C   0  0  0  0  0  0  0  0  0  0  0  0
   -0.2695   -3.1033    0.0000 C   0  0  0  0  0  0  0  0  0  0  0  0
    0.3802    0.9330    0.0000 C   0  0  0  0  0  0  0  0  0  0  0  0
    0.7533   -0.5461    0.0000 C   0  0  0  0  0  0  0  0  0  0  0  0
   -0.2281   -0.0069    0.0000 C   0  0  0  0  0  0  0  0  0  0  0  0
   -0.6151    1.8316    0.0000 C   0  0  0  0  0  0  0  0  0  0  0  0
   -1.3477    3.1033    0.0000 C   0  0  0  0  0  0  0  0  0  0  0  0
  1 15  1  0  0  0  0
  1 21  1  0  0  0  0
  2 19  1  0  0  0  0
  2 20  1  0  0  0  0
  3 20  2  0  0  0  0
  4  5  1  0  0  0  0
  4  8  1  0  0  0  0
  4  9  1  0  0  0  0
  5 14  2  0  0  0  0
  6 13  1  0  0  0  0
  6 18  1  0  0  0  0
  6 23  1  0  0  0  0
  7 20  1  0  0  0  0
  7 22  1  0  0  0  0
  8 10  2  0  0  0  0
  8 13  1  0  0  0  0
  9 11  2  0  0  0  0
  9 12  1  0  0  0  0
 10 14  1  0  0  0  0
 11 16  1  0  0  0  0
 12 17  2  0  0  0  0
 15 16  2  0  0  0  0
 15 17  1  0  0  0  0
 18 22  1  0  0  0  0
 19 24  1  0  0  0  0
 19 25  1  0  0  0  0
 19 26  1  0  0  0  0
 21 27  1  0  0  0  0
 21 28  1  0  0  0  0
M  END
> <PUBCHEM_COMPOUND_ID_TYPE>
0

> <PUBCHEM_TOTAL_CHARGE>
0

> <PUBCHEM_SUBSTANCE_ID>
310945579

> <PUBCHEM_SUBSTANCE_VERSION>
1

> <PUBCHEM_EXT_DATASOURCE_NAME>
4488

> <PUBCHEM_EXT_DATASOURCE_REGID>
SCHEMBL16123677

> <PUBCHEM_SUBSTANCE_COMMENT>
InChI=1S/C21H32N4O3/c1-16(2)27-19-9-7-17(8-10-19)25-18(11-12-23-25)15-24(6)14-13-22-20(26)28-21(3,4)5/h7-12,16H,13-15H2,1-6H3,(H,22,26)
InChIKey=CFRBYECMYWRQLL-UHFFFAOYSA-N

> <PUBCHEM_SUBSTANCE_SYNONYM>
SCHEMBL16123677

> <PUBCHEM_XREF_EXT_ID>
SCHEMBL16123677

> <PUBCHEM_EXT_DATASOURCE_URL>
https://www.surechembl.org/

> <PUBCHEM_EXT_SUBSTANCE_URL>
https://www.surechembl.org/chemical/SCHEMBL16123677

> <PUBCHEM_CID_ASSOCIATIONS>
117611607  1

> <PUBCHEM_COORDINATE_TYPE>
1
3

$$$$
