310932249
  -OEChem-07211613022D

 33 37  0     1  0  0  0  0  0999 V2000
    0.0000   -4.3476    0.0000 F   0  0  0  0  0  0  0  0  0  0  0  0
    0.8350   -2.8504    0.0000 O   0  0  0  0  0  0  0  0  0  0  0  0
    4.2036   -2.8504    0.0000 O   0  0  0  0  0  0  0  0  0  0  0  0
    2.4761   -5.7008    0.0000 O   0  0  0  0  0  0  0  0  0  0  0  0
    4.5491   -5.0386    0.0000 O   0  0  0  0  0  0  0  0  0  0  0  0
    2.9368   -3.5702    0.0000 N   0  0  0  0  0  0  0  0  0  0  0  0
    4.1460   -4.2900    0.0000 N   0  0  0  0  0  0  0  0  0  0  0  0
    4.9810   -2.9080    0.0000 N   0  0  0  0  0  0  0  0  0  0  0  0
    2.4761    0.0000    0.0000 N   0  0  0  0  0  0  0  0  0  0  0  0
    2.5049   -2.8504    0.0000 C   0  0  3  0  0  0  0  0  0  0  0  0
    2.0730   -3.5990    0.0000 C   0  0  0  0  0  0  0  0  0  0  0  0
    2.0730   -2.1306    0.0000 C   0  0  0  0  0  0  0  0  0  0  0  0
    3.7429   -3.5702    0.0000 C   0  0  3  0  0  0  0  0  0  0  0  0
    1.2668   -3.5990    0.0000 C   0  0  0  0  0  0  0  0  0  0  0  0
    1.2668   -2.1306    0.0000 C   0  0  0  0  0  0  0  0  0  0  0  0
    2.9368   -2.1594    0.0000 C   0  0  0  0  0  0  0  0  0  0  0  0
    4.5779   -3.5990    0.0000 C   0  0  0  0  0  0  0  0  0  0  0  0
    2.5049   -4.3188    0.0000 C   0  0  0  0  0  0  0  0  0  0  0  0
    0.8350   -4.3188    0.0000 C   0  0  0  0  0  0  0  0  0  0  0  0
    2.5049   -1.4108    0.0000 C   0  0  0  0  0  0  0  0  0  0  0  0
    3.7429   -2.1594    0.0000 C   0  0  0  0  0  0  0  0  0  0  0  0
    2.0730   -4.9810    0.0000 C   0  0  0  0  0  0  0  0  0  0  0  0
    0.8350   -1.4108    0.0000 C   0  0  0  0  0  0  0  0  0  0  0  0
    1.2668   -4.9810    0.0000 C   0  0  0  0  0  0  0  0  0  0  0  0
    2.0730   -0.7198    0.0000 C   0  0  0  0  0  0  0  0  0  0  0  0
    4.9810   -4.3188    0.0000 C   0  0  0  0  0  0  0  0  0  0  0  0
    1.2668   -0.7198    0.0000 C   0  0  0  0  0  0  0  0  0  0  0  0
    5.8160   -4.3188    0.0000 C   0  0  0  0  0  0  0  0  0  0  0  0
    5.8160   -2.8792    0.0000 C   0  0  0  0  0  0  0  0  0  0  0  0
    6.2191   -3.6278    0.0000 C   0  0  0  0  0  0  0  0  0  0  0  0
    4.9522   -5.7584    0.0000 C   0  0  0  0  0  0  0  0  0  0  0  0
    3.3111   -5.7296    0.0000 C   0  0  0  0  0  0  0  0  0  0  0  0
    5.7872   -5.7584    0.0000 C   0  0  0  0  0  0  0  0  0  0  0  0
  1 19  1  0  0  0  0
  2 14  1  0  0  0  0
  2 15  1  0  0  0  0
  3 13  1  0  0  0  0
  3 21  1  0  0  0  0
  4 22  1  0  0  0  0
  4 32  1  0  0  0  0
  5 26  1  0  0  0  0
  5 31  1  0  0  0  0
  6 10  1  0  0  0  0
  6 13  1  0  0  0  0
  7 13  1  0  0  0  0
  8 17  1  0  0  0  0
  8 29  2  0  0  0  0
  9 25  1  0  0  0  0
 10 11  1  0  0  0  0
 10 12  1  0  0  0  0
 10 16  1  0  0  0  0
 11 14  2  0  0  0  0
 11 18  1  0  0  0  0
 12 15  2  0  0  0  0
 12 20  1  0  0  0  0
 13 17  1  0  0  0  0
 14 19  1  0  0  0  0
 15 23  1  0  0  0  0
 16 21  1  0  0  0  0
 17 26  2  0  0  0  0
 18 22  2  0  0  0  0
 19 24  2  0  0  0  0
 20 25  2  0  0  0  0
 22 24  1  0  0  0  0
 23 27  2  0  0  0  0
 25 27  1  0  0  0  0
 26 28  1  0  0  0  0
 28 30  2  0  0  0  0
 29 30  1  0  0  0  0
 31 33  1  0  0  0  0
M  END
> <PUBCHEM_COMPOUND_ID_TYPE>
0

> <PUBCHEM_TOTAL_CHARGE>
0

> <PUBCHEM_SUBSTANCE_ID>
310932249

> <PUBCHEM_SUBSTANCE_VERSION>
1

> <PUBCHEM_EXT_DATASOURCE_NAME>
4488

> <PUBCHEM_EXT_DATASOURCE_REGID>
SCHEMBL16109607

> <PUBCHEM_SUBSTANCE_COMMENT>
InChI=1S/C24H25FN4O4/c1-3-31-20-5-4-9-28-22(20)24(27)29-23(8-10-32-24)16-11-14(26)6-7-19(16)33-21-17(23)12-15(30-2)13-18(21)25/h4-7,9,11-13,29H,3,8,10,26-27H2,1-2H3
InChIKey=MQQYZMPAIHECPX-UHFFFAOYSA-N

> <PUBCHEM_SUBSTANCE_SYNONYM>
SCHEMBL16109607

> <PUBCHEM_XREF_EXT_ID>
SCHEMBL16109607

> <PUBCHEM_EXT_DATASOURCE_URL>
https://www.surechembl.org/

> <PUBCHEM_EXT_SUBSTANCE_URL>
https://www.surechembl.org/chemical/SCHEMBL16109607

> <PUBCHEM_CID_ASSOCIATIONS>
117600822  1

> <PUBCHEM_COORDINATE_TYPE>
1
3

$$$$
