310934914
  -OEChem-07211613022D

 37 42  0     1  0  0  0  0  0999 V2000
    1.9913   -3.1861    0.0000 S   0  0  0  0  0  0  0  0  0  0  0  0
    8.5342   -0.7680    0.0000 F   0  0  0  0  0  0  0  0  0  0  0  0
    7.3394   -3.0154    0.0000 O   0  0  0  0  0  0  0  0  0  0  0  0
    7.3394   -1.5930    0.0000 O   0  0  0  0  0  0  0  0  0  0  0  0
    2.8732   -0.4836    0.0000 O   0  0  0  0  0  0  0  0  0  0  0  0
    2.1335   -4.4947    0.0000 N   0  0  0  0  0  0  0  0  0  0  0  0
    6.1162   -2.3042    0.0000 C   0  0  3  0  0  0  0  0  0  0  0  0
    4.8645   -2.7309    0.0000 C   0  0  0  0  0  0  0  0  0  0  0  0
    6.5144   -1.5930    0.0000 C   0  0  0  0  0  0  0  0  0  0  0  0
    4.8645   -1.9060    0.0000 C   0  0  3  0  0  0  0  0  0  0  0  0
    5.6610   -2.9869    0.0000 C   0  0  0  0  0  0  0  0  0  0  0  0
    5.6610   -1.6499    0.0000 C   0  0  0  0  0  0  0  0  0  0  0  0
    4.2102   -3.1861    0.0000 C   0  0  0  0  0  0  0  0  0  0  0  0
    6.9412   -2.3042    0.0000 C   0  0  0  0  0  0  0  0  0  0  0  0
    7.4816   -1.7068    0.0000 C   0  0  0  0  0  0  0  0  0  0  0  0
    2.7879   -3.3284    0.0000 C   0  0  0  0  0  0  0  0  0  0  0  0
    3.4705   -2.8732    0.0000 C   0  0  0  0  0  0  0  0  0  0  0  0
    2.8732   -4.1818    0.0000 C   0  0  0  0  0  0  0  0  0  0  0  0
    4.2102   -1.4224    0.0000 C   0  0  0  0  0  0  0  0  0  0  0  0
    6.0593   -0.8819    0.0000 C   0  0  0  0  0  0  0  0  0  0  0  0
    1.5646   -3.8688    0.0000 C   0  0  0  0  0  0  0  0  0  0  0  0
    4.2955   -4.0680    0.0000 C   0  0  0  0  0  0  0  0  0  0  0  0
    7.7092   -0.7965    0.0000 C   0  0  0  0  0  0  0  0  0  0  0  0
    3.6413   -4.4947    0.0000 C   0  0  0  0  0  0  0  0  0  0  0  0
    0.7680   -3.9542    0.0000 C   0  0  0  0  0  0  0  0  0  0  0  0
    3.4421   -1.7637    0.0000 C   0  0  0  0  0  0  0  0  0  0  0  0
    6.4291   -0.1423    0.0000 C   0  0  0  0  0  0  0  0  0  0  0  0
    7.2541   -0.1138    0.0000 C   0  0  0  0  0  0  0  0  0  0  0  0
    0.0854   -4.4378    0.0000 C   0  0  0  0  0  0  0  0  0  0  0  0
    0.0000   -3.6128    0.0000 C   0  0  0  0  0  0  0  0  0  0  0  0
    7.7661   -2.2189    0.0000 C   0  0  0  0  0  0  0  0  0  0  0  0
    2.7879   -1.3086    0.0000 C   0  0  0  0  0  0  0  0  0  0  0  0
    3.3568   -2.5887    0.0000 C   0  0  0  0  0  0  0  0  0  0  0  0
    2.0482   -1.6215    0.0000 C   0  0  0  0  0  0  0  0  0  0  0  0
    2.6171   -2.9301    0.0000 C   0  0  0  0  0  0  0  0  0  0  0  0
    1.9629   -2.4465    0.0000 C   0  0  0  0  0  0  0  0  0  0  0  0
    2.1904    0.0000    0.0000 C   0  0  0  0  0  0  0  0  0  0  0  0
  1 16  1  0  0  0  0
  1 21  1  0  0  0  0
  2 23  1  0  0  0  0
  3 14  2  0  0  0  0
  4 14  1  0  0  0  0
  5 32  1  0  0  0  0
  5 37  1  0  0  0  0
  6 18  1  0  0  0  0
  6 21  2  0  0  0  0
  7  9  1  0  0  0  0
  7 11  1  0  0  0  0
  7 12  1  0  0  0  0
  7 14  1  0  0  0  0
  8 10  1  0  0  0  0
  8 11  2  0  0  0  0
  8 13  1  0  0  0  0
  9 15  1  0  0  0  0
  9 20  2  0  0  0  0
 10 12  1  0  0  0  0
 10 19  1  0  0  0  0
 13 17  2  0  0  0  0
 13 22  1  0  0  0  0
 15 23  2  0  0  0  0
 15 31  1  0  0  0  0
 16 17  1  0  0  0  0
 16 18  2  0  0  0  0
 18 24  1  0  0  0  0
 19 26  1  0  0  0  0
 20 27  1  0  0  0  0
 21 25  1  0  0  0  0
 22 24  2  0  0  0  0
 23 28  1  0  0  0  0
 25 29  1  0  0  0  0
 25 30  1  0  0  0  0
 26 32  2  0  0  0  0
 26 33  1  0  0  0  0
 27 28  2  0  0  0  0
 29 30  1  0  0  0  0
 32 34  1  0  0  0  0
 33 35  2  0  0  0  0
 34 36  2  0  0  0  0
 35 36  1  0  0  0  0
M  END
> <PUBCHEM_COMPOUND_ID_TYPE>
0

> <PUBCHEM_TOTAL_CHARGE>
0

> <PUBCHEM_SUBSTANCE_ID>
310934914

> <PUBCHEM_SUBSTANCE_VERSION>
1

> <PUBCHEM_EXT_DATASOURCE_NAME>
4488

> <PUBCHEM_EXT_DATASOURCE_REGID>
SCHEMBL16112427

> <PUBCHEM_SUBSTANCE_COMMENT>
InChI=1S/C31H28FNO3S/c1-18-24(7-5-8-25(18)32)31(30(34)35)16-22(14-21-6-3-4-9-27(21)36-2)23(17-31)20-12-13-26-28(15-20)37-29(33-26)19-10-11-19/h3-9,12-13,15,17,19,22H,10-11,14,16H2,1-2H3,(H,34,35)
InChIKey=OJPBYFRAONGVGA-UHFFFAOYSA-N

> <PUBCHEM_SUBSTANCE_SYNONYM>
SCHEMBL16112427

> <PUBCHEM_XREF_EXT_ID>
SCHEMBL16112427

> <PUBCHEM_EXT_DATASOURCE_URL>
https://www.surechembl.org/

> <PUBCHEM_EXT_SUBSTANCE_URL>
https://www.surechembl.org/chemical/SCHEMBL16112427

> <PUBCHEM_CID_ASSOCIATIONS>
117603040  1

> <PUBCHEM_COORDINATE_TYPE>
1
3

$$$$
