310944564
  -OEChem-07211613022D

 24 26  0     1  0  0  0  0  0999 V2000
   -3.6718   -0.5974    0.0000 Cl  0  0  0  0  0  0  0  0  0  0  0  0
   -3.0370   -2.1906    0.0000 Cl  0  0  0  0  0  0  0  0  0  0  0  0
    0.0498    2.1906    0.0000 O   0  0  0  0  0  0  0  0  0  0  0  0
    3.6344    0.1245    0.0000 O   0  0  0  0  0  0  0  0  0  0  0  0
   -0.1120   -1.1575    0.0000 N   0  0  0  0  0  0  0  0  0  0  0  0
    0.0125   -0.3610    0.0000 N   0  0  0  0  0  0  0  0  0  0  0  0
    0.7842    0.9584    0.0000 N   0  0  0  0  0  0  0  0  0  0  0  0
    2.2155    0.1245    0.0000 N   0  0  0  0  0  0  0  0  0  0  0  0
   -1.3442   -0.3734    0.0000 C   0  0  0  0  0  0  0  0  0  0  0  0
   -1.0953   -1.1575    0.0000 C   0  0  0  0  0  0  0  0  0  0  0  0
   -0.6721    0.1245    0.0000 C   0  0  3  0  0  0  0  0  0  0  0  0
   -2.1532   -0.2116    0.0000 C   0  0  0  0  0  0  0  0  0  0  0  0
   -1.6305   -1.7674    0.0000 C   0  0  0  0  0  0  0  0  0  0  0  0
   -2.7009   -0.8090    0.0000 C   0  0  0  0  0  0  0  0  0  0  0  0
   -0.6473    0.9584    0.0000 C   0  0  0  0  0  0  0  0  0  0  0  0
   -2.4395   -1.5807    0.0000 C   0  0  0  0  0  0  0  0  0  0  0  0
    0.0498    1.3567    0.0000 C   0  0  0  0  0  0  0  0  0  0  0  0
    1.4936    1.3692    0.0000 C   0  0  0  0  0  0  0  0  0  0  0  0
    0.7842    0.1245    0.0000 C   0  0  0  0  0  0  0  0  0  0  0  0
    2.2155    0.9459    0.0000 C   0  0  0  0  0  0  0  0  0  0  0  0
    1.5061   -0.2863    0.0000 C   0  0  0  0  0  0  0  0  0  0  0  0
    2.9249   -0.2987    0.0000 C   0  0  0  0  0  0  0  0  0  0  0  0
    2.9374   -1.1202    0.0000 C   0  0  0  0  0  0  0  0  0  0  0  0
    3.6718   -1.4936    0.0000 C   0  0  0  0  0  0  0  0  0  0  0  0
  1 14  1  0  0  0  0
  2 16  1  0  0  0  0
  3 17  2  0  0  0  0
  4 22  2  0  0  0  0
  5  6  1  0  0  0  0
  5 10  1  0  0  0  0
  6 11  1  0  0  0  0
  7 17  1  0  0  0  0
  7 18  1  0  0  0  0
  7 19  1  0  0  0  0
  8 20  1  0  0  0  0
  8 21  1  0  0  0  0
  8 22  1  0  0  0  0
  9 10  1  0  0  0  0
  9 11  1  0  0  0  0
  9 12  2  0  0  0  0
 10 13  2  0  0  0  0
 11 15  1  0  0  0  0
 12 14  1  0  0  0  0
 13 16  1  0  0  0  0
 14 16  2  0  0  0  0
 15 17  1  0  0  0  0
 18 20  1  0  0  0  0
 19 21  1  0  0  0  0
 22 23  1  0  0  0  0
 23 24  2  0  0  0  0
M  END
> <PUBCHEM_COMPOUND_ID_TYPE>
0

> <PUBCHEM_TOTAL_CHARGE>
0

> <PUBCHEM_SUBSTANCE_ID>
310944564

> <PUBCHEM_SUBSTANCE_VERSION>
1

> <PUBCHEM_EXT_DATASOURCE_NAME>
4488

> <PUBCHEM_EXT_DATASOURCE_REGID>
SCHEMBL16122641

> <PUBCHEM_SUBSTANCE_COMMENT>
InChI=1S/C16H18Cl2N4O2/c1-2-15(23)21-3-5-22(6-4-21)16(24)9-14-10-7-11(17)12(18)8-13(10)19-20-14/h2,7-8,14,19-20H,1,3-6,9H2
InChIKey=DQWLJYCNUUGOPD-UHFFFAOYSA-N

> <PUBCHEM_SUBSTANCE_SYNONYM>
SCHEMBL16122641

> <PUBCHEM_XREF_EXT_ID>
SCHEMBL16122641

> <PUBCHEM_EXT_DATASOURCE_URL>
https://www.surechembl.org/

> <PUBCHEM_EXT_SUBSTANCE_URL>
https://www.surechembl.org/chemical/SCHEMBL16122641

> <PUBCHEM_CID_ASSOCIATIONS>
117610799  1

> <PUBCHEM_COORDINATE_TYPE>
1
3

$$$$
