310945635
  -OEChem-07211613022D

 34 37  0     1  0  0  0  0  0999 V2000
    4.6224    0.8049    0.0000 O   0  0  0  0  0  0  0  0  0  0  0  0
    1.7076    0.9789    0.0000 O   0  0  0  0  0  0  0  0  0  0  0  0
   -3.9915   -0.6961    0.0000 O   0  0  0  0  0  0  0  0  0  0  0  0
    6.2538   -0.8701    0.0000 O   0  0  0  0  0  0  0  0  0  0  0  0
    5.9492   -2.2623    0.0000 O   0  0  0  0  0  0  0  0  0  0  0  0
   -6.2538   -0.2828    0.0000 N   0  0  0  0  0  0  0  0  0  0  0  0
    3.7523   -0.1740    0.0000 C   0  0  0  0  0  0  0  0  0  0  0  0
    3.7957    0.6308    0.0000 C   0  0  0  0  0  0  0  0  0  0  0  0
    4.5571   -0.4785    0.0000 C   0  0  3  0  0  0  0  0  0  0  0  0
   -1.9251    0.6308    0.0000 C   0  0  0  0  0  0  0  0  0  0  0  0
   -1.2290    1.0441    0.0000 C   0  0  0  0  0  0  0  0  0  0  0  0
    2.3601    0.6308    0.0000 C   0  0  0  0  0  0  0  0  0  0  0  0
    3.0344    1.0223    0.0000 C   0  0  0  0  0  0  0  0  0  0  0  0
   -2.6429    1.0441    0.0000 C   0  0  0  0  0  0  0  0  0  0  0  0
   -1.9468   -0.1740    0.0000 C   0  0  0  0  0  0  0  0  0  0  0  0
    3.0780   -0.5873    0.0000 C   0  0  0  0  0  0  0  0  0  0  0  0
    5.0357    0.2175    0.0000 C   0  0  0  0  0  0  0  0  0  0  0  0
    2.3601   -0.1958    0.0000 C   0  0  0  0  0  0  0  0  0  0  0  0
   -0.4894    0.6525    0.0000 C   0  0  0  0  0  0  0  0  0  0  0  0
    0.2066    1.0441    0.0000 C   0  0  0  0  0  0  0  0  0  0  0  0
   -3.3607   -0.1958    0.0000 C   0  0  0  0  0  0  0  0  0  0  0  0
    4.8181   -1.2399    0.0000 C   0  0  0  0  0  0  0  0  0  0  0  0
   -3.3390    0.6308    0.0000 C   0  0  0  0  0  0  0  0  0  0  0  0
   -2.6211   -0.5873    0.0000 C   0  0  0  0  0  0  0  0  0  0  0  0
   -1.1855    1.8707    0.0000 C   0  0  0  0  0  0  0  0  0  0  0  0
    0.9462    0.6308    0.0000 C   0  0  0  0  0  0  0  0  0  0  0  0
    0.2066    1.8489    0.0000 C   0  0  0  0  0  0  0  0  0  0  0  0
    5.6230   -1.4139    0.0000 C   0  0  0  0  0  0  0  0  0  0  0  0
   -0.5329    2.2623    0.0000 C   0  0  0  0  0  0  0  0  0  0  0  0
   -2.6211    1.8707    0.0000 C   0  0  0  0  0  0  0  0  0  0  0  0
   -1.1855   -0.6091    0.0000 C   0  0  0  0  0  0  0  0  0  0  0  0
   -4.8181   -0.2175    0.0000 C   0  0  0  0  0  0  0  0  0  0  0  0
   -5.4707   -0.6091    0.0000 C   0  0  0  0  0  0  0  0  0  0  0  0
    5.9058    0.0000    0.0000 C   0  0  0  0  0  0  0  0  0  0  0  0
  1  8  1  0  0  0  0
  1 17  1  0  0  0  0
  2 12  1  0  0  0  0
  2 26  1  0  0  0  0
  3 21  1  0  0  0  0
  3 32  1  0  0  0  0
  4 28  1  0  0  0  0
  4 34  1  0  0  0  0
  5 28  2  0  0  0  0
  6 33  1  0  0  0  0
  7  8  1  0  0  0  0
  7  9  1  0  0  0  0
  7 16  2  0  0  0  0
  8 13  2  0  0  0  0
  9 17  1  0  0  0  0
  9 22  1  0  0  0  0
 10 11  1  0  0  0  0
 10 14  2  0  0  0  0
 10 15  1  0  0  0  0
 11 19  2  0  0  0  0
 11 25  1  0  0  0  0
 12 13  1  0  0  0  0
 12 18  2  0  0  0  0
 14 23  1  0  0  0  0
 14 30  1  0  0  0  0
 15 24  2  0  0  0  0
 15 31  1  0  0  0  0
 16 18  1  0  0  0  0
 19 20  1  0  0  0  0
 20 26  1  0  0  0  0
 20 27  2  0  0  0  0
 21 23  2  0  0  0  0
 21 24  1  0  0  0  0
 22 28  1  0  0  0  0
 25 29  2  0  0  0  0
 27 29  1  0  0  0  0
 32 33  1  0  0  0  0
M  END
> <PUBCHEM_COMPOUND_ID_TYPE>
0

> <PUBCHEM_TOTAL_CHARGE>
0

> <PUBCHEM_SUBSTANCE_ID>
310945635

> <PUBCHEM_SUBSTANCE_VERSION>
1

> <PUBCHEM_EXT_DATASOURCE_NAME>
4488

> <PUBCHEM_EXT_DATASOURCE_REGID>
SCHEMBL16123734

> <PUBCHEM_SUBSTANCE_COMMENT>
InChI=1S/C28H31NO5/c1-18-11-24(32-10-9-29)12-19(2)28(18)21-6-4-5-20(13-21)16-33-23-7-8-25-22(14-27(30)31-3)17-34-26(25)15-23/h4-8,11-13,15,22H,9-10,14,16-17,29H2,1-3H3
InChIKey=UQZQMLWCMDUVPQ-UHFFFAOYSA-N

> <PUBCHEM_SUBSTANCE_SYNONYM>
SCHEMBL16123734

> <PUBCHEM_XREF_EXT_ID>
SCHEMBL16123734

> <PUBCHEM_EXT_DATASOURCE_URL>
https://www.surechembl.org/

> <PUBCHEM_EXT_SUBSTANCE_URL>
https://www.surechembl.org/chemical/SCHEMBL16123734

> <PUBCHEM_CID_ASSOCIATIONS>
117611648  1

> <PUBCHEM_COORDINATE_TYPE>
1
3

$$$$
