310932423
  -OEChem-07211613022D

 22 25  0     1  0  0  0  0  0999 V2000
    0.7968    0.0000    0.0000 O   0  0  0  0  0  0  0  0  0  0  0  0
    1.9045   -1.9434    0.0000 O   0  0  0  0  0  0  0  0  0  0  0  0
    2.6236   -0.7190    0.0000 O   0  0  0  0  0  0  0  0  0  0  0  0
    1.2049   -0.7190    0.0000 C   0  0  3  0  0  0  0  0  0  0  0  0
    0.3887   -0.7190    0.0000 C   0  0  0  0  0  0  0  0  0  0  0  0
    0.9911   -1.5159    0.0000 C   0  0  0  0  0  0  0  0  0  0  0  0
    1.9045   -1.1271    0.0000 C   0  0  0  0  0  0  0  0  0  0  0  0
    3.9256   -0.3110    0.0000 C   0  0  0  0  0  0  0  0  0  0  0  0
    1.0883   -0.3110    0.0000 C   0  0  0  0  0  0  0  0  0  0  0  0
    1.5742   -2.0988    0.0000 C   0  0  0  0  0  0  0  0  0  0  0  0
    0.2138   -1.7296    0.0000 C   0  0  0  0  0  0  0  0  0  0  0  0
    1.8074   -0.7190    0.0000 C   0  0  0  0  0  0  0  0  0  0  0  0
    3.2260   -0.7190    0.0000 C   0  0  0  0  0  0  0  0  0  0  0  0
    2.6236   -2.3515    0.0000 C   0  0  0  0  0  0  0  0  0  0  0  0
    2.5070   -0.3110    0.0000 C   0  0  0  0  0  0  0  0  0  0  0  0
    1.3604   -2.8762    0.0000 C   0  0  0  0  0  0  0  0  0  0  0  0
    0.0000   -2.5264    0.0000 C   0  0  0  0  0  0  0  0  0  0  0  0
    0.5636   -3.0900    0.0000 C   0  0  0  0  0  0  0  0  0  0  0  0
    3.3814   -2.1377    0.0000 C   0  0  0  0  0  0  0  0  0  0  0  0
    2.8179   -3.1677    0.0000 C   0  0  0  0  0  0  0  0  0  0  0  0
    3.6147   -2.9345    0.0000 C   0  0  0  0  0  0  0  0  0  0  0  0
    0.3498   -3.8868    0.0000 C   0  0  0  0  0  0  0  0  0  0  0  0
  1  4  1  0  0  0  0
  1  5  1  0  0  0  0
  2  7  1  0  0  0  0
  2 14  1  0  0  0  0
  3  7  2  0  0  0  0
  4  5  1  0  0  0  0
  4  6  1  0  0  0  0
  4  7  1  0  0  0  0
  5  8  1  0  0  0  0
  5  9  1  0  0  0  0
  6 10  2  0  0  0  0
  6 11  1  0  0  0  0
  8 13  1  0  0  0  0
  9 12  1  0  0  0  0
 10 16  1  0  0  0  0
 11 17  2  0  0  0  0
 12 15  1  0  0  0  0
 13 15  1  0  0  0  0
 14 19  1  0  0  0  0
 14 20  1  0  0  0  0
 16 18  2  0  0  0  0
 17 18  1  0  0  0  0
 18 22  1  0  0  0  0
 19 21  1  0  0  0  0
 20 21  1  0  0  0  0
M  END
> <PUBCHEM_COMPOUND_ID_TYPE>
0

> <PUBCHEM_TOTAL_CHARGE>
0

> <PUBCHEM_SUBSTANCE_ID>
310932423

> <PUBCHEM_SUBSTANCE_VERSION>
1

> <PUBCHEM_EXT_DATASOURCE_NAME>
4488

> <PUBCHEM_EXT_DATASOURCE_REGID>
SCHEMBL16109791

> <PUBCHEM_SUBSTANCE_COMMENT>
InChI=1S/C19H24O3/c1-14-8-10-15(11-9-14)19(17(20)21-16-6-5-7-16)18(22-19)12-3-2-4-13-18/h8-11,16H,2-7,12-13H2,1H3
InChIKey=CRPBSSIDQYTDSC-UHFFFAOYSA-N

> <PUBCHEM_SUBSTANCE_SYNONYM>
SCHEMBL16109791

> <PUBCHEM_XREF_EXT_ID>
SCHEMBL16109791

> <PUBCHEM_EXT_DATASOURCE_URL>
https://www.surechembl.org/

> <PUBCHEM_EXT_SUBSTANCE_URL>
https://www.surechembl.org/chemical/SCHEMBL16109791

> <PUBCHEM_CID_ASSOCIATIONS>
117600975  1

> <PUBCHEM_COORDINATE_TYPE>
1
3

$$$$
