310936604
  -OEChem-07211613022D

 11 10  0     1  0  0  0  0  0999 V2000
    2.8546   -0.4139    0.0000 F   0  0  0  0  0  0  0  0  0  0  0  0
    4.2819   -1.2418    0.0000 F   0  0  0  0  0  0  0  0  0  0  0  0
    0.7136    0.0000    0.0000 O   0  0  0  0  0  0  0  0  0  0  0  0
    0.0000   -1.2418    0.0000 O   0  0  0  0  0  0  0  0  0  0  0  0
    2.8546   -1.2418    0.0000 C   0  0  3  0  0  0  0  0  0  0  0  0
    2.1409   -0.8278    0.0000 C   0  0  0  0  0  0  0  0  0  0  0  0
    3.5682   -0.8278    0.0000 C   0  0  0  0  0  0  0  0  0  0  0  0
    2.8546   -2.0696    0.0000 C   0  0  0  0  0  0  0  0  0  0  0  0
    1.4273   -1.2418    0.0000 C   0  0  0  0  0  0  0  0  0  0  0  0
    0.7136   -0.8278    0.0000 C   0  0  0  0  0  0  0  0  0  0  0  0
    3.5682   -2.4835    0.0000 C   0  0  0  0  0  0  0  0  0  0  0  0
  1  5  1  0  0  0  0
  2  7  1  0  0  0  0
  3 10  2  0  0  0  0
  4 10  1  0  0  0  0
  5  6  1  0  0  0  0
  5  7  1  0  0  0  0
  5  8  1  0  0  0  0
  6  9  3  0  0  0  0
  8 11  1  0  0  0  0
  9 10  1  0  0  0  0
M  END
> <PUBCHEM_COMPOUND_ID_TYPE>
0

> <PUBCHEM_TOTAL_CHARGE>
0

> <PUBCHEM_SUBSTANCE_ID>
310936604

> <PUBCHEM_SUBSTANCE_VERSION>
1

> <PUBCHEM_EXT_DATASOURCE_NAME>
4488

> <PUBCHEM_EXT_DATASOURCE_REGID>
SCHEMBL16114264

> <PUBCHEM_SUBSTANCE_COMMENT>
InChI=1S/C7H8F2O2/c1-2-7(9,5-8)4-3-6(10)11/h2,5H2,1H3,(H,10,11)
InChIKey=QCOREWCKFJSCPQ-UHFFFAOYSA-N

> <PUBCHEM_SUBSTANCE_SYNONYM>
SCHEMBL16114264

> <PUBCHEM_XREF_EXT_ID>
SCHEMBL16114264

> <PUBCHEM_EXT_DATASOURCE_URL>
https://www.surechembl.org/

> <PUBCHEM_EXT_SUBSTANCE_URL>
https://www.surechembl.org/chemical/SCHEMBL16114264

> <PUBCHEM_CID_ASSOCIATIONS>
117604523  1

> <PUBCHEM_COORDINATE_TYPE>
1
3

$$$$
