310944689
  -OEChem-07211613022D

 33 36  0     1  0  0  0  0  0999 V2000
   -3.2751   -0.5168    0.0000 Cl  0  0  0  0  0  0  0  0  0  0  0  0
   -2.3786    2.3848    0.0000 Cl  0  0  0  0  0  0  0  0  0  0  0  0
   -5.4295    2.3848    0.0000 Cl  0  0  0  0  0  0  0  0  0  0  0  0
   -0.2367   -0.5168    0.0000 O   0  0  0  0  0  0  0  0  0  0  0  0
    1.1955    1.9738    0.0000 O   0  0  0  0  0  0  0  0  0  0  0  0
    5.4295   -0.7658    0.0000 O   0  0  0  0  0  0  0  0  0  0  0  0
    1.9427    0.7410    0.0000 N   0  0  0  0  0  0  0  0  0  0  0  0
    4.0100   -0.7658    0.0000 N   0  0  0  0  0  0  0  0  0  0  0  0
   -0.2242    1.1519    0.0000 N   0  0  0  0  0  0  0  0  0  0  0  0
    2.7273   -0.3425    0.0000 C   0  0  3  0  0  0  0  0  0  0  0  0
    3.2128    0.3301    0.0000 C   0  0  3  0  0  0  0  0  0  0  0  0
   -2.3786    0.7410    0.0000 C   0  0  0  0  0  0  0  0  0  0  0  0
    1.9551   -0.0934    0.0000 C   0  0  0  0  0  0  0  0  0  0  0  0
    2.7273    0.9900    0.0000 C   0  0  0  0  0  0  0  0  0  0  0  0
   -3.1132    1.1519    0.0000 C   0  0  0  0  0  0  0  0  0  0  0  0
   -0.9464    0.7410    0.0000 C   0  0  0  0  0  0  0  0  0  0  0  0
    3.2254   -1.0149    0.0000 C   0  0  0  0  0  0  0  0  0  0  0  0
    4.0100    0.0561    0.0000 C   0  0  0  0  0  0  0  0  0  0  0  0
   -2.3786   -0.0934    0.0000 C   0  0  0  0  0  0  0  0  0  0  0  0
   -0.9589   -0.0810    0.0000 C   0  0  0  0  0  0  0  0  0  0  0  0
    1.2079    1.1394    0.0000 C   0  0  0  0  0  0  0  0  0  0  0  0
   -1.6687    1.1394    0.0000 C   0  0  0  0  0  0  0  0  0  0  0  0
   -3.1008    1.9862    0.0000 C   0  0  0  0  0  0  0  0  0  0  0  0
   -1.6563   -0.5044    0.0000 C   0  0  0  0  0  0  0  0  0  0  0  0
    4.7197   -1.1893    0.0000 C   0  0  0  0  0  0  0  0  0  0  0  0
    0.4982    0.7410    0.0000 C   0  0  0  0  0  0  0  0  0  0  0  0
   -3.8106    0.7410    0.0000 C   0  0  0  0  0  0  0  0  0  0  0  0
   -3.8231    2.3848    0.0000 C   0  0  0  0  0  0  0  0  0  0  0  0
   -4.5454    1.9862    0.0000 C   0  0  0  0  0  0  0  0  0  0  0  0
   -4.5329    1.1519    0.0000 C   0  0  0  0  0  0  0  0  0  0  0  0
    4.7197   -2.0111    0.0000 C   0  0  0  0  0  0  0  0  0  0  0  0
    0.4857   -0.0934    0.0000 C   0  0  0  0  0  0  0  0  0  0  0  0
    3.9850   -2.3848    0.0000 C   0  0  0  0  0  0  0  0  0  0  0  0
  1 19  1  0  0  0  0
  2 23  1  0  0  0  0
  3 29  1  0  0  0  0
  4 20  1  0  0  0  0
  4 32  1  0  0  0  0
  5 21  2  0  0  0  0
  6 25  2  0  0  0  0
  7 13  1  0  0  0  0
  7 14  1  0  0  0  0
  7 21  1  0  0  0  0
  8 17  1  0  0  0  0
  8 18  1  0  0  0  0
  8 25  1  0  0  0  0
  9 16  1  0  0  0  0
  9 26  1  0  0  0  0
 10 11  1  0  0  0  0
 10 13  1  0  0  0  0
 10 17  1  0  0  0  0
 11 14  1  0  0  0  0
 11 18  1  0  0  0  0
 12 15  1  0  0  0  0
 12 19  2  0  0  0  0
 12 22  1  0  0  0  0
 15 23  1  0  0  0  0
 15 27  2  0  0  0  0
 16 20  1  0  0  0  0
 16 22  2  0  0  0  0
 19 24  1  0  0  0  0
 20 24  2  0  0  0  0
 21 26  1  0  0  0  0
 23 28  2  0  0  0  0
 25 31  1  0  0  0  0
 27 30  1  0  0  0  0
 28 29  1  0  0  0  0
 29 30  2  0  0  0  0
 31 33  2  0  0  0  0
M  END
> <PUBCHEM_COMPOUND_ID_TYPE>
0

> <PUBCHEM_TOTAL_CHARGE>
0

> <PUBCHEM_SUBSTANCE_ID>
310944689

> <PUBCHEM_SUBSTANCE_VERSION>
1

> <PUBCHEM_EXT_DATASOURCE_NAME>
4488

> <PUBCHEM_EXT_DATASOURCE_REGID>
SCHEMBL16122768

> <PUBCHEM_SUBSTANCE_COMMENT>
InChI=1S/C24H24Cl3N3O3/c1-3-23(31)29-10-14-12-30(13-15(14)11-29)24(32)9-28-21-7-18(20(27)8-22(21)33-2)17-5-4-16(25)6-19(17)26/h3-8,14-15,28H,1,9-13H2,2H3
InChIKey=UVAVUYKPELKQNM-UHFFFAOYSA-N

> <PUBCHEM_SUBSTANCE_SYNONYM>
SCHEMBL16122768

> <PUBCHEM_XREF_EXT_ID>
SCHEMBL16122768

> <PUBCHEM_EXT_DATASOURCE_URL>
https://www.surechembl.org/

> <PUBCHEM_EXT_SUBSTANCE_URL>
https://www.surechembl.org/chemical/SCHEMBL16122768

> <PUBCHEM_CID_ASSOCIATIONS>
117610913  1

> <PUBCHEM_COORDINATE_TYPE>
1
3

$$$$
