310941275
  -OEChem-07211613022D

 39 42  0     1  0  0  0  0  0999 V2000
    4.9642    0.9885    0.0000 O   0  0  0  0  0  0  0  0  0  0  0  0
    3.8303   -0.9885    0.0000 O   0  0  0  0  0  0  0  0  0  0  0  0
    1.4609    0.9739    0.0000 O   0  0  0  0  0  0  0  0  0  0  0  0
   -0.6905   -1.1047    0.0000 O   0  0  0  0  0  0  0  0  0  0  0  0
   -2.8418    0.9739    0.0000 O   0  0  0  0  0  0  0  0  0  0  0  0
   -5.2839   -1.2792    0.0000 O   0  0  0  0  0  0  0  0  0  0  0  0
    3.6268   -2.7764    0.0000 O   0  0  0  0  0  0  0  0  0  0  0  0
    2.1877   -0.2908    0.0000 N   0  0  0  0  0  0  0  0  0  0  0  0
    0.0363    0.1308    0.0000 N   0  0  0  0  0  0  0  0  0  0  0  0
   -2.1150   -0.2908    0.0000 N   0  0  0  0  0  0  0  0  0  0  0  0
    4.5571    0.3052    0.0000 C   0  0  3  0  0  0  0  0  0  0  0  0
    3.8449   -0.1163    0.0000 C   0  0  0  0  0  0  0  0  0  0  0  0
    4.1647    0.9885    0.0000 C   0  0  0  0  0  0  0  0  0  0  0  0
    3.1035    0.2908    0.0000 C   0  0  3  0  0  0  0  0  0  0  0  0
    5.2839   -0.1454    0.0000 C   0  0  0  0  0  0  0  0  0  0  0  0
    3.1181    1.3664    0.0000 C   0  0  0  0  0  0  0  0  0  0  0  0
    1.4609    0.1308    0.0000 C   0  0  0  0  0  0  0  0  0  0  0  0
    0.7631   -0.2471    0.0000 C   0  0  3  0  0  0  0  0  0  0  0  0
    2.3912    1.8025    0.0000 C   0  0  0  0  0  0  0  0  0  0  0  0
   -3.5687   -0.2617    0.0000 C   0  0  0  0  0  0  0  0  0  0  0  0
    0.7486   -1.0903    0.0000 C   0  0  0  0  0  0  0  0  0  0  0  0
   -0.6760   -0.2325    0.0000 C   0  0  0  0  0  0  0  0  0  0  0  0
   -2.8564    0.1308    0.0000 C   0  0  0  0  0  0  0  0  0  0  0  0
   -1.4173    0.1599    0.0000 C   0  0  3  0  0  0  0  0  0  0  0  0
    1.4899   -1.5118    0.0000 C   0  0  0  0  0  0  0  0  0  0  0  0
   -4.5571   -0.8431    0.0000 C   0  0  0  0  0  0  0  0  0  0  0  0
   -4.3536   -0.0581    0.0000 C   0  0  0  0  0  0  0  0  0  0  0  0
   -3.7722   -1.0612    0.0000 C   0  0  0  0  0  0  0  0  0  0  0  0
    1.6499    1.4682    0.0000 C   0  0  0  0  0  0  0  0  0  0  0  0
    2.3040    2.6020    0.0000 C   0  0  0  0  0  0  0  0  0  0  0  0
    1.4899   -2.3404    0.0000 C   0  0  0  0  0  0  0  0  0  0  0  0
    2.1732   -1.1047    0.0000 C   0  0  0  0  0  0  0  0  0  0  0  0
    1.0975    2.0642    0.0000 C   0  0  0  0  0  0  0  0  0  0  0  0
    1.5045    2.7764    0.0000 C   0  0  0  0  0  0  0  0  0  0  0  0
    2.9000   -2.3258    0.0000 C   0  0  0  0  0  0  0  0  0  0  0  0
    2.1877   -2.7474    0.0000 C   0  0  0  0  0  0  0  0  0  0  0  0
    2.9000   -1.5118    0.0000 C   0  0  0  0  0  0  0  0  0  0  0  0
   -1.3882    1.0030    0.0000 C   0  0  0  0  0  0  0  0  0  0  0  0
    4.3536   -2.3404    0.0000 C   0  0  0  0  0  0  0  0  0  0  0  0
  1 11  1  0  0  0  0
  1 13  1  0  0  0  0
  2 12  2  0  0  0  0
  3 17  2  0  0  0  0
  4 22  2  0  0  0  0
  5 23  2  0  0  0  0
  6 26  1  0  0  0  0
  7 35  1  0  0  0  0
  7 39  1  0  0  0  0
  8 14  1  0  0  0  0
  8 17  1  0  0  0  0
  9 18  1  0  0  0  0
  9 22  1  0  0  0  0
 10 23  1  0  0  0  0
 10 24  1  0  0  0  0
 11 12  1  0  0  0  0
 11 13  1  0  0  0  0
 11 15  1  0  0  0  0
 12 14  1  0  0  0  0
 14 16  1  0  0  0  0
 16 19  1  0  0  0  0
 17 18  1  0  0  0  0
 18 21  1  0  0  0  0
 19 29  1  0  0  0  0
 19 30  1  0  0  0  0
 20 23  1  0  0  0  0
 20 27  1  0  0  0  0
 20 28  1  0  0  0  0
 21 25  1  0  0  0  0
 22 24  1  0  0  0  0
 24 38  1  0  0  0  0
 25 31  2  0  0  0  0
 25 32  1  0  0  0  0
 26 27  1  0  0  0  0
 26 28  1  0  0  0  0
 29 33  1  0  0  0  0
 30 34  1  0  0  0  0
 31 36  1  0  0  0  0
 32 37  2  0  0  0  0
 33 34  1  0  0  0  0
 35 36  2  0  0  0  0
 35 37  1  0  0  0  0
M  END
> <PUBCHEM_COMPOUND_ID_TYPE>
0

> <PUBCHEM_TOTAL_CHARGE>
0

> <PUBCHEM_SUBSTANCE_ID>
310941275

> <PUBCHEM_SUBSTANCE_VERSION>
1

> <PUBCHEM_EXT_DATASOURCE_NAME>
4488

> <PUBCHEM_EXT_DATASOURCE_REGID>
SCHEMBL16119235

> <PUBCHEM_SUBSTANCE_COMMENT>
InChI=1S/C29H41N3O7/c1-17(30-27(36)20-14-21(33)15-20)26(35)32-24(13-19-8-10-22(38-3)11-9-19)28(37)31-23(12-18-6-4-5-7-18)25(34)29(2)16-39-29/h8-11,17-18,20-21,23-24,33H,4-7,12-16H2,1-3H3,(H,30,36)(H,31,37)(H,32,35)
InChIKey=KDHYIBPXZARBBD-UHFFFAOYSA-N

> <PUBCHEM_SUBSTANCE_SYNONYM>
SCHEMBL16119235

> <PUBCHEM_XREF_EXT_ID>
SCHEMBL16119235

> <PUBCHEM_EXT_DATASOURCE_URL>
https://www.surechembl.org/

> <PUBCHEM_EXT_SUBSTANCE_URL>
https://www.surechembl.org/chemical/SCHEMBL16119235

> <PUBCHEM_CID_ASSOCIATIONS>
86297508  1

> <PUBCHEM_COORDINATE_TYPE>
1
3

$$$$
