310946064
  -OEChem-07211613022D

 37 39  0     1  0  0  0  0  0999 V2000
   -3.9048   -0.0414    0.0000 F   0  0  0  0  0  0  0  0  0  0  0  0
   -3.9048   -0.8708    0.0000 F   0  0  0  0  0  0  0  0  0  0  0  0
   -3.1861   -1.2855    0.0000 F   0  0  0  0  0  0  0  0  0  0  0  0
    3.6837    0.6635    0.0000 O   0  0  0  0  0  0  0  0  0  0  0  0
    2.5503   -1.2855    0.0000 O   0  0  0  0  0  0  0  0  0  0  0  0
   -2.8958    0.6635    0.0000 O   0  0  0  0  0  0  0  0  0  0  0  0
   -1.7623   -1.2855    0.0000 O   0  0  0  0  0  0  0  0  0  0  0  0
    0.3939    0.7740    0.0000 O   0  0  0  0  0  0  0  0  0  0  0  0
    2.5503   -2.9442    0.0000 O   0  0  0  0  0  0  0  0  0  0  0  0
    1.1265   -0.4561    0.0000 N   0  0  0  0  0  0  0  0  0  0  0  0
   -1.0298   -0.0414    0.0000 N   0  0  0  0  0  0  0  0  0  0  0  0
    3.2829    0.0000    0.0000 C   0  0  3  0  0  0  0  0  0  0  0  0
    2.5641   -0.4147    0.0000 C   0  0  0  0  0  0  0  0  0  0  0  0
    2.8819    0.6773    0.0000 C   0  0  0  0  0  0  0  0  0  0  0  0
   -2.4673    0.0000    0.0000 C   0  0  3  0  0  0  0  0  0  0  0  0
    1.8315   -0.0138    0.0000 C   0  0  3  0  0  0  0  0  0  0  0  0
   -3.1999   -0.4423    0.0000 C   0  0  0  0  0  0  0  0  0  0  0  0
   -1.7485   -0.4147    0.0000 C   0  0  0  0  0  0  0  0  0  0  0  0
   -0.3110   -0.4285    0.0000 C   0  0  3  0  0  0  0  0  0  0  0  0
    0.3939   -0.0414    0.0000 C   0  0  0  0  0  0  0  0  0  0  0  0
    3.9048   -0.3732    0.0000 C   0  0  0  0  0  0  0  0  0  0  0  0
    1.8315    1.2993    0.0000 C   0  0  0  0  0  0  0  0  0  0  0  0
   -0.3110   -1.2717    0.0000 C   0  0  0  0  0  0  0  0  0  0  0  0
   -2.0664    0.7050    0.0000 C   0  0  0  0  0  0  0  0  0  0  0  0
    1.1265    1.7278    0.0000 C   0  0  0  0  0  0  0  0  0  0  0  0
    0.4216   -1.6725    0.0000 C   0  0  0  0  0  0  0  0  0  0  0  0
    1.1265    2.5295    0.0000 C   0  0  0  0  0  0  0  0  0  0  0  0
    0.4077    1.3131    0.0000 C   0  0  0  0  0  0  0  0  0  0  0  0
    1.1127   -1.2717    0.0000 C   0  0  0  0  0  0  0  0  0  0  0  0
    0.4216   -2.5018    0.0000 C   0  0  0  0  0  0  0  0  0  0  0  0
    1.8453   -2.4880    0.0000 C   0  0  0  0  0  0  0  0  0  0  0  0
    1.8453   -1.6863    0.0000 C   0  0  0  0  0  0  0  0  0  0  0  0
    1.1265   -2.9027    0.0000 C   0  0  0  0  0  0  0  0  0  0  0  0
    0.3939    2.9442    0.0000 C   0  0  0  0  0  0  0  0  0  0  0  0
   -0.2972    1.7140    0.0000 C   0  0  0  0  0  0  0  0  0  0  0  0
   -0.2972    2.5295    0.0000 C   0  0  0  0  0  0  0  0  0  0  0  0
    3.2967   -2.5156    0.0000 C   0  0  0  0  0  0  0  0  0  0  0  0
  1 17  1  0  0  0  0
  2 17  1  0  0  0  0
  3 17  1  0  0  0  0
  4 12  1  0  0  0  0
  4 14  1  0  0  0  0
  5 13  2  0  0  0  0
  6 15  1  0  0  0  0
  7 18  2  0  0  0  0
  8 20  2  0  0  0  0
  9 31  1  0  0  0  0
  9 37  1  0  0  0  0
 10 16  1  0  0  0  0
 10 20  1  0  0  0  0
 11 18  1  0  0  0  0
 11 19  1  0  0  0  0
 12 13  1  0  0  0  0
 12 14  1  0  0  0  0
 12 21  1  0  0  0  0
 13 16  1  0  0  0  0
 15 17  1  0  0  0  0
 15 18  1  0  0  0  0
 15 24  1  0  0  0  0
 16 22  1  0  0  0  0
 19 20  1  0  0  0  0
 19 23  1  0  0  0  0
 22 25  1  0  0  0  0
 23 26  1  0  0  0  0
 25 27  2  0  0  0  0
 25 28  1  0  0  0  0
 26 29  2  0  0  0  0
 26 30  1  0  0  0  0
 27 34  1  0  0  0  0
 28 35  2  0  0  0  0
 29 32  1  0  0  0  0
 30 33  2  0  0  0  0
 31 32  2  0  0  0  0
 31 33  1  0  0  0  0
 34 36  2  0  0  0  0
 35 36  1  0  0  0  0
M  END
> <PUBCHEM_COMPOUND_ID_TYPE>
0

> <PUBCHEM_TOTAL_CHARGE>
0

> <PUBCHEM_SUBSTANCE_ID>
310946064

> <PUBCHEM_SUBSTANCE_VERSION>
1

> <PUBCHEM_EXT_DATASOURCE_NAME>
4488

> <PUBCHEM_EXT_DATASOURCE_REGID>
SCHEMBL16124170

> <PUBCHEM_SUBSTANCE_COMMENT>
InChI=1S/C26H29F3N2O6/c1-24(15-37-24)21(32)19(13-16-7-5-4-6-8-16)30-22(33)20(14-17-9-11-18(36-3)12-10-17)31-23(34)25(2,35)26(27,28)29/h4-12,19-20,35H,13-15H2,1-3H3,(H,30,33)(H,31,34)
InChIKey=ZQZIGAYJRNPJDE-UHFFFAOYSA-N

> <PUBCHEM_SUBSTANCE_SYNONYM>
SCHEMBL16124170

> <PUBCHEM_XREF_EXT_ID>
SCHEMBL16124170

> <PUBCHEM_EXT_DATASOURCE_URL>
https://www.surechembl.org/

> <PUBCHEM_EXT_SUBSTANCE_URL>
https://www.surechembl.org/chemical/SCHEMBL16124170

> <PUBCHEM_CID_ASSOCIATIONS>
117612035  1

> <PUBCHEM_COORDINATE_TYPE>
1
3

$$$$
