310940651
  -OEChem-07211613022D

 30 34  0     1  0  0  0  0  0999 V2000
    2.7181   -0.1591    0.0000 O   0  0  0  0  0  0  0  0  0  0  0  0
   -1.4732   -0.3389    0.0000 O   0  0  0  0  0  0  0  0  0  0  0  0
   -2.7734   -2.2755    0.0000 O   0  0  0  0  0  0  0  0  0  0  0  0
    2.7734    1.3210    0.0000 O   0  0  0  0  0  0  0  0  0  0  0  0
    0.2559    2.2616    0.0000 O   0  0  0  0  0  0  0  0  0  0  0  0
    1.5561    0.4911    0.0000 N   0  0  0  0  0  0  0  0  0  0  0  0
    1.4040   -1.9988    0.0000 N   0  0  0  0  0  0  0  0  0  0  0  0
   -2.3722   -3.0086    0.0000 N   0  0  0  0  0  0  0  0  0  0  0  0
    1.3902   -0.3527    0.0000 C   0  0  0  0  0  0  0  0  0  0  0  0
    0.6847   -0.7677    0.0000 C   0  0  0  0  0  0  0  0  0  0  0  0
    2.1094   -0.7538    0.0000 C   0  0  0  0  0  0  0  0  0  0  0  0
    0.6709   -1.5977    0.0000 C   0  0  0  0  0  0  0  0  0  0  0  0
   -0.7538   -1.6115    0.0000 C   0  0  0  0  0  0  0  0  0  0  0  0
    2.3584    0.5464    0.0000 C   0  0  0  0  0  0  0  0  0  0  0  0
   -0.7400   -0.7815    0.0000 C   0  0  0  0  0  0  0  0  0  0  0  0
   -0.0346   -0.3804    0.0000 C   0  0  0  0  0  0  0  0  0  0  0  0
   -0.0346   -2.0126    0.0000 C   0  0  0  0  0  0  0  0  0  0  0  0
   -1.4732   -2.0265    0.0000 C   0  0  0  0  0  0  0  0  0  0  0  0
    2.1094   -1.5977    0.0000 C   0  0  0  0  0  0  0  0  0  0  0  0
    0.8783    0.9336    0.0000 C   0  0  0  0  0  0  0  0  0  0  0  0
   -2.2201   -1.6806    0.0000 C   0  0  0  0  0  0  0  0  0  0  0  0
   -1.5561   -2.8564    0.0000 C   0  0  0  0  0  0  0  0  0  0  0  0
    0.9336    1.7636    0.0000 C   0  0  3  0  0  0  0  0  0  0  0  0
   -2.3861   -0.8645    0.0000 C   0  0  0  0  0  0  0  0  0  0  0  0
   -0.9336   -3.4235    0.0000 C   0  0  0  0  0  0  0  0  0  0  0  0
    1.6668    2.1233    0.0000 C   0  0  0  0  0  0  0  0  0  0  0  0
   -1.4732    0.4772    0.0000 C   0  0  0  0  0  0  0  0  0  0  0  0
    0.3389    3.0639    0.0000 C   0  0  0  0  0  0  0  0  0  0  0  0
    1.7359    2.9532    0.0000 C   0  0  0  0  0  0  0  0  0  0  0  0
    1.0581    3.4235    0.0000 C   0  0  0  0  0  0  0  0  0  0  0  0
  1 11  1  0  0  0  0
  1 14  1  0  0  0  0
  2 15  1  0  0  0  0
  2 27  1  0  0  0  0
  3  8  1  0  0  0  0
  3 21  1  0  0  0  0
  4 14  2  0  0  0  0
  5 23  1  0  0  0  0
  5 28  1  0  0  0  0
  6  9  1  0  0  0  0
  6 14  1  0  0  0  0
  6 20  1  0  0  0  0
  7 12  1  0  0  0  0
  7 19  2  0  0  0  0
  8 22  2  0  0  0  0
  9 10  1  0  0  0  0
  9 11  2  0  0  0  0
 10 12  1  0  0  0  0
 10 16  2  0  0  0  0
 11 19  1  0  0  0  0
 12 17  2  0  0  0  0
 13 15  2  0  0  0  0
 13 17  1  0  0  0  0
 13 18  1  0  0  0  0
 15 16  1  0  0  0  0
 18 21  2  0  0  0  0
 18 22  1  0  0  0  0
 20 23  1  0  0  0  0
 21 24  1  0  0  0  0
 22 25  1  0  0  0  0
 23 26  1  0  0  0  0
 26 29  1  0  0  0  0
 28 30  1  0  0  0  0
 29 30  1  0  0  0  0
M  END
> <PUBCHEM_COMPOUND_ID_TYPE>
0

> <PUBCHEM_TOTAL_CHARGE>
0

> <PUBCHEM_SUBSTANCE_ID>
310940651

> <PUBCHEM_SUBSTANCE_VERSION>
1

> <PUBCHEM_EXT_DATASOURCE_NAME>
4488

> <PUBCHEM_EXT_DATASOURCE_REGID>
SCHEMBL16118606

> <PUBCHEM_SUBSTANCE_COMMENT>
InChI=1S/C22H23N3O5/c1-12-20(13(2)30-24-12)16-8-17-15(9-18(16)27-3)21-19(10-23-17)29-22(26)25(21)11-14-6-4-5-7-28-14/h8-10,14H,4-7,11H2,1-3H3
InChIKey=CZZMIFASPUFTOR-UHFFFAOYSA-N

> <PUBCHEM_SUBSTANCE_SYNONYM>
SCHEMBL16118606

> <PUBCHEM_XREF_EXT_ID>
SCHEMBL16118606

> <PUBCHEM_EXT_DATASOURCE_URL>
https://www.surechembl.org/

> <PUBCHEM_EXT_SUBSTANCE_URL>
https://www.surechembl.org/chemical/SCHEMBL16118606

> <PUBCHEM_CID_ASSOCIATIONS>
86305175  1

> <PUBCHEM_COORDINATE_TYPE>
1
3

$$$$
