310935006
  -OEChem-07211613022D

 31 35  0     1  0  0  0  0  0999 V2000
    0.9555   -2.0638    0.0000 Cl  0  0  0  0  0  0  0  0  0  0  0  0
    8.0261   -2.2549    0.0000 F   0  0  0  0  0  0  0  0  0  0  0  0
    4.5863   -1.1466    0.0000 N   0  0  0  0  0  0  0  0  0  0  0  0
    3.9366    0.0000    0.0000 N   0  0  0  0  0  0  0  0  0  0  0  0
    1.3759   -4.2042    0.0000 N   0  0  3  0  0  0  0  0  0  0  0  0
    0.1529   -6.4209    0.0000 N   0  0  0  0  0  0  0  0  0  0  0  0
    3.8220   -1.3377    0.0000 C   0  0  0  0  0  0  0  0  0  0  0  0
    3.3633   -0.6115    0.0000 C   0  0  0  0  0  0  0  0  0  0  0  0
    2.5989   -2.0638    0.0000 C   0  0  0  0  0  0  0  0  0  0  0  0
    2.1785   -2.7901    0.0000 C   0  0  0  0  0  0  0  0  0  0  0  0
    3.4015   -2.0638    0.0000 C   0  0  0  0  0  0  0  0  0  0  0  0
    2.5607   -0.6115    0.0000 C   0  0  0  0  0  0  0  0  0  0  0  0
    2.1403   -1.2995    0.0000 C   0  0  0  0  0  0  0  0  0  0  0  0
    4.7010   -0.3440    0.0000 C   0  0  0  0  0  0  0  0  0  0  0  0
    1.3759   -2.7901    0.0000 C   0  0  0  0  0  0  0  0  0  0  0  0
    5.2361   -1.6817    0.0000 C   0  0  0  0  0  0  0  0  0  0  0  0
    2.6372   -3.4780    0.0000 C   0  0  0  0  0  0  0  0  0  0  0  0
    6.0005   -1.4141    0.0000 C   0  0  0  0  0  0  0  0  0  0  0  0
    0.9555   -3.4780    0.0000 C   0  0  0  0  0  0  0  0  0  0  0  0
    2.1785   -4.2042    0.0000 C   0  0  0  0  0  0  0  0  0  0  0  0
    6.6120   -1.9874    0.0000 C   0  0  0  0  0  0  0  0  0  0  0  0
    0.9555   -4.8921    0.0000 C   0  0  0  0  0  0  0  0  0  0  0  0
    6.1916   -0.6115    0.0000 C   0  0  0  0  0  0  0  0  0  0  0  0
    7.4146   -1.7199    0.0000 C   0  0  0  0  0  0  0  0  0  0  0  0
    6.9560   -0.3440    0.0000 C   0  0  0  0  0  0  0  0  0  0  0  0
    1.3759   -5.6183    0.0000 C   0  0  0  0  0  0  0  0  0  0  0  0
    7.5675   -0.9172    0.0000 C   0  0  0  0  0  0  0  0  0  0  0  0
    0.9937   -6.3445    0.0000 C   0  0  3  0  0  0  0  0  0  0  0  0
    1.3377   -7.1088    0.0000 C   0  0  0  0  0  0  0  0  0  0  0  0
    0.0000   -7.2617    0.0000 C   0  0  0  0  0  0  0  0  0  0  0  0
    0.7262   -7.6439    0.0000 C   0  0  0  0  0  0  0  0  0  0  0  0
  1 15  1  0  0  0  0
  2 24  1  0  0  0  0
  3  7  1  0  0  0  0
  3 14  1  0  0  0  0
  3 16  1  0  0  0  0
  4  8  1  0  0  0  0
  4 14  2  0  0  0  0
  5 19  1  0  0  0  0
  5 20  1  0  0  0  0
  5 22  1  0  0  0  0
  6 28  1  0  0  0  0
  6 30  1  0  0  0  0
  7  8  2  0  0  0  0
  7 11  1  0  0  0  0
  8 12  1  0  0  0  0
  9 10  1  0  0  0  0
  9 11  2  0  0  0  0
  9 13  1  0  0  0  0
 10 15  1  0  0  0  0
 10 17  2  0  0  0  0
 12 13  2  0  0  0  0
 15 19  2  0  0  0  0
 16 18  1  0  0  0  0
 17 20  1  0  0  0  0
 18 21  2  0  0  0  0
 18 23  1  0  0  0  0
 21 24  1  0  0  0  0
 22 26  1  0  0  0  0
 23 25  2  0  0  0  0
 24 27  2  0  0  0  0
 25 27  1  0  0  0  0
 26 28  1  0  0  0  0
 28 29  1  0  0  0  0
 29 31  1  0  0  0  0
 30 31  1  0  0  0  0
M  END
> <PUBCHEM_COMPOUND_ID_TYPE>
0

> <PUBCHEM_TOTAL_CHARGE>
0

> <PUBCHEM_SUBSTANCE_ID>
310935006

> <PUBCHEM_SUBSTANCE_VERSION>
1

> <PUBCHEM_EXT_DATASOURCE_NAME>
4488

> <PUBCHEM_EXT_DATASOURCE_REGID>
SCHEMBL16112525

> <PUBCHEM_SUBSTANCE_COMMENT>
InChI=1S/C25H26ClFN4/c26-23-16-30(11-8-21-5-2-10-28-21)12-9-22(23)19-6-7-24-25(14-19)31(17-29-24)15-18-3-1-4-20(27)13-18/h1,3-4,6-7,9,13-14,16-17,21,28H,2,5,8,10-12,15H2
InChIKey=DPZMAFSUAUBVCM-UHFFFAOYSA-N

> <PUBCHEM_SUBSTANCE_SYNONYM>
SCHEMBL16112525

> <PUBCHEM_XREF_EXT_ID>
SCHEMBL16112525

> <PUBCHEM_EXT_DATASOURCE_URL>
https://www.surechembl.org/

> <PUBCHEM_EXT_SUBSTANCE_URL>
https://www.surechembl.org/chemical/SCHEMBL16112525

> <PUBCHEM_CID_ASSOCIATIONS>
117603119  1

> <PUBCHEM_COORDINATE_TYPE>
1
3

$$$$
