310941194
  -OEChem-07211613022D

 45 48  0     1  0  0  0  0  0999 V2000
    5.3675   -2.9040    0.0000 F   0  0  0  0  0  0  0  0  0  0  0  0
    4.6380   -1.6653    0.0000 F   0  0  0  0  0  0  0  0  0  0  0  0
    5.3675   -2.0782    0.0000 F   0  0  0  0  0  0  0  0  0  0  0  0
    5.0509    0.6881    0.0000 O   0  0  0  0  0  0  0  0  0  0  0  0
    3.9224   -1.2662    0.0000 O   0  0  0  0  0  0  0  0  0  0  0  0
    1.7754    0.7845    0.0000 O   0  0  0  0  0  0  0  0  0  0  0  0
    3.9362   -2.9177    0.0000 O   0  0  0  0  0  0  0  0  0  0  0  0
   -0.3716   -1.2800    0.0000 O   0  0  0  0  0  0  0  0  0  0  0  0
   -2.5186    0.7845    0.0000 O   0  0  0  0  0  0  0  0  0  0  0  0
   -5.3812    0.7707    0.0000 O   0  0  0  0  0  0  0  0  0  0  0  0
    2.5048   -0.4266    0.0000 N   0  0  0  0  0  0  0  0  0  0  0  0
    0.3441   -0.0275    0.0000 N   0  0  0  0  0  0  0  0  0  0  0  0
   -1.8029   -0.4404    0.0000 N   0  0  0  0  0  0  0  0  0  0  0  0
   -3.9499   -0.0413    0.0000 N   0  0  0  0  0  0  0  0  0  0  0  0
    4.6380    0.0000    0.0000 C   0  0  3  0  0  0  0  0  0  0  0  0
    3.9362   -0.4129    0.0000 C   0  0  0  0  0  0  0  0  0  0  0  0
    4.2527    0.7019    0.0000 C   0  0  0  0  0  0  0  0  0  0  0  0
    3.2067   -0.0137    0.0000 C   0  0  3  0  0  0  0  0  0  0  0  0
    5.3812   -0.4266    0.0000 C   0  0  0  0  0  0  0  0  0  0  0  0
    3.2205    1.2937    0.0000 C   0  0  0  0  0  0  0  0  0  0  0  0
    1.7754   -0.0413    0.0000 C   0  0  0  0  0  0  0  0  0  0  0  0
    1.0735   -0.4404    0.0000 C   0  0  3  0  0  0  0  0  0  0  0  0
    2.4911    1.7341    0.0000 C   0  0  0  0  0  0  0  0  0  0  0  0
    1.0735   -1.2662    0.0000 C   0  0  0  0  0  0  0  0  0  0  0  0
    1.7891   -1.6791    0.0000 C   0  0  0  0  0  0  0  0  0  0  0  0
   -0.3716   -0.4129    0.0000 C   0  0  0  0  0  0  0  0  0  0  0  0
    1.8029    1.2937    0.0000 C   0  0  0  0  0  0  0  0  0  0  0  0
    2.4911    2.5323    0.0000 C   0  0  0  0  0  0  0  0  0  0  0  0
    3.2205   -2.4773    0.0000 C   0  0  0  0  0  0  0  0  0  0  0  0
    1.8029   -2.5048    0.0000 C   0  0  0  0  0  0  0  0  0  0  0  0
    2.4911   -1.2662    0.0000 C   0  0  0  0  0  0  0  0  0  0  0  0
   -1.1010   -0.0275    0.0000 C   0  0  3  0  0  0  0  0  0  0  0  0
    2.5048   -2.8902    0.0000 C   0  0  0  0  0  0  0  0  0  0  0  0
    3.2067   -1.6653    0.0000 C   0  0  0  0  0  0  0  0  0  0  0  0
    1.0735    1.7066    0.0000 C   0  0  0  0  0  0  0  0  0  0  0  0
    1.7616    2.9177    0.0000 C   0  0  0  0  0  0  0  0  0  0  0  0
    4.6656   -2.4773    0.0000 C   0  0  0  0  0  0  0  0  0  0  0  0
    1.0735    2.5186    0.0000 C   0  0  0  0  0  0  0  0  0  0  0  0
   -2.5323   -0.0551    0.0000 C   0  0  0  0  0  0  0  0  0  0  0  0
   -1.0873    0.8120    0.0000 C   0  0  0  0  0  0  0  0  0  0  0  0
   -3.2067   -0.4542    0.0000 C   0  0  0  0  0  0  0  0  0  0  0  0
   -3.9362    0.7707    0.0000 C   0  0  0  0  0  0  0  0  0  0  0  0
   -4.6380   -0.4542    0.0000 C   0  0  0  0  0  0  0  0  0  0  0  0
   -4.6656    1.1836    0.0000 C   0  0  0  0  0  0  0  0  0  0  0  0
   -5.3812   -0.0413    0.0000 C   0  0  0  0  0  0  0  0  0  0  0  0
  1 37  1  0  0  0  0
  2 37  1  0  0  0  0
  3 37  1  0  0  0  0
  4 15  1  0  0  0  0
  4 17  1  0  0  0  0
  5 16  2  0  0  0  0
  6 21  2  0  0  0  0
  7 29  1  0  0  0  0
  7 37  1  0  0  0  0
  8 26  2  0  0  0  0
  9 39  2  0  0  0  0
 10 44  1  0  0  0  0
 10 45  1  0  0  0  0
 11 18  1  0  0  0  0
 11 21  1  0  0  0  0
 12 22  1  0  0  0  0
 12 26  1  0  0  0  0
 13 32  1  0  0  0  0
 13 39  1  0  0  0  0
 14 41  1  0  0  0  0
 14 42  1  0  0  0  0
 14 43  1  0  0  0  0
 15 16  1  0  0  0  0
 15 17  1  0  0  0  0
 15 19  1  0  0  0  0
 16 18  1  0  0  0  0
 18 20  1  0  0  0  0
 20 23  1  0  0  0  0
 21 22  1  0  0  0  0
 22 24  1  0  0  0  0
 23 27  2  0  0  0  0
 23 28  1  0  0  0  0
 24 25  1  0  0  0  0
 25 30  2  0  0  0  0
 25 31  1  0  0  0  0
 26 32  1  0  0  0  0
 27 35  1  0  0  0  0
 28 36  2  0  0  0  0
 29 33  2  0  0  0  0
 29 34  1  0  0  0  0
 30 33  1  0  0  0  0
 31 34  2  0  0  0  0
 32 40  1  0  0  0  0
 35 38  2  0  0  0  0
 36 38  1  0  0  0  0
 39 41  1  0  0  0  0
 42 44  1  0  0  0  0
 43 45  1  0  0  0  0
M  END
> <PUBCHEM_COMPOUND_ID_TYPE>
0

> <PUBCHEM_TOTAL_CHARGE>
0

> <PUBCHEM_SUBSTANCE_ID>
310941194

> <PUBCHEM_SUBSTANCE_VERSION>
1

> <PUBCHEM_EXT_DATASOURCE_NAME>
4488

> <PUBCHEM_EXT_DATASOURCE_REGID>
SCHEMBL16119154

> <PUBCHEM_SUBSTANCE_COMMENT>
InChI=1S/C31H37F3N4O7/c1-20(35-26(39)18-38-12-14-43-15-13-38)28(41)37-25(17-22-8-10-23(11-9-22)45-31(32,33)34)29(42)36-24(27(40)30(2)19-44-30)16-21-6-4-3-5-7-21/h3-11,20,24-25H,12-19H2,1-2H3,(H,35,39)(H,36,42)(H,37,41)
InChIKey=RCWDLVIOFIHLBK-UHFFFAOYSA-N

> <PUBCHEM_SUBSTANCE_SYNONYM>
SCHEMBL16119154

> <PUBCHEM_XREF_EXT_ID>
SCHEMBL16119154

> <PUBCHEM_EXT_DATASOURCE_URL>
https://www.surechembl.org/

> <PUBCHEM_EXT_SUBSTANCE_URL>
https://www.surechembl.org/chemical/SCHEMBL16119154

> <PUBCHEM_CID_ASSOCIATIONS>
117608067  1

> <PUBCHEM_COORDINATE_TYPE>
1
3

$$$$
