310930013
  -OEChem-07211613022D

 25 25  0     1  0  0  0  0  0999 V2000
    2.8286    3.8683    0.0000 S   0  0  0  0  0  0  0  0  0  0  0  0
    2.8286    3.0433    0.0000 O   0  0  0  0  0  0  0  0  0  0  0  0
    2.8286    4.6933    0.0000 O   0  5  0  0  0  0  0  0  0  0  0  0
    2.0036    3.8683    0.0000 O   0  0  0  0  0  0  0  0  0  0  0  0
    3.6536    3.8683    0.0000 O   0  0  0  0  0  0  0  0  0  0  0  0
    4.2575    1.3933    0.0000 N   0  0  3  0  0  0  0  0  0  0  0  0
    4.3045   -3.6291    0.0000 N   0  0  0  0  0  0  0  0  0  0  0  0
    4.9720   -2.3192    0.0000 N   0  0  0  0  0  0  0  0  0  0  0  0
    4.2575   -1.9067    0.0000 N   0  0  0  0  0  0  0  0  0  0  0  0
    5.6394   -3.6291    0.0000 N   0  0  0  0  0  0  0  0  0  0  0  0
    5.3845   -4.4138    0.0000 N   0  0  0  0  0  0  0  0  0  0  0  0
    4.2575    0.5683    0.0000 C   0  0  0  0  0  0  0  0  0  0  0  0
    4.9720   -3.1442    0.0000 C   0  0  0  0  0  0  0  0  0  0  0  0
    4.2575   -1.0817    0.0000 C   0  0  0  0  0  0  0  0  0  0  0  0
    4.9720    0.1558    0.0000 C   0  0  0  0  0  0  0  0  0  0  0  0
    3.5430    0.1558    0.0000 C   0  0  0  0  0  0  0  0  0  0  0  0
    4.9720   -0.6692    0.0000 C   0  0  0  0  0  0  0  0  0  0  0  0
    3.5430   -0.6692    0.0000 C   0  0  0  0  0  0  0  0  0  0  0  0
    4.5595   -4.4138    0.0000 C   0  0  0  0  0  0  0  0  0  0  0  0
    3.5430    1.8058    0.0000 C   0  0  0  0  0  0  0  0  0  0  0  0
    4.9720    1.8058    0.0000 C   0  0  0  0  0  0  0  0  0  0  0  0
    3.5430    2.6308    0.0000 C   0  0  0  0  0  0  0  0  0  0  0  0
    3.5199   -3.3742    0.0000 C   0  0  0  0  0  0  0  0  0  0  0  0
    5.6865    1.3933    0.0000 C   0  0  0  0  0  0  0  0  0  0  0  0
    0.0000    0.0000    0.0000 H   0  3  0  0  0  0  0  0  0  0  0  0
  1  2  1  0  0  0  0
  1  3  1  0  0  0  0
  1  4  2  0  0  0  0
  1  5  2  0  0  0  0
  2 22  1  0  0  0  0
  6 12  1  0  0  0  0
  6 20  1  0  0  0  0
  6 21  1  0  0  0  0
  7 13  1  0  0  0  0
  7 19  1  0  0  0  0
  7 23  1  0  0  0  0
  8  9  2  0  0  0  0
  8 13  1  0  0  0  0
  9 14  1  0  0  0  0
 10 11  1  0  0  0  0
 10 13  2  0  0  0  0
 11 19  2  0  0  0  0
 12 15  2  0  0  0  0
 12 16  1  0  0  0  0
 14 17  2  0  0  0  0
 14 18  1  0  0  0  0
 15 17  1  0  0  0  0
 16 18  2  0  0  0  0
 20 22  1  0  0  0  0
 21 24  1  0  0  0  0
M  CHG  2   3  -1  25   1
M  END
> <PUBCHEM_COMPOUND_ID_TYPE>
0

> <PUBCHEM_TOTAL_CHARGE>
0

> <PUBCHEM_SUBSTANCE_ID>
310930013

> <PUBCHEM_SUBSTANCE_VERSION>
1

> <PUBCHEM_EXT_DATASOURCE_NAME>
4488

> <PUBCHEM_EXT_DATASOURCE_REGID>
SCHEMBL16107252

> <PUBCHEM_SUBSTANCE_COMMENT>
InChI=1S/C13H18N6O4S/c1-3-19(8-9-23-24(20,21)22)12-6-4-11(5-7-12)15-17-13-16-14-10-18(13)2/h4-7,10H,3,8-9H2,1-2H3,(H,20,21,22)/b17-15+
InChIKey=MWGWECAJQFOBEV-BMRADRMJSA-N

> <PUBCHEM_SUBSTANCE_SYNONYM>
SCHEMBL16107252

> <PUBCHEM_XREF_EXT_ID>
SCHEMBL16107252

> <PUBCHEM_EXT_DATASOURCE_URL>
https://www.surechembl.org/

> <PUBCHEM_EXT_SUBSTANCE_URL>
https://www.surechembl.org/chemical/SCHEMBL16107252

> <PUBCHEM_CID_ASSOCIATIONS>
117599261  1
783  2
89559081  2

> <PUBCHEM_COORDINATE_TYPE>
1
3

> <PUBCHEM_BONDANNOTATIONS>
9  14  3

$$$$
