310946838
  -OEChem-07211613022D

 18 20  0     1  0  0  0  0  0999 V2000
   -3.0270    1.3430    0.0000 Br  0  0  0  0  0  0  0  0  0  0  0  0
    0.0568   -0.5613    0.0000 S   0  0  0  0  0  0  0  0  0  0  0  0
    0.7532   -0.9735    0.0000 O   0  0  0  0  0  0  0  0  0  0  0  0
   -0.1137   -1.3430    0.0000 O   0  0  0  0  0  0  0  0  0  0  0  0
    0.6537    0.0781    0.0000 N   0  0  3  0  0  0  0  0  0  0  0  0
    3.0270   -0.2345    0.0000 N   0  0  0  0  0  0  0  0  0  0  0  0
   -0.7105   -0.1634    0.0000 C   0  0  0  0  0  0  0  0  0  0  0  0
   -0.5827    0.6751    0.0000 C   0  0  0  0  0  0  0  0  0  0  0  0
    0.2274    0.8314    0.0000 C   0  0  0  0  0  0  0  0  0  0  0  0
    1.4353   -0.0355    0.0000 C   0  0  0  0  0  0  0  0  0  0  0  0
   -1.4922   -0.5045    0.0000 C   0  0  0  0  0  0  0  0  0  0  0  0
   -1.3075    1.1724    0.0000 C   0  0  0  0  0  0  0  0  0  0  0  0
   -2.0606    0.8598    0.0000 C   0  0  0  0  0  0  0  0  0  0  0  0
   -2.1743    0.0071    0.0000 C   0  0  0  0  0  0  0  0  0  0  0  0
    1.7480   -0.7603    0.0000 C   0  0  0  0  0  0  0  0  0  0  0  0
    1.9328    0.6040    0.0000 C   0  0  0  0  0  0  0  0  0  0  0  0
    2.7144    0.5045    0.0000 C   0  0  0  0  0  0  0  0  0  0  0  0
    2.5439   -0.8740    0.0000 C   0  0  0  0  0  0  0  0  0  0  0  0
  1 13  1  0  0  0  0
  2  3  2  0  0  0  0
  2  4  2  0  0  0  0
  2  5  1  0  0  0  0
  2  7  1  0  0  0  0
  5  9  1  0  0  0  0
  5 10  1  0  0  0  0
  6 17  1  0  0  0  0
  6 18  1  0  0  0  0
  7  8  1  0  0  0  0
  7 11  2  0  0  0  0
  8  9  1  0  0  0  0
  8 12  2  0  0  0  0
 10 15  1  0  0  0  0
 10 16  1  0  0  0  0
 11 14  1  0  0  0  0
 12 13  1  0  0  0  0
 13 14  2  0  0  0  0
 15 18  1  0  0  0  0
 16 17  1  0  0  0  0
M  END
> <PUBCHEM_COMPOUND_ID_TYPE>
0

> <PUBCHEM_TOTAL_CHARGE>
0

> <PUBCHEM_SUBSTANCE_ID>
310946838

> <PUBCHEM_SUBSTANCE_VERSION>
1

> <PUBCHEM_EXT_DATASOURCE_NAME>
4488

> <PUBCHEM_EXT_DATASOURCE_REGID>
SCHEMBL16124962

> <PUBCHEM_SUBSTANCE_COMMENT>
InChI=1S/C12H15BrN2O2S/c13-10-1-2-12-9(7-10)8-15(18(12,16)17)11-3-5-14-6-4-11/h1-2,7,11,14H,3-6,8H2
InChIKey=NYFPPQVZBQCLLQ-UHFFFAOYSA-N

> <PUBCHEM_SUBSTANCE_SYNONYM>
SCHEMBL16124962

> <PUBCHEM_XREF_EXT_ID>
SCHEMBL16124962

> <PUBCHEM_EXT_DATASOURCE_URL>
https://www.surechembl.org/

> <PUBCHEM_EXT_SUBSTANCE_URL>
https://www.surechembl.org/chemical/SCHEMBL16124962

> <PUBCHEM_CID_ASSOCIATIONS>
117612697  1

> <PUBCHEM_COORDINATE_TYPE>
1
3

$$$$
