310945787
  -OEChem-07211613022D

 45 49  0     1  0  0  0  0  0999 V2000
    5.3052    0.6692    0.0000 O   0  0  0  0  0  0  0  0  0  0  0  0
    4.1619   -1.2967    0.0000 O   0  0  0  0  0  0  0  0  0  0  0  0
   -2.3493    0.7808    0.0000 O   0  0  0  0  0  0  0  0  0  0  0  0
    1.9869    0.7808    0.0000 O   0  0  0  0  0  0  0  0  0  0  0  0
   -0.1743   -1.2967    0.0000 O   0  0  0  0  0  0  0  0  0  0  0  0
    4.1619   -2.9698    0.0000 O   0  0  0  0  0  0  0  0  0  0  0  0
    2.7119   -0.4601    0.0000 N   0  0  0  0  0  0  0  0  0  0  0  0
   -1.6243   -0.4601    0.0000 N   0  0  0  0  0  0  0  0  0  0  0  0
    0.5507   -0.0418    0.0000 N   0  0  0  0  0  0  0  0  0  0  0  0
    4.8869    0.0000    0.0000 C   0  0  3  0  0  0  0  0  0  0  0  0
    4.1759   -0.4183    0.0000 C   0  0  0  0  0  0  0  0  0  0  0  0
    4.4966    0.6832    0.0000 C   0  0  0  0  0  0  0  0  0  0  0  0
    3.4229   -0.0139    0.0000 C   0  0  3  0  0  0  0  0  0  0  0  0
   -3.0744   -0.4322    0.0000 C   0  0  0  0  0  0  0  0  0  0  0  0
   -3.9807   -1.4361    0.0000 C   0  0  0  0  0  0  0  0  0  0  0  0
   -3.1859   -1.2549    0.0000 C   0  0  0  0  0  0  0  0  0  0  0  0
   -4.3850   -0.7250    0.0000 C   0  0  0  0  0  0  0  0  0  0  0  0
    5.6259   -0.4461    0.0000 C   0  0  0  0  0  0  0  0  0  0  0  0
   -3.8273   -0.1115    0.0000 C   0  0  0  0  0  0  0  0  0  0  0  0
    3.4369    1.3106    0.0000 C   0  0  0  0  0  0  0  0  0  0  0  0
   -2.3493   -0.0418    0.0000 C   0  0  0  0  0  0  0  0  0  0  0  0
    1.9869   -0.0418    0.0000 C   0  0  0  0  0  0  0  0  0  0  0  0
    1.2758   -0.4322    0.0000 C   0  0  3  0  0  0  0  0  0  0  0  0
   -4.3850   -2.1612    0.0000 C   0  0  0  0  0  0  0  0  0  0  0  0
   -5.2216   -0.7250    0.0000 C   0  0  0  0  0  0  0  0  0  0  0  0
    2.7119    1.7429    0.0000 C   0  0  0  0  0  0  0  0  0  0  0  0
   -0.9133   -0.0139    0.0000 C   0  0  3  0  0  0  0  0  0  0  0  0
   -0.1743   -0.4183    0.0000 C   0  0  0  0  0  0  0  0  0  0  0  0
   -2.5445   -1.8265    0.0000 C   0  0  0  0  0  0  0  0  0  0  0  0
   -5.2216   -2.1612    0.0000 C   0  0  0  0  0  0  0  0  0  0  0  0
   -5.6259   -1.4501    0.0000 C   0  0  0  0  0  0  0  0  0  0  0  0
    1.2758   -1.2827    0.0000 C   0  0  0  0  0  0  0  0  0  0  0  0
    2.0147   -1.6871    0.0000 C   0  0  0  0  0  0  0  0  0  0  0  0
    2.7119    2.5515    0.0000 C   0  0  0  0  0  0  0  0  0  0  0  0
    2.0008    1.3246    0.0000 C   0  0  0  0  0  0  0  0  0  0  0  0
   -0.8853    0.8226    0.0000 C   0  0  0  0  0  0  0  0  0  0  0  0
    2.0147   -2.5236    0.0000 C   0  0  0  0  0  0  0  0  0  0  0  0
    2.7119   -1.2967    0.0000 C   0  0  0  0  0  0  0  0  0  0  0  0
    1.9869    2.9698    0.0000 C   0  0  0  0  0  0  0  0  0  0  0  0
    1.2897    1.7289    0.0000 C   0  0  0  0  0  0  0  0  0  0  0  0
    3.4369   -2.5097    0.0000 C   0  0  0  0  0  0  0  0  0  0  0  0
    2.7258   -2.9280    0.0000 C   0  0  0  0  0  0  0  0  0  0  0  0
    3.4369   -1.6871    0.0000 C   0  0  0  0  0  0  0  0  0  0  0  0
    1.2897    2.5515    0.0000 C   0  0  0  0  0  0  0  0  0  0  0  0
    4.9148   -2.5376    0.0000 C   0  0  0  0  0  0  0  0  0  0  0  0
  1 10  1  0  0  0  0
  1 12  1  0  0  0  0
  2 11  2  0  0  0  0
  3 21  2  0  0  0  0
  4 22  2  0  0  0  0
  5 28  2  0  0  0  0
  6 41  1  0  0  0  0
  6 45  1  0  0  0  0
  7 13  1  0  0  0  0
  7 22  1  0  0  0  0
  8 21  1  0  0  0  0
  8 27  1  0  0  0  0
  9 23  1  0  0  0  0
  9 28  1  0  0  0  0
 10 11  1  0  0  0  0
 10 12  1  0  0  0  0
 10 18  1  0  0  0  0
 11 13  1  0  0  0  0
 13 20  1  0  0  0  0
 14 16  2  0  0  0  0
 14 19  1  0  0  0  0
 14 21  1  0  0  0  0
 15 16  1  0  0  0  0
 15 17  1  0  0  0  0
 15 24  2  0  0  0  0
 16 29  1  0  0  0  0
 17 19  1  0  0  0  0
 17 25  2  0  0  0  0
 20 26  1  0  0  0  0
 22 23  1  0  0  0  0
 23 32  1  0  0  0  0
 24 30  1  0  0  0  0
 25 31  1  0  0  0  0
 26 34  2  0  0  0  0
 26 35  1  0  0  0  0
 27 28  1  0  0  0  0
 27 36  1  0  0  0  0
 30 31  2  0  0  0  0
 32 33  1  0  0  0  0
 33 37  2  0  0  0  0
 33 38  1  0  0  0  0
 34 39  1  0  0  0  0
 35 40  2  0  0  0  0
 37 42  1  0  0  0  0
 38 43  2  0  0  0  0
 39 44  2  0  0  0  0
 40 44  1  0  0  0  0
 41 42  2  0  0  0  0
 41 43  1  0  0  0  0
M  END
> <PUBCHEM_COMPOUND_ID_TYPE>
0

> <PUBCHEM_TOTAL_CHARGE>
0

> <PUBCHEM_SUBSTANCE_ID>
310945787

> <PUBCHEM_SUBSTANCE_VERSION>
1

> <PUBCHEM_EXT_DATASOURCE_NAME>
4488

> <PUBCHEM_EXT_DATASOURCE_REGID>
SCHEMBL16123891

> <PUBCHEM_SUBSTANCE_COMMENT>
InChI=1S/C36H39N3O6/c1-22-28-13-9-8-12-26(28)20-29(22)34(42)37-23(2)33(41)39-31(19-25-14-16-27(44-4)17-15-25)35(43)38-30(32(40)36(3)21-45-36)18-24-10-6-5-7-11-24/h5-17,23,30-31H,18-21H2,1-4H3,(H,37,42)(H,38,43)(H,39,41)
InChIKey=ZMKRLIQLFDZOLS-UHFFFAOYSA-N

> <PUBCHEM_SUBSTANCE_SYNONYM>
SCHEMBL16123891

> <PUBCHEM_XREF_EXT_ID>
SCHEMBL16123891

> <PUBCHEM_EXT_DATASOURCE_URL>
https://www.surechembl.org/

> <PUBCHEM_EXT_SUBSTANCE_URL>
https://www.surechembl.org/chemical/SCHEMBL16123891

> <PUBCHEM_CID_ASSOCIATIONS>
117611774  1

> <PUBCHEM_COORDINATE_TYPE>
1
3

$$$$
