310936923
  -OEChem-07211613022D

 31 33  0     1  0  0  0  0  0999 V2000
   -3.4914   -2.3645    0.0000 S   0  0  0  0  0  0  0  0  0  0  0  0
    1.1270   -5.0309    0.0000 S   0  0  0  0  0  0  0  0  0  0  0  0
   -1.0164   -3.7934    0.0000 P   0  0  3  0  0  0  0  0  0  0  0  0
   -1.0164   -4.6184    0.0000 O   0  0  0  0  0  0  0  0  0  0  0  0
   -0.1914   -3.7934    0.0000 O   0  0  0  0  0  0  0  0  0  0  0  0
   -3.9039   -1.6500    0.0000 O   0  0  0  0  0  0  0  0  0  0  0  0
   -4.2059   -2.7770    0.0000 O   0  0  0  0  0  0  0  0  0  0  0  0
   -2.7770   -1.9520    0.0000 O   0  0  0  0  0  0  0  0  0  0  0  0
    0.3020   -5.0309    0.0000 O   0  0  0  0  0  0  0  0  0  0  0  0
    1.1270   -5.8559    0.0000 O   0  0  0  0  0  0  0  0  0  0  0  0
    1.9520   -5.0309    0.0000 O   0  0  0  0  0  0  0  0  0  0  0  0
   -1.0164   -2.9684    0.0000 C   0  0  0  0  0  0  0  0  0  0  0  0
   -1.8414   -3.7934    0.0000 C   0  0  0  0  0  0  0  0  0  0  0  0
   -0.3020   -2.5559    0.0000 C   0  0  0  0  0  0  0  0  0  0  0  0
    0.4125   -2.9684    0.0000 C   0  0  0  0  0  0  0  0  0  0  0  0
   -2.2539   -4.5079    0.0000 C   0  0  0  0  0  0  0  0  0  0  0  0
   -2.2539   -3.0789    0.0000 C   0  0  0  0  0  0  0  0  0  0  0  0
   -3.0789   -3.0789    0.0000 C   0  0  0  0  0  0  0  0  0  0  0  0
   -1.7309   -2.5559    0.0000 C   0  0  0  0  0  0  0  0  0  0  0  0
    1.1270   -2.5559    0.0000 C   0  0  0  0  0  0  0  0  0  0  0  0
    0.4125   -3.7934    0.0000 C   0  0  0  0  0  0  0  0  0  0  0  0
    1.1270   -4.2059    0.0000 C   0  0  0  0  0  0  0  0  0  0  0  0
   -0.3020   -1.7309    0.0000 C   0  0  0  0  0  0  0  0  0  0  0  0
   -3.0789   -4.5079    0.0000 C   0  0  0  0  0  0  0  0  0  0  0  0
   -3.4914   -3.7934    0.0000 C   0  0  0  0  0  0  0  0  0  0  0  0
    1.8414   -2.9684    0.0000 C   0  0  0  0  0  0  0  0  0  0  0  0
   -1.7309   -1.7309    0.0000 C   0  0  0  0  0  0  0  0  0  0  0  0
    1.8414   -3.7934    0.0000 C   0  0  0  0  0  0  0  0  0  0  0  0
   -1.0164   -1.3184    0.0000 C   0  0  0  0  0  0  0  0  0  0  0  0
   -1.8414   -5.2224    0.0000 C   0  0  0  0  0  0  0  0  0  0  0  0
    1.1270   -1.7309    0.0000 C   0  0  0  0  0  0  0  0  0  0  0  0
  1  6  2  0  0  0  0
  1  7  2  0  0  0  0
  1  8  1  0  0  0  0
  1 18  1  0  0  0  0
  2  9  2  0  0  0  0
  2 10  2  0  0  0  0
  2 11  1  0  0  0  0
  2 22  1  0  0  0  0
  3  4  2  0  0  0  0
  3  5  1  0  0  0  0
  3 12  1  0  0  0  0
  3 13  1  0  0  0  0
 12 14  2  0  0  0  0
 12 19  1  0  0  0  0
 13 16  1  0  0  0  0
 13 17  2  0  0  0  0
 14 15  1  0  0  0  0
 14 23  1  0  0  0  0
 15 20  1  0  0  0  0
 15 21  2  0  0  0  0
 16 24  2  0  0  0  0
 16 30  1  0  0  0  0
 17 18  1  0  0  0  0
 18 25  2  0  0  0  0
 19 27  2  0  0  0  0
 20 26  2  0  0  0  0
 20 31  1  0  0  0  0
 21 22  1  0  0  0  0
 22 28  2  0  0  0  0
 23 29  2  0  0  0  0
 24 25  1  0  0  0  0
 26 28  1  0  0  0  0
 27 29  1  0  0  0  0
M  END
> <PUBCHEM_COMPOUND_ID_TYPE>
0

> <PUBCHEM_TOTAL_CHARGE>
0

> <PUBCHEM_SUBSTANCE_ID>
310936923

> <PUBCHEM_SUBSTANCE_VERSION>
1

> <PUBCHEM_EXT_DATASOURCE_NAME>
4488

> <PUBCHEM_EXT_DATASOURCE_REGID>
SCHEMBL16114624

> <PUBCHEM_SUBSTANCE_COMMENT>
InChI=1S/C20H19O8PS2/c1-13-7-9-15(30(23,24)25)11-18(13)17-5-3-4-6-19(17)29(21,22)20-12-16(31(26,27)28)10-8-14(20)2/h3-12H,1-2H3,(H,21,22)(H,23,24,25)(H,26,27,28)
InChIKey=ZUVXTEXBJUKZAA-UHFFFAOYSA-N

> <PUBCHEM_SUBSTANCE_SYNONYM>
SCHEMBL16114624

> <PUBCHEM_XREF_EXT_ID>
SCHEMBL16114624

> <PUBCHEM_EXT_DATASOURCE_URL>
https://www.surechembl.org/

> <PUBCHEM_EXT_SUBSTANCE_URL>
https://www.surechembl.org/chemical/SCHEMBL16114624

> <PUBCHEM_CID_ASSOCIATIONS>
117604800  1

> <PUBCHEM_COORDINATE_TYPE>
1
3

$$$$
