310946461
  -OEChem-07211613022D

 17 17  0     1  0  0  0  0  0999 V2000
   -1.4233   13.8735    0.0000 O   0  0  0  0  0  0  0  0  0  0  0  0
   -2.1378   12.6360    0.0000 O   0  0  0  0  0  0  0  0  0  0  0  0
   -3.5667   15.1110    0.0000 O   0  0  0  0  0  0  0  0  0  0  0  0
   -3.5667   13.4610    0.0000 N   0  0  0  0  0  0  0  0  0  0  0  0
   -0.7088   13.4610    0.0000 C   0  0  0  0  0  0  0  0  0  0  0  0
   -2.1378   13.4610    0.0000 C   0  0  0  0  0  0  0  0  0  0  0  0
    0.7201   13.4610    0.0000 C   0  0  0  0  0  0  0  0  0  0  0  0
    0.0057   13.8735    0.0000 C   0  0  0  0  0  0  0  0  0  0  0  0
   -2.8522   13.8735    0.0000 C   0  0  3  0  0  0  0  0  0  0  0  0
   -0.7088   12.6360    0.0000 C   0  0  0  0  0  0  0  0  0  0  0  0
    0.7201   12.6360    0.0000 C   0  0  0  0  0  0  0  0  0  0  0  0
    0.0057   12.2235    0.0000 C   0  0  0  0  0  0  0  0  0  0  0  0
    1.4346   13.8735    0.0000 C   0  0  0  0  0  0  0  0  0  0  0  0
   -2.8522   14.6985    0.0000 C   0  0  0  0  0  0  0  0  0  0  0  0
    2.1491   13.4610    0.0000 C   0  0  0  0  0  0  0  0  0  0  0  0
    2.8635   13.8735    0.0000 C   0  0  0  0  0  0  0  0  0  0  0  0
    3.5780   13.4610    0.0000 C   0  0  0  0  0  0  0  0  0  0  0  0
  1  5  1  0  0  0  0
  1  6  1  0  0  0  0
  2  6  2  0  0  0  0
  3 14  1  0  0  0  0
  4  9  1  0  0  0  0
  5  8  1  0  0  0  0
  5 10  2  0  0  0  0
  6  9  1  0  0  0  0
  7  8  2  0  0  0  0
  7 11  1  0  0  0  0
  7 13  1  0  0  0  0
  9 14  1  0  0  0  0
 10 12  1  0  0  0  0
 11 12  2  0  0  0  0
 13 15  1  0  0  0  0
 15 16  1  0  0  0  0
 16 17  1  0  0  0  0
M  END
> <PUBCHEM_COMPOUND_ID_TYPE>
0

> <PUBCHEM_TOTAL_CHARGE>
0

> <PUBCHEM_SUBSTANCE_ID>
310946461

> <PUBCHEM_SUBSTANCE_VERSION>
1

> <PUBCHEM_EXT_DATASOURCE_NAME>
4488

> <PUBCHEM_EXT_DATASOURCE_REGID>
SCHEMBL16124582

> <PUBCHEM_SUBSTANCE_COMMENT>
InChI=1S/C13H19NO3/c1-2-3-5-10-6-4-7-11(8-10)17-13(16)12(14)9-15/h4,6-8,12,15H,2-3,5,9,14H2,1H3
InChIKey=KYPIXOFCTRNSIQ-UHFFFAOYSA-N

> <PUBCHEM_SUBSTANCE_SYNONYM>
SCHEMBL16124582

> <PUBCHEM_XREF_EXT_ID>
SCHEMBL16124582

> <PUBCHEM_EXT_DATASOURCE_URL>
https://www.surechembl.org/

> <PUBCHEM_EXT_SUBSTANCE_URL>
https://www.surechembl.org/chemical/SCHEMBL16124582

> <PUBCHEM_CID_ASSOCIATIONS>
117612372  1

> <PUBCHEM_COORDINATE_TYPE>
1
3

$$$$
