310949550
  -OEChem-07211613022D

 30 33  0     1  0  0  0  0  0999 V2000
   -1.9102   -2.4047    0.0000 F   0  0  0  0  0  0  0  0  0  0  0  0
   -4.0821   -2.4435    0.0000 F   0  0  0  0  0  0  0  0  0  0  0  0
   -2.9186   -2.5016    0.0000 F   0  0  0  0  0  0  0  0  0  0  0  0
   -4.0240   -1.2799    0.0000 F   0  0  0  0  0  0  0  0  0  0  0  0
   -0.5333   -2.1138    0.0000 O   0  0  0  0  0  0  0  0  0  0  0  0
   -0.0873   -0.7369    0.0000 N   0  0  0  0  0  0  0  0  0  0  0  0
    1.6193    1.0472    0.0000 N   0  0  0  0  0  0  0  0  0  0  0  0
    0.3587    1.4739    0.0000 N   0  0  0  0  0  0  0  0  0  0  0  0
    1.1345    1.7259    0.0000 N   0  0  0  0  0  0  0  0  0  0  0  0
   -3.0349   -0.5236    0.0000 N   0  0  0  0  0  0  0  0  0  0  0  0
    2.8410    0.3297    0.0000 N   0  0  0  0  0  0  0  0  0  0  0  0
    4.0821    1.0472    0.0000 N   0  0  0  0  0  0  0  0  0  0  0  0
    0.3587    0.6400    0.0000 C   0  0  0  0  0  0  0  0  0  0  0  0
    1.1345    0.3684    0.0000 C   0  0  0  0  0  0  0  0  0  0  0  0
   -0.2424    0.0776    0.0000 C   0  0  3  0  0  0  0  0  0  0  0  0
   -0.6885   -1.2799    0.0000 C   0  0  0  0  0  0  0  0  0  0  0  0
   -1.4835   -1.0084    0.0000 C   0  0  0  0  0  0  0  0  0  0  0  0
   -2.0847   -1.6096    0.0000 C   0  0  0  0  0  0  0  0  0  0  0  0
    1.2896   -0.4460    0.0000 C   0  0  0  0  0  0  0  0  0  0  0  0
    0.7078   -0.9891    0.0000 C   0  0  0  0  0  0  0  0  0  0  0  0
   -2.8798   -1.3187    0.0000 C   0  0  0  0  0  0  0  0  0  0  0  0
    2.4338    1.0472    0.0000 C   0  0  0  0  0  0  0  0  0  0  0  0
   -3.4616   -1.8811    0.0000 C   0  0  0  0  0  0  0  0  0  0  0  0
   -1.6193   -0.2327    0.0000 C   0  0  0  0  0  0  0  0  0  0  0  0
   -1.0375    0.3297    0.0000 C   0  0  0  0  0  0  0  0  0  0  0  0
    2.8604    1.7841    0.0000 C   0  0  0  0  0  0  0  0  0  0  0  0
   -2.3950    0.0388    0.0000 C   0  0  0  0  0  0  0  0  0  0  0  0
    3.6749    1.7647    0.0000 C   0  0  0  0  0  0  0  0  0  0  0  0
    3.6749    0.3491    0.0000 C   0  0  0  0  0  0  0  0  0  0  0  0
    4.0628    2.5016    0.0000 C   0  0  0  0  0  0  0  0  0  0  0  0
  1 18  1  0  0  0  0
  2 23  1  0  0  0  0
  3 23  1  0  0  0  0
  4 23  1  0  0  0  0
  5 16  2  0  0  0  0
  6 15  1  0  0  0  0
  6 16  1  0  0  0  0
  6 20  1  0  0  0  0
  7  9  1  0  0  0  0
  7 14  1  0  0  0  0
  7 22  1  0  0  0  0
  8  9  2  0  0  0  0
  8 13  1  0  0  0  0
 10 21  1  0  0  0  0
 10 27  2  0  0  0  0
 11 22  2  0  0  0  0
 11 29  1  0  0  0  0
 12 28  1  0  0  0  0
 12 29  2  0  0  0  0
 13 14  2  0  0  0  0
 13 15  1  0  0  0  0
 14 19  1  0  0  0  0
 15 25  1  0  0  0  0
 16 17  1  0  0  0  0
 17 18  1  0  0  0  0
 17 24  2  0  0  0  0
 18 21  2  0  0  0  0
 19 20  1  0  0  0  0
 21 23  1  0  0  0  0
 22 26  1  0  0  0  0
 24 27  1  0  0  0  0
 26 28  2  0  0  0  0
 28 30  1  0  0  0  0
M  END
> <PUBCHEM_COMPOUND_ID_TYPE>
0

> <PUBCHEM_TOTAL_CHARGE>
0

> <PUBCHEM_SUBSTANCE_ID>
310949550

> <PUBCHEM_SUBSTANCE_VERSION>
1

> <PUBCHEM_EXT_DATASOURCE_NAME>
4488

> <PUBCHEM_EXT_DATASOURCE_REGID>
SCHEMBL16127745

> <PUBCHEM_SUBSTANCE_COMMENT>
InChI=1S/C18H15F4N7O/c1-9-7-13(25-8-24-9)29-12-4-6-28(10(2)15(12)26-27-29)17(30)11-3-5-23-16(14(11)19)18(20,21)22/h3,5,7-8,10H,4,6H2,1-2H3
InChIKey=CTHBBULTDZIXTD-UHFFFAOYSA-N

> <PUBCHEM_SUBSTANCE_SYNONYM>
SCHEMBL16127745

> <PUBCHEM_XREF_EXT_ID>
SCHEMBL16127745

> <PUBCHEM_EXT_DATASOURCE_URL>
https://www.surechembl.org/

> <PUBCHEM_EXT_SUBSTANCE_URL>
https://www.surechembl.org/chemical/SCHEMBL16127745

> <PUBCHEM_CID_ASSOCIATIONS>
117614972  1

> <PUBCHEM_COORDINATE_TYPE>
1
3

$$$$
