310946693
  -OEChem-07211613022D

 35 38  0     1  0  0  0  0  0999 V2000
    0.8708    0.8380    0.0000 F   0  0  0  0  0  0  0  0  0  0  0  0
   -2.3002   -1.8894    0.0000 O   0  0  0  0  0  0  0  0  0  0  0  0
   -3.4832   -3.0560    0.0000 O   0  0  0  0  0  0  0  0  0  0  0  0
    0.4764   -1.1501    0.0000 N   0  0  0  0  0  0  0  0  0  0  0  0
   -0.9201   -1.5115    0.0000 N   0  0  0  0  0  0  0  0  0  0  0  0
    1.4951   -2.1523    0.0000 N   0  0  0  0  0  0  0  0  0  0  0  0
   -0.5422    1.2159    0.0000 N   0  0  0  0  0  0  0  0  0  0  0  0
   -1.2815   -2.8917    0.0000 N   0  0  0  0  0  0  0  0  0  0  0  0
   -0.0493    0.5422    0.0000 N   0  0  0  0  0  0  0  0  0  0  0  0
    3.2696   -0.3943    0.0000 N   0  0  0  0  0  0  0  0  0  0  0  0
   -0.3450   -0.9036    0.0000 C   0  0  0  0  0  0  0  0  0  0  0  0
   -0.5422   -0.1150    0.0000 C   0  0  3  0  0  0  0  0  0  0  0  0
   -1.3473    0.1643    0.0000 C   0  0  0  0  0  0  0  0  0  0  0  0
    0.6901   -1.8894    0.0000 C   0  0  3  0  0  0  0  0  0  0  0  0
   -1.3473    0.9858    0.0000 C   0  0  0  0  0  0  0  0  0  0  0  0
   -0.6901   -2.2673    0.0000 C   0  0  3  0  0  0  0  0  0  0  0  0
    0.1150   -2.4974    0.0000 C   0  0  0  0  0  0  0  0  0  0  0  0
   -2.0373   -0.2464    0.0000 C   0  0  0  0  0  0  0  0  0  0  0  0
   -2.0537    1.3801    0.0000 C   0  0  0  0  0  0  0  0  0  0  0  0
    2.0866   -1.5280    0.0000 C   0  0  0  0  0  0  0  0  0  0  0  0
   -2.7603    0.1479    0.0000 C   0  0  0  0  0  0  0  0  0  0  0  0
   -2.7767    0.9694    0.0000 C   0  0  0  0  0  0  0  0  0  0  0  0
   -0.3286    2.0045    0.0000 C   0  0  0  0  0  0  0  0  0  0  0  0
    0.4929    2.2509    0.0000 C   0  0  0  0  0  0  0  0  0  0  0  0
   -2.0866   -2.6616    0.0000 C   0  0  0  0  0  0  0  0  0  0  0  0
    1.0680    1.6594    0.0000 C   0  0  0  0  0  0  0  0  0  0  0  0
    1.8894   -0.7886    0.0000 C   0  0  0  0  0  0  0  0  0  0  0  0
    2.9081   -1.7580    0.0000 C   0  0  0  0  0  0  0  0  0  0  0  0
    0.7229    3.0396    0.0000 C   0  0  0  0  0  0  0  0  0  0  0  0
   -2.6781   -3.2532    0.0000 C   0  0  0  0  0  0  0  0  0  0  0  0
    2.4809   -0.1643    0.0000 C   0  0  0  0  0  0  0  0  0  0  0  0
    3.4832   -1.1501    0.0000 C   0  0  0  0  0  0  0  0  0  0  0  0
    1.8566    1.8731    0.0000 C   0  0  0  0  0  0  0  0  0  0  0  0
    1.4951    3.2532    0.0000 C   0  0  0  0  0  0  0  0  0  0  0  0
    2.0702    2.6781    0.0000 C   0  0  0  0  0  0  0  0  0  0  0  0
  1 26  1  0  0  0  0
  2 25  2  0  0  0  0
  3 30  1  0  0  0  0
  4 11  2  0  0  0  0
  4 14  1  0  0  0  0
  5 11  1  0  0  0  0
  5 16  1  0  0  0  0
  6 14  1  0  0  0  0
  6 20  1  0  0  0  0
  7 15  1  0  0  0  0
  7 23  1  0  0  0  0
  8 16  1  0  0  0  0
  8 25  1  0  0  0  0
  9 12  1  0  0  0  0
 10 31  2  0  0  0  0
 10 32  1  0  0  0  0
 11 12  1  0  0  0  0
 12 13  1  0  0  0  0
 13 15  2  0  0  0  0
 13 18  1  0  0  0  0
 14 17  1  0  0  0  0
 15 19  1  0  0  0  0
 16 17  1  0  0  0  0
 18 21  2  0  0  0  0
 19 22  2  0  0  0  0
 20 27  2  0  0  0  0
 20 28  1  0  0  0  0
 21 22  1  0  0  0  0
 23 24  1  0  0  0  0
 24 26  1  0  0  0  0
 24 29  2  0  0  0  0
 25 30  1  0  0  0  0
 26 33  2  0  0  0  0
 27 31  1  0  0  0  0
 28 32  1  0  0  0  0
 29 34  1  0  0  0  0
 33 35  1  0  0  0  0
 34 35  1  0  0  0  0
M  END
> <PUBCHEM_COMPOUND_ID_TYPE>
0

> <PUBCHEM_TOTAL_CHARGE>
0

> <PUBCHEM_SUBSTANCE_ID>
310946693

> <PUBCHEM_SUBSTANCE_VERSION>
1

> <PUBCHEM_EXT_DATASOURCE_NAME>
4488

> <PUBCHEM_EXT_DATASOURCE_REGID>
SCHEMBL16124817

> <PUBCHEM_SUBSTANCE_COMMENT>
InChI=1S/C25H32FN7O2/c26-19-7-3-1-5-16(19)14-29-20-8-4-2-6-18(20)24(27)25-32-21(30-17-9-11-28-12-10-17)13-22(33-25)31-23(35)15-34/h2,4-9,11,21-22,24,29-30,34H,1,3,10,12-15,27H2,(H,31,35)(H,32,33)
InChIKey=SMCFNNLHJYSNFN-UHFFFAOYSA-N

> <PUBCHEM_SUBSTANCE_SYNONYM>
SCHEMBL16124817

> <PUBCHEM_XREF_EXT_ID>
SCHEMBL16124817

> <PUBCHEM_EXT_DATASOURCE_URL>
https://www.surechembl.org/

> <PUBCHEM_EXT_SUBSTANCE_URL>
https://www.surechembl.org/chemical/SCHEMBL16124817

> <PUBCHEM_CID_ASSOCIATIONS>
117612588  1

> <PUBCHEM_COORDINATE_TYPE>
1
3

$$$$
