310939588
  -OEChem-07211613022D

 31 34  0     1  0  0  0  0  0999 V2000
   -1.4289    1.0390    0.0000 O   0  0  0  0  0  0  0  0  0  0  0  0
    2.1524   -2.6890    0.0000 O   0  0  0  0  0  0  0  0  0  0  0  0
    5.0013    2.2765    0.0000 O   0  0  0  0  0  0  0  0  0  0  0  0
   -2.8579    0.2140    0.0000 O   0  0  0  0  0  0  0  0  0  0  0  0
    1.4289    0.2140    0.0000 N   0  0  0  0  0  0  0  0  0  0  0  0
    2.8579    0.2140    0.0000 N   0  0  0  0  0  0  0  0  0  0  0  0
    2.1434   -1.0235    0.0000 N   0  0  0  0  0  0  0  0  0  0  0  0
    3.5724    1.4515    0.0000 N   0  0  0  0  0  0  0  0  0  0  0  0
   -4.2868    1.0390    0.0000 N   0  0  0  0  0  0  0  0  0  0  0  0
    1.4289    1.0390    0.0000 C   0  0  0  0  0  0  0  0  0  0  0  0
    2.1434   -0.1985    0.0000 C   0  0  0  0  0  0  0  0  0  0  0  0
    2.8579    1.0390    0.0000 C   0  0  0  0  0  0  0  0  0  0  0  0
    0.7145    1.4515    0.0000 C   0  0  0  0  0  0  0  0  0  0  0  0
    2.1434    1.4515    0.0000 C   0  0  0  0  0  0  0  0  0  0  0  0
    0.0000    1.0390    0.0000 C   0  0  0  0  0  0  0  0  0  0  0  0
    0.7145    2.2765    0.0000 C   0  0  0  0  0  0  0  0  0  0  0  0
   -0.7145    1.4515    0.0000 C   0  0  0  0  0  0  0  0  0  0  0  0
    2.8579   -1.4360    0.0000 C   0  0  0  0  0  0  0  0  0  0  0  0
    1.4289   -1.4360    0.0000 C   0  0  0  0  0  0  0  0  0  0  0  0
    4.2868    1.0390    0.0000 C   0  0  0  0  0  0  0  0  0  0  0  0
    3.5724    2.2765    0.0000 C   0  0  0  0  0  0  0  0  0  0  0  0
    0.0000    2.6890    0.0000 C   0  0  0  0  0  0  0  0  0  0  0  0
   -0.7145    2.2765    0.0000 C   0  0  0  0  0  0  0  0  0  0  0  0
    2.8579   -2.2610    0.0000 C   0  0  0  0  0  0  0  0  0  0  0  0
    1.4289   -2.2687    0.0000 C   0  0  0  0  0  0  0  0  0  0  0  0
    5.0013    1.4515    0.0000 C   0  0  0  0  0  0  0  0  0  0  0  0
    4.2868    2.6890    0.0000 C   0  0  0  0  0  0  0  0  0  0  0  0
   -2.1434    1.4515    0.0000 C   0  0  0  0  0  0  0  0  0  0  0  0
   -2.8579    1.0390    0.0000 C   0  0  3  0  0  0  0  0  0  0  0  0
   -3.5724    1.4515    0.0000 C   0  0  0  0  0  0  0  0  0  0  0  0
   -5.0013    1.4515    0.0000 C   0  0  0  0  0  0  0  0  0  0  0  0
  1 17  1  0  0  0  0
  1 28  1  0  0  0  0
  2 24  1  0  0  0  0
  2 25  1  0  0  0  0
  3 26  1  0  0  0  0
  3 27  1  0  0  0  0
  4 29  1  0  0  0  0
  5 10  1  0  0  0  0
  5 11  2  0  0  0  0
  6 11  1  0  0  0  0
  6 12  2  0  0  0  0
  7 11  1  0  0  0  0
  7 18  1  0  0  0  0
  7 19  1  0  0  0  0
  8 12  1  0  0  0  0
  8 20  1  0  0  0  0
  8 21  1  0  0  0  0
  9 30  1  0  0  0  0
  9 31  1  0  0  0  0
 10 13  1  0  0  0  0
 10 14  2  0  0  0  0
 12 14  1  0  0  0  0
 13 15  2  0  0  0  0
 13 16  1  0  0  0  0
 15 17  1  0  0  0  0
 16 22  2  0  0  0  0
 17 23  2  0  0  0  0
 18 24  1  0  0  0  0
 19 25  1  0  0  0  0
 20 26  1  0  0  0  0
 21 27  1  0  0  0  0
 22 23  1  0  0  0  0
 28 29  1  0  0  0  0
 29 30  1  0  0  0  0
M  END
> <PUBCHEM_COMPOUND_ID_TYPE>
0

> <PUBCHEM_TOTAL_CHARGE>
0

> <PUBCHEM_SUBSTANCE_ID>
310939588

> <PUBCHEM_SUBSTANCE_VERSION>
1

> <PUBCHEM_EXT_DATASOURCE_NAME>
4488

> <PUBCHEM_EXT_DATASOURCE_REGID>
SCHEMBL16117517

> <PUBCHEM_SUBSTANCE_COMMENT>
InChI=1S/C22H31N5O4/c1-23-15-18(28)16-31-19-4-2-3-17(13-19)20-14-21(26-5-9-29-10-6-26)25-22(24-20)27-7-11-30-12-8-27/h2-4,13-14,18,23,28H,5-12,15-16H2,1H3
InChIKey=JUOIZOZNFQPPFF-UHFFFAOYSA-N

> <PUBCHEM_SUBSTANCE_SYNONYM>
SCHEMBL16117517

> <PUBCHEM_XREF_EXT_ID>
SCHEMBL16117517

> <PUBCHEM_EXT_DATASOURCE_URL>
https://www.surechembl.org/

> <PUBCHEM_EXT_SUBSTANCE_URL>
https://www.surechembl.org/chemical/SCHEMBL16117517

> <PUBCHEM_CID_ASSOCIATIONS>
117606854  1

> <PUBCHEM_COORDINATE_TYPE>
1
3

$$$$
