310947322
  -OEChem-07211613022D

 29 32  0     1  0  0  0  0  0999 V2000
    1.7077   -1.8477    0.0000 O   0  0  0  0  0  0  0  0  0  0  0  0
    3.7554   -0.9929    0.0000 O   0  0  0  0  0  0  0  0  0  0  0  0
   -0.8505    1.8500    0.0000 O   0  0  0  0  0  0  0  0  0  0  0  0
    2.0775   -0.4675    0.0000 N   0  0  0  0  0  0  0  0  0  0  0  0
    2.5625    0.2000    0.0000 N   0  0  0  0  0  0  0  0  0  0  0  0
   -1.5650    0.6125    0.0000 N   0  0  0  0  0  0  0  0  0  0  0  0
    1.2929   -0.2125    0.0000 C   0  0  0  0  0  0  0  0  0  0  0  0
    1.2929    0.6125    0.0000 C   0  0  0  0  0  0  0  0  0  0  0  0
    2.0775    0.8674    0.0000 C   0  0  0  0  0  0  0  0  0  0  0  0
    2.2911   -1.2643    0.0000 C   0  0  0  0  0  0  0  0  0  0  0  0
    0.5785    1.0250    0.0000 C   0  0  0  0  0  0  0  0  0  0  0  0
   -0.1360    0.6125    0.0000 C   0  0  0  0  0  0  0  0  0  0  0  0
    0.5785   -0.6250    0.0000 C   0  0  0  0  0  0  0  0  0  0  0  0
    3.0880   -1.4779    0.0000 C   0  0  3  0  0  0  0  0  0  0  0  0
   -0.1360   -0.2125    0.0000 C   0  0  0  0  0  0  0  0  0  0  0  0
   -0.8505    1.0250    0.0000 C   0  0  0  0  0  0  0  0  0  0  0  0
    2.4900    1.5819    0.0000 C   0  0  0  0  0  0  0  0  0  0  0  0
    3.3429   -2.2625    0.0000 C   0  0  0  0  0  0  0  0  0  0  0  0
   -2.2794    1.0250    0.0000 C   0  0  3  0  0  0  0  0  0  0  0  0
    4.4228   -1.4779    0.0000 C   0  0  0  0  0  0  0  0  0  0  0  0
    4.1679   -2.2625    0.0000 C   0  0  0  0  0  0  0  0  0  0  0  0
   -2.9939    0.6125    0.0000 C   0  0  0  0  0  0  0  0  0  0  0  0
   -2.2794    1.8500    0.0000 C   0  0  0  0  0  0  0  0  0  0  0  0
   -3.7084    1.0250    0.0000 C   0  0  0  0  0  0  0  0  0  0  0  0
   -2.9939   -0.2125    0.0000 C   0  0  0  0  0  0  0  0  0  0  0  0
   -4.4228    0.6125    0.0000 C   0  0  0  0  0  0  0  0  0  0  0  0
   -3.7084   -0.6250    0.0000 C   0  0  0  0  0  0  0  0  0  0  0  0
   -4.4228   -0.2125    0.0000 C   0  0  0  0  0  0  0  0  0  0  0  0
   -2.9939    2.2625    0.0000 C   0  0  0  0  0  0  0  0  0  0  0  0
  1 10  2  0  0  0  0
  2 14  1  0  0  0  0
  2 20  1  0  0  0  0
  3 16  2  0  0  0  0
  4  5  1  0  0  0  0
  4  7  1  0  0  0  0
  4 10  1  0  0  0  0
  5  9  2  0  0  0  0
  6 16  1  0  0  0  0
  6 19  1  0  0  0  0
  7  8  1  0  0  0  0
  7 13  2  0  0  0  0
  8  9  1  0  0  0  0
  8 11  2  0  0  0  0
  9 17  1  0  0  0  0
 10 14  1  0  0  0  0
 11 12  1  0  0  0  0
 12 15  2  0  0  0  0
 12 16  1  0  0  0  0
 13 15  1  0  0  0  0
 14 18  1  0  0  0  0
 18 21  1  0  0  0  0
 19 22  1  0  0  0  0
 19 23  1  0  0  0  0
 20 21  1  0  0  0  0
 22 24  2  0  0  0  0
 22 25  1  0  0  0  0
 23 29  1  0  0  0  0
 24 26  1  0  0  0  0
 25 27  2  0  0  0  0
 26 28  2  0  0  0  0
 27 28  1  0  0  0  0
M  END
> <PUBCHEM_COMPOUND_ID_TYPE>
0

> <PUBCHEM_TOTAL_CHARGE>
0

> <PUBCHEM_SUBSTANCE_ID>
310947322

> <PUBCHEM_SUBSTANCE_VERSION>
1

> <PUBCHEM_EXT_DATASOURCE_NAME>
4488

> <PUBCHEM_EXT_DATASOURCE_REGID>
SCHEMBL16125477

> <PUBCHEM_SUBSTANCE_COMMENT>
InChI=1S/C23H25N3O3/c1-3-19(16-8-5-4-6-9-16)24-22(27)17-11-12-20-18(14-17)15(2)25-26(20)23(28)21-10-7-13-29-21/h4-6,8-9,11-12,14,19,21H,3,7,10,13H2,1-2H3,(H,24,27)
InChIKey=LDZDLXJOFGAHDE-UHFFFAOYSA-N

> <PUBCHEM_SUBSTANCE_SYNONYM>
SCHEMBL16125477

> <PUBCHEM_XREF_EXT_ID>
SCHEMBL16125477

> <PUBCHEM_EXT_DATASOURCE_URL>
https://www.surechembl.org/

> <PUBCHEM_EXT_SUBSTANCE_URL>
https://www.surechembl.org/chemical/SCHEMBL16125477

> <PUBCHEM_CID_ASSOCIATIONS>
71577664  1

> <PUBCHEM_COORDINATE_TYPE>
1
3

$$$$
