310943086
  -OEChem-07211613022D

 31 32  0     1  0  0  0  0  0999 V2000
    0.9748    0.2202    0.0000 S   0  0  0  0  0  0  0  0  0  0  0  0
   -3.9726   -1.0796    0.0000 F   0  0  0  0  0  0  0  0  0  0  0  0
   -4.0774    0.0524    0.0000 F   0  0  0  0  0  0  0  0  0  0  0  0
   -2.9663    0.1363    0.0000 F   0  0  0  0  0  0  0  0  0  0  0  0
   -1.9811   -1.7714    0.0000 F   0  0  0  0  0  0  0  0  0  0  0  0
   -2.7567   -2.6100    0.0000 F   0  0  0  0  0  0  0  0  0  0  0  0
   -3.5743   -1.8343    0.0000 F   0  0  0  0  0  0  0  0  0  0  0  0
   -3.5533   -1.4151    0.0000 O   0  0  0  0  0  0  0  0  0  0  0  0
   -1.2893   -1.8134    0.0000 O   0  0  0  0  0  0  0  0  0  0  0  0
    0.9958    1.0168    0.0000 O   0  0  0  0  0  0  0  0  0  0  0  0
    0.9748   -0.5975    0.0000 O   0  0  0  0  0  0  0  0  0  0  0  0
    4.0145    1.8134    0.0000 O   0  0  0  0  0  0  0  0  0  0  0  0
    0.2411    0.6185    0.0000 N   0  0  3  0  0  0  0  0  0  0  0  0
   -2.8406   -0.9748    0.0000 C   0  0  0  0  0  0  0  0  0  0  0  0
   -2.0439   -0.5765    0.0000 C   0  0  0  0  0  0  0  0  0  0  0  0
   -2.7986   -1.7924    0.0000 C   0  0  0  0  0  0  0  0  0  0  0  0
   -3.4695   -0.4507    0.0000 C   0  0  0  0  0  0  0  0  0  0  0  0
   -1.2893   -0.9748    0.0000 C   0  0  0  0  0  0  0  0  0  0  0  0
   -2.0020    0.2202    0.0000 C   0  0  0  0  0  0  0  0  0  0  0  0
   -0.5346    0.2202    0.0000 C   0  0  3  0  0  0  0  0  0  0  0  0
   -0.5555   -0.5975    0.0000 C   0  0  0  0  0  0  0  0  0  0  0  0
   -1.2683    0.5975    0.0000 C   0  0  0  0  0  0  0  0  0  0  0  0
    1.7504    0.6185    0.0000 C   0  0  0  0  0  0  0  0  0  0  0  0
    0.2411    1.4151    0.0000 C   0  0  0  0  0  0  0  0  0  0  0  0
    2.5471    0.2411    0.0000 C   0  0  0  0  0  0  0  0  0  0  0  0
    1.7714    1.4151    0.0000 C   0  0  0  0  0  0  0  0  0  0  0  0
   -1.9811   -2.2117    0.0000 C   0  0  0  0  0  0  0  0  0  0  0  0
    3.2808    1.4360    0.0000 C   0  0  0  0  0  0  0  0  0  0  0  0
    3.2599    0.5975    0.0000 C   0  0  0  0  0  0  0  0  0  0  0  0
    2.5261    1.7924    0.0000 C   0  0  0  0  0  0  0  0  0  0  0  0
    4.0774    2.6100    0.0000 C   0  0  0  0  0  0  0  0  0  0  0  0
  1 10  2  0  0  0  0
  1 11  2  0  0  0  0
  1 13  1  0  0  0  0
  1 23  1  0  0  0  0
  2 17  1  0  0  0  0
  3 17  1  0  0  0  0
  4 17  1  0  0  0  0
  5 16  1  0  0  0  0
  6 16  1  0  0  0  0
  7 16  1  0  0  0  0
  8 14  1  0  0  0  0
  9 18  1  0  0  0  0
  9 27  1  0  0  0  0
 12 28  1  0  0  0  0
 12 31  1  0  0  0  0
 13 20  1  0  0  0  0
 13 24  1  0  0  0  0
 14 15  1  0  0  0  0
 14 16  1  0  0  0  0
 14 17  1  0  0  0  0
 15 18  1  0  0  0  0
 15 19  2  0  0  0  0
 18 21  2  0  0  0  0
 19 22  1  0  0  0  0
 20 21  1  0  0  0  0
 20 22  1  0  0  0  0
 23 25  2  0  0  0  0
 23 26  1  0  0  0  0
 25 29  1  0  0  0  0
 26 30  2  0  0  0  0
 28 29  2  0  0  0  0
 28 30  1  0  0  0  0
M  END
> <PUBCHEM_COMPOUND_ID_TYPE>
0

> <PUBCHEM_TOTAL_CHARGE>
0

> <PUBCHEM_SUBSTANCE_ID>
310943086

> <PUBCHEM_SUBSTANCE_VERSION>
1

> <PUBCHEM_EXT_DATASOURCE_NAME>
4488

> <PUBCHEM_EXT_DATASOURCE_REGID>
SCHEMBL16121145

> <PUBCHEM_SUBSTANCE_COMMENT>
InChI=1S/C18H19F6NO5S/c1-25(31(27,28)13-7-5-12(29-2)6-8-13)11-4-9-14(15(10-11)30-3)16(26,17(19,20)21)18(22,23)24/h5-11,26H,4H2,1-3H3
InChIKey=IFYAJNBQNOHTIG-UHFFFAOYSA-N

> <PUBCHEM_SUBSTANCE_SYNONYM>
SCHEMBL16121145

> <PUBCHEM_XREF_EXT_ID>
SCHEMBL16121145

> <PUBCHEM_EXT_DATASOURCE_URL>
https://www.surechembl.org/

> <PUBCHEM_EXT_SUBSTANCE_URL>
https://www.surechembl.org/chemical/SCHEMBL16121145

> <PUBCHEM_CID_ASSOCIATIONS>
117609521  1

> <PUBCHEM_COORDINATE_TYPE>
1
3

$$$$
