310940807
  -OEChem-07211613022D

 42 46  0     1  0  0  0  0  0999 V2000
    5.2041   -1.4611    0.0000 O   0  0  0  0  0  0  0  0  0  0  0  0
    4.0668    0.4966    0.0000 O   0  0  0  0  0  0  0  0  0  0  0  0
    3.7501    2.4257    0.0000 O   0  0  0  0  0  0  0  0  0  0  0  0
    1.6916   -1.4467    0.0000 O   0  0  0  0  0  0  0  0  0  0  0  0
   -0.4822    0.6262    0.0000 O   0  0  0  0  0  0  0  0  0  0  0  0
   -2.6559   -1.4467    0.0000 O   0  0  0  0  0  0  0  0  0  0  0  0
   -5.5351   -1.4467    0.0000 O   0  0  0  0  0  0  0  0  0  0  0  0
    2.4113   -0.2087    0.0000 N   0  0  0  0  0  0  0  0  0  0  0  0
    0.2375   -0.6262    0.0000 N   0  0  0  0  0  0  0  0  0  0  0  0
   -1.9218   -0.2087    0.0000 N   0  0  0  0  0  0  0  0  0  0  0  0
   -4.0956   -0.6262    0.0000 N   0  0  0  0  0  0  0  0  0  0  0  0
    4.8009   -0.7270    0.0000 C   0  0  3  0  0  0  0  0  0  0  0  0
    4.0668   -0.3239    0.0000 C   0  0  0  0  0  0  0  0  0  0  0  0
    4.3979   -1.4324    0.0000 C   0  0  0  0  0  0  0  0  0  0  0  0
    3.3614   -0.7126    0.0000 C   0  0  3  0  0  0  0  0  0  0  0  0
    5.5351   -0.3239    0.0000 C   0  0  0  0  0  0  0  0  0  0  0  0
    3.3470   -1.8067    0.0000 C   0  0  0  0  0  0  0  0  0  0  0  0
    1.6916   -0.5687    0.0000 C   0  0  0  0  0  0  0  0  0  0  0  0
    0.9574   -0.1799    0.0000 C   0  0  3  0  0  0  0  0  0  0  0  0
    2.6272   -2.2097    0.0000 C   0  0  0  0  0  0  0  0  0  0  0  0
    1.6916    1.0724    0.0000 C   0  0  0  0  0  0  0  0  0  0  0  0
    2.4113    2.3105    0.0000 C   0  0  0  0  0  0  0  0  0  0  0  0
    0.9718    0.6550    0.0000 C   0  0  0  0  0  0  0  0  0  0  0  0
    3.1311    1.9074    0.0000 C   0  0  0  0  0  0  0  0  0  0  0  0
    1.7060    1.9074    0.0000 C   0  0  0  0  0  0  0  0  0  0  0  0
    2.4257    0.6550    0.0000 C   0  0  0  0  0  0  0  0  0  0  0  0
    3.1311    1.0724    0.0000 C   0  0  0  0  0  0  0  0  0  0  0  0
   -0.4966   -0.1943    0.0000 C   0  0  0  0  0  0  0  0  0  0  0  0
    2.5840    3.1167    0.0000 C   0  0  0  0  0  0  0  0  0  0  0  0
    1.8643   -1.8931    0.0000 C   0  0  0  0  0  0  0  0  0  0  0  0
    2.5264   -3.0447    0.0000 C   0  0  0  0  0  0  0  0  0  0  0  0
    3.4045    3.2030    0.0000 C   0  0  0  0  0  0  0  0  0  0  0  0
   -1.1876   -0.5831    0.0000 C   0  0  3  0  0  0  0  0  0  0  0  0
    1.3172   -2.4976    0.0000 C   0  0  0  0  0  0  0  0  0  0  0  0
    1.7203   -3.2030    0.0000 C   0  0  0  0  0  0  0  0  0  0  0  0
   -2.6416   -0.5687    0.0000 C   0  0  0  0  0  0  0  0  0  0  0  0
   -1.2020   -1.4467    0.0000 C   0  0  0  0  0  0  0  0  0  0  0  0
   -3.3758   -0.1799    0.0000 C   0  0  0  0  0  0  0  0  0  0  0  0
   -4.0956   -1.4324    0.0000 C   0  0  0  0  0  0  0  0  0  0  0  0
   -4.8297   -0.1799    0.0000 C   0  0  0  0  0  0  0  0  0  0  0  0
   -4.8009   -1.8355    0.0000 C   0  0  0  0  0  0  0  0  0  0  0  0
   -5.5208   -0.5831    0.0000 C   0  0  0  0  0  0  0  0  0  0  0  0
  1 12  1  0  0  0  0
  1 14  1  0  0  0  0
  2 13  2  0  0  0  0
  3 24  1  0  0  0  0
  3 32  1  0  0  0  0
  4 18  2  0  0  0  0
  5 28  2  0  0  0  0
  6 36  2  0  0  0  0
  7 41  1  0  0  0  0
  7 42  1  0  0  0  0
  8 15  1  0  0  0  0
  8 18  1  0  0  0  0
  9 19  1  0  0  0  0
  9 28  1  0  0  0  0
 10 33  1  0  0  0  0
 10 36  1  0  0  0  0
 11 38  1  0  0  0  0
 11 39  1  0  0  0  0
 11 40  1  0  0  0  0
 12 13  1  0  0  0  0
 12 14  1  0  0  0  0
 12 16  1  0  0  0  0
 13 15  1  0  0  0  0
 15 17  1  0  0  0  0
 17 20  1  0  0  0  0
 18 19  1  0  0  0  0
 19 23  1  0  0  0  0
 20 30  1  0  0  0  0
 20 31  1  0  0  0  0
 21 23  1  0  0  0  0
 21 25  1  0  0  0  0
 21 26  2  0  0  0  0
 22 24  1  0  0  0  0
 22 25  2  0  0  0  0
 22 29  1  0  0  0  0
 24 27  2  0  0  0  0
 26 27  1  0  0  0  0
 28 33  1  0  0  0  0
 29 32  2  0  0  0  0
 30 34  1  0  0  0  0
 31 35  1  0  0  0  0
 33 37  1  0  0  0  0
 34 35  1  0  0  0  0
 36 38  1  0  0  0  0
 39 41  1  0  0  0  0
 40 42  1  0  0  0  0
M  END
> <PUBCHEM_COMPOUND_ID_TYPE>
0

> <PUBCHEM_TOTAL_CHARGE>
0

> <PUBCHEM_SUBSTANCE_ID>
310940807

> <PUBCHEM_SUBSTANCE_VERSION>
1

> <PUBCHEM_EXT_DATASOURCE_NAME>
4488

> <PUBCHEM_EXT_DATASOURCE_REGID>
SCHEMBL16118766

> <PUBCHEM_SUBSTANCE_COMMENT>
InChI=1S/C31H42N4O7/c1-20(32-27(36)18-35-10-13-40-14-11-35)29(38)34-25(17-22-7-8-26-23(15-22)9-12-41-26)30(39)33-24(16-21-5-3-4-6-21)28(37)31(2)19-42-31/h7-9,12,15,20-21,24-25H,3-6,10-11,13-14,16-19H2,1-2H3,(H,32,36)(H,33,39)(H,34,38)
InChIKey=XLCDGHWXSXNXHQ-UHFFFAOYSA-N

> <PUBCHEM_SUBSTANCE_SYNONYM>
SCHEMBL16118766

> <PUBCHEM_XREF_EXT_ID>
SCHEMBL16118766

> <PUBCHEM_EXT_DATASOURCE_URL>
https://www.surechembl.org/

> <PUBCHEM_EXT_SUBSTANCE_URL>
https://www.surechembl.org/chemical/SCHEMBL16118766

> <PUBCHEM_CID_ASSOCIATIONS>
86296532  1

> <PUBCHEM_COORDINATE_TYPE>
1
3

$$$$
