310946590
  -OEChem-07211613022D

 24 23  0     1  0  0  0  0  0999 V2000
    7.0147  -13.9506    0.0000 O   0  0  0  0  0  0  0  0  0  0  0  0
    3.4423  -12.7131    0.0000 O   0  0  0  0  0  0  0  0  0  0  0  0
    5.2029  -16.8085    0.0000 O   0  0  0  0  0  0  0  0  0  0  0  0
    2.0134  -12.7131    0.0000 O   0  0  0  0  0  0  0  0  0  0  0  0
    7.7292  -15.1881    0.0000 O   0  5  0  0  0  0  0  0  0  0  0  0
    8.4436  -13.9506    0.0000 O   0  0  0  0  0  0  0  0  0  0  0  0
    5.2029  -18.2375    0.0000 O   0  0  0  0  0  0  0  0  0  0  0  0
    7.7292  -14.3631    0.0000 N   0  3  0  0  0  0  0  0  0  0  0  0
    2.7279  -13.9506    0.0000 N   0  0  0  0  0  0  0  0  0  0  0  0
    6.4404  -16.0941    0.0000 N   0  0  0  0  0  0  0  0  0  0  0  0
    7.0147  -13.1256    0.0000 C   0  0  3  0  0  0  0  0  0  0  0  0
    6.3002  -12.7131    0.0000 C   0  0  0  0  0  0  0  0  0  0  0  0
    2.7279  -13.1256    0.0000 C   0  0  0  0  0  0  0  0  0  0  0  0
    7.7292  -12.7131    0.0000 C   0  0  0  0  0  0  0  0  0  0  0  0
    5.5857  -13.1256    0.0000 C   0  0  0  0  0  0  0  0  0  0  0  0
    4.8713  -12.7131    0.0000 C   0  0  0  0  0  0  0  0  0  0  0  0
    4.1568  -13.1256    0.0000 C   0  0  0  0  0  0  0  0  0  0  0  0
    5.6154  -16.0941    0.0000 C   0  0  3  0  0  0  0  0  0  0  0  0
    3.1404  -14.6651    0.0000 C   0  0  0  0  0  0  0  0  0  0  0  0
    5.2029  -15.3796    0.0000 C   0  0  0  0  0  0  0  0  0  0  0  0
    3.9654  -14.6651    0.0000 C   0  0  0  0  0  0  0  0  0  0  0  0
    4.3779  -15.3796    0.0000 C   0  0  0  0  0  0  0  0  0  0  0  0
    8.4436  -13.1256    0.0000 C   0  0  0  0  0  0  0  0  0  0  0  0
    5.6154  -17.5230    0.0000 C   0  0  0  0  0  0  0  0  0  0  0  0
  1  8  1  0  0  0  0
  1 11  1  0  0  0  0
  2 13  1  0  0  0  0
  2 17  1  0  0  0  0
  3 18  1  0  0  0  0
  3 24  1  0  0  0  0
  4 13  2  0  0  0  0
  5  8  1  0  0  0  0
  6  8  2  0  0  0  0
  7 24  2  0  0  0  0
  9 13  1  0  0  0  0
  9 19  1  0  0  0  0
 10 18  1  0  0  0  0
 11 12  1  0  0  0  0
 11 14  1  0  0  0  0
 12 15  1  0  0  0  0
 14 23  1  0  0  0  0
 15 16  1  0  0  0  0
 16 17  1  0  0  0  0
 18 20  1  0  0  0  0
 19 21  1  0  0  0  0
 20 22  1  0  0  0  0
 21 22  1  0  0  0  0
M  CHG  2   5  -1   8   1
M  END
> <PUBCHEM_COMPOUND_ID_TYPE>
0

> <PUBCHEM_TOTAL_CHARGE>
0

> <PUBCHEM_SUBSTANCE_ID>
310946590

> <PUBCHEM_SUBSTANCE_VERSION>
1

> <PUBCHEM_EXT_DATASOURCE_NAME>
4488

> <PUBCHEM_EXT_DATASOURCE_REGID>
SCHEMBL16124711

> <PUBCHEM_SUBSTANCE_COMMENT>
InChI=1S/C14H27N3O7/c1-2-12(24-17(20)21)7-4-6-10-22-14(19)16-9-5-3-8-13(15)23-11-18/h11-13H,2-10,15H2,1H3,(H,16,19)
InChIKey=DIRXWPMOGNUOQU-UHFFFAOYSA-N

> <PUBCHEM_SUBSTANCE_SYNONYM>
SCHEMBL16124711

> <PUBCHEM_XREF_EXT_ID>
SCHEMBL16124711

> <PUBCHEM_EXT_DATASOURCE_URL>
https://www.surechembl.org/

> <PUBCHEM_EXT_SUBSTANCE_URL>
https://www.surechembl.org/chemical/SCHEMBL16124711

> <PUBCHEM_CID_ASSOCIATIONS>
117612490  1

> <PUBCHEM_COORDINATE_TYPE>
1
3

$$$$
