310941226
  -OEChem-07211613022D

 41 44  0     1  0  0  0  0  0999 V2000
    5.2094   -1.0156    0.0000 O   0  0  0  0  0  0  0  0  0  0  0  0
    4.0695    0.9571    0.0000 O   0  0  0  0  0  0  0  0  0  0  0  0
    1.6877   -1.0010    0.0000 O   0  0  0  0  0  0  0  0  0  0  0  0
   -0.4749    1.0740    0.0000 O   0  0  0  0  0  0  0  0  0  0  0  0
    3.8504    2.7398    0.0000 O   0  0  0  0  0  0  0  0  0  0  0  0
   -2.6375   -1.0010    0.0000 O   0  0  0  0  0  0  0  0  0  0  0  0
   -5.5162   -1.0010    0.0000 O   0  0  0  0  0  0  0  0  0  0  0  0
    2.4183    0.2411    0.0000 N   0  0  0  0  0  0  0  0  0  0  0  0
    0.2557   -0.1681    0.0000 N   0  0  0  0  0  0  0  0  0  0  0  0
   -1.9069    0.2411    0.0000 N   0  0  0  0  0  0  0  0  0  0  0  0
    2.4183    2.7398    0.0000 N   0  0  0  0  0  0  0  0  0  0  0  0
   -4.0695   -0.1681    0.0000 N   0  0  0  0  0  0  0  0  0  0  0  0
    4.8001   -0.2850    0.0000 C   0  0  3  0  0  0  0  0  0  0  0  0
    4.0695    0.1388    0.0000 C   0  0  0  0  0  0  0  0  0  0  0  0
    4.4056   -0.9863    0.0000 C   0  0  0  0  0  0  0  0  0  0  0  0
    3.3828   -0.2703    0.0000 C   0  0  3  0  0  0  0  0  0  0  0  0
    5.5162    0.1534    0.0000 C   0  0  0  0  0  0  0  0  0  0  0  0
    3.3681   -1.3371    0.0000 C   0  0  0  0  0  0  0  0  0  0  0  0
    1.7170   -0.1096    0.0000 C   0  0  0  0  0  0  0  0  0  0  0  0
    0.9863    0.2703    0.0000 C   0  0  3  0  0  0  0  0  0  0  0  0
    2.6375   -1.7608    0.0000 C   0  0  0  0  0  0  0  0  0  0  0  0
    1.0010    1.1179    0.0000 C   0  0  0  0  0  0  0  0  0  0  0  0
    1.6877    1.5270    0.0000 C   0  0  0  0  0  0  0  0  0  0  0  0
   -0.4749    0.2557    0.0000 C   0  0  0  0  0  0  0  0  0  0  0  0
    1.8777   -1.4393    0.0000 C   0  0  0  0  0  0  0  0  0  0  0  0
    2.5499   -2.5791    0.0000 C   0  0  0  0  0  0  0  0  0  0  0  0
   -1.1617   -0.1388    0.0000 C   0  0  3  0  0  0  0  0  0  0  0  0
    1.3371   -2.0384    0.0000 C   0  0  0  0  0  0  0  0  0  0  0  0
    1.7316   -2.7398    0.0000 C   0  0  0  0  0  0  0  0  0  0  0  0
    1.7170    2.3599    0.0000 C   0  0  0  0  0  0  0  0  0  0  0  0
    2.4476    1.1179    0.0000 C   0  0  0  0  0  0  0  0  0  0  0  0
    3.1489    2.3599    0.0000 C   0  0  0  0  0  0  0  0  0  0  0  0
    3.1489    1.5270    0.0000 C   0  0  0  0  0  0  0  0  0  0  0  0
   -2.6083   -0.1096    0.0000 C   0  0  0  0  0  0  0  0  0  0  0  0
   -3.3535    0.2703    0.0000 C   0  0  0  0  0  0  0  0  0  0  0  0
   -1.1763   -0.9863    0.0000 C   0  0  0  0  0  0  0  0  0  0  0  0
   -4.0695   -0.9717    0.0000 C   0  0  0  0  0  0  0  0  0  0  0  0
   -4.8001    0.2703    0.0000 C   0  0  0  0  0  0  0  0  0  0  0  0
   -4.7710   -1.3808    0.0000 C   0  0  0  0  0  0  0  0  0  0  0  0
   -5.4870   -0.1242    0.0000 C   0  0  0  0  0  0  0  0  0  0  0  0
    4.5956    2.3307    0.0000 C   0  0  0  0  0  0  0  0  0  0  0  0
  1 13  1  0  0  0  0
  1 15  1  0  0  0  0
  2 14  2  0  0  0  0
  3 19  2  0  0  0  0
  4 24  2  0  0  0  0
  5 32  1  0  0  0  0
  5 41  1  0  0  0  0
  6 34  2  0  0  0  0
  7 39  1  0  0  0  0
  7 40  1  0  0  0  0
  8 16  1  0  0  0  0
  8 19  1  0  0  0  0
  9 20  1  0  0  0  0
  9 24  1  0  0  0  0
 10 27  1  0  0  0  0
 10 34  1  0  0  0  0
 11 30  2  0  0  0  0
 11 32  1  0  0  0  0
 12 35  1  0  0  0  0
 12 37  1  0  0  0  0
 12 38  1  0  0  0  0
 13 14  1  0  0  0  0
 13 15  1  0  0  0  0
 13 17  1  0  0  0  0
 14 16  1  0  0  0  0
 16 18  1  0  0  0  0
 18 21  1  0  0  0  0
 19 20  1  0  0  0  0
 20 22  1  0  0  0  0
 21 25  2  0  0  0  0
 21 26  1  0  0  0  0
 22 23  1  0  0  0  0
 23 30  1  0  0  0  0
 23 31  2  0  0  0  0
 24 27  1  0  0  0  0
 25 28  1  0  0  0  0
 26 29  1  0  0  0  0
 27 36  1  0  0  0  0
 28 29  1  0  0  0  0
 31 33  1  0  0  0  0
 32 33  2  0  0  0  0
 34 35  1  0  0  0  0
 37 39  1  0  0  0  0
 38 40  1  0  0  0  0
M  END
> <PUBCHEM_COMPOUND_ID_TYPE>
0

> <PUBCHEM_TOTAL_CHARGE>
0

> <PUBCHEM_SUBSTANCE_ID>
310941226

> <PUBCHEM_SUBSTANCE_VERSION>
1

> <PUBCHEM_EXT_DATASOURCE_NAME>
4488

> <PUBCHEM_EXT_DATASOURCE_REGID>
SCHEMBL16119186

> <PUBCHEM_SUBSTANCE_COMMENT>
InChI=1S/C29H41N5O7/c1-19(31-24(35)17-34-10-12-40-13-11-34)27(37)33-23(15-21-8-9-25(39-3)30-16-21)28(38)32-22(14-20-6-4-5-7-20)26(36)29(2)18-41-29/h6,8-9,16,19,22-23H,4-5,7,10-15,17-18H2,1-3H3,(H,31,35)(H,32,38)(H,33,37)
InChIKey=ATPPKVIEWFBDHJ-UHFFFAOYSA-N

> <PUBCHEM_SUBSTANCE_SYNONYM>
SCHEMBL16119186

> <PUBCHEM_XREF_EXT_ID>
SCHEMBL16119186

> <PUBCHEM_EXT_DATASOURCE_URL>
https://www.surechembl.org/

> <PUBCHEM_EXT_SUBSTANCE_URL>
https://www.surechembl.org/chemical/SCHEMBL16119186

> <PUBCHEM_CID_ASSOCIATIONS>
117608094  1

> <PUBCHEM_COORDINATE_TYPE>
1
3

$$$$
