310945554
  -OEChem-07211613022D

 12 12  0     1  0  0  0  0  0999 V2000
   -1.8892    0.2473    0.0000 N   0  0  0  0  0  0  0  0  0  0  0  0
   -2.4388   -0.3573    0.0000 N   0  0  0  0  0  0  0  0  0  0  0  0
    0.2954   -0.0825    0.0000 N   0  0  3  0  0  0  0  0  0  0  0  0
    2.4388    0.3160    0.0000 N   0  0  0  0  0  0  0  0  0  0  0  0
   -1.1197   -0.0550    0.0000 C   0  0  0  0  0  0  0  0  0  0  0  0
   -0.4190    0.3435    0.0000 C   0  0  0  0  0  0  0  0  0  0  0  0
   -1.2297   -0.8930    0.0000 C   0  0  0  0  0  0  0  0  0  0  0  0
   -2.0404   -1.0442    0.0000 C   0  0  0  0  0  0  0  0  0  0  0  0
   -2.0541    1.0442    0.0000 C   0  0  0  0  0  0  0  0  0  0  0  0
    1.0099    0.3435    0.0000 C   0  0  0  0  0  0  0  0  0  0  0  0
    0.3367   -0.9068    0.0000 C   0  0  0  0  0  0  0  0  0  0  0  0
    1.7518   -0.0550    0.0000 C   0  0  0  0  0  0  0  0  0  0  0  0
  1  2  1  0  0  0  0
  1  5  1  0  0  0  0
  1  9  1  0  0  0  0
  2  8  2  0  0  0  0
  3  6  1  0  0  0  0
  3 10  1  0  0  0  0
  3 11  1  0  0  0  0
  4 12  1  0  0  0  0
  5  6  1  0  0  0  0
  5  7  2  0  0  0  0
  7  8  1  0  0  0  0
 10 12  1  0  0  0  0
M  END
> <PUBCHEM_COMPOUND_ID_TYPE>
0

> <PUBCHEM_TOTAL_CHARGE>
0

> <PUBCHEM_SUBSTANCE_ID>
310945554

> <PUBCHEM_SUBSTANCE_VERSION>
1

> <PUBCHEM_EXT_DATASOURCE_NAME>
4488

> <PUBCHEM_EXT_DATASOURCE_REGID>
SCHEMBL16123652

> <PUBCHEM_SUBSTANCE_COMMENT>
InChI=1S/C8H16N4/c1-11(6-4-9)7-8-3-5-10-12(8)2/h3,5H,4,6-7,9H2,1-2H3
InChIKey=SCOUYKTVPHNNTN-UHFFFAOYSA-N

> <PUBCHEM_SUBSTANCE_SYNONYM>
SCHEMBL16123652

> <PUBCHEM_XREF_EXT_ID>
SCHEMBL16123652

> <PUBCHEM_EXT_DATASOURCE_URL>
https://www.surechembl.org/

> <PUBCHEM_EXT_SUBSTANCE_URL>
https://www.surechembl.org/chemical/SCHEMBL16123652

> <PUBCHEM_CID_ASSOCIATIONS>
62682929  1

> <PUBCHEM_COORDINATE_TYPE>
1
3

$$$$
