310948109
  -OEChem-07211613022D

 46 49  0     1  0  0  0  0  0999 V2000
   -0.3785    0.3991    0.0000 O   0  0  0  0  0  0  0  0  0  0  0  0
   -1.8651    2.7391    0.0000 O   0  0  0  0  0  0  0  0  0  0  0  0
   -0.3647    1.9545    0.0000 O   0  0  0  0  0  0  0  0  0  0  0  0
    1.1218    2.7391    0.0000 O   0  0  0  0  0  0  0  0  0  0  0  0
   -1.8651   -1.9270    0.0000 N   0  0  0  0  0  0  0  0  0  0  0  0
   -1.1218   -0.7708    0.0000 N   0  0  0  0  0  0  0  0  0  0  0  0
   -2.6084   -0.7708    0.0000 N   0  0  0  0  0  0  0  0  0  0  0  0
   -0.3785    0.3991    0.0000 N   0  0  0  0  0  0  0  0  0  0  0  0
   -2.6084   -1.5416    0.0000 C   0  0  0  0  0  0  0  0  0  0  0  0
   -1.1218   -1.5416    0.0000 C   0  0  0  0  0  0  0  0  0  0  0  0
   -1.8651   -0.3716    0.0000 C   0  0  0  0  0  0  0  0  0  0  0  0
   -3.3378   -1.9270    0.0000 C   0  0  0  0  0  0  0  0  0  0  0  0
   -0.3647   -1.9270    0.0000 C   0  0  0  0  0  0  0  0  0  0  0  0
   -1.8376    0.4130    0.0000 C   0  0  0  0  0  0  0  0  0  0  0  0
   -4.0811   -1.5554    0.0000 C   0  0  0  0  0  0  0  0  0  0  0  0
   -0.3785   -2.7116    0.0000 C   0  0  0  0  0  0  0  0  0  0  0  0
   -3.3516   -2.6978    0.0000 C   0  0  0  0  0  0  0  0  0  0  0  0
    0.3647   -1.5416    0.0000 C   0  0  0  0  0  0  0  0  0  0  0  0
   -1.1218    0.7983    0.0000 C   0  0  0  0  0  0  0  0  0  0  0  0
   -2.5946    0.7983    0.0000 C   0  0  0  0  0  0  0  0  0  0  0  0
   -4.8107   -1.9545    0.0000 C   0  0  0  0  0  0  0  0  0  0  0  0
    0.3785   -3.0832    0.0000 C   0  0  0  0  0  0  0  0  0  0  0  0
   -4.0536   -3.0832    0.0000 C   0  0  0  0  0  0  0  0  0  0  0  0
    1.1080   -1.9408    0.0000 C   0  0  0  0  0  0  0  0  0  0  0  0
   -1.1218    1.5692    0.0000 C   0  0  0  0  0  0  0  0  0  0  0  0
   -4.8244   -2.7116    0.0000 C   0  0  0  0  0  0  0  0  0  0  0  0
    1.1080   -2.7116    0.0000 C   0  0  0  0  0  0  0  0  0  0  0  0
   -1.8513    1.9545    0.0000 C   0  0  0  0  0  0  0  0  0  0  0  0
   -2.5946    1.5692    0.0000 C   0  0  0  0  0  0  0  0  0  0  0  0
   -4.0674   -0.7571    0.0000 C   0  0  0  0  0  0  0  0  0  0  0  0
   -1.1080   -3.1107    0.0000 C   0  0  0  0  0  0  0  0  0  0  0  0
   -2.6084   -3.0970    0.0000 C   0  0  0  0  0  0  0  0  0  0  0  0
    0.3647   -0.7571    0.0000 C   0  0  0  0  0  0  0  0  0  0  0  0
   -5.5677   -3.1246    0.0000 C   0  0  0  0  0  0  0  0  0  0  0  0
    1.8788   -3.1107    0.0000 C   0  0  0  0  0  0  0  0  0  0  0  0
   -1.1493    3.1107    0.0000 C   0  0  0  0  0  0  0  0  0  0  0  0
   -0.3647    2.7529    0.0000 C   0  0  3  0  0  0  0  0  0  0  0  0
    0.3647    3.1107    0.0000 C   0  0  0  0  0  0  0  0  0  0  0  0
    1.8788    3.1246    0.0000 C   0  0  0  0  0  0  0  0  0  0  0  0
    2.6084    2.7529    0.0000 C   0  0  3  0  0  0  0  0  0  0  0  0
    3.3241    3.1246    0.0000 C   0  0  0  0  0  0  0  0  0  0  0  0
    2.5946    1.9545    0.0000 C   0  0  0  0  0  0  0  0  0  0  0  0
    4.1087    2.7391    0.0000 C   0  0  0  0  0  0  0  0  0  0  0  0
    1.8513    1.5692    0.0000 C   0  0  0  0  0  0  0  0  0  0  0  0
    4.8107    3.1107    0.0000 C   0  0  0  0  0  0  0  0  0  0  0  0
    5.5677    2.6978    0.0000 C   0  0  0  0  0  0  0  0  0  0  0  0
  1  8  1  0  0  0  0
  1 19  1  0  0  0  0
  2 28  1  0  0  0  0
  2 36  1  0  0  0  0
  3 37  1  0  0  0  0
  4 38  1  0  0  0  0
  4 39  1  0  0  0  0
  5  9  2  0  0  0  0
  5 10  1  0  0  0  0
  6 10  2  0  0  0  0
  6 11  1  0  0  0  0
  7  9  1  0  0  0  0
  7 11  2  0  0  0  0
  9 12  1  0  0  0  0
 10 13  1  0  0  0  0
 11 14  1  0  0  0  0
 12 15  2  0  0  0  0
 12 17  1  0  0  0  0
 13 16  2  0  0  0  0
 13 18  1  0  0  0  0
 14 19  2  0  0  0  0
 14 20  1  0  0  0  0
 15 21  1  0  0  0  0
 15 30  1  0  0  0  0
 16 22  1  0  0  0  0
 16 31  1  0  0  0  0
 17 23  2  0  0  0  0
 17 32  1  0  0  0  0
 18 24  2  0  0  0  0
 18 33  1  0  0  0  0
 19 25  1  0  0  0  0
 20 29  2  0  0  0  0
 21 26  2  0  0  0  0
 22 27  2  0  0  0  0
 23 26  1  0  0  0  0
 24 27  1  0  0  0  0
 25 28  2  0  0  0  0
 26 34  1  0  0  0  0
 27 35  1  0  0  0  0
 28 29  1  0  0  0  0
 36 37  1  0  0  0  0
 37 38  1  0  0  0  0
 39 40  1  0  0  0  0
 40 41  1  0  0  0  0
 40 42  1  0  0  0  0
 41 43  1  0  0  0  0
 42 44  1  0  0  0  0
 43 45  1  0  0  0  0
 45 46  1  0  0  0  0
M  END
> <PUBCHEM_COMPOUND_ID_TYPE>
0

> <PUBCHEM_TOTAL_CHARGE>
0

> <PUBCHEM_SUBSTANCE_ID>
310948109

> <PUBCHEM_SUBSTANCE_VERSION>
1

> <PUBCHEM_EXT_DATASOURCE_NAME>
4488

> <PUBCHEM_EXT_DATASOURCE_REGID>
SCHEMBL16126285

> <PUBCHEM_SUBSTANCE_COMMENT>
InChI=1S/C38H50N4O4/c1-9-11-12-29(10-2)20-44-21-30(43)22-45-31-13-14-32(33(19-31)46-39)36-40-37(34-25(5)15-23(3)16-26(34)6)42-38(41-36)35-27(7)17-24(4)18-28(35)8/h13-19,29-30,43H,9-12,20-22,39H2,1-8H3
InChIKey=ASHAOLADKHDQDN-UHFFFAOYSA-N

> <PUBCHEM_SUBSTANCE_SYNONYM>
SCHEMBL16126285

> <PUBCHEM_XREF_EXT_ID>
SCHEMBL16126285

> <PUBCHEM_EXT_DATASOURCE_URL>
https://www.surechembl.org/

> <PUBCHEM_EXT_SUBSTANCE_URL>
https://www.surechembl.org/chemical/SCHEMBL16126285

> <PUBCHEM_CID_ASSOCIATIONS>
117613726  1

> <PUBCHEM_COORDINATE_TYPE>
1
3

$$$$
