310944718
  -OEChem-07211613022D

 29 31  0     1  0  0  0  0  0999 V2000
   -4.6612    1.6567    0.0000 Cl  0  0  0  0  0  0  0  0  0  0  0  0
   -4.6612    0.0124    0.0000 Cl  0  0  0  0  0  0  0  0  0  0  0  0
   -0.2226    2.4852    0.0000 O   0  0  0  0  0  0  0  0  0  0  0  0
    4.6612   -1.7804    0.0000 O   0  0  0  0  0  0  0  0  0  0  0  0
    1.9535    0.4328    0.0000 N   0  0  0  0  0  0  0  0  0  0  0  0
    3.4495   -1.0633    0.0000 N   0  0  0  0  0  0  0  0  0  0  0  0
    0.5070    1.2488    0.0000 N   0  0  0  0  0  0  0  0  0  0  0  0
   -1.6321    1.6691    0.0000 N   0  0  0  0  0  0  0  0  0  0  0  0
    2.6706    0.0247    0.0000 C   0  0  3  0  0  0  0  0  0  0  0  0
    2.6583   -0.8036    0.0000 C   0  0  0  0  0  0  0  0  0  0  0  0
   -2.3491    1.2611    0.0000 C   0  0  0  0  0  0  0  0  0  0  0  0
   -2.3615    0.4328    0.0000 C   0  0  0  0  0  0  0  0  0  0  0  0
    3.4372    0.2720    0.0000 C   0  0  0  0  0  0  0  0  0  0  0  0
    1.2364    0.0124    0.0000 C   0  0  0  0  0  0  0  0  0  0  0  0
    1.9411    1.2488    0.0000 C   0  0  0  0  0  0  0  0  0  0  0  0
   -0.2226    1.6567    0.0000 C   0  0  0  0  0  0  0  0  0  0  0  0
    3.9193   -0.3833    0.0000 C   0  0  0  0  0  0  0  0  0  0  0  0
    0.5193    0.4204    0.0000 C   0  0  0  0  0  0  0  0  0  0  0  0
    1.2240    1.6567    0.0000 C   0  0  0  0  0  0  0  0  0  0  0  0
   -3.7710    1.2488    0.0000 C   0  0  0  0  0  0  0  0  0  0  0  0
   -3.7834    0.4328    0.0000 C   0  0  0  0  0  0  0  0  0  0  0  0
   -3.0538    1.6567    0.0000 C   0  0  0  0  0  0  0  0  0  0  0  0
    3.8327   -1.7680    0.0000 C   0  0  0  0  0  0  0  0  0  0  0  0
   -3.0662    0.0247    0.0000 C   0  0  0  0  0  0  0  0  0  0  0  0
   -0.9149    1.2488    0.0000 C   0  0  0  0  0  0  0  0  0  0  0  0
   -1.6321    0.0124    0.0000 C   0  0  0  0  0  0  0  0  0  0  0  0
    3.4372   -2.4852    0.0000 C   0  0  0  0  0  0  0  0  0  0  0  0
   -0.9273    0.4204    0.0000 C   0  0  0  0  0  0  0  0  0  0  0  0
    2.6212   -2.4481    0.0000 C   0  0  0  0  0  0  0  0  0  0  0  0
  1 20  1  0  0  0  0
  2 21  1  0  0  0  0
  3 16  2  0  0  0  0
  4 23  2  0  0  0  0
  5  9  1  0  0  0  0
  5 14  1  0  0  0  0
  5 15  1  0  0  0  0
  6 10  1  0  0  0  0
  6 17  1  0  0  0  0
  6 23  1  0  0  0  0
  7 16  1  0  0  0  0
  7 18  1  0  0  0  0
  7 19  1  0  0  0  0
  8 11  1  0  0  0  0
  8 25  1  0  0  0  0
  9 10  1  0  0  0  0
  9 13  1  0  0  0  0
 11 12  2  0  0  0  0
 11 22  1  0  0  0  0
 12 24  1  0  0  0  0
 12 26  1  0  0  0  0
 13 17  1  0  0  0  0
 14 18  1  0  0  0  0
 15 19  1  0  0  0  0
 16 25  1  0  0  0  0
 20 21  1  0  0  0  0
 20 22  2  0  0  0  0
 21 24  2  0  0  0  0
 23 27  1  0  0  0  0
 26 28  1  0  0  0  0
 27 29  2  0  0  0  0
M  END
> <PUBCHEM_COMPOUND_ID_TYPE>
0

> <PUBCHEM_TOTAL_CHARGE>
0

> <PUBCHEM_SUBSTANCE_ID>
310944718

> <PUBCHEM_SUBSTANCE_VERSION>
1

> <PUBCHEM_EXT_DATASOURCE_NAME>
4488

> <PUBCHEM_EXT_DATASOURCE_REGID>
SCHEMBL16122797

> <PUBCHEM_SUBSTANCE_COMMENT>
InChI=1S/C21H28Cl2N4O2/c1-3-15-11-17(22)18(23)12-19(15)24-13-21(29)26-9-7-25(8-10-26)16-5-6-27(14-16)20(28)4-2/h4,11-12,16,24H,2-3,5-10,13-14H2,1H3
InChIKey=FOOKKGXAMODFCH-UHFFFAOYSA-N

> <PUBCHEM_SUBSTANCE_SYNONYM>
SCHEMBL16122797

> <PUBCHEM_XREF_EXT_ID>
SCHEMBL16122797

> <PUBCHEM_EXT_DATASOURCE_URL>
https://www.surechembl.org/

> <PUBCHEM_EXT_SUBSTANCE_URL>
https://www.surechembl.org/chemical/SCHEMBL16122797

> <PUBCHEM_CID_ASSOCIATIONS>
117610939  1

> <PUBCHEM_COORDINATE_TYPE>
1
3

$$$$
