310939580
  -OEChem-07211613022D

 31 33  0     1  0  0  0  0  0999 V2000
   -2.1434    1.0313    0.0000 O   0  0  0  0  0  0  0  0  0  0  0  0
   -3.5724    0.2062    0.0000 O   0  0  0  0  0  0  0  0  0  0  0  0
    0.7145    0.2062    0.0000 N   0  0  0  0  0  0  0  0  0  0  0  0
    1.4289    1.4437    0.0000 N   0  0  0  0  0  0  0  0  0  0  0  0
    2.8579    1.4437    0.0000 N   0  0  0  0  0  0  0  0  0  0  0  0
    2.1434   -2.2687    0.0000 N   0  0  0  0  0  0  0  0  0  0  0  0
    0.7145   -2.2687    0.0000 N   0  0  0  0  0  0  0  0  0  0  0  0
   -5.0013    1.0313    0.0000 N   0  0  0  0  0  0  0  0  0  0  0  0
    5.7158    0.6187    0.0000 N   0  0  0  0  0  0  0  0  0  0  0  0
    0.7145    1.0313    0.0000 C   0  0  0  0  0  0  0  0  0  0  0  0
    1.4289   -0.2062    0.0000 C   0  0  0  0  0  0  0  0  0  0  0  0
    2.1434    1.0313    0.0000 C   0  0  0  0  0  0  0  0  0  0  0  0
    0.0000    1.4437    0.0000 C   0  0  0  0  0  0  0  0  0  0  0  0
    2.1434    0.2062    0.0000 C   0  0  0  0  0  0  0  0  0  0  0  0
    1.4289   -1.0313    0.0000 C   0  0  0  0  0  0  0  0  0  0  0  0
   -0.7145    1.0313    0.0000 C   0  0  0  0  0  0  0  0  0  0  0  0
    0.0000    2.2687    0.0000 C   0  0  0  0  0  0  0  0  0  0  0  0
   -1.4289    1.4437    0.0000 C   0  0  0  0  0  0  0  0  0  0  0  0
    2.1434   -1.4437    0.0000 C   0  0  0  0  0  0  0  0  0  0  0  0
    0.7145   -1.4437    0.0000 C   0  0  0  0  0  0  0  0  0  0  0  0
   -0.7145    2.6812    0.0000 C   0  0  0  0  0  0  0  0  0  0  0  0
   -1.4289    2.2687    0.0000 C   0  0  0  0  0  0  0  0  0  0  0  0
    3.5724    1.0313    0.0000 C   0  0  0  0  0  0  0  0  0  0  0  0
    2.8579    2.2687    0.0000 C   0  0  0  0  0  0  0  0  0  0  0  0
    1.4289   -2.6812    0.0000 C   0  0  0  0  0  0  0  0  0  0  0  0
   -2.8579    1.4437    0.0000 C   0  0  0  0  0  0  0  0  0  0  0  0
    4.2868    1.4437    0.0000 C   0  0  0  0  0  0  0  0  0  0  0  0
   -3.5724    1.0313    0.0000 C   0  0  3  0  0  0  0  0  0  0  0  0
    5.0013    1.0313    0.0000 C   0  0  0  0  0  0  0  0  0  0  0  0
   -4.2868    1.4437    0.0000 C   0  0  0  0  0  0  0  0  0  0  0  0
   -5.7158    1.4437    0.0000 C   0  0  0  0  0  0  0  0  0  0  0  0
  1 18  1  0  0  0  0
  1 26  1  0  0  0  0
  2 28  1  0  0  0  0
  3 10  2  0  0  0  0
  3 11  1  0  0  0  0
  4 10  1  0  0  0  0
  4 12  2  0  0  0  0
  5 12  1  0  0  0  0
  5 23  1  0  0  0  0
  5 24  1  0  0  0  0
  6 19  2  0  0  0  0
  6 25  1  0  0  0  0
  7 20  1  0  0  0  0
  7 25  2  0  0  0  0
  8 30  1  0  0  0  0
  8 31  1  0  0  0  0
  9 29  3  0  0  0  0
 10 13  1  0  0  0  0
 11 14  2  0  0  0  0
 11 15  1  0  0  0  0
 12 14  1  0  0  0  0
 13 16  2  0  0  0  0
 13 17  1  0  0  0  0
 15 19  1  0  0  0  0
 15 20  2  0  0  0  0
 16 18  1  0  0  0  0
 17 21  2  0  0  0  0
 18 22  2  0  0  0  0
 21 22  1  0  0  0  0
 23 27  1  0  0  0  0
 26 28  1  0  0  0  0
 27 29  1  0  0  0  0
 28 30  1  0  0  0  0
M  END
> <PUBCHEM_COMPOUND_ID_TYPE>
0

> <PUBCHEM_TOTAL_CHARGE>
0

> <PUBCHEM_SUBSTANCE_ID>
310939580

> <PUBCHEM_SUBSTANCE_VERSION>
1

> <PUBCHEM_EXT_DATASOURCE_NAME>
4488

> <PUBCHEM_EXT_DATASOURCE_REGID>
SCHEMBL16117509

> <PUBCHEM_SUBSTANCE_COMMENT>
InChI=1S/C22H25N7O2/c1-24-13-18(30)14-31-19-6-3-5-16(9-19)22-27-20(17-11-25-15-26-12-17)10-21(28-22)29(2)8-4-7-23/h3,5-6,9-12,15,18,24,30H,4,8,13-14H2,1-2H3
InChIKey=CLRPBIYNDTXRNH-UHFFFAOYSA-N

> <PUBCHEM_SUBSTANCE_SYNONYM>
SCHEMBL16117509

> <PUBCHEM_XREF_EXT_ID>
SCHEMBL16117509

> <PUBCHEM_EXT_DATASOURCE_URL>
https://www.surechembl.org/

> <PUBCHEM_EXT_SUBSTANCE_URL>
https://www.surechembl.org/chemical/SCHEMBL16117509

> <PUBCHEM_CID_ASSOCIATIONS>
85471765  1

> <PUBCHEM_COORDINATE_TYPE>
1
3

$$$$
