310944034
  -OEChem-07211613022D

 25 27  0     1  0  0  0  0  0999 V2000
   -0.3298    3.3462    0.0000 O   0  0  0  0  0  0  0  0  0  0  0  0
    0.4122    2.1094    0.0000 N   0  0  0  0  0  0  0  0  0  0  0  0
    2.2262    1.6972    0.0000 N   0  0  3  0  0  0  0  0  0  0  0  0
   -1.7177   -3.3462    0.0000 N   0  0  0  0  0  0  0  0  0  0  0  0
   -1.7590    0.8589    0.0000 C   0  0  0  0  0  0  0  0  0  0  0  0
   -1.0306    2.1231    0.0000 C   0  0  0  0  0  0  0  0  0  0  0  0
   -0.3298    2.5216    0.0000 C   0  0  0  0  0  0  0  0  0  0  0  0
   -1.7590   -0.0069    0.0000 C   0  0  0  0  0  0  0  0  0  0  0  0
   -1.0444    1.2711    0.0000 C   0  0  0  0  0  0  0  0  0  0  0  0
   -2.4735    1.2711    0.0000 C   0  0  0  0  0  0  0  0  0  0  0  0
   -1.7727    2.5079    0.0000 C   0  0  0  0  0  0  0  0  0  0  0  0
   -2.4735    2.0957    0.0000 C   0  0  0  0  0  0  0  0  0  0  0  0
   -2.4598   -0.4191    0.0000 C   0  0  0  0  0  0  0  0  0  0  0  0
   -1.0444   -0.4054    0.0000 C   0  0  0  0  0  0  0  0  0  0  0  0
    1.0718    2.6453    0.0000 C   0  0  0  0  0  0  0  0  0  0  0  0
    0.4122    1.2849    0.0000 C   0  0  0  0  0  0  0  0  0  0  0  0
   -1.7453   -1.6697    0.0000 C   0  0  0  0  0  0  0  0  0  0  0  0
   -2.4461   -1.2711    0.0000 C   0  0  0  0  0  0  0  0  0  0  0  0
   -1.0306   -1.2574    0.0000 C   0  0  0  0  0  0  0  0  0  0  0  0
   -3.0233    0.9413    0.0000 C   0  0  0  0  0  0  0  0  0  0  0  0
    1.8552    2.4667    0.0000 C   0  0  0  0  0  0  0  0  0  0  0  0
    1.0581    0.7626    0.0000 C   0  0  0  0  0  0  0  0  0  0  0  0
    1.8689    0.9551    0.0000 C   0  0  0  0  0  0  0  0  0  0  0  0
   -1.7315   -2.5354    0.0000 C   0  0  0  0  0  0  0  0  0  0  0  0
    3.0233    1.4910    0.0000 C   0  0  0  0  0  0  0  0  0  0  0  0
  1  7  2  0  0  0  0
  2  7  1  0  0  0  0
  2 15  1  0  0  0  0
  2 16  1  0  0  0  0
  3 21  1  0  0  0  0
  3 23  1  0  0  0  0
  3 25  1  0  0  0  0
  4 24  3  0  0  0  0
  5  8  1  0  0  0  0
  5  9  2  0  0  0  0
  5 10  1  0  0  0  0
  6  7  1  0  0  0  0
  6  9  1  0  0  0  0
  6 11  2  0  0  0  0
  8 13  2  0  0  0  0
  8 14  1  0  0  0  0
 10 12  2  0  0  0  0
 10 20  1  0  0  0  0
 11 12  1  0  0  0  0
 13 18  1  0  0  0  0
 14 19  2  0  0  0  0
 15 21  1  0  0  0  0
 16 22  1  0  0  0  0
 17 18  2  0  0  0  0
 17 19  1  0  0  0  0
 17 24  1  0  0  0  0
 22 23  1  0  0  0  0
M  END
> <PUBCHEM_COMPOUND_ID_TYPE>
0

> <PUBCHEM_TOTAL_CHARGE>
0

> <PUBCHEM_SUBSTANCE_ID>
310944034

> <PUBCHEM_SUBSTANCE_VERSION>
1

> <PUBCHEM_EXT_DATASOURCE_NAME>
4488

> <PUBCHEM_EXT_DATASOURCE_REGID>
SCHEMBL16122107

> <PUBCHEM_SUBSTANCE_COMMENT>
InChI=1S/C21H23N3O/c1-16-4-7-19(21(25)24-11-3-10-23(2)12-13-24)14-20(16)18-8-5-17(15-22)6-9-18/h4-9,14H,3,10-13H2,1-2H3
InChIKey=CVHSYMLCZNXOCZ-UHFFFAOYSA-N

> <PUBCHEM_SUBSTANCE_SYNONYM>
SCHEMBL16122107

> <PUBCHEM_XREF_EXT_ID>
SCHEMBL16122107

> <PUBCHEM_EXT_DATASOURCE_URL>
https://www.surechembl.org/

> <PUBCHEM_EXT_SUBSTANCE_URL>
https://www.surechembl.org/chemical/SCHEMBL16122107

> <PUBCHEM_CID_ASSOCIATIONS>
117610333  1

> <PUBCHEM_COORDINATE_TYPE>
1
3

$$$$
