310935442
  -OEChem-07211613022D

 45 49  0     1  0  0  0  0  0999 V2000
    4.7079    2.0625    0.0000 O   0  0  0  0  0  0  0  0  0  0  0  0
    2.7486    4.3445    0.0000 O   0  0  0  0  0  0  0  0  0  0  0  0
    5.4223   -0.0000    0.0000 O   0  0  0  0  0  0  0  0  0  0  0  0
    6.1368    1.2375    0.0000 O   0  0  0  0  0  0  0  0  0  0  0  0
    0.0574    2.5559    0.0000 O   0  0  0  0  0  0  0  0  0  0  0  0
    2.5645    0.0000    0.0000 N   0  0  0  0  0  0  0  0  0  0  0  0
    3.2789    2.0625    0.0000 N   0  0  0  0  0  0  0  0  0  0  0  0
    1.7798   -0.2549    0.0000 N   0  0  0  0  0  0  0  0  0  0  0  0
   -4.0676    2.5559    0.0000 N   0  0  0  0  0  0  0  0  0  0  0  0
    3.2789    1.2375    0.0000 C   0  0  0  0  0  0  0  0  0  0  0  0
    2.5645    0.8250    0.0000 C   0  0  0  0  0  0  0  0  0  0  0  0
    3.9934    0.8250    0.0000 C   0  0  0  0  0  0  0  0  0  0  0  0
    3.9934    0.0000    0.0000 C   0  0  0  0  0  0  0  0  0  0  0  0
    1.2949    0.4125    0.0000 C   0  0  0  0  0  0  0  0  0  0  0  0
    1.7798    1.0799    0.0000 C   0  0  0  0  0  0  0  0  0  0  0  0
    4.7079    1.2375    0.0000 C   0  0  3  0  0  0  0  0  0  0  0  0
    3.2789   -0.4125    0.0000 C   0  0  0  0  0  0  0  0  0  0  0  0
    0.4699    0.4125    0.0000 C   0  0  0  0  0  0  0  0  0  0  0  0
    2.5645    2.4750    0.0000 C   0  0  0  0  0  0  0  0  0  0  0  0
    3.9934    2.4750    0.0000 C   0  0  0  0  0  0  0  0  0  0  0  0
    5.4223    0.8250    0.0000 C   0  0  0  0  0  0  0  0  0  0  0  0
    3.2789    3.7125    0.0000 C   0  0  0  0  0  0  0  0  0  0  0  0
    0.0574    1.1270    0.0000 C   0  0  0  0  0  0  0  0  0  0  0  0
    2.5645    3.3000    0.0000 C   0  0  0  0  0  0  0  0  0  0  0  0
    3.9934    3.3000    0.0000 C   0  0  0  0  0  0  0  0  0  0  0  0
    4.7079   -0.4125    0.0000 C   0  0  0  0  0  0  0  0  0  0  0  0
   -0.7676    1.1270    0.0000 C   0  0  0  0  0  0  0  0  0  0  0  0
    5.4223    2.4750    0.0000 C   0  0  0  0  0  0  0  0  0  0  0  0
    0.0574   -0.3020    0.0000 C   0  0  0  0  0  0  0  0  0  0  0  0
   -1.1801    1.8414    0.0000 C   0  0  0  0  0  0  0  0  0  0  0  0
   -1.1801    0.4125    0.0000 C   0  0  0  0  0  0  0  0  0  0  0  0
   -0.7676   -0.3020    0.0000 C   0  0  0  0  0  0  0  0  0  0  0  0
   -0.7676    2.5559    0.0000 C   0  0  0  0  0  0  0  0  0  0  0  0
    3.8092    4.3445    0.0000 C   0  0  0  0  0  0  0  0  0  0  0  0
   -2.0051    1.8414    0.0000 C   0  0  0  0  0  0  0  0  0  0  0  0
    5.8348    1.7605    0.0000 C   0  0  0  0  0  0  0  0  0  0  0  0
    5.0098    3.1895    0.0000 C   0  0  0  0  0  0  0  0  0  0  0  0
    6.1368    2.8875    0.0000 C   0  0  0  0  0  0  0  0  0  0  0  0
   -2.4176    2.5559    0.0000 C   0  0  0  0  0  0  0  0  0  0  0  0
   -1.1801    3.2704    0.0000 C   0  0  0  0  0  0  0  0  0  0  0  0
    1.9362    4.2012    0.0000 C   0  0  0  0  0  0  0  0  0  0  0  0
   -2.0051    3.2704    0.0000 C   0  0  0  0  0  0  0  0  0  0  0  0
   -3.2426    2.5559    0.0000 C   0  0  0  0  0  0  0  0  0  0  0  0
    1.4059    4.8332    0.0000 C   0  0  0  0  0  0  0  0  0  0  0  0
    0.5934    4.6900    0.0000 C   0  0  0  0  0  0  0  0  0  0  0  0
  1 16  1  0  0  0  0
  1 28  1  0  0  0  0
  2 22  1  0  0  0  0
  2 41  1  0  0  0  0
  3 21  2  0  0  0  0
  4 21  1  0  0  0  0
  5 33  1  0  0  0  0
  6  8  1  0  0  0  0
  6 11  1  0  0  0  0
  6 17  1  0  0  0  0
  7 10  1  0  0  0  0
  7 19  1  0  0  0  0
  7 20  1  0  0  0  0
  8 14  2  0  0  0  0
  9 43  3  0  0  0  0
 10 11  1  0  0  0  0
 10 12  2  0  0  0  0
 11 15  2  0  0  0  0
 12 13  1  0  0  0  0
 12 16  1  0  0  0  0
 13 17  2  0  0  0  0
 13 26  1  0  0  0  0
 14 15  1  0  0  0  0
 14 18  1  0  0  0  0
 16 21  1  0  0  0  0
 18 23  1  0  0  0  0
 18 29  2  0  0  0  0
 19 24  1  0  0  0  0
 20 25  1  0  0  0  0
 22 24  1  0  0  0  0
 22 25  1  0  0  0  0
 22 34  1  0  0  0  0
 23 27  2  0  0  0  0
 27 30  1  0  0  0  0
 27 31  1  0  0  0  0
 28 36  1  0  0  0  0
 28 37  1  0  0  0  0
 28 38  1  0  0  0  0
 29 32  1  0  0  0  0
 30 33  2  0  0  0  0
 30 35  1  0  0  0  0
 31 32  2  0  0  0  0
 33 40  1  0  0  0  0
 35 39  2  0  0  0  0
 39 42  1  0  0  0  0
 39 43  1  0  0  0  0
 40 42  2  0  0  0  0
 41 44  1  0  0  0  0
 44 45  2  0  0  0  0
M  END
> <PUBCHEM_COMPOUND_ID_TYPE>
0

> <PUBCHEM_TOTAL_CHARGE>
0

> <PUBCHEM_SUBSTANCE_ID>
310935442

> <PUBCHEM_SUBSTANCE_VERSION>
1

> <PUBCHEM_EXT_DATASOURCE_NAME>
4488

> <PUBCHEM_EXT_DATASOURCE_REGID>
SCHEMBL16112986

> <PUBCHEM_SUBSTANCE_COMMENT>
InChI=1S/C36H40N4O5/c1-7-17-44-36(6)13-15-39(16-14-36)32-29-20-28(26-10-8-9-25(19-26)27-18-24(21-37)11-12-30(27)41)38-40(29)22-23(2)31(32)33(34(42)43)45-35(3,4)5/h7-12,18-20,22,33,41H,1,13-17H2,2-6H3,(H,42,43)
InChIKey=UXEWDLNHGNVPNE-UHFFFAOYSA-N

> <PUBCHEM_SUBSTANCE_SYNONYM>
SCHEMBL16112986

> <PUBCHEM_XREF_EXT_ID>
SCHEMBL16112986

> <PUBCHEM_EXT_DATASOURCE_URL>
https://www.surechembl.org/

> <PUBCHEM_EXT_SUBSTANCE_URL>
https://www.surechembl.org/chemical/SCHEMBL16112986

> <PUBCHEM_CID_ASSOCIATIONS>
117603483  1

> <PUBCHEM_COORDINATE_TYPE>
1
3

$$$$
