310946576
  -OEChem-07211613022D

 37 37  0     1  0  0  0  0  0999 V2000
   -8.4350   -6.3342    0.0000 O   0  0  0  0  0  0  0  0  0  0  0  0
  -11.2927   -7.9841    0.0000 O   0  0  0  0  0  0  0  0  0  0  0  0
   -7.0061   -6.3342    0.0000 O   0  0  0  0  0  0  0  0  0  0  0  0
   -9.1493   -7.5716    0.0000 O   0  0  0  0  0  0  0  0  0  0  0  0
   -9.8639   -7.9841    0.0000 O   0  0  0  0  0  0  0  0  0  0  0  0
   -5.5772   -6.3342    0.0000 O   0  0  0  0  0  0  0  0  0  0  0  0
   -6.2916   -5.0967    0.0000 O   0  0  0  0  0  0  0  0  0  0  0  0
   -2.0049   -5.0967    0.0000 O   0  0  0  0  0  0  0  0  0  0  0  0
   -2.7670   -3.7769    0.0000 O   0  5  0  0  0  0  0  0  0  0  0  0
   -3.5290   -5.0967    0.0000 O   0  0  0  0  0  0  0  0  0  0  0  0
  -10.5783   -6.7467    0.0000 N   0  0  0  0  0  0  0  0  0  0  0  0
   -2.7670   -4.6568    0.0000 N   0  3  0  0  0  0  0  0  0  0  0  0
   -9.8639   -6.3342    0.0000 C   0  0  3  0  0  0  0  0  0  0  0  0
   -9.1493   -6.7467    0.0000 C   0  0  0  0  0  0  0  0  0  0  0  0
  -10.5783   -7.5716    0.0000 C   0  0  0  0  0  0  0  0  0  0  0  0
   -9.8639   -5.5093    0.0000 C   0  0  0  0  0  0  0  0  0  0  0  0
  -11.2927   -8.8091    0.0000 C   0  0  0  0  0  0  0  0  0  0  0  0
   -7.7204   -5.9217    0.0000 C   0  0  3  0  0  0  0  0  0  0  0  0
  -10.5783   -5.0967    0.0000 C   0  0  0  0  0  0  0  0  0  0  0  0
  -10.5783   -4.2718    0.0000 C   0  0  0  0  0  0  0  0  0  0  0  0
   -6.2916   -5.9217    0.0000 C   0  0  0  0  0  0  0  0  0  0  0  0
   -9.8639   -3.8593    0.0000 C   0  0  0  0  0  0  0  0  0  0  0  0
  -11.2927   -3.8593    0.0000 C   0  0  0  0  0  0  0  0  0  0  0  0
  -10.5783   -9.2215    0.0000 C   0  0  0  0  0  0  0  0  0  0  0  0
  -12.0072   -9.2215    0.0000 C   0  0  0  0  0  0  0  0  0  0  0  0
  -12.0072   -8.3966    0.0000 C   0  0  0  0  0  0  0  0  0  0  0  0
   -7.7204   -5.0967    0.0000 C   0  0  0  0  0  0  0  0  0  0  0  0
   -9.8639   -3.0343    0.0000 C   0  0  0  0  0  0  0  0  0  0  0  0
  -11.2927   -3.0343    0.0000 C   0  0  0  0  0  0  0  0  0  0  0  0
  -10.5783   -2.6218    0.0000 C   0  0  0  0  0  0  0  0  0  0  0  0
   -2.0049   -5.9217    0.0000 C   0  0  3  0  0  0  0  0  0  0  0  0
   -4.8627   -5.9217    0.0000 C   0  0  0  0  0  0  0  0  0  0  0  0
   -2.7195   -6.3342    0.0000 C   0  0  0  0  0  0  0  0  0  0  0  0
   -4.1483   -6.3342    0.0000 C   0  0  0  0  0  0  0  0  0  0  0  0
   -3.4338   -5.9217    0.0000 C   0  0  0  0  0  0  0  0  0  0  0  0
   -1.2905   -6.3342    0.0000 C   0  0  0  0  0  0  0  0  0  0  0  0
   -1.2905   -7.1592    0.0000 C   0  0  0  0  0  0  0  0  0  0  0  0
  1 14  1  0  0  0  0
  1 18  1  0  0  0  0
  2 15  1  0  0  0  0
  2 17  1  0  0  0  0
  3 18  1  0  0  0  0
  3 21  1  0  0  0  0
  4 14  2  0  0  0  0
  5 15  2  0  0  0  0
  6 21  1  0  0  0  0
  6 32  1  0  0  0  0
  7 21  2  0  0  0  0
  8 12  1  0  0  0  0
  8 31  1  0  0  0  0
  9 12  1  0  0  0  0
 10 12  2  0  0  0  0
 11 13  1  0  0  0  0
 11 15  1  0  0  0  0
 13 14  1  0  0  0  0
 13 16  1  0  0  0  0
 16 19  1  0  0  0  0
 17 24  1  0  0  0  0
 17 25  1  0  0  0  0
 17 26  1  0  0  0  0
 18 27  1  0  0  0  0
 19 20  1  0  0  0  0
 20 22  2  0  0  0  0
 20 23  1  0  0  0  0
 22 28  1  0  0  0  0
 23 29  2  0  0  0  0
 28 30  2  0  0  0  0
 29 30  1  0  0  0  0
 31 33  1  0  0  0  0
 31 36  1  0  0  0  0
 32 34  1  0  0  0  0
 33 35  1  0  0  0  0
 34 35  1  0  0  0  0
 36 37  1  0  0  0  0
M  CHG  2   9  -1  12   1
M  END
> <PUBCHEM_COMPOUND_ID_TYPE>
0

> <PUBCHEM_TOTAL_CHARGE>
0

> <PUBCHEM_SUBSTANCE_ID>
310946576

> <PUBCHEM_SUBSTANCE_VERSION>
1

> <PUBCHEM_EXT_DATASOURCE_NAME>
4488

> <PUBCHEM_EXT_DATASOURCE_REGID>
SCHEMBL16124697

> <PUBCHEM_SUBSTANCE_COMMENT>
InChI=1S/C25H38N2O10/c1-6-20(37-27(31)32)14-10-11-17-33-24(30)35-18(2)34-22(28)21(26-23(29)36-25(3,4)5)16-15-19-12-8-7-9-13-19/h7-9,12-13,18,20-21H,6,10-11,14-17H2,1-5H3,(H,26,29)
InChIKey=HTLZDIIEMXGQBN-UHFFFAOYSA-N

> <PUBCHEM_SUBSTANCE_SYNONYM>
SCHEMBL16124697

> <PUBCHEM_XREF_EXT_ID>
SCHEMBL16124697

> <PUBCHEM_EXT_DATASOURCE_URL>
https://www.surechembl.org/

> <PUBCHEM_EXT_SUBSTANCE_URL>
https://www.surechembl.org/chemical/SCHEMBL16124697

> <PUBCHEM_CID_ASSOCIATIONS>
117612476  1

> <PUBCHEM_COORDINATE_TYPE>
1
3

$$$$
