310947698
  -OEChem-07211613022D

 24 23  0     1  0  0  0  0  0999 V2000
    2.9974   -1.3757    0.0000 I   0  0  0  0  0  0  0  0  0  0  0  0
    3.9632    0.5193    0.0000 O   0  0  0  0  0  0  0  0  0  0  0  0
    2.9427   -0.0273    0.0000 C   0  0  3  0  0  0  0  0  0  0  0  0
    2.1775    0.4100    0.0000 C   0  0  0  0  0  0  0  0  0  0  0  0
    3.1797    0.7744    0.0000 C   0  0  0  0  0  0  0  0  0  0  0  0
    1.5397   -0.0091    0.0000 C   0  0  0  0  0  0  0  0  0  0  0  0
    3.4530   -0.1731    0.0000 C   0  0  0  0  0  0  0  0  0  0  0  0
    0.2095    0.0091    0.0000 C   0  0  0  0  0  0  0  0  0  0  0  0
    0.8291    0.4100    0.0000 C   0  0  0  0  0  0  0  0  0  0  0  0
   -0.5375    0.4100    0.0000 C   0  0  0  0  0  0  0  0  0  0  0  0
   -2.5055    0.0273    0.0000 C   0  0  0  0  0  0  0  0  0  0  0  0
   -1.1571    0.0091    0.0000 C   0  0  0  0  0  0  0  0  0  0  0  0
   -1.8859    0.4100    0.0000 C   0  0  0  0  0  0  0  0  0  0  0  0
    4.5462    1.0477    0.0000 C   0  0  0  0  0  0  0  0  0  0  0  0
   -3.2343    0.4100    0.0000 C   0  0  0  0  0  0  0  0  0  0  0  0
    0.2095   -0.9020    0.0000 C   0  0  0  0  0  0  0  0  0  0  0  0
   -3.8903    0.0091    0.0000 C   0  0  0  0  0  0  0  0  0  0  0  0
   -4.6009    0.4282    0.0000 C   0  0  0  0  0  0  0  0  0  0  0  0
   -2.5237   -0.8838    0.0000 C   0  0  0  0  0  0  0  0  0  0  0  0
    5.3480    0.7926    0.0000 C   0  0  0  0  0  0  0  0  0  0  0  0
   -5.2569    0.0091    0.0000 C   0  0  0  0  0  0  0  0  0  0  0  0
   -5.2569   -0.8838    0.0000 C   0  0  0  0  0  0  0  0  0  0  0  0
   -5.9676    0.4464    0.0000 C   0  0  0  0  0  0  0  0  0  0  0  0
    5.9676    1.3757    0.0000 C   0  0  0  0  0  0  0  0  0  0  0  0
  1  3  1  0  0  0  0
  2  5  1  0  0  0  0
  2 14  1  0  0  0  0
  3  4  1  0  0  0  0
  3  5  1  0  0  0  0
  3  7  1  0  0  0  0
  4  6  1  0  0  0  0
  6  9  1  0  0  0  0
  8  9  2  0  0  0  0
  8 10  1  0  0  0  0
  8 16  1  0  0  0  0
 10 12  1  0  0  0  0
 11 13  2  0  0  0  0
 11 15  1  0  0  0  0
 11 19  1  0  0  0  0
 12 13  1  0  0  0  0
 14 20  1  0  0  0  0
 15 17  1  0  0  0  0
 17 18  1  0  0  0  0
 18 21  2  0  0  0  0
 20 24  1  0  0  0  0
 21 22  1  0  0  0  0
 21 23  1  0  0  0  0
M  END
> <PUBCHEM_COMPOUND_ID_TYPE>
0

> <PUBCHEM_TOTAL_CHARGE>
0

> <PUBCHEM_SUBSTANCE_ID>
310947698

> <PUBCHEM_SUBSTANCE_VERSION>
1

> <PUBCHEM_EXT_DATASOURCE_NAME>
4488

> <PUBCHEM_EXT_DATASOURCE_REGID>
SCHEMBL16125869

> <PUBCHEM_SUBSTANCE_COMMENT>
InChI=1S/C22H39IO/c1-7-17-24-18-22(6,23)16-10-15-21(5)14-9-13-20(4)12-8-11-19(2)3/h11,13,15H,7-10,12,14,16-18H2,1-6H3/b20-13+,21-15+
InChIKey=SPCSNJXZBXDCDP-RSKMIKRQSA-N

> <PUBCHEM_SUBSTANCE_SYNONYM>
SCHEMBL16125869

> <PUBCHEM_XREF_EXT_ID>
SCHEMBL16125869

> <PUBCHEM_EXT_DATASOURCE_URL>
https://www.surechembl.org/

> <PUBCHEM_EXT_SUBSTANCE_URL>
https://www.surechembl.org/chemical/SCHEMBL16125869

> <PUBCHEM_CID_ASSOCIATIONS>
117613410  1

> <PUBCHEM_COORDINATE_TYPE>
1
3

$$$$
