310946752
  -OEChem-07211613022D

 20 22  0     1  0  0  0  0  0999 V2000
   -1.9447   -1.9922    0.0000 N   0  0  0  0  0  0  0  0  0  0  0  0
   -1.3034    0.8524    0.0000 N   0  0  0  0  0  0  0  0  0  0  0  0
   -2.6837    0.4825    0.0000 N   0  0  0  0  0  0  0  0  0  0  0  0
   -1.4598   -2.6597    0.0000 N   0  0  0  0  0  0  0  0  0  0  0  0
    0.7538   -1.5797    0.0000 N   0  0  3  0  0  0  0  0  0  0  0  0
    2.8972   -1.1672    0.0000 N   0  0  0  0  0  0  0  0  0  0  0  0
   -1.4598   -1.3248    0.0000 C   0  0  0  0  0  0  0  0  0  0  0  0
   -1.6733   -0.5279    0.0000 C   0  0  0  0  0  0  0  0  0  0  0  0
   -0.6751   -1.5797    0.0000 C   0  0  0  0  0  0  0  0  0  0  0  0
   -2.1003    1.0659    0.0000 C   0  0  0  0  0  0  0  0  0  0  0  0
   -2.3139    1.8628    0.0000 C   0  0  0  0  0  0  0  0  0  0  0  0
   -1.0899    0.0555    0.0000 C   0  0  0  0  0  0  0  0  0  0  0  0
   -2.4702   -0.3144    0.0000 C   0  0  0  0  0  0  0  0  0  0  0  0
   -0.6751   -2.4047    0.0000 C   0  0  0  0  0  0  0  0  0  0  0  0
    0.0393   -1.1672    0.0000 C   0  0  0  0  0  0  0  0  0  0  0  0
   -2.1003    2.6597    0.0000 C   0  0  0  0  0  0  0  0  0  0  0  0
   -2.8972    2.4461    0.0000 C   0  0  0  0  0  0  0  0  0  0  0  0
    1.4683   -1.1672    0.0000 C   0  0  0  0  0  0  0  0  0  0  0  0
    0.7538   -2.4047    0.0000 C   0  0  0  0  0  0  0  0  0  0  0  0
    2.1828   -1.5797    0.0000 C   0  0  0  0  0  0  0  0  0  0  0  0
  1  4  1  0  0  0  0
  1  7  2  0  0  0  0
  2 10  2  0  0  0  0
  2 12  1  0  0  0  0
  3 10  1  0  0  0  0
  3 13  2  0  0  0  0
  4 14  1  0  0  0  0
  5 15  1  0  0  0  0
  5 18  1  0  0  0  0
  5 19  1  0  0  0  0
  6 20  1  0  0  0  0
  7  8  1  0  0  0  0
  7  9  1  0  0  0  0
  8 12  2  0  0  0  0
  8 13  1  0  0  0  0
  9 14  2  0  0  0  0
  9 15  1  0  0  0  0
 10 11  1  0  0  0  0
 11 16  1  0  0  0  0
 11 17  1  0  0  0  0
 16 17  1  0  0  0  0
 18 20  1  0  0  0  0
M  END
> <PUBCHEM_COMPOUND_ID_TYPE>
0

> <PUBCHEM_TOTAL_CHARGE>
0

> <PUBCHEM_SUBSTANCE_ID>
310946752

> <PUBCHEM_SUBSTANCE_VERSION>
1

> <PUBCHEM_EXT_DATASOURCE_NAME>
4488

> <PUBCHEM_EXT_DATASOURCE_REGID>
SCHEMBL16124876

> <PUBCHEM_SUBSTANCE_COMMENT>
InChI=1S/C14H20N6/c1-20(5-4-15)9-12-8-18-19-13(12)11-6-16-14(17-7-11)10-2-3-10/h6-8,10H,2-5,9,15H2,1H3,(H,18,19)
InChIKey=JKBILCLGHBNCSY-UHFFFAOYSA-N

> <PUBCHEM_SUBSTANCE_SYNONYM>
SCHEMBL16124876

> <PUBCHEM_XREF_EXT_ID>
SCHEMBL16124876

> <PUBCHEM_EXT_DATASOURCE_URL>
https://www.surechembl.org/

> <PUBCHEM_EXT_SUBSTANCE_URL>
https://www.surechembl.org/chemical/SCHEMBL16124876

> <PUBCHEM_CID_ASSOCIATIONS>
86296350  1

> <PUBCHEM_COORDINATE_TYPE>
1
3

$$$$
