310945760
  -OEChem-07211613022D

  7  6  0     1  0  0  0  0  0999 V2000
    0.9623   -0.2215    0.0000 S   0  0  3  0  0  0  0  0  0  0  0  0
    0.3818    0.3895    0.0000 O   0  0  0  0  0  0  0  0  0  0  0  0
    1.3747    0.4964    0.0000 O   0  0  0  0  0  0  0  0  0  0  0  0
   -0.6874    0.6339    0.0000 O   0  0  0  0  0  0  0  0  0  0  0  0
    0.2138   -0.6339    0.0000 N   0  0  0  0  0  0  0  0  0  0  0  0
   -0.7026   -0.1910    0.0000 C   0  0  0  0  0  0  0  0  0  0  0  0
   -1.3747   -0.5728    0.0000 C   0  0  0  0  0  0  0  0  0  0  0  0
  1  2  2  0  0  0  0
  1  3  1  0  0  0  0
  1  5  1  0  0  0  0
  4  6  2  0  0  0  0
  5  6  1  0  0  0  0
  6  7  1  0  0  0  0
M  END
> <PUBCHEM_COMPOUND_ID_TYPE>
0

> <PUBCHEM_TOTAL_CHARGE>
0

> <PUBCHEM_SUBSTANCE_ID>
310945760

> <PUBCHEM_SUBSTANCE_VERSION>
1

> <PUBCHEM_EXT_DATASOURCE_NAME>
4488

> <PUBCHEM_EXT_DATASOURCE_REGID>
SCHEMBL16123864

> <PUBCHEM_SUBSTANCE_COMMENT>
InChI=1S/C2H5NO3S/c1-2(4)3-7(5)6/h1H3,(H,3,4)(H,5,6)
InChIKey=NCVWGRXPBSZQQX-UHFFFAOYSA-N

> <PUBCHEM_SUBSTANCE_SYNONYM>
SCHEMBL16123864

> <PUBCHEM_XREF_EXT_ID>
SCHEMBL16123864

> <PUBCHEM_EXT_DATASOURCE_URL>
https://www.surechembl.org/

> <PUBCHEM_EXT_SUBSTANCE_URL>
https://www.surechembl.org/chemical/SCHEMBL16123864

> <PUBCHEM_CID_ASSOCIATIONS>
17917088  1

> <PUBCHEM_COORDINATE_TYPE>
1
3

$$$$
