310946810
  -OEChem-07211613022D

 16 17  0     1  0  0  0  0  0999 V2000
   -2.4133   -4.9038    0.0000 N   0  0  0  0  0  0  0  0  0  0  0  0
   -1.9284   -5.5712    0.0000 N   0  0  0  0  0  0  0  0  0  0  0  0
   -2.9266   -3.1845    0.0000 N   0  0  0  0  0  0  0  0  0  0  0  0
    0.2851   -4.4913    0.0000 N   0  0  3  0  0  0  0  0  0  0  0  0
   -1.9284   -4.2363    0.0000 C   0  0  0  0  0  0  0  0  0  0  0  0
   -1.1438   -4.4913    0.0000 C   0  0  0  0  0  0  0  0  0  0  0  0
   -2.1419   -3.4394    0.0000 C   0  0  0  0  0  0  0  0  0  0  0  0
   -1.1438   -5.3163    0.0000 C   0  0  0  0  0  0  0  0  0  0  0  0
   -0.4293   -4.0788    0.0000 C   0  0  0  0  0  0  0  0  0  0  0  0
   -1.6570   -2.7720    0.0000 C   0  0  0  0  0  0  0  0  0  0  0  0
   -2.9266   -2.3595    0.0000 C   0  0  0  0  0  0  0  0  0  0  0  0
   -2.1419   -2.1046    0.0000 C   0  0  0  0  0  0  0  0  0  0  0  0
    0.9996   -4.0788    0.0000 C   0  0  0  0  0  0  0  0  0  0  0  0
    0.2851   -5.3163    0.0000 C   0  0  0  0  0  0  0  0  0  0  0  0
    1.7141   -4.4913    0.0000 C   0  0  0  0  0  0  0  0  0  0  0  0
    2.4286   -4.0788    0.0000 C   0  0  0  0  0  0  0  0  0  0  0  0
  1  2  1  0  0  0  0
  1  5  2  0  0  0  0
  2  8  1  0  0  0  0
  3  7  1  0  0  0  0
  3 11  1  0  0  0  0
  4  9  1  0  0  0  0
  4 13  1  0  0  0  0
  4 14  1  0  0  0  0
  5  6  1  0  0  0  0
  5  7  1  0  0  0  0
  6  8  2  0  0  0  0
  6  9  1  0  0  0  0
  7 10  2  0  0  0  0
 10 12  1  0  0  0  0
 11 12  2  0  0  0  0
 13 15  1  0  0  0  0
 15 16  1  0  0  0  0
M  END
> <PUBCHEM_COMPOUND_ID_TYPE>
0

> <PUBCHEM_TOTAL_CHARGE>
0

> <PUBCHEM_SUBSTANCE_ID>
310946810

> <PUBCHEM_SUBSTANCE_VERSION>
1

> <PUBCHEM_EXT_DATASOURCE_NAME>
4488

> <PUBCHEM_EXT_DATASOURCE_REGID>
SCHEMBL16124934

> <PUBCHEM_SUBSTANCE_COMMENT>
InChI=1S/C12H18N4/c1-3-7-16(2)9-10-8-14-15-12(10)11-5-4-6-13-11/h4-6,8,13H,3,7,9H2,1-2H3,(H,14,15)
InChIKey=AMOIJORRXXOQMD-UHFFFAOYSA-N

> <PUBCHEM_SUBSTANCE_SYNONYM>
SCHEMBL16124934

> <PUBCHEM_XREF_EXT_ID>
SCHEMBL16124934

> <PUBCHEM_EXT_DATASOURCE_URL>
https://www.surechembl.org/

> <PUBCHEM_EXT_SUBSTANCE_URL>
https://www.surechembl.org/chemical/SCHEMBL16124934

> <PUBCHEM_CID_ASSOCIATIONS>
117612671  1

> <PUBCHEM_COORDINATE_TYPE>
1
3

$$$$
