310943889
  -OEChem-07211613022D

 31 34  0     1  0  0  0  0  0999 V2000
    2.9092    2.1763    0.0000 O   0  0  0  0  0  0  0  0  0  0  0  0
    5.3964   -0.2998    0.0000 O   0  0  0  0  0  0  0  0  0  0  0  0
    3.6197    0.7328    0.0000 N   0  0  0  0  0  0  0  0  0  0  0  0
   -2.7870   -1.3436    0.0000 N   0  0  3  0  0  0  0  0  0  0  0  0
    1.5212   -2.1763    0.0000 N   0  0  0  0  0  0  0  0  0  0  0  0
   -4.5636   -0.7995    0.0000 N   0  0  3  0  0  0  0  0  0  0  0  0
    0.0667   -0.5108    0.0000 C   0  0  0  0  0  0  0  0  0  0  0  0
    0.7772   -0.0999    0.0000 C   0  0  0  0  0  0  0  0  0  0  0  0
    0.0555   -1.3324    0.0000 C   0  0  0  0  0  0  0  0  0  0  0  0
    2.2207    0.7328    0.0000 C   0  0  0  0  0  0  0  0  0  0  0  0
    2.8980    1.1325    0.0000 C   0  0  0  0  0  0  0  0  0  0  0  0
   -1.3657   -1.3324    0.0000 C   0  0  0  0  0  0  0  0  0  0  0  0
   -0.6551   -0.1111    0.0000 C   0  0  0  0  0  0  0  0  0  0  0  0
    1.4990   -0.4997    0.0000 C   0  0  0  0  0  0  0  0  0  0  0  0
    0.7884    0.7328    0.0000 C   0  0  0  0  0  0  0  0  0  0  0  0
   -0.6440   -1.7433    0.0000 C   0  0  0  0  0  0  0  0  0  0  0  0
    2.1985   -0.0888    0.0000 C   0  0  0  0  0  0  0  0  0  0  0  0
    1.4990    1.1325    0.0000 C   0  0  0  0  0  0  0  0  0  0  0  0
   -1.3547   -0.5108    0.0000 C   0  0  0  0  0  0  0  0  0  0  0  0
   -2.0764   -1.7544    0.0000 C   0  0  0  0  0  0  0  0  0  0  0  0
    0.7772   -1.7544    0.0000 C   0  0  0  0  0  0  0  0  0  0  0  0
    3.6309   -0.2998    0.0000 C   0  0  0  0  0  0  0  0  0  0  0  0
    4.4969    1.2436    0.0000 C   0  0  0  0  0  0  0  0  0  0  0  0
   -3.4643   -1.8099    0.0000 C   0  0  0  0  0  0  0  0  0  0  0  0
   -2.7315   -0.5219    0.0000 C   0  0  0  0  0  0  0  0  0  0  0  0
    4.5192   -0.8105    0.0000 C   0  0  0  0  0  0  0  0  0  0  0  0
    5.3964    0.7217    0.0000 C   0  0  0  0  0  0  0  0  0  0  0  0
   -4.2638   -1.5545    0.0000 C   0  0  0  0  0  0  0  0  0  0  0  0
   -3.3200    0.0333    0.0000 C   0  0  0  0  0  0  0  0  0  0  0  0
   -4.1416   -0.0777    0.0000 C   0  0  0  0  0  0  0  0  0  0  0  0
   -5.3964   -0.7995    0.0000 C   0  0  0  0  0  0  0  0  0  0  0  0
  1 11  2  0  0  0  0
  2 26  1  0  0  0  0
  2 27  1  0  0  0  0
  3 11  1  0  0  0  0
  3 22  1  0  0  0  0
  3 23  1  0  0  0  0
  4 20  1  0  0  0  0
  4 24  1  0  0  0  0
  4 25  1  0  0  0  0
  5 21  3  0  0  0  0
  6 28  1  0  0  0  0
  6 30  1  0  0  0  0
  6 31  1  0  0  0  0
  7  8  1  0  0  0  0
  7  9  1  0  0  0  0
  7 13  2  0  0  0  0
  8 14  2  0  0  0  0
  8 15  1  0  0  0  0
  9 16  2  0  0  0  0
  9 21  1  0  0  0  0
 10 11  1  0  0  0  0
 10 17  2  0  0  0  0
 10 18  1  0  0  0  0
 12 16  1  0  0  0  0
 12 19  2  0  0  0  0
 12 20  1  0  0  0  0
 13 19  1  0  0  0  0
 14 17  1  0  0  0  0
 15 18  2  0  0  0  0
 22 26  1  0  0  0  0
 23 27  1  0  0  0  0
 24 28  1  0  0  0  0
 25 29  1  0  0  0  0
 29 30  1  0  0  0  0
M  END
> <PUBCHEM_COMPOUND_ID_TYPE>
0

> <PUBCHEM_TOTAL_CHARGE>
0

> <PUBCHEM_SUBSTANCE_ID>
310943889

> <PUBCHEM_SUBSTANCE_VERSION>
1

> <PUBCHEM_EXT_DATASOURCE_NAME>
4488

> <PUBCHEM_EXT_DATASOURCE_REGID>
SCHEMBL16121960

> <PUBCHEM_SUBSTANCE_COMMENT>
InChI=1S/C25H30N4O2/c1-27-9-2-10-28(12-11-27)19-20-3-8-24(23(17-20)18-26)21-4-6-22(7-5-21)25(30)29-13-15-31-16-14-29/h3-8,17H,2,9-16,19H2,1H3
InChIKey=UEIVFNNMPHOMRN-UHFFFAOYSA-N

> <PUBCHEM_SUBSTANCE_SYNONYM>
SCHEMBL16121960

> <PUBCHEM_XREF_EXT_ID>
SCHEMBL16121960

> <PUBCHEM_EXT_DATASOURCE_URL>
https://www.surechembl.org/

> <PUBCHEM_EXT_SUBSTANCE_URL>
https://www.surechembl.org/chemical/SCHEMBL16121960

> <PUBCHEM_CID_ASSOCIATIONS>
117610213  1

> <PUBCHEM_COORDINATE_TYPE>
1
3

$$$$
