310935245
  -OEChem-07211613022D

 22 24  0     1  0  0  0  0  0999 V2000
    5.7279   -0.6559    0.0000 F   0  0  0  0  0  0  0  0  0  0  0  0
    4.5692   -2.9076    0.0000 O   0  0  0  0  0  0  0  0  0  0  0  0
    4.5692   -1.4866    0.0000 O   0  0  0  0  0  0  0  0  0  0  0  0
    0.6559   -2.7547    0.0000 N   0  0  0  0  0  0  0  0  0  0  0  0
    0.8308   -4.3724    0.0000 N   0  0  0  0  0  0  0  0  0  0  0  0
    3.3449   -2.1862    0.0000 C   0  0  3  0  0  0  0  0  0  0  0  0
    3.7166   -1.4648    0.0000 C   0  0  0  0  0  0  0  0  0  0  0  0
    2.8639   -2.8639    0.0000 C   0  0  0  0  0  0  0  0  0  0  0  0
    2.0769   -2.6016    0.0000 C   0  0  0  0  0  0  0  0  0  0  0  0
    2.8639   -1.5303    0.0000 C   0  0  0  0  0  0  0  0  0  0  0  0
    4.1538   -2.1862    0.0000 C   0  0  0  0  0  0  0  0  0  0  0  0
    4.7003   -1.5959    0.0000 C   0  0  0  0  0  0  0  0  0  0  0  0
    2.0769   -1.7927    0.0000 C   0  0  0  0  0  0  0  0  0  0  0  0
    1.4211   -3.0826    0.0000 C   0  0  0  0  0  0  0  0  0  0  0  0
    3.2793   -0.7651    0.0000 C   0  0  0  0  0  0  0  0  0  0  0  0
    4.8971   -0.6996    0.0000 C   0  0  0  0  0  0  0  0  0  0  0  0
    3.6510   -0.0437    0.0000 C   0  0  0  0  0  0  0  0  0  0  0  0
    4.4818    0.0000    0.0000 C   0  0  0  0  0  0  0  0  0  0  0  0
    1.4866   -3.9133    0.0000 C   0  0  0  0  0  0  0  0  0  0  0  0
    4.9846   -2.0987    0.0000 C   0  0  0  0  0  0  0  0  0  0  0  0
    0.0000   -3.2356    0.0000 C   0  0  0  0  0  0  0  0  0  0  0  0
    0.0656   -4.0664    0.0000 C   0  0  0  0  0  0  0  0  0  0  0  0
  1 16  1  0  0  0  0
  2 11  2  0  0  0  0
  3 11  1  0  0  0  0
  4 14  2  0  0  0  0
  4 21  1  0  0  0  0
  5 19  2  0  0  0  0
  5 22  1  0  0  0  0
  6  7  1  0  0  0  0
  6  8  1  0  0  0  0
  6 10  1  0  0  0  0
  6 11  1  0  0  0  0
  7 12  1  0  0  0  0
  7 15  2  0  0  0  0
  8  9  2  0  0  0  0
  9 13  1  0  0  0  0
  9 14  1  0  0  0  0
 10 13  1  0  0  0  0
 12 16  2  0  0  0  0
 12 20  1  0  0  0  0
 14 19  1  0  0  0  0
 15 17  1  0  0  0  0
 16 18  1  0  0  0  0
 17 18  2  0  0  0  0
 21 22  2  0  0  0  0
M  END
> <PUBCHEM_COMPOUND_ID_TYPE>
0

> <PUBCHEM_TOTAL_CHARGE>
0

> <PUBCHEM_SUBSTANCE_ID>
310935245

> <PUBCHEM_SUBSTANCE_VERSION>
1

> <PUBCHEM_EXT_DATASOURCE_NAME>
4488

> <PUBCHEM_EXT_DATASOURCE_REGID>
SCHEMBL16112773

> <PUBCHEM_SUBSTANCE_COMMENT>
InChI=1S/C17H15FN2O2/c1-11-13(3-2-4-14(11)18)17(16(21)22)6-5-12(9-17)15-10-19-7-8-20-15/h2-4,7-10H,5-6H2,1H3,(H,21,22)
InChIKey=SZLBOUNDYCYQCQ-UHFFFAOYSA-N

> <PUBCHEM_SUBSTANCE_SYNONYM>
SCHEMBL16112773

> <PUBCHEM_XREF_EXT_ID>
SCHEMBL16112773

> <PUBCHEM_EXT_DATASOURCE_URL>
https://www.surechembl.org/

> <PUBCHEM_EXT_SUBSTANCE_URL>
https://www.surechembl.org/chemical/SCHEMBL16112773

> <PUBCHEM_CID_ASSOCIATIONS>
117603321  1

> <PUBCHEM_COORDINATE_TYPE>
1
3

$$$$
