310940447
  -OEChem-07211613022D

 26 27  0     1  0  0  0  0  0999 V2000
    0.0059   -2.1358    0.0000 Br  0  0  0  0  0  0  0  0  0  0  0  0
   -0.1471    0.7236    0.0000 Br  0  0  0  0  0  0  0  0  0  0  0  0
   -2.3477   -0.7944    0.0000 S   0  0  0  0  0  0  0  0  0  0  0  0
   -3.0066    1.5474    0.0000 F   0  0  0  0  0  0  0  0  0  0  0  0
   -2.0063    2.1358    0.0000 F   0  0  0  0  0  0  0  0  0  0  0  0
   -1.4180    1.1238    0.0000 F   0  0  0  0  0  0  0  0  0  0  0  0
    3.5243    0.9003    0.0000 F   0  0  0  0  0  0  0  0  0  0  0  0
    2.3595    0.5707    0.0000 F   0  0  0  0  0  0  0  0  0  0  0  0
    3.7950   -0.2648    0.0000 F   0  0  0  0  0  0  0  0  0  0  0  0
    2.6771   -0.5707    0.0000 O   0  0  0  0  0  0  0  0  0  0  0  0
   -0.7001    0.6883    0.0000 O   0  0  0  0  0  0  0  0  0  0  0  0
   -3.1949    0.2529    0.0000 N   0  0  0  0  0  0  0  0  0  0  0  0
   -0.6295   -0.7472    0.0000 N   0  0  0  0  0  0  0  0  0  0  0  0
   -2.4300    0.5472    0.0000 C   0  0  0  0  0  0  0  0  0  0  0  0
   -1.9122   -0.1000    0.0000 C   0  0  0  0  0  0  0  0  0  0  0  0
   -2.2064    1.3474    0.0000 C   0  0  0  0  0  0  0  0  0  0  0  0
   -1.0885   -0.0765    0.0000 C   0  0  0  0  0  0  0  0  0  0  0  0
    0.2059   -0.7001    0.0000 C   0  0  0  0  0  0  0  0  0  0  0  0
   -3.1478   -0.5589    0.0000 C   0  0  0  0  0  0  0  0  0  0  0  0
    0.6531   -1.3945    0.0000 C   0  0  0  0  0  0  0  0  0  0  0  0
    0.5825    0.0294    0.0000 C   0  0  3  0  0  0  0  0  0  0  0  0
    1.8416   -0.6178    0.0000 C   0  0  0  0  0  0  0  0  0  0  0  0
    1.4768   -1.3474    0.0000 C   0  0  0  0  0  0  0  0  0  0  0  0
    1.4062    0.0647    0.0000 C   0  0  0  0  0  0  0  0  0  0  0  0
    3.0889    0.1588    0.0000 C   0  0  0  0  0  0  0  0  0  0  0  0
   -3.7950   -1.1003    0.0000 C   0  0  0  0  0  0  0  0  0  0  0  0
  1 20  1  0  0  0  0
  2 21  1  0  0  0  0
  3 15  1  0  0  0  0
  3 19  1  0  0  0  0
  4 16  1  0  0  0  0
  5 16  1  0  0  0  0
  6 16  1  0  0  0  0
  7 25  1  0  0  0  0
  8 25  1  0  0  0  0
  9 25  1  0  0  0  0
 10 22  1  0  0  0  0
 10 25  1  0  0  0  0
 11 17  2  0  0  0  0
 12 14  1  0  0  0  0
 12 19  2  0  0  0  0
 13 17  1  0  0  0  0
 13 18  1  0  0  0  0
 14 15  2  0  0  0  0
 14 16  1  0  0  0  0
 15 17  1  0  0  0  0
 18 20  2  0  0  0  0
 18 21  1  0  0  0  0
 19 26  1  0  0  0  0
 20 23  1  0  0  0  0
 21 24  1  0  0  0  0
 22 23  2  0  0  0  0
 22 24  1  0  0  0  0
M  END
> <PUBCHEM_COMPOUND_ID_TYPE>
0

> <PUBCHEM_TOTAL_CHARGE>
0

> <PUBCHEM_SUBSTANCE_ID>
310940447

> <PUBCHEM_SUBSTANCE_VERSION>
1

> <PUBCHEM_EXT_DATASOURCE_NAME>
4488

> <PUBCHEM_EXT_DATASOURCE_REGID>
SCHEMBL16118400

> <PUBCHEM_SUBSTANCE_COMMENT>
InChI=1S/C13H8Br2F6N2O2S/c1-4-22-10(12(16,17)18)9(26-4)11(24)23-8-6(14)2-5(3-7(8)15)25-13(19,20)21/h2,7H,3H2,1H3,(H,23,24)
InChIKey=UDSLYQYWMSIOGI-UHFFFAOYSA-N

> <PUBCHEM_SUBSTANCE_SYNONYM>
SCHEMBL16118400

> <PUBCHEM_XREF_EXT_ID>
SCHEMBL16118400

> <PUBCHEM_EXT_DATASOURCE_URL>
https://www.surechembl.org/

> <PUBCHEM_EXT_SUBSTANCE_URL>
https://www.surechembl.org/chemical/SCHEMBL16118400

> <PUBCHEM_CID_ASSOCIATIONS>
117607467  1

> <PUBCHEM_COORDINATE_TYPE>
1
3

$$$$
