310946500
  -OEChem-07211613022D

 18 17  0     1  0  0  0  0  0999 V2000
    6.0291   14.6684    0.0000 O   0  0  0  0  0  0  0  0  0  0  0  0
    8.1725   12.6059    0.0000 O   0  0  0  0  0  0  0  0  0  0  0  0
    2.4568   12.6059    0.0000 O   0  0  0  0  0  0  0  0  0  0  0  0
    8.1725   15.0809    0.0000 O   0  0  0  0  0  0  0  0  0  0  0  0
    3.1712   11.3684    0.0000 O   0  5  0  0  0  0  0  0  0  0  0  0
    3.8857   12.6059    0.0000 O   0  0  0  0  0  0  0  0  0  0  0  0
    6.7436   13.4309    0.0000 N   0  0  0  0  0  0  0  0  0  0  0  0
    3.1712   12.1934    0.0000 N   0  3  0  0  0  0  0  0  0  0  0  0
    7.4581   13.8434    0.0000 C   0  0  3  0  0  0  0  0  0  0  0  0
    6.0291   13.8434    0.0000 C   0  0  0  0  0  0  0  0  0  0  0  0
    8.1725   13.4309    0.0000 C   0  0  0  0  0  0  0  0  0  0  0  0
    7.4581   14.6684    0.0000 C   0  0  0  0  0  0  0  0  0  0  0  0
    5.3146   13.4309    0.0000 C   0  0  0  0  0  0  0  0  0  0  0  0
    4.6002   13.8434    0.0000 C   0  0  0  0  0  0  0  0  0  0  0  0
    8.8870   13.8434    0.0000 C   0  0  0  0  0  0  0  0  0  0  0  0
    3.8857   13.4309    0.0000 C   0  0  0  0  0  0  0  0  0  0  0  0
    3.1712   13.8434    0.0000 C   0  0  0  0  0  0  0  0  0  0  0  0
    2.4568   13.4309    0.0000 C   0  0  0  0  0  0  0  0  0  0  0  0
  1 10  2  0  0  0  0
  2 11  2  0  0  0  0
  3  8  1  0  0  0  0
  3 18  1  0  0  0  0
  4 12  1  0  0  0  0
  5  8  1  0  0  0  0
  6  8  2  0  0  0  0
  7  9  1  0  0  0  0
  7 10  1  0  0  0  0
  9 11  1  0  0  0  0
  9 12  1  0  0  0  0
 10 13  1  0  0  0  0
 11 15  1  0  0  0  0
 13 14  1  0  0  0  0
 14 16  1  0  0  0  0
 16 17  1  0  0  0  0
 17 18  1  0  0  0  0
M  CHG  2   5  -1   8   1
M  END
> <PUBCHEM_COMPOUND_ID_TYPE>
0

> <PUBCHEM_TOTAL_CHARGE>
0

> <PUBCHEM_SUBSTANCE_ID>
310946500

> <PUBCHEM_SUBSTANCE_VERSION>
1

> <PUBCHEM_EXT_DATASOURCE_NAME>
4488

> <PUBCHEM_EXT_DATASOURCE_REGID>
SCHEMBL16124621

> <PUBCHEM_SUBSTANCE_COMMENT>
InChI=1S/C10H18N2O6/c1-8(14)9(7-13)11-10(15)5-3-2-4-6-18-12(16)17/h9,13H,2-7H2,1H3,(H,11,15)
InChIKey=KOAWRNRMPNIJDP-UHFFFAOYSA-N

> <PUBCHEM_SUBSTANCE_SYNONYM>
SCHEMBL16124621

> <PUBCHEM_XREF_EXT_ID>
SCHEMBL16124621

> <PUBCHEM_EXT_DATASOURCE_URL>
https://www.surechembl.org/

> <PUBCHEM_EXT_SUBSTANCE_URL>
https://www.surechembl.org/chemical/SCHEMBL16124621

> <PUBCHEM_CID_ASSOCIATIONS>
117612406  1

> <PUBCHEM_COORDINATE_TYPE>
1
3

$$$$
