310938459
  -OEChem-07211613022D

 46 50  0     1  0  0  0  0  0999 V2000
  -12.9139   -1.2002    0.0000 O   0  0  0  0  0  0  0  0  0  0  0  0
  -10.1519   -2.0976    0.0000 O   0  0  0  0  0  0  0  0  0  0  0  0
  -14.9859   -5.0616    0.0000 O   0  0  0  0  0  0  0  0  0  0  0  0
  -14.3889   -2.7065    0.0000 O   0  0  0  0  0  0  0  0  0  0  0  0
  -14.0298   -6.1234    0.0000 O   0  0  0  0  0  0  0  0  0  0  0  0
  -16.5324   -4.7690    0.0000 O   0  0  0  0  0  0  0  0  0  0  0  0
  -20.8192   -4.7690    0.0000 O   0  0  0  0  0  0  0  0  0  0  0  0
  -11.6040   -1.8676    0.0000 N   0  0  0  0  0  0  0  0  0  0  0  0
  -13.6745   -3.9440    0.0000 N   0  0  0  0  0  0  0  0  0  0  0  0
  -15.8179   -3.5315    0.0000 N   0  0  0  0  0  0  0  0  0  0  0  0
  -20.1047   -3.5315    0.0000 N   0  0  0  0  0  0  0  0  0  0  0  0
  -12.9208   -3.6084    0.0000 C   0  0  0  0  0  0  0  0  0  0  0  0
  -11.8589   -2.6523    0.0000 C   0  0  0  0  0  0  0  0  0  0  0  0
  -12.3688   -4.2215    0.0000 C   0  0  0  0  0  0  0  0  0  0  0  0
  -10.8193   -1.6127    0.0000 C   0  0  0  0  0  0  0  0  0  0  0  0
  -12.0889   -1.2002    0.0000 C   0  0  0  0  0  0  0  0  0  0  0  0
  -11.6040   -0.5328    0.0000 C   0  0  0  0  0  0  0  0  0  0  0  0
  -10.8193   -0.7877    0.0000 C   0  0  0  0  0  0  0  0  0  0  0  0
  -13.5882   -4.7644    0.0000 C   0  0  3  0  0  0  0  0  0  0  0  0
  -12.6659   -2.8238    0.0000 C   0  0  0  0  0  0  0  0  0  0  0  0
  -12.7813   -4.9360    0.0000 C   0  0  0  0  0  0  0  0  0  0  0  0
  -11.3069   -3.2653    0.0000 C   0  0  0  0  0  0  0  0  0  0  0  0
  -11.5618   -4.0500    0.0000 C   0  0  0  0  0  0  0  0  0  0  0  0
  -14.3889   -3.5315    0.0000 C   0  0  0  0  0  0  0  0  0  0  0  0
  -14.2014   -5.3165    0.0000 C   0  0  0  0  0  0  0  0  0  0  0  0
  -11.7755    0.2743    0.0000 C   0  0  0  0  0  0  0  0  0  0  0  0
  -10.2063   -0.2357    0.0000 C   0  0  0  0  0  0  0  0  0  0  0  0
  -11.1624    0.8262    0.0000 C   0  0  0  0  0  0  0  0  0  0  0  0
  -10.3778    0.5713    0.0000 C   0  0  0  0  0  0  0  0  0  0  0  0
  -15.1035   -3.9440    0.0000 C   0  0  0  0  0  0  0  0  0  0  0  0
  -15.5693   -5.6449    0.0000 C   0  0  0  0  0  0  0  0  0  0  0  0
  -16.5324   -3.9440    0.0000 C   0  0  0  0  0  0  0  0  0  0  0  0
  -16.3662   -5.4314    0.0000 C   0  0  0  0  0  0  0  0  0  0  0  0
  -17.2469   -3.5315    0.0000 C   0  0  0  0  0  0  0  0  0  0  0  0
  -17.9613   -3.9440    0.0000 C   0  0  0  0  0  0  0  0  0  0  0  0
  -18.6758   -3.5315    0.0000 C   0  0  0  0  0  0  0  0  0  0  0  0
  -22.2481   -3.9440    0.0000 C   0  0  0  0  0  0  0  0  0  0  0  0
  -22.9626   -3.5315    0.0000 C   0  0  0  0  0  0  0  0  0  0  0  0
  -23.6771   -3.9440    0.0000 C   0  0  0  0  0  0  0  0  0  0  0  0
  -21.5337   -3.5315    0.0000 C   0  0  0  0  0  0  0  0  0  0  0  0
  -20.8192   -3.9440    0.0000 C   0  0  0  0  0  0  0  0  0  0  0  0
  -22.2481   -4.7690    0.0000 C   0  0  0  0  0  0  0  0  0  0  0  0
  -19.3903   -3.9440    0.0000 C   0  0  0  0  0  0  0  0  0  0  0  0
  -23.6771   -4.7690    0.0000 C   0  0  0  0  0  0  0  0  0  0  0  0
  -22.9626   -5.1815    0.0000 C   0  0  0  0  0  0  0  0  0  0  0  0
  -24.3915   -3.5315    0.0000 C   0  0  0  0  0  0  0  0  0  0  0  0
  1 16  2  0  0  0  0
  2 15  2  0  0  0  0
  3 25  1  0  0  0  0
  3 31  1  0  0  0  0
  4 24  2  0  0  0  0
  5 25  2  0  0  0  0
  6 32  2  0  0  0  0
  7 41  2  0  0  0  0
  8 13  1  0  0  0  0
  8 15  1  0  0  0  0
  8 16  1  0  0  0  0
  9 12  1  0  0  0  0
  9 19  1  0  0  0  0
  9 24  1  0  0  0  0
 10 30  1  0  0  0  0
 10 32  1  0  0  0  0
 11 41  1  0  0  0  0
 11 43  1  0  0  0  0
 12 14  2  0  0  0  0
 12 20  1  0  0  0  0
 13 20  2  0  0  0  0
 13 22  1  0  0  0  0
 14 21  1  0  0  0  0
 14 23  1  0  0  0  0
 15 18  1  0  0  0  0
 16 17  1  0  0  0  0
 17 18  2  0  0  0  0
 17 26  1  0  0  0  0
 18 27  1  0  0  0  0
 19 21  1  0  0  0  0
 19 25  1  0  0  0  0
 22 23  2  0  0  0  0
 24 30  1  0  0  0  0
 26 28  2  0  0  0  0
 27 29  2  0  0  0  0
 28 29  1  0  0  0  0
 31 33  1  0  0  0  0
 32 34  1  0  0  0  0
 34 35  1  0  0  0  0
 35 36  1  0  0  0  0
 36 43  1  0  0  0  0
 37 38  1  0  0  0  0
 37 40  1  0  0  0  0
 37 42  2  0  0  0  0
 38 39  2  0  0  0  0
 39 44  1  0  0  0  0
 39 46  1  0  0  0  0
 40 41  1  0  0  0  0
 42 45  1  0  0  0  0
 44 45  2  0  0  0  0
M  END
> <PUBCHEM_COMPOUND_ID_TYPE>
0

> <PUBCHEM_TOTAL_CHARGE>
0

> <PUBCHEM_SUBSTANCE_ID>
310938459

> <PUBCHEM_SUBSTANCE_VERSION>
1

> <PUBCHEM_EXT_DATASOURCE_NAME>
4488

> <PUBCHEM_EXT_DATASOURCE_REGID>
SCHEMBL16116360

> <PUBCHEM_SUBSTANCE_COMMENT>
InChI=1S/C35H36N4O7/c1-3-46-35(45)29-19-24-14-15-25(38-33(43)26-11-4-5-12-27(26)34(38)44)20-28(24)39(29)32(42)21-37-30(40)13-6-7-16-36-31(41)18-23-10-8-9-22(2)17-23/h4-5,8-12,14-15,17,20,29H,3,6-7,13,16,18-19,21H2,1-2H3,(H,36,41)(H,37,40)
InChIKey=CCXWKNOSLNAJMY-UHFFFAOYSA-N

> <PUBCHEM_SUBSTANCE_SYNONYM>
SCHEMBL16116360

> <PUBCHEM_XREF_EXT_ID>
SCHEMBL16116360

> <PUBCHEM_EXT_DATASOURCE_URL>
https://www.surechembl.org/

> <PUBCHEM_EXT_SUBSTANCE_URL>
https://www.surechembl.org/chemical/SCHEMBL16116360

> <PUBCHEM_CID_ASSOCIATIONS>
117605920  1

> <PUBCHEM_COORDINATE_TYPE>
1
3

$$$$
