310943958
  -OEChem-07211613022D

 15 15  0     1  0  0  0  0  0999 V2000
   -0.4902    0.2989    0.0000 N   0  0  3  0  0  0  0  0  0  0  0  0
    1.6739   -0.9565    0.0000 N   0  0  0  0  0  0  0  0  0  0  0  0
   -1.9489    1.1479    0.0000 N   0  0  0  0  0  0  0  0  0  0  0  0
    0.2391   -0.1315    0.0000 C   0  0  0  0  0  0  0  0  0  0  0  0
    0.2391   -0.9565    0.0000 C   0  0  0  0  0  0  0  0  0  0  0  0
    0.9326    0.2869    0.0000 C   0  0  0  0  0  0  0  0  0  0  0  0
    1.6739   -0.1315    0.0000 C   0  0  0  0  0  0  0  0  0  0  0  0
    0.9685   -1.3750    0.0000 C   0  0  0  0  0  0  0  0  0  0  0  0
   -1.2076   -0.1076    0.0000 C   0  0  0  0  0  0  0  0  0  0  0  0
   -0.5021    1.1598    0.0000 C   0  0  0  0  0  0  0  0  0  0  0  0
   -1.9489    0.2989    0.0000 C   0  0  0  0  0  0  0  0  0  0  0  0
    2.5826   -1.4826    0.0000 C   0  0  0  0  0  0  0  0  0  0  0  0
   -1.1000    1.4826    0.0000 C   0  0  0  0  0  0  0  0  0  0  0  0
   -1.3511    1.4826    0.0000 C   0  0  0  0  0  0  0  0  0  0  0  0
   -2.5826    1.4826    0.0000 C   0  0  0  0  0  0  0  0  0  0  0  0
  1  4  1  0  0  0  0
  1  9  1  0  0  0  0
  1 10  1  0  0  0  0
  2  7  1  0  0  0  0
  2  8  1  0  0  0  0
  2 12  1  0  0  0  0
  3 11  1  0  0  0  0
  3 14  1  0  0  0  0
  3 15  1  0  0  0  0
  4  5  1  0  0  0  0
  4  6  1  0  0  0  0
  5  8  1  0  0  0  0
  6  7  1  0  0  0  0
  9 11  1  0  0  0  0
 10 13  1  0  0  0  0
M  END
> <PUBCHEM_COMPOUND_ID_TYPE>
0

> <PUBCHEM_TOTAL_CHARGE>
0

> <PUBCHEM_SUBSTANCE_ID>
310943958

> <PUBCHEM_SUBSTANCE_VERSION>
1

> <PUBCHEM_EXT_DATASOURCE_NAME>
4488

> <PUBCHEM_EXT_DATASOURCE_REGID>
SCHEMBL16122029

> <PUBCHEM_SUBSTANCE_COMMENT>
InChI=1S/C12H27N3/c1-5-15(11-10-13(2)3)12-6-8-14(4)9-7-12/h12H,5-11H2,1-4H3
InChIKey=KXXDFGKDUSNXPU-UHFFFAOYSA-N

> <PUBCHEM_SUBSTANCE_SYNONYM>
SCHEMBL16122029

> <PUBCHEM_XREF_EXT_ID>
SCHEMBL16122029

> <PUBCHEM_EXT_DATASOURCE_URL>
https://www.surechembl.org/

> <PUBCHEM_EXT_SUBSTANCE_URL>
https://www.surechembl.org/chemical/SCHEMBL16122029

> <PUBCHEM_CID_ASSOCIATIONS>
783847  1

> <PUBCHEM_COORDINATE_TYPE>
1
3

$$$$
