310946225
  -OEChem-07211613022D

 26 28  0     1  0  0  0  0  0999 V2000
   -1.2602   -0.7457    0.0000 O   0  0  0  0  0  0  0  0  0  0  0  0
   -0.0272    0.0550    0.0000 O   0  0  0  0  0  0  0  0  0  0  0  0
    3.6667   -1.6839    0.0000 N   0  0  0  0  0  0  0  0  0  0  0  0
   -0.7173   -1.9652    0.0000 C   0  0  0  0  0  0  0  0  0  0  0  0
   -1.4317   -1.5527    0.0000 C   0  0  0  0  0  0  0  0  0  0  0  0
   -0.1042   -1.4131    0.0000 C   0  0  3  0  0  0  0  0  0  0  0  0
   -0.4397   -0.6595    0.0000 C   0  0  0  0  0  0  0  0  0  0  0  0
   -2.1462   -1.9652    0.0000 C   0  0  0  0  0  0  0  0  0  0  0  0
   -1.4317   -3.2027    0.0000 C   0  0  0  0  0  0  0  0  0  0  0  0
   -0.7173   -2.7902    0.0000 C   0  0  0  0  0  0  0  0  0  0  0  0
    0.6927   -1.6267    0.0000 C   0  0  0  0  0  0  0  0  0  0  0  0
   -2.1462   -2.7902    0.0000 C   0  0  0  0  0  0  0  0  0  0  0  0
   -1.4317   -4.0277    0.0000 C   0  0  0  0  0  0  0  0  0  0  0  0
   -2.8607   -1.5527    0.0000 C   0  0  0  0  0  0  0  0  0  0  0  0
    0.9062   -2.4236    0.0000 C   0  0  0  0  0  0  0  0  0  0  0  0
    1.2761   -1.0433    0.0000 C   0  0  0  0  0  0  0  0  0  0  0  0
    1.7031   -2.6371    0.0000 C   0  0  0  0  0  0  0  0  0  0  0  0
    2.0730   -1.2568    0.0000 C   0  0  0  0  0  0  0  0  0  0  0  0
    2.2865   -2.0537    0.0000 C   0  0  0  0  0  0  0  0  0  0  0  0
   -2.8607   -0.7277    0.0000 C   0  0  0  0  0  0  0  0  0  0  0  0
   -0.6067   -4.0277    0.0000 C   0  0  0  0  0  0  0  0  0  0  0  0
   -1.4317   -4.8527    0.0000 C   0  0  0  0  0  0  0  0  0  0  0  0
   -2.2567   -4.0277    0.0000 C   0  0  0  0  0  0  0  0  0  0  0  0
    3.0834   -2.2673    0.0000 C   0  0  0  0  0  0  0  0  0  0  0  0
   -3.5752   -0.3152    0.0000 C   0  0  0  0  0  0  0  0  0  0  0  0
   -2.1462   -0.3152    0.0000 C   0  0  0  0  0  0  0  0  0  0  0  0
  1  5  1  0  0  0  0
  1  7  1  0  0  0  0
  2  7  2  0  0  0  0
  3 24  1  0  0  0  0
  4  5  2  0  0  0  0
  4  6  1  0  0  0  0
  4 10  1  0  0  0  0
  5  8  1  0  0  0  0
  6  7  1  0  0  0  0
  6 11  1  0  0  0  0
  8 12  2  0  0  0  0
  8 14  1  0  0  0  0
  9 10  2  0  0  0  0
  9 12  1  0  0  0  0
  9 13  1  0  0  0  0
 11 15  2  0  0  0  0
 11 16  1  0  0  0  0
 13 21  1  0  0  0  0
 13 22  1  0  0  0  0
 13 23  1  0  0  0  0
 14 20  1  0  0  0  0
 15 17  1  0  0  0  0
 16 18  2  0  0  0  0
 17 19  2  0  0  0  0
 18 19  1  0  0  0  0
 19 24  1  0  0  0  0
 20 25  1  0  0  0  0
 20 26  1  0  0  0  0
M  END
> <PUBCHEM_COMPOUND_ID_TYPE>
0

> <PUBCHEM_TOTAL_CHARGE>
0

> <PUBCHEM_SUBSTANCE_ID>
310946225

> <PUBCHEM_SUBSTANCE_VERSION>
1

> <PUBCHEM_EXT_DATASOURCE_NAME>
4488

> <PUBCHEM_EXT_DATASOURCE_REGID>
SCHEMBL16124341

> <PUBCHEM_SUBSTANCE_COMMENT>
InChI=1S/C23H29NO2/c1-14(2)10-17-11-18(23(3,4)5)12-19-20(22(25)26-21(17)19)16-8-6-15(13-24)7-9-16/h6-9,11-12,14,20H,10,13,24H2,1-5H3
InChIKey=HCHUMGXZXNBOFB-UHFFFAOYSA-N

> <PUBCHEM_SUBSTANCE_SYNONYM>
SCHEMBL16124341

> <PUBCHEM_XREF_EXT_ID>
SCHEMBL16124341

> <PUBCHEM_EXT_DATASOURCE_URL>
https://www.surechembl.org/

> <PUBCHEM_EXT_SUBSTANCE_URL>
https://www.surechembl.org/chemical/SCHEMBL16124341

> <PUBCHEM_CID_ASSOCIATIONS>
117612173  1

> <PUBCHEM_COORDINATE_TYPE>
1
3

$$$$
