310942370
  -OEChem-07211613022D

 30 31  0     1  0  0  0  0  0999 V2000
   -3.0019    0.2144    0.0000 O   0  0  0  0  0  0  0  0  0  0  0  0
   -2.6266   -1.1614    0.0000 O   0  0  0  0  0  0  0  0  0  0  0  0
    1.3044   -1.6081    0.0000 O   0  0  0  0  0  0  0  0  0  0  0  0
    4.3777    0.1608    0.0000 O   0  0  0  0  0  0  0  0  0  0  0  0
   -0.2859   -0.1251    0.0000 N   0  0  0  0  0  0  0  0  0  0  0  0
    0.4646   -0.4646    0.0000 N   0  0  0  0  0  0  0  0  0  0  0  0
    2.3943    1.0721    0.0000 N   0  0  3  0  0  0  0  0  0  0  0  0
   -0.5539    0.6611    0.0000 C   0  0  0  0  0  0  0  0  0  0  0  0
   -0.9470   -0.5897    0.0000 C   0  0  0  0  0  0  0  0  0  0  0  0
   -1.6439   -0.1072    0.0000 C   0  0  0  0  0  0  0  0  0  0  0  0
   -1.3758    0.6790    0.0000 C   0  0  0  0  0  0  0  0  0  0  0  0
   -0.0715    1.3580    0.0000 C   0  0  3  0  0  0  0  0  0  0  0  0
   -2.4122   -0.3395    0.0000 C   0  0  0  0  0  0  0  0  0  0  0  0
   -0.8755   -1.4116    0.0000 C   0  0  0  0  0  0  0  0  0  0  0  0
    0.5360   -1.2508    0.0000 C   0  0  0  0  0  0  0  0  0  0  0  0
    0.7504    1.2508    0.0000 C   0  0  3  0  0  0  0  0  0  0  0  0
   -0.1251   -1.7511    0.0000 C   0  0  0  0  0  0  0  0  0  0  0  0
   -1.8762    1.3401    0.0000 C   0  0  0  0  0  0  0  0  0  0  0  0
   -0.2680    1.7511    0.0000 C   0  0  0  0  0  0  0  0  0  0  0  0
    1.0721    0.5182    0.0000 C   0  0  0  0  0  0  0  0  0  0  0  0
    1.1436    1.7332    0.0000 C   0  0  0  0  0  0  0  0  0  0  0  0
   -3.7880    0.0000    0.0000 C   0  0  0  0  0  0  0  0  0  0  0  0
    1.9119    0.4110    0.0000 C   0  0  0  0  0  0  0  0  0  0  0  0
    1.9655   -1.1079    0.0000 C   0  0  0  0  0  0  0  0  0  0  0  0
    3.2163    0.9827    0.0000 C   0  0  0  0  0  0  0  0  0  0  0  0
    3.5557    0.2501    0.0000 C   0  0  0  0  0  0  0  0  0  0  0  0
   -4.3777    0.5539    0.0000 C   0  0  0  0  0  0  0  0  0  0  0  0
    2.0727    1.7511    0.0000 C   0  0  0  0  0  0  0  0  0  0  0  0
    3.0912   -0.4467    0.0000 C   0  0  0  0  0  0  0  0  0  0  0  0
    3.9846   -0.4646    0.0000 C   0  0  0  0  0  0  0  0  0  0  0  0
  1 13  1  0  0  0  0
  1 22  1  0  0  0  0
  2 13  2  0  0  0  0
  3 15  1  0  0  0  0
  3 24  1  0  0  0  0
  4 26  1  0  0  0  0
  5  6  1  0  0  0  0
  5  8  1  0  0  0  0
  5  9  1  0  0  0  0
  6 15  2  0  0  0  0
  7 23  1  0  0  0  0
  7 25  1  0  0  0  0
  7 28  1  0  0  0  0
  8 11  2  0  0  0  0
  8 12  1  0  0  0  0
  9 10  2  0  0  0  0
  9 14  1  0  0  0  0
 10 11  1  0  0  0  0
 10 13  1  0  0  0  0
 11 18  1  0  0  0  0
 12 16  1  0  0  0  0
 12 19  1  0  0  0  0
 14 17  2  0  0  0  0
 15 17  1  0  0  0  0
 16 20  1  0  0  0  0
 16 21  1  0  0  0  0
 20 23  1  0  0  0  0
 22 27  1  0  0  0  0
 25 26  1  0  0  0  0
 26 29  1  0  0  0  0
 26 30  1  0  0  0  0
M  END
> <PUBCHEM_COMPOUND_ID_TYPE>
0

> <PUBCHEM_TOTAL_CHARGE>
0

> <PUBCHEM_SUBSTANCE_ID>
310942370

> <PUBCHEM_SUBSTANCE_VERSION>
1

> <PUBCHEM_EXT_DATASOURCE_NAME>
4488

> <PUBCHEM_EXT_DATASOURCE_REGID>
SCHEMBL16120406

> <PUBCHEM_SUBSTANCE_COMMENT>
InChI=1S/C23H37N3O4/c1-9-30-22(27)20-17(4)21(26-18(20)10-11-19(24-26)29-8)16(3)15(2)12-13-25(7)14-23(5,6)28/h10-11,15-16,28H,9,12-14H2,1-8H3
InChIKey=GDDJYTZUOJPUFB-UHFFFAOYSA-N

> <PUBCHEM_SUBSTANCE_SYNONYM>
SCHEMBL16120406

> <PUBCHEM_XREF_EXT_ID>
SCHEMBL16120406

> <PUBCHEM_EXT_DATASOURCE_URL>
https://www.surechembl.org/

> <PUBCHEM_EXT_SUBSTANCE_URL>
https://www.surechembl.org/chemical/SCHEMBL16120406

> <PUBCHEM_CID_ASSOCIATIONS>
117608986  1

> <PUBCHEM_COORDINATE_TYPE>
1
3

$$$$
