310931305
  -OEChem-07211613022D

 27 30  0     1  0  0  0  0  0999 V2000
    0.8934   -2.7159    0.0000 O   0  0  0  0  0  0  0  0  0  0  0  0
    2.3228    0.0000    0.0000 O   0  0  0  0  0  0  0  0  0  0  0  0
    0.0000   -6.3965    0.0000 O   0  0  0  0  0  0  0  0  0  0  0  0
    2.3228   -2.5014    0.0000 N   0  0  0  0  0  0  0  0  0  0  0  0
    2.7516   -3.7522    0.0000 N   0  0  0  0  0  0  0  0  0  0  0  0
    3.7879   -2.7159    0.0000 N   0  0  0  0  0  0  0  0  0  0  0  0
    2.2156   -5.8963    0.0000 N   0  0  0  0  0  0  0  0  0  0  0  0
    3.4663   -5.2530    0.0000 N   0  0  0  0  0  0  0  0  0  0  0  0
    1.9297   -3.7522    0.0000 C   0  0  3  0  0  0  0  0  0  0  0  0
    1.6795   -2.9660    0.0000 C   0  0  0  0  0  0  0  0  0  0  0  0
    1.4294   -4.3954    0.0000 C   0  0  0  0  0  0  0  0  0  0  0  0
    2.2870   -4.4669    0.0000 C   0  0  0  0  0  0  0  0  0  0  0  0
    3.0017   -2.9660    0.0000 C   0  0  0  0  0  0  0  0  0  0  0  0
    2.3228   -1.6795    0.0000 C   0  0  0  0  0  0  0  0  0  0  0  0
    1.7867   -5.1458    0.0000 C   0  0  0  0  0  0  0  0  0  0  0  0
    0.6432   -4.3239    0.0000 C   0  0  0  0  0  0  0  0  0  0  0  0
    2.0369   -5.3245    0.0000 C   0  0  0  0  0  0  0  0  0  0  0  0
    3.1089   -4.5383    0.0000 C   0  0  0  0  0  0  0  0  0  0  0  0
    3.0375   -1.2150    0.0000 C   0  0  0  0  0  0  0  0  0  0  0  0
    1.6438   -1.2150    0.0000 C   0  0  0  0  0  0  0  0  0  0  0  0
    1.2865   -5.8248    0.0000 C   0  0  0  0  0  0  0  0  0  0  0  0
    0.1429   -5.0029    0.0000 C   0  0  0  0  0  0  0  0  0  0  0  0
    0.4645   -5.7176    0.0000 C   0  0  0  0  0  0  0  0  0  0  0  0
    3.0375   -5.9677    0.0000 C   0  0  0  0  0  0  0  0  0  0  0  0
    3.0375   -0.4288    0.0000 C   0  0  0  0  0  0  0  0  0  0  0  0
    1.6438   -0.4288    0.0000 C   0  0  0  0  0  0  0  0  0  0  0  0
    0.3216   -7.1470    0.0000 C   0  0  0  0  0  0  0  0  0  0  0  0
  1 10  2  0  0  0  0
  2 25  1  0  0  0  0
  2 26  1  0  0  0  0
  3 23  1  0  0  0  0
  3 27  1  0  0  0  0
  4 10  1  0  0  0  0
  4 13  1  0  0  0  0
  4 14  1  0  0  0  0
  5  9  1  0  0  0  0
  5 13  1  0  0  0  0
  6 13  2  3  0  0  0
  7 17  2  0  0  0  0
  7 24  1  0  0  0  0
  8 18  1  0  0  0  0
  8 24  2  0  0  0  0
  9 10  1  0  0  0  0
  9 11  1  0  0  0  0
  9 12  1  0  0  0  0
 11 15  2  0  0  0  0
 11 16  1  0  0  0  0
 12 17  1  0  0  0  0
 12 18  2  0  0  0  0
 14 19  1  0  0  0  0
 14 20  1  0  0  0  0
 15 21  1  0  0  0  0
 16 22  2  0  0  0  0
 19 25  1  0  0  0  0
 20 26  1  0  0  0  0
 21 23  2  0  0  0  0
 22 23  1  0  0  0  0
M  END
> <PUBCHEM_COMPOUND_ID_TYPE>
0

> <PUBCHEM_TOTAL_CHARGE>
0

> <PUBCHEM_SUBSTANCE_ID>
310931305

> <PUBCHEM_SUBSTANCE_VERSION>
1

> <PUBCHEM_EXT_DATASOURCE_NAME>
4488

> <PUBCHEM_EXT_DATASOURCE_REGID>
SCHEMBL16108623

> <PUBCHEM_SUBSTANCE_COMMENT>
InChI=1S/C19H21N5O3/c1-26-16-4-2-13(3-5-16)19(14-10-21-12-22-11-14)17(25)24(18(20)23-19)15-6-8-27-9-7-15/h2-5,10-12,15H,6-9H2,1H3,(H2,20,23)
InChIKey=REMUTMBAAOXRQS-UHFFFAOYSA-N

> <PUBCHEM_SUBSTANCE_SYNONYM>
SCHEMBL16108623

> <PUBCHEM_XREF_EXT_ID>
SCHEMBL16108623

> <PUBCHEM_EXT_DATASOURCE_URL>
https://www.surechembl.org/

> <PUBCHEM_EXT_SUBSTANCE_URL>
https://www.surechembl.org/chemical/SCHEMBL16108623

> <PUBCHEM_CID_ASSOCIATIONS>
117600121  1

> <PUBCHEM_COORDINATE_TYPE>
1
3

$$$$
