310949731
  -OEChem-07211613022D

 30 32  0     1  0  0  0  0  0999 V2000
    2.9059    1.8315    0.0000 S   0  0  0  0  0  0  0  0  0  0  0  0
    1.3097   -2.6297    0.0000 O   0  0  0  0  0  0  0  0  0  0  0  0
    2.1078    2.0976    0.0000 O   0  0  0  0  0  0  0  0  0  0  0  0
    3.7041    1.5655    0.0000 O   0  0  0  0  0  0  0  0  0  0  0  0
   -1.5757   -1.7497    0.0000 O   0  0  0  0  0  0  0  0  0  0  0  0
    2.6399    1.0540    0.0000 N   0  0  3  0  0  0  0  0  0  0  0  0
    3.3562   -1.1153    0.0000 N   0  0  0  0  0  0  0  0  0  0  0  0
    2.8036   -1.7088    0.0000 N   0  0  0  0  0  0  0  0  0  0  0  0
    0.5935   -1.3813    0.0000 N   0  0  0  0  0  0  0  0  0  0  0  0
    2.1078   -0.5423    0.0000 C   0  0  0  0  0  0  0  0  0  0  0  0
    2.9264   -0.3581    0.0000 C   0  0  0  0  0  0  0  0  0  0  0  0
    2.0260   -1.3609    0.0000 C   0  0  0  0  0  0  0  0  0  0  0  0
    3.1924    0.4604    0.0000 C   0  0  0  0  0  0  0  0  0  0  0  0
    1.3302   -1.7497    0.0000 C   0  0  0  0  0  0  0  0  0  0  0  0
    1.5757    0.0921    0.0000 C   0  0  0  0  0  0  0  0  0  0  0  0
    1.8623    0.8902    0.0000 C   0  0  0  0  0  0  0  0  0  0  0  0
   -2.2511   -0.4809    0.0000 C   0  0  0  0  0  0  0  0  0  0  0  0
   -2.2920   -1.2995    0.0000 C   0  0  0  0  0  0  0  0  0  0  0  0
   -1.5348   -0.0716    0.0000 C   0  0  0  0  0  0  0  0  0  0  0  0
   -0.1023   -1.7497    0.0000 C   0  0  0  0  0  0  0  0  0  0  0  0
    3.1924    2.6297    0.0000 C   0  0  0  0  0  0  0  0  0  0  0  0
   -2.9878   -0.0716    0.0000 C   0  0  0  0  0  0  0  0  0  0  0  0
   -0.8186   -1.3404    0.0000 C   0  0  0  0  0  0  0  0  0  0  0  0
   -2.9878   -1.7292    0.0000 C   0  0  0  0  0  0  0  0  0  0  0  0
    0.5935   -0.5219    0.0000 C   0  0  0  0  0  0  0  0  0  0  0  0
   -3.6836   -0.4809    0.0000 C   0  0  0  0  0  0  0  0  0  0  0  0
   -3.7041   -1.2995    0.0000 C   0  0  0  0  0  0  0  0  0  0  0  0
   -1.5553    0.7469    0.0000 C   0  0  0  0  0  0  0  0  0  0  0  0
   -0.8186    0.3377    0.0000 C   0  0  0  0  0  0  0  0  0  0  0  0
   -0.8390   -0.5219    0.0000 C   0  0  0  0  0  0  0  0  0  0  0  0
  1  3  2  0  0  0  0
  1  4  2  0  0  0  0
  1  6  1  0  0  0  0
  1 21  1  0  0  0  0
  2 14  2  0  0  0  0
  5 18  1  0  0  0  0
  5 23  1  0  0  0  0
  6 13  1  0  0  0  0
  6 16  1  0  0  0  0
  7  8  1  0  0  0  0
  7 11  1  0  0  0  0
  8 12  2  0  0  0  0
  9 14  1  0  0  0  0
  9 20  1  0  0  0  0
  9 25  1  0  0  0  0
 10 11  2  0  0  0  0
 10 12  1  0  0  0  0
 10 15  1  0  0  0  0
 11 13  1  0  0  0  0
 12 14  1  0  0  0  0
 15 16  1  0  0  0  0
 17 18  1  0  0  0  0
 17 19  1  0  0  0  0
 17 22  2  0  0  0  0
 18 24  2  0  0  0  0
 19 28  1  0  0  0  0
 19 29  1  0  0  0  0
 19 30  1  0  0  0  0
 20 23  1  0  0  0  0
 22 26  1  0  0  0  0
 24 27  1  0  0  0  0
 26 27  2  0  0  0  0
M  END
> <PUBCHEM_COMPOUND_ID_TYPE>
0

> <PUBCHEM_TOTAL_CHARGE>
0

> <PUBCHEM_SUBSTANCE_ID>
310949731

> <PUBCHEM_SUBSTANCE_VERSION>
1

> <PUBCHEM_EXT_DATASOURCE_NAME>
4488

> <PUBCHEM_EXT_DATASOURCE_REGID>
SCHEMBL16127929

> <PUBCHEM_SUBSTANCE_COMMENT>
InChI=1S/C21H30N4O4S/c1-21(2,3)16-8-6-7-9-18(16)29-13-12-24(4)20(26)19-15-10-11-25(30(5,27)28)14-17(15)22-23-19/h6-9H,10-14H2,1-5H3,(H,22,23)
InChIKey=JXPRHBNHWNNGOC-UHFFFAOYSA-N

> <PUBCHEM_SUBSTANCE_SYNONYM>
SCHEMBL16127929

> <PUBCHEM_XREF_EXT_ID>
SCHEMBL16127929

> <PUBCHEM_EXT_DATASOURCE_URL>
https://www.surechembl.org/

> <PUBCHEM_EXT_SUBSTANCE_URL>
https://www.surechembl.org/chemical/SCHEMBL16127929

> <PUBCHEM_CID_ASSOCIATIONS>
117615073  1

> <PUBCHEM_COORDINATE_TYPE>
1
3

$$$$
