310937264
  -OEChem-07211613022D

 17 16  0     1  0  0  0  0  0999 V2000
    2.8596   -3.3030    0.0000 O   0  0  0  0  0  0  0  0  0  0  0  0
    2.1281   -2.0616    0.0000 O   0  0  0  0  0  0  0  0  0  0  0  0
    4.2783    0.0000    0.0000 O   0  0  0  0  0  0  0  0  0  0  0  0
    4.9877   -1.2414    0.0000 O   0  0  0  0  0  0  0  0  0  0  0  0
    0.0000   -0.7980    0.0000 O   0  0  0  0  0  0  0  0  0  0  0  0
    3.5690   -2.0616    0.0000 N   0  0  0  0  0  0  0  0  0  0  0  0
    3.5690   -1.2414    0.0000 C   0  0  3  0  0  0  0  0  0  0  0  0
    2.8596   -2.4827    0.0000 C   0  0  0  0  0  0  0  0  0  0  0  0
    2.1503   -3.7241    0.0000 C   0  0  0  0  0  0  0  0  0  0  0  0
    4.2783   -0.8202    0.0000 C   0  0  0  0  0  0  0  0  0  0  0  0
    2.8374   -0.8202    0.0000 C   0  0  0  0  0  0  0  0  0  0  0  0
    1.4187   -4.1453    0.0000 C   0  0  0  0  0  0  0  0  0  0  0  0
    1.7291   -2.9926    0.0000 C   0  0  0  0  0  0  0  0  0  0  0  0
    2.5492   -4.4335    0.0000 C   0  0  0  0  0  0  0  0  0  0  0  0
    2.1281   -1.2414    0.0000 C   0  0  0  0  0  0  0  0  0  0  0  0
    1.4187   -0.8202    0.0000 C   0  0  0  0  0  0  0  0  0  0  0  0
    0.7094   -1.2414    0.0000 C   0  0  0  0  0  0  0  0  0  0  0  0
  1  8  1  0  0  0  0
  1  9  1  0  0  0  0
  2  8  2  0  0  0  0
  3 10  2  0  0  0  0
  4 10  1  0  0  0  0
  5 17  2  0  0  0  0
  6  7  1  0  0  0  0
  6  8  1  0  0  0  0
  7 10  1  0  0  0  0
  7 11  1  0  0  0  0
  9 12  1  0  0  0  0
  9 13  1  0  0  0  0
  9 14  1  0  0  0  0
 11 15  1  0  0  0  0
 15 16  1  0  0  0  0
 16 17  1  0  0  0  0
M  END
> <PUBCHEM_COMPOUND_ID_TYPE>
0

> <PUBCHEM_TOTAL_CHARGE>
0

> <PUBCHEM_SUBSTANCE_ID>
310937264

> <PUBCHEM_SUBSTANCE_VERSION>
1

> <PUBCHEM_EXT_DATASOURCE_NAME>
4488

> <PUBCHEM_EXT_DATASOURCE_REGID>
SCHEMBL16115005

> <PUBCHEM_SUBSTANCE_COMMENT>
InChI=1S/C11H19NO5/c1-11(2,3)17-10(16)12-8(9(14)15)6-4-5-7-13/h7-8H,4-6H2,1-3H3,(H,12,16)(H,14,15)
InChIKey=GIDPAWQWDOCDDT-UHFFFAOYSA-N

> <PUBCHEM_SUBSTANCE_SYNONYM>
SCHEMBL16115005

> <PUBCHEM_XREF_EXT_ID>
SCHEMBL16115005

> <PUBCHEM_EXT_DATASOURCE_URL>
https://www.surechembl.org/

> <PUBCHEM_EXT_SUBSTANCE_URL>
https://www.surechembl.org/chemical/SCHEMBL16115005

> <PUBCHEM_CID_ASSOCIATIONS>
21088363  1

> <PUBCHEM_COORDINATE_TYPE>
1
3

$$$$
