310937020
  -OEChem-07211613022D

 18 19  0     1  0  0  0  0  0999 V2000
    1.4296   -4.5383    0.0000 Br  0  0  0  0  0  0  0  0  0  0  0  0
    2.1330    0.0000    0.0000 O   0  0  0  0  0  0  0  0  0  0  0  0
    0.0000   -0.4312    0.0000 N   0  0  0  0  0  0  0  0  0  0  0  0
    1.4296   -1.2480    0.0000 C   0  0  3  0  0  0  0  0  0  0  0  0
    1.4296   -2.0649    0.0000 C   0  0  0  0  0  0  0  0  0  0  0  0
    2.1330   -0.8169    0.0000 C   0  0  3  0  0  0  0  0  0  0  0  0
    2.8591   -1.2480    0.0000 C   0  0  0  0  0  0  0  0  0  0  0  0
    2.1330   -2.4734    0.0000 C   0  0  0  0  0  0  0  0  0  0  0  0
    0.7261   -2.4734    0.0000 C   0  0  0  0  0  0  0  0  0  0  0  0
    0.7034   -0.8169    0.0000 C   0  0  0  0  0  0  0  0  0  0  0  0
    1.4296   -3.7214    0.0000 C   0  0  0  0  0  0  0  0  0  0  0  0
    2.1330   -3.2903    0.0000 C   0  0  0  0  0  0  0  0  0  0  0  0
    0.7261   -3.2903    0.0000 C   0  0  0  0  0  0  0  0  0  0  0  0
    3.5626   -0.8169    0.0000 C   0  0  0  0  0  0  0  0  0  0  0  0
    2.8591   -2.0649    0.0000 C   0  0  0  0  0  0  0  0  0  0  0  0
    4.2887   -1.2254    0.0000 C   0  0  0  0  0  0  0  0  0  0  0  0
    3.5626   -2.4734    0.0000 C   0  0  0  0  0  0  0  0  0  0  0  0
    4.2887   -2.0649    0.0000 C   0  0  0  0  0  0  0  0  0  0  0  0
  1 11  1  0  0  0  0
  2  6  1  0  0  0  0
  3 10  3  0  0  0  0
  4  5  1  0  0  0  0
  4  6  1  0  0  0  0
  4 10  1  0  0  0  0
  5  8  2  0  0  0  0
  5  9  1  0  0  0  0
  6  7  1  0  0  0  0
  7 14  2  0  0  0  0
  7 15  1  0  0  0  0
  8 12  1  0  0  0  0
  9 13  2  0  0  0  0
 11 12  2  0  0  0  0
 11 13  1  0  0  0  0
 14 16  1  0  0  0  0
 15 17  2  0  0  0  0
 16 18  2  0  0  0  0
 17 18  1  0  0  0  0
M  END
> <PUBCHEM_COMPOUND_ID_TYPE>
0

> <PUBCHEM_TOTAL_CHARGE>
0

> <PUBCHEM_SUBSTANCE_ID>
310937020

> <PUBCHEM_SUBSTANCE_VERSION>
1

> <PUBCHEM_EXT_DATASOURCE_NAME>
4488

> <PUBCHEM_EXT_DATASOURCE_REGID>
SCHEMBL16114729

> <PUBCHEM_SUBSTANCE_COMMENT>
InChI=1S/C15H12BrNO/c16-13-8-6-11(7-9-13)14(10-17)15(18)12-4-2-1-3-5-12/h1-9,14-15,18H
InChIKey=ZCJGRMSORKAJEO-UHFFFAOYSA-N

> <PUBCHEM_SUBSTANCE_SYNONYM>
SCHEMBL16114729

> <PUBCHEM_XREF_EXT_ID>
SCHEMBL16114729

> <PUBCHEM_EXT_DATASOURCE_URL>
https://www.surechembl.org/

> <PUBCHEM_EXT_SUBSTANCE_URL>
https://www.surechembl.org/chemical/SCHEMBL16114729

> <PUBCHEM_CID_ASSOCIATIONS>
117604874  1

> <PUBCHEM_COORDINATE_TYPE>
1
3

$$$$
