310946579
  -OEChem-07211613022D

 19 19  0     1  0  0  0  0  0999 V2000
   -9.9305  -12.2315    0.0000 O   0  0  0  0  0  0  0  0  0  0  0  0
   -8.5015  -12.2315    0.0000 O   0  0  0  0  0  0  0  0  0  0  0  0
  -10.6449  -13.4689    0.0000 O   0  0  0  0  0  0  0  0  0  0  0  0
   -7.0728  -12.2315    0.0000 O   0  0  0  0  0  0  0  0  0  0  0  0
   -7.7872  -13.4689    0.0000 O   0  0  0  0  0  0  0  0  0  0  0  0
  -12.0738  -12.6439    0.0000 N   0  0  0  0  0  0  0  0  0  0  0  0
  -11.3593  -12.2315    0.0000 C   0  0  3  0  0  0  0  0  0  0  0  0
  -10.6449  -12.6439    0.0000 C   0  0  0  0  0  0  0  0  0  0  0  0
   -9.2161  -12.6439    0.0000 C   0  0  3  0  0  0  0  0  0  0  0  0
  -11.3593  -11.4065    0.0000 C   0  0  0  0  0  0  0  0  0  0  0  0
   -7.7872  -12.6439    0.0000 C   0  0  0  0  0  0  0  0  0  0  0  0
  -12.7881  -12.2315    0.0000 C   0  0  0  0  0  0  0  0  0  0  0  0
  -12.7881  -11.4065    0.0000 C   0  0  0  0  0  0  0  0  0  0  0  0
   -9.2161  -13.4689    0.0000 C   0  0  0  0  0  0  0  0  0  0  0  0
   -6.3583  -12.6439    0.0000 C   0  0  0  0  0  0  0  0  0  0  0  0
   -5.6440  -12.2315    0.0000 C   0  0  0  0  0  0  0  0  0  0  0  0
   -4.9294  -12.6439    0.0000 C   0  0  0  0  0  0  0  0  0  0  0  0
   -4.2150  -12.2315    0.0000 C   0  0  0  0  0  0  0  0  0  0  0  0
   -3.5006  -12.6439    0.0000 C   0  0  0  0  0  0  0  0  0  0  0  0
  1  8  1  0  0  0  0
  1  9  1  0  0  0  0
  2  9  1  0  0  0  0
  2 11  1  0  0  0  0
  3  8  2  0  0  0  0
  4 11  1  0  0  0  0
  4 15  1  0  0  0  0
  5 11  2  0  0  0  0
  6  7  1  0  0  0  0
  6 12  1  0  0  0  0
  7  8  1  0  0  0  0
  7 10  1  0  0  0  0
  9 14  1  0  0  0  0
 10 13  1  0  0  0  0
 12 13  1  0  0  0  0
 15 16  1  0  0  0  0
 16 17  1  0  0  0  0
 17 18  1  0  0  0  0
 18 19  1  0  0  0  0
M  END
> <PUBCHEM_COMPOUND_ID_TYPE>
0

> <PUBCHEM_TOTAL_CHARGE>
0

> <PUBCHEM_SUBSTANCE_ID>
310946579

> <PUBCHEM_SUBSTANCE_VERSION>
1

> <PUBCHEM_EXT_DATASOURCE_NAME>
4488

> <PUBCHEM_EXT_DATASOURCE_REGID>
SCHEMBL16124700

> <PUBCHEM_SUBSTANCE_COMMENT>
InChI=1S/C13H23NO5/c1-3-4-5-9-17-13(16)19-10(2)18-12(15)11-7-6-8-14-11/h10-11,14H,3-9H2,1-2H3
InChIKey=XLGQNTOJNUKYHQ-UHFFFAOYSA-N

> <PUBCHEM_SUBSTANCE_SYNONYM>
SCHEMBL16124700

> <PUBCHEM_XREF_EXT_ID>
SCHEMBL16124700

> <PUBCHEM_EXT_DATASOURCE_URL>
https://www.surechembl.org/

> <PUBCHEM_EXT_SUBSTANCE_URL>
https://www.surechembl.org/chemical/SCHEMBL16124700

> <PUBCHEM_CID_ASSOCIATIONS>
117612479  1

> <PUBCHEM_COORDINATE_TYPE>
1
3

$$$$
