310931801
  -OEChem-07211613022D

 23 26  0     1  0  0  0  0  0999 V2000
    0.0000   -6.4717    0.0000 Cl  0  0  0  0  0  0  0  0  0  0  0  0
    0.9384   -2.7505    0.0000 O   0  0  0  0  0  0  0  0  0  0  0  0
    2.3622   -2.5240    0.0000 N   0  0  0  0  0  0  0  0  0  0  0  0
    2.7828   -3.7860    0.0000 N   0  0  0  0  0  0  0  0  0  0  0  0
    3.8183   -2.7505    0.0000 N   0  0  0  0  0  0  0  0  0  0  0  0
    1.9739   -3.7860    0.0000 C   0  0  3  0  0  0  0  0  0  0  0  0
    1.7150   -3.0094    0.0000 C   0  0  0  0  0  0  0  0  0  0  0  0
    2.3298   -4.5302    0.0000 C   0  0  0  0  0  0  0  0  0  0  0  0
    1.4561   -4.4655    0.0000 C   0  0  0  0  0  0  0  0  0  0  0  0
    3.0417   -3.0094    0.0000 C   0  0  0  0  0  0  0  0  0  0  0  0
    3.0094   -4.9832    0.0000 C   0  0  0  0  0  0  0  0  0  0  0  0
    2.2974   -5.3715    0.0000 C   0  0  0  0  0  0  0  0  0  0  0  0
    2.3622   -1.6827    0.0000 C   0  0  0  0  0  0  0  0  0  0  0  0
    1.8121   -5.2097    0.0000 C   0  0  0  0  0  0  0  0  0  0  0  0
    0.6471   -4.3684    0.0000 C   0  0  0  0  0  0  0  0  0  0  0  0
    1.6503   -1.2620    0.0000 C   0  0  0  0  0  0  0  0  0  0  0  0
    3.0741   -1.2620    0.0000 C   0  0  0  0  0  0  0  0  0  0  0  0
    1.3267   -5.8893    0.0000 C   0  0  0  0  0  0  0  0  0  0  0  0
    0.1618   -5.0480    0.0000 C   0  0  0  0  0  0  0  0  0  0  0  0
    0.4854   -5.7922    0.0000 C   0  0  0  0  0  0  0  0  0  0  0  0
    1.6503   -0.4530    0.0000 C   0  0  0  0  0  0  0  0  0  0  0  0
    3.0741   -0.4530    0.0000 C   0  0  0  0  0  0  0  0  0  0  0  0
    2.3622    0.0000    0.0000 C   0  0  0  0  0  0  0  0  0  0  0  0
  1 20  1  0  0  0  0
  2  7  2  0  0  0  0
  3  7  1  0  0  0  0
  3 10  1  0  0  0  0
  3 13  1  0  0  0  0
  4  6  1  0  0  0  0
  4 10  1  0  0  0  0
  5 10  2  3  0  0  0
  6  7  1  0  0  0  0
  6  8  1  0  0  0  0
  6  9  1  0  0  0  0
  8 11  1  0  0  0  0
  8 12  1  0  0  0  0
  9 14  2  0  0  0  0
  9 15  1  0  0  0  0
 11 12  1  0  0  0  0
 13 16  1  0  0  0  0
 13 17  1  0  0  0  0
 14 18  1  0  0  0  0
 15 19  2  0  0  0  0
 16 21  1  0  0  0  0
 17 22  1  0  0  0  0
 18 20  2  0  0  0  0
 19 20  1  0  0  0  0
 21 23  1  0  0  0  0
 22 23  1  0  0  0  0
M  END
> <PUBCHEM_COMPOUND_ID_TYPE>
0

> <PUBCHEM_TOTAL_CHARGE>
0

> <PUBCHEM_SUBSTANCE_ID>
310931801

> <PUBCHEM_SUBSTANCE_VERSION>
1

> <PUBCHEM_EXT_DATASOURCE_NAME>
4488

> <PUBCHEM_EXT_DATASOURCE_REGID>
SCHEMBL16109133

> <PUBCHEM_SUBSTANCE_COMMENT>
InChI=1S/C18H22ClN3O/c19-14-10-8-13(9-11-14)18(12-6-7-12)16(23)22(17(20)21-18)15-4-2-1-3-5-15/h8-12,15H,1-7H2,(H2,20,21)
InChIKey=YJDFCBQFGPXHPE-UHFFFAOYSA-N

> <PUBCHEM_SUBSTANCE_SYNONYM>
SCHEMBL16109133

> <PUBCHEM_XREF_EXT_ID>
SCHEMBL16109133

> <PUBCHEM_EXT_DATASOURCE_URL>
https://www.surechembl.org/

> <PUBCHEM_EXT_SUBSTANCE_URL>
https://www.surechembl.org/chemical/SCHEMBL16109133

> <PUBCHEM_CID_ASSOCIATIONS>
117600479  1

> <PUBCHEM_COORDINATE_TYPE>
1
3

$$$$
