310947678
  -OEChem-07211613022D

 22 23  0     1  0  0  0  0  0999 V2000
   -0.0693   12.2638    0.0000 F   0  0  0  0  0  0  0  0  0  0  0  0
   -1.0797   13.2743    0.0000 F   0  0  0  0  0  0  0  0  0  0  0  0
   -0.2828   13.0607    0.0000 F   0  0  0  0  0  0  0  0  0  0  0  0
   -2.4600   12.9044    0.0000 F   0  0  0  0  0  0  0  0  0  0  0  0
   -2.0908    9.0494    0.0000 N   0  0  0  0  0  0  0  0  0  0  0  0
   -1.6059    8.3820    0.0000 N   0  0  0  0  0  0  0  0  0  0  0  0
    0.6077    9.4619    0.0000 N   0  0  3  0  0  0  0  0  0  0  0  0
   -1.4495   11.8940    0.0000 C   0  0  0  0  0  0  0  0  0  0  0  0
   -1.8194   10.5138    0.0000 C   0  0  0  0  0  0  0  0  0  0  0  0
   -1.6059    9.7169    0.0000 C   0  0  0  0  0  0  0  0  0  0  0  0
   -0.8662   12.4774    0.0000 C   0  0  0  0  0  0  0  0  0  0  0  0
   -1.2360   11.0971    0.0000 C   0  0  0  0  0  0  0  0  0  0  0  0
   -2.2464   12.1075    0.0000 C   0  0  0  0  0  0  0  0  0  0  0  0
   -0.8212    9.4619    0.0000 C   0  0  0  0  0  0  0  0  0  0  0  0
   -2.6163   10.7273    0.0000 C   0  0  0  0  0  0  0  0  0  0  0  0
   -2.8298   11.5242    0.0000 C   0  0  0  0  0  0  0  0  0  0  0  0
   -0.8212    8.6369    0.0000 C   0  0  0  0  0  0  0  0  0  0  0  0
   -0.1068    9.8744    0.0000 C   0  0  0  0  0  0  0  0  0  0  0  0
    1.3222    9.8744    0.0000 C   0  0  0  0  0  0  0  0  0  0  0  0
    0.6077    8.6369    0.0000 C   0  0  0  0  0  0  0  0  0  0  0  0
    2.0366    9.4619    0.0000 C   0  0  0  0  0  0  0  0  0  0  0  0
    2.7511    9.8744    0.0000 C   0  0  0  0  0  0  0  0  0  0  0  0
  1 11  1  0  0  0  0
  2 11  1  0  0  0  0
  3 11  1  0  0  0  0
  4 13  1  0  0  0  0
  5  6  1  0  0  0  0
  5 10  2  0  0  0  0
  6 17  1  0  0  0  0
  7 18  1  0  0  0  0
  7 19  1  0  0  0  0
  7 20  1  0  0  0  0
  8 11  1  0  0  0  0
  8 12  2  0  0  0  0
  8 13  1  0  0  0  0
  9 10  1  0  0  0  0
  9 12  1  0  0  0  0
  9 15  2  0  0  0  0
 10 14  1  0  0  0  0
 13 16  2  0  0  0  0
 14 17  2  0  0  0  0
 14 18  1  0  0  0  0
 15 16  1  0  0  0  0
 19 21  1  0  0  0  0
 21 22  1  0  0  0  0
M  END
> <PUBCHEM_COMPOUND_ID_TYPE>
0

> <PUBCHEM_TOTAL_CHARGE>
0

> <PUBCHEM_SUBSTANCE_ID>
310947678

> <PUBCHEM_SUBSTANCE_VERSION>
1

> <PUBCHEM_EXT_DATASOURCE_NAME>
4488

> <PUBCHEM_EXT_DATASOURCE_REGID>
SCHEMBL16125846

> <PUBCHEM_SUBSTANCE_COMMENT>
InChI=1S/C15H17F4N3/c1-3-6-22(2)9-11-8-20-21-14(11)10-4-5-13(16)12(7-10)15(17,18)19/h4-5,7-8H,3,6,9H2,1-2H3,(H,20,21)
InChIKey=NOJWHLXICZNBQC-UHFFFAOYSA-N

> <PUBCHEM_SUBSTANCE_SYNONYM>
SCHEMBL16125846

> <PUBCHEM_XREF_EXT_ID>
SCHEMBL16125846

> <PUBCHEM_EXT_DATASOURCE_URL>
https://www.surechembl.org/

> <PUBCHEM_EXT_SUBSTANCE_URL>
https://www.surechembl.org/chemical/SCHEMBL16125846

> <PUBCHEM_CID_ASSOCIATIONS>
117613393  1

> <PUBCHEM_COORDINATE_TYPE>
1
3

$$$$
