310931131
  -OEChem-07211613022D

 51 55  0     1  0  0  0  0  0999 V2000
    3.5724   -5.3625    0.0000 Cl  0  0  0  0  0  0  0  0  0  0  0  0
    7.8592   -2.0625    0.0000 S   0  0  0  0  0  0  0  0  0  0  0  0
    9.2881   -2.8875    0.0000 F   0  0  0  0  0  0  0  0  0  0  0  0
    6.4302   -5.3625    0.0000 F   0  0  0  0  0  0  0  0  0  0  0  0
    8.6842   -2.0625    0.0000 O   0  0  0  0  0  0  0  0  0  0  0  0
    7.0342   -2.0625    0.0000 O   0  0  0  0  0  0  0  0  0  0  0  0
   10.0026    0.0000    0.0000 O   0  0  0  0  0  0  0  0  0  0  0  0
    9.2881   -7.8375    0.0000 O   0  0  0  0  0  0  0  0  0  0  0  0
    8.5737    2.4750    0.0000 O   0  0  0  0  0  0  0  0  0  0  0  0
    8.5737   -9.0750    0.0000 O   0  0  0  0  0  0  0  0  0  0  0  0
    7.8592   -1.2375    0.0000 N   0  0  3  0  0  0  0  0  0  0  0  0
    7.1447    0.0000    0.0000 N   0  0  0  0  0  0  0  0  0  0  0  0
    7.8592   -7.8375    0.0000 N   0  0  0  0  0  0  0  0  0  0  0  0
    5.7158    0.0000    0.0000 N   0  0  0  0  0  0  0  0  0  0  0  0
    7.8592   -2.8875    0.0000 C   0  0  0  0  0  0  0  0  0  0  0  0
    8.5737   -3.3000    0.0000 C   0  0  0  0  0  0  0  0  0  0  0  0
    7.1447   -0.8250    0.0000 C   0  0  0  0  0  0  0  0  0  0  0  0
    8.5737   -0.8250    0.0000 C   0  0  0  0  0  0  0  0  0  0  0  0
    7.1447   -3.3000    0.0000 C   0  0  0  0  0  0  0  0  0  0  0  0
    7.8592   -4.5375    0.0000 C   0  0  0  0  0  0  0  0  0  0  0  0
    8.5737    0.0000    0.0000 C   0  0  0  0  0  0  0  0  0  0  0  0
    8.5737   -4.1250    0.0000 C   0  0  0  0  0  0  0  0  0  0  0  0
    7.1447   -6.6000    0.0000 C   0  0  3  0  0  0  0  0  0  0  0  0
    6.4302   -7.0125    0.0000 C   0  0  3  0  0  0  0  0  0  0  0  0
    7.1447   -4.1250    0.0000 C   0  0  0  0  0  0  0  0  0  0  0  0
    7.1447   -5.7750    0.0000 C   0  0  3  0  0  0  0  0  0  0  0  0
    7.8592   -5.3625    0.0000 C   0  0  0  0  0  0  0  0  0  0  0  0
    9.2881    0.4125    0.0000 C   0  0  0  0  0  0  0  0  0  0  0  0
    6.4302   -1.2375    0.0000 C   0  0  0  0  0  0  0  0  0  0  0  0
    5.7158   -6.6000    0.0000 C   0  0  0  0  0  0  0  0  0  0  0  0
    7.8592   -7.0125    0.0000 C   0  0  0  0  0  0  0  0  0  0  0  0
    6.4302   -7.8375    0.0000 C   0  0  0  0  0  0  0  0  0  0  0  0
    7.8592    0.4125    0.0000 C   0  0  0  0  0  0  0  0  0  0  0  0
    7.1447   -8.2500    0.0000 C   0  0  0  0  0  0  0  0  0  0  0  0
    9.2881    1.2375    0.0000 C   0  0  0  0  0  0  0  0  0  0  0  0
    8.5737   -8.2500    0.0000 C   0  0  0  0  0  0  0  0  0  0  0  0
    8.5737    1.6500    0.0000 C   0  0  0  0  0  0  0  0  0  0  0  0
    6.4302    0.4125    0.0000 C   0  0  0  0  0  0  0  0  0  0  0  0
    5.7158   -0.8250    0.0000 C   0  0  0  0  0  0  0  0  0  0  0  0
    7.8592    1.2375    0.0000 C   0  0  0  0  0  0  0  0  0  0  0  0
    5.0013   -7.0125    0.0000 C   0  0  0  0  0  0  0  0  0  0  0  0
    5.7158   -5.7750    0.0000 C   0  0  0  0  0  0  0  0  0  0  0  0
    4.2868   -6.6000    0.0000 C   0  0  0  0  0  0  0  0  0  0  0  0
    5.0013   -5.3625    0.0000 C   0  0  0  0  0  0  0  0  0  0  0  0
    4.2868   -5.7750    0.0000 C   0  0  0  0  0  0  0  0  0  0  0  0
   10.0026   -8.2500    0.0000 C   0  0  0  0  0  0  0  0  0  0  0  0
   10.0026   -0.8250    0.0000 C   0  0  0  0  0  0  0  0  0  0  0  0
    9.5901   -8.9645    0.0000 C   0  0  0  0  0  0  0  0  0  0  0  0
   10.4151   -7.5355    0.0000 C   0  0  0  0  0  0  0  0  0  0  0  0
   10.7171   -8.6625    0.0000 C   0  0  0  0  0  0  0  0  0  0  0  0
    7.8592    2.8875    0.0000 C   0  0  0  0  0  0  0  0  0  0  0  0
  1 45  1  0  0  0  0
  2  5  2  0  0  0  0
  2  6  2  0  0  0  0
  2 11  1  0  0  0  0
  2 15  1  0  0  0  0
  3 16  1  0  0  0  0
  4 26  1  0  0  0  0
  7 28  1  0  0  0  0
  7 47  1  0  0  0  0
  8 36  1  0  0  0  0
  8 46  1  0  0  0  0
  9 37  1  0  0  0  0
  9 51  1  0  0  0  0
 10 36  2  0  0  0  0
 11 17  1  0  0  0  0
 11 18  1  0  0  0  0
 12 17  1  0  0  0  0
 12 38  2  0  0  0  0
 13 31  1  0  0  0  0
 13 34  1  0  0  0  0
 13 36  1  0  0  0  0
 14 38  1  0  0  0  0
 14 39  2  0  0  0  0
 15 16  1  0  0  0  0
 15 19  2  0  0  0  0
 16 22  2  0  0  0  0
 17 29  2  0  0  0  0
 18 21  1  0  0  0  0
 19 25  1  0  0  0  0
 20 22  1  0  0  0  0
 20 25  2  0  0  0  0
 20 27  1  0  0  0  0
 21 28  2  0  0  0  0
 21 33  1  0  0  0  0
 23 24  1  0  0  0  0
 23 26  1  0  0  0  0
 23 31  1  0  0  0  0
 24 30  1  0  0  0  0
 24 32  1  0  0  0  0
 26 27  1  0  0  0  0
 28 35  1  0  0  0  0
 29 39  1  0  0  0  0
 30 41  2  0  0  0  0
 30 42  1  0  0  0  0
 32 34  1  0  0  0  0
 33 40  2  0  0  0  0
 35 37  2  0  0  0  0
 37 40  1  0  0  0  0
 41 43  1  0  0  0  0
 42 44  2  0  0  0  0
 43 45  2  0  0  0  0
 44 45  1  0  0  0  0
 46 48  1  0  0  0  0
 46 49  1  0  0  0  0
 46 50  1  0  0  0  0
M  END
> <PUBCHEM_COMPOUND_ID_TYPE>
0

> <PUBCHEM_TOTAL_CHARGE>
0

> <PUBCHEM_SUBSTANCE_ID>
310931131

> <PUBCHEM_SUBSTANCE_VERSION>
1

> <PUBCHEM_EXT_DATASOURCE_NAME>
4488

> <PUBCHEM_EXT_DATASOURCE_REGID>
SCHEMBL16108435

> <PUBCHEM_SUBSTANCE_COMMENT>
InChI=1S/C37H41ClF2N4O6S/c1-37(2,3)50-36(45)43-17-15-29(25-7-10-27(38)11-8-25)30(22-43)31(39)18-24-6-13-34(32(40)19-24)51(46,47)44(35-14-16-41-23-42-35)21-26-9-12-28(48-4)20-33(26)49-5/h6-14,16,19-20,23,29-31H,15,17-18,21-22H2,1-5H3
InChIKey=TXELQPOCMZVMKH-UHFFFAOYSA-N

> <PUBCHEM_SUBSTANCE_SYNONYM>
SCHEMBL16108435

> <PUBCHEM_XREF_EXT_ID>
SCHEMBL16108435

> <PUBCHEM_EXT_DATASOURCE_URL>
https://www.surechembl.org/

> <PUBCHEM_EXT_SUBSTANCE_URL>
https://www.surechembl.org/chemical/SCHEMBL16108435

> <PUBCHEM_CID_ASSOCIATIONS>
117600014  1

> <PUBCHEM_COORDINATE_TYPE>
1
3

$$$$
