310932251
  -OEChem-07211613022D

 23 25  0     1  0  0  0  0  0999 V2000
    3.5609   -1.6372    0.0000 O   0  0  0  0  0  0  0  0  0  0  0  0
    4.7070   -3.6018    0.0000 O   0  0  0  0  0  0  0  0  0  0  0  0
    5.4233   -2.3739    0.0000 O   0  0  0  0  0  0  0  0  0  0  0  0
    0.7981    0.0000    0.0000 O   0  0  0  0  0  0  0  0  0  0  0  0
    3.1516   -2.3739    0.0000 C   0  0  3  0  0  0  0  0  0  0  0  0
    3.9907   -2.3739    0.0000 C   0  0  3  0  0  0  0  0  0  0  0  0
    2.5582   -1.7805    0.0000 C   0  0  0  0  0  0  0  0  0  0  0  0
    2.4353   -2.7832    0.0000 C   0  0  0  0  0  0  0  0  0  0  0  0
    4.7070   -2.7832    0.0000 C   0  0  0  0  0  0  0  0  0  0  0  0
    1.7600   -1.9851    0.0000 C   0  0  0  0  0  0  0  0  0  0  0  0
    2.7628   -0.9823    0.0000 C   0  0  0  0  0  0  0  0  0  0  0  0
    2.4149   -3.6223    0.0000 C   0  0  0  0  0  0  0  0  0  0  0  0
    1.7191   -2.3739    0.0000 C   0  0  0  0  0  0  0  0  0  0  0  0
    1.1665   -1.4121    0.0000 C   0  0  0  0  0  0  0  0  0  0  0  0
    2.1898   -0.3888    0.0000 C   0  0  0  0  0  0  0  0  0  0  0  0
    1.3916   -0.6140    0.0000 C   0  0  0  0  0  0  0  0  0  0  0  0
    1.7191   -4.0316    0.0000 C   0  0  0  0  0  0  0  0  0  0  0  0
    1.0028   -2.7832    0.0000 C   0  0  0  0  0  0  0  0  0  0  0  0
    0.9823   -3.6018    0.0000 C   0  0  0  0  0  0  0  0  0  0  0  0
    5.4233   -4.0316    0.0000 C   0  0  0  0  0  0  0  0  0  0  0  0
    6.1395   -3.6018    0.0000 C   0  0  0  0  0  0  0  0  0  0  0  0
    0.0000   -0.2251    0.0000 C   0  0  0  0  0  0  0  0  0  0  0  0
    6.1395   -2.7832    0.0000 C   0  0  0  0  0  0  0  0  0  0  0  0
  1  5  1  0  0  0  0
  1  6  1  0  0  0  0
  2  9  1  0  0  0  0
  2 20  1  0  0  0  0
  3  9  2  0  0  0  0
  4 16  1  0  0  0  0
  4 22  1  0  0  0  0
  5  6  1  0  0  0  0
  5  7  1  0  0  0  0
  5  8  1  0  0  0  0
  6  9  1  0  0  0  0
  7 10  2  0  0  0  0
  7 11  1  0  0  0  0
  8 12  2  0  0  0  0
  8 13  1  0  0  0  0
 10 14  1  0  0  0  0
 11 15  2  0  0  0  0
 12 17  1  0  0  0  0
 13 18  2  0  0  0  0
 14 16  2  0  0  0  0
 15 16  1  0  0  0  0
 17 19  2  0  0  0  0
 18 19  1  0  0  0  0
 20 21  1  0  0  0  0
 21 23  1  0  0  0  0
M  END
> <PUBCHEM_COMPOUND_ID_TYPE>
0

> <PUBCHEM_TOTAL_CHARGE>
0

> <PUBCHEM_SUBSTANCE_ID>
310932251

> <PUBCHEM_SUBSTANCE_VERSION>
1

> <PUBCHEM_EXT_DATASOURCE_NAME>
4488

> <PUBCHEM_EXT_DATASOURCE_REGID>
SCHEMBL16109609

> <PUBCHEM_SUBSTANCE_COMMENT>
InChI=1S/C19H20O4/c1-3-13-22-18(20)17-19(23-17,14-7-5-4-6-8-14)15-9-11-16(21-2)12-10-15/h4-12,17H,3,13H2,1-2H3
InChIKey=VEECWFBMPVFOTQ-UHFFFAOYSA-N

> <PUBCHEM_SUBSTANCE_SYNONYM>
SCHEMBL16109609

> <PUBCHEM_XREF_EXT_ID>
SCHEMBL16109609

> <PUBCHEM_EXT_DATASOURCE_URL>
https://www.surechembl.org/

> <PUBCHEM_EXT_SUBSTANCE_URL>
https://www.surechembl.org/chemical/SCHEMBL16109609

> <PUBCHEM_CID_ASSOCIATIONS>
117600824  1

> <PUBCHEM_COORDINATE_TYPE>
1
3

$$$$
