310941745
  -OEChem-07211613022D

 41 45  0     1  0  0  0  0  0999 V2000
    5.0355   -2.0416    0.0000 F   0  0  0  0  0  0  0  0  0  0  0  0
    4.8300   -2.6719    0.0000 F   0  0  0  0  0  0  0  0  0  0  0  0
    4.1723   -2.8089    0.0000 F   0  0  0  0  0  0  0  0  0  0  0  0
   -4.5148   -3.8777    0.0000 F   0  0  0  0  0  0  0  0  0  0  0  0
   -5.0355   -1.3291    0.0000 F   0  0  0  0  0  0  0  0  0  0  0  0
    1.3085    3.8777    0.0000 O   0  0  0  0  0  0  0  0  0  0  0  0
    3.8160   -1.5621    0.0000 O   0  0  0  0  0  0  0  0  0  0  0  0
    1.5004    0.1781    0.0000 O   0  0  0  0  0  0  0  0  0  0  0  0
    0.3494   -2.8638    0.0000 O   0  0  0  0  0  0  0  0  0  0  0  0
    1.8566    1.7265    0.0000 N   0  0  0  0  0  0  0  0  0  0  0  0
    2.7062   -0.3014    0.0000 N   0  0  0  0  0  0  0  0  0  0  0  0
    0.0068   -1.6031    0.0000 N   0  0  0  0  0  0  0  0  0  0  0  0
   -1.8841   -2.7267    0.0000 N   0  0  0  0  0  0  0  0  0  0  0  0
    2.4458   -1.0961    0.0000 C   0  0  0  0  0  0  0  0  0  0  0  0
    3.0076   -1.6990    0.0000 C   0  0  0  0  0  0  0  0  0  0  0  0
    2.4184    1.1373    0.0000 C   0  0  3  0  0  0  0  0  0  0  0  0
    1.3907   -2.0416    0.0000 C   0  0  0  0  0  0  0  0  0  0  0  0
    2.1718    0.3426    0.0000 C   0  0  0  0  0  0  0  0  0  0  0  0
    0.5961    2.4116    0.0000 C   0  0  3  0  0  0  0  0  0  0  0  0
    1.2537    3.0282    0.0000 C   0  0  3  0  0  0  0  0  0  0  0  0
    1.6511   -1.2606    0.0000 C   0  0  0  0  0  0  0  0  0  0  0  0
    1.1441    1.8361    0.0000 C   0  0  0  0  0  0  0  0  0  0  0  0
    1.8566    2.4663    0.0000 C   0  0  0  0  0  0  0  0  0  0  0  0
    0.5686   -2.2060    0.0000 C   0  0  0  0  0  0  0  0  0  0  0  0
    2.7473   -2.4938    0.0000 C   0  0  0  0  0  0  0  0  0  0  0  0
    1.9251   -2.6582    0.0000 C   0  0  0  0  0  0  0  0  0  0  0  0
   -0.2124    2.2882    0.0000 C   0  0  0  0  0  0  0  0  0  0  0  0
    0.3083    2.9460    0.0000 C   0  0  0  0  0  0  0  0  0  0  0  0
   -2.4458   -2.0827    0.0000 C   0  0  0  0  0  0  0  0  0  0  0  0
    4.3915   -2.1649    0.0000 C   0  0  0  0  0  0  0  0  0  0  0  0
   -0.8016   -1.7539    0.0000 C   0  0  0  0  0  0  0  0  0  0  0  0
   -3.2543   -2.2609    0.0000 C   0  0  0  0  0  0  0  0  0  0  0  0
   -2.1580   -1.3017    0.0000 C   0  0  0  0  0  0  0  0  0  0  0  0
   -1.0619   -2.5486    0.0000 C   0  0  0  0  0  0  0  0  0  0  0  0
   -1.3634   -1.1236    0.0000 C   0  0  0  0  0  0  0  0  0  0  0  0
    3.0761    1.2469    0.0000 C   0  0  0  0  0  0  0  0  0  0  0  0
   -3.8023   -1.6580    0.0000 C   0  0  0  0  0  0  0  0  0  0  0  0
   -3.5146   -3.0555    0.0000 C   0  0  0  0  0  0  0  0  0  0  0  0
   -4.3230   -3.2200    0.0000 C   0  0  0  0  0  0  0  0  0  0  0  0
   -4.6245   -1.8224    0.0000 C   0  0  0  0  0  0  0  0  0  0  0  0
   -4.8437   -2.6308    0.0000 C   0  0  0  0  0  0  0  0  0  0  0  0
  1 30  1  0  0  0  0
  2 30  1  0  0  0  0
  3 30  1  0  0  0  0
  4 39  1  0  0  0  0
  5 40  1  0  0  0  0
  6 19  1  0  0  0  0
  6 20  1  0  0  0  0
  7 15  1  0  0  0  0
  7 30  1  0  0  0  0
  8 18  2  0  0  0  0
  9 24  2  0  0  0  0
 10 16  1  0  0  0  0
 10 22  1  0  0  0  0
 10 23  1  0  0  0  0
 11 14  1  0  0  0  0
 11 18  1  0  0  0  0
 12 24  1  0  0  0  0
 12 31  1  0  0  0  0
 13 29  2  0  0  0  0
 13 34  1  0  0  0  0
 14 15  1  0  0  0  0
 14 21  2  0  0  0  0
 15 25  2  0  0  0  0
 16 18  1  0  0  0  0
 16 36  1  0  0  0  0
 17 21  1  0  0  0  0
 17 24  1  0  0  0  0
 17 26  2  0  0  0  0
 19 22  1  0  0  0  0
 19 27  1  0  0  0  0
 20 23  1  0  0  0  0
 20 28  1  0  0  0  0
 25 26  1  0  0  0  0
 27 28  1  0  0  0  0
 29 32  1  0  0  0  0
 29 33  1  0  0  0  0
 31 34  2  0  0  0  0
 31 35  1  0  0  0  0
 32 37  2  0  0  0  0
 32 38  1  0  0  0  0
 33 35  2  0  0  0  0
 37 40  1  0  0  0  0
 38 39  2  0  0  0  0
 39 41  1  0  0  0  0
 40 41  2  0  0  0  0
M  END
> <PUBCHEM_COMPOUND_ID_TYPE>
0

> <PUBCHEM_TOTAL_CHARGE>
0

> <PUBCHEM_SUBSTANCE_ID>
310941745

> <PUBCHEM_SUBSTANCE_VERSION>
1

> <PUBCHEM_EXT_DATASOURCE_NAME>
4488

> <PUBCHEM_EXT_DATASOURCE_REGID>
SCHEMBL16119776

> <PUBCHEM_SUBSTANCE_COMMENT>
InChI=1S/C28H25F5N4O4/c1-15(37-13-21-4-5-22(14-37)40-21)26(38)36-24-10-16(2-7-25(24)41-28(31,32)33)27(39)35-20-3-6-23(34-12-20)17-8-18(29)11-19(30)9-17/h2-3,6-12,15,21-22H,4-5,13-14H2,1H3,(H,35,39)(H,36,38)
InChIKey=CPGFVPCOIQDIEE-UHFFFAOYSA-N

> <PUBCHEM_SUBSTANCE_SYNONYM>
SCHEMBL16119776

> <PUBCHEM_XREF_EXT_ID>
SCHEMBL16119776

> <PUBCHEM_EXT_DATASOURCE_URL>
https://www.surechembl.org/

> <PUBCHEM_EXT_SUBSTANCE_URL>
https://www.surechembl.org/chemical/SCHEMBL16119776

> <PUBCHEM_CID_ASSOCIATIONS>
117608509  1

> <PUBCHEM_COORDINATE_TYPE>
1
3

$$$$
