310939567
  -OEChem-07211613022D

 30 32  0     1  0  0  0  0  0999 V2000
   -2.1434    0.8410    0.0000 O   0  0  0  0  0  0  0  0  0  0  0  0
   -3.5724    0.0160    0.0000 O   0  0  0  0  0  0  0  0  0  0  0  0
    0.7145    0.0160    0.0000 N   0  0  0  0  0  0  0  0  0  0  0  0
    1.4289    1.2535    0.0000 N   0  0  0  0  0  0  0  0  0  0  0  0
    2.8579    1.2535    0.0000 N   0  0  0  0  0  0  0  0  0  0  0  0
   -5.0013    0.8410    0.0000 N   0  0  0  0  0  0  0  0  0  0  0  0
    5.7158    0.4285    0.0000 N   0  0  0  0  0  0  0  0  0  0  0  0
    0.7145    0.8410    0.0000 C   0  0  0  0  0  0  0  0  0  0  0  0
    1.4289   -0.3965    0.0000 C   0  0  0  0  0  0  0  0  0  0  0  0
    2.1434    0.8410    0.0000 C   0  0  0  0  0  0  0  0  0  0  0  0
    0.0000    1.2535    0.0000 C   0  0  0  0  0  0  0  0  0  0  0  0
    2.1434    0.0160    0.0000 C   0  0  0  0  0  0  0  0  0  0  0  0
    1.4289   -1.2215    0.0000 C   0  0  0  0  0  0  0  0  0  0  0  0
   -0.7145    0.8410    0.0000 C   0  0  0  0  0  0  0  0  0  0  0  0
    0.0000    2.0785    0.0000 C   0  0  0  0  0  0  0  0  0  0  0  0
   -1.4289    1.2535    0.0000 C   0  0  0  0  0  0  0  0  0  0  0  0
    0.7615   -1.7064    0.0000 C   0  0  0  0  0  0  0  0  0  0  0  0
    2.0964   -1.7064    0.0000 C   0  0  0  0  0  0  0  0  0  0  0  0
   -0.7145    2.4910    0.0000 C   0  0  0  0  0  0  0  0  0  0  0  0
   -1.4289    2.0785    0.0000 C   0  0  0  0  0  0  0  0  0  0  0  0
    3.5724    0.8410    0.0000 C   0  0  0  0  0  0  0  0  0  0  0  0
    1.0164   -2.4910    0.0000 C   0  0  0  0  0  0  0  0  0  0  0  0
    1.8414   -2.4910    0.0000 C   0  0  0  0  0  0  0  0  0  0  0  0
    2.8579    2.0785    0.0000 C   0  0  0  0  0  0  0  0  0  0  0  0
   -2.8579    1.2535    0.0000 C   0  0  0  0  0  0  0  0  0  0  0  0
    4.2868    1.2535    0.0000 C   0  0  0  0  0  0  0  0  0  0  0  0
   -3.5724    0.8410    0.0000 C   0  0  3  0  0  0  0  0  0  0  0  0
    5.0013    0.8410    0.0000 C   0  0  0  0  0  0  0  0  0  0  0  0
   -4.2868    1.2535    0.0000 C   0  0  0  0  0  0  0  0  0  0  0  0
   -5.7158    1.2535    0.0000 C   0  0  0  0  0  0  0  0  0  0  0  0
  1 16  1  0  0  0  0
  1 25  1  0  0  0  0
  2 27  1  0  0  0  0
  3  8  2  0  0  0  0
  3  9  1  0  0  0  0
  4  8  1  0  0  0  0
  4 10  2  0  0  0  0
  5 10  1  0  0  0  0
  5 21  1  0  0  0  0
  5 24  1  0  0  0  0
  6 29  1  0  0  0  0
  6 30  1  0  0  0  0
  7 28  3  0  0  0  0
  8 11  1  0  0  0  0
  9 12  2  0  0  0  0
  9 13  1  0  0  0  0
 10 12  1  0  0  0  0
 11 14  2  0  0  0  0
 11 15  1  0  0  0  0
 13 17  2  0  0  0  0
 13 18  1  0  0  0  0
 14 16  1  0  0  0  0
 15 19  2  0  0  0  0
 16 20  2  0  0  0  0
 17 22  1  0  0  0  0
 18 23  1  0  0  0  0
 19 20  1  0  0  0  0
 21 26  1  0  0  0  0
 22 23  1  0  0  0  0
 25 27  1  0  0  0  0
 26 28  1  0  0  0  0
 27 29  1  0  0  0  0
M  END
> <PUBCHEM_COMPOUND_ID_TYPE>
0

> <PUBCHEM_TOTAL_CHARGE>
0

> <PUBCHEM_SUBSTANCE_ID>
310939567

> <PUBCHEM_SUBSTANCE_VERSION>
1

> <PUBCHEM_EXT_DATASOURCE_NAME>
4488

> <PUBCHEM_EXT_DATASOURCE_REGID>
SCHEMBL16117496

> <PUBCHEM_SUBSTANCE_COMMENT>
InChI=1S/C23H29N5O2/c1-25-15-19(29)16-30-20-10-5-9-18(13-20)23-26-21(17-7-3-4-8-17)14-22(27-23)28(2)12-6-11-24/h5,7,9-10,13-14,19,25,29H,3-4,6,8,12,15-16H2,1-2H3
InChIKey=AYBXTACLTJMKTO-UHFFFAOYSA-N

> <PUBCHEM_SUBSTANCE_SYNONYM>
SCHEMBL16117496

> <PUBCHEM_XREF_EXT_ID>
SCHEMBL16117496

> <PUBCHEM_EXT_DATASOURCE_URL>
https://www.surechembl.org/

> <PUBCHEM_EXT_SUBSTANCE_URL>
https://www.surechembl.org/chemical/SCHEMBL16117496

> <PUBCHEM_CID_ASSOCIATIONS>
85471502  1

> <PUBCHEM_COORDINATE_TYPE>
1
3

$$$$
