310938565
  -OEChem-07211613022D

 19 19  0     1  0  0  0  0  0999 V2000
    0.3388   15.1773    0.0000 O   0  0  0  0  0  0  0  0  0  0  0  0
    0.3388   12.7023    0.0000 O   0  0  0  0  0  0  0  0  0  0  0  0
   -1.0902   14.3523    0.0000 O   0  0  0  0  0  0  0  0  0  0  0  0
    2.4822   16.4148    0.0000 N   0  0  0  0  0  0  0  0  0  0  0  0
    1.0532   15.5898    0.0000 C   0  0  0  0  0  0  0  0  0  0  0  0
    1.7677   16.8273    0.0000 C   0  0  0  0  0  0  0  0  0  0  0  0
    1.0532   16.4148    0.0000 C   0  0  0  0  0  0  0  0  0  0  0  0
    1.7677   15.1773    0.0000 C   0  0  0  0  0  0  0  0  0  0  0  0
    1.7677   17.6523    0.0000 C   0  0  0  0  0  0  0  0  0  0  0  0
    0.3388   11.8773    0.0000 C   0  0  0  0  0  0  0  0  0  0  0  0
   -0.3757   13.9398    0.0000 C   0  0  3  0  0  0  0  0  0  0  0  0
    2.4822   15.5898    0.0000 C   0  0  0  0  0  0  0  0  0  0  0  0
    0.3388   14.3523    0.0000 C   0  0  0  0  0  0  0  0  0  0  0  0
   -0.3757   13.1148    0.0000 C   0  0  0  0  0  0  0  0  0  0  0  0
    0.9427   17.6523    0.0000 C   0  0  0  0  0  0  0  0  0  0  0  0
    2.5025   17.6523    0.0000 C   0  0  0  0  0  0  0  0  0  0  0  0
    1.0532   11.4648    0.0000 C   0  0  0  0  0  0  0  0  0  0  0  0
   -0.3757   11.4648    0.0000 C   0  0  0  0  0  0  0  0  0  0  0  0
    1.0532   12.2898    0.0000 C   0  0  0  0  0  0  0  0  0  0  0  0
  1  5  1  0  0  0  0
  1 13  1  0  0  0  0
  2 10  1  0  0  0  0
  2 14  1  0  0  0  0
  3 11  1  0  0  0  0
  4  6  1  0  0  0  0
  4 12  2  0  0  0  0
  5  7  1  0  0  0  0
  5  8  2  0  0  0  0
  6  7  2  0  0  0  0
  6  9  1  0  0  0  0
  8 12  1  0  0  0  0
  9 15  1  0  0  0  0
  9 16  1  0  0  0  0
 10 17  1  0  0  0  0
 10 18  1  0  0  0  0
 10 19  1  0  0  0  0
 11 13  1  0  0  0  0
 11 14  1  0  0  0  0
M  END
> <PUBCHEM_COMPOUND_ID_TYPE>
0

> <PUBCHEM_TOTAL_CHARGE>
0

> <PUBCHEM_SUBSTANCE_ID>
310938565

> <PUBCHEM_SUBSTANCE_VERSION>
1

> <PUBCHEM_EXT_DATASOURCE_NAME>
4488

> <PUBCHEM_EXT_DATASOURCE_REGID>
SCHEMBL16116479

> <PUBCHEM_SUBSTANCE_COMMENT>
InChI=1S/C15H25NO3/c1-11(2)14-8-13(6-7-16-14)18-9-12(17)10-19-15(3,4)5/h6-8,11-12,17H,9-10H2,1-5H3
InChIKey=ABSHRPOAOXPYGX-UHFFFAOYSA-N

> <PUBCHEM_SUBSTANCE_SYNONYM>
SCHEMBL16116479

> <PUBCHEM_XREF_EXT_ID>
SCHEMBL16116479

> <PUBCHEM_EXT_DATASOURCE_URL>
https://www.surechembl.org/

> <PUBCHEM_EXT_SUBSTANCE_URL>
https://www.surechembl.org/chemical/SCHEMBL16116479

> <PUBCHEM_CID_ASSOCIATIONS>
117606004  1

> <PUBCHEM_COORDINATE_TYPE>
1
3

> <PUBCHEM_BONDANNOTATIONS>
9  15  3
9  16  3

$$$$
