310944297
  -OEChem-07211613022D

 32 35  0     1  0  0  0  0  0999 V2000
   -3.7145   -0.9317    0.0000 Cl  0  0  0  0  0  0  0  0  0  0  0  0
   -4.2612    2.7952    0.0000 F   0  0  0  0  0  0  0  0  0  0  0  0
   -0.6832   -0.9317    0.0000 O   0  0  0  0  0  0  0  0  0  0  0  0
    0.7454    1.5529    0.0000 O   0  0  0  0  0  0  0  0  0  0  0  0
    4.9693   -1.1926    0.0000 O   0  0  0  0  0  0  0  0  0  0  0  0
    1.4908    0.3106    0.0000 N   0  0  0  0  0  0  0  0  0  0  0  0
    3.5530   -1.1802    0.0000 N   0  0  0  0  0  0  0  0  0  0  0  0
   -0.6708    0.7330    0.0000 N   0  0  0  0  0  0  0  0  0  0  0  0
    2.2735   -0.7702    0.0000 C   0  0  3  0  0  0  0  0  0  0  0  0
    2.7580   -0.0994    0.0000 C   0  0  3  0  0  0  0  0  0  0  0  0
    1.4908   -0.5093    0.0000 C   0  0  0  0  0  0  0  0  0  0  0  0
    2.2735    0.5715    0.0000 C   0  0  0  0  0  0  0  0  0  0  0  0
    2.7580   -1.4286    0.0000 C   0  0  0  0  0  0  0  0  0  0  0  0
    3.5530   -0.3602    0.0000 C   0  0  0  0  0  0  0  0  0  0  0  0
   -2.8200    0.3106    0.0000 C   0  0  0  0  0  0  0  0  0  0  0  0
    0.7454    0.7082    0.0000 C   0  0  0  0  0  0  0  0  0  0  0  0
   -1.3914    0.3230    0.0000 C   0  0  0  0  0  0  0  0  0  0  0  0
   -1.4038   -0.5093    0.0000 C   0  0  0  0  0  0  0  0  0  0  0  0
   -2.8200   -0.5093    0.0000 C   0  0  0  0  0  0  0  0  0  0  0  0
   -3.5530    0.7330    0.0000 C   0  0  0  0  0  0  0  0  0  0  0  0
   -2.0996    0.7206    0.0000 C   0  0  0  0  0  0  0  0  0  0  0  0
    4.2488   -1.6026    0.0000 C   0  0  0  0  0  0  0  0  0  0  0  0
   -2.1120   -0.9193    0.0000 C   0  0  0  0  0  0  0  0  0  0  0  0
    0.0497    0.3106    0.0000 C   0  0  0  0  0  0  0  0  0  0  0  0
   -3.5406    1.5529    0.0000 C   0  0  0  0  0  0  0  0  0  0  0  0
   -4.2488    0.3230    0.0000 C   0  0  0  0  0  0  0  0  0  0  0  0
   -4.2612    1.9629    0.0000 C   0  0  0  0  0  0  0  0  0  0  0  0
    4.2612   -2.4350    0.0000 C   0  0  0  0  0  0  0  0  0  0  0  0
   -4.9693    0.7330    0.0000 C   0  0  0  0  0  0  0  0  0  0  0  0
   -4.9693    1.5529    0.0000 C   0  0  0  0  0  0  0  0  0  0  0  0
    0.0373   -0.5217    0.0000 C   0  0  0  0  0  0  0  0  0  0  0  0
    3.5282   -2.7952    0.0000 C   0  0  0  0  0  0  0  0  0  0  0  0
  1 19  1  0  0  0  0
  2 27  1  0  0  0  0
  3 18  1  0  0  0  0
  3 31  1  0  0  0  0
  4 16  2  0  0  0  0
  5 22  2  0  0  0  0
  6 11  1  0  0  0  0
  6 12  1  0  0  0  0
  6 16  1  0  0  0  0
  7 13  1  0  0  0  0
  7 14  1  0  0  0  0
  7 22  1  0  0  0  0
  8 17  1  0  0  0  0
  8 24  1  0  0  0  0
  9 10  1  0  0  0  0
  9 11  1  0  0  0  0
  9 13  1  0  0  0  0
 10 12  1  0  0  0  0
 10 14  1  0  0  0  0
 15 19  2  0  0  0  0
 15 20  1  0  0  0  0
 15 21  1  0  0  0  0
 16 24  1  0  0  0  0
 17 18  1  0  0  0  0
 17 21  2  0  0  0  0
 18 23  2  0  0  0  0
 19 23  1  0  0  0  0
 20 25  1  0  0  0  0
 20 26  2  0  0  0  0
 22 28  1  0  0  0  0
 25 27  2  0  0  0  0
 26 29  1  0  0  0  0
 27 30  1  0  0  0  0
 28 32  2  0  0  0  0
 29 30  2  0  0  0  0
M  END
> <PUBCHEM_COMPOUND_ID_TYPE>
0

> <PUBCHEM_TOTAL_CHARGE>
0

> <PUBCHEM_SUBSTANCE_ID>
310944297

> <PUBCHEM_SUBSTANCE_VERSION>
1

> <PUBCHEM_EXT_DATASOURCE_NAME>
4488

> <PUBCHEM_EXT_DATASOURCE_REGID>
SCHEMBL16122372

> <PUBCHEM_SUBSTANCE_COMMENT>
InChI=1S/C24H25ClFN3O3/c1-3-23(30)28-11-16-13-29(14-17(16)12-28)24(31)10-27-21-8-19(20(25)9-22(21)32-2)15-5-4-6-18(26)7-15/h3-9,16-17,27H,1,10-14H2,2H3
InChIKey=VWKAKTVWOBRHQB-UHFFFAOYSA-N

> <PUBCHEM_SUBSTANCE_SYNONYM>
SCHEMBL16122372

> <PUBCHEM_XREF_EXT_ID>
SCHEMBL16122372

> <PUBCHEM_EXT_DATASOURCE_URL>
https://www.surechembl.org/

> <PUBCHEM_EXT_SUBSTANCE_URL>
https://www.surechembl.org/chemical/SCHEMBL16122372

> <PUBCHEM_CID_ASSOCIATIONS>
117610562  1

> <PUBCHEM_COORDINATE_TYPE>
1
3

$$$$
