310941923
  -OEChem-07211613022D

 24 23  0     1  0  0  0  0  0999 V2000
   -1.0938    1.6377    0.0000 O   0  0  0  0  0  0  0  0  0  0  0  0
   -1.8189    2.8877    0.0000 O   0  0  0  0  0  0  0  0  0  0  0  0
   -1.8189   -0.4500    0.0000 O   0  0  0  0  0  0  0  0  0  0  0  0
    3.9566    2.0502    0.0000 O   0  0  0  0  0  0  0  0  0  0  0  0
   -2.3939    0.8001    0.0000 N   0  0  0  0  0  0  0  0  0  0  0  0
   -2.5315    1.6502    0.0000 C   0  0  3  0  0  0  0  0  0  0  0  0
   -1.8189    2.0377    0.0000 C   0  0  0  0  0  0  0  0  0  0  0  0
   -3.2565    2.0502    0.0000 C   0  0  0  0  0  0  0  0  0  0  0  0
   -1.8064    0.4125    0.0000 C   0  0  0  0  0  0  0  0  0  0  0  0
   -1.0813    0.8001    0.0000 C   0  0  0  0  0  0  0  0  0  0  0  0
   -3.9566    1.6252    0.0000 C   0  0  0  0  0  0  0  0  0  0  0  0
   -3.2565    2.8752    0.0000 C   0  0  0  0  0  0  0  0  0  0  0  0
   -0.3687    2.0502    0.0000 C   0  0  0  0  0  0  0  0  0  0  0  0
   -0.3687    0.3875    0.0000 C   0  0  0  0  0  0  0  0  0  0  0  0
    0.3687    1.6377    0.0000 C   0  0  0  0  0  0  0  0  0  0  0  0
   -0.4188   -0.4125    0.0000 C   0  0  0  0  0  0  0  0  0  0  0  0
    1.0688    2.0502    0.0000 C   0  0  0  0  0  0  0  0  0  0  0  0
    0.3187   -0.8251    0.0000 C   0  0  0  0  0  0  0  0  0  0  0  0
    1.8064    1.6377    0.0000 C   0  0  0  0  0  0  0  0  0  0  0  0
    2.5190    2.0502    0.0000 C   0  0  0  0  0  0  0  0  0  0  0  0
    0.2312   -1.6002    0.0000 C   0  0  0  0  0  0  0  0  0  0  0  0
    3.2565    1.6377    0.0000 C   0  0  0  0  0  0  0  0  0  0  0  0
    0.9688   -2.0377    0.0000 C   0  0  0  0  0  0  0  0  0  0  0  0
    0.9313   -2.8877    0.0000 C   0  0  0  0  0  0  0  0  0  0  0  0
  1  7  1  0  0  0  0
  1 13  1  0  0  0  0
  2  7  2  0  0  0  0
  3  9  2  0  0  0  0
  4 22  1  0  0  0  0
  5  6  1  0  0  0  0
  5  9  1  0  0  0  0
  6  7  1  0  0  0  0
  6  8  1  0  0  0  0
  8 11  1  0  0  0  0
  8 12  1  0  0  0  0
  9 10  1  0  0  0  0
 10 14  1  0  0  0  0
 13 15  1  0  0  0  0
 14 16  1  0  0  0  0
 15 17  1  0  0  0  0
 16 18  1  0  0  0  0
 17 19  1  0  0  0  0
 18 21  1  0  0  0  0
 19 20  1  0  0  0  0
 20 22  1  0  0  0  0
 21 23  1  0  0  0  0
 23 24  1  0  0  0  0
M  END
> <PUBCHEM_COMPOUND_ID_TYPE>
0

> <PUBCHEM_TOTAL_CHARGE>
0

> <PUBCHEM_SUBSTANCE_ID>
310941923

> <PUBCHEM_SUBSTANCE_VERSION>
1

> <PUBCHEM_EXT_DATASOURCE_NAME>
4488

> <PUBCHEM_EXT_DATASOURCE_REGID>
SCHEMBL16119955

> <PUBCHEM_SUBSTANCE_COMMENT>
InChI=1S/C19H37NO4/c1-4-5-6-7-10-13-17(22)20-18(16(2)3)19(23)24-15-12-9-8-11-14-21/h16,18,21H,4-15H2,1-3H3,(H,20,22)
InChIKey=PRBBJUCXMNVYAK-UHFFFAOYSA-N

> <PUBCHEM_SUBSTANCE_SYNONYM>
SCHEMBL16119955

> <PUBCHEM_XREF_EXT_ID>
SCHEMBL16119955

> <PUBCHEM_EXT_DATASOURCE_URL>
https://www.surechembl.org/

> <PUBCHEM_EXT_SUBSTANCE_URL>
https://www.surechembl.org/chemical/SCHEMBL16119955

> <PUBCHEM_CID_ASSOCIATIONS>
71526062  1

> <PUBCHEM_COORDINATE_TYPE>
1
3

$$$$
