310938060
  -OEChem-07211613022D

 33 36  0     1  0  0  0  0  0999 V2000
    2.4718  -10.0620    0.0000 O   0  0  0  0  0  0  0  0  0  0  0  0
    0.0101  -10.6244    0.0000 O   0  0  0  0  0  0  0  0  0  0  0  0
    1.5466  -11.2045    0.0000 O   0  0  0  0  0  0  0  0  0  0  0  0
   -2.1158  -10.1294    0.0000 O   0  0  0  0  0  0  0  0  0  0  0  0
   -0.8104  -10.7106    0.0000 O   0  0  0  0  0  0  0  0  0  0  0  0
    1.1661   -9.7845    0.0000 N   0  0  0  0  0  0  0  0  0  0  0  0
   -0.4380   -6.3610    0.0000 N   0  0  0  0  0  0  0  0  0  0  0  0
   -0.1831   -5.5764    0.0000 N   0  0  0  0  0  0  0  0  0  0  0  0
   -0.1393   -9.2033    0.0000 C   0  0  3  0  0  0  0  0  0  0  0  0
    0.3456   -9.8707    0.0000 C   0  0  0  0  0  0  0  0  0  0  0  0
    0.1963   -8.4496    0.0000 C   0  0  0  0  0  0  0  0  0  0  0  0
    1.7181  -10.3976    0.0000 C   0  0  0  0  0  0  0  0  0  0  0  0
    0.0469   -7.0285    0.0000 C   0  0  0  0  0  0  0  0  0  0  0  0
    2.3856   -9.2415    0.0000 C   0  0  3  0  0  0  0  0  0  0  0  0
    1.5786   -9.0700    0.0000 C   0  0  0  0  0  0  0  0  0  0  0  0
   -0.2887   -7.7822    0.0000 C   0  0  0  0  0  0  0  0  0  0  0  0
   -1.2630   -6.3610    0.0000 C   0  0  0  0  0  0  0  0  0  0  0  0
    1.0167   -8.3634    0.0000 C   0  0  0  0  0  0  0  0  0  0  0  0
   -0.9598   -9.2895    0.0000 C   0  0  0  0  0  0  0  0  0  0  0  0
    0.8674   -6.9422    0.0000 C   0  0  0  0  0  0  0  0  0  0  0  0
   -0.8505   -5.0915    0.0000 C   0  0  0  0  0  0  0  0  0  0  0  0
    2.9987   -8.6895    0.0000 C   0  0  0  0  0  0  0  0  0  0  0  0
    1.3523   -7.6097    0.0000 C   0  0  0  0  0  0  0  0  0  0  0  0
   -1.5180   -5.5764    0.0000 C   0  0  0  0  0  0  0  0  0  0  0  0
   -1.2953  -10.0432    0.0000 C   0  0  0  0  0  0  0  0  0  0  0  0
    3.7833   -8.9444    0.0000 C   0  0  0  0  0  0  0  0  0  0  0  0
   -1.7479   -7.0285    0.0000 C   0  0  0  0  0  0  0  0  0  0  0  0
   -0.8505   -4.2665    0.0000 C   0  0  0  0  0  0  0  0  0  0  0  0
    4.3964   -8.3924    0.0000 C   0  0  0  0  0  0  0  0  0  0  0  0
    3.9548   -9.7514    0.0000 C   0  0  0  0  0  0  0  0  0  0  0  0
    5.1810   -8.6473    0.0000 C   0  0  0  0  0  0  0  0  0  0  0  0
    4.7394  -10.0063    0.0000 C   0  0  0  0  0  0  0  0  0  0  0  0
    5.3525   -9.4543    0.0000 C   0  0  0  0  0  0  0  0  0  0  0  0
  1 12  1  0  0  0  0
  1 14  1  0  0  0  0
  2 10  2  0  0  0  0
  3 12  2  0  0  0  0
  4 25  2  0  0  0  0
  5 25  1  0  0  0  0
  6 10  1  0  0  0  0
  6 12  1  0  0  0  0
  6 15  1  0  0  0  0
  7  8  1  0  0  0  0
  7 13  1  0  0  0  0
  7 17  1  0  0  0  0
  8 21  2  0  0  0  0
  9 10  1  0  0  0  0
  9 11  1  0  0  0  0
  9 19  1  0  0  0  0
 11 16  2  0  0  0  0
 11 18  1  0  0  0  0
 13 16  1  0  0  0  0
 13 20  2  0  0  0  0
 14 15  1  0  0  0  0
 14 22  1  0  0  0  0
 17 24  2  0  0  0  0
 17 27  1  0  0  0  0
 18 23  2  0  0  0  0
 19 25  1  0  0  0  0
 20 23  1  0  0  0  0
 21 24  1  0  0  0  0
 21 28  1  0  0  0  0
 22 26  1  0  0  0  0
 26 29  2  0  0  0  0
 26 30  1  0  0  0  0
 29 31  1  0  0  0  0
 30 32  2  0  0  0  0
 31 33  2  0  0  0  0
 32 33  1  0  0  0  0
M  END
> <PUBCHEM_COMPOUND_ID_TYPE>
0

> <PUBCHEM_TOTAL_CHARGE>
0

> <PUBCHEM_SUBSTANCE_ID>
310938060

> <PUBCHEM_SUBSTANCE_VERSION>
1

> <PUBCHEM_EXT_DATASOURCE_NAME>
4488

> <PUBCHEM_EXT_DATASOURCE_REGID>
SCHEMBL16115901

> <PUBCHEM_SUBSTANCE_COMMENT>
InChI=1S/C25H25N3O5/c1-16-11-17(2)28(26-16)20-10-6-9-19(13-20)22(14-23(29)30)24(31)27-15-21(33-25(27)32)12-18-7-4-3-5-8-18/h3-11,13,21-22H,12,14-15H2,1-2H3,(H,29,30)
InChIKey=UJUOSMWPAMHWIH-UHFFFAOYSA-N

> <PUBCHEM_SUBSTANCE_SYNONYM>
SCHEMBL16115901

> <PUBCHEM_XREF_EXT_ID>
SCHEMBL16115901

> <PUBCHEM_EXT_DATASOURCE_URL>
https://www.surechembl.org/

> <PUBCHEM_EXT_SUBSTANCE_URL>
https://www.surechembl.org/chemical/SCHEMBL16115901

> <PUBCHEM_CID_ASSOCIATIONS>
117605636  1

> <PUBCHEM_COORDINATE_TYPE>
1
3

$$$$
