310936839
  -OEChem-07211613022D

 21 23  0     1  0  0  0  0  0999 V2000
    1.2026   -2.0370    0.0000 S   0  0  0  0  0  0  0  0  0  0  0  0
    1.9879    0.0000    0.0000 O   0  0  0  0  0  0  0  0  0  0  0  0
    4.1231   -1.2271    0.0000 N   0  0  0  0  0  0  0  0  0  0  0  0
    2.6997   -1.2271    0.0000 C   0  0  3  0  0  0  0  0  0  0  0  0
    2.6997   -2.0370    0.0000 C   0  0  0  0  0  0  0  0  0  0  0  0
    1.9879   -0.8099    0.0000 C   0  0  3  0  0  0  0  0  0  0  0  0
    2.0125   -3.2642    0.0000 C   0  0  0  0  0  0  0  0  0  0  0  0
    1.2762   -1.2271    0.0000 C   0  0  0  0  0  0  0  0  0  0  0  0
    2.7242   -3.6568    0.0000 C   0  0  0  0  0  0  0  0  0  0  0  0
    1.9879   -2.4543    0.0000 C   0  0  0  0  0  0  0  0  0  0  0  0
    3.4114   -2.4543    0.0000 C   0  0  0  0  0  0  0  0  0  0  0  0
    3.4114   -3.2642    0.0000 C   0  0  0  0  0  0  0  0  0  0  0  0
    3.4114   -0.8099    0.0000 C   0  0  0  0  0  0  0  0  0  0  0  0
    0.5399   -0.9081    0.0000 C   0  0  0  0  0  0  0  0  0  0  0  0
    1.3007   -3.6814    0.0000 C   0  0  0  0  0  0  0  0  0  0  0  0
    2.7242   -4.4913    0.0000 C   0  0  0  0  0  0  0  0  0  0  0  0
    0.3927   -2.2088    0.0000 C   0  0  0  0  0  0  0  0  0  0  0  0
    0.0000   -1.4971    0.0000 C   0  0  0  0  0  0  0  0  0  0  0  0
    1.3007   -4.4913    0.0000 C   0  0  0  0  0  0  0  0  0  0  0  0
    2.0125   -4.9085    0.0000 C   0  0  0  0  0  0  0  0  0  0  0  0
    4.8349   -0.8099    0.0000 C   0  0  0  0  0  0  0  0  0  0  0  0
  1  8  1  0  0  0  0
  1 17  1  0  0  0  0
  2  6  1  0  0  0  0
  3 13  1  0  0  0  0
  3 21  1  0  0  0  0
  4  5  1  0  0  0  0
  4  6  1  0  0  0  0
  4 13  1  0  0  0  0
  5 10  2  0  0  0  0
  5 11  1  0  0  0  0
  6  8  1  0  0  0  0
  7  9  2  0  0  0  0
  7 10  1  0  0  0  0
  7 15  1  0  0  0  0
  8 14  2  0  0  0  0
  9 12  1  0  0  0  0
  9 16  1  0  0  0  0
 11 12  2  0  0  0  0
 14 18  1  0  0  0  0
 15 19  2  0  0  0  0
 16 20  2  0  0  0  0
 17 18  2  0  0  0  0
 19 20  1  0  0  0  0
M  END
> <PUBCHEM_COMPOUND_ID_TYPE>
0

> <PUBCHEM_TOTAL_CHARGE>
0

> <PUBCHEM_SUBSTANCE_ID>
310936839

> <PUBCHEM_SUBSTANCE_VERSION>
1

> <PUBCHEM_EXT_DATASOURCE_NAME>
4488

> <PUBCHEM_EXT_DATASOURCE_REGID>
SCHEMBL16114530

> <PUBCHEM_SUBSTANCE_COMMENT>
InChI=1S/C18H19NOS/c1-19-12-16(18(20)17-7-4-10-21-17)15-9-8-13-5-2-3-6-14(13)11-15/h2-11,16,18-20H,12H2,1H3
InChIKey=PKZICZJQJAOMKU-UHFFFAOYSA-N

> <PUBCHEM_SUBSTANCE_SYNONYM>
SCHEMBL16114530

> <PUBCHEM_XREF_EXT_ID>
SCHEMBL16114530

> <PUBCHEM_EXT_DATASOURCE_URL>
https://www.surechembl.org/

> <PUBCHEM_EXT_SUBSTANCE_URL>
https://www.surechembl.org/chemical/SCHEMBL16114530

> <PUBCHEM_CID_ASSOCIATIONS>
117604732  1

> <PUBCHEM_COORDINATE_TYPE>
1
3

$$$$
