310945323
  -OEChem-07211613022D

 26 30  0     1  0  0  0  0  0999 V2000
    3.7452    1.3560    0.0000 O   0  0  0  0  0  0  0  0  0  0  0  0
   -0.9962   -0.8948    0.0000 O   0  0  0  0  0  0  0  0  0  0  0  0
   -3.4316   -0.9686    0.0000 O   0  0  0  0  0  0  0  0  0  0  0  0
    1.9371    0.1015    0.0000 N   0  0  0  0  0  0  0  0  0  0  0  0
    3.5976   -0.0646    0.0000 N   0  0  0  0  0  0  0  0  0  0  0  0
   -1.7158    0.3597    0.0000 N   0  0  0  0  0  0  0  0  0  0  0  0
   -3.2286    1.1899    0.0000 N   0  0  0  0  0  0  0  0  0  0  0  0
    2.2876   -0.6550    0.0000 C   0  0  0  0  0  0  0  0  0  0  0  0
    1.1439    0.3782    0.0000 C   0  0  0  0  0  0  0  0  0  0  0  0
    2.4169    0.7841    0.0000 C   0  0  0  0  0  0  0  0  0  0  0  0
    1.1623    1.1899    0.0000 C   0  0  0  0  0  0  0  0  0  0  0  0
    1.9187    1.4483    0.0000 C   0  0  0  0  0  0  0  0  0  0  0  0
    3.2286    0.6735    0.0000 C   0  0  0  0  0  0  0  0  0  0  0  0
    3.1179   -0.7472    0.0000 C   0  0  0  0  0  0  0  0  0  0  0  0
    1.4760   -0.8026    0.0000 C   0  0  0  0  0  0  0  0  0  0  0  0
    2.3984   -1.4667    0.0000 C   0  0  0  0  0  0  0  0  0  0  0  0
    0.4428   -0.0461    0.0000 C   0  0  0  0  0  0  0  0  0  0  0  0
    1.6052   -1.5959    0.0000 C   0  0  0  0  0  0  0  0  0  0  0  0
   -0.2767    0.3597    0.0000 C   0  0  0  0  0  0  0  0  0  0  0  0
    0.4243    1.5959    0.0000 C   0  0  0  0  0  0  0  0  0  0  0  0
   -0.2582    1.1899    0.0000 C   0  0  0  0  0  0  0  0  0  0  0  0
   -0.9778   -0.0276    0.0000 C   0  0  0  0  0  0  0  0  0  0  0  0
   -2.4169   -0.0461    0.0000 C   0  0  3  0  0  0  0  0  0  0  0  0
   -3.1548    0.3782    0.0000 C   0  0  3  0  0  0  0  0  0  0  0  0
   -2.6014   -0.8763    0.0000 C   0  0  0  0  0  0  0  0  0  0  0  0
   -3.7452   -0.2122    0.0000 C   0  0  0  0  0  0  0  0  0  0  0  0
  1 13  2  0  0  0  0
  2 22  2  0  0  0  0
  3 25  1  0  0  0  0
  3 26  1  0  0  0  0
  4  8  1  0  0  0  0
  4  9  1  0  0  0  0
  4 10  1  0  0  0  0
  5 13  1  0  0  0  0
  5 14  1  0  0  0  0
  6 22  1  0  0  0  0
  6 23  1  0  0  0  0
  7 24  1  0  0  0  0
  8 14  1  0  0  0  0
  8 15  1  0  0  0  0
  8 16  1  0  0  0  0
  9 11  1  0  0  0  0
  9 17  2  0  0  0  0
 10 12  2  0  0  0  0
 10 13  1  0  0  0  0
 11 12  1  0  0  0  0
 11 20  2  0  0  0  0
 15 18  1  0  0  0  0
 16 18  1  0  0  0  0
 17 19  1  0  0  0  0
 19 21  2  0  0  0  0
 19 22  1  0  0  0  0
 20 21  1  0  0  0  0
 23 24  1  0  0  0  0
 23 25  1  0  0  0  0
 24 26  1  0  0  0  0
M  END
> <PUBCHEM_COMPOUND_ID_TYPE>
0

> <PUBCHEM_TOTAL_CHARGE>
0

> <PUBCHEM_SUBSTANCE_ID>
310945323

> <PUBCHEM_SUBSTANCE_VERSION>
1

> <PUBCHEM_EXT_DATASOURCE_NAME>
4488

> <PUBCHEM_EXT_DATASOURCE_REGID>
SCHEMBL16123421

> <PUBCHEM_SUBSTANCE_COMMENT>
InChI=1S/C19H22N4O3/c20-13-8-26-9-14(13)22-17(24)12-3-2-11-6-16-18(25)21-10-19(4-1-5-19)23(16)15(11)7-12/h2-3,6-7,13-14H,1,4-5,8-10,20H2,(H,21,25)(H,22,24)
InChIKey=QOBAQHLPFIHXRU-UHFFFAOYSA-N

> <PUBCHEM_SUBSTANCE_SYNONYM>
SCHEMBL16123421

> <PUBCHEM_XREF_EXT_ID>
SCHEMBL16123421

> <PUBCHEM_EXT_DATASOURCE_URL>
https://www.surechembl.org/

> <PUBCHEM_EXT_SUBSTANCE_URL>
https://www.surechembl.org/chemical/SCHEMBL16123421

> <PUBCHEM_CID_ASSOCIATIONS>
117611381  1

> <PUBCHEM_COORDINATE_TYPE>
1
3

$$$$
