310931225
  -OEChem-07211613022D

 23 26  0     1  0  0  0  0  0999 V2000
    0.0000   -6.4718    0.0000 Cl  0  0  0  0  0  0  0  0  0  0  0  0
    0.9384   -2.7505    0.0000 O   0  0  0  0  0  0  0  0  0  0  0  0
    2.3622    0.0000    0.0000 O   0  0  0  0  0  0  0  0  0  0  0  0
    2.3622   -2.5240    0.0000 N   0  0  0  0  0  0  0  0  0  0  0  0
    2.7829   -3.7860    0.0000 N   0  0  0  0  0  0  0  0  0  0  0  0
    3.8184   -2.7505    0.0000 N   0  0  0  0  0  0  0  0  0  0  0  0
    1.9739   -3.7860    0.0000 C   0  0  3  0  0  0  0  0  0  0  0  0
    1.7150   -3.0094    0.0000 C   0  0  0  0  0  0  0  0  0  0  0  0
    2.3298   -4.5303    0.0000 C   0  0  0  0  0  0  0  0  0  0  0  0
    1.4561   -4.4656    0.0000 C   0  0  0  0  0  0  0  0  0  0  0  0
    3.0418   -3.0094    0.0000 C   0  0  0  0  0  0  0  0  0  0  0  0
    3.0094   -4.9833    0.0000 C   0  0  0  0  0  0  0  0  0  0  0  0
    2.2975   -5.3716    0.0000 C   0  0  0  0  0  0  0  0  0  0  0  0
    2.3622   -1.6827    0.0000 C   0  0  0  0  0  0  0  0  0  0  0  0
    1.8121   -5.2098    0.0000 C   0  0  0  0  0  0  0  0  0  0  0  0
    0.6472   -4.3685    0.0000 C   0  0  0  0  0  0  0  0  0  0  0  0
    3.0742   -1.2620    0.0000 C   0  0  0  0  0  0  0  0  0  0  0  0
    1.6503   -1.2620    0.0000 C   0  0  0  0  0  0  0  0  0  0  0  0
    1.3267   -5.8894    0.0000 C   0  0  0  0  0  0  0  0  0  0  0  0
    0.1618   -5.0481    0.0000 C   0  0  0  0  0  0  0  0  0  0  0  0
    0.4854   -5.7923    0.0000 C   0  0  0  0  0  0  0  0  0  0  0  0
    3.0742   -0.4530    0.0000 C   0  0  0  0  0  0  0  0  0  0  0  0
    1.6503   -0.4530    0.0000 C   0  0  0  0  0  0  0  0  0  0  0  0
  1 21  1  0  0  0  0
  2  8  2  0  0  0  0
  3 22  1  0  0  0  0
  3 23  1  0  0  0  0
  4  8  1  0  0  0  0
  4 11  1  0  0  0  0
  4 14  1  0  0  0  0
  5  7  1  0  0  0  0
  5 11  1  0  0  0  0
  6 11  2  3  0  0  0
  7  8  1  0  0  0  0
  7  9  1  0  0  0  0
  7 10  1  0  0  0  0
  9 12  1  0  0  0  0
  9 13  1  0  0  0  0
 10 15  2  0  0  0  0
 10 16  1  0  0  0  0
 12 13  1  0  0  0  0
 14 17  1  0  0  0  0
 14 18  1  0  0  0  0
 15 19  1  0  0  0  0
 16 20  2  0  0  0  0
 17 22  1  0  0  0  0
 18 23  1  0  0  0  0
 19 21  2  0  0  0  0
 20 21  1  0  0  0  0
M  END
> <PUBCHEM_COMPOUND_ID_TYPE>
0

> <PUBCHEM_TOTAL_CHARGE>
0

> <PUBCHEM_SUBSTANCE_ID>
310931225

> <PUBCHEM_SUBSTANCE_VERSION>
1

> <PUBCHEM_EXT_DATASOURCE_NAME>
4488

> <PUBCHEM_EXT_DATASOURCE_REGID>
SCHEMBL16108534

> <PUBCHEM_SUBSTANCE_COMMENT>
InChI=1S/C17H20ClN3O2/c18-13-5-3-12(4-6-13)17(11-1-2-11)15(22)21(16(19)20-17)14-7-9-23-10-8-14/h3-6,11,14H,1-2,7-10H2,(H2,19,20)
InChIKey=SABNBHYLGIXGSF-UHFFFAOYSA-N

> <PUBCHEM_SUBSTANCE_SYNONYM>
SCHEMBL16108534

> <PUBCHEM_XREF_EXT_ID>
SCHEMBL16108534

> <PUBCHEM_EXT_DATASOURCE_URL>
https://www.surechembl.org/

> <PUBCHEM_EXT_SUBSTANCE_URL>
https://www.surechembl.org/chemical/SCHEMBL16108534

> <PUBCHEM_CID_ASSOCIATIONS>
86273847  1

> <PUBCHEM_COORDINATE_TYPE>
1
3

$$$$
