310934241
  -OEChem-07211613022D

 36 40  0     1  0  0  0  0  0999 V2000
    6.0048    0.0000    0.0000 Cl  0  0  0  0  0  0  0  0  0  0  0  0
    0.0000   -2.7021    0.0000 F   0  0  0  0  0  0  0  0  0  0  0  0
    3.6028   -8.5782    0.0000 F   0  0  0  0  0  0  0  0  0  0  0  0
    6.4337   -4.9754    0.0000 O   0  0  0  0  0  0  0  0  0  0  0  0
    5.2327   -4.2891    0.0000 N   0  0  0  0  0  0  0  0  0  0  0  0
    3.4742   -4.3320    0.0000 N   0  0  0  0  0  0  0  0  0  0  0  0
    3.5171   -5.6616    0.0000 N   0  0  0  0  0  0  0  0  0  0  0  0
    7.6775   -2.8308    0.0000 N   0  0  0  0  0  0  0  0  0  0  0  0
    4.8038   -4.9754    0.0000 C   0  0  3  0  0  0  0  0  0  0  0  0
    3.9888   -5.0183    0.0000 C   0  0  0  0  0  0  0  0  0  0  0  0
    6.0048   -4.2891    0.0000 C   0  0  0  0  0  0  0  0  0  0  0  0
    6.0048   -2.8737    0.0000 C   0  0  0  0  0  0  0  0  0  0  0  0
    2.7021   -4.5893    0.0000 C   0  0  0  0  0  0  0  0  0  0  0  0
    6.4337   -2.1446    0.0000 C   0  0  0  0  0  0  0  0  0  0  0  0
    4.7609   -3.5599    0.0000 C   0  0  0  0  0  0  0  0  0  0  0  0
    6.4337   -3.5599    0.0000 C   0  0  0  0  0  0  0  0  0  0  0  0
    5.2327   -5.7045    0.0000 C   0  0  0  0  0  0  0  0  0  0  0  0
    5.2327   -2.8737    0.0000 C   0  0  0  0  0  0  0  0  0  0  0  0
    2.0588   -4.1175    0.0000 C   0  0  0  0  0  0  0  0  0  0  0  0
    2.7021   -5.4043    0.0000 C   0  0  0  0  0  0  0  0  0  0  0  0
    7.2486   -2.1446    0.0000 C   0  0  0  0  0  0  0  0  0  0  0  0
    4.8038   -6.4337    0.0000 C   0  0  0  0  0  0  0  0  0  0  0  0
    6.0048   -1.4154    0.0000 C   0  0  0  0  0  0  0  0  0  0  0  0
    6.3908   -0.7292    0.0000 C   0  0  0  0  0  0  0  0  0  0  0  0
    1.2868   -4.4607    0.0000 C   0  0  0  0  0  0  0  0  0  0  0  0
    2.1017   -3.3026    0.0000 C   0  0  0  0  0  0  0  0  0  0  0  0
    7.6346   -1.4154    0.0000 C   0  0  0  0  0  0  0  0  0  0  0  0
    5.2327   -7.1200    0.0000 C   0  0  0  0  0  0  0  0  0  0  0  0
    3.9888   -6.4337    0.0000 C   0  0  0  0  0  0  0  0  0  0  0  0
    7.2486   -0.6863    0.0000 C   0  0  0  0  0  0  0  0  0  0  0  0
    0.6005   -3.9888    0.0000 C   0  0  0  0  0  0  0  0  0  0  0  0
    1.4154   -2.8308    0.0000 C   0  0  0  0  0  0  0  0  0  0  0  0
    0.6863   -3.1739    0.0000 C   0  0  0  0  0  0  0  0  0  0  0  0
    4.8467   -7.8491    0.0000 C   0  0  0  0  0  0  0  0  0  0  0  0
    3.6028   -7.1629    0.0000 C   0  0  0  0  0  0  0  0  0  0  0  0
    3.9888   -7.8491    0.0000 C   0  0  0  0  0  0  0  0  0  0  0  0
  1 24  1  0  0  0  0
  2 33  1  0  0  0  0
  3 36  1  0  0  0  0
  4 11  2  0  0  0  0
  5  9  1  0  0  0  0
  5 11  1  0  0  0  0
  5 15  1  0  0  0  0
  6 10  2  0  0  0  0
  6 13  1  0  0  0  0
  7 10  1  0  0  0  0
  7 20  1  0  0  0  0
  8 21  1  0  0  0  0
  9 10  1  0  0  0  0
  9 17  1  0  0  0  0
 11 16  1  0  0  0  0
 12 14  1  0  0  0  0
 12 16  2  0  0  0  0
 12 18  1  0  0  0  0
 13 19  1  0  0  0  0
 13 20  2  0  0  0  0
 14 21  1  0  0  0  0
 14 23  2  0  0  0  0
 15 18  2  0  0  0  0
 17 22  1  0  0  0  0
 19 25  2  0  0  0  0
 19 26  1  0  0  0  0
 21 27  2  0  0  0  0
 22 28  2  0  0  0  0
 22 29  1  0  0  0  0
 23 24  1  0  0  0  0
 24 30  2  0  0  0  0
 25 31  1  0  0  0  0
 26 32  2  0  0  0  0
 27 30  1  0  0  0  0
 28 34  1  0  0  0  0
 29 35  2  0  0  0  0
 31 33  2  0  0  0  0
 32 33  1  0  0  0  0
 34 36  2  0  0  0  0
 35 36  1  0  0  0  0
M  END
> <PUBCHEM_COMPOUND_ID_TYPE>
0

> <PUBCHEM_TOTAL_CHARGE>
0

> <PUBCHEM_SUBSTANCE_ID>
310934241

> <PUBCHEM_SUBSTANCE_VERSION>
1

> <PUBCHEM_EXT_DATASOURCE_NAME>
4488

> <PUBCHEM_EXT_DATASOURCE_REGID>
SCHEMBL16111699

> <PUBCHEM_SUBSTANCE_COMMENT>
InChI=1S/C28H21ClF2N4O/c29-20-5-10-24(32)23(15-20)19-11-12-35(27(36)14-19)26(13-17-1-6-21(30)7-2-17)28-33-16-25(34-28)18-3-8-22(31)9-4-18/h1-12,14-16,26H,13,32H2,(H,33,34)
InChIKey=CVMSVEHSHBSPQM-UHFFFAOYSA-N

> <PUBCHEM_SUBSTANCE_SYNONYM>
SCHEMBL16111699

> <PUBCHEM_XREF_EXT_ID>
SCHEMBL16111699

> <PUBCHEM_EXT_DATASOURCE_URL>
https://www.surechembl.org/

> <PUBCHEM_EXT_SUBSTANCE_URL>
https://www.surechembl.org/chemical/SCHEMBL16111699

> <PUBCHEM_CID_ASSOCIATIONS>
86301387  1

> <PUBCHEM_COORDINATE_TYPE>
1
3

$$$$
