310929689
  -OEChem-07211613022D

 78 85  0     1  0  0  0  0  0999 V2000
   -2.4578   -3.7738    0.0000 S   0  0  0  0  0  0  0  0  0  0  0  0
   -1.3096   -2.5888    0.0000 O   0  0  0  0  0  0  0  0  0  0  0  0
   -1.2510   -2.2466    0.0000 O   0  0  0  0  0  0  0  0  0  0  0  0
    0.0026    0.8253    0.0000 O   0  0  0  0  0  0  0  0  0  0  0  0
    4.2853   -1.6568    0.0000 O   0  0  0  0  0  0  0  0  0  0  0  0
   -2.2569   -2.9736    0.0000 O   0  0  0  0  0  0  0  0  0  0  0  0
   -2.6587   -4.5739    0.0000 O   0  0  0  0  0  0  0  0  0  0  0  0
    1.4261   -2.4771    0.0000 O   0  0  0  0  0  0  0  0  0  0  0  0
    3.5729   -0.4181    0.0000 O   0  0  0  0  0  0  0  0  0  0  0  0
    2.8605    0.8206    0.0000 O   0  0  0  0  0  0  0  0  0  0  0  0
    5.7211    2.4659    0.0000 O   0  0  0  0  0  0  0  0  0  0  0  0
    7.8679    4.5248    0.0000 O   0  0  0  0  0  0  0  0  0  0  0  0
    9.2955    3.6975    0.0000 O   0  0  0  0  0  0  0  0  0  0  0  0
    0.0534   -2.8300    0.0000 N   0  0  0  0  0  0  0  0  0  0  0  0
    0.7137   -1.2384    0.0000 N   0  0  0  0  0  0  0  0  0  0  0  0
   -1.6576   -3.9747    0.0000 N   0  0  0  0  0  0  0  0  0  0  0  0
    2.8564   -1.6544    0.0000 N   0  0  0  0  0  0  0  0  0  0  0  0
    0.7191    2.0616    0.0000 N   0  0  0  0  0  0  0  0  0  0  0  0
    5.7184    0.8159    0.0000 N   0  0  3  0  0  0  0  0  0  0  0  0
   -0.2834   -3.5831    0.0000 C   0  0  3  0  0  0  0  0  0  0  0  0
    0.3998   -4.0455    0.0000 C   0  0  3  0  0  0  0  0  0  0  0  0
   -0.3423   -4.4060    0.0000 C   0  0  0  0  0  0  0  0  0  0  0  0
   -1.0835   -3.3822    0.0000 C   0  0  0  0  0  0  0  0  0  0  0  0
   -0.0936   -1.4086    0.0000 C   0  0  3  0  0  0  0  0  0  0  0  0
   -0.4304   -2.1617    0.0000 C   0  0  0  0  0  0  0  0  0  0  0  0
    1.2227   -4.1044    0.0000 C   0  0  0  0  0  0  0  0  0  0  0  0
    0.0012    0.0003    0.0000 C   0  0  3  0  0  0  0  0  0  0  0  0
   -0.5049   -0.6935    0.0000 C   0  0  0  0  0  0  0  0  0  0  0  0
   -3.2579   -3.5729    0.0000 C   0  0  0  0  0  0  0  0  0  0  0  0
    1.4275   -1.6521    0.0000 C   0  0  0  0  0  0  0  0  0  0  0  0
    0.7150   -0.4134    0.0000 C   0  0  0  0  0  0  0  0  0  0  0  0
    2.1426   -1.2408    0.0000 C   0  0  3  0  0  0  0  0  0  0  0  0
    5.0005   -1.2455    0.0000 C   0  0  3  0  0  0  0  0  0  0  0  0
    4.7548   -0.1726    0.0000 C   0  0  3  0  0  0  0  0  0  0  0  0
    5.7156   -0.8341    0.0000 C   0  0  0  0  0  0  0  0  0  0  0  0
   -3.1990   -2.7500    0.0000 C   0  0  0  0  0  0  0  0  0  0  0  0
   -3.9411   -3.1104    0.0000 C   0  0  0  0  0  0  0  0  0  0  0  0
    2.1413   -2.0658    0.0000 C   0  0  0  0  0  0  0  0  0  0  0  0
    1.5832   -4.8465    0.0000 C   0  0  0  0  0  0  0  0  0  0  0  0
    3.5715   -1.2431    0.0000 C   0  0  0  0  0  0  0  0  0  0  0  0
    0.7177    1.2366    0.0000 C   0  0  0  0  0  0  0  0  0  0  0  0
   -3.5947   -4.3260    0.0000 C   0  0  0  0  0  0  0  0  0  0  0  0
    4.2881   -0.0068    0.0000 C   0  0  0  0  0  0  0  0  0  0  0  0
    1.4315    0.8229    0.0000 C   0  0  0  0  0  0  0  0  0  0  0  0
    2.1399   -2.8908    0.0000 C   0  0  0  0  0  0  0  0  0  0  0  0
    2.9662   -2.0671    0.0000 C   0  0  0  0  0  0  0  0  0  0  0  0
    1.3163   -2.0644    0.0000 C   0  0  0  0  0  0  0  0  0  0  0  0
    2.1467    1.2342    0.0000 C   0  0  0  0  0  0  0  0  0  0  0  0
    1.4343    2.4729    0.0000 C   0  0  0  0  0  0  0  0  0  0  0  0
    2.1480    2.0592    0.0000 C   0  0  0  0  0  0  0  0  0  0  0  0
    4.0423    1.0661    0.0000 C   0  0  0  0  0  0  0  0  0  0  0  0
    1.8996    1.4821    0.0000 C   0  0  0  0  0  0  0  0  0  0  0  0
    3.3285    1.4798    0.0000 C   0  0  0  0  0  0  0  0  0  0  0  0
    2.6134    1.0685    0.0000 C   0  0  0  0  0  0  0  0  0  0  0  0
    1.4356    3.2979    0.0000 C   0  0  0  0  0  0  0  0  0  0  0  0
    2.8632    2.4706    0.0000 C   0  0  0  0  0  0  0  0  0  0  0  0
    2.1508    3.7092    0.0000 C   0  0  0  0  0  0  0  0  0  0  0  0
    2.8645    3.2956    0.0000 C   0  0  0  0  0  0  0  0  0  0  0  0
    3.5756    1.2319    0.0000 C   0  0  0  0  0  0  0  0  0  0  0  0
    4.2894    0.8182    0.0000 C   0  0  0  0  0  0  0  0  0  0  0  0
    5.0046    1.2295    0.0000 C   0  0  0  0  0  0  0  0  0  0  0  0
    5.7170   -0.0091    0.0000 C   0  0  0  0  0  0  0  0  0  0  0  0
    6.4335    1.2272    0.0000 C   0  0  0  0  0  0  0  0  0  0  0  0
    6.4349    2.0522    0.0000 C   0  0  3  0  0  0  0  0  0  0  0  0
    7.1500    2.4635    0.0000 C   0  0  0  0  0  0  0  0  0  0  0  0
    6.4308   -0.4228    0.0000 C   0  0  0  0  0  0  0  0  0  0  0  0
    5.0018   -0.4205    0.0000 C   0  0  0  0  0  0  0  0  0  0  0  0
    7.1514    3.2885    0.0000 C   0  0  0  0  0  0  0  0  0  0  0  0
    7.8638    2.0498    0.0000 C   0  0  0  0  0  0  0  0  0  0  0  0
    7.8665    3.6998    0.0000 C   0  0  0  0  0  0  0  0  0  0  0  0
    8.5803    3.2862    0.0000 C   0  0  0  0  0  0  0  0  0  0  0  0
    8.5790    2.4612    0.0000 C   0  0  0  0  0  0  0  0  0  0  0  0
    0.6697   -3.2659    0.0000 H   0  0  0  0  0  0  0  0  0  0  0  0
   -0.9175   -1.4504    0.0000 H   0  0  0  0  0  0  0  0  0  0  0  0
   -0.7829    0.2566    0.0000 H   0  0  0  0  0  0  0  0  0  0  0  0
    1.7289   -1.9545    0.0000 H   0  0  0  0  0  0  0  0  0  0  0  0
    5.4118   -1.9606    0.0000 H   0  0  0  0  0  0  0  0  0  0  0  0
    5.1300    0.5622    0.0000 H   0  0  0  0  0  0  0  0  0  0  0  0
  1  6  2  0  0  0  0
  1  7  2  0  0  0  0
  1 16  1  0  0  0  0
  1 29  1  0  0  0  0
  2 23  2  0  0  0  0
  3 25  2  0  0  0  0
  4 27  1  0  0  0  0
  4 41  1  0  0  0  0
  5 33  1  0  0  0  0
  5 40  1  0  0  0  0
  8 30  2  0  0  0  0
  9 40  2  0  0  0  0
 10 48  1  0  0  0  0
 10 59  1  0  0  0  0
 11 64  1  0  0  0  0
 12 70  1  0  0  0  0
 13 71  1  0  0  0  0
 20 14  1  1  0  0  0
 14 25  1  0  0  0  0
 15 24  1  0  0  0  0
 15 30  1  0  0  0  0
 15 31  1  0  0  0  0
 16 23  1  0  0  0  0
 17 32  1  0  0  0  0
 17 40  1  0  0  0  0
 18 41  2  0  0  0  0
 18 49  1  0  0  0  0
 19 61  1  0  0  0  0
 19 62  1  0  0  0  0
 19 63  1  0  0  0  0
 20 21  1  0  0  0  0
 20 22  1  0  0  0  0
 20 23  1  6  0  0  0
 21 22  1  0  0  0  0
 21 26  1  6  0  0  0
 21 73  1  1  0  0  0
 24 25  1  0  0  0  0
 24 28  1  0  0  0  0
 24 74  1  1  0  0  0
 26 39  2  0  0  0  0
 27 28  1  0  0  0  0
 27 31  1  0  0  0  0
 27 75  1  6  0  0  0
 29 36  1  0  0  0  0
 29 37  1  0  0  0  0
 29 42  1  0  0  0  0
 30 32  1  0  0  0  0
 32 38  1  0  0  0  0
 32 76  1  6  0  0  0
 33 34  1  0  0  0  0
 33 35  1  0  0  0  0
 33 77  1  6  0  0  0
 34 35  1  0  0  0  0
 34 43  1  0  0  0  0
 34 78  1  1  0  0  0
 36 37  1  0  0  0  0
 38 45  1  0  0  0  0
 38 46  1  0  0  0  0
 38 47  1  0  0  0  0
 41 44  1  0  0  0  0
 43 51  1  0  0  0  0
 44 48  2  0  0  0  0
 44 52  1  0  0  0  0
 48 50  1  0  0  0  0
 49 50  2  0  0  0  0
 49 55  1  0  0  0  0
 50 56  1  0  0  0  0
 51 53  1  0  0  0  0
 52 54  1  0  0  0  0
 53 54  1  0  0  0  0
 55 57  2  0  0  0  0
 56 58  2  0  0  0  0
 57 58  1  0  0  0  0
 59 60  1  0  0  0  0
 60 61  1  0  0  0  0
 62 66  1  0  0  0  0
 62 67  1  0  0  0  0
 63 64  1  0  0  0  0
 64 65  1  0  0  0  0
 65 68  2  0  0  0  0
 65 69  1  0  0  0  0
 68 70  1  0  0  0  0
 69 72  2  0  0  0  0
 70 71  2  0  0  0  0
 71 72  1  0  0  0  0
M  END
> <PUBCHEM_COMPOUND_ID_TYPE>
0

> <PUBCHEM_TOTAL_CHARGE>
0

> <PUBCHEM_SUBSTANCE_ID>
310929689

> <PUBCHEM_SUBSTANCE_VERSION>
1

> <PUBCHEM_EXT_DATASOURCE_NAME>
4488

> <PUBCHEM_EXT_DATASOURCE_REGID>
SCHEMBL16106880

> <PUBCHEM_SUBSTANCE_COMMENT>
InChI=1S/C53H72N6O12S/c1-8-34-28-53(34,49(65)57-72(67,68)52(7)21-22-52)56-46(63)39-27-35-29-59(39)48(64)45(51(4,5)6)55-50(66)71-43-26-33(43)15-10-9-11-17-37-44(36-16-12-13-18-38(36)54-47(37)70-35)69-24-14-23-58(31(2)3)30-42(62)32-19-20-40(60)41(61)25-32/h8,12-13,16,18-20,25,31,33-35,39,42-43,45,60-62H,1,9-11,14-15,17,21-24,26-30H2,2-7H3,(H,55,66)(H,56,63)(H,57,65)/t33-,34-,35-,39+,42?,43-,45-,53-/m1/s1
InChIKey=CIEAYCKCEUTQEE-IFYIQPIISA-N

> <PUBCHEM_SUBSTANCE_SYNONYM>
SCHEMBL16106880

> <PUBCHEM_XREF_EXT_ID>
SCHEMBL16106880

> <PUBCHEM_EXT_DATASOURCE_URL>
https://www.surechembl.org/

> <PUBCHEM_EXT_SUBSTANCE_URL>
https://www.surechembl.org/chemical/SCHEMBL16106880

> <PUBCHEM_CID_ASSOCIATIONS>
117598987  1

> <PUBCHEM_COORDINATE_TYPE>
1
3

> <PUBCHEM_BONDANNOTATIONS>
20  14  5
20  23  6
21  26  6
21  73  5
24  74  5
27  75  6
32  76  6
33  77  6
34  78  5

$$$$
