310931892
  -OEChem-07211613022D

 30 32  0     1  0  0  0  0  0999 V2000
    0.0000   -2.0126    0.0000 F   0  0  0  0  0  0  0  0  0  0  0  0
    0.0000   -3.4453    0.0000 F   0  0  0  0  0  0  0  0  0  0  0  0
    0.8187   -2.0126    0.0000 F   0  0  0  0  0  0  0  0  0  0  0  0
    0.4094   -5.1851    0.0000 F   0  0  0  0  0  0  0  0  0  0  0  0
    3.8888   -1.4327    0.0000 O   0  0  0  0  0  0  0  0  0  0  0  0
    3.2065   -5.1851    0.0000 O   0  0  0  0  0  0  0  0  0  0  0  0
    4.6392   -1.9103    0.0000 O   0  0  0  0  0  0  0  0  0  0  0  0
    5.3556   -3.1383    0.0000 O   0  0  0  0  0  0  0  0  0  0  0  0
    2.5584   -1.4327    0.0000 N   0  0  0  0  0  0  0  0  0  0  0  0
    2.8313   -0.6823    0.0000 N   0  0  0  0  0  0  0  0  0  0  0  0
    1.8079   -4.3663    0.0000 C   0  0  0  0  0  0  0  0  0  0  0  0
    2.5243   -3.1383    0.0000 C   0  0  0  0  0  0  0  0  0  0  0  0
    1.0916   -3.1383    0.0000 C   0  0  0  0  0  0  0  0  0  0  0  0
    1.8079   -5.1851    0.0000 C   0  0  0  0  0  0  0  0  0  0  0  0
    3.2407   -2.7289    0.0000 C   0  0  3  0  0  0  0  0  0  0  0  0
    2.5243   -3.9570    0.0000 C   0  0  0  0  0  0  0  0  0  0  0  0
    1.0916   -3.9570    0.0000 C   0  0  0  0  0  0  0  0  0  0  0  0
    1.8079   -2.7289    0.0000 C   0  0  0  0  0  0  0  0  0  0  0  0
    0.4094   -2.7289    0.0000 C   0  0  0  0  0  0  0  0  0  0  0  0
    3.2407   -1.9103    0.0000 C   0  0  0  0  0  0  0  0  0  0  0  0
    2.5243   -5.5944    0.0000 C   0  0  0  0  0  0  0  0  0  0  0  0
    1.0916   -5.5944    0.0000 C   0  0  0  0  0  0  0  0  0  0  0  0
    3.9229   -3.1383    0.0000 C   0  0  0  0  0  0  0  0  0  0  0  0
    2.5243   -6.4131    0.0000 C   0  0  0  0  0  0  0  0  0  0  0  0
    3.6500   -0.6481    0.0000 C   0  0  0  0  0  0  0  0  0  0  0  0
    1.0916   -6.4131    0.0000 C   0  0  0  0  0  0  0  0  0  0  0  0
    1.8079   -6.8224    0.0000 C   0  0  0  0  0  0  0  0  0  0  0  0
    4.6392   -2.7289    0.0000 C   0  0  0  0  0  0  0  0  0  0  0  0
    4.1276    0.0000    0.0000 C   0  0  0  0  0  0  0  0  0  0  0  0
    3.2065   -4.3663    0.0000 C   0  0  0  0  0  0  0  0  0  0  0  0
  1 19  1  0  0  0  0
  2 19  1  0  0  0  0
  3 19  1  0  0  0  0
  4 22  1  0  0  0  0
  5 20  1  0  0  0  0
  5 25  1  0  0  0  0
  6 21  1  0  0  0  0
  6 30  1  0  0  0  0
  7 28  2  0  0  0  0
  8 28  1  0  0  0  0
  9 10  1  0  0  0  0
  9 20  2  0  0  0  0
 10 25  2  0  0  0  0
 11 14  1  0  0  0  0
 11 16  2  0  0  0  0
 11 17  1  0  0  0  0
 12 15  1  0  0  0  0
 12 16  1  0  0  0  0
 12 18  2  0  0  0  0
 13 17  2  0  0  0  0
 13 18  1  0  0  0  0
 13 19  1  0  0  0  0
 14 21  1  0  0  0  0
 14 22  2  0  0  0  0
 15 20  1  0  0  0  0
 15 23  1  0  0  0  0
 21 24  2  0  0  0  0
 22 26  1  0  0  0  0
 23 28  1  0  0  0  0
 24 27  1  0  0  0  0
 25 29  1  0  0  0  0
 26 27  2  0  0  0  0
M  END
> <PUBCHEM_COMPOUND_ID_TYPE>
0

> <PUBCHEM_TOTAL_CHARGE>
0

> <PUBCHEM_SUBSTANCE_ID>
310931892

> <PUBCHEM_SUBSTANCE_VERSION>
1

> <PUBCHEM_EXT_DATASOURCE_NAME>
4488

> <PUBCHEM_EXT_DATASOURCE_REGID>
SCHEMBL16109227

> <PUBCHEM_SUBSTANCE_COMMENT>
InChI=1S/C20H16F4N2O4/c1-10-25-26-19(30-10)14(9-17(27)28)11-6-12(8-13(7-11)20(22,23)24)18-15(21)4-3-5-16(18)29-2/h3-8,14H,9H2,1-2H3,(H,27,28)
InChIKey=GAZDWOGJKIZCKP-UHFFFAOYSA-N

> <PUBCHEM_SUBSTANCE_SYNONYM>
SCHEMBL16109227

> <PUBCHEM_XREF_EXT_ID>
SCHEMBL16109227

> <PUBCHEM_EXT_DATASOURCE_URL>
https://www.surechembl.org/

> <PUBCHEM_EXT_SUBSTANCE_URL>
https://www.surechembl.org/chemical/SCHEMBL16109227

> <PUBCHEM_CID_ASSOCIATIONS>
86282077  1

> <PUBCHEM_COORDINATE_TYPE>
1
3

$$$$
