310943767
  -OEChem-07211613022D

 32 35  0     1  0  0  0  0  0999 V2000
    1.0234   -1.4256    0.0000 F   0  0  0  0  0  0  0  0  0  0  0  0
    2.6119   -0.4887    0.0000 F   0  0  0  0  0  0  0  0  0  0  0  0
    3.2127    0.8452    0.0000 N   0  0  3  0  0  0  0  0  0  0  0  0
   -3.2737   -1.2321    0.0000 N   0  0  3  0  0  0  0  0  0  0  0  0
    4.9844    0.3055    0.0000 N   0  0  3  0  0  0  0  0  0  0  0  0
   -5.0455   -0.6822    0.0000 N   0  0  3  0  0  0  0  0  0  0  0  0
    0.2902    0.0408    0.0000 C   0  0  0  0  0  0  0  0  0  0  0  0
    1.0132   -0.3768    0.0000 C   0  0  0  0  0  0  0  0  0  0  0  0
    1.7056    0.0408    0.0000 C   0  0  0  0  0  0  0  0  0  0  0  0
    1.7056    0.8656    0.0000 C   0  0  0  0  0  0  0  0  0  0  0  0
   -0.4225   -0.3869    0.0000 C   0  0  0  0  0  0  0  0  0  0  0  0
    0.3105    0.8656    0.0000 C   0  0  0  0  0  0  0  0  0  0  0  0
    0.9928    1.2728    0.0000 C   0  0  0  0  0  0  0  0  0  0  0  0
    2.4081    1.2831    0.0000 C   0  0  0  0  0  0  0  0  0  0  0  0
   -1.1354    0.0204    0.0000 C   0  0  0  0  0  0  0  0  0  0  0  0
   -0.4225   -1.2219    0.0000 C   0  0  0  0  0  0  0  0  0  0  0  0
   -1.8482   -1.2219    0.0000 C   0  0  0  0  0  0  0  0  0  0  0  0
   -1.8278   -0.3869    0.0000 C   0  0  0  0  0  0  0  0  0  0  0  0
   -1.1455   -1.6292    0.0000 C   0  0  0  0  0  0  0  0  0  0  0  0
   -2.5508   -1.6394    0.0000 C   0  0  0  0  0  0  0  0  0  0  0  0
    3.5181    0.0814    0.0000 C   0  0  0  0  0  0  0  0  0  0  0  0
    3.6301    1.5783    0.0000 C   0  0  0  0  0  0  0  0  0  0  0  0
    4.3124   -0.1629    0.0000 C   0  0  0  0  0  0  0  0  0  0  0  0
   -3.9457   -1.6904    0.0000 C   0  0  0  0  0  0  0  0  0  0  0  0
   -3.2127   -0.3971    0.0000 C   0  0  0  0  0  0  0  0  0  0  0  0
    4.4550    1.6904    0.0000 C   0  0  0  0  0  0  0  0  0  0  0  0
    5.0353    1.1405    0.0000 C   0  0  0  0  0  0  0  0  0  0  0  0
   -4.7502   -1.4358    0.0000 C   0  0  0  0  0  0  0  0  0  0  0  0
   -3.8134    0.1629    0.0000 C   0  0  0  0  0  0  0  0  0  0  0  0
   -4.6382    0.0509    0.0000 C   0  0  0  0  0  0  0  0  0  0  0  0
    5.8805   -0.2138    0.0000 C   0  0  0  0  0  0  0  0  0  0  0  0
   -5.8805   -0.6822    0.0000 C   0  0  0  0  0  0  0  0  0  0  0  0
  1  8  1  0  0  0  0
  2  9  1  0  0  0  0
  3 14  1  0  0  0  0
  3 21  1  0  0  0  0
  3 22  1  0  0  0  0
  4 20  1  0  0  0  0
  4 24  1  0  0  0  0
  4 25  1  0  0  0  0
  5 23  1  0  0  0  0
  5 27  1  0  0  0  0
  5 31  1  0  0  0  0
  6 28  1  0  0  0  0
  6 30  1  0  0  0  0
  6 32  1  0  0  0  0
  7  8  2  0  0  0  0
  7 11  1  0  0  0  0
  7 12  1  0  0  0  0
  8  9  1  0  0  0  0
  9 10  2  0  0  0  0
 10 13  1  0  0  0  0
 10 14  1  0  0  0  0
 11 15  2  0  0  0  0
 11 16  1  0  0  0  0
 12 13  2  0  0  0  0
 15 18  1  0  0  0  0
 16 19  2  0  0  0  0
 17 18  2  0  0  0  0
 17 19  1  0  0  0  0
 17 20  1  0  0  0  0
 21 23  1  0  0  0  0
 22 26  1  0  0  0  0
 24 28  1  0  0  0  0
 25 29  1  0  0  0  0
 26 27  1  0  0  0  0
 29 30  1  0  0  0  0
M  END
> <PUBCHEM_COMPOUND_ID_TYPE>
0

> <PUBCHEM_TOTAL_CHARGE>
0

> <PUBCHEM_SUBSTANCE_ID>
310943767

> <PUBCHEM_SUBSTANCE_VERSION>
1

> <PUBCHEM_EXT_DATASOURCE_NAME>
4488

> <PUBCHEM_EXT_DATASOURCE_REGID>
SCHEMBL16121836

> <PUBCHEM_SUBSTANCE_COMMENT>
InChI=1S/C26H36F2N4/c1-29-11-3-13-31(17-15-29)19-21-5-7-22(8-6-21)24-10-9-23(25(27)26(24)28)20-32-14-4-12-30(2)16-18-32/h5-10H,3-4,11-20H2,1-2H3
InChIKey=MRNZJSWWGMFFPS-UHFFFAOYSA-N

> <PUBCHEM_SUBSTANCE_SYNONYM>
SCHEMBL16121836

> <PUBCHEM_XREF_EXT_ID>
SCHEMBL16121836

> <PUBCHEM_EXT_DATASOURCE_URL>
https://www.surechembl.org/

> <PUBCHEM_EXT_SUBSTANCE_URL>
https://www.surechembl.org/chemical/SCHEMBL16121836

> <PUBCHEM_CID_ASSOCIATIONS>
117610129  1

> <PUBCHEM_COORDINATE_TYPE>
1
3

$$$$
