310946432
  -OEChem-07211613022D

 21 20  0     1  0  0  0  0  0999 V2000
   -2.5006   -0.6089    0.0000 O   0  0  0  0  0  0  0  0  0  0  0  0
    1.0717   -1.0214    0.0000 O   0  0  0  0  0  0  0  0  0  0  0  0
   -0.7401   -4.7043    0.0000 O   0  0  0  0  0  0  0  0  0  0  0  0
   -3.9296   -0.6089    0.0000 O   0  0  0  0  0  0  0  0  0  0  0  0
    2.5006   -1.0214    0.0000 O   0  5  0  0  0  0  0  0  0  0  0  0
    1.7862    0.2161    0.0000 O   0  0  0  0  0  0  0  0  0  0  0  0
   -0.7401   -6.1332    0.0000 O   0  0  0  0  0  0  0  0  0  0  0  0
   -3.2151   -1.8464    0.0000 N   0  0  0  0  0  0  0  0  0  0  0  0
    1.7862   -0.6089    0.0000 N   0  3  0  0  0  0  0  0  0  0  0  0
    0.4974   -3.9898    0.0000 N   0  0  0  0  0  0  0  0  0  0  0  0
   -3.2151   -1.0214    0.0000 C   0  0  0  0  0  0  0  0  0  0  0  0
   -0.3276   -3.9898    0.0000 C   0  0  3  0  0  0  0  0  0  0  0  0
   -1.7862   -1.0214    0.0000 C   0  0  0  0  0  0  0  0  0  0  0  0
   -2.8026   -2.5609    0.0000 C   0  0  0  0  0  0  0  0  0  0  0  0
   -0.7401   -3.2754    0.0000 C   0  0  0  0  0  0  0  0  0  0  0  0
   -1.9776   -2.5609    0.0000 C   0  0  0  0  0  0  0  0  0  0  0  0
   -1.5651   -3.2754    0.0000 C   0  0  0  0  0  0  0  0  0  0  0  0
   -1.0717   -0.6089    0.0000 C   0  0  0  0  0  0  0  0  0  0  0  0
   -0.3572   -1.0214    0.0000 C   0  0  0  0  0  0  0  0  0  0  0  0
    0.3572   -0.6089    0.0000 C   0  0  0  0  0  0  0  0  0  0  0  0
   -0.3276   -5.4188    0.0000 C   0  0  0  0  0  0  0  0  0  0  0  0
  1 11  1  0  0  0  0
  1 13  1  0  0  0  0
  2  9  1  0  0  0  0
  2 20  1  0  0  0  0
  3 12  1  0  0  0  0
  3 21  1  0  0  0  0
  4 11  2  0  0  0  0
  5  9  1  0  0  0  0
  6  9  2  0  0  0  0
  7 21  2  0  0  0  0
  8 11  1  0  0  0  0
  8 14  1  0  0  0  0
 10 12  1  0  0  0  0
 12 15  1  0  0  0  0
 13 18  1  0  0  0  0
 14 16  1  0  0  0  0
 15 17  1  0  0  0  0
 16 17  1  0  0  0  0
 18 19  1  0  0  0  0
 19 20  1  0  0  0  0
M  CHG  2   5  -1   9   1
M  END
> <PUBCHEM_COMPOUND_ID_TYPE>
0

> <PUBCHEM_TOTAL_CHARGE>
0

> <PUBCHEM_SUBSTANCE_ID>
310946432

> <PUBCHEM_SUBSTANCE_VERSION>
1

> <PUBCHEM_EXT_DATASOURCE_NAME>
4488

> <PUBCHEM_EXT_DATASOURCE_REGID>
SCHEMBL16124553

> <PUBCHEM_SUBSTANCE_COMMENT>
InChI=1S/C11H21N3O7/c12-10(20-9-15)5-1-2-6-13-11(16)19-7-3-4-8-21-14(17)18/h9-10H,1-8,12H2,(H,13,16)
InChIKey=PAPDIFXHUBDKSF-UHFFFAOYSA-N

> <PUBCHEM_SUBSTANCE_SYNONYM>
SCHEMBL16124553

> <PUBCHEM_XREF_EXT_ID>
SCHEMBL16124553

> <PUBCHEM_EXT_DATASOURCE_URL>
https://www.surechembl.org/

> <PUBCHEM_EXT_SUBSTANCE_URL>
https://www.surechembl.org/chemical/SCHEMBL16124553

> <PUBCHEM_CID_ASSOCIATIONS>
117612344  1

> <PUBCHEM_COORDINATE_TYPE>
1
3

$$$$
