310946378
  -OEChem-07211613022D

 41 48  0     1  0  0  0  0  0999 V2000
    2.9748   -1.0518    0.0000 O   0  0  0  0  0  0  0  0  0  0  0  0
    0.2613   -0.1182    0.0000 N   0  0  0  0  0  0  0  0  0  0  0  0
   -2.2157   -1.7239    0.0000 C   0  0  0  0  0  0  0  0  0  0  0  0
   -1.4189   -1.5497    0.0000 C   0  0  0  0  0  0  0  0  0  0  0  0
   -1.0083   -2.2717    0.0000 C   0  0  0  0  0  0  0  0  0  0  0  0
   -2.3152   -2.5454    0.0000 C   0  0  0  0  0  0  0  0  0  0  0  0
   -1.5559   -2.8815    0.0000 C   0  0  0  0  0  0  0  0  0  0  0  0
    1.7052   -0.6534    0.0000 C   0  0  0  0  0  0  0  0  0  0  0  0
   -0.1618   -0.8402    0.0000 C   0  0  0  0  0  0  0  0  0  0  0  0
    1.0829   -0.1182    0.0000 C   0  0  0  0  0  0  0  0  0  0  0  0
   -0.9833   -0.8402    0.0000 C   0  0  0  0  0  0  0  0  0  0  0  0
    1.7176   -1.4875    0.0000 C   0  0  0  0  0  0  0  0  0  0  0  0
    2.4770   -0.3796    0.0000 C   0  0  0  0  0  0  0  0  0  0  0  0
   -0.1618   -2.2592    0.0000 C   0  0  0  0  0  0  0  0  0  0  0  0
    2.5019   -1.7364    0.0000 C   0  0  0  0  0  0  0  0  0  0  0  0
   -0.1743    0.6036    0.0000 C   0  0  0  0  0  0  0  0  0  0  0  0
    0.2489   -1.5497    0.0000 C   0  0  0  0  0  0  0  0  0  0  0  0
   -2.9748   -3.0308    0.0000 C   0  0  0  0  0  0  0  0  0  0  0  0
   -1.4687   -3.7030    0.0000 C   0  0  0  0  0  0  0  0  0  0  0  0
    1.2448    0.6907    0.0000 C   0  0  0  0  0  0  0  0  0  0  0  0
   -2.9375   -2.1346    0.0000 C   0  0  0  0  0  0  0  0  0  0  0  0
   -2.9375   -1.3132    0.0000 C   0  0  0  0  0  0  0  0  0  0  0  0
    2.6513    0.4170    0.0000 C   0  0  0  0  0  0  0  0  0  0  0  0
    1.1203   -2.0599    0.0000 C   0  0  0  0  0  0  0  0  0  0  0  0
    2.0289    0.9647    0.0000 C   0  0  0  0  0  0  0  0  0  0  0  0
   -2.8877   -3.8524    0.0000 C   0  0  0  0  0  0  0  0  0  0  0  0
   -2.1408   -4.1884    0.0000 C   0  0  0  0  0  0  0  0  0  0  0  0
    2.7011   -2.5330    0.0000 C   0  0  0  0  0  0  0  0  0  0  0  0
    0.2489    1.3132    0.0000 C   0  0  0  0  0  0  0  0  0  0  0  0
   -0.9958    0.6161    0.0000 C   0  0  0  0  0  0  0  0  0  0  0  0
    1.3070   -2.8566    0.0000 C   0  0  0  0  0  0  0  0  0  0  0  0
   -0.9958    2.0351    0.0000 C   0  0  3  0  0  0  0  0  0  0  0  0
    2.0911   -3.1055    0.0000 C   0  0  0  0  0  0  0  0  0  0  0  0
   -0.1618    2.0226    0.0000 C   0  0  0  0  0  0  0  0  0  0  0  0
   -1.4065    1.3132    0.0000 C   0  0  0  0  0  0  0  0  0  0  0  0
   -1.4065    2.7571    0.0000 C   0  0  0  0  0  0  0  0  0  0  0  0
   -0.9958    3.4789    0.0000 C   0  0  0  0  0  0  0  0  0  0  0  0
   -2.2281    2.7571    0.0000 C   0  0  0  0  0  0  0  0  0  0  0  0
   -1.4065    4.1884    0.0000 C   0  0  0  0  0  0  0  0  0  0  0  0
   -2.6388    3.4664    0.0000 C   0  0  0  0  0  0  0  0  0  0  0  0
   -2.2281    4.1884    0.0000 C   0  0  0  0  0  0  0  0  0  0  0  0
  1 13  1  0  0  0  0
  1 15  1  0  0  0  0
  2  9  1  0  0  0  0
  2 10  1  0  0  0  0
  2 16  1  0  0  0  0
  3  4  1  0  0  0  0
  3  6  1  0  0  0  0
  3 21  1  0  0  0  0
  3 22  1  0  0  0  0
  4  5  2  0  0  0  0
  4 11  1  0  0  0  0
  5  7  1  0  0  0  0
  5 14  1  0  0  0  0
  6  7  2  0  0  0  0
  6 18  1  0  0  0  0
  7 19  1  0  0  0  0
  8 10  1  0  0  0  0
  8 12  1  0  0  0  0
  8 13  2  0  0  0  0
  9 11  2  0  0  0  0
  9 17  1  0  0  0  0
 10 20  2  0  0  0  0
 12 15  2  0  0  0  0
 12 24  1  0  0  0  0
 13 23  1  0  0  0  0
 14 17  2  0  0  0  0
 15 28  1  0  0  0  0
 16 29  2  0  0  0  0
 16 30  1  0  0  0  0
 18 26  2  0  0  0  0
 19 27  2  0  0  0  0
 20 25  1  0  0  0  0
 23 25  2  0  0  0  0
 24 31  2  0  0  0  0
 26 27  1  0  0  0  0
 28 33  2  0  0  0  0
 29 34  1  0  0  0  0
 30 35  2  0  0  0  0
 31 33  1  0  0  0  0
 32 34  1  0  0  0  0
 32 35  1  0  0  0  0
 32 36  1  0  0  0  0
 36 37  2  0  0  0  0
 36 38  1  0  0  0  0
 37 39  1  0  0  0  0
 38 40  2  0  0  0  0
 39 41  2  0  0  0  0
 40 41  1  0  0  0  0
M  END
> <PUBCHEM_COMPOUND_ID_TYPE>
0

> <PUBCHEM_TOTAL_CHARGE>
0

> <PUBCHEM_SUBSTANCE_ID>
310946378

> <PUBCHEM_SUBSTANCE_VERSION>
1

> <PUBCHEM_EXT_DATASOURCE_NAME>
4488

> <PUBCHEM_EXT_DATASOURCE_REGID>
SCHEMBL16124497

> <PUBCHEM_SUBSTANCE_COMMENT>
InChI=1S/C39H31NO/c1-39(2)33-15-8-6-13-30(33)31-24-23-29(25-34(31)39)40(28-21-19-27(20-22-28)26-11-4-3-5-12-26)35-16-10-18-37-38(35)32-14-7-9-17-36(32)41-37/h3-19,21-25,27H,20H2,1-2H3
InChIKey=IOYORNMUQFINOO-UHFFFAOYSA-N

> <PUBCHEM_SUBSTANCE_SYNONYM>
SCHEMBL16124497

> <PUBCHEM_XREF_EXT_ID>
SCHEMBL16124497

> <PUBCHEM_EXT_DATASOURCE_URL>
https://www.surechembl.org/

> <PUBCHEM_EXT_SUBSTANCE_URL>
https://www.surechembl.org/chemical/SCHEMBL16124497

> <PUBCHEM_CID_ASSOCIATIONS>
117612300  1

> <PUBCHEM_COORDINATE_TYPE>
1
3

$$$$
