310930179
  -OEChem-07211613022D

 28 30  0     1  0  0  0  0  0999 V2000
    1.5150   -8.7820    0.0000 S   0  0  0  0  0  0  0  0  0  0  0  0
    2.2295   -8.3695    0.0000 O   0  0  0  0  0  0  0  0  0  0  0  0
    0.8006   -9.1945    0.0000 O   0  0  0  0  0  0  0  0  0  0  0  0
    1.9275   -9.4965    0.0000 O   0  0  0  0  0  0  0  0  0  0  0  0
    1.1025   -8.0675    0.0000 O   0  0  0  0  0  0  0  0  0  0  0  0
    5.0404   -0.8721    0.0000 N   0  0  0  0  0  0  0  0  0  0  0  0
    3.7055   -0.8721    0.0000 N   0  0  0  0  0  0  0  0  0  0  0  0
    4.3729   -2.1820    0.0000 N   0  0  0  0  0  0  0  0  0  0  0  0
    3.6584   -5.8945    0.0000 N   0  0  3  0  0  0  0  0  0  0  0  0
    3.6584   -2.5945    0.0000 N   0  0  0  0  0  0  0  0  0  0  0  0
    4.7854   -0.0875    0.0000 C   0  0  0  0  0  0  0  0  0  0  0  0
    3.9604   -0.0875    0.0000 C   0  0  0  0  0  0  0  0  0  0  0  0
    4.3729   -1.3570    0.0000 C   0  0  0  0  0  0  0  0  0  0  0  0
    3.6584   -5.0695    0.0000 C   0  0  0  0  0  0  0  0  0  0  0  0
    5.1979    0.6270    0.0000 C   0  0  0  0  0  0  0  0  0  0  0  0
    3.5479    0.6270    0.0000 C   0  0  0  0  0  0  0  0  0  0  0  0
    3.6584   -3.4195    0.0000 C   0  0  0  0  0  0  0  0  0  0  0  0
    4.3729   -4.6570    0.0000 C   0  0  0  0  0  0  0  0  0  0  0  0
    2.9440   -4.6570    0.0000 C   0  0  0  0  0  0  0  0  0  0  0  0
    4.3729   -3.8320    0.0000 C   0  0  0  0  0  0  0  0  0  0  0  0
    2.9440   -3.8320    0.0000 C   0  0  0  0  0  0  0  0  0  0  0  0
    4.7854    1.3415    0.0000 C   0  0  0  0  0  0  0  0  0  0  0  0
    3.9604    1.3415    0.0000 C   0  0  0  0  0  0  0  0  0  0  0  0
    2.9440   -6.3070    0.0000 C   0  0  0  0  0  0  0  0  0  0  0  0
    4.3729   -6.3070    0.0000 C   0  0  0  0  0  0  0  0  0  0  0  0
    2.9440   -7.1320    0.0000 C   0  0  0  0  0  0  0  0  0  0  0  0
    2.2295   -7.5445    0.0000 C   0  0  0  0  0  0  0  0  0  0  0  0
    4.3729   -7.1320    0.0000 C   0  0  0  0  0  0  0  0  0  0  0  0
  1  2  1  0  0  0  0
  1  3  2  0  0  0  0
  1  4  2  0  0  0  0
  1  5  1  0  0  0  0
  2 27  1  0  0  0  0
  6 11  1  0  0  0  0
  6 13  2  0  0  0  0
  7 12  1  0  0  0  0
  7 13  1  0  0  0  0
  8 10  2  0  0  0  0
  8 13  1  0  0  0  0
  9 14  1  0  0  0  0
  9 24  1  0  0  0  0
  9 25  1  0  0  0  0
 10 17  1  0  0  0  0
 11 12  2  0  0  0  0
 11 15  1  0  0  0  0
 12 16  1  0  0  0  0
 14 18  2  0  0  0  0
 14 19  1  0  0  0  0
 15 22  2  0  0  0  0
 16 23  2  0  0  0  0
 17 20  2  0  0  0  0
 17 21  1  0  0  0  0
 18 20  1  0  0  0  0
 19 21  2  0  0  0  0
 22 23  1  0  0  0  0
 24 26  1  0  0  0  0
 25 28  1  0  0  0  0
 26 27  1  0  0  0  0
M  END
> <PUBCHEM_COMPOUND_ID_TYPE>
0

> <PUBCHEM_TOTAL_CHARGE>
0

> <PUBCHEM_SUBSTANCE_ID>
310930179

> <PUBCHEM_SUBSTANCE_VERSION>
1

> <PUBCHEM_EXT_DATASOURCE_NAME>
4488

> <PUBCHEM_EXT_DATASOURCE_REGID>
SCHEMBL16107439

> <PUBCHEM_SUBSTANCE_COMMENT>
InChI=1S/C18H21N5O4S/c1-2-23(12-5-13-27-28(24,25)26)15-10-8-14(9-11-15)21-22-18-19-16-6-3-4-7-17(16)20-18/h3-4,6-11H,2,5,12-13H2,1H3,(H,19,20)(H,24,25,26)
InChIKey=FBXYPUAHDQZETI-UHFFFAOYSA-N

> <PUBCHEM_SUBSTANCE_SYNONYM>
SCHEMBL16107439

> <PUBCHEM_XREF_EXT_ID>
SCHEMBL16107439

> <PUBCHEM_EXT_DATASOURCE_URL>
https://www.surechembl.org/

> <PUBCHEM_EXT_SUBSTANCE_URL>
https://www.surechembl.org/chemical/SCHEMBL16107439

> <PUBCHEM_CID_ASSOCIATIONS>
117599394  1

> <PUBCHEM_COORDINATE_TYPE>
1
3

> <PUBCHEM_BONDANNOTATIONS>
10  17  3

$$$$
