310937935
  -OEChem-07211613022D

 40 44  0     1  0  0  0  0  0999 V2000
    4.6189   -5.1251    0.0000 O   0  0  0  0  0  0  0  0  0  0  0  0
    3.2269   -2.5309    0.0000 O   0  0  0  0  0  0  0  0  0  0  0  0
    1.7084  -12.6545    0.0000 O   0  0  0  0  0  0  0  0  0  0  0  0
    3.1636  -12.6545    0.0000 O   0  0  0  0  0  0  0  0  0  0  0  0
    1.0756   -4.4924    0.0000 N   0  0  3  0  0  0  0  0  0  0  0  0
    3.9229   -3.8596    0.0000 N   0  0  0  0  0  0  0  0  0  0  0  0
    1.7084   -8.4785    0.0000 N   0  0  0  0  0  0  0  0  0  0  0  0
    2.4677   -9.6807    0.0000 N   0  0  0  0  0  0  0  0  0  0  0  0
    2.4677  -11.3891    0.0000 N   0  0  0  0  0  0  0  0  0  0  0  0
    3.9862   -1.2654    0.0000 N   0  0  0  0  0  0  0  0  0  0  0  0
    2.4677   -4.6822    0.0000 C   0  0  0  0  0  0  0  0  0  0  0  0
    1.7084   -5.0618    0.0000 C   0  0  0  0  0  0  0  0  0  0  0  0
    3.1636   -5.0618    0.0000 C   0  0  0  0  0  0  0  0  0  0  0  0
    2.4044   -6.3273    0.0000 C   0  0  0  0  0  0  0  0  0  0  0  0
    1.7084   -5.9476    0.0000 C   0  0  0  0  0  0  0  0  0  0  0  0
    3.1636   -5.9476    0.0000 C   0  0  0  0  0  0  0  0  0  0  0  0
    2.2778   -3.7963    0.0000 C   0  0  0  0  0  0  0  0  0  0  0  0
    2.4044   -7.1498    0.0000 C   0  0  0  0  0  0  0  0  0  0  0  0
    3.9229   -4.6822    0.0000 C   0  0  0  0  0  0  0  0  0  0  0  0
    1.4553   -3.7331    0.0000 C   0  0  0  0  0  0  0  0  0  0  0  0
    0.2531   -4.6822    0.0000 C   0  0  0  0  0  0  0  0  0  0  0  0
    1.7084   -7.5927    0.0000 C   0  0  0  0  0  0  0  0  0  0  0  0
    3.1636   -7.5927    0.0000 C   0  0  0  0  0  0  0  0  0  0  0  0
    2.4677   -8.8582    0.0000 C   0  0  0  0  0  0  0  0  0  0  0  0
    3.1636   -8.4152    0.0000 C   0  0  0  0  0  0  0  0  0  0  0  0
    4.6822   -2.5942    0.0000 C   0  0  0  0  0  0  0  0  0  0  0  0
    4.6822   -3.4167    0.0000 C   0  0  0  0  0  0  0  0  0  0  0  0
    3.9862   -2.0880    0.0000 C   0  0  0  0  0  0  0  0  0  0  0  0
    5.3782   -2.1512    0.0000 C   0  0  0  0  0  0  0  0  0  0  0  0
    0.0000   -5.4414    0.0000 C   0  0  0  0  0  0  0  0  0  0  0  0
    1.7084  -10.1236    0.0000 C   0  0  0  0  0  0  0  0  0  0  0  0
    3.1636  -10.1236    0.0000 C   0  0  0  0  0  0  0  0  0  0  0  0
    4.6822   -0.8226    0.0000 C   0  0  0  0  0  0  0  0  0  0  0  0
    5.4414   -1.3287    0.0000 C   0  0  0  0  0  0  0  0  0  0  0  0
    3.1636  -10.9461    0.0000 C   0  0  0  0  0  0  0  0  0  0  0  0
    1.7084  -10.9461    0.0000 C   0  0  0  0  0  0  0  0  0  0  0  0
    2.4677  -12.2116    0.0000 C   0  0  0  0  0  0  0  0  0  0  0  0
    6.1375   -2.5309    0.0000 C   0  0  0  0  0  0  0  0  0  0  0  0
    0.5695   -6.0742    0.0000 C   0  0  0  0  0  0  0  0  0  0  0  0
    4.7454    0.0000    0.0000 C   0  0  0  0  0  0  0  0  0  0  0  0
  1 19  2  0  0  0  0
  2 28  2  0  0  0  0
  3 37  2  0  0  0  0
  4 37  1  0  0  0  0
  5 12  1  0  0  0  0
  5 20  1  0  0  0  0
  5 21  1  0  0  0  0
  6 19  1  0  0  0  0
  6 27  1  0  0  0  0
  7 22  2  0  0  0  0
  7 24  1  0  0  0  0
  8 24  1  0  0  0  0
  8 31  1  0  0  0  0
  8 32  1  0  0  0  0
  9 35  1  0  0  0  0
  9 36  1  0  0  0  0
  9 37  1  0  0  0  0
 10 28  1  0  0  0  0
 10 33  1  0  0  0  0
 11 12  2  0  0  0  0
 11 13  1  0  0  0  0
 11 17  1  0  0  0  0
 12 15  1  0  0  0  0
 13 16  2  0  0  0  0
 13 19  1  0  0  0  0
 14 15  2  0  0  0  0
 14 16  1  0  0  0  0
 14 18  1  0  0  0  0
 17 20  1  0  0  0  0
 18 22  1  0  0  0  0
 18 23  2  0  0  0  0
 21 30  1  0  0  0  0
 23 25  1  0  0  0  0
 24 25  2  0  0  0  0
 26 27  1  0  0  0  0
 26 28  1  0  0  0  0
 26 29  2  0  0  0  0
 29 34  1  0  0  0  0
 29 38  1  0  0  0  0
 30 39  1  0  0  0  0
 31 36  1  0  0  0  0
 32 35  1  0  0  0  0
 33 34  2  0  0  0  0
 33 40  1  0  0  0  0
M  END
> <PUBCHEM_COMPOUND_ID_TYPE>
0

> <PUBCHEM_TOTAL_CHARGE>
0

> <PUBCHEM_SUBSTANCE_ID>
310937935

> <PUBCHEM_SUBSTANCE_VERSION>
1

> <PUBCHEM_EXT_DATASOURCE_NAME>
4488

> <PUBCHEM_EXT_DATASOURCE_REGID>
SCHEMBL16115764

> <PUBCHEM_SUBSTANCE_COMMENT>
InChI=1S/C30H36N6O4/c1-4-8-34-9-7-23-24(28(37)32-18-25-19(2)14-20(3)33-29(25)38)15-22(16-26(23)34)21-5-6-27(31-17-21)35-10-12-36(13-11-35)30(39)40/h5-6,14-17H,4,7-13,18H2,1-3H3,(H,32,37)(H,33,38)(H,39,40)
InChIKey=SONDJGILBULIMC-UHFFFAOYSA-N

> <PUBCHEM_SUBSTANCE_SYNONYM>
SCHEMBL16115764

> <PUBCHEM_XREF_EXT_ID>
SCHEMBL16115764

> <PUBCHEM_EXT_DATASOURCE_URL>
https://www.surechembl.org/

> <PUBCHEM_EXT_SUBSTANCE_URL>
https://www.surechembl.org/chemical/SCHEMBL16115764

> <PUBCHEM_CID_ASSOCIATIONS>
117605542  1

> <PUBCHEM_COORDINATE_TYPE>
1
3

$$$$
