310932254
  -OEChem-07211613022D

 22 24  0     1  0  0  0  0  0999 V2000
    3.5200   -1.6109    0.0000 O   0  0  0  0  0  0  0  0  0  0  0  0
    4.6536   -3.5598    0.0000 O   0  0  0  0  0  0  0  0  0  0  0  0
    5.3497   -2.3268    0.0000 O   0  0  0  0  0  0  0  0  0  0  0  0
    0.7756    0.0000    0.0000 O   0  0  0  0  0  0  0  0  0  0  0  0
    3.1223   -2.3268    0.0000 C   0  0  3  0  0  0  0  0  0  0  0  0
    3.9377   -2.3268    0.0000 C   0  0  3  0  0  0  0  0  0  0  0  0
    2.5257   -1.7501    0.0000 C   0  0  0  0  0  0  0  0  0  0  0  0
    2.4063   -2.7444    0.0000 C   0  0  0  0  0  0  0  0  0  0  0  0
    4.6536   -2.7444    0.0000 C   0  0  0  0  0  0  0  0  0  0  0  0
    1.7302   -1.9490    0.0000 C   0  0  0  0  0  0  0  0  0  0  0  0
    2.7444   -0.9546    0.0000 C   0  0  0  0  0  0  0  0  0  0  0  0
    2.3865   -3.5598    0.0000 C   0  0  0  0  0  0  0  0  0  0  0  0
    1.6904   -2.3268    0.0000 C   0  0  0  0  0  0  0  0  0  0  0  0
    1.1534   -1.3722    0.0000 C   0  0  0  0  0  0  0  0  0  0  0  0
    2.1677   -0.3779    0.0000 C   0  0  0  0  0  0  0  0  0  0  0  0
    1.6904   -3.9774    0.0000 C   0  0  0  0  0  0  0  0  0  0  0  0
    0.9745   -2.7444    0.0000 C   0  0  0  0  0  0  0  0  0  0  0  0
    1.3722   -0.5768    0.0000 C   0  0  0  0  0  0  0  0  0  0  0  0
    0.9745   -3.5598    0.0000 C   0  0  0  0  0  0  0  0  0  0  0  0
    5.3497   -3.9774    0.0000 C   0  0  0  0  0  0  0  0  0  0  0  0
    0.2585   -3.9774    0.0000 C   0  0  0  0  0  0  0  0  0  0  0  0
    0.0000   -0.2188    0.0000 C   0  0  0  0  0  0  0  0  0  0  0  0
  1  5  1  0  0  0  0
  1  6  1  0  0  0  0
  2  9  1  0  0  0  0
  2 20  1  0  0  0  0
  3  9  2  0  0  0  0
  4 18  1  0  0  0  0
  4 22  1  0  0  0  0
  5  6  1  0  0  0  0
  5  7  1  0  0  0  0
  5  8  1  0  0  0  0
  6  9  1  0  0  0  0
  7 10  2  0  0  0  0
  7 11  1  0  0  0  0
  8 12  2  0  0  0  0
  8 13  1  0  0  0  0
 10 14  1  0  0  0  0
 11 15  2  0  0  0  0
 12 16  1  0  0  0  0
 13 17  2  0  0  0  0
 14 18  2  0  0  0  0
 15 18  1  0  0  0  0
 16 19  2  0  0  0  0
 17 19  1  0  0  0  0
 19 21  1  0  0  0  0
M  END
> <PUBCHEM_COMPOUND_ID_TYPE>
0

> <PUBCHEM_TOTAL_CHARGE>
0

> <PUBCHEM_SUBSTANCE_ID>
310932254

> <PUBCHEM_SUBSTANCE_VERSION>
1

> <PUBCHEM_EXT_DATASOURCE_NAME>
4488

> <PUBCHEM_EXT_DATASOURCE_REGID>
SCHEMBL16109612

> <PUBCHEM_SUBSTANCE_COMMENT>
InChI=1S/C18H18O4/c1-12-4-6-13(7-5-12)18(16(22-18)17(19)21-3)14-8-10-15(20-2)11-9-14/h4-11,16H,1-3H3
InChIKey=WTHBYOIOLALAQL-UHFFFAOYSA-N

> <PUBCHEM_SUBSTANCE_SYNONYM>
SCHEMBL16109612

> <PUBCHEM_XREF_EXT_ID>
SCHEMBL16109612

> <PUBCHEM_EXT_DATASOURCE_URL>
https://www.surechembl.org/

> <PUBCHEM_EXT_SUBSTANCE_URL>
https://www.surechembl.org/chemical/SCHEMBL16109612

> <PUBCHEM_CID_ASSOCIATIONS>
117600826  1

> <PUBCHEM_COORDINATE_TYPE>
1
3

$$$$
