310936611
  -OEChem-07211613022D

 27 29  0     1  0  0  0  0  0999 V2000
    2.4239   -1.2223    0.0000 S   0  0  0  0  0  0  0  0  0  0  0  0
    1.7195    0.0000    0.0000 F   0  0  0  0  0  0  0  0  0  0  0  0
    0.9944   -1.2431    0.0000 F   0  0  0  0  0  0  0  0  0  0  0  0
    2.4239   -0.3937    0.0000 F   0  0  0  0  0  0  0  0  0  0  0  0
    3.1490   -1.6367    0.0000 O   0  0  0  0  0  0  0  0  0  0  0  0
    2.8176   -0.5179    0.0000 O   0  0  0  0  0  0  0  0  0  0  0  0
    2.0096   -1.9474    0.0000 O   0  0  0  0  0  0  0  0  0  0  0  0
    4.5579   -1.6367    0.0000 O   0  0  0  0  0  0  0  0  0  0  0  0
    5.2830   -3.6877    0.0000 O   0  0  0  0  0  0  0  0  0  0  0  0
    5.9874   -2.4654    0.0000 O   0  0  0  0  0  0  0  0  0  0  0  0
    2.4033   -3.7291    0.0000 N   0  0  0  0  0  0  0  0  0  0  0  0
    1.6574   -3.9570    0.0000 N   0  0  0  0  0  0  0  0  0  0  0  0
    2.3825   -2.8797    0.0000 C   0  0  0  0  0  0  0  0  0  0  0  0
    3.1490   -2.4654    0.0000 C   0  0  0  0  0  0  0  0  0  0  0  0
    3.8535   -2.8590    0.0000 C   0  0  0  0  0  0  0  0  0  0  0  0
    1.6367   -2.6518    0.0000 C   0  0  0  0  0  0  0  0  0  0  0  0
    1.1187   -3.3148    0.0000 C   0  0  0  0  0  0  0  0  0  0  0  0
    3.8535   -3.7085    0.0000 C   0  0  0  0  0  0  0  0  0  0  0  0
    3.1490   -4.1435    0.0000 C   0  0  0  0  0  0  0  0  0  0  0  0
    1.7195   -0.8287    0.0000 C   0  0  0  0  0  0  0  0  0  0  0  0
    4.5579   -2.4654    0.0000 C   0  0  3  0  0  0  0  0  0  0  0  0
    1.2637   -1.9060    0.0000 C   0  0  0  0  0  0  0  0  0  0  0  0
    0.3315   -3.2319    0.0000 C   0  0  0  0  0  0  0  0  0  0  0  0
    5.2830   -2.8590    0.0000 C   0  0  0  0  0  0  0  0  0  0  0  0
    4.5785   -4.1021    0.0000 C   0  0  0  0  0  0  0  0  0  0  0  0
    0.4765   -1.8232    0.0000 C   0  0  0  0  0  0  0  0  0  0  0  0
    0.0000   -2.4861    0.0000 C   0  0  0  0  0  0  0  0  0  0  0  0
  1  5  1  0  0  0  0
  1  6  2  0  0  0  0
  1  7  2  0  0  0  0
  1 20  1  0  0  0  0
  2 20  1  0  0  0  0
  3 20  1  0  0  0  0
  4 20  1  0  0  0  0
  5 14  1  0  0  0  0
  8 21  1  0  0  0  0
  9 24  2  0  0  0  0
 10 24  1  0  0  0  0
 11 12  1  0  0  0  0
 11 13  1  0  0  0  0
 11 19  1  0  0  0  0
 12 17  2  0  0  0  0
 13 14  1  0  0  0  0
 13 16  2  0  0  0  0
 14 15  2  0  0  0  0
 15 18  1  0  0  0  0
 15 21  1  0  0  0  0
 16 17  1  0  0  0  0
 16 22  1  0  0  0  0
 17 23  1  0  0  0  0
 18 19  2  0  0  0  0
 18 25  1  0  0  0  0
 21 24  1  0  0  0  0
 22 26  2  0  0  0  0
 23 27  2  0  0  0  0
 26 27  1  0  0  0  0
M  END
> <PUBCHEM_COMPOUND_ID_TYPE>
0

> <PUBCHEM_TOTAL_CHARGE>
0

> <PUBCHEM_SUBSTANCE_ID>
310936611

> <PUBCHEM_SUBSTANCE_VERSION>
1

> <PUBCHEM_EXT_DATASOURCE_NAME>
4488

> <PUBCHEM_EXT_DATASOURCE_REGID>
SCHEMBL16114271

> <PUBCHEM_SUBSTANCE_COMMENT>
InChI=1S/C15H11F3N2O6S/c1-7-6-20-11(8-4-2-3-5-9(8)19-20)13(10(7)12(21)14(22)23)26-27(24,25)15(16,17)18/h2-6,12,21H,1H3,(H,22,23)
InChIKey=WPIHIJRZKIPBAG-UHFFFAOYSA-N

> <PUBCHEM_SUBSTANCE_SYNONYM>
SCHEMBL16114271

> <PUBCHEM_XREF_EXT_ID>
SCHEMBL16114271

> <PUBCHEM_EXT_DATASOURCE_URL>
https://www.surechembl.org/

> <PUBCHEM_EXT_SUBSTANCE_URL>
https://www.surechembl.org/chemical/SCHEMBL16114271

> <PUBCHEM_CID_ASSOCIATIONS>
117604530  1

> <PUBCHEM_COORDINATE_TYPE>
1
3

$$$$
