310928979
  -OEChem-07211613022D

 13 12  0     1  0  0  0  0  0999 V2000
   -2.6112    1.2375    0.0000 Br  0  0  0  0  0  0  0  0  0  0  0  0
    2.6112    0.0000    0.0000 Cl  0  0  0  0  0  0  0  0  0  0  0  0
    0.2467    1.2375    0.0000 F   0  0  0  0  0  0  0  0  0  0  0  0
    0.2467   -1.2375    0.0000 N   0  0  0  0  0  0  0  0  0  0  0  0
   -0.4678   -0.0000    0.0000 C   0  0  0  0  0  0  0  0  0  0  0  0
   -0.4678    0.8250    0.0000 C   0  0  0  0  0  0  0  0  0  0  0  0
   -1.8967    0.8250    0.0000 C   0  0  0  0  0  0  0  0  0  0  0  0
   -1.1822    1.2375    0.0000 C   0  0  0  0  0  0  0  0  0  0  0  0
   -1.1822   -0.4125    0.0000 C   0  0  0  0  0  0  0  0  0  0  0  0
    0.2467   -0.4125    0.0000 C   0  0  3  0  0  0  0  0  0  0  0  0
   -1.8967    0.0000    0.0000 C   0  0  0  0  0  0  0  0  0  0  0  0
    0.9612    0.0000    0.0000 C   0  0  0  0  0  0  0  0  0  0  0  0
    1.7862    0.0000    0.0000 H   0  0  0  0  0  0  0  0  0  0  0  0
  1  7  1  0  0  0  0
  2 13  1  0  0  0  0
  3  6  1  0  0  0  0
 10  4  1  6  0  0  0
  5  6  1  0  0  0  0
  5  9  2  0  0  0  0
  5 10  1  0  0  0  0
  6  8  2  0  0  0  0
  7  8  1  0  0  0  0
  7 11  2  0  0  0  0
  9 11  1  0  0  0  0
 10 12  1  0  0  0  0
M  END
> <PUBCHEM_COMPOUND_ID_TYPE>
0

> <PUBCHEM_TOTAL_CHARGE>
0

> <PUBCHEM_SUBSTANCE_ID>
310928979

> <PUBCHEM_SUBSTANCE_VERSION>
2

> <PUBCHEM_EXT_DATASOURCE_NAME>
11752

> <PUBCHEM_EXT_DATASOURCE_REGID>
BD218762

> <PUBCHEM_SUBSTANCE_SYNONYM>
(S)-1-(4-Bromo-2-fluorophenyl)ethanamine hydrochloride
1311254-85-9

> <PUBCHEM_GENERIC_REGISTRY_NAME>
1311254-85-9

> <PUBCHEM_XREF_EXT_ID>
BD218762

> <PUBCHEM_EXT_DATASOURCE_URL>
http://www.bidepharmatech.com/en/index.html

> <PUBCHEM_EXT_SUBSTANCE_URL>
http://www.bidepharmatech.com/en/goodsview_goodscode_BD218762.html

> <PUBCHEM_CID_ASSOCIATIONS>
56973377  1
313  2
56973378  2

> <PUBCHEM_COORDINATE_TYPE>
1
3

> <PUBCHEM_BONDANNOTATIONS>
10  4  6

$$$$
