310949476
  -OEChem-07211613022D

 30 33  0     1  0  0  0  0  0999 V2000
   -1.9312   -2.0182    0.0000 F   0  0  0  0  0  0  0  0  0  0  0  0
   -4.0750   -2.0569    0.0000 F   0  0  0  0  0  0  0  0  0  0  0  0
   -2.9355   -2.1341    0.0000 F   0  0  0  0  0  0  0  0  0  0  0  0
   -4.0170   -0.8980    0.0000 F   0  0  0  0  0  0  0  0  0  0  0  0
   -0.5407   -1.7285    0.0000 O   0  0  0  0  0  0  0  0  0  0  0  0
   -0.0965   -0.3572    0.0000 N   0  0  0  0  0  0  0  0  0  0  0  0
    1.5836    1.4195    0.0000 N   0  0  0  0  0  0  0  0  0  0  0  0
    0.3283    1.8444    0.0000 N   0  0  0  0  0  0  0  0  0  0  0  0
    1.1009    2.0954    0.0000 N   0  0  0  0  0  0  0  0  0  0  0  0
   -3.0321   -0.1448    0.0000 N   0  0  0  0  0  0  0  0  0  0  0  0
    2.8196    0.7050    0.0000 N   0  0  0  0  0  0  0  0  0  0  0  0
    4.0364    1.4195    0.0000 N   0  0  0  0  0  0  0  0  0  0  0  0
    0.3283    1.0139    0.0000 C   0  0  0  0  0  0  0  0  0  0  0  0
    1.1009    0.7629    0.0000 C   0  0  0  0  0  0  0  0  0  0  0  0
   -0.2704    0.4731    0.0000 C   0  0  3  0  0  0  0  0  0  0  0  0
   -0.7146   -0.8980    0.0000 C   0  0  0  0  0  0  0  0  0  0  0  0
   -1.5064   -0.6470    0.0000 C   0  0  0  0  0  0  0  0  0  0  0  0
   -2.0858   -1.2070    0.0000 C   0  0  0  0  0  0  0  0  0  0  0  0
    1.2939   -0.0483    0.0000 C   0  0  0  0  0  0  0  0  0  0  0  0
    0.6953   -0.6083    0.0000 C   0  0  0  0  0  0  0  0  0  0  0  0
   -2.8776   -0.9367    0.0000 C   0  0  0  0  0  0  0  0  0  0  0  0
    2.4141    1.4195    0.0000 C   0  0  0  0  0  0  0  0  0  0  0  0
   -3.4763   -1.5161    0.0000 C   0  0  0  0  0  0  0  0  0  0  0  0
   -1.6416    0.1448    0.0000 C   0  0  0  0  0  0  0  0  0  0  0  0
   -1.0622    0.7050    0.0000 C   0  0  0  0  0  0  0  0  0  0  0  0
   -2.4335    0.3959    0.0000 C   0  0  0  0  0  0  0  0  0  0  0  0
    2.8196    2.1341    0.0000 C   0  0  0  0  0  0  0  0  0  0  0  0
    3.6309    0.7050    0.0000 C   0  0  0  0  0  0  0  0  0  0  0  0
    3.6502    2.1341    0.0000 C   0  0  0  0  0  0  0  0  0  0  0  0
    4.0750   -0.0289    0.0000 C   0  0  0  0  0  0  0  0  0  0  0  0
  1 18  1  0  0  0  0
  2 23  1  0  0  0  0
  3 23  1  0  0  0  0
  4 23  1  0  0  0  0
  5 16  2  0  0  0  0
  6 15  1  0  0  0  0
  6 16  1  0  0  0  0
  6 20  1  0  0  0  0
  7  9  1  0  0  0  0
  7 14  1  0  0  0  0
  7 22  1  0  0  0  0
  8  9  2  0  0  0  0
  8 13  1  0  0  0  0
 10 21  1  0  0  0  0
 10 26  2  0  0  0  0
 11 22  2  0  0  0  0
 11 28  1  0  0  0  0
 12 28  2  0  0  0  0
 12 29  1  0  0  0  0
 13 14  2  0  0  0  0
 13 15  1  0  0  0  0
 14 19  1  0  0  0  0
 15 25  1  0  0  0  0
 16 17  1  0  0  0  0
 17 18  1  0  0  0  0
 17 24  2  0  0  0  0
 18 21  2  0  0  0  0
 19 20  1  0  0  0  0
 21 23  1  0  0  0  0
 22 27  1  0  0  0  0
 24 26  1  0  0  0  0
 27 29  2  0  0  0  0
 28 30  1  0  0  0  0
M  END
> <PUBCHEM_COMPOUND_ID_TYPE>
0

> <PUBCHEM_TOTAL_CHARGE>
0

> <PUBCHEM_SUBSTANCE_ID>
310949476

> <PUBCHEM_SUBSTANCE_VERSION>
1

> <PUBCHEM_EXT_DATASOURCE_NAME>
4488

> <PUBCHEM_EXT_DATASOURCE_REGID>
SCHEMBL16127670

> <PUBCHEM_SUBSTANCE_COMMENT>
InChI=1S/C18H15F4N7O/c1-9-15-12(29(27-26-15)13-4-7-23-10(2)25-13)5-8-28(9)17(30)11-3-6-24-16(14(11)19)18(20,21)22/h3-4,6-7,9H,5,8H2,1-2H3
InChIKey=IKPNVJJYRHUWIH-UHFFFAOYSA-N

> <PUBCHEM_SUBSTANCE_SYNONYM>
SCHEMBL16127670

> <PUBCHEM_XREF_EXT_ID>
SCHEMBL16127670

> <PUBCHEM_EXT_DATASOURCE_URL>
https://www.surechembl.org/

> <PUBCHEM_EXT_SUBSTANCE_URL>
https://www.surechembl.org/chemical/SCHEMBL16127670

> <PUBCHEM_CID_ASSOCIATIONS>
117614919  1

> <PUBCHEM_COORDINATE_TYPE>
1
3

$$$$
