310944864
  -OEChem-07211613022D

 21 23  0     1  0  0  0  0  0999 V2000
   -2.8566   -0.9551    0.0000 O   0  0  0  0  0  0  0  0  0  0  0  0
   -2.5962    0.4689    0.0000 N   0  0  0  0  0  0  0  0  0  0  0  0
   -3.3950    0.7294    0.0000 N   0  0  0  0  0  0  0  0  0  0  0  0
   -2.0925    1.1288    0.0000 C   0  0  0  0  0  0  0  0  0  0  0  0
   -1.2416    1.1288    0.0000 C   0  0  0  0  0  0  0  0  0  0  0  0
   -2.3357   -0.2952    0.0000 C   0  0  3  0  0  0  0  0  0  0  0  0
   -2.5962    1.7713    0.0000 C   0  0  0  0  0  0  0  0  0  0  0  0
   -3.3776    1.5282    0.0000 C   0  0  0  0  0  0  0  0  0  0  0  0
   -0.8075    1.8060    0.0000 C   0  0  0  0  0  0  0  0  0  0  0  0
   -0.8075    0.4168    0.0000 C   0  0  0  0  0  0  0  0  0  0  0  0
   -1.5368   -0.4168    0.0000 C   0  0  0  0  0  0  0  0  0  0  0  0
    0.4428    1.1288    0.0000 C   0  0  0  0  0  0  0  0  0  0  0  0
    0.0260    1.8060    0.0000 C   0  0  0  0  0  0  0  0  0  0  0  0
    0.0260    0.4168    0.0000 C   0  0  0  0  0  0  0  0  0  0  0  0
   -2.5614   -1.7365    0.0000 C   0  0  0  0  0  0  0  0  0  0  0  0
   -1.2416   -1.1809    0.0000 C   0  0  0  0  0  0  0  0  0  0  0  0
   -1.7279   -1.8234    0.0000 C   0  0  0  0  0  0  0  0  0  0  0  0
    1.2937    1.0941    0.0000 C   0  0  0  0  0  0  0  0  0  0  0  0
    2.1620    1.1288    0.0000 C   0  0  0  0  0  0  0  0  0  0  0  0
    2.9956    1.1114    0.0000 C   0  0  0  0  0  0  0  0  0  0  0  0
    3.3950    1.8234    0.0000 C   0  0  0  0  0  0  0  0  0  0  0  0
  1  6  1  0  0  0  0
  1 15  1  0  0  0  0
  2  3  1  0  0  0  0
  2  4  1  0  0  0  0
  2  6  1  0  0  0  0
  3  8  2  0  0  0  0
  4  5  1  0  0  0  0
  4  7  2  0  0  0  0
  5  9  2  0  0  0  0
  5 10  1  0  0  0  0
  6 11  1  0  0  0  0
  7  8  1  0  0  0  0
  9 13  1  0  0  0  0
 10 14  2  0  0  0  0
 11 16  1  0  0  0  0
 12 13  2  0  0  0  0
 12 14  1  0  0  0  0
 12 18  1  0  0  0  0
 15 17  1  0  0  0  0
 16 17  1  0  0  0  0
 18 19  3  0  0  0  0
 19 20  1  0  0  0  0
 20 21  1  0  0  0  0
M  END
> <PUBCHEM_COMPOUND_ID_TYPE>
0

> <PUBCHEM_TOTAL_CHARGE>
0

> <PUBCHEM_SUBSTANCE_ID>
310944864

> <PUBCHEM_SUBSTANCE_VERSION>
1

> <PUBCHEM_EXT_DATASOURCE_NAME>
4488

> <PUBCHEM_EXT_DATASOURCE_REGID>
SCHEMBL16122946

> <PUBCHEM_SUBSTANCE_COMMENT>
InChI=1S/C18H20N2O/c1-2-3-6-15-8-10-16(11-9-15)17-12-13-19-20(17)18-7-4-5-14-21-18/h8-13,18H,2,4-5,7,14H2,1H3
InChIKey=PIRDRTKCNASFGK-UHFFFAOYSA-N

> <PUBCHEM_SUBSTANCE_SYNONYM>
SCHEMBL16122946

> <PUBCHEM_XREF_EXT_ID>
SCHEMBL16122946

> <PUBCHEM_EXT_DATASOURCE_URL>
https://www.surechembl.org/

> <PUBCHEM_EXT_SUBSTANCE_URL>
https://www.surechembl.org/chemical/SCHEMBL16122946

> <PUBCHEM_CID_ASSOCIATIONS>
117611060  1

> <PUBCHEM_COORDINATE_TYPE>
1
3

$$$$
