310943683
  -OEChem-07211613022D

 42 46  0     1  0  0  0  0  0999 V2000
    2.4503    3.3867    0.0000 O   0  0  0  0  0  0  0  0  0  0  0  0
    0.3084   -3.3867    0.0000 O   0  5  0  0  0  0  0  0  0  0  0  0
    1.7662   -3.3530    0.0000 O   0  0  0  0  0  0  0  0  0  0  0  0
    3.2353    1.9176    0.0000 N   0  0  0  0  0  0  0  0  0  0  0  0
   -3.2801   -0.1570    0.0000 N   0  0  3  0  0  0  0  0  0  0  0  0
    1.0261   -2.9493    0.0000 N   0  3  0  0  0  0  0  0  0  0  0  0
   -1.1158    2.9605    0.0000 N   0  0  0  0  0  0  0  0  0  0  0  0
    5.0070    1.3794    0.0000 N   0  0  3  0  0  0  0  0  0  0  0  0
   -5.0632    0.4037    0.0000 N   0  0  3  0  0  0  0  0  0  0  0  0
    0.2971    1.1101    0.0000 C   0  0  0  0  0  0  0  0  0  0  0  0
    1.0148    0.6953    0.0000 C   0  0  0  0  0  0  0  0  0  0  0  0
   -0.4093    0.6953    0.0000 C   0  0  0  0  0  0  0  0  0  0  0  0
    1.0148   -0.2467    0.0000 C   0  0  0  0  0  0  0  0  0  0  0  0
    1.7214    1.9400    0.0000 C   0  0  0  0  0  0  0  0  0  0  0  0
    1.7214    1.0990    0.0000 C   0  0  0  0  0  0  0  0  0  0  0  0
   -1.1382    1.0990    0.0000 C   0  0  0  0  0  0  0  0  0  0  0  0
    0.3084    1.9400    0.0000 C   0  0  0  0  0  0  0  0  0  0  0  0
    1.0148    2.3438    0.0000 C   0  0  0  0  0  0  0  0  0  0  0  0
    2.4391    2.3438    0.0000 C   0  0  0  0  0  0  0  0  0  0  0  0
   -0.4205   -0.1458    0.0000 C   0  0  0  0  0  0  0  0  0  0  0  0
   -1.8447    0.6841    0.0000 C   0  0  0  0  0  0  0  0  0  0  0  0
   -1.8447   -0.1346    0.0000 C   0  0  0  0  0  0  0  0  0  0  0  0
    1.7325   -0.6616    0.0000 C   0  0  0  0  0  0  0  0  0  0  0  0
    0.3084   -0.6616    0.0000 C   0  0  0  0  0  0  0  0  0  0  0  0
   -1.1158   -0.5495    0.0000 C   0  0  0  0  0  0  0  0  0  0  0  0
   -1.1270    2.1306    0.0000 C   0  0  0  0  0  0  0  0  0  0  0  0
    1.0261   -1.8952    0.0000 C   0  0  0  0  0  0  0  0  0  0  0  0
    1.7325   -1.4915    0.0000 C   0  0  0  0  0  0  0  0  0  0  0  0
    0.3084   -1.4915    0.0000 C   0  0  0  0  0  0  0  0  0  0  0  0
   -2.5512   -0.5607    0.0000 C   0  0  0  0  0  0  0  0  0  0  0  0
    3.5492    1.1438    0.0000 C   0  0  0  0  0  0  0  0  0  0  0  0
    3.6501    2.6466    0.0000 C   0  0  0  0  0  0  0  0  0  0  0  0
    4.3343    0.9083    0.0000 C   0  0  0  0  0  0  0  0  0  0  0  0
    4.4463    2.7699    0.0000 C   0  0  0  0  0  0  0  0  0  0  0  0
   -3.9641   -0.6168    0.0000 C   0  0  0  0  0  0  0  0  0  0  0  0
   -3.2241    0.6729    0.0000 C   0  0  0  0  0  0  0  0  0  0  0  0
    5.0632    2.1979    0.0000 C   0  0  0  0  0  0  0  0  0  0  0  0
   -4.7491   -0.3700    0.0000 C   0  0  0  0  0  0  0  0  0  0  0  0
   -3.8184    1.2335    0.0000 C   0  0  0  0  0  0  0  0  0  0  0  0
   -4.6370    1.1214    0.0000 C   0  0  0  0  0  0  0  0  0  0  0  0
    5.9042    0.8523    0.0000 C   0  0  0  0  0  0  0  0  0  0  0  0
   -5.9042    0.3813    0.0000 C   0  0  0  0  0  0  0  0  0  0  0  0
  1 19  2  0  0  0  0
  2  6  1  0  0  0  0
  3  6  2  0  0  0  0
  4 19  1  0  0  0  0
  4 31  1  0  0  0  0
  4 32  1  0  0  0  0
  5 30  1  0  0  0  0
  5 35  1  0  0  0  0
  5 36  1  0  0  0  0
  6 27  1  0  0  0  0
  7 26  3  0  0  0  0
  8 33  1  0  0  0  0
  8 37  1  0  0  0  0
  8 41  1  0  0  0  0
  9 38  1  0  0  0  0
  9 40  1  0  0  0  0
  9 42  1  0  0  0  0
 10 11  2  0  0  0  0
 10 12  1  0  0  0  0
 10 17  1  0  0  0  0
 11 13  1  0  0  0  0
 11 15  1  0  0  0  0
 12 16  2  0  0  0  0
 12 20  1  0  0  0  0
 13 23  2  0  0  0  0
 13 24  1  0  0  0  0
 14 15  2  0  0  0  0
 14 18  1  0  0  0  0
 14 19  1  0  0  0  0
 16 21  1  0  0  0  0
 16 26  1  0  0  0  0
 17 18  2  0  0  0  0
 20 25  2  0  0  0  0
 21 22  2  0  0  0  0
 22 25  1  0  0  0  0
 22 30  1  0  0  0  0
 23 28  1  0  0  0  0
 24 29  2  0  0  0  0
 27 28  2  0  0  0  0
 27 29  1  0  0  0  0
 31 33  1  0  0  0  0
 32 34  1  0  0  0  0
 34 37  1  0  0  0  0
 35 38  1  0  0  0  0
 36 39  1  0  0  0  0
 39 40  1  0  0  0  0
M  CHG  2   2  -1   6   1
M  END
> <PUBCHEM_COMPOUND_ID_TYPE>
0

> <PUBCHEM_TOTAL_CHARGE>
0

> <PUBCHEM_SUBSTANCE_ID>
310943683

> <PUBCHEM_SUBSTANCE_VERSION>
1

> <PUBCHEM_EXT_DATASOURCE_NAME>
4488

> <PUBCHEM_EXT_DATASOURCE_REGID>
SCHEMBL16121751

> <PUBCHEM_SUBSTANCE_COMMENT>
InChI=1S/C33H38N6O3/c1-35-13-3-15-37(19-17-35)24-25-5-11-30(28(21-25)23-34)31-12-8-27(33(40)38-16-4-14-36(2)18-20-38)22-32(31)26-6-9-29(10-7-26)39(41)42/h5-12,21-22H,3-4,13-20,24H2,1-2H3
InChIKey=MLNGWKUXAHMEQL-UHFFFAOYSA-N

> <PUBCHEM_SUBSTANCE_SYNONYM>
SCHEMBL16121751

> <PUBCHEM_XREF_EXT_ID>
SCHEMBL16121751

> <PUBCHEM_EXT_DATASOURCE_URL>
https://www.surechembl.org/

> <PUBCHEM_EXT_SUBSTANCE_URL>
https://www.surechembl.org/chemical/SCHEMBL16121751

> <PUBCHEM_CID_ASSOCIATIONS>
86301842  1

> <PUBCHEM_COORDINATE_TYPE>
1
3

$$$$
