310945198
  -OEChem-07211613022D

 40 44  0     1  0  0  0  0  0999 V2000
    3.7366    3.7072    0.0000 O   0  0  0  0  0  0  0  0  0  0  0  0
   -1.9768   -2.9916    0.0000 O   0  0  0  0  0  0  0  0  0  0  0  0
    0.4986   -0.1173    0.0000 O   0  0  0  0  0  0  0  0  0  0  0  0
   -2.8098   -0.1173    0.0000 O   0  0  0  0  0  0  0  0  0  0  0  0
    2.2349    1.3726    0.0000 N   0  0  0  0  0  0  0  0  0  0  0  0
    4.4640    2.4637    0.0000 N   0  0  0  0  0  0  0  0  0  0  0  0
    4.4640   -0.0234    0.0000 N   0  0  0  0  0  0  0  0  0  0  0  0
   -0.7450    2.0413    0.0000 N   0  0  0  0  0  0  0  0  0  0  0  0
   -0.7450    0.5983    0.0000 N   0  0  0  0  0  0  0  0  0  0  0  0
   -2.8098   -1.5486    0.0000 N   0  0  0  0  0  0  0  0  0  0  0  0
   -4.0416   -3.7072    0.0000 N   0  0  0  0  0  0  0  0  0  0  0  0
    3.7366    1.2319    0.0000 C   0  0  3  0  0  0  0  0  0  0  0  0
    3.0092    1.6542    0.0000 C   0  0  0  0  0  0  0  0  0  0  0  0
    3.0327    2.4754    0.0000 C   0  0  0  0  0  0  0  0  0  0  0  0
    1.7422    2.0531    0.0000 C   0  0  0  0  0  0  0  0  0  0  0  0
    3.7248    2.8743    0.0000 C   0  0  0  0  0  0  0  0  0  0  0  0
    2.2349    2.7336    0.0000 C   0  0  0  0  0  0  0  0  0  0  0  0
    4.4522    1.6424    0.0000 C   0  0  0  0  0  0  0  0  0  0  0  0
    4.4640    0.8212    0.0000 C   0  0  0  0  0  0  0  0  0  0  0  0
    3.0327    0.8212    0.0000 C   0  0  0  0  0  0  0  0  0  0  0  0
    0.9209    2.0648    0.0000 C   0  0  0  0  0  0  0  0  0  0  0  0
    3.0327   -0.0118    0.0000 C   0  0  0  0  0  0  0  0  0  0  0  0
    0.4986    1.3374    0.0000 C   0  0  0  0  0  0  0  0  0  0  0  0
    0.4986    2.7688    0.0000 C   0  0  0  0  0  0  0  0  0  0  0  0
   -0.3226    1.3374    0.0000 C   0  0  0  0  0  0  0  0  0  0  0  0
    3.7600   -0.4224    0.0000 C   0  0  0  0  0  0  0  0  0  0  0  0
   -0.3343    2.7688    0.0000 C   0  0  0  0  0  0  0  0  0  0  0  0
   -0.3578   -0.0821    0.0000 C   0  0  0  0  0  0  0  0  0  0  0  0
   -0.7450   -0.8212    0.0000 C   0  0  0  0  0  0  0  0  0  0  0  0
   -1.9768   -1.5369    0.0000 C   0  0  0  0  0  0  0  0  0  0  0  0
   -1.5662   -2.2525    0.0000 C   0  0  0  0  0  0  0  0  0  0  0  0
   -1.5662   -0.8212    0.0000 C   0  0  0  0  0  0  0  0  0  0  0  0
   -0.3343   -1.5251    0.0000 C   0  0  0  0  0  0  0  0  0  0  0  0
   -0.7450   -2.2525    0.0000 C   0  0  0  0  0  0  0  0  0  0  0  0
   -3.2321   -0.8446    0.0000 C   0  0  0  0  0  0  0  0  0  0  0  0
   -2.7980   -2.9799    0.0000 C   0  0  0  0  0  0  0  0  0  0  0  0
   -4.0533   -0.8095    0.0000 C   0  0  0  0  0  0  0  0  0  0  0  0
   -3.2203   -3.6838    0.0000 C   0  0  0  0  0  0  0  0  0  0  0  0
   -4.4053   -0.0586    0.0000 C   0  0  0  0  0  0  0  0  0  0  0  0
   -4.4640   -2.9681    0.0000 C   0  0  0  0  0  0  0  0  0  0  0  0
  1 16  2  0  0  0  0
  2 31  1  0  0  0  0
  2 36  1  0  0  0  0
  3 28  2  0  0  0  0
  4 35  2  0  0  0  0
  5 13  1  0  0  0  0
  5 15  1  0  0  0  0
  6 16  1  0  0  0  0
  6 18  1  0  0  0  0
  7 19  1  0  0  0  0
  7 26  1  0  0  0  0
  8 25  1  0  0  0  0
  8 27  2  0  0  0  0
  9 25  1  0  0  0  0
  9 28  1  0  0  0  0
 10 30  1  0  0  0  0
 10 35  1  0  0  0  0
 11 38  1  0  0  0  0
 11 40  1  0  0  0  0
 12 13  1  0  0  0  0
 12 18  1  0  0  0  0
 12 19  1  0  0  0  0
 12 20  1  0  0  0  0
 13 14  2  0  0  0  0
 14 16  1  0  0  0  0
 14 17  1  0  0  0  0
 15 17  2  0  0  0  0
 15 21  1  0  0  0  0
 20 22  1  0  0  0  0
 21 23  1  0  0  0  0
 21 24  2  0  0  0  0
 22 26  1  0  0  0  0
 23 25  2  0  0  0  0
 24 27  1  0  0  0  0
 28 29  1  0  0  0  0
 29 32  2  0  0  0  0
 29 33  1  0  0  0  0
 30 31  2  0  0  0  0
 30 32  1  0  0  0  0
 31 34  1  0  0  0  0
 33 34  2  0  0  0  0
 35 37  1  0  0  0  0
 36 38  1  0  0  0  0
 37 39  2  0  0  0  0
M  END
> <PUBCHEM_COMPOUND_ID_TYPE>
0

> <PUBCHEM_TOTAL_CHARGE>
0

> <PUBCHEM_SUBSTANCE_ID>
310945198

> <PUBCHEM_SUBSTANCE_VERSION>
1

> <PUBCHEM_EXT_DATASOURCE_NAME>
4488

> <PUBCHEM_EXT_DATASOURCE_REGID>
SCHEMBL16123288

> <PUBCHEM_SUBSTANCE_COMMENT>
InChI=1S/C29H33N7O4/c1-3-25(37)34-22-13-19(5-6-23(22)40-12-11-30-2)27(38)36-24-14-18(7-10-32-24)21-15-20-26(35-21)29(17-33-28(20)39)8-4-9-31-16-29/h3,5-7,10,13-15,30-31,35H,1,4,8-9,11-12,16-17H2,2H3,(H,33,39)(H,34,37)(H,32,36,38)
InChIKey=GEHJVRZUSKPQCT-UHFFFAOYSA-N

> <PUBCHEM_SUBSTANCE_SYNONYM>
SCHEMBL16123288

> <PUBCHEM_XREF_EXT_ID>
SCHEMBL16123288

> <PUBCHEM_EXT_DATASOURCE_URL>
https://www.surechembl.org/

> <PUBCHEM_EXT_SUBSTANCE_URL>
https://www.surechembl.org/chemical/SCHEMBL16123288

> <PUBCHEM_CID_ASSOCIATIONS>
117611282  1

> <PUBCHEM_COORDINATE_TYPE>
1
3

$$$$
