310937988
  -OEChem-07211613022D

 20 22  0     1  0  0  0  0  0999 V2000
    3.6593   -2.8629    0.0000 O   0  0  0  0  0  0  0  0  0  0  0  0
    3.2073   -0.6673    0.0000 O   0  0  0  0  0  0  0  0  0  0  0  0
    2.9920   -1.5498    0.0000 O   0  0  0  0  0  0  0  0  0  0  0  0
    2.3247   -2.8629    0.0000 N   0  0  0  0  0  0  0  0  0  0  0  0
    0.9471   -3.1427    0.0000 N   0  0  0  0  0  0  0  0  0  0  0  0
    0.5812   -1.5498    0.0000 N   0  0  0  0  0  0  0  0  0  0  0  0
    2.6476   -0.0430    0.0000 N   0  0  0  0  0  0  0  0  0  0  0  0
    1.5498   -2.6046    0.0000 C   0  0  0  0  0  0  0  0  0  0  0  0
    1.3776   -1.7866    0.0000 C   0  0  0  0  0  0  0  0  0  0  0  0
    2.0018   -1.2270    0.0000 C   0  0  0  0  0  0  0  0  0  0  0  0
    2.9920   -2.3678    0.0000 C   0  0  0  0  0  0  0  0  0  0  0  0
    2.5830   -3.6378    0.0000 C   0  0  3  0  0  0  0  0  0  0  0  0
    2.7983   -1.3776    0.0000 C   0  0  0  0  0  0  0  0  0  0  0  0
    1.9157   -0.4090    0.0000 C   0  0  0  0  0  0  0  0  0  0  0  0
    3.4010   -3.6378    0.0000 C   0  0  0  0  0  0  0  0  0  0  0  0
    0.1507   -2.9275    0.0000 C   0  0  0  0  0  0  0  0  0  0  0  0
    0.0000   -2.1095    0.0000 C   0  0  0  0  0  0  0  0  0  0  0  0
    2.0880   -4.3051    0.0000 C   0  0  0  0  0  0  0  0  0  0  0  0
    3.1427   -2.1095    0.0000 C   0  0  0  0  0  0  0  0  0  0  0  0
    1.1839    0.0000    0.0000 C   0  0  0  0  0  0  0  0  0  0  0  0
  1 11  1  0  0  0  0
  1 15  1  0  0  0  0
  2  7  1  0  0  0  0
  2 13  1  0  0  0  0
  3 11  2  0  0  0  0
  4  8  1  0  0  0  0
  4 11  1  0  0  0  0
  4 12  1  0  0  0  0
  5  8  2  0  0  0  0
  5 16  1  0  0  0  0
  6  9  2  0  0  0  0
  6 17  1  0  0  0  0
  7 14  2  0  0  0  0
  8  9  1  0  0  0  0
  9 10  1  0  0  0  0
 10 13  2  0  0  0  0
 10 14  1  0  0  0  0
 12 15  1  0  0  0  0
 12 18  1  0  0  0  0
 13 19  1  0  0  0  0
 14 20  1  0  0  0  0
 16 17  2  0  0  0  0
M  END
> <PUBCHEM_COMPOUND_ID_TYPE>
0

> <PUBCHEM_TOTAL_CHARGE>
0

> <PUBCHEM_SUBSTANCE_ID>
310937988

> <PUBCHEM_SUBSTANCE_VERSION>
1

> <PUBCHEM_EXT_DATASOURCE_NAME>
4488

> <PUBCHEM_EXT_DATASOURCE_REGID>
SCHEMBL16115825

> <PUBCHEM_SUBSTANCE_COMMENT>
InChI=1S/C13H14N4O3/c1-7-6-19-13(18)17(7)12-11(14-4-5-15-12)10-8(2)16-20-9(10)3/h4-5,7H,6H2,1-3H3
InChIKey=YGIFCILOTJRYLD-UHFFFAOYSA-N

> <PUBCHEM_SUBSTANCE_SYNONYM>
SCHEMBL16115825

> <PUBCHEM_XREF_EXT_ID>
SCHEMBL16115825

> <PUBCHEM_EXT_DATASOURCE_URL>
https://www.surechembl.org/

> <PUBCHEM_EXT_SUBSTANCE_URL>
https://www.surechembl.org/chemical/SCHEMBL16115825

> <PUBCHEM_CID_ASSOCIATIONS>
117605585  1

> <PUBCHEM_COORDINATE_TYPE>
1
3

$$$$
