310943180
  -OEChem-07211613022D

 36 39  0     1  0  0  0  0  0999 V2000
   -4.3050   -0.8186    0.0000 O   0  0  0  0  0  0  0  0  0  0  0  0
   -5.7376    1.6226    0.0000 O   0  0  0  0  0  0  0  0  0  0  0  0
   -0.0073   -0.8186    0.0000 O   0  0  0  0  0  0  0  0  0  0  0  0
    5.0067   -2.0465    0.0000 O   0  0  0  0  0  0  0  0  0  0  0  0
   -2.8725   -0.8186    0.0000 N   0  0  0  0  0  0  0  0  0  0  0  0
   -4.3050    0.8186    0.0000 N   0  0  0  0  0  0  0  0  0  0  0  0
    0.7089    0.4093    0.0000 N   0  0  0  0  0  0  0  0  0  0  0  0
    3.5741   -0.4093    0.0000 N   0  0  3  0  0  0  0  0  0  0  0  0
    2.8578   -1.6372    0.0000 N   0  0  0  0  0  0  0  0  0  0  0  0
   -2.1416    0.4239    0.0000 C   0  0  0  0  0  0  0  0  0  0  0  0
   -3.5741    0.4239    0.0000 C   0  0  0  0  0  0  0  0  0  0  0  0
   -1.4399    0.8186    0.0000 C   0  0  0  0  0  0  0  0  0  0  0  0
   -3.5887   -0.3947    0.0000 C   0  0  0  0  0  0  0  0  0  0  0  0
   -2.8725    0.8186    0.0000 C   0  0  0  0  0  0  0  0  0  0  0  0
   -2.1562   -0.4093    0.0000 C   0  0  0  0  0  0  0  0  0  0  0  0
   -1.4399    1.6372    0.0000 C   0  0  0  0  0  0  0  0  0  0  0  0
   -0.7236    0.4093    0.0000 C   0  0  0  0  0  0  0  0  0  0  0  0
   -0.0073    0.8332    0.0000 C   0  0  0  0  0  0  0  0  0  0  0  0
   -0.7236    2.0319    0.0000 C   0  0  0  0  0  0  0  0  0  0  0  0
   -0.0073    1.6226    0.0000 C   0  0  0  0  0  0  0  0  0  0  0  0
    0.7236   -0.3947    0.0000 C   0  0  0  0  0  0  0  0  0  0  0  0
    1.4253   -0.8040    0.0000 C   0  0  0  0  0  0  0  0  0  0  0  0
   -4.2904    1.6226    0.0000 C   0  0  0  0  0  0  0  0  0  0  0  0
   -5.0067    0.4093    0.0000 C   0  0  0  0  0  0  0  0  0  0  0  0
   -2.8725   -1.6518    0.0000 C   0  0  0  0  0  0  0  0  0  0  0  0
    2.8578   -0.8040    0.0000 C   0  0  0  0  0  0  0  0  0  0  0  0
    2.1269   -0.4093    0.0000 C   0  0  0  0  0  0  0  0  0  0  0  0
   -2.1708    2.0319    0.0000 C   0  0  0  0  0  0  0  0  0  0  0  0
    1.4253   -1.6226    0.0000 C   0  0  0  0  0  0  0  0  0  0  0  0
   -5.0213    2.0465    0.0000 C   0  0  0  0  0  0  0  0  0  0  0  0
   -5.7230    0.8186    0.0000 C   0  0  0  0  0  0  0  0  0  0  0  0
    2.1562   -2.0319    0.0000 C   0  0  0  0  0  0  0  0  0  0  0  0
    4.2904   -0.8186    0.0000 C   0  0  0  0  0  0  0  0  0  0  0  0
    3.5595    0.4239    0.0000 C   0  0  0  0  0  0  0  0  0  0  0  0
    4.2904   -1.6226    0.0000 C   0  0  0  0  0  0  0  0  0  0  0  0
    5.7376   -1.6226    0.0000 C   0  0  0  0  0  0  0  0  0  0  0  0
  1 13  2  0  0  0  0
  2 30  1  0  0  0  0
  2 31  1  0  0  0  0
  3 21  2  0  0  0  0
  4 35  1  0  0  0  0
  4 36  1  0  0  0  0
  5 13  1  0  0  0  0
  5 15  1  0  0  0  0
  5 25  1  0  0  0  0
  6 11  1  0  0  0  0
  6 23  1  0  0  0  0
  6 24  1  0  0  0  0
  7 18  1  0  0  0  0
  7 21  1  0  0  0  0
  8 26  1  0  0  0  0
  8 33  1  0  0  0  0
  8 34  1  0  0  0  0
  9 26  1  0  0  0  0
  9 32  2  0  0  0  0
 10 12  1  0  0  0  0
 10 14  1  0  0  0  0
 10 15  2  0  0  0  0
 11 13  1  0  0  0  0
 11 14  2  0  0  0  0
 12 16  1  0  0  0  0
 12 17  2  0  0  0  0
 16 19  2  0  0  0  0
 16 28  1  0  0  0  0
 17 18  1  0  0  0  0
 18 20  2  0  0  0  0
 19 20  1  0  0  0  0
 21 22  1  0  0  0  0
 22 27  1  0  0  0  0
 22 29  2  0  0  0  0
 23 30  1  0  0  0  0
 24 31  1  0  0  0  0
 26 27  2  0  0  0  0
 29 32  1  0  0  0  0
 33 35  1  0  0  0  0
M  END
> <PUBCHEM_COMPOUND_ID_TYPE>
0

> <PUBCHEM_TOTAL_CHARGE>
0

> <PUBCHEM_SUBSTANCE_ID>
310943180

> <PUBCHEM_SUBSTANCE_VERSION>
1

> <PUBCHEM_EXT_DATASOURCE_NAME>
4488

> <PUBCHEM_EXT_DATASOURCE_REGID>
SCHEMBL16121240

> <PUBCHEM_SUBSTANCE_COMMENT>
InChI=1S/C27H33N5O4/c1-19-5-6-22(29-26(33)20-7-8-28-25(16-20)30(2)9-12-35-4)17-23(19)21-15-24(27(34)31(3)18-21)32-10-13-36-14-11-32/h5-8,15-18H,9-14H2,1-4H3,(H,29,33)
InChIKey=IYNXRZBFWPYIAK-UHFFFAOYSA-N

> <PUBCHEM_SUBSTANCE_SYNONYM>
SCHEMBL16121240

> <PUBCHEM_XREF_EXT_ID>
SCHEMBL16121240

> <PUBCHEM_EXT_DATASOURCE_URL>
https://www.surechembl.org/

> <PUBCHEM_EXT_SUBSTANCE_URL>
https://www.surechembl.org/chemical/SCHEMBL16121240

> <PUBCHEM_CID_ASSOCIATIONS>
117609608  1

> <PUBCHEM_COORDINATE_TYPE>
1
3

$$$$
