310938612
  -OEChem-07211613022D

 33 37  0     1  0  0  0  0  0999 V2000
   -3.4280   -3.2520    0.0000 Cl  0  0  0  0  0  0  0  0  0  0  0  0
    0.1444   -3.6645    0.0000 O   0  0  0  0  0  0  0  0  0  0  0  0
    0.8589   -4.9020    0.0000 O   0  0  0  0  0  0  0  0  0  0  0  0
   -3.4280   -5.7269    0.0000 O   0  0  0  0  0  0  0  0  0  0  0  0
    1.5733   -1.1895    0.0000 N   0  0  0  0  0  0  0  0  0  0  0  0
    0.8589   -2.4270    0.0000 N   0  0  0  0  0  0  0  0  0  0  0  0
    2.2878   -2.4270    0.0000 N   0  0  0  0  0  0  0  0  0  0  0  0
    2.2878   -4.9020    0.0000 N   0  0  0  0  0  0  0  0  0  0  0  0
    1.9858    0.0801    0.0000 C   0  0  3  0  0  0  0  0  0  0  0  0
    1.1608    0.0801    0.0000 C   0  0  3  0  0  0  0  0  0  0  0  0
    1.5733    0.7945    0.0000 C   0  0  0  0  0  0  0  0  0  0  0  0
    0.9059   -0.7046    0.0000 C   0  0  0  0  0  0  0  0  0  0  0  0
    2.2408   -0.7046    0.0000 C   0  0  0  0  0  0  0  0  0  0  0  0
    1.5733   -2.0145    0.0000 C   0  0  0  0  0  0  0  0  0  0  0  0
    0.8589   -3.2520    0.0000 C   0  0  0  0  0  0  0  0  0  0  0  0
    1.5733   -3.6645    0.0000 C   0  0  0  0  0  0  0  0  0  0  0  0
    2.2878   -3.2520    0.0000 C   0  0  0  0  0  0  0  0  0  0  0  0
    1.5733   -4.4895    0.0000 C   0  0  0  0  0  0  0  0  0  0  0  0
   -0.5701   -3.2520    0.0000 C   0  0  0  0  0  0  0  0  0  0  0  0
   -1.2845   -3.6645    0.0000 C   0  0  0  0  0  0  0  0  0  0  0  0
   -2.7135   -3.6645    0.0000 C   0  0  0  0  0  0  0  0  0  0  0  0
   -1.9990   -3.2520    0.0000 C   0  0  0  0  0  0  0  0  0  0  0  0
   -2.7135   -4.4895    0.0000 C   0  0  0  0  0  0  0  0  0  0  0  0
   -1.2845   -4.4895    0.0000 C   0  0  0  0  0  0  0  0  0  0  0  0
   -1.9990   -4.9020    0.0000 C   0  0  0  0  0  0  0  0  0  0  0  0
    3.0023   -4.4895    0.0000 C   0  0  0  0  0  0  0  0  0  0  0  0
    3.7168   -4.9020    0.0000 C   0  0  0  0  0  0  0  0  0  0  0  0
   -3.4280   -4.9020    0.0000 C   0  0  0  0  0  0  0  0  0  0  0  0
    3.7168   -5.7269    0.0000 C   0  0  0  0  0  0  0  0  0  0  0  0
    4.4312   -4.4895    0.0000 C   0  0  0  0  0  0  0  0  0  0  0  0
    4.4312   -6.1395    0.0000 C   0  0  0  0  0  0  0  0  0  0  0  0
    5.1457   -4.9020    0.0000 C   0  0  0  0  0  0  0  0  0  0  0  0
    5.1457   -5.7269    0.0000 C   0  0  0  0  0  0  0  0  0  0  0  0
  1 21  1  0  0  0  0
  2 15  1  0  0  0  0
  2 19  1  0  0  0  0
  3 18  2  0  0  0  0
  4 28  1  0  0  0  0
  5 12  1  0  0  0  0
  5 13  1  0  0  0  0
  5 14  1  0  0  0  0
  6 14  1  0  0  0  0
  6 15  2  0  0  0  0
  7 14  2  0  0  0  0
  7 17  1  0  0  0  0
  8 18  1  0  0  0  0
  8 26  1  0  0  0  0
  9 10  1  0  0  0  0
  9 11  1  0  0  0  0
  9 13  1  0  0  0  0
 10 11  1  0  0  0  0
 10 12  1  0  0  0  0
 15 16  1  0  0  0  0
 16 17  2  0  0  0  0
 16 18  1  0  0  0  0
 19 20  1  0  0  0  0
 20 22  2  0  0  0  0
 20 24  1  0  0  0  0
 21 22  1  0  0  0  0
 21 23  2  0  0  0  0
 23 25  1  0  0  0  0
 23 28  1  0  0  0  0
 24 25  2  0  0  0  0
 26 27  1  0  0  0  0
 27 29  2  0  0  0  0
 27 30  1  0  0  0  0
 29 31  1  0  0  0  0
 30 32  2  0  0  0  0
 31 33  2  0  0  0  0
 32 33  1  0  0  0  0
M  END
> <PUBCHEM_COMPOUND_ID_TYPE>
0

> <PUBCHEM_TOTAL_CHARGE>
0

> <PUBCHEM_SUBSTANCE_ID>
310938612

> <PUBCHEM_SUBSTANCE_VERSION>
1

> <PUBCHEM_EXT_DATASOURCE_NAME>
4488

> <PUBCHEM_EXT_DATASOURCE_REGID>
SCHEMBL16116526

> <PUBCHEM_SUBSTANCE_COMMENT>
InChI=1S/C25H25ClN4O3/c26-22-8-17(6-7-18(22)14-31)15-33-24-21(23(32)27-10-16-4-2-1-3-5-16)11-28-25(29-24)30-12-19-9-20(19)13-30/h1-8,11,19-20,31H,9-10,12-15H2,(H,27,32)
InChIKey=GAXWGBFCCBZYHP-UHFFFAOYSA-N

> <PUBCHEM_SUBSTANCE_SYNONYM>
SCHEMBL16116526

> <PUBCHEM_XREF_EXT_ID>
SCHEMBL16116526

> <PUBCHEM_EXT_DATASOURCE_URL>
https://www.surechembl.org/

> <PUBCHEM_EXT_SUBSTANCE_URL>
https://www.surechembl.org/chemical/SCHEMBL16116526

> <PUBCHEM_CID_ASSOCIATIONS>
117606045  1

> <PUBCHEM_COORDINATE_TYPE>
1
3

$$$$
