310949727
  -OEChem-07211613022D

 24 26  0     1  0  0  0  0  0999 V2000
   -0.7816    2.0868    0.0000 O   0  0  0  0  0  0  0  0  0  0  0  0
   -1.2977    3.4583    0.0000 O   0  0  0  0  0  0  0  0  0  0  0  0
   -1.2535    0.6563    0.0000 O   0  0  0  0  0  0  0  0  0  0  0  0
   -0.3539   -3.3993    0.0000 O   0  0  0  0  0  0  0  0  0  0  0  0
    1.0323   -3.0306    0.0000 O   0  0  0  0  0  0  0  0  0  0  0  0
    0.5310    2.3817    0.0000 C   0  0  0  0  0  0  0  0  0  0  0  0
    0.1180    3.0748    0.0000 C   0  0  0  0  0  0  0  0  0  0  0  0
   -0.0295    1.7477    0.0000 C   0  0  3  0  0  0  0  0  0  0  0  0
   -0.6784    2.9126    0.0000 C   0  0  0  0  0  0  0  0  0  0  0  0
    0.1474    0.9512    0.0000 C   0  0  0  0  0  0  0  0  0  0  0  0
    1.3715    2.3817    0.0000 C   0  0  0  0  0  0  0  0  0  0  0  0
   -0.4571    0.3760    0.0000 C   0  0  0  0  0  0  0  0  0  0  0  0
    0.5457    3.7828    0.0000 C   0  0  0  0  0  0  0  0  0  0  0  0
   -0.2949   -0.4055    0.0000 C   0  0  0  0  0  0  0  0  0  0  0  0
    1.7697    3.0748    0.0000 C   0  0  0  0  0  0  0  0  0  0  0  0
    1.3567    3.7976    0.0000 C   0  0  0  0  0  0  0  0  0  0  0  0
    0.0442   -2.0131    0.0000 C   0  0  0  0  0  0  0  0  0  0  0  0
   -0.8849   -0.9512    0.0000 C   0  0  0  0  0  0  0  0  0  0  0  0
    0.5013   -0.6710    0.0000 C   0  0  0  0  0  0  0  0  0  0  0  0
   -0.7226   -1.7623    0.0000 C   0  0  0  0  0  0  0  0  0  0  0  0
    0.6636   -1.4673    0.0000 C   0  0  0  0  0  0  0  0  0  0  0  0
    0.2064   -2.8094    0.0000 C   0  0  0  0  0  0  0  0  0  0  0  0
   -1.1798   -3.1928    0.0000 C   0  0  0  0  0  0  0  0  0  0  0  0
   -1.7697   -3.7976    0.0000 C   0  0  0  0  0  0  0  0  0  0  0  0
  1  8  1  0  0  0  0
  1  9  1  0  0  0  0
  2  9  2  0  0  0  0
  3 12  2  0  0  0  0
  4 22  1  0  0  0  0
  4 23  1  0  0  0  0
  5 22  2  0  0  0  0
  6  7  1  0  0  0  0
  6  8  1  0  0  0  0
  6 11  2  0  0  0  0
  7  9  1  0  0  0  0
  7 13  2  0  0  0  0
  8 10  1  0  0  0  0
 10 12  1  0  0  0  0
 11 15  1  0  0  0  0
 12 14  1  0  0  0  0
 13 16  1  0  0  0  0
 14 18  2  0  0  0  0
 14 19  1  0  0  0  0
 15 16  2  0  0  0  0
 17 20  2  0  0  0  0
 17 21  1  0  0  0  0
 17 22  1  0  0  0  0
 18 20  1  0  0  0  0
 19 21  2  0  0  0  0
 23 24  1  0  0  0  0
M  END
> <PUBCHEM_COMPOUND_ID_TYPE>
0

> <PUBCHEM_TOTAL_CHARGE>
0

> <PUBCHEM_SUBSTANCE_ID>
310949727

> <PUBCHEM_SUBSTANCE_VERSION>
1

> <PUBCHEM_EXT_DATASOURCE_NAME>
4488

> <PUBCHEM_EXT_DATASOURCE_REGID>
SCHEMBL16127925

> <PUBCHEM_SUBSTANCE_COMMENT>
InChI=1S/C19H16O5/c1-2-23-18(21)13-9-7-12(8-10-13)16(20)11-17-14-5-3-4-6-15(14)19(22)24-17/h3-10,17H,2,11H2,1H3
InChIKey=HCHZWYVIEQPCFS-UHFFFAOYSA-N

> <PUBCHEM_SUBSTANCE_SYNONYM>
SCHEMBL16127925

> <PUBCHEM_XREF_EXT_ID>
SCHEMBL16127925

> <PUBCHEM_EXT_DATASOURCE_URL>
https://www.surechembl.org/

> <PUBCHEM_EXT_SUBSTANCE_URL>
https://www.surechembl.org/chemical/SCHEMBL16127925

> <PUBCHEM_CID_ASSOCIATIONS>
117615070  1

> <PUBCHEM_COORDINATE_TYPE>
1
3

$$$$
