310949774
  -OEChem-07211613022D

 23 24  0     1  0  0  0  0  0999 V2000
    0.4060   -1.0893    0.0000 F   0  0  0  0  0  0  0  0  0  0  0  0
    1.6307    1.0635    0.0000 O   0  0  0  0  0  0  0  0  0  0  0  0
    2.4428    1.0635    0.0000 O   0  0  0  0  0  0  0  0  0  0  0  0
    3.6675    0.3416    0.0000 O   0  0  0  0  0  0  0  0  0  0  0  0
   -3.6675    1.8241    0.0000 O   0  0  0  0  0  0  0  0  0  0  0  0
   -3.6675    0.3673    0.0000 O   0  0  0  0  0  0  0  0  0  0  0  0
    0.3931    0.3544    0.0000 N   0  0  0  0  0  0  0  0  0  0  0  0
    1.6050   -0.3803    0.0000 C   0  0  0  0  0  0  0  0  0  0  0  0
    2.4298   -0.3931    0.0000 C   0  0  0  0  0  0  0  0  0  0  0  0
    1.2053   -1.1021    0.0000 C   0  0  0  0  0  0  0  0  0  0  0  0
    1.2053    0.3287    0.0000 C   0  0  0  0  0  0  0  0  0  0  0  0
    2.8553    0.3287    0.0000 C   0  0  0  0  0  0  0  0  0  0  0  0
    2.8166   -1.1279    0.0000 C   0  0  0  0  0  0  0  0  0  0  0  0
    1.6179   -1.8241    0.0000 C   0  0  0  0  0  0  0  0  0  0  0  0
    2.4298   -1.8241    0.0000 C   0  0  0  0  0  0  0  0  0  0  0  0
   -0.8186    1.0893    0.0000 C   0  0  0  0  0  0  0  0  0  0  0  0
    0.0064    1.0635    0.0000 C   0  0  0  0  0  0  0  0  0  0  0  0
   -2.4557    1.0764    0.0000 C   0  0  3  0  0  0  0  0  0  0  0  0
   -1.2311    0.3544    0.0000 C   0  0  0  0  0  0  0  0  0  0  0  0
   -1.2311    1.7983    0.0000 C   0  0  0  0  0  0  0  0  0  0  0  0
   -2.0303    0.3544    0.0000 C   0  0  0  0  0  0  0  0  0  0  0  0
   -2.0303    1.7983    0.0000 C   0  0  0  0  0  0  0  0  0  0  0  0
   -3.2549    1.0893    0.0000 C   0  0  0  0  0  0  0  0  0  0  0  0
  1 10  1  0  0  0  0
  2 11  2  0  0  0  0
  3 12  2  0  0  0  0
  4 12  1  0  0  0  0
  5 23  2  0  0  0  0
  6 23  1  0  0  0  0
  7 11  1  0  0  0  0
  7 17  1  0  0  0  0
  8  9  2  0  0  0  0
  8 10  1  0  0  0  0
  8 11  1  0  0  0  0
  9 12  1  0  0  0  0
  9 13  1  0  0  0  0
 10 14  2  0  0  0  0
 13 15  2  0  0  0  0
 14 15  1  0  0  0  0
 16 17  1  0  0  0  0
 16 19  1  0  0  0  0
 16 20  2  0  0  0  0
 18 21  1  0  0  0  0
 18 22  1  0  0  0  0
 18 23  1  0  0  0  0
 19 21  2  0  0  0  0
 20 22  1  0  0  0  0
M  END
> <PUBCHEM_COMPOUND_ID_TYPE>
0

> <PUBCHEM_TOTAL_CHARGE>
0

> <PUBCHEM_SUBSTANCE_ID>
310949774

> <PUBCHEM_SUBSTANCE_VERSION>
1

> <PUBCHEM_EXT_DATASOURCE_NAME>
4488

> <PUBCHEM_EXT_DATASOURCE_REGID>
SCHEMBL16127972

> <PUBCHEM_SUBSTANCE_COMMENT>
InChI=1S/C16H14FNO5/c17-12-3-1-2-11(16(22)23)13(12)14(19)18-8-9-4-6-10(7-5-9)15(20)21/h1-6,10H,7-8H2,(H,18,19)(H,20,21)(H,22,23)
InChIKey=YIIDLGSOUYYKTM-UHFFFAOYSA-N

> <PUBCHEM_SUBSTANCE_SYNONYM>
SCHEMBL16127972

> <PUBCHEM_XREF_EXT_ID>
SCHEMBL16127972

> <PUBCHEM_EXT_DATASOURCE_URL>
https://www.surechembl.org/

> <PUBCHEM_EXT_SUBSTANCE_URL>
https://www.surechembl.org/chemical/SCHEMBL16127972

> <PUBCHEM_CID_ASSOCIATIONS>
117615098  1

> <PUBCHEM_COORDINATE_TYPE>
1
3

$$$$
