310937218
  -OEChem-07211613022D

 27 30  0     1  0  0  0  0  0999 V2000
    5.0481   -5.3419    0.0000 O   0  0  0  0  0  0  0  0  0  0  0  0
    6.4904   -5.3419    0.0000 O   0  0  0  0  0  0  0  0  0  0  0  0
    7.2917   -2.6175    0.0000 N   0  0  3  0  0  0  0  0  0  0  0  0
    2.1635   -1.2286    0.0000 N   0  0  0  0  0  0  0  0  0  0  0  0
    2.9114   -2.4840    0.0000 N   0  0  0  0  0  0  0  0  0  0  0  0
    0.7212   -0.4274    0.0000 N   0  0  0  0  0  0  0  0  0  0  0  0
    6.4904   -3.6860    0.0000 C   0  0  0  0  0  0  0  0  0  0  0  0
    6.4904   -2.8847    0.0000 C   0  0  0  0  0  0  0  0  0  0  0  0
    5.7693   -4.1133    0.0000 C   0  0  0  0  0  0  0  0  0  0  0  0
    5.0748   -2.8847    0.0000 C   0  0  0  0  0  0  0  0  0  0  0  0
    5.7693   -2.4573    0.0000 C   0  0  0  0  0  0  0  0  0  0  0  0
    5.0748   -3.6860    0.0000 C   0  0  0  0  0  0  0  0  0  0  0  0
    4.3537   -2.4840    0.0000 C   0  0  0  0  0  0  0  0  0  0  0  0
    7.2917   -3.9531    0.0000 C   0  0  0  0  0  0  0  0  0  0  0  0
    7.7725   -3.2853    0.0000 C   0  0  0  0  0  0  0  0  0  0  0  0
    5.7693   -4.9413    0.0000 C   0  0  0  0  0  0  0  0  0  0  0  0
    2.8847   -1.6560    0.0000 C   0  0  0  0  0  0  0  0  0  0  0  0
    3.6325   -2.8847    0.0000 C   0  0  0  0  0  0  0  0  0  0  0  0
    4.3270   -1.6293    0.0000 C   0  0  0  0  0  0  0  0  0  0  0  0
    7.5321   -1.8162    0.0000 C   0  0  0  0  0  0  0  0  0  0  0  0
    3.6058   -1.2286    0.0000 C   0  0  0  0  0  0  0  0  0  0  0  0
    2.1635   -0.4006    0.0000 C   0  0  0  0  0  0  0  0  0  0  0  0
    1.4423   -1.6560    0.0000 C   0  0  0  0  0  0  0  0  0  0  0  0
    0.7212   -1.2553    0.0000 C   0  0  0  0  0  0  0  0  0  0  0  0
    1.4156    0.0000    0.0000 C   0  0  0  0  0  0  0  0  0  0  0  0
    6.9979   -1.2019    0.0000 C   0  0  0  0  0  0  0  0  0  0  0  0
    0.0000   -0.0267    0.0000 C   0  0  0  0  0  0  0  0  0  0  0  0
  1 16  2  0  0  0  0
  2 16  1  0  0  0  0
  3  8  1  0  0  0  0
  3 15  1  0  0  0  0
  3 20  1  0  0  0  0
  4 17  1  0  0  0  0
  4 22  1  0  0  0  0
  4 23  1  0  0  0  0
  5 17  2  0  0  0  0
  5 18  1  0  0  0  0
  6 24  1  0  0  0  0
  6 25  1  0  0  0  0
  6 27  1  0  0  0  0
  7  8  2  0  0  0  0
  7  9  1  0  0  0  0
  7 14  1  0  0  0  0
  8 11  1  0  0  0  0
  9 12  2  0  0  0  0
  9 16  1  0  0  0  0
 10 11  2  0  0  0  0
 10 12  1  0  0  0  0
 10 13  1  0  0  0  0
 13 18  2  0  0  0  0
 13 19  1  0  0  0  0
 14 15  1  0  0  0  0
 17 21  1  0  0  0  0
 19 21  2  0  0  0  0
 20 26  1  0  0  0  0
 22 25  1  0  0  0  0
 23 24  1  0  0  0  0
M  END
> <PUBCHEM_COMPOUND_ID_TYPE>
0

> <PUBCHEM_TOTAL_CHARGE>
0

> <PUBCHEM_SUBSTANCE_ID>
310937218

> <PUBCHEM_SUBSTANCE_VERSION>
1

> <PUBCHEM_EXT_DATASOURCE_NAME>
4488

> <PUBCHEM_EXT_DATASOURCE_REGID>
SCHEMBL16114951

> <PUBCHEM_SUBSTANCE_COMMENT>
InChI=1S/C21H26N4O2/c1-3-24-7-6-17-18(21(26)27)12-16(13-19(17)24)15-4-5-20(22-14-15)25-10-8-23(2)9-11-25/h4-5,12-14H,3,6-11H2,1-2H3,(H,26,27)
InChIKey=YSKNVQIXHMGLDQ-UHFFFAOYSA-N

> <PUBCHEM_SUBSTANCE_SYNONYM>
SCHEMBL16114951

> <PUBCHEM_XREF_EXT_ID>
SCHEMBL16114951

> <PUBCHEM_EXT_DATASOURCE_URL>
https://www.surechembl.org/

> <PUBCHEM_EXT_SUBSTANCE_URL>
https://www.surechembl.org/chemical/SCHEMBL16114951

> <PUBCHEM_CID_ASSOCIATIONS>
117605025  1

> <PUBCHEM_COORDINATE_TYPE>
1
3

$$$$
