310931511
  -OEChem-07211613022D

 24 26  0     1  0  0  0  0  0999 V2000
    5.0118   -2.4544    0.0000 Br  0  0  0  0  0  0  0  0  0  0  0  0
    2.1450   -1.6294    0.0000 N   0  0  3  0  0  0  0  0  0  0  0  0
    2.1450   -4.1044    0.0000 N   0  0  0  0  0  0  0  0  0  0  0  0
    4.2693   -0.3918    0.0000 N   0  0  0  0  0  0  0  0  0  0  0  0
    2.1450   -2.4544    0.0000 C   0  0  3  0  0  0  0  0  0  0  0  0
    2.8462   -2.8668    0.0000 C   0  0  0  0  0  0  0  0  0  0  0  0
    1.4231   -2.8875    0.0000 C   0  0  0  0  0  0  0  0  0  0  0  0
    2.8462   -3.6918    0.0000 C   0  0  0  0  0  0  0  0  0  0  0  0
    2.8462   -1.2168    0.0000 C   0  0  0  0  0  0  0  0  0  0  0  0
    3.5681   -2.4544    0.0000 C   0  0  0  0  0  0  0  0  0  0  0  0
    4.2900   -2.8668    0.0000 C   0  0  0  0  0  0  0  0  0  0  0  0
    3.5681   -4.1044    0.0000 C   0  0  0  0  0  0  0  0  0  0  0  0
    1.4231   -3.7125    0.0000 C   0  0  0  0  0  0  0  0  0  0  0  0
    0.7012   -2.4750    0.0000 C   0  0  0  0  0  0  0  0  0  0  0  0
    3.5681   -1.6500    0.0000 C   0  0  0  0  0  0  0  0  0  0  0  0
    2.8462   -0.4125    0.0000 C   0  0  0  0  0  0  0  0  0  0  0  0
    4.2900   -3.6918    0.0000 C   0  0  0  0  0  0  0  0  0  0  0  0
    1.4231   -1.2375    0.0000 C   0  0  0  0  0  0  0  0  0  0  0  0
    4.2693   -1.2375    0.0000 C   0  0  0  0  0  0  0  0  0  0  0  0
    3.5681    0.0000    0.0000 C   0  0  0  0  0  0  0  0  0  0  0  0
    0.7219   -4.1250    0.0000 C   0  0  0  0  0  0  0  0  0  0  0  0
    0.0000   -2.8875    0.0000 C   0  0  0  0  0  0  0  0  0  0  0  0
    0.0000   -3.7125    0.0000 C   0  0  0  0  0  0  0  0  0  0  0  0
    4.9706    0.0000    0.0000 C   0  0  0  0  0  0  0  0  0  0  0  0
  1 11  1  0  0  0  0
  2  5  1  0  0  0  0
  2  9  1  0  0  0  0
  2 18  1  0  0  0  0
  3  8  1  0  0  0  0
  4 19  1  0  0  0  0
  4 20  1  0  0  0  0
  4 24  1  0  0  0  0
  5  6  1  0  0  0  0
  5  7  1  0  0  0  0
  6  8  2  0  0  0  0
  6 10  1  0  0  0  0
  7 13  2  0  0  0  0
  7 14  1  0  0  0  0
  8 12  1  0  0  0  0
  9 15  1  0  0  0  0
  9 16  1  0  0  0  0
 10 11  2  0  0  0  0
 11 17  1  0  0  0  0
 12 17  2  0  0  0  0
 13 21  1  0  0  0  0
 14 22  2  0  0  0  0
 15 19  1  0  0  0  0
 16 20  1  0  0  0  0
 21 23  2  0  0  0  0
 22 23  1  0  0  0  0
M  END
> <PUBCHEM_COMPOUND_ID_TYPE>
0

> <PUBCHEM_TOTAL_CHARGE>
0

> <PUBCHEM_SUBSTANCE_ID>
310931511

> <PUBCHEM_SUBSTANCE_VERSION>
1

> <PUBCHEM_EXT_DATASOURCE_NAME>
4488

> <PUBCHEM_EXT_DATASOURCE_REGID>
SCHEMBL16108837

> <PUBCHEM_SUBSTANCE_COMMENT>
InChI=1S/C20H26BrN3/c1-23-12-10-17(11-13-23)24(2)20(15-6-4-3-5-7-15)18-14-16(21)8-9-19(18)22/h3-9,14,17,20H,10-13,22H2,1-2H3
InChIKey=HRZORZVYJOSWLB-UHFFFAOYSA-N

> <PUBCHEM_SUBSTANCE_SYNONYM>
SCHEMBL16108837

> <PUBCHEM_XREF_EXT_ID>
SCHEMBL16108837

> <PUBCHEM_EXT_DATASOURCE_URL>
https://www.surechembl.org/

> <PUBCHEM_EXT_SUBSTANCE_URL>
https://www.surechembl.org/chemical/SCHEMBL16108837

> <PUBCHEM_CID_ASSOCIATIONS>
117600269  1

> <PUBCHEM_COORDINATE_TYPE>
1
3

$$$$
