310938846
  -OEChem-07211613022D

 49 58  0     1  0  0  0  0  0999 V2000
    1.8214   -2.9599    0.0000 N   0  0  0  0  0  0  0  0  0  0  0  0
   -2.4415    0.1735    0.0000 N   0  0  0  0  0  0  0  0  0  0  0  0
    0.4865   -1.3190    0.0000 C   0  0  3  0  0  0  0  0  0  0  0  0
    1.2402   -1.6545    0.0000 C   0  0  0  0  0  0  0  0  0  0  0  0
   -0.0655   -1.9321    0.0000 C   0  0  0  0  0  0  0  0  0  0  0  0
    1.1540   -2.4750    0.0000 C   0  0  0  0  0  0  0  0  0  0  0  0
    0.3470   -2.6465    0.0000 C   0  0  0  0  0  0  0  0  0  0  0  0
   -0.2279   -0.9065    0.0000 C   0  0  0  0  0  0  0  0  0  0  0  0
    1.9939   -1.3190    0.0000 C   0  0  0  0  0  0  0  0  0  0  0  0
    0.7001   -0.5221    0.0000 C   0  0  0  0  0  0  0  0  0  0  0  0
    2.6613   -1.8039    0.0000 C   0  0  0  0  0  0  0  0  0  0  0  0
   -0.9424   -1.3190    0.0000 C   0  0  0  0  0  0  0  0  0  0  0  0
    2.5751   -2.6244    0.0000 C   0  0  0  0  0  0  0  0  0  0  0  0
   -1.6569   -0.9065    0.0000 C   0  0  0  0  0  0  0  0  0  0  0  0
   -0.8905   -1.9321    0.0000 C   0  0  0  0  0  0  0  0  0  0  0  0
    2.4064   -0.6045    0.0000 C   0  0  0  0  0  0  0  0  0  0  0  0
   -0.2279   -0.0815    0.0000 C   0  0  0  0  0  0  0  0  0  0  0  0
   -1.6569   -0.0815    0.0000 C   0  0  0  0  0  0  0  0  0  0  0  0
   -0.0655   -3.3610    0.0000 C   0  0  0  0  0  0  0  0  0  0  0  0
   -2.4415   -1.1614    0.0000 C   0  0  0  0  0  0  0  0  0  0  0  0
    0.1167    0.0613    0.0000 C   0  0  0  0  0  0  0  0  0  0  0  0
    1.4970   -0.3086    0.0000 C   0  0  0  0  0  0  0  0  0  0  0  0
   -2.9264   -0.4940    0.0000 C   0  0  0  0  0  0  0  0  0  0  0  0
   -0.9424    0.3310    0.0000 C   0  0  0  0  0  0  0  0  0  0  0  0
    3.4150   -1.4683    0.0000 C   0  0  0  0  0  0  0  0  0  0  0  0
   -1.3030   -2.6465    0.0000 C   0  0  0  0  0  0  0  0  0  0  0  0
   -0.8905   -3.3610    0.0000 C   0  0  0  0  0  0  0  0  0  0  0  0
    3.2425   -3.1093    0.0000 C   0  0  0  0  0  0  0  0  0  0  0  0
   -2.6550    0.9703    0.0000 C   0  0  0  0  0  0  0  0  0  0  0  0
    3.2314   -0.6045    0.0000 C   0  0  0  0  0  0  0  0  0  0  0  0
    1.9939    0.1100    0.0000 C   0  0  0  0  0  0  0  0  0  0  0  0
    0.3302    0.8582    0.0000 C   0  0  0  0  0  0  0  0  0  0  0  0
    1.7105    0.4883    0.0000 C   0  0  0  0  0  0  0  0  0  0  0  0
   -2.7770   -1.9151    0.0000 C   0  0  0  0  0  0  0  0  0  0  0  0
   -3.7469   -0.5802    0.0000 C   0  0  0  0  0  0  0  0  0  0  0  0
    4.0824   -1.9533    0.0000 C   0  0  0  0  0  0  0  0  0  0  0  0
    3.9962   -2.7737    0.0000 C   0  0  0  0  0  0  0  0  0  0  0  0
    1.1271    1.0717    0.0000 C   0  0  0  0  0  0  0  0  0  0  0  0
   -3.5975   -2.0013    0.0000 C   0  0  0  0  0  0  0  0  0  0  0  0
    3.6439    0.1100    0.0000 C   0  0  0  0  0  0  0  0  0  0  0  0
    2.4064    0.8244    0.0000 C   0  0  0  0  0  0  0  0  0  0  0  0
   -2.0717    1.5537    0.0000 C   0  0  0  0  0  0  0  0  0  0  0  0
   -3.4519    1.1839    0.0000 C   0  0  0  0  0  0  0  0  0  0  0  0
   -4.0824   -1.3339    0.0000 C   0  0  0  0  0  0  0  0  0  0  0  0
    3.2314    0.8244    0.0000 C   0  0  0  0  0  0  0  0  0  0  0  0
   -2.2852    2.3506    0.0000 C   0  0  0  0  0  0  0  0  0  0  0  0
   -3.6654    1.9808    0.0000 C   0  0  0  0  0  0  0  0  0  0  0  0
   -3.0821    2.5641    0.0000 C   0  0  0  0  0  0  0  0  0  0  0  0
   -3.2956    3.3610    0.0000 C   0  0  0  0  0  0  0  0  0  0  0  0
  1  6  1  0  0  0  0
  1 13  2  0  0  0  0
  2 18  1  0  0  0  0
  2 23  1  0  0  0  0
  2 29  1  0  0  0  0
  3  4  1  0  0  0  0
  3  5  1  0  0  0  0
  3  8  1  0  0  0  0
  3 10  1  0  0  0  0
  4  6  2  0  0  0  0
  4  9  1  0  0  0  0
  5  7  2  0  0  0  0
  5 15  1  0  0  0  0
  6  7  1  0  0  0  0
  7 19  1  0  0  0  0
  8 12  2  0  0  0  0
  8 17  1  0  0  0  0
  9 11  2  0  0  0  0
  9 16  1  0  0  0  0
 10 21  2  0  0  0  0
 10 22  1  0  0  0  0
 11 13  1  0  0  0  0
 11 25  1  0  0  0  0
 12 14  1  0  0  0  0
 13 28  1  0  0  0  0
 14 18  2  0  0  0  0
 14 20  1  0  0  0  0
 15 26  2  0  0  0  0
 16 30  2  0  0  0  0
 16 31  1  0  0  0  0
 17 24  2  0  0  0  0
 18 24  1  0  0  0  0
 19 27  2  0  0  0  0
 20 23  2  0  0  0  0
 20 34  1  0  0  0  0
 21 32  1  0  0  0  0
 22 33  2  0  0  0  0
 23 35  1  0  0  0  0
 25 36  2  0  0  0  0
 26 27  1  0  0  0  0
 28 37  2  0  0  0  0
 29 42  2  0  0  0  0
 29 43  1  0  0  0  0
 30 40  1  0  0  0  0
 31 41  2  0  0  0  0
 32 38  2  0  0  0  0
 33 38  1  0  0  0  0
 34 39  2  0  0  0  0
 35 44  2  0  0  0  0
 36 37  1  0  0  0  0
 39 44  1  0  0  0  0
 40 45  2  0  0  0  0
 41 45  1  0  0  0  0
 42 46  1  0  0  0  0
 43 47  2  0  0  0  0
 46 48  2  0  0  0  0
 47 48  1  0  0  0  0
 48 49  1  0  0  0  0
M  END
> <PUBCHEM_COMPOUND_ID_TYPE>
0

> <PUBCHEM_TOTAL_CHARGE>
0

> <PUBCHEM_SUBSTANCE_ID>
310938846

> <PUBCHEM_SUBSTANCE_VERSION>
1

> <PUBCHEM_EXT_DATASOURCE_NAME>
4488

> <PUBCHEM_EXT_DATASOURCE_REGID>
SCHEMBL16116765

> <PUBCHEM_SUBSTANCE_COMMENT>
InChI=1S/C47H32N2/c1-31-24-27-35(28-25-31)49-42-23-13-10-18-36(42)39-30-34(26-29-43(39)49)47(33-16-6-3-7-17-33)40-21-11-8-19-37(40)46-45(47)44(32-14-4-2-5-15-32)38-20-9-12-22-41(38)48-46/h2-30H,1H3
InChIKey=XRYRVIKLOKMTRQ-UHFFFAOYSA-N

> <PUBCHEM_SUBSTANCE_SYNONYM>
SCHEMBL16116765

> <PUBCHEM_XREF_EXT_ID>
SCHEMBL16116765

> <PUBCHEM_EXT_DATASOURCE_URL>
https://www.surechembl.org/

> <PUBCHEM_EXT_SUBSTANCE_URL>
https://www.surechembl.org/chemical/SCHEMBL16116765

> <PUBCHEM_CID_ASSOCIATIONS>
117606246  1

> <PUBCHEM_COORDINATE_TYPE>
1
3

$$$$
