310949375
  -OEChem-07211613022D

 30 32  0     1  0  0  0  0  0999 V2000
   -1.0113    1.4456    0.0000 F   0  0  0  0  0  0  0  0  0  0  0  0
   -0.8003    2.2397    0.0000 F   0  0  0  0  0  0  0  0  0  0  0  0
   -0.0062    2.4507    0.0000 F   0  0  0  0  0  0  0  0  0  0  0  0
    1.0237   -1.7806    0.0000 N   0  0  0  0  0  0  0  0  0  0  0  0
    0.6639   -2.4507    0.0000 N   0  0  0  0  0  0  0  0  0  0  0  0
   -1.6813   -1.3712    0.0000 N   0  0  3  0  0  0  0  0  0  0  0  0
    3.5178   -1.0609    0.0000 N   0  0  0  0  0  0  0  0  0  0  0  0
   -3.8405   -0.9617    0.0000 N   0  0  0  0  0  0  0  0  0  0  0  0
    0.7383   -0.3040    0.0000 C   0  0  0  0  0  0  0  0  0  0  0  0
    0.5150   -1.1106    0.0000 C   0  0  0  0  0  0  0  0  0  0  0  0
    1.5324   -0.0931    0.0000 C   0  0  0  0  0  0  0  0  0  0  0  0
    0.3784    1.0733    0.0000 C   0  0  0  0  0  0  0  0  0  0  0  0
    1.7558    0.7011    0.0000 C   0  0  0  0  0  0  0  0  0  0  0  0
    0.1799    0.2668    0.0000 C   0  0  0  0  0  0  0  0  0  0  0  0
   -0.2420   -1.3587    0.0000 C   0  0  0  0  0  0  0  0  0  0  0  0
    1.1726    1.2719    0.0000 C   0  0  0  0  0  0  0  0  0  0  0  0
   -0.2296    1.6689    0.0000 C   0  0  0  0  0  0  0  0  0  0  0  0
    2.5747    0.8996    0.0000 C   0  0  0  0  0  0  0  0  0  0  0  0
   -0.2544   -2.1901    0.0000 C   0  0  0  0  0  0  0  0  0  0  0  0
   -0.9741   -0.9617    0.0000 C   0  0  0  0  0  0  0  0  0  0  0  0
    2.1280   -0.6887    0.0000 C   0  0  0  0  0  0  0  0  0  0  0  0
    3.1456    0.3288    0.0000 C   0  0  0  0  0  0  0  0  0  0  0  0
    2.9346   -0.4653    0.0000 C   0  0  0  0  0  0  0  0  0  0  0  0
    3.9521    0.5274    0.0000 C   0  0  0  0  0  0  0  0  0  0  0  0
   -2.4134   -0.9617    0.0000 C   0  0  0  0  0  0  0  0  0  0  0  0
    4.5229   -0.0434    0.0000 C   0  0  0  0  0  0  0  0  0  0  0  0
   -1.6813   -2.1901    0.0000 C   0  0  0  0  0  0  0  0  0  0  0  0
    4.2995   -0.8500    0.0000 C   0  0  0  0  0  0  0  0  0  0  0  0
   -3.1207   -1.3712    0.0000 C   0  0  0  0  0  0  0  0  0  0  0  0
   -4.5229   -1.3712    0.0000 C   0  0  0  0  0  0  0  0  0  0  0  0
  1 17  1  0  0  0  0
  2 17  1  0  0  0  0
  3 17  1  0  0  0  0
  4  5  1  0  0  0  0
  4 10  2  0  0  0  0
  5 19  1  0  0  0  0
  6 20  1  0  0  0  0
  6 25  1  0  0  0  0
  6 27  1  0  0  0  0
  7 23  2  0  0  0  0
  7 28  1  0  0  0  0
  8 29  1  0  0  0  0
  8 30  1  0  0  0  0
  9 10  1  0  0  0  0
  9 11  2  0  0  0  0
  9 14  1  0  0  0  0
 10 15  1  0  0  0  0
 11 13  1  0  0  0  0
 11 21  1  0  0  0  0
 12 14  2  0  0  0  0
 12 16  1  0  0  0  0
 12 17  1  0  0  0  0
 13 16  2  0  0  0  0
 13 18  1  0  0  0  0
 15 19  2  0  0  0  0
 15 20  1  0  0  0  0
 18 22  1  0  0  0  0
 22 23  1  0  0  0  0
 22 24  2  0  0  0  0
 24 26  1  0  0  0  0
 25 29  1  0  0  0  0
 26 28  2  0  0  0  0
M  END
> <PUBCHEM_COMPOUND_ID_TYPE>
0

> <PUBCHEM_TOTAL_CHARGE>
0

> <PUBCHEM_SUBSTANCE_ID>
310949375

> <PUBCHEM_SUBSTANCE_VERSION>
1

> <PUBCHEM_EXT_DATASOURCE_NAME>
4488

> <PUBCHEM_EXT_DATASOURCE_REGID>
SCHEMBL16127567

> <PUBCHEM_SUBSTANCE_COMMENT>
InChI=1S/C22H26F3N5/c1-15-17(9-16-5-4-6-27-12-16)10-19(22(23,24)25)11-20(15)21-18(13-28-29-21)14-30(3)8-7-26-2/h4-6,10-13,26H,7-9,14H2,1-3H3,(H,28,29)
InChIKey=LVJDDAXZTZEAIC-UHFFFAOYSA-N

> <PUBCHEM_SUBSTANCE_SYNONYM>
SCHEMBL16127567

> <PUBCHEM_XREF_EXT_ID>
SCHEMBL16127567

> <PUBCHEM_EXT_DATASOURCE_URL>
https://www.surechembl.org/

> <PUBCHEM_EXT_SUBSTANCE_URL>
https://www.surechembl.org/chemical/SCHEMBL16127567

> <PUBCHEM_CID_ASSOCIATIONS>
117614833  1

> <PUBCHEM_COORDINATE_TYPE>
1
3

$$$$
