310948299
  -OEChem-07211613022D

 45 50  0     1  0  0  0  0  0999 V2000
    2.9532   -2.1512    0.0000 S   0  0  0  0  0  0  0  0  0  0  0  0
    2.7178    3.9313    0.0000 F   0  0  0  0  0  0  0  0  0  0  0  0
    3.2475    3.3034    0.0000 F   0  0  0  0  0  0  0  0  0  0  0  0
    3.0513    0.7135    0.0000 F   0  0  0  0  0  0  0  0  0  0  0  0
   -1.9324    0.9685    0.0000 O   0  0  0  0  0  0  0  0  0  0  0  0
    1.6190    3.3622    0.0000 O   0  0  0  0  0  0  0  0  0  0  0  0
    2.4823    2.3420    0.0000 O   0  0  0  0  0  0  0  0  0  0  0  0
    2.9532   -2.1512    0.0000 O   0  0  0  0  0  0  0  0  0  0  0  0
    2.9532   -2.1512    0.0000 O   0  0  0  0  0  0  0  0  0  0  0  0
   -4.6793    0.1052    0.0000 O   0  0  0  0  0  0  0  0  0  0  0  0
    4.2874   -0.0517    0.0000 O   0  0  0  0  0  0  0  0  0  0  0  0
   -1.3438    2.1654    0.0000 N   0  0  0  0  0  0  0  0  0  0  0  0
   -2.5014   -1.1898    0.0000 N   0  0  0  0  0  0  0  0  0  0  0  0
   -3.2863   -0.9151    0.0000 N   0  0  0  0  0  0  0  0  0  0  0  0
   -0.7159    0.1445    0.0000 C   0  0  0  0  0  0  0  0  0  0  0  0
   -1.0887    0.8704    0.0000 C   0  0  0  0  0  0  0  0  0  0  0  0
   -0.7356    1.6160    0.0000 C   0  0  0  0  0  0  0  0  0  0  0  0
   -1.1476   -0.5619    0.0000 C   0  0  0  0  0  0  0  0  0  0  0  0
    0.1082    1.7534    0.0000 C   0  0  0  0  0  0  0  0  0  0  0  0
   -1.9912   -0.5423    0.0000 C   0  0  0  0  0  0  0  0  0  0  0  0
    0.5006   -0.6012    0.0000 C   0  0  0  0  0  0  0  0  0  0  0  0
    0.1278    0.1052    0.0000 C   0  0  0  0  0  0  0  0  0  0  0  0
    1.1873    2.6560    0.0000 C   0  0  0  0  0  0  0  0  0  0  0  0
    1.3639   -0.6600    0.0000 C   0  0  0  0  0  0  0  0  0  0  0  0
    1.7367    2.0477    0.0000 C   0  0  0  0  0  0  0  0  0  0  0  0
    0.3829    2.5186    0.0000 C   0  0  0  0  0  0  0  0  0  0  0  0
   -2.0501    1.7926    0.0000 C   0  0  0  0  0  0  0  0  0  0  0  0
   -0.7552   -1.2879    0.0000 C   0  0  0  0  0  0  0  0  0  0  0  0
    2.4627    3.1857    0.0000 C   0  0  0  0  0  0  0  0  0  0  0  0
    2.5804   -1.4056    0.0000 C   0  0  0  0  0  0  0  0  0  0  0  0
    0.0689   -1.3075    0.0000 C   0  0  0  0  0  0  0  0  0  0  0  0
    0.6379    1.1255    0.0000 C   0  0  0  0  0  0  0  0  0  0  0  0
   -2.4425    0.1445    0.0000 C   0  0  0  0  0  0  0  0  0  0  0  0
    1.7563   -1.3664    0.0000 C   0  0  0  0  0  0  0  0  0  0  0  0
    3.0121   -0.6993    0.0000 C   0  0  0  0  0  0  0  0  0  0  0  0
    1.4424    1.2628    0.0000 C   0  0  0  0  0  0  0  0  0  0  0  0
   -3.2274   -0.0714    0.0000 C   0  0  0  0  0  0  0  0  0  0  0  0
    1.7956    0.0464    0.0000 C   0  0  0  0  0  0  0  0  0  0  0  0
    2.6000    0.0267    0.0000 C   0  0  0  0  0  0  0  0  0  0  0  0
   -3.9141    0.4388    0.0000 C   0  0  3  0  0  0  0  0  0  0  0  0
   -2.8154    2.1262    0.0000 C   0  0  0  0  0  0  0  0  0  0  0  0
    3.8557   -0.7385    0.0000 C   0  0  0  0  0  0  0  0  0  0  0  0
   -2.2463   -1.9942    0.0000 C   0  0  0  0  0  0  0  0  0  0  0  0
    4.6793   -3.9313    0.0000 C   0  0  0  0  0  0  0  0  0  0  0  0
   -3.7964    1.2432    0.0000 C   0  0  0  0  0  0  0  0  0  0  0  0
  1  8  2  0  0  0  0
  1  9  2  0  0  0  0
  1 30  1  0  0  0  0
  1 44  1  0  0  0  0
  2 29  1  0  0  0  0
  3 29  1  0  0  0  0
  4 39  1  0  0  0  0
  5 16  1  0  0  0  0
  5 27  1  0  0  0  0
  6 23  1  0  0  0  0
  6 29  1  0  0  0  0
  7 25  1  0  0  0  0
  7 29  1  0  0  0  0
 10 40  1  0  0  0  0
 11 42  1  0  0  0  0
 12 17  1  0  0  0  0
 12 27  2  0  0  0  0
 13 14  1  0  0  0  0
 13 20  1  0  0  0  0
 13 43  1  0  0  0  0
 14 37  2  0  0  0  0
 15 16  1  0  0  0  0
 15 18  1  0  0  0  0
 15 22  2  0  0  0  0
 16 17  2  0  0  0  0
 17 19  1  0  0  0  0
 18 20  1  0  0  0  0
 18 28  2  0  0  0  0
 19 26  1  0  0  0  0
 19 32  2  0  0  0  0
 20 33  2  0  0  0  0
 21 22  1  0  0  0  0
 21 24  1  0  0  0  0
 21 31  2  0  0  0  0
 23 25  1  0  0  0  0
 23 26  2  0  0  0  0
 24 34  1  0  0  0  0
 24 38  2  0  0  0  0
 25 36  2  0  0  0  0
 27 41  1  0  0  0  0
 28 31  1  0  0  0  0
 30 34  2  0  0  0  0
 30 35  1  0  0  0  0
 32 36  1  0  0  0  0
 33 37  1  0  0  0  0
 35 39  2  0  0  0  0
 35 42  1  0  0  0  0
 37 40  1  0  0  0  0
 38 39  1  0  0  0  0
 40 45  1  0  0  0  0
M  END
> <PUBCHEM_COMPOUND_ID_TYPE>
0

> <PUBCHEM_TOTAL_CHARGE>
0

> <PUBCHEM_SUBSTANCE_ID>
310948299

> <PUBCHEM_SUBSTANCE_VERSION>
1

> <PUBCHEM_EXT_DATASOURCE_NAME>
4488

> <PUBCHEM_EXT_DATASOURCE_REGID>
SCHEMBL16126476

> <PUBCHEM_SUBSTANCE_COMMENT>
InChI=1S/C31H26F3N3O7S/c1-15(39)24-13-25(37(3)36-24)20-7-5-17(19-10-23(32)22(14-38)28(12-19)45(4,40)41)9-21(20)30-29(35-16(2)42-30)18-6-8-26-27(11-18)44-31(33,34)43-26/h5-13,15,38-39H,14H2,1-4H3
InChIKey=LSXDLEUCNJSCFF-UHFFFAOYSA-N

> <PUBCHEM_SUBSTANCE_SYNONYM>
SCHEMBL16126476

> <PUBCHEM_XREF_EXT_ID>
SCHEMBL16126476

> <PUBCHEM_EXT_DATASOURCE_URL>
https://www.surechembl.org/

> <PUBCHEM_EXT_SUBSTANCE_URL>
https://www.surechembl.org/chemical/SCHEMBL16126476

> <PUBCHEM_CID_ASSOCIATIONS>
86276085  1

> <PUBCHEM_COORDINATE_TYPE>
1
3

$$$$
