310933809
  -OEChem-07211613022D

 42 45  0     1  0  0  0  0  0999 V2000
    2.1434    0.7425    0.0000 Cl  0  0  0  0  0  0  0  0  0  0  0  0
   -1.4290   -1.3200    0.0000 O   0  0  0  0  0  0  0  0  0  0  0  0
    0.7145    1.2375    0.0000 O   0  0  0  0  0  0  0  0  0  0  0  0
    2.8579   -2.9700    0.0000 O   0  5  0  0  0  0  0  0  0  0  0  0
    1.4290   -2.9700    0.0000 O   0  0  0  0  0  0  0  0  0  0  0  0
    1.4290    4.1250    0.0000 O   0  0  0  0  0  0  0  0  0  0  0  0
    0.7145    2.8875    0.0000 O   0  0  0  0  0  0  0  0  0  0  0  0
   -0.7145   -2.5575    0.0000 N   0  0  0  0  0  0  0  0  0  0  0  0
    2.1434   -2.5575    0.0000 N   0  3  0  0  0  0  0  0  0  0  0  0
   -1.4290    0.0000    0.0000 N   0  0  0  0  0  0  0  0  0  0  0  0
    1.4290    0.0000    0.0000 N   0  0  0  0  0  0  0  0  0  0  0  0
    0.0000   -1.3200    0.0000 C   0  0  0  0  0  0  0  0  0  0  0  0
    0.7145   -1.7325    0.0000 C   0  0  0  0  0  0  0  0  0  0  0  0
    0.0000    0.0000    0.0000 C   0  0  3  0  0  0  0  0  0  0  0  0
    1.4290   -1.3200    0.0000 C   0  0  0  0  0  0  0  0  0  0  0  0
   -0.7145   -1.7325    0.0000 C   0  0  0  0  0  0  0  0  0  0  0  0
   -0.7145    0.4125    0.0000 C   0  0  3  0  0  0  0  0  0  0  0  0
    2.1434   -1.7325    0.0000 C   0  0  0  0  0  0  0  0  0  0  0  0
   -0.7145    1.2375    0.0000 C   0  0  0  0  0  0  0  0  0  0  0  0
    0.7145   -2.5575    0.0000 C   0  0  0  0  0  0  0  0  0  0  0  0
    0.7145    0.4125    0.0000 C   0  0  0  0  0  0  0  0  0  0  0  0
    1.4290   -0.4950    0.0000 C   0  0  0  0  0  0  0  0  0  0  0  0
    0.0000   -2.9700    0.0000 C   0  0  0  0  0  0  0  0  0  0  0  0
   -0.7145    2.8875    0.0000 C   0  0  0  0  0  0  0  0  0  0  0  0
    2.8579   -1.3200    0.0000 C   0  0  0  0  0  0  0  0  0  0  0  0
    2.1434   -0.0825    0.0000 C   0  0  0  0  0  0  0  0  0  0  0  0
   -0.7145    3.7125    0.0000 C   0  0  0  0  0  0  0  0  0  0  0  0
    0.0000    1.6500    0.0000 C   0  0  0  0  0  0  0  0  0  0  0  0
   -1.4290    1.6500    0.0000 C   0  0  0  0  0  0  0  0  0  0  0  0
    0.0000    4.1250    0.0000 C   0  0  0  0  0  0  0  0  0  0  0  0
    2.8579   -0.4950    0.0000 C   0  0  0  0  0  0  0  0  0  0  0  0
    0.0000    2.4750    0.0000 C   0  0  0  0  0  0  0  0  0  0  0  0
   -1.4290    2.4750    0.0000 C   0  0  0  0  0  0  0  0  0  0  0  0
    0.7145    3.7125    0.0000 C   0  0  0  0  0  0  0  0  0  0  0  0
   -1.4290    4.1250    0.0000 C   0  0  0  0  0  0  0  0  0  0  0  0
    0.0000    4.9500    0.0000 C   0  0  0  0  0  0  0  0  0  0  0  0
   -1.4290    4.9500    0.0000 C   0  0  0  0  0  0  0  0  0  0  0  0
   -0.7145    5.3625    0.0000 C   0  0  0  0  0  0  0  0  0  0  0  0
    2.1434    3.7125    0.0000 C   0  0  0  0  0  0  0  0  0  0  0  0
    2.8579    3.3000    0.0000 C   0  0  0  0  0  0  0  0  0  0  0  0
    2.1434    2.8875    0.0000 C   0  0  0  0  0  0  0  0  0  0  0  0
    2.8579    4.1250    0.0000 C   0  0  0  0  0  0  0  0  0  0  0  0
  1 26  1  0  0  0  0
  2 16  2  0  0  0  0
  3 21  2  0  0  0  0
  4  9  1  0  0  0  0
  5  9  2  0  0  0  0
  6 34  1  0  0  0  0
  6 39  1  0  0  0  0
  7 34  2  0  0  0  0
  8 16  1  0  0  0  0
  8 23  1  0  0  0  0
  9 18  1  0  0  0  0
 10 17  1  0  0  0  0
 11 21  1  0  0  0  0
 12 13  2  0  0  0  0
 12 14  1  0  0  0  0
 12 16  1  0  0  0  0
 13 15  1  0  0  0  0
 13 20  1  0  0  0  0
 14 17  1  0  0  0  0
 14 21  1  0  0  0  0
 15 18  1  0  0  0  0
 15 22  2  0  0  0  0
 17 19  1  0  0  0  0
 18 25  2  0  0  0  0
 19 28  2  0  0  0  0
 19 29  1  0  0  0  0
 20 23  2  0  0  0  0
 22 26  1  0  0  0  0
 24 27  1  0  0  0  0
 24 32  2  0  0  0  0
 24 33  1  0  0  0  0
 25 31  1  0  0  0  0
 26 31  2  0  0  0  0
 27 30  1  0  0  0  0
 27 35  2  0  0  0  0
 28 32  1  0  0  0  0
 29 33  2  0  0  0  0
 30 34  1  0  0  0  0
 30 36  2  0  0  0  0
 35 37  1  0  0  0  0
 36 38  1  0  0  0  0
 37 38  2  0  0  0  0
 39 40  1  0  0  0  0
 39 41  1  0  0  0  0
 39 42  1  0  0  0  0
M  CHG  2   4  -1   9   1
M  END
> <PUBCHEM_COMPOUND_ID_TYPE>
0

> <PUBCHEM_TOTAL_CHARGE>
0

> <PUBCHEM_SUBSTANCE_ID>
310933809

> <PUBCHEM_SUBSTANCE_VERSION>
1

> <PUBCHEM_EXT_DATASOURCE_NAME>
4488

> <PUBCHEM_EXT_DATASOURCE_REGID>
SCHEMBL16111247

> <PUBCHEM_SUBSTANCE_COMMENT>
InChI=1S/C31H29ClN4O6/c1-31(2,3)42-30(39)22-7-5-4-6-20(22)17-8-10-18(11-9-17)27(33)26(28(34)37)25-21(14-15-35-29(25)38)23-16-19(32)12-13-24(23)36(40)41/h4-16,26-27H,33H2,1-3H3,(H2,34,37)(H,35,38)
InChIKey=RVBRVZHNRAXKNE-UHFFFAOYSA-N

> <PUBCHEM_SUBSTANCE_SYNONYM>
SCHEMBL16111247

> <PUBCHEM_XREF_EXT_ID>
SCHEMBL16111247

> <PUBCHEM_EXT_DATASOURCE_URL>
https://www.surechembl.org/

> <PUBCHEM_EXT_SUBSTANCE_URL>
https://www.surechembl.org/chemical/SCHEMBL16111247

> <PUBCHEM_CID_ASSOCIATIONS>
117602157  1

> <PUBCHEM_COORDINATE_TYPE>
1
3

$$$$
