310934024
  -OEChem-07211613022D

 35 41  0     1  0  0  0  0  0999 V2000
    4.5106  -10.1363    0.0000 O   0  0  0  0  0  0  0  0  0  0  0  0
    5.7777   -9.4268    0.0000 O   0  0  0  0  0  0  0  0  0  0  0  0
    3.7504   -7.3488    0.0000 N   0  0  3  0  0  0  0  0  0  0  0  0
    4.5106   -8.7172    0.0000 N   0  0  0  0  0  0  0  0  0  0  0  0
    0.8616   -3.7504    0.0000 N   0  0  0  0  0  0  0  0  0  0  0  0
    0.1014   -3.5477    0.0000 N   0  0  0  0  0  0  0  0  0  0  0  0
    2.1286   -3.0409    0.0000 N   0  0  0  0  0  0  0  0  0  0  0  0
    1.2670    0.0000    0.0000 N   0  0  0  0  0  0  0  0  0  0  0  0
    3.3450   -8.0077    0.0000 C   0  0  3  0  0  0  0  0  0  0  0  0
    4.9161   -8.0077    0.0000 C   0  0  3  0  0  0  0  0  0  0  0  0
    0.7602   -2.4327    0.0000 C   0  0  0  0  0  0  0  0  0  0  0  0
    1.3177   -2.9902    0.0000 C   0  0  0  0  0  0  0  0  0  0  0  0
    4.5106   -7.3488    0.0000 C   0  0  0  0  0  0  0  0  0  0  0  0
    4.1559   -8.4638    0.0000 C   0  0  0  0  0  0  0  0  0  0  0  0
    3.3450   -6.6393    0.0000 C   0  0  0  0  0  0  0  0  0  0  0  0
    0.9123   -1.6218    0.0000 C   0  0  0  0  0  0  0  0  0  0  0  0
    3.7504   -8.7172    0.0000 C   0  0  0  0  0  0  0  0  0  0  0  0
    2.0780   -4.4600    0.0000 C   0  0  0  0  0  0  0  0  0  0  0  0
    1.7231   -1.3684    0.0000 C   0  0  0  0  0  0  0  0  0  0  0  0
    2.4834   -5.1695    0.0000 C   0  0  0  0  0  0  0  0  0  0  0  0
    1.2670   -4.4600    0.0000 C   0  0  0  0  0  0  0  0  0  0  0  0
    0.0000   -2.7368    0.0000 C   0  0  0  0  0  0  0  0  0  0  0  0
    4.9668   -9.4268    0.0000 C   0  0  0  0  0  0  0  0  0  0  0  0
    1.8752   -0.5575    0.0000 C   0  0  0  0  0  0  0  0  0  0  0  0
    2.4834   -6.5886    0.0000 C   0  0  0  0  0  0  0  0  0  0  0  0
    3.7504   -5.8791    0.0000 C   0  0  0  0  0  0  0  0  0  0  0  0
    2.5341   -3.7504    0.0000 C   0  0  0  0  0  0  0  0  0  0  0  0
    2.0780   -5.8791    0.0000 C   0  0  0  0  0  0  0  0  0  0  0  0
    3.3450   -5.1695    0.0000 C   0  0  0  0  0  0  0  0  0  0  0  0
    0.3041   -1.0643    0.0000 C   0  0  0  0  0  0  0  0  0  0  0  0
    2.2807   -1.9259    0.0000 C   0  0  0  0  0  0  0  0  0  0  0  0
    0.4561   -0.2534    0.0000 C   0  0  0  0  0  0  0  0  0  0  0  0
    2.6354   -0.3041    0.0000 C   0  0  0  0  0  0  0  0  0  0  0  0
    3.0916   -1.6725    0.0000 C   0  0  0  0  0  0  0  0  0  0  0  0
    3.2436   -0.8616    0.0000 C   0  0  0  0  0  0  0  0  0  0  0  0
  1 23  2  0  0  0  0
  2 23  1  0  0  0  0
  3  9  1  0  0  0  0
  3 13  1  0  0  0  0
  3 15  1  0  0  0  0
  4 10  1  0  0  0  0
  4 17  1  0  0  0  0
  4 23  1  0  0  0  0
  5  6  1  0  0  0  0
  5 12  1  0  0  0  0
  5 21  1  0  0  0  0
  6 22  2  0  0  0  0
  7 12  1  0  0  0  0
  7 27  2  0  0  0  0
  8 24  2  0  0  0  0
  8 32  1  0  0  0  0
  9 14  1  0  0  0  0
  9 17  1  0  0  0  0
 10 13  1  0  0  0  0
 10 14  1  0  0  0  0
 11 12  2  0  0  0  0
 11 16  1  0  0  0  0
 11 22  1  0  0  0  0
 15 25  2  0  0  0  0
 15 26  1  0  0  0  0
 16 19  2  0  0  0  0
 16 30  1  0  0  0  0
 18 20  1  0  0  0  0
 18 21  2  0  0  0  0
 18 27  1  0  0  0  0
 19 24  1  0  0  0  0
 19 31  1  0  0  0  0
 20 28  2  0  0  0  0
 20 29  1  0  0  0  0
 24 33  1  0  0  0  0
 25 28  1  0  0  0  0
 26 29  2  0  0  0  0
 30 32  2  0  0  0  0
 31 34  2  0  0  0  0
 33 35  2  0  0  0  0
 34 35  1  0  0  0  0
M  END
> <PUBCHEM_COMPOUND_ID_TYPE>
0

> <PUBCHEM_TOTAL_CHARGE>
0

> <PUBCHEM_SUBSTANCE_ID>
310934024

> <PUBCHEM_SUBSTANCE_VERSION>
1

> <PUBCHEM_EXT_DATASOURCE_NAME>
4488

> <PUBCHEM_EXT_DATASOURCE_REGID>
SCHEMBL16111468

> <PUBCHEM_SUBSTANCE_COMMENT>
InChI=1S/C27H22N6O2/c34-27(35)32-16-20-11-21(32)15-31(20)19-7-5-17(6-8-19)18-12-29-26-24(13-30-33(26)14-18)22-9-10-28-25-4-2-1-3-23(22)25/h1-10,12-14,20-21H,11,15-16H2,(H,34,35)
InChIKey=DQJDDQWYIWSGFR-UHFFFAOYSA-N

> <PUBCHEM_SUBSTANCE_SYNONYM>
SCHEMBL16111468

> <PUBCHEM_XREF_EXT_ID>
SCHEMBL16111468

> <PUBCHEM_EXT_DATASOURCE_URL>
https://www.surechembl.org/

> <PUBCHEM_EXT_SUBSTANCE_URL>
https://www.surechembl.org/chemical/SCHEMBL16111468

> <PUBCHEM_CID_ASSOCIATIONS>
117602324  1

> <PUBCHEM_COORDINATE_TYPE>
1
3

$$$$
