310937718
  -OEChem-07211613022D

 26 29  0     1  0  0  0  0  0999 V2000
    2.4775    0.0000    0.0000 F   0  0  0  0  0  0  0  0  0  0  0  0
    3.7539   -5.5932    0.0000 O   0  0  0  0  0  0  0  0  0  0  0  0
    0.0000   -2.8905    0.0000 O   0  0  0  0  0  0  0  0  0  0  0  0
    2.0646   -5.0302    0.0000 N   0  0  0  0  0  0  0  0  0  0  0  0
    1.2388   -3.6037    0.0000 N   0  0  0  0  0  0  0  0  0  0  0  0
    0.9760   -5.7810    0.0000 N   0  0  0  0  0  0  0  0  0  0  0  0
    1.6517   -6.2690    0.0000 N   0  0  0  0  0  0  0  0  0  0  0  0
    3.3409   -6.8320    0.0000 N   0  0  0  0  0  0  0  0  0  0  0  0
    4.4296   -6.0438    0.0000 N   0  0  0  0  0  0  0  0  0  0  0  0
    1.2388   -4.9926    0.0000 C   0  0  0  0  0  0  0  0  0  0  0  0
    2.3274   -5.7810    0.0000 C   0  0  0  0  0  0  0  0  0  0  0  0
    0.8258   -4.2794    0.0000 C   0  0  3  0  0  0  0  0  0  0  0  0
    3.0782   -6.0438    0.0000 C   0  0  0  0  0  0  0  0  0  0  0  0
    2.4775   -4.2794    0.0000 C   0  0  0  0  0  0  0  0  0  0  0  0
    0.8258   -2.8905    0.0000 C   0  0  0  0  0  0  0  0  0  0  0  0
    2.1022   -3.6037    0.0000 C   0  0  0  0  0  0  0  0  0  0  0  0
    1.2388   -2.1397    0.0000 C   0  0  0  0  0  0  0  0  0  0  0  0
    4.1668   -6.8320    0.0000 C   0  0  0  0  0  0  0  0  0  0  0  0
    0.0000   -4.2794    0.0000 C   0  0  0  0  0  0  0  0  0  0  0  0
    0.8258   -1.4265    0.0000 C   0  0  0  0  0  0  0  0  0  0  0  0
    2.0646   -2.1397    0.0000 C   0  0  0  0  0  0  0  0  0  0  0  0
    4.6548   -7.5078    0.0000 C   0  0  0  0  0  0  0  0  0  0  0  0
    1.2388   -0.7132    0.0000 C   0  0  0  0  0  0  0  0  0  0  0  0
    2.4775   -1.4265    0.0000 C   0  0  0  0  0  0  0  0  0  0  0  0
    2.0646   -0.7132    0.0000 C   0  0  0  0  0  0  0  0  0  0  0  0
    5.4806   -7.4327    0.0000 C   0  0  0  0  0  0  0  0  0  0  0  0
  1 25  1  0  0  0  0
  2  9  1  0  0  0  0
  2 13  1  0  0  0  0
  3 15  2  0  0  0  0
  4 10  1  0  0  0  0
  4 11  1  0  0  0  0
  4 14  1  0  0  0  0
  5 12  1  0  0  0  0
  5 15  1  0  0  0  0
  5 16  1  0  0  0  0
  6  7  1  0  0  0  0
  6 10  2  0  0  0  0
  7 11  2  0  0  0  0
  8 13  2  0  0  0  0
  8 18  1  0  0  0  0
  9 18  2  0  0  0  0
 10 12  1  0  0  0  0
 11 13  1  0  0  0  0
 12 19  1  0  0  0  0
 14 16  1  0  0  0  0
 15 17  1  0  0  0  0
 17 20  2  0  0  0  0
 17 21  1  0  0  0  0
 18 22  1  0  0  0  0
 20 23  1  0  0  0  0
 21 24  2  0  0  0  0
 22 26  1  0  0  0  0
 23 25  2  0  0  0  0
 24 25  1  0  0  0  0
M  END
> <PUBCHEM_COMPOUND_ID_TYPE>
0

> <PUBCHEM_TOTAL_CHARGE>
0

> <PUBCHEM_SUBSTANCE_ID>
310937718

> <PUBCHEM_SUBSTANCE_VERSION>
1

> <PUBCHEM_EXT_DATASOURCE_NAME>
4488

> <PUBCHEM_EXT_DATASOURCE_REGID>
SCHEMBL16115514

> <PUBCHEM_SUBSTANCE_COMMENT>
InChI=1S/C17H17FN6O2/c1-3-13-19-16(26-22-13)15-21-20-14-10(2)23(8-9-24(14)15)17(25)11-4-6-12(18)7-5-11/h4-7,10H,3,8-9H2,1-2H3
InChIKey=AWKTWOOCLJMRQH-UHFFFAOYSA-N

> <PUBCHEM_SUBSTANCE_SYNONYM>
SCHEMBL16115514

> <PUBCHEM_XREF_EXT_ID>
SCHEMBL16115514

> <PUBCHEM_EXT_DATASOURCE_URL>
https://www.surechembl.org/

> <PUBCHEM_EXT_SUBSTANCE_URL>
https://www.surechembl.org/chemical/SCHEMBL16115514

> <PUBCHEM_CID_ASSOCIATIONS>
86272101  1

> <PUBCHEM_COORDINATE_TYPE>
1
3

$$$$
