310944264
  -OEChem-07211613022D

 32 35  0     1  0  0  0  0  0999 V2000
   -4.9399   -0.3302    0.0000 Cl  0  0  0  0  0  0  0  0  0  0  0  0
    2.4108    2.1616    0.0000 O   0  0  0  0  0  0  0  0  0  0  0  0
   -0.4672    2.1616    0.0000 O   0  0  0  0  0  0  0  0  0  0  0  0
   -1.9000   -0.3302    0.0000 O   0  0  0  0  0  0  0  0  0  0  0  0
    4.1551   -2.1616    0.0000 O   0  0  0  0  0  0  0  0  0  0  0  0
    1.7131    0.0810    0.0000 N   0  0  3  0  0  0  0  0  0  0  0  0
    0.2803    0.9157    0.0000 N   0  0  0  0  0  0  0  0  0  0  0  0
   -1.8875    1.3268    0.0000 N   0  0  0  0  0  0  0  0  0  0  0  0
    3.2829    0.9157    0.0000 N   0  0  0  0  0  0  0  0  0  0  0  0
    2.4357   -0.3302    0.0000 C   0  0  0  0  0  0  0  0  0  0  0  0
    1.7131    0.9282    0.0000 C   0  0  3  0  0  0  0  0  0  0  0  0
    3.4324   -0.9032    0.0000 C   0  0  0  0  0  0  0  0  0  0  0  0
    2.6475   -1.1275    0.0000 C   0  0  0  0  0  0  0  0  0  0  0  0
    3.2330   -0.1184    0.0000 C   0  0  0  0  0  0  0  0  0  0  0  0
   -4.0429    0.9157    0.0000 C   0  0  0  0  0  0  0  0  0  0  0  0
    0.9905    1.3268    0.0000 C   0  0  0  0  0  0  0  0  0  0  0  0
   -4.7655    1.3393    0.0000 C   0  0  0  0  0  0  0  0  0  0  0  0
    1.0029   -0.3302    0.0000 C   0  0  0  0  0  0  0  0  0  0  0  0
   -2.6101    0.9282    0.0000 C   0  0  0  0  0  0  0  0  0  0  0  0
   -4.0554    0.0934    0.0000 C   0  0  0  0  0  0  0  0  0  0  0  0
    2.4108    1.3144    0.0000 C   0  0  0  0  0  0  0  0  0  0  0  0
    0.2679    0.0934    0.0000 C   0  0  0  0  0  0  0  0  0  0  0  0
   -0.4672    1.3144    0.0000 C   0  0  0  0  0  0  0  0  0  0  0  0
   -3.3203    1.3268    0.0000 C   0  0  0  0  0  0  0  0  0  0  0  0
   -2.6226    0.0934    0.0000 C   0  0  0  0  0  0  0  0  0  0  0  0
    4.1675   -1.3144    0.0000 C   0  0  0  0  0  0  0  0  0  0  0  0
   -5.5753    1.3393    0.0000 C   0  0  0  0  0  0  0  0  0  0  0  0
   -5.1767    2.0370    0.0000 C   0  0  0  0  0  0  0  0  0  0  0  0
   -3.3327   -0.3177    0.0000 C   0  0  0  0  0  0  0  0  0  0  0  0
   -1.1649    0.9157    0.0000 C   0  0  0  0  0  0  0  0  0  0  0  0
    4.8777   -0.9157    0.0000 C   0  0  0  0  0  0  0  0  0  0  0  0
    5.5753   -1.3642    0.0000 C   0  0  0  0  0  0  0  0  0  0  0  0
  1 20  1  0  0  0  0
  2 21  2  0  0  0  0
  3 23  2  0  0  0  0
  4 25  1  0  0  0  0
  5 26  2  0  0  0  0
  6 10  1  0  0  0  0
  6 11  1  0  0  0  0
  6 18  1  0  0  0  0
  7 16  1  0  0  0  0
  7 22  1  0  0  0  0
  7 23  1  0  0  0  0
  8 19  1  0  0  0  0
  8 30  1  0  0  0  0
  9 21  1  0  0  0  0
 10 13  1  0  0  0  0
 10 14  1  0  0  0  0
 11 16  1  0  0  0  0
 11 21  1  0  0  0  0
 12 13  1  0  0  0  0
 12 14  1  0  0  0  0
 12 26  1  0  0  0  0
 15 17  1  0  0  0  0
 15 20  2  0  0  0  0
 15 24  1  0  0  0  0
 17 27  1  0  0  0  0
 17 28  1  0  0  0  0
 18 22  1  0  0  0  0
 19 24  2  0  0  0  0
 19 25  1  0  0  0  0
 20 29  1  0  0  0  0
 23 30  1  0  0  0  0
 25 29  2  0  0  0  0
 26 31  1  0  0  0  0
 27 28  1  0  0  0  0
 31 32  2  0  0  0  0
M  END
> <PUBCHEM_COMPOUND_ID_TYPE>
0

> <PUBCHEM_TOTAL_CHARGE>
0

> <PUBCHEM_SUBSTANCE_ID>
310944264

> <PUBCHEM_SUBSTANCE_VERSION>
1

> <PUBCHEM_EXT_DATASOURCE_NAME>
4488

> <PUBCHEM_EXT_DATASOURCE_REGID>
SCHEMBL16122339

> <PUBCHEM_SUBSTANCE_COMMENT>
InChI=1S/C23H29ClN4O4/c1-2-20(29)14-7-15(8-14)28-6-5-27(12-19(28)23(25)32)22(31)11-26-18-9-16(13-3-4-13)17(24)10-21(18)30/h2,9-10,13-15,19,26,30H,1,3-8,11-12H2,(H2,25,32)
InChIKey=SJMHMDDEFDJSMX-UHFFFAOYSA-N

> <PUBCHEM_SUBSTANCE_SYNONYM>
SCHEMBL16122339

> <PUBCHEM_XREF_EXT_ID>
SCHEMBL16122339

> <PUBCHEM_EXT_DATASOURCE_URL>
https://www.surechembl.org/

> <PUBCHEM_EXT_SUBSTANCE_URL>
https://www.surechembl.org/chemical/SCHEMBL16122339

> <PUBCHEM_CID_ASSOCIATIONS>
117610533  1

> <PUBCHEM_COORDINATE_TYPE>
1
3

$$$$
