310933628
  -OEChem-07211613022D

 24 27  0     1  0  0  0  0  0999 V2000
    0.0000   -4.1797    0.0000 O   0  0  0  0  0  0  0  0  0  0  0  0
    1.9715   -0.9989    0.0000 O   0  0  0  0  0  0  0  0  0  0  0  0
    5.4941   -3.0494    0.0000 O   0  0  0  0  0  0  0  0  0  0  0  0
    4.1797   -2.3922    0.0000 N   0  0  0  0  0  0  0  0  0  0  0  0
    4.1797   -3.7065    0.0000 N   0  0  0  0  0  0  0  0  0  0  0  0
    0.3943   -4.8895    0.0000 N   0  0  0  0  0  0  0  0  0  0  0  0
    3.4174   -2.6287    0.0000 C   0  0  0  0  0  0  0  0  0  0  0  0
    2.6813   -2.2344    0.0000 C   0  0  0  0  0  0  0  0  0  0  0  0
    3.4174   -3.4962    0.0000 C   0  0  0  0  0  0  0  0  0  0  0  0
    1.9978   -3.4962    0.0000 C   0  0  0  0  0  0  0  0  0  0  0  0
    1.2881   -3.8906    0.0000 C   0  0  0  0  0  0  0  0  0  0  0  0
    1.9978   -2.6287    0.0000 C   0  0  0  0  0  0  0  0  0  0  0  0
    2.6813   -3.8906    0.0000 C   0  0  0  0  0  0  0  0  0  0  0  0
    2.6813   -1.4196    0.0000 C   0  0  3  0  0  0  0  0  0  0  0  0
    4.6792   -3.0494    0.0000 C   0  0  0  0  0  0  0  0  0  0  0  0
    0.5258   -3.5751    0.0000 C   0  0  0  0  0  0  0  0  0  0  0  0
    1.1830   -4.7055    0.0000 C   0  0  0  0  0  0  0  0  0  0  0  0
    3.3911   -0.9989    0.0000 C   0  0  0  0  0  0  0  0  0  0  0  0
    3.4437   -0.1840    0.0000 C   0  0  0  0  0  0  0  0  0  0  0  0
    4.1271   -1.3144    0.0000 C   0  0  0  0  0  0  0  0  0  0  0  0
    0.3417   -2.7602    0.0000 C   0  0  0  0  0  0  0  0  0  0  0  0
    1.8138   -5.2575    0.0000 C   0  0  0  0  0  0  0  0  0  0  0  0
    4.2586    0.0000    0.0000 C   0  0  0  0  0  0  0  0  0  0  0  0
    4.6792   -0.7097    0.0000 C   0  0  0  0  0  0  0  0  0  0  0  0
  1  6  1  0  0  0  0
  1 16  1  0  0  0  0
  2 14  1  0  0  0  0
  3 15  2  0  0  0  0
  4  7  1  0  0  0  0
  4 15  1  0  0  0  0
  5  9  1  0  0  0  0
  5 15  1  0  0  0  0
  6 17  2  0  0  0  0
  7  8  1  0  0  0  0
  7  9  2  0  0  0  0
  8 12  2  0  0  0  0
  8 14  1  0  0  0  0
  9 13  1  0  0  0  0
 10 11  1  0  0  0  0
 10 12  1  0  0  0  0
 10 13  2  0  0  0  0
 11 16  2  0  0  0  0
 11 17  1  0  0  0  0
 14 18  1  0  0  0  0
 16 21  1  0  0  0  0
 17 22  1  0  0  0  0
 18 19  1  0  0  0  0
 18 20  1  0  0  0  0
 19 23  1  0  0  0  0
 20 24  1  0  0  0  0
 23 24  1  0  0  0  0
M  END
> <PUBCHEM_COMPOUND_ID_TYPE>
0

> <PUBCHEM_TOTAL_CHARGE>
0

> <PUBCHEM_SUBSTANCE_ID>
310933628

> <PUBCHEM_SUBSTANCE_VERSION>
1

> <PUBCHEM_EXT_DATASOURCE_NAME>
4488

> <PUBCHEM_EXT_DATASOURCE_REGID>
SCHEMBL16111059

> <PUBCHEM_SUBSTANCE_COMMENT>
InChI=1S/C18H21N3O3/c1-9-15(10(2)24-21-9)12-7-13(17(22)11-5-3-4-6-11)16-14(8-12)19-18(23)20-16/h7-8,11,17,22H,3-6H2,1-2H3,(H2,19,20,23)
InChIKey=SNKIOPQCTJCNNC-UHFFFAOYSA-N

> <PUBCHEM_SUBSTANCE_SYNONYM>
SCHEMBL16111059

> <PUBCHEM_XREF_EXT_ID>
SCHEMBL16111059

> <PUBCHEM_EXT_DATASOURCE_URL>
https://www.surechembl.org/

> <PUBCHEM_EXT_SUBSTANCE_URL>
https://www.surechembl.org/chemical/SCHEMBL16111059

> <PUBCHEM_CID_ASSOCIATIONS>
117602001  1

> <PUBCHEM_COORDINATE_TYPE>
1
3

$$$$
