310931400
  -OEChem-07211613022D

 29 31  0     1  0  0  0  0  0999 V2000
    2.3826   -1.9358    0.0000 O   0  0  0  0  0  0  0  0  0  0  0  0
    4.1198   -1.4395    0.0000 O   0  0  0  0  0  0  0  0  0  0  0  0
    0.6701   -1.0176    0.0000 O   0  0  0  0  0  0  0  0  0  0  0  0
    0.0000   -2.0351    0.0000 O   0  0  0  0  0  0  0  0  0  0  0  0
    3.7475   -1.3650    0.0000 N   0  0  0  0  0  0  0  0  0  0  0  0
    3.6483   -2.7052    0.0000 C   0  0  3  0  0  0  0  0  0  0  0  0
    4.4425   -2.4818    0.0000 C   0  0  3  0  0  0  0  0  0  0  0  0
    3.4249   -3.4994    0.0000 C   0  0  3  0  0  0  0  0  0  0  0  0
    3.2015   -1.9855    0.0000 C   0  0  0  0  0  0  0  0  0  0  0  0
    4.4921   -1.6876    0.0000 C   0  0  3  0  0  0  0  0  0  0  0  0
    3.4249   -1.8862    0.0000 C   0  0  0  0  0  0  0  0  0  0  0  0
    4.9884   -3.0774    0.0000 C   0  0  3  0  0  0  0  0  0  0  0  0
    4.7651   -3.8716    0.0000 C   0  0  0  0  0  0  0  0  0  0  0  0
    3.9461   -4.0950    0.0000 C   0  0  0  0  0  0  0  0  0  0  0  0
    2.7796   -4.0454    0.0000 C   0  0  0  0  0  0  0  0  0  0  0  0
    5.1870   -1.2409    0.0000 C   0  0  0  0  0  0  0  0  0  0  0  0
    2.7796   -1.3650    0.0000 C   0  0  0  0  0  0  0  0  0  0  0  0
    5.7826   -2.8789    0.0000 C   0  0  0  0  0  0  0  0  0  0  0  0
    1.9607   -4.1446    0.0000 C   0  0  0  0  0  0  0  0  0  0  0  0
    5.3359   -4.4673    0.0000 C   0  0  0  0  0  0  0  0  0  0  0  0
    5.1622   -0.4219    0.0000 C   0  0  0  0  0  0  0  0  0  0  0  0
    1.9607   -1.2409    0.0000 C   0  0  0  0  0  0  0  0  0  0  0  0
    1.2161   -1.6380    0.0000 C   0  0  3  0  0  0  0  0  0  0  0  0
    1.2161   -3.7723    0.0000 C   0  0  0  0  0  0  0  0  0  0  0  0
    0.7942   -2.2584    0.0000 C   0  0  3  0  0  0  0  0  0  0  0  0
    1.8365   -4.9636    0.0000 C   0  0  0  0  0  0  0  0  0  0  0  0
    0.7942   -3.1271    0.0000 C   0  0  0  0  0  0  0  0  0  0  0  0
    5.8571    0.0000    0.0000 C   0  0  0  0  0  0  0  0  0  0  0  0
    4.4425   -0.0248    0.0000 C   0  0  0  0  0  0  0  0  0  0  0  0
  1  9  2  0  0  0  0
  2 11  2  0  0  0  0
  3 23  1  0  0  0  0
  4 25  1  0  0  0  0
  5  9  1  0  0  0  0
  5 10  1  0  0  0  0
  6  7  1  0  0  0  0
  6  8  1  0  0  0  0
  6  9  1  0  0  0  0
  6 11  1  0  0  0  0
  7 10  1  0  0  0  0
  7 12  1  0  0  0  0
  8 14  1  0  0  0  0
  8 15  1  0  0  0  0
 10 16  1  0  0  0  0
 11 17  1  0  0  0  0
 12 13  1  0  0  0  0
 12 18  1  0  0  0  0
 13 14  2  0  0  0  0
 13 20  1  0  0  0  0
 15 19  2  0  0  0  0
 16 21  1  0  0  0  0
 17 22  2  0  0  0  0
 19 24  1  0  0  0  0
 19 26  1  0  0  0  0
 21 28  1  0  0  0  0
 21 29  1  0  0  0  0
 22 23  1  0  0  0  0
 23 25  1  0  0  0  0
 24 27  1  0  0  0  0
 25 27  1  0  0  0  0
M  END
> <PUBCHEM_COMPOUND_ID_TYPE>
0

> <PUBCHEM_TOTAL_CHARGE>
0

> <PUBCHEM_SUBSTANCE_ID>
310931400

> <PUBCHEM_SUBSTANCE_VERSION>
1

> <PUBCHEM_EXT_DATASOURCE_NAME>
4488

> <PUBCHEM_EXT_DATASOURCE_REGID>
SCHEMBL16108724

> <PUBCHEM_SUBSTANCE_COMMENT>
InChI=1S/C24H35NO4/c1-13(2)10-18-22-16(5)15(4)12-17-11-14(3)6-7-19(26)20(27)8-9-21(28)24(17,22)23(29)25-18/h8-9,11-13,16-20,22,26-27H,6-7,10H2,1-5H3,(H,25,29)/b9-8-,14-11-
InChIKey=GCIKKGSNXSCKCP-YSXFELKLSA-N

> <PUBCHEM_SUBSTANCE_SYNONYM>
SCHEMBL16108724

> <PUBCHEM_XREF_EXT_ID>
SCHEMBL16108724

> <PUBCHEM_EXT_DATASOURCE_URL>
https://www.surechembl.org/

> <PUBCHEM_EXT_SUBSTANCE_URL>
https://www.surechembl.org/chemical/SCHEMBL16108724

> <PUBCHEM_CID_ASSOCIATIONS>
24868378  1

> <PUBCHEM_COORDINATE_TYPE>
1
3

$$$$
