310946787
  -OEChem-07211613022D

 19 20  0     1  0  0  0  0  0999 V2000
   -2.3632    4.1491    0.0000 O   0  0  0  0  0  0  0  0  0  0  0  0
   -1.9940    0.2941    0.0000 N   0  0  0  0  0  0  0  0  0  0  0  0
   -1.5091   -0.3734    0.0000 N   0  0  0  0  0  0  0  0  0  0  0  0
   -1.3528    3.1386    0.0000 N   0  0  0  0  0  0  0  0  0  0  0  0
   -2.7331    2.7688    0.0000 N   0  0  0  0  0  0  0  0  0  0  0  0
    0.7044    0.7066    0.0000 N   0  0  3  0  0  0  0  0  0  0  0  0
   -1.5091    0.9615    0.0000 C   0  0  0  0  0  0  0  0  0  0  0  0
   -1.7226    1.7584    0.0000 C   0  0  0  0  0  0  0  0  0  0  0  0
   -0.7245    0.7066    0.0000 C   0  0  0  0  0  0  0  0  0  0  0  0
   -0.7245   -0.1184    0.0000 C   0  0  0  0  0  0  0  0  0  0  0  0
   -1.1393    2.3418    0.0000 C   0  0  0  0  0  0  0  0  0  0  0  0
   -2.5195    1.9719    0.0000 C   0  0  0  0  0  0  0  0  0  0  0  0
   -0.0100    1.1191    0.0000 C   0  0  0  0  0  0  0  0  0  0  0  0
   -2.1497    3.3522    0.0000 C   0  0  0  0  0  0  0  0  0  0  0  0
    1.4189    1.1191    0.0000 C   0  0  0  0  0  0  0  0  0  0  0  0
    0.7044   -0.1184    0.0000 C   0  0  0  0  0  0  0  0  0  0  0  0
    2.1334    0.7066    0.0000 C   0  0  0  0  0  0  0  0  0  0  0  0
   -1.7799    4.7324    0.0000 C   0  0  0  0  0  0  0  0  0  0  0  0
    2.8479    1.1191    0.0000 C   0  0  0  0  0  0  0  0  0  0  0  0
  1 14  1  0  0  0  0
  1 18  1  0  0  0  0
  2  3  1  0  0  0  0
  2  7  2  0  0  0  0
  3 10  1  0  0  0  0
  4 11  2  0  0  0  0
  4 14  1  0  0  0  0
  5 12  1  0  0  0  0
  5 14  2  0  0  0  0
  6 13  1  0  0  0  0
  6 15  1  0  0  0  0
  6 16  1  0  0  0  0
  7  8  1  0  0  0  0
  7  9  1  0  0  0  0
  8 11  1  0  0  0  0
  8 12  2  0  0  0  0
  9 10  2  0  0  0  0
  9 13  1  0  0  0  0
 15 17  1  0  0  0  0
 17 19  1  0  0  0  0
M  END
> <PUBCHEM_COMPOUND_ID_TYPE>
0

> <PUBCHEM_TOTAL_CHARGE>
0

> <PUBCHEM_SUBSTANCE_ID>
310946787

> <PUBCHEM_SUBSTANCE_VERSION>
1

> <PUBCHEM_EXT_DATASOURCE_NAME>
4488

> <PUBCHEM_EXT_DATASOURCE_REGID>
SCHEMBL16124911

> <PUBCHEM_SUBSTANCE_COMMENT>
InChI=1S/C13H19N5O/c1-4-5-18(2)9-11-8-16-17-12(11)10-6-14-13(19-3)15-7-10/h6-8H,4-5,9H2,1-3H3,(H,16,17)
InChIKey=IIOWWFSMVDDNNV-UHFFFAOYSA-N

> <PUBCHEM_SUBSTANCE_SYNONYM>
SCHEMBL16124911

> <PUBCHEM_XREF_EXT_ID>
SCHEMBL16124911

> <PUBCHEM_EXT_DATASOURCE_URL>
https://www.surechembl.org/

> <PUBCHEM_EXT_SUBSTANCE_URL>
https://www.surechembl.org/chemical/SCHEMBL16124911

> <PUBCHEM_CID_ASSOCIATIONS>
117612648  1

> <PUBCHEM_COORDINATE_TYPE>
1
3

$$$$
