310934842
  -OEChem-07211613022D

 21 23  0     1  0  0  0  0  0999 V2000
    2.8598   -2.8183    0.0000 O   0  0  0  0  0  0  0  0  0  0  0  0
    2.1552   -1.5749    0.0000 O   0  0  0  0  0  0  0  0  0  0  0  0
    4.8905   -2.1137    0.0000 N   0  0  3  0  0  0  0  0  0  0  0  0
    3.6679   -1.5749    0.0000 C   0  0  0  0  0  0  0  0  0  0  0  0
    4.4761   -1.4092    0.0000 C   0  0  0  0  0  0  0  0  0  0  0  0
    3.5850   -2.4038    0.0000 C   0  0  3  0  0  0  0  0  0  0  0  0
    4.3311   -2.7354    0.0000 C   0  0  0  0  0  0  0  0  0  0  0  0
    3.1291   -0.9533    0.0000 C   0  0  0  0  0  0  0  0  0  0  0  0
    4.7455   -0.6217    0.0000 C   0  0  0  0  0  0  0  0  0  0  0  0
    2.1552   -2.4038    0.0000 C   0  0  0  0  0  0  0  0  0  0  0  0
    5.7195   -2.2173    0.0000 C   0  0  0  0  0  0  0  0  0  0  0  0
    1.4299   -2.8183    0.0000 C   0  0  0  0  0  0  0  0  0  0  0  0
    3.3778   -0.1658    0.0000 C   0  0  0  0  0  0  0  0  0  0  0  0
    4.1860    0.0000    0.0000 C   0  0  0  0  0  0  0  0  0  0  0  0
    0.7045   -2.4038    0.0000 C   0  0  0  0  0  0  0  0  0  0  0  0
    1.4299   -3.6265    0.0000 C   0  0  0  0  0  0  0  0  0  0  0  0
    6.2168   -1.5335    0.0000 C   0  0  0  0  0  0  0  0  0  0  0  0
    0.0000   -2.8183    0.0000 C   0  0  0  0  0  0  0  0  0  0  0  0
    0.7045   -4.0409    0.0000 C   0  0  0  0  0  0  0  0  0  0  0  0
    0.0000   -3.6265    0.0000 C   0  0  0  0  0  0  0  0  0  0  0  0
    5.8646   -0.7875    0.0000 C   0  0  0  0  0  0  0  0  0  0  0  0
  1  6  1  0  0  0  0
  1 10  1  0  0  0  0
  2 10  2  0  0  0  0
  3  5  1  0  0  0  0
  3  7  1  0  0  0  0
  3 11  1  0  0  0  0
  4  5  2  0  0  0  0
  4  6  1  0  0  0  0
  4  8  1  0  0  0  0
  5  9  1  0  0  0  0
  6  7  1  0  0  0  0
  8 13  2  0  0  0  0
  9 14  2  0  0  0  0
 10 12  1  0  0  0  0
 11 17  1  0  0  0  0
 12 15  2  0  0  0  0
 12 16  1  0  0  0  0
 13 14  1  0  0  0  0
 15 18  1  0  0  0  0
 16 19  2  0  0  0  0
 17 21  1  0  0  0  0
 18 20  2  0  0  0  0
 19 20  1  0  0  0  0
M  END
> <PUBCHEM_COMPOUND_ID_TYPE>
0

> <PUBCHEM_TOTAL_CHARGE>
0

> <PUBCHEM_SUBSTANCE_ID>
310934842

> <PUBCHEM_SUBSTANCE_VERSION>
1

> <PUBCHEM_EXT_DATASOURCE_NAME>
4488

> <PUBCHEM_EXT_DATASOURCE_REGID>
SCHEMBL16112349

> <PUBCHEM_SUBSTANCE_COMMENT>
InChI=1S/C18H19NO2/c1-2-12-19-13-17(15-10-6-7-11-16(15)19)21-18(20)14-8-4-3-5-9-14/h3-11,17H,2,12-13H2,1H3
InChIKey=GXJQYEXQJRXNFK-UHFFFAOYSA-N

> <PUBCHEM_SUBSTANCE_SYNONYM>
SCHEMBL16112349

> <PUBCHEM_XREF_EXT_ID>
SCHEMBL16112349

> <PUBCHEM_EXT_DATASOURCE_URL>
https://www.surechembl.org/

> <PUBCHEM_EXT_SUBSTANCE_URL>
https://www.surechembl.org/chemical/SCHEMBL16112349

> <PUBCHEM_CID_ASSOCIATIONS>
117602980  1

> <PUBCHEM_COORDINATE_TYPE>
1
3

$$$$
