310935585
  -OEChem-07211613022D

 15 16  0     1  0  0  0  0  0999 V2000
    0.0000   -0.7402    0.0000 O   0  0  0  0  0  0  0  0  0  0  0  0
    5.0467   -2.1869    0.0000 O   0  0  0  0  0  0  0  0  0  0  0  0
    1.2280   -1.4635    0.0000 N   0  0  0  0  0  0  0  0  0  0  0  0
    0.0000   -2.1869    0.0000 N   0  0  0  0  0  0  0  0  0  0  0  0
    5.0467   -0.7570    0.0000 N   0  0  0  0  0  0  0  0  0  0  0  0
    2.5065   -1.0767    0.0000 C   0  0  3  0  0  0  0  0  0  0  0  0
    2.5065   -1.8673    0.0000 C   0  0  3  0  0  0  0  0  0  0  0  0
    1.7327   -0.7907    0.0000 C   0  0  3  0  0  0  0  0  0  0  0  0
    1.7327   -2.1364    0.0000 C   0  0  0  0  0  0  0  0  0  0  0  0
    3.8019   -1.4635    0.0000 C   0  0  3  0  0  0  0  0  0  0  0  0
    3.3140   -0.7907    0.0000 C   0  0  0  0  0  0  0  0  0  0  0  0
    3.3140   -2.1364    0.0000 C   0  0  0  0  0  0  0  0  0  0  0  0
    0.4037   -1.4635    0.0000 C   0  0  0  0  0  0  0  0  0  0  0  0
    4.6261   -1.4635    0.0000 C   0  0  0  0  0  0  0  0  0  0  0  0
    1.4972    0.0000    0.0000 C   0  0  0  0  0  0  0  0  0  0  0  0
  1 13  2  0  0  0  0
  2 14  2  0  0  0  0
  3  8  1  0  0  0  0
  3  9  1  0  0  0  0
  3 13  1  0  0  0  0
  4 13  1  0  0  0  0
  5 14  1  0  0  0  0
  6  7  1  0  0  0  0
  6  8  1  0  0  0  0
  6 11  1  0  0  0  0
  7  9  1  0  0  0  0
  7 12  1  0  0  0  0
  8 15  1  0  0  0  0
 10 11  1  0  0  0  0
 10 12  1  0  0  0  0
 10 14  1  0  0  0  0
M  END
> <PUBCHEM_COMPOUND_ID_TYPE>
0

> <PUBCHEM_TOTAL_CHARGE>
0

> <PUBCHEM_SUBSTANCE_ID>
310935585

> <PUBCHEM_SUBSTANCE_VERSION>
1

> <PUBCHEM_EXT_DATASOURCE_NAME>
4488

> <PUBCHEM_EXT_DATASOURCE_REGID>
SCHEMBL16113158

> <PUBCHEM_SUBSTANCE_COMMENT>
InChI=1S/C10H17N3O2/c1-5-8-3-6(9(11)14)2-7(8)4-13(5)10(12)15/h5-8H,2-4H2,1H3,(H2,11,14)(H2,12,15)
InChIKey=LOXTUROBRJOJLJ-UHFFFAOYSA-N

> <PUBCHEM_SUBSTANCE_SYNONYM>
SCHEMBL16113158

> <PUBCHEM_XREF_EXT_ID>
SCHEMBL16113158

> <PUBCHEM_EXT_DATASOURCE_URL>
https://www.surechembl.org/

> <PUBCHEM_EXT_SUBSTANCE_URL>
https://www.surechembl.org/chemical/SCHEMBL16113158

> <PUBCHEM_CID_ASSOCIATIONS>
117603607  1

> <PUBCHEM_COORDINATE_TYPE>
1
3

$$$$
