310935776
  -OEChem-07211613022D

 41 46  0     1  0  0  0  0  0999 V2000
    5.6896   -3.6862    0.0000 S   0  0  0  0  0  0  0  0  0  0  0  0
    6.1437   -4.4609    0.0000 O   0  0  0  0  0  0  0  0  0  0  0  0
    5.2889   -2.9917    0.0000 O   0  0  0  0  0  0  0  0  0  0  0  0
    4.9951   -1.6561    0.0000 O   0  0  0  0  0  0  0  0  0  0  0  0
    2.1370   -4.1136    0.0000 N   0  0  3  0  0  0  0  0  0  0  0  0
    0.6945   -4.1136    0.0000 N   0  0  0  0  0  0  0  0  0  0  0  0
    0.0000   -2.8581    0.0000 N   0  0  0  0  0  0  0  0  0  0  0  0
    6.3841   -3.2856    0.0000 N   0  0  3  0  0  0  0  0  0  0  0  0
    4.4075   -1.3890    0.0000 N   0  0  0  0  0  0  0  0  0  0  0  0
    1.4424   -2.8581    0.0000 C   0  0  0  0  0  0  0  0  0  0  0  0
    1.4157   -3.6862    0.0000 C   0  0  0  0  0  0  0  0  0  0  0  0
    0.7212   -2.4575    0.0000 C   0  0  0  0  0  0  0  0  0  0  0  0
    3.5794   -4.1136    0.0000 C   0  0  0  0  0  0  0  0  0  0  0  0
    4.9684   -4.1136    0.0000 C   0  0  0  0  0  0  0  0  0  0  0  0
    3.5794   -4.9150    0.0000 C   0  0  0  0  0  0  0  0  0  0  0  0
    2.1370   -1.6561    0.0000 C   0  0  0  0  0  0  0  0  0  0  0  0
    2.1370   -2.4842    0.0000 C   0  0  0  0  0  0  0  0  0  0  0  0
    0.6945   -1.6561    0.0000 C   0  0  0  0  0  0  0  0  0  0  0  0
    2.8581   -3.6862    0.0000 C   0  0  0  0  0  0  0  0  0  0  0  0
    4.2739   -3.6862    0.0000 C   0  0  0  0  0  0  0  0  0  0  0  0
    2.1370   -4.9150    0.0000 C   0  0  0  0  0  0  0  0  0  0  0  0
    1.4157   -1.2287    0.0000 C   0  0  0  0  0  0  0  0  0  0  0  0
    2.8581   -5.3424    0.0000 C   0  0  0  0  0  0  0  0  0  0  0  0
    2.8581   -1.2287    0.0000 C   0  0  0  0  0  0  0  0  0  0  0  0
    4.9684   -4.9150    0.0000 C   0  0  0  0  0  0  0  0  0  0  0  0
    4.2739   -5.3424    0.0000 C   0  0  0  0  0  0  0  0  0  0  0  0
    0.0000   -3.7129    0.0000 C   0  0  0  0  0  0  0  0  0  0  0  0
    3.5527   -1.6294    0.0000 C   0  0  0  0  0  0  0  0  0  0  0  0
    6.3841   -2.4842    0.0000 C   0  0  0  0  0  0  0  0  0  0  0  0
    0.0000   -1.2287    0.0000 C   0  0  0  0  0  0  0  0  0  0  0  0
    2.8581   -0.4007    0.0000 C   0  0  0  0  0  0  0  0  0  0  0  0
    4.2739   -1.2287    0.0000 C   0  0  0  0  0  0  0  0  0  0  0  0
    5.6629   -2.0568    0.0000 C   0  0  0  0  0  0  0  0  0  0  0  0
    7.1053   -3.7129    0.0000 C   0  0  0  0  0  0  0  0  0  0  0  0
    3.5527    0.0000    0.0000 C   0  0  0  0  0  0  0  0  0  0  0  0
    4.2739   -0.4274    0.0000 C   0  0  0  0  0  0  0  0  0  0  0  0
    5.8499   -1.3890    0.0000 C   0  0  0  0  0  0  0  0  0  0  0  0
    4.9684   -2.4575    0.0000 C   0  0  0  0  0  0  0  0  0  0  0  0
    4.9684   -0.8014    0.0000 C   0  0  0  0  0  0  0  0  0  0  0  0
    4.2472   -2.0568    0.0000 C   0  0  0  0  0  0  0  0  0  0  0  0
    5.6896   -1.2287    0.0000 C   0  0  0  0  0  0  0  0  0  0  0  0
  1  2  2  0  0  0  0
  1  3  2  0  0  0  0
  1  8  1  0  0  0  0
  1 14  1  0  0  0  0
  4 32  1  0  0  0  0
  4 41  1  0  0  0  0
  5 11  1  0  0  0  0
  5 19  1  0  0  0  0
  5 21  1  0  0  0  0
  6 11  1  0  0  0  0
  6 27  2  0  0  0  0
  7 12  2  0  0  0  0
  7 27  1  0  0  0  0
  8 29  1  0  0  0  0
  8 34  1  0  0  0  0
  9 39  1  0  0  0  0
  9 40  1  0  0  0  0
 10 11  2  0  0  0  0
 10 12  1  0  0  0  0
 10 17  1  0  0  0  0
 12 18  1  0  0  0  0
 13 15  2  0  0  0  0
 13 19  1  0  0  0  0
 13 20  1  0  0  0  0
 14 20  2  0  0  0  0
 14 25  1  0  0  0  0
 15 23  1  0  0  0  0
 15 26  1  0  0  0  0
 16 17  2  0  0  0  0
 16 22  1  0  0  0  0
 16 24  1  0  0  0  0
 18 22  2  0  0  0  0
 18 30  1  0  0  0  0
 21 23  1  0  0  0  0
 24 28  1  0  0  0  0
 24 31  2  0  0  0  0
 25 26  2  0  0  0  0
 28 32  2  0  0  0  0
 29 33  1  0  0  0  0
 31 35  1  0  0  0  0
 32 36  1  0  0  0  0
 33 37  1  0  0  0  0
 33 38  1  0  0  0  0
 35 36  2  0  0  0  0
 37 39  1  0  0  0  0
 38 40  1  0  0  0  0
M  END
> <PUBCHEM_COMPOUND_ID_TYPE>
0

> <PUBCHEM_TOTAL_CHARGE>
0

> <PUBCHEM_SUBSTANCE_ID>
310935776

> <PUBCHEM_SUBSTANCE_VERSION>
1

> <PUBCHEM_EXT_DATASOURCE_NAME>
4488

> <PUBCHEM_EXT_DATASOURCE_REGID>
SCHEMBL16113360

> <PUBCHEM_SUBSTANCE_COMMENT>
InChI=1S/C32H37N5O3S/c1-22-15-26(25-5-4-6-28(16-25)40-3)18-30-31(22)34-21-35-32(30)37-14-11-24-7-8-29(17-27(24)20-37)41(38,39)36(2)19-23-9-12-33-13-10-23/h4-8,15-18,21,23,33H,9-14,19-20H2,1-3H3
InChIKey=JSKCOGMCGZWBHK-UHFFFAOYSA-N

> <PUBCHEM_SUBSTANCE_SYNONYM>
SCHEMBL16113360

> <PUBCHEM_XREF_EXT_ID>
SCHEMBL16113360

> <PUBCHEM_EXT_DATASOURCE_URL>
https://www.surechembl.org/

> <PUBCHEM_EXT_SUBSTANCE_URL>
https://www.surechembl.org/chemical/SCHEMBL16113360

> <PUBCHEM_CID_ASSOCIATIONS>
86300478  1

> <PUBCHEM_COORDINATE_TYPE>
1
3

$$$$
